# Generated by pormake.
# Topology uko, (4)-cn, num edge types: 1
# Building blocks:
#     Node 0, Type 0, BuildingBlock: QUQFOY_clean_sbu_3, # of connection points: 4
#     Node 1, Type 0, BuildingBlock: QUQFOY_clean_sbu_3, # of connection points: 4
#     Node 2, Type 0, BuildingBlock: QUQFOY_clean_sbu_3, # of connection points: 4
#     Node 3, Type 0, BuildingBlock: QUQFOY_clean_sbu_3, # of connection points: 4
#     Node 4, Type 0, BuildingBlock: QUQFOY_clean_sbu_3, # of connection points: 4
#     Node 5, Type 0, BuildingBlock: QUQFOY_clean_sbu_3, # of connection points: 4
#     Node 6, Type 0, BuildingBlock: QUQFOY_clean_sbu_3, # of connection points: 4
#     Node 7, Type 0, BuildingBlock: QUQFOY_clean_sbu_3, # of connection points: 4
#     Node 8, Type 0, BuildingBlock: QUQFOY_clean_sbu_3, # of connection points: 4
#     Node 9, Type 0, BuildingBlock: QUQFOY_clean_sbu_3, # of connection points: 4
#     Node 10, Type 0, BuildingBlock: QUQFOY_clean_sbu_3, # of connection points: 4
#     Node 11, Type 0, BuildingBlock: QUQFOY_clean_sbu_3, # of connection points: 4
#     Node 12, Type 0, BuildingBlock: QUQFOY_clean_sbu_3, # of connection points: 4
#     Node 13, Type 0, BuildingBlock: QUQFOY_clean_sbu_3, # of connection points: 4
#     Node 14, Type 0, BuildingBlock: QUQFOY_clean_sbu_3, # of connection points: 4
#     Node 15, Type 0, BuildingBlock: QUQFOY_clean_sbu_3, # of connection points: 4
#     Node 16, Type 0, BuildingBlock: QUQFOY_clean_sbu_3, # of connection points: 4
#     Node 17, Type 0, BuildingBlock: QUQFOY_clean_sbu_3, # of connection points: 4
#     Node 18, Type 0, BuildingBlock: QUQFOY_clean_sbu_3, # of connection points: 4
#     Node 19, Type 0, BuildingBlock: QUQFOY_clean_sbu_3, # of connection points: 4
#     Node 20, Type 0, BuildingBlock: QUQFOY_clean_sbu_3, # of connection points: 4
#     Node 21, Type 0, BuildingBlock: QUQFOY_clean_sbu_3, # of connection points: 4
#     Node 22, Type 0, BuildingBlock: QUQFOY_clean_sbu_3, # of connection points: 4
#     Node 23, Type 0, BuildingBlock: QUQFOY_clean_sbu_3, # of connection points: 4
#     Node 24, Type 0, BuildingBlock: QUQFOY_clean_sbu_3, # of connection points: 4
#     Node 25, Type 0, BuildingBlock: QUQFOY_clean_sbu_3, # of connection points: 4
#     Node 26, Type 0, BuildingBlock: QUQFOY_clean_sbu_3, # of connection points: 4
#     Node 27, Type 0, BuildingBlock: QUQFOY_clean_sbu_3, # of connection points: 4
#     Node 28, Type 0, BuildingBlock: QUQFOY_clean_sbu_3, # of connection points: 4
#     Node 29, Type 0, BuildingBlock: QUQFOY_clean_sbu_3, # of connection points: 4
#     Node 30, Type 0, BuildingBlock: QUQFOY_clean_sbu_3, # of connection points: 4
#     Node 31, Type 0, BuildingBlock: QUQFOY_clean_sbu_3, # of connection points: 4
#     Node 32, Type 0, BuildingBlock: QUQFOY_clean_sbu_3, # of connection points: 4
#     Node 33, Type 0, BuildingBlock: QUQFOY_clean_sbu_3, # of connection points: 4
#     Node 34, Type 0, BuildingBlock: QUQFOY_clean_sbu_3, # of connection points: 4
#     Node 35, Type 0, BuildingBlock: QUQFOY_clean_sbu_3, # of connection points: 4
#     Node 36, Type 0, BuildingBlock: QUQFOY_clean_sbu_3, # of connection points: 4
#     Node 37, Type 0, BuildingBlock: QUQFOY_clean_sbu_3, # of connection points: 4
#     Node 38, Type 0, BuildingBlock: QUQFOY_clean_sbu_3, # of connection points: 4
#     Node 39, Type 0, BuildingBlock: QUQFOY_clean_sbu_3, # of connection points: 4
#     Node 40, Type 0, BuildingBlock: QUQFOY_clean_sbu_3, # of connection points: 4
#     Node 41, Type 0, BuildingBlock: QUQFOY_clean_sbu_3, # of connection points: 4
#     Node 42, Type 0, BuildingBlock: QUQFOY_clean_sbu_3, # of connection points: 4
#     Node 43, Type 0, BuildingBlock: QUQFOY_clean_sbu_3, # of connection points: 4
#     Node 44, Type 0, BuildingBlock: QUQFOY_clean_sbu_3, # of connection points: 4
#     Node 45, Type 0, BuildingBlock: QUQFOY_clean_sbu_3, # of connection points: 4
#     Node 46, Type 0, BuildingBlock: QUQFOY_clean_sbu_3, # of connection points: 4
#     Node 47, Type 0, BuildingBlock: QUQFOY_clean_sbu_3, # of connection points: 4
#     Edge 48, Type (0, 0), BuildingBlock: UVAHIK_clean_linker_0, # of connection points: 2
#     Edge 49, Type (0, 0), BuildingBlock: UVAHIK_clean_linker_0, # of connection points: 2
#     Edge 50, Type (0, 0), BuildingBlock: UVAHIK_clean_linker_0, # of connection points: 2
#     Edge 51, Type (0, 0), BuildingBlock: UVAHIK_clean_linker_0, # of connection points: 2
#     Edge 52, Type (0, 0), BuildingBlock: UVAHIK_clean_linker_0, # of connection points: 2
#     Edge 53, Type (0, 0), BuildingBlock: UVAHIK_clean_linker_0, # of connection points: 2
#     Edge 54, Type (0, 0), BuildingBlock: UVAHIK_clean_linker_0, # of connection points: 2
#     Edge 55, Type (0, 0), BuildingBlock: UVAHIK_clean_linker_0, # of connection points: 2
#     Edge 56, Type (0, 0), BuildingBlock: UVAHIK_clean_linker_0, # of connection points: 2
#     Edge 57, Type (0, 0), BuildingBlock: UVAHIK_clean_linker_0, # of connection points: 2
#     Edge 58, Type (0, 0), BuildingBlock: UVAHIK_clean_linker_0, # of connection points: 2
#     Edge 59, Type (0, 0), BuildingBlock: UVAHIK_clean_linker_0, # of connection points: 2
#     Edge 60, Type (0, 0), BuildingBlock: UVAHIK_clean_linker_0, # of connection points: 2
#     Edge 61, Type (0, 0), BuildingBlock: UVAHIK_clean_linker_0, # of connection points: 2
#     Edge 62, Type (0, 0), BuildingBlock: UVAHIK_clean_linker_0, # of connection points: 2
#     Edge 63, Type (0, 0), BuildingBlock: UVAHIK_clean_linker_0, # of connection points: 2
#     Edge 64, Type (0, 0), BuildingBlock: UVAHIK_clean_linker_0, # of connection points: 2
#     Edge 65, Type (0, 0), BuildingBlock: UVAHIK_clean_linker_0, # of connection points: 2
#     Edge 66, Type (0, 0), BuildingBlock: UVAHIK_clean_linker_0, # of connection points: 2
#     Edge 67, Type (0, 0), BuildingBlock: UVAHIK_clean_linker_0, # of connection points: 2
#     Edge 68, Type (0, 0), BuildingBlock: UVAHIK_clean_linker_0, # of connection points: 2
#     Edge 69, Type (0, 0), BuildingBlock: UVAHIK_clean_linker_0, # of connection points: 2
#     Edge 70, Type (0, 0), BuildingBlock: UVAHIK_clean_linker_0, # of connection points: 2
#     Edge 71, Type (0, 0), BuildingBlock: UVAHIK_clean_linker_0, # of connection points: 2
#     Edge 72, Type (0, 0), BuildingBlock: UVAHIK_clean_linker_0, # of connection points: 2
#     Edge 73, Type (0, 0), BuildingBlock: UVAHIK_clean_linker_0, # of connection points: 2
#     Edge 74, Type (0, 0), BuildingBlock: UVAHIK_clean_linker_0, # of connection points: 2
#     Edge 75, Type (0, 0), BuildingBlock: UVAHIK_clean_linker_0, # of connection points: 2
#     Edge 76, Type (0, 0), BuildingBlock: UVAHIK_clean_linker_0, # of connection points: 2
#     Edge 77, Type (0, 0), BuildingBlock: UVAHIK_clean_linker_0, # of connection points: 2
#     Edge 78, Type (0, 0), BuildingBlock: UVAHIK_clean_linker_0, # of connection points: 2
#     Edge 79, Type (0, 0), BuildingBlock: UVAHIK_clean_linker_0, # of connection points: 2
#     Edge 80, Type (0, 0), BuildingBlock: UVAHIK_clean_linker_0, # of connection points: 2
#     Edge 81, Type (0, 0), BuildingBlock: UVAHIK_clean_linker_0, # of connection points: 2
#     Edge 82, Type (0, 0), BuildingBlock: UVAHIK_clean_linker_0, # of connection points: 2
#     Edge 83, Type (0, 0), BuildingBlock: UVAHIK_clean_linker_0, # of connection points: 2
#     Edge 84, Type (0, 0), BuildingBlock: UVAHIK_clean_linker_0, # of connection points: 2
#     Edge 85, Type (0, 0), BuildingBlock: UVAHIK_clean_linker_0, # of connection points: 2
#     Edge 86, Type (0, 0), BuildingBlock: UVAHIK_clean_linker_0, # of connection points: 2
#     Edge 87, Type (0, 0), BuildingBlock: UVAHIK_clean_linker_0, # of connection points: 2
#     Edge 88, Type (0, 0), BuildingBlock: UVAHIK_clean_linker_0, # of connection points: 2
#     Edge 89, Type (0, 0), BuildingBlock: UVAHIK_clean_linker_0, # of connection points: 2
#     Edge 90, Type (0, 0), BuildingBlock: UVAHIK_clean_linker_0, # of connection points: 2
#     Edge 91, Type (0, 0), BuildingBlock: UVAHIK_clean_linker_0, # of connection points: 2
#     Edge 92, Type (0, 0), BuildingBlock: UVAHIK_clean_linker_0, # of connection points: 2
#     Edge 93, Type (0, 0), BuildingBlock: UVAHIK_clean_linker_0, # of connection points: 2
#     Edge 94, Type (0, 0), BuildingBlock: UVAHIK_clean_linker_0, # of connection points: 2
#     Edge 95, Type (0, 0), BuildingBlock: UVAHIK_clean_linker_0, # of connection points: 2
#     Edge 96, Type (0, 0), BuildingBlock: UVAHIK_clean_linker_0, # of connection points: 2
#     Edge 97, Type (0, 0), BuildingBlock: UVAHIK_clean_linker_0, # of connection points: 2
#     Edge 98, Type (0, 0), BuildingBlock: UVAHIK_clean_linker_0, # of connection points: 2
#     Edge 99, Type (0, 0), BuildingBlock: UVAHIK_clean_linker_0, # of connection points: 2
#     Edge 100, Type (0, 0), BuildingBlock: UVAHIK_clean_linker_0, # of connection points: 2
#     Edge 101, Type (0, 0), BuildingBlock: UVAHIK_clean_linker_0, # of connection points: 2
#     Edge 102, Type (0, 0), BuildingBlock: UVAHIK_clean_linker_0, # of connection points: 2
#     Edge 103, Type (0, 0), BuildingBlock: UVAHIK_clean_linker_0, # of connection points: 2
#     Edge 104, Type (0, 0), BuildingBlock: UVAHIK_clean_linker_0, # of connection points: 2
#     Edge 105, Type (0, 0), BuildingBlock: UVAHIK_clean_linker_0, # of connection points: 2
#     Edge 106, Type (0, 0), BuildingBlock: UVAHIK_clean_linker_0, # of connection points: 2
#     Edge 107, Type (0, 0), BuildingBlock: UVAHIK_clean_linker_0, # of connection points: 2
#     Edge 108, Type (0, 0), BuildingBlock: UVAHIK_clean_linker_0, # of connection points: 2
#     Edge 109, Type (0, 0), BuildingBlock: UVAHIK_clean_linker_0, # of connection points: 2
#     Edge 110, Type (0, 0), BuildingBlock: UVAHIK_clean_linker_0, # of connection points: 2
#     Edge 111, Type (0, 0), BuildingBlock: UVAHIK_clean_linker_0, # of connection points: 2
#     Edge 112, Type (0, 0), BuildingBlock: UVAHIK_clean_linker_0, # of connection points: 2
#     Edge 113, Type (0, 0), BuildingBlock: UVAHIK_clean_linker_0, # of connection points: 2
#     Edge 114, Type (0, 0), BuildingBlock: UVAHIK_clean_linker_0, # of connection points: 2
#     Edge 115, Type (0, 0), BuildingBlock: UVAHIK_clean_linker_0, # of connection points: 2
#     Edge 116, Type (0, 0), BuildingBlock: UVAHIK_clean_linker_0, # of connection points: 2
#     Edge 117, Type (0, 0), BuildingBlock: UVAHIK_clean_linker_0, # of connection points: 2
#     Edge 118, Type (0, 0), BuildingBlock: UVAHIK_clean_linker_0, # of connection points: 2
#     Edge 119, Type (0, 0), BuildingBlock: UVAHIK_clean_linker_0, # of connection points: 2
#     Edge 120, Type (0, 0), BuildingBlock: UVAHIK_clean_linker_0, # of connection points: 2
#     Edge 121, Type (0, 0), BuildingBlock: UVAHIK_clean_linker_0, # of connection points: 2
#     Edge 122, Type (0, 0), BuildingBlock: UVAHIK_clean_linker_0, # of connection points: 2
#     Edge 123, Type (0, 0), BuildingBlock: UVAHIK_clean_linker_0, # of connection points: 2
#     Edge 124, Type (0, 0), BuildingBlock: UVAHIK_clean_linker_0, # of connection points: 2
#     Edge 125, Type (0, 0), BuildingBlock: UVAHIK_clean_linker_0, # of connection points: 2
#     Edge 126, Type (0, 0), BuildingBlock: UVAHIK_clean_linker_0, # of connection points: 2
#     Edge 127, Type (0, 0), BuildingBlock: UVAHIK_clean_linker_0, # of connection points: 2
#     Edge 128, Type (0, 0), BuildingBlock: UVAHIK_clean_linker_0, # of connection points: 2
#     Edge 129, Type (0, 0), BuildingBlock: UVAHIK_clean_linker_0, # of connection points: 2
#     Edge 130, Type (0, 0), BuildingBlock: UVAHIK_clean_linker_0, # of connection points: 2
#     Edge 131, Type (0, 0), BuildingBlock: UVAHIK_clean_linker_0, # of connection points: 2
#     Edge 132, Type (0, 0), BuildingBlock: UVAHIK_clean_linker_0, # of connection points: 2
#     Edge 133, Type (0, 0), BuildingBlock: UVAHIK_clean_linker_0, # of connection points: 2
#     Edge 134, Type (0, 0), BuildingBlock: UVAHIK_clean_linker_0, # of connection points: 2
#     Edge 135, Type (0, 0), BuildingBlock: UVAHIK_clean_linker_0, # of connection points: 2
#     Edge 136, Type (0, 0), BuildingBlock: UVAHIK_clean_linker_0, # of connection points: 2
#     Edge 137, Type (0, 0), BuildingBlock: UVAHIK_clean_linker_0, # of connection points: 2
#     Edge 138, Type (0, 0), BuildingBlock: UVAHIK_clean_linker_0, # of connection points: 2
#     Edge 139, Type (0, 0), BuildingBlock: UVAHIK_clean_linker_0, # of connection points: 2
#     Edge 140, Type (0, 0), BuildingBlock: UVAHIK_clean_linker_0, # of connection points: 2
#     Edge 141, Type (0, 0), BuildingBlock: UVAHIK_clean_linker_0, # of connection points: 2
#     Edge 142, Type (0, 0), BuildingBlock: UVAHIK_clean_linker_0, # of connection points: 2
#     Edge 143, Type (0, 0), BuildingBlock: UVAHIK_clean_linker_0, # of connection points: 2
# Relax obj value: 0.300
# Max RMSD: 0.155
# Mean RMSD: 0.155
data_MOF--net-uko--node1-QUQFOY_clean_sbu_3--edge1-UVAHIK_clean_linker_0
_symmetry_space_group_name_H-M    P1
_symmetry_Int_Tables_number       1
_symmetry_cell_setting            triclinic
loop_
_symmetry_equiv_pos_as_xyz
'x, y, z'
_cell_length_a     74.942595
_cell_length_b     74.610966
_cell_length_c     74.563155
_cell_angle_alpha  89.946684
_cell_angle_beta   89.856449
_cell_angle_gamma 90.009689
loop_
_atom_site_label
_atom_site_type_symbol
_atom_site_fract_x
_atom_site_fract_y
_atom_site_fract_z
_atom_type_partial_charge
C0 C 0.05246 0.36252 0.16275 0.0
O1 O 0.05056 0.3645 0.17924 0.0
Cd2 Cd 0.0551 0.3714 0.20845 0.0
O3 O 0.03936 0.35576 0.15457 0.0
Cd4 Cd 0.01788 0.34918 0.18115 0.0
C5 C 0.01413 0.38733 0.19127 0.0
O6 O 0.03954 0.34452 0.20758 0.0
O7 O 0.01163 0.34306 0.21385 0.0
O8 O 0.0188 0.31964 0.17066 0.0
C9 C 0.02762 0.34232 0.21933 0.0
O10 O 0.02758 0.37844 0.19576 0.0
C11 C 0.00207 0.31763 0.16934 0.0
O12 O 0.00272 0.37948 0.18147 0.0
O13 O -0.00787 0.33115 0.17231 0.0
C14 C 0.89544 0.08806 0.16439 0.0
O15 O 0.89414 0.085 0.18087 0.0
Cd16 Cd 0.89618 0.08089 0.21082 0.0
O17 O 0.90976 0.0947 0.15815 0.0
Cd18 Cd 0.93136 0.10286 0.18301 0.0
C19 C 0.9364 0.06358 0.19183 0.0
O20 O 0.91037 0.10798 0.2089 0.0
O21 O 0.93837 0.10859 0.215 0.0
O22 O 0.93115 0.13166 0.16914 0.0
C23 C 0.92243 0.10985 0.22048 0.0
O24 O 0.92226 0.06976 0.19848 0.0
C25 C 0.94793 0.13366 0.17005 0.0
O26 O 0.94652 0.07373 0.18269 0.0
O27 O 0.95717 0.12061 0.17586 0.0
C28 C 0.05816 0.594 0.28845 0.0
O29 O 0.06644 0.59944 0.2747 0.0
Cd30 Cd 0.05376 0.59091 0.24751 0.0
O31 O 0.04128 0.59194 0.28819 0.0
Cd32 Cd 0.01894 0.60569 0.26716 0.0
C33 C 0.01589 0.56497 0.26151 0.0
O34 O 0.03689 0.61574 0.24233 0.0
O35 O 0.01075 0.60591 0.23514 0.0
O36 O 0.01878 0.63368 0.28308 0.0
C37 C 0.02549 0.61272 0.23031 0.0
O38 O 0.03113 0.5688 0.25495 0.0
C39 C 0.00199 0.6357 0.28213 0.0
O40 O 0.00562 0.5769 0.2679 0.0
O41 O -0.00709 0.62288 0.27559 0.0
C42 C 0.89148 0.8656 0.28629 0.0
O43 O 0.88377 0.86662 0.27116 0.0
Cd44 Cd 0.89726 0.86785 0.24317 0.0
O45 O 0.90811 0.86197 0.28791 0.0
Cd46 Cd 0.93353 0.85126 0.26821 0.0
C47 C 0.9362 0.88933 0.26126 0.0
O48 O 0.91364 0.84184 0.24442 0.0
O49 O 0.94016 0.84794 0.23534 0.0
O50 O 0.93138 0.82294 0.28228 0.0
C51 C 0.92456 0.84248 0.23158 0.0
O52 O 0.92313 0.88046 0.25555 0.0
C53 C 0.94801 0.82014 0.28331 0.0
O54 O 0.94816 0.88104 0.26994 0.0
O55 O 0.95843 0.83282 0.27878 0.0
C56 C 0.16375 0.06017 0.36525 0.0
O57 O 0.17866 0.06721 0.36932 0.0
Cd58 Cd 0.20699 0.0544 0.37008 0.0
O59 O 0.16225 0.04416 0.35936 0.0
Cd60 Cd 0.18209 0.01862 0.35023 0.0
C61 C 0.18851 0.01499 0.38781 0.0
O62 O 0.20657 0.03944 0.3425 0.0
O63 O 0.21468 0.01224 0.34792 0.0
O64 O 0.1673 0.0202 0.32175 0.0
C65 C 0.21885 0.0279 0.34278 0.0
O66 O 0.19343 0.02788 0.37825 0.0
C67 C 0.16797 0.00348 0.31883 0.0
O68 O 0.17904 0.00312 0.38029 0.0
O69 O 0.17401 -0.00642 0.33129 0.0
C70 C 0.78899 0.39202 0.35882 0.0
O71 O 0.77559 0.38407 0.3523 0.0
Cd72 Cd 0.74849 0.39519 0.36309 0.0
O73 O 0.78852 0.40881 0.36202 0.0
Cd74 Cd 0.76814 0.43281 0.34989 0.0
C75 C 0.76237 0.43473 0.38774 0.0
O76 O 0.7436 0.41401 0.33924 0.0
O77 O 0.73506 0.43897 0.35089 0.0
O78 O 0.78218 0.43132 0.32117 0.0
C79 C 0.73097 0.42452 0.34293 0.0
O80 O 0.75766 0.42108 0.37898 0.0
C81 C 0.78286 0.44812 0.31879 0.0
O82 O 0.77069 0.44712 0.37956 0.0
O83 O 0.77765 0.45814 0.33156 0.0
C84 C 0.16046 0.89435 0.09414 0.0
O85 O 0.17395 0.88668 0.10084 0.0
Cd86 Cd 0.20054 0.89626 0.08698 0.0
O87 O 0.16086 0.91111 0.09068 0.0
Cd88 Cd 0.18149 0.93519 0.10263 0.0
C89 C 0.18692 0.93708 0.06462 0.0
O90 O 0.20627 0.91494 0.11053 0.0
O91 O 0.2142 0.94211 0.10507 0.0
O92 O 0.16782 0.93269 0.13098 0.0
C93 C 0.2187 0.92618 0.109 0.0
O94 O 0.19109 0.92331 0.07344 0.0
C95 C 0.16694 0.94937 0.13408 0.0
O96 O 0.17913 0.94975 0.07285 0.0
O97 O 0.17131 0.96004 0.1215 0.0
C98 C 0.78585 0.56162 0.08765 0.0
O99 O 0.76994 0.56614 0.08414 0.0
Cd100 Cd 0.74189 0.55391 0.0854 0.0
O101 O 0.78961 0.54636 0.09431 0.0
Cd102 Cd 0.76819 0.52248 0.10362 0.0
C103 C 0.76016 0.51719 0.06249 0.0
O104 O 0.74429 0.54138 0.11343 0.0
O105 O 0.73551 0.51528 0.10538 0.0
O106 O 0.78366 0.52232 0.13171 0.0
C107 C 0.73164 0.53036 0.1122 0.0
O108 O 0.75077 0.53093 0.06578 0.0
C109 C 0.78252 0.5055 0.13375 0.0
O110 O 0.7699 0.50976 0.07425 0.0
O111 O 0.77593 0.49637 0.121 0.0
C112 C 0.36237 0.16581 0.06074 0.0
O113 O 0.36563 0.18124 0.06704 0.0
Cd114 Cd 0.3646 0.20911 0.0536 0.0
O115 O 0.35627 0.16351 0.04494 0.0
Cd116 Cd 0.3466 0.18436 0.02051 0.0
C117 C 0.38743 0.19154 0.01573 0.0
O118 O 0.33713 0.20808 0.03972 0.0
O119 O 0.34519 0.21703 0.01354 0.0
O120 O 0.31844 0.16872 0.02075 0.0
C121 C 0.33837 0.22079 0.02866 0.0
O122 O 0.3837 0.19992 0.03003 0.0
C123 C 0.3159 0.17014 0.00401 0.0
O124 O 0.37579 0.18265 0.00715 0.0
O125 O 0.32847 0.1768 -0.00535 0.0
C126 C 0.35565 0.79132 0.3926 0.0
O127 O 0.34845 0.77804 0.38496 0.0
Cd128 Cd 0.36168 0.75117 0.39442 0.0
O129 O 0.3594 0.79065 0.40926 0.0
Cd130 Cd 0.34725 0.76986 0.43293 0.0
C131 C 0.38534 0.76435 0.43478 0.0
O132 O 0.33831 0.74495 0.41323 0.0
O133 O 0.34744 0.73703 0.43947 0.0
O134 O 0.31889 0.78524 0.43193 0.0
C135 C 0.34163 0.73254 0.42417 0.0
O136 O 0.37681 0.75995 0.4209 0.0
C137 C 0.31607 0.784 0.44867 0.0
O138 O 0.37696 0.77235 0.44726 0.0
O139 O 0.3285 0.77751 0.45828 0.0
C140 C 0.58718 0.66803 0.39202 0.0
O141 O 0.58371 0.68363 0.38624 0.0
Cd142 Cd 0.58464 0.71157 0.39934 0.0
O143 O 0.59341 0.66528 0.40771 0.0
Cd144 Cd 0.6029 0.68597 0.43245 0.0
C145 C 0.56204 0.69375 0.43718 0.0
O146 O 0.61195 0.70979 0.4131 0.0
O147 O 0.60545 0.7187 0.43966 0.0
O148 O 0.63163 0.67291 0.43093 0.0
C149 C 0.6114 0.7225 0.42416 0.0
O150 O 0.56581 0.70218 0.42291 0.0
C151 C 0.63404 0.67155 0.44768 0.0
O152 O 0.57362 0.68475 0.44574 0.0
O153 O 0.62101 0.67546 0.45792 0.0
C154 C 0.09188 0.79256 0.56057 0.0
O155 O 0.10176 0.78061 0.56718 0.0
Cd156 Cd 0.088 0.75347 0.55883 0.0
O157 O 0.08651 0.79071 0.5445 0.0
Cd158 Cd 0.10091 0.76985 0.52225 0.0
C159 C 0.06015 0.76385 0.52095 0.0
O160 O 0.11137 0.74586 0.5408 0.0
O161 O 0.10151 0.73715 0.51518 0.0
O162 O 0.12913 0.78387 0.52379 0.0
C163 C 0.10814 0.73309 0.53029 0.0
O164 O 0.06432 0.75879 0.53674 0.0
C165 C 0.13158 0.785 0.50699 0.0
O166 O 0.07183 0.76919 0.50977 0.0
O167 O 0.11871 0.78059 0.49678 0.0
C168 C 0.89168 0.58856 0.78878 0.0
O169 O 0.88526 0.58301 0.77399 0.0
Cd170 Cd 0.89783 0.58112 0.74537 0.0
O171 O 0.90723 0.59551 0.79017 0.0
Cd172 Cd 0.9331 0.60435 0.77048 0.0
C173 C 0.93776 0.56676 0.76378 0.0
O174 O 0.91172 0.60913 0.7455 0.0
O175 O 0.93948 0.61044 0.73825 0.0
O176 O 0.932 0.6328 0.78594 0.0
C177 C 0.92331 0.61149 0.73344 0.0
O178 O 0.92454 0.57593 0.75932 0.0
C179 C 0.94863 0.63562 0.78448 0.0
O180 O 0.94936 0.57448 0.77336 0.0
O181 O 0.95814 0.62315 0.77792 0.0
C182 C 0.05813 0.8674 0.78866 0.0
O183 O 0.06346 0.8723 0.77322 0.0
Cd184 Cd 0.05146 0.87385 0.74461 0.0
O185 O 0.04266 0.86069 0.79141 0.0
Cd186 Cd 0.01745 0.85218 0.77103 0.0
C187 C 0.01117 0.89023 0.76337 0.0
O188 O 0.03798 0.84613 0.74558 0.0
O189 O 0.01016 0.84755 0.73869 0.0
O190 O 0.01927 0.82278 0.78324 0.0
C191 C 0.02612 0.84481 0.73374 0.0
O192 O 0.02513 0.88303 0.75756 0.0
C193 C 0.00262 0.82033 0.78487 0.0
O194 O 0.00125 0.88125 0.77381 0.0
O195 O -0.00757 0.83349 0.78145 0.0
C196 C 0.89393 0.3571 0.66369 0.0
O197 O 0.88798 0.34726 0.67607 0.0
Cd198 Cd 0.89467 0.36298 0.70275 0.0
O199 O 0.90992 0.36258 0.66483 0.0
Cd200 Cd 0.93079 0.34809 0.68653 0.0
C201 C 0.93317 0.38943 0.69227 0.0
O202 O 0.91192 0.33937 0.7115 0.0
O203 O 0.93864 0.34758 0.71859 0.0
O204 O 0.93091 0.31986 0.67109 0.0
C205 C 0.92332 0.34232 0.72352 0.0
O206 O 0.91731 0.38615 0.69762 0.0
C207 C 0.94772 0.31793 0.67203 0.0
O208 O 0.94352 0.37714 0.6867 0.0
O209 O 0.9568 0.33086 0.67836 0.0
C210 C 0.05663 0.09392 0.664 0.0
O211 O 0.06391 0.10256 0.67651 0.0
Cd212 Cd 0.05459 0.08885 0.70338 0.0
O213 O 0.04047 0.08904 0.66568 0.0
Cd214 Cd 0.0189 0.10338 0.68673 0.0
C215 C 0.01608 0.06264 0.69215 0.0
O216 O 0.03733 0.11256 0.71179 0.0
O217 O 0.01089 0.10354 0.71906 0.0
O218 O 0.02008 0.13183 0.67283 0.0
C219 C 0.02602 0.10937 0.7239 0.0
O220 O 0.03163 0.06623 0.69802 0.0
C221 C 0.00333 0.13395 0.6716 0.0
O222 O 0.00585 0.07467 0.68593 0.0
O223 O -0.00663 0.12087 0.67607 0.0
C224 C 0.78638 0.89354 0.59082 0.0
O225 O 0.77132 0.88585 0.5899 0.0
Cd226 Cd 0.74387 0.89998 0.58948 0.0
O227 O 0.78799 0.91012 0.59459 0.0
Cd228 Cd 0.76727 0.93391 0.60527 0.0
C229 C 0.76082 0.9375 0.56489 0.0
O230 O 0.74327 0.91579 0.61601 0.0
O231 O 0.73471 0.94109 0.60512 0.0
O232 O 0.78101 0.93253 0.63358 0.0
C233 C 0.73074 0.92673 0.61334 0.0
O234 O 0.75286 0.92306 0.56906 0.0
C235 C 0.7822 0.94929 0.63597 0.0
O236 O 0.76898 0.94696 0.57638 0.0
O237 O 0.7777 0.9595 0.62308 0.0
C238 C 0.16311 0.56271 0.59058 0.0
O239 O 0.17797 0.5706 0.58853 0.0
Cd240 Cd 0.20592 0.55762 0.5868 0.0
O241 O 0.16189 0.54624 0.59499 0.0
Cd242 Cd 0.18286 0.52245 0.60546 0.0
C243 C 0.18872 0.51845 0.56494 0.0
O244 O 0.20716 0.54211 0.61319 0.0
O245 O 0.21479 0.51456 0.6092 0.0
O246 O 0.16861 0.52425 0.63343 0.0
C247 C 0.21933 0.53046 0.61307 0.0
O248 O 0.19616 0.53319 0.56889 0.0
C249 C 0.16771 0.50752 0.63622 0.0
O250 O 0.1813 0.50868 0.57672 0.0
O251 O 0.17239 0.4971 0.62356 0.0
C252 C 0.78613 0.06039 0.86806 0.0
O253 O 0.77116 0.06665 0.87318 0.0
Cd254 Cd 0.74275 0.05388 0.87381 0.0
O255 O 0.78784 0.04481 0.86108 0.0
Cd256 Cd 0.76817 0.01889 0.85204 0.0
C257 C 0.7616 0.01447 0.88949 0.0
O258 O 0.74327 0.04005 0.84558 0.0
O259 O 0.73562 0.01239 0.84881 0.0
O260 O 0.78347 0.02013 0.82349 0.0
C261 C 0.73116 0.02835 0.84511 0.0
O262 O 0.75671 0.02729 0.87992 0.0
C263 C 0.78231 0.00341 0.82068 0.0
O264 O 0.77117 0.00268 0.88196 0.0
O265 O 0.77583 -0.00622 0.83315 0.0
C266 C 0.16278 0.39116 0.86361 0.0
O267 O 0.1774 0.38259 0.86287 0.0
Cd268 Cd 0.20495 0.39531 0.86939 0.0
O269 O 0.16199 0.40823 0.86235 0.0
Cd270 Cd 0.1824 0.43281 0.85154 0.0
C271 C 0.18819 0.43542 0.88944 0.0
O272 O 0.20709 0.41238 0.84391 0.0
O273 O 0.21475 0.43987 0.84812 0.0
O274 O 0.16725 0.43126 0.82338 0.0
C275 C 0.21933 0.42393 0.8444 0.0
O276 O 0.1929 0.42214 0.88025 0.0
C277 C 0.16775 0.44803 0.82059 0.0
O278 O 0.1796 0.44772 0.8815 0.0
O279 O 0.17378 0.4579 0.83306 0.0
C280 C 0.58739 0.78803 0.89433 0.0
O281 O 0.58389 0.77215 0.88946 0.0
Cd282 Cd 0.58508 0.74415 0.90224 0.0
O283 O 0.59387 0.79151 0.90975 0.0
Cd284 Cd 0.60321 0.77041 0.93426 0.0
C285 C 0.56211 0.76218 0.93927 0.0
O286 O 0.61269 0.7464 0.9153 0.0
O287 O 0.60503 0.73751 0.94154 0.0
O288 O 0.63203 0.78323 0.93293 0.0
C289 C 0.61167 0.73369 0.92635 0.0
O290 O 0.56558 0.75312 0.92533 0.0
C291 C 0.63434 0.78459 0.94969 0.0
O292 O 0.57378 0.77171 0.94711 0.0
O293 O 0.62122 0.7808 0.95987 0.0
C294 C 0.58715 0.16588 0.56296 0.0
O295 O 0.58399 0.18139 0.56914 0.0
Cd296 Cd 0.58481 0.20914 0.5554 0.0
O297 O 0.59304 0.16342 0.54706 0.0
Cd298 Cd 0.60278 0.18409 0.52221 0.0
C299 C 0.56235 0.1913 0.51738 0.0
O300 O 0.61217 0.20804 0.54128 0.0
O301 O 0.60452 0.2169 0.515 0.0
O302 O 0.6315 0.17098 0.52367 0.0
C303 C 0.61116 0.22071 0.53017 0.0
O304 O 0.56632 0.19948 0.5317 0.0
C305 C 0.634 0.16966 0.50693 0.0
O306 O 0.57385 0.18252 0.50848 0.0
O307 O 0.62106 0.17369 0.49669 0.0
C308 C 0.36391 0.286 0.56219 0.0
O309 O 0.36993 0.27118 0.56813 0.0
Cd310 Cd 0.37128 0.24234 0.55607 0.0
O311 O 0.35629 0.28757 0.54691 0.0
Cd312 Cd 0.34749 0.26806 0.52085 0.0
C313 C 0.38497 0.26087 0.5163 0.0
O314 O 0.34317 0.24304 0.54266 0.0
O315 O 0.34077 0.23604 0.5148 0.0
O316 O 0.31905 0.28357 0.52231 0.0
C317 C 0.34031 0.23112 0.53106 0.0
O318 O 0.37534 0.2562 0.52914 0.0
C319 C 0.31606 0.28218 0.50563 0.0
O320 O 0.37749 0.27031 0.50435 0.0
O321 O 0.32843 0.27572 0.49592 0.0
C322 C 0.85766 0.16216 0.39309 0.0
O323 O 0.84965 0.17527 0.38599 0.0
Cd324 Cd 0.86463 0.20184 0.39395 0.0
O325 O 0.86192 0.16284 0.40962 0.0
Cd326 Cd 0.84968 0.18378 0.4331 0.0
C327 C 0.8881 0.18946 0.4348 0.0
O328 O 0.84154 0.20854 0.4128 0.0
O329 O 0.84796 0.21651 0.43977 0.0
O330 O 0.8214 0.16834 0.43203 0.0
C331 C 0.84363 0.22101 0.42396 0.0
O332 O 0.87973 0.19362 0.42073 0.0
C333 C 0.81856 0.16962 0.44877 0.0
O334 O 0.87955 0.18177 0.44736 0.0
O335 O 0.83099 0.17606 0.45839 0.0
C336 C 0.56001 0.86673 0.66752 0.0
O337 O 0.56466 0.87069 0.68334 0.0
Cd338 Cd 0.55227 0.86958 0.71145 0.0
O339 O 0.54488 0.8598 0.66411 0.0
Cd340 Cd 0.52129 0.85101 0.68589 0.0
C341 C 0.51507 0.89191 0.69407 0.0
O342 O 0.53967 0.84135 0.71034 0.0
O343 O 0.51402 0.85129 0.71862 0.0
O344 O 0.52098 0.82244 0.67119 0.0
C345 C 0.52846 0.8435 0.72277 0.0
O346 O 0.52871 0.88892 0.70366 0.0
C347 C 0.50424 0.82034 0.67242 0.0
O348 O 0.50846 0.88024 0.68365 0.0
O349 O 0.49514 0.83328 0.67871 0.0
C350 C 0.39006 0.59553 0.6653 0.0
O351 O 0.38224 0.60182 0.67897 0.0
Cd352 Cd 0.39318 0.59003 0.70584 0.0
O353 O 0.40676 0.59225 0.66558 0.0
Cd354 Cd 0.43077 0.60404 0.68596 0.0
C355 C 0.43299 0.56608 0.69159 0.0
O356 O 0.41184 0.61383 0.71091 0.0
O357 O 0.43722 0.60306 0.7191 0.0
O358 O 0.4287 0.63304 0.67311 0.0
C359 C 0.42252 0.61031 0.72343 0.0
O360 O 0.41921 0.57452 0.69646 0.0
C361 C 0.44534 0.63577 0.67177 0.0
O362 O 0.445 0.57443 0.68292 0.0
O363 O 0.45574 0.62289 0.67573 0.0
C364 C 0.55524 0.09049 0.7936 0.0
O365 O 0.55332 0.0902 0.77708 0.0
Cd366 Cd 0.55962 0.086 0.74847 0.0
O367 O 0.54183 0.09577 0.80231 0.0
Cd368 Cd 0.52253 0.10327 0.77412 0.0
C369 C 0.52001 0.06239 0.76069 0.0
O370 O 0.54227 0.11165 0.74828 0.0
O371 O 0.5157 0.10391 0.7408 0.0
O372 O 0.52188 0.13287 0.78382 0.0
C373 C 0.53083 0.10989 0.73599 0.0
O374 O 0.53465 0.0664 0.75286 0.0
C375 C 0.50507 0.13427 0.78493 0.0
O376 O 0.51225 0.07273 0.77189 0.0
O377 O 0.49565 0.12031 0.78214 0.0
C378 C 0.39054 0.35866 0.79187 0.0
O379 O 0.3829 0.35052 0.77921 0.0
Cd380 Cd 0.39449 0.36143 0.75219 0.0
O381 O 0.40691 0.36294 0.79037 0.0
Cd382 Cd 0.42892 0.34868 0.76936 0.0
C383 C 0.43159 0.38919 0.76413 0.0
O384 O 0.41151 0.33687 0.74543 0.0
O385 O 0.43535 0.3504 0.73659 0.0
O386 O 0.42898 0.32083 0.78554 0.0
C387 C 0.42173 0.34113 0.73267 0.0
O388 O 0.41614 0.38533 0.75813 0.0
C389 C 0.4457 0.31852 0.7841 0.0
O390 O 0.44211 0.37726 0.77006 0.0
O391 O 0.45484 0.33115 0.7772 0.0
C392 C 0.66639 0.5621 0.8682 0.0
O393 O 0.6814 0.56851 0.87294 0.0
Cd394 Cd 0.70974 0.55569 0.87329 0.0
O395 O 0.66464 0.54636 0.86155 0.0
Cd396 Cd 0.68416 0.52016 0.85226 0.0
C397 C 0.69116 0.51631 0.88962 0.0
O398 O 0.7083 0.54152 0.84538 0.0
O399 O 0.71683 0.51414 0.84777 0.0
O400 O 0.67025 0.52288 0.82399 0.0
C401 C 0.72079 0.53029 0.84416 0.0
O402 O 0.69599 0.52904 0.87986 0.0
C403 C 0.66995 0.50629 0.82047 0.0
O404 O 0.68168 0.50432 0.8823 0.0
O405 O 0.67476 0.49553 0.83278 0.0
C406 C 0.28382 0.89326 0.86656 0.0
O407 O 0.2686 0.88611 0.86857 0.0
Cd408 Cd 0.2411 0.90022 0.86834 0.0
O409 O 0.28572 0.90957 0.86175 0.0
Cd410 Cd 0.26502 0.9338 0.85142 0.0
C411 C 0.25861 0.93826 0.89155 0.0
O412 O 0.24097 0.91526 0.84128 0.0
O413 O 0.23239 0.94098 0.85106 0.0
O414 O 0.2786 0.93239 0.82296 0.0
C415 C 0.22846 0.92635 0.84337 0.0
O416 O 0.25065 0.92385 0.88742 0.0
C417 C 0.27969 0.94914 0.82041 0.0
O418 O 0.26696 0.94758 0.88004 0.0
O419 O 0.27528 0.9594 0.83329 0.0
C420 C 0.66643 0.39124 0.58933 0.0
O421 O 0.68162 0.38478 0.58546 0.0
Cd422 Cd 0.70975 0.39761 0.5852 0.0
O423 O 0.66448 0.407 0.59565 0.0
Cd424 Cd 0.68553 0.43115 0.60511 0.0
C425 C 0.6914 0.43659 0.56461 0.0
O426 O 0.71005 0.4116 0.61258 0.0
O427 O 0.71751 0.43904 0.60734 0.0
O428 O 0.67125 0.43006 0.63361 0.0
C429 C 0.72207 0.42338 0.61205 0.0
O430 O 0.69945 0.42211 0.56818 0.0
C431 C 0.67104 0.44686 0.63607 0.0
O432 O 0.68311 0.44543 0.57651 0.0
O433 O 0.67655 0.45673 0.62329 0.0
C434 C 0.28767 0.05884 0.59627 0.0
O435 O 0.27548 0.06625 0.60529 0.0
Cd436 Cd 0.24846 0.05708 0.59208 0.0
O437 O 0.28565 0.04267 0.59132 0.0
Cd438 Cd 0.26441 0.02123 0.60598 0.0
C439 C 0.25964 0.01878 0.56517 0.0
O440 O 0.23971 0.03978 0.61572 0.0
O441 O 0.2325 0.01349 0.60586 0.0
O442 O 0.28023 0.02147 0.63393 0.0
C443 C 0.22771 0.02848 0.61224 0.0
O444 O 0.25433 0.03457 0.56897 0.0
C445 C 0.27948 0.00461 0.63606 0.0
O446 O 0.26484 0.00793 0.5772 0.0
O447 O 0.27297 -0.00468 0.62336 0.0
C448 C 0.85927 0.66559 0.56225 0.0
O449 O 0.854 0.67943 0.57053 0.0
Cd450 Cd 0.86411 0.70671 0.5591 0.0
O451 O 0.86145 0.66566 0.54525 0.0
Cd452 Cd 0.8495 0.68599 0.52097 0.0
C453 C 0.88775 0.69223 0.51911 0.0
O454 O 0.83992 0.70999 0.5409 0.0
O455 O 0.84774 0.71895 0.51466 0.0
O456 O 0.82148 0.67003 0.52202 0.0
C457 C 0.84195 0.72287 0.53017 0.0
O458 O 0.87895 0.69693 0.53275 0.0
C459 C 0.81853 0.67162 0.50535 0.0
O460 O 0.87956 0.68394 0.50675 0.0
O461 O 0.83087 0.67833 0.49572 0.0
C462 C 0.85876 0.28915 0.89499 0.0
O463 O 0.85171 0.27585 0.88726 0.0
Cd464 Cd 0.86362 0.24879 0.89756 0.0
O465 O 0.86242 0.28853 0.91169 0.0
Cd466 Cd 0.85034 0.26813 0.93589 0.0
C467 C 0.88842 0.26212 0.93732 0.0
O468 O 0.84003 0.24408 0.91647 0.0
O469 O 0.85004 0.23479 0.94177 0.0
O470 O 0.8217 0.28139 0.9335 0.0
C471 C 0.84288 0.23107 0.92681 0.0
O472 O 0.87971 0.25756 0.92359 0.0
C473 C 0.81871 0.28253 0.95019 0.0
O474 O 0.88021 0.2702 0.94985 0.0
O475 O 0.83135 0.27839 0.96079 0.0
C476 C 0.09155 0.1622 0.89534 0.0
O477 O 0.09996 0.17475 0.88776 0.0
Cd478 Cd 0.08748 0.20192 0.89756 0.0
O479 O 0.08715 0.16373 0.91177 0.0
Cd480 Cd 0.10141 0.18458 0.934 0.0
C481 C 0.06053 0.19024 0.93579 0.0
O482 O 0.11106 0.20899 0.91533 0.0
O483 O 0.10252 0.21698 0.94177 0.0
O484 O 0.12975 0.17063 0.93238 0.0
C485 C 0.1083 0.22143 0.92639 0.0
O486 O 0.06458 0.1957 0.92009 0.0
C487 C 0.13209 0.16928 0.94917 0.0
O488 O 0.07231 0.18483 0.94677 0.0
O489 O 0.11915 0.17359 0.95939 0.0
C490 C 0.59508 0.28966 0.05904 0.0
O491 O 0.60409 0.27656 0.06475 0.0
Cd492 Cd 0.58723 0.25052 0.05867 0.0
O493 O 0.59017 0.28974 0.04269 0.0
Cd494 Cd 0.60242 0.2685 0.01935 0.0
C495 C 0.5641 0.26246 0.01759 0.0
O496 O 0.61021 0.2436 0.03986 0.0
O497 O 0.6045 0.23568 0.01276 0.0
O498 O 0.63076 0.28376 0.02041 0.0
C499 C 0.60838 0.23113 0.02867 0.0
O500 O 0.57247 0.2585 0.03171 0.0
C501 C 0.63359 0.28242 0.00368 0.0
O502 O 0.57259 0.27019 0.005 0.0
O503 O 0.62112 0.27607 -0.00595 0.0
C504 C 0.38989 0.08717 0.28639 0.0
O505 O 0.38578 0.08331 0.2704 0.0
Cd506 Cd 0.39825 0.0845 0.24236 0.0
O507 O 0.40492 0.09412 0.2903 0.0
Cd508 Cd 0.42886 0.10303 0.26866 0.0
C509 C 0.4349 0.06184 0.26024 0.0
O510 O 0.4103 0.1128 0.24454 0.0
O511 O 0.43612 0.104 0.23581 0.0
O512 O 0.42909 0.13139 0.28369 0.0
C513 C 0.42135 0.11129 0.23189 0.0
O514 O 0.4214 0.06481 0.25047 0.0
C515 C 0.44581 0.13358 0.28237 0.0
O516 O 0.44151 0.07361 0.27057 0.0
O517 O 0.45496 0.12072 0.27599 0.0
C518 C 0.56019 0.36484 0.28677 0.0
O519 O 0.5646 0.36915 0.27093 0.0
Cd520 Cd 0.55293 0.36924 0.24251 0.0
O521 O 0.54512 0.35776 0.29037 0.0
Cd522 Cd 0.52112 0.34901 0.26893 0.0
C523 C 0.51479 0.39004 0.26038 0.0
O524 O 0.54005 0.34156 0.24368 0.0
O525 O 0.51269 0.34674 0.23665 0.0
O526 O 0.52204 0.31981 0.28111 0.0
C527 C 0.5282 0.34203 0.23177 0.0
O528 O 0.52876 0.38728 0.25117 0.0
C529 C 0.50533 0.31783 0.28283 0.0
O530 O 0.50791 0.37819 0.27049 0.0
O531 O 0.49544 0.33126 0.27946 0.0
C532 C 0.38922 0.8609 0.16356 0.0
O533 O 0.38137 0.8554 0.17758 0.0
Cd534 Cd 0.39212 0.86798 0.20427 0.0
O535 O 0.40607 0.86353 0.16343 0.0
Cd536 Cd 0.4303 0.85173 0.18377 0.0
C537 C 0.43279 0.88981 0.18963 0.0
O538 O 0.41049 0.84408 0.20896 0.0
O539 O 0.43767 0.84946 0.21651 0.0
O540 O 0.42819 0.82282 0.17089 0.0
C541 C 0.42187 0.84554 0.22125 0.0
O542 O 0.41892 0.88141 0.19424 0.0
C543 C 0.44484 0.82022 0.16938 0.0
O544 O 0.44482 0.88141 0.18109 0.0
O545 O 0.4552 0.83317 0.17317 0.0
C546 C 0.56049 0.58828 0.16599 0.0
O547 O 0.56679 0.58344 0.18107 0.0
Cd548 Cd 0.5536 0.58295 0.20935 0.0
O549 O 0.54487 0.59497 0.16421 0.0
Cd550 Cd 0.51908 0.60397 0.18392 0.0
C551 C 0.51412 0.56667 0.1905 0.0
O552 O 0.53993 0.61123 0.20852 0.0
O553 O 0.51287 0.60638 0.2169 0.0
O554 O 0.51997 0.63254 0.16862 0.0
C555 C 0.52852 0.61139 0.22096 0.0
O556 O 0.52736 0.57558 0.19541 0.0
C557 C 0.50338 0.63543 0.17032 0.0
O558 O 0.50303 0.57437 0.1803 0.0
O559 O 0.49392 0.62299 0.17704 0.0
C560 C 0.28329 0.39142 0.08735 0.0
O561 O 0.26805 0.38483 0.08404 0.0
Cd562 Cd 0.24017 0.3981 0.08389 0.0
O563 O 0.28534 0.4074 0.09307 0.0
Cd564 Cd 0.26465 0.43184 0.10266 0.0
C565 C 0.25852 0.43682 0.06244 0.0
O566 O 0.2402 0.41257 0.11107 0.0
O567 O 0.2324 0.43953 0.1042 0.0
O568 O 0.27817 0.42995 0.13106 0.0
C569 C 0.22803 0.42413 0.10989 0.0
O570 O 0.25052 0.42242 0.06647 0.0
C571 C 0.27915 0.44665 0.13396 0.0
O572 O 0.26696 0.44591 0.07401 0.0
O573 O 0.27475 0.45714 0.12126 0.0
C574 C 0.66307 0.05955 0.09338 0.0
O575 O 0.67559 0.06729 0.10159 0.0
Cd576 Cd 0.70253 0.05538 0.09103 0.0
O577 O 0.66469 0.04313 0.08905 0.0
Cd578 Cd 0.68573 0.02101 0.10321 0.0
C579 C 0.69026 0.01821 0.06314 0.0
O580 O 0.71015 0.03794 0.11515 0.0
O581 O 0.71818 0.01451 0.10022 0.0
O582 O 0.67044 0.02163 0.13128 0.0
C583 C 0.7225 0.02763 0.1101 0.0
O584 O 0.69619 0.03368 0.06729 0.0
C585 C 0.67083 0.00482 0.13378 0.0
O586 O 0.68452 0.00734 0.0749 0.0
O587 O 0.67699 -0.00485 0.12114 0.0
C588 C 0.28718 0.56092 0.357 0.0
O589 O 0.27422 0.56682 0.34796 0.0
Cd590 Cd 0.24826 0.5604 0.36479 0.0
O591 O 0.28704 0.54456 0.36194 0.0
Cd592 Cd 0.26584 0.52128 0.34966 0.0
C593 C 0.2603 0.5193 0.38789 0.0
O594 O 0.24107 0.5417 0.34172 0.0
O595 O 0.23309 0.5147 0.34781 0.0
O596 O 0.28056 0.52279 0.32127 0.0
C597 C 0.22861 0.53056 0.34368 0.0
O598 O 0.25637 0.53337 0.3794 0.0
C599 C 0.27995 0.50603 0.31847 0.0
O600 O 0.2679 0.50666 0.37941 0.0
O601 O 0.27409 0.49612 0.33107 0.0
C602 C 0.66596 0.89402 0.36598 0.0
O603 O 0.68079 0.88739 0.371 0.0
Cd604 Cd 0.70933 0.89991 0.37213 0.0
O605 O 0.6645 0.90977 0.35928 0.0
Cd606 Cd 0.68406 0.93581 0.35001 0.0
C607 C 0.69091 0.93967 0.38751 0.0
O608 O 0.70851 0.91425 0.34434 0.0
O609 O 0.71636 0.94193 0.34388 0.0
O610 O 0.66999 0.93303 0.32184 0.0
C611 C 0.72078 0.9256 0.34216 0.0
O612 O 0.69561 0.92683 0.37786 0.0
C613 C 0.66948 0.94965 0.31839 0.0
O614 O 0.68169 0.95176 0.38002 0.0
O615 O 0.67421 0.96041 0.33072 0.0
C616 C 0.09093 0.28944 0.39282 0.0
O617 O 0.09927 0.27683 0.38528 0.0
Cd618 Cd 0.08829 0.24966 0.39651 0.0
O619 O 0.08675 0.28812 0.40935 0.0
Cd620 Cd 0.10091 0.2675 0.43225 0.0
C621 C 0.06029 0.26147 0.43392 0.0
O622 O 0.11223 0.24369 0.41429 0.0
O623 O 0.10106 0.23461 0.43925 0.0
O624 O 0.12916 0.28163 0.43072 0.0
C625 C 0.10879 0.23077 0.42458 0.0
O626 O 0.06464 0.2558 0.41838 0.0
C627 C 0.13161 0.28269 0.4475 0.0
O628 O 0.07184 0.26721 0.44496 0.0
O629 O 0.11873 0.27821 0.45774 0.0
C630 C 0.09169 0.66482 0.05923 0.0
O631 O 0.09883 0.67821 0.06673 0.0
Cd632 Cd 0.08433 0.70484 0.0581 0.0
O633 O 0.08785 0.66536 0.04259 0.0
Cd634 Cd 0.09972 0.68607 0.01875 0.0
C635 C 0.06147 0.69175 0.01731 0.0
O636 O 0.10744 0.71084 0.03907 0.0
O637 O 0.10207 0.71889 0.01189 0.0
O638 O 0.12837 0.67296 0.02134 0.0
C639 C 0.10581 0.72335 0.02787 0.0
O640 O 0.07012 0.69592 0.03118 0.0
C641 C 0.13123 0.67141 0.00465 0.0
O642 O 0.06982 0.68407 0.00462 0.0
O643 O 0.11855 0.67533 -0.00597 0.0
C644 C 0.86377 0.78836 0.06086 0.0
O645 O 0.86592 0.77313 0.06808 0.0
Cd646 Cd 0.86558 0.74533 0.0544 0.0
O647 O 0.85885 0.79021 0.04462 0.0
Cd648 Cd 0.84878 0.76927 0.02077 0.0
C649 C 0.88955 0.76237 0.01678 0.0
O650 O 0.83871 0.74524 0.03926 0.0
O651 O 0.84919 0.73677 0.01369 0.0
O652 O 0.82056 0.78477 0.02095 0.0
C653 C 0.84122 0.73275 0.02815 0.0
O654 O 0.88568 0.75412 0.03117 0.0
C655 C 0.81816 0.78356 0.00417 0.0
O656 O 0.87797 0.77102 0.00786 0.0
O657 O 0.83079 0.77699 -0.00516 0.0
C658 C 0.36178 0.6652 0.89863 0.0
O659 O 0.36415 0.68178 0.8986 0.0
Cd660 Cd 0.36844 0.71177 0.89852 0.0
O661 O 0.35546 0.65807 0.91273 0.0
Cd662 Cd 0.34745 0.68357 0.93462 0.0
C663 C 0.38501 0.69364 0.93862 0.0
O664 O 0.34091 0.7088 0.91263 0.0
O665 O 0.3431 0.71666 0.94015 0.0
O666 O 0.31858 0.66997 0.93416 0.0
C667 C 0.33973 0.72112 0.9241 0.0
O668 O 0.37577 0.6985 0.92554 0.0
C669 C 0.31598 0.67153 0.9509 0.0
O670 O 0.37754 0.68342 0.94998 0.0
O671 O 0.32875 0.67751 0.96038 0.0
C672 C 0.96912 0.15728 0.17895 0.0
C673 C 0.9558 0.15135 0.16734 0.0
C674 C 0.97466 0.17509 0.17857 0.0
C675 C 0.96658 0.2192 0.15351 0.0
H676 H -0.00985 0.23611 0.19293 0.0
C677 C -0.01786 0.29423 0.1562 0.0
C678 C -0.00509 0.29952 0.16868 0.0
C679 C -0.0237 0.2764 0.15586 0.0
C680 C -0.01749 0.23209 0.18142 0.0
H681 H 0.93789 0.15887 0.14599 0.0
H682 H 0.94693 0.18969 0.14525 0.0
H683 H -0.01826 0.20617 0.19233 0.0
H684 H 0.01139 0.29112 0.19087 0.0
H685 H 0.00224 0.26078 0.19025 0.0
H686 H 0.96703 0.2454 0.14287 0.0
C687 C 0.95373 0.18113 0.15466 0.0
C688 C -0.02248 0.21415 0.18106 0.0
C689 C 0.94834 0.16325 0.15501 0.0
C690 C 0.00159 0.28713 0.18096 0.0
C691 C -0.00406 0.26947 0.18064 0.0
C692 C 0.97153 0.23724 0.15391 0.0
C693 C 0.96682 0.18761 0.16667 0.0
C694 C 0.97203 0.20714 0.16702 0.0
C695 C -0.01685 0.26352 0.16809 0.0
C696 C -0.02268 0.24415 0.16779 0.0
H697 H 0.97482 0.14833 0.18886 0.0
H698 H -0.01983 0.17862 0.18783 0.0
H699 H 0.95875 0.21501 0.14216 0.0
H700 H -0.0231 0.30375 0.14658 0.0
H701 H 0.97128 0.27312 0.14598 0.0
C702 C -0.01938 0.65941 0.27361 0.0
C703 C -0.00597 0.65338 0.28513 0.0
C704 C -0.02491 0.67723 0.27402 0.0
C705 C -0.01684 0.72133 0.29906 0.0
H706 H 0.95945 0.73847 0.25977 0.0
C707 C 0.96729 0.79634 0.29683 0.0
C708 C 0.95437 0.80171 0.28453 0.0
C709 C 0.97312 0.7785 0.29706 0.0
C710 C 0.96711 0.73434 0.27125 0.0
H711 H 0.01202 0.6609 0.3064 0.0
H712 H 0.00292 0.69175 0.30724 0.0
H713 H 0.96804 0.70844 0.26021 0.0
H714 H 0.93753 0.79336 0.26261 0.0
H715 H 0.94668 0.76289 0.26311 0.0
H716 H -0.01749 0.74745 0.30986 0.0
C717 C -0.00389 0.6832 0.29784 0.0
C718 C 0.97221 0.71638 0.27151 0.0
C719 C 0.00152 0.66529 0.29745 0.0
C720 C 0.94741 0.78931 0.27242 0.0
C721 C 0.95308 0.77161 0.27262 0.0
C722 C -0.02192 0.73936 0.29878 0.0
C723 C -0.01702 0.68974 0.28587 0.0
C724 C -0.02227 0.70931 0.28553 0.0
C725 C 0.96614 0.76565 0.2849 0.0
C726 C 0.97218 0.74631 0.28498 0.0
H727 H -0.02513 0.6505 0.26371 0.0
H728 H 0.96956 0.68081 0.2648 0.0
H729 H -0.00896 0.71711 0.31036 0.0
H730 H 0.97282 0.80588 0.30626 0.0
H731 H -0.02166 0.77522 0.30674 0.0
C732 C 0.17268 0.94528 0.16615 0.0
C733 C 0.16489 0.95554 0.15259 0.0
C734 C 0.17245 0.9511 0.1838 0.0
C735 C 0.15463 -0.01573 0.21365 0.0
H736 H 0.18373 0.9631 0.2476 0.0
C737 C 0.15572 0.00683 0.28803 0.0
C738 C 0.16461 -0.0036 0.3008 0.0
C739 C 0.15539 0.00161 0.27007 0.0
C740 C 0.17496 0.97038 0.23879 0.0
H741 H 0.15107 -0.02425 0.1465 0.0
H742 H 0.15073 -0.01359 0.17711 0.0
H743 H 0.18435 0.95447 0.21761 0.0
H744 H 0.17929 0.97626 0.3051 0.0
H745 H 0.17793 0.96646 0.27472 0.0
H746 H 0.14572 0.0006 0.2349 0.0
C747 C 0.15661 0.97784 0.17468 0.0
C748 C 0.1753 0.9652 0.22087 0.0
C749 C 0.15681 0.97185 0.15688 0.0
C750 C 0.17245 -0.01975 0.29552 0.0
C751 C 0.17198 -0.02513 0.27765 0.0
C752 C 0.15435 -0.01047 0.23164 0.0
C753 C 0.16459 0.96764 0.18859 0.0
C754 C 0.16476 0.9739 0.20784 0.0
C755 C 0.16386 -0.01435 0.26432 0.0
C756 C 0.16442 -0.01962 0.24476 0.0
H757 H 0.17936 0.93276 0.16309 0.0
H758 H 0.17839 0.94214 0.19341 0.0
H759 H 0.14618 -0.0083 0.20463 0.0
H760 H 0.14954 0.01941 0.2918 0.0
H761 H 0.14889 0.01067 0.26093 0.0
C762 C 0.76961 0.48952 0.15932 0.0
C763 C 0.78443 0.4978 0.15159 0.0
C764 C 0.76989 0.48432 0.17721 0.0
C765 C 0.80075 0.48266 0.21809 0.0
H766 H 0.75641 0.46761 0.23953 0.0
C767 C 0.79967 0.46166 0.29319 0.0
C768 C 0.7839 0.45499 0.30055 0.0
C769 C 0.80008 0.46722 0.27525 0.0
C770 C 0.76921 0.47151 0.23429 0.0
H771 H 0.8111 0.50763 0.15609 0.0
H772 H 0.81203 0.49879 0.18716 0.0
H773 H 0.7565 0.47649 0.20979 0.0
H774 H 0.75634 0.44841 0.29558 0.0
H775 H 0.75663 0.45737 0.26508 0.0
H776 H 0.81326 0.47838 0.243 0.0
C777 C 0.80002 0.49569 0.17988 0.0
C778 C 0.76927 0.47669 0.21637 0.0
C779 C 0.79964 0.50088 0.16188 0.0
C780 C 0.76863 0.45377 0.29002 0.0
C781 C 0.76896 0.45912 0.2722 0.0
C782 C 0.80064 0.47769 0.23617 0.0
C783 C 0.78504 0.48742 0.18809 0.0
C784 C 0.78506 0.48221 0.20767 0.0
C785 C 0.78468 0.46606 0.26423 0.0
C786 C 0.78488 0.4718 0.24475 0.0
H787 H 0.7575 0.48755 0.15164 0.0
H788 H 0.75799 0.47783 0.18206 0.0
H789 H 0.81347 0.48652 0.21254 0.0
H790 H 0.81167 0.46245 0.30123 0.0
H791 H 0.81263 0.47234 0.27042 0.0
C792 C 0.29185 0.17887 -0.01688 0.0
C793 C 0.29803 0.16732 -0.00352 0.0
C794 C 0.27405 0.17841 -0.02223 0.0
C795 C 0.23014 0.15318 -0.01387 0.0
H796 H 0.21344 0.19257 0.96133 0.0
C797 C 0.15559 0.15559 0.96891 0.0
C798 C 0.15034 0.16806 0.95599 0.0
C799 C 0.17335 0.15527 0.97489 0.0
C800 C 0.21749 0.18108 0.96904 0.0
H801 H 0.29072 0.14602 0.0147 0.0
H802 H 0.25986 0.14509 0.00586 0.0
H803 H 0.24324 0.19214 0.96988 0.0
H804 H 0.15886 0.19027 0.93948 0.0
H805 H 0.18901 0.18972 0.94892 0.0
H806 H 0.20403 0.14243 -0.01438 0.0
C807 C 0.26832 0.15454 -0.00104 0.0
C808 C 0.23536 0.18082 0.97412 0.0
C809 C 0.28622 0.15499 0.00421 0.0
C810 C 0.16277 0.18031 0.94932 0.0
C811 C 0.18033 0.18006 0.95516 0.0
C812 C 0.21215 0.15347 -0.01892 0.0
C813 C 0.26167 0.16648 -0.01421 0.0
C814 C 0.24214 0.16673 -0.01938 0.0
C815 C 0.18622 0.16755 0.96812 0.0
C816 C 0.20552 0.16738 0.97419 0.0
H817 H 0.30064 0.18879 -0.02281 0.0
H818 H 0.27071 0.18771 0.97127 0.0
H819 H 0.23439 0.1419 -0.00591 0.0
H820 H 0.14607 0.14603 0.97424 0.0
H821 H 0.17629 0.14532 -0.01906 0.0
C822 C 0.2918 0.77521 0.46934 0.0
C823 C 0.29807 0.78676 0.45598 0.0
C824 C 0.27397 0.77562 0.47462 0.0
C825 C 0.23014 0.80079 0.46623 0.0
H826 H 0.21298 0.76155 0.49512 0.0
C827 C 0.15523 0.79855 0.4873 0.0
C828 C 0.14987 0.78611 0.50022 0.0
C829 C 0.17302 0.79882 0.48137 0.0
C830 C 0.21707 0.77302 0.48737 0.0
H831 H 0.29088 0.80801 0.4377 0.0
H832 H 0.25992 0.80886 0.44644 0.0
H833 H 0.24282 0.76195 0.48652 0.0
H834 H 0.1582 0.76393 0.51683 0.0
H835 H 0.18844 0.76441 0.50747 0.0
H836 H 0.20405 0.81156 0.46675 0.0
C837 C 0.26836 0.79944 0.45337 0.0
C838 C 0.23496 0.77326 0.48227 0.0
C839 C 0.28631 0.79903 0.44818 0.0
C840 C 0.16221 0.77385 0.50697 0.0
C841 C 0.17982 0.77407 0.50118 0.0
C842 C 0.21213 0.80052 0.47129 0.0
C843 C 0.26163 0.78751 0.46656 0.0
C844 C 0.24209 0.78725 0.47174 0.0
C845 C 0.18582 0.78655 0.48821 0.0
C846 C 0.20514 0.78671 0.48219 0.0
H847 H 0.30056 0.76533 0.47533 0.0
H848 H 0.27027 0.7664 0.48512 0.0
H849 H 0.23442 0.81207 0.45825 0.0
H850 H 0.14577 0.80811 0.48193 0.0
H851 H 0.17633 0.80866 0.47131 0.0
C852 C 0.78862 0.65687 0.50607 0.0
C853 C 0.80046 0.66908 0.49822 0.0
C854 C 0.77065 0.6566 0.50099 0.0
C855 C 0.73741 0.68291 0.47219 0.0
H856 H 0.70638 0.64458 0.48759 0.0
C857 C 0.66474 0.68255 0.44758 0.0
C858 C 0.65231 0.6704 0.45441 0.0
C859 C 0.68236 0.6822 0.45324 0.0
C860 C 0.7145 0.65564 0.48308 0.0
H861 H 0.80303 0.69065 0.47902 0.0
H862 H 0.77273 0.68982 0.46943 0.0
H863 H 0.7367 0.64407 0.49614 0.0
H864 H 0.64809 0.64836 0.47266 0.0
H865 H 0.67867 0.6476 0.4831 0.0
H866 H 0.71551 0.69465 0.45933 0.0
C867 C 0.77638 0.68051 0.47985 0.0
C868 C 0.73247 0.65535 0.48818 0.0
C869 C 0.79422 0.68078 0.48501 0.0
C870 C 0.65761 0.65788 0.46726 0.0
C871 C 0.6754 0.65748 0.47308 0.0
C872 C 0.71955 0.68316 0.46706 0.0
C873 C 0.76399 0.66861 0.48789 0.0
C874 C 0.74446 0.66891 0.48271 0.0
C875 C 0.68828 0.66969 0.4662 0.0
C876 C 0.70758 0.66946 0.4722 0.0
H877 H 0.79315 0.64781 0.51648 0.0
H878 H 0.76217 0.6472 0.50794 0.0
H879 H 0.7453 0.69423 0.46796 0.0
H880 H 0.6608 0.6925 0.43774 0.0
H881 H 0.69106 0.69177 0.4469 0.0
C882 C 0.00236 0.78958 0.77364 0.0
C883 C -0.00423 0.80202 0.78594 0.0
C884 C -0.00353 0.77196 0.77388 0.0
C885 C 0.97156 0.73978 0.80055 0.0
H886 H -0.01821 0.70875 0.7621 0.0
C887 C 0.94828 0.66552 0.79937 0.0
C888 C 0.95596 0.65364 0.7871 0.0
C889 C 0.95356 0.68349 0.79972 0.0
C890 C -0.02244 0.71669 0.77338 0.0
H891 H -0.02244 0.80632 0.80796 0.0
H892 H 0.97174 0.77572 0.80858 0.0
H893 H -0.00956 0.73863 0.76158 0.0
H894 H 0.97519 0.6509 0.76562 0.0
H895 H -0.01978 0.68122 0.76661 0.0
H896 H 0.95853 0.71752 0.81222 0.0
C897 C -0.02316 0.77896 0.79871 0.0
C898 C -0.01731 0.73462 0.77306 0.0
C899 C -0.01715 0.79676 0.79839 0.0
C900 C 0.96929 0.65978 0.77549 0.0
C901 C 0.97467 0.67763 0.77585 0.0
C902 C 0.96648 0.72173 0.80091 0.0
C903 C -0.01643 0.76604 0.78644 0.0
C904 C -0.02248 0.74668 0.7867 0.0
C905 C 0.96671 0.69009 0.78773 0.0
C906 C 0.97195 0.70966 0.7874 0.0
H907 H 0.01217 0.79353 0.76367 0.0
H908 H 0.00264 0.76326 0.76418 0.0
H909 H 0.96704 0.74795 0.81156 0.0
H910 H 0.93784 0.66102 0.8084 0.0
H911 H 0.9467 0.69202 0.80913 0.0
C912 C -0.01665 0.15729 0.65802 0.0
C913 C -0.00373 0.15215 0.67046 0.0
C914 C -0.0228 0.17505 0.65776 0.0
C915 C -0.01717 0.21946 0.68337 0.0
H916 H 0.95878 0.23634 0.64422 0.0
C917 C 0.96911 0.29431 0.68075 0.0
C918 C 0.95576 0.30026 0.66913 0.0
C919 C 0.9747 0.27651 0.6804 0.0
C920 C 0.96672 0.23222 0.65553 0.0
H921 H 0.01253 0.16074 0.6927 0.0
H922 H 0.0028 0.1909 0.69225 0.0
H923 H 0.96723 0.20595 0.64501 0.0
H924 H 0.93797 0.29267 0.64772 0.0
H925 H 0.94722 0.26187 0.64694 0.0
H926 H -0.01798 0.24543 0.69417 0.0
C927 C -0.00329 0.18218 0.68255 0.0
C928 C 0.97176 0.21417 0.65597 0.0
C929 C 0.00271 0.16462 0.68275 0.0
C930 C 0.94841 0.28832 0.65676 0.0
C931 C 0.95391 0.27044 0.65641 0.0
C932 C -0.02223 0.23741 0.68296 0.0
C933 C -0.01619 0.18801 0.67003 0.0
C934 C -0.0223 0.20734 0.66979 0.0
C935 C 0.96695 0.26394 0.6685 0.0
C936 C 0.97221 0.24438 0.66893 0.0
H937 H -0.02183 0.1477 0.64846 0.0
H938 H 0.9721 0.17822 0.64791 0.0
H939 H -0.00945 0.2155 0.69486 0.0
H940 H 0.97475 0.30325 0.69068 0.0
H941 H -0.01982 0.27299 0.68971 0.0
C942 C 0.77419 -0.01772 0.79664 0.0
C943 C 0.78519 -0.00388 0.80267 0.0
C944 C 0.77462 -0.02304 0.77877 0.0
C945 C 0.79871 -0.01366 0.73435 0.0
H946 H 0.76017 0.96037 0.71793 0.0
C947 C 0.79562 0.96938 0.65928 0.0
C948 C 0.78363 0.95597 0.65428 0.0
C949 C 0.7961 0.97529 0.67712 0.0
C950 C 0.7714 0.96845 0.72183 0.0
H951 H 0.80556 0.01517 0.79508 0.0
H952 H 0.80637 0.00643 0.76402 0.0
H953 H 0.76067 0.96901 0.74782 0.0
H954 H 0.7626 0.93834 0.66334 0.0
H955 H 0.7636 0.94752 0.69368 0.0
H956 H 0.8091 -0.01389 0.70797 0.0
C957 C 0.79739 -0.00086 0.77266 0.0
C958 C 0.7717 0.97359 0.73974 0.0
C959 C 0.79699 0.00434 0.79066 0.0
C960 C 0.77214 0.94862 0.66705 0.0
C961 C 0.77261 0.95433 0.68471 0.0
C962 C 0.79839 -0.01879 0.71631 0.0
C963 C 0.78595 -0.01449 0.76617 0.0
C964 C 0.78561 -0.01967 0.7466 0.0
C965 C 0.7845 0.96791 0.6903 0.0
C966 C 0.78471 0.97404 0.70962 0.0
H967 H 0.7647 -0.02407 0.80562 0.0
H968 H 0.76562 0.97033 0.77527 0.0
H969 H 0.80968 -0.00526 0.73842 0.0
H970 H 0.80462 0.97518 0.64947 0.0
H971 H 0.80576 -0.01849 0.68017 0.0
C972 C 0.1721 0.47143 0.79741 0.0
C973 C 0.16434 0.45521 0.8026 0.0
C974 C 0.1717 0.47686 0.77955 0.0
C975 C 0.15458 0.46212 0.73337 0.0
H976 H 0.18428 0.50202 0.71976 0.0
C977 C 0.15756 0.48463 0.6587 0.0
C978 C 0.16554 0.50106 0.65461 0.0
C979 C 0.15725 0.47849 0.67647 0.0
C980 C 0.17537 0.49113 0.72287 0.0
H981 H 0.14947 0.43213 0.79349 0.0
H982 H 0.14887 0.441 0.76266 0.0
H983 H 0.18348 0.49333 0.74966 0.0
H984 H 0.17971 0.52388 0.66541 0.0
H985 H 0.17852 0.51428 0.69557 0.0
H986 H 0.14672 0.45989 0.70626 0.0
C987 C 0.1553 0.45006 0.77183 0.0
C988 C 0.17494 0.48589 0.74077 0.0
C989 C 0.15558 0.44477 0.78978 0.0
C990 C 0.17311 0.51126 0.6683 0.0
C991 C 0.17276 0.50531 0.68589 0.0
C992 C 0.15493 0.46745 0.71539 0.0
C993 C 0.16371 0.46608 0.76615 0.0
C994 C 0.16434 0.47142 0.74661 0.0
C995 C 0.16503 0.48867 0.69051 0.0
C996 C 0.16511 0.4823 0.70973 0.0
H997 H 0.17913 0.47969 0.80704 0.0
H998 H 0.17788 0.48958 0.7767 0.0
H999 H 0.14615 0.45085 0.73652 0.0
H1000 H 0.15173 0.47651 0.6482 0.0
H1001 H 0.15118 0.4656 0.67878 0.0
C1002 C 0.66501 0.7735 0.94973 0.0
C1003 C 0.65258 0.78567 0.95652 0.0
C1004 C 0.68263 0.77387 0.95538 0.0
C1005 C 0.71452 0.80042 -0.01896 0.0
H1006 H 0.74562 0.76194 0.96992 0.0
C1007 C 0.78856 0.79884 0.00426 0.0
C1008 C 0.80036 0.78651 -0.00345 0.0
C1009 C 0.77067 0.79935 -0.00104 0.0
C1010 C 0.73774 0.77326 0.97413 0.0
H1011 H 0.64839 0.80775 0.97468 0.0
H1012 H 0.67867 0.80844 -0.0189 0.0
H1013 H 0.7158 0.76147 0.9614 0.0
H1014 H 0.80298 0.76513 -0.02279 0.0
H1015 H 0.77309 0.76648 0.97119 0.0
H1016 H 0.73678 0.81204 -0.00602 0.0
C1017 C 0.6757 0.79862 0.97513 0.0
C1018 C 0.71986 0.77298 0.96907 0.0
C1019 C 0.6579 0.7982 0.96932 0.0
C1020 C 0.7942 0.77504 -0.01687 0.0
C1021 C 0.77642 0.77555 -0.02227 0.0
C1022 C 0.73252 0.80074 -0.01394 0.0
C1023 C 0.68857 0.78641 0.96827 0.0
C1024 C 0.70789 0.78666 0.97421 0.0
C1025 C 0.76403 0.78745 -0.01424 0.0
C1026 C 0.74451 0.7872 -0.01942 0.0
H1027 H 0.66106 0.76354 0.93991 0.0
H1028 H 0.69132 0.76429 0.94904 0.0
H1029 H 0.70641 0.81146 -0.01445 0.0
H1030 H 0.79304 0.80777 0.01479 0.0
H1031 H 0.7622 0.80878 0.00586 0.0
C1032 C 0.66476 0.18047 0.50707 0.0
C1033 C 0.6523 0.16842 0.5002 0.0
C1034 C 0.68241 0.18005 0.50141 0.0
C1035 C 0.71456 0.15354 0.47146 0.0
H1036 H 0.74539 0.19201 0.4866 0.0
C1037 C 0.78871 0.15479 0.44825 0.0
C1038 C 0.80053 0.167 0.45605 0.0
C1039 C 0.77076 0.15447 0.45345 0.0
C1040 C 0.73749 0.18072 0.48237 0.0
H1041 H 0.64807 0.14646 0.48192 0.0
H1042 H 0.6787 0.1456 0.47147 0.0
H1043 H 0.71557 0.19248 0.49524 0.0
H1044 H 0.80312 0.18846 0.47532 0.0
H1045 H 0.77282 0.18753 0.4851 0.0
H1046 H 0.73678 0.14196 0.45835 0.0
C1047 C 0.67543 0.15545 0.48151 0.0
C1048 C 0.71962 0.181 0.48751 0.0
C1049 C 0.65761 0.15592 0.48733 0.0
C1050 C 0.79431 0.17861 0.46935 0.0
C1051 C 0.77647 0.17829 0.47463 0.0
C1052 C 0.73255 0.15323 0.46634 0.0
C1053 C 0.68832 0.16759 0.48841 0.0
C1054 C 0.70763 0.16734 0.48237 0.0
C1055 C 0.76409 0.16643 0.46661 0.0
C1056 C 0.74455 0.16674 0.47183 0.0
H1057 H 0.66082 0.19039 0.51694 0.0
H1058 H 0.69112 0.18955 0.50779 0.0
H1059 H 0.70643 0.14252 0.46694 0.0
H1060 H 0.79324 0.14579 0.4378 0.0
H1061 H 0.76228 0.14508 0.44653 0.0
C1062 C 0.15523 0.29632 0.46708 0.0
C1063 C 0.14991 0.28387 0.4542 0.0
C1064 C 0.17302 0.29665 0.47295 0.0
C1065 C 0.21714 0.27088 0.46701 0.0
H1066 H 0.23431 0.30989 0.49612 0.0
C1067 C 0.2918 0.27309 0.4852 0.0
C1068 C 0.298 0.28473 0.49847 0.0
C1069 C 0.27398 0.27343 0.47993 0.0
C1070 C 0.23008 0.29863 0.48815 0.0
H1071 H 0.15837 0.26177 0.43755 0.0
H1072 H 0.18862 0.26234 0.44683 0.0
H1073 H 0.204 0.30941 0.48757 0.0
H1074 H 0.29068 0.30603 0.51663 0.0
H1075 H 0.25976 0.30678 0.5079 0.0
H1076 H 0.2429 0.25981 0.46789 0.0
C1077 C 0.17994 0.27195 0.45314 0.0
C1078 C 0.2121 0.29836 0.48305 0.0
C1079 C 0.16233 0.27169 0.4474 0.0
C1080 C 0.28617 0.29699 0.50623 0.0
C1081 C 0.26824 0.29734 0.50102 0.0
C1082 C 0.23501 0.27111 0.47213 0.0
C1083 C 0.18587 0.28441 0.46611 0.0
C1084 C 0.20517 0.28457 0.47215 0.0
C1085 C 0.26159 0.28535 0.4879 0.0
C1086 C 0.24207 0.28508 0.48267 0.0
H1087 H 0.14573 0.30585 0.47248 0.0
H1088 H 0.17629 0.30649 0.483 0.0
H1089 H 0.21309 0.25942 0.45926 0.0
H1090 H 0.30061 0.26322 0.47925 0.0
H1091 H 0.27035 0.26416 0.46949 0.0
C1092 C 0.483 0.79654 0.68117 0.0
C1093 C 0.49638 0.8026 0.66959 0.0
C1094 C 0.47749 0.77871 0.68074 0.0
C1095 C 0.48559 0.73465 0.65553 0.0
H1096 H 0.457 0.71748 0.69497 0.0
C1097 C 0.46474 0.65952 0.65803 0.0
C1098 C 0.45181 0.6542 0.67045 0.0
C1099 C 0.47059 0.67738 0.65768 0.0
C1100 C 0.46464 0.72161 0.68344 0.0
H1101 H 0.51439 0.79515 0.64822 0.0
H1102 H 0.50534 0.76429 0.64736 0.0
H1103 H 0.46554 0.74748 0.69449 0.0
H1104 H 0.43498 0.66272 0.69238 0.0
H1105 H 0.44415 0.69314 0.69167 0.0
H1106 H 0.48498 0.70848 0.64474 0.0
C1107 C 0.49852 0.77281 0.65681 0.0
C1108 C 0.46971 0.73956 0.68316 0.0
C1109 C 0.5039 0.79072 0.65722 0.0
C1110 C 0.44487 0.66669 0.6825 0.0
C1111 C 0.45057 0.68438 0.68219 0.0
C1112 C 0.48053 0.7166 0.65583 0.0
C1113 C 0.48538 0.76623 0.66881 0.0
C1114 C 0.48015 0.74666 0.66911 0.0
C1115 C 0.46365 0.69029 0.66983 0.0
C1116 C 0.4697 0.70964 0.66968 0.0
H1117 H 0.47723 0.80543 0.69111 0.0
H1118 H 0.46701 0.77511 0.68998 0.0
H1119 H 0.49349 0.73889 0.6442 0.0
H1120 H 0.47023 0.64995 0.6486 0.0
H1121 H 0.48071 0.68064 0.64792 0.0
C1122 C 0.46685 0.29463 0.7755 0.0
C1123 C 0.45345 0.30071 0.78704 0.0
C1124 C 0.47233 0.27681 0.77595 0.0
C1125 C 0.46414 0.23265 0.80103 0.0
H1126 H 0.49286 0.21584 0.76159 0.0
C1127 C 0.48475 0.15749 0.79806 0.0
C1128 C 0.49738 0.1522 0.78536 0.0
C1129 C 0.47894 0.17534 0.79854 0.0
C1130 C 0.48514 0.2198 0.77311 0.0
H1131 H 0.43532 0.29323 0.80833 0.0
H1132 H 0.44435 0.26231 0.80921 0.0
H1133 H 0.48435 0.24572 0.7622 0.0
H1134 H 0.51374 0.16071 0.76305 0.0
H1135 H 0.50461 0.19103 0.76386 0.0
H1136 H 0.46457 0.20638 0.81161 0.0
C1137 C 0.4512 0.27087 0.79979 0.0
C1138 C 0.48011 0.23774 0.77348 0.0
C1139 C 0.44584 0.2888 0.79937 0.0
C1140 C 0.50395 0.16464 0.77304 0.0
C1141 C 0.49835 0.18232 0.77351 0.0
C1142 C 0.46912 0.21459 0.80061 0.0
C1143 C 0.46438 0.26431 0.78784 0.0
C1144 C 0.46962 0.24475 0.78752 0.0
C1145 C 0.4857 0.18828 0.78627 0.0
C1146 C 0.47991 0.20769 0.7867 0.0
H1147 H 0.47269 0.30351 0.76558 0.0
H1148 H 0.48284 0.27324 0.76675 0.0
H1149 H 0.45623 0.23686 0.81236 0.0
H1150 H 0.47968 0.14797 0.80781 0.0
H1151 H 0.46914 0.17863 0.80862 0.0
C1152 C 0.66296 0.48258 0.7979 0.0
C1153 C 0.66728 0.50032 0.80195 0.0
C1154 C 0.66279 0.47679 0.78007 0.0
C1155 C 0.67368 0.49373 0.73261 0.0
H1156 H 0.6564 0.44651 0.72124 0.0
C1157 C 0.67193 0.4717 0.65833 0.0
C1158 C 0.66713 0.45415 0.65394 0.0
C1159 C 0.67141 0.47745 0.67613 0.0
C1160 C 0.66122 0.45988 0.7236 0.0
H1161 H 0.67471 0.52606 0.79075 0.0
H1162 H 0.6737 0.51678 0.76041 0.0
H1163 H 0.65637 0.45576 0.75109 0.0
H1164 H 0.65691 0.4291 0.6644 0.0
H1165 H 0.6557 0.4386 0.69473 0.0
H1166 H 0.67831 0.49801 0.70518 0.0
C1167 C 0.67082 0.50662 0.77027 0.0
C1168 C 0.66136 0.46532 0.74148 0.0
C1169 C 0.67104 0.51229 0.788 0.0
C1170 C 0.66084 0.44274 0.66744 0.0
C1171 C 0.66034 0.44839 0.68521 0.0
C1172 C 0.67326 0.48842 0.71471 0.0
C1173 C 0.66699 0.48864 0.76577 0.0
C1174 C 0.66735 0.48249 0.74648 0.0
C1175 C 0.66612 0.46575 0.69017 0.0
C1176 C 0.6668 0.47142 0.70963 0.0
H1177 H 0.66006 0.47308 0.80852 0.0
H1178 H 0.65973 0.46284 0.77799 0.0
H1179 H 0.67926 0.50679 0.73509 0.0
H1180 H 0.67684 0.48082 0.64813 0.0
H1181 H 0.67556 0.49106 0.67841 0.0
C1182 C 0.29417 0.00524 0.66594 0.0
C1183 C 0.28285 -0.00328 0.65375 0.0
C1184 C 0.29463 -0.00022 0.68386 0.0
C1185 C 0.26992 0.97275 0.71634 0.0
H1186 H 0.30556 -0.01255 0.7487 0.0
C1187 C 0.2705 0.94768 0.78909 0.0
C1188 C 0.28122 0.95576 0.80204 0.0
C1189 C 0.27094 0.95346 0.77144 0.0
C1190 C 0.29533 -0.01808 0.7402 0.0
H1191 H 0.26349 -0.02448 0.65036 0.0
H1192 H 0.26459 0.96948 0.68063 0.0
H1193 H 0.30627 -0.00387 0.7183 0.0
H1194 H 0.30077 0.97634 0.80714 0.0
H1195 H 0.30185 -0.01725 0.77646 0.0
H1196 H 0.25869 0.95889 0.73804 0.0
C1197 C 0.27309 -0.02342 0.6773 0.0
C1198 C 0.29574 -0.01293 0.72217 0.0
C1199 C 0.27257 -0.01783 0.65948 0.0
C1200 C 0.29239 0.96995 0.79721 0.0
C1201 C 0.29285 0.9759 0.77937 0.0
C1202 C 0.26952 0.96762 0.73428 0.0
C1203 C 0.28377 -0.01445 0.69012 0.0
C1204 C 0.28331 -0.01971 0.70969 0.0
C1205 C 0.28202 0.96781 0.76601 0.0
C1206 C 0.28222 0.97398 0.7467 0.0
H1207 H 0.30221 0.01659 0.66178 0.0
H1208 H 0.30315 0.0074 0.69262 0.0
H1209 H 0.25939 0.96748 0.70806 0.0
H1210 H 0.26154 0.93682 0.79266 0.0
H1211 H 0.26258 0.94611 0.76232 0.0
C1212 C 0.66347 0.29713 0.00411 0.0
C1213 C 0.65164 0.28489 -0.00359 0.0
C1214 C 0.68142 0.29739 -0.00107 0.0
C1215 C 0.71504 0.2711 0.97413 0.0
H1216 H 0.74559 0.30948 -0.01469 0.0
C1217 C 0.78786 0.27182 0.94939 0.0
C1218 C 0.80025 0.28385 0.95645 0.0
C1219 C 0.77017 0.27215 0.95496 0.0
C1220 C 0.73754 0.29837 -0.01912 0.0
H1221 H 0.64904 0.26324 -0.02264 0.0
H1222 H 0.67969 0.2641 0.9716 0.0
H1223 H 0.7153 0.30991 -0.00606 0.0
H1224 H 0.80428 0.30572 0.97488 0.0
H1225 H 0.77332 0.30636 -0.01889 0.0
H1226 H 0.73708 0.25939 0.96131 0.0
C1227 C 0.67571 0.27337 -0.02203 0.0
C1228 C 0.71956 0.29861 -0.01398 0.0
C1229 C 0.65786 0.27313 -0.01677 0.0
C1230 C 0.7948 0.29629 0.96931 0.0
C1231 C 0.77696 0.29667 0.97502 0.0
C1232 C 0.73293 0.27088 0.96898 0.0
C1233 C 0.68809 0.28531 -0.01413 0.0
C1234 C 0.70762 0.28502 -0.01937 0.0
C1235 C 0.76415 0.28451 0.96801 0.0
C1236 C 0.74483 0.28464 0.97404 0.0
H1237 H 0.65894 0.30624 0.01448 0.0
H1238 H 0.68988 0.30682 0.00579 0.0
H1239 H 0.70718 0.25977 0.96995 0.0
H1240 H 0.79192 0.26194 0.93953 0.0
H1241 H 0.76148 0.26266 0.9485 0.0
C1242 C 0.50463 0.28724 0.27144 0.0
C1243 C 0.49813 0.29968 0.28377 0.0
C1244 C 0.49877 0.26963 0.27173 0.0
C1245 C 0.46912 0.23746 0.29851 0.0
H1246 H 0.48429 0.20643 0.26004 0.0
C1247 C 0.44597 0.16328 0.2974 0.0
C1248 C 0.45357 0.15137 0.2851 0.0
C1249 C 0.45128 0.18121 0.29774 0.0
C1250 C 0.48006 0.21438 0.27133 0.0
H1251 H 0.48008 0.30401 0.30592 0.0
H1252 H 0.46926 0.27342 0.30655 0.0
H1253 H 0.4928 0.23633 0.25945 0.0
H1254 H 0.47267 0.14854 0.26354 0.0
H1255 H 0.48278 0.17888 0.26455 0.0
H1256 H 0.45622 0.21519 0.31024 0.0
C1257 C 0.47923 0.27666 0.29663 0.0
C1258 C 0.48511 0.23232 0.27098 0.0
C1259 C 0.48526 0.29445 0.29629 0.0
C1260 C 0.46688 0.15744 0.27346 0.0
C1261 C 0.47232 0.17529 0.27382 0.0
C1262 C 0.46412 0.2194 0.2989 0.0
C1263 C 0.48593 0.26374 0.28434 0.0
C1264 C 0.47994 0.24438 0.28462 0.0
C1265 C 0.4644 0.18778 0.28572 0.0
C1266 C 0.4696 0.20734 0.28538 0.0
H1267 H 0.51444 0.29115 0.26145 0.0
H1268 H 0.50495 0.26094 0.26203 0.0
H1269 H 0.4646 0.24564 0.30952 0.0
H1270 H 0.4355 0.15884 0.30643 0.0
H1271 H 0.44442 0.18975 0.30715 0.0
C1272 C 0.44464 0.78936 0.18032 0.0
C1273 C 0.45145 0.80184 0.16817 0.0
C1274 C 0.45045 0.77171 0.18009 0.0
C1275 C 0.4805 0.73957 0.15377 0.0
H1276 H 0.46559 0.7087 0.19253 0.0
C1277 C 0.50384 0.66533 0.15537 0.0
C1278 C 0.4961 0.65347 0.16767 0.0
C1279 C 0.4986 0.68331 0.15496 0.0
C1280 C 0.46974 0.71661 0.18116 0.0
H1281 H 0.4699 0.80617 0.14634 0.0
H1282 H 0.48056 0.77554 0.14579 0.0
H1283 H 0.45693 0.73863 0.19289 0.0
H1284 H 0.47681 0.6508 0.18909 0.0
H1285 H 0.46691 0.68114 0.18797 0.0
H1286 H 0.49354 0.71727 0.14222 0.0
C1287 C 0.47042 0.77877 0.15553 0.0
C1288 C 0.46459 0.73453 0.18138 0.0
C1289 C 0.46446 0.79659 0.15581 0.0
C1290 C 0.48276 0.65965 0.17922 0.0
C1291 C 0.47742 0.67751 0.17879 0.0
C1292 C 0.48562 0.72153 0.15353 0.0
C1293 C 0.46353 0.76584 0.16772 0.0
C1294 C 0.46964 0.74651 0.1676 0.0
C1295 C 0.48543 0.68995 0.16689 0.0
C1296 C 0.48021 0.70952 0.16713 0.0
H1297 H 0.43474 0.7933 0.1902 0.0
H1298 H 0.4441 0.76295 0.18964 0.0
H1299 H 0.48493 0.7477 0.14267 0.0
H1300 H 0.51428 0.66081 0.14638 0.0
H1301 H 0.50551 0.69183 0.14555 0.0
C1302 C 0.2757 0.48248 0.29543 0.0
C1303 C 0.28315 0.4989 0.30042 0.0
C1304 C 0.27598 0.47702 0.27757 0.0
C1305 C 0.29204 0.49225 0.23099 0.0
H1306 H 0.26416 0.4509 0.21805 0.0
C1307 C 0.28894 0.4697 0.15638 0.0
C1308 C 0.28151 0.453 0.15238 0.0
C1309 C 0.28937 0.47575 0.17417 0.0
C1310 C 0.27256 0.46223 0.22096 0.0
H1311 H 0.29728 0.52233 0.2909 0.0
H1312 H 0.29772 0.5134 0.26015 0.0
H1313 H 0.265 0.45961 0.24792 0.0
H1314 H 0.26859 0.42952 0.16347 0.0
H1315 H 0.26999 0.43901 0.19366 0.0
H1316 H 0.29943 0.49481 0.20375 0.0
C1317 C 0.29161 0.5042 0.26945 0.0
C1318 C 0.27298 0.4675 0.23885 0.0
C1319 C 0.29144 0.50952 0.28737 0.0
C1320 C 0.27471 0.44239 0.16624 0.0
C1321 C 0.27518 0.44826 0.18386 0.0
C1322 C 0.29172 0.48687 0.21304 0.0
C1323 C 0.28356 0.48794 0.26398 0.0
C1324 C 0.28292 0.48251 0.24445 0.0
C1325 C 0.28226 0.46521 0.18836 0.0
C1326 C 0.28219 0.47154 0.2076 0.0
H1327 H 0.26903 0.47407 0.30522 0.0
H1328 H 0.27002 0.46418 0.27489 0.0
H1329 H 0.29992 0.50395 0.23391 0.0
H1330 H 0.29424 0.47813 0.14579 0.0
H1331 H 0.29496 0.48886 0.17638 0.0
C1332 C 0.65956 0.00839 0.16492 0.0
C1333 C 0.66697 -0.0026 0.15166 0.0
C1334 C 0.65914 0.00285 0.18277 0.0
C1335 C 0.67473 0.96862 0.21292 0.0
H1336 H 0.65322 -0.00528 0.24863 0.0
C1337 C 0.67241 0.94424 0.28601 0.0
C1338 C 0.66703 0.95565 0.29986 0.0
C1339 C 0.67224 0.94999 0.26832 0.0
C1340 C 0.65962 -0.01414 0.2392 0.0
H1341 H 0.67858 0.97579 0.14638 0.0
H1342 H 0.67723 0.96562 0.1767 0.0
H1343 H 0.65296 0.00387 0.21862 0.0
H1344 H 0.65744 -0.02221 0.30632 0.0
H1345 H 0.65719 -0.01177 0.27575 0.0
H1346 H 0.68219 0.95108 0.23358 0.0
C1347 C 0.67223 0.97891 0.17419 0.0
C1348 C 0.65937 -0.00876 0.22126 0.0
C1349 C 0.673 -0.01969 0.15636 0.0
C1350 C 0.66129 0.97298 0.29575 0.0
C1351 C 0.66116 0.97888 0.27793 0.0
C1352 C 0.67516 0.96337 0.23084 0.0
C1353 C 0.66605 -0.01401 0.18801 0.0
C1354 C 0.66673 -0.01954 0.20754 0.0
C1355 C 0.66686 0.96756 0.26374 0.0
C1356 C 0.66715 0.97377 0.24445 0.0
H1357 H 0.65471 0.02167 0.16166 0.0
H1358 H 0.65373 0.01236 0.19215 0.0
H1359 H 0.68128 0.95977 0.20361 0.0
H1360 H 0.67726 0.93085 0.28886 0.0
H1361 H 0.67634 0.94022 0.25853 0.0
C1362 C 0.16202 0.68214 0.00525 0.0
C1363 C 0.14964 0.67005 -0.00171 0.0
C1364 C 0.17966 0.68187 -0.00043 0.0
C1365 C 0.21222 0.65573 0.97358 0.0
H1366 H 0.24255 0.6943 -0.01532 0.0
C1367 C 0.28622 0.65691 0.95065 0.0
C1368 C 0.29804 0.66918 0.95832 0.0
C1369 C 0.2683 0.65669 0.95579 0.0
C1370 C 0.23469 0.68298 -0.01954 0.0
H1371 H 0.14552 0.64822 -0.02018 0.0
H1372 H 0.17644 0.64769 0.97339 0.0
H1373 H 0.21265 0.69469 -0.00679 0.0
H1374 H 0.30073 0.69085 0.97731 0.0
H1375 H 0.27005 0.69001 -0.0169 0.0
H1376 H 0.23446 0.6442 0.96059 0.0
C1377 C 0.17282 0.65735 -0.02047 0.0
C1378 C 0.2168 0.6832 -0.01446 0.0
C1379 C 0.15502 0.65766 -0.01465 0.0
C1380 C 0.29188 0.68096 0.97148 0.0
C1381 C 0.27403 0.68073 0.97674 0.0
C1382 C 0.2302 0.6555 0.96851 0.0
C1383 C 0.18562 0.66953 -0.01351 0.0
C1384 C 0.20492 0.66944 -0.01956 0.0
C1385 C 0.26165 0.66878 0.96882 0.0
C1386 C 0.24213 0.66907 0.97398 0.0
H1387 H 0.158 0.69202 0.01513 0.0
H1388 H 0.18833 0.69139 0.00599 0.0
H1389 H 0.20417 0.64464 0.9691 0.0
H1390 H 0.29074 0.64778 0.9403 0.0
H1391 H 0.25986 0.64726 0.9489 0.0
C1392 C 0.08907 0.31479 0.37173 0.0
C1393 C 0.08062 0.30072 0.38068 0.0
C1394 C 0.08272 0.32065 0.3551 0.0
C1395 C 0.05072 0.30576 0.31818 0.0
H1396 H 0.06784 0.34949 0.29646 0.0
C1397 C 0.02358 0.3265 0.24851 0.0
C1398 C 0.03226 0.33968 0.23841 0.0
C1399 C 0.02929 0.32239 0.2659 0.0
C1400 C 0.06282 0.33708 0.30189 0.0
H1401 H 0.05834 0.28236 0.38021 0.0
H1402 H 0.04625 0.29332 0.35232 0.0
H1403 H 0.07706 0.3421 0.32587 0.0
H1404 H 0.05311 0.3597 0.23888 0.0
H1405 H 0.06334 0.3527 0.26858 0.0
H1406 H 0.0367 0.30057 0.29417 0.0
C1407 C 0.05832 0.29953 0.35716 0.0
C1408 C 0.06832 0.33269 0.31929 0.0
C1409 C 0.06485 0.29358 0.37365 0.0
C1410 C 0.04632 0.34923 0.24627 0.0
C1411 C 0.05211 0.34516 0.26365 0.0
C1412 C 0.04517 0.31017 0.30081 0.0
C1413 C 0.06764 0.31257 0.34701 0.0
C1414 C 0.06209 0.31713 0.32804 0.0
C1415 C 0.04401 0.3313 0.27381 0.0
C1416 C 0.05073 0.32616 0.29232 0.0
H1417 H 0.1015 0.32019 0.37681 0.0
H1418 H 0.09058 0.33068 0.34829 0.0
H1419 H 0.04614 0.29311 0.32351 0.0
H1420 H 0.01269 0.31892 0.24273 0.0
H1421 H 0.02189 0.31215 0.2729 0.0
C1422 C 0.86237 0.13602 0.37333 0.0
C1423 C 0.86871 0.15196 0.38068 0.0
C1424 C 0.86901 0.13002 0.35685 0.0
C1425 C 0.89604 0.14779 0.31734 0.0
H1426 H 0.88677 0.10018 0.29947 0.0
C1427 C 0.92408 0.128 0.24806 0.0
C1428 C 0.91799 0.11263 0.23942 0.0
C1429 C 0.91825 0.13209 0.26537 0.0
C1430 C 0.88955 0.11366 0.30383 0.0
H1431 H 0.88782 0.17348 0.37787 0.0
H1432 H 0.90056 0.16249 0.3503 0.0
H1433 H 0.87758 0.10771 0.32892 0.0
H1434 H 0.90182 0.08879 0.24214 0.0
H1435 H 0.89123 0.09573 0.27182 0.0
H1436 H 0.90767 0.15395 0.29231 0.0
C1437 C 0.88975 0.15488 0.35614 0.0
C1438 C 0.88407 0.1181 0.32121 0.0
C1439 C 0.88289 0.16096 0.3724 0.0
C1440 C 0.90647 0.10095 0.24851 0.0
C1441 C 0.9005 0.10502 0.26582 0.0
C1442 C 0.90159 0.14334 0.30002 0.0
C1443 C 0.88223 0.13986 0.34745 0.0
C1444 C 0.8876 0.13512 0.32855 0.0
C1445 C 0.90592 0.12097 0.27456 0.0
C1446 C 0.89894 0.126 0.29295 0.0
H1447 H 0.85125 0.12905 0.37951 0.0
H1448 H 0.86271 0.11834 0.35115 0.0
H1449 H 0.89822 0.16145 0.32157 0.0
H1450 H 0.933 0.13719 0.24121 0.0
H1451 H 0.92368 0.14409 0.27125 0.0
C1452 C 0.08896 0.63892 0.07952 0.0
C1453 C 0.08114 0.65369 0.07123 0.0
C1454 C 0.08243 0.63287 0.09601 0.0
C1455 C 0.05248 0.64928 0.13372 0.0
H1456 H 0.06607 0.60374 0.15416 0.0
C1457 C 0.0231 0.62912 0.20194 0.0
C1458 C 0.03032 0.61492 0.21156 0.0
C1459 C 0.02955 0.63319 0.1849 0.0
C1460 C 0.06209 0.61666 0.14905 0.0
H1461 H 0.05965 0.67297 0.07237 0.0
H1462 H 0.04713 0.66164 0.09995 0.0
H1463 H 0.07539 0.61092 0.12463 0.0
H1464 H 0.04958 0.59337 0.21139 0.0
H1465 H 0.06136 0.60043 0.18206 0.0
H1466 H 0.03964 0.65533 0.15813 0.0
C1467 C 0.05894 0.65511 0.09481 0.0
C1468 C 0.06762 0.62089 0.13165 0.0
C1469 C 0.06569 0.66129 0.07854 0.0
C1470 C 0.04383 0.60443 0.20395 0.0
C1471 C 0.05052 0.60859 0.18694 0.0
C1472 C 0.04695 0.64507 0.15107 0.0
C1473 C 0.06784 0.64149 0.10446 0.0
C1474 C 0.06248 0.63707 0.1234 0.0
C1475 C 0.04374 0.62334 0.17712 0.0
C1476 C 0.05109 0.6284 0.15897 0.0
H1477 H 0.10107 0.6331 0.07411 0.0
H1478 H 0.08983 0.62229 0.10249 0.0
H1479 H 0.04903 0.66243 0.12876 0.0
H1480 H 0.01277 0.63743 0.20782 0.0
H1481 H 0.02309 0.64415 0.17809 0.0
C1482 C 0.92921 0.84313 0.19825 0.0
C1483 C 0.91814 0.84014 0.21306 0.0
C1484 C 0.92302 0.83971 0.18089 0.0
C1485 C 0.88234 0.81987 0.15662 0.0
H1486 H 0.9116 0.83162 0.11564 0.0
C1487 C 0.85468 0.8058 0.08665 0.0
C1488 C 0.8666 0.80371 0.07241 0.0
C1489 C 0.86057 0.8126 0.10295 0.0
C1490 C 0.903 0.82801 0.12667 0.0
H1491 H 0.89137 0.8328 0.22134 0.0
H1492 H 0.88035 0.82779 0.19194 0.0
H1493 H 0.92243 0.83771 0.14448 0.0
H1494 H 0.89324 0.80903 0.0628 0.0
H1495 H 0.90383 0.82077 0.09078 0.0
H1496 H 0.86341 0.80909 0.13872 0.0
C1497 C 0.89417 0.8316 0.19294 0.0
C1498 C 0.90938 0.83172 0.14383 0.0
C1499 C 0.90046 0.83477 0.21019 0.0
C1500 C 0.88383 0.81067 0.07374 0.0
C1501 C 0.88993 0.81716 0.09017 0.0
C1502 C 0.87604 0.81599 0.13948 0.0
C1503 C 0.90547 0.83328 0.17783 0.0
C1504 C 0.89899 0.82833 0.15927 0.0
C1505 C 0.87873 0.81705 0.10551 0.0
C1506 C 0.88593 0.82057 0.12403 0.0
H1507 H 0.94278 0.84778 0.20005 0.0
H1508 H 0.93248 0.84185 0.17022 0.0
H1509 H 0.87388 0.81576 0.16758 0.0
H1510 H 0.84127 0.80039 0.08579 0.0
H1511 H 0.85086 0.81337 0.11362 0.0
C1512 C 0.25061 0.03196 0.35217 0.0
C1513 C 0.23724 0.03336 0.33917 0.0
C1514 C 0.26786 0.03828 0.34852 0.0
C1515 C 0.29554 0.05612 0.3093 0.0
H1516 H 0.33051 0.06361 0.3467 0.0
C1517 C 0.35873 0.09284 0.29215 0.0
C1518 C 0.37496 0.0866 0.29899 0.0
C1519 C 0.34274 0.08683 0.29911 0.0
C1520 C 0.32095 0.06148 0.33606 0.0
H1521 H 0.23069 0.04318 0.3128 0.0
H1522 H 0.25978 0.0549 0.30656 0.0
H1523 H 0.30129 0.05247 0.35452 0.0
H1524 H 0.3875 0.07128 0.32014 0.0
H1525 H 0.359 0.06109 0.33319 0.0
H1526 H 0.3153 0.06505 0.29092 0.0
C1527 C 0.25805 0.04812 0.31922 0.0
C1528 C 0.30394 0.05499 0.34051 0.0
C1529 C 0.24103 0.04161 0.32283 0.0
C1530 C 0.37505 0.07613 0.31461 0.0
C1531 C 0.35874 0.07017 0.32187 0.0
C1532 C 0.31236 0.06269 0.30495 0.0
C1533 C 0.27205 0.04627 0.33179 0.0
C1534 C 0.29068 0.05256 0.32724 0.0
C1535 C 0.34245 0.07455 0.31336 0.0
C1536 C 0.32516 0.06599 0.3183 0.0
H1537 H 0.24767 0.02615 0.36518 0.0
H1538 H 0.27776 0.03652 0.35885 0.0
H1539 H 0.28667 0.05363 0.29821 0.0
H1540 H 0.35837 0.10117 0.28022 0.0
H1541 H 0.33058 0.09133 0.29272 0.0
C1542 C 0.57481 0.37628 0.31466 0.0
C1543 C 0.57486 0.36513 0.29956 0.0
C1544 C 0.59114 0.38229 0.32172 0.0
C1545 C 0.63812 0.38793 0.30518 0.0
H1546 H 0.64775 0.40136 0.35422 0.0
C1547 C 0.70908 0.40959 0.32356 0.0
C1548 C 0.71253 0.41891 0.3394 0.0
C1549 C 0.69214 0.40295 0.31998 0.0
C1550 C 0.64553 0.39793 0.34036 0.0
H1551 H 0.59132 0.34958 0.28146 0.0
H1552 H 0.61921 0.35941 0.29372 0.0
H1553 H 0.61868 0.39006 0.3464 0.0
H1554 H 0.70135 0.42785 0.36459 0.0
H1555 H 0.67138 0.41726 0.35821 0.0
H1556 H 0.66416 0.39619 0.29857 0.0
C1557 C 0.60708 0.36438 0.29984 0.0
C1558 C 0.62858 0.39135 0.33589 0.0
C1559 C 0.59103 0.35833 0.29308 0.0
C1560 C 0.69877 0.42123 0.35194 0.0
C1561 C 0.68157 0.41476 0.34827 0.0
C1562 C 0.6549 0.39457 0.30955 0.0
C1563 C 0.60745 0.37726 0.31355 0.0
C1564 C 0.62483 0.38572 0.31835 0.0
C1565 C 0.67778 0.40572 0.332 0.0
C1566 C 0.65924 0.39931 0.32735 0.0
H1567 H 0.5624 0.38164 0.31986 0.0
H1568 H 0.59086 0.3919 0.33258 0.0
H1569 H 0.63559 0.38472 0.29126 0.0
H1570 H 0.71964 0.4073 0.31386 0.0
H1571 H 0.69073 0.39537 0.30776 0.0
C1572 C 0.24794 0.93003 0.124 0.0
C1573 C 0.2373 0.92071 0.11185 0.0
C1574 C 0.26487 0.92362 0.12851 0.0
C1575 C 0.2986 0.88695 0.1163 0.0
H1576 H 0.32258 0.9077 0.15705 0.0
C1577 C 0.36817 0.86088 0.13832 0.0
C1578 C 0.3777 0.87049 0.15115 0.0
C1579 C 0.35172 0.86726 0.13226 0.0
C1580 C 0.31658 0.90194 0.14524 0.0
H1581 H 0.23584 0.89763 0.09444 0.0
H1582 H 0.26488 0.88618 0.10214 0.0
H1583 H 0.29334 0.9172 0.15006 0.0
H1584 H 0.37869 0.89484 0.16675 0.0
H1585 H 0.35115 0.90686 0.15525 0.0
H1586 H 0.32181 0.87145 0.11171 0.0
C1587 C 0.26084 0.89855 0.1084 0.0
C1588 C 0.29926 0.90752 0.14112 0.0
C1589 C 0.24391 0.90505 0.10391 0.0
C1590 C 0.37161 0.88738 0.15652 0.0
C1591 C 0.35531 0.89391 0.15034 0.0
C1592 C 0.31595 0.88141 0.1204 0.0
C1593 C 0.2717 0.90756 0.12104 0.0
C1594 C 0.28996 0.90054 0.12624 0.0
C1595 C 0.34445 0.88349 0.1389 0.0
C1596 C 0.32555 0.88909 0.13469 0.0
H1597 H 0.24295 0.94204 0.13045 0.0
H1598 H 0.27239 0.93164 0.13782 0.0
H1599 H 0.29248 0.88075 0.1048 0.0
H1600 H 0.37258 0.84765 0.13428 0.0
H1601 H 0.34436 0.85858 0.12339 0.0
C1602 C 0.58783 0.59876 0.15217 0.0
C1603 C 0.57292 0.58759 0.15102 0.0
C1604 C 0.60417 0.59323 0.14523 0.0
C1605 C 0.62688 0.55459 0.12123 0.0
H1606 H 0.66695 0.57368 0.14743 0.0
C1607 C 0.69851 0.52724 0.10788 0.0
C1608 C 0.71315 0.53652 0.11492 0.0
C1609 C 0.6811 0.53326 0.11121 0.0
C1610 C 0.65628 0.56833 0.13937 0.0
H1611 H 0.56239 0.56315 0.1398 0.0
H1612 H 0.59069 0.55317 0.12772 0.0
H1613 H 0.63801 0.58468 0.15361 0.0
H1614 H 0.72123 0.56015 0.12963 0.0
H1615 H 0.69179 0.57123 0.13442 0.0
H1616 H 0.64497 0.53772 0.10746 0.0
C1617 C 0.5903 0.5662 0.134 0.0
C1618 C 0.63922 0.57485 0.14304 0.0
C1619 C 0.57384 0.57197 0.14073 0.0
C1620 C 0.71016 0.55242 0.12439 0.0
C1621 C 0.69292 0.55863 0.12743 0.0
C1622 C 0.64399 0.54802 0.11755 0.0
C1623 C 0.60601 0.57617 0.13727 0.0
C1624 C 0.62421 0.56854 0.13363 0.0
C1625 C 0.67787 0.54891 0.1215 0.0
C1626 C 0.65921 0.55512 0.12613 0.0
H1627 H 0.58733 0.61088 0.16018 0.0
H1628 H 0.61546 0.60203 0.14711 0.0
H1629 H 0.61592 0.54898 0.11371 0.0
H1630 H 0.70048 0.51521 0.09999 0.0
H1631 H 0.6704 0.52519 0.10594 0.0
C1632 C 0.30891 0.37848 0.0711 0.0
C1633 C 0.29813 0.37892 0.08643 0.0
C1634 C 0.31592 0.36211 0.06519 0.0
C1635 C 0.30549 0.31324 0.0716 0.0
H1636 H 0.34498 0.30723 0.03879 0.0
C1637 C 0.32435 0.24214 0.04963 0.0
C1638 C 0.33532 0.23926 0.03473 0.0
C1639 C 0.32115 0.25938 0.05589 0.0
C1640 C 0.33375 0.30833 0.04779 0.0
H1641 H 0.28831 0.36383 0.10912 0.0
H1642 H 0.3015 0.33581 0.09987 0.0
H1643 H 0.33832 0.33643 0.05013 0.0
H1644 H 0.35256 0.25198 0.01521 0.0
H1645 H 0.34638 0.28216 0.02519 0.0
H1646 H 0.30026 0.28564 0.06898 0.0
C1647 C 0.30374 0.34746 0.09151 0.0
C1648 C 0.32991 0.32545 0.0544 0.0
C1649 C 0.29667 0.36368 0.09723 0.0
C1650 C 0.34356 0.25394 0.02643 0.0
C1651 C 0.34011 0.27136 0.03248 0.0
C1652 C 0.30925 0.29621 0.06498 0.0
C1653 C 0.3123 0.34613 0.07473 0.0
C1654 C 0.31608 0.32809 0.06687 0.0
C1655 C 0.32846 0.27451 0.04714 0.0
C1656 C 0.32383 0.29319 0.05334 0.0
H1657 H 0.31009 0.39019 0.06257 0.0
H1658 H 0.3227 0.3619 0.05238 0.0
H1659 H 0.29397 0.31465 0.08025 0.0
H1660 H 0.3181 0.23098 0.05653 0.0
H1661 H 0.31299 0.26045 0.06777 0.0
C1662 C 0.35135 0.70313 0.41162 0.0
C1663 C 0.3381 0.71397 0.41919 0.0
C1664 C 0.34696 0.6862 0.40473 0.0
C1665 C 0.30603 0.65612 0.39716 0.0
H1666 H 0.34267 0.62223 0.38393 0.0
C1667 C 0.28463 0.58515 0.37887 0.0
C1668 C 0.29573 0.57429 0.36841 0.0
C1669 C 0.2909 0.60116 0.38591 0.0
C1670 C 0.33204 0.63134 0.38744 0.0
H1671 H 0.31014 0.71634 0.42534 0.0
H1672 H 0.30244 0.68721 0.41496 0.0
H1673 H 0.35104 0.65161 0.39283 0.0
H1674 H 0.32246 0.5705 0.35835 0.0
H1675 H 0.33364 0.59865 0.37011 0.0
H1676 H 0.28702 0.6364 0.39084 0.0
C1677 C 0.3162 0.69101 0.41336 0.0
C1678 C 0.33696 0.64868 0.39274 0.0
C1679 C 0.32058 0.7079 0.41985 0.0
C1680 C 0.31368 0.57885 0.36632 0.0
C1681 C 0.31998 0.5952 0.3731 0.0
C1682 C 0.30115 0.63896 0.39178 0.0
C1683 C 0.32918 0.67969 0.40541 0.0
C1684 C 0.32408 0.66137 0.39829 0.0
C1685 C 0.3084 0.60717 0.38223 0.0
C1686 C 0.31401 0.62592 0.38733 0.0
H1687 H 0.36497 0.70793 0.41059 0.0
H1688 H 0.35766 0.67863 0.39871 0.0
H1689 H 0.29515 0.66508 0.40005 0.0
H1690 H 0.27071 0.5817 0.38084 0.0
H1691 H 0.28159 0.60881 0.39388 0.0
C1692 C 0.64127 0.88078 0.38297 0.0
C1693 C 0.65077 0.88193 0.36688 0.0
C1694 C 0.6346 0.86425 0.38872 0.0
C1695 C 0.64134 0.81492 0.37796 0.0
H1696 H 0.60991 0.80966 0.4187 0.0
C1697 C 0.62238 0.74386 0.40119 0.0
C1698 C 0.61417 0.74101 0.41785 0.0
C1699 C 0.62557 0.76114 0.39492 0.0
C1700 C 0.61881 0.81044 0.40735 0.0
H1701 H 0.65845 0.86791 0.34277 0.0
H1702 H 0.6453 0.83972 0.35155 0.0
H1703 H 0.6161 0.83869 0.40758 0.0
H1704 H 0.60166 0.75399 0.44052 0.0
H1705 H 0.6078 0.78401 0.43039 0.0
H1706 H 0.64446 0.78687 0.37786 0.0
C1707 C 0.64412 0.85081 0.36078 0.0
C1708 C 0.62249 0.82762 0.40083 0.0
C1709 C 0.65107 0.86723 0.35528 0.0
C1710 C 0.60854 0.75583 0.42785 0.0
C1711 C 0.61199 0.77324 0.42173 0.0
C1712 C 0.6376 0.79776 0.3844 0.0
C1713 C 0.63705 0.84864 0.37823 0.0
C1714 C 0.63341 0.83022 0.38566 0.0
C1715 C 0.62105 0.77633 0.40529 0.0
C1716 C 0.62581 0.79501 0.39896 0.0
H1717 H 0.64099 0.89205 0.39213 0.0
H1718 H 0.62901 0.86375 0.40206 0.0
H1719 H 0.65081 0.81592 0.36706 0.0
H1720 H 0.62652 0.73266 0.39293 0.0
H1721 H 0.63155 0.76218 0.3818 0.0
C1722 C 0.11106 0.70031 0.52446 0.0
C1723 C 0.11027 0.71456 0.53652 0.0
C1724 C 0.11493 0.68305 0.53056 0.0
C1725 C 0.12662 0.65762 0.57389 0.0
H1726 H 0.13102 0.61933 0.53957 0.0
C1727 C 0.14317 0.58672 0.59931 0.0
C1728 C 0.14743 0.57344 0.5869 0.0
C1729 C 0.13674 0.60322 0.59348 0.0
C1730 C 0.12958 0.62944 0.54976 0.0
H1731 H 0.11101 0.7219 0.56461 0.0
H1732 H 0.11722 0.69262 0.57535 0.0
H1733 H 0.12463 0.64811 0.5293 0.0
H1734 H 0.1459 0.56545 0.55917 0.0
H1735 H 0.13378 0.59324 0.54885 0.0
H1736 H 0.13265 0.63917 0.59423 0.0
C1737 C 0.11591 0.69399 0.56104 0.0
C1738 C 0.12577 0.64666 0.54361 0.0
C1739 C 0.11216 0.71117 0.55488 0.0
C1740 C 0.14264 0.57568 0.56897 0.0
C1741 C 0.13623 0.59217 0.56303 0.0
C1742 C 0.13045 0.64041 0.58003 0.0
C1743 C 0.11809 0.67952 0.54899 0.0
C1744 C 0.12348 0.66112 0.55555 0.0
C1745 C 0.13453 0.60685 0.57496 0.0
C1746 C 0.13127 0.62567 0.56821 0.0
H1747 H 0.10925 0.70256 0.51022 0.0
H1748 H 0.11556 0.67283 0.52041 0.0
H1749 H 0.12618 0.66789 0.584 0.0
H1750 H 0.14682 0.58514 0.61329 0.0
H1751 H 0.13467 0.61313 0.60375 0.0
C1752 C 0.90242 0.6065 0.70803 0.0
C1753 C 0.91805 0.6143 0.71468 0.0
C1754 C 0.89628 0.61075 0.69089 0.0
C1755 C 0.90602 0.64272 0.65185 0.0
H1756 H 0.86906 0.61409 0.63006 0.0
C1757 C 0.88577 0.65756 0.57914 0.0
C1758 C 0.86866 0.65274 0.57343 0.0
C1759 C 0.89226 0.65144 0.59554 0.0
C1760 C 0.87925 0.62257 0.6357 0.0
H1761 H 0.93999 0.63203 0.70859 0.0
H1762 H 0.93016 0.63892 0.67869 0.0
H1763 H 0.87839 0.60722 0.65941 0.0
H1764 H 0.84539 0.63682 0.57926 0.0
H1765 H 0.8562 0.62606 0.60765 0.0
H1766 H 0.90636 0.65843 0.62819 0.0
C1767 C 0.92183 0.63007 0.68649 0.0
C1768 C 0.88483 0.6185 0.65309 0.0
C1769 C 0.92787 0.62584 0.70369 0.0
C1770 C 0.85879 0.6404 0.58337 0.0
C1771 C 0.86511 0.63442 0.59993 0.0
C1772 C 0.90038 0.64684 0.63448 0.0
C1773 C 0.90564 0.62295 0.67977 0.0
C1774 C 0.89873 0.62812 0.66144 0.0
C1775 C 0.88158 0.6406 0.60683 0.0
C1776 C 0.88721 0.63654 0.6258 0.0
H1777 H 0.89469 0.59735 0.71622 0.0
H1778 H 0.88384 0.60469 0.68694 0.0
H1779 H 0.91598 0.65142 0.65757 0.0
H1780 H 0.89345 0.66744 0.57174 0.0
H1781 H 0.90537 0.65594 0.59947 0.0
C1782 C 0.02647 0.82539 0.707 0.0
C1783 C 0.03103 0.84162 0.71497 0.0
C1784 C 0.03266 0.82117 0.68986 0.0
C1785 C 0.05912 0.84065 0.65028 0.0
H1786 H 0.05372 0.7918 0.63421 0.0
C1787 C 0.08574 0.81854 0.58027 0.0
C1788 C 0.0807 0.80184 0.57362 0.0
C1789 C 0.07925 0.82439 0.59689 0.0
C1790 C 0.05497 0.80572 0.63792 0.0
H1791 H 0.04544 0.86648 0.71154 0.0
H1792 H 0.05665 0.85935 0.68199 0.0
H1793 H 0.04444 0.79946 0.66337 0.0
H1794 H 0.06415 0.77853 0.57803 0.0
H1795 H 0.05162 0.78901 0.60584 0.0
H1796 H 0.07012 0.84668 0.62474 0.0
C1797 C 0.04812 0.84958 0.68836 0.0
C1798 C 0.0495 0.81027 0.65523 0.0
C1799 C 0.04175 0.8538 0.70554 0.0
C1800 C 0.06801 0.79166 0.58291 0.0
C1801 C 0.0613 0.79753 0.59932 0.0
C1802 C 0.06457 0.83608 0.63288 0.0
C1803 C 0.04392 0.83298 0.68015 0.0
C1804 C 0.05097 0.82797 0.66175 0.0
C1805 C 0.06748 0.81361 0.60719 0.0
C1806 C 0.06219 0.81859 0.62611 0.0
H1807 H 0.01837 0.81573 0.71422 0.0
H1808 H 0.02824 0.80853 0.68449 0.0
H1809 H 0.06095 0.85443 0.65421 0.0
H1810 H 0.09574 0.82644 0.57333 0.0
H1811 H 0.0845 0.83687 0.6019 0.0
C1812 C 0.92715 0.32685 0.75236 0.0
C1813 C 0.91855 0.33992 0.74227 0.0
C1814 C 0.92098 0.3226 0.76948 0.0
C1815 C 0.88646 0.33683 0.80447 0.0
H1816 H 0.90358 0.29327 0.82649 0.0
C1817 C 0.86011 0.3146 0.87409 0.0
C1818 C 0.86887 0.30081 0.88311 0.0
C1819 C 0.8665 0.32054 0.85752 0.0
C1820 C 0.89891 0.30582 0.82103 0.0
H1821 H 0.89713 0.35928 0.74167 0.0
H1822 H 0.88593 0.35195 0.77108 0.0
H1823 H 0.913 0.30049 0.79711 0.0
H1824 H 0.89175 0.28319 0.88303 0.0
H1825 H 0.90394 0.29445 0.85527 0.0
H1826 H 0.87207 0.34193 0.82834 0.0
C1827 C 0.89761 0.34481 0.76655 0.0
C1828 C 0.90445 0.31009 0.80367 0.0
C1829 C 0.90394 0.34911 0.74947 0.0
C1830 C 0.885 0.29418 0.87635 0.0
C1831 C 0.89158 0.30026 0.85996 0.0
C1832 C 0.88095 0.33256 0.82185 0.0
C1833 C 0.9058 0.33118 0.77688 0.0
C1834 C 0.89877 0.32597 0.79513 0.0
C1835 C 0.88191 0.31284 0.84966 0.0
C1836 C 0.8874 0.31721 0.83072 0.0
H1837 H 0.93834 0.31951 0.74679 0.0
H1838 H 0.92842 0.31254 0.77666 0.0
H1839 H 0.88135 0.34914 0.79893 0.0
H1840 H 0.84744 0.3196 0.87902 0.0
H1841 H 0.8584 0.33024 0.85055 0.0
C1842 C 0.04515 0.10227 0.74999 0.0
C1843 C 0.03087 0.11186 0.74266 0.0
C1844 C 0.05175 0.10672 0.76693 0.0
C1845 C 0.04621 0.14235 0.80347 0.0
H1846 H 0.07714 0.10966 0.82878 0.0
C1847 C 0.06544 0.15841 0.87621 0.0
C1848 C 0.08111 0.15107 0.88328 0.0
C1849 C 0.05888 0.15249 0.85976 0.0
C1850 C 0.06868 0.11927 0.82212 0.0
H1851 H 0.0121 0.1333 0.74678 0.0
H1852 H 0.02243 0.14056 0.77636 0.0
H1853 H 0.0679 0.10243 0.79939 0.0
H1854 H 0.10173 0.13131 0.8796 0.0
H1855 H 0.09083 0.12096 0.85109 0.0
H1856 H 0.04745 0.15941 0.82607 0.0
C1857 C 0.02939 0.12999 0.76942 0.0
C1858 C 0.06318 0.11499 0.80474 0.0
C1859 C 0.02296 0.12558 0.75247 0.0
C1860 C 0.0894 0.13686 0.87445 0.0
C1861 C 0.08305 0.13107 0.85785 0.0
C1862 C 0.05173 0.14663 0.82081 0.0
C1863 C 0.04418 0.12092 0.77699 0.0
C1864 C 0.05135 0.12615 0.79518 0.0
C1865 C 0.06812 0.13936 0.84971 0.0
C1866 C 0.0627 0.13496 0.83076 0.0
H1867 H 0.05152 0.09166 0.74239 0.0
H1868 H 0.06313 0.0992 0.77157 0.0
H1869 H 0.03808 0.15219 0.79674 0.0
H1870 H 0.05908 0.16974 0.88271 0.0
H1871 H 0.04689 0.15883 0.85486 0.0
C1872 C 0.59052 0.85968 0.66037 0.0
C1873 C 0.57444 0.86709 0.65444 0.0
C1874 C 0.6066 0.86579 0.65365 0.0
C1875 C 0.6283 0.894 0.61869 0.0
H1876 H 0.66366 0.89744 0.6562 0.0
C1877 C 0.69869 0.92408 0.60412 0.0
C1878 C 0.71233 0.92098 0.61655 0.0
C1879 C 0.68145 0.91755 0.60739 0.0
C1880 C 0.65445 0.89617 0.64518 0.0
H1881 H 0.56207 0.8847 0.63506 0.0
H1882 H 0.59058 0.89505 0.62238 0.0
H1883 H 0.63494 0.88589 0.66313 0.0
H1884 H 0.71928 0.90778 0.64134 0.0
H1885 H 0.69024 0.8956 0.64665 0.0
H1886 H 0.64771 0.90436 0.60068 0.0
C1887 C 0.59077 0.88494 0.6328 0.0
C1888 C 0.63761 0.88954 0.64932 0.0
C1889 C 0.57443 0.87888 0.63981 0.0
C1890 C 0.70878 0.91072 0.6318 0.0
C1891 C 0.6918 0.90395 0.63493 0.0
C1892 C 0.64533 0.90053 0.61444 0.0
C1893 C 0.60703 0.8793 0.64055 0.0
C1894 C 0.62443 0.88784 0.63604 0.0
C1895 C 0.67754 0.90764 0.62313 0.0
C1896 C 0.65893 0.90134 0.62752 0.0
H1897 H 0.59076 0.85046 0.67163 0.0
H1898 H 0.61872 0.86041 0.65941 0.0
H1899 H 0.61844 0.89313 0.60815 0.0
H1900 H 0.70139 0.93142 0.59185 0.0
H1901 H 0.67131 0.92071 0.59763 0.0
C1902 C 0.37231 0.56903 0.6588 0.0
C1903 C 0.37844 0.58582 0.65313 0.0
C1904 C 0.35603 0.56244 0.65269 0.0
C1905 C 0.31693 0.57441 0.62234 0.0
H1906 H 0.29402 0.53963 0.65304 0.0
C1907 C 0.24483 0.55086 0.60673 0.0
C1908 C 0.238 0.5357 0.61545 0.0
C1909 C 0.26191 0.55716 0.61073 0.0
C1910 C 0.30004 0.54898 0.6438 0.0
H1911 H 0.37343 0.60842 0.63587 0.0
H1912 H 0.34518 0.59741 0.62516 0.0
H1913 H 0.32322 0.54928 0.65992 0.0
H1914 H 0.24357 0.51471 0.63449 0.0
H1915 H 0.27335 0.52472 0.64098 0.0
H1916 H 0.29361 0.57465 0.60656 0.0
C1917 C 0.35252 0.58884 0.63416 0.0
C1918 C 0.31731 0.55465 0.64787 0.0
C1919 C 0.36897 0.59526 0.64013 0.0
C1920 C 0.24867 0.52646 0.62761 0.0
C1921 C 0.26578 0.53264 0.63159 0.0
C1922 C 0.29962 0.56879 0.6183 0.0
C1923 C 0.34524 0.57273 0.64106 0.0
C1924 C 0.32638 0.56712 0.63694 0.0
C1925 C 0.2727 0.54842 0.6236 0.0
C1926 C 0.29092 0.55551 0.62861 0.0
H1927 H 0.37935 0.56171 0.66917 0.0
H1928 H 0.35182 0.54956 0.65779 0.0
H1929 H 0.32289 0.58409 0.61339 0.0
H1930 H 0.23686 0.55809 0.59705 0.0
H1931 H 0.26608 0.56922 0.60394 0.0
C1932 C 0.69984 0.03489 0.85489 0.0
C1933 C 0.71273 0.03357 0.84133 0.0
C1934 C 0.68268 0.04132 0.85093 0.0
C1935 C 0.65472 0.05626 0.81049 0.0
H1936 H 0.61978 0.06539 0.84749 0.0
C1937 C 0.58713 0.08444 0.78947 0.0
C1938 C 0.57251 0.08502 0.80118 0.0
C1939 C 0.60374 0.07892 0.79531 0.0
C1940 C 0.62913 0.06286 0.83676 0.0
H1941 H 0.71853 0.03853 0.81348 0.0
H1942 H 0.68986 0.05007 0.80645 0.0
H1943 H 0.64865 0.05478 0.8557 0.0
H1944 H 0.56377 0.08024 0.82839 0.0
H1945 H 0.59262 0.06933 0.83868 0.0
H1946 H 0.63542 0.06314 0.79152 0.0
C1947 C 0.69164 0.04563 0.82005 0.0
C1948 C 0.64618 0.05666 0.84158 0.0
C1949 C 0.70854 0.03907 0.82402 0.0
C1950 C 0.57488 0.07991 0.81908 0.0
C1951 C 0.59164 0.0737 0.82492 0.0
C1952 C 0.63782 0.06219 0.80572 0.0
C1953 C 0.67807 0.04674 0.83329 0.0
C1954 C 0.65952 0.05338 0.82852 0.0
C1955 C 0.60646 0.07291 0.81304 0.0
C1956 C 0.6246 0.06596 0.81866 0.0
H1957 H 0.7031 0.03118 0.86854 0.0
H1958 H 0.67326 0.04185 0.86187 0.0
H1959 H 0.66355 0.05351 0.79944 0.0
H1960 H 0.58588 0.08855 0.77558 0.0
H1961 H 0.61428 0.07983 0.78552 0.0
C1962 C 0.24843 0.42751 0.82914 0.0
C1963 C 0.23799 0.41865 0.84183 0.0
C1964 C 0.26543 0.42117 0.82486 0.0
C1965 C 0.29968 0.38569 0.83856 0.0
H1966 H 0.3226 0.40404 0.7959 0.0
C1967 C 0.36929 0.35956 0.81691 0.0
C1968 C 0.37866 0.3687 0.80357 0.0
C1969 C 0.3527 0.36585 0.82266 0.0
C1970 C 0.31687 0.399 0.80821 0.0
H1971 H 0.23706 0.39665 0.86071 0.0
H1972 H 0.26617 0.38522 0.85332 0.0
H1973 H 0.29329 0.41351 0.80291 0.0
H1974 H 0.37912 0.39215 0.78656 0.0
H1975 H 0.35127 0.40418 0.79756 0.0
H1976 H 0.32321 0.3709 0.84364 0.0
C1977 C 0.2619 0.39716 0.8464 0.0
C1978 C 0.29956 0.40457 0.81236 0.0
C1979 C 0.24491 0.40363 0.85069 0.0
C1980 C 0.37219 0.38511 0.79723 0.0
C1981 C 0.35575 0.3916 0.80314 0.0
C1982 C 0.31702 0.38015 0.83443 0.0
C1983 C 0.27249 0.40559 0.83309 0.0
C1984 C 0.29069 0.39848 0.82794 0.0
C1985 C 0.34514 0.38158 0.81524 0.0
C1986 C 0.32622 0.38705 0.81942 0.0
H1987 H 0.24322 0.43908 0.82208 0.0
H1988 H 0.27283 0.42882 0.81508 0.0
H1989 H 0.29387 0.3802 0.85062 0.0
H1990 H 0.37398 0.34666 0.82165 0.0
H1991 H 0.3455 0.35746 0.83198 0.0
C1992 C 0.62482 0.71234 0.90464 0.0
C1993 C 0.61459 0.71517 0.92012 0.0
C1994 C 0.62795 0.69509 0.89828 0.0
C1995 C 0.61677 0.64587 0.90746 0.0
H1996 H 0.65451 0.63993 0.87259 0.0
C1997 C 0.64075 0.5755 0.88398 0.0
C1998 C 0.65154 0.57469 0.86868 0.0
C1999 C 0.63384 0.592 0.88964 0.0
C2000 C 0.6435 0.64116 0.88191 0.0
H2001 H 0.59851 0.70225 0.94047 0.0
H2002 H 0.60454 0.67214 0.93024 0.0
H2003 H 0.64819 0.66895 0.88371 0.0
H2004 H 0.66147 0.5894 0.84579 0.0
H2005 H 0.64827 0.61761 0.85449 0.0
H2006 H 0.61263 0.6177 0.90586 0.0
C2007 C 0.61034 0.68297 0.92263 0.0
C2008 C 0.63975 0.65825 0.88849 0.0
C2009 C 0.60697 0.70039 0.92881 0.0
C2010 C 0.65309 0.58979 0.85766 0.0
C2011 C 0.64604 0.60616 0.86311 0.0
C2012 C 0.62055 0.62873 0.90083 0.0
C2013 C 0.62132 0.67987 0.90742 0.0
C2014 C 0.62593 0.66116 0.90108 0.0
C2015 C 0.63748 0.60786 0.87989 0.0
C2016 C 0.63364 0.6261 0.88753 0.0
H2017 H 0.63055 0.72354 0.89738 0.0
H2018 H 0.63556 0.69409 0.88603 0.0
H2019 H 0.60617 0.64684 0.91721 0.0
H2020 H 0.63948 0.56393 0.89269 0.0
H2021 H 0.62709 0.59232 0.90245 0.0
C2022 C 0.6259 0.242 0.55067 0.0
C2023 C 0.61437 0.23918 0.53624 0.0
C2024 C 0.62912 0.2592 0.55707 0.0
C2025 C 0.61543 0.30809 0.55048 0.0
H2026 H 0.65656 0.3146 0.58096 0.0
C2027 C 0.6405 0.37828 0.57362 0.0
C2028 C 0.65166 0.37863 0.58863 0.0
C2029 C 0.63349 0.36192 0.5677 0.0
C2030 C 0.64469 0.31311 0.57286 0.0
H2031 H 0.59618 0.25196 0.51775 0.0
H2032 H 0.60234 0.28208 0.52796 0.0
H2033 H 0.65018 0.28562 0.56958 0.0
H2034 H 0.66225 0.36329 0.61075 0.0
H2035 H 0.64922 0.33524 0.60141 0.0
H2036 H 0.61061 0.33612 0.55346 0.0
C2037 C 0.60907 0.27126 0.53476 0.0
C2038 C 0.64088 0.29611 0.56619 0.0
C2039 C 0.60563 0.25388 0.52856 0.0
C2040 C 0.65357 0.36322 0.59912 0.0
C2041 C 0.64658 0.34701 0.59335 0.0
C2042 C 0.61935 0.32519 0.55712 0.0
C2043 C 0.62124 0.27436 0.54894 0.0
C2044 C 0.62583 0.29303 0.55525 0.0
C2045 C 0.63756 0.34584 0.57685 0.0
C2046 C 0.6337 0.32787 0.56889 0.0
H2047 H 0.63255 0.23082 0.5571 0.0
H2048 H 0.63776 0.26022 0.56857 0.0
H2049 H 0.60381 0.30693 0.54206 0.0
H2050 H 0.63896 0.39012 0.56533 0.0
H2051 H 0.62633 0.36181 0.55513 0.0
C2052 C 0.29064 0.07853 0.57029 0.0
C2053 C 0.29845 0.07108 0.5856 0.0
C2054 C 0.29659 0.09495 0.56363 0.0
C2055 C 0.33085 0.13173 0.57231 0.0
H2056 H 0.2971 0.15831 0.54374 0.0
C2057 C 0.3474 0.20446 0.54991 0.0
C2058 C 0.33727 0.21243 0.53631 0.0
C2059 C 0.3432 0.18728 0.55612 0.0
C2060 C 0.30715 0.15124 0.55127 0.0
H2061 H 0.31908 0.07399 0.60544 0.0
H2062 H 0.32952 0.10248 0.59435 0.0
H2063 H 0.28981 0.12893 0.55304 0.0
H2064 H 0.31528 0.20883 0.51809 0.0
H2065 H 0.30831 0.17896 0.52788 0.0
H2066 H 0.34798 0.15419 0.57103 0.0
C2067 C 0.31897 0.09604 0.58694 0.0
C2068 C 0.30283 0.13387 0.55674 0.0
C2069 C 0.31313 0.07947 0.59339 0.0
C2070 C 0.3233 0.20285 0.52858 0.0
C2071 C 0.3191 0.18566 0.53466 0.0
C2072 C 0.33517 0.14914 0.56686 0.0
C2073 C 0.31026 0.10457 0.57242 0.0
C2074 C 0.31478 0.12351 0.56701 0.0
C2075 C 0.3287 0.17754 0.54885 0.0
C2076 C 0.32363 0.15917 0.55578 0.0
H2077 H 0.27899 0.07235 0.56431 0.0
H2078 H 0.2899 0.10016 0.55193 0.0
H2079 H 0.34069 0.12472 0.58019 0.0
H2080 H 0.35843 0.21159 0.55595 0.0
H2081 H 0.35121 0.18214 0.56696 0.0
C2082 C 0.8143 0.3711 0.3593 0.0
C2083 C 0.80113 0.38043 0.36864 0.0
C2084 C 0.82035 0.3546 0.3657 0.0
C2085 C 0.80682 0.31882 0.3996 0.0
H2086 H 0.84835 0.29558 0.37963 0.0
C2087 C 0.82823 0.25005 0.42771 0.0
C2088 C 0.84077 0.23966 0.41862 0.0
C2089 C 0.8237 0.26705 0.42136 0.0
C2090 C 0.83654 0.30144 0.38545 0.0
H2091 H 0.78486 0.38104 0.39259 0.0
H2092 H 0.79633 0.35338 0.40471 0.0
H2093 H 0.84129 0.32502 0.37042 0.0
H2094 H 0.85887 0.23861 0.39606 0.0
H2095 H 0.85112 0.26781 0.38464 0.0
H2096 H 0.80186 0.2952 0.4144 0.0
C2097 C 0.80153 0.35776 0.39192 0.0
C2098 C 0.83236 0.31885 0.37997 0.0
C2099 C 0.79535 0.37411 0.38535 0.0
C2100 C 0.8491 0.24654 0.40327 0.0
C2101 C 0.84458 0.26354 0.39681 0.0
C2102 C 0.81102 0.30143 0.40512 0.0
C2103 C 0.81337 0.3471 0.3817 0.0
C2104 C 0.81766 0.32814 0.38724 0.0
C2105 C 0.83153 0.27416 0.40557 0.0
C2106 C 0.82628 0.29245 0.39857 0.0
H2107 H 0.81866 0.37571 0.34621 0.0
H2108 H 0.8295 0.34737 0.35717 0.0
H2109 H 0.79474 0.3246 0.40498 0.0
H2110 H 0.82151 0.24481 0.43948 0.0
H2111 H 0.81408 0.27441 0.4292 0.0
C2112 C 0.5306 0.85252 0.75511 0.0
C2113 C 0.53382 0.84015 0.74135 0.0
C2114 C 0.53676 0.84908 0.77253 0.0
C2115 C 0.55799 0.8112 0.79963 0.0
H2116 H 0.56059 0.848 0.8361 0.0
C2117 C 0.59433 0.7957 0.86366 0.0
C2118 C 0.58682 0.80128 0.87992 0.0
C2119 C 0.58836 0.80269 0.84759 0.0
C2120 C 0.55987 0.83752 0.8261 0.0
H2121 H 0.54664 0.81522 0.73441 0.0
H2122 H 0.5581 0.80954 0.7637 0.0
H2123 H 0.54921 0.85548 0.80677 0.0
H2124 H 0.56911 0.82036 0.8926 0.0
H2125 H 0.55893 0.83344 0.8641 0.0
H2126 H 0.56853 0.7933 0.81904 0.0
C2127 C 0.55003 0.8214 0.76214 0.0
C2128 C 0.55325 0.84178 0.80903 0.0
C2129 C 0.54368 0.82474 0.74498 0.0
C2130 C 0.575 0.81583 0.88012 0.0
C2131 C 0.56905 0.8231 0.86377 0.0
C2132 C 0.56471 0.80707 0.81649 0.0
C2133 C 0.54638 0.83322 0.77651 0.0
C2134 C 0.55259 0.82878 0.79524 0.0
C2135 C 0.57481 0.81568 0.8473 0.0
C2136 C 0.56628 0.82026 0.82984 0.0
H2137 H 0.52352 0.86488 0.75237 0.0
H2138 H 0.53361 0.85884 0.78273 0.0
H2139 H 0.55686 0.80019 0.79034 0.0
H2140 H 0.60361 0.78454 0.86325 0.0
H2141 H 0.59386 0.7972 0.83533 0.0
C2142 C 0.41606 0.60071 0.75504 0.0
C2143 C 0.41727 0.61413 0.74195 0.0
C2144 C 0.40922 0.60472 0.77212 0.0
C2145 C 0.3939 0.64528 0.79966 0.0
H2146 H 0.38379 0.60855 0.83481 0.0
C2147 C 0.36428 0.66687 0.86614 0.0
C2148 C 0.36505 0.65608 0.88151 0.0
C2149 C 0.36944 0.66044 0.84963 0.0
C2150 C 0.38661 0.61915 0.82535 0.0
H2151 H 0.41156 0.64174 0.73572 0.0
H2152 H 0.39928 0.64877 0.76423 0.0
H2153 H 0.3947 0.60007 0.80588 0.0
H2154 H 0.37093 0.62956 0.8915 0.0
H2155 H 0.38103 0.61812 0.86244 0.0
H2156 H 0.38717 0.66437 0.81909 0.0
C2157 C 0.40423 0.63532 0.76266 0.0
C2158 C 0.39297 0.61421 0.80832 0.0
C2159 C 0.41119 0.63132 0.74587 0.0
C2160 C 0.3704 0.63819 0.87984 0.0
C2161 C 0.37618 0.63173 0.86304 0.0
C2162 C 0.38785 0.65015 0.81656 0.0
C2163 C 0.40334 0.62227 0.77644 0.0
C2164 C 0.39654 0.62719 0.79493 0.0
C2165 C 0.37633 0.64302 0.84768 0.0
C2166 C 0.38362 0.63726 0.82973 0.0
H2167 H 0.42005 0.58709 0.75196 0.0
H2168 H 0.4088 0.59392 0.78173 0.0
H2169 H 0.39705 0.65624 0.79081 0.0
H2170 H 0.35973 0.68066 0.86677 0.0
H2171 H 0.36775 0.66953 0.83851 0.0
C2172 C 0.52768 0.10459 0.70252 0.0
C2173 C 0.53588 0.11325 0.71704 0.0
C2174 C 0.53305 0.1084 0.68479 0.0
C2175 C 0.56375 0.14064 0.65887 0.0
H2176 H 0.55064 0.11024 0.61905 0.0
C2177 C 0.59641 0.15342 0.59142 0.0
C2178 C 0.58608 0.15132 0.57597 0.0
C2179 C 0.59065 0.14639 0.60769 0.0
C2180 C 0.55444 0.119 0.62994 0.0
H2181 H 0.55642 0.13214 0.72446 0.0
H2182 H 0.56634 0.13802 0.69471 0.0
H2183 H 0.53927 0.10361 0.64849 0.0
H2184 H 0.56296 0.13836 0.56459 0.0
H2185 H 0.55278 0.12571 0.59303 0.0
H2186 H 0.57852 0.15625 0.64022 0.0
C2187 C 0.5552 0.12899 0.69607 0.0
C2188 C 0.54782 0.11517 0.64717 0.0
C2189 C 0.54971 0.12534 0.71355 0.0
C2190 C 0.57115 0.14005 0.57643 0.0
C2191 C 0.56523 0.13302 0.59287 0.0
C2192 C 0.57038 0.14437 0.64178 0.0
C2193 C 0.54684 0.12095 0.68113 0.0
C2194 C 0.55276 0.1256 0.6622 0.0
C2195 C 0.57427 0.13719 0.60897 0.0
C2196 C 0.56632 0.13332 0.62707 0.0
H2197 H 0.51718 0.09488 0.70483 0.0
H2198 H 0.52606 0.10159 0.67416 0.0
H2199 H 0.56727 0.15005 0.66925 0.0
H2200 H 0.60798 0.16215 0.5913 0.0
H2201 H 0.59867 0.14912 0.61942 0.0
C2202 C 0.40249 0.32517 0.71131 0.0
C2203 C 0.41592 0.33783 0.7142 0.0
C2204 C 0.39605 0.32196 0.69421 0.0
C2205 C 0.40065 0.33739 0.64567 0.0
H2206 H 0.37273 0.29436 0.63889 0.0
C2207 C 0.37766 0.3128 0.57553 0.0
C2208 C 0.36356 0.30053 0.57513 0.0
C2209 C 0.38337 0.31972 0.59197 0.0
C2210 C 0.38008 0.30674 0.64048 0.0
H2211 H 0.43263 0.3579 0.70164 0.0
H2212 H 0.42254 0.35162 0.67152 0.0
H2213 H 0.38447 0.30067 0.66766 0.0
H2214 H 0.34265 0.28782 0.59055 0.0
H2215 H 0.35154 0.30076 0.61884 0.0
H2216 H 0.39663 0.3428 0.61792 0.0
C2217 C 0.41648 0.34409 0.68228 0.0
C2218 C 0.38694 0.31053 0.65737 0.0
C2219 C 0.42263 0.34761 0.69964 0.0
C2220 C 0.35355 0.29738 0.59066 0.0
C2221 C 0.3591 0.30434 0.60699 0.0
C2222 C 0.39383 0.33349 0.62869 0.0
C2223 C 0.40326 0.33087 0.67914 0.0
C2224 C 0.39693 0.32627 0.66055 0.0
C2225 C 0.37488 0.31452 0.60809 0.0
C2226 C 0.38295 0.31843 0.62595 0.0
H2227 H 0.39676 0.31767 0.72238 0.0
H2228 H 0.38521 0.31252 0.69322 0.0
H2229 H 0.40833 0.34955 0.64691 0.0
H2230 H 0.38556 0.31528 0.56359 0.0
H2231 H 0.39539 0.32774 0.59203 0.0
C2232 C 0.86525 0.59921 0.80425 0.0
C2233 C 0.87974 0.58746 0.8041 0.0
C2234 C 0.84881 0.5936 0.81097 0.0
C2235 C 0.82538 0.55239 0.83033 0.0
H2236 H 0.78468 0.57813 0.81203 0.0
C2237 C 0.75397 0.52581 0.84514 0.0
C2238 C 0.7392 0.53648 0.84099 0.0
C2239 C 0.77126 0.53183 0.8413 0.0
C2240 C 0.79558 0.57073 0.81785 0.0
H2241 H 0.88955 0.56176 0.81289 0.0
H2242 H 0.86137 0.55167 0.82445 0.0
H2243 H 0.81355 0.58889 0.80567 0.0
H2244 H 0.73086 0.56225 0.83061 0.0
H2245 H 0.76022 0.5731 0.8248 0.0
H2246 H 0.80757 0.53374 0.84176 0.0
C2247 C 0.86189 0.56519 0.81937 0.0
C2248 C 0.81268 0.57717 0.81412 0.0
C2249 C 0.87842 0.57104 0.81298 0.0
C2250 C 0.74203 0.55355 0.83371 0.0
C2251 C 0.75921 0.55968 0.83006 0.0
C2252 C 0.80828 0.54588 0.83397 0.0
C2253 C 0.84643 0.5759 0.81733 0.0
C2254 C 0.82801 0.5685 0.8208 0.0
C2255 C 0.77432 0.5488 0.83327 0.0
C2256 C 0.79288 0.55518 0.82834 0.0
H2257 H 0.86608 0.61198 0.79735 0.0
H2258 H 0.83792 0.60303 0.81017 0.0
H2259 H 0.83637 0.54477 0.83569 0.0
H2260 H 0.75217 0.51273 0.8512 0.0
H2261 H 0.78194 0.5227 0.84444 0.0
C2262 C 0.20673 0.90958 0.82531 0.0
C2263 C 0.21004 0.92063 0.84003 0.0
C2264 C 0.18968 0.90302 0.82207 0.0
C2265 C 0.14255 0.90165 0.84159 0.0
H2266 H 0.13324 0.88367 0.7939 0.0
C2267 C 0.07197 0.87952 0.81639 0.0
C2268 C 0.07195 0.86707 0.80235 0.0
C2269 C 0.08829 0.88552 0.82338 0.0
C2270 C 0.13559 0.88826 0.80746 0.0
H2271 H 0.19852 0.93275 0.8637 0.0
H2272 H 0.16843 0.92233 0.85774 0.0
H2273 H 0.16195 0.89539 0.80061 0.0
H2274 H 0.08813 0.84913 0.78639 0.0
H2275 H 0.11616 0.85885 0.79876 0.0
H2276 H 0.11543 0.89502 0.84782 0.0
C2277 C 0.17879 0.91839 0.84847 0.0
C2278 C 0.15242 0.89502 0.81148 0.0
C2279 C 0.19607 0.92475 0.85184 0.0
C2280 C 0.08793 0.85882 0.79723 0.0
C2281 C 0.10405 0.86483 0.80397 0.0
C2282 C 0.12556 0.89501 0.83745 0.0
C2283 C 0.17514 0.90765 0.83325 0.0
C2284 C 0.15652 0.90137 0.82882 0.0
C2285 C 0.10457 0.87909 0.81626 0.0
C2286 C 0.12205 0.88763 0.82052 0.0
H2287 H 0.21745 0.90589 0.81625 0.0
H2288 H 0.18829 0.89408 0.8108 0.0
H2289 H 0.1446 0.90642 0.85509 0.0
H2290 H 0.05969 0.88601 0.82051 0.0
H2291 H 0.0881 0.89623 0.83315 0.0
C2292 C 0.87012 0.37923 0.66652 0.0
C2293 C 0.88057 0.36851 0.65527 0.0
C2294 C 0.85396 0.3861 0.66058 0.0
C2295 C 0.82283 0.38662 0.62006 0.0
H2296 H 0.79022 0.40073 0.65753 0.0
C2297 C 0.75087 0.41012 0.60196 0.0
C2298 C 0.74059 0.41846 0.61524 0.0
C2299 C 0.76788 0.40352 0.60606 0.0
C2300 C 0.79891 0.39747 0.64649 0.0
H2301 H 0.88338 0.35754 0.6287 0.0
H2302 H 0.85509 0.36903 0.61808 0.0
H2303 H 0.81897 0.39162 0.66528 0.0
H2304 H 0.73939 0.42654 0.6429 0.0
H2305 H 0.76875 0.41658 0.65003 0.0
H2306 H 0.80226 0.39167 0.60131 0.0
C2307 C 0.85895 0.37245 0.63157 0.0
C2308 C 0.81606 0.39209 0.65112 0.0
C2309 C 0.8754 0.36584 0.63753 0.0
C2310 C 0.74736 0.42034 0.63245 0.0
C2311 C 0.76433 0.41407 0.63654 0.0
C2312 C 0.80552 0.39197 0.61538 0.0
C2313 C 0.84744 0.38198 0.64329 0.0
C2314 C 0.82868 0.38706 0.63802 0.0
C2315 C 0.775 0.40519 0.62359 0.0
C2316 C 0.79328 0.39808 0.62846 0.0
H2317 H 0.87399 0.38148 0.68034 0.0
H2318 H 0.84661 0.39427 0.66996 0.0
H2319 H 0.83157 0.38267 0.60925 0.0
H2320 H 0.7456 0.40837 0.58855 0.0
H2321 H 0.77501 0.39686 0.5954 0.0
C2322 C 0.07586 0.06779 0.66059 0.0
C2323 C 0.06885 0.08347 0.65309 0.0
C2324 C 0.09226 0.06117 0.65475 0.0
C2325 C 0.12985 0.07099 0.62158 0.0
H2326 H 0.15492 0.04016 0.65457 0.0
C2327 C 0.20179 0.04759 0.60495 0.0
C2328 C 0.20905 0.03329 0.61462 0.0
C2329 C 0.18485 0.05412 0.60926 0.0
C2330 C 0.14827 0.04835 0.64471 0.0
H2331 H 0.07253 0.10408 0.6332 0.0
H2332 H 0.10096 0.09312 0.62301 0.0
H2333 H 0.12569 0.04954 0.6617 0.0
H2334 H 0.20481 0.01425 0.63591 0.0
H2335 H 0.17521 0.02442 0.6429 0.0
H2336 H 0.15257 0.07027 0.60482 0.0
C2337 C 0.09422 0.08534 0.63316 0.0
C2338 C 0.13098 0.05387 0.64894 0.0
C2339 C 0.07766 0.09173 0.63885 0.0
C2340 C 0.19918 0.02519 0.62819 0.0
C2341 C 0.18222 0.03152 0.63244 0.0
C2342 C 0.14717 0.06549 0.61736 0.0
C2343 C 0.10229 0.07039 0.64157 0.0
C2344 C 0.12117 0.06494 0.63724 0.0
C2345 C 0.17474 0.04641 0.62337 0.0
C2346 C 0.15661 0.05357 0.62854 0.0
H2347 H 0.06934 0.06146 0.67194 0.0
H2348 H 0.09711 0.04915 0.66117 0.0
H2349 H 0.1233 0.07953 0.61195 0.0
H2350 H 0.20943 0.05405 0.59441 0.0
H2351 H 0.18026 0.06557 0.60174 0.0
C2352 C 0.80599 0.86915 0.59924 0.0
C2353 C 0.80177 0.88247 0.58686 0.0
C2354 C 0.8126 0.85273 0.59339 0.0
C2355 C 0.82033 0.82669 0.54968 0.0
H2356 H 0.82334 0.78811 0.58389 0.0
C2357 C 0.83889 0.75573 0.5244 0.0
C2358 C 0.83969 0.74143 0.53645 0.0
C2359 C 0.83491 0.77299 0.53048 0.0
C2360 C 0.82299 0.79841 0.57378 0.0
H2361 H 0.8034 0.89059 0.55915 0.0
H2362 H 0.8158 0.8629 0.54879 0.0
H2363 H 0.81682 0.81682 0.59412 0.0
H2364 H 0.83867 0.73408 0.56455 0.0
H2365 H 0.83228 0.76334 0.57524 0.0
H2366 H 0.82547 0.80805 0.52922 0.0
C2367 C 0.81325 0.86391 0.56296 0.0
C2368 C 0.81914 0.81562 0.57993 0.0
C2369 C 0.80663 0.88033 0.56892 0.0
C2370 C 0.83761 0.74482 0.55481 0.0
C2371 C 0.83374 0.762 0.56095 0.0
C2372 C 0.82415 0.80946 0.54352 0.0
C2373 C 0.815 0.8492 0.57488 0.0
C2374 C 0.81842 0.8304 0.56813 0.0
C2375 C 0.83165 0.7765 0.5489 0.0
C2376 C 0.82627 0.79494 0.55545 0.0
H2377 H 0.80229 0.87067 0.61323 0.0
H2378 H 0.81469 0.84281 0.60366 0.0
H2379 H 0.81905 0.83685 0.5395 0.0
H2380 H 0.84081 0.75352 0.51016 0.0
H2381 H 0.8343 0.78322 0.52032 0.0
C2382 C 0.79899 0.08828 0.85764 0.0
C2383 C 0.80091 0.07303 0.86836 0.0
C2384 C 0.80602 0.10461 0.86316 0.0
C2385 C 0.83246 0.12664 0.90027 0.0
H2386 H 0.804 0.167 0.88506 0.0
C2387 C 0.84737 0.19771 0.92863 0.0
C2388 C 0.83954 0.21266 0.92048 0.0
C2389 C 0.84348 0.18041 0.92246 0.0
C2390 C 0.81264 0.15625 0.88931 0.0
H2391 H 0.81357 0.06195 0.89184 0.0
H2392 H 0.82598 0.09027 0.90173 0.0
H2393 H 0.79743 0.13811 0.87367 0.0
H2394 H 0.82242 0.22142 0.89882 0.0
H2395 H 0.81649 0.19218 0.8875 0.0
H2396 H 0.84736 0.14449 0.91632 0.0
C2397 C 0.81894 0.09009 0.8891 0.0
C2398 C 0.80874 0.13927 0.88257 0.0
C2399 C 0.81203 0.07365 0.88337 0.0
C2400 C 0.82845 0.2101 0.90562 0.0
C2401 C 0.82477 0.19296 0.89928 0.0
C2402 C 0.83639 0.14366 0.90704 0.0
C2403 C 0.81496 0.10608 0.87971 0.0
C2404 C 0.81891 0.12418 0.88751 0.0
C2405 C 0.83177 0.17759 0.90781 0.0
C2406 C 0.82691 0.159 0.90136 0.0
H2407 H 0.79035 0.08802 0.846 0.0
H2408 H 0.80348 0.1162 0.85483 0.0
H2409 H 0.84065 0.11558 0.90471 0.0
H2410 H 0.85638 0.19936 0.93985 0.0
H2411 H 0.84951 0.16945 0.92967 0.0
C2412 C 0.11802 0.25267 0.9321 0.0
C2413 C 0.11026 0.24009 0.92074 0.0
C2414 C 0.12207 0.2698 0.92576 0.0
C2415 C 0.11741 0.29947 0.8841 0.0
H2416 H 0.14838 0.32941 0.91251 0.0
C2417 C 0.13887 0.36954 0.8587 0.0
C2418 C 0.14782 0.38089 0.87047 0.0
C2419 C 0.1327 0.35293 0.86468 0.0
C2420 C 0.13922 0.32166 0.90448 0.0
H2421 H 0.09941 0.23551 0.89428 0.0
H2422 H 0.10657 0.26465 0.88296 0.0
H2423 H 0.14182 0.30007 0.92258 0.0
H2424 H 0.15533 0.3854 0.89805 0.0
H2425 H 0.14311 0.35758 0.90904 0.0
H2426 H 0.1151 0.32098 0.86584 0.0
C2427 C 0.10985 0.26207 0.89678 0.0
C2428 C 0.13537 0.30433 0.91039 0.0
C2429 C 0.10573 0.24503 0.90322 0.0
C2430 C 0.14822 0.37679 0.88877 0.0
C2431 C 0.14185 0.36035 0.89488 0.0
C2432 C 0.1212 0.31682 0.87825 0.0
C2433 C 0.11858 0.27478 0.90776 0.0
C2434 C 0.12386 0.29299 0.90065 0.0
C2435 C 0.13516 0.34751 0.88271 0.0
C2436 C 0.13169 0.32853 0.88859 0.0
H2437 H 0.12155 0.24906 0.94572 0.0
H2438 H 0.12796 0.2789 0.93528 0.0
H2439 H 0.10876 0.29168 0.87562 0.0
H2440 H 0.13862 0.37248 0.84446 0.0
H2441 H 0.12748 0.34402 0.8546 0.0
C2442 C 0.62399 0.20217 0.02495 0.0
C2443 C 0.61137 0.21248 0.03402 0.0
C2444 C 0.62853 0.18513 0.03121 0.0
C2445 C 0.6156 0.15042 0.0668 0.0
H2446 H 0.65763 0.12753 0.04741 0.0
C2447 C 0.63801 0.08074 0.09282 0.0
C2448 C 0.65119 0.07139 0.08349 0.0
C2449 C 0.63201 0.09729 0.08649 0.0
C2450 C 0.6455 0.13325 0.05276 0.0
H2451 H 0.5932 0.21335 0.05654 0.0
H2452 H 0.60096 0.18407 0.0678 0.0
H2453 H 0.65041 0.15696 0.03809 0.0
H2454 H 0.66759 0.07089 0.05963 0.0
H2455 H 0.65622 0.09869 0.04762 0.0
H2456 H 0.61089 0.12674 0.0817 0.0
C2457 C 0.60755 0.18844 0.05569 0.0
C2458 C 0.64124 0.15065 0.04729 0.0
C2459 C 0.60302 0.20549 0.04932 0.0
C2460 C 0.65708 0.07781 0.06687 0.0
C2461 C 0.65095 0.09423 0.06035 0.0
C2462 C 0.61985 0.133 0.07224 0.0
C2463 C 0.62064 0.17789 0.04691 0.0
C2464 C 0.6259 0.15954 0.05381 0.0
C2465 C 0.63903 0.10485 0.07054 0.0
C2466 C 0.63465 0.12382 0.06503 0.0
H2467 H 0.63075 0.20749 0.01323 0.0
H2468 H 0.63821 0.17784 0.02337 0.0
H2469 H 0.60372 0.1562 0.07257 0.0
H2470 H 0.63355 0.07607 0.10586 0.0
H2471 H 0.62285 0.10449 0.09502 0.0
C2472 C 0.35302 0.15295 0.08896 0.0
C2473 C 0.36349 0.15114 0.07354 0.0
C2474 C 0.35883 0.14599 0.10519 0.0
C2475 C 0.39537 0.11919 0.12709 0.0
H2476 H 0.38207 0.14982 0.16666 0.0
C2477 C 0.42339 0.10566 0.19871 0.0
C2478 C 0.41545 0.11435 0.21334 0.0
C2479 C 0.41737 0.10906 0.18124 0.0
C2480 C 0.3857 0.14054 0.15618 0.0
H2481 H 0.38694 0.13876 0.06208 0.0
H2482 H 0.39725 0.12624 0.09043 0.0
H2483 H 0.37074 0.15604 0.13769 0.0
H2484 H 0.39431 0.13233 0.22148 0.0
H2485 H 0.38314 0.13736 0.19201 0.0
H2486 H 0.41068 0.10389 0.14539 0.0
C2487 C 0.38462 0.13324 0.0903 0.0
C2488 C 0.37905 0.14427 0.13916 0.0
C2489 C 0.37865 0.14019 0.07392 0.0
C2490 C 0.40095 0.12573 0.21037 0.0
C2491 C 0.39473 0.12888 0.19311 0.0
C2492 C 0.402 0.11537 0.14421 0.0
C2493 C 0.37539 0.13715 0.10639 0.0
C2494 C 0.38332 0.13336 0.12439 0.0
C2495 C 0.4031 0.1211 0.17801 0.0
C2496 C 0.39691 0.12565 0.15928 0.0
H2497 H 0.34129 0.16147 0.08888 0.0
H2498 H 0.35072 0.14849 0.11695 0.0
H2499 H 0.39928 0.11053 0.11614 0.0
H2500 H 0.43427 0.09632 0.20073 0.0
H2501 H 0.42435 0.1024 0.17047 0.0
C2502 C 0.5403 0.35259 0.2023 0.0
C2503 C 0.53299 0.33898 0.21301 0.0
C2504 C 0.54694 0.34863 0.18513 0.0
C2505 C 0.55515 0.30803 0.15458 0.0
H2506 H 0.56756 0.34515 0.12067 0.0
C2507 C 0.57362 0.28682 0.0836 0.0
C2508 C 0.58374 0.29811 0.07258 0.0
C2509 C 0.56655 0.29306 0.09963 0.0
C2510 C 0.56424 0.3344 0.12979 0.0
H2511 H 0.52692 0.31087 0.21476 0.0
H2512 H 0.53684 0.30391 0.18524 0.0
H2513 H 0.55835 0.35333 0.1502 0.0
H2514 H 0.59316 0.32513 0.06856 0.0
H2515 H 0.58135 0.33627 0.09682 0.0
H2516 H 0.56195 0.28912 0.13486 0.0
C2517 C 0.53852 0.31761 0.18938 0.0
C2518 C 0.55879 0.3392 0.14718 0.0
C2519 C 0.53225 0.32158 0.20649 0.0
C2520 C 0.58547 0.3162 0.07705 0.0
C2521 C 0.57868 0.32247 0.09345 0.0
C2522 C 0.56063 0.30329 0.1374 0.0
C2523 C 0.54636 0.3309 0.17827 0.0
C2524 C 0.55354 0.3261 0.15986 0.0
C2525 C 0.56988 0.31073 0.10555 0.0
C2526 C 0.56474 0.3163 0.12434 0.0
H2527 H 0.54125 0.36617 0.20736 0.0
H2528 H 0.55275 0.35954 0.17764 0.0
H2529 H 0.55265 0.29701 0.16357 0.0
H2530 H 0.57188 0.2728 0.08023 0.0
H2531 H 0.55881 0.2836 0.10735 0.0
C2532 C 0.40231 0.85213 0.24742 0.0
C2533 C 0.41664 0.84265 0.23997 0.0
C2534 C 0.39565 0.84755 0.26436 0.0
C2535 C 0.40122 0.81186 0.30097 0.0
H2536 H 0.37041 0.84461 0.32646 0.0
C2537 C 0.38184 0.79553 0.37364 0.0
C2538 C 0.36605 0.8027 0.38068 0.0
C2539 C 0.38854 0.80167 0.35731 0.0
C2540 C 0.37884 0.835 0.31975 0.0
H2541 H 0.43535 0.82112 0.24399 0.0
H2542 H 0.42483 0.81354 0.2735 0.0
H2543 H 0.37958 0.85182 0.29696 0.0
H2544 H 0.34545 0.82251 0.37721 0.0
H2545 H 0.35664 0.83328 0.34885 0.0
H2546 H 0.39999 0.79481 0.32361 0.0
C2547 C 0.41793 0.82421 0.26665 0.0
C2548 C 0.3843 0.83925 0.30231 0.0
C2549 C 0.42446 0.8288 0.24971 0.0
C2550 C 0.35783 0.81704 0.37204 0.0
C2551 C 0.36435 0.82307 0.35553 0.0
C2552 C 0.39573 0.8076 0.31836 0.0
C2553 C 0.40319 0.83329 0.27436 0.0
C2554 C 0.39607 0.82806 0.29265 0.0
C2555 C 0.37933 0.81485 0.34734 0.0
C2556 C 0.3848 0.81929 0.32837 0.0
H2557 H 0.396 0.86286 0.23996 0.0
H2558 H 0.38429 0.85506 0.26909 0.0
H2559 H 0.40933 0.80203 0.2942 0.0
H2560 H 0.38819 0.78415 0.38006 0.0
H2561 H 0.4006 0.79544 0.3524 0.0
C2562 C 0.59593 0.65747 0.36271 0.0
C2563 C 0.58654 0.65393 0.37854 0.0
C2564 C 0.59005 0.6506 0.34649 0.0
C2565 C 0.55661 0.62003 0.32504 0.0
H2566 H 0.56334 0.65397 0.28643 0.0
C2567 C 0.52786 0.60514 0.25403 0.0
C2568 C 0.53414 0.61514 0.23942 0.0
C2569 C 0.53386 0.60896 0.27142 0.0
C2570 C 0.56161 0.64384 0.29662 0.0
H2571 H 0.5652 0.63855 0.39058 0.0
H2572 H 0.55497 0.6259 0.36215 0.0
H2573 H 0.57489 0.66066 0.31527 0.0
H2574 H 0.552 0.63629 0.23112 0.0
H2575 H 0.56308 0.64247 0.26053 0.0
H2576 H 0.54314 0.60325 0.30659 0.0
C2577 C 0.56668 0.63437 0.36204 0.0
C2578 C 0.56835 0.64784 0.31354 0.0
C2579 C 0.57264 0.64138 0.37843 0.0
C2580 C 0.54678 0.62857 0.24229 0.0
C2581 C 0.55292 0.63229 0.25949 0.0
C2582 C 0.54993 0.61592 0.308 0.0
C2583 C 0.5746 0.63992 0.34572 0.0
C2584 C 0.56643 0.63579 0.32793 0.0
C2585 C 0.54637 0.62285 0.27459 0.0
C2586 C 0.55266 0.62754 0.29325 0.0
H2587 H 0.6067 0.66718 0.36257 0.0
H2588 H 0.59718 0.6545 0.33447 0.0
H2589 H 0.5546 0.61043 0.33574 0.0
H2590 H 0.51842 0.59433 0.25201 0.0
H2591 H 0.52828 0.60108 0.28219 0.0
C2592 C 0.19801 0.41417 0.09935 0.0
C2593 C 0.20958 0.41898 0.11327 0.0
C2594 C 0.18097 0.4074 0.10328 0.0
C2595 C 0.15149 0.39677 0.14404 0.0
H2596 H 0.11784 0.38364 0.10725 0.0
C2597 C 0.08307 0.37279 0.16659 0.0
C2598 C 0.06953 0.36802 0.15468 0.0
C2599 C 0.09948 0.37837 0.16056 0.0
C2600 C 0.12685 0.38722 0.11792 0.0
H2601 H 0.2133 0.4199 0.14182 0.0
H2602 H 0.1848 0.40871 0.14902 0.0
H2603 H 0.14684 0.3939 0.09879 0.0
H2604 H 0.0626 0.36533 0.12669 0.0
H2605 H 0.09161 0.37534 0.11561 0.0
H2606 H 0.1325 0.39069 0.16313 0.0
C2607 C 0.18746 0.41002 0.13493 0.0
C2608 C 0.14398 0.39325 0.11295 0.0
C2609 C 0.20427 0.4167 0.13094 0.0
C2610 C 0.07289 0.36893 0.1362 0.0
C2611 C 0.0897 0.37475 0.12994 0.0
C2612 C 0.13468 0.39092 0.14891 0.0
C2613 C 0.17518 0.40523 0.12127 0.0
C2614 C 0.15675 0.39827 0.12599 0.0
C2615 C 0.10347 0.37963 0.1421 0.0
C2616 C 0.12176 0.38595 0.13613 0.0
H2617 H 0.20227 0.41534 0.0855 0.0
H2618 H 0.17265 0.40389 0.09204 0.0
H2619 H 0.15993 0.40017 0.15513 0.0
H2620 H 0.08116 0.37219 0.181 0.0
H2621 H 0.10866 0.38148 0.17112 0.0
C2622 C 0.74482 0.04016 0.13029 0.0
C2623 C 0.74097 0.03273 0.11362 0.0
C2624 C 0.76155 0.04721 0.13378 0.0
C2625 C 0.80698 0.05667 0.11243 0.0
H2626 H 0.81811 0.06301 0.16257 0.0
C2627 C 0.87811 0.07782 0.13729 0.0
C2628 C 0.87894 0.08555 0.15434 0.0
C2629 C 0.86154 0.07198 0.13062 0.0
C2630 C 0.81531 0.06201 0.14839 0.0
H2631 H 0.75111 0.02745 0.08696 0.0
H2632 H 0.78103 0.03848 0.09324 0.0
H2633 H 0.78989 0.05207 0.15464 0.0
H2634 H 0.86332 0.09457 0.17722 0.0
H2635 H 0.83524 0.08618 0.16537 0.0
H2636 H 0.83333 0.06613 0.10665 0.0
C2637 C 0.77123 0.03925 0.10384 0.0
C2638 C 0.79862 0.05557 0.14366 0.0
C2639 C 0.75413 0.03251 0.10023 0.0
C2640 C 0.86314 0.08847 0.16402 0.0
C2641 C 0.84688 0.08317 0.15733 0.0
C2642 C 0.82388 0.06318 0.11724 0.0
C2643 C 0.77539 0.0465 0.12088 0.0
C2644 C 0.79382 0.05308 0.12557 0.0
C2645 C 0.84574 0.07404 0.14091 0.0
C2646 C 0.82816 0.06636 0.13531 0.0
H2647 H 0.73466 0.04089 0.14065 0.0
H2648 H 0.76315 0.05354 0.14667 0.0
H2649 H 0.80434 0.05495 0.09831 0.0
H2650 H 0.89018 0.07532 0.12969 0.0
H2651 H 0.86135 0.06515 0.11784 0.0
C2652 C 0.07447 0.56754 0.29831 0.0
C2653 C 0.0692 0.58519 0.30182 0.0
C2654 C 0.09087 0.56122 0.3045 0.0
C2655 C 0.13196 0.57603 0.33085 0.0
H2656 H 0.1523 0.53618 0.30496 0.0
C2657 C 0.20397 0.55259 0.34725 0.0
C2658 C 0.21001 0.53602 0.34086 0.0
C2659 C 0.18699 0.55887 0.34274 0.0
C2660 C 0.14704 0.54708 0.31285 0.0
H2661 H 0.07581 0.60962 0.31564 0.0
H2662 H 0.10413 0.59915 0.3264 0.0
H2663 H 0.12297 0.54566 0.29808 0.0
H2664 H 0.20322 0.51279 0.32514 0.0
H2665 H 0.17366 0.5229 0.31779 0.0
H2666 H 0.15608 0.57793 0.34522 0.0
C2667 C 0.09611 0.58968 0.31906 0.0
C2668 C 0.12969 0.55264 0.30879 0.0
C2669 C 0.07958 0.59583 0.31307 0.0
C2670 C 0.19871 0.52557 0.33034 0.0
C2671 C 0.18171 0.53177 0.32581 0.0
C2672 C 0.14933 0.57053 0.33485 0.0
C2673 C 0.10259 0.57256 0.31407 0.0
C2674 C 0.12153 0.56694 0.31806 0.0
C2675 C 0.17547 0.54873 0.33163 0.0
C2676 C 0.15717 0.55557 0.32635 0.0
H2677 H 0.06672 0.55921 0.2893 0.0
H2678 H 0.09446 0.54765 0.30099 0.0
H2679 H 0.12678 0.58714 0.33851 0.0
H2680 H 0.21253 0.56086 0.35551 0.0
H2681 H 0.18345 0.57195 0.34773 0.0
C2682 C 0.75238 0.93162 0.33311 0.0
C2683 C 0.73942 0.91976 0.33954 0.0
C2684 C 0.76962 0.92555 0.3292 0.0
C2685 C 0.79866 0.88312 0.33095 0.0
H2686 H 0.83047 0.91431 0.30474 0.0
C2687 C 0.86879 0.8586 0.30884 0.0
C2688 C 0.88069 0.87105 0.30157 0.0
C2689 C 0.85217 0.86423 0.31523 0.0
C2690 C 0.82219 0.90541 0.31259 0.0
H2691 H 0.73451 0.8924 0.34792 0.0
H2692 H 0.76366 0.88164 0.34086 0.0
H2693 H 0.8013 0.92432 0.31143 0.0
H2694 H 0.88602 0.89918 0.29741 0.0
H2695 H 0.85822 0.90934 0.31021 0.0
H2696 H 0.81959 0.86412 0.33186 0.0
C2697 C 0.76129 0.8957 0.33861 0.0
C2698 C 0.8049 0.91128 0.31648 0.0
C2699 C 0.74417 0.90186 0.34267 0.0
C2700 C 0.877 0.88934 0.30315 0.0
C2701 C 0.86058 0.89507 0.30985 0.0
C2702 C 0.816 0.87731 0.32716 0.0
C2703 C 0.77442 0.90729 0.33137 0.0
C2704 C 0.7928 0.9005 0.32623 0.0
C2705 C 0.84726 0.88255 0.31476 0.0
C2706 C 0.82836 0.88851 0.31836 0.0
H2707 H 0.74912 0.94556 0.33074 0.0
H2708 H 0.77894 0.9355 0.3245 0.0
H2709 H 0.79033 0.8738 0.33815 0.0
H2710 H 0.87139 0.84437 0.30755 0.0
H2711 H 0.8429 0.85385 0.31905 0.0
C2712 C 0.10722 0.19749 0.42883 0.0
C2713 C 0.1112 0.21231 0.4181 0.0
C2714 C 0.11086 0.18017 0.42268 0.0
C2715 C 0.13295 0.15606 0.38285 0.0
H2716 H 0.11838 0.11503 0.41076 0.0
C2717 C 0.14729 0.08615 0.35494 0.0
C2718 C 0.14832 0.0718 0.3669 0.0
C2719 C 0.14037 0.10252 0.36057 0.0
C2720 C 0.12279 0.12606 0.40253 0.0
H2721 H 0.12029 0.22072 0.39176 0.0
H2722 H 0.12558 0.19139 0.38071 0.0
H2723 H 0.11228 0.1438 0.42171 0.0
H2724 H 0.14083 0.06202 0.39307 0.0
H2725 H 0.12891 0.09005 0.4032 0.0
H2726 H 0.14445 0.13816 0.36421 0.0
C2727 C 0.12096 0.19233 0.39437 0.0
C2728 C 0.11908 0.14319 0.40899 0.0
C2729 C 0.11764 0.20953 0.40067 0.0
C2730 C 0.14009 0.07307 0.38365 0.0
C2731 C 0.13349 0.08954 0.38951 0.0
C2732 C 0.1368 0.13892 0.37646 0.0
C2733 C 0.11837 0.17718 0.40544 0.0
C2734 C 0.12346 0.15866 0.39903 0.0
C2735 C 0.13473 0.10498 0.37852 0.0
C2736 C 0.13121 0.12347 0.38582 0.0
H2737 H 0.10174 0.19925 0.44217 0.0
H2738 H 0.10799 0.16945 0.43192 0.0
H2739 H 0.13788 0.16703 0.37485 0.0
H2740 H 0.15363 0.08533 0.34188 0.0
H2741 H 0.14048 0.11331 0.35093 0.0
C2742 C 0.15593 0.87546 0.0679 0.0
C2743 C 0.14896 0.8825 0.08383 0.0
C2744 C 0.14974 0.85917 0.06124 0.0
C2745 C 0.11653 0.82166 0.07122 0.0
H2746 H 0.14928 0.79614 0.04045 0.0
C2747 C 0.0995 0.74931 0.04785 0.0
C2748 C 0.10886 0.74195 0.03334 0.0
C2749 C 0.10407 0.76623 0.05451 0.0
C2750 C 0.1395 0.8029 0.04864 0.0
H2751 H 0.12935 0.87903 0.10473 0.0
H2752 H 0.11844 0.85073 0.09356 0.0
H2753 H 0.15649 0.8255 0.04976 0.0
H2754 H 0.13024 0.74605 0.01442 0.0
H2755 H 0.13781 0.77547 0.02499 0.0
H2756 H 0.09977 0.79887 0.07058 0.0
C2757 C 0.12859 0.8574 0.08574 0.0
C2758 C 0.14376 0.82027 0.05411 0.0
C2759 C 0.13469 0.87388 0.09223 0.0
C2760 C 0.12264 0.75171 0.02543 0.0
C2761 C 0.12722 0.76861 0.03198 0.0
C2762 C 0.11227 0.80423 0.06578 0.0
C2763 C 0.13665 0.84922 0.07062 0.0
C2764 C 0.13216 0.83027 0.06516 0.0
C2765 C 0.11821 0.77628 0.04684 0.0
C2766 C 0.1234 0.79457 0.05392 0.0
H2767 H 0.16723 0.88185 0.06139 0.0
H2768 H 0.15585 0.85428 0.04906 0.0
H2769 H 0.107 0.82837 0.07975 0.0
H2770 H 0.08884 0.74182 0.05423 0.0
H2771 H 0.09663 0.77094 0.06598 0.0
C2772 C 0.85088 0.70086 0.03171 0.0
C2773 C 0.83796 0.71427 0.03369 0.0
C2774 C 0.84753 0.68352 0.03814 0.0
C2775 C 0.809 0.65586 0.05682 0.0
H2776 H 0.84627 0.62056 0.06359 0.0
C2777 C 0.79231 0.59265 0.09375 0.0
C2778 C 0.79865 0.57632 0.08707 0.0
C2779 C 0.79937 0.60864 0.08778 0.0
C2780 C 0.83569 0.63024 0.06167 0.0
H2781 H 0.81215 0.72085 0.04471 0.0
H2782 H 0.80657 0.69169 0.05675 0.0
H2783 H 0.85395 0.64998 0.05241 0.0
H2784 H 0.81914 0.56352 0.0711 0.0
H2785 H 0.83239 0.59203 0.06096 0.0
H2786 H 0.79082 0.63609 0.06605 0.0
C2787 C 0.81883 0.69343 0.04934 0.0
C2788 C 0.84005 0.64733 0.05516 0.0
C2789 C 0.82209 0.71048 0.04267 0.0
C2790 C 0.81397 0.57606 0.07625 0.0
C2791 C 0.82135 0.59237 0.07033 0.0
C2792 C 0.80475 0.63901 0.06345 0.0
C2793 C 0.83121 0.67936 0.0468 0.0
C2794 C 0.82682 0.66067 0.05303 0.0
C2795 C 0.81324 0.6088 0.07513 0.0
C2796 C 0.81807 0.62612 0.0665 0.0
H2797 H 0.86358 0.7038 0.02537 0.0
H2798 H 0.8577 0.67353 0.0359 0.0
H2799 H 0.79795 0.66482 0.05446 0.0
H2800 H 0.78062 0.59312 0.10236 0.0
H2801 H 0.79332 0.62092 0.09256 0.0
C2802 C 0.30087 0.86726 0.85722 0.0
C2803 C 0.29906 0.88151 0.8692 0.0
C2804 C 0.30784 0.85096 0.86299 0.0
C2805 C 0.32471 0.82693 0.90492 0.0
H2806 H 0.30951 0.78636 0.87681 0.0
C2807 C 0.33976 0.7544 0.92991 0.0
C2808 C 0.33684 0.73989 0.91837 0.0
C2809 C 0.33582 0.77193 0.92438 0.0
C2810 C 0.3145 0.79721 0.8849 0.0
H2811 H 0.30505 0.89106 0.8958 0.0
H2812 H 0.31705 0.86293 0.9062 0.0
H2813 H 0.30312 0.81545 0.86652 0.0
H2814 H 0.32866 0.73243 0.89158 0.0
H2815 H 0.32282 0.76216 0.88161 0.0
H2816 H 0.33528 0.80867 0.9238 0.0
C2817 C 0.3131 0.86367 0.89232 0.0
C2818 C 0.31075 0.81447 0.87874 0.0
C2819 C 0.30643 0.88013 0.88633 0.0
C2820 C 0.33078 0.74331 0.90096 0.0
C2821 C 0.32707 0.76073 0.89533 0.0
C2822 C 0.32839 0.80961 0.91116 0.0
C2823 C 0.31273 0.84837 0.8811 0.0
C2824 C 0.31631 0.82978 0.88827 0.0
C2825 C 0.32896 0.77552 0.90702 0.0
C2826 C 0.32393 0.79428 0.90102 0.0
H2827 H 0.29517 0.86812 0.84389 0.0
H2828 H 0.30841 0.84028 0.85325 0.0
H2829 H 0.32911 0.83793 0.91318 0.0
H2830 H 0.34483 0.75219 0.94333 0.0
H2831 H 0.33791 0.78239 0.93411 0.0
C2832 C 0.02187 0.53327 0.2656 0.0
C2833 C 0.01021 0.54654 0.25968 0.0
C2834 C 0.0212 0.51623 0.25823 0.0
C2835 C -0.00315 0.48884 0.2227 0.0
H2836 H 0.03812 0.45919 0.23076 0.0
C2837 C -0.00041 0.41767 0.1915 0.0
C2838 C 0.01287 0.40592 0.19733 0.0
C2839 C -0.00071 0.43533 0.19783 0.0
C2840 C 0.02604 0.46664 0.2285 0.0
H2841 H -0.01201 0.55269 0.24239 0.0
H2842 H -0.01309 0.52348 0.2289 0.0
H2843 H 0.03691 0.48729 0.24413 0.0
H2844 H 0.036 0.40313 0.21463 0.0
H2845 H 0.03487 0.43215 0.22636 0.0
H2846 H -0.01359 0.46842 0.20627 0.0
C2847 C -0.00344 0.52544 0.23941 0.0
C2848 C 0.02533 0.48339 0.23653 0.0
C2849 C -0.0031 0.54236 0.24732 0.0
C2850 C 0.0256 0.4119 0.20965 0.0
C2851 C 0.02506 0.42913 0.21629 0.0
C2852 C -0.00242 0.47202 0.21458 0.0
C2853 C 0.00925 0.51222 0.24415 0.0
C2854 C 0.01041 0.49464 0.2344 0.0
C2855 C 0.0121 0.44148 0.21041 0.0
C2856 C 0.0119 0.46024 0.21779 0.0
H2857 H 0.03236 0.53644 0.27509 0.0
H2858 H 0.03059 0.50663 0.26348 0.0
H2859 H -0.01487 0.49675 0.22003 0.0
H2860 H -0.01041 0.4133 0.18199 0.0
H2861 H -0.01103 0.44388 0.19256 0.0
C2862 C 0.95275 0.91814 0.25742 0.0
C2863 C 0.93684 0.90846 0.25721 0.0
C2864 C 0.95315 0.93562 0.25071 0.0
C2865 C 0.92264 0.96964 0.22718 0.0
H2866 H 0.96754 -0.00909 0.22509 0.0
C2867 C 0.92478 0.03319 0.19159 0.0
C2868 C 0.93936 0.04459 0.19397 0.0
C2869 C 0.92519 0.01587 0.19825 0.0
C2870 C 0.9547 -0.01554 0.22558 0.0
H2871 H 0.90854 0.90963 0.2513 0.0
H2872 H 0.90876 0.93923 0.24055 0.0
H2873 H 0.96611 0.96791 0.2404 0.0
H2874 H 0.96596 0.04727 0.20449 0.0
H2875 H 0.96685 0.01762 0.21688 0.0
H2876 H 0.91082 -0.01301 0.21399 0.0
C2877 C 0.92145 0.93408 0.24483 0.0
C2878 C 0.9538 0.97232 0.23444 0.0
C2879 C 0.92117 0.91673 0.25131 0.0
C2880 C 0.95474 0.03838 0.20229 0.0
C2881 C 0.95501 0.02117 0.20955 0.0
C2882 C 0.92338 -0.01792 0.21899 0.0
C2883 C 0.93753 0.94388 0.2438 0.0
C2884 C 0.93797 0.96215 0.2352 0.0
C2885 C 0.93997 0.00971 0.20823 0.0
C2886 C 0.93939 -0.00812 0.21757 0.0
H2887 H 0.96501 0.91198 0.26202 0.0
H2888 H 0.96599 0.94206 0.25071 0.0
H2889 H 0.90989 0.96304 0.22693 0.0
H2890 H 0.91268 0.03797 0.18521 0.0
H2891 H 0.91355 0.00781 0.19569 0.0
C2892 C 0.26342 0.02446 0.53325 0.0
C2893 C 0.25731 0.01308 0.54676 0.0
C2894 C 0.25603 0.02364 0.51623 0.0
C2895 C 0.21994 -0.00048 0.48947 0.0
H2896 H 0.22895 0.0402 0.45892 0.0
C2897 C 0.1885 0.00141 0.41858 0.0
C2898 C 0.19434 0.01444 0.40649 0.0
C2899 C 0.19485 0.00148 0.43621 0.0
C2900 C 0.22632 0.0283 0.46666 0.0
H2901 H 0.23968 -0.00886 0.55333 0.0
H2902 H 0.22611 -0.0101 0.52421 0.0
H2903 H 0.24239 0.03915 0.48694 0.0
H2904 H 0.21151 0.03767 0.40309 0.0
H2905 H 0.22316 0.03728 0.43216 0.0
H2906 H 0.20304 -0.01084 0.4695 0.0
C2907 C 0.23678 -0.00058 0.52596 0.0
C2908 C 0.23444 0.02766 0.48335 0.0
C2909 C 0.24472 -0.00013 0.54285 0.0
C2910 C 0.20658 0.02742 0.41214 0.0
C2911 C 0.21322 0.02727 0.42938 0.0
C2912 C 0.21167 0.00023 0.47276 0.0
C2913 C 0.24173 0.01186 0.51248 0.0
C2914 C 0.23198 0.01295 0.49493 0.0
C2915 C 0.20749 0.01441 0.44201 0.0
C2916 C 0.21511 0.01434 0.46067 0.0
H2917 H 0.27314 0.03481 0.53618 0.0
H2918 H 0.26144 0.03279 0.50644 0.0
H2919 H 0.21704 -0.01206 0.49761 0.0
H2920 H 0.17903 -0.00875 0.41448 0.0
H2921 H 0.1896 -0.00873 0.44498 0.0
C2922 C 0.70511 0.45491 0.54161 0.0
C2923 C 0.69234 0.44217 0.54618 0.0
C2924 C 0.71338 0.45416 0.52492 0.0
C2925 C 0.7154 0.42455 0.48318 0.0
H2926 H 0.74762 0.46227 0.46885 0.0
C2927 C 0.74324 0.42374 0.41196 0.0
C2928 C 0.75599 0.43621 0.4062 0.0
C2929 C 0.73628 0.42445 0.42904 0.0
C2930 C 0.73874 0.45142 0.4722 0.0
H2931 H 0.67701 0.41944 0.53711 0.0
H2932 H 0.68953 0.41904 0.50768 0.0
H2933 H 0.73429 0.46369 0.49704 0.0
H2934 H 0.77139 0.45949 0.41367 0.0
H2935 H 0.76023 0.46046 0.44396 0.0
H2936 H 0.72028 0.41194 0.45866 0.0
C2937 C 0.69449 0.42916 0.51667 0.0
C2938 C 0.7308 0.45223 0.48903 0.0
C2939 C 0.68656 0.42977 0.53347 0.0
C2940 C 0.76168 0.44959 0.41793 0.0
C2941 C 0.75501 0.45007 0.43545 0.0
C2942 C 0.72331 0.42375 0.46635 0.0
C2943 C 0.70869 0.44085 0.51224 0.0
C2944 C 0.71842 0.43917 0.4947 0.0
C2945 C 0.7422 0.43734 0.44145 0.0
C2946 C 0.73474 0.4375 0.46017 0.0
H2947 H 0.71014 0.46416 0.55161 0.0
H2948 H 0.72404 0.46359 0.52283 0.0
H2949 H 0.70708 0.41333 0.4868 0.0
H2950 H 0.7382 0.41339 0.40312 0.0
H2951 H 0.72604 0.41476 0.43189 0.0
C2952 C 0.24473 0.95642 0.91463 0.0
C2953 C 0.25726 0.94346 0.91006 0.0
C2954 C 0.23658 0.9559 0.93138 0.0
C2955 C 0.23454 0.92659 0.97342 0.0
H2956 H 0.202 0.96429 -0.0166 0.0
C2957 C 0.20614 0.92593 0.04056 0.0
C2958 C 0.19343 0.93846 0.0462 0.0
C2959 C 0.21318 0.92659 0.0235 0.0
C2960 C 0.2109 0.95343 -0.01984 0.0
H2961 H 0.27223 0.92048 0.91911 0.0
H2962 H 0.25991 0.92037 0.94859 0.0
H2963 H 0.21557 0.96556 0.95916 0.0
H2964 H 0.17814 0.96177 0.03856 0.0
H2965 H 0.18943 0.96265 0.00833 0.0
H2966 H 0.2294 0.91408 -0.00595 0.0
C2967 C 0.25504 0.93056 0.93961 0.0
C2968 C 0.21912 0.9542 0.96729 0.0
C2969 C 0.26284 0.93094 0.92275 0.0
C2970 C 0.18784 0.95184 0.03439 0.0
C2971 C 0.19458 0.95225 0.0169 0.0
C2972 C 0.22634 0.92582 -0.01375 0.0
C2973 C 0.24111 0.94255 0.94411 0.0
C2974 C 0.23149 0.94109 0.96173 0.0
C2975 C 0.20737 0.93948 0.011 0.0
C2976 C 0.21489 0.93959 -0.00769 0.0
H2977 H 0.23987 0.96579 0.90464 0.0
H2978 H 0.22616 0.96558 0.93353 0.0
H2979 H 0.24288 0.91535 0.96995 0.0
H2980 H 0.21109 0.9156 0.04949 0.0
H2981 H 0.22339 0.91684 0.02073 0.0
C2982 C 0.76583 0.52363 0.03138 0.0
C2983 C 0.75982 0.51131 0.04415 0.0
C2984 C 0.75791 0.52438 0.01459 0.0
C2985 C 0.7213 0.50175 -0.01271 0.0
H2986 H 0.7322 0.54198 0.96059 0.0
C2987 C 0.69095 0.50332 0.92053 0.0
C2988 C 0.69683 0.51619 0.90833 0.0
C2989 C 0.69716 0.50366 0.93816 0.0
C2990 C 0.72902 0.53031 0.96846 0.0
H2991 H 0.74179 0.48952 0.0496 0.0
H2992 H 0.72793 0.49033 0.02097 0.0
H2993 H 0.74531 0.54043 -0.01529 0.0
H2994 H 0.71371 0.53963 0.90478 0.0
H2995 H 0.72494 0.5399 0.93408 0.0
H2996 H 0.70448 0.49195 0.97152 0.0
C2997 C 0.73874 0.4996 0.02295 0.0
C2998 C 0.7368 0.52934 -0.01879 0.0
C2999 C 0.74698 0.4987 0.03958 0.0
C3000 C 0.70884 0.52943 0.91393 0.0
C3001 C 0.71529 0.52962 0.93125 0.0
C3002 C 0.71343 0.50277 0.97464 0.0
C3003 C 0.74356 0.51288 0.01024 0.0
C3004 C 0.73378 0.51472 -0.00721 0.0
C3005 C 0.70968 0.51675 0.94391 0.0
C3006 C 0.71732 0.5167 0.96253 0.0
H3007 H 0.77543 0.53389 0.03502 0.0
H3008 H 0.76293 0.53449 0.00557 0.0
H3009 H 0.71789 0.49021 -0.00474 0.0
H3010 H 0.68159 0.49303 0.91649 0.0
H3011 H 0.69188 0.49346 0.94689 0.0
C3012 C 0.41057 0.2052 -0.00256 0.0
C3013 C 0.40587 0.19247 0.01025 0.0
C3014 C 0.42729 0.21331 -0.00189 0.0
C3015 C 0.469 0.21502 0.02761 0.0
H3016 H 0.48333 0.24741 -0.0101 0.0
C3017 C 0.5401 0.24285 0.0283 0.0
C3018 C 0.54581 0.25573 0.01588 0.0
C3019 C 0.52308 0.23584 0.0276 0.0
C3020 C 0.47999 0.23847 0.00074 0.0
H3021 H 0.41479 0.17713 0.03309 0.0
H3022 H 0.44416 0.18946 0.03345 0.0
H3023 H 0.45516 0.23423 -0.01141 0.0
H3024 H 0.53832 0.2712 -0.00741 0.0
H3025 H 0.50822 0.25989 -0.00842 0.0
H3026 H 0.49352 0.21972 0.0401 0.0
C3027 C 0.43529 0.19445 0.02327 0.0
C3028 C 0.46316 0.23061 -1e-05 0.0
C3029 C 0.41849 0.18664 0.02271 0.0
C3030 C 0.53413 0.2614 0.00247 0.0
C3031 C 0.51669 0.25465 0.00198 0.0
C3032 C 0.48581 0.22286 0.02836 0.0
C3033 C 0.43988 0.20857 0.01146 0.0
C3034 C 0.45747 0.21818 0.01306 0.0
C3035 C 0.51069 0.2418 0.01473 0.0
C3036 C 0.492 0.23436 0.01461 0.0
H3037 H 0.4007 0.21028 -0.01187 0.0
H3038 H 0.4295 0.2239 -0.01144 0.0
H3039 H 0.46541 0.20662 0.03881 0.0
H3040 H 0.54892 0.23779 0.03864 0.0
H3041 H 0.52021 0.22557 0.03732 0.0
C3042 C 0.53105 0.68889 0.43002 0.0
C3043 C 0.54358 0.69468 0.44257 0.0
C3044 C 0.51428 0.69674 0.42932 0.0
C3045 C 0.48634 0.73292 0.45243 0.0
H3046 H 0.45602 0.72183 0.41238 0.0
C3047 C 0.41534 0.76355 0.44983 0.0
C3048 C 0.40371 0.75787 0.43639 0.0
C3049 C 0.43279 0.75686 0.45035 0.0
C3050 C 0.46372 0.72505 0.42411 0.0
H3051 H 0.54867 0.71251 0.46465 0.0
H3052 H 0.51992 0.72618 0.46402 0.0
H3053 H 0.48411 0.70876 0.41376 0.0
H3054 H 0.40074 0.74004 0.41355 0.0
H3055 H 0.42943 0.72795 0.41489 0.0
H3056 H 0.46619 0.74977 0.46242 0.0
C3057 C 0.52216 0.71558 0.4545 0.0
C3058 C 0.48052 0.71722 0.4249 0.0
C3059 C 0.53884 0.70743 0.4553 0.0
C3060 C 0.4095 0.74509 0.42393 0.0
C3061 C 0.42653 0.73815 0.42465 0.0
C3062 C 0.46953 0.74077 0.45164 0.0
C3063 C 0.50963 0.71086 0.4411 0.0
C3064 C 0.49205 0.72045 0.43944 0.0
C3065 C 0.43885 0.74406 0.4376 0.0
C3066 C 0.45753 0.73661 0.43778 0.0
H3067 H 0.5348 0.67938 0.41967 0.0
H3068 H 0.50548 0.69179 0.41906 0.0
H3069 H 0.49434 0.7366 0.46382 0.0
H3070 H 0.41108 0.77327 0.45974 0.0
H3071 H 0.44122 0.76206 0.4608 0.0
C3072 C 0.03767 0.74864 0.50236 0.0
C3073 C 0.04171 0.76117 0.51564 0.0
C3074 C 0.02077 0.74078 0.50187 0.0
C3075 C -0.02182 0.73865 0.53 0.0
H3076 H 0.96902 0.70726 0.49146 0.0
C3077 C 0.91213 0.71096 0.53032 0.0
C3078 C 0.90631 0.69838 0.51771 0.0
C3079 C 0.9292 0.71784 0.52966 0.0
C3080 C 0.97236 0.71593 0.5025 0.0
H3081 H 0.03134 0.7769 0.53756 0.0
H3082 H 0.00165 0.76534 0.53554 0.0
H3083 H -0.00762 0.72102 0.49036 0.0
H3084 H 0.91384 0.68302 0.49434 0.0
H3085 H 0.9442 0.69403 0.49354 0.0
H3086 H 0.95871 0.73333 0.5425 0.0
C3087 C 0.01132 0.7599 0.52632 0.0
C3088 C -0.01578 0.72405 0.50188 0.0
C3089 C 0.02834 0.7672 0.52717 0.0
C3090 C 0.91808 0.69265 0.50433 0.0
C3091 C 0.93563 0.69922 0.50393 0.0
C3092 C 0.96638 0.73066 0.53058 0.0
C3093 C 0.0074 0.74572 0.51437 0.0
C3094 C -0.01024 0.7361 0.51534 0.0
C3095 C 0.94161 0.71198 0.51671 0.0
C3096 C 0.96029 0.71951 0.51657 0.0
H3097 H 0.04802 0.74366 0.49349 0.0
H3098 H 0.0189 0.73022 0.49221 0.0
H3099 H -0.01823 0.74658 0.54152 0.0
H3100 H 0.90333 0.716 0.54072 0.0
H3101 H 0.93203 0.72804 0.53943 0.0
C3102 C 0.93094 0.42162 0.68707 0.0
C3103 C 0.93974 0.40741 0.69532 0.0
C3104 C 0.93167 0.43867 0.69451 0.0
C3105 C 0.94967 0.46369 0.73546 0.0
H3106 H 0.9161 0.4984 0.71753 0.0
C3107 C 0.94856 0.53506 0.76603 0.0
C3108 C 0.93908 0.54843 0.75709 0.0
C3109 C 0.94798 0.51741 0.75973 0.0
C3110 C 0.92612 0.48941 0.72264 0.0
H3111 H 0.95707 0.3995 0.71699 0.0
H3112 H 0.95815 0.42858 0.73045 0.0
H3113 H 0.91731 0.47021 0.70412 0.0
H3114 H 0.92232 0.55436 0.73417 0.0
H3115 H 0.92246 0.52501 0.72247 0.0
H3116 H 0.95806 0.48282 0.7544 0.0
C3117 C 0.95071 0.42745 0.71817 0.0
C3118 C 0.92682 0.47261 0.71466 0.0
C3119 C 0.95041 0.41053 0.7103 0.0
C3120 C 0.92959 0.54418 0.74153 0.0
C3121 C 0.92945 0.52688 0.73494 0.0
C3122 C 0.94904 0.48058 0.7434 0.0
C3123 C 0.94063 0.44177 0.71091 0.0
C3124 C 0.93911 0.45952 0.72039 0.0
C3125 C 0.9383 0.51289 0.74403 0.0
C3126 C 0.93774 0.4941 0.73674 0.0
H3127 H 0.92251 0.41928 0.67551 0.0
H3128 H 0.92455 0.449 0.6874 0.0
H3129 H 0.95907 0.45438 0.74113 0.0
H3130 H 0.9559 0.53812 0.77815 0.0
H3131 H 0.95501 0.50755 0.76757 0.0
C3132 C 0.00418 0.04275 0.71474 0.0
C3133 C 0.00912 0.04524 0.69689 0.0
C3134 C 0.00446 0.02574 0.72224 0.0
C3135 C 0.01684 -0.02262 0.71051 0.0
H3136 H 0.00481 0.97622 0.76065 0.0
C3137 C 0.00814 0.91117 0.73868 0.0
C3138 C 0.0072 0.90817 0.75714 0.0
C3139 C 0.00901 0.92846 0.73198 0.0
C3140 C 0.00838 0.97711 0.74666 0.0
H3141 H 0.01695 0.03244 0.67223 0.0
H3142 H 0.01644 0.00273 0.6844 0.0
H3143 H 0.00616 0.00074 0.7483 0.0
H3144 H 0.00671 0.92039 0.78333 0.0
H3145 H 0.00915 0.95065 0.7721 0.0
H3146 H 0.02148 0.95387 0.70964 0.0
C3147 C 0.01299 0.0134 0.69345 0.0
C3148 C 0.00887 -0.01008 0.73916 0.0
C3149 C 0.01285 0.03055 0.68606 0.0
C3150 C 0.00686 0.92262 0.76896 0.0
C3151 C 0.0084 0.94006 0.76231 0.0
C3152 C 0.01708 0.96467 0.71819 0.0
C3153 C 0.00974 0.01067 0.71202 0.0
C3154 C 0.01183 -0.00748 0.72062 0.0
C3155 C 0.00985 0.94332 0.74363 0.0
C3156 C 0.01192 0.96188 0.73617 0.0
H3157 H 0.00157 0.05417 0.72335 0.0
H3158 H 0.00104 0.02505 0.73624 0.0
H3159 H 0.02043 -0.02192 0.69654 0.0
H3160 H 0.00876 0.90001 0.72938 0.0
H3161 H 0.00913 0.92976 0.71757 0.0
C3162 C 0.70857 0.92668 0.4119 0.0
C3163 C 0.69657 0.93989 0.40624 0.0
C3164 C 0.71505 0.92656 0.4292 0.0
C3165 C 0.71333 0.95337 0.47263 0.0
H3166 H 0.74537 0.91537 0.48635 0.0
C3167 C 0.74704 0.95591 0.54194 0.0
C3168 C 0.75947 0.94282 0.5464 0.0
C3169 C 0.73902 0.95563 0.52515 0.0
C3170 C 0.73692 0.92656 0.483 0.0
H3171 H 0.68138 0.9631 0.41432 0.0
H3172 H 0.6918 0.96279 0.44476 0.0
H3173 H 0.73199 0.9142 0.4584 0.0
H3174 H 0.77456 0.92002 0.53711 0.0
H3175 H 0.7625 0.92038 0.50756 0.0
H3176 H 0.71807 0.96552 0.49747 0.0
C3177 C 0.69699 0.95255 0.43604 0.0
C3178 C 0.72884 0.92584 0.46629 0.0
C3179 C 0.69074 0.95282 0.4184 0.0
C3180 C 0.76518 0.93051 0.53357 0.0
C3181 C 0.75754 0.9304 0.51667 0.0
C3182 C 0.7215 0.95412 0.48933 0.0
C3183 C 0.7095 0.93947 0.44182 0.0
C3184 C 0.71717 0.9395 0.46044 0.0
C3185 C 0.74361 0.94242 0.5123 0.0
C3186 C 0.73394 0.94104 0.49473 0.0
H3187 H 0.71343 0.91645 0.40281 0.0
H3188 H 0.7247 0.91627 0.43201 0.0
H3189 H 0.70437 0.9642 0.46954 0.0
H3190 H 0.74215 0.96517 0.55201 0.0
H3191 H 0.72863 0.96536 0.52309 0.0
C3192 C 0.25924 0.50424 0.41803 0.0
C3193 C 0.25359 0.51761 0.40623 0.0
C3194 C 0.25246 0.50377 0.43553 0.0
C3195 C 0.22083 0.53028 0.46623 0.0
H3196 H 0.23152 0.49047 0.49728 0.0
C3197 C 0.18452 0.52552 0.53366 0.0
C3198 C 0.19014 0.51313 0.54646 0.0
C3199 C 0.19226 0.52573 0.51676 0.0
C3200 C 0.22809 0.50188 0.48915 0.0
H3201 H 0.23561 0.54022 0.4029 0.0
H3202 H 0.2232 0.53878 0.43161 0.0
H3203 H 0.24477 0.49155 0.46896 0.0
H3204 H 0.20751 0.49082 0.55203 0.0
H3205 H 0.2212 0.4908 0.52309 0.0
H3206 H 0.20472 0.54097 0.48659 0.0
C3207 C 0.23358 0.5292 0.42887 0.0
C3208 C 0.236 0.5025 0.47227 0.0
C3209 C 0.24067 0.52994 0.41183 0.0
C3210 C 0.20264 0.5001 0.54197 0.0
C3211 C 0.21077 0.50049 0.52519 0.0
C3212 C 0.21292 0.52965 0.48306 0.0
C3213 C 0.23957 0.51644 0.44141 0.0
C3214 C 0.23211 0.51639 0.46014 0.0
C3215 C 0.20621 0.51373 0.51236 0.0
C3216 C 0.21584 0.51509 0.49473 0.0
H3217 H 0.26906 0.49442 0.41389 0.0
H3218 H 0.25771 0.49346 0.44415 0.0
H3219 H 0.21794 0.54208 0.45846 0.0
H3220 H 0.17512 0.536 0.53721 0.0
H3221 H 0.18734 0.53579 0.50767 0.0
C3222 C 0.76175 0.00115 0.92038 0.0
C3223 C 0.75584 0.01406 0.90823 0.0
C3224 C 0.7555 0.00139 0.93807 0.0
C3225 C 0.72396 0.02833 0.96849 0.0
H3226 H 0.73313 -0.01193 -0.00445 0.0
C3227 C 0.68661 0.02441 0.03135 0.0
C3228 C 0.69255 0.01278 0.04468 0.0
C3229 C 0.69405 0.02375 0.01433 0.0
C3230 C 0.73015 -0.00039 -0.0126 0.0
H3231 H 0.73872 0.03731 0.90481 0.0
H3232 H 0.72729 0.03726 0.93399 0.0
H3233 H 0.74745 -0.01066 0.97146 0.0
H3234 H 0.70997 -0.00935 0.05099 0.0
H3235 H 0.72361 -0.01037 0.0219 0.0
H3236 H 0.70743 0.03906 -0.01527 0.0
C3237 C 0.73716 0.02717 0.9312 0.0
C3238 C 0.73875 0.00037 0.97468 0.0
C3239 C 0.74368 0.02713 0.9139 0.0
C3240 C 0.70505 -0.00046 0.04061 0.0
C3241 C 0.71304 -0.00077 0.02373 0.0
C3242 C 0.71549 0.02762 -0.0188 0.0
C3243 C 0.74289 0.01438 0.94386 0.0
C3244 C 0.73526 0.01441 0.96254 0.0
C3245 C 0.70823 0.01186 0.0104 0.0
C3246 C 0.71801 0.01297 -0.00717 0.0
H3247 H 0.7712 -0.00905 0.91627 0.0
H3248 H 0.76078 -0.00875 0.94686 0.0
H3249 H 0.72126 0.04017 0.96071 0.0
H3250 H 0.67698 0.03482 0.03445 0.0
H3251 H 0.68876 0.03309 0.00468 0.0
C3252 C 0.20667 0.42374 0.9138 0.0
C3253 C 0.19425 0.43648 0.90802 0.0
C3254 C 0.21342 0.42423 0.93097 0.0
C3255 C 0.21109 0.45132 0.97417 0.0
H3256 H 0.24263 0.4133 -0.01547 0.0
C3257 C 0.24451 0.45483 0.03942 0.0
C3258 C 0.25726 0.44209 0.04394 0.0
C3259 C 0.23623 0.45406 0.02277 0.0
C3260 C 0.23424 0.42447 -0.01901 0.0
H3261 H 0.17896 0.45981 0.9156 0.0
H3262 H 0.18979 0.46048 0.94594 0.0
H3263 H 0.2298 0.412 0.96046 0.0
H3264 H 0.27241 0.4192 0.03491 0.0
H3265 H 0.25987 0.41872 0.00558 0.0
H3266 H 0.21521 0.4635 -0.00499 0.0
C3267 C 0.19499 0.45007 0.93741 0.0
C3268 C 0.22664 0.42375 0.9682 0.0
C3269 C 0.1885 0.44977 0.91985 0.0
C3270 C 0.2629 0.42955 0.03128 0.0
C3271 C 0.25496 0.42892 0.01453 0.0
C3272 C 0.21874 0.45207 -0.01303 0.0
C3273 C 0.20764 0.43722 0.9434 0.0
C3274 C 0.21512 0.43741 0.9621 0.0
C3275 C 0.24085 0.4407 0.0101 0.0
C3276 C 0.23116 0.43905 -0.00743 0.0
H3277 H 0.21162 0.41337 0.90491 0.0
H3278 H 0.2234 0.4143 0.93386 0.0
H3279 H 0.20214 0.46212 0.9709 0.0
H3280 H 0.23956 0.46417 0.0494 0.0
H3281 H 0.22563 0.46356 0.02069 0.0
C3282 C 0.40953 0.71174 0.92643 0.0
C3283 C 0.40365 0.69942 0.93933 0.0
C3284 C 0.42684 0.71809 0.92657 0.0
C3285 C 0.46984 0.71532 0.95353 0.0
H3286 H 0.4847 0.74723 0.91562 0.0
C3287 C 0.53901 0.74872 0.95754 0.0
C3288 C 0.54373 0.76163 0.94494 0.0
C3289 C 0.52237 0.74053 0.95664 0.0
C3290 C 0.48098 0.73881 0.92677 0.0
H3291 H 0.41127 0.68368 0.96236 0.0
H3292 H 0.44171 0.69384 0.96246 0.0
H3293 H 0.45658 0.73404 0.91405 0.0
H3294 H 0.53487 0.77729 0.92229 0.0
H3295 H 0.50548 0.76489 0.92166 0.0
H3296 H 0.49442 0.71978 0.96604 0.0
C3297 C 0.43317 0.69935 0.95226 0.0
C3298 C 0.46421 0.73089 0.92585 0.0
C3299 C 0.41553 0.69324 0.95229 0.0
C3300 C 0.53114 0.76766 0.93254 0.0
C3301 C 0.51436 0.75979 0.93179 0.0
C3302 C 0.48657 0.72328 0.95449 0.0
C3303 C 0.43924 0.71204 0.93939 0.0
C3304 C 0.45795 0.71936 0.93953 0.0
C3305 C 0.50983 0.74543 0.94332 0.0
C3306 C 0.49234 0.73573 0.94148 0.0
H3307 H 0.40065 0.7169 0.9162 0.0
H3308 H 0.42987 0.72804 0.91656 0.0
H3309 H 0.46643 0.70641 0.96438 0.0
H3310 H 0.54888 0.74349 0.96678 0.0
H3311 H 0.52021 0.72971 0.96595 0.0
C3312 C 0.41586 0.26116 0.50326 0.0
C3313 C 0.40369 0.25521 0.51612 0.0
C3314 C 0.43349 0.255 0.50363 0.0
C3315 C 0.46382 0.22308 0.53036 0.0
H3316 H 0.49493 0.23454 0.49082 0.0
C3317 C 0.53131 0.18686 0.52489 0.0
C3318 C 0.54386 0.19247 0.51221 0.0
C3319 C 0.51455 0.19474 0.52554 0.0
C3320 C 0.48683 0.23088 0.50217 0.0
H3321 H 0.40029 0.23823 0.53956 0.0
H3322 H 0.42956 0.22725 0.54001 0.0
H3323 H 0.46702 0.24799 0.49217 0.0
H3324 H 0.54903 0.21006 0.48989 0.0
H3325 H 0.52028 0.22372 0.49039 0.0
H3326 H 0.4839 0.2064 0.54065 0.0
C3327 C 0.42669 0.23685 0.52965 0.0
C3328 C 0.47011 0.23893 0.50296 0.0
C3329 C 0.40936 0.24319 0.52938 0.0
C3330 C 0.53918 0.20512 0.49935 0.0
C3331 C 0.52249 0.21326 0.50007 0.0
C3332 C 0.48057 0.21506 0.52959 0.0
C3333 C 0.4393 0.24249 0.51677 0.0
C3334 C 0.45794 0.23489 0.51678 0.0
C3335 C 0.50991 0.20869 0.51357 0.0
C3336 C 0.49231 0.21831 0.51516 0.0
H3337 H 0.41181 0.27053 0.49294 0.0
H3338 H 0.44218 0.26029 0.49341 0.0
H3339 H 0.45588 0.21971 0.54192 0.0
H3340 H 0.53503 0.17746 0.53534 0.0
H3341 H 0.50576 0.18995 0.53593 0.0
C3342 C 0.91225 0.20887 0.42412 0.0
C3343 C 0.90648 0.196 0.43652 0.0
C3344 C 0.92924 0.21591 0.42492 0.0
C3345 C 0.97235 0.21373 0.45191 0.0
H3346 H -0.01814 0.24464 0.41301 0.0
C3347 C 0.03753 0.24659 0.45248 0.0
C3348 C 0.04178 0.25902 0.43914 0.0
C3349 C 0.02064 0.23872 0.45282 0.0
C3350 C -0.02174 0.23662 0.42449 0.0
H3351 H 0.91391 0.18055 0.45985 0.0
H3352 H 0.94413 0.19188 0.46091 0.0
H3353 H 0.95879 0.23143 0.41206 0.0
H3354 H 0.03182 0.27452 0.41689 0.0
H3355 H 0.00215 0.2629 0.41857 0.0
H3356 H -0.00762 0.21855 0.46393 0.0
C3357 C 0.93561 0.19708 0.45052 0.0
C3358 C 0.96645 0.22868 0.42394 0.0
C3359 C 0.91815 0.19033 0.44998 0.0
C3360 C 0.02862 0.26494 0.42736 0.0
C3361 C 0.01162 0.25759 0.42803 0.0
C3362 C -0.01576 0.22177 0.45248 0.0
C3363 C 0.94162 0.20996 0.43781 0.0
C3364 C 0.9603 0.21747 0.43792 0.0
C3365 C 0.00748 0.24352 0.44009 0.0
C3366 C -0.01017 0.23392 0.43909 0.0
H3367 H 0.90349 0.21395 0.41375 0.0
H3368 H 0.93206 0.22629 0.41529 0.0
H3369 H 0.96898 0.20499 0.46291 0.0
H3370 H 0.04774 0.24168 0.46151 0.0
H3371 H 0.01863 0.22827 0.4626 0.0
C3372 C 0.5089 0.0319 0.76735 0.0
C3373 C 0.5121 0.04567 0.75509 0.0
C3374 C 0.50894 0.01418 0.76135 0.0
C3375 C 0.52317 -0.01184 0.72018 0.0
H3376 H 0.50174 0.95393 0.74718 0.0
C3377 C 0.51515 0.92341 0.68652 0.0
C3378 C 0.50741 0.90942 0.69621 0.0
C3379 C 0.51692 0.94025 0.69435 0.0
C3380 C 0.50738 0.96422 0.73881 0.0
H3381 H 0.51521 0.05267 0.72709 0.0
H3382 H 0.51372 0.02245 0.71641 0.0
H3383 H 0.5006 -0.02124 0.75877 0.0
H3384 H 0.49434 0.9018 0.72082 0.0
H3385 H 0.49639 0.93039 0.73424 0.0
H3386 H 0.52922 0.97403 0.69981 0.0
C3387 C 0.51265 0.02455 0.73072 0.0
C3388 C 0.50722 -0.02292 0.746 0.0
C3389 C 0.51289 0.04202 0.73674 0.0
C3390 C 0.49985 0.91272 0.71294 0.0
C3391 C 0.50179 0.92935 0.72091 0.0
C3392 C 0.52267 0.97541 0.7126 0.0
C3393 C 0.51184 0.01027 0.74299 0.0
C3394 C 0.51421 -0.00838 0.73643 0.0
C3395 C 0.51104 0.94339 0.71215 0.0
C3396 C 0.51393 0.96108 0.72131 0.0
H3397 H 0.50828 0.03463 0.78161 0.0
H3398 H 0.50798 0.00377 0.77137 0.0
H3399 H 0.53018 -0.00142 0.71294 0.0
H3400 H 0.52154 0.92084 0.67372 0.0
H3401 H 0.52363 0.95024 0.68638 0.0
C3402 C 0.42664 0.54396 0.71482 0.0
C3403 C 0.43536 0.54806 0.69874 0.0
C3404 C 0.42722 0.52686 0.72183 0.0
C3405 C 0.44635 0.48048 0.71296 0.0
H3406 H 0.41525 0.47052 0.75301 0.0
C3407 C 0.44848 0.41068 0.74633 0.0
C3408 C 0.43768 0.40732 0.7612 0.0
C3409 C 0.4485 0.42758 0.73843 0.0
C3410 C 0.42455 0.47272 0.7422 0.0
H3411 H 0.45221 0.5379 0.67755 0.0
H3412 H 0.45257 0.50758 0.68891 0.0
H3413 H 0.41418 0.49864 0.73968 0.0
H3414 H 0.41969 0.41868 0.78068 0.0
H3415 H 0.42097 0.44833 0.76866 0.0
H3416 H 0.45569 0.45404 0.7146 0.0
C3417 C 0.44536 0.51737 0.69668 0.0
C3418 C 0.42399 0.48956 0.7343 0.0
C3419 C 0.44523 0.53488 0.68993 0.0
C3420 C 0.42828 0.42125 0.76924 0.0
C3421 C 0.42863 0.43828 0.76172 0.0
C3422 C 0.44674 0.46351 0.72073 0.0
C3423 C 0.436 0.5129 0.71265 0.0
C3424 C 0.43546 0.49414 0.71998 0.0
C3425 C 0.43794 0.44165 0.7455 0.0
C3426 C 0.43645 0.45944 0.73608 0.0
H3427 H 0.41932 0.55409 0.72223 0.0
H3428 H 0.42072 0.52512 0.73461 0.0
H3429 H 0.45515 0.48262 0.70172 0.0
H3430 H 0.45554 0.39982 0.73976 0.0
H3431 H 0.45628 0.42887 0.72635 0.0
C3432 C 0.02884 0.18667 0.92955 0.0
C3433 C 0.04208 0.19264 0.94121 0.0
C3434 C 0.01187 0.19408 0.93021 0.0
C3435 C -0.01537 0.23002 0.9545 0.0
H3436 H 0.95916 0.22037 0.91408 0.0
C3437 C 0.91862 0.26147 0.95207 0.0
C3438 C 0.90689 0.2558 0.9387 0.0
C3439 C 0.93609 0.25477 0.9525 0.0
C3440 C 0.96683 0.22314 0.92595 0.0
H3441 H 0.04818 0.21013 0.96339 0.0
H3442 H 0.0191 0.22363 0.96447 0.0
H3443 H -0.01776 0.20717 0.91505 0.0
H3444 H 0.90385 0.23808 0.91578 0.0
H3445 H 0.93248 0.22583 0.91711 0.0
H3446 H 0.96941 0.24683 0.96488 0.0
C3447 C 0.02105 0.21309 0.9548 0.0
C3448 C -0.02136 0.21519 0.92652 0.0
C3449 C 0.03791 0.20517 0.95446 0.0
C3450 C 0.91265 0.2431 0.92615 0.0
C3451 C 0.92966 0.23609 0.92684 0.0
C3452 C 0.97276 0.23808 0.95389 0.0
C3453 C 0.00782 0.20824 0.94216 0.0
C3454 C -0.0098 0.21788 0.94112 0.0
C3455 C 0.94206 0.24194 0.93975 0.0
C3456 C 0.96071 0.23438 0.93989 0.0
H3457 H 0.03196 0.17702 0.91913 0.0
H3458 H 0.00235 0.18874 0.92083 0.0
H3459 H -0.00724 0.23318 0.96596 0.0
H3460 H 0.91441 0.27116 0.96203 0.0
H3461 H 0.94463 0.25995 0.96288 0.0
C3462 C 0.43183 0.03051 0.26742 0.0
C3463 C 0.44186 0.04393 0.25913 0.0
C3464 C 0.43035 0.01372 0.25948 0.0
C3465 C 0.44566 -0.01167 0.2175 0.0
H3466 H 0.41518 0.95689 0.23912 0.0
C3467 C 0.44476 0.92105 0.18786 0.0
C3468 C 0.43522 0.90775 0.19687 0.0
C3469 C 0.4448 0.93853 0.19457 0.0
C3470 C 0.42431 0.96617 0.23291 0.0
H3471 H 0.45906 0.05053 0.23693 0.0
H3472 H 0.45761 0.02182 0.22346 0.0
H3473 H 0.41696 -0.01914 0.25222 0.0
H3474 H 0.41963 0.90149 0.22059 0.0
H3475 H 0.42063 0.93055 0.23279 0.0
H3476 H 0.45298 0.97366 0.19818 0.0
C3477 C 0.45026 0.02336 0.23575 0.0
C3478 C 0.42532 -0.02117 0.24064 0.0
C3479 C 0.45176 0.04003 0.24384 0.0
C3480 C 0.42672 0.91173 0.21309 0.0
C3481 C 0.42711 0.92887 0.22001 0.0
C3482 C 0.44495 0.97557 0.21001 0.0
C3483 C 0.43896 0.00994 0.24297 0.0
C3484 C 0.43652 -0.00772 0.23358 0.0
C3485 C 0.43559 0.94293 0.21066 0.0
C3486 C 0.43494 0.96171 0.2179 0.0
H3487 H 0.42357 0.03359 0.27898 0.0
H3488 H 0.4218 0.0043 0.26627 0.0
H3489 H 0.45375 -0.00206 0.21044 0.0
H3490 H 0.45154 0.91812 0.17536 0.0
H3491 H 0.45186 0.94831 0.18665 0.0
C3492 C 0.51594 0.42141 0.26779 0.0
C3493 C 0.50738 0.40768 0.25852 0.0
C3494 C 0.51779 0.43823 0.25995 0.0
C3495 C 0.50703 0.46284 0.21613 0.0
H3496 H 0.53055 0.5006 0.242 0.0
C3497 C 0.50556 0.53458 0.18707 0.0
C3498 C 0.51221 0.54857 0.19743 0.0
C3499 C 0.50652 0.51703 0.19352 0.0
C3500 C 0.5233 0.4907 0.23447 0.0
H3501 H 0.49318 0.40048 0.2345 0.0
H3502 H 0.49491 0.42933 0.22127 0.0
H3503 H 0.52876 0.4724 0.25505 0.0
H3504 H 0.52422 0.55586 0.22278 0.0
H3505 H 0.52482 0.52651 0.23449 0.0
H3506 H 0.50123 0.48125 0.19572 0.0
C3507 C 0.501 0.42796 0.23424 0.0
C3508 C 0.52248 0.47376 0.24216 0.0
C3509 C 0.49923 0.41123 0.24215 0.0
C3510 C 0.51911 0.5451 0.21447 0.0
C3511 C 0.51971 0.52783 0.22109 0.0
C3512 C 0.50736 0.4799 0.20869 0.0
C3513 C 0.51091 0.44175 0.24261 0.0
C3514 C 0.51363 0.45954 0.23353 0.0
C3515 C 0.51383 0.51321 0.21068 0.0
C3516 C 0.51492 0.49444 0.21794 0.0
H3517 H 0.52294 0.4186 0.2802 0.0
H3518 H 0.52536 0.44785 0.26751 0.0
H3519 H 0.50112 0.45262 0.2079 0.0
H3520 H 0.50036 0.53709 0.17376 0.0
H3521 H 0.50169 0.50678 0.18462 0.0
C3522 C 0.03724 0.71068 0.02862 0.0
C3523 C 0.04306 0.69817 0.01591 0.0
C3524 C 0.02021 0.71766 0.02797 0.0
C3525 C -0.02271 0.71571 0.0007 0.0
H3526 H 0.96768 0.74716 0.03905 0.0
C3527 C 0.91262 0.74883 -0.00179 0.0
C3528 C 0.90799 0.76129 0.01129 0.0
C3529 C 0.92942 0.74088 -0.00149 0.0
C3530 C 0.97127 0.7389 0.02775 0.0
H3531 H 0.03571 0.68318 -0.00771 0.0
H3532 H 0.00559 0.69444 -0.00865 0.0
H3533 H -0.00922 0.73405 0.04025 0.0
H3534 H 0.91708 0.77645 0.03413 0.0
H3535 H 0.9466 0.76449 0.03384 0.0
H3536 H 0.95742 0.72025 -0.01149 0.0
C3537 C 0.01399 0.69944 0.00192 0.0
C3538 C -0.01689 0.73101 0.02846 0.0
C3539 C 0.03143 0.69272 0.00237 0.0
C3540 C 0.9207 0.76708 0.02362 0.0
C3541 C 0.9376 0.75948 0.02378 0.0
C3542 C 0.96543 0.72367 -4e-05 0.0
C3543 C 0.00792 0.71205 0.01485 0.0
C3544 C -0.01072 0.7196 0.01466 0.0
C3545 C 0.94213 0.74553 0.01176 0.0
C3546 C 0.95975 0.73595 0.01316 0.0
H3547 H 0.04598 0.71551 0.03911 0.0
H3548 H 0.0173 0.72767 0.03792 0.0
H3549 H -0.01938 0.70684 -0.01019 0.0
H3550 H 0.90267 0.74384 -0.01107 0.0
H3551 H 0.93164 0.73047 -0.01121 0.0
loop_
_geom_bond_atom_site_label_1
_geom_bond_atom_site_label_2
_geom_bond_distance
_geom_bond_site_symmetry_2
_ccdc_geom_bond_type
C0 O1 1.306 . S
C0 O3 1.160 . S
O1 C0 1.306 . S
O1 Cd2 2.228 . S
Cd2 O1 2.228 . S
Cd2 O6 2.273 . S
Cd2 O10 2.277 . S
O3 C0 1.160 . S
O3 Cd4 2.203 . S
Cd4 O3 2.203 . S
Cd4 O6 2.411 . S
Cd4 O7 2.333 . S
Cd4 O8 2.352 . S
Cd4 O12 2.277 . S
Cd4 O13 2.356 . S
C5 O10 1.209 . S
C5 O12 1.226 . S
O6 Cd2 2.273 . S
O6 Cd4 2.411 . S
O6 C9 1.320 . S
O7 Cd4 2.333 . S
O7 C9 1.214 . S
O8 Cd4 2.352 . S
O8 C11 1.258 . S
C9 O6 1.320 . S
C9 O7 1.214 . S
O10 Cd2 2.277 . S
O10 C5 1.209 . S
C11 O8 1.258 . S
C11 O13 1.282 . S
O12 Cd4 2.277 . S
O12 C5 1.226 . S
O13 Cd4 2.356 . S
O13 C11 1.282 . S
C14 O15 1.306 . S
C14 O17 1.160 . S
O15 C14 1.306 . S
O15 Cd16 2.228 . S
Cd16 O15 2.228 . S
Cd16 O20 2.273 . S
Cd16 O24 2.277 . S
O17 C14 1.160 . S
O17 Cd18 2.203 . S
Cd18 O17 2.203 . S
Cd18 O20 2.411 . S
Cd18 O21 2.333 . S
Cd18 O22 2.352 . S
Cd18 O26 2.277 . S
Cd18 O27 2.356 . S
C19 O24 1.209 . S
C19 O26 1.226 . S
O20 Cd16 2.273 . S
O20 Cd18 2.411 . S
O20 C23 1.320 . S
O21 Cd18 2.333 . S
O21 C23 1.214 . S
O22 Cd18 2.352 . S
O22 C25 1.258 . S
C23 O20 1.320 . S
C23 O21 1.214 . S
O24 Cd16 2.277 . S
O24 C19 1.209 . S
C25 O22 1.258 . S
C25 O27 1.282 . S
O26 Cd18 2.277 . S
O26 C19 1.226 . S
O27 Cd18 2.356 . S
O27 C25 1.282 . S
C28 O29 1.306 . S
C28 O31 1.160 . S
O29 C28 1.306 . S
O29 Cd30 2.228 . S
Cd30 O29 2.228 . S
Cd30 O34 2.273 . S
Cd30 O38 2.277 . S
O31 C28 1.160 . S
O31 Cd32 2.203 . S
Cd32 O31 2.203 . S
Cd32 O34 2.411 . S
Cd32 O35 2.333 . S
Cd32 O36 2.352 . S
Cd32 O40 2.277 . S
Cd32 O41 2.356 . S
C33 O38 1.209 . S
C33 O40 1.226 . S
O34 Cd30 2.273 . S
O34 Cd32 2.411 . S
O34 C37 1.320 . S
O35 Cd32 2.333 . S
O35 C37 1.214 . S
O36 Cd32 2.352 . S
O36 C39 1.258 . S
C37 O34 1.320 . S
C37 O35 1.214 . S
O38 Cd30 2.277 . S
O38 C33 1.209 . S
C39 O36 1.258 . S
C39 O41 1.282 . S
O40 Cd32 2.277 . S
O40 C33 1.226 . S
O41 Cd32 2.356 . S
O41 C39 1.282 . S
C42 O43 1.306 . S
C42 O45 1.160 . S
O43 C42 1.306 . S
O43 Cd44 2.228 . S
Cd44 O43 2.228 . S
Cd44 O48 2.273 . S
Cd44 O52 2.277 . S
O45 C42 1.160 . S
O45 Cd46 2.203 . S
Cd46 O45 2.203 . S
Cd46 O48 2.411 . S
Cd46 O49 2.333 . S
Cd46 O50 2.352 . S
Cd46 O54 2.277 . S
Cd46 O55 2.356 . S
C47 O52 1.209 . S
C47 O54 1.226 . S
O48 Cd44 2.273 . S
O48 Cd46 2.411 . S
O48 C51 1.320 . S
O49 Cd46 2.333 . S
O49 C51 1.214 . S
O50 Cd46 2.352 . S
O50 C53 1.258 . S
C51 O48 1.320 . S
C51 O49 1.214 . S
O52 Cd44 2.277 . S
O52 C47 1.209 . S
C53 O50 1.258 . S
C53 O55 1.282 . S
O54 Cd46 2.277 . S
O54 C47 1.226 . S
O55 Cd46 2.356 . S
O55 C53 1.282 . S
C56 O57 1.306 . S
C56 O59 1.160 . S
O57 C56 1.306 . S
O57 Cd58 2.228 . S
Cd58 O57 2.228 . S
Cd58 O62 2.273 . S
Cd58 O66 2.277 . S
O59 C56 1.160 . S
O59 Cd60 2.203 . S
Cd60 O59 2.203 . S
Cd60 O62 2.411 . S
Cd60 O63 2.333 . S
Cd60 O64 2.352 . S
Cd60 O68 2.277 . S
Cd60 O69 2.356 . S
C61 O66 1.209 . S
C61 O68 1.226 . S
O62 Cd58 2.273 . S
O62 Cd60 2.411 . S
O62 C65 1.320 . S
O63 Cd60 2.333 . S
O63 C65 1.214 . S
O64 Cd60 2.352 . S
O64 C67 1.258 . S
C65 O62 1.320 . S
C65 O63 1.214 . S
O66 Cd58 2.277 . S
O66 C61 1.209 . S
C67 O64 1.258 . S
C67 O69 1.282 . S
O68 Cd60 2.277 . S
O68 C61 1.226 . S
O69 Cd60 2.356 . S
O69 C67 1.282 . S
C70 O71 1.306 . S
C70 O73 1.160 . S
O71 C70 1.306 . S
O71 Cd72 2.228 . S
Cd72 O71 2.228 . S
Cd72 O76 2.273 . S
Cd72 O80 2.277 . S
O73 C70 1.160 . S
O73 Cd74 2.203 . S
Cd74 O73 2.203 . S
Cd74 O76 2.411 . S
Cd74 O77 2.333 . S
Cd74 O78 2.352 . S
Cd74 O82 2.277 . S
Cd74 O83 2.356 . S
C75 O80 1.209 . S
C75 O82 1.226 . S
O76 Cd72 2.273 . S
O76 Cd74 2.411 . S
O76 C79 1.320 . S
O77 Cd74 2.333 . S
O77 C79 1.214 . S
O78 Cd74 2.352 . S
O78 C81 1.258 . S
C79 O76 1.320 . S
C79 O77 1.214 . S
O80 Cd72 2.277 . S
O80 C75 1.209 . S
C81 O78 1.258 . S
C81 O83 1.282 . S
O82 Cd74 2.277 . S
O82 C75 1.226 . S
O83 Cd74 2.356 . S
O83 C81 1.282 . S
C84 O85 1.306 . S
C84 O87 1.160 . S
O85 C84 1.306 . S
O85 Cd86 2.228 . S
Cd86 O85 2.228 . S
Cd86 O90 2.273 . S
Cd86 O94 2.277 . S
O87 C84 1.160 . S
O87 Cd88 2.203 . S
Cd88 O87 2.203 . S
Cd88 O90 2.411 . S
Cd88 O91 2.333 . S
Cd88 O92 2.352 . S
Cd88 O96 2.277 . S
Cd88 O97 2.356 . S
C89 O94 1.209 . S
C89 O96 1.226 . S
O90 Cd86 2.273 . S
O90 Cd88 2.411 . S
O90 C93 1.320 . S
O91 Cd88 2.333 . S
O91 C93 1.214 . S
O92 Cd88 2.352 . S
O92 C95 1.258 . S
C93 O90 1.320 . S
C93 O91 1.214 . S
O94 Cd86 2.277 . S
O94 C89 1.209 . S
C95 O92 1.258 . S
C95 O97 1.282 . S
O96 Cd88 2.277 . S
O96 C89 1.226 . S
O97 Cd88 2.356 . S
O97 C95 1.282 . S
C98 O99 1.306 . S
C98 O101 1.160 . S
O99 C98 1.306 . S
O99 Cd100 2.228 . S
Cd100 O99 2.228 . S
Cd100 O104 2.273 . S
Cd100 O108 2.277 . S
O101 C98 1.160 . S
O101 Cd102 2.203 . S
Cd102 O101 2.203 . S
Cd102 O104 2.411 . S
Cd102 O105 2.333 . S
Cd102 O106 2.352 . S
Cd102 O110 2.277 . S
Cd102 O111 2.356 . S
C103 O108 1.209 . S
C103 O110 1.226 . S
O104 Cd100 2.273 . S
O104 Cd102 2.411 . S
O104 C107 1.320 . S
O105 Cd102 2.333 . S
O105 C107 1.214 . S
O106 Cd102 2.352 . S
O106 C109 1.258 . S
C107 O104 1.320 . S
C107 O105 1.214 . S
O108 Cd100 2.277 . S
O108 C103 1.209 . S
C109 O106 1.258 . S
C109 O111 1.282 . S
O110 Cd102 2.277 . S
O110 C103 1.226 . S
O111 Cd102 2.356 . S
O111 C109 1.282 . S
C112 O113 1.306 . S
C112 O115 1.160 . S
O113 C112 1.306 . S
O113 Cd114 2.228 . S
Cd114 O113 2.228 . S
Cd114 O118 2.273 . S
Cd114 O122 2.277 . S
O115 C112 1.160 . S
O115 Cd116 2.203 . S
Cd116 O115 2.203 . S
Cd116 O118 2.411 . S
Cd116 O119 2.333 . S
Cd116 O120 2.352 . S
Cd116 O124 2.277 . S
Cd116 O125 2.356 . S
C117 O122 1.209 . S
C117 O124 1.226 . S
O118 Cd114 2.273 . S
O118 Cd116 2.411 . S
O118 C121 1.320 . S
O119 Cd116 2.333 . S
O119 C121 1.214 . S
O120 Cd116 2.352 . S
O120 C123 1.258 . S
C121 O118 1.320 . S
C121 O119 1.214 . S
O122 Cd114 2.277 . S
O122 C117 1.209 . S
C123 O120 1.258 . S
C123 O125 1.282 . S
O124 Cd116 2.277 . S
O124 C117 1.226 . S
O125 Cd116 2.356 . S
O125 C123 1.282 . S
C126 O127 1.306 . S
C126 O129 1.160 . S
O127 C126 1.306 . S
O127 Cd128 2.228 . S
Cd128 O127 2.228 . S
Cd128 O132 2.273 . S
Cd128 O136 2.277 . S
O129 C126 1.160 . S
O129 Cd130 2.203 . S
Cd130 O129 2.203 . S
Cd130 O132 2.411 . S
Cd130 O133 2.333 . S
Cd130 O134 2.352 . S
Cd130 O138 2.277 . S
Cd130 O139 2.356 . S
C131 O136 1.209 . S
C131 O138 1.226 . S
O132 Cd128 2.273 . S
O132 Cd130 2.411 . S
O132 C135 1.320 . S
O133 Cd130 2.333 . S
O133 C135 1.214 . S
O134 Cd130 2.352 . S
O134 C137 1.258 . S
C135 O132 1.320 . S
C135 O133 1.214 . S
O136 Cd128 2.277 . S
O136 C131 1.209 . S
C137 O134 1.258 . S
C137 O139 1.282 . S
O138 Cd130 2.277 . S
O138 C131 1.226 . S
O139 Cd130 2.356 . S
O139 C137 1.282 . S
C140 O141 1.306 . S
C140 O143 1.160 . S
O141 C140 1.306 . S
O141 Cd142 2.228 . S
Cd142 O141 2.228 . S
Cd142 O146 2.273 . S
Cd142 O150 2.277 . S
O143 C140 1.160 . S
O143 Cd144 2.203 . S
Cd144 O143 2.203 . S
Cd144 O146 2.411 . S
Cd144 O147 2.333 . S
Cd144 O148 2.352 . S
Cd144 O152 2.277 . S
Cd144 O153 2.356 . S
C145 O150 1.209 . S
C145 O152 1.226 . S
O146 Cd142 2.273 . S
O146 Cd144 2.411 . S
O146 C149 1.320 . S
O147 Cd144 2.333 . S
O147 C149 1.214 . S
O148 Cd144 2.352 . S
O148 C151 1.258 . S
C149 O146 1.320 . S
C149 O147 1.214 . S
O150 Cd142 2.277 . S
O150 C145 1.209 . S
C151 O148 1.258 . S
C151 O153 1.282 . S
O152 Cd144 2.277 . S
O152 C145 1.226 . S
O153 Cd144 2.356 . S
O153 C151 1.282 . S
C154 O155 1.306 . S
C154 O157 1.160 . S
O155 C154 1.306 . S
O155 Cd156 2.228 . S
Cd156 O155 2.228 . S
Cd156 O160 2.273 . S
Cd156 O164 2.277 . S
O157 C154 1.160 . S
O157 Cd158 2.203 . S
Cd158 O157 2.203 . S
Cd158 O160 2.411 . S
Cd158 O161 2.333 . S
Cd158 O162 2.352 . S
Cd158 O166 2.277 . S
Cd158 O167 2.356 . S
C159 O164 1.209 . S
C159 O166 1.226 . S
O160 Cd156 2.273 . S
O160 Cd158 2.411 . S
O160 C163 1.320 . S
O161 Cd158 2.333 . S
O161 C163 1.214 . S
O162 Cd158 2.352 . S
O162 C165 1.258 . S
C163 O160 1.320 . S
C163 O161 1.214 . S
O164 Cd156 2.277 . S
O164 C159 1.209 . S
C165 O162 1.258 . S
C165 O167 1.282 . S
O166 Cd158 2.277 . S
O166 C159 1.226 . S
O167 Cd158 2.356 . S
O167 C165 1.282 . S
C168 O169 1.306 . S
C168 O171 1.160 . S
O169 C168 1.306 . S
O169 Cd170 2.228 . S
Cd170 O169 2.228 . S
Cd170 O174 2.273 . S
Cd170 O178 2.277 . S
O171 C168 1.160 . S
O171 Cd172 2.203 . S
Cd172 O171 2.203 . S
Cd172 O174 2.411 . S
Cd172 O175 2.333 . S
Cd172 O176 2.352 . S
Cd172 O180 2.277 . S
Cd172 O181 2.356 . S
C173 O178 1.209 . S
C173 O180 1.226 . S
O174 Cd170 2.273 . S
O174 Cd172 2.411 . S
O174 C177 1.320 . S
O175 Cd172 2.333 . S
O175 C177 1.214 . S
O176 Cd172 2.352 . S
O176 C179 1.258 . S
C177 O174 1.320 . S
C177 O175 1.214 . S
O178 Cd170 2.277 . S
O178 C173 1.209 . S
C179 O176 1.258 . S
C179 O181 1.282 . S
O180 Cd172 2.277 . S
O180 C173 1.226 . S
O181 Cd172 2.356 . S
O181 C179 1.282 . S
C182 O183 1.306 . S
C182 O185 1.160 . S
O183 C182 1.306 . S
O183 Cd184 2.228 . S
Cd184 O183 2.228 . S
Cd184 O188 2.273 . S
Cd184 O192 2.277 . S
O185 C182 1.160 . S
O185 Cd186 2.203 . S
Cd186 O185 2.203 . S
Cd186 O188 2.411 . S
Cd186 O189 2.333 . S
Cd186 O190 2.352 . S
Cd186 O194 2.277 . S
Cd186 O195 2.356 . S
C187 O192 1.209 . S
C187 O194 1.226 . S
O188 Cd184 2.273 . S
O188 Cd186 2.411 . S
O188 C191 1.320 . S
O189 Cd186 2.333 . S
O189 C191 1.214 . S
O190 Cd186 2.352 . S
O190 C193 1.258 . S
C191 O188 1.320 . S
C191 O189 1.214 . S
O192 Cd184 2.277 . S
O192 C187 1.209 . S
C193 O190 1.258 . S
C193 O195 1.282 . S
O194 Cd186 2.277 . S
O194 C187 1.226 . S
O195 Cd186 2.356 . S
O195 C193 1.282 . S
C196 O197 1.306 . S
C196 O199 1.160 . S
O197 C196 1.306 . S
O197 Cd198 2.228 . S
Cd198 O197 2.228 . S
Cd198 O202 2.273 . S
Cd198 O206 2.277 . S
O199 C196 1.160 . S
O199 Cd200 2.203 . S
Cd200 O199 2.203 . S
Cd200 O202 2.411 . S
Cd200 O203 2.333 . S
Cd200 O204 2.352 . S
Cd200 O208 2.277 . S
Cd200 O209 2.356 . S
C201 O206 1.209 . S
C201 O208 1.226 . S
O202 Cd198 2.273 . S
O202 Cd200 2.411 . S
O202 C205 1.320 . S
O203 Cd200 2.333 . S
O203 C205 1.214 . S
O204 Cd200 2.352 . S
O204 C207 1.258 . S
C205 O202 1.320 . S
C205 O203 1.214 . S
O206 Cd198 2.277 . S
O206 C201 1.209 . S
C207 O204 1.258 . S
C207 O209 1.282 . S
O208 Cd200 2.277 . S
O208 C201 1.226 . S
O209 Cd200 2.356 . S
O209 C207 1.282 . S
C210 O211 1.306 . S
C210 O213 1.160 . S
O211 C210 1.306 . S
O211 Cd212 2.228 . S
Cd212 O211 2.228 . S
Cd212 O216 2.273 . S
Cd212 O220 2.277 . S
O213 C210 1.160 . S
O213 Cd214 2.203 . S
Cd214 O213 2.203 . S
Cd214 O216 2.411 . S
Cd214 O217 2.333 . S
Cd214 O218 2.352 . S
Cd214 O222 2.277 . S
Cd214 O223 2.356 . S
C215 O220 1.209 . S
C215 O222 1.226 . S
O216 Cd212 2.273 . S
O216 Cd214 2.411 . S
O216 C219 1.320 . S
O217 Cd214 2.333 . S
O217 C219 1.214 . S
O218 Cd214 2.352 . S
O218 C221 1.258 . S
C219 O216 1.320 . S
C219 O217 1.214 . S
O220 Cd212 2.277 . S
O220 C215 1.209 . S
C221 O218 1.258 . S
C221 O223 1.282 . S
O222 Cd214 2.277 . S
O222 C215 1.226 . S
O223 Cd214 2.356 . S
O223 C221 1.282 . S
C224 O225 1.306 . S
C224 O227 1.160 . S
O225 C224 1.306 . S
O225 Cd226 2.228 . S
Cd226 O225 2.228 . S
Cd226 O230 2.273 . S
Cd226 O234 2.277 . S
O227 C224 1.160 . S
O227 Cd228 2.203 . S
Cd228 O227 2.203 . S
Cd228 O230 2.411 . S
Cd228 O231 2.333 . S
Cd228 O232 2.352 . S
Cd228 O236 2.277 . S
Cd228 O237 2.356 . S
C229 O234 1.209 . S
C229 O236 1.226 . S
O230 Cd226 2.273 . S
O230 Cd228 2.411 . S
O230 C233 1.320 . S
O231 Cd228 2.333 . S
O231 C233 1.214 . S
O232 Cd228 2.352 . S
O232 C235 1.258 . S
C233 O230 1.320 . S
C233 O231 1.214 . S
O234 Cd226 2.277 . S
O234 C229 1.209 . S
C235 O232 1.258 . S
C235 O237 1.282 . S
O236 Cd228 2.277 . S
O236 C229 1.226 . S
O237 Cd228 2.356 . S
O237 C235 1.282 . S
C238 O239 1.306 . S
C238 O241 1.160 . S
O239 C238 1.306 . S
O239 Cd240 2.228 . S
Cd240 O239 2.228 . S
Cd240 O244 2.273 . S
Cd240 O248 2.277 . S
O241 C238 1.160 . S
O241 Cd242 2.203 . S
Cd242 O241 2.203 . S
Cd242 O244 2.411 . S
Cd242 O245 2.333 . S
Cd242 O246 2.352 . S
Cd242 O250 2.277 . S
Cd242 O251 2.356 . S
C243 O248 1.209 . S
C243 O250 1.226 . S
O244 Cd240 2.273 . S
O244 Cd242 2.411 . S
O244 C247 1.320 . S
O245 Cd242 2.333 . S
O245 C247 1.214 . S
O246 Cd242 2.352 . S
O246 C249 1.258 . S
C247 O244 1.320 . S
C247 O245 1.214 . S
O248 Cd240 2.277 . S
O248 C243 1.209 . S
C249 O246 1.258 . S
C249 O251 1.282 . S
O250 Cd242 2.277 . S
O250 C243 1.226 . S
O251 Cd242 2.356 . S
O251 C249 1.282 . S
C252 O253 1.306 . S
C252 O255 1.160 . S
O253 C252 1.306 . S
O253 Cd254 2.228 . S
Cd254 O253 2.228 . S
Cd254 O258 2.273 . S
Cd254 O262 2.277 . S
O255 C252 1.160 . S
O255 Cd256 2.203 . S
Cd256 O255 2.203 . S
Cd256 O258 2.411 . S
Cd256 O259 2.333 . S
Cd256 O260 2.352 . S
Cd256 O264 2.277 . S
Cd256 O265 2.356 . S
C257 O262 1.209 . S
C257 O264 1.226 . S
O258 Cd254 2.273 . S
O258 Cd256 2.411 . S
O258 C261 1.320 . S
O259 Cd256 2.333 . S
O259 C261 1.214 . S
O260 Cd256 2.352 . S
O260 C263 1.258 . S
C261 O258 1.320 . S
C261 O259 1.214 . S
O262 Cd254 2.277 . S
O262 C257 1.209 . S
C263 O260 1.258 . S
C263 O265 1.282 . S
O264 Cd256 2.277 . S
O264 C257 1.226 . S
O265 Cd256 2.356 . S
O265 C263 1.282 . S
C266 O267 1.306 . S
C266 O269 1.160 . S
O267 C266 1.306 . S
O267 Cd268 2.228 . S
Cd268 O267 2.228 . S
Cd268 O272 2.273 . S
Cd268 O276 2.277 . S
O269 C266 1.160 . S
O269 Cd270 2.203 . S
Cd270 O269 2.203 . S
Cd270 O272 2.411 . S
Cd270 O273 2.333 . S
Cd270 O274 2.352 . S
Cd270 O278 2.277 . S
Cd270 O279 2.356 . S
C271 O276 1.209 . S
C271 O278 1.226 . S
O272 Cd268 2.273 . S
O272 Cd270 2.411 . S
O272 C275 1.320 . S
O273 Cd270 2.333 . S
O273 C275 1.214 . S
O274 Cd270 2.352 . S
O274 C277 1.258 . S
C275 O272 1.320 . S
C275 O273 1.214 . S
O276 Cd268 2.277 . S
O276 C271 1.209 . S
C277 O274 1.258 . S
C277 O279 1.282 . S
O278 Cd270 2.277 . S
O278 C271 1.226 . S
O279 Cd270 2.356 . S
O279 C277 1.282 . S
C280 O281 1.306 . S
C280 O283 1.160 . S
O281 C280 1.306 . S
O281 Cd282 2.228 . S
Cd282 O281 2.228 . S
Cd282 O286 2.273 . S
Cd282 O290 2.277 . S
O283 C280 1.160 . S
O283 Cd284 2.203 . S
Cd284 O283 2.203 . S
Cd284 O286 2.411 . S
Cd284 O287 2.333 . S
Cd284 O288 2.352 . S
Cd284 O292 2.277 . S
Cd284 O293 2.356 . S
C285 O290 1.209 . S
C285 O292 1.226 . S
O286 Cd282 2.273 . S
O286 Cd284 2.411 . S
O286 C289 1.320 . S
O287 Cd284 2.333 . S
O287 C289 1.214 . S
O288 Cd284 2.352 . S
O288 C291 1.258 . S
C289 O286 1.320 . S
C289 O287 1.214 . S
O290 Cd282 2.277 . S
O290 C285 1.209 . S
C291 O288 1.258 . S
C291 O293 1.282 . S
O292 Cd284 2.277 . S
O292 C285 1.226 . S
O293 Cd284 2.356 . S
O293 C291 1.282 . S
C294 O295 1.306 . S
C294 O297 1.160 . S
O295 C294 1.306 . S
O295 Cd296 2.228 . S
Cd296 O295 2.228 . S
Cd296 O300 2.273 . S
Cd296 O304 2.277 . S
O297 C294 1.160 . S
O297 Cd298 2.203 . S
Cd298 O297 2.203 . S
Cd298 O300 2.411 . S
Cd298 O301 2.333 . S
Cd298 O302 2.352 . S
Cd298 O306 2.277 . S
Cd298 O307 2.356 . S
C299 O304 1.209 . S
C299 O306 1.226 . S
O300 Cd296 2.273 . S
O300 Cd298 2.411 . S
O300 C303 1.320 . S
O301 Cd298 2.333 . S
O301 C303 1.214 . S
O302 Cd298 2.352 . S
O302 C305 1.258 . S
C303 O300 1.320 . S
C303 O301 1.214 . S
O304 Cd296 2.277 . S
O304 C299 1.209 . S
C305 O302 1.258 . S
C305 O307 1.282 . S
O306 Cd298 2.277 . S
O306 C299 1.226 . S
O307 Cd298 2.356 . S
O307 C305 1.282 . S
C308 O309 1.306 . S
C308 O311 1.160 . S
O309 C308 1.306 . S
O309 Cd310 2.228 . S
Cd310 O309 2.228 . S
Cd310 O314 2.273 . S
Cd310 O318 2.277 . S
O311 C308 1.160 . S
O311 Cd312 2.203 . S
Cd312 O311 2.203 . S
Cd312 O314 2.411 . S
Cd312 O315 2.333 . S
Cd312 O316 2.352 . S
Cd312 O320 2.277 . S
Cd312 O321 2.356 . S
C313 O318 1.209 . S
C313 O320 1.226 . S
O314 Cd310 2.273 . S
O314 Cd312 2.411 . S
O314 C317 1.320 . S
O315 Cd312 2.333 . S
O315 C317 1.214 . S
O316 Cd312 2.352 . S
O316 C319 1.258 . S
C317 O314 1.320 . S
C317 O315 1.214 . S
O318 Cd310 2.277 . S
O318 C313 1.209 . S
C319 O316 1.258 . S
C319 O321 1.282 . S
O320 Cd312 2.277 . S
O320 C313 1.226 . S
O321 Cd312 2.356 . S
O321 C319 1.282 . S
C322 O323 1.306 . S
C322 O325 1.160 . S
O323 C322 1.306 . S
O323 Cd324 2.228 . S
Cd324 O323 2.228 . S
Cd324 O328 2.273 . S
Cd324 O332 2.277 . S
O325 C322 1.160 . S
O325 Cd326 2.203 . S
Cd326 O325 2.203 . S
Cd326 O328 2.411 . S
Cd326 O329 2.333 . S
Cd326 O330 2.352 . S
Cd326 O334 2.277 . S
Cd326 O335 2.356 . S
C327 O332 1.209 . S
C327 O334 1.226 . S
O328 Cd324 2.273 . S
O328 Cd326 2.411 . S
O328 C331 1.320 . S
O329 Cd326 2.333 . S
O329 C331 1.214 . S
O330 Cd326 2.352 . S
O330 C333 1.258 . S
C331 O328 1.320 . S
C331 O329 1.214 . S
O332 Cd324 2.277 . S
O332 C327 1.209 . S
C333 O330 1.258 . S
C333 O335 1.282 . S
O334 Cd326 2.277 . S
O334 C327 1.226 . S
O335 Cd326 2.356 . S
O335 C333 1.282 . S
C336 O337 1.306 . S
C336 O339 1.160 . S
O337 C336 1.306 . S
O337 Cd338 2.228 . S
Cd338 O337 2.228 . S
Cd338 O342 2.273 . S
Cd338 O346 2.277 . S
O339 C336 1.160 . S
O339 Cd340 2.203 . S
Cd340 O339 2.203 . S
Cd340 O342 2.411 . S
Cd340 O343 2.333 . S
Cd340 O344 2.352 . S
Cd340 O348 2.277 . S
Cd340 O349 2.356 . S
C341 O346 1.209 . S
C341 O348 1.226 . S
O342 Cd338 2.273 . S
O342 Cd340 2.411 . S
O342 C345 1.320 . S
O343 Cd340 2.333 . S
O343 C345 1.214 . S
O344 Cd340 2.352 . S
O344 C347 1.258 . S
C345 O342 1.320 . S
C345 O343 1.214 . S
O346 Cd338 2.277 . S
O346 C341 1.209 . S
C347 O344 1.258 . S
C347 O349 1.282 . S
O348 Cd340 2.277 . S
O348 C341 1.226 . S
O349 Cd340 2.356 . S
O349 C347 1.282 . S
C350 O351 1.306 . S
C350 O353 1.160 . S
O351 C350 1.306 . S
O351 Cd352 2.228 . S
Cd352 O351 2.228 . S
Cd352 O356 2.273 . S
Cd352 O360 2.277 . S
O353 C350 1.160 . S
O353 Cd354 2.203 . S
Cd354 O353 2.203 . S
Cd354 O356 2.411 . S
Cd354 O357 2.333 . S
Cd354 O358 2.352 . S
Cd354 O362 2.277 . S
Cd354 O363 2.356 . S
C355 O360 1.209 . S
C355 O362 1.226 . S
O356 Cd352 2.273 . S
O356 Cd354 2.411 . S
O356 C359 1.320 . S
O357 Cd354 2.333 . S
O357 C359 1.214 . S
O358 Cd354 2.352 . S
O358 C361 1.258 . S
C359 O356 1.320 . S
C359 O357 1.214 . S
O360 Cd352 2.277 . S
O360 C355 1.209 . S
C361 O358 1.258 . S
C361 O363 1.282 . S
O362 Cd354 2.277 . S
O362 C355 1.226 . S
O363 Cd354 2.356 . S
O363 C361 1.282 . S
C364 O365 1.306 . S
C364 O367 1.160 . S
O365 C364 1.306 . S
O365 Cd366 2.228 . S
Cd366 O365 2.228 . S
Cd366 O370 2.273 . S
Cd366 O374 2.277 . S
O367 C364 1.160 . S
O367 Cd368 2.203 . S
Cd368 O367 2.203 . S
Cd368 O370 2.411 . S
Cd368 O371 2.333 . S
Cd368 O372 2.352 . S
Cd368 O376 2.277 . S
Cd368 O377 2.356 . S
C369 O374 1.209 . S
C369 O376 1.226 . S
O370 Cd366 2.273 . S
O370 Cd368 2.411 . S
O370 C373 1.320 . S
O371 Cd368 2.333 . S
O371 C373 1.214 . S
O372 Cd368 2.352 . S
O372 C375 1.258 . S
C373 O370 1.320 . S
C373 O371 1.214 . S
O374 Cd366 2.277 . S
O374 C369 1.209 . S
C375 O372 1.258 . S
C375 O377 1.282 . S
O376 Cd368 2.277 . S
O376 C369 1.226 . S
O377 Cd368 2.356 . S
O377 C375 1.282 . S
C378 O379 1.306 . S
C378 O381 1.160 . S
O379 C378 1.306 . S
O379 Cd380 2.228 . S
Cd380 O379 2.228 . S
Cd380 O384 2.273 . S
Cd380 O388 2.277 . S
O381 C378 1.160 . S
O381 Cd382 2.203 . S
Cd382 O381 2.203 . S
Cd382 O384 2.411 . S
Cd382 O385 2.333 . S
Cd382 O386 2.352 . S
Cd382 O390 2.277 . S
Cd382 O391 2.356 . S
C383 O388 1.209 . S
C383 O390 1.226 . S
O384 Cd380 2.273 . S
O384 Cd382 2.411 . S
O384 C387 1.320 . S
O385 Cd382 2.333 . S
O385 C387 1.214 . S
O386 Cd382 2.352 . S
O386 C389 1.258 . S
C387 O384 1.320 . S
C387 O385 1.214 . S
O388 Cd380 2.277 . S
O388 C383 1.209 . S
C389 O386 1.258 . S
C389 O391 1.282 . S
O390 Cd382 2.277 . S
O390 C383 1.226 . S
O391 Cd382 2.356 . S
O391 C389 1.282 . S
C392 O393 1.306 . S
C392 O395 1.160 . S
O393 C392 1.306 . S
O393 Cd394 2.228 . S
Cd394 O393 2.228 . S
Cd394 O398 2.273 . S
Cd394 O402 2.277 . S
O395 C392 1.160 . S
O395 Cd396 2.203 . S
Cd396 O395 2.203 . S
Cd396 O398 2.411 . S
Cd396 O399 2.333 . S
Cd396 O400 2.352 . S
Cd396 O404 2.277 . S
Cd396 O405 2.356 . S
C397 O402 1.209 . S
C397 O404 1.226 . S
O398 Cd394 2.273 . S
O398 Cd396 2.411 . S
O398 C401 1.320 . S
O399 Cd396 2.333 . S
O399 C401 1.214 . S
O400 Cd396 2.352 . S
O400 C403 1.258 . S
C401 O398 1.320 . S
C401 O399 1.214 . S
O402 Cd394 2.277 . S
O402 C397 1.209 . S
C403 O400 1.258 . S
C403 O405 1.282 . S
O404 Cd396 2.277 . S
O404 C397 1.226 . S
O405 Cd396 2.356 . S
O405 C403 1.282 . S
C406 O407 1.306 . S
C406 O409 1.160 . S
O407 C406 1.306 . S
O407 Cd408 2.228 . S
Cd408 O407 2.228 . S
Cd408 O412 2.273 . S
Cd408 O416 2.277 . S
O409 C406 1.160 . S
O409 Cd410 2.203 . S
Cd410 O409 2.203 . S
Cd410 O412 2.411 . S
Cd410 O413 2.333 . S
Cd410 O414 2.352 . S
Cd410 O418 2.277 . S
Cd410 O419 2.356 . S
C411 O416 1.209 . S
C411 O418 1.226 . S
O412 Cd408 2.273 . S
O412 Cd410 2.411 . S
O412 C415 1.320 . S
O413 Cd410 2.333 . S
O413 C415 1.214 . S
O414 Cd410 2.352 . S
O414 C417 1.258 . S
C415 O412 1.320 . S
C415 O413 1.214 . S
O416 Cd408 2.277 . S
O416 C411 1.209 . S
C417 O414 1.258 . S
C417 O419 1.282 . S
O418 Cd410 2.277 . S
O418 C411 1.226 . S
O419 Cd410 2.356 . S
O419 C417 1.282 . S
C420 O421 1.306 . S
C420 O423 1.160 . S
O421 C420 1.306 . S
O421 Cd422 2.228 . S
Cd422 O421 2.228 . S
Cd422 O426 2.273 . S
Cd422 O430 2.277 . S
O423 C420 1.160 . S
O423 Cd424 2.203 . S
Cd424 O423 2.203 . S
Cd424 O426 2.411 . S
Cd424 O427 2.333 . S
Cd424 O428 2.352 . S
Cd424 O432 2.277 . S
Cd424 O433 2.356 . S
C425 O430 1.209 . S
C425 O432 1.226 . S
O426 Cd422 2.273 . S
O426 Cd424 2.411 . S
O426 C429 1.320 . S
O427 Cd424 2.333 . S
O427 C429 1.214 . S
O428 Cd424 2.352 . S
O428 C431 1.258 . S
C429 O426 1.320 . S
C429 O427 1.214 . S
O430 Cd422 2.277 . S
O430 C425 1.209 . S
C431 O428 1.258 . S
C431 O433 1.282 . S
O432 Cd424 2.277 . S
O432 C425 1.226 . S
O433 Cd424 2.356 . S
O433 C431 1.282 . S
C434 O435 1.306 . S
C434 O437 1.160 . S
O435 C434 1.306 . S
O435 Cd436 2.228 . S
Cd436 O435 2.228 . S
Cd436 O440 2.273 . S
Cd436 O444 2.277 . S
O437 C434 1.160 . S
O437 Cd438 2.203 . S
Cd438 O437 2.203 . S
Cd438 O440 2.411 . S
Cd438 O441 2.333 . S
Cd438 O442 2.352 . S
Cd438 O446 2.277 . S
Cd438 O447 2.356 . S
C439 O444 1.209 . S
C439 O446 1.226 . S
O440 Cd436 2.273 . S
O440 Cd438 2.411 . S
O440 C443 1.320 . S
O441 Cd438 2.333 . S
O441 C443 1.214 . S
O442 Cd438 2.352 . S
O442 C445 1.258 . S
C443 O440 1.320 . S
C443 O441 1.214 . S
O444 Cd436 2.277 . S
O444 C439 1.209 . S
C445 O442 1.258 . S
C445 O447 1.282 . S
O446 Cd438 2.277 . S
O446 C439 1.226 . S
O447 Cd438 2.356 . S
O447 C445 1.282 . S
C448 O449 1.306 . S
C448 O451 1.160 . S
O449 C448 1.306 . S
O449 Cd450 2.228 . S
Cd450 O449 2.228 . S
Cd450 O454 2.273 . S
Cd450 O458 2.277 . S
O451 C448 1.160 . S
O451 Cd452 2.203 . S
Cd452 O451 2.203 . S
Cd452 O454 2.411 . S
Cd452 O455 2.333 . S
Cd452 O456 2.352 . S
Cd452 O460 2.277 . S
Cd452 O461 2.356 . S
C453 O458 1.209 . S
C453 O460 1.226 . S
O454 Cd450 2.273 . S
O454 Cd452 2.411 . S
O454 C457 1.320 . S
O455 Cd452 2.333 . S
O455 C457 1.214 . S
O456 Cd452 2.352 . S
O456 C459 1.258 . S
C457 O454 1.320 . S
C457 O455 1.214 . S
O458 Cd450 2.277 . S
O458 C453 1.209 . S
C459 O456 1.258 . S
C459 O461 1.282 . S
O460 Cd452 2.277 . S
O460 C453 1.226 . S
O461 Cd452 2.356 . S
O461 C459 1.282 . S
C462 O463 1.306 . S
C462 O465 1.160 . S
O463 C462 1.306 . S
O463 Cd464 2.228 . S
Cd464 O463 2.228 . S
Cd464 O468 2.273 . S
Cd464 O472 2.277 . S
O465 C462 1.160 . S
O465 Cd466 2.203 . S
Cd466 O465 2.203 . S
Cd466 O468 2.411 . S
Cd466 O469 2.333 . S
Cd466 O470 2.352 . S
Cd466 O474 2.277 . S
Cd466 O475 2.356 . S
C467 O472 1.209 . S
C467 O474 1.226 . S
O468 Cd464 2.273 . S
O468 Cd466 2.411 . S
O468 C471 1.320 . S
O469 Cd466 2.333 . S
O469 C471 1.214 . S
O470 Cd466 2.352 . S
O470 C473 1.258 . S
C471 O468 1.320 . S
C471 O469 1.214 . S
O472 Cd464 2.277 . S
O472 C467 1.209 . S
C473 O470 1.258 . S
C473 O475 1.282 . S
O474 Cd466 2.277 . S
O474 C467 1.226 . S
O475 Cd466 2.356 . S
O475 C473 1.282 . S
C476 O477 1.306 . S
C476 O479 1.160 . S
O477 C476 1.306 . S
O477 Cd478 2.228 . S
Cd478 O477 2.228 . S
Cd478 O482 2.273 . S
Cd478 O486 2.277 . S
O479 C476 1.160 . S
O479 Cd480 2.203 . S
Cd480 O479 2.203 . S
Cd480 O482 2.411 . S
Cd480 O483 2.333 . S
Cd480 O484 2.352 . S
Cd480 O488 2.277 . S
Cd480 O489 2.356 . S
C481 O486 1.209 . S
C481 O488 1.226 . S
O482 Cd478 2.273 . S
O482 Cd480 2.411 . S
O482 C485 1.320 . S
O483 Cd480 2.333 . S
O483 C485 1.214 . S
O484 Cd480 2.352 . S
O484 C487 1.258 . S
C485 O482 1.320 . S
C485 O483 1.214 . S
O486 Cd478 2.277 . S
O486 C481 1.209 . S
C487 O484 1.258 . S
C487 O489 1.282 . S
O488 Cd480 2.277 . S
O488 C481 1.226 . S
O489 Cd480 2.356 . S
O489 C487 1.282 . S
C490 O491 1.306 . S
C490 O493 1.160 . S
O491 C490 1.306 . S
O491 Cd492 2.228 . S
Cd492 O491 2.228 . S
Cd492 O496 2.273 . S
Cd492 O500 2.277 . S
O493 C490 1.160 . S
O493 Cd494 2.203 . S
Cd494 O493 2.203 . S
Cd494 O496 2.411 . S
Cd494 O497 2.333 . S
Cd494 O498 2.352 . S
Cd494 O502 2.277 . S
Cd494 O503 2.356 . S
C495 O500 1.209 . S
C495 O502 1.226 . S
O496 Cd492 2.273 . S
O496 Cd494 2.411 . S
O496 C499 1.320 . S
O497 Cd494 2.333 . S
O497 C499 1.214 . S
O498 Cd494 2.352 . S
O498 C501 1.258 . S
C499 O496 1.320 . S
C499 O497 1.214 . S
O500 Cd492 2.277 . S
O500 C495 1.209 . S
C501 O498 1.258 . S
C501 O503 1.282 . S
O502 Cd494 2.277 . S
O502 C495 1.226 . S
O503 Cd494 2.356 . S
O503 C501 1.282 . S
C504 O505 1.306 . S
C504 O507 1.160 . S
O505 C504 1.306 . S
O505 Cd506 2.228 . S
Cd506 O505 2.228 . S
Cd506 O510 2.273 . S
Cd506 O514 2.277 . S
O507 C504 1.160 . S
O507 Cd508 2.203 . S
Cd508 O507 2.203 . S
Cd508 O510 2.411 . S
Cd508 O511 2.333 . S
Cd508 O512 2.352 . S
Cd508 O516 2.277 . S
Cd508 O517 2.356 . S
C509 O514 1.209 . S
C509 O516 1.226 . S
O510 Cd506 2.273 . S
O510 Cd508 2.411 . S
O510 C513 1.320 . S
O511 Cd508 2.333 . S
O511 C513 1.214 . S
O512 Cd508 2.352 . S
O512 C515 1.258 . S
C513 O510 1.320 . S
C513 O511 1.214 . S
O514 Cd506 2.277 . S
O514 C509 1.209 . S
C515 O512 1.258 . S
C515 O517 1.282 . S
O516 Cd508 2.277 . S
O516 C509 1.226 . S
O517 Cd508 2.356 . S
O517 C515 1.282 . S
C518 O519 1.306 . S
C518 O521 1.160 . S
O519 C518 1.306 . S
O519 Cd520 2.228 . S
Cd520 O519 2.228 . S
Cd520 O524 2.273 . S
Cd520 O528 2.277 . S
O521 C518 1.160 . S
O521 Cd522 2.203 . S
Cd522 O521 2.203 . S
Cd522 O524 2.411 . S
Cd522 O525 2.333 . S
Cd522 O526 2.352 . S
Cd522 O530 2.277 . S
Cd522 O531 2.356 . S
C523 O528 1.209 . S
C523 O530 1.226 . S
O524 Cd520 2.273 . S
O524 Cd522 2.411 . S
O524 C527 1.320 . S
O525 Cd522 2.333 . S
O525 C527 1.214 . S
O526 Cd522 2.352 . S
O526 C529 1.258 . S
C527 O524 1.320 . S
C527 O525 1.214 . S
O528 Cd520 2.277 . S
O528 C523 1.209 . S
C529 O526 1.258 . S
C529 O531 1.282 . S
O530 Cd522 2.277 . S
O530 C523 1.226 . S
O531 Cd522 2.356 . S
O531 C529 1.282 . S
C532 O533 1.306 . S
C532 O535 1.160 . S
O533 C532 1.306 . S
O533 Cd534 2.228 . S
Cd534 O533 2.228 . S
Cd534 O538 2.273 . S
Cd534 O542 2.277 . S
O535 C532 1.160 . S
O535 Cd536 2.203 . S
Cd536 O535 2.203 . S
Cd536 O538 2.411 . S
Cd536 O539 2.333 . S
Cd536 O540 2.352 . S
Cd536 O544 2.277 . S
Cd536 O545 2.356 . S
C537 O542 1.209 . S
C537 O544 1.226 . S
O538 Cd534 2.273 . S
O538 Cd536 2.411 . S
O538 C541 1.320 . S
O539 Cd536 2.333 . S
O539 C541 1.214 . S
O540 Cd536 2.352 . S
O540 C543 1.258 . S
C541 O538 1.320 . S
C541 O539 1.214 . S
O542 Cd534 2.277 . S
O542 C537 1.209 . S
C543 O540 1.258 . S
C543 O545 1.282 . S
O544 Cd536 2.277 . S
O544 C537 1.226 . S
O545 Cd536 2.356 . S
O545 C543 1.282 . S
C546 O547 1.306 . S
C546 O549 1.160 . S
O547 C546 1.306 . S
O547 Cd548 2.228 . S
Cd548 O547 2.228 . S
Cd548 O552 2.273 . S
Cd548 O556 2.277 . S
O549 C546 1.160 . S
O549 Cd550 2.203 . S
Cd550 O549 2.203 . S
Cd550 O552 2.411 . S
Cd550 O553 2.333 . S
Cd550 O554 2.352 . S
Cd550 O558 2.277 . S
Cd550 O559 2.356 . S
C551 O556 1.209 . S
C551 O558 1.226 . S
O552 Cd548 2.273 . S
O552 Cd550 2.411 . S
O552 C555 1.320 . S
O553 Cd550 2.333 . S
O553 C555 1.214 . S
O554 Cd550 2.352 . S
O554 C557 1.258 . S
C555 O552 1.320 . S
C555 O553 1.214 . S
O556 Cd548 2.277 . S
O556 C551 1.209 . S
C557 O554 1.258 . S
C557 O559 1.282 . S
O558 Cd550 2.277 . S
O558 C551 1.226 . S
O559 Cd550 2.356 . S
O559 C557 1.282 . S
C560 O561 1.306 . S
C560 O563 1.160 . S
O561 C560 1.306 . S
O561 Cd562 2.228 . S
Cd562 O561 2.228 . S
Cd562 O566 2.273 . S
Cd562 O570 2.277 . S
O563 C560 1.160 . S
O563 Cd564 2.203 . S
Cd564 O563 2.203 . S
Cd564 O566 2.411 . S
Cd564 O567 2.333 . S
Cd564 O568 2.352 . S
Cd564 O572 2.277 . S
Cd564 O573 2.356 . S
C565 O570 1.209 . S
C565 O572 1.226 . S
O566 Cd562 2.273 . S
O566 Cd564 2.411 . S
O566 C569 1.320 . S
O567 Cd564 2.333 . S
O567 C569 1.214 . S
O568 Cd564 2.352 . S
O568 C571 1.258 . S
C569 O566 1.320 . S
C569 O567 1.214 . S
O570 Cd562 2.277 . S
O570 C565 1.209 . S
C571 O568 1.258 . S
C571 O573 1.282 . S
O572 Cd564 2.277 . S
O572 C565 1.226 . S
O573 Cd564 2.356 . S
O573 C571 1.282 . S
C574 O575 1.306 . S
C574 O577 1.160 . S
O575 C574 1.306 . S
O575 Cd576 2.228 . S
Cd576 O575 2.228 . S
Cd576 O580 2.273 . S
Cd576 O584 2.277 . S
O577 C574 1.160 . S
O577 Cd578 2.203 . S
Cd578 O577 2.203 . S
Cd578 O580 2.411 . S
Cd578 O581 2.333 . S
Cd578 O582 2.352 . S
Cd578 O586 2.277 . S
Cd578 O587 2.356 . S
C579 O584 1.209 . S
C579 O586 1.226 . S
O580 Cd576 2.273 . S
O580 Cd578 2.411 . S
O580 C583 1.320 . S
O581 Cd578 2.333 . S
O581 C583 1.214 . S
O582 Cd578 2.352 . S
O582 C585 1.258 . S
C583 O580 1.320 . S
C583 O581 1.214 . S
O584 Cd576 2.277 . S
O584 C579 1.209 . S
C585 O582 1.258 . S
C585 O587 1.282 . S
O586 Cd578 2.277 . S
O586 C579 1.226 . S
O587 Cd578 2.356 . S
O587 C585 1.282 . S
C588 O589 1.306 . S
C588 O591 1.160 . S
O589 C588 1.306 . S
O589 Cd590 2.228 . S
Cd590 O589 2.228 . S
Cd590 O594 2.273 . S
Cd590 O598 2.277 . S
O591 C588 1.160 . S
O591 Cd592 2.203 . S
Cd592 O591 2.203 . S
Cd592 O594 2.411 . S
Cd592 O595 2.333 . S
Cd592 O596 2.352 . S
Cd592 O600 2.277 . S
Cd592 O601 2.356 . S
C593 O598 1.209 . S
C593 O600 1.226 . S
O594 Cd590 2.273 . S
O594 Cd592 2.411 . S
O594 C597 1.320 . S
O595 Cd592 2.333 . S
O595 C597 1.214 . S
O596 Cd592 2.352 . S
O596 C599 1.258 . S
C597 O594 1.320 . S
C597 O595 1.214 . S
O598 Cd590 2.277 . S
O598 C593 1.209 . S
C599 O596 1.258 . S
C599 O601 1.282 . S
O600 Cd592 2.277 . S
O600 C593 1.226 . S
O601 Cd592 2.356 . S
O601 C599 1.282 . S
C602 O603 1.306 . S
C602 O605 1.160 . S
O603 C602 1.306 . S
O603 Cd604 2.228 . S
Cd604 O603 2.228 . S
Cd604 O608 2.273 . S
Cd604 O612 2.277 . S
O605 C602 1.160 . S
O605 Cd606 2.203 . S
Cd606 O605 2.203 . S
Cd606 O608 2.411 . S
Cd606 O609 2.333 . S
Cd606 O610 2.352 . S
Cd606 O614 2.277 . S
Cd606 O615 2.356 . S
C607 O612 1.209 . S
C607 O614 1.226 . S
O608 Cd604 2.273 . S
O608 Cd606 2.411 . S
O608 C611 1.320 . S
O609 Cd606 2.333 . S
O609 C611 1.214 . S
O610 Cd606 2.352 . S
O610 C613 1.258 . S
C611 O608 1.320 . S
C611 O609 1.214 . S
O612 Cd604 2.277 . S
O612 C607 1.209 . S
C613 O610 1.258 . S
C613 O615 1.282 . S
O614 Cd606 2.277 . S
O614 C607 1.226 . S
O615 Cd606 2.356 . S
O615 C613 1.282 . S
C616 O617 1.306 . S
C616 O619 1.160 . S
O617 C616 1.306 . S
O617 Cd618 2.228 . S
Cd618 O617 2.228 . S
Cd618 O622 2.273 . S
Cd618 O626 2.277 . S
O619 C616 1.160 . S
O619 Cd620 2.203 . S
Cd620 O619 2.203 . S
Cd620 O622 2.411 . S
Cd620 O623 2.333 . S
Cd620 O624 2.352 . S
Cd620 O628 2.277 . S
Cd620 O629 2.356 . S
C621 O626 1.209 . S
C621 O628 1.226 . S
O622 Cd618 2.273 . S
O622 Cd620 2.411 . S
O622 C625 1.320 . S
O623 Cd620 2.333 . S
O623 C625 1.214 . S
O624 Cd620 2.352 . S
O624 C627 1.258 . S
C625 O622 1.320 . S
C625 O623 1.214 . S
O626 Cd618 2.277 . S
O626 C621 1.209 . S
C627 O624 1.258 . S
C627 O629 1.282 . S
O628 Cd620 2.277 . S
O628 C621 1.226 . S
O629 Cd620 2.356 . S
O629 C627 1.282 . S
C630 O631 1.306 . S
C630 O633 1.160 . S
O631 C630 1.306 . S
O631 Cd632 2.228 . S
Cd632 O631 2.228 . S
Cd632 O636 2.273 . S
Cd632 O640 2.277 . S
O633 C630 1.160 . S
O633 Cd634 2.203 . S
Cd634 O633 2.203 . S
Cd634 O636 2.411 . S
Cd634 O637 2.333 . S
Cd634 O638 2.352 . S
Cd634 O642 2.277 . S
Cd634 O643 2.356 . S
C635 O640 1.209 . S
C635 O642 1.226 . S
O636 Cd632 2.273 . S
O636 Cd634 2.411 . S
O636 C639 1.320 . S
O637 Cd634 2.333 . S
O637 C639 1.214 . S
O638 Cd634 2.352 . S
O638 C641 1.258 . S
C639 O636 1.320 . S
C639 O637 1.214 . S
O640 Cd632 2.277 . S
O640 C635 1.209 . S
C641 O638 1.258 . S
C641 O643 1.282 . S
O642 Cd634 2.277 . S
O642 C635 1.226 . S
O643 Cd634 2.356 . S
O643 C641 1.282 . S
C644 O645 1.306 . S
C644 O647 1.160 . S
O645 C644 1.306 . S
O645 Cd646 2.228 . S
Cd646 O645 2.228 . S
Cd646 O650 2.273 . S
Cd646 O654 2.277 . S
O647 C644 1.160 . S
O647 Cd648 2.203 . S
Cd648 O647 2.203 . S
Cd648 O650 2.411 . S
Cd648 O651 2.333 . S
Cd648 O652 2.352 . S
Cd648 O656 2.277 . S
Cd648 O657 2.356 . S
C649 O654 1.209 . S
C649 O656 1.226 . S
O650 Cd646 2.273 . S
O650 Cd648 2.411 . S
O650 C653 1.320 . S
O651 Cd648 2.333 . S
O651 C653 1.214 . S
O652 Cd648 2.352 . S
O652 C655 1.258 . S
C653 O650 1.320 . S
C653 O651 1.214 . S
O654 Cd646 2.277 . S
O654 C649 1.209 . S
C655 O652 1.258 . S
C655 O657 1.282 . S
O656 Cd648 2.277 . S
O656 C649 1.226 . S
O657 Cd648 2.356 . S
O657 C655 1.282 . S
C658 O659 1.306 . S
C658 O661 1.160 . S
O659 C658 1.306 . S
O659 Cd660 2.228 . S
Cd660 O659 2.228 . S
Cd660 O664 2.273 . S
Cd660 O668 2.277 . S
O661 C658 1.160 . S
O661 Cd662 2.203 . S
Cd662 O661 2.203 . S
Cd662 O664 2.411 . S
Cd662 O665 2.333 . S
Cd662 O666 2.352 . S
Cd662 O670 2.277 . S
Cd662 O671 2.356 . S
C663 O668 1.209 . S
C663 O670 1.226 . S
O664 Cd660 2.273 . S
O664 Cd662 2.411 . S
O664 C667 1.320 . S
O665 Cd662 2.333 . S
O665 C667 1.214 . S
O666 Cd662 2.352 . S
O666 C669 1.258 . S
C667 O664 1.320 . S
C667 O665 1.214 . S
O668 Cd660 2.277 . S
O668 C663 1.209 . S
C669 O666 1.258 . S
C669 O671 1.282 . S
O670 Cd662 2.277 . S
O670 C663 1.226 . S
O671 Cd662 2.356 . S
O671 C669 1.282 . S
C672 C673 1.349 . S
C672 C674 1.327 . S
C672 H697 0.950 . S
C673 C672 1.349 . S
C673 C689 1.349 . S
C674 C672 1.327 . S
C674 C693 1.429 . S
C674 H698 0.950 1_655 S
C675 C692 1.574 . S
C675 C694 1.368 . S
C675 H699 0.949 . S
H676 C680 0.949 . S
C677 C678 1.349 . S
C677 C679 1.327 . S
C677 H700 0.950 . S
C678 C677 1.349 . S
C678 C690 1.349 . S
C679 C677 1.327 . S
C679 C695 1.429 . S
C679 H701 0.950 1_455 S
C680 H676 0.949 . S
C680 C688 1.574 . S
C680 C696 1.368 . S
H681 C689 0.950 . S
H682 C687 0.950 . S
H683 C688 0.949 . S
H684 C690 0.950 . S
H685 C691 0.950 . S
H686 C692 0.949 . S
C687 H682 0.950 . S
C687 C689 1.327 . S
C687 C693 1.429 . S
C688 C680 1.574 . S
C688 H683 0.949 . S
C688 C694 1.368 1_455 S
C689 C673 1.349 . S
C689 H681 0.950 . S
C689 C687 1.327 . S
C690 C678 1.349 . S
C690 H684 0.950 . S
C690 C691 1.327 . S
C691 H685 0.950 . S
C691 C690 1.327 . S
C691 C695 1.429 . S
C692 C675 1.574 . S
C692 H686 0.949 . S
C692 C696 1.368 1_655 S
C693 C674 1.429 . S
C693 C687 1.429 . S
C693 C694 1.523 . S
C694 C675 1.368 . S
C694 C688 1.368 1_655 S
C694 C693 1.523 . S
C695 C679 1.429 . S
C695 C691 1.429 . S
C695 C696 1.523 . S
C696 C680 1.368 . S
C696 C692 1.368 1_455 S
C696 C695 1.523 . S
H697 C672 0.950 . S
H698 C674 0.950 1_455 S
H699 C675 0.949 . S
H700 C677 0.950 . S
H701 C679 0.950 1_655 S
C702 C703 1.349 . S
C702 C704 1.327 . S
C702 H727 0.950 . S
C703 C702 1.349 . S
C703 C719 1.349 . S
C704 C702 1.327 . S
C704 C723 1.429 . S
C704 H728 0.950 1_455 S
C705 C722 1.574 . S
C705 C724 1.368 . S
C705 H729 0.949 . S
H706 C710 0.949 . S
C707 C708 1.349 . S
C707 C709 1.327 . S
C707 H730 0.950 . S
C708 C707 1.349 . S
C708 C720 1.349 . S
C709 C707 1.327 . S
C709 C725 1.429 . S
C709 H731 0.950 1_655 S
C710 H706 0.949 . S
C710 C718 1.574 . S
C710 C726 1.368 . S
H711 C719 0.950 . S
H712 C717 0.950 . S
H713 C718 0.949 . S
H714 C720 0.950 . S
H715 C721 0.950 . S
H716 C722 0.949 . S
C717 H712 0.950 . S
C717 C719 1.327 . S
C717 C723 1.429 . S
C718 C710 1.574 . S
C718 H713 0.949 . S
C718 C724 1.368 1_655 S
C719 C703 1.349 . S
C719 H711 0.950 . S
C719 C717 1.327 . S
C720 C708 1.349 . S
C720 H714 0.950 . S
C720 C721 1.327 . S
C721 H715 0.950 . S
C721 C720 1.327 . S
C721 C725 1.429 . S
C722 C705 1.574 . S
C722 H716 0.949 . S
C722 C726 1.368 1_455 S
C723 C704 1.429 . S
C723 C717 1.429 . S
C723 C724 1.523 . S
C724 C705 1.368 . S
C724 C718 1.368 1_455 S
C724 C723 1.523 . S
C725 C709 1.429 . S
C725 C721 1.429 . S
C725 C726 1.523 . S
C726 C710 1.368 . S
C726 C722 1.368 1_655 S
C726 C725 1.523 . S
H727 C702 0.950 . S
H728 C704 0.950 1_655 S
H729 C705 0.949 . S
H730 C707 0.950 . S
H731 C709 0.950 1_455 S
C732 C733 1.349 . S
C732 C734 1.327 . S
C732 H757 0.950 . S
C733 C732 1.349 . S
C733 C749 1.349 . S
C734 C732 1.327 . S
C734 C753 1.429 . S
C734 H758 0.950 . S
C735 C752 1.574 . S
C735 C754 1.368 1_545 S
C735 H759 0.949 . S
H736 C740 0.949 . S
C737 C738 1.349 . S
C737 C739 1.327 . S
C737 H760 0.950 . S
C738 C737 1.349 . S
C738 C750 1.349 . S
C739 C737 1.327 . S
C739 C755 1.429 . S
C739 H761 0.950 . S
C740 H736 0.949 . S
C740 C748 1.574 . S
C740 C756 1.368 1_565 S
H741 C749 0.971 . S
H742 C747 0.950 1_545 S
H743 C748 0.949 . S
H744 C750 0.971 . S
H745 C751 0.950 1_565 S
H746 C752 0.949 . S
C747 H742 0.950 1_565 S
C747 C749 1.327 . S
C747 C753 1.429 . S
C748 C740 1.574 . S
C748 H743 0.949 . S
C748 C754 1.368 . S
C749 C733 1.349 . S
C749 H741 0.971 . S
C749 C747 1.327 . S
C750 C738 1.349 . S
C750 H744 0.971 . S
C750 C751 1.327 . S
C751 H745 0.950 1_545 S
C751 C750 1.327 . S
C751 C755 1.429 . S
C752 C735 1.574 . S
C752 H746 0.949 . S
C752 C756 1.368 . S
C753 C734 1.429 . S
C753 C747 1.429 . S
C753 C754 1.523 . S
C754 C735 1.368 1_565 S
C754 C748 1.368 . S
C754 C753 1.523 . S
C755 C739 1.429 . S
C755 C751 1.429 . S
C755 C756 1.523 . S
C756 C740 1.368 1_545 S
C756 C752 1.368 . S
C756 C755 1.523 . S
H757 C732 0.950 . S
H758 C734 0.950 . S
H759 C735 0.949 . S
H760 C737 0.950 . S
H761 C739 0.950 . S
C762 C763 1.349 . S
C762 C764 1.327 . S
C762 H787 0.950 . S
C763 C762 1.349 . S
C763 C779 1.349 . S
C764 C762 1.327 . S
C764 C783 1.429 . S
C764 H788 0.950 . S
C765 C782 1.574 . S
C765 C784 1.368 . S
C765 H789 0.949 . S
H766 C770 0.949 . S
C767 C768 1.349 . S
C767 C769 1.327 . S
C767 H790 0.950 . S
C768 C767 1.349 . S
C768 C780 1.349 . S
C769 C767 1.327 . S
C769 C785 1.429 . S
C769 H791 0.950 . S
C770 H766 0.949 . S
C770 C778 1.574 . S
C770 C786 1.368 . S
H771 C779 0.950 . S
H772 C777 0.950 . S
H773 C778 0.949 . S
H774 C780 0.950 . S
H775 C781 0.950 . S
H776 C782 0.949 . S
C777 H772 0.950 . S
C777 C779 1.327 . S
C777 C783 1.429 . S
C778 C770 1.574 . S
C778 H773 0.949 . S
C778 C784 1.368 . S
C779 C763 1.349 . S
C779 H771 0.950 . S
C779 C777 1.327 . S
C780 C768 1.349 . S
C780 H774 0.950 . S
C780 C781 1.327 . S
C781 H775 0.950 . S
C781 C780 1.327 . S
C781 C785 1.429 . S
C782 C765 1.574 . S
C782 H776 0.949 . S
C782 C786 1.368 . S
C783 C764 1.429 . S
C783 C777 1.429 . S
C783 C784 1.523 . S
C784 C765 1.368 . S
C784 C778 1.368 . S
C784 C783 1.523 . S
C785 C769 1.429 . S
C785 C781 1.429 . S
C785 C786 1.523 . S
C786 C770 1.368 . S
C786 C782 1.368 . S
C786 C785 1.523 . S
H787 C762 0.950 . S
H788 C764 0.950 . S
H789 C765 0.949 . S
H790 C767 0.950 . S
H791 C769 0.950 . S
C792 C793 1.349 . S
C792 C794 1.327 . S
C792 H817 0.950 . S
C793 C792 1.349 . S
C793 C809 1.349 . S
C794 C792 1.327 . S
C794 C813 1.429 . S
C794 H818 0.950 1_554 S
C795 C812 1.574 . S
C795 C814 1.368 . S
C795 H819 0.949 . S
H796 C800 0.949 . S
C797 C798 1.349 . S
C797 C799 1.327 . S
C797 H820 0.950 . S
C798 C797 1.349 . S
C798 C810 1.349 . S
C799 C797 1.327 . S
C799 C815 1.429 . S
C799 H821 0.950 1_556 S
C800 H796 0.949 . S
C800 C808 1.574 . S
C800 C816 1.368 . S
H801 C809 0.950 . S
H802 C807 0.950 . S
H803 C808 0.949 . S
H804 C810 0.950 . S
H805 C811 0.950 . S
H806 C812 0.949 . S
C807 H802 0.950 . S
C807 C809 1.327 . S
C807 C813 1.429 . S
C808 C800 1.574 . S
C808 H803 0.949 . S
C808 C814 1.368 1_556 S
C809 C793 1.349 . S
C809 H801 0.950 . S
C809 C807 1.327 . S
C810 C798 1.349 . S
C810 H804 0.950 . S
C810 C811 1.327 . S
C811 H805 0.950 . S
C811 C810 1.327 . S
C811 C815 1.429 . S
C812 C795 1.574 . S
C812 H806 0.949 . S
C812 C816 1.368 1_554 S
C813 C794 1.429 . S
C813 C807 1.429 . S
C813 C814 1.523 . S
C814 C795 1.368 . S
C814 C808 1.368 1_554 S
C814 C813 1.523 . S
C815 C799 1.429 . S
C815 C811 1.429 . S
C815 C816 1.523 . S
C816 C800 1.368 . S
C816 C812 1.368 1_556 S
C816 C815 1.523 . S
H817 C792 0.950 . S
H818 C794 0.950 1_556 S
H819 C795 0.949 . S
H820 C797 0.950 . S
H821 C799 0.950 1_554 S
C822 C823 1.349 . S
C822 C824 1.327 . S
C822 H847 0.950 . S
C823 C822 1.349 . S
C823 C839 1.349 . S
C824 C822 1.327 . S
C824 C843 1.429 . S
C824 H848 0.950 . S
C825 C842 1.574 . S
C825 C844 1.368 . S
C825 H849 0.949 . S
H826 C830 0.949 . S
C827 C828 1.349 . S
C827 C829 1.327 . S
C827 H850 0.950 . S
C828 C827 1.349 . S
C828 C840 1.349 . S
C829 C827 1.327 . S
C829 C845 1.429 . S
C829 H851 0.950 . S
C830 H826 0.949 . S
C830 C838 1.574 . S
C830 C846 1.368 . S
H831 C839 0.950 . S
H832 C837 0.950 . S
H833 C838 0.949 . S
H834 C840 0.950 . S
H835 C841 0.950 . S
H836 C842 0.949 . S
C837 H832 0.950 . S
C837 C839 1.327 . S
C837 C843 1.429 . S
C838 C830 1.574 . S
C838 H833 0.949 . S
C838 C844 1.368 . S
C839 C823 1.349 . S
C839 H831 0.950 . S
C839 C837 1.327 . S
C840 C828 1.349 . S
C840 H834 0.950 . S
C840 C841 1.327 . S
C841 H835 0.950 . S
C841 C840 1.327 . S
C841 C845 1.429 . S
C842 C825 1.574 . S
C842 H836 0.949 . S
C842 C846 1.368 . S
C843 C824 1.429 . S
C843 C837 1.429 . S
C843 C844 1.523 . S
C844 C825 1.368 . S
C844 C838 1.368 . S
C844 C843 1.523 . S
C845 C829 1.429 . S
C845 C841 1.429 . S
C845 C846 1.523 . S
C846 C830 1.368 . S
C846 C842 1.368 . S
C846 C845 1.523 . S
H847 C822 0.950 . S
H848 C824 0.950 . S
H849 C825 0.949 . S
H850 C827 0.950 . S
H851 C829 0.950 . S
C852 C853 1.349 . S
C852 C854 1.327 . S
C852 H877 0.950 . S
C853 C852 1.349 . S
C853 C869 1.349 . S
C854 C852 1.327 . S
C854 C873 1.429 . S
C854 H878 0.950 . S
C855 C872 1.574 . S
C855 C874 1.368 . S
C855 H879 0.949 . S
H856 C860 0.949 . S
C857 C858 1.349 . S
C857 C859 1.327 . S
C857 H880 0.950 . S
C858 C857 1.349 . S
C858 C870 1.349 . S
C859 C857 1.327 . S
C859 C875 1.429 . S
C859 H881 0.950 . S
C860 H856 0.949 . S
C860 C868 1.574 . S
C860 C876 1.368 . S
H861 C869 0.950 . S
H862 C867 0.950 . S
H863 C868 0.949 . S
H864 C870 0.950 . S
H865 C871 0.950 . S
H866 C872 0.949 . S
C867 H862 0.950 . S
C867 C869 1.327 . S
C867 C873 1.429 . S
C868 C860 1.574 . S
C868 H863 0.949 . S
C868 C874 1.368 . S
C869 C853 1.349 . S
C869 H861 0.950 . S
C869 C867 1.327 . S
C870 C858 1.349 . S
C870 H864 0.950 . S
C870 C871 1.327 . S
C871 H865 0.950 . S
C871 C870 1.327 . S
C871 C875 1.429 . S
C872 C855 1.574 . S
C872 H866 0.949 . S
C872 C876 1.368 . S
C873 C854 1.429 . S
C873 C867 1.429 . S
C873 C874 1.523 . S
C874 C855 1.368 . S
C874 C868 1.368 . S
C874 C873 1.523 . S
C875 C859 1.429 . S
C875 C871 1.429 . S
C875 C876 1.523 . S
C876 C860 1.368 . S
C876 C872 1.368 . S
C876 C875 1.523 . S
H877 C852 0.950 . S
H878 C854 0.950 . S
H879 C855 0.949 . S
H880 C857 0.950 . S
H881 C859 0.950 . S
C882 C883 1.349 . S
C882 C884 1.327 . S
C882 H907 0.950 . S
C883 C882 1.349 . S
C883 C899 1.349 . S
C884 C882 1.327 . S
C884 C903 1.429 . S
C884 H908 0.950 . S
C885 C902 1.574 . S
C885 C904 1.368 1_655 S
C885 H909 0.949 . S
H886 C890 0.949 . S
C887 C888 1.349 . S
C887 C889 1.327 . S
C887 H910 0.950 . S
C888 C887 1.349 . S
C888 C900 1.349 . S
C889 C887 1.327 . S
C889 C905 1.429 . S
C889 H911 0.950 . S
C890 H886 0.949 . S
C890 C898 1.574 . S
C890 C906 1.368 1_455 S
H891 C899 0.950 . S
H892 C897 0.950 1_655 S
H893 C898 0.949 . S
H894 C900 0.950 . S
H895 C901 0.950 1_455 S
H896 C902 0.949 . S
C897 H892 0.950 1_455 S
C897 C899 1.327 . S
C897 C903 1.429 . S
C898 C890 1.574 . S
C898 H893 0.949 . S
C898 C904 1.368 . S
C899 C883 1.349 . S
C899 H891 0.950 . S
C899 C897 1.327 . S
C900 C888 1.349 . S
C900 H894 0.950 . S
C900 C901 1.327 . S
C901 H895 0.950 1_655 S
C901 C900 1.327 . S
C901 C905 1.429 . S
C902 C885 1.574 . S
C902 H896 0.949 . S
C902 C906 1.368 . S
C903 C884 1.429 . S
C903 C897 1.429 . S
C903 C904 1.523 . S
C904 C885 1.368 1_455 S
C904 C898 1.368 . S
C904 C903 1.523 . S
C905 C889 1.429 . S
C905 C901 1.429 . S
C905 C906 1.523 . S
C906 C890 1.368 1_655 S
C906 C902 1.368 . S
C906 C905 1.523 . S
H907 C882 0.950 . S
H908 C884 0.950 . S
H909 C885 0.949 . S
H910 C887 0.950 . S
H911 C889 0.950 . S
C912 C913 1.349 . S
C912 C914 1.327 . S
C912 H937 0.950 . S
C913 C912 1.349 . S
C913 C929 1.349 . S
C914 C912 1.327 . S
C914 C933 1.429 . S
C914 H938 0.950 1_455 S
C915 C932 1.574 . S
C915 C934 1.368 . S
C915 H939 0.949 . S
H916 C920 0.949 . S
C917 C918 1.349 . S
C917 C919 1.327 . S
C917 H940 0.950 . S
C918 C917 1.349 . S
C918 C930 1.349 . S
C919 C917 1.327 . S
C919 C935 1.429 . S
C919 H941 0.950 1_655 S
C920 H916 0.949 . S
C920 C928 1.574 . S
C920 C936 1.368 . S
H921 C929 0.950 . S
H922 C927 0.950 . S
H923 C928 0.949 . S
H924 C930 0.950 . S
H925 C931 0.950 . S
H926 C932 0.949 . S
C927 H922 0.950 . S
C927 C929 1.327 . S
C927 C933 1.429 . S
C928 C920 1.574 . S
C928 H923 0.949 . S
C928 C934 1.368 1_655 S
C929 C913 1.349 . S
C929 H921 0.950 . S
C929 C927 1.327 . S
C930 C918 1.349 . S
C930 H924 0.950 . S
C930 C931 1.327 . S
C931 H925 0.950 . S
C931 C930 1.327 . S
C931 C935 1.429 . S
C932 C915 1.574 . S
C932 H926 0.949 . S
C932 C936 1.368 1_455 S
C933 C914 1.429 . S
C933 C927 1.429 . S
C933 C934 1.523 . S
C934 C915 1.368 . S
C934 C928 1.368 1_455 S
C934 C933 1.523 . S
C935 C919 1.429 . S
C935 C931 1.429 . S
C935 C936 1.523 . S
C936 C920 1.368 . S
C936 C932 1.368 1_655 S
C936 C935 1.523 . S
H937 C912 0.950 . S
H938 C914 0.950 1_655 S
H939 C915 0.949 . S
H940 C917 0.950 . S
H941 C919 0.950 1_455 S
C942 C943 1.349 . S
C942 C944 1.327 . S
C942 H967 0.950 . S
C943 C942 1.349 . S
C943 C959 1.349 . S
C944 C942 1.327 . S
C944 C963 1.429 . S
C944 H968 0.950 1_545 S
C945 C962 1.574 . S
C945 C964 1.368 . S
C945 H969 0.949 . S
H946 C950 0.949 . S
C947 C948 1.349 . S
C947 C949 1.327 . S
C947 H970 0.950 . S
C948 C947 1.349 . S
C948 C960 1.349 . S
C949 C947 1.327 . S
C949 C965 1.429 . S
C949 H971 0.950 1_565 S
C950 H946 0.949 . S
C950 C958 1.574 . S
C950 C966 1.368 . S
H951 C959 0.950 . S
H952 C957 0.950 . S
H953 C958 0.949 . S
H954 C960 0.950 . S
H955 C961 0.950 . S
H956 C962 0.949 . S
C957 H952 0.950 . S
C957 C959 1.327 . S
C957 C963 1.429 . S
C958 C950 1.574 . S
C958 H953 0.949 . S
C958 C964 1.368 1_565 S
C959 C943 1.349 . S
C959 H951 0.950 . S
C959 C957 1.327 . S
C960 C948 1.349 . S
C960 H954 0.950 . S
C960 C961 1.327 . S
C961 H955 0.950 . S
C961 C960 1.327 . S
C961 C965 1.429 . S
C962 C945 1.574 . S
C962 H956 0.949 . S
C962 C966 1.368 1_545 S
C963 C944 1.429 . S
C963 C957 1.429 . S
C963 C964 1.523 . S
C964 C945 1.368 . S
C964 C958 1.368 1_545 S
C964 C963 1.523 . S
C965 C949 1.429 . S
C965 C961 1.429 . S
C965 C966 1.523 . S
C966 C950 1.368 . S
C966 C962 1.368 1_565 S
C966 C965 1.523 . S
H967 C942 0.950 . S
H968 C944 0.950 1_565 S
H969 C945 0.949 . S
H970 C947 0.950 . S
H971 C949 0.950 1_545 S
C972 C973 1.349 . S
C972 C974 1.327 . S
C972 H997 0.950 . S
C973 C972 1.349 . S
C973 C989 1.349 . S
C974 C972 1.327 . S
C974 C993 1.429 . S
C974 H998 0.950 . S
C975 C992 1.574 . S
C975 C994 1.368 . S
C975 H999 0.949 . S
H976 C980 0.949 . S
C977 C978 1.349 . S
C977 C979 1.327 . S
C977 H1000 0.950 . S
C978 C977 1.349 . S
C978 C990 1.349 . S
C979 C977 1.327 . S
C979 C995 1.429 . S
C979 H1001 0.950 . S
C980 H976 0.949 . S
C980 C988 1.574 . S
C980 C996 1.368 . S
H981 C989 0.950 . S
H982 C987 0.950 . S
H983 C988 0.949 . S
H984 C990 0.950 . S
H985 C991 0.950 . S
H986 C992 0.949 . S
C987 H982 0.950 . S
C987 C989 1.327 . S
C987 C993 1.429 . S
C988 C980 1.574 . S
C988 H983 0.949 . S
C988 C994 1.368 . S
C989 C973 1.349 . S
C989 H981 0.950 . S
C989 C987 1.327 . S
C990 C978 1.349 . S
C990 H984 0.950 . S
C990 C991 1.327 . S
C991 H985 0.950 . S
C991 C990 1.327 . S
C991 C995 1.429 . S
C992 C975 1.574 . S
C992 H986 0.949 . S
C992 C996 1.368 . S
C993 C974 1.429 . S
C993 C987 1.429 . S
C993 C994 1.523 . S
C994 C975 1.368 . S
C994 C988 1.368 . S
C994 C993 1.523 . S
C995 C979 1.429 . S
C995 C991 1.429 . S
C995 C996 1.523 . S
C996 C980 1.368 . S
C996 C992 1.368 . S
C996 C995 1.523 . S
H997 C972 0.950 . S
H998 C974 0.950 . S
H999 C975 0.949 . S
H1000 C977 0.950 . S
H1001 C979 0.950 . S
C1002 C1003 1.349 . S
C1002 C1004 1.327 . S
C1002 H1027 0.950 . S
C1003 C1002 1.349 . S
C1003 C1019 1.349 . S
C1004 C1002 1.327 . S
C1004 C1023 1.429 . S
C1004 H1028 0.950 . S
C1005 C1022 1.574 . S
C1005 C1024 1.368 1_554 S
C1005 H1029 0.949 . S
H1006 C1010 0.949 . S
C1007 C1008 1.349 . S
C1007 C1009 1.327 . S
C1007 H1030 0.950 . S
C1008 C1007 1.349 . S
C1008 C1020 1.349 . S
C1009 C1007 1.327 . S
C1009 C1025 1.429 . S
C1009 H1031 0.950 . S
C1010 H1006 0.949 . S
C1010 C1018 1.574 . S
C1010 C1026 1.368 1_556 S
H1011 C1019 0.950 . S
H1012 C1017 0.950 1_554 S
H1013 C1018 0.949 . S
H1014 C1020 0.950 . S
H1015 C1021 0.950 1_556 S
H1016 C1022 0.949 . S
C1017 H1012 0.950 1_556 S
C1017 C1019 1.327 . S
C1017 C1023 1.429 . S
C1018 C1010 1.574 . S
C1018 H1013 0.949 . S
C1018 C1024 1.368 . S
C1019 C1003 1.349 . S
C1019 H1011 0.950 . S
C1019 C1017 1.327 . S
C1020 C1008 1.349 . S
C1020 H1014 0.950 . S
C1020 C1021 1.327 . S
C1021 H1015 0.950 1_554 S
C1021 C1020 1.327 . S
C1021 C1025 1.429 . S
C1022 C1005 1.574 . S
C1022 H1016 0.949 . S
C1022 C1026 1.368 . S
C1023 C1004 1.429 . S
C1023 C1017 1.429 . S
C1023 C1024 1.523 . S
C1024 C1005 1.368 1_556 S
C1024 C1018 1.368 . S
C1024 C1023 1.523 . S
C1025 C1009 1.429 . S
C1025 C1021 1.429 . S
C1025 C1026 1.523 . S
C1026 C1010 1.368 1_554 S
C1026 C1022 1.368 . S
C1026 C1025 1.523 . S
H1027 C1002 0.950 . S
H1028 C1004 0.950 . S
H1029 C1005 0.949 . S
H1030 C1007 0.950 . S
H1031 C1009 0.950 . S
C1032 C1033 1.349 . S
C1032 C1034 1.327 . S
C1032 H1057 0.950 . S
C1033 C1032 1.349 . S
C1033 C1049 1.349 . S
C1034 C1032 1.327 . S
C1034 C1053 1.429 . S
C1034 H1058 0.950 . S
C1035 C1052 1.574 . S
C1035 C1054 1.368 . S
C1035 H1059 0.949 . S
H1036 C1040 0.949 . S
C1037 C1038 1.349 . S
C1037 C1039 1.327 . S
C1037 H1060 0.950 . S
C1038 C1037 1.349 . S
C1038 C1050 1.349 . S
C1039 C1037 1.327 . S
C1039 C1055 1.429 . S
C1039 H1061 0.950 . S
C1040 H1036 0.949 . S
C1040 C1048 1.574 . S
C1040 C1056 1.368 . S
H1041 C1049 0.950 . S
H1042 C1047 0.950 . S
H1043 C1048 0.949 . S
H1044 C1050 0.950 . S
H1045 C1051 0.950 . S
H1046 C1052 0.949 . S
C1047 H1042 0.950 . S
C1047 C1049 1.327 . S
C1047 C1053 1.429 . S
C1048 C1040 1.574 . S
C1048 H1043 0.949 . S
C1048 C1054 1.368 . S
C1049 C1033 1.349 . S
C1049 H1041 0.950 . S
C1049 C1047 1.327 . S
C1050 C1038 1.349 . S
C1050 H1044 0.950 . S
C1050 C1051 1.327 . S
C1051 H1045 0.950 . S
C1051 C1050 1.327 . S
C1051 C1055 1.429 . S
C1052 C1035 1.574 . S
C1052 H1046 0.949 . S
C1052 C1056 1.368 . S
C1053 C1034 1.429 . S
C1053 C1047 1.429 . S
C1053 C1054 1.523 . S
C1054 C1035 1.368 . S
C1054 C1048 1.368 . S
C1054 C1053 1.523 . S
C1055 C1039 1.429 . S
C1055 C1051 1.429 . S
C1055 C1056 1.523 . S
C1056 C1040 1.368 . S
C1056 C1052 1.368 . S
C1056 C1055 1.523 . S
H1057 C1032 0.950 . S
H1058 C1034 0.950 . S
H1059 C1035 0.949 . S
H1060 C1037 0.950 . S
H1061 C1039 0.950 . S
C1062 C1063 1.349 . S
C1062 C1064 1.327 . S
C1062 H1087 0.950 . S
C1063 C1062 1.349 . S
C1063 C1079 1.349 . S
C1064 C1062 1.327 . S
C1064 C1083 1.429 . S
C1064 H1088 0.950 . S
C1065 C1082 1.574 . S
C1065 C1084 1.368 . S
C1065 H1089 0.949 . S
H1066 C1070 0.949 . S
C1067 C1068 1.349 . S
C1067 C1069 1.327 . S
C1067 H1090 0.950 . S
C1068 C1067 1.349 . S
C1068 C1080 1.349 . S
C1069 C1067 1.327 . S
C1069 C1085 1.429 . S
C1069 H1091 0.950 . S
C1070 H1066 0.949 . S
C1070 C1078 1.574 . S
C1070 C1086 1.368 . S
H1071 C1079 0.950 . S
H1072 C1077 0.950 . S
H1073 C1078 0.949 . S
H1074 C1080 0.950 . S
H1075 C1081 0.950 . S
H1076 C1082 0.949 . S
C1077 H1072 0.950 . S
C1077 C1079 1.327 . S
C1077 C1083 1.429 . S
C1078 C1070 1.574 . S
C1078 H1073 0.949 . S
C1078 C1084 1.368 . S
C1079 C1063 1.349 . S
C1079 H1071 0.950 . S
C1079 C1077 1.327 . S
C1080 C1068 1.349 . S
C1080 H1074 0.950 . S
C1080 C1081 1.327 . S
C1081 H1075 0.950 . S
C1081 C1080 1.327 . S
C1081 C1085 1.429 . S
C1082 C1065 1.574 . S
C1082 H1076 0.949 . S
C1082 C1086 1.368 . S
C1083 C1064 1.429 . S
C1083 C1077 1.429 . S
C1083 C1084 1.523 . S
C1084 C1065 1.368 . S
C1084 C1078 1.368 . S
C1084 C1083 1.523 . S
C1085 C1069 1.429 . S
C1085 C1081 1.429 . S
C1085 C1086 1.523 . S
C1086 C1070 1.368 . S
C1086 C1082 1.368 . S
C1086 C1085 1.523 . S
H1087 C1062 0.950 . S
H1088 C1064 0.950 . S
H1089 C1065 0.949 . S
H1090 C1067 0.950 . S
H1091 C1069 0.950 . S
C1092 C1093 1.349 . S
C1092 C1094 1.327 . S
C1092 H1117 0.950 . S
C1093 C1092 1.349 . S
C1093 C1109 1.349 . S
C1094 C1092 1.327 . S
C1094 C1113 1.429 . S
C1094 H1118 0.950 . S
C1095 C1112 1.574 . S
C1095 C1114 1.368 . S
C1095 H1119 0.949 . S
H1096 C1100 0.949 . S
C1097 C1098 1.349 . S
C1097 C1099 1.327 . S
C1097 H1120 0.950 . S
C1098 C1097 1.349 . S
C1098 C1110 1.349 . S
C1099 C1097 1.327 . S
C1099 C1115 1.429 . S
C1099 H1121 0.950 . S
C1100 H1096 0.949 . S
C1100 C1108 1.574 . S
C1100 C1116 1.368 . S
H1101 C1109 0.950 . S
H1102 C1107 0.950 . S
H1103 C1108 0.949 . S
H1104 C1110 0.950 . S
H1105 C1111 0.950 . S
H1106 C1112 0.949 . S
C1107 H1102 0.950 . S
C1107 C1109 1.327 . S
C1107 C1113 1.429 . S
C1108 C1100 1.574 . S
C1108 H1103 0.949 . S
C1108 C1114 1.368 . S
C1109 C1093 1.349 . S
C1109 H1101 0.950 . S
C1109 C1107 1.327 . S
C1110 C1098 1.349 . S
C1110 H1104 0.950 . S
C1110 C1111 1.327 . S
C1111 H1105 0.950 . S
C1111 C1110 1.327 . S
C1111 C1115 1.429 . S
C1112 C1095 1.574 . S
C1112 H1106 0.949 . S
C1112 C1116 1.368 . S
C1113 C1094 1.429 . S
C1113 C1107 1.429 . S
C1113 C1114 1.523 . S
C1114 C1095 1.368 . S
C1114 C1108 1.368 . S
C1114 C1113 1.523 . S
C1115 C1099 1.429 . S
C1115 C1111 1.429 . S
C1115 C1116 1.523 . S
C1116 C1100 1.368 . S
C1116 C1112 1.368 . S
C1116 C1115 1.523 . S
H1117 C1092 0.950 . S
H1118 C1094 0.950 . S
H1119 C1095 0.949 . S
H1120 C1097 0.950 . S
H1121 C1099 0.950 . S
C1122 C1123 1.349 . S
C1122 C1124 1.327 . S
C1122 H1147 0.950 . S
C1123 C1122 1.349 . S
C1123 C1139 1.349 . S
C1124 C1122 1.327 . S
C1124 C1143 1.429 . S
C1124 H1148 0.950 . S
C1125 C1142 1.574 . S
C1125 C1144 1.368 . S
C1125 H1149 0.949 . S
H1126 C1130 0.949 . S
C1127 C1128 1.349 . S
C1127 C1129 1.327 . S
C1127 H1150 0.950 . S
C1128 C1127 1.349 . S
C1128 C1140 1.349 . S
C1129 C1127 1.327 . S
C1129 C1145 1.429 . S
C1129 H1151 0.950 . S
C1130 H1126 0.949 . S
C1130 C1138 1.574 . S
C1130 C1146 1.368 . S
H1131 C1139 0.950 . S
H1132 C1137 0.950 . S
H1133 C1138 0.949 . S
H1134 C1140 0.950 . S
H1135 C1141 0.950 . S
H1136 C1142 0.949 . S
C1137 H1132 0.950 . S
C1137 C1139 1.327 . S
C1137 C1143 1.429 . S
C1138 C1130 1.574 . S
C1138 H1133 0.949 . S
C1138 C1144 1.368 . S
C1139 C1123 1.349 . S
C1139 H1131 0.950 . S
C1139 C1137 1.327 . S
C1140 C1128 1.349 . S
C1140 H1134 0.950 . S
C1140 C1141 1.327 . S
C1141 H1135 0.950 . S
C1141 C1140 1.327 . S
C1141 C1145 1.429 . S
C1142 C1125 1.574 . S
C1142 H1136 0.949 . S
C1142 C1146 1.368 . S
C1143 C1124 1.429 . S
C1143 C1137 1.429 . S
C1143 C1144 1.523 . S
C1144 C1125 1.368 . S
C1144 C1138 1.368 . S
C1144 C1143 1.523 . S
C1145 C1129 1.429 . S
C1145 C1141 1.429 . S
C1145 C1146 1.523 . S
C1146 C1130 1.368 . S
C1146 C1142 1.368 . S
C1146 C1145 1.523 . S
H1147 C1122 0.950 . S
H1148 C1124 0.950 . S
H1149 C1125 0.949 . S
H1150 C1127 0.950 . S
H1151 C1129 0.950 . S
C1152 C1153 1.349 . S
C1152 C1154 1.327 . S
C1152 H1177 0.950 . S
C1153 C1152 1.349 . S
C1153 C1169 1.349 . S
C1154 C1152 1.327 . S
C1154 C1173 1.429 . S
C1154 H1178 0.950 . S
C1155 C1172 1.574 . S
C1155 C1174 1.368 . S
C1155 H1179 0.949 . S
H1156 C1160 0.949 . S
C1157 C1158 1.349 . S
C1157 C1159 1.327 . S
C1157 H1180 0.950 . S
C1158 C1157 1.349 . S
C1158 C1170 1.349 . S
C1159 C1157 1.327 . S
C1159 C1175 1.429 . S
C1159 H1181 0.950 . S
C1160 H1156 0.949 . S
C1160 C1168 1.574 . S
C1160 C1176 1.368 . S
H1161 C1169 0.950 . S
H1162 C1167 0.950 . S
H1163 C1168 0.949 . S
H1164 C1170 0.950 . S
H1165 C1171 0.950 . S
H1166 C1172 0.949 . S
C1167 H1162 0.950 . S
C1167 C1169 1.327 . S
C1167 C1173 1.429 . S
C1168 C1160 1.574 . S
C1168 H1163 0.949 . S
C1168 C1174 1.368 . S
C1169 C1153 1.349 . S
C1169 H1161 0.950 . S
C1169 C1167 1.327 . S
C1170 C1158 1.349 . S
C1170 H1164 0.950 . S
C1170 C1171 1.327 . S
C1171 H1165 0.950 . S
C1171 C1170 1.327 . S
C1171 C1175 1.429 . S
C1172 C1155 1.574 . S
C1172 H1166 0.949 . S
C1172 C1176 1.368 . S
C1173 C1154 1.429 . S
C1173 C1167 1.429 . S
C1173 C1174 1.523 . S
C1174 C1155 1.368 . S
C1174 C1168 1.368 . S
C1174 C1173 1.523 . S
C1175 C1159 1.429 . S
C1175 C1171 1.429 . S
C1175 C1176 1.523 . S
C1176 C1160 1.368 . S
C1176 C1172 1.368 . S
C1176 C1175 1.523 . S
H1177 C1152 0.950 . S
H1178 C1154 0.950 . S
H1179 C1155 0.949 . S
H1180 C1157 0.950 . S
H1181 C1159 0.950 . S
C1182 C1183 1.349 . S
C1182 C1184 1.327 . S
C1182 H1207 0.950 . S
C1183 C1182 1.349 . S
C1183 C1199 1.349 . S
C1184 C1182 1.327 . S
C1184 C1203 1.429 . S
C1184 H1208 0.950 . S
C1185 C1202 1.574 . S
C1185 C1204 1.368 1_565 S
C1185 H1209 0.949 . S
H1186 C1190 0.949 . S
C1187 C1188 1.349 . S
C1187 C1189 1.327 . S
C1187 H1210 0.950 . S
C1188 C1187 1.349 . S
C1188 C1200 1.349 . S
C1189 C1187 1.327 . S
C1189 C1205 1.429 . S
C1189 H1211 0.950 . S
C1190 H1186 0.949 . S
C1190 C1198 1.574 . S
C1190 C1206 1.368 1_545 S
H1191 C1199 0.950 . S
H1192 C1197 0.950 1_565 S
H1193 C1198 0.949 . S
H1194 C1200 0.950 . S
H1195 C1201 0.950 1_545 S
H1196 C1202 0.949 . S
C1197 H1192 0.950 1_545 S
C1197 C1199 1.327 . S
C1197 C1203 1.429 . S
C1198 C1190 1.574 . S
C1198 H1193 0.949 . S
C1198 C1204 1.368 . S
C1199 C1183 1.349 . S
C1199 H1191 0.950 . S
C1199 C1197 1.327 . S
C1200 C1188 1.349 . S
C1200 H1194 0.950 . S
C1200 C1201 1.327 . S
C1201 H1195 0.950 1_565 S
C1201 C1200 1.327 . S
C1201 C1205 1.429 . S
C1202 C1185 1.574 . S
C1202 H1196 0.949 . S
C1202 C1206 1.368 . S
C1203 C1184 1.429 . S
C1203 C1197 1.429 . S
C1203 C1204 1.523 . S
C1204 C1185 1.368 1_545 S
C1204 C1198 1.368 . S
C1204 C1203 1.523 . S
C1205 C1189 1.429 . S
C1205 C1201 1.429 . S
C1205 C1206 1.523 . S
C1206 C1190 1.368 1_565 S
C1206 C1202 1.368 . S
C1206 C1205 1.523 . S
H1207 C1182 0.950 . S
H1208 C1184 0.950 . S
H1209 C1185 0.949 . S
H1210 C1187 0.950 . S
H1211 C1189 0.950 . S
C1212 C1213 1.349 . S
C1212 C1214 1.327 . S
C1212 H1237 0.950 . S
C1213 C1212 1.349 . S
C1213 C1229 1.349 . S
C1214 C1212 1.327 . S
C1214 C1233 1.429 . S
C1214 H1238 0.950 . S
C1215 C1232 1.574 . S
C1215 C1234 1.368 1_556 S
C1215 H1239 0.949 . S
H1216 C1220 0.949 . S
C1217 C1218 1.349 . S
C1217 C1219 1.327 . S
C1217 H1240 0.950 . S
C1218 C1217 1.349 . S
C1218 C1230 1.349 . S
C1219 C1217 1.327 . S
C1219 C1235 1.429 . S
C1219 H1241 0.950 . S
C1220 H1216 0.949 . S
C1220 C1228 1.574 . S
C1220 C1236 1.368 1_554 S
H1221 C1229 0.950 . S
H1222 C1227 0.950 1_556 S
H1223 C1228 0.949 . S
H1224 C1230 0.950 . S
H1225 C1231 0.950 1_554 S
H1226 C1232 0.949 . S
C1227 H1222 0.950 1_554 S
C1227 C1229 1.327 . S
C1227 C1233 1.429 . S
C1228 C1220 1.574 . S
C1228 H1223 0.949 . S
C1228 C1234 1.368 . S
C1229 C1213 1.349 . S
C1229 H1221 0.950 . S
C1229 C1227 1.327 . S
C1230 C1218 1.349 . S
C1230 H1224 0.950 . S
C1230 C1231 1.327 . S
C1231 H1225 0.950 1_556 S
C1231 C1230 1.327 . S
C1231 C1235 1.429 . S
C1232 C1215 1.574 . S
C1232 H1226 0.949 . S
C1232 C1236 1.368 . S
C1233 C1214 1.429 . S
C1233 C1227 1.429 . S
C1233 C1234 1.523 . S
C1234 C1215 1.368 1_554 S
C1234 C1228 1.368 . S
C1234 C1233 1.523 . S
C1235 C1219 1.429 . S
C1235 C1231 1.429 . S
C1235 C1236 1.523 . S
C1236 C1220 1.368 1_556 S
C1236 C1232 1.368 . S
C1236 C1235 1.523 . S
H1237 C1212 0.950 . S
H1238 C1214 0.950 . S
H1239 C1215 0.949 . S
H1240 C1217 0.950 . S
H1241 C1219 0.950 . S
C1242 C1243 1.349 . S
C1242 C1244 1.327 . S
C1242 H1267 0.950 . S
C1243 C1242 1.349 . S
C1243 C1259 1.349 . S
C1244 C1242 1.327 . S
C1244 C1263 1.429 . S
C1244 H1268 0.950 . S
C1245 C1262 1.574 . S
C1245 C1264 1.368 . S
C1245 H1269 0.949 . S
H1246 C1250 0.949 . S
C1247 C1248 1.349 . S
C1247 C1249 1.327 . S
C1247 H1270 0.950 . S
C1248 C1247 1.349 . S
C1248 C1260 1.349 . S
C1249 C1247 1.327 . S
C1249 C1265 1.429 . S
C1249 H1271 0.950 . S
C1250 H1246 0.949 . S
C1250 C1258 1.574 . S
C1250 C1266 1.368 . S
H1251 C1259 0.950 . S
H1252 C1257 0.950 . S
H1253 C1258 0.949 . S
H1254 C1260 0.950 . S
H1255 C1261 0.950 . S
H1256 C1262 0.949 . S
C1257 H1252 0.950 . S
C1257 C1259 1.327 . S
C1257 C1263 1.429 . S
C1258 C1250 1.574 . S
C1258 H1253 0.949 . S
C1258 C1264 1.368 . S
C1259 C1243 1.349 . S
C1259 H1251 0.950 . S
C1259 C1257 1.327 . S
C1260 C1248 1.349 . S
C1260 H1254 0.950 . S
C1260 C1261 1.327 . S
C1261 H1255 0.950 . S
C1261 C1260 1.327 . S
C1261 C1265 1.429 . S
C1262 C1245 1.574 . S
C1262 H1256 0.949 . S
C1262 C1266 1.368 . S
C1263 C1244 1.429 . S
C1263 C1257 1.429 . S
C1263 C1264 1.523 . S
C1264 C1245 1.368 . S
C1264 C1258 1.368 . S
C1264 C1263 1.523 . S
C1265 C1249 1.429 . S
C1265 C1261 1.429 . S
C1265 C1266 1.523 . S
C1266 C1250 1.368 . S
C1266 C1262 1.368 . S
C1266 C1265 1.523 . S
H1267 C1242 0.950 . S
H1268 C1244 0.950 . S
H1269 C1245 0.949 . S
H1270 C1247 0.950 . S
H1271 C1249 0.950 . S
C1272 C1273 1.349 . S
C1272 C1274 1.327 . S
C1272 H1297 0.950 . S
C1273 C1272 1.349 . S
C1273 C1289 1.349 . S
C1274 C1272 1.327 . S
C1274 C1293 1.429 . S
C1274 H1298 0.950 . S
C1275 C1292 1.574 . S
C1275 C1294 1.368 . S
C1275 H1299 0.949 . S
H1276 C1280 0.949 . S
C1277 C1278 1.349 . S
C1277 C1279 1.327 . S
C1277 H1300 0.950 . S
C1278 C1277 1.349 . S
C1278 C1290 1.349 . S
C1279 C1277 1.327 . S
C1279 C1295 1.429 . S
C1279 H1301 0.950 . S
C1280 H1276 0.949 . S
C1280 C1288 1.574 . S
C1280 C1296 1.368 . S
H1281 C1289 0.950 . S
H1282 C1287 0.950 . S
H1283 C1288 0.949 . S
H1284 C1290 0.950 . S
H1285 C1291 0.950 . S
H1286 C1292 0.949 . S
C1287 H1282 0.950 . S
C1287 C1289 1.327 . S
C1287 C1293 1.429 . S
C1288 C1280 1.574 . S
C1288 H1283 0.949 . S
C1288 C1294 1.368 . S
C1289 C1273 1.349 . S
C1289 H1281 0.950 . S
C1289 C1287 1.327 . S
C1290 C1278 1.349 . S
C1290 H1284 0.950 . S
C1290 C1291 1.327 . S
C1291 H1285 0.950 . S
C1291 C1290 1.327 . S
C1291 C1295 1.429 . S
C1292 C1275 1.574 . S
C1292 H1286 0.949 . S
C1292 C1296 1.368 . S
C1293 C1274 1.429 . S
C1293 C1287 1.429 . S
C1293 C1294 1.523 . S
C1294 C1275 1.368 . S
C1294 C1288 1.368 . S
C1294 C1293 1.523 . S
C1295 C1279 1.429 . S
C1295 C1291 1.429 . S
C1295 C1296 1.523 . S
C1296 C1280 1.368 . S
C1296 C1292 1.368 . S
C1296 C1295 1.523 . S
H1297 C1272 0.950 . S
H1298 C1274 0.950 . S
H1299 C1275 0.949 . S
H1300 C1277 0.950 . S
H1301 C1279 0.950 . S
C1302 C1303 1.349 . S
C1302 C1304 1.327 . S
C1302 H1327 0.950 . S
C1303 C1302 1.349 . S
C1303 C1319 1.349 . S
C1304 C1302 1.327 . S
C1304 C1323 1.429 . S
C1304 H1328 0.950 . S
C1305 C1322 1.574 . S
C1305 C1324 1.368 . S
C1305 H1329 0.949 . S
H1306 C1310 0.949 . S
C1307 C1308 1.349 . S
C1307 C1309 1.327 . S
C1307 H1330 0.950 . S
C1308 C1307 1.349 . S
C1308 C1320 1.349 . S
C1309 C1307 1.327 . S
C1309 C1325 1.429 . S
C1309 H1331 0.950 . S
C1310 H1306 0.949 . S
C1310 C1318 1.574 . S
C1310 C1326 1.368 . S
H1311 C1319 0.950 . S
H1312 C1317 0.950 . S
H1313 C1318 0.949 . S
H1314 C1320 0.950 . S
H1315 C1321 0.950 . S
H1316 C1322 0.949 . S
C1317 H1312 0.950 . S
C1317 C1319 1.327 . S
C1317 C1323 1.429 . S
C1318 C1310 1.574 . S
C1318 H1313 0.949 . S
C1318 C1324 1.368 . S
C1319 C1303 1.349 . S
C1319 H1311 0.950 . S
C1319 C1317 1.327 . S
C1320 C1308 1.349 . S
C1320 H1314 0.950 . S
C1320 C1321 1.327 . S
C1321 H1315 0.950 . S
C1321 C1320 1.327 . S
C1321 C1325 1.429 . S
C1322 C1305 1.574 . S
C1322 H1316 0.949 . S
C1322 C1326 1.368 . S
C1323 C1304 1.429 . S
C1323 C1317 1.429 . S
C1323 C1324 1.523 . S
C1324 C1305 1.368 . S
C1324 C1318 1.368 . S
C1324 C1323 1.523 . S
C1325 C1309 1.429 . S
C1325 C1321 1.429 . S
C1325 C1326 1.523 . S
C1326 C1310 1.368 . S
C1326 C1322 1.368 . S
C1326 C1325 1.523 . S
H1327 C1302 0.950 . S
H1328 C1304 0.950 . S
H1329 C1305 0.949 . S
H1330 C1307 0.950 . S
H1331 C1309 0.950 . S
C1332 C1333 1.349 . S
C1332 C1334 1.327 . S
C1332 H1357 0.950 . S
C1333 C1332 1.349 . S
C1333 C1349 1.349 . S
C1334 C1332 1.327 . S
C1334 C1353 1.429 . S
C1334 H1358 0.950 . S
C1335 C1352 1.574 . S
C1335 C1354 1.368 1_565 S
C1335 H1359 0.949 . S
H1336 C1340 0.949 . S
C1337 C1338 1.349 . S
C1337 C1339 1.327 . S
C1337 H1360 0.950 . S
C1338 C1337 1.349 . S
C1338 C1350 1.349 . S
C1339 C1337 1.327 . S
C1339 C1355 1.429 . S
C1339 H1361 0.950 . S
C1340 H1336 0.949 . S
C1340 C1348 1.574 . S
C1340 C1356 1.368 1_545 S
H1341 C1349 0.950 1_565 S
H1342 C1347 0.932 1_565 S
H1343 C1348 0.949 . S
H1344 C1350 0.950 1_545 S
H1345 C1351 0.934 1_545 S
H1346 C1352 0.949 . S
C1347 H1342 0.932 1_545 S
C1347 C1349 1.333 . S
C1347 C1353 1.440 . S
C1348 C1340 1.574 . S
C1348 H1343 0.949 . S
C1348 C1354 1.368 . S
C1349 C1333 1.349 . S
C1349 H1341 0.950 1_545 S
C1349 C1347 1.333 . S
C1350 C1338 1.349 . S
C1350 H1344 0.950 1_565 S
C1350 C1351 1.333 . S
C1351 H1345 0.934 1_565 S
C1351 C1350 1.333 . S
C1351 C1355 1.438 . S
C1352 C1335 1.574 . S
C1352 H1346 0.949 . S
C1352 C1356 1.368 . S
C1353 C1334 1.429 . S
C1353 C1347 1.440 . S
C1353 C1354 1.523 . S
C1354 C1335 1.368 1_545 S
C1354 C1348 1.368 . S
C1354 C1353 1.523 . S
C1355 C1339 1.429 . S
C1355 C1351 1.438 . S
C1355 C1356 1.523 . S
C1356 C1340 1.368 1_565 S
C1356 C1352 1.368 . S
C1356 C1355 1.523 . S
H1357 C1332 0.950 . S
H1358 C1334 0.950 . S
H1359 C1335 0.949 . S
H1360 C1337 0.950 . S
H1361 C1339 0.950 . S
C1362 C1363 1.349 . S
C1362 C1364 1.327 . S
C1362 H1387 0.950 . S
C1363 C1362 1.349 . S
C1363 C1379 1.349 . S
C1364 C1362 1.327 . S
C1364 C1383 1.429 . S
C1364 H1388 0.950 . S
C1365 C1382 1.574 . S
C1365 C1384 1.368 1_556 S
C1365 H1389 0.949 . S
H1366 C1370 0.949 . S
C1367 C1368 1.349 . S
C1367 C1369 1.327 . S
C1367 H1390 0.950 . S
C1368 C1367 1.349 . S
C1368 C1380 1.349 . S
C1369 C1367 1.327 . S
C1369 C1385 1.429 . S
C1369 H1391 0.950 . S
C1370 H1366 0.949 . S
C1370 C1378 1.574 . S
C1370 C1386 1.368 1_554 S
H1371 C1379 0.950 . S
H1372 C1377 0.950 1_556 S
H1373 C1378 0.949 . S
H1374 C1380 0.950 . S
H1375 C1381 0.950 1_554 S
H1376 C1382 0.949 . S
C1377 H1372 0.950 1_554 S
C1377 C1379 1.327 . S
C1377 C1383 1.429 . S
C1378 C1370 1.574 . S
C1378 H1373 0.949 . S
C1378 C1384 1.368 . S
C1379 C1363 1.349 . S
C1379 H1371 0.950 . S
C1379 C1377 1.327 . S
C1380 C1368 1.349 . S
C1380 H1374 0.950 . S
C1380 C1381 1.327 . S
C1381 H1375 0.950 1_556 S
C1381 C1380 1.327 . S
C1381 C1385 1.429 . S
C1382 C1365 1.574 . S
C1382 H1376 0.949 . S
C1382 C1386 1.368 . S
C1383 C1364 1.429 . S
C1383 C1377 1.429 . S
C1383 C1384 1.523 . S
C1384 C1365 1.368 1_554 S
C1384 C1378 1.368 . S
C1384 C1383 1.523 . S
C1385 C1369 1.429 . S
C1385 C1381 1.429 . S
C1385 C1386 1.523 . S
C1386 C1370 1.368 1_556 S
C1386 C1382 1.368 . S
C1386 C1385 1.523 . S
H1387 C1362 0.950 . S
H1388 C1364 0.950 . S
H1389 C1365 0.949 . S
H1390 C1367 0.950 . S
H1391 C1369 0.950 . S
C1392 C1393 1.349 . S
C1392 C1394 1.327 . S
C1392 H1417 0.950 . S
C1393 C1392 1.349 . S
C1393 C1409 1.349 . S
C1394 C1392 1.327 . S
C1394 C1413 1.429 . S
C1394 H1418 0.950 . S
C1395 C1412 1.574 . S
C1395 C1414 1.368 . S
C1395 H1419 0.949 . S
H1396 C1400 0.949 . S
C1397 C1398 1.349 . S
C1397 C1399 1.327 . S
C1397 H1420 0.950 . S
C1398 C1397 1.349 . S
C1398 C1410 1.349 . S
C1399 C1397 1.327 . S
C1399 C1415 1.429 . S
C1399 H1421 0.950 . S
C1400 H1396 0.949 . S
C1400 C1408 1.574 . S
C1400 C1416 1.368 . S
H1401 C1409 0.950 . S
H1402 C1407 0.950 . S
H1403 C1408 0.949 . S
H1404 C1410 0.950 . S
H1405 C1411 0.950 . S
H1406 C1412 0.949 . S
C1407 H1402 0.950 . S
C1407 C1409 1.327 . S
C1407 C1413 1.429 . S
C1408 C1400 1.574 . S
C1408 H1403 0.949 . S
C1408 C1414 1.368 . S
C1409 C1393 1.349 . S
C1409 H1401 0.950 . S
C1409 C1407 1.327 . S
C1410 C1398 1.349 . S
C1410 H1404 0.950 . S
C1410 C1411 1.327 . S
C1411 H1405 0.950 . S
C1411 C1410 1.327 . S
C1411 C1415 1.429 . S
C1412 C1395 1.574 . S
C1412 H1406 0.949 . S
C1412 C1416 1.368 . S
C1413 C1394 1.429 . S
C1413 C1407 1.429 . S
C1413 C1414 1.523 . S
C1414 C1395 1.368 . S
C1414 C1408 1.368 . S
C1414 C1413 1.523 . S
C1415 C1399 1.429 . S
C1415 C1411 1.429 . S
C1415 C1416 1.523 . S
C1416 C1400 1.368 . S
C1416 C1412 1.368 . S
C1416 C1415 1.523 . S
H1417 C1392 0.950 . S
H1418 C1394 0.950 . S
H1419 C1395 0.949 . S
H1420 C1397 0.950 . S
H1421 C1399 0.950 . S
C1422 C1423 1.349 . S
C1422 C1424 1.327 . S
C1422 H1447 0.950 . S
C1423 C1422 1.349 . S
C1423 C1439 1.349 . S
C1424 C1422 1.327 . S
C1424 C1443 1.429 . S
C1424 H1448 0.950 . S
C1425 C1442 1.574 . S
C1425 C1444 1.368 . S
C1425 H1449 0.949 . S
H1426 C1430 0.949 . S
C1427 C1428 1.349 . S
C1427 C1429 1.327 . S
C1427 H1450 0.950 . S
C1428 C1427 1.349 . S
C1428 C1440 1.349 . S
C1429 C1427 1.327 . S
C1429 C1445 1.429 . S
C1429 H1451 0.950 . S
C1430 H1426 0.949 . S
C1430 C1438 1.574 . S
C1430 C1446 1.368 . S
H1431 C1439 0.950 . S
H1432 C1437 0.950 . S
H1433 C1438 0.949 . S
H1434 C1440 0.950 . S
H1435 C1441 0.950 . S
H1436 C1442 0.949 . S
C1437 H1432 0.950 . S
C1437 C1439 1.327 . S
C1437 C1443 1.429 . S
C1438 C1430 1.574 . S
C1438 H1433 0.949 . S
C1438 C1444 1.368 . S
C1439 C1423 1.349 . S
C1439 H1431 0.950 . S
C1439 C1437 1.327 . S
C1440 C1428 1.349 . S
C1440 H1434 0.950 . S
C1440 C1441 1.327 . S
C1441 H1435 0.950 . S
C1441 C1440 1.327 . S
C1441 C1445 1.429 . S
C1442 C1425 1.574 . S
C1442 H1436 0.949 . S
C1442 C1446 1.368 . S
C1443 C1424 1.429 . S
C1443 C1437 1.429 . S
C1443 C1444 1.523 . S
C1444 C1425 1.368 . S
C1444 C1438 1.368 . S
C1444 C1443 1.523 . S
C1445 C1429 1.429 . S
C1445 C1441 1.429 . S
C1445 C1446 1.523 . S
C1446 C1430 1.368 . S
C1446 C1442 1.368 . S
C1446 C1445 1.523 . S
H1447 C1422 0.950 . S
H1448 C1424 0.950 . S
H1449 C1425 0.949 . S
H1450 C1427 0.950 . S
H1451 C1429 0.950 . S
C1452 C1453 1.349 . S
C1452 C1454 1.327 . S
C1452 H1477 0.950 . S
C1453 C1452 1.349 . S
C1453 C1469 1.349 . S
C1454 C1452 1.327 . S
C1454 C1473 1.429 . S
C1454 H1478 0.950 . S
C1455 C1472 1.574 . S
C1455 C1474 1.368 . S
C1455 H1479 0.949 . S
H1456 C1460 0.949 . S
C1457 C1458 1.349 . S
C1457 C1459 1.327 . S
C1457 H1480 0.950 . S
C1458 C1457 1.349 . S
C1458 C1470 1.349 . S
C1459 C1457 1.327 . S
C1459 C1475 1.429 . S
C1459 H1481 0.950 . S
C1460 H1456 0.949 . S
C1460 C1468 1.574 . S
C1460 C1476 1.368 . S
H1461 C1469 0.950 . S
H1462 C1467 0.950 . S
H1463 C1468 0.949 . S
H1464 C1470 0.950 . S
H1465 C1471 0.950 . S
H1466 C1472 0.949 . S
C1467 H1462 0.950 . S
C1467 C1469 1.327 . S
C1467 C1473 1.429 . S
C1468 C1460 1.574 . S
C1468 H1463 0.949 . S
C1468 C1474 1.368 . S
C1469 C1453 1.349 . S
C1469 H1461 0.950 . S
C1469 C1467 1.327 . S
C1470 C1458 1.349 . S
C1470 H1464 0.950 . S
C1470 C1471 1.327 . S
C1471 H1465 0.950 . S
C1471 C1470 1.327 . S
C1471 C1475 1.429 . S
C1472 C1455 1.574 . S
C1472 H1466 0.949 . S
C1472 C1476 1.368 . S
C1473 C1454 1.429 . S
C1473 C1467 1.429 . S
C1473 C1474 1.523 . S
C1474 C1455 1.368 . S
C1474 C1468 1.368 . S
C1474 C1473 1.523 . S
C1475 C1459 1.429 . S
C1475 C1471 1.429 . S
C1475 C1476 1.523 . S
C1476 C1460 1.368 . S
C1476 C1472 1.368 . S
C1476 C1475 1.523 . S
H1477 C1452 0.950 . S
H1478 C1454 0.950 . S
H1479 C1455 0.949 . S
H1480 C1457 0.950 . S
H1481 C1459 0.950 . S
C1482 C1483 1.349 . S
C1482 C1484 1.327 . S
C1482 H1507 0.950 . S
C1483 C1482 1.349 . S
C1483 C1499 1.349 . S
C1484 C1482 1.327 . S
C1484 C1503 1.429 . S
C1484 H1508 0.950 . S
C1485 C1502 1.574 . S
C1485 C1504 1.368 . S
C1485 H1509 0.949 . S
H1486 C1490 0.949 . S
C1487 C1488 1.349 . S
C1487 C1489 1.327 . S
C1487 H1510 0.950 . S
C1488 C1487 1.349 . S
C1488 C1500 1.349 . S
C1489 C1487 1.327 . S
C1489 C1505 1.429 . S
C1489 H1511 0.950 . S
C1490 H1486 0.949 . S
C1490 C1498 1.574 . S
C1490 C1506 1.368 . S
H1491 C1499 0.950 . S
H1492 C1497 0.950 . S
H1493 C1498 0.949 . S
H1494 C1500 0.950 . S
H1495 C1501 0.950 . S
H1496 C1502 0.949 . S
C1497 H1492 0.950 . S
C1497 C1499 1.327 . S
C1497 C1503 1.429 . S
C1498 C1490 1.574 . S
C1498 H1493 0.949 . S
C1498 C1504 1.368 . S
C1499 C1483 1.349 . S
C1499 H1491 0.950 . S
C1499 C1497 1.327 . S
C1500 C1488 1.349 . S
C1500 H1494 0.950 . S
C1500 C1501 1.327 . S
C1501 H1495 0.950 . S
C1501 C1500 1.327 . S
C1501 C1505 1.429 . S
C1502 C1485 1.574 . S
C1502 H1496 0.949 . S
C1502 C1506 1.368 . S
C1503 C1484 1.429 . S
C1503 C1497 1.429 . S
C1503 C1504 1.523 . S
C1504 C1485 1.368 . S
C1504 C1498 1.368 . S
C1504 C1503 1.523 . S
C1505 C1489 1.429 . S
C1505 C1501 1.429 . S
C1505 C1506 1.523 . S
C1506 C1490 1.368 . S
C1506 C1502 1.368 . S
C1506 C1505 1.523 . S
H1507 C1482 0.950 . S
H1508 C1484 0.950 . S
H1509 C1485 0.949 . S
H1510 C1487 0.950 . S
H1511 C1489 0.950 . S
C1512 C1513 1.349 . S
C1512 C1514 1.327 . S
C1512 H1537 0.950 . S
C1513 C1512 1.349 . S
C1513 C1529 1.349 . S
C1514 C1512 1.327 . S
C1514 C1533 1.429 . S
C1514 H1538 0.950 . S
C1515 C1532 1.574 . S
C1515 C1534 1.368 . S
C1515 H1539 0.949 . S
H1516 C1520 0.949 . S
C1517 C1518 1.349 . S
C1517 C1519 1.327 . S
C1517 H1540 0.950 . S
C1518 C1517 1.349 . S
C1518 C1530 1.349 . S
C1519 C1517 1.327 . S
C1519 C1535 1.429 . S
C1519 H1541 0.950 . S
C1520 H1516 0.949 . S
C1520 C1528 1.574 . S
C1520 C1536 1.368 . S
H1521 C1529 0.950 . S
H1522 C1527 0.950 . S
H1523 C1528 0.949 . S
H1524 C1530 0.950 . S
H1525 C1531 0.950 . S
H1526 C1532 0.949 . S
C1527 H1522 0.950 . S
C1527 C1529 1.327 . S
C1527 C1533 1.429 . S
C1528 C1520 1.574 . S
C1528 H1523 0.949 . S
C1528 C1534 1.368 . S
C1529 C1513 1.349 . S
C1529 H1521 0.950 . S
C1529 C1527 1.327 . S
C1530 C1518 1.349 . S
C1530 H1524 0.950 . S
C1530 C1531 1.327 . S
C1531 H1525 0.950 . S
C1531 C1530 1.327 . S
C1531 C1535 1.429 . S
C1532 C1515 1.574 . S
C1532 H1526 0.949 . S
C1532 C1536 1.368 . S
C1533 C1514 1.429 . S
C1533 C1527 1.429 . S
C1533 C1534 1.523 . S
C1534 C1515 1.368 . S
C1534 C1528 1.368 . S
C1534 C1533 1.523 . S
C1535 C1519 1.429 . S
C1535 C1531 1.429 . S
C1535 C1536 1.523 . S
C1536 C1520 1.368 . S
C1536 C1532 1.368 . S
C1536 C1535 1.523 . S
H1537 C1512 0.950 . S
H1538 C1514 0.950 . S
H1539 C1515 0.949 . S
H1540 C1517 0.950 . S
H1541 C1519 0.950 . S
C1542 C1543 1.349 . S
C1542 C1544 1.327 . S
C1542 H1567 0.950 . S
C1543 C1542 1.349 . S
C1543 C1559 1.349 . S
C1544 C1542 1.327 . S
C1544 C1563 1.429 . S
C1544 H1568 0.950 . S
C1545 C1562 1.574 . S
C1545 C1564 1.368 . S
C1545 H1569 0.949 . S
H1546 C1550 0.949 . S
C1547 C1548 1.349 . S
C1547 C1549 1.327 . S
C1547 H1570 0.950 . S
C1548 C1547 1.349 . S
C1548 C1560 1.349 . S
C1549 C1547 1.327 . S
C1549 C1565 1.429 . S
C1549 H1571 0.950 . S
C1550 H1546 0.949 . S
C1550 C1558 1.574 . S
C1550 C1566 1.368 . S
H1551 C1559 0.950 . S
H1552 C1557 0.950 . S
H1553 C1558 0.949 . S
H1554 C1560 0.950 . S
H1555 C1561 0.950 . S
H1556 C1562 0.949 . S
C1557 H1552 0.950 . S
C1557 C1559 1.327 . S
C1557 C1563 1.429 . S
C1558 C1550 1.574 . S
C1558 H1553 0.949 . S
C1558 C1564 1.368 . S
C1559 C1543 1.349 . S
C1559 H1551 0.950 . S
C1559 C1557 1.327 . S
C1560 C1548 1.349 . S
C1560 H1554 0.950 . S
C1560 C1561 1.327 . S
C1561 H1555 0.950 . S
C1561 C1560 1.327 . S
C1561 C1565 1.429 . S
C1562 C1545 1.574 . S
C1562 H1556 0.949 . S
C1562 C1566 1.368 . S
C1563 C1544 1.429 . S
C1563 C1557 1.429 . S
C1563 C1564 1.523 . S
C1564 C1545 1.368 . S
C1564 C1558 1.368 . S
C1564 C1563 1.523 . S
C1565 C1549 1.429 . S
C1565 C1561 1.429 . S
C1565 C1566 1.523 . S
C1566 C1550 1.368 . S
C1566 C1562 1.368 . S
C1566 C1565 1.523 . S
H1567 C1542 0.950 . S
H1568 C1544 0.950 . S
H1569 C1545 0.949 . S
H1570 C1547 0.950 . S
H1571 C1549 0.950 . S
C1572 C1573 1.349 . S
C1572 C1574 1.327 . S
C1572 H1597 0.950 . S
C1573 C1572 1.349 . S
C1573 C1589 1.349 . S
C1574 C1572 1.327 . S
C1574 C1593 1.429 . S
C1574 H1598 0.950 . S
C1575 C1592 1.574 . S
C1575 C1594 1.368 . S
C1575 H1599 0.949 . S
H1576 C1580 0.949 . S
C1577 C1578 1.349 . S
C1577 C1579 1.327 . S
C1577 H1600 0.950 . S
C1578 C1577 1.349 . S
C1578 C1590 1.349 . S
C1579 C1577 1.327 . S
C1579 C1595 1.429 . S
C1579 H1601 0.950 . S
C1580 H1576 0.949 . S
C1580 C1588 1.574 . S
C1580 C1596 1.368 . S
H1581 C1589 0.950 . S
H1582 C1587 0.950 . S
H1583 C1588 0.949 . S
H1584 C1590 0.950 . S
H1585 C1591 0.950 . S
H1586 C1592 0.949 . S
C1587 H1582 0.950 . S
C1587 C1589 1.327 . S
C1587 C1593 1.429 . S
C1588 C1580 1.574 . S
C1588 H1583 0.949 . S
C1588 C1594 1.368 . S
C1589 C1573 1.349 . S
C1589 H1581 0.950 . S
C1589 C1587 1.327 . S
C1590 C1578 1.349 . S
C1590 H1584 0.950 . S
C1590 C1591 1.327 . S
C1591 H1585 0.950 . S
C1591 C1590 1.327 . S
C1591 C1595 1.429 . S
C1592 C1575 1.574 . S
C1592 H1586 0.949 . S
C1592 C1596 1.368 . S
C1593 C1574 1.429 . S
C1593 C1587 1.429 . S
C1593 C1594 1.523 . S
C1594 C1575 1.368 . S
C1594 C1588 1.368 . S
C1594 C1593 1.523 . S
C1595 C1579 1.429 . S
C1595 C1591 1.429 . S
C1595 C1596 1.523 . S
C1596 C1580 1.368 . S
C1596 C1592 1.368 . S
C1596 C1595 1.523 . S
H1597 C1572 0.950 . S
H1598 C1574 0.950 . S
H1599 C1575 0.949 . S
H1600 C1577 0.950 . S
H1601 C1579 0.950 . S
C1602 C1603 1.349 . S
C1602 C1604 1.327 . S
C1602 H1627 0.950 . S
C1603 C1602 1.349 . S
C1603 C1619 1.349 . S
C1604 C1602 1.327 . S
C1604 C1623 1.429 . S
C1604 H1628 0.950 . S
C1605 C1622 1.574 . S
C1605 C1624 1.368 . S
C1605 H1629 0.949 . S
H1606 C1610 0.949 . S
C1607 C1608 1.349 . S
C1607 C1609 1.327 . S
C1607 H1630 0.950 . S
C1608 C1607 1.349 . S
C1608 C1620 1.349 . S
C1609 C1607 1.327 . S
C1609 C1625 1.429 . S
C1609 H1631 0.950 . S
C1610 H1606 0.949 . S
C1610 C1618 1.574 . S
C1610 C1626 1.368 . S
H1611 C1619 0.950 . S
H1612 C1617 0.950 . S
H1613 C1618 0.949 . S
H1614 C1620 0.950 . S
H1615 C1621 0.950 . S
H1616 C1622 0.949 . S
C1617 H1612 0.950 . S
C1617 C1619 1.327 . S
C1617 C1623 1.429 . S
C1618 C1610 1.574 . S
C1618 H1613 0.949 . S
C1618 C1624 1.368 . S
C1619 C1603 1.349 . S
C1619 H1611 0.950 . S
C1619 C1617 1.327 . S
C1620 C1608 1.349 . S
C1620 H1614 0.950 . S
C1620 C1621 1.327 . S
C1621 H1615 0.950 . S
C1621 C1620 1.327 . S
C1621 C1625 1.429 . S
C1622 C1605 1.574 . S
C1622 H1616 0.949 . S
C1622 C1626 1.368 . S
C1623 C1604 1.429 . S
C1623 C1617 1.429 . S
C1623 C1624 1.523 . S
C1624 C1605 1.368 . S
C1624 C1618 1.368 . S
C1624 C1623 1.523 . S
C1625 C1609 1.429 . S
C1625 C1621 1.429 . S
C1625 C1626 1.523 . S
C1626 C1610 1.368 . S
C1626 C1622 1.368 . S
C1626 C1625 1.523 . S
H1627 C1602 0.950 . S
H1628 C1604 0.950 . S
H1629 C1605 0.949 . S
H1630 C1607 0.950 . S
H1631 C1609 0.950 . S
C1632 C1633 1.349 . S
C1632 C1634 1.327 . S
C1632 H1657 0.950 . S
C1633 C1632 1.349 . S
C1633 C1649 1.349 . S
C1634 C1632 1.327 . S
C1634 C1653 1.429 . S
C1634 H1658 0.950 . S
C1635 C1652 1.574 . S
C1635 C1654 1.368 . S
C1635 H1659 0.949 . S
H1636 C1640 0.949 . S
C1637 C1638 1.349 . S
C1637 C1639 1.327 . S
C1637 H1660 0.950 . S
C1638 C1637 1.349 . S
C1638 C1650 1.349 . S
C1639 C1637 1.327 . S
C1639 C1655 1.429 . S
C1639 H1661 0.950 . S
C1640 H1636 0.949 . S
C1640 C1648 1.574 . S
C1640 C1656 1.368 . S
H1641 C1649 0.950 . S
H1642 C1647 0.950 . S
H1643 C1648 0.949 . S
H1644 C1650 0.950 . S
H1645 C1651 0.950 . S
H1646 C1652 0.949 . S
C1647 H1642 0.950 . S
C1647 C1649 1.327 . S
C1647 C1653 1.429 . S
C1648 C1640 1.574 . S
C1648 H1643 0.949 . S
C1648 C1654 1.368 . S
C1649 C1633 1.349 . S
C1649 H1641 0.950 . S
C1649 C1647 1.327 . S
C1650 C1638 1.349 . S
C1650 H1644 0.950 . S
C1650 C1651 1.327 . S
C1651 H1645 0.950 . S
C1651 C1650 1.327 . S
C1651 C1655 1.429 . S
C1652 C1635 1.574 . S
C1652 H1646 0.949 . S
C1652 C1656 1.368 . S
C1653 C1634 1.429 . S
C1653 C1647 1.429 . S
C1653 C1654 1.523 . S
C1654 C1635 1.368 . S
C1654 C1648 1.368 . S
C1654 C1653 1.523 . S
C1655 C1639 1.429 . S
C1655 C1651 1.429 . S
C1655 C1656 1.523 . S
C1656 C1640 1.368 . S
C1656 C1652 1.368 . S
C1656 C1655 1.523 . S
H1657 C1632 0.950 . S
H1658 C1634 0.950 . S
H1659 C1635 0.949 . S
H1660 C1637 0.950 . S
H1661 C1639 0.950 . S
C1662 C1663 1.349 . S
C1662 C1664 1.327 . S
C1662 H1687 0.950 . S
C1663 C1662 1.349 . S
C1663 C1679 1.349 . S
C1664 C1662 1.327 . S
C1664 C1683 1.429 . S
C1664 H1688 0.950 . S
C1665 C1682 1.574 . S
C1665 C1684 1.368 . S
C1665 H1689 0.949 . S
H1666 C1670 0.949 . S
C1667 C1668 1.349 . S
C1667 C1669 1.327 . S
C1667 H1690 0.950 . S
C1668 C1667 1.349 . S
C1668 C1680 1.349 . S
C1669 C1667 1.327 . S
C1669 C1685 1.429 . S
C1669 H1691 0.950 . S
C1670 H1666 0.949 . S
C1670 C1678 1.574 . S
C1670 C1686 1.368 . S
H1671 C1679 0.950 . S
H1672 C1677 0.950 . S
H1673 C1678 0.949 . S
H1674 C1680 0.950 . S
H1675 C1681 0.950 . S
H1676 C1682 0.949 . S
C1677 H1672 0.950 . S
C1677 C1679 1.327 . S
C1677 C1683 1.429 . S
C1678 C1670 1.574 . S
C1678 H1673 0.949 . S
C1678 C1684 1.368 . S
C1679 C1663 1.349 . S
C1679 H1671 0.950 . S
C1679 C1677 1.327 . S
C1680 C1668 1.349 . S
C1680 H1674 0.950 . S
C1680 C1681 1.327 . S
C1681 H1675 0.950 . S
C1681 C1680 1.327 . S
C1681 C1685 1.429 . S
C1682 C1665 1.574 . S
C1682 H1676 0.949 . S
C1682 C1686 1.368 . S
C1683 C1664 1.429 . S
C1683 C1677 1.429 . S
C1683 C1684 1.523 . S
C1684 C1665 1.368 . S
C1684 C1678 1.368 . S
C1684 C1683 1.523 . S
C1685 C1669 1.429 . S
C1685 C1681 1.429 . S
C1685 C1686 1.523 . S
C1686 C1670 1.368 . S
C1686 C1682 1.368 . S
C1686 C1685 1.523 . S
H1687 C1662 0.950 . S
H1688 C1664 0.950 . S
H1689 C1665 0.949 . S
H1690 C1667 0.950 . S
H1691 C1669 0.950 . S
C1692 C1693 1.349 . S
C1692 C1694 1.327 . S
C1692 H1717 0.950 . S
C1693 C1692 1.349 . S
C1693 C1709 1.349 . S
C1694 C1692 1.327 . S
C1694 C1713 1.429 . S
C1694 H1718 0.950 . S
C1695 C1712 1.574 . S
C1695 C1714 1.368 . S
C1695 H1719 0.949 . S
H1696 C1700 0.949 . S
C1697 C1698 1.349 . S
C1697 C1699 1.327 . S
C1697 H1720 0.950 . S
C1698 C1697 1.349 . S
C1698 C1710 1.349 . S
C1699 C1697 1.327 . S
C1699 C1715 1.429 . S
C1699 H1721 0.950 . S
C1700 H1696 0.949 . S
C1700 C1708 1.574 . S
C1700 C1716 1.368 . S
H1701 C1709 0.950 . S
H1702 C1707 0.950 . S
H1703 C1708 0.949 . S
H1704 C1710 0.950 . S
H1705 C1711 0.950 . S
H1706 C1712 0.949 . S
C1707 H1702 0.950 . S
C1707 C1709 1.327 . S
C1707 C1713 1.429 . S
C1708 C1700 1.574 . S
C1708 H1703 0.949 . S
C1708 C1714 1.368 . S
C1709 C1693 1.349 . S
C1709 H1701 0.950 . S
C1709 C1707 1.327 . S
C1710 C1698 1.349 . S
C1710 H1704 0.950 . S
C1710 C1711 1.327 . S
C1711 H1705 0.950 . S
C1711 C1710 1.327 . S
C1711 C1715 1.429 . S
C1712 C1695 1.574 . S
C1712 H1706 0.949 . S
C1712 C1716 1.368 . S
C1713 C1694 1.429 . S
C1713 C1707 1.429 . S
C1713 C1714 1.523 . S
C1714 C1695 1.368 . S
C1714 C1708 1.368 . S
C1714 C1713 1.523 . S
C1715 C1699 1.429 . S
C1715 C1711 1.429 . S
C1715 C1716 1.523 . S
C1716 C1700 1.368 . S
C1716 C1712 1.368 . S
C1716 C1715 1.523 . S
H1717 C1692 0.950 . S
H1718 C1694 0.950 . S
H1719 C1695 0.949 . S
H1720 C1697 0.950 . S
H1721 C1699 0.950 . S
C1722 C1723 1.349 . S
C1722 C1724 1.327 . S
C1722 H1747 0.950 . S
C1723 C1722 1.349 . S
C1723 C1739 1.349 . S
C1724 C1722 1.327 . S
C1724 C1743 1.429 . S
C1724 H1748 0.950 . S
C1725 C1742 1.574 . S
C1725 C1744 1.368 . S
C1725 H1749 0.949 . S
H1726 C1730 0.949 . S
C1727 C1728 1.349 . S
C1727 C1729 1.327 . S
C1727 H1750 0.950 . S
C1728 C1727 1.349 . S
C1728 C1740 1.349 . S
C1729 C1727 1.327 . S
C1729 C1745 1.429 . S
C1729 H1751 0.950 . S
C1730 H1726 0.949 . S
C1730 C1738 1.574 . S
C1730 C1746 1.368 . S
H1731 C1739 0.950 . S
H1732 C1737 0.950 . S
H1733 C1738 0.949 . S
H1734 C1740 0.950 . S
H1735 C1741 0.950 . S
H1736 C1742 0.949 . S
C1737 H1732 0.950 . S
C1737 C1739 1.327 . S
C1737 C1743 1.429 . S
C1738 C1730 1.574 . S
C1738 H1733 0.949 . S
C1738 C1744 1.368 . S
C1739 C1723 1.349 . S
C1739 H1731 0.950 . S
C1739 C1737 1.327 . S
C1740 C1728 1.349 . S
C1740 H1734 0.950 . S
C1740 C1741 1.327 . S
C1741 H1735 0.950 . S
C1741 C1740 1.327 . S
C1741 C1745 1.429 . S
C1742 C1725 1.574 . S
C1742 H1736 0.949 . S
C1742 C1746 1.368 . S
C1743 C1724 1.429 . S
C1743 C1737 1.429 . S
C1743 C1744 1.523 . S
C1744 C1725 1.368 . S
C1744 C1738 1.368 . S
C1744 C1743 1.523 . S
C1745 C1729 1.429 . S
C1745 C1741 1.429 . S
C1745 C1746 1.523 . S
C1746 C1730 1.368 . S
C1746 C1742 1.368 . S
C1746 C1745 1.523 . S
H1747 C1722 0.950 . S
H1748 C1724 0.950 . S
H1749 C1725 0.949 . S
H1750 C1727 0.950 . S
H1751 C1729 0.950 . S
C1752 C1753 1.349 . S
C1752 C1754 1.327 . S
C1752 H1777 0.950 . S
C1753 C1752 1.349 . S
C1753 C1769 1.349 . S
C1754 C1752 1.327 . S
C1754 C1773 1.429 . S
C1754 H1778 0.950 . S
C1755 C1772 1.574 . S
C1755 C1774 1.368 . S
C1755 H1779 0.949 . S
H1756 C1760 0.949 . S
C1757 C1758 1.349 . S
C1757 C1759 1.327 . S
C1757 H1780 0.950 . S
C1758 C1757 1.349 . S
C1758 C1770 1.349 . S
C1759 C1757 1.327 . S
C1759 C1775 1.429 . S
C1759 H1781 0.950 . S
C1760 H1756 0.949 . S
C1760 C1768 1.574 . S
C1760 C1776 1.368 . S
H1761 C1769 0.950 . S
H1762 C1767 0.950 . S
H1763 C1768 0.949 . S
H1764 C1770 0.950 . S
H1765 C1771 0.950 . S
H1766 C1772 0.949 . S
C1767 H1762 0.950 . S
C1767 C1769 1.327 . S
C1767 C1773 1.429 . S
C1768 C1760 1.574 . S
C1768 H1763 0.949 . S
C1768 C1774 1.368 . S
C1769 C1753 1.349 . S
C1769 H1761 0.950 . S
C1769 C1767 1.327 . S
C1770 C1758 1.349 . S
C1770 H1764 0.950 . S
C1770 C1771 1.327 . S
C1771 H1765 0.950 . S
C1771 C1770 1.327 . S
C1771 C1775 1.429 . S
C1772 C1755 1.574 . S
C1772 H1766 0.949 . S
C1772 C1776 1.368 . S
C1773 C1754 1.429 . S
C1773 C1767 1.429 . S
C1773 C1774 1.523 . S
C1774 C1755 1.368 . S
C1774 C1768 1.368 . S
C1774 C1773 1.523 . S
C1775 C1759 1.429 . S
C1775 C1771 1.429 . S
C1775 C1776 1.523 . S
C1776 C1760 1.368 . S
C1776 C1772 1.368 . S
C1776 C1775 1.523 . S
H1777 C1752 0.950 . S
H1778 C1754 0.950 . S
H1779 C1755 0.949 . S
H1780 C1757 0.950 . S
H1781 C1759 0.950 . S
C1782 C1783 1.349 . S
C1782 C1784 1.327 . S
C1782 H1807 0.950 . S
C1783 C1782 1.349 . S
C1783 C1799 1.349 . S
C1784 C1782 1.327 . S
C1784 C1803 1.429 . S
C1784 H1808 0.950 . S
C1785 C1802 1.574 . S
C1785 C1804 1.368 . S
C1785 H1809 0.949 . S
H1786 C1790 0.949 . S
C1787 C1788 1.349 . S
C1787 C1789 1.327 . S
C1787 H1810 0.950 . S
C1788 C1787 1.349 . S
C1788 C1800 1.349 . S
C1789 C1787 1.327 . S
C1789 C1805 1.429 . S
C1789 H1811 0.950 . S
C1790 H1786 0.949 . S
C1790 C1798 1.574 . S
C1790 C1806 1.368 . S
H1791 C1799 0.950 . S
H1792 C1797 0.950 . S
H1793 C1798 0.949 . S
H1794 C1800 0.950 . S
H1795 C1801 0.950 . S
H1796 C1802 0.949 . S
C1797 H1792 0.950 . S
C1797 C1799 1.327 . S
C1797 C1803 1.429 . S
C1798 C1790 1.574 . S
C1798 H1793 0.949 . S
C1798 C1804 1.368 . S
C1799 C1783 1.349 . S
C1799 H1791 0.950 . S
C1799 C1797 1.327 . S
C1800 C1788 1.349 . S
C1800 H1794 0.950 . S
C1800 C1801 1.327 . S
C1801 H1795 0.950 . S
C1801 C1800 1.327 . S
C1801 C1805 1.429 . S
C1802 C1785 1.574 . S
C1802 H1796 0.949 . S
C1802 C1806 1.368 . S
C1803 C1784 1.429 . S
C1803 C1797 1.429 . S
C1803 C1804 1.523 . S
C1804 C1785 1.368 . S
C1804 C1798 1.368 . S
C1804 C1803 1.523 . S
C1805 C1789 1.429 . S
C1805 C1801 1.429 . S
C1805 C1806 1.523 . S
C1806 C1790 1.368 . S
C1806 C1802 1.368 . S
C1806 C1805 1.523 . S
H1807 C1782 0.950 . S
H1808 C1784 0.950 . S
H1809 C1785 0.949 . S
H1810 C1787 0.950 . S
H1811 C1789 0.950 . S
C1812 C1813 1.349 . S
C1812 C1814 1.327 . S
C1812 H1837 0.950 . S
C1813 C1812 1.349 . S
C1813 C1829 1.349 . S
C1814 C1812 1.327 . S
C1814 C1833 1.429 . S
C1814 H1838 0.950 . S
C1815 C1832 1.574 . S
C1815 C1834 1.368 . S
C1815 H1839 0.949 . S
H1816 C1820 0.949 . S
C1817 C1818 1.349 . S
C1817 C1819 1.327 . S
C1817 H1840 0.950 . S
C1818 C1817 1.349 . S
C1818 C1830 1.349 . S
C1819 C1817 1.327 . S
C1819 C1835 1.429 . S
C1819 H1841 0.950 . S
C1820 H1816 0.949 . S
C1820 C1828 1.574 . S
C1820 C1836 1.368 . S
H1821 C1829 0.950 . S
H1822 C1827 0.950 . S
H1823 C1828 0.949 . S
H1824 C1830 0.950 . S
H1825 C1831 0.950 . S
H1826 C1832 0.949 . S
C1827 H1822 0.950 . S
C1827 C1829 1.327 . S
C1827 C1833 1.429 . S
C1828 C1820 1.574 . S
C1828 H1823 0.949 . S
C1828 C1834 1.368 . S
C1829 C1813 1.349 . S
C1829 H1821 0.950 . S
C1829 C1827 1.327 . S
C1830 C1818 1.349 . S
C1830 H1824 0.950 . S
C1830 C1831 1.327 . S
C1831 H1825 0.950 . S
C1831 C1830 1.327 . S
C1831 C1835 1.429 . S
C1832 C1815 1.574 . S
C1832 H1826 0.949 . S
C1832 C1836 1.368 . S
C1833 C1814 1.429 . S
C1833 C1827 1.429 . S
C1833 C1834 1.523 . S
C1834 C1815 1.368 . S
C1834 C1828 1.368 . S
C1834 C1833 1.523 . S
C1835 C1819 1.429 . S
C1835 C1831 1.429 . S
C1835 C1836 1.523 . S
C1836 C1820 1.368 . S
C1836 C1832 1.368 . S
C1836 C1835 1.523 . S
H1837 C1812 0.950 . S
H1838 C1814 0.950 . S
H1839 C1815 0.949 . S
H1840 C1817 0.950 . S
H1841 C1819 0.950 . S
C1842 C1843 1.349 . S
C1842 C1844 1.327 . S
C1842 H1867 0.950 . S
C1843 C1842 1.349 . S
C1843 C1859 1.349 . S
C1844 C1842 1.327 . S
C1844 C1863 1.429 . S
C1844 H1868 0.950 . S
C1845 C1862 1.574 . S
C1845 C1864 1.368 . S
C1845 H1869 0.949 . S
H1846 C1850 0.949 . S
C1847 C1848 1.349 . S
C1847 C1849 1.327 . S
C1847 H1870 0.950 . S
C1848 C1847 1.349 . S
C1848 C1860 1.349 . S
C1849 C1847 1.327 . S
C1849 C1865 1.429 . S
C1849 H1871 0.950 . S
C1850 H1846 0.949 . S
C1850 C1858 1.574 . S
C1850 C1866 1.368 . S
H1851 C1859 0.950 . S
H1852 C1857 0.950 . S
H1853 C1858 0.949 . S
H1854 C1860 0.950 . S
H1855 C1861 0.950 . S
H1856 C1862 0.949 . S
C1857 H1852 0.950 . S
C1857 C1859 1.327 . S
C1857 C1863 1.429 . S
C1858 C1850 1.574 . S
C1858 H1853 0.949 . S
C1858 C1864 1.368 . S
C1859 C1843 1.349 . S
C1859 H1851 0.950 . S
C1859 C1857 1.327 . S
C1860 C1848 1.349 . S
C1860 H1854 0.950 . S
C1860 C1861 1.327 . S
C1861 H1855 0.950 . S
C1861 C1860 1.327 . S
C1861 C1865 1.429 . S
C1862 C1845 1.574 . S
C1862 H1856 0.949 . S
C1862 C1866 1.368 . S
C1863 C1844 1.429 . S
C1863 C1857 1.429 . S
C1863 C1864 1.523 . S
C1864 C1845 1.368 . S
C1864 C1858 1.368 . S
C1864 C1863 1.523 . S
C1865 C1849 1.429 . S
C1865 C1861 1.429 . S
C1865 C1866 1.523 . S
C1866 C1850 1.368 . S
C1866 C1862 1.368 . S
C1866 C1865 1.523 . S
H1867 C1842 0.950 . S
H1868 C1844 0.950 . S
H1869 C1845 0.949 . S
H1870 C1847 0.950 . S
H1871 C1849 0.950 . S
C1872 C1873 1.349 . S
C1872 C1874 1.327 . S
C1872 H1897 0.950 . S
C1873 C1872 1.349 . S
C1873 C1889 1.349 . S
C1874 C1872 1.327 . S
C1874 C1893 1.429 . S
C1874 H1898 0.950 . S
C1875 C1892 1.574 . S
C1875 C1894 1.368 . S
C1875 H1899 0.949 . S
H1876 C1880 0.949 . S
C1877 C1878 1.349 . S
C1877 C1879 1.327 . S
C1877 H1900 0.950 . S
C1878 C1877 1.349 . S
C1878 C1890 1.349 . S
C1879 C1877 1.327 . S
C1879 C1895 1.429 . S
C1879 H1901 0.950 . S
C1880 H1876 0.949 . S
C1880 C1888 1.574 . S
C1880 C1896 1.368 . S
H1881 C1889 0.950 . S
H1882 C1887 0.950 . S
H1883 C1888 0.949 . S
H1884 C1890 0.950 . S
H1885 C1891 0.950 . S
H1886 C1892 0.949 . S
C1887 H1882 0.950 . S
C1887 C1889 1.327 . S
C1887 C1893 1.429 . S
C1888 C1880 1.574 . S
C1888 H1883 0.949 . S
C1888 C1894 1.368 . S
C1889 C1873 1.349 . S
C1889 H1881 0.950 . S
C1889 C1887 1.327 . S
C1890 C1878 1.349 . S
C1890 H1884 0.950 . S
C1890 C1891 1.327 . S
C1891 H1885 0.950 . S
C1891 C1890 1.327 . S
C1891 C1895 1.429 . S
C1892 C1875 1.574 . S
C1892 H1886 0.949 . S
C1892 C1896 1.368 . S
C1893 C1874 1.429 . S
C1893 C1887 1.429 . S
C1893 C1894 1.523 . S
C1894 C1875 1.368 . S
C1894 C1888 1.368 . S
C1894 C1893 1.523 . S
C1895 C1879 1.429 . S
C1895 C1891 1.429 . S
C1895 C1896 1.523 . S
C1896 C1880 1.368 . S
C1896 C1892 1.368 . S
C1896 C1895 1.523 . S
H1897 C1872 0.950 . S
H1898 C1874 0.950 . S
H1899 C1875 0.949 . S
H1900 C1877 0.950 . S
H1901 C1879 0.950 . S
C1902 C1903 1.349 . S
C1902 C1904 1.327 . S
C1902 H1927 0.950 . S
C1903 C1902 1.349 . S
C1903 C1919 1.349 . S
C1904 C1902 1.327 . S
C1904 C1923 1.429 . S
C1904 H1928 0.950 . S
C1905 C1922 1.574 . S
C1905 C1924 1.368 . S
C1905 H1929 0.949 . S
H1906 C1910 0.949 . S
C1907 C1908 1.349 . S
C1907 C1909 1.327 . S
C1907 H1930 0.950 . S
C1908 C1907 1.349 . S
C1908 C1920 1.349 . S
C1909 C1907 1.327 . S
C1909 C1925 1.429 . S
C1909 H1931 0.950 . S
C1910 H1906 0.949 . S
C1910 C1918 1.574 . S
C1910 C1926 1.368 . S
H1911 C1919 0.950 . S
H1912 C1917 0.950 . S
H1913 C1918 0.949 . S
H1914 C1920 0.950 . S
H1915 C1921 0.950 . S
H1916 C1922 0.949 . S
C1917 H1912 0.950 . S
C1917 C1919 1.327 . S
C1917 C1923 1.429 . S
C1918 C1910 1.574 . S
C1918 H1913 0.949 . S
C1918 C1924 1.368 . S
C1919 C1903 1.349 . S
C1919 H1911 0.950 . S
C1919 C1917 1.327 . S
C1920 C1908 1.349 . S
C1920 H1914 0.950 . S
C1920 C1921 1.327 . S
C1921 H1915 0.950 . S
C1921 C1920 1.327 . S
C1921 C1925 1.429 . S
C1922 C1905 1.574 . S
C1922 H1916 0.949 . S
C1922 C1926 1.368 . S
C1923 C1904 1.429 . S
C1923 C1917 1.429 . S
C1923 C1924 1.523 . S
C1924 C1905 1.368 . S
C1924 C1918 1.368 . S
C1924 C1923 1.523 . S
C1925 C1909 1.429 . S
C1925 C1921 1.429 . S
C1925 C1926 1.523 . S
C1926 C1910 1.368 . S
C1926 C1922 1.368 . S
C1926 C1925 1.523 . S
H1927 C1902 0.950 . S
H1928 C1904 0.950 . S
H1929 C1905 0.949 . S
H1930 C1907 0.950 . S
H1931 C1909 0.950 . S
C1932 C1933 1.349 . S
C1932 C1934 1.327 . S
C1932 H1957 0.950 . S
C1933 C1932 1.349 . S
C1933 C1949 1.349 . S
C1934 C1932 1.327 . S
C1934 C1953 1.429 . S
C1934 H1958 0.950 . S
C1935 C1952 1.574 . S
C1935 C1954 1.368 . S
C1935 H1959 0.949 . S
H1936 C1940 0.949 . S
C1937 C1938 1.349 . S
C1937 C1939 1.327 . S
C1937 H1960 0.950 . S
C1938 C1937 1.349 . S
C1938 C1950 1.349 . S
C1939 C1937 1.327 . S
C1939 C1955 1.429 . S
C1939 H1961 0.950 . S
C1940 H1936 0.949 . S
C1940 C1948 1.574 . S
C1940 C1956 1.368 . S
H1941 C1949 0.950 . S
H1942 C1947 0.950 . S
H1943 C1948 0.949 . S
H1944 C1950 0.950 . S
H1945 C1951 0.950 . S
H1946 C1952 0.949 . S
C1947 H1942 0.950 . S
C1947 C1949 1.327 . S
C1947 C1953 1.429 . S
C1948 C1940 1.574 . S
C1948 H1943 0.949 . S
C1948 C1954 1.368 . S
C1949 C1933 1.349 . S
C1949 H1941 0.950 . S
C1949 C1947 1.327 . S
C1950 C1938 1.349 . S
C1950 H1944 0.950 . S
C1950 C1951 1.327 . S
C1951 H1945 0.950 . S
C1951 C1950 1.327 . S
C1951 C1955 1.429 . S
C1952 C1935 1.574 . S
C1952 H1946 0.949 . S
C1952 C1956 1.368 . S
C1953 C1934 1.429 . S
C1953 C1947 1.429 . S
C1953 C1954 1.523 . S
C1954 C1935 1.368 . S
C1954 C1948 1.368 . S
C1954 C1953 1.523 . S
C1955 C1939 1.429 . S
C1955 C1951 1.429 . S
C1955 C1956 1.523 . S
C1956 C1940 1.368 . S
C1956 C1952 1.368 . S
C1956 C1955 1.523 . S
H1957 C1932 0.950 . S
H1958 C1934 0.950 . S
H1959 C1935 0.949 . S
H1960 C1937 0.950 . S
H1961 C1939 0.950 . S
C1962 C1963 1.349 . S
C1962 C1964 1.327 . S
C1962 H1987 0.950 . S
C1963 C1962 1.349 . S
C1963 C1979 1.349 . S
C1964 C1962 1.327 . S
C1964 C1983 1.429 . S
C1964 H1988 0.950 . S
C1965 C1982 1.574 . S
C1965 C1984 1.368 . S
C1965 H1989 0.949 . S
H1966 C1970 0.949 . S
C1967 C1968 1.349 . S
C1967 C1969 1.327 . S
C1967 H1990 0.950 . S
C1968 C1967 1.349 . S
C1968 C1980 1.349 . S
C1969 C1967 1.327 . S
C1969 C1985 1.429 . S
C1969 H1991 0.950 . S
C1970 H1966 0.949 . S
C1970 C1978 1.574 . S
C1970 C1986 1.368 . S
H1971 C1979 0.950 . S
H1972 C1977 0.950 . S
H1973 C1978 0.949 . S
H1974 C1980 0.950 . S
H1975 C1981 0.950 . S
H1976 C1982 0.949 . S
C1977 H1972 0.950 . S
C1977 C1979 1.327 . S
C1977 C1983 1.429 . S
C1978 C1970 1.574 . S
C1978 H1973 0.949 . S
C1978 C1984 1.368 . S
C1979 C1963 1.349 . S
C1979 H1971 0.950 . S
C1979 C1977 1.327 . S
C1980 C1968 1.349 . S
C1980 H1974 0.950 . S
C1980 C1981 1.327 . S
C1981 H1975 0.950 . S
C1981 C1980 1.327 . S
C1981 C1985 1.429 . S
C1982 C1965 1.574 . S
C1982 H1976 0.949 . S
C1982 C1986 1.368 . S
C1983 C1964 1.429 . S
C1983 C1977 1.429 . S
C1983 C1984 1.523 . S
C1984 C1965 1.368 . S
C1984 C1978 1.368 . S
C1984 C1983 1.523 . S
C1985 C1969 1.429 . S
C1985 C1981 1.429 . S
C1985 C1986 1.523 . S
C1986 C1970 1.368 . S
C1986 C1982 1.368 . S
C1986 C1985 1.523 . S
H1987 C1962 0.950 . S
H1988 C1964 0.950 . S
H1989 C1965 0.949 . S
H1990 C1967 0.950 . S
H1991 C1969 0.950 . S
C1992 C1993 1.349 . S
C1992 C1994 1.327 . S
C1992 H2017 0.950 . S
C1993 C1992 1.349 . S
C1993 C2009 1.349 . S
C1994 C1992 1.327 . S
C1994 C2013 1.429 . S
C1994 H2018 0.950 . S
C1995 C2012 1.574 . S
C1995 C2014 1.368 . S
C1995 H2019 0.949 . S
H1996 C2000 0.949 . S
C1997 C1998 1.349 . S
C1997 C1999 1.327 . S
C1997 H2020 0.950 . S
C1998 C1997 1.349 . S
C1998 C2010 1.349 . S
C1999 C1997 1.327 . S
C1999 C2015 1.429 . S
C1999 H2021 0.950 . S
C2000 H1996 0.949 . S
C2000 C2008 1.574 . S
C2000 C2016 1.368 . S
H2001 C2009 0.950 . S
H2002 C2007 0.950 . S
H2003 C2008 0.949 . S
H2004 C2010 0.950 . S
H2005 C2011 0.950 . S
H2006 C2012 0.949 . S
C2007 H2002 0.950 . S
C2007 C2009 1.327 . S
C2007 C2013 1.429 . S
C2008 C2000 1.574 . S
C2008 H2003 0.949 . S
C2008 C2014 1.368 . S
C2009 C1993 1.349 . S
C2009 H2001 0.950 . S
C2009 C2007 1.327 . S
C2010 C1998 1.349 . S
C2010 H2004 0.950 . S
C2010 C2011 1.327 . S
C2011 H2005 0.950 . S
C2011 C2010 1.327 . S
C2011 C2015 1.429 . S
C2012 C1995 1.574 . S
C2012 H2006 0.949 . S
C2012 C2016 1.368 . S
C2013 C1994 1.429 . S
C2013 C2007 1.429 . S
C2013 C2014 1.523 . S
C2014 C1995 1.368 . S
C2014 C2008 1.368 . S
C2014 C2013 1.523 . S
C2015 C1999 1.429 . S
C2015 C2011 1.429 . S
C2015 C2016 1.523 . S
C2016 C2000 1.368 . S
C2016 C2012 1.368 . S
C2016 C2015 1.523 . S
H2017 C1992 0.950 . S
H2018 C1994 0.950 . S
H2019 C1995 0.949 . S
H2020 C1997 0.950 . S
H2021 C1999 0.950 . S
C2022 C2023 1.349 . S
C2022 C2024 1.327 . S
C2022 H2047 0.950 . S
C2023 C2022 1.349 . S
C2023 C2039 1.349 . S
C2024 C2022 1.327 . S
C2024 C2043 1.429 . S
C2024 H2048 0.950 . S
C2025 C2042 1.574 . S
C2025 C2044 1.368 . S
C2025 H2049 0.949 . S
H2026 C2030 0.949 . S
C2027 C2028 1.349 . S
C2027 C2029 1.327 . S
C2027 H2050 0.950 . S
C2028 C2027 1.349 . S
C2028 C2040 1.349 . S
C2029 C2027 1.327 . S
C2029 C2045 1.429 . S
C2029 H2051 0.950 . S
C2030 H2026 0.949 . S
C2030 C2038 1.574 . S
C2030 C2046 1.368 . S
H2031 C2039 0.950 . S
H2032 C2037 0.950 . S
H2033 C2038 0.949 . S
H2034 C2040 0.950 . S
H2035 C2041 0.950 . S
H2036 C2042 0.949 . S
C2037 H2032 0.950 . S
C2037 C2039 1.327 . S
C2037 C2043 1.429 . S
C2038 C2030 1.574 . S
C2038 H2033 0.949 . S
C2038 C2044 1.368 . S
C2039 C2023 1.349 . S
C2039 H2031 0.950 . S
C2039 C2037 1.327 . S
C2040 C2028 1.349 . S
C2040 H2034 0.950 . S
C2040 C2041 1.327 . S
C2041 H2035 0.950 . S
C2041 C2040 1.327 . S
C2041 C2045 1.429 . S
C2042 C2025 1.574 . S
C2042 H2036 0.949 . S
C2042 C2046 1.368 . S
C2043 C2024 1.429 . S
C2043 C2037 1.429 . S
C2043 C2044 1.523 . S
C2044 C2025 1.368 . S
C2044 C2038 1.368 . S
C2044 C2043 1.523 . S
C2045 C2029 1.429 . S
C2045 C2041 1.429 . S
C2045 C2046 1.523 . S
C2046 C2030 1.368 . S
C2046 C2042 1.368 . S
C2046 C2045 1.523 . S
H2047 C2022 0.950 . S
H2048 C2024 0.950 . S
H2049 C2025 0.949 . S
H2050 C2027 0.950 . S
H2051 C2029 0.950 . S
C2052 C2053 1.349 . S
C2052 C2054 1.327 . S
C2052 H2077 0.950 . S
C2053 C2052 1.349 . S
C2053 C2069 1.349 . S
C2054 C2052 1.327 . S
C2054 C2073 1.429 . S
C2054 H2078 0.950 . S
C2055 C2072 1.574 . S
C2055 C2074 1.368 . S
C2055 H2079 0.949 . S
H2056 C2060 0.949 . S
C2057 C2058 1.349 . S
C2057 C2059 1.327 . S
C2057 H2080 0.950 . S
C2058 C2057 1.349 . S
C2058 C2070 1.349 . S
C2059 C2057 1.327 . S
C2059 C2075 1.429 . S
C2059 H2081 0.950 . S
C2060 H2056 0.949 . S
C2060 C2068 1.574 . S
C2060 C2076 1.368 . S
H2061 C2069 0.950 . S
H2062 C2067 0.950 . S
H2063 C2068 0.949 . S
H2064 C2070 0.950 . S
H2065 C2071 0.950 . S
H2066 C2072 0.949 . S
C2067 H2062 0.950 . S
C2067 C2069 1.327 . S
C2067 C2073 1.429 . S
C2068 C2060 1.574 . S
C2068 H2063 0.949 . S
C2068 C2074 1.368 . S
C2069 C2053 1.349 . S
C2069 H2061 0.950 . S
C2069 C2067 1.327 . S
C2070 C2058 1.349 . S
C2070 H2064 0.950 . S
C2070 C2071 1.327 . S
C2071 H2065 0.950 . S
C2071 C2070 1.327 . S
C2071 C2075 1.429 . S
C2072 C2055 1.574 . S
C2072 H2066 0.949 . S
C2072 C2076 1.368 . S
C2073 C2054 1.429 . S
C2073 C2067 1.429 . S
C2073 C2074 1.523 . S
C2074 C2055 1.368 . S
C2074 C2068 1.368 . S
C2074 C2073 1.523 . S
C2075 C2059 1.429 . S
C2075 C2071 1.429 . S
C2075 C2076 1.523 . S
C2076 C2060 1.368 . S
C2076 C2072 1.368 . S
C2076 C2075 1.523 . S
H2077 C2052 0.950 . S
H2078 C2054 0.950 . S
H2079 C2055 0.949 . S
H2080 C2057 0.950 . S
H2081 C2059 0.950 . S
C2082 C2083 1.349 . S
C2082 C2084 1.327 . S
C2082 H2107 0.950 . S
C2083 C2082 1.349 . S
C2083 C2099 1.349 . S
C2084 C2082 1.327 . S
C2084 C2103 1.429 . S
C2084 H2108 0.950 . S
C2085 C2102 1.574 . S
C2085 C2104 1.368 . S
C2085 H2109 0.949 . S
H2086 C2090 0.949 . S
C2087 C2088 1.349 . S
C2087 C2089 1.327 . S
C2087 H2110 0.950 . S
C2088 C2087 1.349 . S
C2088 C2100 1.349 . S
C2089 C2087 1.327 . S
C2089 C2105 1.429 . S
C2089 H2111 0.950 . S
C2090 H2086 0.949 . S
C2090 C2098 1.574 . S
C2090 C2106 1.368 . S
H2091 C2099 0.950 . S
H2092 C2097 0.950 . S
H2093 C2098 0.949 . S
H2094 C2100 0.950 . S
H2095 C2101 0.950 . S
H2096 C2102 0.949 . S
C2097 H2092 0.950 . S
C2097 C2099 1.327 . S
C2097 C2103 1.429 . S
C2098 C2090 1.574 . S
C2098 H2093 0.949 . S
C2098 C2104 1.368 . S
C2099 C2083 1.349 . S
C2099 H2091 0.950 . S
C2099 C2097 1.327 . S
C2100 C2088 1.349 . S
C2100 H2094 0.950 . S
C2100 C2101 1.327 . S
C2101 H2095 0.950 . S
C2101 C2100 1.327 . S
C2101 C2105 1.429 . S
C2102 C2085 1.574 . S
C2102 H2096 0.949 . S
C2102 C2106 1.368 . S
C2103 C2084 1.429 . S
C2103 C2097 1.429 . S
C2103 C2104 1.523 . S
C2104 C2085 1.368 . S
C2104 C2098 1.368 . S
C2104 C2103 1.523 . S
C2105 C2089 1.429 . S
C2105 C2101 1.429 . S
C2105 C2106 1.523 . S
C2106 C2090 1.368 . S
C2106 C2102 1.368 . S
C2106 C2105 1.523 . S
H2107 C2082 0.950 . S
H2108 C2084 0.950 . S
H2109 C2085 0.949 . S
H2110 C2087 0.950 . S
H2111 C2089 0.950 . S
C2112 C2113 1.349 . S
C2112 C2114 1.327 . S
C2112 H2137 0.950 . S
C2113 C2112 1.349 . S
C2113 C2129 1.349 . S
C2114 C2112 1.327 . S
C2114 C2133 1.429 . S
C2114 H2138 0.950 . S
C2115 C2132 1.574 . S
C2115 C2134 1.368 . S
C2115 H2139 0.949 . S
H2116 C2120 0.949 . S
C2117 C2118 1.349 . S
C2117 C2119 1.327 . S
C2117 H2140 0.950 . S
C2118 C2117 1.349 . S
C2118 C2130 1.349 . S
C2119 C2117 1.327 . S
C2119 C2135 1.429 . S
C2119 H2141 0.950 . S
C2120 H2116 0.949 . S
C2120 C2128 1.574 . S
C2120 C2136 1.368 . S
H2121 C2129 0.950 . S
H2122 C2127 0.950 . S
H2123 C2128 0.949 . S
H2124 C2130 0.950 . S
H2125 C2131 0.950 . S
H2126 C2132 0.949 . S
C2127 H2122 0.950 . S
C2127 C2129 1.327 . S
C2127 C2133 1.429 . S
C2128 C2120 1.574 . S
C2128 H2123 0.949 . S
C2128 C2134 1.368 . S
C2129 C2113 1.349 . S
C2129 H2121 0.950 . S
C2129 C2127 1.327 . S
C2130 C2118 1.349 . S
C2130 H2124 0.950 . S
C2130 C2131 1.327 . S
C2131 H2125 0.950 . S
C2131 C2130 1.327 . S
C2131 C2135 1.429 . S
C2132 C2115 1.574 . S
C2132 H2126 0.949 . S
C2132 C2136 1.368 . S
C2133 C2114 1.429 . S
C2133 C2127 1.429 . S
C2133 C2134 1.523 . S
C2134 C2115 1.368 . S
C2134 C2128 1.368 . S
C2134 C2133 1.523 . S
C2135 C2119 1.429 . S
C2135 C2131 1.429 . S
C2135 C2136 1.523 . S
C2136 C2120 1.368 . S
C2136 C2132 1.368 . S
C2136 C2135 1.523 . S
H2137 C2112 0.950 . S
H2138 C2114 0.950 . S
H2139 C2115 0.949 . S
H2140 C2117 0.950 . S
H2141 C2119 0.950 . S
C2142 C2143 1.349 . S
C2142 C2144 1.327 . S
C2142 H2167 0.950 . S
C2143 C2142 1.349 . S
C2143 C2159 1.349 . S
C2144 C2142 1.327 . S
C2144 C2163 1.429 . S
C2144 H2168 0.950 . S
C2145 C2162 1.574 . S
C2145 C2164 1.368 . S
C2145 H2169 0.949 . S
H2146 C2150 0.949 . S
C2147 C2148 1.349 . S
C2147 C2149 1.327 . S
C2147 H2170 0.950 . S
C2148 C2147 1.349 . S
C2148 C2160 1.349 . S
C2149 C2147 1.327 . S
C2149 C2165 1.429 . S
C2149 H2171 0.950 . S
C2150 H2146 0.949 . S
C2150 C2158 1.574 . S
C2150 C2166 1.368 . S
H2151 C2159 0.950 . S
H2152 C2157 0.950 . S
H2153 C2158 0.949 . S
H2154 C2160 0.950 . S
H2155 C2161 0.950 . S
H2156 C2162 0.949 . S
C2157 H2152 0.950 . S
C2157 C2159 1.327 . S
C2157 C2163 1.429 . S
C2158 C2150 1.574 . S
C2158 H2153 0.949 . S
C2158 C2164 1.368 . S
C2159 C2143 1.349 . S
C2159 H2151 0.950 . S
C2159 C2157 1.327 . S
C2160 C2148 1.349 . S
C2160 H2154 0.950 . S
C2160 C2161 1.327 . S
C2161 H2155 0.950 . S
C2161 C2160 1.327 . S
C2161 C2165 1.429 . S
C2162 C2145 1.574 . S
C2162 H2156 0.949 . S
C2162 C2166 1.368 . S
C2163 C2144 1.429 . S
C2163 C2157 1.429 . S
C2163 C2164 1.523 . S
C2164 C2145 1.368 . S
C2164 C2158 1.368 . S
C2164 C2163 1.523 . S
C2165 C2149 1.429 . S
C2165 C2161 1.429 . S
C2165 C2166 1.523 . S
C2166 C2150 1.368 . S
C2166 C2162 1.368 . S
C2166 C2165 1.523 . S
H2167 C2142 0.950 . S
H2168 C2144 0.950 . S
H2169 C2145 0.949 . S
H2170 C2147 0.950 . S
H2171 C2149 0.950 . S
C2172 C2173 1.349 . S
C2172 C2174 1.327 . S
C2172 H2197 0.950 . S
C2173 C2172 1.349 . S
C2173 C2189 1.349 . S
C2174 C2172 1.327 . S
C2174 C2193 1.429 . S
C2174 H2198 0.950 . S
C2175 C2192 1.574 . S
C2175 C2194 1.368 . S
C2175 H2199 0.949 . S
H2176 C2180 0.949 . S
C2177 C2178 1.349 . S
C2177 C2179 1.327 . S
C2177 H2200 0.950 . S
C2178 C2177 1.349 . S
C2178 C2190 1.349 . S
C2179 C2177 1.327 . S
C2179 C2195 1.429 . S
C2179 H2201 0.950 . S
C2180 H2176 0.949 . S
C2180 C2188 1.574 . S
C2180 C2196 1.368 . S
H2181 C2189 0.950 . S
H2182 C2187 0.950 . S
H2183 C2188 0.949 . S
H2184 C2190 0.950 . S
H2185 C2191 0.950 . S
H2186 C2192 0.949 . S
C2187 H2182 0.950 . S
C2187 C2189 1.327 . S
C2187 C2193 1.429 . S
C2188 C2180 1.574 . S
C2188 H2183 0.949 . S
C2188 C2194 1.368 . S
C2189 C2173 1.349 . S
C2189 H2181 0.950 . S
C2189 C2187 1.327 . S
C2190 C2178 1.349 . S
C2190 H2184 0.950 . S
C2190 C2191 1.327 . S
C2191 H2185 0.950 . S
C2191 C2190 1.327 . S
C2191 C2195 1.429 . S
C2192 C2175 1.574 . S
C2192 H2186 0.949 . S
C2192 C2196 1.368 . S
C2193 C2174 1.429 . S
C2193 C2187 1.429 . S
C2193 C2194 1.523 . S
C2194 C2175 1.368 . S
C2194 C2188 1.368 . S
C2194 C2193 1.523 . S
C2195 C2179 1.429 . S
C2195 C2191 1.429 . S
C2195 C2196 1.523 . S
C2196 C2180 1.368 . S
C2196 C2192 1.368 . S
C2196 C2195 1.523 . S
H2197 C2172 0.950 . S
H2198 C2174 0.950 . S
H2199 C2175 0.949 . S
H2200 C2177 0.950 . S
H2201 C2179 0.950 . S
C2202 C2203 1.349 . S
C2202 C2204 1.327 . S
C2202 H2227 0.950 . S
C2203 C2202 1.349 . S
C2203 C2219 1.349 . S
C2204 C2202 1.327 . S
C2204 C2223 1.429 . S
C2204 H2228 0.950 . S
C2205 C2222 1.574 . S
C2205 C2224 1.368 . S
C2205 H2229 0.949 . S
H2206 C2210 0.949 . S
C2207 C2208 1.349 . S
C2207 C2209 1.327 . S
C2207 H2230 0.950 . S
C2208 C2207 1.349 . S
C2208 C2220 1.349 . S
C2209 C2207 1.327 . S
C2209 C2225 1.429 . S
C2209 H2231 0.950 . S
C2210 H2206 0.949 . S
C2210 C2218 1.574 . S
C2210 C2226 1.368 . S
H2211 C2219 0.950 . S
H2212 C2217 0.950 . S
H2213 C2218 0.949 . S
H2214 C2220 0.950 . S
H2215 C2221 0.950 . S
H2216 C2222 0.949 . S
C2217 H2212 0.950 . S
C2217 C2219 1.327 . S
C2217 C2223 1.429 . S
C2218 C2210 1.574 . S
C2218 H2213 0.949 . S
C2218 C2224 1.368 . S
C2219 C2203 1.349 . S
C2219 H2211 0.950 . S
C2219 C2217 1.327 . S
C2220 C2208 1.349 . S
C2220 H2214 0.950 . S
C2220 C2221 1.327 . S
C2221 H2215 0.950 . S
C2221 C2220 1.327 . S
C2221 C2225 1.429 . S
C2222 C2205 1.574 . S
C2222 H2216 0.949 . S
C2222 C2226 1.368 . S
C2223 C2204 1.429 . S
C2223 C2217 1.429 . S
C2223 C2224 1.523 . S
C2224 C2205 1.368 . S
C2224 C2218 1.368 . S
C2224 C2223 1.523 . S
C2225 C2209 1.429 . S
C2225 C2221 1.429 . S
C2225 C2226 1.523 . S
C2226 C2210 1.368 . S
C2226 C2222 1.368 . S
C2226 C2225 1.523 . S
H2227 C2202 0.950 . S
H2228 C2204 0.950 . S
H2229 C2205 0.949 . S
H2230 C2207 0.950 . S
H2231 C2209 0.950 . S
C2232 C2233 1.349 . S
C2232 C2234 1.327 . S
C2232 H2257 0.950 . S
C2233 C2232 1.349 . S
C2233 C2249 1.349 . S
C2234 C2232 1.327 . S
C2234 C2253 1.429 . S
C2234 H2258 0.950 . S
C2235 C2252 1.574 . S
C2235 C2254 1.368 . S
C2235 H2259 0.949 . S
H2236 C2240 0.949 . S
C2237 C2238 1.349 . S
C2237 C2239 1.327 . S
C2237 H2260 0.950 . S
C2238 C2237 1.349 . S
C2238 C2250 1.349 . S
C2239 C2237 1.327 . S
C2239 C2255 1.429 . S
C2239 H2261 0.950 . S
C2240 H2236 0.949 . S
C2240 C2248 1.574 . S
C2240 C2256 1.368 . S
H2241 C2249 0.950 . S
H2242 C2247 0.950 . S
H2243 C2248 0.949 . S
H2244 C2250 0.950 . S
H2245 C2251 0.950 . S
H2246 C2252 0.949 . S
C2247 H2242 0.950 . S
C2247 C2249 1.327 . S
C2247 C2253 1.429 . S
C2248 C2240 1.574 . S
C2248 H2243 0.949 . S
C2248 C2254 1.368 . S
C2249 C2233 1.349 . S
C2249 H2241 0.950 . S
C2249 C2247 1.327 . S
C2250 C2238 1.349 . S
C2250 H2244 0.950 . S
C2250 C2251 1.327 . S
C2251 H2245 0.950 . S
C2251 C2250 1.327 . S
C2251 C2255 1.429 . S
C2252 C2235 1.574 . S
C2252 H2246 0.949 . S
C2252 C2256 1.368 . S
C2253 C2234 1.429 . S
C2253 C2247 1.429 . S
C2253 C2254 1.523 . S
C2254 C2235 1.368 . S
C2254 C2248 1.368 . S
C2254 C2253 1.523 . S
C2255 C2239 1.429 . S
C2255 C2251 1.429 . S
C2255 C2256 1.523 . S
C2256 C2240 1.368 . S
C2256 C2252 1.368 . S
C2256 C2255 1.523 . S
H2257 C2232 0.950 . S
H2258 C2234 0.950 . S
H2259 C2235 0.949 . S
H2260 C2237 0.950 . S
H2261 C2239 0.950 . S
C2262 C2263 1.349 . S
C2262 C2264 1.327 . S
C2262 H2287 0.950 . S
C2263 C2262 1.349 . S
C2263 C2279 1.349 . S
C2264 C2262 1.327 . S
C2264 C2283 1.429 . S
C2264 H2288 0.950 . S
C2265 C2282 1.574 . S
C2265 C2284 1.368 . S
C2265 H2289 0.949 . S
H2266 C2270 0.949 . S
C2267 C2268 1.349 . S
C2267 C2269 1.327 . S
C2267 H2290 0.950 . S
C2268 C2267 1.349 . S
C2268 C2280 1.349 . S
C2269 C2267 1.327 . S
C2269 C2285 1.429 . S
C2269 H2291 0.950 . S
C2270 H2266 0.949 . S
C2270 C2278 1.574 . S
C2270 C2286 1.368 . S
H2271 C2279 0.950 . S
H2272 C2277 0.950 . S
H2273 C2278 0.949 . S
H2274 C2280 0.950 . S
H2275 C2281 0.950 . S
H2276 C2282 0.949 . S
C2277 H2272 0.950 . S
C2277 C2279 1.327 . S
C2277 C2283 1.429 . S
C2278 C2270 1.574 . S
C2278 H2273 0.949 . S
C2278 C2284 1.368 . S
C2279 C2263 1.349 . S
C2279 H2271 0.950 . S
C2279 C2277 1.327 . S
C2280 C2268 1.349 . S
C2280 H2274 0.950 . S
C2280 C2281 1.327 . S
C2281 H2275 0.950 . S
C2281 C2280 1.327 . S
C2281 C2285 1.429 . S
C2282 C2265 1.574 . S
C2282 H2276 0.949 . S
C2282 C2286 1.368 . S
C2283 C2264 1.429 . S
C2283 C2277 1.429 . S
C2283 C2284 1.523 . S
C2284 C2265 1.368 . S
C2284 C2278 1.368 . S
C2284 C2283 1.523 . S
C2285 C2269 1.429 . S
C2285 C2281 1.429 . S
C2285 C2286 1.523 . S
C2286 C2270 1.368 . S
C2286 C2282 1.368 . S
C2286 C2285 1.523 . S
H2287 C2262 0.950 . S
H2288 C2264 0.950 . S
H2289 C2265 0.949 . S
H2290 C2267 0.950 . S
H2291 C2269 0.950 . S
C2292 C2293 1.349 . S
C2292 C2294 1.327 . S
C2292 H2317 0.950 . S
C2293 C2292 1.349 . S
C2293 C2309 1.349 . S
C2294 C2292 1.327 . S
C2294 C2313 1.429 . S
C2294 H2318 0.950 . S
C2295 C2312 1.574 . S
C2295 C2314 1.368 . S
C2295 H2319 0.949 . S
H2296 C2300 0.949 . S
C2297 C2298 1.349 . S
C2297 C2299 1.327 . S
C2297 H2320 0.950 . S
C2298 C2297 1.349 . S
C2298 C2310 1.349 . S
C2299 C2297 1.327 . S
C2299 C2315 1.429 . S
C2299 H2321 0.950 . S
C2300 H2296 0.949 . S
C2300 C2308 1.574 . S
C2300 C2316 1.368 . S
H2301 C2309 0.950 . S
H2302 C2307 0.950 . S
H2303 C2308 0.949 . S
H2304 C2310 0.950 . S
H2305 C2311 0.950 . S
H2306 C2312 0.949 . S
C2307 H2302 0.950 . S
C2307 C2309 1.327 . S
C2307 C2313 1.429 . S
C2308 C2300 1.574 . S
C2308 H2303 0.949 . S
C2308 C2314 1.368 . S
C2309 C2293 1.349 . S
C2309 H2301 0.950 . S
C2309 C2307 1.327 . S
C2310 C2298 1.349 . S
C2310 H2304 0.950 . S
C2310 C2311 1.327 . S
C2311 H2305 0.950 . S
C2311 C2310 1.327 . S
C2311 C2315 1.429 . S
C2312 C2295 1.574 . S
C2312 H2306 0.949 . S
C2312 C2316 1.368 . S
C2313 C2294 1.429 . S
C2313 C2307 1.429 . S
C2313 C2314 1.523 . S
C2314 C2295 1.368 . S
C2314 C2308 1.368 . S
C2314 C2313 1.523 . S
C2315 C2299 1.429 . S
C2315 C2311 1.429 . S
C2315 C2316 1.523 . S
C2316 C2300 1.368 . S
C2316 C2312 1.368 . S
C2316 C2315 1.523 . S
H2317 C2292 0.950 . S
H2318 C2294 0.950 . S
H2319 C2295 0.949 . S
H2320 C2297 0.950 . S
H2321 C2299 0.950 . S
C2322 C2323 1.349 . S
C2322 C2324 1.327 . S
C2322 H2347 0.950 . S
C2323 C2322 1.349 . S
C2323 C2339 1.349 . S
C2324 C2322 1.327 . S
C2324 C2343 1.429 . S
C2324 H2348 0.950 . S
C2325 C2342 1.574 . S
C2325 C2344 1.368 . S
C2325 H2349 0.949 . S
H2326 C2330 0.949 . S
C2327 C2328 1.349 . S
C2327 C2329 1.327 . S
C2327 H2350 0.950 . S
C2328 C2327 1.349 . S
C2328 C2340 1.349 . S
C2329 C2327 1.327 . S
C2329 C2345 1.429 . S
C2329 H2351 0.950 . S
C2330 H2326 0.949 . S
C2330 C2338 1.574 . S
C2330 C2346 1.368 . S
H2331 C2339 0.950 . S
H2332 C2337 0.950 . S
H2333 C2338 0.949 . S
H2334 C2340 0.950 . S
H2335 C2341 0.950 . S
H2336 C2342 0.949 . S
C2337 H2332 0.950 . S
C2337 C2339 1.327 . S
C2337 C2343 1.429 . S
C2338 C2330 1.574 . S
C2338 H2333 0.949 . S
C2338 C2344 1.368 . S
C2339 C2323 1.349 . S
C2339 H2331 0.950 . S
C2339 C2337 1.327 . S
C2340 C2328 1.349 . S
C2340 H2334 0.950 . S
C2340 C2341 1.327 . S
C2341 H2335 0.950 . S
C2341 C2340 1.327 . S
C2341 C2345 1.429 . S
C2342 C2325 1.574 . S
C2342 H2336 0.949 . S
C2342 C2346 1.368 . S
C2343 C2324 1.429 . S
C2343 C2337 1.429 . S
C2343 C2344 1.523 . S
C2344 C2325 1.368 . S
C2344 C2338 1.368 . S
C2344 C2343 1.523 . S
C2345 C2329 1.429 . S
C2345 C2341 1.429 . S
C2345 C2346 1.523 . S
C2346 C2330 1.368 . S
C2346 C2342 1.368 . S
C2346 C2345 1.523 . S
H2347 C2322 0.950 . S
H2348 C2324 0.950 . S
H2349 C2325 0.949 . S
H2350 C2327 0.950 . S
H2351 C2329 0.950 . S
C2352 C2353 1.349 . S
C2352 C2354 1.327 . S
C2352 H2377 0.950 . S
C2353 C2352 1.349 . S
C2353 C2369 1.349 . S
C2354 C2352 1.327 . S
C2354 C2373 1.429 . S
C2354 H2378 0.950 . S
C2355 C2372 1.574 . S
C2355 C2374 1.368 . S
C2355 H2379 0.949 . S
H2356 C2360 0.949 . S
C2357 C2358 1.349 . S
C2357 C2359 1.327 . S
C2357 H2380 0.950 . S
C2358 C2357 1.349 . S
C2358 C2370 1.349 . S
C2359 C2357 1.327 . S
C2359 C2375 1.429 . S
C2359 H2381 0.950 . S
C2360 H2356 0.949 . S
C2360 C2368 1.574 . S
C2360 C2376 1.368 . S
H2361 C2369 0.950 . S
H2362 C2367 0.950 . S
H2363 C2368 0.949 . S
H2364 C2370 0.950 . S
H2365 C2371 0.950 . S
H2366 C2372 0.949 . S
C2367 H2362 0.950 . S
C2367 C2369 1.327 . S
C2367 C2373 1.429 . S
C2368 C2360 1.574 . S
C2368 H2363 0.949 . S
C2368 C2374 1.368 . S
C2369 C2353 1.349 . S
C2369 H2361 0.950 . S
C2369 C2367 1.327 . S
C2370 C2358 1.349 . S
C2370 H2364 0.950 . S
C2370 C2371 1.327 . S
C2371 H2365 0.950 . S
C2371 C2370 1.327 . S
C2371 C2375 1.429 . S
C2372 C2355 1.574 . S
C2372 H2366 0.949 . S
C2372 C2376 1.368 . S
C2373 C2354 1.429 . S
C2373 C2367 1.429 . S
C2373 C2374 1.523 . S
C2374 C2355 1.368 . S
C2374 C2368 1.368 . S
C2374 C2373 1.523 . S
C2375 C2359 1.429 . S
C2375 C2371 1.429 . S
C2375 C2376 1.523 . S
C2376 C2360 1.368 . S
C2376 C2372 1.368 . S
C2376 C2375 1.523 . S
H2377 C2352 0.950 . S
H2378 C2354 0.950 . S
H2379 C2355 0.949 . S
H2380 C2357 0.950 . S
H2381 C2359 0.950 . S
C2382 C2383 1.349 . S
C2382 C2384 1.327 . S
C2382 H2407 0.950 . S
C2383 C2382 1.349 . S
C2383 C2399 1.349 . S
C2384 C2382 1.327 . S
C2384 C2403 1.429 . S
C2384 H2408 0.950 . S
C2385 C2402 1.574 . S
C2385 C2404 1.368 . S
C2385 H2409 0.949 . S
H2386 C2390 0.949 . S
C2387 C2388 1.349 . S
C2387 C2389 1.327 . S
C2387 H2410 0.950 . S
C2388 C2387 1.349 . S
C2388 C2400 1.349 . S
C2389 C2387 1.327 . S
C2389 C2405 1.429 . S
C2389 H2411 0.950 . S
C2390 H2386 0.949 . S
C2390 C2398 1.574 . S
C2390 C2406 1.368 . S
H2391 C2399 0.950 . S
H2392 C2397 0.950 . S
H2393 C2398 0.949 . S
H2394 C2400 0.950 . S
H2395 C2401 0.950 . S
H2396 C2402 0.949 . S
C2397 H2392 0.950 . S
C2397 C2399 1.327 . S
C2397 C2403 1.429 . S
C2398 C2390 1.574 . S
C2398 H2393 0.949 . S
C2398 C2404 1.368 . S
C2399 C2383 1.349 . S
C2399 H2391 0.950 . S
C2399 C2397 1.327 . S
C2400 C2388 1.349 . S
C2400 H2394 0.950 . S
C2400 C2401 1.327 . S
C2401 H2395 0.950 . S
C2401 C2400 1.327 . S
C2401 C2405 1.429 . S
C2402 C2385 1.574 . S
C2402 H2396 0.949 . S
C2402 C2406 1.368 . S
C2403 C2384 1.429 . S
C2403 C2397 1.429 . S
C2403 C2404 1.523 . S
C2404 C2385 1.368 . S
C2404 C2398 1.368 . S
C2404 C2403 1.523 . S
C2405 C2389 1.429 . S
C2405 C2401 1.429 . S
C2405 C2406 1.523 . S
C2406 C2390 1.368 . S
C2406 C2402 1.368 . S
C2406 C2405 1.523 . S
H2407 C2382 0.950 . S
H2408 C2384 0.950 . S
H2409 C2385 0.949 . S
H2410 C2387 0.950 . S
H2411 C2389 0.950 . S
C2412 C2413 1.349 . S
C2412 C2414 1.327 . S
C2412 H2437 0.950 . S
C2413 C2412 1.349 . S
C2413 C2429 1.349 . S
C2414 C2412 1.327 . S
C2414 C2433 1.429 . S
C2414 H2438 0.950 . S
C2415 C2432 1.574 . S
C2415 C2434 1.368 . S
C2415 H2439 0.949 . S
H2416 C2420 0.949 . S
C2417 C2418 1.349 . S
C2417 C2419 1.327 . S
C2417 H2440 0.950 . S
C2418 C2417 1.349 . S
C2418 C2430 1.349 . S
C2419 C2417 1.327 . S
C2419 C2435 1.429 . S
C2419 H2441 0.950 . S
C2420 H2416 0.949 . S
C2420 C2428 1.574 . S
C2420 C2436 1.368 . S
H2421 C2429 0.950 . S
H2422 C2427 0.950 . S
H2423 C2428 0.949 . S
H2424 C2430 0.950 . S
H2425 C2431 0.950 . S
H2426 C2432 0.949 . S
C2427 H2422 0.950 . S
C2427 C2429 1.327 . S
C2427 C2433 1.429 . S
C2428 C2420 1.574 . S
C2428 H2423 0.949 . S
C2428 C2434 1.368 . S
C2429 C2413 1.349 . S
C2429 H2421 0.950 . S
C2429 C2427 1.327 . S
C2430 C2418 1.349 . S
C2430 H2424 0.950 . S
C2430 C2431 1.327 . S
C2431 H2425 0.950 . S
C2431 C2430 1.327 . S
C2431 C2435 1.429 . S
C2432 C2415 1.574 . S
C2432 H2426 0.949 . S
C2432 C2436 1.368 . S
C2433 C2414 1.429 . S
C2433 C2427 1.429 . S
C2433 C2434 1.523 . S
C2434 C2415 1.368 . S
C2434 C2428 1.368 . S
C2434 C2433 1.523 . S
C2435 C2419 1.429 . S
C2435 C2431 1.429 . S
C2435 C2436 1.523 . S
C2436 C2420 1.368 . S
C2436 C2432 1.368 . S
C2436 C2435 1.523 . S
H2437 C2412 0.950 . S
H2438 C2414 0.950 . S
H2439 C2415 0.949 . S
H2440 C2417 0.950 . S
H2441 C2419 0.950 . S
C2442 C2443 1.349 . S
C2442 C2444 1.327 . S
C2442 H2467 0.950 . S
C2443 C2442 1.349 . S
C2443 C2459 1.349 . S
C2444 C2442 1.327 . S
C2444 C2463 1.429 . S
C2444 H2468 0.950 . S
C2445 C2462 1.574 . S
C2445 C2464 1.368 . S
C2445 H2469 0.949 . S
H2446 C2450 0.949 . S
C2447 C2448 1.349 . S
C2447 C2449 1.327 . S
C2447 H2470 0.950 . S
C2448 C2447 1.349 . S
C2448 C2460 1.349 . S
C2449 C2447 1.327 . S
C2449 C2465 1.429 . S
C2449 H2471 0.950 . S
C2450 H2446 0.949 . S
C2450 C2458 1.574 . S
C2450 C2466 1.368 . S
H2451 C2459 0.950 . S
H2452 C2457 0.950 . S
H2453 C2458 0.949 . S
H2454 C2460 0.950 . S
H2455 C2461 0.950 . S
H2456 C2462 0.949 . S
C2457 H2452 0.950 . S
C2457 C2459 1.327 . S
C2457 C2463 1.429 . S
C2458 C2450 1.574 . S
C2458 H2453 0.949 . S
C2458 C2464 1.368 . S
C2459 C2443 1.349 . S
C2459 H2451 0.950 . S
C2459 C2457 1.327 . S
C2460 C2448 1.349 . S
C2460 H2454 0.950 . S
C2460 C2461 1.327 . S
C2461 H2455 0.950 . S
C2461 C2460 1.327 . S
C2461 C2465 1.429 . S
C2462 C2445 1.574 . S
C2462 H2456 0.949 . S
C2462 C2466 1.368 . S
C2463 C2444 1.429 . S
C2463 C2457 1.429 . S
C2463 C2464 1.523 . S
C2464 C2445 1.368 . S
C2464 C2458 1.368 . S
C2464 C2463 1.523 . S
C2465 C2449 1.429 . S
C2465 C2461 1.429 . S
C2465 C2466 1.523 . S
C2466 C2450 1.368 . S
C2466 C2462 1.368 . S
C2466 C2465 1.523 . S
H2467 C2442 0.950 . S
H2468 C2444 0.950 . S
H2469 C2445 0.949 . S
H2470 C2447 0.950 . S
H2471 C2449 0.950 . S
C2472 C2473 1.349 . S
C2472 C2474 1.327 . S
C2472 H2497 0.950 . S
C2473 C2472 1.349 . S
C2473 C2489 1.349 . S
C2474 C2472 1.327 . S
C2474 C2493 1.429 . S
C2474 H2498 0.950 . S
C2475 C2492 1.574 . S
C2475 C2494 1.368 . S
C2475 H2499 0.949 . S
H2476 C2480 0.949 . S
C2477 C2478 1.349 . S
C2477 C2479 1.327 . S
C2477 H2500 0.950 . S
C2478 C2477 1.349 . S
C2478 C2490 1.349 . S
C2479 C2477 1.327 . S
C2479 C2495 1.429 . S
C2479 H2501 0.950 . S
C2480 H2476 0.949 . S
C2480 C2488 1.574 . S
C2480 C2496 1.368 . S
H2481 C2489 0.950 . S
H2482 C2487 0.950 . S
H2483 C2488 0.949 . S
H2484 C2490 0.950 . S
H2485 C2491 0.950 . S
H2486 C2492 0.949 . S
C2487 H2482 0.950 . S
C2487 C2489 1.327 . S
C2487 C2493 1.429 . S
C2488 C2480 1.574 . S
C2488 H2483 0.949 . S
C2488 C2494 1.368 . S
C2489 C2473 1.349 . S
C2489 H2481 0.950 . S
C2489 C2487 1.327 . S
C2490 C2478 1.349 . S
C2490 H2484 0.950 . S
C2490 C2491 1.327 . S
C2491 H2485 0.950 . S
C2491 C2490 1.327 . S
C2491 C2495 1.429 . S
C2492 C2475 1.574 . S
C2492 H2486 0.949 . S
C2492 C2496 1.368 . S
C2493 C2474 1.429 . S
C2493 C2487 1.429 . S
C2493 C2494 1.523 . S
C2494 C2475 1.368 . S
C2494 C2488 1.368 . S
C2494 C2493 1.523 . S
C2495 C2479 1.429 . S
C2495 C2491 1.429 . S
C2495 C2496 1.523 . S
C2496 C2480 1.368 . S
C2496 C2492 1.368 . S
C2496 C2495 1.523 . S
H2497 C2472 0.950 . S
H2498 C2474 0.950 . S
H2499 C2475 0.949 . S
H2500 C2477 0.950 . S
H2501 C2479 0.950 . S
C2502 C2503 1.349 . S
C2502 C2504 1.327 . S
C2502 H2527 0.950 . S
C2503 C2502 1.349 . S
C2503 C2519 1.349 . S
C2504 C2502 1.327 . S
C2504 C2523 1.429 . S
C2504 H2528 0.950 . S
C2505 C2522 1.574 . S
C2505 C2524 1.368 . S
C2505 H2529 0.949 . S
H2506 C2510 0.949 . S
C2507 C2508 1.349 . S
C2507 C2509 1.327 . S
C2507 H2530 0.950 . S
C2508 C2507 1.349 . S
C2508 C2520 1.349 . S
C2509 C2507 1.327 . S
C2509 C2525 1.429 . S
C2509 H2531 0.950 . S
C2510 H2506 0.949 . S
C2510 C2518 1.574 . S
C2510 C2526 1.368 . S
H2511 C2519 0.950 . S
H2512 C2517 0.950 . S
H2513 C2518 0.949 . S
H2514 C2520 0.950 . S
H2515 C2521 0.950 . S
H2516 C2522 0.949 . S
C2517 H2512 0.950 . S
C2517 C2519 1.327 . S
C2517 C2523 1.429 . S
C2518 C2510 1.574 . S
C2518 H2513 0.949 . S
C2518 C2524 1.368 . S
C2519 C2503 1.349 . S
C2519 H2511 0.950 . S
C2519 C2517 1.327 . S
C2520 C2508 1.349 . S
C2520 H2514 0.950 . S
C2520 C2521 1.327 . S
C2521 H2515 0.950 . S
C2521 C2520 1.327 . S
C2521 C2525 1.429 . S
C2522 C2505 1.574 . S
C2522 H2516 0.949 . S
C2522 C2526 1.368 . S
C2523 C2504 1.429 . S
C2523 C2517 1.429 . S
C2523 C2524 1.523 . S
C2524 C2505 1.368 . S
C2524 C2518 1.368 . S
C2524 C2523 1.523 . S
C2525 C2509 1.429 . S
C2525 C2521 1.429 . S
C2525 C2526 1.523 . S
C2526 C2510 1.368 . S
C2526 C2522 1.368 . S
C2526 C2525 1.523 . S
H2527 C2502 0.950 . S
H2528 C2504 0.950 . S
H2529 C2505 0.949 . S
H2530 C2507 0.950 . S
H2531 C2509 0.950 . S
C2532 C2533 1.349 . S
C2532 C2534 1.327 . S
C2532 H2557 0.950 . S
C2533 C2532 1.349 . S
C2533 C2549 1.349 . S
C2534 C2532 1.327 . S
C2534 C2553 1.429 . S
C2534 H2558 0.950 . S
C2535 C2552 1.574 . S
C2535 C2554 1.368 . S
C2535 H2559 0.949 . S
H2536 C2540 0.949 . S
C2537 C2538 1.349 . S
C2537 C2539 1.327 . S
C2537 H2560 0.950 . S
C2538 C2537 1.349 . S
C2538 C2550 1.349 . S
C2539 C2537 1.327 . S
C2539 C2555 1.429 . S
C2539 H2561 0.950 . S
C2540 H2536 0.949 . S
C2540 C2548 1.574 . S
C2540 C2556 1.368 . S
H2541 C2549 0.950 . S
H2542 C2547 0.950 . S
H2543 C2548 0.949 . S
H2544 C2550 0.950 . S
H2545 C2551 0.950 . S
H2546 C2552 0.949 . S
C2547 H2542 0.950 . S
C2547 C2549 1.327 . S
C2547 C2553 1.429 . S
C2548 C2540 1.574 . S
C2548 H2543 0.949 . S
C2548 C2554 1.368 . S
C2549 C2533 1.349 . S
C2549 H2541 0.950 . S
C2549 C2547 1.327 . S
C2550 C2538 1.349 . S
C2550 H2544 0.950 . S
C2550 C2551 1.327 . S
C2551 H2545 0.950 . S
C2551 C2550 1.327 . S
C2551 C2555 1.429 . S
C2552 C2535 1.574 . S
C2552 H2546 0.949 . S
C2552 C2556 1.368 . S
C2553 C2534 1.429 . S
C2553 C2547 1.429 . S
C2553 C2554 1.523 . S
C2554 C2535 1.368 . S
C2554 C2548 1.368 . S
C2554 C2553 1.523 . S
C2555 C2539 1.429 . S
C2555 C2551 1.429 . S
C2555 C2556 1.523 . S
C2556 C2540 1.368 . S
C2556 C2552 1.368 . S
C2556 C2555 1.523 . S
H2557 C2532 0.950 . S
H2558 C2534 0.950 . S
H2559 C2535 0.949 . S
H2560 C2537 0.950 . S
H2561 C2539 0.950 . S
C2562 C2563 1.349 . S
C2562 C2564 1.327 . S
C2562 H2587 0.950 . S
C2563 C2562 1.349 . S
C2563 C2579 1.349 . S
C2564 C2562 1.327 . S
C2564 C2583 1.429 . S
C2564 H2588 0.950 . S
C2565 C2582 1.574 . S
C2565 C2584 1.368 . S
C2565 H2589 0.949 . S
H2566 C2570 0.949 . S
C2567 C2568 1.349 . S
C2567 C2569 1.327 . S
C2567 H2590 0.950 . S
C2568 C2567 1.349 . S
C2568 C2580 1.349 . S
C2569 C2567 1.327 . S
C2569 C2585 1.429 . S
C2569 H2591 0.950 . S
C2570 H2566 0.949 . S
C2570 C2578 1.574 . S
C2570 C2586 1.368 . S
H2571 C2579 0.950 . S
H2572 C2577 0.950 . S
H2573 C2578 0.949 . S
H2574 C2580 0.950 . S
H2575 C2581 0.950 . S
H2576 C2582 0.949 . S
C2577 H2572 0.950 . S
C2577 C2579 1.327 . S
C2577 C2583 1.429 . S
C2578 C2570 1.574 . S
C2578 H2573 0.949 . S
C2578 C2584 1.368 . S
C2579 C2563 1.349 . S
C2579 H2571 0.950 . S
C2579 C2577 1.327 . S
C2580 C2568 1.349 . S
C2580 H2574 0.950 . S
C2580 C2581 1.327 . S
C2581 H2575 0.950 . S
C2581 C2580 1.327 . S
C2581 C2585 1.429 . S
C2582 C2565 1.574 . S
C2582 H2576 0.949 . S
C2582 C2586 1.368 . S
C2583 C2564 1.429 . S
C2583 C2577 1.429 . S
C2583 C2584 1.523 . S
C2584 C2565 1.368 . S
C2584 C2578 1.368 . S
C2584 C2583 1.523 . S
C2585 C2569 1.429 . S
C2585 C2581 1.429 . S
C2585 C2586 1.523 . S
C2586 C2570 1.368 . S
C2586 C2582 1.368 . S
C2586 C2585 1.523 . S
H2587 C2562 0.950 . S
H2588 C2564 0.950 . S
H2589 C2565 0.949 . S
H2590 C2567 0.950 . S
H2591 C2569 0.950 . S
C2592 C2593 1.349 . S
C2592 C2594 1.327 . S
C2592 H2617 0.950 . S
C2593 C2592 1.349 . S
C2593 C2609 1.349 . S
C2594 C2592 1.327 . S
C2594 C2613 1.429 . S
C2594 H2618 0.950 . S
C2595 C2612 1.574 . S
C2595 C2614 1.368 . S
C2595 H2619 0.949 . S
H2596 C2600 0.949 . S
C2597 C2598 1.349 . S
C2597 C2599 1.327 . S
C2597 H2620 0.950 . S
C2598 C2597 1.349 . S
C2598 C2610 1.349 . S
C2599 C2597 1.327 . S
C2599 C2615 1.429 . S
C2599 H2621 0.950 . S
C2600 H2596 0.949 . S
C2600 C2608 1.574 . S
C2600 C2616 1.368 . S
H2601 C2609 0.950 . S
H2602 C2607 0.950 . S
H2603 C2608 0.949 . S
H2604 C2610 0.950 . S
H2605 C2611 0.950 . S
H2606 C2612 0.949 . S
C2607 H2602 0.950 . S
C2607 C2609 1.327 . S
C2607 C2613 1.429 . S
C2608 C2600 1.574 . S
C2608 H2603 0.949 . S
C2608 C2614 1.368 . S
C2609 C2593 1.349 . S
C2609 H2601 0.950 . S
C2609 C2607 1.327 . S
C2610 C2598 1.349 . S
C2610 H2604 0.950 . S
C2610 C2611 1.327 . S
C2611 H2605 0.950 . S
C2611 C2610 1.327 . S
C2611 C2615 1.429 . S
C2612 C2595 1.574 . S
C2612 H2606 0.949 . S
C2612 C2616 1.368 . S
C2613 C2594 1.429 . S
C2613 C2607 1.429 . S
C2613 C2614 1.523 . S
C2614 C2595 1.368 . S
C2614 C2608 1.368 . S
C2614 C2613 1.523 . S
C2615 C2599 1.429 . S
C2615 C2611 1.429 . S
C2615 C2616 1.523 . S
C2616 C2600 1.368 . S
C2616 C2612 1.368 . S
C2616 C2615 1.523 . S
H2617 C2592 0.950 . S
H2618 C2594 0.950 . S
H2619 C2595 0.949 . S
H2620 C2597 0.950 . S
H2621 C2599 0.950 . S
C2622 C2623 1.349 . S
C2622 C2624 1.327 . S
C2622 H2647 0.950 . S
C2623 C2622 1.349 . S
C2623 C2639 1.349 . S
C2624 C2622 1.327 . S
C2624 C2643 1.429 . S
C2624 H2648 0.950 . S
C2625 C2642 1.574 . S
C2625 C2644 1.368 . S
C2625 H2649 0.949 . S
H2626 C2630 0.949 . S
C2627 C2628 1.349 . S
C2627 C2629 1.327 . S
C2627 H2650 0.950 . S
C2628 C2627 1.349 . S
C2628 C2640 1.349 . S
C2629 C2627 1.327 . S
C2629 C2645 1.429 . S
C2629 H2651 0.950 . S
C2630 H2626 0.949 . S
C2630 C2638 1.574 . S
C2630 C2646 1.368 . S
H2631 C2639 0.950 . S
H2632 C2637 0.950 . S
H2633 C2638 0.949 . S
H2634 C2640 0.950 . S
H2635 C2641 0.950 . S
H2636 C2642 0.949 . S
C2637 H2632 0.950 . S
C2637 C2639 1.327 . S
C2637 C2643 1.429 . S
C2638 C2630 1.574 . S
C2638 H2633 0.949 . S
C2638 C2644 1.368 . S
C2639 C2623 1.349 . S
C2639 H2631 0.950 . S
C2639 C2637 1.327 . S
C2640 C2628 1.349 . S
C2640 H2634 0.950 . S
C2640 C2641 1.327 . S
C2641 H2635 0.950 . S
C2641 C2640 1.327 . S
C2641 C2645 1.429 . S
C2642 C2625 1.574 . S
C2642 H2636 0.949 . S
C2642 C2646 1.368 . S
C2643 C2624 1.429 . S
C2643 C2637 1.429 . S
C2643 C2644 1.523 . S
C2644 C2625 1.368 . S
C2644 C2638 1.368 . S
C2644 C2643 1.523 . S
C2645 C2629 1.429 . S
C2645 C2641 1.429 . S
C2645 C2646 1.523 . S
C2646 C2630 1.368 . S
C2646 C2642 1.368 . S
C2646 C2645 1.523 . S
H2647 C2622 0.950 . S
H2648 C2624 0.950 . S
H2649 C2625 0.949 . S
H2650 C2627 0.950 . S
H2651 C2629 0.950 . S
C2652 C2653 1.349 . S
C2652 C2654 1.327 . S
C2652 H2677 0.950 . S
C2653 C2652 1.349 . S
C2653 C2669 1.349 . S
C2654 C2652 1.327 . S
C2654 C2673 1.429 . S
C2654 H2678 0.950 . S
C2655 C2672 1.574 . S
C2655 C2674 1.368 . S
C2655 H2679 0.949 . S
H2656 C2660 0.949 . S
C2657 C2658 1.349 . S
C2657 C2659 1.327 . S
C2657 H2680 0.950 . S
C2658 C2657 1.349 . S
C2658 C2670 1.349 . S
C2659 C2657 1.327 . S
C2659 C2675 1.429 . S
C2659 H2681 0.950 . S
C2660 H2656 0.949 . S
C2660 C2668 1.574 . S
C2660 C2676 1.368 . S
H2661 C2669 0.950 . S
H2662 C2667 0.950 . S
H2663 C2668 0.949 . S
H2664 C2670 0.950 . S
H2665 C2671 0.950 . S
H2666 C2672 0.949 . S
C2667 H2662 0.950 . S
C2667 C2669 1.327 . S
C2667 C2673 1.429 . S
C2668 C2660 1.574 . S
C2668 H2663 0.949 . S
C2668 C2674 1.368 . S
C2669 C2653 1.349 . S
C2669 H2661 0.950 . S
C2669 C2667 1.327 . S
C2670 C2658 1.349 . S
C2670 H2664 0.950 . S
C2670 C2671 1.327 . S
C2671 H2665 0.950 . S
C2671 C2670 1.327 . S
C2671 C2675 1.429 . S
C2672 C2655 1.574 . S
C2672 H2666 0.949 . S
C2672 C2676 1.368 . S
C2673 C2654 1.429 . S
C2673 C2667 1.429 . S
C2673 C2674 1.523 . S
C2674 C2655 1.368 . S
C2674 C2668 1.368 . S
C2674 C2673 1.523 . S
C2675 C2659 1.429 . S
C2675 C2671 1.429 . S
C2675 C2676 1.523 . S
C2676 C2660 1.368 . S
C2676 C2672 1.368 . S
C2676 C2675 1.523 . S
H2677 C2652 0.950 . S
H2678 C2654 0.950 . S
H2679 C2655 0.949 . S
H2680 C2657 0.950 . S
H2681 C2659 0.950 . S
C2682 C2683 1.349 . S
C2682 C2684 1.327 . S
C2682 H2707 0.950 . S
C2683 C2682 1.349 . S
C2683 C2699 1.349 . S
C2684 C2682 1.327 . S
C2684 C2703 1.429 . S
C2684 H2708 0.950 . S
C2685 C2702 1.574 . S
C2685 C2704 1.368 . S
C2685 H2709 0.949 . S
H2686 C2690 0.949 . S
C2687 C2688 1.349 . S
C2687 C2689 1.327 . S
C2687 H2710 0.950 . S
C2688 C2687 1.349 . S
C2688 C2700 1.349 . S
C2689 C2687 1.327 . S
C2689 C2705 1.429 . S
C2689 H2711 0.950 . S
C2690 H2686 0.949 . S
C2690 C2698 1.574 . S
C2690 C2706 1.368 . S
H2691 C2699 0.950 . S
H2692 C2697 0.950 . S
H2693 C2698 0.949 . S
H2694 C2700 0.950 . S
H2695 C2701 0.950 . S
H2696 C2702 0.949 . S
C2697 H2692 0.950 . S
C2697 C2699 1.327 . S
C2697 C2703 1.429 . S
C2698 C2690 1.574 . S
C2698 H2693 0.949 . S
C2698 C2704 1.368 . S
C2699 C2683 1.349 . S
C2699 H2691 0.950 . S
C2699 C2697 1.327 . S
C2700 C2688 1.349 . S
C2700 H2694 0.950 . S
C2700 C2701 1.327 . S
C2701 H2695 0.950 . S
C2701 C2700 1.327 . S
C2701 C2705 1.429 . S
C2702 C2685 1.574 . S
C2702 H2696 0.949 . S
C2702 C2706 1.368 . S
C2703 C2684 1.429 . S
C2703 C2697 1.429 . S
C2703 C2704 1.523 . S
C2704 C2685 1.368 . S
C2704 C2698 1.368 . S
C2704 C2703 1.523 . S
C2705 C2689 1.429 . S
C2705 C2701 1.429 . S
C2705 C2706 1.523 . S
C2706 C2690 1.368 . S
C2706 C2702 1.368 . S
C2706 C2705 1.523 . S
H2707 C2682 0.950 . S
H2708 C2684 0.950 . S
H2709 C2685 0.949 . S
H2710 C2687 0.950 . S
H2711 C2689 0.950 . S
C2712 C2713 1.349 . S
C2712 C2714 1.327 . S
C2712 H2737 0.950 . S
C2713 C2712 1.349 . S
C2713 C2729 1.349 . S
C2714 C2712 1.327 . S
C2714 C2733 1.429 . S
C2714 H2738 0.950 . S
C2715 C2732 1.574 . S
C2715 C2734 1.368 . S
C2715 H2739 0.949 . S
H2716 C2720 0.949 . S
C2717 C2718 1.349 . S
C2717 C2719 1.327 . S
C2717 H2740 0.950 . S
C2718 C2717 1.349 . S
C2718 C2730 1.349 . S
C2719 C2717 1.327 . S
C2719 C2735 1.429 . S
C2719 H2741 0.950 . S
C2720 H2716 0.949 . S
C2720 C2728 1.574 . S
C2720 C2736 1.368 . S
H2721 C2729 0.950 . S
H2722 C2727 0.950 . S
H2723 C2728 0.949 . S
H2724 C2730 0.950 . S
H2725 C2731 0.950 . S
H2726 C2732 0.949 . S
C2727 H2722 0.950 . S
C2727 C2729 1.327 . S
C2727 C2733 1.429 . S
C2728 C2720 1.574 . S
C2728 H2723 0.949 . S
C2728 C2734 1.368 . S
C2729 C2713 1.349 . S
C2729 H2721 0.950 . S
C2729 C2727 1.327 . S
C2730 C2718 1.349 . S
C2730 H2724 0.950 . S
C2730 C2731 1.327 . S
C2731 H2725 0.950 . S
C2731 C2730 1.327 . S
C2731 C2735 1.429 . S
C2732 C2715 1.574 . S
C2732 H2726 0.949 . S
C2732 C2736 1.368 . S
C2733 C2714 1.429 . S
C2733 C2727 1.429 . S
C2733 C2734 1.523 . S
C2734 C2715 1.368 . S
C2734 C2728 1.368 . S
C2734 C2733 1.523 . S
C2735 C2719 1.429 . S
C2735 C2731 1.429 . S
C2735 C2736 1.523 . S
C2736 C2720 1.368 . S
C2736 C2732 1.368 . S
C2736 C2735 1.523 . S
H2737 C2712 0.950 . S
H2738 C2714 0.950 . S
H2739 C2715 0.949 . S
H2740 C2717 0.950 . S
H2741 C2719 0.950 . S
C2742 C2743 1.349 . S
C2742 C2744 1.327 . S
C2742 H2767 0.950 . S
C2743 C2742 1.349 . S
C2743 C2759 1.349 . S
C2744 C2742 1.327 . S
C2744 C2763 1.429 . S
C2744 H2768 0.950 . S
C2745 C2762 1.574 . S
C2745 C2764 1.368 . S
C2745 H2769 0.949 . S
H2746 C2750 0.949 . S
C2747 C2748 1.349 . S
C2747 C2749 1.327 . S
C2747 H2770 0.950 . S
C2748 C2747 1.349 . S
C2748 C2760 1.349 . S
C2749 C2747 1.327 . S
C2749 C2765 1.429 . S
C2749 H2771 0.950 . S
C2750 H2746 0.949 . S
C2750 C2758 1.574 . S
C2750 C2766 1.368 . S
H2751 C2759 0.950 . S
H2752 C2757 0.950 . S
H2753 C2758 0.949 . S
H2754 C2760 0.950 . S
H2755 C2761 0.950 . S
H2756 C2762 0.949 . S
C2757 H2752 0.950 . S
C2757 C2759 1.327 . S
C2757 C2763 1.429 . S
C2758 C2750 1.574 . S
C2758 H2753 0.949 . S
C2758 C2764 1.368 . S
C2759 C2743 1.349 . S
C2759 H2751 0.950 . S
C2759 C2757 1.327 . S
C2760 C2748 1.349 . S
C2760 H2754 0.950 . S
C2760 C2761 1.327 . S
C2761 H2755 0.950 . S
C2761 C2760 1.327 . S
C2761 C2765 1.429 . S
C2762 C2745 1.574 . S
C2762 H2756 0.949 . S
C2762 C2766 1.368 . S
C2763 C2744 1.429 . S
C2763 C2757 1.429 . S
C2763 C2764 1.523 . S
C2764 C2745 1.368 . S
C2764 C2758 1.368 . S
C2764 C2763 1.523 . S
C2765 C2749 1.429 . S
C2765 C2761 1.429 . S
C2765 C2766 1.523 . S
C2766 C2750 1.368 . S
C2766 C2762 1.368 . S
C2766 C2765 1.523 . S
H2767 C2742 0.950 . S
H2768 C2744 0.950 . S
H2769 C2745 0.949 . S
H2770 C2747 0.950 . S
H2771 C2749 0.950 . S
C2772 C2773 1.349 . S
C2772 C2774 1.327 . S
C2772 H2797 0.950 . S
C2773 C2772 1.349 . S
C2773 C2789 1.349 . S
C2774 C2772 1.327 . S
C2774 C2793 1.429 . S
C2774 H2798 0.950 . S
C2775 C2792 1.574 . S
C2775 C2794 1.368 . S
C2775 H2799 0.949 . S
H2776 C2780 0.949 . S
C2777 C2778 1.349 . S
C2777 C2779 1.327 . S
C2777 H2800 0.950 . S
C2778 C2777 1.349 . S
C2778 C2790 1.349 . S
C2779 C2777 1.327 . S
C2779 C2795 1.429 . S
C2779 H2801 0.950 . S
C2780 H2776 0.949 . S
C2780 C2788 1.574 . S
C2780 C2796 1.368 . S
H2781 C2789 0.950 . S
H2782 C2787 0.950 . S
H2783 C2788 0.949 . S
H2784 C2790 0.950 . S
H2785 C2791 0.950 . S
H2786 C2792 0.949 . S
C2787 H2782 0.950 . S
C2787 C2789 1.327 . S
C2787 C2793 1.429 . S
C2788 C2780 1.574 . S
C2788 H2783 0.949 . S
C2788 C2794 1.368 . S
C2789 C2773 1.349 . S
C2789 H2781 0.950 . S
C2789 C2787 1.327 . S
C2790 C2778 1.349 . S
C2790 H2784 0.950 . S
C2790 C2791 1.327 . S
C2791 H2785 0.950 . S
C2791 C2790 1.327 . S
C2791 C2795 1.429 . S
C2792 C2775 1.574 . S
C2792 H2786 0.949 . S
C2792 C2796 1.368 . S
C2793 C2774 1.429 . S
C2793 C2787 1.429 . S
C2793 C2794 1.523 . S
C2794 C2775 1.368 . S
C2794 C2788 1.368 . S
C2794 C2793 1.523 . S
C2795 C2779 1.429 . S
C2795 C2791 1.429 . S
C2795 C2796 1.523 . S
C2796 C2780 1.368 . S
C2796 C2792 1.368 . S
C2796 C2795 1.523 . S
H2797 C2772 0.950 . S
H2798 C2774 0.950 . S
H2799 C2775 0.949 . S
H2800 C2777 0.950 . S
H2801 C2779 0.950 . S
C2802 C2803 1.349 . S
C2802 C2804 1.327 . S
C2802 H2827 0.950 . S
C2803 C2802 1.349 . S
C2803 C2819 1.349 . S
C2804 C2802 1.327 . S
C2804 C2823 1.429 . S
C2804 H2828 0.950 . S
C2805 C2822 1.574 . S
C2805 C2824 1.368 . S
C2805 H2829 0.949 . S
H2806 C2810 0.949 . S
C2807 C2808 1.349 . S
C2807 C2809 1.327 . S
C2807 H2830 0.950 . S
C2808 C2807 1.349 . S
C2808 C2820 1.349 . S
C2809 C2807 1.327 . S
C2809 C2825 1.429 . S
C2809 H2831 0.950 . S
C2810 H2806 0.949 . S
C2810 C2818 1.574 . S
C2810 C2826 1.368 . S
H2811 C2819 0.950 . S
H2812 C2817 0.950 . S
H2813 C2818 0.949 . S
H2814 C2820 0.950 . S
H2815 C2821 0.950 . S
H2816 C2822 0.949 . S
C2817 H2812 0.950 . S
C2817 C2819 1.327 . S
C2817 C2823 1.429 . S
C2818 C2810 1.574 . S
C2818 H2813 0.949 . S
C2818 C2824 1.368 . S
C2819 C2803 1.349 . S
C2819 H2811 0.950 . S
C2819 C2817 1.327 . S
C2820 C2808 1.349 . S
C2820 H2814 0.950 . S
C2820 C2821 1.327 . S
C2821 H2815 0.950 . S
C2821 C2820 1.327 . S
C2821 C2825 1.429 . S
C2822 C2805 1.574 . S
C2822 H2816 0.949 . S
C2822 C2826 1.368 . S
C2823 C2804 1.429 . S
C2823 C2817 1.429 . S
C2823 C2824 1.523 . S
C2824 C2805 1.368 . S
C2824 C2818 1.368 . S
C2824 C2823 1.523 . S
C2825 C2809 1.429 . S
C2825 C2821 1.429 . S
C2825 C2826 1.523 . S
C2826 C2810 1.368 . S
C2826 C2822 1.368 . S
C2826 C2825 1.523 . S
H2827 C2802 0.950 . S
H2828 C2804 0.950 . S
H2829 C2805 0.949 . S
H2830 C2807 0.950 . S
H2831 C2809 0.950 . S
C2832 C2833 1.349 . S
C2832 C2834 1.327 . S
C2832 H2857 0.950 . S
C2833 C2832 1.349 . S
C2833 C2849 1.349 . S
C2834 C2832 1.327 . S
C2834 C2853 1.429 . S
C2834 H2858 0.950 . S
C2835 C2852 1.574 . S
C2835 C2854 1.368 . S
C2835 H2859 0.949 . S
H2836 C2840 0.949 . S
C2837 C2838 1.349 . S
C2837 C2839 1.327 . S
C2837 H2860 0.950 . S
C2838 C2837 1.349 . S
C2838 C2850 1.349 . S
C2839 C2837 1.327 . S
C2839 C2855 1.429 . S
C2839 H2861 0.950 . S
C2840 H2836 0.949 . S
C2840 C2848 1.574 . S
C2840 C2856 1.368 . S
H2841 C2849 0.950 . S
H2842 C2847 0.950 . S
H2843 C2848 0.949 . S
H2844 C2850 0.950 . S
H2845 C2851 0.950 . S
H2846 C2852 0.949 . S
C2847 H2842 0.950 . S
C2847 C2849 1.327 . S
C2847 C2853 1.429 . S
C2848 C2840 1.574 . S
C2848 H2843 0.949 . S
C2848 C2854 1.368 . S
C2849 C2833 1.349 . S
C2849 H2841 0.950 . S
C2849 C2847 1.327 . S
C2850 C2838 1.349 . S
C2850 H2844 0.950 . S
C2850 C2851 1.327 . S
C2851 H2845 0.950 . S
C2851 C2850 1.327 . S
C2851 C2855 1.429 . S
C2852 C2835 1.574 . S
C2852 H2846 0.949 . S
C2852 C2856 1.368 . S
C2853 C2834 1.429 . S
C2853 C2847 1.429 . S
C2853 C2854 1.523 . S
C2854 C2835 1.368 . S
C2854 C2848 1.368 . S
C2854 C2853 1.523 . S
C2855 C2839 1.429 . S
C2855 C2851 1.429 . S
C2855 C2856 1.523 . S
C2856 C2840 1.368 . S
C2856 C2852 1.368 . S
C2856 C2855 1.523 . S
H2857 C2832 0.950 . S
H2858 C2834 0.950 . S
H2859 C2835 0.949 . S
H2860 C2837 0.950 . S
H2861 C2839 0.950 . S
C2862 C2863 1.349 . S
C2862 C2864 1.327 . S
C2862 H2887 0.950 . S
C2863 C2862 1.349 . S
C2863 C2879 1.349 . S
C2864 C2862 1.327 . S
C2864 C2883 1.429 . S
C2864 H2888 0.950 . S
C2865 C2882 1.574 1_565 S
C2865 C2884 1.368 . S
C2865 H2889 0.949 . S
H2866 C2870 0.949 . S
C2867 C2868 1.349 . S
C2867 C2869 1.327 . S
C2867 H2890 0.950 . S
C2868 C2867 1.349 . S
C2868 C2880 1.349 . S
C2869 C2867 1.327 . S
C2869 C2885 1.429 . S
C2869 H2891 0.950 . S
C2870 H2866 0.949 . S
C2870 C2878 1.574 1_545 S
C2870 C2886 1.368 . S
H2871 C2879 0.950 . S
H2872 C2877 0.950 . S
H2873 C2878 0.949 . S
H2874 C2880 0.950 . S
H2875 C2881 0.950 . S
H2876 C2882 0.949 . S
C2877 H2872 0.950 . S
C2877 C2879 1.327 . S
C2877 C2883 1.429 . S
C2878 C2870 1.574 1_565 S
C2878 H2873 0.949 . S
C2878 C2884 1.368 . S
C2879 C2863 1.349 . S
C2879 H2871 0.950 . S
C2879 C2877 1.327 . S
C2880 C2868 1.349 . S
C2880 H2874 0.950 . S
C2880 C2881 1.327 . S
C2881 H2875 0.950 . S
C2881 C2880 1.327 . S
C2881 C2885 1.429 . S
C2882 C2865 1.574 1_545 S
C2882 H2876 0.949 . S
C2882 C2886 1.368 . S
C2883 C2864 1.429 . S
C2883 C2877 1.429 . S
C2883 C2884 1.523 . S
C2884 C2865 1.368 . S
C2884 C2878 1.368 . S
C2884 C2883 1.523 . S
C2885 C2869 1.429 . S
C2885 C2881 1.429 . S
C2885 C2886 1.523 . S
C2886 C2870 1.368 . S
C2886 C2882 1.368 . S
C2886 C2885 1.523 . S
H2887 C2862 0.950 . S
H2888 C2864 0.950 . S
H2889 C2865 0.949 . S
H2890 C2867 0.950 . S
H2891 C2869 0.950 . S
C2892 C2893 1.349 . S
C2892 C2894 1.327 . S
C2892 H2917 0.950 . S
C2893 C2892 1.349 . S
C2893 C2909 1.349 . S
C2894 C2892 1.327 . S
C2894 C2913 1.429 . S
C2894 H2918 0.950 . S
C2895 C2912 1.574 . S
C2895 C2914 1.368 . S
C2895 H2919 0.949 . S
H2896 C2900 0.949 . S
C2897 C2898 1.349 . S
C2897 C2899 1.327 . S
C2897 H2920 0.950 . S
C2898 C2897 1.349 . S
C2898 C2910 1.349 . S
C2899 C2897 1.327 . S
C2899 C2915 1.429 . S
C2899 H2921 0.950 . S
C2900 H2896 0.949 . S
C2900 C2908 1.574 . S
C2900 C2916 1.368 . S
H2901 C2909 0.950 . S
H2902 C2907 0.950 . S
H2903 C2908 0.949 . S
H2904 C2910 0.950 . S
H2905 C2911 0.950 . S
H2906 C2912 0.949 . S
C2907 H2902 0.950 . S
C2907 C2909 1.327 . S
C2907 C2913 1.429 . S
C2908 C2900 1.574 . S
C2908 H2903 0.949 . S
C2908 C2914 1.368 . S
C2909 C2893 1.349 . S
C2909 H2901 0.950 . S
C2909 C2907 1.327 . S
C2910 C2898 1.349 . S
C2910 H2904 0.950 . S
C2910 C2911 1.327 . S
C2911 H2905 0.950 . S
C2911 C2910 1.327 . S
C2911 C2915 1.429 . S
C2912 C2895 1.574 . S
C2912 H2906 0.949 . S
C2912 C2916 1.368 . S
C2913 C2894 1.429 . S
C2913 C2907 1.429 . S
C2913 C2914 1.523 . S
C2914 C2895 1.368 . S
C2914 C2908 1.368 . S
C2914 C2913 1.523 . S
C2915 C2899 1.429 . S
C2915 C2911 1.429 . S
C2915 C2916 1.523 . S
C2916 C2900 1.368 . S
C2916 C2912 1.368 . S
C2916 C2915 1.523 . S
H2917 C2892 0.950 . S
H2918 C2894 0.950 . S
H2919 C2895 0.949 . S
H2920 C2897 0.950 . S
H2921 C2899 0.950 . S
C2922 C2923 1.349 . S
C2922 C2924 1.327 . S
C2922 H2947 0.950 . S
C2923 C2922 1.349 . S
C2923 C2939 1.349 . S
C2924 C2922 1.327 . S
C2924 C2943 1.429 . S
C2924 H2948 0.950 . S
C2925 C2942 1.574 . S
C2925 C2944 1.368 . S
C2925 H2949 0.949 . S
H2926 C2930 0.949 . S
C2927 C2928 1.349 . S
C2927 C2929 1.327 . S
C2927 H2950 0.950 . S
C2928 C2927 1.349 . S
C2928 C2940 1.349 . S
C2929 C2927 1.327 . S
C2929 C2945 1.429 . S
C2929 H2951 0.950 . S
C2930 H2926 0.949 . S
C2930 C2938 1.574 . S
C2930 C2946 1.368 . S
H2931 C2939 0.950 . S
H2932 C2937 0.950 . S
H2933 C2938 0.949 . S
H2934 C2940 0.950 . S
H2935 C2941 0.950 . S
H2936 C2942 0.949 . S
C2937 H2932 0.950 . S
C2937 C2939 1.327 . S
C2937 C2943 1.429 . S
C2938 C2930 1.574 . S
C2938 H2933 0.949 . S
C2938 C2944 1.368 . S
C2939 C2923 1.349 . S
C2939 H2931 0.950 . S
C2939 C2937 1.327 . S
C2940 C2928 1.349 . S
C2940 H2934 0.950 . S
C2940 C2941 1.327 . S
C2941 H2935 0.950 . S
C2941 C2940 1.327 . S
C2941 C2945 1.429 . S
C2942 C2925 1.574 . S
C2942 H2936 0.949 . S
C2942 C2946 1.368 . S
C2943 C2924 1.429 . S
C2943 C2937 1.429 . S
C2943 C2944 1.523 . S
C2944 C2925 1.368 . S
C2944 C2938 1.368 . S
C2944 C2943 1.523 . S
C2945 C2929 1.429 . S
C2945 C2941 1.429 . S
C2945 C2946 1.523 . S
C2946 C2930 1.368 . S
C2946 C2942 1.368 . S
C2946 C2945 1.523 . S
H2947 C2922 0.950 . S
H2948 C2924 0.950 . S
H2949 C2925 0.949 . S
H2950 C2927 0.950 . S
H2951 C2929 0.950 . S
C2952 C2953 1.349 . S
C2952 C2954 1.327 . S
C2952 H2977 0.950 . S
C2953 C2952 1.349 . S
C2953 C2969 1.349 . S
C2954 C2952 1.327 . S
C2954 C2973 1.429 . S
C2954 H2978 0.950 . S
C2955 C2972 1.574 1_556 S
C2955 C2974 1.368 . S
C2955 H2979 0.949 . S
H2956 C2960 0.949 . S
C2957 C2958 1.349 . S
C2957 C2959 1.327 . S
C2957 H2980 0.950 . S
C2958 C2957 1.349 . S
C2958 C2970 1.349 . S
C2959 C2957 1.327 . S
C2959 C2975 1.429 . S
C2959 H2981 0.950 . S
C2960 H2956 0.949 . S
C2960 C2968 1.574 1_554 S
C2960 C2976 1.368 . S
H2961 C2969 0.950 . S
H2962 C2967 0.950 . S
H2963 C2968 0.949 . S
H2964 C2970 0.950 . S
H2965 C2971 0.950 . S
H2966 C2972 0.949 . S
C2967 H2962 0.950 . S
C2967 C2969 1.327 . S
C2967 C2973 1.429 . S
C2968 C2960 1.574 1_556 S
C2968 H2963 0.949 . S
C2968 C2974 1.368 . S
C2969 C2953 1.349 . S
C2969 H2961 0.950 . S
C2969 C2967 1.327 . S
C2970 C2958 1.349 . S
C2970 H2964 0.950 . S
C2970 C2971 1.327 . S
C2971 H2965 0.950 . S
C2971 C2970 1.327 . S
C2971 C2975 1.429 . S
C2972 C2955 1.574 1_554 S
C2972 H2966 0.949 . S
C2972 C2976 1.368 . S
C2973 C2954 1.429 . S
C2973 C2967 1.429 . S
C2973 C2974 1.523 . S
C2974 C2955 1.368 . S
C2974 C2968 1.368 . S
C2974 C2973 1.523 . S
C2975 C2959 1.429 . S
C2975 C2971 1.429 . S
C2975 C2976 1.523 . S
C2976 C2960 1.368 . S
C2976 C2972 1.368 . S
C2976 C2975 1.523 . S
H2977 C2952 0.950 . S
H2978 C2954 0.950 . S
H2979 C2955 0.949 . S
H2980 C2957 0.950 . S
H2981 C2959 0.950 . S
C2982 C2983 1.349 . S
C2982 C2984 1.327 . S
C2982 H3007 0.950 . S
C2983 C2982 1.349 . S
C2983 C2999 1.349 . S
C2984 C2982 1.327 . S
C2984 C3003 1.429 . S
C2984 H3008 0.950 . S
C2985 C3002 1.574 1_554 S
C2985 C3004 1.368 . S
C2985 H3009 0.949 . S
H2986 C2990 0.949 . S
C2987 C2988 1.349 . S
C2987 C2989 1.327 . S
C2987 H3010 0.950 . S
C2988 C2987 1.349 . S
C2988 C3000 1.349 . S
C2989 C2987 1.327 . S
C2989 C3005 1.429 . S
C2989 H3011 0.950 . S
C2990 H2986 0.949 . S
C2990 C2998 1.574 1_556 S
C2990 C3006 1.368 . S
H2991 C2999 0.950 . S
H2992 C2997 0.950 . S
H2993 C2998 0.949 . S
H2994 C3000 0.950 . S
H2995 C3001 0.950 . S
H2996 C3002 0.949 . S
C2997 H2992 0.950 . S
C2997 C2999 1.327 . S
C2997 C3003 1.429 . S
C2998 C2990 1.574 1_554 S
C2998 H2993 0.949 . S
C2998 C3004 1.368 . S
C2999 C2983 1.349 . S
C2999 H2991 0.950 . S
C2999 C2997 1.327 . S
C3000 C2988 1.349 . S
C3000 H2994 0.950 . S
C3000 C3001 1.327 . S
C3001 H2995 0.950 . S
C3001 C3000 1.327 . S
C3001 C3005 1.429 . S
C3002 C2985 1.574 1_556 S
C3002 H2996 0.949 . S
C3002 C3006 1.368 . S
C3003 C2984 1.429 . S
C3003 C2997 1.429 . S
C3003 C3004 1.523 . S
C3004 C2985 1.368 . S
C3004 C2998 1.368 . S
C3004 C3003 1.523 . S
C3005 C2989 1.429 . S
C3005 C3001 1.429 . S
C3005 C3006 1.523 . S
C3006 C2990 1.368 . S
C3006 C3002 1.368 . S
C3006 C3005 1.523 . S
H3007 C2982 0.950 . S
H3008 C2984 0.950 . S
H3009 C2985 0.949 . S
H3010 C2987 0.950 . S
H3011 C2989 0.950 . S
C3012 C3013 1.349 . S
C3012 C3014 1.327 . S
C3012 H3037 0.950 . S
C3013 C3012 1.349 . S
C3013 C3029 1.349 . S
C3014 C3012 1.327 . S
C3014 C3033 1.429 . S
C3014 H3038 0.950 . S
C3015 C3032 1.574 . S
C3015 C3034 1.368 . S
C3015 H3039 0.949 . S
H3016 C3020 0.949 . S
C3017 C3018 1.349 . S
C3017 C3019 1.327 . S
C3017 H3040 0.950 . S
C3018 C3017 1.349 . S
C3018 C3030 1.349 . S
C3019 C3017 1.327 . S
C3019 C3035 1.429 . S
C3019 H3041 0.950 . S
C3020 H3016 0.949 . S
C3020 C3028 1.574 . S
C3020 C3036 1.368 . S
H3021 C3029 0.950 . S
H3022 C3027 0.950 . S
H3023 C3028 0.949 . S
H3024 C3030 0.950 . S
H3025 C3031 0.950 . S
H3026 C3032 0.949 . S
C3027 H3022 0.950 . S
C3027 C3029 1.327 . S
C3027 C3033 1.429 . S
C3028 C3020 1.574 . S
C3028 H3023 0.949 . S
C3028 C3034 1.368 . S
C3029 C3013 1.349 . S
C3029 H3021 0.950 . S
C3029 C3027 1.327 . S
C3030 C3018 1.349 . S
C3030 H3024 0.950 . S
C3030 C3031 1.327 . S
C3031 H3025 0.950 . S
C3031 C3030 1.327 . S
C3031 C3035 1.429 . S
C3032 C3015 1.574 . S
C3032 H3026 0.949 . S
C3032 C3036 1.368 . S
C3033 C3014 1.429 . S
C3033 C3027 1.429 . S
C3033 C3034 1.523 . S
C3034 C3015 1.368 . S
C3034 C3028 1.368 . S
C3034 C3033 1.523 . S
C3035 C3019 1.429 . S
C3035 C3031 1.429 . S
C3035 C3036 1.523 . S
C3036 C3020 1.368 . S
C3036 C3032 1.368 . S
C3036 C3035 1.523 . S
H3037 C3012 0.950 . S
H3038 C3014 0.950 . S
H3039 C3015 0.949 . S
H3040 C3017 0.950 . S
H3041 C3019 0.950 . S
C3042 C3043 1.349 . S
C3042 C3044 1.327 . S
C3042 H3067 0.950 . S
C3043 C3042 1.349 . S
C3043 C3059 1.349 . S
C3044 C3042 1.327 . S
C3044 C3063 1.429 . S
C3044 H3068 0.950 . S
C3045 C3062 1.574 . S
C3045 C3064 1.368 . S
C3045 H3069 0.949 . S
H3046 C3050 0.949 . S
C3047 C3048 1.349 . S
C3047 C3049 1.327 . S
C3047 H3070 0.950 . S
C3048 C3047 1.349 . S
C3048 C3060 1.349 . S
C3049 C3047 1.327 . S
C3049 C3065 1.429 . S
C3049 H3071 0.950 . S
C3050 H3046 0.949 . S
C3050 C3058 1.574 . S
C3050 C3066 1.368 . S
H3051 C3059 0.950 . S
H3052 C3057 0.950 . S
H3053 C3058 0.949 . S
H3054 C3060 0.950 . S
H3055 C3061 0.950 . S
H3056 C3062 0.949 . S
C3057 H3052 0.950 . S
C3057 C3059 1.327 . S
C3057 C3063 1.429 . S
C3058 C3050 1.574 . S
C3058 H3053 0.949 . S
C3058 C3064 1.368 . S
C3059 C3043 1.349 . S
C3059 H3051 0.950 . S
C3059 C3057 1.327 . S
C3060 C3048 1.349 . S
C3060 H3054 0.950 . S
C3060 C3061 1.327 . S
C3061 H3055 0.950 . S
C3061 C3060 1.327 . S
C3061 C3065 1.429 . S
C3062 C3045 1.574 . S
C3062 H3056 0.949 . S
C3062 C3066 1.368 . S
C3063 C3044 1.429 . S
C3063 C3057 1.429 . S
C3063 C3064 1.523 . S
C3064 C3045 1.368 . S
C3064 C3058 1.368 . S
C3064 C3063 1.523 . S
C3065 C3049 1.429 . S
C3065 C3061 1.429 . S
C3065 C3066 1.523 . S
C3066 C3050 1.368 . S
C3066 C3062 1.368 . S
C3066 C3065 1.523 . S
H3067 C3042 0.950 . S
H3068 C3044 0.950 . S
H3069 C3045 0.949 . S
H3070 C3047 0.950 . S
H3071 C3049 0.950 . S
C3072 C3073 1.349 . S
C3072 C3074 1.327 . S
C3072 H3097 0.950 . S
C3073 C3072 1.349 . S
C3073 C3089 1.349 . S
C3074 C3072 1.327 . S
C3074 C3093 1.429 . S
C3074 H3098 0.950 . S
C3075 C3092 1.574 1_455 S
C3075 C3094 1.368 . S
C3075 H3099 0.949 . S
H3076 C3080 0.949 . S
C3077 C3078 1.349 . S
C3077 C3079 1.327 . S
C3077 H3100 0.950 . S
C3078 C3077 1.349 . S
C3078 C3090 1.349 . S
C3079 C3077 1.327 . S
C3079 C3095 1.429 . S
C3079 H3101 0.950 . S
C3080 H3076 0.949 . S
C3080 C3088 1.574 1_655 S
C3080 C3096 1.368 . S
H3081 C3089 0.950 . S
H3082 C3087 0.950 . S
H3083 C3088 0.949 . S
H3084 C3090 0.950 . S
H3085 C3091 0.950 . S
H3086 C3092 0.949 . S
C3087 H3082 0.950 . S
C3087 C3089 1.327 . S
C3087 C3093 1.429 . S
C3088 C3080 1.574 1_455 S
C3088 H3083 0.949 . S
C3088 C3094 1.368 . S
C3089 C3073 1.349 . S
C3089 H3081 0.950 . S
C3089 C3087 1.327 . S
C3090 C3078 1.349 . S
C3090 H3084 0.950 . S
C3090 C3091 1.327 . S
C3091 H3085 0.950 . S
C3091 C3090 1.327 . S
C3091 C3095 1.429 . S
C3092 C3075 1.574 1_655 S
C3092 H3086 0.949 . S
C3092 C3096 1.368 . S
C3093 C3074 1.429 . S
C3093 C3087 1.429 . S
C3093 C3094 1.523 . S
C3094 C3075 1.368 . S
C3094 C3088 1.368 . S
C3094 C3093 1.523 . S
C3095 C3079 1.429 . S
C3095 C3091 1.429 . S
C3095 C3096 1.523 . S
C3096 C3080 1.368 . S
C3096 C3092 1.368 . S
C3096 C3095 1.523 . S
H3097 C3072 0.950 . S
H3098 C3074 0.950 . S
H3099 C3075 0.949 . S
H3100 C3077 0.950 . S
H3101 C3079 0.950 . S
C3102 C3103 1.349 . S
C3102 C3104 1.327 . S
C3102 H3127 0.950 . S
C3103 C3102 1.349 . S
C3103 C3119 1.349 . S
C3104 C3102 1.327 . S
C3104 C3123 1.429 . S
C3104 H3128 0.950 . S
C3105 C3122 1.574 . S
C3105 C3124 1.368 . S
C3105 H3129 0.949 . S
H3106 C3110 0.949 . S
C3107 C3108 1.349 . S
C3107 C3109 1.327 . S
C3107 H3130 0.950 . S
C3108 C3107 1.349 . S
C3108 C3120 1.349 . S
C3109 C3107 1.327 . S
C3109 C3125 1.429 . S
C3109 H3131 0.950 . S
C3110 H3106 0.949 . S
C3110 C3118 1.574 . S
C3110 C3126 1.368 . S
H3111 C3119 0.950 . S
H3112 C3117 0.950 . S
H3113 C3118 0.949 . S
H3114 C3120 0.950 . S
H3115 C3121 0.950 . S
H3116 C3122 0.949 . S
C3117 H3112 0.950 . S
C3117 C3119 1.327 . S
C3117 C3123 1.429 . S
C3118 C3110 1.574 . S
C3118 H3113 0.949 . S
C3118 C3124 1.368 . S
C3119 C3103 1.349 . S
C3119 H3111 0.950 . S
C3119 C3117 1.327 . S
C3120 C3108 1.349 . S
C3120 H3114 0.950 . S
C3120 C3121 1.327 . S
C3121 H3115 0.950 . S
C3121 C3120 1.327 . S
C3121 C3125 1.429 . S
C3122 C3105 1.574 . S
C3122 H3116 0.949 . S
C3122 C3126 1.368 . S
C3123 C3104 1.429 . S
C3123 C3117 1.429 . S
C3123 C3124 1.523 . S
C3124 C3105 1.368 . S
C3124 C3118 1.368 . S
C3124 C3123 1.523 . S
C3125 C3109 1.429 . S
C3125 C3121 1.429 . S
C3125 C3126 1.523 . S
C3126 C3110 1.368 . S
C3126 C3122 1.368 . S
C3126 C3125 1.523 . S
H3127 C3102 0.950 . S
H3128 C3104 0.950 . S
H3129 C3105 0.949 . S
H3130 C3107 0.950 . S
H3131 C3109 0.950 . S
C3132 C3133 1.349 . S
C3132 C3134 1.327 . S
C3132 H3157 0.950 . S
C3133 C3132 1.349 . S
C3133 C3149 1.349 . S
C3134 C3132 1.327 . S
C3134 C3153 1.429 . S
C3134 H3158 0.950 . S
C3135 C3152 1.574 1_545 S
C3135 C3154 1.368 . S
C3135 H3159 0.949 . S
H3136 C3140 0.949 . S
C3137 C3138 1.349 . S
C3137 C3139 1.327 . S
C3137 H3160 0.950 . S
C3138 C3137 1.349 . S
C3138 C3150 1.349 . S
C3139 C3137 1.327 . S
C3139 C3155 1.429 . S
C3139 H3161 0.950 . S
C3140 H3136 0.949 . S
C3140 C3148 1.574 1_565 S
C3140 C3156 1.368 . S
H3141 C3149 0.950 . S
H3142 C3147 0.950 . S
H3143 C3148 0.949 . S
H3144 C3150 0.950 . S
H3145 C3151 0.950 . S
H3146 C3152 0.949 . S
C3147 H3142 0.950 . S
C3147 C3149 1.327 . S
C3147 C3153 1.429 . S
C3148 C3140 1.574 1_545 S
C3148 H3143 0.949 . S
C3148 C3154 1.368 . S
C3149 C3133 1.349 . S
C3149 H3141 0.950 . S
C3149 C3147 1.327 . S
C3150 C3138 1.349 . S
C3150 H3144 0.950 . S
C3150 C3151 1.327 . S
C3151 H3145 0.950 . S
C3151 C3150 1.327 . S
C3151 C3155 1.429 . S
C3152 C3135 1.574 1_565 S
C3152 H3146 0.949 . S
C3152 C3156 1.368 . S
C3153 C3134 1.429 . S
C3153 C3147 1.429 . S
C3153 C3154 1.523 . S
C3154 C3135 1.368 . S
C3154 C3148 1.368 . S
C3154 C3153 1.523 . S
C3155 C3139 1.429 . S
C3155 C3151 1.429 . S
C3155 C3156 1.523 . S
C3156 C3140 1.368 . S
C3156 C3152 1.368 . S
C3156 C3155 1.523 . S
H3157 C3132 0.950 . S
H3158 C3134 0.950 . S
H3159 C3135 0.949 . S
H3160 C3137 0.950 . S
H3161 C3139 0.950 . S
C3162 C3163 1.349 . S
C3162 C3164 1.327 . S
C3162 H3187 0.950 . S
C3163 C3162 1.349 . S
C3163 C3179 1.349 . S
C3164 C3162 1.327 . S
C3164 C3183 1.429 . S
C3164 H3188 0.950 . S
C3165 C3182 1.574 . S
C3165 C3184 1.368 . S
C3165 H3189 0.949 . S
H3166 C3170 0.949 . S
C3167 C3168 1.349 . S
C3167 C3169 1.327 . S
C3167 H3190 0.950 . S
C3168 C3167 1.349 . S
C3168 C3180 1.349 . S
C3169 C3167 1.327 . S
C3169 C3185 1.429 . S
C3169 H3191 0.950 . S
C3170 H3166 0.949 . S
C3170 C3178 1.574 . S
C3170 C3186 1.368 . S
H3171 C3179 0.950 . S
H3172 C3177 0.950 . S
H3173 C3178 0.949 . S
H3174 C3180 0.950 . S
H3175 C3181 0.950 . S
H3176 C3182 0.949 . S
C3177 H3172 0.950 . S
C3177 C3179 1.327 . S
C3177 C3183 1.429 . S
C3178 C3170 1.574 . S
C3178 H3173 0.949 . S
C3178 C3184 1.368 . S
C3179 C3163 1.349 . S
C3179 H3171 0.950 . S
C3179 C3177 1.327 . S
C3180 C3168 1.349 . S
C3180 H3174 0.950 . S
C3180 C3181 1.327 . S
C3181 H3175 0.950 . S
C3181 C3180 1.327 . S
C3181 C3185 1.429 . S
C3182 C3165 1.574 . S
C3182 H3176 0.949 . S
C3182 C3186 1.368 . S
C3183 C3164 1.429 . S
C3183 C3177 1.429 . S
C3183 C3184 1.523 . S
C3184 C3165 1.368 . S
C3184 C3178 1.368 . S
C3184 C3183 1.523 . S
C3185 C3169 1.429 . S
C3185 C3181 1.429 . S
C3185 C3186 1.523 . S
C3186 C3170 1.368 . S
C3186 C3182 1.368 . S
C3186 C3185 1.523 . S
H3187 C3162 0.950 . S
H3188 C3164 0.950 . S
H3189 C3165 0.949 . S
H3190 C3167 0.950 . S
H3191 C3169 0.950 . S
C3192 C3193 1.349 . S
C3192 C3194 1.327 . S
C3192 H3217 0.950 . S
C3193 C3192 1.349 . S
C3193 C3209 1.349 . S
C3194 C3192 1.327 . S
C3194 C3213 1.429 . S
C3194 H3218 0.950 . S
C3195 C3212 1.574 . S
C3195 C3214 1.368 . S
C3195 H3219 0.949 . S
H3196 C3200 0.949 . S
C3197 C3198 1.349 . S
C3197 C3199 1.327 . S
C3197 H3220 0.950 . S
C3198 C3197 1.349 . S
C3198 C3210 1.349 . S
C3199 C3197 1.327 . S
C3199 C3215 1.429 . S
C3199 H3221 0.950 . S
C3200 H3196 0.949 . S
C3200 C3208 1.574 . S
C3200 C3216 1.368 . S
H3201 C3209 0.950 . S
H3202 C3207 0.950 . S
H3203 C3208 0.949 . S
H3204 C3210 0.950 . S
H3205 C3211 0.950 . S
H3206 C3212 0.949 . S
C3207 H3202 0.950 . S
C3207 C3209 1.327 . S
C3207 C3213 1.429 . S
C3208 C3200 1.574 . S
C3208 H3203 0.949 . S
C3208 C3214 1.368 . S
C3209 C3193 1.349 . S
C3209 H3201 0.950 . S
C3209 C3207 1.327 . S
C3210 C3198 1.349 . S
C3210 H3204 0.950 . S
C3210 C3211 1.327 . S
C3211 H3205 0.950 . S
C3211 C3210 1.327 . S
C3211 C3215 1.429 . S
C3212 C3195 1.574 . S
C3212 H3206 0.949 . S
C3212 C3216 1.368 . S
C3213 C3194 1.429 . S
C3213 C3207 1.429 . S
C3213 C3214 1.523 . S
C3214 C3195 1.368 . S
C3214 C3208 1.368 . S
C3214 C3213 1.523 . S
C3215 C3199 1.429 . S
C3215 C3211 1.429 . S
C3215 C3216 1.523 . S
C3216 C3200 1.368 . S
C3216 C3212 1.368 . S
C3216 C3215 1.523 . S
H3217 C3192 0.950 . S
H3218 C3194 0.950 . S
H3219 C3195 0.949 . S
H3220 C3197 0.950 . S
H3221 C3199 0.950 . S
C3222 C3223 1.349 . S
C3222 C3224 1.327 . S
C3222 H3247 0.950 . S
C3223 C3222 1.349 . S
C3223 C3239 1.349 . S
C3224 C3222 1.327 . S
C3224 C3243 1.429 . S
C3224 H3248 0.950 . S
C3225 C3242 1.574 1_556 S
C3225 C3244 1.368 . S
C3225 H3249 0.949 . S
H3226 C3230 0.949 . S
C3227 C3228 1.349 . S
C3227 C3229 1.327 . S
C3227 H3250 0.950 . S
C3228 C3227 1.349 . S
C3228 C3240 1.349 . S
C3229 C3227 1.327 . S
C3229 C3245 1.429 . S
C3229 H3251 0.950 . S
C3230 H3226 0.949 . S
C3230 C3238 1.574 1_554 S
C3230 C3246 1.368 . S
H3231 C3239 0.950 . S
H3232 C3237 0.950 . S
H3233 C3238 0.949 . S
H3234 C3240 0.950 . S
H3235 C3241 0.950 . S
H3236 C3242 0.949 . S
C3237 H3232 0.950 . S
C3237 C3239 1.327 . S
C3237 C3243 1.429 . S
C3238 C3230 1.574 1_556 S
C3238 H3233 0.949 . S
C3238 C3244 1.368 . S
C3239 C3223 1.349 . S
C3239 H3231 0.950 . S
C3239 C3237 1.327 . S
C3240 C3228 1.349 . S
C3240 H3234 0.950 . S
C3240 C3241 1.327 . S
C3241 H3235 0.950 . S
C3241 C3240 1.327 . S
C3241 C3245 1.429 . S
C3242 C3225 1.574 1_554 S
C3242 H3236 0.949 . S
C3242 C3246 1.368 . S
C3243 C3224 1.429 . S
C3243 C3237 1.429 . S
C3243 C3244 1.523 . S
C3244 C3225 1.368 . S
C3244 C3238 1.368 . S
C3244 C3243 1.523 . S
C3245 C3229 1.429 . S
C3245 C3241 1.429 . S
C3245 C3246 1.523 . S
C3246 C3230 1.368 . S
C3246 C3242 1.368 . S
C3246 C3245 1.523 . S
H3247 C3222 0.950 . S
H3248 C3224 0.950 . S
H3249 C3225 0.949 . S
H3250 C3227 0.950 . S
H3251 C3229 0.950 . S
C3252 C3253 1.349 . S
C3252 C3254 1.327 . S
C3252 H3277 0.950 . S
C3253 C3252 1.349 . S
C3253 C3269 1.349 . S
C3254 C3252 1.327 . S
C3254 C3273 1.429 . S
C3254 H3278 0.950 . S
C3255 C3272 1.574 1_556 S
C3255 C3274 1.368 . S
C3255 H3279 0.949 . S
H3256 C3260 0.949 . S
C3257 C3258 1.349 . S
C3257 C3259 1.327 . S
C3257 H3280 0.950 . S
C3258 C3257 1.349 . S
C3258 C3270 1.349 . S
C3259 C3257 1.327 . S
C3259 C3275 1.429 . S
C3259 H3281 0.950 . S
C3260 H3256 0.949 . S
C3260 C3268 1.574 1_554 S
C3260 C3276 1.368 . S
H3261 C3269 0.950 . S
H3262 C3267 0.950 . S
H3263 C3268 0.949 . S
H3264 C3270 0.950 . S
H3265 C3271 0.950 . S
H3266 C3272 0.949 . S
C3267 H3262 0.950 . S
C3267 C3269 1.327 . S
C3267 C3273 1.429 . S
C3268 C3260 1.574 1_556 S
C3268 H3263 0.949 . S
C3268 C3274 1.368 . S
C3269 C3253 1.349 . S
C3269 H3261 0.950 . S
C3269 C3267 1.327 . S
C3270 C3258 1.349 . S
C3270 H3264 0.950 . S
C3270 C3271 1.327 . S
C3271 H3265 0.950 . S
C3271 C3270 1.327 . S
C3271 C3275 1.429 . S
C3272 C3255 1.574 1_554 S
C3272 H3266 0.949 . S
C3272 C3276 1.368 . S
C3273 C3254 1.429 . S
C3273 C3267 1.429 . S
C3273 C3274 1.523 . S
C3274 C3255 1.368 . S
C3274 C3268 1.368 . S
C3274 C3273 1.523 . S
C3275 C3259 1.429 . S
C3275 C3271 1.429 . S
C3275 C3276 1.523 . S
C3276 C3260 1.368 . S
C3276 C3272 1.368 . S
C3276 C3275 1.523 . S
H3277 C3252 0.950 . S
H3278 C3254 0.950 . S
H3279 C3255 0.949 . S
H3280 C3257 0.950 . S
H3281 C3259 0.950 . S
C3282 C3283 1.349 . S
C3282 C3284 1.327 . S
C3282 H3307 0.950 . S
C3283 C3282 1.349 . S
C3283 C3299 1.349 . S
C3284 C3282 1.327 . S
C3284 C3303 1.429 . S
C3284 H3308 0.950 . S
C3285 C3302 1.574 . S
C3285 C3304 1.368 . S
C3285 H3309 0.949 . S
H3286 C3290 0.949 . S
C3287 C3288 1.349 . S
C3287 C3289 1.327 . S
C3287 H3310 0.950 . S
C3288 C3287 1.349 . S
C3288 C3300 1.349 . S
C3289 C3287 1.327 . S
C3289 C3305 1.429 . S
C3289 H3311 0.950 . S
C3290 H3286 0.949 . S
C3290 C3298 1.574 . S
C3290 C3306 1.368 . S
H3291 C3299 0.950 . S
H3292 C3297 0.950 . S
H3293 C3298 0.949 . S
H3294 C3300 0.950 . S
H3295 C3301 0.950 . S
H3296 C3302 0.949 . S
C3297 H3292 0.950 . S
C3297 C3299 1.327 . S
C3297 C3303 1.429 . S
C3298 C3290 1.574 . S
C3298 H3293 0.949 . S
C3298 C3304 1.368 . S
C3299 C3283 1.349 . S
C3299 H3291 0.950 . S
C3299 C3297 1.327 . S
C3300 C3288 1.349 . S
C3300 H3294 0.950 . S
C3300 C3301 1.327 . S
C3301 H3295 0.950 . S
C3301 C3300 1.327 . S
C3301 C3305 1.429 . S
C3302 C3285 1.574 . S
C3302 H3296 0.949 . S
C3302 C3306 1.368 . S
C3303 C3284 1.429 . S
C3303 C3297 1.429 . S
C3303 C3304 1.523 . S
C3304 C3285 1.368 . S
C3304 C3298 1.368 . S
C3304 C3303 1.523 . S
C3305 C3289 1.429 . S
C3305 C3301 1.429 . S
C3305 C3306 1.523 . S
C3306 C3290 1.368 . S
C3306 C3302 1.368 . S
C3306 C3305 1.523 . S
H3307 C3282 0.950 . S
H3308 C3284 0.950 . S
H3309 C3285 0.949 . S
H3310 C3287 0.950 . S
H3311 C3289 0.950 . S
C3312 C3313 1.349 . S
C3312 C3314 1.327 . S
C3312 H3337 0.950 . S
C3313 C3312 1.349 . S
C3313 C3329 1.349 . S
C3314 C3312 1.327 . S
C3314 C3333 1.429 . S
C3314 H3338 0.950 . S
C3315 C3332 1.574 . S
C3315 C3334 1.368 . S
C3315 H3339 0.949 . S
H3316 C3320 0.949 . S
C3317 C3318 1.349 . S
C3317 C3319 1.327 . S
C3317 H3340 0.950 . S
C3318 C3317 1.349 . S
C3318 C3330 1.349 . S
C3319 C3317 1.327 . S
C3319 C3335 1.429 . S
C3319 H3341 0.950 . S
C3320 H3316 0.949 . S
C3320 C3328 1.574 . S
C3320 C3336 1.368 . S
H3321 C3329 0.950 . S
H3322 C3327 0.950 . S
H3323 C3328 0.949 . S
H3324 C3330 0.950 . S
H3325 C3331 0.950 . S
H3326 C3332 0.949 . S
C3327 H3322 0.950 . S
C3327 C3329 1.327 . S
C3327 C3333 1.429 . S
C3328 C3320 1.574 . S
C3328 H3323 0.949 . S
C3328 C3334 1.368 . S
C3329 C3313 1.349 . S
C3329 H3321 0.950 . S
C3329 C3327 1.327 . S
C3330 C3318 1.349 . S
C3330 H3324 0.950 . S
C3330 C3331 1.327 . S
C3331 H3325 0.950 . S
C3331 C3330 1.327 . S
C3331 C3335 1.429 . S
C3332 C3315 1.574 . S
C3332 H3326 0.949 . S
C3332 C3336 1.368 . S
C3333 C3314 1.429 . S
C3333 C3327 1.429 . S
C3333 C3334 1.523 . S
C3334 C3315 1.368 . S
C3334 C3328 1.368 . S
C3334 C3333 1.523 . S
C3335 C3319 1.429 . S
C3335 C3331 1.429 . S
C3335 C3336 1.523 . S
C3336 C3320 1.368 . S
C3336 C3332 1.368 . S
C3336 C3335 1.523 . S
H3337 C3312 0.950 . S
H3338 C3314 0.950 . S
H3339 C3315 0.949 . S
H3340 C3317 0.950 . S
H3341 C3319 0.950 . S
C3342 C3343 1.349 . S
C3342 C3344 1.327 . S
C3342 H3367 0.950 . S
C3343 C3342 1.349 . S
C3343 C3359 1.349 . S
C3344 C3342 1.327 . S
C3344 C3363 1.429 . S
C3344 H3368 0.950 . S
C3345 C3362 1.574 1_655 S
C3345 C3364 1.368 . S
C3345 H3369 0.949 . S
H3346 C3350 0.949 . S
C3347 C3348 1.349 . S
C3347 C3349 1.327 . S
C3347 H3370 0.950 . S
C3348 C3347 1.349 . S
C3348 C3360 1.349 . S
C3349 C3347 1.327 . S
C3349 C3365 1.429 . S
C3349 H3371 0.950 . S
C3350 H3346 0.949 . S
C3350 C3358 1.574 1_455 S
C3350 C3366 1.368 . S
H3351 C3359 0.950 . S
H3352 C3357 0.950 . S
H3353 C3358 0.949 . S
H3354 C3360 0.950 . S
H3355 C3361 0.950 . S
H3356 C3362 0.949 . S
C3357 H3352 0.950 . S
C3357 C3359 1.327 . S
C3357 C3363 1.429 . S
C3358 C3350 1.574 1_655 S
C3358 H3353 0.949 . S
C3358 C3364 1.368 . S
C3359 C3343 1.349 . S
C3359 H3351 0.950 . S
C3359 C3357 1.327 . S
C3360 C3348 1.349 . S
C3360 H3354 0.950 . S
C3360 C3361 1.327 . S
C3361 H3355 0.950 . S
C3361 C3360 1.327 . S
C3361 C3365 1.429 . S
C3362 C3345 1.574 1_455 S
C3362 H3356 0.949 . S
C3362 C3366 1.368 . S
C3363 C3344 1.429 . S
C3363 C3357 1.429 . S
C3363 C3364 1.523 . S
C3364 C3345 1.368 . S
C3364 C3358 1.368 . S
C3364 C3363 1.523 . S
C3365 C3349 1.429 . S
C3365 C3361 1.429 . S
C3365 C3366 1.523 . S
C3366 C3350 1.368 . S
C3366 C3362 1.368 . S
C3366 C3365 1.523 . S
H3367 C3342 0.950 . S
H3368 C3344 0.950 . S
H3369 C3345 0.949 . S
H3370 C3347 0.950 . S
H3371 C3349 0.950 . S
C3372 C3373 1.349 . S
C3372 C3374 1.327 . S
C3372 H3397 0.950 . S
C3373 C3372 1.349 . S
C3373 C3389 1.349 . S
C3374 C3372 1.327 . S
C3374 C3393 1.429 . S
C3374 H3398 0.950 . S
C3375 C3392 1.574 1_545 S
C3375 C3394 1.368 . S
C3375 H3399 0.949 . S
H3376 C3380 0.949 . S
C3377 C3378 1.349 . S
C3377 C3379 1.327 . S
C3377 H3400 0.950 . S
C3378 C3377 1.349 . S
C3378 C3390 1.349 . S
C3379 C3377 1.327 . S
C3379 C3395 1.429 . S
C3379 H3401 0.950 . S
C3380 H3376 0.949 . S
C3380 C3388 1.574 1_565 S
C3380 C3396 1.368 . S
H3381 C3389 0.950 . S
H3382 C3387 0.950 . S
H3383 C3388 0.949 . S
H3384 C3390 0.950 . S
H3385 C3391 0.950 . S
H3386 C3392 0.949 . S
C3387 H3382 0.950 . S
C3387 C3389 1.327 . S
C3387 C3393 1.429 . S
C3388 C3380 1.574 1_545 S
C3388 H3383 0.949 . S
C3388 C3394 1.368 . S
C3389 C3373 1.349 . S
C3389 H3381 0.950 . S
C3389 C3387 1.327 . S
C3390 C3378 1.349 . S
C3390 H3384 0.950 . S
C3390 C3391 1.327 . S
C3391 H3385 0.950 . S
C3391 C3390 1.327 . S
C3391 C3395 1.429 . S
C3392 C3375 1.574 1_565 S
C3392 H3386 0.949 . S
C3392 C3396 1.368 . S
C3393 C3374 1.429 . S
C3393 C3387 1.429 . S
C3393 C3394 1.523 . S
C3394 C3375 1.368 . S
C3394 C3388 1.368 . S
C3394 C3393 1.523 . S
C3395 C3379 1.429 . S
C3395 C3391 1.429 . S
C3395 C3396 1.523 . S
C3396 C3380 1.368 . S
C3396 C3392 1.368 . S
C3396 C3395 1.523 . S
H3397 C3372 0.950 . S
H3398 C3374 0.950 . S
H3399 C3375 0.949 . S
H3400 C3377 0.950 . S
H3401 C3379 0.950 . S
C3402 C3403 1.349 . S
C3402 C3404 1.327 . S
C3402 H3427 0.950 . S
C3403 C3402 1.349 . S
C3403 C3419 1.349 . S
C3404 C3402 1.327 . S
C3404 C3423 1.429 . S
C3404 H3428 0.950 . S
C3405 C3422 1.574 . S
C3405 C3424 1.368 . S
C3405 H3429 0.949 . S
H3406 C3410 0.949 . S
C3407 C3408 1.349 . S
C3407 C3409 1.327 . S
C3407 H3430 0.950 . S
C3408 C3407 1.349 . S
C3408 C3420 1.349 . S
C3409 C3407 1.327 . S
C3409 C3425 1.429 . S
C3409 H3431 0.950 . S
C3410 H3406 0.949 . S
C3410 C3418 1.574 . S
C3410 C3426 1.368 . S
H3411 C3419 0.950 . S
H3412 C3417 0.950 . S
H3413 C3418 0.949 . S
H3414 C3420 0.950 . S
H3415 C3421 0.950 . S
H3416 C3422 0.949 . S
C3417 H3412 0.950 . S
C3417 C3419 1.327 . S
C3417 C3423 1.429 . S
C3418 C3410 1.574 . S
C3418 H3413 0.949 . S
C3418 C3424 1.368 . S
C3419 C3403 1.349 . S
C3419 H3411 0.950 . S
C3419 C3417 1.327 . S
C3420 C3408 1.349 . S
C3420 H3414 0.950 . S
C3420 C3421 1.327 . S
C3421 H3415 0.950 . S
C3421 C3420 1.327 . S
C3421 C3425 1.429 . S
C3422 C3405 1.574 . S
C3422 H3416 0.949 . S
C3422 C3426 1.368 . S
C3423 C3404 1.429 . S
C3423 C3417 1.429 . S
C3423 C3424 1.523 . S
C3424 C3405 1.368 . S
C3424 C3418 1.368 . S
C3424 C3423 1.523 . S
C3425 C3409 1.429 . S
C3425 C3421 1.429 . S
C3425 C3426 1.523 . S
C3426 C3410 1.368 . S
C3426 C3422 1.368 . S
C3426 C3425 1.523 . S
H3427 C3402 0.950 . S
H3428 C3404 0.950 . S
H3429 C3405 0.949 . S
H3430 C3407 0.950 . S
H3431 C3409 0.950 . S
C3432 C3433 1.349 . S
C3432 C3434 1.327 . S
C3432 H3457 0.950 . S
C3433 C3432 1.349 . S
C3433 C3449 1.349 . S
C3434 C3432 1.327 . S
C3434 C3453 1.429 . S
C3434 H3458 0.950 . S
C3435 C3452 1.574 1_455 S
C3435 C3454 1.368 . S
C3435 H3459 0.949 . S
H3436 C3440 0.949 . S
C3437 C3438 1.349 . S
C3437 C3439 1.327 . S
C3437 H3460 0.950 . S
C3438 C3437 1.349 . S
C3438 C3450 1.349 . S
C3439 C3437 1.327 . S
C3439 C3455 1.429 . S
C3439 H3461 0.950 . S
C3440 H3436 0.949 . S
C3440 C3448 1.574 1_655 S
C3440 C3456 1.368 . S
H3441 C3449 0.950 . S
H3442 C3447 0.950 . S
H3443 C3448 0.949 . S
H3444 C3450 0.950 . S
H3445 C3451 0.950 . S
H3446 C3452 0.949 . S
C3447 H3442 0.950 . S
C3447 C3449 1.327 . S
C3447 C3453 1.429 . S
C3448 C3440 1.574 1_455 S
C3448 H3443 0.949 . S
C3448 C3454 1.368 . S
C3449 C3433 1.349 . S
C3449 H3441 0.950 . S
C3449 C3447 1.327 . S
C3450 C3438 1.349 . S
C3450 H3444 0.950 . S
C3450 C3451 1.327 . S
C3451 H3445 0.950 . S
C3451 C3450 1.327 . S
C3451 C3455 1.429 . S
C3452 C3435 1.574 1_655 S
C3452 H3446 0.949 . S
C3452 C3456 1.368 . S
C3453 C3434 1.429 . S
C3453 C3447 1.429 . S
C3453 C3454 1.523 . S
C3454 C3435 1.368 . S
C3454 C3448 1.368 . S
C3454 C3453 1.523 . S
C3455 C3439 1.429 . S
C3455 C3451 1.429 . S
C3455 C3456 1.523 . S
C3456 C3440 1.368 . S
C3456 C3452 1.368 . S
C3456 C3455 1.523 . S
H3457 C3432 0.950 . S
H3458 C3434 0.950 . S
H3459 C3435 0.949 . S
H3460 C3437 0.950 . S
H3461 C3439 0.950 . S
C3462 C3463 1.349 . S
C3462 C3464 1.327 . S
C3462 H3487 0.950 . S
C3463 C3462 1.349 . S
C3463 C3479 1.349 . S
C3464 C3462 1.327 . S
C3464 C3483 1.429 . S
C3464 H3488 0.950 . S
C3465 C3482 1.574 1_545 S
C3465 C3484 1.368 . S
C3465 H3489 0.949 . S
H3466 C3470 0.949 . S
C3467 C3468 1.349 . S
C3467 C3469 1.327 . S
C3467 H3490 0.950 . S
C3468 C3467 1.349 . S
C3468 C3480 1.349 . S
C3469 C3467 1.327 . S
C3469 C3485 1.429 . S
C3469 H3491 0.950 . S
C3470 H3466 0.949 . S
C3470 C3478 1.574 1_565 S
C3470 C3486 1.368 . S
H3471 C3479 0.950 . S
H3472 C3477 0.950 . S
H3473 C3478 0.949 . S
H3474 C3480 0.950 . S
H3475 C3481 0.950 . S
H3476 C3482 0.949 . S
C3477 H3472 0.950 . S
C3477 C3479 1.327 . S
C3477 C3483 1.429 . S
C3478 C3470 1.574 1_545 S
C3478 H3473 0.949 . S
C3478 C3484 1.368 . S
C3479 C3463 1.349 . S
C3479 H3471 0.950 . S
C3479 C3477 1.327 . S
C3480 C3468 1.349 . S
C3480 H3474 0.950 . S
C3480 C3481 1.327 . S
C3481 H3475 0.950 . S
C3481 C3480 1.327 . S
C3481 C3485 1.429 . S
C3482 C3465 1.574 1_565 S
C3482 H3476 0.949 . S
C3482 C3486 1.368 . S
C3483 C3464 1.429 . S
C3483 C3477 1.429 . S
C3483 C3484 1.523 . S
C3484 C3465 1.368 . S
C3484 C3478 1.368 . S
C3484 C3483 1.523 . S
C3485 C3469 1.429 . S
C3485 C3481 1.429 . S
C3485 C3486 1.523 . S
C3486 C3470 1.368 . S
C3486 C3482 1.368 . S
C3486 C3485 1.523 . S
H3487 C3462 0.950 . S
H3488 C3464 0.950 . S
H3489 C3465 0.949 . S
H3490 C3467 0.950 . S
H3491 C3469 0.950 . S
C3492 C3493 1.349 . S
C3492 C3494 1.327 . S
C3492 H3517 0.950 . S
C3493 C3492 1.349 . S
C3493 C3509 1.349 . S
C3494 C3492 1.327 . S
C3494 C3513 1.429 . S
C3494 H3518 0.950 . S
C3495 C3512 1.574 . S
C3495 C3514 1.368 . S
C3495 H3519 0.949 . S
H3496 C3500 0.949 . S
C3497 C3498 1.349 . S
C3497 C3499 1.327 . S
C3497 H3520 0.950 . S
C3498 C3497 1.349 . S
C3498 C3510 1.349 . S
C3499 C3497 1.327 . S
C3499 C3515 1.429 . S
C3499 H3521 0.950 . S
C3500 H3496 0.949 . S
C3500 C3508 1.574 . S
C3500 C3516 1.368 . S
H3501 C3509 0.950 . S
H3502 C3507 0.950 . S
H3503 C3508 0.949 . S
H3504 C3510 0.950 . S
H3505 C3511 0.950 . S
H3506 C3512 0.949 . S
C3507 H3502 0.950 . S
C3507 C3509 1.327 . S
C3507 C3513 1.429 . S
C3508 C3500 1.574 . S
C3508 H3503 0.949 . S
C3508 C3514 1.368 . S
C3509 C3493 1.349 . S
C3509 H3501 0.950 . S
C3509 C3507 1.327 . S
C3510 C3498 1.349 . S
C3510 H3504 0.950 . S
C3510 C3511 1.327 . S
C3511 H3505 0.950 . S
C3511 C3510 1.327 . S
C3511 C3515 1.429 . S
C3512 C3495 1.574 . S
C3512 H3506 0.949 . S
C3512 C3516 1.368 . S
C3513 C3494 1.429 . S
C3513 C3507 1.429 . S
C3513 C3514 1.523 . S
C3514 C3495 1.368 . S
C3514 C3508 1.368 . S
C3514 C3513 1.523 . S
C3515 C3499 1.429 . S
C3515 C3511 1.429 . S
C3515 C3516 1.523 . S
C3516 C3500 1.368 . S
C3516 C3512 1.368 . S
C3516 C3515 1.523 . S
H3517 C3492 0.950 . S
H3518 C3494 0.950 . S
H3519 C3495 0.949 . S
H3520 C3497 0.950 . S
H3521 C3499 0.950 . S
C3522 C3523 1.349 . S
C3522 C3524 1.327 . S
C3522 H3547 0.950 . S
C3523 C3522 1.349 . S
C3523 C3539 1.349 . S
C3524 C3522 1.327 . S
C3524 C3543 1.429 . S
C3524 H3548 0.950 . S
C3525 C3542 1.574 1_455 S
C3525 C3544 1.368 . S
C3525 H3549 0.949 . S
H3526 C3530 0.949 . S
C3527 C3528 1.349 . S
C3527 C3529 1.327 . S
C3527 H3550 0.950 . S
C3528 C3527 1.349 . S
C3528 C3540 1.349 . S
C3529 C3527 1.327 . S
C3529 C3545 1.429 . S
C3529 H3551 0.950 . S
C3530 H3526 0.949 . S
C3530 C3538 1.574 1_655 S
C3530 C3546 1.368 . S
H3531 C3539 0.950 . S
H3532 C3537 0.950 . S
H3533 C3538 0.949 . S
H3534 C3540 0.950 . S
H3535 C3541 0.950 . S
H3536 C3542 0.949 . S
C3537 H3532 0.950 . S
C3537 C3539 1.327 . S
C3537 C3543 1.429 . S
C3538 C3530 1.574 1_455 S
C3538 H3533 0.949 . S
C3538 C3544 1.368 . S
C3539 C3523 1.349 . S
C3539 H3531 0.950 . S
C3539 C3537 1.327 . S
C3540 C3528 1.349 . S
C3540 H3534 0.950 . S
C3540 C3541 1.327 . S
C3541 H3535 0.950 . S
C3541 C3540 1.327 . S
C3541 C3545 1.429 . S
C3542 C3525 1.574 1_655 S
C3542 H3536 0.949 . S
C3542 C3546 1.368 . S
C3543 C3524 1.429 . S
C3543 C3537 1.429 . S
C3543 C3544 1.523 . S
C3544 C3525 1.368 . S
C3544 C3538 1.368 . S
C3544 C3543 1.523 . S
C3545 C3529 1.429 . S
C3545 C3541 1.429 . S
C3545 C3546 1.523 . S
C3546 C3530 1.368 . S
C3546 C3542 1.368 . S
C3546 C3545 1.523 . S
H3547 C3522 0.950 . S
H3548 C3524 0.950 . S
H3549 C3525 0.949 . S
H3550 C3527 0.950 . S
H3551 C3529 0.950 . S
C673 C25 1.720 . S
C678 C11 1.720 . S
C703 C39 1.719 . S
C708 C53 1.719 . S
C733 C95 1.720 . S
C738 C67 1.720 . S
C763 C109 1.719 . S
C768 C81 1.719 . S
C793 C123 1.720 . S
C798 C487 1.720 . S
C823 C137 1.719 . S
C828 C165 1.719 . S
C853 C459 1.720 . S
C858 C151 1.720 . S
C883 C193 1.720 . S
C888 C179 1.720 . S
C913 C221 1.719 . S
C918 C207 1.719 . S
C943 C263 1.720 . S
C948 C235 1.720 . S
C973 C277 1.719 . S
C978 C249 1.719 . S
C1003 C291 1.720 . S
C1008 C655 1.720 . S
C1033 C305 1.719 . S
C1038 C333 1.719 . S
C1063 C627 1.720 . S
C1068 C319 1.720 . S
C1093 C347 1.720 . S
C1098 C361 1.720 . S
C1123 C389 1.719 . S
C1128 C375 1.719 . S
C1153 C403 1.720 . S
C1158 C431 1.720 . S
C1183 C445 1.719 . S
C1188 C417 1.719 . S
C1213 C501 1.719 . S
C1218 C473 1.719 . S
C1243 C529 1.720 . S
C1248 C515 1.720 . S
C1273 C543 1.719 . S
C1278 C557 1.719 . S
C1303 C599 1.720 . S
C1308 C571 1.720 . S
C1333 C585 1.719 . S
C1338 C613 1.719 . S
C1363 C641 1.719 . S
C1368 C669 1.719 . S
C1393 C616 1.172 . S
C1398 C9 1.233 . S
C1423 C322 1.172 . S
C1428 C23 1.233 . S
C1453 C630 1.171 . S
C1458 C37 1.232 . S
C1483 C51 1.233 . S
C1488 C644 1.172 . S
C1513 C65 1.233 . S
C1518 C504 1.172 . S
C1543 C518 1.172 . S
C1548 C79 1.233 . S
C1573 C93 1.233 . S
C1578 C532 1.172 . S
C1603 C546 1.171 . S
C1608 C107 1.232 . S
C1633 C560 1.172 . S
C1638 C121 1.233 . S
C1663 C135 1.233 . S
C1668 C588 1.172 . S
C1693 C602 1.172 . S
C1698 C149 1.233 . S
C1723 C163 1.232 . S
C1728 C238 1.171 . S
C1753 C177 1.233 . S
C1758 C448 1.172 . S
C1783 C191 1.233 . S
C1788 C154 1.172 . S
C1813 C205 1.232 . S
C1818 C462 1.171 . S
C1843 C219 1.233 . S
C1848 C476 1.172 . S
C1873 C336 1.172 . S
C1878 C233 1.233 . S
C1903 C350 1.172 . S
C1908 C247 1.233 . S
C1933 C261 1.233 . S
C1938 C364 1.172 . S
C1963 C275 1.232 . S
C1968 C378 1.171 . S
C1993 C289 1.233 . S
C1998 C392 1.172 . S
C2023 C303 1.233 . S
C2028 C420 1.172 . S
C2053 C434 1.172 . S
C2058 C317 1.233 . S
C2083 C70 1.171 . S
C2088 C331 1.232 . S
C2113 C345 1.233 . S
C2118 C280 1.171 . S
C2143 C359 1.233 . S
C2148 C658 1.172 . S
C2173 C373 1.232 . S
C2178 C294 1.171 . S
C2203 C387 1.233 . S
C2208 C308 1.172 . S
C2233 C168 1.171 . S
C2238 C401 1.233 . S
C2263 C415 1.233 . S
C2268 C182 1.172 . S
C2293 C196 1.172 . S
C2298 C429 1.233 . S
C2323 C210 1.171 . S
C2328 C443 1.232 . S
C2353 C224 1.171 . S
C2358 C457 1.233 . S
C2383 C252 1.172 . S
C2388 C471 1.233 . S
C2413 C485 1.233 . S
C2418 C266 1.172 . S
C2443 C499 1.232 . S
C2448 C574 1.171 . S
C2473 C112 1.171 . S
C2478 C513 1.233 . S
C2503 C527 1.233 . S
C2508 C490 1.172 . S
C2533 C541 1.232 . S
C2538 C126 1.171 . S
C2563 C140 1.172 . S
C2568 C555 1.233 . S
C2593 C569 1.233 . S
C2598 C0 1.171 . S
C2623 C583 1.233 . S
C2628 C14 1.172 . S
C2653 C28 1.172 . S
C2658 C597 1.233 . S
C2683 C611 1.232 . S
C2688 C42 1.171 . S
C2713 C625 1.233 . S
C2718 C56 1.171 . S
C2743 C84 1.172 . S
C2748 C639 1.233 . S
C2773 C653 1.233 . S
C2778 C98 1.172 . S
C2803 C406 1.171 . S
C2808 C667 1.232 . S
C2833 C33 0.781 . S
C2838 C5 0.781 . S
C2863 C47 0.781 . S
C2868 C19 0.781 . S
C2893 C439 0.781 . S
C2898 C61 0.781 . S
C2923 C425 0.781 . S
C2928 C75 0.781 . S
C2953 C411 0.781 . S
C2958 C89 0.781 . S
C2983 C103 0.781 . S
C2988 C397 0.781 . S
C3013 C117 0.781 . S
C3018 C495 0.781 . S
C3043 C145 0.781 . S
C3048 C131 0.781 . S
C3073 C159 0.781 . S
C3078 C453 0.781 . S
C3103 C201 0.781 . S
C3108 C173 0.781 . S
C3133 C215 0.781 . S
C3138 C187 0.781 . S
C3163 C607 0.781 . S
C3168 C229 0.781 . S
C3193 C593 0.781 . S
C3198 C243 0.781 . S
C3223 C257 0.781 . S
C3228 C579 0.781 . S
C3253 C271 0.781 . S
C3258 C565 0.781 . S
C3283 C663 0.781 . S
C3288 C285 0.781 . S
C3313 C313 0.781 . S
C3318 C299 0.781 . S
C3343 C327 0.781 . S
C3348 C621 0.781 . S
C3373 C369 0.781 . S
C3378 C341 0.781 . S
C3403 C355 0.781 . S
C3408 C383 0.781 . S
C3433 C481 0.781 . S
C3438 C467 0.781 . S
C3463 C509 0.781 . S
C3468 C537 0.781 . S
C3493 C523 0.781 . S
C3498 C551 0.781 . S
C3523 C635 0.781 . S
C3528 C649 0.781 . S
