# Generated by pormake.
# Topology sxc, (6)-cn, num edge types: 1
# Building blocks:
#     Node 0, Type 0, BuildingBlock: UKALOJ_clean_sbu_0, # of connection points: 6
#     Node 1, Type 0, BuildingBlock: UKALOJ_clean_sbu_0, # of connection points: 6
#     Node 2, Type 0, BuildingBlock: UKALOJ_clean_sbu_0, # of connection points: 6
#     Edge 3, Type (0, 0), BuildingBlock: TEMPAE_clean_linker_10, # of connection points: 2
#     Edge 4, Type (0, 0), BuildingBlock: TEMPAE_clean_linker_10, # of connection points: 2
#     Edge 5, Type (0, 0), BuildingBlock: TEMPAE_clean_linker_10, # of connection points: 2
#     Edge 6, Type (0, 0), BuildingBlock: TEMPAE_clean_linker_10, # of connection points: 2
#     Edge 7, Type (0, 0), BuildingBlock: TEMPAE_clean_linker_10, # of connection points: 2
#     Edge 8, Type (0, 0), BuildingBlock: TEMPAE_clean_linker_10, # of connection points: 2
#     Edge 9, Type (0, 0), BuildingBlock: TEMPAE_clean_linker_10, # of connection points: 2
#     Edge 10, Type (0, 0), BuildingBlock: TEMPAE_clean_linker_10, # of connection points: 2
#     Edge 11, Type (0, 0), BuildingBlock: TEMPAE_clean_linker_10, # of connection points: 2
# Relax obj value: 0.117
# Max RMSD: 0.183
# Mean RMSD: 0.183
data_MOF--net-sxc--node1-UKALOJ_clean_sbu_0--edge1-TEMPAE_clean_linker_10
_symmetry_space_group_name_H-M    P1
_symmetry_Int_Tables_number       1
_symmetry_cell_setting            triclinic
loop_
_symmetry_equiv_pos_as_xyz
'x, y, z'
_cell_length_a     15.276162
_cell_length_b     15.288361
_cell_length_c     61.018021
_cell_angle_alpha  89.709552
_cell_angle_beta   90.714428
_cell_angle_gamma 120.03007
loop_
_atom_site_label
_atom_site_type_symbol
_atom_site_fract_x
_atom_site_fract_y
_atom_site_fract_z
_atom_type_partial_charge
Zn0 Zn 0.93613 0.05018 1.00577 0.0
O1 O -0.02323 0.93628 1.00491 0.0
C2 C 0.73938 0.8984 0.0225 0.0
Zn3 Zn 0.93789 0.04991 0.04246 0.0
C4 C -0.01652 0.89865 0.02306 0.0
O5 O -0.02504 0.93595 0.04091 0.0
C6 C 0.89079 0.20138 0.02587 0.0
O7 O 0.09025 0.16283 0.04359 0.0
O8 O 0.08993 0.16535 1.00755 0.0
N9 N 0.92966 0.03454 0.07601 0.0
C10 C -0.02367 0.09726 0.09312 0.0
C11 C 0.87835 0.95086 0.10622 0.0
N12 N 0.86864 0.94395 0.08427 0.0
N13 N 0.94515 0.04629 0.11228 0.0
C14 C 0.92515 0.0002 0.95547 0.0
C15 C 0.9555 0.1406 0.94152 0.0
N16 N 0.93961 0.06362 0.97223 0.0
N17 N -0.04167 0.15062 0.96345 0.0
N18 N 0.93485 0.04693 0.93603 0.0
H19 H 0.84672 0.85865 0.97265 0.0
H20 H -0.03472 0.88652 0.96086 0.0
H21 H 0.85586 0.84705 0.94338 0.0
C22 C 0.89594 0.89154 0.9582 0.0
C23 C 0.0587 0.20493 0.09071 0.0
H24 H 0.12932 0.20614 0.08611 0.0
H25 H 0.07381 0.2485 0.10608 0.0
H26 H 0.03869 0.24187 0.07745 0.0
O27 O 0.9015 0.16447 0.0437 0.0
O28 O 0.89602 0.16435 1.00767 0.0
C29 C 0.13537 0.20113 0.02572 0.0
O30 O 0.78294 0.9353 1.00444 0.0
O31 O 0.78559 0.93596 0.04046 0.0
Zn32 Zn 0.14172 0.16843 0.33963 0.0
O33 O -0.01073 0.12896 0.33813 0.0
C34 C 0.18867 0.36621 0.35644 0.0
Zn35 Zn 0.14305 0.16867 0.37631 0.0
C36 C 0.94394 0.12113 0.35599 0.0
O37 O -0.01076 0.12996 0.37418 0.0
C38 C 0.34006 0.21444 0.35993 0.0
O39 O 0.10254 0.01415 0.37701 0.0
O40 O 0.10459 0.01724 0.341 0.0
N41 N 0.13758 0.17615 0.40981 0.0
C42 C 0.15339 0.12775 0.42663 0.0
C43 C 0.11844 0.23431 0.44043 0.0
N44 N 0.11592 0.24219 0.41849 0.0
N45 N 0.14171 0.163 0.44602 0.0
C46 C 0.10463 0.18031 0.28898 0.0
C47 C 0.21268 0.14602 0.27586 0.0
N48 N 0.15188 0.16459 0.30611 0.0
N49 N 0.21889 0.14338 0.29784 0.0
N50 N 0.14153 0.16901 0.26982 0.0
H51 H 0.9516 0.14377 0.29326 0.0
H52 H 0.02435 0.25272 0.27621 0.0
H53 H 0.04377 0.26135 0.30563 0.0
C54 C 0.02693 0.21201 0.29109 0.0
C55 C 0.18561 0.05061 0.424 0.0
H56 H 0.23392 0.06771 0.40939 0.0
H57 H 0.11747 -0.02488 0.42167 0.0
H58 H 0.22757 0.04812 0.43874 0.0
O59 O 0.29633 0.20706 0.37797 0.0
O60 O 0.29401 0.20664 0.34196 0.0
C61 C 0.09593 -0.02938 0.35885 0.0
O62 O 0.17828 0.31954 0.33859 0.0
O63 O 0.1831 0.32298 0.37462 0.0
Zn64 Zn 0.04995 0.96556 0.70947 0.0
O65 O 0.93873 0.00725 0.71013 0.0
C66 C 0.89726 0.76753 0.69386 0.0
Zn67 Zn 0.04724 0.9645 0.67279 0.0
C68 C 0.89857 0.01327 0.69226 0.0
O69 O 0.93155 0.00207 0.6741 0.0
C70 C 0.19977 0.91816 0.6902 0.0
O71 O 0.16009 0.11852 0.67088 0.0
O72 O 0.1661 0.11583 0.70687 0.0
N73 N 0.02899 0.95051 0.6393 0.0
C74 C 0.08924 -0.00257 0.62206 0.0
C75 C 0.9431 0.89266 0.60928 0.0
N76 N 0.9386 0.8852 0.63125 0.0
N77 N 0.03682 0.96221 0.60301 0.0
C78 C 0.007 0.94945 0.76039 0.0
C79 C 0.15847 0.03068 0.77261 0.0
N80 N 0.06893 -0.02237 0.74293 0.0
N81 N 0.16276 0.02738 0.75066 0.0
N82 N 0.0617 -0.01776 0.77926 0.0
H83 H 0.86717 0.89684 0.74209 0.0
H84 H 0.86202 0.92457 0.7707 0.0
H85 H 0.86499 0.81286 0.76283 0.0
C86 C 0.89383 0.8935 0.75881 0.0
C87 C 0.19574 0.08331 0.62419 0.0
H88 H 0.19409 0.15302 0.62836 0.0
H89 H 0.23836 0.09736 0.60881 0.0
H90 H 0.23565 0.06783 0.63763 0.0
O91 O 0.16326 0.92717 0.67204 0.0
O92 O 0.16137 0.92443 0.70806 0.0
C93 C 0.20061 0.1619 0.68891 0.0
O94 O 0.93465 0.81522 0.71166 0.0
O95 O 0.93412 0.81023 0.67566 0.0
C96 C -0.01127 0.38134 0.0355 0.0
C97 C 0.90106 0.30179 0.0261 0.0
C98 C 0.00859 0.48093 0.03403 0.0
C99 C 0.93698 0.50058 0.02361 0.0
C100 C 0.84728 0.41995 1.01436 0.0
C101 C 0.83149 0.32121 1.01526 0.0
C102 C 0.10658 0.56505 0.04343 0.0
C103 C 0.76775 0.43792 1.0038 0.0
C104 C 0.93861 0.73743 0.04169 0.0
C105 C -0.01795 0.80153 0.02365 0.0
C106 C 0.9226 0.63906 0.04172 0.0
C107 C 0.95361 0.6048 0.02353 0.0
C108 C 0.00081 0.67016 1.00556 0.0
C109 C 0.01299 0.76758 1.00567 0.0
C110 C 0.87036 0.57103 0.06101 0.0
C111 C 0.03772 0.63694 0.98622 0.0
H112 H 0.04366 0.36586 0.04335 0.0
H113 H 0.76457 0.25922 1.00776 0.0
H114 H 0.14826 0.62233 0.03061 0.0
H115 H 0.09076 0.6037 0.05683 0.0
H116 H 0.15619 0.53707 0.04999 0.0
H117 H 0.70139 0.36683 0.99781 0.0
H118 H 0.74138 0.47404 1.01574 0.0
H119 H 0.80048 0.49056 0.98978 0.0
H120 H 0.91289 0.76259 0.05551 0.0
H121 H 0.04619 0.8169 0.99169 0.0
H122 H 0.92169 0.54891 0.06915 0.0
H123 H 0.80259 0.50061 0.0553 0.0
H124 H 0.84645 0.60785 0.07336 0.0
H125 H 0.09101 0.61192 0.99188 0.0
H126 H 0.07638 0.6982 0.97398 0.0
H127 H -0.02687 0.57141 0.97804 0.0
C128 C 0.419 0.11569 0.3492 0.0
C129 C 0.42878 0.20167 0.35957 0.0
C130 C 0.49891 0.09589 0.34918 0.0
C131 C 0.59192 0.16577 0.35917 0.0
C132 C 0.60243 0.25334 0.36961 0.0
C133 C 0.51945 0.26928 0.37009 0.0
C134 C 0.4836 0.00019 0.33851 0.0
C135 C 0.70158 0.33064 0.37993 0.0
C136 C 0.78298 0.08468 0.37383 0.0
C137 C 0.84703 0.12014 0.35571 0.0
C138 C 0.6981 0.09703 0.375 0.0
C139 C 0.67906 0.14866 0.35794 0.0
C140 C 0.74275 0.1833 0.33949 0.0
C141 C 0.82522 0.16739 0.33847 0.0
C142 C 0.6297 0.05621 0.39458 0.0
C143 C 0.72546 0.23966 0.32109 0.0
H144 H 0.34754 0.0625 0.34148 0.0
H145 H 0.5259 0.33515 0.37823 0.0
H146 H 0.53493 0.01917 0.32437 0.0
H147 H 0.50266 0.95656 0.35029 0.0
H148 H 0.40461 0.95118 0.33262 0.0
H149 H 0.72392 0.29491 0.39304 0.0
H150 H 0.76206 0.36002 0.36747 0.0
H151 H 0.69767 0.39527 0.38708 0.0
H152 H 0.80006 0.04849 0.38721 0.0
H153 H 0.87559 0.19667 0.32464 0.0
H154 H 0.55057 0.00505 0.38908 0.0
H155 H 0.63067 0.11923 0.40371 0.0
H156 H 0.65264 0.0141 0.40596 0.0
H157 H 0.65073 0.19056 0.31321 0.0
H158 H 0.78458 0.26526 0.30834 0.0
H159 H 0.72456 0.30669 0.3277 0.0
C160 C 0.77178 0.60572 0.67595 0.0
C161 C 0.80111 0.67099 0.69402 0.0
C162 C 0.67433 0.52112 0.67456 0.0
C163 C 0.60422 0.5035 0.69134 0.0
C164 C 0.63396 0.5685 0.70974 0.0
C165 C 0.73261 0.65078 0.711 0.0
C166 C 0.64602 0.45133 0.65505 0.0
C167 C 0.56085 0.55259 0.72784 0.0
C168 C 0.32353 0.34043 0.67843 0.0
C169 C 0.30197 0.251 0.68914 0.0
C170 C 0.42207 0.42424 0.67911 0.0
C171 C 0.50022 0.41575 0.68997 0.0
C172 C 0.47863 0.32391 0.70012 0.0
C173 C 0.37933 0.24322 0.69988 0.0
C174 C 0.44236 0.52213 0.66859 0.0
C175 C 0.56023 0.3107 0.71123 0.0
H176 H 0.82466 0.62161 0.66278 0.0
H177 H 0.7545 0.70212 0.72482 0.0
H178 H 0.6191 0.37283 0.66066 0.0
H179 H 0.58295 0.45086 0.64575 0.0
H180 H 0.71046 0.4739 0.6438 0.0
H181 H 0.59483 0.61259 0.74057 0.0
H182 H 0.49266 0.55123 0.72091 0.0
H183 H 0.53541 0.47849 0.73582 0.0
H184 H 0.26322 0.34539 0.67003 0.0
H185 H 0.36227 0.17273 0.70777 0.0
H186 H 0.47288 0.58339 0.68103 0.0
H187 H 0.37317 0.51661 0.66107 0.0
H188 H 0.50045 0.54438 0.65575 0.0
H189 H 0.62256 0.32918 0.69965 0.0
H190 H 0.53127 0.23249 0.71732 0.0
H191 H 0.59288 0.36348 0.72529 0.0
C192 C 0.77841 0.07338 0.68238 0.0
C193 C 0.79838 0.00347 0.69277 0.0
C194 C 0.67965 0.05793 0.68178 0.0
C195 C 0.59958 0.96838 0.6909 0.0
C196 C 0.61986 0.89672 0.70095 0.0
C197 C 0.71947 0.91611 0.70208 0.0
C198 C 0.66099 0.13741 0.67158 0.0
C199 C 0.53634 0.79899 0.71023 0.0
C200 C 0.3619 0.96442 0.70903 0.0
C201 C 0.29727 0.92029 0.69089 0.0
C202 C 0.46083 -0.01835 0.70907 0.0
C203 C 0.49506 0.95116 0.6908 0.0
C204 C 0.4292 0.90337 0.67272 0.0
C205 C 0.33127 0.88999 0.67282 0.0
C206 C 0.52943 0.03457 0.72847 0.0
C207 C 0.46247 0.86713 0.65326 0.0
H208 H 0.83994 0.14013 0.67497 0.0
H209 H 0.73542 0.86105 0.7096 0.0
H210 H 0.62475 0.16307 0.68364 0.0
H211 H 0.73187 0.20412 0.66588 0.0
H212 H 0.60814 0.10494 0.65743 0.0
H213 H 0.56491 0.74993 0.71678 0.0
H214 H 0.49792 0.81501 0.72362 0.0
H215 H 0.47863 0.75668 0.69734 0.0
H216 H 0.33668 -0.01018 0.7229 0.0
H217 H 0.28157 0.85645 0.65874 0.0
H218 H 0.59936 0.10259 0.7229 0.0
H219 H 0.55253 -0.0161 0.7365 0.0
H220 H 0.49258 0.05811 0.74086 0.0
H221 H 0.52732 0.9321 0.64523 0.0
H222 H 0.40083 0.8279 0.64092 0.0
H223 H 0.48859 0.81459 0.65876 0.0
C224 C 0.56028 0.77468 1.01212 0.0
C225 C 0.65044 0.79709 0.02285 0.0
C226 C 0.47728 0.67575 1.01242 0.0
C227 C 0.48732 0.59804 0.02288 0.0
C228 C 0.57983 0.62056 0.0331 0.0
C229 C 0.65972 0.72028 0.03327 0.0
C230 C 0.3786 0.65456 1.00188 0.0
C231 C 0.59464 0.53947 0.0438 0.0
C232 C 0.25326 0.36555 0.04323 0.0
C233 C 0.23206 0.29724 0.02601 0.0
C234 C 0.33576 0.46394 0.04231 0.0
C235 C 0.40006 0.49381 0.02397 0.0
C236 C 0.38152 0.42397 1.00691 0.0
C237 C 0.29658 0.32667 1.00798 0.0
C238 C 0.35249 0.5367 0.06071 0.0
C239 C 0.45058 0.45248 0.98744 0.0
H240 H 0.55428 0.83458 1.00393 0.0
H241 H 0.73085 0.73807 0.04113 0.0
H242 H 0.3176 0.6229 1.01423 0.0
H243 H 0.38293 0.72352 0.99471 0.0
H244 H 0.35672 0.59714 0.98876 0.0
H245 H 0.67323 0.56917 0.04995 0.0
H246 H 0.5423 0.50582 0.05775 0.0
H247 H 0.5766 0.4778 0.03193 0.0
H248 H 0.20244 0.3439 0.05697 0.0
H249 H 0.27991 0.27397 0.99461 0.0
H250 H 0.3536 0.60496 0.05406 0.0
H251 H 0.42697 0.56196 0.0687 0.0
H252 H 0.29298 0.50257 0.07337 0.0
H253 H 0.45011 0.51513 0.9783 0.0
H254 H 0.42789 0.38804 0.97604 0.0
H255 H 0.52949 0.47999 0.99307 0.0
C256 C 0.24791 0.54507 0.36691 0.0
C257 C 0.17812 0.45618 0.3562 0.0
C258 C 0.23204 0.62794 0.36773 0.0
C259 C 0.1421 0.6189 0.35853 0.0
C260 C 0.07028 0.52772 0.34826 0.0
C261 C 0.09018 0.44806 0.34688 0.0
C262 C 0.31173 0.72534 0.37816 0.0
C263 C -0.02793 0.51388 0.33892 0.0
C264 C 0.06641 0.80953 0.37633 0.0
C265 C 0.09709 0.87481 0.35829 0.0
C266 C 0.07855 0.72429 0.3765 0.0
C267 C 0.12539 0.70644 0.35852 0.0
C268 C 0.15604 0.77201 0.34026 0.0
C269 C 0.14011 0.85444 0.34023 0.0
C270 C 0.04204 0.65383 0.39593 0.0
C271 C 0.20788 0.75653 0.32096 0.0
H272 H 0.31505 0.54999 0.37435 0.0
H273 H 0.03513 0.37773 0.33913 0.0
H274 H 0.33771 0.788 0.36614 0.0
H275 H 0.27928 0.74495 0.39218 0.0
H276 H 0.3783 0.72064 0.38409 0.0
H277 H 0.922 0.43609 0.33263 0.0
H278 H 0.931 0.53016 0.35167 0.0
H279 H -0.01239 0.56791 0.32531 0.0
H280 H 0.03353 0.82543 0.39032 0.0
H281 H 0.16561 0.9056 0.32637 0.0
H282 H 0.10682 0.65288 0.40409 0.0
H283 H -0.01126 0.57558 0.39036 0.0
H284 H 0.00351 0.67615 0.40816 0.0
H285 H 0.27574 0.75375 0.32664 0.0
H286 H 0.23157 0.81748 0.30855 0.0
H287 H 0.15636 0.68323 0.31291 0.0
C288 C 0.00942 0.11718 0.24118 0.0
C289 C 0.11134 0.17245 0.24756 0.0
C290 C -0.01895 0.10649 0.21891 0.0
C291 C 0.05656 0.15252 0.20272 0.0
C292 C 0.1591 0.21293 0.20923 0.0
C293 C 0.18524 0.22128 0.23156 0.0
C294 C 0.87101 0.0406 0.21269 0.0
C295 C 0.24184 0.26423 0.19256 0.0
C296 C 0.00604 0.02023 0.14768 0.0
C297 C -0.02113 0.07812 0.13445 0.0
C298 C 0.03164 0.04397 0.16985 0.0
C299 C 0.03001 0.12795 0.17909 0.0
C300 C 0.00294 0.18715 0.16577 0.0
C301 C -0.02343 0.16079 0.14361 0.0
C302 C 0.05937 -0.02166 0.18344 0.0
C303 C 0.00057 0.2773 0.175 0.0
H304 H 0.95256 0.0776 0.25352 0.0
H305 H 0.26404 0.26376 0.23657 0.0
H306 H 0.84766 0.07954 0.20057 0.0
H307 H 0.8597 -0.02974 0.20487 0.0
H308 H 0.82084 0.01968 0.22713 0.0
H309 H 0.31572 0.3179 0.20031 0.0
H310 H 0.25058 0.20646 0.18346 0.0
H311 H 0.22181 0.30582 0.18042 0.0
H312 H 0.00648 0.95561 0.14059 0.0
H313 H 0.95184 0.20319 0.13357 0.0
H314 H 0.00704 0.94578 0.19745 0.0
H315 H 0.13684 0.02455 0.19035 0.0
H316 H 0.05634 0.91547 0.17378 0.0
H317 H 0.94334 0.2525 0.18811 0.0
H318 H -0.01777 0.31807 0.16228 0.0
H319 H 0.07489 0.33071 0.18256 0.0
C320 C 0.09399 0.03006 0.474 0.0
C321 C 0.14665 0.13227 0.46812 0.0
C322 C 0.08554 0.00077 0.49611 0.0
C323 C 0.13095 0.07568 0.51266 0.0
C324 C 0.18843 0.1787 0.50664 0.0
C325 C 0.19479 0.20569 0.48446 0.0
C326 C 0.02283 0.89021 0.50182 0.0
C327 C 0.23876 0.26088 0.5237 0.0
C328 C 0.00334 0.01973 0.56801 0.0
C329 C 0.06507 -0.00426 0.58081 0.0
C330 C 0.02413 0.04578 0.54586 0.0
C331 C 0.10891 0.04769 0.53621 0.0
C332 C 0.17177 0.02348 0.54908 0.0
C333 C 0.14847 -0.00318 0.57124 0.0
C334 C 0.95475 0.07053 0.53276 0.0
C335 C 0.26275 0.02472 0.53938 0.0
H336 H 0.05483 -0.02653 0.46142 0.0
H337 H 0.23527 0.28471 0.47984 0.0
H338 H 0.06421 0.86819 0.51362 0.0
H339 H 0.95217 0.87618 0.50985 0.0
H340 H 0.00229 0.84096 0.48711 0.0
H341 H 0.28974 0.33578 0.51626 0.0
H342 H 0.18018 0.2664 0.53317 0.0
H343 H 0.28317 0.2425 0.53546 0.0
H344 H 0.93821 0.01759 0.57543 0.0
H345 H 0.19399 -0.02531 0.58096 0.0
H346 H 0.92241 0.01846 0.51856 0.0
H347 H -0.00187 0.1484 0.52616 0.0
H348 H 0.89159 0.06466 0.5427 0.0
H349 H 0.2384 0.96875 0.52587 0.0
H350 H 0.30567 0.00704 0.55173 0.0
H351 H 0.31412 0.10004 0.53222 0.0
C352 C 0.08605 0.06433 0.81505 0.0
C353 C 0.03041 -0.02036 0.80159 0.0
C354 C 0.06162 0.06382 0.83712 0.0
C355 C -0.02108 -0.0237 0.84609 0.0
C356 C 0.92203 0.89027 0.83263 0.0
C357 C 0.94904 0.89263 0.81055 0.0
C358 C 0.12476 0.15718 0.85085 0.0
C359 C 0.8333 0.7957 0.8416 0.0
C360 C -0.01082 0.96782 0.90827 0.0
C361 C 0.93186 0.01241 0.914 0.0
C362 C 0.00031 0.94969 0.88619 0.0
C363 C 0.9527 -0.0233 0.86953 0.0
C364 C 0.89003 0.01637 0.8754 0.0
C365 C 0.88123 0.03463 0.89755 0.0
C366 C 0.06863 0.90825 0.88066 0.0
C367 C 0.83708 0.04524 0.85822 0.0
H368 H 0.14916 0.13155 0.8082 0.0
H369 H 0.90801 0.82572 0.80051 0.0
H370 H 0.07659 0.18644 0.85721 0.0
H371 H 0.15727 0.13811 0.86522 0.0
H372 H 0.18763 0.21832 0.84146 0.0
H373 H 0.79485 0.73641 0.82886 0.0
H374 H 0.85913 0.76478 0.85508 0.0
H375 H 0.7775 0.81373 0.84862 0.0
H376 H 0.03006 0.95268 0.92095 0.0
H377 H 0.83712 0.06931 0.90207 0.0
H378 H 0.13899 0.96885 0.8732 0.0
H379 H 0.03173 0.84639 0.86845 0.0
H380 H 0.08952 0.8793 0.89538 0.0
H381 H 0.89375 0.11284 0.84919 0.0
H382 H 0.78133 0.06279 0.8655 0.0
H383 H 0.79748 -0.01662 0.84609 0.0
loop_
_geom_bond_atom_site_label_1
_geom_bond_atom_site_label_2
_geom_bond_distance
_geom_bond_site_symmetry_2
_ccdc_geom_bond_type
Zn0 O1 2.055 1_545 S
Zn0 O8 2.046 . S
Zn0 N16 2.036 . S
Zn0 O28 2.053 1_455 S
Zn0 O30 2.066 1_445 S
O1 Zn0 2.055 1_565 S
O1 C4 1.259 1_556 S
C2 O30 1.256 1_554 S
C2 O31 1.244 . S
Zn3 O5 2.046 1_545 S
Zn3 O7 2.055 . S
Zn3 N9 2.035 1_455 S
Zn3 O27 2.066 1_455 S
Zn3 O31 2.053 1_445 S
C4 O1 1.259 1_554 S
C4 O5 1.254 . S
O5 Zn3 2.046 1_565 S
O5 C4 1.254 . S
C6 O27 1.256 . S
C6 O28 1.244 1_554 S
O7 Zn3 2.055 . S
O7 C29 1.259 . S
O8 Zn0 2.046 . S
O8 C29 1.254 1_556 S
N9 Zn3 2.035 1_655 S
N9 C10 1.297 1_655 S
N9 N12 1.403 1_545 S
C10 N9 1.297 1_455 S
C10 N13 1.367 1_455 S
C10 C23 1.481 . S
C11 N12 1.299 1_545 S
C11 N13 1.379 . S
N12 N9 1.403 1_565 S
N12 C11 1.299 1_565 S
N13 C10 1.367 1_655 S
N13 C11 1.379 . S
C14 N16 1.298 1_655 S
C14 N18 1.367 . S
C14 C22 1.481 1_545 S
C15 N17 1.299 1_655 S
C15 N18 1.379 . S
N16 Zn0 2.036 . S
N16 C14 1.298 1_455 S
N16 N17 1.398 . S
N17 C15 1.299 1_455 S
N17 N16 1.398 . S
N18 C14 1.367 . S
N18 C15 1.379 . S
H19 C22 0.980 1_455 S
H20 C22 0.981 . S
H21 C22 0.981 . S
C22 C14 1.481 1_565 S
C22 H19 0.980 1_655 S
C22 H20 0.981 . S
C22 H21 0.981 . S
C23 C10 1.481 . S
C23 H24 0.980 . S
C23 H25 0.981 . S
C23 H26 0.981 . S
H24 C23 0.980 . S
H25 C23 0.981 . S
H26 C23 0.981 . S
O27 Zn3 2.066 1_655 S
O27 C6 1.256 . S
O28 Zn0 2.053 1_655 S
O28 C6 1.244 1_556 S
C29 O7 1.259 . S
C29 O8 1.254 1_554 S
O30 Zn0 2.066 1_665 S
O30 C2 1.256 1_556 S
O31 C2 1.244 . S
O31 Zn3 2.053 1_665 S
Zn32 O33 2.055 . S
Zn32 O40 2.046 1_545 S
Zn32 N48 2.036 . S
Zn32 O60 2.053 . S
Zn32 O62 2.066 . S
O33 Zn32 2.055 . S
O33 C36 1.259 1_455 S
C34 O62 1.256 . S
C34 O63 1.244 . S
Zn35 O37 2.046 1_455 S
Zn35 O39 2.055 . S
Zn35 N41 2.036 . S
Zn35 O59 2.066 . S
Zn35 O63 2.053 . S
C36 O33 1.259 1_655 S
C36 O37 1.254 . S
O37 Zn35 2.046 1_655 S
O37 C36 1.254 . S
C38 O59 1.256 . S
C38 O60 1.244 . S
O39 Zn35 2.055 . S
O39 C61 1.259 1_545 S
O40 Zn32 2.046 1_565 S
O40 C61 1.254 . S
N41 Zn35 2.036 . S
N41 C42 1.298 . S
N41 N44 1.398 . S
C42 N41 1.298 . S
C42 N45 1.367 . S
C42 C55 1.481 . S
C43 N44 1.299 . S
C43 N45 1.379 . S
N44 N41 1.398 . S
N44 C43 1.299 . S
N45 C42 1.367 . S
N45 C43 1.379 . S
C46 N48 1.298 . S
C46 N50 1.367 . S
C46 C54 1.481 . S
C47 N49 1.299 . S
C47 N50 1.379 . S
N48 Zn32 2.036 . S
N48 C46 1.298 . S
N48 N49 1.398 . S
N49 C47 1.299 . S
N49 N48 1.398 . S
N50 C46 1.367 . S
N50 C47 1.379 . S
H51 C54 0.980 1_655 S
H52 C54 0.981 1_655 S
H53 C54 0.981 . S
C54 C46 1.481 . S
C54 H51 0.980 1_455 S
C54 H52 0.981 1_455 S
C54 H53 0.981 . S
C55 C42 1.481 . S
C55 H56 0.980 1_545 S
C55 H57 0.981 1_545 S
C55 H58 0.981 . S
H56 C55 0.980 1_565 S
H57 C55 0.981 1_565 S
H58 C55 0.981 . S
O59 Zn35 2.066 . S
O59 C38 1.256 . S
O60 Zn32 2.053 . S
O60 C38 1.244 . S
C61 O39 1.259 1_565 S
C61 O40 1.254 . S
O62 Zn32 2.066 . S
O62 C34 1.256 . S
O63 C34 1.244 . S
O63 Zn35 2.053 . S
Zn64 O65 2.055 1_455 S
Zn64 O72 2.046 . S
Zn64 N80 2.036 . S
Zn64 O92 2.053 1_545 S
Zn64 O94 2.066 1_445 S
O65 Zn64 2.055 1_655 S
O65 C68 1.259 . S
C66 O94 1.256 . S
C66 O95 1.244 . S
Zn67 O69 2.046 1_455 S
Zn67 O71 2.055 . S
Zn67 N73 2.035 1_545 S
Zn67 O91 2.066 1_545 S
Zn67 O95 2.053 1_445 S
C68 O65 1.259 . S
C68 O69 1.254 . S
O69 Zn67 2.046 1_655 S
O69 C68 1.254 . S
C70 O91 1.256 . S
C70 O92 1.244 . S
O71 Zn67 2.055 . S
O71 C93 1.259 . S
O72 Zn64 2.046 . S
O72 C93 1.254 . S
N73 Zn67 2.035 1_565 S
N73 C74 1.297 1_565 S
N73 N76 1.403 1_455 S
C74 N73 1.297 1_545 S
C74 N77 1.367 1_545 S
C74 C87 1.481 . S
C75 N76 1.299 1_455 S
C75 N77 1.379 . S
N76 N73 1.403 1_655 S
N76 C75 1.299 1_655 S
N77 C74 1.367 1_565 S
N77 C75 1.379 . S
C78 N80 1.298 1_565 S
C78 N82 1.367 . S
C78 C86 1.481 1_455 S
C79 N81 1.299 1_565 S
C79 N82 1.379 . S
N80 Zn64 2.036 . S
N80 C78 1.298 1_545 S
N80 N81 1.398 . S
N81 C79 1.299 1_545 S
N81 N80 1.398 . S
N82 C78 1.367 . S
N82 C79 1.379 . S
H83 C86 0.980 1_545 S
H84 C86 0.981 . S
H85 C86 0.981 . S
C86 C78 1.481 1_655 S
C86 H83 0.980 1_565 S
C86 H84 0.981 . S
C86 H85 0.981 . S
C87 C74 1.481 . S
C87 H88 0.980 . S
C87 H89 0.981 . S
C87 H90 0.981 . S
H88 C87 0.980 . S
H89 C87 0.981 . S
H90 C87 0.981 . S
O91 Zn67 2.066 1_565 S
O91 C70 1.256 . S
O92 Zn64 2.053 1_565 S
O92 C70 1.244 . S
C93 O71 1.259 . S
C93 O72 1.254 . S
O94 Zn64 2.066 1_665 S
O94 C66 1.256 . S
O95 C66 1.244 . S
O95 Zn67 2.053 1_665 S
C96 C97 1.391 1_455 S
C96 C98 1.394 . S
C96 H112 0.931 . S
C97 C96 1.391 1_655 S
C97 C101 1.376 . S
C98 C96 1.394 . S
C98 C99 1.369 . S
C98 C102 1.531 . S
C99 C98 1.369 . S
C99 C100 1.410 1_455 S
C99 C107 1.503 . S
C100 C99 1.410 1_655 S
C100 C101 1.392 . S
C100 C103 1.511 1_554 S
C101 C97 1.376 . S
C101 C100 1.392 . S
C101 H113 0.929 . S
C102 C98 1.531 . S
C102 H114 0.960 . S
C102 H115 0.962 . S
C102 H116 0.960 . S
C103 C100 1.511 1_556 S
C103 H117 0.961 1_556 S
C103 H118 0.961 1_556 S
C103 H119 0.961 . S
C104 C105 1.370 . S
C104 C106 1.363 . S
C104 H120 0.931 . S
C105 C104 1.370 . S
C105 C109 1.408 1_554 S
C106 C104 1.363 . S
C106 C107 1.370 . S
C106 C110 1.524 1_455 S
C107 C99 1.503 . S
C107 C106 1.370 . S
C107 C108 1.403 1_554 S
C108 C107 1.403 1_556 S
C108 C109 1.404 . S
C108 C111 1.539 . S
C109 C105 1.408 1_556 S
C109 C108 1.404 . S
C109 H121 0.930 . S
C110 C106 1.524 1_655 S
C110 H122 0.956 1_655 S
C110 H123 0.961 . S
C110 H124 0.961 . S
C111 C108 1.539 . S
C111 H125 0.958 . S
C111 H126 0.961 . S
C111 H127 0.960 . S
H112 C96 0.931 . S
H113 C101 0.929 . S
H114 C102 0.960 . S
H115 C102 0.962 . S
H116 C102 0.960 . S
H117 C103 0.961 1_554 S
H118 C103 0.961 1_554 S
H119 C103 0.961 . S
H120 C104 0.931 . S
H121 C109 0.930 . S
H122 C110 0.956 1_455 S
H123 C110 0.961 . S
H124 C110 0.961 . S
H125 C111 0.958 . S
H126 C111 0.961 . S
H127 C111 0.960 . S
C128 C129 1.391 . S
C128 C130 1.394 . S
C128 H144 0.931 . S
C129 C128 1.391 . S
C129 C133 1.376 . S
C130 C128 1.394 . S
C130 C131 1.369 . S
C130 C134 1.531 . S
C131 C130 1.369 . S
C131 C132 1.410 . S
C131 C139 1.503 . S
C132 C131 1.410 . S
C132 C133 1.392 . S
C132 C135 1.511 . S
C133 C129 1.376 . S
C133 C132 1.392 . S
C133 H145 0.929 . S
C134 C130 1.531 . S
C134 H146 0.960 . S
C134 H147 0.962 1_545 S
C134 H148 0.960 . S
C135 C132 1.511 . S
C135 H149 0.961 . S
C135 H150 0.961 . S
C135 H151 0.961 . S
C136 C137 1.370 . S
C136 C138 1.363 . S
C136 H152 0.931 . S
C137 C136 1.370 . S
C137 C141 1.408 . S
C138 C136 1.363 . S
C138 C139 1.370 . S
C138 C142 1.524 . S
C139 C131 1.503 . S
C139 C138 1.370 . S
C139 C140 1.403 . S
C140 C139 1.403 . S
C140 C141 1.404 . S
C140 C143 1.539 . S
C141 C137 1.408 . S
C141 C140 1.404 . S
C141 H153 0.930 . S
C142 C138 1.524 . S
C142 H154 0.956 1_545 S
C142 H155 0.961 . S
C142 H156 0.961 1_545 S
C143 C140 1.539 . S
C143 H157 0.958 . S
C143 H158 0.961 . S
C143 H159 0.960 . S
H144 C128 0.931 . S
H145 C133 0.929 . S
H146 C134 0.960 . S
H147 C134 0.962 1_565 S
H148 C134 0.960 . S
H149 C135 0.961 . S
H150 C135 0.961 . S
H151 C135 0.961 . S
H152 C136 0.931 . S
H153 C141 0.930 . S
H154 C142 0.956 1_565 S
H155 C142 0.961 . S
H156 C142 0.961 1_565 S
H157 C143 0.958 . S
H158 C143 0.961 . S
H159 C143 0.960 . S
C160 C161 1.391 . S
C160 C162 1.394 . S
C160 H176 0.931 . S
C161 C160 1.391 . S
C161 C165 1.376 . S
C162 C160 1.394 . S
C162 C163 1.369 . S
C162 C166 1.531 . S
C163 C162 1.369 . S
C163 C164 1.410 . S
C163 C171 1.503 . S
C164 C163 1.410 . S
C164 C165 1.392 . S
C164 C167 1.511 . S
C165 C161 1.376 . S
C165 C164 1.392 . S
C165 H177 0.929 . S
C166 C162 1.531 . S
C166 H178 0.960 . S
C166 H179 0.962 . S
C166 H180 0.960 . S
C167 C164 1.511 . S
C167 H181 0.961 . S
C167 H182 0.961 . S
C167 H183 0.961 . S
C168 C169 1.370 . S
C168 C170 1.363 . S
C168 H184 0.931 . S
C169 C168 1.370 . S
C169 C173 1.408 . S
C170 C168 1.363 . S
C170 C171 1.370 . S
C170 C174 1.524 . S
C171 C163 1.503 . S
C171 C170 1.370 . S
C171 C172 1.403 . S
C172 C171 1.403 . S
C172 C173 1.404 . S
C172 C175 1.539 . S
C173 C169 1.408 . S
C173 C172 1.404 . S
C173 H185 0.930 . S
C174 C170 1.524 . S
C174 H186 0.956 . S
C174 H187 0.961 . S
C174 H188 0.961 . S
C175 C172 1.539 . S
C175 H189 0.958 . S
C175 H190 0.961 . S
C175 H191 0.960 . S
H176 C160 0.931 . S
H177 C165 0.929 . S
H178 C166 0.960 . S
H179 C166 0.962 . S
H180 C166 0.960 . S
H181 C167 0.961 . S
H182 C167 0.961 . S
H183 C167 0.961 . S
H184 C168 0.931 . S
H185 C173 0.930 . S
H186 C174 0.956 . S
H187 C174 0.961 . S
H188 C174 0.961 . S
H189 C175 0.958 . S
H190 C175 0.961 . S
H191 C175 0.960 . S
C192 C193 1.391 . S
C192 C194 1.394 . S
C192 H208 0.931 . S
C193 C192 1.391 . S
C193 C197 1.376 1_545 S
C194 C192 1.394 . S
C194 C195 1.369 . S
C194 C198 1.531 . S
C195 C194 1.369 . S
C195 C196 1.410 1_545 S
C195 C203 1.506 1_545 S
C196 C195 1.410 1_565 S
C196 C197 1.392 . S
C196 C199 1.511 . S
C197 C193 1.376 1_565 S
C197 C196 1.392 . S
C197 H209 0.929 . S
C198 C194 1.531 . S
C198 H210 0.960 . S
C198 H211 0.962 . S
C198 H212 0.960 . S
C199 C196 1.511 . S
C199 H213 0.961 . S
C199 H214 0.961 . S
C199 H215 0.961 . S
C200 C201 1.370 . S
C200 C202 1.366 1_565 S
C200 H216 0.928 1_565 S
C201 C200 1.370 . S
C201 C205 1.408 . S
C202 C200 1.366 1_545 S
C202 C203 1.368 1_545 S
C202 C206 1.524 . S
C203 C195 1.506 1_565 S
C203 C202 1.368 1_565 S
C203 C204 1.402 . S
C204 C203 1.402 . S
C204 C205 1.404 . S
C204 C207 1.539 . S
C205 C201 1.408 . S
C205 C204 1.404 . S
C205 H217 0.930 . S
C206 C202 1.524 . S
C206 H218 0.956 . S
C206 H219 0.961 1_545 S
C206 H220 0.961 . S
C207 C204 1.539 . S
C207 H221 0.958 1_565 S
C207 H222 0.961 . S
C207 H223 0.960 . S
H208 C192 0.931 . S
H209 C197 0.929 . S
H210 C198 0.960 . S
H211 C198 0.962 . S
H212 C198 0.960 . S
H213 C199 0.961 . S
H214 C199 0.961 . S
H215 C199 0.961 . S
H216 C200 0.928 1_545 S
H217 C205 0.930 . S
H218 C206 0.956 . S
H219 C206 0.961 1_565 S
H220 C206 0.961 . S
H221 C207 0.958 1_545 S
H222 C207 0.961 . S
H223 C207 0.960 . S
C224 C225 1.395 . S
C224 C226 1.393 1_554 S
C224 H240 0.928 1_554 S
C225 C224 1.395 . S
C225 C229 1.376 . S
C226 C224 1.393 1_556 S
C226 C227 1.369 1_556 S
C226 C230 1.531 . S
C227 C226 1.369 1_554 S
C227 C228 1.410 . S
C227 C235 1.503 . S
C228 C227 1.410 . S
C228 C229 1.392 . S
C228 C231 1.511 . S
C229 C225 1.376 . S
C229 C228 1.392 . S
C229 H241 0.929 . S
C230 C226 1.531 . S
C230 H242 0.960 . S
C230 H243 0.962 1_556 S
C230 H244 0.960 . S
C231 C228 1.511 . S
C231 H245 0.961 . S
C231 H246 0.961 . S
C231 H247 0.961 1_554 S
C232 C233 1.370 . S
C232 C234 1.363 . S
C232 H248 0.931 . S
C233 C232 1.370 . S
C233 C237 1.408 1_554 S
C234 C232 1.363 . S
C234 C235 1.370 . S
C234 C238 1.524 . S
C235 C227 1.503 . S
C235 C234 1.370 . S
C235 C236 1.403 1_554 S
C236 C235 1.403 1_556 S
C236 C237 1.404 . S
C236 C239 1.539 . S
C237 C233 1.408 1_556 S
C237 C236 1.404 . S
C237 H249 0.930 . S
C238 C234 1.524 . S
C238 H250 0.956 . S
C238 H251 0.961 . S
C238 H252 0.961 . S
C239 C236 1.539 . S
C239 H253 0.958 . S
C239 H254 0.961 . S
C239 H255 0.960 . S
H240 C224 0.928 1_556 S
H241 C229 0.929 . S
H242 C230 0.960 . S
H243 C230 0.962 1_554 S
H244 C230 0.960 . S
H245 C231 0.961 . S
H246 C231 0.961 . S
H247 C231 0.961 1_556 S
H248 C232 0.931 . S
H249 C237 0.930 . S
H250 C238 0.956 . S
H251 C238 0.961 . S
H252 C238 0.961 . S
H253 C239 0.958 . S
H254 C239 0.961 . S
H255 C239 0.960 . S
C256 C257 1.391 . S
C256 C258 1.394 . S
C256 H272 0.931 . S
C257 C256 1.391 . S
C257 C261 1.376 . S
C258 C256 1.394 . S
C258 C259 1.369 . S
C258 C262 1.531 . S
C259 C258 1.369 . S
C259 C260 1.410 . S
C259 C267 1.503 . S
C260 C259 1.410 . S
C260 C261 1.392 . S
C260 C263 1.511 1_455 S
C261 C257 1.376 . S
C261 C260 1.392 . S
C261 H273 0.929 . S
C262 C258 1.531 . S
C262 H274 0.960 . S
C262 H275 0.962 . S
C262 H276 0.960 . S
C263 C260 1.511 1_655 S
C263 H277 0.961 . S
C263 H278 0.961 . S
C263 H279 0.961 . S
C264 C265 1.370 . S
C264 C266 1.363 . S
C264 H280 0.931 . S
C265 C264 1.370 . S
C265 C269 1.408 . S
C266 C264 1.363 . S
C266 C267 1.370 . S
C266 C270 1.524 . S
C267 C259 1.503 . S
C267 C266 1.370 . S
C267 C268 1.403 . S
C268 C267 1.403 . S
C268 C269 1.404 . S
C268 C271 1.539 . S
C269 C265 1.408 . S
C269 C268 1.404 . S
C269 H281 0.930 . S
C270 C266 1.524 . S
C270 H282 0.956 . S
C270 H283 0.961 . S
C270 H284 0.961 . S
C271 C268 1.539 . S
C271 H285 0.958 . S
C271 H286 0.961 . S
C271 H287 0.960 . S
H272 C256 0.931 . S
H273 C261 0.929 . S
H274 C262 0.960 . S
H275 C262 0.962 . S
H276 C262 0.960 . S
H277 C263 0.961 . S
H278 C263 0.961 . S
H279 C263 0.961 . S
H280 C264 0.931 . S
H281 C269 0.930 . S
H282 C270 0.956 . S
H283 C270 0.961 . S
H284 C270 0.961 . S
H285 C271 0.958 . S
H286 C271 0.961 . S
H287 C271 0.960 . S
C288 C289 1.391 . S
C288 C290 1.394 . S
C288 H304 0.931 . S
C289 C288 1.391 . S
C289 C293 1.376 . S
C290 C288 1.394 . S
C290 C291 1.369 . S
C290 C294 1.531 1_455 S
C291 C290 1.369 . S
C291 C292 1.410 . S
C291 C299 1.503 . S
C292 C291 1.410 . S
C292 C293 1.392 . S
C292 C295 1.511 . S
C293 C289 1.376 . S
C293 C292 1.392 . S
C293 H305 0.929 . S
C294 C290 1.531 1_655 S
C294 H306 0.960 . S
C294 H307 0.962 1_545 S
C294 H308 0.960 . S
C295 C292 1.511 . S
C295 H309 0.961 . S
C295 H310 0.961 . S
C295 H311 0.961 . S
C296 C297 1.370 . S
C296 C298 1.363 . S
C296 H312 0.931 . S
C297 C296 1.370 . S
C297 C301 1.408 1_455 S
C298 C296 1.363 . S
C298 C299 1.370 . S
C298 C302 1.524 . S
C299 C291 1.503 . S
C299 C298 1.370 . S
C299 C300 1.403 1_455 S
C300 C299 1.403 1_655 S
C300 C301 1.404 . S
C300 C303 1.539 . S
C301 C297 1.408 1_655 S
C301 C300 1.404 . S
C301 H313 0.930 . S
C302 C298 1.524 . S
C302 H314 0.956 . S
C302 H315 0.961 . S
C302 H316 0.961 . S
C303 C300 1.539 . S
C303 H317 0.958 . S
C303 H318 0.961 . S
C303 H319 0.960 1_655 S
H304 C288 0.931 . S
H305 C293 0.929 . S
H306 C294 0.960 . S
H307 C294 0.962 1_565 S
H308 C294 0.960 . S
H309 C295 0.961 . S
H310 C295 0.961 . S
H311 C295 0.961 . S
H312 C296 0.931 . S
H313 C301 0.930 . S
H314 C302 0.956 . S
H315 C302 0.961 . S
H316 C302 0.961 . S
H317 C303 0.958 . S
H318 C303 0.961 . S
H319 C303 0.960 1_455 S
C320 C321 1.391 . S
C320 C322 1.394 . S
C320 H336 0.931 1_545 S
C321 C320 1.391 . S
C321 C325 1.376 . S
C322 C320 1.394 . S
C322 C323 1.369 . S
C322 C326 1.531 1_545 S
C323 C322 1.369 . S
C323 C324 1.410 . S
C323 C331 1.503 . S
C324 C323 1.410 . S
C324 C325 1.392 . S
C324 C327 1.511 . S
C325 C321 1.376 . S
C325 C324 1.392 . S
C325 H337 0.929 . S
C326 C322 1.531 1_565 S
C326 H338 0.960 . S
C326 H339 0.962 . S
C326 H340 0.960 . S
C327 C324 1.511 . S
C327 H341 0.961 . S
C327 H342 0.961 . S
C327 H343 0.961 . S
C328 C329 1.370 . S
C328 C330 1.363 . S
C328 H344 0.931 . S
C329 C328 1.370 . S
C329 C333 1.408 . S
C330 C328 1.363 . S
C330 C331 1.370 . S
C330 C334 1.524 . S
C331 C323 1.503 . S
C331 C330 1.370 . S
C331 C332 1.403 . S
C332 C331 1.403 . S
C332 C333 1.404 . S
C332 C335 1.539 . S
C333 C329 1.408 . S
C333 C332 1.404 . S
C333 H345 0.930 1_545 S
C334 C330 1.524 . S
C334 H346 0.956 . S
C334 H347 0.961 . S
C334 H348 0.961 . S
C335 C332 1.539 . S
C335 H349 0.958 1_545 S
C335 H350 0.961 . S
C335 H351 0.960 . S
H336 C320 0.931 1_565 S
H337 C325 0.929 . S
H338 C326 0.960 . S
H339 C326 0.962 . S
H340 C326 0.960 . S
H341 C327 0.961 . S
H342 C327 0.961 . S
H343 C327 0.961 . S
H344 C328 0.931 . S
H345 C333 0.930 1_565 S
H346 C334 0.956 . S
H347 C334 0.961 . S
H348 C334 0.961 . S
H349 C335 0.958 1_565 S
H350 C335 0.961 . S
H351 C335 0.960 . S
C352 C353 1.391 1_545 S
C352 C354 1.394 . S
C352 H368 0.931 . S
C353 C352 1.391 1_565 S
C353 C357 1.376 1_455 S
C354 C352 1.394 . S
C354 C355 1.369 1_455 S
C354 C358 1.531 . S
C355 C354 1.369 1_655 S
C355 C356 1.410 1_545 S
C355 C363 1.503 . S
C356 C355 1.410 1_565 S
C356 C357 1.392 . S
C356 C359 1.511 . S
C357 C353 1.376 1_655 S
C357 C356 1.392 . S
C357 H369 0.929 . S
C358 C354 1.531 . S
C358 H370 0.960 . S
C358 H371 0.962 . S
C358 H372 0.960 . S
C359 C356 1.511 . S
C359 H373 0.961 . S
C359 H374 0.961 . S
C359 H375 0.961 . S
C360 C361 1.370 1_565 S
C360 C362 1.363 . S
C360 H376 0.931 . S
C361 C360 1.370 1_545 S
C361 C365 1.408 . S
C362 C360 1.363 . S
C362 C363 1.370 1_565 S
C362 C366 1.524 . S
C363 C355 1.503 . S
C363 C362 1.370 1_545 S
C363 C364 1.403 . S
C364 C363 1.403 . S
C364 C365 1.404 . S
C364 C367 1.539 1_655 S
C365 C361 1.408 . S
C365 C364 1.404 . S
C365 H377 0.930 . S
C366 C362 1.524 . S
C366 H378 0.956 1_655 S
C366 H379 0.961 . S
C366 H380 0.961 . S
C367 C364 1.539 1_455 S
C367 H381 0.958 . S
C367 H382 0.961 1_455 S
C367 H383 0.960 1_455 S
H368 C352 0.931 . S
H369 C357 0.929 . S
H370 C358 0.960 . S
H371 C358 0.962 . S
H372 C358 0.960 . S
H373 C359 0.961 . S
H374 C359 0.961 . S
H375 C359 0.961 . S
H376 C360 0.931 . S
H377 C365 0.930 . S
H378 C366 0.956 1_455 S
H379 C366 0.961 . S
H380 C366 0.961 . S
H381 C367 0.958 . S
H382 C367 0.961 1_655 S
H383 C367 0.960 1_655 S
C97 C6 1.206 . S
C105 C4 1.223 . S
C129 C38 1.225 . S
C137 C36 1.218 . S
C161 C66 1.233 . S
C169 C93 1.216 . S
C193 C68 1.211 . S
C201 C70 1.219 . S
C225 C2 1.213 . S
C233 C29 1.221 . S
C257 C34 1.215 . S
C265 C61 1.220 . S
C289 N50 1.600 . S
C297 N13 1.591 1_455 S
C321 N45 1.604 . S
C329 N77 1.592 1_545 S
C353 N82 1.557 . S
C361 N18 1.574 . S
