# Generated by pormake.
# Topology una, (4)-cn, num edge types: 1
# Building blocks:
#     Node 0, Type 0, BuildingBlock: ICAMEG_clean_sbu_1, # of connection points: 4
#     Node 1, Type 0, BuildingBlock: ICAMEG_clean_sbu_1, # of connection points: 4
#     Node 2, Type 0, BuildingBlock: ICAMEG_clean_sbu_1, # of connection points: 4
#     Node 3, Type 0, BuildingBlock: ICAMEG_clean_sbu_1, # of connection points: 4
#     Node 4, Type 0, BuildingBlock: ICAMEG_clean_sbu_1, # of connection points: 4
#     Node 5, Type 0, BuildingBlock: ICAMEG_clean_sbu_1, # of connection points: 4
#     Node 6, Type 0, BuildingBlock: ICAMEG_clean_sbu_1, # of connection points: 4
#     Node 7, Type 0, BuildingBlock: ICAMEG_clean_sbu_1, # of connection points: 4
#     Node 8, Type 0, BuildingBlock: ICAMEG_clean_sbu_1, # of connection points: 4
#     Node 9, Type 0, BuildingBlock: ICAMEG_clean_sbu_1, # of connection points: 4
#     Node 10, Type 0, BuildingBlock: ICAMEG_clean_sbu_1, # of connection points: 4
#     Node 11, Type 0, BuildingBlock: ICAMEG_clean_sbu_1, # of connection points: 4
#     Edge 12, Type (0, 0), BuildingBlock: XIVTED_clean_linker_0, # of connection points: 2
#     Edge 13, Type (0, 0), BuildingBlock: XIVTED_clean_linker_0, # of connection points: 2
#     Edge 14, Type (0, 0), BuildingBlock: XIVTED_clean_linker_0, # of connection points: 2
#     Edge 15, Type (0, 0), BuildingBlock: XIVTED_clean_linker_0, # of connection points: 2
#     Edge 16, Type (0, 0), BuildingBlock: XIVTED_clean_linker_0, # of connection points: 2
#     Edge 17, Type (0, 0), BuildingBlock: XIVTED_clean_linker_0, # of connection points: 2
#     Edge 18, Type (0, 0), BuildingBlock: XIVTED_clean_linker_0, # of connection points: 2
#     Edge 19, Type (0, 0), BuildingBlock: XIVTED_clean_linker_0, # of connection points: 2
#     Edge 20, Type (0, 0), BuildingBlock: XIVTED_clean_linker_0, # of connection points: 2
#     Edge 21, Type (0, 0), BuildingBlock: XIVTED_clean_linker_0, # of connection points: 2
#     Edge 22, Type (0, 0), BuildingBlock: XIVTED_clean_linker_0, # of connection points: 2
#     Edge 23, Type (0, 0), BuildingBlock: XIVTED_clean_linker_0, # of connection points: 2
#     Edge 24, Type (0, 0), BuildingBlock: XIVTED_clean_linker_0, # of connection points: 2
#     Edge 25, Type (0, 0), BuildingBlock: XIVTED_clean_linker_0, # of connection points: 2
#     Edge 26, Type (0, 0), BuildingBlock: XIVTED_clean_linker_0, # of connection points: 2
#     Edge 27, Type (0, 0), BuildingBlock: XIVTED_clean_linker_0, # of connection points: 2
#     Edge 28, Type (0, 0), BuildingBlock: XIVTED_clean_linker_0, # of connection points: 2
#     Edge 29, Type (0, 0), BuildingBlock: XIVTED_clean_linker_0, # of connection points: 2
#     Edge 30, Type (0, 0), BuildingBlock: XIVTED_clean_linker_0, # of connection points: 2
#     Edge 31, Type (0, 0), BuildingBlock: XIVTED_clean_linker_0, # of connection points: 2
#     Edge 32, Type (0, 0), BuildingBlock: XIVTED_clean_linker_0, # of connection points: 2
#     Edge 33, Type (0, 0), BuildingBlock: XIVTED_clean_linker_0, # of connection points: 2
#     Edge 34, Type (0, 0), BuildingBlock: XIVTED_clean_linker_0, # of connection points: 2
#     Edge 35, Type (0, 0), BuildingBlock: XIVTED_clean_linker_0, # of connection points: 2
# Relax obj value: 0.053
# Max RMSD: 0.083
# Mean RMSD: 0.083
data_MOF--net-una--node1-ICAMEG_clean_sbu_1--edge1-XIVTED_clean_linker_0
_symmetry_space_group_name_H-M    P1
_symmetry_Int_Tables_number       1
_symmetry_cell_setting            triclinic
loop_
_symmetry_equiv_pos_as_xyz
'x, y, z'
_cell_length_a     63.188677
_cell_length_b     63.226138
_cell_length_c     22.068773
_cell_angle_alpha  89.934337
_cell_angle_beta   90.090438
_cell_angle_gamma 119.98826
loop_
_atom_site_label
_atom_site_type_symbol
_atom_site_fract_x
_atom_site_fract_y
_atom_site_fract_z
_atom_type_partial_charge
Co0 Co 0.16991 0.47296 0.03054 0.0
Co1 Co 0.12785 0.41394 0.06971 0.0
O2 O 0.13628 0.44741 0.0485 0.0
C3 C 0.14709 0.4981 0.09943 0.0
O4 O 0.12709 0.4773 0.10973 0.0
C5 C 0.09207 0.40603 0.97209 0.0
O6 O 0.11049 0.42115 0.93799 0.0
O7 O 0.14356 0.4114 0.99409 0.0
O8 O 0.1768 0.44878 0.98932 0.0
H9 H 0.14448 0.34465 0.09622 0.0
H10 H 0.1275 0.47798 0.99017 0.0
O11 O 0.16485 0.49879 0.07039 0.0
H12 H 0.17399 0.4855 0.80457 0.0
H13 H 0.23586 0.55696 0.9674 0.0
H14 H 0.21808 0.47578 0.03889 0.0
H15 H 0.18815 0.47935 0.90357 0.0
H16 H 0.19344 0.52461 0.98726 0.0
O17 O 0.0959 0.40111 0.02561 0.0
H18 H 0.15487 0.38682 0.07155 0.0
H19 H 0.08206 0.36953 0.10945 0.0
H20 H 0.26075 0.50755 0.01907 0.0
H21 H 0.1129 0.48444 0.89234 0.0
H22 H 0.26986 0.54848 0.98306 0.0
H23 H 0.13615 0.48819 0.79846 0.0
O24 O 0.18104 0.46681 0.10953 0.0
H25 H 0.07149 0.43227 0.19037 0.0
H26 H 0.13098 0.40353 0.20048 0.0
H27 H 0.11179 0.40678 0.29443 0.0
H28 H 0.08174 0.42117 0.28977 0.0
H29 H 0.09141 0.4291 0.09757 0.0
H30 H 0.07083 0.32712 0.13405 0.0
H31 H 0.10219 0.31447 0.12774 0.0
O32 O 0.15942 0.42592 0.11542 0.0
C33 C 0.16441 0.42656 0.97252 0.0
C34 C 0.13067 0.34996 0.09933 0.0
C35 C 0.08933 0.34011 0.12048 0.0
N36 N 0.11915 0.38067 0.08953 0.0
C37 C 0.13646 0.37383 0.08557 0.0
C38 C 0.09579 0.36414 0.10637 0.0
C39 C 0.10694 0.33303 0.11695 0.0
C40 C 0.13802 0.48004 0.94997 0.0
N41 N 0.15895 0.47877 0.95311 0.0
C42 C 0.12953 0.48351 0.89446 0.0
C43 C 0.14255 0.48556 0.8418 0.0
C44 C 0.16378 0.48406 0.84519 0.0
C45 C 0.17171 0.48058 0.90148 0.0
C46 C 0.23212 0.53918 0.98297 0.0
C47 C 0.22188 0.4935 0.02287 0.0
C48 C 0.20814 0.5208 0.99444 0.0
N49 N 0.20327 0.49826 0.0138 0.0
C50 C 0.24609 0.51144 0.01188 0.0
C51 C 0.25119 0.53441 0.99174 0.0
C52 C 0.17684 0.44663 0.13301 0.0
C53 C 0.08459 0.42601 0.19302 0.0
C54 C 0.11819 0.41013 0.19807 0.0
C55 C 0.10725 0.41177 0.25144 0.0
C56 C 0.09036 0.4198 0.24877 0.0
N57 N 0.11252 0.41636 0.14355 0.0
C58 C 0.09588 0.42412 0.14059 0.0
Co59 Co 0.70651 0.16956 0.18137 0.0
Co60 Co 0.71995 0.12591 0.22474 0.0
O61 O 0.69647 0.1355 0.19839 0.0
C62 C 0.66269 0.15337 0.25908 0.0
O63 O 0.67299 0.14621 0.29972 0.0
C64 C 0.69349 0.09061 0.12542 0.0
O65 O 0.69849 0.10926 0.09006 0.0
O66 O 0.74 0.14144 0.15096 0.0
O67 O 0.73932 0.17659 0.15076 0.0
H68 H 0.80403 0.13928 0.26502 0.0
H69 H 0.66008 0.12996 0.13041 0.0
O70 O 0.67384 0.16337 0.21009 0.0
H71 H 0.70905 0.17637 0.95375 0.0
H72 H 0.69289 0.23743 0.1093 0.0
H73 H 0.75168 0.21712 0.20138 0.0
H74 H 0.72502 0.18891 0.05739 0.0
H75 H 0.68129 0.19453 0.12852 0.0
O76 O 0.70085 0.09417 0.1802 0.0
H77 H 0.77393 0.15121 0.23398 0.0
H78 H 0.71584 0.07924 0.26775 0.0
H79 H 0.76409 0.26024 0.18257 0.0
H80 H 0.64327 0.11696 0.02751 0.0
H81 H 0.73459 0.27062 0.13618 0.0
H82 H 0.66786 0.14018 0.93829 0.0
O83 O 0.72028 0.17899 0.26455 0.0
H84 H 0.64131 0.07417 0.3364 0.0
H85 H 0.73049 0.12724 0.35717 0.0
H86 H 0.70539 0.10913 0.4485 0.0
H87 H 0.66046 0.08233 0.43843 0.0
H88 H 0.66709 0.09284 0.24628 0.0
H89 H 0.74532 0.06647 0.29864 0.0
H90 H 0.78976 0.09663 0.29764 0.0
O91 O 0.73934 0.1572 0.27158 0.0
C92 C 0.74799 0.16328 0.1328 0.0
C93 C 0.78471 0.12599 0.26581 0.0
C94 C 0.75176 0.08511 0.2846 0.0
N95 N 0.74316 0.116 0.24949 0.0
C96 C 0.76758 0.13265 0.24843 0.0
C97 C 0.73516 0.09244 0.26692 0.0
C98 C 0.77669 0.10205 0.28406 0.0
C99 C 0.67078 0.14031 0.09184 0.0
N100 N 0.69345 0.16023 0.09996 0.0
C101 C 0.66121 0.1328 0.03367 0.0
C102 C 0.67503 0.14582 0.98362 0.0
C103 C 0.69814 0.16611 0.99226 0.0
C104 C 0.70711 0.17309 0.05108 0.0
C105 C 0.70592 0.23313 0.12944 0.0
C106 C 0.73878 0.22148 0.18089 0.0
C107 C 0.69944 0.20888 0.14055 0.0
N108 N 0.71585 0.20332 0.16565 0.0
C109 C 0.74589 0.24594 0.17048 0.0
C110 C 0.72932 0.25175 0.14451 0.0
C111 C 0.73566 0.1743 0.2898 0.0
C112 C 0.66088 0.08576 0.34136 0.0
C113 C 0.71095 0.11568 0.3524 0.0
C114 C 0.69683 0.10543 0.40429 0.0
C115 C 0.67163 0.09038 0.3986 0.0
N116 N 0.70027 0.11104 0.2964 0.0
C117 C 0.67557 0.09632 0.29048 0.0
Co118 Co 0.60137 0.71954 0.39003 0.0
Co119 Co 0.54072 0.69804 0.35317 0.0
O120 O 0.56809 0.69284 0.37264 0.0
C121 C 0.60897 0.6914 0.29334 0.0
O122 O 0.59243 0.69311 0.26096 0.0
C123 C 0.51923 0.65293 0.43333 0.0
O124 O 0.54066 0.65492 0.44223 0.0
O125 O 0.54763 0.71878 0.42681 0.0
O126 O 0.58847 0.73798 0.43591 0.0
H127 H 0.50149 0.74964 0.32567 0.0
H128 H 0.58947 0.66895 0.42012 0.0
O129 O 0.61503 0.70141 0.34533 0.0
H130 H 0.61265 0.71353 0.61417 0.0
H131 H 0.68988 0.75435 0.44651 0.0
H132 H 0.62592 0.77361 0.38919 0.0
H133 H 0.61307 0.73448 0.51959 0.0
H134 H 0.6478 0.72135 0.42584 0.0
O135 O 0.51712 0.66868 0.40179 0.0
H136 H 0.53533 0.74189 0.34746 0.0
H137 H 0.48805 0.66582 0.32055 0.0
H138 H 0.66772 0.80717 0.40992 0.0
H139 H 0.58919 0.6474 0.51352 0.0
H140 H 0.70004 0.79762 0.43882 0.0
H141 H 0.60072 0.66968 0.61153 0.0
O142 O 0.60193 0.73699 0.31411 0.0
H143 H 0.5314 0.62564 0.23512 0.0
H144 H 0.52826 0.70189 0.22487 0.0
H145 H 0.52035 0.67707 0.13275 0.0
H146 H 0.52181 0.63858 0.13748 0.0
H147 H 0.5394 0.65105 0.32581 0.0
H148 H 0.45367 0.67273 0.29914 0.0
H149 H 0.46031 0.7149 0.30132 0.0
O150 O 0.56266 0.72714 0.3026 0.0
C151 C 0.56762 0.73494 0.45082 0.0
C152 C 0.49839 0.73119 0.32436 0.0
C153 C 0.47154 0.68802 0.30958 0.0
N154 N 0.51374 0.70347 0.33479 0.0
C155 C 0.5175 0.7267 0.33645 0.0
C156 C 0.49107 0.68422 0.32194 0.0
C157 C 0.47528 0.71169 0.31078 0.0
C158 C 0.59468 0.67884 0.46248 0.0
N159 N 0.60112 0.70292 0.46432 0.0
C160 C 0.59441 0.66651 0.51528 0.0
C161 C 0.60085 0.67901 0.57026 0.0
C162 C 0.6075 0.7036 0.57179 0.0
C163 C 0.60755 0.71533 0.51808 0.0
C164 C 0.67595 0.75874 0.43404 0.0
C165 C 0.63986 0.76931 0.40203 0.0
C166 C 0.6521 0.74013 0.42215 0.0
N167 N 0.63439 0.74555 0.4067 0.0
C168 C 0.6635 0.78839 0.41358 0.0
C169 C 0.68163 0.78302 0.42975 0.0
C170 C 0.58519 0.73932 0.2881 0.0
C171 C 0.53051 0.64227 0.23256 0.0
C172 C 0.52884 0.68512 0.22751 0.0
C173 C 0.52436 0.67115 0.1751 0.0
C174 C 0.52519 0.64956 0.17777 0.0
N175 N 0.53388 0.67779 0.2813 0.0
C176 C 0.53487 0.65671 0.28406 0.0
Co177 Co 0.84394 0.53653 0.52206 0.0
Co178 Co 0.8865 0.59503 0.56076 0.0
O179 O 0.87792 0.56177 0.53756 0.0
C180 C 0.86773 0.51079 0.58375 0.0
O181 O 0.88761 0.53159 0.59498 0.0
C182 C 0.92194 0.6036 0.4619 0.0
O183 O 0.90343 0.58885 0.42744 0.0
O184 O 0.87037 0.59792 0.48613 0.0
O185 O 0.83621 0.56127 0.4872 0.0
H186 H 0.87004 0.66415 0.59283 0.0
H187 H 0.88491 0.53124 0.47258 0.0
O188 O 0.8497 0.51024 0.55621 0.0
H189 H 0.83556 0.5273 0.29528 0.0
H190 H 0.77655 0.45345 0.45765 0.0
H191 H 0.79607 0.53366 0.54019 0.0
H192 H 0.82345 0.53229 0.39797 0.0
H193 H 0.81937 0.48549 0.47444 0.0
O194 O 0.91823 0.60813 0.51584 0.0
H195 H 0.85952 0.62214 0.56601 0.0
H196 H 0.9325 0.63919 0.60078 0.0
H197 H 0.75301 0.5022 0.52364 0.0
H198 H 0.89749 0.52591 0.37088 0.0
H199 H 0.74302 0.46175 0.48208 0.0
H200 H 0.87277 0.52396 0.28121 0.0
O201 O 0.83465 0.54184 0.60402 0.0
H202 H 0.94336 0.57582 0.67691 0.0
H203 H 0.88414 0.60474 0.69236 0.0
H204 H 0.90379 0.60087 0.78493 0.0
H205 H 0.9337 0.58638 0.77758 0.0
H206 H 0.92301 0.57961 0.58552 0.0
H207 H 0.94387 0.68144 0.6275 0.0
H208 H 0.91249 0.69413 0.62385 0.0
O209 O 0.85513 0.58275 0.60776 0.0
C210 C 0.84869 0.58321 0.4683 0.0
C211 C 0.88386 0.65882 0.59477 0.0
C212 C 0.9253 0.66854 0.61415 0.0
N213 N 0.89532 0.62817 0.58226 0.0
C214 C 0.87799 0.63505 0.57978 0.0
C215 C 0.91877 0.6446 0.59884 0.0
C216 C 0.90768 0.67564 0.61212 0.0
C217 C 0.8738 0.52999 0.43412 0.0
N218 N 0.85322 0.53165 0.44159 0.0
C219 C 0.88113 0.52715 0.37646 0.0
C220 C 0.86729 0.52612 0.32616 0.0
C221 C 0.84641 0.52799 0.33402 0.0
C222 C 0.83965 0.53082 0.39235 0.0
C223 C 0.78067 0.47102 0.47568 0.0
C224 C 0.79189 0.51616 0.52176 0.0
C225 C 0.80489 0.48922 0.48542 0.0
N226 N 0.81023 0.5115 0.50788 0.0
C227 C 0.76746 0.49839 0.51263 0.0
C228 C 0.76187 0.47569 0.48937 0.0
C229 C 0.83858 0.56193 0.62731 0.0
C230 C 0.93032 0.58211 0.68073 0.0
C231 C 0.89687 0.5981 0.68877 0.0
C232 C 0.90807 0.5961 0.74136 0.0
C233 C 0.92488 0.58801 0.7372 0.0
N234 N 0.90221 0.59215 0.63353 0.0
C235 C 0.91877 0.58435 0.6291 0.0
Co236 Co 0.30846 0.84132 0.68635 0.0
Co237 Co 0.29513 0.88534 0.72718 0.0
O238 O 0.31865 0.87562 0.70153 0.0
C239 C 0.35381 0.85987 0.76001 0.0
O240 O 0.34606 0.87149 0.79453 0.0
C241 C 0.32141 0.92022 0.62665 0.0
O242 O 0.31655 0.90149 0.59184 0.0
O243 O 0.2749 0.86934 0.65389 0.0
O244 O 0.27562 0.83424 0.65568 0.0
H245 H 0.21104 0.87191 0.76706 0.0
H246 H 0.3548 0.88032 0.63397 0.0
O247 O 0.34095 0.84707 0.71556 0.0
H248 H 0.3052 0.8328 0.45909 0.0
H249 H 0.32103 0.77242 0.61795 0.0
H250 H 0.26319 0.79413 0.70893 0.0
H251 H 0.28949 0.82109 0.56315 0.0
H252 H 0.33305 0.81556 0.63469 0.0
O253 O 0.314 0.91682 0.68133 0.0
H254 H 0.24118 0.85994 0.73698 0.0
H255 H 0.29917 0.93222 0.76797 0.0
H256 H 0.25037 0.75078 0.69258 0.0
H257 H 0.37135 0.89251 0.53063 0.0
H258 H 0.27939 0.73969 0.64677 0.0
H259 H 0.34644 0.86872 0.4423 0.0
O260 O 0.2952 0.83273 0.76984 0.0
H261 H 0.37381 0.93931 0.8369 0.0
H262 H 0.28502 0.88447 0.85968 0.0
H263 H 0.31028 0.90366 0.95027 0.0
H264 H 0.35501 0.93137 0.93919 0.0
H265 H 0.34792 0.91945 0.74756 0.0
H266 H 0.26965 0.94503 0.79787 0.0
H267 H 0.22524 0.91474 0.79779 0.0
O268 O 0.2759 0.85431 0.77543 0.0
C269 C 0.26686 0.84737 0.63686 0.0
C270 C 0.23035 0.88526 0.76744 0.0
C271 C 0.26324 0.92631 0.78466 0.0
N272 N 0.2719 0.89531 0.75115 0.0
C273 C 0.2475 0.87857 0.7506 0.0
C274 C 0.27986 0.91896 0.76754 0.0
C275 C 0.23833 0.9093 0.78463 0.0
C276 C 0.34396 0.86973 0.59579 0.0
N277 N 0.32127 0.84996 0.60464 0.0
C278 C 0.35339 0.87678 0.53737 0.0
C279 C 0.33939 0.86344 0.48783 0.0
C280 C 0.31624 0.8433 0.49721 0.0
C281 C 0.30742 0.83679 0.55626 0.0
C282 C 0.30821 0.77703 0.63785 0.0
C283 C 0.27589 0.78947 0.68868 0.0
C284 C 0.31492 0.80142 0.64757 0.0
N285 N 0.29878 0.80737 0.67241 0.0
C286 C 0.26854 0.76488 0.67967 0.0
C287 C 0.28484 0.75867 0.65402 0.0
C288 C 0.27979 0.83743 0.79459 0.0
C289 C 0.35434 0.92732 0.8423 0.0
C290 C 0.30449 0.89635 0.85449 0.0
C291 C 0.31869 0.90725 0.90595 0.0
C292 C 0.34378 0.92282 0.89969 0.0
N293 N 0.31498 0.90083 0.79834 0.0
C294 C 0.33956 0.9161 0.79185 0.0
Co295 Co 0.41739 0.29213 0.89062 0.0
Co296 Co 0.4783 0.31375 0.85464 0.0
O297 O 0.45087 0.31899 0.87418 0.0
C298 C 0.4113 0.32292 0.79765 0.0
O299 O 0.43124 0.32607 0.7712 0.0
C300 C 0.49988 0.35808 0.9375 0.0
O301 O 0.47863 0.35662 0.94538 0.0
O302 O 0.47105 0.29237 0.92712 0.0
O303 O 0.43032 0.27381 0.93731 0.0
H304 H 0.51704 0.26187 0.82444 0.0
H305 H 0.42931 0.34267 0.92034 0.0
O306 O 0.4032 0.30971 0.84497 0.0
H307 H 0.40541 0.298 0.11432 0.0
H308 H 0.32866 0.25659 0.94546 0.0
H309 H 0.39321 0.23811 0.88929 0.0
H310 H 0.4052 0.27706 0.02003 0.0
H311 H 0.37068 0.28985 0.92568 0.0
O312 O 0.50184 0.34246 0.90518 0.0
H313 H 0.48333 0.26974 0.84663 0.0
H314 H 0.53113 0.34595 0.82386 0.0
H315 H 0.35147 0.20427 0.90916 0.0
H316 H 0.42941 0.36423 0.01346 0.0
H317 H 0.31886 0.21343 0.93747 0.0
H318 H 0.4175 0.3419 0.11141 0.0
O319 O 0.4171 0.27494 0.8147 0.0
H320 H 0.49075 0.38843 0.74121 0.0
H321 H 0.49036 0.31047 0.72587 0.0
H322 H 0.49932 0.33633 0.63524 0.0
H323 H 0.49968 0.37571 0.64256 0.0
H324 H 0.48148 0.36188 0.83023 0.0
H325 H 0.56538 0.33892 0.80207 0.0
H326 H 0.55842 0.29662 0.80199 0.0
O327 O 0.45642 0.28522 0.80239 0.0
C328 C 0.4511 0.2765 0.95167 0.0
C329 C 0.52028 0.28038 0.82413 0.0
C330 C 0.54742 0.32363 0.81167 0.0
N331 N 0.50518 0.30824 0.83606 0.0
C332 C 0.50125 0.28493 0.83646 0.0
C333 C 0.52796 0.32749 0.82423 0.0
C334 C 0.5435 0.29989 0.8116 0.0
C335 C 0.42392 0.33277 0.96268 0.0
N336 N 0.41735 0.30865 0.96468 0.0
C337 C 0.4241 0.3451 0.01532 0.0
C338 C 0.41744 0.33257 0.07027 0.0
C339 C 0.4107 0.30795 0.07195 0.0
C340 C 0.41075 0.29622 0.01841 0.0
C341 C 0.34272 0.25236 0.93325 0.0
C342 C 0.37914 0.24223 0.90189 0.0
C343 C 0.36654 0.27112 0.92186 0.0
N344 N 0.38441 0.26592 0.90671 0.0
C345 C 0.35553 0.223 0.91295 0.0
C346 C 0.33724 0.22816 0.92878 0.0
C347 C 0.43388 0.27297 0.78802 0.0
C348 C 0.49085 0.37141 0.73752 0.0
C349 C 0.49044 0.32756 0.72957 0.0
C350 C 0.49557 0.34215 0.67802 0.0
C351 C 0.49579 0.36423 0.68216 0.0
N352 N 0.48572 0.33474 0.78391 0.0
C353 C 0.48581 0.35634 0.78813 0.0
Co354 Co 0.53785 0.8425 0.89881 0.0
Co355 Co 0.59772 0.88356 0.86887 0.0
O356 O 0.56448 0.87621 0.88877 0.0
C357 C 0.51476 0.86968 0.84052 0.0
O358 O 0.53592 0.88978 0.83518 0.0
C359 C 0.60626 0.91782 0.97101 0.0
O360 O 0.59066 0.89919 0.00388 0.0
O361 O 0.59826 0.86525 0.9421 0.0
O362 O 0.56079 0.83254 0.93421 0.0
H363 H 0.66465 0.86356 0.84012 0.0
H364 H 0.53437 0.88386 0.95323 0.0
O365 O 0.51324 0.8505 0.86377 0.0
H366 H 0.52355 0.82886 0.12342 0.0
H367 H 0.4523 0.77651 0.95049 0.0
H368 H 0.53287 0.79407 0.87473 0.0
H369 H 0.5299 0.8187 0.01978 0.0
H370 H 0.48601 0.819 0.94057 0.0
O371 O 0.61126 0.91447 0.91724 0.0
H372 H 0.62274 0.85453 0.86294 0.0
H373 H 0.64385 0.92906 0.83628 0.0
H374 H 0.49973 0.75132 0.88446 0.0
H375 H 0.52777 0.89455 0.05586 0.0
H376 H 0.45909 0.74231 0.92258 0.0
H377 H 0.52233 0.86698 0.14201 0.0
O378 O 0.54415 0.83452 0.81619 0.0
H379 H 0.58363 0.9447 0.75669 0.0
H380 H 0.60988 0.88352 0.73807 0.0
H381 H 0.6088 0.90562 0.64717 0.0
H382 H 0.59566 0.93653 0.65613 0.0
H383 H 0.58469 0.92195 0.84634 0.0
H384 H 0.68603 0.93893 0.81366 0.0
H385 H 0.69663 0.90603 0.81526 0.0
O386 O 0.58504 0.85307 0.81816 0.0
C387 C 0.58239 0.84338 0.95597 0.0
C388 C 0.66024 0.87804 0.83912 0.0
C389 C 0.67225 0.92035 0.82434 0.0
N390 N 0.63081 0.8912 0.85054 0.0
C391 C 0.63653 0.87303 0.85187 0.0
C392 C 0.64834 0.91466 0.83734 0.0
C393 C 0.67818 0.90188 0.82523 0.0
C394 C 0.53159 0.87152 0.98999 0.0
N395 N 0.53202 0.85042 0.97996 0.0
C396 C 0.52804 0.87778 0.04827 0.0
C397 C 0.52506 0.86233 0.0966 0.0
C398 C 0.52574 0.84095 0.0862 0.0
C399 C 0.52934 0.8353 0.02734 0.0
C400 C 0.46994 0.7802 0.93395 0.0
C401 C 0.51529 0.79031 0.89174 0.0
C402 C 0.48909 0.80423 0.92811 0.0
N403 N 0.51147 0.80902 0.90757 0.0
C404 C 0.49657 0.76606 0.89698 0.0
C405 C 0.47377 0.76102 0.91831 0.0
C406 C 0.56436 0.83783 0.79507 0.0
C407 C 0.58935 0.93125 0.75217 0.0
C408 C 0.60385 0.8967 0.74231 0.0
C409 C 0.60342 0.90928 0.69069 0.0
C410 C 0.59608 0.92664 0.69576 0.0
N411 N 0.59712 0.90125 0.79747 0.0
C412 C 0.59002 0.91833 0.80281 0.0
Co413 Co 0.70669 0.5367 0.08227 0.0
Co414 Co 0.71928 0.59386 0.04198 0.0
O415 O 0.69609 0.56059 0.06801 0.0
C416 C 0.66062 0.50965 0.01132 0.0
O417 O 0.66795 0.52897 0.97678 0.0
C418 C 0.69359 0.60275 0.14344 0.0
O419 O 0.69905 0.58943 0.17883 0.0
O420 O 0.7398 0.59819 0.11476 0.0
O421 O 0.73966 0.56267 0.11167 0.0
H422 H 0.80296 0.66492 1.00067 0.0
H423 H 0.66066 0.52923 0.13705 0.0
O424 O 0.67405 0.50975 0.0545 0.0
H425 H 0.71169 0.53167 0.30922 0.0
H426 H 0.69538 0.4556 0.14996 0.0
H427 H 0.75204 0.53521 0.05733 0.0
H428 H 0.72662 0.53561 0.20439 0.0
H429 H 0.68287 0.48643 0.13436 0.0
O430 O 0.7004 0.60624 0.0883 0.0
H431 H 0.77319 0.62275 0.03111 0.0
H432 H 0.71468 0.63647 1.00163 0.0
H433 H 0.76536 0.50497 0.0725 0.0
H434 H 0.64489 0.52494 0.24121 0.0
H435 H 0.73693 0.46483 0.11914 0.0
H436 H 0.67051 0.52623 0.32818 0.0
O437 O 0.71942 0.54145 0.99811 0.0
H438 H 0.64009 0.56872 0.93416 0.0
H439 H 0.72888 0.60318 0.90928 0.0
H440 H 0.70325 0.59701 0.81934 0.0
H441 H 0.65851 0.57973 0.83147 0.0
H442 H 0.66636 0.57487 0.02283 0.0
H443 H 0.74383 0.67885 0.97138 0.0
H444 H 0.78831 0.69329 0.97052 0.0
O445 O 0.73853 0.58231 0.99323 0.0
C446 C 0.74816 0.58443 0.13106 0.0
C447 C 0.78362 0.65883 1.0007 0.0
C448 C 0.75043 0.66665 0.98433 0.0
N449 N 0.74223 0.62711 0.01771 0.0
C450 C 0.76668 0.63495 0.01775 0.0
C451 C 0.73402 0.64265 1.00164 0.0
C452 C 0.77539 0.67474 0.98383 0.0
C453 C 0.67181 0.52956 0.17464 0.0
N454 N 0.69447 0.53253 0.16459 0.0
C455 C 0.66283 0.52722 0.23352 0.0
C456 C 0.67722 0.52798 0.2823 0.0
C457 C 0.70033 0.53104 0.27171 0.0
C458 C 0.70871 0.5333 0.21222 0.0
C459 C 0.70795 0.47304 0.12968 0.0
C460 C 0.73961 0.51783 0.07793 0.0
C461 C 0.70095 0.49055 0.1206 0.0
N462 N 0.71676 0.51266 0.09529 0.0
C463 C 0.74723 0.50076 0.08628 0.0
C464 C 0.73127 0.47823 0.1124 0.0
C465 C 0.7347 0.56167 0.97351 0.0
C466 C 0.65957 0.57631 0.92829 0.0
C467 C 0.70941 0.59546 0.91494 0.0
C468 C 0.695 0.59211 0.86384 0.0
C469 C 0.66991 0.58245 0.87068 0.0
N470 N 0.69913 0.58937 0.9713 0.0
C471 C 0.67455 0.57993 0.97837 0.0
Co472 Co 0.12999 0.71669 0.20934 0.0
Co473 Co 0.17442 0.70386 0.25054 0.0
O474 O 0.14003 0.69343 0.2352 0.0
C475 C 0.0952 0.69044 0.31011 0.0
O476 O 0.11395 0.69556 0.34525 0.0
C477 C 0.15621 0.65883 0.17624 0.0
O478 O 0.14457 0.66668 0.14195 0.0
O479 O 0.18303 0.71737 0.16719 0.0
O480 O 0.16093 0.73612 0.16107 0.0
H481 H 0.26488 0.76256 0.24539 0.0
H482 H 0.09617 0.66385 0.1894 0.0
O483 O 0.09858 0.69766 0.25524 0.0
H484 H 0.11154 0.70126 0.98633 0.0
H485 H 0.06958 0.7413 0.1382 0.0
H486 H 0.15492 0.7706 0.19923 0.0
H487 H 0.13066 0.72665 0.07672 0.0
H488 H 0.08284 0.71213 0.16834 0.0
O489 O 0.16898 0.67154 0.22091 0.0
H490 H 0.22142 0.74941 0.22868 0.0
H491 H 0.20052 0.67951 0.30197 0.0
H492 H 0.1425 0.80039 0.16892 0.0
H493 H 0.07639 0.63783 0.10027 0.0
H494 H 0.09955 0.78578 0.13812 0.0
H495 H 0.08411 0.65652 0.99779 0.0
O496 O 0.14593 0.73704 0.28242 0.0
H497 H 0.12339 0.64041 0.40536 0.0
H498 H 0.19446 0.72259 0.37401 0.0
H499 H 0.18274 0.70656 0.47786 0.0
H500 H 0.147 0.66516 0.49405 0.0
H501 H 0.13559 0.65726 0.30225 0.0
H502 H 0.24376 0.69186 0.31907 0.0
H503 H 0.27628 0.73368 0.29091 0.0
O504 O 0.18116 0.7365 0.2816 0.0
C505 C 0.17807 0.73259 0.14228 0.0
C506 C 0.25087 0.74431 0.25802 0.0
C507 C 0.23902 0.70462 0.2993 0.0
N508 N 0.20845 0.71378 0.26472 0.0
C509 C 0.22623 0.73678 0.2488 0.0
C510 C 0.21457 0.69772 0.28939 0.0
C511 C 0.25726 0.72809 0.28351 0.0
C512 C 0.09943 0.67215 0.14503 0.0
N513 N 0.11455 0.69674 0.13833 0.0
C514 C 0.08826 0.65731 0.09469 0.0
C515 C 0.09263 0.6678 0.0372 0.0
C516 C 0.10804 0.6929 0.03073 0.0
C517 C 0.11891 0.70717 0.08208 0.0
C518 C 0.08836 0.74789 0.15143 0.0
C519 C 0.13623 0.7641 0.18557 0.0
C520 C 0.09596 0.73147 0.16868 0.0
N521 N 0.11968 0.73966 0.18511 0.0
C522 C 0.12929 0.78105 0.1686 0.0
C523 C 0.10518 0.77284 0.15138 0.0
C524 C 0.16791 0.7452 0.29978 0.0
C525 C 0.13905 0.65844 0.39887 0.0
C526 C 0.17884 0.70458 0.38065 0.0
C527 C 0.17233 0.69558 0.43958 0.0
C528 C 0.15228 0.67235 0.44862 0.0
N529 N 0.16578 0.69081 0.33207 0.0
C530 C 0.1461 0.66803 0.34059 0.0
Co531 Co 0.47907 0.16897 0.40545 0.0
Co532 Co 0.42012 0.12777 0.36965 0.0
O533 O 0.45302 0.13536 0.39272 0.0
C534 C 0.50457 0.15059 0.32586 0.0
O535 O 0.48769 0.14496 0.28426 0.0
C536 C 0.41034 0.09309 0.47171 0.0
O537 O 0.42517 0.11168 0.50579 0.0
O538 O 0.4183 0.14564 0.44244 0.0
O539 O 0.45557 0.17882 0.43695 0.0
H540 H 0.3529 0.14683 0.33328 0.0
H541 H 0.48321 0.12814 0.45881 0.0
O542 O 0.50352 0.16006 0.37581 0.0
H543 H 0.48784 0.17951 0.632 0.0
H544 H 0.56363 0.23401 0.46751 0.0
H545 H 0.48488 0.21776 0.38111 0.0
H546 H 0.48362 0.19104 0.52781 0.0
H547 H 0.52996 0.19173 0.45359 0.0
O548 O 0.40624 0.09657 0.41713 0.0
H549 H 0.39463 0.15627 0.36028 0.0
H550 H 0.37482 0.08212 0.33326 0.0
H551 H 0.51801 0.26031 0.39468 0.0
H552 H 0.48768 0.11607 0.56226 0.0
H553 H 0.55773 0.26866 0.43819 0.0
H554 H 0.48995 0.14181 0.64975 0.0
O555 O 0.47418 0.17774 0.32188 0.0
H556 H 0.43987 0.07019 0.25999 0.0
H557 H 0.40879 0.12747 0.23803 0.0
H558 H 0.41233 0.10655 0.14768 0.0
H559 H 0.42792 0.07762 0.15836 0.0
H560 H 0.43623 0.09165 0.34911 0.0
H561 H 0.33283 0.07183 0.30648 0.0
H562 H 0.32167 0.10434 0.30614 0.0
O563 O 0.43323 0.15845 0.31963 0.0
C564 C 0.43375 0.16758 0.45715 0.0
C565 C 0.35756 0.13252 0.33311 0.0
C566 C 0.34628 0.09042 0.31815 0.0
N567 N 0.38719 0.11981 0.34796 0.0
C568 C 0.38117 0.13777 0.34822 0.0
C569 C 0.37007 0.09634 0.33351 0.0
C570 C 0.34004 0.10867 0.31794 0.0
C571 C 0.48441 0.13955 0.4966 0.0
N572 N 0.48328 0.16033 0.48721 0.0
C573 C 0.48685 0.13258 0.55509 0.0
C574 C 0.48809 0.14701 0.60417 0.0
C575 C 0.4869 0.16816 0.59425 0.0
C576 C 0.48445 0.17456 0.53513 0.0
C577 C 0.54639 0.23061 0.44862 0.0
C578 C 0.50206 0.22123 0.40039 0.0
C579 C 0.52727 0.2067 0.44051 0.0
N580 N 0.5054 0.20228 0.417 0.0
C581 C 0.52078 0.24537 0.40782 0.0
C582 C 0.54307 0.25004 0.43218 0.0
C583 C 0.45414 0.17413 0.29852 0.0
C584 C 0.433 0.08271 0.25477 0.0
C585 C 0.41568 0.11498 0.24305 0.0
C586 C 0.41759 0.10315 0.19173 0.0
C587 C 0.42632 0.08691 0.19775 0.0
N588 N 0.42221 0.11072 0.29886 0.0
C589 C 0.43083 0.09486 0.3051 0.0
Co590 Co 0.31272 0.47612 0.58424 0.0
Co591 Co 0.29641 0.41698 0.55239 0.0
O592 O 0.32148 0.45057 0.5733 0.0
C593 C 0.35951 0.50062 0.51331 0.0
O594 O 0.35353 0.48007 0.48543 0.0
C595 C 0.3265 0.41145 0.64925 0.0
O596 O 0.32934 0.43135 0.6752 0.0
O597 O 0.27737 0.41555 0.62569 0.0
O598 O 0.27976 0.45197 0.61743 0.0
H599 H 0.21023 0.34878 0.52153 0.0
H600 H 0.35937 0.48432 0.63731 0.0
O601 O 0.34529 0.50165 0.55245 0.0
H602 H 0.31148 0.4872 0.81005 0.0
H603 H 0.32839 0.55995 0.64051 0.0
H604 H 0.26835 0.47936 0.55842 0.0
H605 H 0.29477 0.48033 0.7064 0.0
H606 H 0.33893 0.52751 0.62965 0.0
O607 O 0.31384 0.40338 0.60108 0.0
H608 H 0.24236 0.39086 0.54566 0.0
H609 H 0.29715 0.37165 0.51807 0.0
H610 H 0.25699 0.51124 0.56893 0.0
H611 H 0.37698 0.4917 0.74012 0.0
H612 H 0.28713 0.55189 0.61023 0.0
H613 H 0.35292 0.49305 0.82744 0.0
O614 O 0.29909 0.47005 0.50094 0.0
H615 H 0.37295 0.43449 0.44188 0.0
H616 H 0.2848 0.40491 0.42122 0.0
H617 H 0.30872 0.40717 0.33085 0.0
H618 H 0.35311 0.42195 0.34087 0.0
H619 H 0.34841 0.4323 0.53095 0.0
H620 H 0.26561 0.32932 0.49416 0.0
H621 H 0.22179 0.31767 0.49555 0.0
O622 O 0.27806 0.42914 0.50143 0.0
C623 C 0.27026 0.43054 0.63975 0.0
C624 C 0.22926 0.35365 0.5206 0.0
C625 C 0.26034 0.34272 0.50531 0.0
N626 N 0.2716 0.38376 0.53287 0.0
C627 C 0.24754 0.37746 0.53409 0.0
C628 C 0.27812 0.36671 0.51904 0.0
C629 C 0.23576 0.3362 0.50608 0.0
C630 C 0.34891 0.48518 0.67494 0.0
N631 N 0.32607 0.48189 0.66576 0.0
C632 C 0.35892 0.48924 0.73312 0.0
C633 C 0.3454 0.48994 0.7821 0.0
C634 C 0.32213 0.48662 0.77239 0.0
C635 C 0.31271 0.48261 0.71358 0.0
C636 C 0.31508 0.5423 0.62256 0.0
C637 C 0.28152 0.49695 0.57674 0.0
C638 C 0.32096 0.52386 0.61619 0.0
N639 N 0.30421 0.50148 0.59379 0.0
C640 C 0.27501 0.51495 0.58246 0.0
C641 C 0.29193 0.53776 0.60558 0.0
C642 C 0.28283 0.44972 0.4789 0.0
C643 C 0.35361 0.42797 0.43694 0.0
C644 C 0.30415 0.41158 0.42592 0.0
C645 C 0.31758 0.41271 0.3746 0.0
C646 C 0.34248 0.42097 0.38027 0.0
N647 N 0.3152 0.41849 0.48137 0.0
C648 C 0.3396 0.42659 0.48727 0.0
Co649 Co 0.88579 0.29364 0.70611 0.0
Co650 Co 0.84164 0.3069 0.74734 0.0
O651 O 0.8759 0.31703 0.73162 0.0
C652 C 0.92054 0.31975 0.80721 0.0
O653 O 0.90176 0.31466 0.84207 0.0
C654 C 0.85955 0.35111 0.67033 0.0
O655 O 0.87073 0.34268 0.63642 0.0
O656 O 0.83255 0.29287 0.66463 0.0
O657 O 0.85482 0.27432 0.65764 0.0
H658 H 0.75106 0.24864 0.74479 0.0
H659 H 0.91978 0.34645 0.68612 0.0
O660 O 0.91721 0.31259 0.7523 0.0
H661 H 0.90424 0.30901 0.48316 0.0
H662 H 0.94595 0.26868 0.63589 0.0
H663 H 0.86065 0.23973 0.69612 0.0
H664 H 0.88507 0.28365 0.57357 0.0
H665 H 0.93286 0.29798 0.66565 0.0
O666 O 0.84716 0.33904 0.71613 0.0
H667 H 0.79437 0.26139 0.72748 0.0
H668 H 0.81606 0.33188 0.79769 0.0
H669 H 0.87291 0.2098 0.66619 0.0
H670 H 0.93961 0.37244 0.59697 0.0
H671 H 0.91584 0.22424 0.63579 0.0
H672 H 0.9318 0.35373 0.49455 0.0
O673 O 0.86981 0.27333 0.77919 0.0
H674 H 0.89361 0.3713 0.89927 0.0
H675 H 0.82217 0.28906 0.87165 0.0
H676 H 0.83446 0.30577 0.97477 0.0
H677 H 0.87038 0.3472 0.98908 0.0
H678 H 0.88084 0.35376 0.79693 0.0
H679 H 0.77297 0.31994 0.81535 0.0
H680 H 0.74013 0.27802 0.78904 0.0
O681 O 0.83485 0.27441 0.7798 0.0
C682 C 0.83754 0.27776 0.63936 0.0
C683 C 0.76521 0.26693 0.75662 0.0
C684 C 0.77751 0.30696 0.79615 0.0
N685 N 0.80774 0.29729 0.76198 0.0
C686 C 0.78977 0.27424 0.74706 0.0
C687 C 0.80187 0.31363 0.78593 0.0
C688 C 0.75909 0.28343 0.7814 0.0
C689 C 0.91649 0.33814 0.64177 0.0
N690 N 0.90129 0.31356 0.63511 0.0
C691 C 0.92768 0.35296 0.59143 0.0
C692 C 0.92326 0.34246 0.53397 0.0
C693 C 0.90777 0.31737 0.52754 0.0
C694 C 0.89688 0.30312 0.5789 0.0
C695 C 0.92718 0.26217 0.64894 0.0
C696 C 0.87933 0.24615 0.68263 0.0
C697 C 0.91967 0.27867 0.66598 0.0
N698 N 0.89597 0.27057 0.68218 0.0
C699 C 0.88618 0.22912 0.66588 0.0
C700 C 0.91027 0.23724 0.64888 0.0
C701 C 0.848 0.26549 0.79738 0.0
C702 C 0.87787 0.35326 0.89361 0.0
C703 C 0.83787 0.30708 0.87747 0.0
C704 C 0.8447 0.31646 0.93599 0.0
C705 C 0.86486 0.33971 0.94398 0.0
N706 N 0.85072 0.32048 0.82827 0.0
C707 C 0.8705 0.34328 0.83576 0.0
H708 H 0.17474 0.40764 0.19347 0.0
H709 H 0.28582 0.48927 0.41851 0.0
H710 H 0.21577 0.48645 0.18663 0.0
H711 H 0.24577 0.4104 0.41977 0.0
H712 H 0.26064 0.48878 0.33363 0.0
H713 H 0.20079 0.40853 0.27614 0.0
C714 C 0.18921 0.42518 0.20924 0.0
C715 C 0.19291 0.44702 0.18289 0.0
C716 C 0.25741 0.47159 0.35242 0.0
C717 C 0.223 0.44813 0.27815 0.0
C718 C 0.27181 0.47184 0.40095 0.0
C719 C 0.26801 0.44984 0.42656 0.0
C720 C 0.23899 0.4492 0.32919 0.0
C721 C 0.24947 0.42785 0.40171 0.0
C722 C 0.20413 0.42565 0.25659 0.0
C723 C 0.21212 0.46913 0.20548 0.0
N724 N 0.23569 0.42811 0.35462 0.0
N725 N 0.22638 0.46911 0.25179 0.0
H726 H 0.79925 0.27943 0.58424 0.0
H727 H 0.77168 0.17132 0.35181 0.0
H728 H 0.84079 0.24217 0.57601 0.0
H729 H 0.73387 0.21237 0.34588 0.0
H730 H 0.79617 0.19648 0.43607 0.0
H731 H 0.77431 0.25456 0.49927 0.0
C732 C 0.80319 0.26607 0.56464 0.0
C733 C 0.82225 0.26298 0.58752 0.0
C734 C 0.78254 0.20004 0.41642 0.0
C735 C 0.79362 0.23435 0.49015 0.0
C736 C 0.76846 0.18561 0.36816 0.0
C737 C 0.75057 0.18964 0.34143 0.0
C738 C 0.7788 0.21872 0.43866 0.0
C739 C 0.7474 0.20853 0.36493 0.0
C740 C 0.78891 0.25188 0.51605 0.0
C741 C 0.82637 0.24531 0.56011 0.0
N742 N 0.76134 0.22234 0.4122 0.0
N743 N 0.81219 0.2317 0.5131 0.0
H744 H 0.60629 0.77244 0.51006 0.0
H745 H 0.52453 0.80184 0.73389 0.0
H746 H 0.52741 0.7339 0.50299 0.0
H747 H 0.60342 0.83938 0.73692 0.0
H748 H 0.52482 0.7772 0.64864 0.0
H749 H 0.60512 0.79752 0.59192 0.0
C750 C 0.58866 0.76921 0.52557 0.0
C751 C 0.56689 0.75084 0.49945 0.0
C752 C 0.54204 0.79088 0.66794 0.0
C753 C 0.56547 0.77977 0.59404 0.0
C754 C 0.54192 0.80499 0.71664 0.0
C755 C 0.564 0.82282 0.74281 0.0
C756 C 0.5644 0.79458 0.64513 0.0
C757 C 0.58592 0.82594 0.71843 0.0
C758 C 0.58803 0.78362 0.57253 0.0
C759 C 0.54467 0.74776 0.52169 0.0
N760 N 0.58553 0.81199 0.67119 0.0
N761 N 0.54454 0.76203 0.56778 0.0
H762 H 0.80115 0.5217 0.68336 0.0
H763 H 0.76988 0.60098 0.91083 0.0
H764 H 0.83986 0.60056 0.68729 0.0
H765 H 0.73372 0.52223 0.91742 0.0
H766 H 0.79469 0.6008 0.82682 0.0
H767 H 0.7755 0.52124 0.76687 0.0
C768 C 0.80432 0.53893 0.70172 0.0
C769 C 0.82282 0.56122 0.67813 0.0
C770 C 0.78133 0.58353 0.84652 0.0
C771 C 0.79337 0.56076 0.77383 0.0
C772 C 0.76706 0.58359 0.89463 0.0
C773 C 0.74957 0.56156 0.9215 0.0
C774 C 0.77819 0.56129 0.82471 0.0
C775 C 0.74692 0.53967 0.89822 0.0
C776 C 0.78963 0.53862 0.74946 0.0
C777 C 0.82593 0.58292 0.70386 0.0
N778 N 0.76107 0.54009 0.85121 0.0
N779 N 0.81138 0.58212 0.75015 0.0
H780 H 0.24376 0.84029 0.85686 0.0
H781 H 0.21644 0.73129 0.0868 0.0
H782 H 0.28182 0.7995 0.85054 0.0
H783 H 0.17465 0.76833 0.0799 0.0
H784 H 0.24139 0.75666 1.00252 0.0
H785 H 0.21927 0.81481 0.94085 0.0
C786 C 0.24704 0.82601 0.87309 0.0
C787 C 0.26498 0.82213 0.84633 0.0
C788 C 0.22673 0.75918 0.01944 0.0
C789 C 0.23678 0.7927 0.94307 0.0
C790 C 0.21244 0.74469 0.06762 0.0
C791 C 0.19331 0.74758 0.09067 0.0
C792 C 0.22196 0.77679 0.99414 0.0
C793 C 0.18912 0.76534 0.06384 0.0
C794 C 0.23297 0.8114 0.92116 0.0
C795 C 0.26826 0.80324 0.86963 0.0
N796 N 0.20331 0.77923 0.01722 0.0
N797 N 0.25432 0.78926 0.91662 0.0
H798 H 0.49424 0.21074 0.2391 0.0
H799 H 0.41248 0.23903 0.0111 0.0
H800 H 0.41532 0.17192 0.2375 0.0
H801 H 0.49135 0.27762 0.00423 0.0
H802 H 0.41374 0.21414 0.09352 0.0
H803 H 0.4941 0.23528 0.15304 0.0
C804 C 0.4769 0.2073 0.22071 0.0
C805 C 0.45476 0.18915 0.24584 0.0
C806 C 0.43082 0.228 0.07403 0.0
C807 C 0.45451 0.21723 0.14732 0.0
C808 C 0.43012 0.2423 0.02675 0.0
C809 C 0.45186 0.26063 1.00051 0.0
C810 C 0.4534 0.23193 0.09581 0.0
C811 C 0.47411 0.26377 0.02298 0.0
C812 C 0.47685 0.22133 0.17154 0.0
C813 C 0.43288 0.18562 0.21995 0.0
N814 N 0.47431 0.24964 0.06942 0.0
N815 N 0.43334 0.1995 0.17241 0.0
H816 H 0.18787 0.54238 0.11849 0.0
H817 H 0.11991 0.61931 0.11602 0.0
H818 H 0.10918 0.50703 0.11475 0.0
H819 H 0.18826 0.64395 0.20989 0.0
H820 H 0.11704 0.57946 0.10008 0.0
H821 H 0.18983 0.58144 0.13794 0.0
C822 C 0.171 0.54283 0.12209 0.0
C823 C 0.14832 0.52142 0.11534 0.0
C824 C 0.13262 0.59364 0.12419 0.0
C825 C 0.15048 0.5661 0.13618 0.0
C826 C 0.13435 0.61638 0.13292 0.0
C827 C 0.15435 0.63494 0.16429 0.0
C828 C 0.15128 0.58969 0.1458 0.0
C829 C 0.17248 0.63013 0.18564 0.0
C830 C 0.17214 0.5651 0.13321 0.0
C831 C 0.12703 0.52307 0.12024 0.0
N832 N 0.17062 0.60806 0.17558 0.0
N833 N 0.12862 0.5451 0.12971 0.0
H834 H 0.63645 0.1416 0.36509 0.0
H835 H 0.52132 0.1434 0.21724 0.0
H836 H 0.63267 0.15743 0.17633 0.0
H837 H 0.53641 0.15043 0.40926 0.0
H838 H 0.55872 0.14149 0.20041 0.0
H839 H 0.59635 0.13794 0.38097 0.0
C840 C 0.62716 0.14418 0.32696 0.0
C841 C 0.63804 0.15005 0.26945 0.0
C842 C 0.55372 0.14331 0.24622 0.0
C843 C 0.59213 0.14569 0.28717 0.0
C844 C 0.53234 0.14429 0.25586 0.0
C845 C 0.52584 0.14728 0.31465 0.0
C846 C 0.5685 0.14503 0.29581 0.0
C847 C 0.54084 0.14836 0.36306 0.0
C848 C 0.60431 0.14214 0.33607 0.0
C849 C 0.6251 0.15313 0.22162 0.0
N850 N 0.56145 0.14726 0.35257 0.0
N851 N 0.60286 0.15091 0.23154 0.0
H852 H 0.37121 0.54762 0.53428 0.0
H853 H 0.51294 0.60748 0.4572 0.0
H854 H 0.40175 0.50461 0.46641 0.0
H855 H 0.47396 0.64728 0.44994 0.0
H856 H 0.47412 0.56979 0.477 0.0
H857 H 0.41055 0.58456 0.51891 0.0
C858 C 0.38622 0.54594 0.51607 0.0
C859 C 0.38317 0.52298 0.50139 0.0
C860 C 0.47418 0.58684 0.47135 0.0
C861 C 0.42843 0.56531 0.48445 0.0
C862 C 0.49631 0.60836 0.46066 0.0
C863 C 0.49666 0.63054 0.45201 0.0
C864 C 0.4524 0.58766 0.47445 0.0
C865 C 0.47452 0.63058 0.45624 0.0
C866 C 0.40866 0.56706 0.50724 0.0
C867 C 0.40327 0.52196 0.47785 0.0
N868 N 0.45334 0.60951 0.46733 0.0
N869 N 0.42516 0.54286 0.47045 0.0
H870 H 0.82706 0.46635 0.60172 0.0
H871 H 0.89543 0.38981 0.60703 0.0
H872 H 0.90578 0.50204 0.59873 0.0
H873 H 0.82759 0.36627 0.70198 0.0
H874 H 0.89802 0.42934 0.5872 0.0
H875 H 0.82532 0.42748 0.62267 0.0
C876 C 0.84398 0.46601 0.60559 0.0
C877 C 0.86661 0.48746 0.59881 0.0
C878 C 0.88262 0.41546 0.61238 0.0
C879 C 0.86469 0.44301 0.62153 0.0
C880 C 0.88104 0.39291 0.62335 0.0
C881 C 0.86127 0.37478 0.6562 0.0
C882 C 0.86401 0.4196 0.6332 0.0
C883 C 0.8432 0.37978 0.67669 0.0
C884 C 0.84296 0.44385 0.61764 0.0
C885 C 0.88797 0.48595 0.60419 0.0
N886 N 0.8449 0.40164 0.66443 0.0
N887 N 0.8865 0.46403 0.61468 0.0
H888 H 0.36869 0.82828 0.72321 0.0
H889 H 0.50677 0.90853 0.83248 0.0
H890 H 0.39334 0.89542 0.82233 0.0
H891 H 0.47054 0.83016 0.81363 0.0
H892 H 0.4676 0.90678 0.81286 0.0
H893 H 0.40834 0.8314 0.74039 0.0
C894 C 0.38247 0.84371 0.74857 0.0
C895 C 0.37768 0.86158 0.77161 0.0
C896 C 0.46835 0.89003 0.81291 0.0
C897 C 0.42324 0.86539 0.79069 0.0
C898 C 0.49067 0.89102 0.8236 0.0
C899 C 0.49189 0.86945 0.82465 0.0
C900 C 0.4473 0.86739 0.802 0.0
C901 C 0.47042 0.84723 0.8134 0.0
C902 C 0.40506 0.84543 0.75846 0.0
C903 C 0.39623 0.88115 0.80422 0.0
N904 N 0.44906 0.84679 0.80225 0.0
N905 N 0.41832 0.88264 0.81248 0.0
H906 H 0.54353 0.36146 0.96425 0.0
H907 H 0.6205 0.50603 0.95293 0.0
H908 H 0.50819 0.40467 0.95313 0.0
H909 H 0.64566 0.46314 0.04857 0.0
H910 H 0.58031 0.46909 0.94063 0.0
H911 H 0.58238 0.39862 0.98483 0.0
C912 C 0.54392 0.37876 0.96687 0.0
C913 C 0.52261 0.37999 0.95739 0.0
C914 C 0.59467 0.46788 0.96443 0.0
C915 C 0.5671 0.42263 0.97923 0.0
C916 C 0.61761 0.48886 0.97104 0.0
C917 C 0.63645 0.48763 1.00169 0.0
C918 C 0.59076 0.44549 0.98754 0.0
C919 C 0.63166 0.46494 0.02473 0.0
C920 C 0.56608 0.39994 0.97853 0.0
C921 C 0.52416 0.40291 0.96087 0.0
N922 N 0.60938 0.44475 0.01672 0.0
N923 N 0.54612 0.42341 0.97073 0.0
H924 H 0.25897 0.40018 0.73839 0.0
H925 H 0.15495 0.42777 0.85377 0.0
H926 H 0.23663 0.44533 0.64274 0.0
H927 H 0.19722 0.41048 0.97636 0.0
H928 H 0.17732 0.4236 0.76819 0.0
H929 H 0.22917 0.39363 0.81848 0.0
C930 C 0.24748 0.40829 0.7337 0.0
C931 C 0.25032 0.42342 0.68414 0.0
C932 C 0.1814 0.42026 0.81369 0.0
C933 C 0.21631 0.41591 0.77478 0.0
C934 C 0.16854 0.42245 0.8623 0.0
C935 C 0.17423 0.41923 0.92164 0.0
C936 C 0.20005 0.41476 0.82466 0.0
C937 C 0.19226 0.41284 0.93089 0.0
C938 C 0.23064 0.40468 0.77947 0.0
C939 C 0.23515 0.43369 0.68044 0.0
N940 N 0.20467 0.41089 0.88279 0.0
N941 N 0.21885 0.42977 0.72513 0.0
H942 H 0.74832 0.14398 0.02283 0.0
H943 H 0.86838 0.26274 0.90401 0.0
H944 H 0.79014 0.20701 0.13592 0.0
H945 H 0.80298 0.22489 0.79606 0.0
H946 H 0.84707 0.23427 0.98809 0.0
H947 H 0.77599 0.16578 0.93785 0.0
C948 C 0.76382 0.16207 0.03019 0.0
C949 C 0.76716 0.17376 0.08619 0.0
C950 C 0.83767 0.23193 0.94541 0.0
C951 C 0.79869 0.19851 0.99017 0.0
C952 C 0.84981 0.24798 0.89749 0.0
C953 C 0.83735 0.246 0.84331 0.0
C954 C 0.81319 0.21352 0.93821 0.0
C955 C 0.81315 0.22691 0.83729 0.0
C956 C 0.7794 0.17452 0.98178 0.0
C957 C 0.78712 0.19742 0.09331 0.0
N958 N 0.80182 0.21136 0.88422 0.0
N959 N 0.80217 0.20907 0.04579 0.0
H960 H 0.61586 0.78907 0.2828 0.0
H961 H 0.56405 0.79447 0.95611 0.0
H962 H 0.5682 0.7266 0.17409 0.0
H963 H 0.61444 0.85976 0.05292 0.0
H964 H 0.56959 0.76997 0.03224 0.0
H965 H 0.61997 0.8159 0.19679 0.0
C966 C 0.60663 0.78105 0.24048 0.0
C967 C 0.59138 0.75569 0.23543 0.0
C968 C 0.57968 0.78965 0.03698 0.0
C969 C 0.59579 0.78592 0.13778 0.0
C970 C 0.57648 0.80369 0.99335 0.0
C971 C 0.58862 0.82919 0.99847 0.0
C972 C 0.59488 0.80104 0.08713 0.0
C973 C 0.60475 0.84012 0.04737 0.0
C974 C 0.60887 0.79629 0.19164 0.0
C975 C 0.57969 0.74608 0.18012 0.0
N976 N 0.60716 0.82594 0.09045 0.0
N977 N 0.582 0.76116 0.13374 0.0
H978 H 0.80298 0.57697 0.47093 0.0
H979 H 0.79007 0.58248 0.12542 0.0
H980 H 0.86784 0.60626 0.36079 0.0
H981 H 0.74941 0.60394 0.24189 0.0
H982 H 0.81818 0.58898 0.20952 0.0
H983 H 0.78163 0.58434 0.38779 0.0
C984 C 0.81281 0.58539 0.42953 0.0
C985 C 0.83718 0.5912 0.42253 0.0
C986 C 0.80346 0.59284 0.2162 0.0
C987 C 0.81276 0.59891 0.32705 0.0
C988 C 0.78748 0.58915 0.1684 0.0
C989 C 0.76766 0.59297 0.17689 0.0
C990 C 0.79898 0.59947 0.27337 0.0
C991 C 0.76474 0.60118 0.23354 0.0
C992 C 0.80068 0.58963 0.38232 0.0
C993 C 0.84911 0.60182 0.36794 0.0
N994 N 0.77993 0.60364 0.28021 0.0
N995 N 0.83661 0.60486 0.32161 0.0
H996 H 0.2128 0.78585 0.29631 0.0
H997 H 0.22518 0.80337 0.64216 0.0
H998 H 0.14825 0.74848 0.40699 0.0
H999 H 0.26547 0.86578 0.52616 0.0
H1000 H 0.19722 0.78177 0.55793 0.0
H1001 H 0.23357 0.81472 0.37938 0.0
C1002 C 0.20288 0.78411 0.33777 0.0
C1003 C 0.17879 0.76497 0.34494 0.0
C1004 C 0.21181 0.8004 0.55136 0.0
C1005 C 0.20259 0.79726 0.44043 0.0
C1006 C 0.22771 0.81269 0.59925 0.0
C1007 C 0.24739 0.83641 0.59095 0.0
C1008 C 0.21623 0.8116 0.49425 0.0
C1009 C 0.25024 0.84762 0.53438 0.0
C1010 C 0.21469 0.80055 0.38497 0.0
C1011 C 0.16675 0.76322 0.39964 0.0
N1012 N 0.23514 0.8349 0.48761 0.0
N1013 N 0.17898 0.77885 0.44597 0.0
H1014 H 0.45018 0.28642 0.67387 0.0
H1015 H 0.40157 0.15035 0.55357 0.0
H1016 H 0.40371 0.22317 0.7817 0.0
H1017 H 0.45106 0.2163 0.45777 0.0
H1018 H 0.3966 0.17541 0.63168 0.0
H1019 H 0.44515 0.25999 0.58847 0.0
C1020 C 0.4388 0.26687 0.67928 0.0
C1021 C 0.42763 0.25689 0.73482 0.0
C1022 C 0.40825 0.18429 0.59303 0.0
C1023 C 0.42183 0.22623 0.63731 0.0
C1024 C 0.41096 0.17001 0.54836 0.0
C1025 C 0.42693 0.1813 0.4995 0.0
C1026 C 0.42147 0.20993 0.58819 0.0
C1027 C 0.4388 0.20683 0.49505 0.0
C1028 C 0.43583 0.25172 0.63048 0.0
C1029 C 0.41263 0.23147 0.73932 0.0
N1030 N 0.43595 0.22019 0.53886 0.0
N1031 N 0.4104 0.21689 0.69131 0.0
H1032 H 0.04946 0.37993 0.03563 0.0
H1033 H 0.96335 0.34005 0.74334 0.0
H1034 H 0.07664 0.40542 0.85525 0.0
H1035 H 0.93553 0.33116 0.92571 0.0
H1036 H 1.00497 0.36198 0.78332 0.0
H1037 H 1.00772 0.35995 0.99613 0.0
C1038 C 0.04668 0.38135 0.98768 0.0
C1039 C 0.06666 0.39434 0.94866 0.0
C1040 C 0.98978 0.35532 0.8146 0.0
C1041 C 0.01878 0.37134 0.90311 0.0
C1042 C 0.96597 0.34271 0.79185 0.0
C1043 C 0.94585 0.33365 0.83125 0.0
C1044 C 0.99363 0.35873 0.87736 0.0
C1045 C 0.95045 0.33781 0.89364 0.0
C1046 C 0.0228 0.36999 0.96522 0.0
C1047 C 0.06185 0.39562 0.88702 0.0
N1048 N 0.97384 0.34989 0.91478 0.0
N1049 N 0.03843 0.38414 0.86612 0.0
H1050 H 0.60698 0.93274 0.08853 0.0
H1051 H 0.68122 0.07545 0.00756 0.0
H1052 H 0.63225 0.96057 0.90843 0.0
H1053 H 0.67376 0.04792 0.19003 0.0
H1054 H 0.65905 0.03336 0.97026 0.0
H1055 H 0.62725 0.97484 0.1265 0.0
C1056 C 0.61672 0.94766 0.05697 0.0
C1057 C 0.61801 0.94307 0.99527 0.0
C1058 C 0.66227 0.03655 0.01847 0.0
C1059 C 0.64106 0.99125 0.03829 0.0
C1060 C 0.67486 0.06058 0.03981 0.0
C1061 C 0.67949 0.06527 0.10199 0.0
C1062 C 0.65398 0.01701 0.05962 0.0
C1063 C 0.67076 0.04521 0.14165 0.0
C1064 C 0.62833 0.97168 0.07869 0.0
C1065 C 0.63089 0.96317 0.95645 0.0
N1066 N 0.65841 0.022 0.11983 0.0
N1067 N 0.64184 0.98632 0.97855 0.0
H1068 H 0.68379 0.60815 0.26199 0.0
H1069 H 0.60672 0.6735 0.17871 0.0
H1070 H 0.67191 0.62362 0.07848 0.0
H1071 H 0.63705 0.67711 0.35637 0.0
H1072 H 0.62619 0.6507 0.14262 0.0
H1073 H 0.66223 0.62882 0.29897 0.0
C1074 C 0.67656 0.61577 0.22949 0.0
C1075 C 0.67979 0.61426 0.16707 0.0
C1076 C 0.62857 0.65651 0.18949 0.0
C1077 C 0.65501 0.63779 0.20902 0.0
C1078 C 0.61743 0.66949 0.21014 0.0
C1079 C 0.62037 0.67739 0.27054 0.0
C1080 C 0.64251 0.65111 0.2297 0.0
C1081 C 0.63442 0.67157 0.30929 0.0
C1082 C 0.66434 0.62764 0.25062 0.0
C1083 C 0.67002 0.62449 0.12703 0.0
N1084 N 0.6449 0.65875 0.28826 0.0
N1085 N 0.65806 0.63576 0.14866 0.0
H1086 H 0.08003 0.67843 0.42822 0.0
H1087 H 0.93737 0.60461 0.345 0.0
H1088 H 0.0525 0.67046 0.24557 0.0
H1089 H 0.96452 0.62891 0.52611 0.0
H1090 H 0.97957 0.6247 0.30818 0.0
H1091 H 0.03786 0.6563 0.46542 0.0
C1092 C 0.06516 0.67197 0.39593 0.0
C1093 C 0.06986 0.67645 0.33371 0.0
C1094 C 0.97627 0.62561 0.35598 0.0
C1095 C 0.02155 0.65099 0.37593 0.0
C1096 C 0.95217 0.6141 0.37705 0.0
C1097 C 0.94735 0.61517 0.43869 0.0
C1098 C 0.99572 0.63807 0.39691 0.0
C1099 C 0.96733 0.62772 0.47813 0.0
C1100 C 0.04108 0.65939 0.4172 0.0
C1101 C 0.0498 0.6676 0.29397 0.0
N1102 N 0.99059 0.63863 0.45661 0.0
N1103 N 0.02658 0.65529 0.31572 0.0
H1104 H 0.40819 0.07801 0.58969 0.0
H1105 H 0.33423 0.93525 0.50878 0.0
H1106 H 0.38505 0.05036 0.40844 0.0
H1107 H 0.34082 0.963 0.69061 0.0
H1108 H 0.35672 0.97733 0.47119 0.0
H1109 H 0.3874 0.03591 0.6276 0.0
C1110 C 0.39881 0.06312 0.55786 0.0
C1111 C 0.39828 0.06778 0.49583 0.0
C1112 C 0.35324 0.97418 0.51932 0.0
C1113 C 0.3746 0.01955 0.53883 0.0
C1114 C 0.34045 0.95016 0.54082 0.0
C1115 C 0.33549 0.94554 0.60291 0.0
C1116 C 0.36138 0.99377 0.56023 0.0
C1117 C 0.34406 0.96565 0.64231 0.0
C1118 C 0.3869 0.0391 0.57953 0.0
C1119 C 0.38583 0.04771 0.45669 0.0
N1120 N 0.35659 0.98883 0.62035 0.0
N1121 N 0.37456 0.02453 0.4788 0.0
H1122 H 0.37054 0.43132 0.70805 0.0
H1123 H 0.36248 0.30707 0.80183 0.0
H1124 H 0.31088 0.3627 0.64521 0.0
H1125 H 0.43112 0.36757 0.7421 0.0
H1126 H 0.34163 0.32873 0.76599 0.0
H1127 H 0.39173 0.40975 0.7431 0.0
C1128 C 0.36182 0.41171 0.70225 0.0
C1129 C 0.33895 0.39873 0.6738 0.0
C1130 C 0.36124 0.33718 0.76072 0.0
C1131 C 0.36279 0.37411 0.71439 0.0
C1132 C 0.37314 0.32491 0.78116 0.0
C1133 C 0.39852 0.33551 0.77446 0.0
C1134 C 0.37492 0.36053 0.73522 0.0
C1135 C 0.41149 0.35868 0.7475 0.0
C1136 C 0.37396 0.39951 0.72177 0.0
C1137 C 0.32852 0.37338 0.66682 0.0
N1138 N 0.39958 0.37059 0.72947 0.0
N1139 N 0.3404 0.36183 0.68756 0.0
loop_
_geom_bond_atom_site_label_1
_geom_bond_atom_site_label_2
_geom_bond_distance
_geom_bond_site_symmetry_2
_ccdc_geom_bond_type
Co0 O2 2.143 . S
Co0 O8 2.074 1_554 S
Co0 O11 2.093 . S
Co0 O24 2.097 . S
Co0 N41 2.151 1_554 S
Co0 N49 2.214 . S
Co1 O2 2.160 . S
Co1 O7 2.058 1_554 S
Co1 O17 2.057 . S
Co1 O32 2.037 . S
Co1 N36 2.145 . S
Co1 N57 2.257 . S
O2 Co0 2.143 . S
O2 Co1 2.160 . S
C3 O4 1.278 . S
C3 O11 1.224 . S
O4 C3 1.278 . S
C5 O6 1.245 . S
C5 O17 1.232 1_556 S
O6 C5 1.245 . S
O7 Co1 2.058 1_556 S
O7 C33 1.269 . S
O8 Co0 2.074 1_556 S
O8 C33 1.257 . S
H9 C34 0.930 . S
H10 C40 0.930 . S
O11 Co0 2.093 . S
O11 C3 1.224 . S
H12 C44 0.929 . S
H13 C46 0.930 . S
H14 C47 0.930 . S
H15 C45 0.929 . S
H16 C48 0.928 . S
O17 Co1 2.057 . S
O17 C5 1.232 1_554 S
H18 C37 0.929 . S
H19 C38 0.929 . S
H20 C50 0.931 . S
H21 C42 0.929 . S
H22 C51 0.930 . S
H23 C43 0.931 . S
O24 Co0 2.097 . S
O24 C52 1.214 . S
H25 C53 0.929 . S
H26 C54 0.929 . S
H27 C55 0.930 . S
H28 C56 0.929 . S
H29 C58 0.930 . S
H30 C35 0.930 . S
H31 C39 0.930 . S
O32 Co1 2.037 . S
O32 C52 1.234 . S
C33 O7 1.269 . S
C33 O8 1.257 . S
C34 H9 0.930 . S
C34 C37 1.388 . S
C34 C39 1.418 . S
C35 H30 0.930 . S
C35 C38 1.404 . S
C35 C39 1.353 . S
N36 Co1 2.145 . S
N36 C37 1.397 . S
N36 C38 1.334 . S
C37 H18 0.929 . S
C37 C34 1.388 . S
C37 N36 1.397 . S
C38 H19 0.929 . S
C38 C35 1.404 . S
C38 N36 1.334 . S
C39 H31 0.930 . S
C39 C34 1.418 . S
C39 C35 1.353 . S
C40 H10 0.930 . S
C40 N41 1.330 . S
C40 C42 1.446 . S
N41 Co0 2.151 1_556 S
N41 C40 1.330 . S
N41 C45 1.418 . S
C42 H21 0.929 . S
C42 C40 1.446 . S
C42 C43 1.332 . S
C43 H23 0.931 . S
C43 C42 1.332 . S
C43 C44 1.267 . S
C44 H12 0.929 . S
C44 C43 1.267 . S
C44 C45 1.251 . S
C45 H15 0.929 . S
C45 N41 1.418 . S
C45 C44 1.251 . S
C46 H13 0.930 . S
C46 C48 1.406 . S
C46 C51 1.261 . S
C47 H14 0.930 . S
C47 N49 1.325 . S
C47 C50 1.357 . S
C48 H16 0.928 . S
C48 C46 1.406 . S
C48 N49 1.261 . S
N49 Co0 2.214 . S
N49 C47 1.325 . S
N49 C48 1.261 . S
C50 H20 0.931 . S
C50 C47 1.357 . S
C50 C51 1.312 . S
C51 H22 0.930 . S
C51 C46 1.261 . S
C51 C50 1.312 . S
C52 O24 1.214 . S
C52 O32 1.234 . S
C53 H25 0.929 . S
C53 C56 1.391 . S
C53 C58 1.391 . S
C54 H26 0.929 . S
C54 C55 1.390 . S
C54 N57 1.391 . S
C55 H27 0.930 . S
C55 C54 1.390 . S
C55 C56 1.392 . S
C56 H28 0.929 . S
C56 C53 1.391 . S
C56 C55 1.392 . S
N57 Co1 2.257 . S
N57 C54 1.391 . S
N57 C58 1.388 . S
C58 H29 0.930 . S
C58 C53 1.391 . S
C58 N57 1.388 . S
Co59 O61 2.143 . S
Co59 O67 2.074 . S
Co59 O70 2.093 . S
Co59 O83 2.097 . S
Co59 N100 2.151 . S
Co59 N108 2.214 . S
Co60 O61 2.160 . S
Co60 O66 2.058 . S
Co60 O76 2.057 . S
Co60 O91 2.037 . S
Co60 N95 2.145 . S
Co60 N116 2.257 . S
O61 Co59 2.143 . S
O61 Co60 2.160 . S
C62 O63 1.278 . S
C62 O70 1.224 . S
O63 C62 1.278 . S
C64 O65 1.245 . S
C64 O76 1.232 . S
O65 C64 1.245 . S
O66 Co60 2.058 . S
O66 C92 1.269 . S
O67 Co59 2.074 . S
O67 C92 1.257 . S
H68 C93 0.930 . S
H69 C99 0.930 . S
O70 Co59 2.093 . S
O70 C62 1.224 . S
H71 C103 0.929 . S
H72 C105 0.930 . S
H73 C106 0.930 . S
H74 C104 0.929 . S
H75 C107 0.928 . S
O76 Co60 2.057 . S
O76 C64 1.232 . S
H77 C96 0.929 . S
H78 C97 0.929 . S
H79 C109 0.931 . S
H80 C101 0.929 . S
H81 C110 0.930 . S
H82 C102 0.931 1_556 S
O83 Co59 2.097 . S
O83 C111 1.214 . S
H84 C112 0.929 . S
H85 C113 0.929 . S
H86 C114 0.930 . S
H87 C115 0.929 . S
H88 C117 0.930 . S
H89 C94 0.930 . S
H90 C98 0.930 . S
O91 Co60 2.037 . S
O91 C111 1.234 . S
C92 O66 1.269 . S
C92 O67 1.257 . S
C93 H68 0.930 . S
C93 C96 1.388 . S
C93 C98 1.418 . S
C94 H89 0.930 . S
C94 C97 1.404 . S
C94 C98 1.353 . S
N95 Co60 2.145 . S
N95 C96 1.397 . S
N95 C97 1.334 . S
C96 H77 0.929 . S
C96 C93 1.388 . S
C96 N95 1.397 . S
C97 H78 0.929 . S
C97 C94 1.404 . S
C97 N95 1.334 . S
C98 H90 0.930 . S
C98 C93 1.418 . S
C98 C94 1.353 . S
C99 H69 0.930 . S
C99 N100 1.330 . S
C99 C101 1.446 . S
N100 Co59 2.151 . S
N100 C99 1.330 . S
N100 C104 1.418 . S
C101 H80 0.929 . S
C101 C99 1.446 . S
C101 C102 1.332 . S
C102 H82 0.931 1_554 S
C102 C101 1.332 . S
C102 C103 1.267 . S
C103 H71 0.929 . S
C103 C102 1.267 . S
C103 C104 1.251 . S
C104 H74 0.929 . S
C104 N100 1.418 . S
C104 C103 1.251 . S
C105 H72 0.930 . S
C105 C107 1.406 . S
C105 C110 1.261 . S
C106 H73 0.930 . S
C106 N108 1.325 . S
C106 C109 1.357 . S
C107 H75 0.928 . S
C107 C105 1.406 . S
C107 N108 1.261 . S
N108 Co59 2.214 . S
N108 C106 1.325 . S
N108 C107 1.261 . S
C109 H79 0.931 . S
C109 C106 1.357 . S
C109 C110 1.312 . S
C110 H81 0.930 . S
C110 C105 1.261 . S
C110 C109 1.312 . S
C111 O83 1.214 . S
C111 O91 1.234 . S
C112 H84 0.929 . S
C112 C115 1.391 . S
C112 C117 1.391 . S
C113 H85 0.929 . S
C113 C114 1.390 . S
C113 N116 1.391 . S
C114 H86 0.930 . S
C114 C113 1.390 . S
C114 C115 1.392 . S
C115 H87 0.929 . S
C115 C112 1.391 . S
C115 C114 1.392 . S
N116 Co60 2.257 . S
N116 C113 1.391 . S
N116 C117 1.388 . S
C117 H88 0.930 . S
C117 C112 1.391 . S
C117 N116 1.388 . S
Co118 O120 2.143 . S
Co118 O126 2.074 . S
Co118 O129 2.093 . S
Co118 O142 2.097 . S
Co118 N159 2.151 . S
Co118 N167 2.214 . S
Co119 O120 2.160 . S
Co119 O125 2.058 . S
Co119 O135 2.057 . S
Co119 O150 2.037 . S
Co119 N154 2.145 . S
Co119 N175 2.257 . S
O120 Co118 2.143 . S
O120 Co119 2.160 . S
C121 O122 1.278 . S
C121 O129 1.224 . S
O122 C121 1.278 . S
C123 O124 1.245 . S
C123 O135 1.232 . S
O124 C123 1.245 . S
O125 Co119 2.058 . S
O125 C151 1.269 . S
O126 Co118 2.074 . S
O126 C151 1.257 . S
H127 C152 0.930 . S
H128 C158 0.930 . S
O129 Co118 2.093 . S
O129 C121 1.224 . S
H130 C162 0.929 . S
H131 C164 0.930 . S
H132 C165 0.930 . S
H133 C163 0.929 . S
H134 C166 0.928 . S
O135 Co119 2.057 . S
O135 C123 1.232 . S
H136 C155 0.929 . S
H137 C156 0.929 . S
H138 C168 0.931 . S
H139 C160 0.929 . S
H140 C169 0.930 . S
H141 C161 0.931 . S
O142 Co118 2.097 . S
O142 C170 1.214 . S
H143 C171 0.929 . S
H144 C172 0.929 . S
H145 C173 0.930 . S
H146 C174 0.929 . S
H147 C176 0.930 . S
H148 C153 0.930 . S
H149 C157 0.930 . S
O150 Co119 2.037 . S
O150 C170 1.234 . S
C151 O125 1.269 . S
C151 O126 1.257 . S
C152 H127 0.930 . S
C152 C155 1.388 . S
C152 C157 1.418 . S
C153 H148 0.930 . S
C153 C156 1.404 . S
C153 C157 1.353 . S
N154 Co119 2.145 . S
N154 C155 1.397 . S
N154 C156 1.334 . S
C155 H136 0.929 . S
C155 C152 1.388 . S
C155 N154 1.397 . S
C156 H137 0.929 . S
C156 C153 1.404 . S
C156 N154 1.334 . S
C157 H149 0.930 . S
C157 C152 1.418 . S
C157 C153 1.353 . S
C158 H128 0.930 . S
C158 N159 1.330 . S
C158 C160 1.446 . S
N159 Co118 2.151 . S
N159 C158 1.330 . S
N159 C163 1.418 . S
C160 H139 0.929 . S
C160 C158 1.446 . S
C160 C161 1.332 . S
C161 H141 0.931 . S
C161 C160 1.332 . S
C161 C162 1.267 . S
C162 H130 0.929 . S
C162 C161 1.267 . S
C162 C163 1.251 . S
C163 H133 0.929 . S
C163 N159 1.418 . S
C163 C162 1.251 . S
C164 H131 0.930 . S
C164 C166 1.406 . S
C164 C169 1.261 . S
C165 H132 0.930 . S
C165 N167 1.325 . S
C165 C168 1.357 . S
C166 H134 0.928 . S
C166 C164 1.406 . S
C166 N167 1.261 . S
N167 Co118 2.214 . S
N167 C165 1.325 . S
N167 C166 1.261 . S
C168 H138 0.931 . S
C168 C165 1.357 . S
C168 C169 1.312 . S
C169 H140 0.930 . S
C169 C164 1.261 . S
C169 C168 1.312 . S
C170 O142 1.214 . S
C170 O150 1.234 . S
C171 H143 0.929 . S
C171 C174 1.391 . S
C171 C176 1.391 . S
C172 H144 0.929 . S
C172 C173 1.390 . S
C172 N175 1.391 . S
C173 H145 0.930 . S
C173 C172 1.390 . S
C173 C174 1.392 . S
C174 H146 0.929 . S
C174 C171 1.391 . S
C174 C173 1.392 . S
N175 Co119 2.257 . S
N175 C172 1.391 . S
N175 C176 1.388 . S
C176 H147 0.930 . S
C176 C171 1.391 . S
C176 N175 1.388 . S
Co177 O179 2.143 . S
Co177 O185 2.074 . S
Co177 O188 2.093 . S
Co177 O201 2.097 . S
Co177 N218 2.151 . S
Co177 N226 2.214 . S
Co178 O179 2.160 . S
Co178 O184 2.058 . S
Co178 O194 2.057 . S
Co178 O209 2.037 . S
Co178 N213 2.145 . S
Co178 N234 2.257 . S
O179 Co177 2.143 . S
O179 Co178 2.160 . S
C180 O181 1.278 . S
C180 O188 1.224 . S
O181 C180 1.278 . S
C182 O183 1.245 . S
C182 O194 1.232 . S
O183 C182 1.245 . S
O184 Co178 2.058 . S
O184 C210 1.269 . S
O185 Co177 2.074 . S
O185 C210 1.257 . S
H186 C211 0.930 . S
H187 C217 0.930 . S
O188 Co177 2.093 . S
O188 C180 1.224 . S
H189 C221 0.929 . S
H190 C223 0.930 . S
H191 C224 0.930 . S
H192 C222 0.929 . S
H193 C225 0.928 . S
O194 Co178 2.057 . S
O194 C182 1.232 . S
H195 C214 0.929 . S
H196 C215 0.929 . S
H197 C227 0.931 . S
H198 C219 0.929 . S
H199 C228 0.930 . S
H200 C220 0.931 . S
O201 Co177 2.097 . S
O201 C229 1.214 . S
H202 C230 0.929 . S
H203 C231 0.929 . S
H204 C232 0.930 . S
H205 C233 0.929 . S
H206 C235 0.930 . S
H207 C212 0.930 . S
H208 C216 0.930 . S
O209 Co178 2.037 . S
O209 C229 1.234 . S
C210 O184 1.269 . S
C210 O185 1.257 . S
C211 H186 0.930 . S
C211 C214 1.388 . S
C211 C216 1.418 . S
C212 H207 0.930 . S
C212 C215 1.404 . S
C212 C216 1.353 . S
N213 Co178 2.145 . S
N213 C214 1.397 . S
N213 C215 1.334 . S
C214 H195 0.929 . S
C214 C211 1.388 . S
C214 N213 1.397 . S
C215 H196 0.929 . S
C215 C212 1.404 . S
C215 N213 1.334 . S
C216 H208 0.930 . S
C216 C211 1.418 . S
C216 C212 1.353 . S
C217 H187 0.930 . S
C217 N218 1.330 . S
C217 C219 1.446 . S
N218 Co177 2.151 . S
N218 C217 1.330 . S
N218 C222 1.418 . S
C219 H198 0.929 . S
C219 C217 1.446 . S
C219 C220 1.332 . S
C220 H200 0.931 . S
C220 C219 1.332 . S
C220 C221 1.267 . S
C221 H189 0.929 . S
C221 C220 1.267 . S
C221 C222 1.251 . S
C222 H192 0.929 . S
C222 N218 1.418 . S
C222 C221 1.251 . S
C223 H190 0.930 . S
C223 C225 1.406 . S
C223 C228 1.261 . S
C224 H191 0.930 . S
C224 N226 1.325 . S
C224 C227 1.357 . S
C225 H193 0.928 . S
C225 C223 1.406 . S
C225 N226 1.261 . S
N226 Co177 2.214 . S
N226 C224 1.325 . S
N226 C225 1.261 . S
C227 H197 0.931 . S
C227 C224 1.357 . S
C227 C228 1.312 . S
C228 H199 0.930 . S
C228 C223 1.261 . S
C228 C227 1.312 . S
C229 O201 1.214 . S
C229 O209 1.234 . S
C230 H202 0.929 . S
C230 C233 1.391 . S
C230 C235 1.391 . S
C231 H203 0.929 . S
C231 C232 1.390 . S
C231 N234 1.391 . S
C232 H204 0.930 . S
C232 C231 1.390 . S
C232 C233 1.392 . S
C233 H205 0.929 . S
C233 C230 1.391 . S
C233 C232 1.392 . S
N234 Co178 2.257 . S
N234 C231 1.391 . S
N234 C235 1.388 . S
C235 H206 0.930 . S
C235 C230 1.391 . S
C235 N234 1.388 . S
Co236 O238 2.143 . S
Co236 O244 2.074 . S
Co236 O247 2.093 . S
Co236 O260 2.097 . S
Co236 N277 2.151 . S
Co236 N285 2.214 . S
Co237 O238 2.160 . S
Co237 O243 2.058 . S
Co237 O253 2.057 . S
Co237 O268 2.037 . S
Co237 N272 2.145 . S
Co237 N293 2.257 . S
O238 Co236 2.143 . S
O238 Co237 2.160 . S
C239 O240 1.278 . S
C239 O247 1.224 . S
O240 C239 1.278 . S
C241 O242 1.245 . S
C241 O253 1.232 . S
O242 C241 1.245 . S
O243 Co237 2.058 . S
O243 C269 1.269 . S
O244 Co236 2.074 . S
O244 C269 1.257 . S
H245 C270 0.930 . S
H246 C276 0.930 . S
O247 Co236 2.093 . S
O247 C239 1.224 . S
H248 C280 0.929 . S
H249 C282 0.930 . S
H250 C283 0.930 . S
H251 C281 0.929 . S
H252 C284 0.928 . S
O253 Co237 2.057 . S
O253 C241 1.232 . S
H254 C273 0.929 . S
H255 C274 0.929 . S
H256 C286 0.931 . S
H257 C278 0.929 . S
H258 C287 0.930 . S
H259 C279 0.931 . S
O260 Co236 2.097 . S
O260 C288 1.214 . S
H261 C289 0.929 . S
H262 C290 0.929 . S
H263 C291 0.930 . S
H264 C292 0.929 . S
H265 C294 0.930 . S
H266 C271 0.930 . S
H267 C275 0.930 . S
O268 Co237 2.037 . S
O268 C288 1.234 . S
C269 O243 1.269 . S
C269 O244 1.257 . S
C270 H245 0.930 . S
C270 C273 1.388 . S
C270 C275 1.418 . S
C271 H266 0.930 . S
C271 C274 1.404 . S
C271 C275 1.353 . S
N272 Co237 2.145 . S
N272 C273 1.397 . S
N272 C274 1.334 . S
C273 H254 0.929 . S
C273 C270 1.388 . S
C273 N272 1.397 . S
C274 H255 0.929 . S
C274 C271 1.404 . S
C274 N272 1.334 . S
C275 H267 0.930 . S
C275 C270 1.418 . S
C275 C271 1.353 . S
C276 H246 0.930 . S
C276 N277 1.330 . S
C276 C278 1.446 . S
N277 Co236 2.151 . S
N277 C276 1.330 . S
N277 C281 1.418 . S
C278 H257 0.929 . S
C278 C276 1.446 . S
C278 C279 1.332 . S
C279 H259 0.931 . S
C279 C278 1.332 . S
C279 C280 1.267 . S
C280 H248 0.929 . S
C280 C279 1.267 . S
C280 C281 1.251 . S
C281 H251 0.929 . S
C281 N277 1.418 . S
C281 C280 1.251 . S
C282 H249 0.930 . S
C282 C284 1.406 . S
C282 C287 1.261 . S
C283 H250 0.930 . S
C283 N285 1.325 . S
C283 C286 1.357 . S
C284 H252 0.928 . S
C284 C282 1.406 . S
C284 N285 1.261 . S
N285 Co236 2.214 . S
N285 C283 1.325 . S
N285 C284 1.261 . S
C286 H256 0.931 . S
C286 C283 1.357 . S
C286 C287 1.312 . S
C287 H258 0.930 . S
C287 C282 1.261 . S
C287 C286 1.312 . S
C288 O260 1.214 . S
C288 O268 1.234 . S
C289 H261 0.929 . S
C289 C292 1.391 . S
C289 C294 1.391 . S
C290 H262 0.929 . S
C290 C291 1.390 . S
C290 N293 1.391 . S
C291 H263 0.930 . S
C291 C290 1.390 . S
C291 C292 1.392 . S
C292 H264 0.929 . S
C292 C289 1.391 . S
C292 C291 1.392 . S
N293 Co237 2.257 . S
N293 C290 1.391 . S
N293 C294 1.388 . S
C294 H265 0.930 . S
C294 C289 1.391 . S
C294 N293 1.388 . S
Co295 O297 2.143 . S
Co295 O303 2.074 . S
Co295 O306 2.093 . S
Co295 O319 2.097 . S
Co295 N336 2.151 . S
Co295 N344 2.214 . S
Co296 O297 2.160 . S
Co296 O302 2.058 . S
Co296 O312 2.057 . S
Co296 O327 2.037 . S
Co296 N331 2.145 . S
Co296 N352 2.257 . S
O297 Co295 2.143 . S
O297 Co296 2.160 . S
C298 O299 1.278 . S
C298 O306 1.224 . S
O299 C298 1.278 . S
C300 O301 1.245 . S
C300 O312 1.232 . S
O301 C300 1.245 . S
O302 Co296 2.058 . S
O302 C328 1.269 . S
O303 Co295 2.074 . S
O303 C328 1.257 . S
H304 C329 0.930 . S
H305 C335 0.930 . S
O306 Co295 2.093 . S
O306 C298 1.224 . S
H307 C339 0.929 . S
H308 C341 0.930 . S
H309 C342 0.930 . S
H310 C340 0.929 . S
H311 C343 0.928 . S
O312 Co296 2.057 . S
O312 C300 1.232 . S
H313 C332 0.929 . S
H314 C333 0.929 . S
H315 C345 0.931 . S
H316 C337 0.929 . S
H317 C346 0.930 . S
H318 C338 0.931 . S
O319 Co295 2.097 . S
O319 C347 1.214 . S
H320 C348 0.929 . S
H321 C349 0.929 . S
H322 C350 0.930 . S
H323 C351 0.929 . S
H324 C353 0.930 . S
H325 C330 0.930 . S
H326 C334 0.930 . S
O327 Co296 2.037 . S
O327 C347 1.234 . S
C328 O302 1.269 . S
C328 O303 1.257 . S
C329 H304 0.930 . S
C329 C332 1.388 . S
C329 C334 1.418 . S
C330 H325 0.930 . S
C330 C333 1.404 . S
C330 C334 1.353 . S
N331 Co296 2.145 . S
N331 C332 1.397 . S
N331 C333 1.334 . S
C332 H313 0.929 . S
C332 C329 1.388 . S
C332 N331 1.397 . S
C333 H314 0.929 . S
C333 C330 1.404 . S
C333 N331 1.334 . S
C334 H326 0.930 . S
C334 C329 1.418 . S
C334 C330 1.353 . S
C335 H305 0.930 . S
C335 N336 1.330 . S
C335 C337 1.446 1_556 S
N336 Co295 2.151 . S
N336 C335 1.330 . S
N336 C340 1.418 1_556 S
C337 H316 0.929 . S
C337 C335 1.446 1_554 S
C337 C338 1.332 . S
C338 H318 0.931 . S
C338 C337 1.332 . S
C338 C339 1.267 . S
C339 H307 0.929 . S
C339 C338 1.267 . S
C339 C340 1.251 . S
C340 H310 0.929 . S
C340 N336 1.418 1_554 S
C340 C339 1.251 . S
C341 H308 0.930 . S
C341 C343 1.406 . S
C341 C346 1.261 . S
C342 H309 0.930 . S
C342 N344 1.325 . S
C342 C345 1.357 . S
C343 H311 0.928 . S
C343 C341 1.406 . S
C343 N344 1.261 . S
N344 Co295 2.214 . S
N344 C342 1.325 . S
N344 C343 1.261 . S
C345 H315 0.931 . S
C345 C342 1.357 . S
C345 C346 1.312 . S
C346 H317 0.930 . S
C346 C341 1.261 . S
C346 C345 1.312 . S
C347 O319 1.214 . S
C347 O327 1.234 . S
C348 H320 0.929 . S
C348 C351 1.391 . S
C348 C353 1.391 . S
C349 H321 0.929 . S
C349 C350 1.390 . S
C349 N352 1.391 . S
C350 H322 0.930 . S
C350 C349 1.390 . S
C350 C351 1.392 . S
C351 H323 0.929 . S
C351 C348 1.391 . S
C351 C350 1.392 . S
N352 Co296 2.257 . S
N352 C349 1.391 . S
N352 C353 1.388 . S
C353 H324 0.930 . S
C353 C348 1.391 . S
C353 N352 1.388 . S
Co354 O356 2.143 . S
Co354 O362 2.074 . S
Co354 O365 2.093 . S
Co354 O378 2.097 . S
Co354 N395 2.151 . S
Co354 N403 2.214 . S
Co355 O356 2.160 . S
Co355 O361 2.058 . S
Co355 O371 2.057 . S
Co355 O386 2.037 . S
Co355 N390 2.145 . S
Co355 N411 2.257 . S
O356 Co354 2.143 . S
O356 Co355 2.160 . S
C357 O358 1.278 . S
C357 O365 1.224 . S
O358 C357 1.278 . S
C359 O360 1.245 . S
C359 O371 1.232 . S
O360 C359 1.245 . S
O361 Co355 2.058 . S
O361 C387 1.269 . S
O362 Co354 2.074 . S
O362 C387 1.257 . S
H363 C388 0.930 . S
H364 C394 0.930 . S
O365 Co354 2.093 . S
O365 C357 1.224 . S
H366 C398 0.929 . S
H367 C400 0.930 . S
H368 C401 0.930 . S
H369 C399 0.929 . S
H370 C402 0.928 . S
O371 Co355 2.057 . S
O371 C359 1.232 . S
H372 C391 0.929 . S
H373 C392 0.929 . S
H374 C404 0.931 . S
H375 C396 0.929 . S
H376 C405 0.930 . S
H377 C397 0.931 . S
O378 Co354 2.097 . S
O378 C406 1.214 . S
H379 C407 0.929 . S
H380 C408 0.929 . S
H381 C409 0.930 . S
H382 C410 0.929 . S
H383 C412 0.930 . S
H384 C389 0.930 . S
H385 C393 0.930 . S
O386 Co355 2.037 . S
O386 C406 1.234 . S
C387 O361 1.269 . S
C387 O362 1.257 . S
C388 H363 0.930 . S
C388 C391 1.388 . S
C388 C393 1.418 . S
C389 H384 0.930 . S
C389 C392 1.404 . S
C389 C393 1.353 . S
N390 Co355 2.145 . S
N390 C391 1.397 . S
N390 C392 1.334 . S
C391 H372 0.929 . S
C391 C388 1.388 . S
C391 N390 1.397 . S
C392 H373 0.929 . S
C392 C389 1.404 . S
C392 N390 1.334 . S
C393 H385 0.930 . S
C393 C388 1.418 . S
C393 C389 1.353 . S
C394 H364 0.930 . S
C394 N395 1.330 . S
C394 C396 1.446 1_556 S
N395 Co354 2.151 . S
N395 C394 1.330 . S
N395 C399 1.418 1_556 S
C396 H375 0.929 . S
C396 C394 1.446 1_554 S
C396 C397 1.332 . S
C397 H377 0.931 . S
C397 C396 1.332 . S
C397 C398 1.267 . S
C398 H366 0.929 . S
C398 C397 1.267 . S
C398 C399 1.251 . S
C399 H369 0.929 . S
C399 N395 1.418 1_554 S
C399 C398 1.251 . S
C400 H367 0.930 . S
C400 C402 1.406 . S
C400 C405 1.261 . S
C401 H368 0.930 . S
C401 N403 1.325 . S
C401 C404 1.357 . S
C402 H370 0.928 . S
C402 C400 1.406 . S
C402 N403 1.261 . S
N403 Co354 2.214 . S
N403 C401 1.325 . S
N403 C402 1.261 . S
C404 H374 0.931 . S
C404 C401 1.357 . S
C404 C405 1.312 . S
C405 H376 0.930 . S
C405 C400 1.261 . S
C405 C404 1.312 . S
C406 O378 1.214 . S
C406 O386 1.234 . S
C407 H379 0.929 . S
C407 C410 1.391 . S
C407 C412 1.391 . S
C408 H380 0.929 . S
C408 C409 1.390 . S
C408 N411 1.391 . S
C409 H381 0.930 . S
C409 C408 1.390 . S
C409 C410 1.392 . S
C410 H382 0.929 . S
C410 C407 1.391 . S
C410 C409 1.392 . S
N411 Co355 2.257 . S
N411 C408 1.391 . S
N411 C412 1.388 . S
C412 H383 0.930 . S
C412 C407 1.391 . S
C412 N411 1.388 . S
Co413 O415 2.143 . S
Co413 O421 2.074 . S
Co413 O424 2.093 . S
Co413 O437 2.097 1_554 S
Co413 N454 2.151 . S
Co413 N462 2.214 . S
Co414 O415 2.160 . S
Co414 O420 2.058 . S
Co414 O430 2.057 . S
Co414 O445 2.037 1_554 S
Co414 N449 2.145 . S
Co414 N470 2.257 1_554 S
O415 Co413 2.143 . S
O415 Co414 2.160 . S
C416 O417 1.278 . S
C416 O424 1.224 1_556 S
O417 C416 1.278 . S
C418 O419 1.245 . S
C418 O430 1.232 . S
O419 C418 1.245 . S
O420 Co414 2.058 . S
O420 C446 1.269 . S
O421 Co413 2.074 . S
O421 C446 1.257 . S
H422 C447 0.930 1_556 S
H423 C453 0.930 . S
O424 Co413 2.093 . S
O424 C416 1.224 1_554 S
H425 C457 0.929 . S
H426 C459 0.930 . S
H427 C460 0.930 . S
H428 C458 0.929 . S
H429 C461 0.928 . S
O430 Co414 2.057 . S
O430 C418 1.232 . S
H431 C450 0.929 . S
H432 C451 0.929 . S
H433 C463 0.931 . S
H434 C455 0.929 . S
H435 C464 0.930 . S
H436 C456 0.931 . S
O437 Co413 2.097 1_556 S
O437 C465 1.214 . S
H438 C466 0.929 . S
H439 C467 0.929 . S
H440 C468 0.930 . S
H441 C469 0.929 . S
H442 C471 0.930 . S
H443 C448 0.930 . S
H444 C452 0.930 1_556 S
O445 Co414 2.037 1_556 S
O445 C465 1.234 . S
C446 O420 1.269 . S
C446 O421 1.257 . S
C447 H422 0.930 1_554 S
C447 C450 1.388 . S
C447 C452 1.418 . S
C448 H443 0.930 . S
C448 C451 1.404 . S
C448 C452 1.353 . S
N449 Co414 2.145 . S
N449 C450 1.397 . S
N449 C451 1.334 . S
C450 H431 0.929 . S
C450 C447 1.388 . S
C450 N449 1.397 . S
C451 H432 0.929 . S
C451 C448 1.404 . S
C451 N449 1.334 . S
C452 H444 0.930 1_554 S
C452 C447 1.418 . S
C452 C448 1.353 . S
C453 H423 0.930 . S
C453 N454 1.330 . S
C453 C455 1.446 . S
N454 Co413 2.151 . S
N454 C453 1.330 . S
N454 C458 1.418 . S
C455 H434 0.929 . S
C455 C453 1.446 . S
C455 C456 1.332 . S
C456 H436 0.931 . S
C456 C455 1.332 . S
C456 C457 1.267 . S
C457 H425 0.929 . S
C457 C456 1.267 . S
C457 C458 1.251 . S
C458 H428 0.929 . S
C458 N454 1.418 . S
C458 C457 1.251 . S
C459 H426 0.930 . S
C459 C461 1.406 . S
C459 C464 1.261 . S
C460 H427 0.930 . S
C460 N462 1.325 . S
C460 C463 1.357 . S
C461 H429 0.928 . S
C461 C459 1.406 . S
C461 N462 1.261 . S
N462 Co413 2.214 . S
N462 C460 1.325 . S
N462 C461 1.261 . S
C463 H433 0.931 . S
C463 C460 1.357 . S
C463 C464 1.312 . S
C464 H435 0.930 . S
C464 C459 1.261 . S
C464 C463 1.312 . S
C465 O437 1.214 . S
C465 O445 1.234 . S
C466 H438 0.929 . S
C466 C469 1.391 . S
C466 C471 1.391 . S
C467 H439 0.929 . S
C467 C468 1.390 . S
C467 N470 1.391 . S
C468 H440 0.930 . S
C468 C467 1.390 . S
C468 C469 1.392 . S
C469 H441 0.929 . S
C469 C466 1.391 . S
C469 C468 1.392 . S
N470 Co414 2.257 1_556 S
N470 C467 1.391 . S
N470 C471 1.388 . S
C471 H442 0.930 . S
C471 C466 1.391 . S
C471 N470 1.388 . S
Co472 O474 2.143 . S
Co472 O480 2.074 . S
Co472 O483 2.093 . S
Co472 O496 2.097 . S
Co472 N513 2.151 . S
Co472 N521 2.214 . S
Co473 O474 2.160 . S
Co473 O479 2.058 . S
Co473 O489 2.057 . S
Co473 O504 2.037 . S
Co473 N508 2.145 . S
Co473 N529 2.257 . S
O474 Co472 2.143 . S
O474 Co473 2.160 . S
C475 O476 1.278 . S
C475 O483 1.224 . S
O476 C475 1.278 . S
C477 O478 1.245 . S
C477 O489 1.232 . S
O478 C477 1.245 . S
O479 Co473 2.058 . S
O479 C505 1.269 . S
O480 Co472 2.074 . S
O480 C505 1.257 . S
H481 C506 0.930 . S
H482 C512 0.930 . S
O483 Co472 2.093 . S
O483 C475 1.224 . S
H484 C516 0.929 . S
H485 C518 0.930 . S
H486 C519 0.930 . S
H487 C517 0.929 . S
H488 C520 0.928 . S
O489 Co473 2.057 . S
O489 C477 1.232 . S
H490 C509 0.929 . S
H491 C510 0.929 . S
H492 C522 0.931 . S
H493 C514 0.929 . S
H494 C523 0.930 . S
H495 C515 0.931 . S
O496 Co472 2.097 . S
O496 C524 1.214 . S
H497 C525 0.929 . S
H498 C526 0.929 . S
H499 C527 0.930 . S
H500 C528 0.929 . S
H501 C530 0.930 . S
H502 C507 0.930 . S
H503 C511 0.930 . S
O504 Co473 2.037 . S
O504 C524 1.234 . S
C505 O479 1.269 . S
C505 O480 1.257 . S
C506 H481 0.930 . S
C506 C509 1.388 . S
C506 C511 1.418 . S
C507 H502 0.930 . S
C507 C510 1.404 . S
C507 C511 1.353 . S
N508 Co473 2.145 . S
N508 C509 1.397 . S
N508 C510 1.334 . S
C509 H490 0.929 . S
C509 C506 1.388 . S
C509 N508 1.397 . S
C510 H491 0.929 . S
C510 C507 1.404 . S
C510 N508 1.334 . S
C511 H503 0.930 . S
C511 C506 1.418 . S
C511 C507 1.353 . S
C512 H482 0.930 . S
C512 N513 1.330 . S
C512 C514 1.446 . S
N513 Co472 2.151 . S
N513 C512 1.330 . S
N513 C517 1.418 . S
C514 H493 0.929 . S
C514 C512 1.446 . S
C514 C515 1.332 . S
C515 H495 0.931 . S
C515 C514 1.332 . S
C515 C516 1.267 . S
C516 H484 0.929 . S
C516 C515 1.267 . S
C516 C517 1.251 . S
C517 H487 0.929 . S
C517 N513 1.418 . S
C517 C516 1.251 . S
C518 H485 0.930 . S
C518 C520 1.406 . S
C518 C523 1.261 . S
C519 H486 0.930 . S
C519 N521 1.325 . S
C519 C522 1.357 . S
C520 H488 0.928 . S
C520 C518 1.406 . S
C520 N521 1.261 . S
N521 Co472 2.214 . S
N521 C519 1.325 . S
N521 C520 1.261 . S
C522 H492 0.931 . S
C522 C519 1.357 . S
C522 C523 1.312 . S
C523 H494 0.930 . S
C523 C518 1.261 . S
C523 C522 1.312 . S
C524 O496 1.214 . S
C524 O504 1.234 . S
C525 H497 0.929 . S
C525 C528 1.391 . S
C525 C530 1.391 . S
C526 H498 0.929 . S
C526 C527 1.390 . S
C526 N529 1.391 . S
C527 H499 0.930 . S
C527 C526 1.390 . S
C527 C528 1.392 . S
C528 H500 0.929 . S
C528 C525 1.391 . S
C528 C527 1.392 . S
N529 Co473 2.257 . S
N529 C526 1.391 . S
N529 C530 1.388 . S
C530 H501 0.930 . S
C530 C525 1.391 . S
C530 N529 1.388 . S
Co531 O533 2.143 . S
Co531 O539 2.074 . S
Co531 O542 2.093 . S
Co531 O555 2.097 . S
Co531 N572 2.151 . S
Co531 N580 2.214 . S
Co532 O533 2.160 . S
Co532 O538 2.058 . S
Co532 O548 2.057 . S
Co532 O563 2.037 . S
Co532 N567 2.145 . S
Co532 N588 2.257 . S
O533 Co531 2.143 . S
O533 Co532 2.160 . S
C534 O535 1.278 . S
C534 O542 1.224 . S
O535 C534 1.278 . S
C536 O537 1.245 . S
C536 O548 1.232 . S
O537 C536 1.245 . S
O538 Co532 2.058 . S
O538 C564 1.269 . S
O539 Co531 2.074 . S
O539 C564 1.257 . S
H540 C565 0.930 . S
H541 C571 0.930 . S
O542 Co531 2.093 . S
O542 C534 1.224 . S
H543 C575 0.929 . S
H544 C577 0.930 . S
H545 C578 0.930 . S
H546 C576 0.929 . S
H547 C579 0.928 . S
O548 Co532 2.057 . S
O548 C536 1.232 . S
H549 C568 0.929 . S
H550 C569 0.929 . S
H551 C581 0.931 . S
H552 C573 0.929 . S
H553 C582 0.930 . S
H554 C574 0.931 . S
O555 Co531 2.097 . S
O555 C583 1.214 . S
H556 C584 0.929 . S
H557 C585 0.929 . S
H558 C586 0.930 . S
H559 C587 0.929 . S
H560 C589 0.930 . S
H561 C566 0.930 . S
H562 C570 0.930 . S
O563 Co532 2.037 . S
O563 C583 1.234 . S
C564 O538 1.269 . S
C564 O539 1.257 . S
C565 H540 0.930 . S
C565 C568 1.388 . S
C565 C570 1.418 . S
C566 H561 0.930 . S
C566 C569 1.404 . S
C566 C570 1.353 . S
N567 Co532 2.145 . S
N567 C568 1.397 . S
N567 C569 1.334 . S
C568 H549 0.929 . S
C568 C565 1.388 . S
C568 N567 1.397 . S
C569 H550 0.929 . S
C569 C566 1.404 . S
C569 N567 1.334 . S
C570 H562 0.930 . S
C570 C565 1.418 . S
C570 C566 1.353 . S
C571 H541 0.930 . S
C571 N572 1.330 . S
C571 C573 1.446 . S
N572 Co531 2.151 . S
N572 C571 1.330 . S
N572 C576 1.418 . S
C573 H552 0.929 . S
C573 C571 1.446 . S
C573 C574 1.332 . S
C574 H554 0.931 . S
C574 C573 1.332 . S
C574 C575 1.267 . S
C575 H543 0.929 . S
C575 C574 1.267 . S
C575 C576 1.251 . S
C576 H546 0.929 . S
C576 N572 1.418 . S
C576 C575 1.251 . S
C577 H544 0.930 . S
C577 C579 1.406 . S
C577 C582 1.261 . S
C578 H545 0.930 . S
C578 N580 1.325 . S
C578 C581 1.357 . S
C579 H547 0.928 . S
C579 C577 1.406 . S
C579 N580 1.261 . S
N580 Co531 2.214 . S
N580 C578 1.325 . S
N580 C579 1.261 . S
C581 H551 0.931 . S
C581 C578 1.357 . S
C581 C582 1.312 . S
C582 H553 0.930 . S
C582 C577 1.261 . S
C582 C581 1.312 . S
C583 O555 1.214 . S
C583 O563 1.234 . S
C584 H556 0.929 . S
C584 C587 1.391 . S
C584 C589 1.391 . S
C585 H557 0.929 . S
C585 C586 1.390 . S
C585 N588 1.391 . S
C586 H558 0.930 . S
C586 C585 1.390 . S
C586 C587 1.392 . S
C587 H559 0.929 . S
C587 C584 1.391 . S
C587 C586 1.392 . S
N588 Co532 2.257 . S
N588 C585 1.391 . S
N588 C589 1.388 . S
C589 H560 0.930 . S
C589 C584 1.391 . S
C589 N588 1.388 . S
Co590 O592 2.143 . S
Co590 O598 2.074 . S
Co590 O601 2.093 . S
Co590 O614 2.097 . S
Co590 N631 2.151 . S
Co590 N639 2.214 . S
Co591 O592 2.160 . S
Co591 O597 2.058 . S
Co591 O607 2.057 . S
Co591 O622 2.037 . S
Co591 N626 2.145 . S
Co591 N647 2.257 . S
O592 Co590 2.143 . S
O592 Co591 2.160 . S
C593 O594 1.278 . S
C593 O601 1.224 . S
O594 C593 1.278 . S
C595 O596 1.245 . S
C595 O607 1.232 . S
O596 C595 1.245 . S
O597 Co591 2.058 . S
O597 C623 1.269 . S
O598 Co590 2.074 . S
O598 C623 1.257 . S
H599 C624 0.930 . S
H600 C630 0.930 . S
O601 Co590 2.093 . S
O601 C593 1.224 . S
H602 C634 0.929 . S
H603 C636 0.930 . S
H604 C637 0.930 . S
H605 C635 0.929 . S
H606 C638 0.928 . S
O607 Co591 2.057 . S
O607 C595 1.232 . S
H608 C627 0.929 . S
H609 C628 0.929 . S
H610 C640 0.931 . S
H611 C632 0.929 . S
H612 C641 0.930 . S
H613 C633 0.931 . S
O614 Co590 2.097 . S
O614 C642 1.214 . S
H615 C643 0.929 . S
H616 C644 0.929 . S
H617 C645 0.930 . S
H618 C646 0.929 . S
H619 C648 0.930 . S
H620 C625 0.930 . S
H621 C629 0.930 . S
O622 Co591 2.037 . S
O622 C642 1.234 . S
C623 O597 1.269 . S
C623 O598 1.257 . S
C624 H599 0.930 . S
C624 C627 1.388 . S
C624 C629 1.418 . S
C625 H620 0.930 . S
C625 C628 1.404 . S
C625 C629 1.353 . S
N626 Co591 2.145 . S
N626 C627 1.397 . S
N626 C628 1.334 . S
C627 H608 0.929 . S
C627 C624 1.388 . S
C627 N626 1.397 . S
C628 H609 0.929 . S
C628 C625 1.404 . S
C628 N626 1.334 . S
C629 H621 0.930 . S
C629 C624 1.418 . S
C629 C625 1.353 . S
C630 H600 0.930 . S
C630 N631 1.330 . S
C630 C632 1.446 . S
N631 Co590 2.151 . S
N631 C630 1.330 . S
N631 C635 1.418 . S
C632 H611 0.929 . S
C632 C630 1.446 . S
C632 C633 1.332 . S
C633 H613 0.931 . S
C633 C632 1.332 . S
C633 C634 1.267 . S
C634 H602 0.929 . S
C634 C633 1.267 . S
C634 C635 1.251 . S
C635 H605 0.929 . S
C635 N631 1.418 . S
C635 C634 1.251 . S
C636 H603 0.930 . S
C636 C638 1.406 . S
C636 C641 1.261 . S
C637 H604 0.930 . S
C637 N639 1.325 . S
C637 C640 1.357 . S
C638 H606 0.928 . S
C638 C636 1.406 . S
C638 N639 1.261 . S
N639 Co590 2.214 . S
N639 C637 1.325 . S
N639 C638 1.261 . S
C640 H610 0.931 . S
C640 C637 1.357 . S
C640 C641 1.312 . S
C641 H612 0.930 . S
C641 C636 1.261 . S
C641 C640 1.312 . S
C642 O614 1.214 . S
C642 O622 1.234 . S
C643 H615 0.929 . S
C643 C646 1.391 . S
C643 C648 1.391 . S
C644 H616 0.929 . S
C644 C645 1.390 . S
C644 N647 1.391 . S
C645 H617 0.930 . S
C645 C644 1.390 . S
C645 C646 1.392 . S
C646 H618 0.929 . S
C646 C643 1.391 . S
C646 C645 1.392 . S
N647 Co591 2.257 . S
N647 C644 1.391 . S
N647 C648 1.388 . S
C648 H619 0.930 . S
C648 C643 1.391 . S
C648 N647 1.388 . S
Co649 O651 2.143 . S
Co649 O657 2.074 . S
Co649 O660 2.093 . S
Co649 O673 2.097 . S
Co649 N690 2.151 . S
Co649 N698 2.214 . S
Co650 O651 2.160 . S
Co650 O656 2.058 . S
Co650 O666 2.057 . S
Co650 O681 2.037 . S
Co650 N685 2.145 . S
Co650 N706 2.257 . S
O651 Co649 2.143 . S
O651 Co650 2.160 . S
C652 O653 1.278 . S
C652 O660 1.224 . S
O653 C652 1.278 . S
C654 O655 1.245 . S
C654 O666 1.232 . S
O655 C654 1.245 . S
O656 Co650 2.058 . S
O656 C682 1.269 . S
O657 Co649 2.074 . S
O657 C682 1.257 . S
H658 C683 0.930 . S
H659 C689 0.930 . S
O660 Co649 2.093 . S
O660 C652 1.224 . S
H661 C693 0.929 . S
H662 C695 0.930 . S
H663 C696 0.930 . S
H664 C694 0.929 . S
H665 C697 0.928 . S
O666 Co650 2.057 . S
O666 C654 1.232 . S
H667 C686 0.929 . S
H668 C687 0.929 . S
H669 C699 0.931 . S
H670 C691 0.929 . S
H671 C700 0.930 . S
H672 C692 0.931 . S
O673 Co649 2.097 . S
O673 C701 1.214 . S
H674 C702 0.929 . S
H675 C703 0.929 . S
H676 C704 0.930 . S
H677 C705 0.929 . S
H678 C707 0.930 . S
H679 C684 0.930 . S
H680 C688 0.930 . S
O681 Co650 2.037 . S
O681 C701 1.234 . S
C682 O656 1.269 . S
C682 O657 1.257 . S
C683 H658 0.930 . S
C683 C686 1.388 . S
C683 C688 1.418 . S
C684 H679 0.930 . S
C684 C687 1.404 . S
C684 C688 1.353 . S
N685 Co650 2.145 . S
N685 C686 1.397 . S
N685 C687 1.334 . S
C686 H667 0.929 . S
C686 C683 1.388 . S
C686 N685 1.397 . S
C687 H668 0.929 . S
C687 C684 1.404 . S
C687 N685 1.334 . S
C688 H680 0.930 . S
C688 C683 1.418 . S
C688 C684 1.353 . S
C689 H659 0.930 . S
C689 N690 1.330 . S
C689 C691 1.446 . S
N690 Co649 2.151 . S
N690 C689 1.330 . S
N690 C694 1.418 . S
C691 H670 0.929 . S
C691 C689 1.446 . S
C691 C692 1.332 . S
C692 H672 0.931 . S
C692 C691 1.332 . S
C692 C693 1.267 . S
C693 H661 0.929 . S
C693 C692 1.267 . S
C693 C694 1.251 . S
C694 H664 0.929 . S
C694 N690 1.418 . S
C694 C693 1.251 . S
C695 H662 0.930 . S
C695 C697 1.406 . S
C695 C700 1.261 . S
C696 H663 0.930 . S
C696 N698 1.325 . S
C696 C699 1.357 . S
C697 H665 0.928 . S
C697 C695 1.406 . S
C697 N698 1.261 . S
N698 Co649 2.214 . S
N698 C696 1.325 . S
N698 C697 1.261 . S
C699 H669 0.931 . S
C699 C696 1.357 . S
C699 C700 1.312 . S
C700 H671 0.930 . S
C700 C695 1.261 . S
C700 C699 1.312 . S
C701 O673 1.214 . S
C701 O681 1.234 . S
C702 H674 0.929 . S
C702 C705 1.391 . S
C702 C707 1.391 . S
C703 H675 0.929 . S
C703 C704 1.390 . S
C703 N706 1.391 . S
C704 H676 0.930 . S
C704 C703 1.390 . S
C704 C705 1.392 . S
C705 H677 0.929 . S
C705 C702 1.391 . S
C705 C704 1.392 . S
N706 Co650 2.257 . S
N706 C703 1.391 . S
N706 C707 1.388 . S
C707 H678 0.930 . S
C707 C702 1.391 . S
C707 N706 1.388 . S
H708 C714 0.930 . S
H709 C718 0.930 . S
H710 C723 0.929 . S
H711 C721 0.929 . S
H712 C716 0.929 . S
H713 C722 0.929 . S
C714 H708 0.930 . S
C714 C715 1.367 . S
C714 C722 1.378 . S
C715 C714 1.367 . S
C715 C723 1.433 . S
C716 H712 0.929 . S
C716 C718 1.378 . S
C716 C720 1.350 . S
C717 C720 1.463 . S
C717 C722 1.350 . S
C717 N725 1.427 . S
C718 H709 0.930 . S
C718 C716 1.378 . S
C718 C719 1.367 . S
C719 C718 1.367 . S
C719 C721 1.433 . S
C720 C716 1.350 . S
C720 C717 1.463 . S
C720 N724 1.427 . S
C721 H711 0.929 . S
C721 C719 1.433 . S
C721 N724 1.384 . S
C722 H713 0.929 . S
C722 C714 1.378 . S
C722 C717 1.350 . S
C723 H710 0.929 . S
C723 C715 1.433 . S
C723 N725 1.384 . S
N724 C720 1.427 . S
N724 C721 1.384 . S
N725 C717 1.427 . S
N725 C723 1.384 . S
H726 C732 0.930 . S
H727 C736 0.930 . S
H728 C741 0.929 . S
H729 C739 0.929 . S
H730 C734 0.929 . S
H731 C740 0.929 . S
C732 H726 0.930 . S
C732 C733 1.367 . S
C732 C740 1.378 . S
C733 C732 1.367 . S
C733 C741 1.433 . S
C734 H730 0.929 . S
C734 C736 1.378 . S
C734 C738 1.350 . S
C735 C738 1.463 . S
C735 C740 1.350 . S
C735 N743 1.427 . S
C736 H727 0.930 . S
C736 C734 1.378 . S
C736 C737 1.367 . S
C737 C736 1.367 . S
C737 C739 1.433 . S
C738 C734 1.350 . S
C738 C735 1.463 . S
C738 N742 1.427 . S
C739 H729 0.929 . S
C739 C737 1.433 . S
C739 N742 1.384 . S
C740 H731 0.929 . S
C740 C732 1.378 . S
C740 C735 1.350 . S
C741 H728 0.929 . S
C741 C733 1.433 . S
C741 N743 1.384 . S
N742 C738 1.427 . S
N742 C739 1.384 . S
N743 C735 1.427 . S
N743 C741 1.384 . S
H744 C750 0.930 . S
H745 C754 0.930 . S
H746 C759 0.929 . S
H747 C757 0.929 . S
H748 C752 0.929 . S
H749 C758 0.929 . S
C750 H744 0.930 . S
C750 C751 1.367 . S
C750 C758 1.378 . S
C751 C750 1.367 . S
C751 C759 1.433 . S
C752 H748 0.929 . S
C752 C754 1.378 . S
C752 C756 1.350 . S
C753 C756 1.463 . S
C753 C758 1.350 . S
C753 N761 1.427 . S
C754 H745 0.930 . S
C754 C752 1.378 . S
C754 C755 1.367 . S
C755 C754 1.367 . S
C755 C757 1.433 . S
C756 C752 1.350 . S
C756 C753 1.463 . S
C756 N760 1.427 . S
C757 H747 0.929 . S
C757 C755 1.433 . S
C757 N760 1.384 . S
C758 H749 0.929 . S
C758 C750 1.378 . S
C758 C753 1.350 . S
C759 H746 0.929 . S
C759 C751 1.433 . S
C759 N761 1.384 . S
N760 C756 1.427 . S
N760 C757 1.384 . S
N761 C753 1.427 . S
N761 C759 1.384 . S
H762 C768 0.930 . S
H763 C772 0.930 . S
H764 C777 0.929 . S
H765 C775 0.929 . S
H766 C770 0.929 . S
H767 C776 0.929 . S
C768 H762 0.930 . S
C768 C769 1.367 . S
C768 C776 1.378 . S
C769 C768 1.367 . S
C769 C777 1.433 . S
C770 H766 0.929 . S
C770 C772 1.378 . S
C770 C774 1.350 . S
C771 C774 1.463 . S
C771 C776 1.350 . S
C771 N779 1.427 . S
C772 H763 0.930 . S
C772 C770 1.378 . S
C772 C773 1.367 . S
C773 C772 1.367 . S
C773 C775 1.433 . S
C774 C770 1.350 . S
C774 C771 1.463 . S
C774 N778 1.427 . S
C775 H765 0.929 . S
C775 C773 1.433 . S
C775 N778 1.384 . S
C776 H767 0.929 . S
C776 C768 1.378 . S
C776 C771 1.350 . S
C777 H764 0.929 . S
C777 C769 1.433 . S
C777 N779 1.384 . S
N778 C774 1.427 . S
N778 C775 1.384 . S
N779 C771 1.427 . S
N779 C777 1.384 . S
H780 C786 0.930 . S
H781 C790 0.930 . S
H782 C795 0.929 . S
H783 C793 0.929 . S
H784 C788 0.929 . S
H785 C794 0.929 . S
C786 H780 0.930 . S
C786 C787 1.367 . S
C786 C794 1.378 . S
C787 C786 1.367 . S
C787 C795 1.433 . S
C788 H784 0.929 . S
C788 C790 1.378 . S
C788 C792 1.350 1_554 S
C789 C792 1.463 . S
C789 C794 1.350 . S
C789 N797 1.427 . S
C790 H781 0.930 . S
C790 C788 1.378 . S
C790 C791 1.367 . S
C791 C790 1.367 . S
C791 C793 1.433 . S
C792 C788 1.350 1_556 S
C792 C789 1.463 . S
C792 N796 1.427 1_556 S
C793 H783 0.929 . S
C793 C791 1.433 . S
C793 N796 1.384 . S
C794 H785 0.929 . S
C794 C786 1.378 . S
C794 C789 1.350 . S
C795 H782 0.929 . S
C795 C787 1.433 . S
C795 N797 1.384 . S
N796 C792 1.427 1_554 S
N796 C793 1.384 . S
N797 C789 1.427 . S
N797 C795 1.384 . S
H798 C804 0.930 . S
H799 C808 0.930 1_556 S
H800 C813 0.929 . S
H801 C811 0.929 . S
H802 C806 0.929 . S
H803 C812 0.929 . S
C804 H798 0.930 . S
C804 C805 1.367 . S
C804 C812 1.378 . S
C805 C804 1.367 . S
C805 C813 1.433 . S
C806 H802 0.929 . S
C806 C808 1.378 . S
C806 C810 1.350 . S
C807 C810 1.463 . S
C807 C812 1.350 . S
C807 N815 1.427 . S
C808 H799 0.930 1_554 S
C808 C806 1.378 . S
C808 C809 1.367 . S
C809 C808 1.367 . S
C809 C811 1.433 . S
C810 C806 1.350 . S
C810 C807 1.463 . S
C810 N814 1.427 . S
C811 H801 0.929 . S
C811 C809 1.433 . S
C811 N814 1.384 . S
C812 H803 0.929 . S
C812 C804 1.378 . S
C812 C807 1.350 . S
C813 H800 0.929 . S
C813 C805 1.433 . S
C813 N815 1.384 . S
N814 C810 1.427 . S
N814 C811 1.384 . S
N815 C807 1.427 . S
N815 C813 1.384 . S
H816 C822 0.930 . S
H817 C826 0.930 . S
H818 C831 0.929 . S
H819 C829 0.929 . S
H820 C824 0.929 . S
H821 C830 0.929 . S
C822 H816 0.930 . S
C822 C823 1.367 . S
C822 C830 1.378 . S
C823 C822 1.367 . S
C823 C831 1.433 . S
C824 H820 0.929 . S
C824 C826 1.378 . S
C824 C828 1.350 . S
C825 C828 1.463 . S
C825 C830 1.350 . S
C825 N833 1.427 . S
C826 H817 0.930 . S
C826 C824 1.378 . S
C826 C827 1.367 . S
C827 C826 1.367 . S
C827 C829 1.433 . S
C828 C824 1.350 . S
C828 C825 1.463 . S
C828 N832 1.427 . S
C829 H819 0.929 . S
C829 C827 1.433 . S
C829 N832 1.384 . S
C830 H821 0.929 . S
C830 C822 1.378 . S
C830 C825 1.350 . S
C831 H818 0.929 . S
C831 C823 1.433 . S
C831 N833 1.384 . S
N832 C828 1.427 . S
N832 C829 1.384 . S
N833 C825 1.427 . S
N833 C831 1.384 . S
H834 C840 0.930 . S
H835 C844 0.930 . S
H836 C849 0.929 . S
H837 C847 0.929 . S
H838 C842 0.929 . S
H839 C848 0.929 . S
C840 H834 0.930 . S
C840 C841 1.367 . S
C840 C848 1.378 . S
C841 C840 1.367 . S
C841 C849 1.433 . S
C842 H838 0.929 . S
C842 C844 1.378 . S
C842 C846 1.350 . S
C843 C846 1.463 . S
C843 C848 1.350 . S
C843 N851 1.427 . S
C844 H835 0.930 . S
C844 C842 1.378 . S
C844 C845 1.367 . S
C845 C844 1.367 . S
C845 C847 1.433 . S
C846 C842 1.350 . S
C846 C843 1.463 . S
C846 N850 1.427 . S
C847 H837 0.929 . S
C847 C845 1.433 . S
C847 N850 1.384 . S
C848 H839 0.929 . S
C848 C840 1.378 . S
C848 C843 1.350 . S
C849 H836 0.929 . S
C849 C841 1.433 . S
C849 N851 1.384 . S
N850 C846 1.427 . S
N850 C847 1.384 . S
N851 C843 1.427 . S
N851 C849 1.384 . S
H852 C858 0.930 . S
H853 C862 0.930 . S
H854 C867 0.929 . S
H855 C865 0.929 . S
H856 C860 0.929 . S
H857 C866 0.929 . S
C858 H852 0.930 . S
C858 C859 1.367 . S
C858 C866 1.378 . S
C859 C858 1.367 . S
C859 C867 1.433 . S
C860 H856 0.929 . S
C860 C862 1.378 . S
C860 C864 1.350 . S
C861 C864 1.463 . S
C861 C866 1.350 . S
C861 N869 1.427 . S
C862 H853 0.930 . S
C862 C860 1.378 . S
C862 C863 1.367 . S
C863 C862 1.367 . S
C863 C865 1.433 . S
C864 C860 1.350 . S
C864 C861 1.463 . S
C864 N868 1.427 . S
C865 H855 0.929 . S
C865 C863 1.433 . S
C865 N868 1.384 . S
C866 H857 0.929 . S
C866 C858 1.378 . S
C866 C861 1.350 . S
C867 H854 0.929 . S
C867 C859 1.433 . S
C867 N869 1.384 . S
N868 C864 1.427 . S
N868 C865 1.384 . S
N869 C861 1.427 . S
N869 C867 1.384 . S
H870 C876 0.930 . S
H871 C880 0.930 . S
H872 C885 0.929 . S
H873 C883 0.929 . S
H874 C878 0.929 . S
H875 C884 0.929 . S
C876 H870 0.930 . S
C876 C877 1.367 . S
C876 C884 1.378 . S
C877 C876 1.367 . S
C877 C885 1.433 . S
C878 H874 0.929 . S
C878 C880 1.378 . S
C878 C882 1.350 . S
C879 C882 1.463 . S
C879 C884 1.350 . S
C879 N887 1.427 . S
C880 H871 0.930 . S
C880 C878 1.378 . S
C880 C881 1.367 . S
C881 C880 1.367 . S
C881 C883 1.433 . S
C882 C878 1.350 . S
C882 C879 1.463 . S
C882 N886 1.427 . S
C883 H873 0.929 . S
C883 C881 1.433 . S
C883 N886 1.384 . S
C884 H875 0.929 . S
C884 C876 1.378 . S
C884 C879 1.350 . S
C885 H872 0.929 . S
C885 C877 1.433 . S
C885 N887 1.384 . S
N886 C882 1.427 . S
N886 C883 1.384 . S
N887 C879 1.427 . S
N887 C885 1.384 . S
H888 C894 0.930 . S
H889 C898 0.930 . S
H890 C903 0.929 . S
H891 C901 0.929 . S
H892 C896 0.929 . S
H893 C902 0.929 . S
C894 H888 0.930 . S
C894 C895 1.367 . S
C894 C902 1.378 . S
C895 C894 1.367 . S
C895 C903 1.433 . S
C896 H892 0.929 . S
C896 C898 1.378 . S
C896 C900 1.350 . S
C897 C900 1.463 . S
C897 C902 1.350 . S
C897 N905 1.427 . S
C898 H889 0.930 . S
C898 C896 1.378 . S
C898 C899 1.367 . S
C899 C898 1.367 . S
C899 C901 1.433 . S
C900 C896 1.350 . S
C900 C897 1.463 . S
C900 N904 1.427 . S
C901 H891 0.929 . S
C901 C899 1.433 . S
C901 N904 1.384 . S
C902 H893 0.929 . S
C902 C894 1.378 . S
C902 C897 1.350 . S
C903 H890 0.929 . S
C903 C895 1.433 . S
C903 N905 1.384 . S
N904 C900 1.427 . S
N904 C901 1.384 . S
N905 C897 1.427 . S
N905 C903 1.384 . S
H906 C912 0.930 1_554 S
H907 C916 0.930 . S
H908 C921 0.929 . S
H909 C919 0.929 . S
H910 C914 0.929 . S
H911 C920 0.929 . S
C912 H906 0.930 1_556 S
C912 C913 1.367 . S
C912 C920 1.378 1_556 S
C913 C912 1.367 . S
C913 C921 1.433 . S
C914 H910 0.929 . S
C914 C916 1.378 . S
C914 C918 1.350 . S
C915 C918 1.463 . S
C915 C920 1.349 1_556 S
C915 N923 1.427 . S
C916 H907 0.930 . S
C916 C914 1.378 . S
C916 C917 1.367 . S
C917 C916 1.367 . S
C917 C919 1.433 1_556 S
C918 C914 1.350 . S
C918 C915 1.463 . S
C918 N922 1.427 1_556 S
C919 H909 0.929 . S
C919 C917 1.433 1_554 S
C919 N922 1.384 . S
C920 H911 0.929 . S
C920 C912 1.378 1_554 S
C920 C915 1.349 1_554 S
C921 H908 0.929 . S
C921 C913 1.433 . S
C921 N923 1.384 . S
N922 C918 1.427 1_554 S
N922 C919 1.384 . S
N923 C915 1.427 . S
N923 C921 1.384 . S
H924 C930 0.930 . S
H925 C934 0.930 . S
H926 C939 0.929 . S
H927 C937 0.929 . S
H928 C932 0.929 . S
H929 C938 0.929 . S
C930 H924 0.930 . S
C930 C931 1.367 . S
C930 C938 1.378 . S
C931 C930 1.367 . S
C931 C939 1.433 . S
C932 H928 0.929 . S
C932 C934 1.378 . S
C932 C936 1.350 . S
C933 C936 1.463 . S
C933 C938 1.350 . S
C933 N941 1.427 . S
C934 H925 0.930 . S
C934 C932 1.378 . S
C934 C935 1.367 . S
C935 C934 1.367 . S
C935 C937 1.433 . S
C936 C932 1.350 . S
C936 C933 1.463 . S
C936 N940 1.427 . S
C937 H927 0.929 . S
C937 C935 1.433 . S
C937 N940 1.384 . S
C938 H929 0.929 . S
C938 C930 1.378 . S
C938 C933 1.350 . S
C939 H926 0.929 . S
C939 C931 1.433 . S
C939 N941 1.384 . S
N940 C936 1.427 . S
N940 C937 1.384 . S
N941 C933 1.427 . S
N941 C939 1.384 . S
H942 C948 0.930 . S
H943 C952 0.930 . S
H944 C957 0.929 . S
H945 C955 0.929 . S
H946 C950 0.929 . S
H947 C956 0.929 . S
C948 H942 0.930 . S
C948 C949 1.367 . S
C948 C956 1.378 1_554 S
C949 C948 1.367 . S
C949 C957 1.433 . S
C950 H946 0.929 . S
C950 C952 1.378 . S
C950 C954 1.350 . S
C951 C954 1.463 . S
C951 C956 1.350 . S
C951 N959 1.427 1_556 S
C952 H943 0.930 . S
C952 C950 1.378 . S
C952 C953 1.367 . S
C953 C952 1.367 . S
C953 C955 1.433 . S
C954 C950 1.350 . S
C954 C951 1.463 . S
C954 N958 1.427 . S
C955 H945 0.929 . S
C955 C953 1.433 . S
C955 N958 1.384 . S
C956 H947 0.929 . S
C956 C948 1.378 1_556 S
C956 C951 1.350 . S
C957 H944 0.929 . S
C957 C949 1.433 . S
C957 N959 1.384 . S
N958 C954 1.427 . S
N958 C955 1.384 . S
N959 C951 1.427 1_554 S
N959 C957 1.384 . S
H960 C966 0.930 . S
H961 C970 0.930 1_556 S
H962 C975 0.929 . S
H963 C973 0.929 . S
H964 C968 0.929 . S
H965 C974 0.929 . S
C966 H960 0.930 . S
C966 C967 1.367 . S
C966 C974 1.378 . S
C967 C966 1.367 . S
C967 C975 1.433 . S
C968 H964 0.929 . S
C968 C970 1.378 . S
C968 C972 1.350 . S
C969 C972 1.463 . S
C969 C974 1.350 . S
C969 N977 1.427 . S
C970 H961 0.930 1_554 S
C970 C968 1.378 . S
C970 C971 1.367 . S
C971 C970 1.367 . S
C971 C973 1.433 . S
C972 C968 1.350 . S
C972 C969 1.463 . S
C972 N976 1.427 . S
C973 H963 0.929 . S
C973 C971 1.433 . S
C973 N976 1.384 . S
C974 H965 0.929 . S
C974 C966 1.378 . S
C974 C969 1.350 . S
C975 H962 0.929 . S
C975 C967 1.433 . S
C975 N977 1.384 . S
N976 C972 1.427 . S
N976 C973 1.384 . S
N977 C969 1.427 . S
N977 C975 1.384 . S
H978 C984 0.930 . S
H979 C988 0.930 . S
H980 C993 0.929 . S
H981 C991 0.929 . S
H982 C986 0.929 . S
H983 C992 0.929 . S
C984 H978 0.930 . S
C984 C985 1.367 . S
C984 C992 1.378 . S
C985 C984 1.367 . S
C985 C993 1.433 . S
C986 H982 0.929 . S
C986 C988 1.378 . S
C986 C990 1.350 . S
C987 C990 1.463 . S
C987 C992 1.350 . S
C987 N995 1.427 . S
C988 H979 0.930 . S
C988 C986 1.378 . S
C988 C989 1.367 . S
C989 C988 1.367 . S
C989 C991 1.433 . S
C990 C986 1.350 . S
C990 C987 1.463 . S
C990 N994 1.427 . S
C991 H981 0.929 . S
C991 C989 1.433 . S
C991 N994 1.384 . S
C992 H983 0.929 . S
C992 C984 1.378 . S
C992 C987 1.350 . S
C993 H980 0.929 . S
C993 C985 1.433 . S
C993 N995 1.384 . S
N994 C990 1.427 . S
N994 C991 1.384 . S
N995 C987 1.427 . S
N995 C993 1.384 . S
H996 C1002 0.930 . S
H997 C1006 0.930 . S
H998 C1011 0.929 . S
H999 C1009 0.929 . S
H1000 C1004 0.929 . S
H1001 C1010 0.929 . S
C1002 H996 0.930 . S
C1002 C1003 1.367 . S
C1002 C1010 1.378 . S
C1003 C1002 1.367 . S
C1003 C1011 1.433 . S
C1004 H1000 0.929 . S
C1004 C1006 1.378 . S
C1004 C1008 1.350 . S
C1005 C1008 1.463 . S
C1005 C1010 1.350 . S
C1005 N1013 1.427 . S
C1006 H997 0.930 . S
C1006 C1004 1.378 . S
C1006 C1007 1.367 . S
C1007 C1006 1.367 . S
C1007 C1009 1.433 . S
C1008 C1004 1.350 . S
C1008 C1005 1.463 . S
C1008 N1012 1.427 . S
C1009 H999 0.929 . S
C1009 C1007 1.433 . S
C1009 N1012 1.384 . S
C1010 H1001 0.929 . S
C1010 C1002 1.378 . S
C1010 C1005 1.350 . S
C1011 H998 0.929 . S
C1011 C1003 1.433 . S
C1011 N1013 1.384 . S
N1012 C1008 1.427 . S
N1012 C1009 1.384 . S
N1013 C1005 1.427 . S
N1013 C1011 1.384 . S
H1014 C1020 0.930 . S
H1015 C1024 0.930 . S
H1016 C1029 0.929 . S
H1017 C1027 0.929 . S
H1018 C1022 0.929 . S
H1019 C1028 0.929 . S
C1020 H1014 0.930 . S
C1020 C1021 1.367 . S
C1020 C1028 1.378 . S
C1021 C1020 1.367 . S
C1021 C1029 1.433 . S
C1022 H1018 0.929 . S
C1022 C1024 1.378 . S
C1022 C1026 1.350 . S
C1023 C1026 1.463 . S
C1023 C1028 1.350 . S
C1023 N1031 1.427 . S
C1024 H1015 0.930 . S
C1024 C1022 1.378 . S
C1024 C1025 1.367 . S
C1025 C1024 1.367 . S
C1025 C1027 1.433 . S
C1026 C1022 1.350 . S
C1026 C1023 1.463 . S
C1026 N1030 1.427 . S
C1027 H1017 0.929 . S
C1027 C1025 1.433 . S
C1027 N1030 1.384 . S
C1028 H1019 0.929 . S
C1028 C1020 1.378 . S
C1028 C1023 1.350 . S
C1029 H1016 0.929 . S
C1029 C1021 1.433 . S
C1029 N1031 1.384 . S
N1030 C1026 1.427 . S
N1030 C1027 1.384 . S
N1031 C1023 1.427 . S
N1031 C1029 1.384 . S
H1032 C1038 0.930 1_554 S
H1033 C1042 0.930 . S
H1034 C1047 0.929 . S
H1035 C1045 0.929 . S
H1036 C1040 0.929 1_455 S
H1037 C1046 0.929 1_655 S
C1038 H1032 0.930 1_556 S
C1038 C1039 1.367 . S
C1038 C1046 1.378 . S
C1039 C1038 1.367 . S
C1039 C1047 1.433 . S
C1040 H1036 0.929 1_655 S
C1040 C1042 1.378 . S
C1040 C1044 1.350 . S
C1041 C1044 1.463 1_455 S
C1041 C1046 1.350 . S
C1041 N1049 1.427 . S
C1042 H1033 0.930 . S
C1042 C1040 1.378 . S
C1042 C1043 1.367 . S
C1043 C1042 1.367 . S
C1043 C1045 1.433 . S
C1044 C1040 1.350 . S
C1044 C1041 1.463 1_655 S
C1044 N1048 1.427 . S
C1045 H1035 0.929 . S
C1045 C1043 1.433 . S
C1045 N1048 1.384 . S
C1046 H1037 0.929 1_455 S
C1046 C1038 1.378 . S
C1046 C1041 1.350 . S
C1047 H1034 0.929 . S
C1047 C1039 1.433 . S
C1047 N1049 1.384 . S
N1048 C1044 1.427 . S
N1048 C1045 1.384 . S
N1049 C1041 1.427 . S
N1049 C1047 1.384 . S
H1050 C1056 0.930 . S
H1051 C1060 0.930 . S
H1052 C1065 0.929 . S
H1053 C1063 0.929 . S
H1054 C1058 0.929 1_556 S
H1055 C1064 0.929 . S
C1056 H1050 0.930 . S
C1056 C1057 1.367 1_554 S
C1056 C1064 1.378 . S
C1057 C1056 1.367 1_556 S
C1057 C1065 1.433 . S
C1058 H1054 0.929 1_554 S
C1058 C1060 1.378 . S
C1058 C1062 1.350 . S
C1059 C1062 1.463 1_565 S
C1059 C1064 1.350 . S
C1059 N1067 1.427 1_554 S
C1060 H1051 0.930 . S
C1060 C1058 1.378 . S
C1060 C1061 1.367 . S
C1061 C1060 1.367 . S
C1061 C1063 1.433 . S
C1062 C1058 1.350 . S
C1062 C1059 1.463 1_545 S
C1062 N1066 1.427 . S
C1063 H1053 0.929 . S
C1063 C1061 1.433 . S
C1063 N1066 1.384 . S
C1064 H1055 0.929 . S
C1064 C1056 1.378 . S
C1064 C1059 1.350 . S
C1065 H1052 0.929 . S
C1065 C1057 1.433 . S
C1065 N1067 1.384 . S
N1066 C1062 1.427 . S
N1066 C1063 1.384 . S
N1067 C1059 1.427 1_556 S
N1067 C1065 1.384 . S
H1068 C1074 0.930 . S
H1069 C1078 0.930 . S
H1070 C1083 0.929 . S
H1071 C1081 0.929 . S
H1072 C1076 0.929 . S
H1073 C1082 0.929 . S
C1074 H1068 0.930 . S
C1074 C1075 1.367 . S
C1074 C1082 1.378 . S
C1075 C1074 1.367 . S
C1075 C1083 1.433 . S
C1076 H1072 0.929 . S
C1076 C1078 1.378 . S
C1076 C1080 1.350 . S
C1077 C1080 1.463 . S
C1077 C1082 1.350 . S
C1077 N1085 1.427 . S
C1078 H1069 0.930 . S
C1078 C1076 1.378 . S
C1078 C1079 1.367 . S
C1079 C1078 1.367 . S
C1079 C1081 1.433 . S
C1080 C1076 1.350 . S
C1080 C1077 1.463 . S
C1080 N1084 1.427 . S
C1081 H1071 0.929 . S
C1081 C1079 1.433 . S
C1081 N1084 1.384 . S
C1082 H1073 0.929 . S
C1082 C1074 1.378 . S
C1082 C1077 1.350 . S
C1083 H1070 0.929 . S
C1083 C1075 1.433 . S
C1083 N1085 1.384 . S
N1084 C1080 1.427 . S
N1084 C1081 1.384 . S
N1085 C1077 1.427 . S
N1085 C1083 1.384 . S
H1086 C1092 0.930 . S
H1087 C1096 0.930 . S
H1088 C1101 0.929 . S
H1089 C1099 0.929 . S
H1090 C1094 0.929 . S
H1091 C1100 0.929 . S
C1092 H1086 0.930 . S
C1092 C1093 1.367 . S
C1092 C1100 1.378 . S
C1093 C1092 1.367 . S
C1093 C1101 1.433 . S
C1094 H1090 0.929 . S
C1094 C1096 1.378 . S
C1094 C1098 1.350 . S
C1095 C1098 1.463 1_455 S
C1095 C1100 1.350 . S
C1095 N1103 1.427 . S
C1096 H1087 0.930 . S
C1096 C1094 1.378 . S
C1096 C1097 1.367 . S
C1097 C1096 1.367 . S
C1097 C1099 1.433 . S
C1098 C1094 1.350 . S
C1098 C1095 1.463 1_655 S
C1098 N1102 1.427 . S
C1099 H1089 0.929 . S
C1099 C1097 1.433 . S
C1099 N1102 1.384 . S
C1100 H1091 0.929 . S
C1100 C1092 1.378 . S
C1100 C1095 1.350 . S
C1101 H1088 0.929 . S
C1101 C1093 1.433 . S
C1101 N1103 1.384 . S
N1102 C1098 1.427 . S
N1102 C1099 1.384 . S
N1103 C1095 1.427 . S
N1103 C1101 1.384 . S
H1104 C1110 0.930 . S
H1105 C1114 0.930 . S
H1106 C1119 0.929 . S
H1107 C1117 0.929 . S
H1108 C1112 0.929 . S
H1109 C1118 0.929 . S
C1110 H1104 0.930 . S
C1110 C1111 1.367 . S
C1110 C1118 1.378 . S
C1111 C1110 1.367 . S
C1111 C1119 1.433 . S
C1112 H1108 0.929 . S
C1112 C1114 1.378 . S
C1112 C1116 1.350 . S
C1113 C1116 1.463 1_545 S
C1113 C1118 1.350 . S
C1113 N1121 1.427 . S
C1114 H1105 0.930 . S
C1114 C1112 1.378 . S
C1114 C1115 1.367 . S
C1115 C1114 1.367 . S
C1115 C1117 1.433 . S
C1116 C1112 1.350 . S
C1116 C1113 1.463 1_565 S
C1116 N1120 1.427 . S
C1117 H1107 0.929 . S
C1117 C1115 1.433 . S
C1117 N1120 1.384 . S
C1118 H1109 0.929 . S
C1118 C1110 1.378 . S
C1118 C1113 1.350 . S
C1119 H1106 0.929 . S
C1119 C1111 1.433 . S
C1119 N1121 1.384 . S
N1120 C1116 1.427 . S
N1120 C1117 1.384 . S
N1121 C1113 1.427 . S
N1121 C1119 1.384 . S
H1122 C1128 0.930 . S
H1123 C1132 0.930 . S
H1124 C1137 0.929 . S
H1125 C1135 0.929 . S
H1126 C1130 0.929 . S
H1127 C1136 0.929 . S
C1128 H1122 0.930 . S
C1128 C1129 1.367 . S
C1128 C1136 1.378 . S
C1129 C1128 1.367 . S
C1129 C1137 1.433 . S
C1130 H1126 0.929 . S
C1130 C1132 1.378 . S
C1130 C1134 1.350 . S
C1131 C1134 1.463 . S
C1131 C1136 1.350 . S
C1131 N1139 1.427 . S
C1132 H1123 0.930 . S
C1132 C1130 1.378 . S
C1132 C1133 1.367 . S
C1133 C1132 1.367 . S
C1133 C1135 1.433 . S
C1134 C1130 1.350 . S
C1134 C1131 1.463 . S
C1134 N1138 1.427 . S
C1135 H1125 0.929 . S
C1135 C1133 1.433 . S
C1135 N1138 1.384 . S
C1136 H1127 0.929 . S
C1136 C1128 1.378 . S
C1136 C1131 1.350 . S
C1137 H1124 0.929 . S
C1137 C1129 1.433 . S
C1137 N1139 1.384 . S
N1138 C1134 1.427 . S
N1138 C1135 1.384 . S
N1139 C1131 1.427 . S
N1139 C1137 1.384 . S
C715 C52 1.693 . S
C719 C642 1.691 . S
C733 C682 1.690 . S
C737 C111 1.692 . S
C751 C151 1.692 . S
C755 C406 1.690 . S
C769 C229 1.690 . S
C773 C465 1.692 . S
C787 C288 1.693 . S
C791 C505 1.690 . S
C805 C583 1.691 . S
C809 C328 1.691 1_554 S
C823 C3 1.720 . S
C827 C477 1.724 . S
C841 C62 1.721 . S
C845 C534 1.721 . S
C859 C593 1.717 . S
C863 C123 1.720 . S
C877 C180 1.719 . S
C881 C654 1.724 . S
C895 C239 1.717 . S
C899 C357 1.719 . S
C913 C300 1.723 . S
C917 C416 1.722 . S
C931 C623 1.662 . S
C935 C33 1.659 . S
C949 C92 1.659 . S
C953 C701 1.654 . S
C967 C170 1.657 . S
C971 C387 1.660 1_554 S
C985 C210 1.661 . S
C989 C446 1.662 . S
C1003 C524 1.654 . S
C1007 C269 1.663 . S
C1021 C347 1.650 . S
C1025 C564 1.661 . S
C1039 C5 1.306 . S
C1043 C652 1.304 . S
C1057 C359 1.304 . S
C1061 C64 1.303 . S
C1075 C418 1.302 . S
C1079 C121 1.298 . S
C1093 C475 1.298 . S
C1097 C182 1.302 . S
C1111 C536 1.304 . S
C1115 C241 1.303 . S
C1129 C595 1.304 . S
C1133 C298 1.303 . S
