# Generated by pormake.
# Topology bcu-i, (5)-cn, num edge types: 1
# Building blocks:
#     Node 0, Type 0, BuildingBlock: XOMCOT_clean_sbu_1, # of connection points: 5
#     Node 1, Type 0, BuildingBlock: XOMCOT_clean_sbu_1, # of connection points: 5
#     Node 2, Type 0, BuildingBlock: XOMCOT_clean_sbu_1, # of connection points: 5
#     Node 3, Type 0, BuildingBlock: XOMCOT_clean_sbu_1, # of connection points: 5
#     Node 4, Type 0, BuildingBlock: XOMCOT_clean_sbu_1, # of connection points: 5
#     Node 5, Type 0, BuildingBlock: XOMCOT_clean_sbu_1, # of connection points: 5
#     Node 6, Type 0, BuildingBlock: XOMCOT_clean_sbu_1, # of connection points: 5
#     Node 7, Type 0, BuildingBlock: XOMCOT_clean_sbu_1, # of connection points: 5
#     Node 8, Type 0, BuildingBlock: XOMCOT_clean_sbu_1, # of connection points: 5
#     Node 9, Type 0, BuildingBlock: XOMCOT_clean_sbu_1, # of connection points: 5
#     Node 10, Type 0, BuildingBlock: XOMCOT_clean_sbu_1, # of connection points: 5
#     Node 11, Type 0, BuildingBlock: XOMCOT_clean_sbu_1, # of connection points: 5
#     Node 12, Type 0, BuildingBlock: XOMCOT_clean_sbu_1, # of connection points: 5
#     Node 13, Type 0, BuildingBlock: XOMCOT_clean_sbu_1, # of connection points: 5
#     Node 14, Type 0, BuildingBlock: XOMCOT_clean_sbu_1, # of connection points: 5
#     Node 15, Type 0, BuildingBlock: XOMCOT_clean_sbu_1, # of connection points: 5
#     Edge 16, Type (0, 0), BuildingBlock: EZIPEK_clean_linker_0, # of connection points: 2
#     Edge 17, Type (0, 0), BuildingBlock: EZIPEK_clean_linker_0, # of connection points: 2
#     Edge 18, Type (0, 0), BuildingBlock: EZIPEK_clean_linker_0, # of connection points: 2
#     Edge 19, Type (0, 0), BuildingBlock: EZIPEK_clean_linker_0, # of connection points: 2
#     Edge 20, Type (0, 0), BuildingBlock: EZIPEK_clean_linker_0, # of connection points: 2
#     Edge 21, Type (0, 0), BuildingBlock: EZIPEK_clean_linker_0, # of connection points: 2
#     Edge 22, Type (0, 0), BuildingBlock: EZIPEK_clean_linker_0, # of connection points: 2
#     Edge 23, Type (0, 0), BuildingBlock: EZIPEK_clean_linker_0, # of connection points: 2
#     Edge 24, Type (0, 0), BuildingBlock: EZIPEK_clean_linker_0, # of connection points: 2
#     Edge 25, Type (0, 0), BuildingBlock: EZIPEK_clean_linker_0, # of connection points: 2
#     Edge 26, Type (0, 0), BuildingBlock: EZIPEK_clean_linker_0, # of connection points: 2
#     Edge 27, Type (0, 0), BuildingBlock: EZIPEK_clean_linker_0, # of connection points: 2
#     Edge 28, Type (0, 0), BuildingBlock: EZIPEK_clean_linker_0, # of connection points: 2
#     Edge 29, Type (0, 0), BuildingBlock: EZIPEK_clean_linker_0, # of connection points: 2
#     Edge 30, Type (0, 0), BuildingBlock: EZIPEK_clean_linker_0, # of connection points: 2
#     Edge 31, Type (0, 0), BuildingBlock: EZIPEK_clean_linker_0, # of connection points: 2
#     Edge 32, Type (0, 0), BuildingBlock: EZIPEK_clean_linker_0, # of connection points: 2
#     Edge 33, Type (0, 0), BuildingBlock: EZIPEK_clean_linker_0, # of connection points: 2
#     Edge 34, Type (0, 0), BuildingBlock: EZIPEK_clean_linker_0, # of connection points: 2
#     Edge 35, Type (0, 0), BuildingBlock: EZIPEK_clean_linker_0, # of connection points: 2
#     Edge 36, Type (0, 0), BuildingBlock: EZIPEK_clean_linker_0, # of connection points: 2
#     Edge 37, Type (0, 0), BuildingBlock: EZIPEK_clean_linker_0, # of connection points: 2
#     Edge 38, Type (0, 0), BuildingBlock: EZIPEK_clean_linker_0, # of connection points: 2
#     Edge 39, Type (0, 0), BuildingBlock: EZIPEK_clean_linker_0, # of connection points: 2
#     Edge 40, Type (0, 0), BuildingBlock: EZIPEK_clean_linker_0, # of connection points: 2
#     Edge 41, Type (0, 0), BuildingBlock: EZIPEK_clean_linker_0, # of connection points: 2
#     Edge 42, Type (0, 0), BuildingBlock: EZIPEK_clean_linker_0, # of connection points: 2
#     Edge 43, Type (0, 0), BuildingBlock: EZIPEK_clean_linker_0, # of connection points: 2
#     Edge 44, Type (0, 0), BuildingBlock: EZIPEK_clean_linker_0, # of connection points: 2
#     Edge 45, Type (0, 0), BuildingBlock: EZIPEK_clean_linker_0, # of connection points: 2
#     Edge 46, Type (0, 0), BuildingBlock: EZIPEK_clean_linker_0, # of connection points: 2
#     Edge 47, Type (0, 0), BuildingBlock: EZIPEK_clean_linker_0, # of connection points: 2
#     Edge 48, Type (0, 0), BuildingBlock: EZIPEK_clean_linker_0, # of connection points: 2
#     Edge 49, Type (0, 0), BuildingBlock: EZIPEK_clean_linker_0, # of connection points: 2
#     Edge 50, Type (0, 0), BuildingBlock: EZIPEK_clean_linker_0, # of connection points: 2
#     Edge 51, Type (0, 0), BuildingBlock: EZIPEK_clean_linker_0, # of connection points: 2
#     Edge 52, Type (0, 0), BuildingBlock: EZIPEK_clean_linker_0, # of connection points: 2
#     Edge 53, Type (0, 0), BuildingBlock: EZIPEK_clean_linker_0, # of connection points: 2
#     Edge 54, Type (0, 0), BuildingBlock: EZIPEK_clean_linker_0, # of connection points: 2
#     Edge 55, Type (0, 0), BuildingBlock: EZIPEK_clean_linker_0, # of connection points: 2
# Relax obj value: 0.561
# Max RMSD: 0.213
# Mean RMSD: 0.213
data_MOF--net-bcu-i--node1-XOMCOT_clean_sbu_1--edge1-EZIPEK_clean_linker_0
_symmetry_space_group_name_H-M    P1
_symmetry_Int_Tables_number       1
_symmetry_cell_setting            triclinic
loop_
_symmetry_equiv_pos_as_xyz
'x, y, z'
_cell_length_a     39.42639
_cell_length_b     39.359946
_cell_length_c     31.970606
_cell_angle_alpha  90.031141
_cell_angle_beta   90.043484
_cell_angle_gamma 89.951018
loop_
_atom_site_label
_atom_site_type_symbol
_atom_site_fract_x
_atom_site_fract_y
_atom_site_fract_z
_atom_type_partial_charge
C0 C 0.1329 0.06625 0.31043 0.0
C1 C 0.10031 0.07761 0.30346 0.0
N2 N 0.09438 0.10363 0.32978 0.0
N3 N 0.14694 0.0846 0.34163 0.0
C4 C 0.12295 0.10753 0.35216 0.0
H5 H 0.14514 0.04535 0.29452 0.0
Co6 Co 0.18862 0.0776 0.36742 0.0
C7 C 0.18004 0.10817 0.45372 0.0
O8 O 0.21056 0.10163 0.46797 0.0
N9 N 0.23137 0.07003 0.39354 0.0
C10 C 0.28562 0.07175 0.41438 0.0
C11 C 0.26108 0.08729 0.39031 0.0
C12 C 0.23874 0.04442 0.42024 0.0
N13 N 0.27119 0.04493 0.43304 0.0
O14 O 0.17218 0.03514 0.38724 0.0
H15 H 0.26505 0.11015 0.37238 0.0
H16 H 0.22061 0.02601 0.4315 0.0
O17 O 0.17125 0.09956 0.41692 0.0
C18 C 0.17835 0.01047 0.36274 0.0
O19 O 0.19825 0.01554 0.3304 0.0
N20 N 0.20355 0.1182 0.34471 0.0
C21 C 0.22543 0.17336 0.29804 0.0
C22 C 0.20439 0.1783 0.33284 0.0
C23 C 0.19431 0.15027 0.35653 0.0
C24 C 0.22203 0.11291 0.3094 0.0
C25 C 0.23412 0.14018 0.28629 0.0
H26 H 0.17843 0.15451 0.38345 0.0
H27 H 0.22794 0.08722 0.29979 0.0
H28 H 0.1257 0.12637 0.37654 0.0
H29 H 0.08232 0.06757 0.28105 0.0
H30 H 0.31163 0.07983 0.41864 0.0
H31 H 0.19649 0.20359 0.34203 0.0
H32 H 0.24995 0.13541 0.25922 0.0
C33 C 0.89198 0.15208 0.27742 0.0
C34 C 0.88231 0.11915 0.26864 0.0
N35 N 0.88436 0.10109 0.30432 0.0
N36 N 0.89938 0.15445 0.31854 0.0
C37 C 0.89583 0.12271 0.33353 0.0
H38 H 0.89114 0.17336 0.25607 0.0
Co39 Co 0.90686 0.19285 0.35047 0.0
C40 C 0.86296 0.18365 0.42442 0.0
O41 O 0.85289 0.21528 0.41966 0.0
N42 N 0.9158 0.23171 0.38369 0.0
C43 C 0.92812 0.28284 0.41015 0.0
C44 C 0.9146 0.26564 0.37643 0.0
C45 C 0.93015 0.22925 0.42197 0.0
N46 N 0.93766 0.25969 0.43858 0.0
O47 O 0.94906 0.17387 0.36647 0.0
H48 H 0.90615 0.27769 0.34806 0.0
H49 H 0.93636 0.20535 0.43688 0.0
O50 O 0.88472 0.17116 0.39906 0.0
C51 C 0.97482 0.18562 0.34752 0.0
O52 O 0.97164 0.21355 0.32534 0.0
N53 N 0.86585 0.21088 0.33032 0.0
C54 C 0.81018 0.23365 0.28479 0.0
C55 C 0.80689 0.20611 0.31196 0.0
C56 C 0.83513 0.19503 0.33436 0.0
C57 C 0.8698 0.23591 0.30138 0.0
C58 C 0.8421 0.24852 0.27929 0.0
H59 H 0.83246 0.17257 0.35299 0.0
H60 H 0.89492 0.24497 0.2938 0.0
H61 H 0.89924 0.11589 0.36603 0.0
H62 H 0.87185 0.10993 0.23945 0.0
H63 H 0.93212 0.30996 0.41278 0.0
H64 H 0.78289 0.193 0.31524 0.0
H65 H 0.84577 0.26884 0.25689 0.0
C66 C 0.84394 0.8946 0.28053 0.0
C67 C 0.87615 0.88207 0.27372 0.0
N68 N 0.89199 0.88041 0.31095 0.0
N69 N 0.83976 0.90028 0.32188 0.0
C70 C 0.86979 0.89205 0.33936 0.0
H71 H 0.82416 0.89743 0.25732 0.0
Co72 Co 0.79966 0.91152 0.34954 0.0
C73 C 0.80997 0.86564 0.42439 0.0
O74 O 0.78401 0.84609 0.41575 0.0
N75 N 0.75887 0.92341 0.37823 0.0
C76 C 0.71039 0.92108 0.41365 0.0
C77 C 0.73444 0.90258 0.39278 0.0
C78 C 0.74855 0.95464 0.39077 0.0
N79 N 0.7185 0.95437 0.41164 0.0
O80 O 0.81951 0.95397 0.36438 0.0
H81 H 0.73399 0.87533 0.38932 0.0
H82 H 0.76395 0.97703 0.38689 0.0
O83 O 0.81727 0.89112 0.40134 0.0
C84 C 0.82031 0.97313 0.33223 0.0
O85 O 0.8063 0.96235 0.29735 0.0
N86 N 0.78046 0.87111 0.32972 0.0
C87 C 0.75641 0.81891 0.27933 0.0
C88 C 0.78568 0.8142 0.30337 0.0
C89 C 0.79711 0.84063 0.32882 0.0
C90 C 0.75255 0.87621 0.30536 0.0
C91 C 0.73943 0.85011 0.28107 0.0
H92 H 0.82053 0.83738 0.34558 0.0
H93 H 0.7411 0.90115 0.30354 0.0
H94 H 0.875 0.89296 0.37255 0.0
H95 H 0.88648 0.87312 0.24435 0.0
H96 H 0.68986 0.90977 0.43093 0.0
H97 H 0.79998 0.79073 0.3016 0.0
H98 H 0.71717 0.8548 0.26201 0.0
C99 C 0.10525 0.83487 0.30217 0.0
C100 C 0.12003 0.86645 0.29836 0.0
N101 N 0.11858 0.88165 0.33598 0.0
N102 N 0.09509 0.83044 0.34213 0.0
C103 C 0.1032 0.85965 0.36174 0.0
H104 H 0.10316 0.81589 0.27784 0.0
Co105 Co 0.07785 0.79122 0.36613 0.0
C106 C 0.10917 0.78959 0.45017 0.0
O107 O 0.11544 0.75708 0.44496 0.0
N108 N 0.05957 0.75163 0.39092 0.0
C109 C 0.04286 0.69977 0.41072 0.0
C110 C 0.06158 0.71797 0.38201 0.0
C111 C 0.03924 0.75298 0.42488 0.0
N112 N 0.02899 0.7221 0.4374 0.0
O113 O 0.03628 0.81416 0.3759 0.0
H114 H 0.07567 0.7067 0.3567 0.0
H115 H 0.03239 0.77629 0.44078 0.0
O116 O 0.09493 0.80572 0.42034 0.0
C117 C 0.0182 0.81467 0.34297 0.0
O118 O 0.02924 0.79907 0.30928 0.0
N119 N 0.11821 0.76948 0.35234 0.0
C120 C 0.17459 0.74781 0.30792 0.0
C121 C 0.17863 0.7689 0.34279 0.0
C122 C 0.14988 0.77975 0.36459 0.0
C123 C 0.1142 0.74964 0.31785 0.0
C124 C 0.14206 0.73772 0.29587 0.0
H125 H 0.1531 0.79863 0.38875 0.0
H126 H 0.08904 0.74498 0.30565 0.0
H127 H 0.09881 0.86463 0.39449 0.0
H128 H 0.13164 0.87711 0.27065 0.0
H129 H 0.03977 0.67247 0.4121 0.0
H130 H 0.20349 0.77814 0.35168 0.0
H131 H 0.13817 0.72237 0.26812 0.0
C132 C 0.16709 0.89451 0.6979 0.0
C133 C 0.13391 0.88525 0.70557 0.0
N134 N 0.11769 0.88374 0.66857 0.0
N135 N 0.17139 0.89823 0.65629 0.0
C136 C 0.14064 0.89202 0.63942 0.0
H137 H 0.18712 0.89688 0.72084 0.0
Co138 Co 0.21126 0.90638 0.62767 0.0
C139 C 0.20216 0.87027 0.54589 0.0
O140 O 0.23483 0.867 0.53899 0.0
N141 N 0.25179 0.91573 0.59795 0.0
C142 C 0.30479 0.92615 0.57657 0.0
C143 C 0.28503 0.90883 0.60506 0.0
C144 C 0.2523 0.93665 0.56449 0.0
N145 N 0.28387 0.94358 0.55138 0.0
O146 O 0.19364 0.95011 0.61442 0.0
H147 H 0.29503 0.89357 0.63014 0.0
H148 H 0.22988 0.94789 0.55075 0.0
O149 O 0.19134 0.88676 0.57757 0.0
C150 C 0.20606 0.97573 0.63328 0.0
O151 O 0.23566 0.97285 0.65187 0.0
N152 N 0.22676 0.86389 0.64515 0.0
C153 C 0.23943 0.80616 0.69271 0.0
C154 C 0.21494 0.80541 0.66115 0.0
C155 C 0.20899 0.83462 0.63761 0.0
C156 C 0.24952 0.86523 0.67711 0.0
C157 C 0.25712 0.83637 0.70035 0.0
H158 H 0.18788 0.8343 0.6162 0.0
H159 H 0.26027 0.88936 0.68634 0.0
H160 H 0.13516 0.89217 0.60627 0.0
H161 H 0.12294 0.87868 0.73551 0.0
H162 H 0.33221 0.92736 0.57579 0.0
H163 H 0.19971 0.78291 0.6559 0.0
H164 H 0.27529 0.83809 0.72571 0.0
C165 C 0.07312 0.11421 0.69974 0.0
C166 C 0.09176 0.08463 0.70118 0.0
N167 N 0.11375 0.08493 0.66899 0.0
N168 N 0.083 0.13265 0.66637 0.0
C169 C 0.10818 0.11432 0.64865 0.0
H170 H 0.05319 0.12145 0.72116 0.0
Co171 Co 0.06385 0.17305 0.64806 0.0
C172 C 0.09461 0.18395 0.56432 0.0
O173 O 0.09941 0.21608 0.5735 0.0
N174 N 0.04358 0.21389 0.62905 0.0
C175 C 0.02423 0.26661 0.61866 0.0
C176 C 0.04269 0.24581 0.64493 0.0
C177 C 0.02484 0.21598 0.59371 0.0
N178 N 0.01303 0.24754 0.58671 0.0
O179 O 0.02358 0.14924 0.63381 0.0
H180 H 0.05458 0.25405 0.67355 0.0
H181 H 0.02039 0.19478 0.57283 0.0
O182 O 0.08185 0.16464 0.59226 0.0
C183 C 0.00206 0.15134 0.66332 0.0
O184 O 0.00943 0.16975 0.69639 0.0
N185 N 0.10247 0.1958 0.66639 0.0
C186 C 0.15407 0.22987 0.70767 0.0
C187 C 0.16087 0.21244 0.67041 0.0
C188 C 0.13461 0.19501 0.65037 0.0
C189 C 0.09649 0.2101 0.70444 0.0
C190 C 0.12171 0.22805 0.72521 0.0
H191 H 0.14053 0.18055 0.6227 0.0
H192 H 0.07158 0.20797 0.71837 0.0
H193 H 0.12197 0.12186 0.62095 0.0
H194 H 0.08944 0.06446 0.72401 0.0
H195 H 0.01968 0.29356 0.6224 0.0
H196 H 0.1861 0.21244 0.65704 0.0
H197 H 0.11601 0.24046 0.75464 0.0
C198 C 0.82166 0.07546 0.70229 0.0
C199 C 0.85467 0.08321 0.71308 0.0
N200 N 0.87158 0.09032 0.67761 0.0
N201 N 0.81821 0.0783 0.66045 0.0
C202 C 0.84922 0.08686 0.64633 0.0
H203 H 0.80124 0.06927 0.72352 0.0
Co204 Co 0.77946 0.07242 0.62901 0.0
C205 C 0.78766 0.11721 0.55567 0.0
O206 O 0.75604 0.12732 0.55905 0.0
N207 N 0.73994 0.06501 0.5959 0.0
C208 C 0.68943 0.06496 0.56384 0.0
C209 C 0.7078 0.07739 0.59722 0.0
C210 C 0.74008 0.04517 0.5613 0.0
N211 N 0.70995 0.04458 0.5417 0.0
O212 O 0.79859 0.0314 0.61107 0.0
H213 H 0.69801 0.09529 0.61966 0.0
H214 H 0.76209 0.03175 0.54975 0.0
O215 O 0.80001 0.0957 0.58143 0.0
C216 C 0.78962 0.00436 0.62954 0.0
O217 O 0.75864 0.00219 0.64441 0.0
N218 N 0.76279 0.11279 0.65141 0.0
C219 C 0.7465 0.16741 0.70247 0.0
C220 C 0.77382 0.16965 0.67493 0.0
C221 C 0.7817 0.14189 0.64982 0.0
C222 C 0.73763 0.10954 0.68027 0.0
C223 C 0.72827 0.13698 0.70525 0.0
H224 H 0.80466 0.14297 0.63159 0.0
H225 H 0.72544 0.0852 0.68473 0.0
H226 H 0.85532 0.09179 0.61393 0.0
H227 H 0.86505 0.08497 0.74435 0.0
H228 H 0.66333 0.07074 0.55607 0.0
H229 H 0.78938 0.1923 0.67367 0.0
H230 H 0.70781 0.13415 0.72759 0.0
C231 C 0.919 0.86847 0.71361 0.0
C232 C 0.906 0.90082 0.71903 0.0
N233 N 0.89257 0.91084 0.68227 0.0
N234 N 0.91395 0.85879 0.67361 0.0
C235 C 0.89905 0.88565 0.65528 0.0
H236 H 0.92955 0.85234 0.73772 0.0
Co237 Co 0.92008 0.81644 0.64949 0.0
C238 C 0.87115 0.81865 0.57722 0.0
O239 O 0.85834 0.78896 0.58718 0.0
N240 N 0.92676 0.77297 0.62399 0.0
C241 C 0.92473 0.71877 0.60245 0.0
C242 C 0.9118 0.74225 0.63011 0.0
C243 C 0.94813 0.76719 0.59165 0.0
N244 N 0.94725 0.73483 0.57819 0.0
O245 O 0.96144 0.83271 0.6264 0.0
H246 H 0.89168 0.73678 0.65182 0.0
H247 H 0.96355 0.78649 0.57696 0.0
O248 O 0.89548 0.83111 0.5987 0.0
C249 C 0.98535 0.82865 0.65268 0.0
O250 O 0.97926 0.81182 0.68733 0.0
N251 N 0.88125 0.80168 0.67733 0.0
C252 C 0.82925 0.77943 0.72882 0.0
C253 C 0.82334 0.80531 0.69977 0.0
C254 C 0.84984 0.81601 0.67412 0.0
C255 C 0.88829 0.78009 0.70948 0.0
C256 C 0.86238 0.76748 0.73454 0.0
H257 H 0.84525 0.83625 0.65266 0.0
H258 H 0.91406 0.77151 0.71441 0.0
H259 H 0.89159 0.88669 0.62292 0.0
H260 H 0.90407 0.91464 0.74821 0.0
H261 H 0.91743 0.69237 0.59941 0.0
H262 H 0.79833 0.81634 0.69615 0.0
H263 H 0.86808 0.74837 0.7579 0.0
C264 C 0.65387 0.58357 0.79214 0.0
C265 C 0.62198 0.59538 0.78222 0.0
N266 N 0.61217 0.61695 0.81259 0.0
N267 N 0.66352 0.59692 0.82917 0.0
C268 C 0.63788 0.61777 0.84025 0.0
H269 H 0.66845 0.56542 0.77426 0.0
Co270 Co 0.70182 0.58553 0.85985 0.0
C271 C 0.68746 0.61285 0.94616 0.0
O272 O 0.71944 0.61874 0.95507 0.0
N273 N 0.74089 0.57318 0.8904 0.0
C274 C 0.79357 0.5641 0.91384 0.0
C275 C 0.7741 0.58086 0.8846 0.0
C276 C 0.74111 0.55139 0.92302 0.0
N277 N 0.77255 0.54573 0.93772 0.0
O278 O 0.68341 0.54144 0.86854 0.0
H279 H 0.78418 0.59716 0.86061 0.0
H280 H 0.71861 0.53975 0.93595 0.0
O281 O 0.67903 0.6004 0.9108 0.0
C282 C 0.69003 0.51889 0.84133 0.0
O283 O 0.71205 0.5257 0.81167 0.0
N284 N 0.71928 0.62836 0.84836 0.0
C285 C 0.74533 0.68855 0.81698 0.0
C286 C 0.72165 0.68927 0.84949 0.0
C287 C 0.70868 0.65866 0.86465 0.0
C288 C 0.74047 0.62762 0.81484 0.0
C289 C 0.75456 0.65736 0.79933 0.0
H290 H 0.68893 0.6597 0.88769 0.0
H291 H 0.74658 0.60356 0.80028 0.0
H292 H 0.63719 0.63244 0.86883 0.0
H293 H 0.60692 0.58836 0.75524 0.0
H294 H 0.82087 0.56513 0.91725 0.0
H295 H 0.7129 0.71318 0.86237 0.0
H296 H 0.77201 0.65612 0.7732 0.0
C297 C 0.38663 0.64687 0.78602 0.0
C298 C 0.37431 0.61417 0.78503 0.0
N299 N 0.38271 0.5989 0.82126 0.0
N300 N 0.40228 0.65215 0.82299 0.0
C301 C 0.40039 0.62209 0.84321 0.0
H302 H 0.38277 0.6661 0.76234 0.0
Co303 Co 0.4165 0.69347 0.84462 0.0
C304 C 0.39188 0.69234 0.93211 0.0
O305 O 0.38028 0.72338 0.92727 0.0
N306 N 0.43163 0.73543 0.86713 0.0
C307 C 0.44492 0.78917 0.88308 0.0
C308 C 0.42843 0.76832 0.85496 0.0
C309 C 0.45085 0.7372 0.902 0.0
N310 N 0.45871 0.76921 0.91249 0.0
O311 O 0.46105 0.6752 0.84986 0.0
H312 H 0.41521 0.77726 0.82761 0.0
H313 H 0.45839 0.71533 0.92023 0.0
O314 O 0.40543 0.67761 0.9007 0.0
C315 C 0.48527 0.68788 0.82869 0.0
O316 O 0.48014 0.71614 0.80775 0.0
N317 N 0.37292 0.71042 0.83574 0.0
C318 C 0.31088 0.72851 0.80134 0.0
C319 C 0.31209 0.70625 0.83539 0.0
C320 C 0.34364 0.69728 0.85213 0.0
C321 C 0.37182 0.7309 0.80157 0.0
C322 C 0.34111 0.74117 0.78473 0.0
H323 H 0.34444 0.67795 0.87602 0.0
H324 H 0.39502 0.73741 0.7855 0.0
H325 H 0.41013 0.61765 0.87434 0.0
H326 H 0.35936 0.60278 0.76031 0.0
H327 H 0.44634 0.81663 0.88238 0.0
H328 H 0.28912 0.69494 0.84764 0.0
H329 H 0.341 0.75738 0.75733 0.0
C330 C 0.33568 0.38892 0.78044 0.0
C331 C 0.36753 0.38084 0.76534 0.0
N332 N 0.38994 0.38501 0.79676 0.0
N333 N 0.33841 0.39784 0.82111 0.0
C334 C 0.37193 0.39723 0.82905 0.0
H335 H 0.31193 0.38599 0.76387 0.0
Co336 Co 0.30495 0.40524 0.86138 0.0
C337 C 0.35176 0.35519 0.90964 0.0
O338 O 0.36829 0.34137 0.87847 0.0
N339 N 0.2719 0.41259 0.90268 0.0
C340 C 0.24009 0.4026 0.95887 0.0
C341 C 0.26071 0.38827 0.92918 0.0
C342 C 0.25698 0.44144 0.91634 0.0
N343 N 0.23778 0.43598 0.95076 0.0
O344 O 0.32892 0.44563 0.87789 0.0
H345 H 0.26819 0.36186 0.92804 0.0
H346 H 0.26156 0.46625 0.90297 0.0
O347 O 0.32925 0.37813 0.90384 0.0
C348 C 0.32277 0.46985 0.85241 0.0
O349 O 0.29961 0.46527 0.82338 0.0
N350 N 0.28035 0.36754 0.84171 0.0
C351 C 0.24171 0.31879 0.80072 0.0
C352 C 0.27478 0.31136 0.8134 0.0
C353 C 0.2937 0.33616 0.83387 0.0
C354 C 0.24812 0.3751 0.82923 0.0
C355 C 0.22809 0.35086 0.80928 0.0
H356 H 0.31961 0.33059 0.84061 0.0
H357 H 0.23819 0.40047 0.83364 0.0
H358 H 0.38281 0.40275 0.85939 0.0
H359 H 0.37322 0.36943 0.73533 0.0
H360 H 0.22881 0.38986 0.98545 0.0
H361 H 0.28621 0.287 0.80622 0.0
H362 H 0.20271 0.35747 0.79912 0.0
C363 C 0.60397 0.34506 0.78612 0.0
C364 C 0.62027 0.37532 0.77791 0.0
N365 N 0.62177 0.39295 0.81388 0.0
N366 N 0.59578 0.34387 0.82711 0.0
C367 C 0.60655 0.37373 0.84298 0.0
H368 H 0.59981 0.32458 0.76416 0.0
Co369 Co 0.57926 0.30659 0.85614 0.0
C370 C 0.61264 0.31304 0.94008 0.0
O371 O 0.6162 0.28 0.94335 0.0
N372 N 0.56181 0.2685 0.88573 0.0
C373 C 0.54591 0.21687 0.90738 0.0
C374 C 0.56186 0.23487 0.87628 0.0
C375 C 0.54464 0.27008 0.92235 0.0
N376 N 0.53532 0.23914 0.93624 0.0
O377 O 0.53728 0.32961 0.86339 0.0
H378 H 0.57227 0.22335 0.84862 0.0
H379 H 0.53923 0.29349 0.93879 0.0
O380 O 0.59752 0.32576 0.90834 0.0
C381 C 0.51943 0.3251 0.83061 0.0
O382 O 0.53091 0.30501 0.801 0.0
N383 N 0.61969 0.28439 0.84414 0.0
C384 C 0.67653 0.25574 0.80741 0.0
C385 C 0.68028 0.28105 0.83774 0.0
C386 C 0.65125 0.29565 0.8552 0.0
C387 C 0.61605 0.26172 0.81236 0.0
C388 C 0.64407 0.24617 0.79455 0.0
H389 H 0.65419 0.31763 0.87493 0.0
H390 H 0.59124 0.25709 0.79917 0.0
H391 H 0.60463 0.38096 0.87554 0.0
H392 H 0.63112 0.3833 0.74842 0.0
H393 H 0.54216 0.18965 0.9087 0.0
H394 H 0.70518 0.29037 0.84632 0.0
H395 H 0.6405 0.22799 0.76945 0.0
C396 C 0.6395 0.43321 0.20189 0.0
C397 C 0.60692 0.42279 0.21034 0.0
N398 N 0.59847 0.39901 0.18196 0.0
N399 N 0.65116 0.41648 0.16802 0.0
C400 C 0.62552 0.39578 0.1566 0.0
H401 H 0.65366 0.45192 0.21917 0.0
Co402 Co 0.69283 0.42338 0.14289 0.0
C403 C 0.68721 0.39385 0.05823 0.0
O404 O 0.71778 0.38137 0.06427 0.0
N405 N 0.73531 0.43155 0.11749 0.0
C406 C 0.78973 0.44153 0.10239 0.0
C407 C 0.76772 0.42597 0.12996 0.0
C408 C 0.73848 0.45041 0.08253 0.0
N409 N 0.77093 0.4567 0.07279 0.0
O410 O 0.68069 0.47015 0.13465 0.0
H411 H 0.7753 0.41314 0.15826 0.0
H412 H 0.71719 0.46031 0.06499 0.0
O413 O 0.67336 0.41043 0.08816 0.0
C414 C 0.69705 0.49093 0.15778 0.0
O415 O 0.72327 0.47985 0.17918 0.0
N416 N 0.70478 0.37879 0.15601 0.0
C417 C 0.72547 0.31786 0.19127 0.0
C418 C 0.70297 0.31781 0.1574 0.0
C419 C 0.69274 0.3488 0.14015 0.0
C420 C 0.72434 0.37894 0.19103 0.0
C421 C 0.73576 0.34881 0.20852 0.0
H422 H 0.67465 0.34833 0.1149 0.0
H423 H 0.73113 0.40287 0.20542 0.0
H424 H 0.62619 0.37897 0.12987 0.0
H425 H 0.59079 0.43161 0.2355 0.0
H426 H 0.81707 0.44295 0.10487 0.0
H427 H 0.69356 0.29416 0.14453 0.0
H428 H 0.75227 0.34965 0.23562 0.0
C429 C 0.58288 0.64292 0.20052 0.0
C430 C 0.60627 0.61818 0.21011 0.0
N431 N 0.62878 0.61539 0.1783 0.0
N432 N 0.58947 0.65478 0.16204 0.0
C433 C 0.61685 0.63712 0.14907 0.0
H434 H 0.5627 0.652 0.22051 0.0
Co435 Co 0.57066 0.69247 0.13628 0.0
C436 C 0.57826 0.65363 0.05642 0.0
O437 O 0.54916 0.63768 0.05984 0.0
N438 N 0.5522 0.73073 0.11108 0.0
C439 C 0.53521 0.7836 0.09765 0.0
C440 C 0.55074 0.76272 0.12645 0.0
C441 C 0.5368 0.73257 0.07354 0.0
N442 N 0.52648 0.76433 0.0647 0.0
O443 O 0.52878 0.66924 0.1298 0.0
H444 H 0.5602 0.77051 0.15667 0.0
H445 H 0.53295 0.71105 0.05303 0.0
O446 O 0.58684 0.67618 0.08296 0.0
C447 C 0.50705 0.67525 0.15822 0.0
O448 O 0.51433 0.69724 0.18781 0.0
N449 N 0.61102 0.71532 0.14557 0.0
C450 C 0.6705 0.7429 0.1766 0.0
C451 C 0.67 0.7281 0.13678 0.0
C452 C 0.63959 0.71495 0.1213 0.0
C453 C 0.61131 0.72948 0.18433 0.0
C454 C 0.64063 0.74402 0.20017 0.0
H455 H 0.63974 0.70328 0.09077 0.0
H456 H 0.58867 0.72859 0.20341 0.0
H457 H 0.62761 0.64064 0.11863 0.0
H458 H 0.60615 0.60314 0.2384 0.0
H459 H 0.53048 0.81059 0.10063 0.0
H460 H 0.6929 0.72647 0.11817 0.0
H461 H 0.64033 0.75505 0.23124 0.0
C462 C 0.32501 0.60129 0.19605 0.0
C463 C 0.35661 0.6129 0.20794 0.0
N464 N 0.37649 0.61321 0.17375 0.0
N465 N 0.32531 0.5946 0.15461 0.0
C466 C 0.35721 0.60174 0.14215 0.0
H467 H 0.30279 0.59949 0.21575 0.0
Co468 Co 0.28834 0.58404 0.1208 0.0
C469 C 0.32372 0.59936 0.03958 0.0
O470 O 0.32207 0.56819 0.02514 0.0
N471 N 0.2509 0.57332 0.08718 0.0
C472 C 0.19634 0.57025 0.01862 0.0
C473 C 0.23871 0.59576 0.03934 0.0
C474 C 0.2225 0.53811 0.09958 0.0
N475 N 0.19053 0.53626 0.05741 0.0
O476 O 0.30893 0.54112 0.10829 0.0
H477 H 0.25249 0.61551 0.02357 0.0
H478 H 0.22739 0.51848 0.12248 0.0
O479 O 0.31081 0.60649 0.07491 0.0
C480 C 0.30446 0.52003 0.13807 0.0
O481 O 0.28573 0.52911 0.17015 0.0
N482 N 0.26823 0.62485 0.13619 0.0
C483 C 0.24583 0.67877 0.18437 0.0
C484 C 0.2743 0.68263 0.15884 0.0
C485 C 0.28511 0.6552 0.13465 0.0
C486 C 0.23931 0.62149 0.15898 0.0
C487 C 0.22745 0.64838 0.18315 0.0
H488 H 0.30889 0.65744 0.11816 0.0
H489 H 0.22699 0.59703 0.16115 0.0
H490 H 0.36603 0.60017 0.11022 0.0
H491 H 0.36388 0.62216 0.23854 0.0
H492 H 0.18519 0.57119 0.98771 0.0
H493 H 0.28924 0.7057 0.1598 0.0
H494 H 0.20552 0.64472 0.20304 0.0
C495 C 0.37847 0.3469 0.21101 0.0
C496 C 0.3628 0.37821 0.2115 0.0
N497 N 0.36571 0.39182 0.17307 0.0
N498 N 0.3909 0.34107 0.17238 0.0
C499 C 0.38319 0.36918 0.15013 0.0
H500 H 0.37992 0.32912 0.23674 0.0
Co501 Co 0.41092 0.3015 0.15345 0.0
C502 C 0.3864 0.29322 0.06736 0.0
O503 O 0.37825 0.26204 0.07755 0.0
N504 N 0.43234 0.26119 0.1333 0.0
C505 C 0.452 0.20953 0.11647 0.0
C506 C 0.43244 0.22788 0.14439 0.0
C507 C 0.45267 0.26212 0.09938 0.0
N508 N 0.46442 0.23149 0.08834 0.0
O509 O 0.45236 0.32601 0.14681 0.0
H510 H 0.4189 0.21685 0.17027 0.0
H511 H 0.45774 0.28474 0.08162 0.0
O512 O 0.39779 0.31266 0.0961 0.0
C513 C 0.47765 0.31797 0.16954 0.0
O514 O 0.47579 0.29057 0.19289 0.0
N515 N 0.37021 0.27896 0.16394 0.0
C516 C 0.31091 0.25393 0.19922 0.0
C517 C 0.30931 0.27661 0.16559 0.0
C518 C 0.33943 0.28888 0.14823 0.0
C519 C 0.37183 0.25848 0.19809 0.0
C520 C 0.34265 0.24458 0.21517 0.0
H521 H 0.33784 0.30812 0.12425 0.0
H522 H 0.39582 0.25453 0.21373 0.0
H523 H 0.38962 0.37292 0.11755 0.0
H524 H 0.34997 0.38995 0.23771 0.0
H525 H 0.45593 0.18232 0.11607 0.0
H526 H 0.28511 0.28557 0.15389 0.0
H527 H 0.34471 0.22821 0.2423 0.0
C528 C 0.12606 0.97437 0.36135 0.0
C529 C 0.16167 0.97701 0.36742 0.0
C530 C 0.16716 0.91516 0.36099 0.0
C531 C 0.13297 0.91366 0.34776 0.0
N532 N 0.07984 0.94074 0.33301 0.0
N533 N 0.21617 0.95031 0.37642 0.0
C534 C 0.1123 0.94294 0.34772 0.0
C535 C 0.18221 0.94737 0.36866 0.0
N536 N 0.1054 0.0016 0.36878 0.0
N537 N 0.18491 0.88565 0.36633 0.0
H538 H 0.22729 0.97326 0.38522 0.0
H539 H 0.23345 0.93048 0.37324 0.0
H540 H 0.17451 0.86186 0.3598 0.0
H541 H 0.20898 0.88439 0.3796 0.0
H542 H 0.07904 0.00028 0.36807 0.0
H543 H 0.11419 0.02472 0.38016 0.0
H544 H 0.06431 0.96171 0.32778 0.0
H545 H 0.06933 0.91786 0.32285 0.0
C546 C 0.05051 0.14084 0.29916 0.0
C547 C 0.06387 0.12339 0.3341 0.0
C548 C 0.02147 0.15034 0.37917 0.0
C549 C 0.00565 0.16444 0.34329 0.0
N550 N 5e-05 0.16413 0.26774 0.0
N551 N 0.05731 0.10527 0.40565 0.0
C552 C 0.01869 0.15721 0.30279 0.0
C553 C 0.04799 0.12633 0.37373 0.0
N554 N 0.06873 0.14297 0.26297 0.0
N555 N 0.01209 0.16065 0.4183 0.0
H556 H 0.07536 0.08611 0.40197 0.0
H557 H 0.04453 0.10437 0.43413 0.0
H558 H 0.99345 0.17898 0.42346 0.0
H559 H 0.02517 0.15353 0.44526 0.0
H560 H 0.06129 0.15812 0.23784 0.0
H561 H 0.09299 0.13273 0.25985 0.0
H562 H 0.00753 0.15647 0.23792 0.0
H563 H 0.97539 0.17366 0.26872 0.0
C564 C 0.81636 0.03579 0.32121 0.0
C565 C 0.8363 0.00713 0.33249 0.0
C566 C 0.88818 0.04076 0.32389 0.0
C567 C 0.86815 0.06928 0.31338 0.0
N568 N 0.81362 0.09682 0.31263 0.0
N569 N 0.89063 0.98387 0.35274 0.0
C570 C 0.83232 0.06764 0.31513 0.0
C571 C 0.87207 0.01015 0.33673 0.0
N572 N 0.78216 0.03243 0.31545 0.0
N573 N 0.92262 0.04279 0.31999 0.0
H574 H 0.87992 0.9609 0.36184 0.0
H575 H 0.91623 0.98571 0.36032 0.0
H576 H 0.93482 0.06505 0.31063 0.0
H577 H 0.93886 0.02206 0.32287 0.0
H578 H 0.76702 0.05117 0.30198 0.0
H579 H 0.76904 0.01011 0.32206 0.0
H580 H 0.78767 0.09787 0.31852 0.0
H581 H 0.82449 0.12069 0.30858 0.0
C582 C 0.9524 0.88369 0.32911 0.0
C583 C 0.92346 0.86378 0.32042 0.0
C584 C 0.95557 0.81153 0.33333 0.0
C585 C 0.98475 0.83153 0.34171 0.0
N586 N 0.00988 0.88621 0.35595 0.0
N587 N 0.89496 0.80987 0.31976 0.0
C588 C 0.98279 0.86754 0.34245 0.0
C589 C 0.92433 0.82794 0.32414 0.0
N590 N 0.95089 0.918 0.32287 0.0
N591 N 0.95802 0.77685 0.3339 0.0
H592 H 0.87199 0.82121 0.31173 0.0
H593 H 0.89264 0.78408 0.32622 0.0
H594 H 0.97973 0.76411 0.34408 0.0
H595 H 0.93907 0.76054 0.32348 0.0
H596 H 0.97177 0.9341 0.32462 0.0
H597 H 0.92883 0.93016 0.31277 0.0
H598 H 0.00904 0.9123 0.3611 0.0
H599 H 0.0327 0.87529 0.36528 0.0
C600 C 0.13837 0.04354 0.61885 0.0
C601 C 0.13844 0.05925 0.65877 0.0
C602 C 0.18116 0.01891 0.68277 0.0
C603 C 0.18424 0.00578 0.64142 0.0
N604 N 0.17096 0.0118 0.56799 0.0
N605 N 0.16693 0.06811 0.72444 0.0
C606 C 0.16444 0.02 0.60871 0.0
C607 C 0.16216 0.04894 0.68935 0.0
N608 N 0.11251 0.04958 0.59146 0.0
N609 N 0.19393 0.00162 0.71635 0.0
H610 H 0.15434 0.0911 0.72929 0.0
H611 H 0.18609 0.06308 0.74608 0.0
H612 H 0.20489 0.97761 0.71418 0.0
H613 H 0.18959 0.00919 0.74714 0.0
H614 H 0.10955 0.03594 0.56376 0.0
H615 H 0.09207 0.06538 0.59853 0.0
H616 H 0.15911 0.02387 0.5429 0.0
H617 H 0.19075 0.99571 0.55927 0.0
C618 C 0.93271 0.08419 0.66489 0.0
C619 C 0.90451 0.10522 0.67347 0.0
C620 C 0.93927 0.15603 0.66434 0.0
C621 C 0.9684 0.13507 0.66079 0.0
N622 N 0.99381 0.07921 0.65887 0.0
N623 N 0.87995 0.16047 0.68372 0.0
C624 C 0.96541 0.09907 0.66086 0.0
C625 C 0.90752 0.14101 0.67378 0.0
N626 N 0.92785 0.05004 0.66001 0.0
N627 N 0.94192 0.19019 0.65718 0.0
H628 H 0.85611 0.15012 0.68969 0.0
H629 H 0.88106 0.18655 0.68887 0.0
H630 H 0.96476 0.2018 0.64909 0.0
H631 H 0.92121 0.20653 0.65534 0.0
H632 H 0.94648 0.0334 0.64939 0.0
H633 H 0.90422 0.0386 0.66423 0.0
H634 H 0.99374 0.05308 0.66383 0.0
H635 H 0.01799 0.08904 0.65403 0.0
C636 C 0.87336 0.95682 0.63614 0.0
C637 C 0.86902 0.93784 0.67334 0.0
C638 C 0.81587 0.9677 0.68576 0.0
C639 C 0.81664 0.98095 0.64435 0.0
N640 N 0.84472 0.98186 0.57697 0.0
N641 N 0.83004 0.91872 0.72704 0.0
C642 C 0.84512 0.97392 0.61856 0.0
C643 C 0.83861 0.94138 0.69654 0.0
N644 N 0.90447 0.9582 0.61759 0.0
N645 N 0.79516 0.98115 0.71573 0.0
H646 H 0.84411 0.89703 0.73372 0.0
H647 H 0.80656 0.91944 0.74206 0.0
H648 H 0.78114 0.00331 0.71141 0.0
H649 H 0.79594 0.97308 0.7468 0.0
H650 H 0.90965 0.97384 0.59207 0.0
H651 H 0.92573 0.94647 0.63071 0.0
H652 H 0.86399 0.97458 0.55653 0.0
H653 H 0.82353 0.99207 0.562 0.0
C654 C 0.04769 0.82195 0.64515 0.0
C655 C 0.01925 0.84393 0.64684 0.0
C656 C 0.05688 0.89296 0.65603 0.0
C657 C 0.08453 0.87039 0.66035 0.0
N658 N 0.10784 0.81401 0.65859 0.0
N659 N -0.0041 0.90044 0.6531 0.0
C660 C 0.08041 0.83501 0.6544 0.0
C661 C 0.0236 0.87961 0.6513 0.0
N662 N 0.04317 0.78874 0.63391 0.0
N663 N 0.06278 0.92716 0.65628 0.0
H664 H 0.97136 0.89191 0.64746 0.0
H665 H -0.00308 0.92595 0.66153 0.0
H666 H 0.0869 0.93736 0.66114 0.0
H667 H 0.04451 0.94534 0.6491 0.0
H668 H 0.06292 0.77173 0.62859 0.0
H669 H 0.01938 0.77893 0.62631 0.0
H670 H 0.10636 0.78763 0.65875 0.0
H671 H 0.13225 0.82312 0.6642 0.0
C672 C 0.69034 0.4553 0.84169 0.0
C673 C 0.67157 0.48613 0.84041 0.0
C674 C 0.62054 0.45499 0.81934 0.0
C675 C 0.63901 0.42438 0.8215 0.0
N676 N 0.6893 0.39351 0.84011 0.0
N677 N 0.61691 0.51437 0.83792 0.0
C678 C 0.67335 0.42399 0.83434 0.0
C679 C 0.63604 0.48573 0.83243 0.0
N680 N 0.72439 0.4561 0.84981 0.0
N681 N 0.58833 0.45457 0.80358 0.0
H682 H 0.62674 0.53736 0.8482 0.0
H683 H 0.59054 0.51464 0.83639 0.0
H684 H 0.57651 0.43218 0.794 0.0
H685 H 0.57445 0.47637 0.79665 0.0
H686 H 0.7404 0.43524 0.8466 0.0
H687 H 0.73701 0.47823 0.85876 0.0
H688 H 0.71317 0.39087 0.85362 0.0
H689 H 0.67767 0.37035 0.83336 0.0
C690 C 0.53439 0.66735 0.78515 0.0
C691 C 0.51805 0.66954 0.82475 0.0
C692 C 0.56115 0.63165 0.8539 0.0
C693 C 0.58013 0.63423 0.8164 0.0
N694 N 0.58834 0.66212 0.75007 0.0
N695 N 0.52148 0.65995 0.8995 0.0
C696 C 0.56783 0.65436 0.78306 0.0
C697 C 0.53299 0.65346 0.86003 0.0
N698 N 0.51761 0.67569 0.74918 0.0
N699 N 0.56908 0.60749 0.88293 0.0
H700 H 0.50232 0.67742 0.90578 0.0
H701 H 0.53373 0.65099 0.92623 0.0
H702 H 0.58796 0.58935 0.87808 0.0
H703 H 0.55424 0.60298 0.90933 0.0
H704 H 0.52801 0.6718 0.71959 0.0
H705 H 0.49199 0.68217 0.74841 0.0
H706 H 0.58121 0.67917 0.7267 0.0
H707 H 0.61369 0.65467 0.74865 0.0
C708 C 0.33961 0.52738 0.87946 0.0
C709 C 0.34431 0.50076 0.85016 0.0
C710 C 0.38252 0.53728 0.80973 0.0
C711 C 0.37263 0.56537 0.83429 0.0
N712 N 0.33904 0.58827 0.89078 0.0
N713 N 0.36857 0.48113 0.78498 0.0
C714 C 0.35088 0.56072 0.86923 0.0
C715 C 0.36556 0.50582 0.81477 0.0
N716 N 0.32383 0.52093 0.91655 0.0
N717 N 0.40853 0.54078 0.78189 0.0
H718 H 0.35731 0.4574 0.78775 0.0
H719 H 0.38038 0.485 0.75625 0.0
H720 H 0.42174 0.56357 0.77838 0.0
H721 H 0.4192 0.52043 0.76571 0.0
H722 H 0.3223 0.53848 0.94086 0.0
H723 H 0.31521 0.49677 0.92433 0.0
H724 H 0.32063 0.58673 0.91403 0.0
H725 H 0.34533 0.61316 0.88303 0.0
C726 C 0.42569 0.3342 0.80856 0.0
C727 C 0.42294 0.36976 0.80145 0.0
C728 C 0.48381 0.37655 0.81515 0.0
C729 C 0.48599 0.34141 0.82481 0.0
N730 N 0.45866 0.28783 0.83777 0.0
N731 N 0.44766 0.42538 0.80154 0.0
C732 C 0.45683 0.32049 0.82326 0.0
C733 C 0.45161 0.39108 0.80583 0.0
N734 N 0.39852 0.31345 0.80145 0.0
N735 N 0.51267 0.3957 0.81334 0.0
H736 H 0.42476 0.43631 0.7922 0.0
H737 H 0.46633 0.44305 0.80904 0.0
H738 H 0.5365 0.3861 0.821 0.0
H739 H 0.51339 0.42046 0.80201 0.0
H740 H 0.40016 0.28706 0.80067 0.0
H741 H 0.37443 0.32233 0.79398 0.0
H742 H 0.43761 0.27228 0.8421 0.0
H743 H 0.48103 0.27713 0.84926 0.0
C744 C 0.6713 0.58261 0.13587 0.0
C745 C 0.65668 0.5912 0.17488 0.0
C746 C 0.67896 0.5389 0.20507 0.0
C747 C 0.68536 0.52643 0.16382 0.0
N748 N 0.69026 0.538 0.08966 0.0
N749 N 0.66918 0.58875 0.24799 0.0
C750 C 0.68226 0.54873 0.12903 0.0
C751 C 0.6673 0.57271 0.21023 0.0
N752 N 0.68032 0.6077 0.10872 0.0
N753 N 0.68191 0.51822 0.23921 0.0
H754 H 0.66424 0.61474 0.25082 0.0
H755 H 0.6798 0.57779 0.2746 0.0
H756 H 0.6906 0.49332 0.23799 0.0
H757 H 0.67329 0.52513 0.26882 0.0
H758 H 0.69307 0.60325 0.08071 0.0
H759 H 0.68061 0.6331 0.11811 0.0
H760 H 0.68488 0.55224 0.06299 0.0
H761 H 0.70089 0.51434 0.08355 0.0
C762 C 0.47105 0.62288 0.16482 0.0
C763 C 0.47351 0.65848 0.15814 0.0
C764 C 0.41172 0.66409 0.16311 0.0
C765 C 0.4093 0.62856 0.16925 0.0
N766 N 0.43469 0.5732 0.16889 0.0
N767 N 0.44664 0.71193 0.14223 0.0
C768 C 0.43846 0.60767 0.16786 0.0
C769 C 0.44392 0.67885 0.15489 0.0
N770 N 0.49977 0.60387 0.17007 0.0
N771 N 0.3831 0.68361 0.16538 0.0
H772 H 0.46984 0.72323 0.13503 0.0
H773 H 0.42597 0.72741 0.13531 0.0
H774 H 0.35897 0.67328 0.16931 0.0
H775 H 0.38325 0.71004 0.16577 0.0
H776 H 0.4997 0.57868 0.17995 0.0
H777 H 0.5241 0.61376 0.16682 0.0
H778 H 0.45432 0.55608 0.16336 0.0
H779 H 0.41112 0.56165 0.17262 0.0
C780 C 0.35215 0.48571 0.16806 0.0
C781 C 0.32374 0.48777 0.14075 0.0
C782 C 0.32399 0.42576 0.13311 0.0
C783 C 0.35283 0.42413 0.15951 0.0
N784 N 0.39918 0.45193 0.19383 0.0
N785 N 0.28565 0.46088 0.09213 0.0
C786 C 0.36841 0.45401 0.17433 0.0
C787 C 0.31081 0.45809 0.12129 0.0
N788 N 0.36271 0.51375 0.18952 0.0
N789 N 0.3083 0.39635 0.12128 0.0
H790 H 0.27508 0.48422 0.08393 0.0
H791 H 0.27701 0.44072 0.07395 0.0
H792 H 0.31727 0.37244 0.12997 0.0
H793 H 0.28528 0.39551 0.10537 0.0
H794 H 0.38028 0.51292 0.21385 0.0
H795 H 0.3523 0.53767 0.18478 0.0
H796 H 0.41372 0.47307 0.20171 0.0
H797 H 0.41161 0.42883 0.19861 0.0
C798 C 0.52172 0.35647 0.13656 0.0
C799 C 0.50784 0.34048 0.17259 0.0
C800 C 0.55577 0.36118 0.21401 0.0
C801 C 0.56726 0.38023 0.17934 0.0
N802 N 0.55558 0.40332 0.11117 0.0
N803 N 0.50659 0.33821 0.24842 0.0
C804 C 0.54849 0.38014 0.14164 0.0
C805 C 0.52334 0.34589 0.21225 0.0
N806 N 0.5109 0.34796 0.09739 0.0
N807 N 0.57623 0.35649 0.24798 0.0
H808 H 0.48144 0.33007 0.249 0.0
H809 H 0.51618 0.34426 0.27789 0.0
H810 H 0.60099 0.36568 0.2494 0.0
H811 H 0.56987 0.34025 0.2725 0.0
H812 H 0.52251 0.35693 0.0703 0.0
H813 H 0.49311 0.32907 0.09179 0.0
H814 H 0.54055 0.40631 0.08459 0.0
H815 H 0.57408 0.42201 0.11486 0.0
C816 C 0.1626 0.1638 0.48502 0.0
C817 C 0.15606 0.12873 0.47869 0.0
C818 C 0.10149 0.13448 0.51491 0.0
C819 C 0.11053 0.16812 0.52639 0.0
N820 N 0.13864 0.21871 0.50161 0.0
N821 N 0.1192 0.0802 0.48586 0.0
C822 C 0.13794 0.18416 0.50553 0.0
C823 C 0.12516 0.11402 0.49256 0.0
N824 N 0.19241 0.17776 0.47157 0.0
N825 N 0.06942 0.12318 0.52317 0.0
H826 H 0.13616 0.06439 0.4701 0.0
H827 H 0.0985 0.0671 0.49785 0.0
H828 H 0.05073 0.13919 0.53528 0.0
H829 H 0.06 0.0997 0.51386 0.0
H830 H 0.20039 0.20202 0.4801 0.0
H831 H 0.21034 0.16442 0.4541 0.0
H832 H 0.1568 0.2317 0.48425 0.0
H833 H 0.11804 0.23397 0.50949 0.0
C834 C 0.84428 0.17975 0.49866 0.0
C835 C 0.84852 0.16338 0.45954 0.0
C836 C 0.8197 0.1132 0.48816 0.0
C837 C 0.80965 0.13255 0.52342 0.0
N838 N 0.80766 0.18719 0.55817 0.0
N839 N 0.83506 0.11506 0.41535 0.0
C840 C 0.82053 0.1667 0.52758 0.0
C841 C 0.83528 0.12999 0.45384 0.0
N842 N 0.86372 0.20722 0.50878 0.0
N843 N 0.81379 0.07902 0.48688 0.0
H844 H 0.84462 0.12668 0.38888 0.0
H845 H 0.82226 0.0925 0.40889 0.0
H846 H 0.80134 0.06601 0.51069 0.0
H847 H 0.82375 0.06322 0.46376 0.0
H848 H 0.86357 0.21832 0.53841 0.0
H849 H 0.88301 0.21595 0.48931 0.0
H850 H 0.81292 0.21311 0.55987 0.0
H851 H 0.7889 0.17937 0.57885 0.0
C852 C 0.83539 0.86215 0.53889 0.0
C853 C 0.8598 0.83549 0.53785 0.0
C854 C 0.85772 0.83579 0.461 0.0
C855 C 0.82985 0.85857 0.46268 0.0
N856 N 0.79143 0.89357 0.50227 0.0
N857 N 0.89558 0.79771 0.49827 0.0
C858 C 0.81876 0.8721 0.50134 0.0
C859 C 0.87158 0.82278 0.49889 0.0
N860 N 0.82845 0.87842 0.57555 0.0
N861 N 0.87108 0.82693 0.42311 0.0
H862 H 0.90778 0.78916 0.52519 0.0
H863 H 0.90265 0.78444 0.47152 0.0
H864 H 0.86113 0.83568 0.395 0.0
H865 H 0.89343 0.81322 0.41927 0.0
H866 H 0.81409 0.90056 0.57772 0.0
H867 H 0.83967 0.87164 0.60356 0.0
H868 H 0.77911 0.90089 0.52961 0.0
H869 H 0.77974 0.90279 0.47527 0.0
C870 C 0.12246 0.84493 0.48684 0.0
C871 C 0.12671 0.80924 0.48408 0.0
C872 C 0.17884 0.81308 0.5254 0.0
C873 C 0.17733 0.84919 0.52265 0.0
N874 N 0.14885 0.89971 0.49818 0.0
N875 N 0.14718 0.76053 0.52178 0.0
C876 C 0.1492 0.86521 0.50311 0.0
C877 C 0.15159 0.79343 0.50936 0.0
N878 N 0.09171 0.85896 0.4774 0.0
N879 N 0.20627 0.79725 0.54294 0.0
H880 H 0.12478 0.74731 0.51593 0.0
H881 H 0.16288 0.74829 0.54323 0.0
H882 H 0.22617 0.81 0.5574 0.0
H883 H 0.21046 0.77118 0.54062 0.0
H884 H 0.08592 0.8845 0.48208 0.0
H885 H 0.07064 0.84406 0.47007 0.0
H886 H 0.13095 0.9124 0.47999 0.0
H887 H 0.16828 0.9154 0.50903 0.0
C888 C 0.64032 0.59771 0.99555 0.0
C889 C 0.66032 0.62297 0.97576 0.0
C890 C 0.62204 0.66699 0.00227 0.0
C891 C 0.60434 0.64225 0.02594 0.0
N892 N 0.6029 0.58485 0.05321 0.0
N893 N 0.67473 0.68242 0.96886 0.0
C894 C 0.61497 0.60771 0.02469 0.0
C895 C 0.65264 0.65786 0.98177 0.0
N896 N 0.64572 0.56411 0.98707 0.0
N897 N 0.60908 0.69903 -0.00172 0.0
H898 H 0.69797 0.677 0.95494 0.0
H899 H 0.67168 0.70805 0.97613 0.0
H900 H 0.58607 0.70628 0.01163 0.0
H901 H 0.61919 0.71715 0.97808 0.0
H902 H 0.62933 0.54497 0.99696 0.0
H903 H 0.66534 0.55552 0.96796 0.0
H904 H 0.61278 0.56044 0.05651 0.0
H905 H 0.5857 0.59115 0.07668 0.0
C906 C 0.39564 0.6386 0.976 0.0
C907 C 0.38285 0.67201 0.97012 0.0
C908 C 0.3351 0.65995 0.01589 0.0
C909 C 0.34529 0.62522 0.01826 0.0
N910 N 0.39266 0.58618 0.01577 0.0
N911 N 0.35493 0.71746 0.00704 0.0
C912 C 0.37781 0.61575 0.00267 0.0
C913 C 0.3571 0.6838 0.9971 0.0
N914 N 0.42545 0.62928 0.95759 0.0
N915 N 0.30416 0.67052 0.02992 0.0
H916 H 0.37369 0.73476 -0.00153 0.0
H917 H 0.33792 0.72689 0.02915 0.0
H918 H 0.28678 0.65483 0.04459 0.0
H919 H 0.29474 0.69482 0.02406 0.0
H920 H 0.43358 0.6042 0.95497 0.0
H921 H 0.44223 0.64707 0.94508 0.0
H922 H 0.41728 0.579 0.00807 0.0
H923 H 0.3819 0.57045 0.03836 0.0
C924 C 0.34311 0.31013 0.96255 0.0
C925 C 0.35796 0.34151 0.9517 0.0
C926 C 0.39625 0.33788 0.01161 0.0
C927 C 0.38037 0.30686 0.02403 0.0
N928 N 0.35007 0.25702 -0.00161 0.0
N929 N 0.39441 0.38845 0.96815 0.0
C930 C 0.3568 0.29105 0.99616 0.0
C931 C 0.38324 0.35636 0.97697 0.0
N932 N 0.31544 0.29872 0.94092 0.0
N933 N 0.42604 0.34775 0.02983 0.0
H934 H 0.38551 0.4024 0.94265 0.0
H935 H 0.40991 0.40248 0.98808 0.0
H936 H 0.43925 0.33257 0.05082 0.0
H937 H 0.44035 0.36842 0.0199 0.0
H938 H 0.30075 0.27818 0.95055 0.0
H939 H 0.30497 0.312 0.91585 0.0
H940 H 0.33493 0.24422 0.97685 0.0
H941 H 0.36397 0.24 0.01625 0.0
C942 C 0.61317 0.3605 0.99329 0.0
C943 C 0.63123 0.33611 0.96901 0.0
C944 C 0.68467 0.36236 0.99042 0.0
C945 C 0.6674 0.38173 0.0209 0.0
N946 N 0.61561 0.41176 0.03582 0.0
N947 N 0.68543 0.3109 0.9502 0.0
C948 C 0.63156 0.38451 0.01814 0.0
C949 C 0.6673 0.33623 0.96904 0.0
N950 N 0.57852 0.35948 0.99428 0.0
N951 N 0.71718 0.37058 0.97978 0.0
H952 H 0.67449 0.29015 0.93536 0.0
H953 H 0.71167 0.30866 0.95326 0.0
H954 H 0.72913 0.39218 0.99171 0.0
H955 H 0.73009 0.35918 0.95501 0.0
H956 H 0.56379 0.37402 0.01447 0.0
H957 H 0.56437 0.3421 0.97692 0.0
H958 H 0.58992 0.41698 0.03219 0.0
H959 H 0.62891 0.432 0.04891 0.0
C960 C 0.23367 0.202 0.22921 0.0
C961 C 0.23883 0.2022 0.27315 0.0
C962 C 0.27781 0.24976 0.26485 0.0
C963 C 0.28015 0.24234 0.22165 0.0
N964 N 0.25973 0.21096 0.1617 0.0
N965 N 0.26848 0.22574 0.3331 0.0
C966 C 0.25734 0.21893 0.20317 0.0
C967 C 0.26095 0.22654 0.29139 0.0
N968 N 0.20657 0.18512 0.21264 0.0
N969 N 0.29287 0.27831 0.28046 0.0
H970 H 0.25848 0.20803 0.35382 0.0
H971 H 0.28727 0.24087 0.34649 0.0
H972 H 0.30531 0.29572 0.26118 0.0
H973 H 0.28979 0.28631 0.31131 0.0
H974 H 0.20013 0.18625 0.18105 0.0
H975 H 0.18861 0.173 0.23141 0.0
H976 H 0.24616 0.19116 0.14799 0.0
H977 H 0.2769 0.22257 0.14153 0.0
C978 C 0.72998 0.28038 0.25308 0.0
C979 C 0.73814 0.2862 0.21063 0.0
C980 C 0.78349 0.24421 0.2154 0.0
C981 C 0.78115 0.2459 0.25957 0.0
N982 N 0.75176 0.26575 0.32138 0.0
N983 N 0.77223 0.27295 0.15002 0.0
C984 C 0.75372 0.26325 0.27882 0.0
C985 C 0.76421 0.26723 0.19097 0.0
N986 N 0.70006 0.29238 0.26874 0.0
N987 N 0.80452 0.22094 0.19714 0.0
H988 H 0.75845 0.28931 0.13085 0.0
H989 H 0.79372 0.26286 0.13569 0.0
H990 H 0.81862 0.20356 0.21467 0.0
H991 H 0.80527 0.21663 0.165 0.0
H992 H 0.69136 0.28673 0.29869 0.0
H993 H 0.68248 0.3051 0.24995 0.0
H994 H 0.7344 0.28137 0.33667 0.0
H995 H 0.76898 0.25417 0.34157 0.0
C996 C 0.73041 0.76183 0.26329 0.0
C997 C 0.74446 0.79294 0.24925 0.0
C998 C 0.71746 0.78609 0.18106 0.0
C999 C 0.70207 0.75587 0.19582 0.0
N1000 N 0.70433 0.70847 0.24327 0.0
N1001 N 0.76263 0.82702 0.19089 0.0
C1002 C 0.71252 0.74138 0.23428 0.0
C1003 C 0.74201 0.80224 0.20653 0.0
N1004 N 0.73166 0.75305 0.30459 0.0
N1005 N 0.7069 0.80087 0.14466 0.0
H1006 H 0.78111 0.83891 0.20917 0.0
H1007 H 0.76377 0.83306 0.15919 0.0
H1008 H 0.68862 0.7902 0.12516 0.0
H1009 H 0.71465 0.82499 0.13527 0.0
H1010 H 0.71839 0.73248 0.31691 0.0
H1011 H 0.74389 0.76761 0.32722 0.0
H1012 H 0.71346 0.69569 0.2695 0.0
H1013 H 0.69129 0.69308 0.22205 0.0
C1014 C 0.2038 0.75259 0.23962 0.0
C1015 C 0.20326 0.73863 0.28045 0.0
C1016 C 0.24411 0.69547 0.25921 0.0
C1017 C 0.23754 0.70407 0.21692 0.0
N1018 N 0.21344 0.74206 0.16584 0.0
N1019 N 0.22441 0.69839 0.3309 0.0
C1020 C 0.21875 0.73357 0.20675 0.0
C1021 C 0.2246 0.71105 0.29112 0.0
N1022 N 0.18923 0.78356 0.23255 0.0
N1023 N 0.26861 0.67206 0.26843 0.0
H1024 H 0.21101 0.70984 0.35522 0.0
H1025 H 0.23625 0.67576 0.33938 0.0
H1026 H 0.28333 0.66051 0.2453 0.0
H1027 H 0.27653 0.66659 0.29876 0.0
H1028 H 0.19082 0.79643 0.20418 0.0
H1029 H 0.17823 0.79776 0.2566 0.0
H1030 H 0.19674 0.76103 0.1563 0.0
H1031 H 0.22468 0.72892 0.14113 0.0
C1032 C 0.27655 0.72541 0.73714 0.0
C1033 C 0.27907 0.73663 0.77902 0.0
C1034 C 0.23854 0.78172 0.76428 0.0
C1035 C 0.24489 0.77693 0.72104 0.0
N1036 N 0.26769 0.74231 0.66524 0.0
N1037 N 0.25922 0.7725 0.83482 0.0
C1038 C 0.26226 0.74753 0.70694 0.0
C1039 C 0.25818 0.76327 0.79368 0.0
N1040 N 0.28971 0.69453 0.72643 0.0
N1041 N 0.21458 0.80466 0.77672 0.0
H1042 H 0.27275 0.75867 0.85709 0.0
H1043 H 0.24769 0.79434 0.84649 0.0
H1044 H 0.19993 0.81822 0.75519 0.0
H1045 H 0.20709 0.80777 0.80772 0.0
H1046 H 0.28679 0.68366 0.69694 0.0
H1047 H 0.3007 0.67854 0.74872 0.0
H1048 H 0.28356 0.72337 0.65364 0.0
H1049 H 0.25776 0.75805 0.64208 0.0
C1050 C 0.21502 0.30164 0.73304 0.0
C1051 C 0.22226 0.29405 0.77548 0.0
C1052 C 0.19232 0.23996 0.76873 0.0
C1053 C 0.18043 0.25029 0.72885 0.0
N1054 N 0.17682 0.29311 0.67484 0.0
N1055 N 0.21498 0.25771 0.83564 0.0
C1056 C 0.19098 0.28161 0.71124 0.0
C1057 C 0.2104 0.26351 0.79386 0.0
N1058 N 0.23166 0.32755 0.71332 0.0
N1059 N 0.18668 0.20751 0.78223 0.0
H1060 H 0.22778 0.27456 0.85526 0.0
H1061 H 0.20368 0.23761 0.85155 0.0
H1062 H 0.17385 0.18953 0.76419 0.0
H1063 H 0.1975 0.19753 0.8093 0.0
H1064 H 0.22979 0.33202 0.68129 0.0
H1065 H 0.24998 0.34243 0.7281 0.0
H1066 H 0.18077 0.31753 0.66331 0.0
H1067 H 0.15886 0.2794 0.65787 0.0
C1068 C 0.7096 0.25022 0.74236 0.0
C1069 C 0.70573 0.24123 0.78486 0.0
C1070 C 0.7417 0.1916 0.77428 0.0
C1071 C 0.73793 0.19599 0.73049 0.0
N1072 N 0.7185 0.22973 0.67195 0.0
N1073 N 0.71964 0.20508 0.84309 0.0
C1074 C 0.72275 0.22585 0.71412 0.0
C1075 C 0.72297 0.21283 0.80167 0.0
N1076 N 0.69949 0.28164 0.72917 0.0
N1077 N 0.76296 0.16703 0.78932 0.0
H1078 H 0.70697 0.22092 0.86408 0.0
H1079 H 0.72817 0.18243 0.85623 0.0
H1080 H 0.77725 0.15144 0.76962 0.0
H1081 H 0.76884 0.1643 0.82089 0.0
H1082 H 0.70403 0.29087 0.69917 0.0
H1083 H 0.68957 0.29966 0.7498 0.0
H1084 H 0.70417 0.24919 0.65871 0.0
H1085 H 0.72728 0.21222 0.65003 0.0
C1086 C 0.78446 0.73895 0.81974 0.0
C1087 C 0.75919 0.72002 0.79852 0.0
C1088 C 0.77533 0.7453 0.73197 0.0
C1089 C 0.80117 0.7639 0.75287 0.0
N1090 N 0.82242 0.78734 0.81742 0.0
N1091 N 0.72233 0.71479 0.73892 0.0
C1092 C 0.80292 0.76383 0.79719 0.0
C1093 C 0.75165 0.72686 0.75614 0.0
N1094 N 0.79239 0.73175 0.86038 0.0
N1095 N 0.77498 0.74262 0.68933 0.0
H1096 H 0.70457 0.70116 0.75638 0.0
H1097 H 0.71414 0.72139 0.709 0.0
H1098 H 0.7928 0.75408 0.66993 0.0
H1099 H 0.75873 0.7263 0.67329 0.0
H1100 H 0.81332 0.74207 0.87568 0.0
H1101 H 0.77932 0.7138 0.87807 0.0
H1102 H 0.82256 0.79023 0.84981 0.0
H1103 H 0.83576 0.80618 0.8014 0.0
C1104 C 0.28556 0.03038 0.50573 0.0
C1105 C 0.28569 0.02181 0.46271 0.0
C1106 C 0.29551 0.96221 0.47952 0.0
C1107 C 0.29214 0.97005 0.5224 0.0
N1108 N 0.29189 0.01121 0.5777 0.0
N1109 N 0.29602 0.98121 0.40804 0.0
C1110 C 0.29014 0.00425 0.53591 0.0
C1111 C 0.29304 0.98835 0.4496 0.0
N1112 N 0.27871 0.06307 0.51734 0.0
N1113 N 0.29967 0.92963 0.46633 0.0
H1114 H 0.29447 0.0001 0.38518 0.0
H1115 H 0.30073 0.95669 0.39697 0.0
H1116 H 0.30155 0.90897 0.48667 0.0
H1117 H 0.30155 0.90897 0.48667 0.0
H1118 H 0.27471 0.07082 0.54805 0.0
H1119 H 0.27602 0.08263 0.49562 0.0
H1120 H 0.29267 0.0356 0.59018 0.0
H1121 H 0.29499 0.99214 0.60003 0.0
C1122 C 0.9413 0.26939 0.51452 0.0
C1123 C 0.95764 0.26496 0.47554 0.0
C1124 C 0.01224 0.25939 0.51125 0.0
C1125 C 0.995 0.25842 0.55001 0.0
N1126 N 0.94344 0.26523 0.58954 0.0
N1127 N 0.00841 0.25581 0.43559 0.0
C1128 C 0.95974 0.26467 0.55194 0.0
C1129 C 0.99322 0.26045 0.47354 0.0
N1130 N 0.90772 0.27707 0.51676 0.0
N1131 N 0.04683 0.26008 0.511 0.0
H1132 H -0.00486 0.25785 0.40746 0.0
H1133 H 0.03359 0.24841 0.43198 0.0
H1134 H 0.06086 0.26089 0.53864 0.0
H1135 H 0.06133 0.26327 0.4841 0.0
H1136 H 0.8925 0.28111 0.49048 0.0
H1137 H 0.8925 0.28111 0.49048 0.0
H1138 H 0.91732 0.26918 0.59203 0.0
H1139 H 0.95609 0.26162 0.61785 0.0
C1140 C 0.68029 0.97671 0.46792 0.0
C1141 C 0.70351 0.98255 0.43499 0.0
C1142 C 0.71739 0.03771 0.4656 0.0
C1143 C 0.7026 0.02668 0.50362 0.0
N1144 N 0.66775 0.98655 0.54088 0.0
N1145 N 0.72375 0.02736 0.39106 0.0
C1146 C 0.68278 -0.00327 0.50461 0.0
C1147 C 0.71607 0.01596 0.43014 0.0
N1148 N 0.65362 0.95528 0.46206 0.0
N1149 N 0.7335 0.06834 0.46411 0.0
H1150 H 0.71879 0.01243 0.36475 0.0
H1151 H 0.73105 0.0522 0.38445 0.0
H1152 H 0.73311 0.08528 0.48923 0.0
H1153 H 0.74801 0.07636 0.43877 0.0
H1154 H 0.63454 0.95186 0.48421 0.0
H1155 H 0.64804 0.94551 0.43248 0.0
H1156 H 0.65587 0.96303 0.544 0.0
H1157 H 0.66914 0.00068 0.56842 0.0
C1158 C 0.00189 0.71664 0.54926 0.0
C1159 C 0.96661 0.72143 0.54395 0.0
C1160 C 0.97252 0.71546 0.46829 0.0
C1161 C 0.00809 0.71541 0.47311 0.0
N1162 N 0.05757 0.71321 0.51661 0.0
N1163 N 0.91744 0.71942 0.49851 0.0
C1164 C 0.02307 0.71451 0.51334 0.0
C1165 C 0.95164 0.7184 0.50387 0.0
N1166 N 0.01466 0.71424 0.58886 0.0
N1167 N 0.95852 0.71434 0.42929 0.0
H1168 H 0.90015 0.72175 0.52303 0.0
H1169 H 0.90015 0.72175 0.52303 0.0
H1170 H 0.9732 0.7123 0.40226 0.0
H1171 H 0.93234 0.71508 0.42435 0.0
H1172 H 0.03993 0.70916 0.59582 0.0
H1173 H -0.00095 0.71538 0.61519 0.0
H1174 H 0.07084 0.71534 0.54461 0.0
H1175 H 0.07316 0.71052 0.49046 0.0
C1176 C 0.78668 0.48945 0.96563 0.0
C1177 C 0.78101 0.52441 0.97249 0.0
C1178 C 0.77911 0.5151 0.04811 0.0
C1179 C 0.78154 0.47969 0.04068 0.0
N1180 N 0.79129 0.43321 0.9928 0.0
N1181 N 0.77698 0.5722 0.01868 0.0
C1182 C 0.78708 0.46702 -9e-05 0.0
C1183 C 0.77923 0.53782 0.01349 0.0
N1184 N 0.7905 0.47735 0.92593 0.0
N1185 N 0.77509 0.52638 0.08823 0.0
H1186 H 0.77718 0.58893 0.99338 0.0
H1187 H 0.77628 0.58444 0.04747 0.0
H1188 H 0.77571 0.50994 0.11381 0.0
H1189 H 0.77092 0.55156 0.09656 0.0
H1190 H 0.79408 0.45157 0.91954 0.0
H1191 H 0.79054 0.49327 0.89984 0.0
H1192 H 0.79174 0.41503 0.01657 0.0
H1193 H 0.79174 0.41503 0.01657 0.0
C1194 C 0.45785 0.78217 0.98741 0.0
C1195 C 0.47638 0.77874 0.94979 0.0
C1196 C 0.52939 0.77616 0.98944 0.0
C1197 C 0.5102 0.77481 0.02678 0.0
N1198 N 0.45663 0.77978 0.06247 0.0
N1199 N 0.52922 0.77366 0.91337 0.0
C1200 C 0.4747 0.77943 0.0261 0.0
C1201 C 0.51219 0.77682 0.95035 0.0
N1202 N 0.42359 0.78627 0.98713 0.0
N1203 N 0.56395 0.77666 0.99191 0.0
H1204 H 0.51684 0.77505 0.88454 0.0
H1205 H 0.55507 0.76874 0.91104 0.0
H1206 H 0.57668 0.77634 0.02056 0.0
H1207 H 0.57992 0.77965 0.96629 0.0
H1208 H 0.40922 0.78838 0.95982 0.0
H1209 H 0.40922 0.78838 0.95982 0.0
H1210 H 0.43029 0.78249 0.06305 0.0
H1211 H 0.46805 0.77745 0.09175 0.0
C1212 C 0.22826 0.50997 0.023 0.0
C1213 C 0.19629 0.50619 0.03543 0.0
C1214 C 0.18722 0.45999 0.98724 0.0
C1215 C 0.22294 0.46094 0.9781 0.0
N1216 N 0.27844 0.48482 0.99354 0.0
N1217 N 0.14023 0.48487 0.02791 0.0
C1218 C 0.24407 0.4859 0.9972 0.0
C1219 C 0.17358 0.48346 0.01718 0.0
N1220 N 0.24025 0.54131 0.03646 0.0
N1221 N 0.16694 0.43743 0.9667 0.0
H1222 H 0.13165 0.50258 0.04987 0.0
H1223 H 0.12167 0.46889 0.01577 0.0
H1224 H 0.17619 0.42152 0.94322 0.0
H1225 H 0.14103 0.43501 0.97203 0.0
H1226 H 0.26552 0.54489 0.02666 0.0
H1227 H 0.20655 0.5769 0.07431 0.0
H1228 H 0.29439 0.50179 0.00901 0.0
H1229 H 0.29096 0.46482 0.97879 0.0
C1230 C 0.48203 0.22779 0.97395 0.0
C1231 C 0.51774 0.23145 0.97436 0.0
C1232 C 0.51839 0.22727 0.05065 0.0
C1233 C 0.48273 0.22487 0.05047 0.0
N1234 N 0.4308 0.21532 0.01335 0.0
N1235 N 0.57051 0.22962 0.01304 0.0
C1236 C 0.46462 0.22258 0.01235 0.0
C1237 C 0.53603 0.2293 0.0124 0.0
N1238 N 0.4649 0.23091 0.93701 0.0
N1239 N 0.53558 0.22823 0.08765 0.0
H1240 H 0.5854 0.23022 0.98609 0.0
H1241 H 0.5854 0.23022 0.98609 0.0
H1242 H 0.52328 0.22651 0.11648 0.0
H1243 H 0.56193 0.23056 0.08912 0.0
H1244 H 0.4386 0.23206 0.93468 0.0
H1245 H 0.47732 0.23418 0.9085 0.0
H1246 H 0.41626 0.21056 0.98683 0.0
H1247 H 0.41791 0.21125 0.04138 0.0
loop_
_geom_bond_atom_site_label_1
_geom_bond_atom_site_label_2
_geom_bond_distance
_geom_bond_site_symmetry_2
_ccdc_geom_bond_type
C0 C1 1.351 . S
C0 N3 1.368 . S
C0 H5 0.931 . S
C1 C0 1.351 . S
C1 N2 1.373 . S
C1 H29 0.930 . S
N2 C1 1.373 . S
N2 C4 1.340 . S
N3 C0 1.368 . S
N3 C4 1.321 . S
N3 Co6 2.135 . S
C4 N2 1.340 . S
C4 N3 1.321 . S
C4 H28 0.930 . S
H5 C0 0.931 . S
Co6 N3 2.135 . S
Co6 N9 2.121 . S
Co6 O14 2.055 . S
Co6 O17 2.039 . S
Co6 N20 2.140 . S
C7 O8 1.227 . S
C7 O17 1.265 . S
O8 C7 1.227 . S
N9 Co6 2.121 . S
N9 C11 1.375 . S
N9 C12 1.313 . S
C10 C11 1.338 . S
C10 N13 1.377 . S
C10 H30 0.930 . S
C11 N9 1.375 . S
C11 C10 1.338 . S
C11 H15 0.931 . S
C12 N9 1.313 . S
C12 N13 1.344 . S
C12 H16 0.930 . S
N13 C10 1.377 . S
N13 C12 1.344 . S
O14 Co6 2.055 . S
O14 C18 1.253 . S
H15 C11 0.931 . S
H16 C12 0.930 . S
O17 Co6 2.039 . S
O17 C7 1.265 . S
C18 O14 1.253 . S
C18 O19 1.227 . S
O19 C18 1.227 . S
N20 Co6 2.140 . S
N20 C23 1.346 . S
N20 C24 1.345 . S
C21 C22 1.387 . S
C21 C25 1.391 . S
C22 C21 1.387 . S
C22 C23 1.369 . S
C22 H31 0.929 . S
C23 N20 1.346 . S
C23 C22 1.369 . S
C23 H26 0.928 . S
C24 N20 1.345 . S
C24 C25 1.371 . S
C24 H27 0.931 . S
C25 C21 1.391 . S
C25 C24 1.371 . S
C25 H32 0.930 . S
H26 C23 0.928 . S
H27 C24 0.931 . S
H28 C4 0.930 . S
H29 C1 0.930 . S
H30 C10 0.930 . S
H31 C22 0.929 . S
H32 C25 0.930 . S
C33 C34 1.351 . S
C33 N36 1.368 . S
C33 H38 0.931 . S
C34 C33 1.351 . S
C34 N35 1.373 . S
C34 H62 0.930 . S
N35 C34 1.373 . S
N35 C37 1.340 . S
N36 C33 1.368 . S
N36 C37 1.321 . S
N36 Co39 2.135 . S
C37 N35 1.340 . S
C37 N36 1.321 . S
C37 H61 0.930 . S
H38 C33 0.931 . S
Co39 N36 2.135 . S
Co39 N42 2.121 . S
Co39 O47 2.055 . S
Co39 O50 2.039 . S
Co39 N53 2.140 . S
C40 O41 1.227 . S
C40 O50 1.265 . S
O41 C40 1.227 . S
N42 Co39 2.121 . S
N42 C44 1.375 . S
N42 C45 1.313 . S
C43 C44 1.338 . S
C43 N46 1.377 . S
C43 H63 0.930 . S
C44 N42 1.375 . S
C44 C43 1.338 . S
C44 H48 0.931 . S
C45 N42 1.313 . S
C45 N46 1.344 . S
C45 H49 0.930 . S
N46 C43 1.377 . S
N46 C45 1.344 . S
O47 Co39 2.055 . S
O47 C51 1.253 . S
H48 C44 0.931 . S
H49 C45 0.930 . S
O50 Co39 2.039 . S
O50 C40 1.265 . S
C51 O47 1.253 . S
C51 O52 1.227 . S
O52 C51 1.227 . S
N53 Co39 2.140 . S
N53 C56 1.346 . S
N53 C57 1.345 . S
C54 C55 1.387 . S
C54 C58 1.391 . S
C55 C54 1.387 . S
C55 C56 1.369 . S
C55 H64 0.929 . S
C56 N53 1.346 . S
C56 C55 1.369 . S
C56 H59 0.928 . S
C57 N53 1.345 . S
C57 C58 1.371 . S
C57 H60 0.931 . S
C58 C54 1.391 . S
C58 C57 1.371 . S
C58 H65 0.930 . S
H59 C56 0.928 . S
H60 C57 0.931 . S
H61 C37 0.930 . S
H62 C34 0.930 . S
H63 C43 0.930 . S
H64 C55 0.929 . S
H65 C58 0.930 . S
C66 C67 1.351 . S
C66 N69 1.368 . S
C66 H71 0.931 . S
C67 C66 1.351 . S
C67 N68 1.373 . S
C67 H95 0.930 . S
N68 C67 1.373 . S
N68 C70 1.340 . S
N69 C66 1.368 . S
N69 C70 1.321 . S
N69 Co72 2.135 . S
C70 N68 1.340 . S
C70 N69 1.321 . S
C70 H94 0.930 . S
H71 C66 0.931 . S
Co72 N69 2.135 . S
Co72 N75 2.121 . S
Co72 O80 2.055 . S
Co72 O83 2.039 . S
Co72 N86 2.140 . S
C73 O74 1.227 . S
C73 O83 1.265 . S
O74 C73 1.227 . S
N75 Co72 2.121 . S
N75 C77 1.375 . S
N75 C78 1.313 . S
C76 C77 1.338 . S
C76 N79 1.377 . S
C76 H96 0.930 . S
C77 N75 1.375 . S
C77 C76 1.338 . S
C77 H81 0.931 . S
C78 N75 1.313 . S
C78 N79 1.344 . S
C78 H82 0.930 . S
N79 C76 1.377 . S
N79 C78 1.344 . S
O80 Co72 2.055 . S
O80 C84 1.253 . S
H81 C77 0.931 . S
H82 C78 0.930 . S
O83 Co72 2.039 . S
O83 C73 1.265 . S
C84 O80 1.253 . S
C84 O85 1.227 . S
O85 C84 1.227 . S
N86 Co72 2.140 . S
N86 C89 1.346 . S
N86 C90 1.345 . S
C87 C88 1.387 . S
C87 C91 1.391 . S
C88 C87 1.387 . S
C88 C89 1.369 . S
C88 H97 0.929 . S
C89 N86 1.346 . S
C89 C88 1.369 . S
C89 H92 0.928 . S
C90 N86 1.345 . S
C90 C91 1.371 . S
C90 H93 0.931 . S
C91 C87 1.391 . S
C91 C90 1.371 . S
C91 H98 0.930 . S
H92 C89 0.928 . S
H93 C90 0.931 . S
H94 C70 0.930 . S
H95 C67 0.930 . S
H96 C76 0.930 . S
H97 C88 0.929 . S
H98 C91 0.930 . S
C99 C100 1.351 . S
C99 N102 1.368 . S
C99 H104 0.931 . S
C100 C99 1.351 . S
C100 N101 1.373 . S
C100 H128 0.930 . S
N101 C100 1.373 . S
N101 C103 1.340 . S
N102 C99 1.368 . S
N102 C103 1.321 . S
N102 Co105 2.135 . S
C103 N101 1.340 . S
C103 N102 1.321 . S
C103 H127 0.930 . S
H104 C99 0.931 . S
Co105 N102 2.135 . S
Co105 N108 2.121 . S
Co105 O113 2.055 . S
Co105 O116 2.039 . S
Co105 N119 2.140 . S
C106 O107 1.227 . S
C106 O116 1.265 . S
O107 C106 1.227 . S
N108 Co105 2.121 . S
N108 C110 1.375 . S
N108 C111 1.313 . S
C109 C110 1.338 . S
C109 N112 1.377 . S
C109 H129 0.930 . S
C110 N108 1.375 . S
C110 C109 1.338 . S
C110 H114 0.931 . S
C111 N108 1.313 . S
C111 N112 1.344 . S
C111 H115 0.930 . S
N112 C109 1.377 . S
N112 C111 1.344 . S
O113 Co105 2.055 . S
O113 C117 1.253 . S
H114 C110 0.931 . S
H115 C111 0.930 . S
O116 Co105 2.039 . S
O116 C106 1.265 . S
C117 O113 1.253 . S
C117 O118 1.227 . S
O118 C117 1.227 . S
N119 Co105 2.140 . S
N119 C122 1.346 . S
N119 C123 1.345 . S
C120 C121 1.387 . S
C120 C124 1.391 . S
C121 C120 1.387 . S
C121 C122 1.369 . S
C121 H130 0.929 . S
C122 N119 1.346 . S
C122 C121 1.369 . S
C122 H125 0.928 . S
C123 N119 1.345 . S
C123 C124 1.371 . S
C123 H126 0.931 . S
C124 C120 1.391 . S
C124 C123 1.371 . S
C124 H131 0.930 . S
H125 C122 0.928 . S
H126 C123 0.931 . S
H127 C103 0.930 . S
H128 C100 0.930 . S
H129 C109 0.930 . S
H130 C121 0.929 . S
H131 C124 0.930 . S
C132 C133 1.351 . S
C132 N135 1.368 . S
C132 H137 0.931 . S
C133 C132 1.351 . S
C133 N134 1.373 . S
C133 H161 0.930 . S
N134 C133 1.373 . S
N134 C136 1.340 . S
N135 C132 1.368 . S
N135 C136 1.321 . S
N135 Co138 2.135 . S
C136 N134 1.340 . S
C136 N135 1.321 . S
C136 H160 0.930 . S
H137 C132 0.931 . S
Co138 N135 2.135 . S
Co138 N141 2.121 . S
Co138 O146 2.055 . S
Co138 O149 2.039 . S
Co138 N152 2.140 . S
C139 O140 1.227 . S
C139 O149 1.265 . S
O140 C139 1.227 . S
N141 Co138 2.121 . S
N141 C143 1.375 . S
N141 C144 1.313 . S
C142 C143 1.338 . S
C142 N145 1.377 . S
C142 H162 0.930 . S
C143 N141 1.375 . S
C143 C142 1.338 . S
C143 H147 0.931 . S
C144 N141 1.313 . S
C144 N145 1.344 . S
C144 H148 0.930 . S
N145 C142 1.377 . S
N145 C144 1.344 . S
O146 Co138 2.055 . S
O146 C150 1.253 . S
H147 C143 0.931 . S
H148 C144 0.930 . S
O149 Co138 2.039 . S
O149 C139 1.265 . S
C150 O146 1.253 . S
C150 O151 1.227 . S
O151 C150 1.227 . S
N152 Co138 2.140 . S
N152 C155 1.346 . S
N152 C156 1.345 . S
C153 C154 1.387 . S
C153 C157 1.391 . S
C154 C153 1.387 . S
C154 C155 1.369 . S
C154 H163 0.929 . S
C155 N152 1.346 . S
C155 C154 1.369 . S
C155 H158 0.928 . S
C156 N152 1.345 . S
C156 C157 1.371 . S
C156 H159 0.931 . S
C157 C153 1.391 . S
C157 C156 1.371 . S
C157 H164 0.930 . S
H158 C155 0.928 . S
H159 C156 0.931 . S
H160 C136 0.930 . S
H161 C133 0.930 . S
H162 C142 0.930 . S
H163 C154 0.929 . S
H164 C157 0.930 . S
C165 C166 1.351 . S
C165 N168 1.368 . S
C165 H170 0.931 . S
C166 C165 1.351 . S
C166 N167 1.373 . S
C166 H194 0.930 . S
N167 C166 1.373 . S
N167 C169 1.340 . S
N168 C165 1.368 . S
N168 C169 1.321 . S
N168 Co171 2.135 . S
C169 N167 1.340 . S
C169 N168 1.321 . S
C169 H193 0.930 . S
H170 C165 0.931 . S
Co171 N168 2.135 . S
Co171 N174 2.121 . S
Co171 O179 2.055 . S
Co171 O182 2.039 . S
Co171 N185 2.140 . S
C172 O173 1.227 . S
C172 O182 1.265 . S
O173 C172 1.227 . S
N174 Co171 2.121 . S
N174 C176 1.375 . S
N174 C177 1.313 . S
C175 C176 1.338 . S
C175 N178 1.377 . S
C175 H195 0.930 . S
C176 N174 1.375 . S
C176 C175 1.338 . S
C176 H180 0.931 . S
C177 N174 1.313 . S
C177 N178 1.344 . S
C177 H181 0.930 . S
N178 C175 1.377 . S
N178 C177 1.344 . S
O179 Co171 2.055 . S
O179 C183 1.253 . S
H180 C176 0.931 . S
H181 C177 0.930 . S
O182 Co171 2.039 . S
O182 C172 1.265 . S
C183 O179 1.253 . S
C183 O184 1.227 . S
O184 C183 1.227 . S
N185 Co171 2.140 . S
N185 C188 1.346 . S
N185 C189 1.345 . S
C186 C187 1.387 . S
C186 C190 1.391 . S
C187 C186 1.387 . S
C187 C188 1.369 . S
C187 H196 0.929 . S
C188 N185 1.346 . S
C188 C187 1.369 . S
C188 H191 0.928 . S
C189 N185 1.345 . S
C189 C190 1.371 . S
C189 H192 0.931 . S
C190 C186 1.391 . S
C190 C189 1.371 . S
C190 H197 0.930 . S
H191 C188 0.928 . S
H192 C189 0.931 . S
H193 C169 0.930 . S
H194 C166 0.930 . S
H195 C175 0.930 . S
H196 C187 0.929 . S
H197 C190 0.930 . S
C198 C199 1.351 . S
C198 N201 1.368 . S
C198 H203 0.931 . S
C199 C198 1.351 . S
C199 N200 1.373 . S
C199 H227 0.930 . S
N200 C199 1.373 . S
N200 C202 1.340 . S
N201 C198 1.368 . S
N201 C202 1.321 . S
N201 Co204 2.135 . S
C202 N200 1.340 . S
C202 N201 1.321 . S
C202 H226 0.930 . S
H203 C198 0.931 . S
Co204 N201 2.135 . S
Co204 N207 2.121 . S
Co204 O212 2.055 . S
Co204 O215 2.039 . S
Co204 N218 2.140 . S
C205 O206 1.227 . S
C205 O215 1.265 . S
O206 C205 1.227 . S
N207 Co204 2.121 . S
N207 C209 1.375 . S
N207 C210 1.313 . S
C208 C209 1.338 . S
C208 N211 1.377 . S
C208 H228 0.930 . S
C209 N207 1.375 . S
C209 C208 1.338 . S
C209 H213 0.931 . S
C210 N207 1.313 . S
C210 N211 1.344 . S
C210 H214 0.930 . S
N211 C208 1.377 . S
N211 C210 1.344 . S
O212 Co204 2.055 . S
O212 C216 1.253 . S
H213 C209 0.931 . S
H214 C210 0.930 . S
O215 Co204 2.039 . S
O215 C205 1.265 . S
C216 O212 1.253 . S
C216 O217 1.227 . S
O217 C216 1.227 . S
N218 Co204 2.140 . S
N218 C221 1.346 . S
N218 C222 1.345 . S
C219 C220 1.387 . S
C219 C223 1.391 . S
C220 C219 1.387 . S
C220 C221 1.369 . S
C220 H229 0.929 . S
C221 N218 1.346 . S
C221 C220 1.369 . S
C221 H224 0.928 . S
C222 N218 1.345 . S
C222 C223 1.371 . S
C222 H225 0.931 . S
C223 C219 1.391 . S
C223 C222 1.371 . S
C223 H230 0.930 . S
H224 C221 0.928 . S
H225 C222 0.931 . S
H226 C202 0.930 . S
H227 C199 0.930 . S
H228 C208 0.930 . S
H229 C220 0.929 . S
H230 C223 0.930 . S
C231 C232 1.351 . S
C231 N234 1.368 . S
C231 H236 0.931 . S
C232 C231 1.351 . S
C232 N233 1.373 . S
C232 H260 0.930 . S
N233 C232 1.373 . S
N233 C235 1.340 . S
N234 C231 1.368 . S
N234 C235 1.321 . S
N234 Co237 2.135 . S
C235 N233 1.340 . S
C235 N234 1.321 . S
C235 H259 0.930 . S
H236 C231 0.931 . S
Co237 N234 2.135 . S
Co237 N240 2.121 . S
Co237 O245 2.055 . S
Co237 O248 2.039 . S
Co237 N251 2.140 . S
C238 O239 1.227 . S
C238 O248 1.265 . S
O239 C238 1.227 . S
N240 Co237 2.121 . S
N240 C242 1.375 . S
N240 C243 1.313 . S
C241 C242 1.338 . S
C241 N244 1.377 . S
C241 H261 0.930 . S
C242 N240 1.375 . S
C242 C241 1.338 . S
C242 H246 0.931 . S
C243 N240 1.313 . S
C243 N244 1.344 . S
C243 H247 0.930 . S
N244 C241 1.377 . S
N244 C243 1.344 . S
O245 Co237 2.055 . S
O245 C249 1.253 . S
H246 C242 0.931 . S
H247 C243 0.930 . S
O248 Co237 2.039 . S
O248 C238 1.265 . S
C249 O245 1.253 . S
C249 O250 1.227 . S
O250 C249 1.227 . S
N251 Co237 2.140 . S
N251 C254 1.346 . S
N251 C255 1.345 . S
C252 C253 1.387 . S
C252 C256 1.391 . S
C253 C252 1.387 . S
C253 C254 1.369 . S
C253 H262 0.929 . S
C254 N251 1.346 . S
C254 C253 1.369 . S
C254 H257 0.928 . S
C255 N251 1.345 . S
C255 C256 1.371 . S
C255 H258 0.931 . S
C256 C252 1.391 . S
C256 C255 1.371 . S
C256 H263 0.930 . S
H257 C254 0.928 . S
H258 C255 0.931 . S
H259 C235 0.930 . S
H260 C232 0.930 . S
H261 C241 0.930 . S
H262 C253 0.929 . S
H263 C256 0.930 . S
C264 C265 1.351 . S
C264 N267 1.368 . S
C264 H269 0.931 . S
C265 C264 1.351 . S
C265 N266 1.373 . S
C265 H293 0.930 . S
N266 C265 1.373 . S
N266 C268 1.340 . S
N267 C264 1.368 . S
N267 C268 1.321 . S
N267 Co270 2.135 . S
C268 N266 1.340 . S
C268 N267 1.321 . S
C268 H292 0.930 . S
H269 C264 0.931 . S
Co270 N267 2.135 . S
Co270 N273 2.121 . S
Co270 O278 2.055 . S
Co270 O281 2.039 . S
Co270 N284 2.140 . S
C271 O272 1.227 . S
C271 O281 1.265 . S
O272 C271 1.227 . S
N273 Co270 2.121 . S
N273 C275 1.375 . S
N273 C276 1.313 . S
C274 C275 1.338 . S
C274 N277 1.377 . S
C274 H294 0.930 . S
C275 N273 1.375 . S
C275 C274 1.338 . S
C275 H279 0.931 . S
C276 N273 1.313 . S
C276 N277 1.344 . S
C276 H280 0.930 . S
N277 C274 1.377 . S
N277 C276 1.344 . S
O278 Co270 2.055 . S
O278 C282 1.253 . S
H279 C275 0.931 . S
H280 C276 0.930 . S
O281 Co270 2.039 . S
O281 C271 1.265 . S
C282 O278 1.253 . S
C282 O283 1.227 . S
O283 C282 1.227 . S
N284 Co270 2.140 . S
N284 C287 1.346 . S
N284 C288 1.345 . S
C285 C286 1.387 . S
C285 C289 1.391 . S
C286 C285 1.387 . S
C286 C287 1.369 . S
C286 H295 0.929 . S
C287 N284 1.346 . S
C287 C286 1.369 . S
C287 H290 0.928 . S
C288 N284 1.345 . S
C288 C289 1.371 . S
C288 H291 0.931 . S
C289 C285 1.391 . S
C289 C288 1.371 . S
C289 H296 0.930 . S
H290 C287 0.928 . S
H291 C288 0.931 . S
H292 C268 0.930 . S
H293 C265 0.930 . S
H294 C274 0.930 . S
H295 C286 0.929 . S
H296 C289 0.930 . S
C297 C298 1.351 . S
C297 N300 1.368 . S
C297 H302 0.931 . S
C298 C297 1.351 . S
C298 N299 1.373 . S
C298 H326 0.930 . S
N299 C298 1.373 . S
N299 C301 1.340 . S
N300 C297 1.368 . S
N300 C301 1.321 . S
N300 Co303 2.135 . S
C301 N299 1.340 . S
C301 N300 1.321 . S
C301 H325 0.930 . S
H302 C297 0.931 . S
Co303 N300 2.135 . S
Co303 N306 2.121 . S
Co303 O311 2.055 . S
Co303 O314 2.039 . S
Co303 N317 2.140 . S
C304 O305 1.227 . S
C304 O314 1.265 . S
O305 C304 1.227 . S
N306 Co303 2.121 . S
N306 C308 1.375 . S
N306 C309 1.313 . S
C307 C308 1.338 . S
C307 N310 1.377 . S
C307 H327 0.930 . S
C308 N306 1.375 . S
C308 C307 1.338 . S
C308 H312 0.931 . S
C309 N306 1.313 . S
C309 N310 1.344 . S
C309 H313 0.930 . S
N310 C307 1.377 . S
N310 C309 1.344 . S
O311 Co303 2.055 . S
O311 C315 1.253 . S
H312 C308 0.931 . S
H313 C309 0.930 . S
O314 Co303 2.039 . S
O314 C304 1.265 . S
C315 O311 1.253 . S
C315 O316 1.227 . S
O316 C315 1.227 . S
N317 Co303 2.140 . S
N317 C320 1.346 . S
N317 C321 1.345 . S
C318 C319 1.387 . S
C318 C322 1.391 . S
C319 C318 1.387 . S
C319 C320 1.369 . S
C319 H328 0.929 . S
C320 N317 1.346 . S
C320 C319 1.369 . S
C320 H323 0.928 . S
C321 N317 1.345 . S
C321 C322 1.371 . S
C321 H324 0.931 . S
C322 C318 1.391 . S
C322 C321 1.371 . S
C322 H329 0.930 . S
H323 C320 0.928 . S
H324 C321 0.931 . S
H325 C301 0.930 . S
H326 C298 0.930 . S
H327 C307 0.930 . S
H328 C319 0.929 . S
H329 C322 0.930 . S
C330 C331 1.351 . S
C330 N333 1.368 . S
C330 H335 0.931 . S
C331 C330 1.351 . S
C331 N332 1.373 . S
C331 H359 0.930 . S
N332 C331 1.373 . S
N332 C334 1.340 . S
N333 C330 1.368 . S
N333 C334 1.321 . S
N333 Co336 2.135 . S
C334 N332 1.340 . S
C334 N333 1.321 . S
C334 H358 0.930 . S
H335 C330 0.931 . S
Co336 N333 2.135 . S
Co336 N339 2.121 . S
Co336 O344 2.055 . S
Co336 O347 2.039 . S
Co336 N350 2.140 . S
C337 O338 1.227 . S
C337 O347 1.265 . S
O338 C337 1.227 . S
N339 Co336 2.121 . S
N339 C341 1.375 . S
N339 C342 1.313 . S
C340 C341 1.338 . S
C340 N343 1.377 . S
C340 H360 0.930 . S
C341 N339 1.375 . S
C341 C340 1.338 . S
C341 H345 0.931 . S
C342 N339 1.313 . S
C342 N343 1.344 . S
C342 H346 0.930 . S
N343 C340 1.377 . S
N343 C342 1.344 . S
O344 Co336 2.055 . S
O344 C348 1.253 . S
H345 C341 0.931 . S
H346 C342 0.930 . S
O347 Co336 2.039 . S
O347 C337 1.265 . S
C348 O344 1.253 . S
C348 O349 1.227 . S
O349 C348 1.227 . S
N350 Co336 2.140 . S
N350 C353 1.346 . S
N350 C354 1.345 . S
C351 C352 1.387 . S
C351 C355 1.391 . S
C352 C351 1.387 . S
C352 C353 1.369 . S
C352 H361 0.929 . S
C353 N350 1.346 . S
C353 C352 1.369 . S
C353 H356 0.928 . S
C354 N350 1.345 . S
C354 C355 1.371 . S
C354 H357 0.931 . S
C355 C351 1.391 . S
C355 C354 1.371 . S
C355 H362 0.930 . S
H356 C353 0.928 . S
H357 C354 0.931 . S
H358 C334 0.930 . S
H359 C331 0.930 . S
H360 C340 0.930 . S
H361 C352 0.929 . S
H362 C355 0.930 . S
C363 C364 1.351 . S
C363 N366 1.368 . S
C363 H368 0.931 . S
C364 C363 1.351 . S
C364 N365 1.373 . S
C364 H392 0.930 . S
N365 C364 1.373 . S
N365 C367 1.340 . S
N366 C363 1.368 . S
N366 C367 1.321 . S
N366 Co369 2.135 . S
C367 N365 1.340 . S
C367 N366 1.321 . S
C367 H391 0.930 . S
H368 C363 0.931 . S
Co369 N366 2.135 . S
Co369 N372 2.121 . S
Co369 O377 2.055 . S
Co369 O380 2.039 . S
Co369 N383 2.140 . S
C370 O371 1.227 . S
C370 O380 1.265 . S
O371 C370 1.227 . S
N372 Co369 2.121 . S
N372 C374 1.375 . S
N372 C375 1.313 . S
C373 C374 1.338 . S
C373 N376 1.377 . S
C373 H393 0.930 . S
C374 N372 1.375 . S
C374 C373 1.338 . S
C374 H378 0.931 . S
C375 N372 1.313 . S
C375 N376 1.344 . S
C375 H379 0.930 . S
N376 C373 1.377 . S
N376 C375 1.344 . S
O377 Co369 2.055 . S
O377 C381 1.253 . S
H378 C374 0.931 . S
H379 C375 0.930 . S
O380 Co369 2.039 . S
O380 C370 1.265 . S
C381 O377 1.253 . S
C381 O382 1.227 . S
O382 C381 1.227 . S
N383 Co369 2.140 . S
N383 C386 1.346 . S
N383 C387 1.345 . S
C384 C385 1.387 . S
C384 C388 1.391 . S
C385 C384 1.387 . S
C385 C386 1.369 . S
C385 H394 0.929 . S
C386 N383 1.346 . S
C386 C385 1.369 . S
C386 H389 0.928 . S
C387 N383 1.345 . S
C387 C388 1.371 . S
C387 H390 0.931 . S
C388 C384 1.391 . S
C388 C387 1.371 . S
C388 H395 0.930 . S
H389 C386 0.928 . S
H390 C387 0.931 . S
H391 C367 0.930 . S
H392 C364 0.930 . S
H393 C373 0.930 . S
H394 C385 0.929 . S
H395 C388 0.930 . S
C396 C397 1.351 . S
C396 N399 1.368 . S
C396 H401 0.931 . S
C397 C396 1.351 . S
C397 N398 1.373 . S
C397 H425 0.930 . S
N398 C397 1.373 . S
N398 C400 1.340 . S
N399 C396 1.368 . S
N399 C400 1.321 . S
N399 Co402 2.135 . S
C400 N398 1.340 . S
C400 N399 1.321 . S
C400 H424 0.930 . S
H401 C396 0.931 . S
Co402 N399 2.135 . S
Co402 N405 2.121 . S
Co402 O410 2.055 . S
Co402 O413 2.039 . S
Co402 N416 2.140 . S
C403 O404 1.227 . S
C403 O413 1.265 . S
O404 C403 1.227 . S
N405 Co402 2.121 . S
N405 C407 1.375 . S
N405 C408 1.313 . S
C406 C407 1.338 . S
C406 N409 1.377 . S
C406 H426 0.930 . S
C407 N405 1.375 . S
C407 C406 1.338 . S
C407 H411 0.931 . S
C408 N405 1.313 . S
C408 N409 1.344 . S
C408 H412 0.930 . S
N409 C406 1.377 . S
N409 C408 1.344 . S
O410 Co402 2.055 . S
O410 C414 1.253 . S
H411 C407 0.931 . S
H412 C408 0.930 . S
O413 Co402 2.039 . S
O413 C403 1.265 . S
C414 O410 1.253 . S
C414 O415 1.227 . S
O415 C414 1.227 . S
N416 Co402 2.140 . S
N416 C419 1.346 . S
N416 C420 1.345 . S
C417 C418 1.387 . S
C417 C421 1.391 . S
C418 C417 1.387 . S
C418 C419 1.369 . S
C418 H427 0.929 . S
C419 N416 1.346 . S
C419 C418 1.369 . S
C419 H422 0.928 . S
C420 N416 1.345 . S
C420 C421 1.371 . S
C420 H423 0.931 . S
C421 C417 1.391 . S
C421 C420 1.371 . S
C421 H428 0.930 . S
H422 C419 0.928 . S
H423 C420 0.931 . S
H424 C400 0.930 . S
H425 C397 0.930 . S
H426 C406 0.930 . S
H427 C418 0.929 . S
H428 C421 0.930 . S
C429 C430 1.351 . S
C429 N432 1.368 . S
C429 H434 0.931 . S
C430 C429 1.351 . S
C430 N431 1.373 . S
C430 H458 0.930 . S
N431 C430 1.373 . S
N431 C433 1.340 . S
N432 C429 1.368 . S
N432 C433 1.321 . S
N432 Co435 2.135 . S
C433 N431 1.340 . S
C433 N432 1.321 . S
C433 H457 0.930 . S
H434 C429 0.931 . S
Co435 N432 2.135 . S
Co435 N438 2.121 . S
Co435 O443 2.055 . S
Co435 O446 2.039 . S
Co435 N449 2.140 . S
C436 O437 1.227 . S
C436 O446 1.265 . S
O437 C436 1.227 . S
N438 Co435 2.121 . S
N438 C440 1.375 . S
N438 C441 1.313 . S
C439 C440 1.338 . S
C439 N442 1.377 . S
C439 H459 0.930 . S
C440 N438 1.375 . S
C440 C439 1.338 . S
C440 H444 0.931 . S
C441 N438 1.313 . S
C441 N442 1.344 . S
C441 H445 0.930 . S
N442 C439 1.377 . S
N442 C441 1.344 . S
O443 Co435 2.055 . S
O443 C447 1.253 . S
H444 C440 0.931 . S
H445 C441 0.930 . S
O446 Co435 2.039 . S
O446 C436 1.265 . S
C447 O443 1.253 . S
C447 O448 1.227 . S
O448 C447 1.227 . S
N449 Co435 2.140 . S
N449 C452 1.346 . S
N449 C453 1.345 . S
C450 C451 1.387 . S
C450 C454 1.391 . S
C451 C450 1.387 . S
C451 C452 1.369 . S
C451 H460 0.929 . S
C452 N449 1.346 . S
C452 C451 1.369 . S
C452 H455 0.928 . S
C453 N449 1.345 . S
C453 C454 1.371 . S
C453 H456 0.931 . S
C454 C450 1.391 . S
C454 C453 1.371 . S
C454 H461 0.930 . S
H455 C452 0.928 . S
H456 C453 0.931 . S
H457 C433 0.930 . S
H458 C430 0.930 . S
H459 C439 0.930 . S
H460 C451 0.929 . S
H461 C454 0.930 . S
C462 C463 1.351 . S
C462 N465 1.368 . S
C462 H467 0.931 . S
C463 C462 1.351 . S
C463 N464 1.373 . S
C463 H491 0.930 . S
N464 C463 1.373 . S
N464 C466 1.340 . S
N465 C462 1.368 . S
N465 C466 1.321 . S
N465 Co468 2.135 . S
C466 N464 1.340 . S
C466 N465 1.321 . S
C466 H490 0.930 . S
H467 C462 0.931 . S
Co468 N465 2.135 . S
Co468 N471 2.121 . S
Co468 O476 2.055 . S
Co468 O479 2.039 . S
Co468 N482 2.140 . S
C469 O470 1.227 . S
C469 O479 1.265 . S
O470 C469 1.227 . S
N471 Co468 2.121 . S
N471 C473 1.375 . S
N471 C474 1.313 . S
C472 C473 1.338 . S
C472 N475 1.377 . S
C472 H492 0.930 . S
C473 N471 1.375 . S
C473 C472 1.338 . S
C473 H477 0.931 . S
C474 N471 1.313 . S
C474 N475 1.344 . S
C474 H478 0.930 . S
N475 C472 1.377 . S
N475 C474 1.344 . S
O476 Co468 2.055 . S
O476 C480 1.253 . S
H477 C473 0.931 . S
H478 C474 0.930 . S
O479 Co468 2.039 . S
O479 C469 1.265 . S
C480 O476 1.253 . S
C480 O481 1.227 . S
O481 C480 1.227 . S
N482 Co468 2.140 . S
N482 C485 1.346 . S
N482 C486 1.345 . S
C483 C484 1.387 . S
C483 C487 1.391 . S
C484 C483 1.387 . S
C484 C485 1.369 . S
C484 H493 0.929 . S
C485 N482 1.346 . S
C485 C484 1.369 . S
C485 H488 0.928 . S
C486 N482 1.345 . S
C486 C487 1.371 . S
C486 H489 0.931 . S
C487 C483 1.391 . S
C487 C486 1.371 . S
C487 H494 0.930 . S
H488 C485 0.928 . S
H489 C486 0.931 . S
H490 C466 0.930 . S
H491 C463 0.930 . S
H492 C472 0.930 . S
H493 C484 0.929 . S
H494 C487 0.930 . S
C495 C496 1.351 . S
C495 N498 1.368 . S
C495 H500 0.931 . S
C496 C495 1.351 . S
C496 N497 1.373 . S
C496 H524 0.930 . S
N497 C496 1.373 . S
N497 C499 1.340 . S
N498 C495 1.368 . S
N498 C499 1.321 . S
N498 Co501 2.135 . S
C499 N497 1.340 . S
C499 N498 1.321 . S
C499 H523 0.930 . S
H500 C495 0.931 . S
Co501 N498 2.135 . S
Co501 N504 2.121 . S
Co501 O509 2.055 . S
Co501 O512 2.039 . S
Co501 N515 2.140 . S
C502 O503 1.227 . S
C502 O512 1.265 . S
O503 C502 1.227 . S
N504 Co501 2.121 . S
N504 C506 1.375 . S
N504 C507 1.313 . S
C505 C506 1.338 . S
C505 N508 1.377 . S
C505 H525 0.930 . S
C506 N504 1.375 . S
C506 C505 1.338 . S
C506 H510 0.931 . S
C507 N504 1.313 . S
C507 N508 1.344 . S
C507 H511 0.930 . S
N508 C505 1.377 . S
N508 C507 1.344 . S
O509 Co501 2.055 . S
O509 C513 1.253 . S
H510 C506 0.931 . S
H511 C507 0.930 . S
O512 Co501 2.039 . S
O512 C502 1.265 . S
C513 O509 1.253 . S
C513 O514 1.227 . S
O514 C513 1.227 . S
N515 Co501 2.140 . S
N515 C518 1.346 . S
N515 C519 1.345 . S
C516 C517 1.387 . S
C516 C520 1.391 . S
C517 C516 1.387 . S
C517 C518 1.369 . S
C517 H526 0.929 . S
C518 N515 1.346 . S
C518 C517 1.369 . S
C518 H521 0.928 . S
C519 N515 1.345 . S
C519 C520 1.371 . S
C519 H522 0.931 . S
C520 C516 1.391 . S
C520 C519 1.371 . S
C520 H527 0.930 . S
H521 C518 0.928 . S
H522 C519 0.931 . S
H523 C499 0.930 . S
H524 C496 0.930 . S
H525 C505 0.930 . S
H526 C517 0.929 . S
H527 C520 0.930 . S
C528 C529 1.363 . S
C528 C534 1.379 . S
C528 N536 1.356 1_565 S
C529 C528 1.363 . S
C529 C535 1.363 . S
C530 C531 1.363 . S
C530 C535 1.379 . S
C530 N537 1.356 . S
C531 C530 1.363 . S
C531 C534 1.363 . S
N532 C534 1.356 . S
N532 H544 0.984 . S
N532 H545 0.985 . S
N533 C535 1.356 . S
N533 H538 0.984 . S
N533 H539 0.985 . S
C534 C528 1.379 . S
C534 C531 1.363 . S
C534 N532 1.356 . S
C535 C529 1.363 . S
C535 C530 1.379 . S
C535 N533 1.356 . S
N536 C528 1.356 1_545 S
N536 H542 0.984 . S
N536 H543 0.984 . S
N537 C530 1.356 . S
N537 H540 0.984 . S
N537 H541 0.985 . S
H538 N533 0.984 . S
H539 N533 0.985 . S
H540 N537 0.984 . S
H541 N537 0.985 . S
H542 N536 0.984 . S
H543 N536 0.984 . S
H544 N532 0.984 . S
H545 N532 0.985 . S
C546 C547 1.363 . S
C546 C552 1.379 . S
C546 N554 1.356 . S
C547 C546 1.363 . S
C547 C553 1.363 . S
C548 C549 1.363 . S
C548 C553 1.379 . S
C548 N555 1.356 . S
C549 C548 1.363 . S
C549 C552 1.363 . S
N550 C552 1.356 . S
N550 H562 0.984 . S
N550 H563 0.985 1_455 S
N551 C553 1.356 . S
N551 H556 0.984 . S
N551 H557 0.985 . S
C552 C546 1.379 . S
C552 C549 1.363 . S
C552 N550 1.356 . S
C553 C547 1.363 . S
C553 C548 1.379 . S
C553 N551 1.356 . S
N554 C546 1.356 . S
N554 H560 0.984 . S
N554 H561 0.984 . S
N555 C548 1.356 . S
N555 H558 0.984 1_455 S
N555 H559 0.985 . S
H556 N551 0.984 . S
H557 N551 0.985 . S
H558 N555 0.984 1_655 S
H559 N555 0.985 . S
H560 N554 0.984 . S
H561 N554 0.984 . S
H562 N550 0.984 . S
H563 N550 0.985 1_655 S
C564 C565 1.363 . S
C564 C570 1.379 . S
C564 N572 1.356 . S
C565 C564 1.363 . S
C565 C571 1.363 . S
C566 C567 1.363 . S
C566 C571 1.379 . S
C566 N573 1.356 . S
C567 C566 1.363 . S
C567 C570 1.363 . S
N568 C570 1.356 . S
N568 H580 0.984 . S
N568 H581 0.985 . S
N569 C571 1.356 1_565 S
N569 H574 0.984 . S
N569 H575 0.985 . S
C570 C564 1.379 . S
C570 C567 1.363 . S
C570 N568 1.356 . S
C571 C565 1.363 . S
C571 C566 1.379 . S
C571 N569 1.356 1_545 S
N572 C564 1.356 . S
N572 H578 0.984 . S
N572 H579 0.984 . S
N573 C566 1.356 . S
N573 H576 0.984 . S
N573 H577 0.985 . S
H574 N569 0.984 . S
H575 N569 0.985 . S
H576 N573 0.984 . S
H577 N573 0.985 . S
H578 N572 0.984 . S
H579 N572 0.984 . S
H580 N568 0.984 . S
H581 N568 0.985 . S
C582 C583 1.363 . S
C582 C588 1.379 . S
C582 N590 1.356 . S
C583 C582 1.363 . S
C583 C589 1.363 . S
C584 C585 1.363 . S
C584 C589 1.379 . S
C584 N591 1.356 . S
C585 C584 1.363 . S
C585 C588 1.363 . S
N586 C588 1.356 . S
N586 H598 0.984 . S
N586 H599 0.985 1_655 S
N587 C589 1.356 . S
N587 H592 0.984 . S
N587 H593 0.985 . S
C588 C582 1.379 . S
C588 C585 1.363 . S
C588 N586 1.356 . S
C589 C583 1.363 . S
C589 C584 1.379 . S
C589 N587 1.356 . S
N590 C582 1.356 . S
N590 H596 0.984 . S
N590 H597 0.984 . S
N591 C584 1.356 . S
N591 H594 0.984 . S
N591 H595 0.985 . S
H592 N587 0.984 . S
H593 N587 0.985 . S
H594 N591 0.984 . S
H595 N591 0.985 . S
H596 N590 0.984 . S
H597 N590 0.984 . S
H598 N586 0.984 . S
H599 N586 0.985 1_455 S
C600 C601 1.363 . S
C600 C606 1.379 . S
C600 N608 1.356 . S
C601 C600 1.363 . S
C601 C607 1.363 . S
C602 C603 1.363 . S
C602 C607 1.379 . S
C602 N609 1.356 . S
C603 C602 1.363 . S
C603 C606 1.363 . S
N604 C606 1.356 . S
N604 H616 0.984 . S
N604 H617 0.985 1_545 S
N605 C607 1.356 . S
N605 H610 0.984 . S
N605 H611 0.985 . S
C606 C600 1.379 . S
C606 C603 1.363 . S
C606 N604 1.356 . S
C607 C601 1.363 . S
C607 C602 1.379 . S
C607 N605 1.356 . S
N608 C600 1.356 . S
N608 H614 0.984 . S
N608 H615 0.984 . S
N609 C602 1.356 . S
N609 H612 0.984 1_545 S
N609 H613 0.985 . S
H610 N605 0.984 . S
H611 N605 0.985 . S
H612 N609 0.984 1_565 S
H613 N609 0.985 . S
H614 N608 0.984 . S
H615 N608 0.984 . S
H616 N604 0.984 . S
H617 N604 0.985 1_565 S
C618 C619 1.363 . S
C618 C624 1.379 . S
C618 N626 1.356 . S
C619 C618 1.363 . S
C619 C625 1.363 . S
C620 C621 1.363 . S
C620 C625 1.379 . S
C620 N627 1.356 . S
C621 C620 1.363 . S
C621 C624 1.363 . S
N622 C624 1.356 . S
N622 H634 0.984 . S
N622 H635 0.985 1_655 S
N623 C625 1.356 . S
N623 H628 0.984 . S
N623 H629 0.985 . S
C624 C618 1.379 . S
C624 C621 1.363 . S
C624 N622 1.356 . S
C625 C619 1.363 . S
C625 C620 1.379 . S
C625 N623 1.356 . S
N626 C618 1.356 . S
N626 H632 0.984 . S
N626 H633 0.984 . S
N627 C620 1.356 . S
N627 H630 0.981 1_655 S
N627 H631 0.985 . S
H628 N623 0.984 . S
H629 N623 0.985 . S
H630 N627 0.981 1_455 S
H631 N627 0.985 . S
H632 N626 0.984 . S
H633 N626 0.984 . S
H634 N622 0.984 . S
H635 N622 0.985 1_455 S
C636 C637 1.363 . S
C636 C642 1.379 . S
C636 N644 1.356 . S
C637 C636 1.363 . S
C637 C643 1.363 . S
C638 C639 1.363 . S
C638 C643 1.379 . S
C638 N645 1.356 . S
C639 C638 1.363 . S
C639 C642 1.363 . S
N640 C642 1.356 . S
N640 H652 0.984 . S
N640 H653 0.985 1_565 S
N641 C643 1.356 . S
N641 H646 0.984 . S
N641 H647 0.985 . S
C642 C636 1.379 . S
C642 C639 1.363 . S
C642 N640 1.356 . S
C643 C637 1.363 . S
C643 C638 1.379 . S
C643 N641 1.356 . S
N644 C636 1.356 . S
N644 H650 0.984 . S
N644 H651 0.984 . S
N645 C638 1.356 . S
N645 H648 0.984 1_565 S
N645 H649 0.985 . S
H646 N641 0.984 . S
H647 N641 0.985 . S
H648 N645 0.984 1_545 S
H649 N645 0.985 . S
H650 N644 0.984 . S
H651 N644 0.984 . S
H652 N640 0.984 . S
H653 N640 0.985 1_545 S
C654 C655 1.363 . S
C654 C660 1.379 . S
C654 N662 1.356 . S
C655 C654 1.363 . S
C655 C661 1.363 . S
C656 C657 1.363 . S
C656 C661 1.379 . S
C656 N663 1.356 . S
C657 C656 1.363 . S
C657 C660 1.363 . S
N658 C660 1.356 . S
N658 H670 0.984 . S
N658 H671 0.985 . S
N659 C661 1.356 . S
N659 H664 0.984 1_455 S
N659 H665 0.985 . S
C660 C654 1.379 . S
C660 C657 1.363 . S
C660 N658 1.356 . S
C661 C655 1.363 . S
C661 C656 1.379 . S
C661 N659 1.356 . S
N662 C654 1.356 . S
N662 H668 0.984 . S
N662 H669 0.984 1_455 S
N663 C656 1.356 . S
N663 H666 0.984 . S
N663 H667 0.985 . S
H664 N659 0.984 1_655 S
H665 N659 0.985 . S
H666 N663 0.984 . S
H667 N663 0.985 . S
H668 N662 0.984 . S
H669 N662 0.984 1_655 S
H670 N658 0.984 . S
H671 N658 0.985 . S
C672 C673 1.363 . S
C672 C678 1.379 . S
C672 N680 1.356 . S
C673 C672 1.363 . S
C673 C679 1.363 . S
C674 C675 1.363 . S
C674 C679 1.379 . S
C674 N681 1.356 . S
C675 C674 1.363 . S
C675 C678 1.363 . S
N676 C678 1.356 . S
N676 H688 0.984 . S
N676 H689 0.985 . S
N677 C679 1.356 . S
N677 H682 0.984 . S
N677 H683 0.985 . S
C678 C672 1.379 . S
C678 C675 1.363 . S
C678 N676 1.356 . S
C679 C673 1.363 . S
C679 C674 1.379 . S
C679 N677 1.356 . S
N680 C672 1.356 . S
N680 H686 0.984 . S
N680 H687 0.984 . S
N681 C674 1.356 . S
N681 H684 0.984 . S
N681 H685 0.985 . S
H682 N677 0.984 . S
H683 N677 0.985 . S
H684 N681 0.984 . S
H685 N681 0.985 . S
H686 N680 0.984 . S
H687 N680 0.984 . S
H688 N676 0.984 . S
H689 N676 0.985 . S
C690 C691 1.363 . S
C690 C696 1.379 . S
C690 N698 1.356 . S
C691 C690 1.363 . S
C691 C697 1.363 . S
C692 C693 1.363 . S
C692 C697 1.379 . S
C692 N699 1.356 . S
C693 C692 1.363 . S
C693 C696 1.363 . S
N694 C696 1.356 . S
N694 H706 0.984 . S
N694 H707 0.985 . S
N695 C697 1.356 . S
N695 H700 0.984 . S
N695 H701 0.985 . S
C696 C690 1.379 . S
C696 C693 1.363 . S
C696 N694 1.356 . S
C697 C691 1.363 . S
C697 C692 1.379 . S
C697 N695 1.356 . S
N698 C690 1.356 . S
N698 H704 0.984 . S
N698 H705 0.984 . S
N699 C692 1.356 . S
N699 H702 0.984 . S
N699 H703 0.985 . S
H700 N695 0.984 . S
H701 N695 0.985 . S
H702 N699 0.984 . S
H703 N699 0.985 . S
H704 N698 0.984 . S
H705 N698 0.984 . S
H706 N694 0.984 . S
H707 N694 0.985 . S
C708 C709 1.363 . S
C708 C714 1.379 . S
C708 N716 1.356 . S
C709 C708 1.363 . S
C709 C715 1.363 . S
C710 C711 1.363 . S
C710 C715 1.379 . S
C710 N717 1.356 . S
C711 C710 1.363 . S
C711 C714 1.363 . S
N712 C714 1.356 . S
N712 H724 0.984 . S
N712 H725 0.985 . S
N713 C715 1.356 . S
N713 H718 0.984 . S
N713 H719 0.985 . S
C714 C708 1.379 . S
C714 C711 1.363 . S
C714 N712 1.356 . S
C715 C709 1.363 . S
C715 C710 1.379 . S
C715 N713 1.356 . S
N716 C708 1.356 . S
N716 H722 0.984 . S
N716 H723 0.984 . S
N717 C710 1.356 . S
N717 H720 0.984 . S
N717 H721 0.985 . S
H718 N713 0.984 . S
H719 N713 0.985 . S
H720 N717 0.984 . S
H721 N717 0.985 . S
H722 N716 0.984 . S
H723 N716 0.984 . S
H724 N712 0.984 . S
H725 N712 0.985 . S
C726 C727 1.363 . S
C726 C732 1.379 . S
C726 N734 1.356 . S
C727 C726 1.363 . S
C727 C733 1.363 . S
C728 C729 1.363 . S
C728 C733 1.379 . S
C728 N735 1.356 . S
C729 C728 1.363 . S
C729 C732 1.363 . S
N730 C732 1.356 . S
N730 H742 0.984 . S
N730 H743 0.985 . S
N731 C733 1.356 . S
N731 H736 0.984 . S
N731 H737 0.985 . S
C732 C726 1.379 . S
C732 C729 1.363 . S
C732 N730 1.356 . S
C733 C727 1.363 . S
C733 C728 1.379 . S
C733 N731 1.356 . S
N734 C726 1.356 . S
N734 H740 0.984 . S
N734 H741 0.984 . S
N735 C728 1.356 . S
N735 H738 0.984 . S
N735 H739 0.985 . S
H736 N731 0.984 . S
H737 N731 0.985 . S
H738 N735 0.984 . S
H739 N735 0.985 . S
H740 N734 0.984 . S
H741 N734 0.984 . S
H742 N730 0.984 . S
H743 N730 0.985 . S
C744 C745 1.363 . S
C744 C750 1.379 . S
C744 N752 1.356 . S
C745 C744 1.363 . S
C745 C751 1.363 . S
C746 C747 1.363 . S
C746 C751 1.379 . S
C746 N753 1.356 . S
C747 C746 1.363 . S
C747 C750 1.363 . S
N748 C750 1.356 . S
N748 H760 0.984 . S
N748 H761 0.985 . S
N749 C751 1.356 . S
N749 H754 0.984 . S
N749 H755 0.985 . S
C750 C744 1.379 . S
C750 C747 1.363 . S
C750 N748 1.356 . S
C751 C745 1.363 . S
C751 C746 1.379 . S
C751 N749 1.356 . S
N752 C744 1.356 . S
N752 H758 0.984 . S
N752 H759 0.984 . S
N753 C746 1.356 . S
N753 H756 0.984 . S
N753 H757 0.985 . S
H754 N749 0.984 . S
H755 N749 0.985 . S
H756 N753 0.984 . S
H757 N753 0.985 . S
H758 N752 0.984 . S
H759 N752 0.984 . S
H760 N748 0.984 . S
H761 N748 0.985 . S
C762 C763 1.363 . S
C762 C768 1.379 . S
C762 N770 1.356 . S
C763 C762 1.363 . S
C763 C769 1.363 . S
C764 C765 1.363 . S
C764 C769 1.379 . S
C764 N771 1.356 . S
C765 C764 1.363 . S
C765 C768 1.363 . S
N766 C768 1.356 . S
N766 H778 0.984 . S
N766 H779 0.985 . S
N767 C769 1.356 . S
N767 H772 0.984 . S
N767 H773 0.985 . S
C768 C762 1.379 . S
C768 C765 1.363 . S
C768 N766 1.356 . S
C769 C763 1.363 . S
C769 C764 1.379 . S
C769 N767 1.356 . S
N770 C762 1.356 . S
N770 H776 0.984 . S
N770 H777 0.984 . S
N771 C764 1.356 . S
N771 H774 0.984 . S
N771 H775 0.985 . S
H772 N767 0.984 . S
H773 N767 0.985 . S
H774 N771 0.984 . S
H775 N771 0.985 . S
H776 N770 0.984 . S
H777 N770 0.984 . S
H778 N766 0.984 . S
H779 N766 0.985 . S
C780 C781 1.363 . S
C780 C786 1.379 . S
C780 N788 1.356 . S
C781 C780 1.363 . S
C781 C787 1.363 . S
C782 C783 1.363 . S
C782 C787 1.379 . S
C782 N789 1.356 . S
C783 C782 1.363 . S
C783 C786 1.363 . S
N784 C786 1.356 . S
N784 H796 0.984 . S
N784 H797 0.985 . S
N785 C787 1.356 . S
N785 H790 0.984 . S
N785 H791 0.985 . S
C786 C780 1.379 . S
C786 C783 1.363 . S
C786 N784 1.356 . S
C787 C781 1.363 . S
C787 C782 1.379 . S
C787 N785 1.356 . S
N788 C780 1.356 . S
N788 H794 0.984 . S
N788 H795 0.984 . S
N789 C782 1.356 . S
N789 H792 0.984 . S
N789 H793 0.985 . S
H790 N785 0.984 . S
H791 N785 0.985 . S
H792 N789 0.984 . S
H793 N789 0.985 . S
H794 N788 0.984 . S
H795 N788 0.984 . S
H796 N784 0.984 . S
H797 N784 0.985 . S
C798 C799 1.363 . S
C798 C804 1.379 . S
C798 N806 1.356 . S
C799 C798 1.363 . S
C799 C805 1.363 . S
C800 C801 1.363 . S
C800 C805 1.379 . S
C800 N807 1.356 . S
C801 C800 1.363 . S
C801 C804 1.363 . S
N802 C804 1.356 . S
N802 H814 0.984 . S
N802 H815 0.985 . S
N803 C805 1.356 . S
N803 H808 0.984 . S
N803 H809 0.985 . S
C804 C798 1.379 . S
C804 C801 1.363 . S
C804 N802 1.356 . S
C805 C799 1.363 . S
C805 C800 1.379 . S
C805 N803 1.356 . S
N806 C798 1.356 . S
N806 H812 0.984 . S
N806 H813 0.984 . S
N807 C800 1.356 . S
N807 H810 0.984 . S
N807 H811 0.985 . S
H808 N803 0.984 . S
H809 N803 0.985 . S
H810 N807 0.984 . S
H811 N807 0.985 . S
H812 N806 0.984 . S
H813 N806 0.984 . S
H814 N802 0.984 . S
H815 N802 0.985 . S
C816 C817 1.363 . S
C816 C822 1.379 . S
C816 N824 1.356 . S
C817 C816 1.363 . S
C817 C823 1.363 . S
C818 C819 1.363 . S
C818 C823 1.379 . S
C818 N825 1.356 . S
C819 C818 1.363 . S
C819 C822 1.363 . S
N820 C822 1.356 . S
N820 H832 0.984 . S
N820 H833 0.985 . S
N821 C823 1.356 . S
N821 H826 0.984 . S
N821 H827 0.985 . S
C822 C816 1.379 . S
C822 C819 1.363 . S
C822 N820 1.356 . S
C823 C817 1.363 . S
C823 C818 1.379 . S
C823 N821 1.356 . S
N824 C816 1.356 . S
N824 H830 0.984 . S
N824 H831 0.984 . S
N825 C818 1.356 . S
N825 H828 0.984 . S
N825 H829 0.985 . S
H826 N821 0.984 . S
H827 N821 0.985 . S
H828 N825 0.984 . S
H829 N825 0.985 . S
H830 N824 0.984 . S
H831 N824 0.984 . S
H832 N820 0.984 . S
H833 N820 0.985 . S
C834 C835 1.363 . S
C834 C840 1.379 . S
C834 N842 1.356 . S
C835 C834 1.363 . S
C835 C841 1.363 . S
C836 C837 1.363 . S
C836 C841 1.379 . S
C836 N843 1.356 . S
C837 C836 1.363 . S
C837 C840 1.363 . S
N838 C840 1.356 . S
N838 H850 0.984 . S
N838 H851 0.985 . S
N839 C841 1.356 . S
N839 H844 0.984 . S
N839 H845 0.985 . S
C840 C834 1.379 . S
C840 C837 1.363 . S
C840 N838 1.356 . S
C841 C835 1.363 . S
C841 C836 1.379 . S
C841 N839 1.356 . S
N842 C834 1.356 . S
N842 H848 0.984 . S
N842 H849 0.984 . S
N843 C836 1.356 . S
N843 H846 0.984 . S
N843 H847 0.985 . S
H844 N839 0.984 . S
H845 N839 0.985 . S
H846 N843 0.984 . S
H847 N843 0.985 . S
H848 N842 0.984 . S
H849 N842 0.984 . S
H850 N838 0.984 . S
H851 N838 0.985 . S
C852 C853 1.363 . S
C852 C858 1.379 . S
C852 N860 1.356 . S
C853 C852 1.363 . S
C853 C859 1.363 . S
C854 C855 1.363 . S
C854 C859 1.379 . S
C854 N861 1.356 . S
C855 C854 1.363 . S
C855 C858 1.363 . S
N856 C858 1.356 . S
N856 H868 0.984 . S
N856 H869 0.985 . S
N857 C859 1.356 . S
N857 H862 0.984 . S
N857 H863 0.985 . S
C858 C852 1.379 . S
C858 C855 1.363 . S
C858 N856 1.356 . S
C859 C853 1.363 . S
C859 C854 1.379 . S
C859 N857 1.356 . S
N860 C852 1.356 . S
N860 H866 0.984 . S
N860 H867 0.984 . S
N861 C854 1.356 . S
N861 H864 0.984 . S
N861 H865 0.985 . S
H862 N857 0.984 . S
H863 N857 0.985 . S
H864 N861 0.984 . S
H865 N861 0.985 . S
H866 N860 0.984 . S
H867 N860 0.984 . S
H868 N856 0.984 . S
H869 N856 0.985 . S
C870 C871 1.363 . S
C870 C876 1.379 . S
C870 N878 1.356 . S
C871 C870 1.363 . S
C871 C877 1.363 . S
C872 C873 1.363 . S
C872 C877 1.379 . S
C872 N879 1.356 . S
C873 C872 1.363 . S
C873 C876 1.363 . S
N874 C876 1.356 . S
N874 H886 0.984 . S
N874 H887 0.985 . S
N875 C877 1.356 . S
N875 H880 0.984 . S
N875 H881 0.985 . S
C876 C870 1.379 . S
C876 C873 1.363 . S
C876 N874 1.356 . S
C877 C871 1.363 . S
C877 C872 1.379 . S
C877 N875 1.356 . S
N878 C870 1.356 . S
N878 H884 0.984 . S
N878 H885 0.984 . S
N879 C872 1.356 . S
N879 H882 0.984 . S
N879 H883 0.985 . S
H880 N875 0.984 . S
H881 N875 0.985 . S
H882 N879 0.984 . S
H883 N879 0.985 . S
H884 N878 0.984 . S
H885 N878 0.984 . S
H886 N874 0.984 . S
H887 N874 0.985 . S
C888 C889 1.363 . S
C888 C894 1.379 1_556 S
C888 N896 1.356 . S
C889 C888 1.363 . S
C889 C895 1.363 . S
C890 C891 1.363 . S
C890 C895 1.379 1_554 S
C890 N897 1.356 . S
C891 C890 1.363 . S
C891 C894 1.363 . S
N892 C894 1.356 . S
N892 H904 0.984 . S
N892 H905 0.985 . S
N893 C895 1.356 . S
N893 H898 0.984 . S
N893 H899 0.985 . S
C894 C888 1.379 1_554 S
C894 C891 1.363 . S
C894 N892 1.356 . S
C895 C889 1.363 . S
C895 C890 1.379 1_556 S
C895 N893 1.356 . S
N896 C888 1.356 . S
N896 H902 0.984 . S
N896 H903 0.984 . S
N897 C890 1.356 . S
N897 H900 0.984 . S
N897 H901 0.985 . S
H898 N893 0.984 . S
H899 N893 0.985 . S
H900 N897 0.984 . S
H901 N897 0.985 . S
H902 N896 0.984 . S
H903 N896 0.984 . S
H904 N892 0.984 . S
H905 N892 0.985 . S
C906 C907 1.363 . S
C906 C912 1.379 1_556 S
C906 N914 1.356 . S
C907 C906 1.363 . S
C907 C913 1.363 . S
C908 C909 1.363 . S
C908 C913 1.379 1_554 S
C908 N915 1.356 . S
C909 C908 1.363 . S
C909 C912 1.363 . S
N910 C912 1.356 . S
N910 H922 0.984 . S
N910 H923 0.985 . S
N911 C913 1.356 . S
N911 H916 0.984 . S
N911 H917 0.985 . S
C912 C906 1.379 1_554 S
C912 C909 1.363 . S
C912 N910 1.356 . S
C913 C907 1.363 . S
C913 C908 1.379 1_556 S
C913 N911 1.356 . S
N914 C906 1.356 . S
N914 H920 0.984 . S
N914 H921 0.984 . S
N915 C908 1.356 . S
N915 H918 0.984 . S
N915 H919 0.985 . S
H916 N911 0.984 . S
H917 N911 0.985 . S
H918 N915 0.984 . S
H919 N915 0.985 . S
H920 N914 0.984 . S
H921 N914 0.984 . S
H922 N910 0.984 . S
H923 N910 0.985 . S
C924 C925 1.363 . S
C924 C930 1.379 1_556 S
C924 N932 1.356 . S
C925 C924 1.363 . S
C925 C931 1.363 . S
C926 C927 1.363 . S
C926 C931 1.379 1_554 S
C926 N933 1.356 . S
C927 C926 1.363 . S
C927 C930 1.363 . S
N928 C930 1.356 . S
N928 H940 0.984 . S
N928 H941 0.985 . S
N929 C931 1.356 . S
N929 H934 0.984 . S
N929 H935 0.985 . S
C930 C924 1.379 1_554 S
C930 C927 1.363 . S
C930 N928 1.356 . S
C931 C925 1.363 . S
C931 C926 1.379 1_556 S
C931 N929 1.356 . S
N932 C924 1.356 . S
N932 H938 0.984 . S
N932 H939 0.984 . S
N933 C926 1.356 . S
N933 H936 0.984 . S
N933 H937 0.985 . S
H934 N929 0.984 . S
H935 N929 0.985 . S
H936 N933 0.984 . S
H937 N933 0.985 . S
H938 N932 0.984 . S
H939 N932 0.984 . S
H940 N928 0.984 . S
H941 N928 0.985 . S
C942 C943 1.363 1_554 S
C942 C948 1.379 . S
C942 N950 1.356 1_554 S
C943 C942 1.363 1_556 S
C943 C949 1.363 . S
C944 C945 1.363 1_556 S
C944 C949 1.379 . S
C944 N951 1.356 1_556 S
C945 C944 1.363 1_554 S
C945 C948 1.363 . S
N946 C948 1.356 . S
N946 H958 0.984 . S
N946 H959 0.985 . S
N947 C949 1.356 . S
N947 H952 0.984 . S
N947 H953 0.985 . S
C948 C942 1.379 . S
C948 C945 1.363 . S
C948 N946 1.356 . S
C949 C943 1.363 . S
C949 C944 1.379 . S
C949 N947 1.356 . S
N950 C942 1.356 1_556 S
N950 H956 0.984 1_556 S
N950 H957 0.984 . S
N951 C944 1.356 1_554 S
N951 H954 0.984 . S
N951 H955 0.985 1_554 S
H952 N947 0.984 . S
H953 N947 0.985 . S
H954 N951 0.984 . S
H955 N951 0.985 1_556 S
H956 N950 0.984 1_554 S
H957 N950 0.984 . S
H958 N946 0.984 . S
H959 N946 0.985 . S
C960 C961 1.363 . S
C960 C966 1.379 . S
C960 N968 1.356 . S
C961 C960 1.363 . S
C961 C967 1.363 . S
C962 C963 1.363 . S
C962 C967 1.379 . S
C962 N969 1.356 . S
C963 C962 1.363 . S
C963 C966 1.363 . S
N964 C966 1.356 . S
N964 H976 0.984 . S
N964 H977 0.985 . S
N965 C967 1.356 . S
N965 H970 0.984 . S
N965 H971 0.985 . S
C966 C960 1.379 . S
C966 C963 1.363 . S
C966 N964 1.356 . S
C967 C961 1.363 . S
C967 C962 1.379 . S
C967 N965 1.356 . S
N968 C960 1.356 . S
N968 H974 0.984 . S
N968 H975 0.984 . S
N969 C962 1.356 . S
N969 H972 0.984 . S
N969 H973 0.985 . S
H970 N965 0.984 . S
H971 N965 0.985 . S
H972 N969 0.984 . S
H973 N969 0.985 . S
H974 N968 0.984 . S
H975 N968 0.984 . S
H976 N964 0.984 . S
H977 N964 0.985 . S
C978 C979 1.363 . S
C978 C984 1.379 . S
C978 N986 1.356 . S
C979 C978 1.363 . S
C979 C985 1.363 . S
C980 C981 1.363 . S
C980 C985 1.379 . S
C980 N987 1.356 . S
C981 C980 1.363 . S
C981 C984 1.363 . S
N982 C984 1.356 . S
N982 H994 0.984 . S
N982 H995 0.985 . S
N983 C985 1.356 . S
N983 H988 0.984 . S
N983 H989 0.985 . S
C984 C978 1.379 . S
C984 C981 1.363 . S
C984 N982 1.356 . S
C985 C979 1.363 . S
C985 C980 1.379 . S
C985 N983 1.356 . S
N986 C978 1.356 . S
N986 H992 0.984 . S
N986 H993 0.984 . S
N987 C980 1.356 . S
N987 H990 0.984 . S
N987 H991 0.985 . S
H988 N983 0.984 . S
H989 N983 0.985 . S
H990 N987 0.984 . S
H991 N987 0.985 . S
H992 N986 0.984 . S
H993 N986 0.984 . S
H994 N982 0.984 . S
H995 N982 0.985 . S
C996 C997 1.363 . S
C996 C1002 1.379 . S
C996 N1004 1.356 . S
C997 C996 1.363 . S
C997 C1003 1.363 . S
C998 C999 1.363 . S
C998 C1003 1.379 . S
C998 N1005 1.356 . S
C999 C998 1.363 . S
C999 C1002 1.363 . S
N1000 C1002 1.356 . S
N1000 H1012 0.984 . S
N1000 H1013 0.985 . S
N1001 C1003 1.356 . S
N1001 H1006 0.984 . S
N1001 H1007 0.985 . S
C1002 C996 1.379 . S
C1002 C999 1.363 . S
C1002 N1000 1.356 . S
C1003 C997 1.363 . S
C1003 C998 1.379 . S
C1003 N1001 1.356 . S
N1004 C996 1.356 . S
N1004 H1010 0.984 . S
N1004 H1011 0.984 . S
N1005 C998 1.356 . S
N1005 H1008 0.984 . S
N1005 H1009 0.985 . S
H1006 N1001 0.984 . S
H1007 N1001 0.985 . S
H1008 N1005 0.984 . S
H1009 N1005 0.985 . S
H1010 N1004 0.984 . S
H1011 N1004 0.984 . S
H1012 N1000 0.984 . S
H1013 N1000 0.985 . S
C1014 C1015 1.363 . S
C1014 C1020 1.379 . S
C1014 N1022 1.356 . S
C1015 C1014 1.363 . S
C1015 C1021 1.363 . S
C1016 C1017 1.363 . S
C1016 C1021 1.379 . S
C1016 N1023 1.356 . S
C1017 C1016 1.363 . S
C1017 C1020 1.363 . S
N1018 C1020 1.356 . S
N1018 H1030 0.984 . S
N1018 H1031 0.985 . S
N1019 C1021 1.356 . S
N1019 H1024 0.984 . S
N1019 H1025 0.985 . S
C1020 C1014 1.379 . S
C1020 C1017 1.363 . S
C1020 N1018 1.356 . S
C1021 C1015 1.363 . S
C1021 C1016 1.379 . S
C1021 N1019 1.356 . S
N1022 C1014 1.356 . S
N1022 H1028 0.984 . S
N1022 H1029 0.984 . S
N1023 C1016 1.356 . S
N1023 H1026 0.984 . S
N1023 H1027 0.985 . S
H1024 N1019 0.984 . S
H1025 N1019 0.985 . S
H1026 N1023 0.984 . S
H1027 N1023 0.985 . S
H1028 N1022 0.984 . S
H1029 N1022 0.984 . S
H1030 N1018 0.984 . S
H1031 N1018 0.985 . S
C1032 C1033 1.363 . S
C1032 C1038 1.379 . S
C1032 N1040 1.356 . S
C1033 C1032 1.363 . S
C1033 C1039 1.363 . S
C1034 C1035 1.363 . S
C1034 C1039 1.379 . S
C1034 N1041 1.356 . S
C1035 C1034 1.363 . S
C1035 C1038 1.363 . S
N1036 C1038 1.356 . S
N1036 H1048 0.984 . S
N1036 H1049 0.985 . S
N1037 C1039 1.356 . S
N1037 H1042 0.984 . S
N1037 H1043 0.985 . S
C1038 C1032 1.379 . S
C1038 C1035 1.363 . S
C1038 N1036 1.356 . S
C1039 C1033 1.363 . S
C1039 C1034 1.379 . S
C1039 N1037 1.356 . S
N1040 C1032 1.356 . S
N1040 H1046 0.984 . S
N1040 H1047 0.984 . S
N1041 C1034 1.356 . S
N1041 H1044 0.984 . S
N1041 H1045 0.985 . S
H1042 N1037 0.984 . S
H1043 N1037 0.985 . S
H1044 N1041 0.984 . S
H1045 N1041 0.985 . S
H1046 N1040 0.984 . S
H1047 N1040 0.984 . S
H1048 N1036 0.984 . S
H1049 N1036 0.985 . S
C1050 C1051 1.363 . S
C1050 C1056 1.379 . S
C1050 N1058 1.356 . S
C1051 C1050 1.363 . S
C1051 C1057 1.363 . S
C1052 C1053 1.363 . S
C1052 C1057 1.379 . S
C1052 N1059 1.356 . S
C1053 C1052 1.363 . S
C1053 C1056 1.363 . S
N1054 C1056 1.356 . S
N1054 H1066 0.984 . S
N1054 H1067 0.985 . S
N1055 C1057 1.356 . S
N1055 H1060 0.984 . S
N1055 H1061 0.985 . S
C1056 C1050 1.379 . S
C1056 C1053 1.363 . S
C1056 N1054 1.356 . S
C1057 C1051 1.363 . S
C1057 C1052 1.379 . S
C1057 N1055 1.356 . S
N1058 C1050 1.356 . S
N1058 H1064 0.984 . S
N1058 H1065 0.984 . S
N1059 C1052 1.356 . S
N1059 H1062 0.984 . S
N1059 H1063 0.985 . S
H1060 N1055 0.984 . S
H1061 N1055 0.985 . S
H1062 N1059 0.984 . S
H1063 N1059 0.985 . S
H1064 N1058 0.984 . S
H1065 N1058 0.984 . S
H1066 N1054 0.984 . S
H1067 N1054 0.985 . S
C1068 C1069 1.363 . S
C1068 C1074 1.379 . S
C1068 N1076 1.356 . S
C1069 C1068 1.363 . S
C1069 C1075 1.363 . S
C1070 C1071 1.363 . S
C1070 C1075 1.379 . S
C1070 N1077 1.356 . S
C1071 C1070 1.363 . S
C1071 C1074 1.363 . S
N1072 C1074 1.356 . S
N1072 H1084 0.984 . S
N1072 H1085 0.985 . S
N1073 C1075 1.356 . S
N1073 H1078 0.984 . S
N1073 H1079 0.985 . S
C1074 C1068 1.379 . S
C1074 C1071 1.363 . S
C1074 N1072 1.356 . S
C1075 C1069 1.363 . S
C1075 C1070 1.379 . S
C1075 N1073 1.356 . S
N1076 C1068 1.356 . S
N1076 H1082 0.984 . S
N1076 H1083 0.984 . S
N1077 C1070 1.356 . S
N1077 H1080 0.984 . S
N1077 H1081 0.985 . S
H1078 N1073 0.984 . S
H1079 N1073 0.985 . S
H1080 N1077 0.984 . S
H1081 N1077 0.985 . S
H1082 N1076 0.984 . S
H1083 N1076 0.984 . S
H1084 N1072 0.984 . S
H1085 N1072 0.985 . S
C1086 C1087 1.363 . S
C1086 C1092 1.379 . S
C1086 N1094 1.356 . S
C1087 C1086 1.363 . S
C1087 C1093 1.363 . S
C1088 C1089 1.363 . S
C1088 C1093 1.379 . S
C1088 N1095 1.356 . S
C1089 C1088 1.363 . S
C1089 C1092 1.363 . S
N1090 C1092 1.356 . S
N1090 H1102 0.984 . S
N1090 H1103 0.985 . S
N1091 C1093 1.356 . S
N1091 H1096 0.984 . S
N1091 H1097 0.985 . S
C1092 C1086 1.379 . S
C1092 C1089 1.363 . S
C1092 N1090 1.356 . S
C1093 C1087 1.363 . S
C1093 C1088 1.379 . S
C1093 N1091 1.356 . S
N1094 C1086 1.356 . S
N1094 H1100 0.984 . S
N1094 H1101 0.984 . S
N1095 C1088 1.356 . S
N1095 H1098 0.984 . S
N1095 H1099 0.985 . S
H1096 N1091 0.984 . S
H1097 N1091 0.985 . S
H1098 N1095 0.984 . S
H1099 N1095 0.985 . S
H1100 N1094 0.984 . S
H1101 N1094 0.984 . S
H1102 N1090 0.984 . S
H1103 N1090 0.985 . S
C1104 C1105 1.363 . S
C1104 C1110 1.379 . S
C1104 N1112 1.356 . S
C1105 C1104 1.363 . S
C1105 C1111 1.363 1_545 S
C1106 C1107 1.363 . S
C1106 C1111 1.379 . S
C1106 N1113 1.356 . S
C1107 C1106 1.363 . S
C1107 C1110 1.363 1_565 S
N1108 C1110 1.356 . S
N1108 H1120 0.984 . S
N1108 H1121 0.985 . S
N1109 C1111 1.356 . S
N1109 H1114 0.984 . S
N1109 H1115 0.985 . S
C1110 C1104 1.379 . S
C1110 C1107 1.363 1_545 S
C1110 N1108 1.356 . S
C1111 C1105 1.363 1_565 S
C1111 C1106 1.379 . S
C1111 N1109 1.356 . S
N1112 C1104 1.356 . S
N1112 H1118 0.984 . S
N1112 H1119 0.984 . S
N1113 C1106 1.356 . S
N1113 H1116 0.984 . S
N1113 H1117 0.985 . S
H1114 N1109 0.984 . S
H1115 N1109 0.985 . S
H1116 N1113 0.984 . S
H1117 N1113 0.985 . S
H1118 N1112 0.984 . S
H1119 N1112 0.984 . S
H1120 N1108 0.984 . S
H1121 N1108 0.985 . S
C1122 C1123 1.363 . S
C1122 C1128 1.379 . S
C1122 N1130 1.356 . S
C1123 C1122 1.363 . S
C1123 C1129 1.363 1_655 S
C1124 C1125 1.363 . S
C1124 C1129 1.379 . S
C1124 N1131 1.356 . S
C1125 C1124 1.363 . S
C1125 C1128 1.363 1_455 S
N1126 C1128 1.356 . S
N1126 H1138 0.984 . S
N1126 H1139 0.970 1_655 S
N1127 C1129 1.356 . S
N1127 H1132 0.970 1_455 S
N1127 H1133 0.985 . S
C1128 C1122 1.379 . S
C1128 C1125 1.363 1_655 S
C1128 N1126 1.356 . S
C1129 C1123 1.363 1_455 S
C1129 C1124 1.379 . S
C1129 N1127 1.356 . S
N1130 C1122 1.356 . S
N1130 H1136 0.984 . S
N1130 H1137 0.984 . S
N1131 C1124 1.356 . S
N1131 H1134 0.984 . S
N1131 H1135 0.985 . S
H1132 N1127 0.970 1_655 S
H1133 N1127 0.985 . S
H1134 N1131 0.984 . S
H1135 N1131 0.985 . S
H1136 N1130 0.984 . S
H1137 N1130 0.984 . S
H1138 N1126 0.984 . S
H1139 N1126 0.970 1_455 S
C1140 C1141 1.363 . S
C1140 C1146 1.379 . S
C1140 N1148 1.356 . S
C1141 C1140 1.363 . S
C1141 C1147 1.363 1_565 S
C1142 C1143 1.363 . S
C1142 C1147 1.379 . S
C1142 N1149 1.356 . S
C1143 C1142 1.363 . S
C1143 C1146 1.363 1_545 S
N1144 C1146 1.356 . S
N1144 H1156 0.984 . S
N1144 H1157 0.985 . S
N1145 C1147 1.356 . S
N1145 H1150 0.984 . S
N1145 H1151 0.985 . S
C1146 C1140 1.379 . S
C1146 C1143 1.363 1_565 S
C1146 N1144 1.356 . S
C1147 C1141 1.363 1_545 S
C1147 C1142 1.379 . S
C1147 N1145 1.356 . S
N1148 C1140 1.356 . S
N1148 H1154 0.984 . S
N1148 H1155 0.984 . S
N1149 C1142 1.356 . S
N1149 H1152 0.984 . S
N1149 H1153 0.985 . S
H1150 N1145 0.984 . S
H1151 N1145 0.985 . S
H1152 N1149 0.984 . S
H1153 N1149 0.985 . S
H1154 N1148 0.984 . S
H1155 N1148 0.984 . S
H1156 N1144 0.984 . S
H1157 N1144 0.985 . S
C1158 C1159 1.363 1_455 S
C1158 C1164 1.379 . S
C1158 N1166 1.356 . S
C1159 C1158 1.363 1_655 S
C1159 C1165 1.363 . S
C1160 C1161 1.363 1_655 S
C1160 C1165 1.379 . S
C1160 N1167 1.356 . S
C1161 C1160 1.363 1_455 S
C1161 C1164 1.363 . S
N1162 C1164 1.356 . S
N1162 H1174 0.984 . S
N1162 H1175 0.985 . S
N1163 C1165 1.356 . S
N1163 H1168 0.984 . S
N1163 H1169 0.985 . S
C1164 C1158 1.379 . S
C1164 C1161 1.363 . S
C1164 N1162 1.356 . S
C1165 C1159 1.363 . S
C1165 C1160 1.379 . S
C1165 N1163 1.356 . S
N1166 C1158 1.356 . S
N1166 H1172 0.984 . S
N1166 H1173 0.970 1_455 S
N1167 C1160 1.356 . S
N1167 H1170 0.970 1_655 S
N1167 H1171 0.985 . S
H1168 N1163 0.984 . S
H1169 N1163 0.985 . S
H1170 N1167 0.970 1_455 S
H1171 N1167 0.985 . S
H1172 N1166 0.984 . S
H1173 N1166 0.970 1_655 S
H1174 N1162 0.984 . S
H1175 N1162 0.985 . S
C1176 C1177 1.363 . S
C1176 C1182 1.379 1_556 S
C1176 N1184 1.356 . S
C1177 C1176 1.363 . S
C1177 C1183 1.363 . S
C1178 C1179 1.363 . S
C1178 C1183 1.379 1_554 S
C1178 N1185 1.356 . S
C1179 C1178 1.363 . S
C1179 C1182 1.363 . S
N1180 C1182 1.356 . S
N1180 H1192 0.984 . S
N1180 H1193 0.985 . S
N1181 C1183 1.356 . S
N1181 H1186 0.984 . S
N1181 H1187 0.985 . S
C1182 C1176 1.379 1_554 S
C1182 C1179 1.363 . S
C1182 N1180 1.356 . S
C1183 C1177 1.363 . S
C1183 C1178 1.379 1_556 S
C1183 N1181 1.356 . S
N1184 C1176 1.356 . S
N1184 H1190 0.984 . S
N1184 H1191 0.984 . S
N1185 C1178 1.356 . S
N1185 H1188 0.984 . S
N1185 H1189 0.985 . S
H1186 N1181 0.984 . S
H1187 N1181 0.985 . S
H1188 N1185 0.984 . S
H1189 N1185 0.985 . S
H1190 N1184 0.984 . S
H1191 N1184 0.984 . S
H1192 N1180 0.984 . S
H1193 N1180 0.985 . S
C1194 C1195 1.363 . S
C1194 C1200 1.379 1_556 S
C1194 N1202 1.356 . S
C1195 C1194 1.363 . S
C1195 C1201 1.363 . S
C1196 C1197 1.363 . S
C1196 C1201 1.379 1_554 S
C1196 N1203 1.356 . S
C1197 C1196 1.363 . S
C1197 C1200 1.363 . S
N1198 C1200 1.356 . S
N1198 H1210 0.984 . S
N1198 H1211 0.985 . S
N1199 C1201 1.356 . S
N1199 H1204 0.984 . S
N1199 H1205 0.985 . S
C1200 C1194 1.379 1_554 S
C1200 C1197 1.363 . S
C1200 N1198 1.356 . S
C1201 C1195 1.363 . S
C1201 C1196 1.379 1_556 S
C1201 N1199 1.356 . S
N1202 C1194 1.356 . S
N1202 H1208 0.984 . S
N1202 H1209 0.984 . S
N1203 C1196 1.356 . S
N1203 H1206 0.984 . S
N1203 H1207 0.985 . S
H1204 N1199 0.984 . S
H1205 N1199 0.985 . S
H1206 N1203 0.984 . S
H1207 N1203 0.985 . S
H1208 N1202 0.984 . S
H1209 N1202 0.984 . S
H1210 N1198 0.984 . S
H1211 N1198 0.985 . S
C1212 C1213 1.363 . S
C1212 C1218 1.379 1_554 S
C1212 N1220 1.356 . S
C1213 C1212 1.363 . S
C1213 C1219 1.363 . S
C1214 C1215 1.363 . S
C1214 C1219 1.379 1_556 S
C1214 N1221 1.356 . S
C1215 C1214 1.363 . S
C1215 C1218 1.363 . S
N1216 C1218 1.356 . S
N1216 H1228 0.984 . S
N1216 H1229 0.985 . S
N1217 C1219 1.356 . S
N1217 H1222 0.984 . S
N1217 H1223 0.985 . S
C1218 C1212 1.379 1_556 S
C1218 C1215 1.363 . S
C1218 N1216 1.356 . S
C1219 C1213 1.363 . S
C1219 C1214 1.379 1_554 S
C1219 N1217 1.356 . S
N1220 C1212 1.356 . S
N1220 H1226 0.984 . S
N1220 H1227 0.984 . S
N1221 C1214 1.356 . S
N1221 H1224 0.984 . S
N1221 H1225 0.985 . S
H1222 N1217 0.984 . S
H1223 N1217 0.985 . S
H1224 N1221 0.984 . S
H1225 N1221 0.985 . S
H1226 N1220 0.984 . S
H1227 N1220 0.984 . S
H1228 N1216 0.984 . S
H1229 N1216 0.985 . S
C1230 C1231 1.363 . S
C1230 C1236 1.379 1_556 S
C1230 N1238 1.356 . S
C1231 C1230 1.363 . S
C1231 C1237 1.363 . S
C1232 C1233 1.363 . S
C1232 C1237 1.379 1_554 S
C1232 N1239 1.356 . S
C1233 C1232 1.363 . S
C1233 C1236 1.363 . S
N1234 C1236 1.356 . S
N1234 H1246 0.984 . S
N1234 H1247 0.985 . S
N1235 C1237 1.356 . S
N1235 H1240 0.984 . S
N1235 H1241 0.985 . S
C1236 C1230 1.379 1_554 S
C1236 C1233 1.363 . S
C1236 N1234 1.356 . S
C1237 C1231 1.363 . S
C1237 C1232 1.379 1_556 S
C1237 N1235 1.356 . S
N1238 C1230 1.356 . S
N1238 H1244 0.984 . S
N1238 H1245 0.984 . S
N1239 C1232 1.356 . S
N1239 H1242 0.984 . S
N1239 H1243 0.985 . S
H1240 N1235 0.984 . S
H1241 N1235 0.985 . S
H1242 N1239 0.984 . S
H1243 N1239 0.985 . S
H1244 N1238 0.984 . S
H1245 N1238 0.984 . S
H1246 N1234 0.984 . S
H1247 N1234 0.985 . S
C529 C18 1.899 1_565 S
C531 N101 1.722 . S
C547 N2 1.722 . S
C549 C51 1.899 1_455 S
C565 C84 1.899 1_545 S
C567 N35 1.722 . S
C583 N68 1.722 . S
C585 C117 1.899 1_655 S
C601 N167 1.722 . S
C603 C150 1.899 1_545 S
C619 N200 1.722 . S
C621 C183 1.899 1_655 S
C637 N233 1.722 . S
C639 C216 1.899 1_565 S
C655 C249 1.899 1_455 S
C657 N134 1.722 . S
C673 C282 1.899 . S
C675 N365 1.722 . S
C691 C315 1.899 . S
C693 N266 1.722 . S
C709 C348 1.899 . S
C711 N299 1.722 . S
C727 N332 1.722 . S
C729 C381 1.899 . S
C745 N431 1.722 . S
C747 C414 1.899 . S
C763 C447 1.899 . S
C765 N464 1.722 . S
C781 C480 1.899 . S
C783 N497 1.722 . S
C799 C513 1.899 . S
C801 N398 1.722 . S
C817 C7 1.214 . S
C819 C172 1.214 . S
C835 C40 1.214 . S
C837 C205 1.214 . S
C853 C238 1.214 . S
C855 C73 1.214 . S
C871 C106 1.214 . S
C873 C139 1.214 . S
C889 C271 1.214 . S
C891 C436 1.214 . S
C907 C304 1.214 . S
C909 C469 1.214 . S
C925 C337 1.214 . S
C927 C502 1.214 . S
C943 C370 1.214 . S
C945 C403 1.214 . S
C961 C21 0.731 . S
C963 C516 0.731 . S
C979 C417 0.731 . S
C981 C54 0.731 . S
C997 C87 0.731 . S
C999 C450 0.731 . S
C1015 C120 0.731 . S
C1017 C483 0.731 . S
C1033 C318 0.731 . S
C1035 C153 0.731 . S
C1051 C351 0.731 . S
C1053 C186 0.731 . S
C1069 C384 0.731 . S
C1071 C219 0.731 . S
C1087 C285 0.731 . S
C1089 C252 0.731 . S
C1105 N13 1.077 . S
C1107 N145 1.077 . S
C1123 N46 1.077 . S
C1125 N178 1.077 . S
C1141 N79 1.077 . S
C1143 N211 1.077 . S
C1159 N244 1.077 . S
C1161 N112 1.077 . S
C1177 N277 1.077 . S
C1179 N409 1.077 . S
C1195 N310 1.077 . S
C1197 N442 1.077 . S
C1213 N475 1.077 . S
C1215 N343 1.077 . S
C1231 N376 1.077 . S
C1233 N508 1.077 . S
