# Generated by pormake.
# Topology ukd, (4)-cn, num edge types: 1
# Building blocks:
#     Node 0, Type 0, BuildingBlock: QUQFOY_clean_sbu_3, # of connection points: 4
#     Node 1, Type 0, BuildingBlock: QUQFOY_clean_sbu_3, # of connection points: 4
#     Node 2, Type 0, BuildingBlock: QUQFOY_clean_sbu_3, # of connection points: 4
#     Node 3, Type 0, BuildingBlock: QUQFOY_clean_sbu_3, # of connection points: 4
#     Node 4, Type 0, BuildingBlock: QUQFOY_clean_sbu_3, # of connection points: 4
#     Node 5, Type 0, BuildingBlock: QUQFOY_clean_sbu_3, # of connection points: 4
#     Node 6, Type 0, BuildingBlock: QUQFOY_clean_sbu_3, # of connection points: 4
#     Node 7, Type 0, BuildingBlock: QUQFOY_clean_sbu_3, # of connection points: 4
#     Node 8, Type 0, BuildingBlock: QUQFOY_clean_sbu_3, # of connection points: 4
#     Node 9, Type 0, BuildingBlock: QUQFOY_clean_sbu_3, # of connection points: 4
#     Node 10, Type 0, BuildingBlock: QUQFOY_clean_sbu_3, # of connection points: 4
#     Node 11, Type 0, BuildingBlock: QUQFOY_clean_sbu_3, # of connection points: 4
#     Node 12, Type 0, BuildingBlock: QUQFOY_clean_sbu_3, # of connection points: 4
#     Node 13, Type 0, BuildingBlock: QUQFOY_clean_sbu_3, # of connection points: 4
#     Node 14, Type 0, BuildingBlock: QUQFOY_clean_sbu_3, # of connection points: 4
#     Node 15, Type 0, BuildingBlock: QUQFOY_clean_sbu_3, # of connection points: 4
#     Node 16, Type 0, BuildingBlock: QUQFOY_clean_sbu_3, # of connection points: 4
#     Node 17, Type 0, BuildingBlock: QUQFOY_clean_sbu_3, # of connection points: 4
#     Node 18, Type 0, BuildingBlock: QUQFOY_clean_sbu_3, # of connection points: 4
#     Node 19, Type 0, BuildingBlock: QUQFOY_clean_sbu_3, # of connection points: 4
#     Node 20, Type 0, BuildingBlock: QUQFOY_clean_sbu_3, # of connection points: 4
#     Node 21, Type 0, BuildingBlock: QUQFOY_clean_sbu_3, # of connection points: 4
#     Node 22, Type 0, BuildingBlock: QUQFOY_clean_sbu_3, # of connection points: 4
#     Node 23, Type 0, BuildingBlock: QUQFOY_clean_sbu_3, # of connection points: 4
#     Node 24, Type 0, BuildingBlock: QUQFOY_clean_sbu_3, # of connection points: 4
#     Node 25, Type 0, BuildingBlock: QUQFOY_clean_sbu_3, # of connection points: 4
#     Node 26, Type 0, BuildingBlock: QUQFOY_clean_sbu_3, # of connection points: 4
#     Node 27, Type 0, BuildingBlock: QUQFOY_clean_sbu_3, # of connection points: 4
#     Node 28, Type 0, BuildingBlock: QUQFOY_clean_sbu_3, # of connection points: 4
#     Node 29, Type 0, BuildingBlock: QUQFOY_clean_sbu_3, # of connection points: 4
#     Node 30, Type 0, BuildingBlock: QUQFOY_clean_sbu_3, # of connection points: 4
#     Node 31, Type 0, BuildingBlock: QUQFOY_clean_sbu_3, # of connection points: 4
#     Edge 32, Type (0, 0), BuildingBlock: XUDNAN_clean_linker_2, # of connection points: 2
#     Edge 33, Type (0, 0), BuildingBlock: XUDNAN_clean_linker_2, # of connection points: 2
#     Edge 34, Type (0, 0), BuildingBlock: XUDNAN_clean_linker_2, # of connection points: 2
#     Edge 35, Type (0, 0), BuildingBlock: XUDNAN_clean_linker_2, # of connection points: 2
#     Edge 36, Type (0, 0), BuildingBlock: XUDNAN_clean_linker_2, # of connection points: 2
#     Edge 37, Type (0, 0), BuildingBlock: XUDNAN_clean_linker_2, # of connection points: 2
#     Edge 38, Type (0, 0), BuildingBlock: XUDNAN_clean_linker_2, # of connection points: 2
#     Edge 39, Type (0, 0), BuildingBlock: XUDNAN_clean_linker_2, # of connection points: 2
#     Edge 40, Type (0, 0), BuildingBlock: XUDNAN_clean_linker_2, # of connection points: 2
#     Edge 41, Type (0, 0), BuildingBlock: XUDNAN_clean_linker_2, # of connection points: 2
#     Edge 42, Type (0, 0), BuildingBlock: XUDNAN_clean_linker_2, # of connection points: 2
#     Edge 43, Type (0, 0), BuildingBlock: XUDNAN_clean_linker_2, # of connection points: 2
#     Edge 44, Type (0, 0), BuildingBlock: XUDNAN_clean_linker_2, # of connection points: 2
#     Edge 45, Type (0, 0), BuildingBlock: XUDNAN_clean_linker_2, # of connection points: 2
#     Edge 46, Type (0, 0), BuildingBlock: XUDNAN_clean_linker_2, # of connection points: 2
#     Edge 47, Type (0, 0), BuildingBlock: XUDNAN_clean_linker_2, # of connection points: 2
#     Edge 48, Type (0, 0), BuildingBlock: XUDNAN_clean_linker_2, # of connection points: 2
#     Edge 49, Type (0, 0), BuildingBlock: XUDNAN_clean_linker_2, # of connection points: 2
#     Edge 50, Type (0, 0), BuildingBlock: XUDNAN_clean_linker_2, # of connection points: 2
#     Edge 51, Type (0, 0), BuildingBlock: XUDNAN_clean_linker_2, # of connection points: 2
#     Edge 52, Type (0, 0), BuildingBlock: XUDNAN_clean_linker_2, # of connection points: 2
#     Edge 53, Type (0, 0), BuildingBlock: XUDNAN_clean_linker_2, # of connection points: 2
#     Edge 54, Type (0, 0), BuildingBlock: XUDNAN_clean_linker_2, # of connection points: 2
#     Edge 55, Type (0, 0), BuildingBlock: XUDNAN_clean_linker_2, # of connection points: 2
#     Edge 56, Type (0, 0), BuildingBlock: XUDNAN_clean_linker_2, # of connection points: 2
#     Edge 57, Type (0, 0), BuildingBlock: XUDNAN_clean_linker_2, # of connection points: 2
#     Edge 58, Type (0, 0), BuildingBlock: XUDNAN_clean_linker_2, # of connection points: 2
#     Edge 59, Type (0, 0), BuildingBlock: XUDNAN_clean_linker_2, # of connection points: 2
#     Edge 60, Type (0, 0), BuildingBlock: XUDNAN_clean_linker_2, # of connection points: 2
#     Edge 61, Type (0, 0), BuildingBlock: XUDNAN_clean_linker_2, # of connection points: 2
#     Edge 62, Type (0, 0), BuildingBlock: XUDNAN_clean_linker_2, # of connection points: 2
#     Edge 63, Type (0, 0), BuildingBlock: XUDNAN_clean_linker_2, # of connection points: 2
#     Edge 64, Type (0, 0), BuildingBlock: XUDNAN_clean_linker_2, # of connection points: 2
#     Edge 65, Type (0, 0), BuildingBlock: XUDNAN_clean_linker_2, # of connection points: 2
#     Edge 66, Type (0, 0), BuildingBlock: XUDNAN_clean_linker_2, # of connection points: 2
#     Edge 67, Type (0, 0), BuildingBlock: XUDNAN_clean_linker_2, # of connection points: 2
#     Edge 68, Type (0, 0), BuildingBlock: XUDNAN_clean_linker_2, # of connection points: 2
#     Edge 69, Type (0, 0), BuildingBlock: XUDNAN_clean_linker_2, # of connection points: 2
#     Edge 70, Type (0, 0), BuildingBlock: XUDNAN_clean_linker_2, # of connection points: 2
#     Edge 71, Type (0, 0), BuildingBlock: XUDNAN_clean_linker_2, # of connection points: 2
#     Edge 72, Type (0, 0), BuildingBlock: XUDNAN_clean_linker_2, # of connection points: 2
#     Edge 73, Type (0, 0), BuildingBlock: XUDNAN_clean_linker_2, # of connection points: 2
#     Edge 74, Type (0, 0), BuildingBlock: XUDNAN_clean_linker_2, # of connection points: 2
#     Edge 75, Type (0, 0), BuildingBlock: XUDNAN_clean_linker_2, # of connection points: 2
#     Edge 76, Type (0, 0), BuildingBlock: XUDNAN_clean_linker_2, # of connection points: 2
#     Edge 77, Type (0, 0), BuildingBlock: XUDNAN_clean_linker_2, # of connection points: 2
#     Edge 78, Type (0, 0), BuildingBlock: XUDNAN_clean_linker_2, # of connection points: 2
#     Edge 79, Type (0, 0), BuildingBlock: XUDNAN_clean_linker_2, # of connection points: 2
#     Edge 80, Type (0, 0), BuildingBlock: XUDNAN_clean_linker_2, # of connection points: 2
#     Edge 81, Type (0, 0), BuildingBlock: XUDNAN_clean_linker_2, # of connection points: 2
#     Edge 82, Type (0, 0), BuildingBlock: XUDNAN_clean_linker_2, # of connection points: 2
#     Edge 83, Type (0, 0), BuildingBlock: XUDNAN_clean_linker_2, # of connection points: 2
#     Edge 84, Type (0, 0), BuildingBlock: XUDNAN_clean_linker_2, # of connection points: 2
#     Edge 85, Type (0, 0), BuildingBlock: XUDNAN_clean_linker_2, # of connection points: 2
#     Edge 86, Type (0, 0), BuildingBlock: XUDNAN_clean_linker_2, # of connection points: 2
#     Edge 87, Type (0, 0), BuildingBlock: XUDNAN_clean_linker_2, # of connection points: 2
#     Edge 88, Type (0, 0), BuildingBlock: XUDNAN_clean_linker_2, # of connection points: 2
#     Edge 89, Type (0, 0), BuildingBlock: XUDNAN_clean_linker_2, # of connection points: 2
#     Edge 90, Type (0, 0), BuildingBlock: XUDNAN_clean_linker_2, # of connection points: 2
#     Edge 91, Type (0, 0), BuildingBlock: XUDNAN_clean_linker_2, # of connection points: 2
#     Edge 92, Type (0, 0), BuildingBlock: XUDNAN_clean_linker_2, # of connection points: 2
#     Edge 93, Type (0, 0), BuildingBlock: XUDNAN_clean_linker_2, # of connection points: 2
#     Edge 94, Type (0, 0), BuildingBlock: XUDNAN_clean_linker_2, # of connection points: 2
#     Edge 95, Type (0, 0), BuildingBlock: XUDNAN_clean_linker_2, # of connection points: 2
# Relax obj value: 0.049
# Max RMSD: 0.080
# Mean RMSD: 0.075
data_MOF--net-ukd--node1-QUQFOY_clean_sbu_3--edge1-XUDNAN_clean_linker_2
_symmetry_space_group_name_H-M    P1
_symmetry_Int_Tables_number       1
_symmetry_cell_setting            triclinic
loop_
_symmetry_equiv_pos_as_xyz
'x, y, z'
_cell_length_a     47.013137
_cell_length_b     46.680654
_cell_length_c     76.462862
_cell_angle_alpha  89.951286
_cell_angle_beta   90.090963
_cell_angle_gamma 90.029479
loop_
_atom_site_label
_atom_site_type_symbol
_atom_site_fract_x
_atom_site_fract_y
_atom_site_fract_z
_atom_type_partial_charge
C0 C 0.20812 0.18999 0.30145 0.0
O1 O 0.18245 0.18157 0.3008 0.0
Cd2 Cd 0.15658 0.16596 0.32611 0.0
O3 O 0.22225 0.18808 0.31565 0.0
Cd4 Cd 0.21692 0.1696 0.34608 0.0
C5 C 0.17121 0.22376 0.35343 0.0
O6 O 0.18334 0.12982 0.34074 0.0
O7 O 0.1902 0.14275 0.3675 0.0
O8 O 0.26322 0.14815 0.34046 0.0
C9 C 0.17823 0.1258 0.35687 0.0
O10 O 0.15429 0.20902 0.34401 0.0
C11 C 0.27326 0.15254 0.35563 0.0
O12 O 0.1967 0.21545 0.35614 0.0
O13 O 0.25756 0.16597 0.36636 0.0
C14 C 0.01556 0.92433 0.53414 0.0
O15 O 0.02491 0.89945 0.53758 0.0
Cd16 Cd 0.04534 0.88481 0.56432 0.0
O17 O 0.01848 0.94475 0.54514 0.0
Cd18 Cd 0.04072 0.95071 0.57505 0.0
C19 C -0.01042 0.90746 0.59056 0.0
O20 O 0.08116 0.91915 0.57069 0.0
O21 O 0.07081 0.92778 0.59753 0.0
O22 O 0.06061 -0.00373 0.56497 0.0
C23 C 0.08792 0.91683 0.58664 0.0
O24 O 0.00405 0.88755 0.58348 0.0
C25 C 0.05679 0.00948 0.57928 0.0
O26 O -0.00277 0.93357 0.5893 0.0
O27 O 0.044 -0.00411 0.59133 0.0
C28 C 0.28942 0.79552 0.78639 0.0
O29 O 0.31395 0.805 0.79025 0.0
Cd30 Cd 0.32913 0.8205 0.81835 0.0
O31 O 0.26924 0.79642 0.79755 0.0
Cd32 Cd 0.26233 0.81478 0.82824 0.0
C33 C 0.30474 0.76048 0.84088 0.0
O34 O 0.29628 0.85477 0.82865 0.0
O35 O 0.28206 0.83947 0.85365 0.0
O36 O 0.21887 0.83854 0.81831 0.0
C37 C 0.2968 0.85739 0.84514 0.0
O38 O 0.32456 0.77621 0.8348 0.0
C39 C 0.20422 0.83204 0.83167 0.0
O40 O 0.27877 0.76831 0.83994 0.0
O41 O 0.216 0.81603 0.84301 0.0
C42 C 0.43528 0.0202 0.04638 0.0
O43 O 0.42652 0.04592 0.04577 0.0
Cd44 Cd 0.41033 0.07054 0.07148 0.0
O45 O 0.43275 0.00554 0.06037 0.0
Cd46 Cd 0.41274 0.00809 0.09038 0.0
C47 C 0.46721 0.05292 0.09873 0.0
O48 O 0.37406 0.04245 0.08492 0.0
O49 O 0.38389 0.03267 0.11188 0.0
O50 O 0.39212 0.9622 0.08233 0.0
C51 C 0.3685 0.0461 0.10101 0.0
O52 O 0.45327 0.07062 0.08935 0.0
C53 C 0.39624 0.95017 0.097 0.0
O54 O 0.45801 0.02756 0.10135 0.0
O55 O 0.40895 0.96477 0.10867 0.0
C56 C 0.17985 0.77369 0.18178 0.0
O57 O 0.1551 0.78379 0.17937 0.0
Cd58 Cd 0.13699 0.80448 0.1534 0.0
O59 O 0.19877 0.77556 0.16986 0.0
Cd60 Cd 0.20019 0.79631 0.13942 0.0
C61 C 0.15234 0.74662 0.12689 0.0
O62 O 0.1708 0.83853 0.14359 0.0
O63 O 0.1746 0.82448 0.11698 0.0
O64 O 0.24614 0.81915 0.14473 0.0
C65 C 0.16575 0.84329 0.12761 0.0
O66 O 0.13428 0.76278 0.1344 0.0
C67 C 0.25793 0.80985 0.13093 0.0
O68 O 0.1788 0.75263 0.1272 0.0
O69 O 0.24335 0.79285 0.12153 0.0
C70 C 0.43727 0.92328 0.44174 0.0
O71 O 0.42976 0.89809 0.43748 0.0
Cd72 Cd 0.41512 0.88194 0.40935 0.0
O73 O 0.4356 0.94382 0.43074 0.0
Cd74 Cd 0.41925 0.94939 0.39957 0.0
C75 C 0.47364 0.90657 0.38662 0.0
O76 O 0.38003 0.91459 0.39919 0.0
O77 O 0.3943 0.9301 0.37418 0.0
O78 O 0.39325 -0.0061 0.40553 0.0
C79 C 0.37679 0.91496 0.38273 0.0
O80 O 0.45914 0.88584 0.39279 0.0
C81 C 0.40534 0.00827 0.39353 0.0
O82 O 0.46477 0.93231 0.38768 0.0
O83 O 0.42495 -0.00429 0.38509 0.0
C84 C 0.25186 0.18708 0.67763 0.0
O85 O 0.27735 0.17838 0.67894 0.0
Cd86 Cd 0.30553 0.16218 0.65526 0.0
O87 O 0.2385 0.18514 0.66312 0.0
Cd88 Cd 0.24787 0.16534 0.63312 0.0
C89 C 0.29394 0.21979 0.62754 0.0
O90 O 0.27899 0.12573 0.64093 0.0
O91 O 0.28096 0.13889 0.61403 0.0
O92 O 0.20234 0.14022 0.63382 0.0
C93 C 0.28864 0.12128 0.62574 0.0
O94 O 0.31022 0.20553 0.63763 0.0
C95 C 0.19404 0.14849 0.61883 0.0
O96 O 0.26904 0.21081 0.62381 0.0
O97 O 0.21031 0.16568 0.6107 0.0
C98 C 0.0238 0.02372 0.93258 0.0
O99 O 0.03168 0.04957 0.93431 0.0
Cd100 Cd 0.04826 0.07885 0.91093 0.0
O101 O 0.02687 0.01082 0.91798 0.0
Cd102 Cd 0.04746 0.02164 0.88845 0.0
C103 C -0.00742 0.06697 0.88215 0.0
O104 O 0.08611 0.05441 0.89655 0.0
O105 O 0.07245 0.05575 0.86966 0.0
O106 O 0.07381 0.97636 0.88844 0.0
C107 C 0.09 0.06397 0.88121 0.0
O108 O 0.00609 0.08364 0.89242 0.0
C109 C 0.06564 0.96848 0.87335 0.0
O110 O 0.00204 0.04201 0.87872 0.0
O111 O 0.04803 0.98474 0.86556 0.0
C112 C 0.70793 0.8251 0.62989 0.0
O113 O 0.71497 0.81617 0.61483 0.0
Cd114 Cd 0.75391 0.7833 0.61034 0.0
O115 O 0.72124 0.8164 0.6434 0.0
Cd116 Cd 0.76128 0.78392 0.65041 0.0
C117 C 0.80888 0.82221 0.62731 0.0
O118 O 0.75153 0.74358 0.63026 0.0
O119 O 0.79258 0.74464 0.643 0.0
O120 O 0.73541 0.76651 0.67591 0.0
C121 C 0.77489 0.73105 0.63364 0.0
O122 O 0.79809 0.80986 0.61403 0.0
C123 C 0.75532 0.77117 0.68678 0.0
O124 O 0.79803 0.81899 0.64244 0.0
O125 O 0.7777 0.7829 0.68085 0.0
C126 C 0.91004 0.97212 0.35339 0.0
O127 O 0.92376 0.98532 0.34158 0.0
Cd128 Cd 0.95523 0.02463 0.34844 0.0
O129 O 0.91341 0.97884 0.36938 0.0
Cd130 Cd 0.94192 0.01265 0.38705 0.0
C131 C 0.90964 0.07003 0.36957 0.0
O132 O -0.01189 0.01143 0.3711 0.0
O133 O -0.01745 0.04317 0.39146 0.0
O134 O 0.94688 0.97188 0.40644 0.0
C135 C -0.00113 0.03086 0.38068 0.0
O136 O 0.92586 0.06535 0.35658 0.0
C137 C 0.94261 0.98564 0.4205 0.0
O138 O 0.90894 0.05271 0.38244 0.0
O139 O 0.93683 0.01211 0.41905 0.0
C140 C 0.75189 0.14399 0.121 0.0
O141 O 0.74229 0.15105 0.10608 0.0
Cd142 Cd 0.70238 0.18309 0.10258 0.0
O143 O 0.74042 0.15374 0.13485 0.0
Cd144 Cd 0.70051 0.18546 0.14318 0.0
C145 C 0.65031 0.14515 0.12331 0.0
O146 O 0.70811 0.22388 0.12145 0.0
O147 O 0.66937 0.22556 0.13655 0.0
O148 O 0.72911 0.20323 0.16756 0.0
C149 C 0.6858 0.23753 0.12565 0.0
O150 O 0.65912 0.1564 0.10914 0.0
C151 C 0.71032 0.19877 0.17916 0.0
O152 O 0.66311 0.14985 0.13771 0.0
O153 O 0.68727 0.18726 0.1741 0.0
C154 C 0.56397 0.01287 0.8732 0.0
O155 O 0.5562 0.0024 0.85865 0.0
Cd156 Cd 0.5269 0.95975 0.85765 0.0
O157 O 0.55658 0.00084 0.88743 0.0
Cd158 Cd 0.52948 0.95847 0.89691 0.0
C159 C 0.57083 0.91054 0.87578 0.0
O160 O 0.48693 0.96216 0.87753 0.0
O161 O 0.49181 0.92409 0.8935 0.0
O162 O 0.51267 -0.01319 0.9217 0.0
C163 C 0.47625 0.93921 0.88362 0.0
O164 O 0.55725 0.91823 0.86216 0.0
C165 C 0.51976 0.96867 0.93329 0.0
O166 O 0.56686 0.92331 0.89027 0.0
O167 O 0.53248 0.94631 0.92801 0.0
C168 C 0.71101 0.1611 0.86125 0.0
O169 O 0.72365 0.17386 0.8737 0.0
Cd170 Cd 0.76301 0.20586 0.87193 0.0
O171 O 0.71918 0.16454 0.84545 0.0
Cd172 Cd 0.75774 0.19344 0.83099 0.0
C173 C 0.81194 0.16129 0.853 0.0
O174 O 0.75078 0.23667 0.84837 0.0
O175 O 0.7878 0.23686 0.83194 0.0
O176 O 0.7275 0.20349 0.80563 0.0
C177 C 0.77173 0.25043 0.84231 0.0
O178 O 0.80506 0.17687 0.86598 0.0
C179 C 0.74591 0.19618 0.79434 0.0
O180 O 0.79703 0.16135 0.83907 0.0
O181 O 0.76915 0.1861 0.80014 0.0
C182 C 0.56327 0.97656 0.61965 0.0
O183 O 0.55102 -0.00928 0.63164 0.0
Cd184 Cd 0.51782 0.0286 0.62662 0.0
O185 O 0.55786 0.98179 0.6036 0.0
Cd186 Cd 0.52603 0.01463 0.58659 0.0
C187 C 0.55909 0.07385 0.60155 0.0
O188 O 0.48452 0.0109 0.60581 0.0
O189 O 0.48261 0.04386 0.58612 0.0
O190 O 0.51787 0.97309 0.56828 0.0
C191 C 0.47004 0.02996 0.59807 0.0
O192 O 0.54501 0.06905 0.61547 0.0
C193 C 0.51861 -0.01375 0.55377 0.0
O194 O 0.55843 0.05618 0.58885 0.0
O195 O 0.52437 0.01283 0.5543 0.0
C196 C 0.75842 0.82752 0.34616 0.0
O197 O 0.75152 0.81958 0.36146 0.0
Cd198 Cd 0.7123 0.78767 0.36748 0.0
O199 O 0.74448 0.81858 0.33295 0.0
Cd200 Cd 0.70336 0.78692 0.32701 0.0
C201 C 0.65671 0.82595 0.35062 0.0
O202 O 0.71366 0.74766 0.34789 0.0
O203 O 0.6729 0.74709 0.33479 0.0
O204 O 0.72876 0.76912 0.30158 0.0
C205 C 0.69048 0.73464 0.3448 0.0
O206 O 0.66815 0.81419 0.36391 0.0
C207 C 0.70889 0.77373 0.29068 0.0
O208 O 0.66686 0.82216 0.33535 0.0
O209 O 0.6865 0.78548 0.29656 0.0
C210 C 0.89907 -0.00476 0.11055 0.0
O211 O 0.91134 0.98199 0.12295 0.0
Cd212 Cd 0.94337 0.9427 0.12047 0.0
O213 O 0.90331 -0.01209 0.09467 0.0
Cd214 Cd 0.93308 0.95009 0.08005 0.0
C215 C 0.89969 0.89456 0.10004 0.0
O216 O 0.97567 0.95653 0.09806 0.0
O217 O 0.97587 0.91953 0.08135 0.0
O218 O 0.94442 0.98204 0.05562 0.0
C219 C -0.01058 0.93573 0.09171 0.0
O220 O 0.91478 0.90065 0.11337 0.0
C221 C 0.93829 0.96401 0.04377 0.0
O222 O 0.90039 0.91034 0.08645 0.0
O223 O 0.92806 0.94023 0.04879 0.0
C224 C 0.70601 0.68909 0.80108 0.0
O225 O 0.68003 0.68166 0.80057 0.0
Cd226 Cd 0.65259 0.67069 0.82609 0.0
O227 O 0.71986 0.68814 0.81542 0.0
Cd228 Cd 0.71265 0.67313 0.84637 0.0
C229 C 0.67008 0.73087 0.85048 0.0
O230 O 0.67645 0.63528 0.84313 0.0
O231 O 0.6831 0.65258 0.86898 0.0
O232 O 0.75584 0.64441 0.84464 0.0
C233 C 0.67043 0.6346 0.85931 0.0
O234 O 0.65234 0.7163 0.84154 0.0
C235 C 0.76716 0.65433 0.85845 0.0
O236 O 0.69476 0.72104 0.854 0.0
O237 O 0.75364 0.67402 0.86635 0.0
C238 C 0.51807 0.42738 0.03134 0.0
O239 O 0.52702 0.40201 0.03366 0.0
Cd240 Cd 0.54868 0.38259 0.05893 0.0
O241 O 0.522 0.44658 0.04301 0.0
Cd242 Cd 0.54539 0.44725 0.07285 0.0
C243 C 0.49457 0.40152 0.08714 0.0
O244 O 0.5851 0.41493 0.06743 0.0
O245 O 0.57402 0.42066 0.09445 0.0
O246 O 0.57082 0.49262 0.06829 0.0
C247 C 0.59108 0.41028 0.08331 0.0
O248 O 0.50848 0.38226 0.07903 0.0
C249 C 0.56136 0.50463 0.08199 0.0
O250 O 0.50245 0.42765 0.08673 0.0
O251 O 0.54328 0.49055 0.09086 0.0
C252 C 0.77069 0.28234 0.29107 0.0
O253 O 0.79642 0.2902 0.28959 0.0
Cd254 Cd 0.82448 0.30646 0.31374 0.0
O255 O 0.75771 0.28502 0.3056 0.0
Cd256 Cd 0.76693 0.30447 0.33542 0.0
C257 C 0.81219 0.25003 0.34228 0.0
O258 O 0.79955 0.34368 0.32851 0.0
O259 O 0.79903 0.32958 0.35538 0.0
O260 O 0.72268 0.33122 0.33352 0.0
C261 C 0.80804 0.34732 0.34411 0.0
O262 O 0.82881 0.26419 0.33234 0.0
C263 C 0.71261 0.32247 0.34796 0.0
O264 O 0.78697 0.25878 0.34525 0.0
O265 O 0.72748 0.30442 0.35644 0.0
C266 C 0.94184 0.54361 0.54143 0.0
O267 O 0.93188 0.5685 0.54407 0.0
Cd268 Cd 0.90966 0.58626 0.56955 0.0
O269 O 0.9389 0.52388 0.55289 0.0
Cd270 Cd 0.91596 0.52158 0.58284 0.0
C271 C 0.96507 0.56889 0.59747 0.0
O272 O 0.87483 0.55235 0.57792 0.0
O273 O 0.88743 0.5474 0.60477 0.0
O274 O 0.89144 0.47602 0.57744 0.0
C275 C 0.86941 0.55692 0.59387 0.0
O276 O 0.94973 0.58754 0.58976 0.0
C277 C 0.9004 0.46368 0.5912 0.0
O278 O 0.95883 0.54232 0.59663 0.0
O279 O 0.91808 0.47761 0.60048 0.0
C280 C 0.69521 0.27826 0.68055 0.0
O281 O 0.66991 0.28756 0.68162 0.0
Cd282 Cd 0.64479 0.30766 0.65759 0.0
O283 O 0.70959 0.28179 0.66655 0.0
Cd284 Cd 0.70447 0.3058 0.63725 0.0
C285 C 0.65814 0.2535 0.62725 0.0
O286 O 0.6733 0.34509 0.64609 0.0
O287 O 0.67407 0.33592 0.61857 0.0
O288 O 0.7513 0.32565 0.64374 0.0
C289 C 0.66513 0.35175 0.63084 0.0
O290 O 0.64166 0.26741 0.63738 0.0
C291 C 0.76084 0.32431 0.62825 0.0
O292 O 0.68379 0.26158 0.6249 0.0
O293 O 0.74456 0.31332 0.61679 0.0
C294 C 0.94247 0.42398 0.9395 0.0
O295 O 0.93307 0.39932 0.93558 0.0
Cd296 Cd 0.91379 0.38609 0.90828 0.0
O297 O 0.94001 0.44487 0.92877 0.0
Cd298 Cd 0.91845 0.45203 0.8987 0.0
C299 C 0.97049 0.41021 0.88327 0.0
O300 O 0.87779 0.42033 0.90198 0.0
O301 O 0.88985 0.42919 0.87543 0.0
O302 O 0.89858 0.49744 0.90909 0.0
C303 C 0.87197 0.41829 0.88588 0.0
O304 O 0.9559 0.38983 0.88979 0.0
C305 C 0.90247 0.5109 0.89486 0.0
O306 O 0.96257 0.43616 0.88485 0.0
O307 O 0.91515 0.49749 0.88272 0.0
C308 C 0.75954 0.68617 0.1783 0.0
O309 O 0.78497 0.67735 0.17973 0.0
Cd310 Cd 0.81198 0.65922 0.15597 0.0
O311 O 0.74603 0.68332 0.1639 0.0
Cd312 Cd 0.7534 0.66159 0.13421 0.0
C313 C 0.79955 0.71519 0.12674 0.0
O314 O 0.78432 0.6222 0.14304 0.0
O315 O 0.78462 0.63236 0.11563 0.0
O316 O 0.70628 0.64148 0.13914 0.0
C317 C 0.79297 0.61605 0.12784 0.0
O318 O 0.81575 0.70111 0.13699 0.0
C319 C 0.69772 0.64362 0.12345 0.0
O320 O 0.77435 0.70656 0.12345 0.0
O321 O 0.7147 0.65513 0.1126 0.0
C322 C 0.52726 0.52549 0.43681 0.0
O323 O 0.53463 0.55155 0.43824 0.0
Cd324 Cd 0.55227 0.57814 0.41383 0.0
O325 O 0.53171 0.5119 0.42262 0.0
Cd326 Cd 0.55466 0.51839 0.39358 0.0
C327 C 0.49973 0.56082 0.38338 0.0
O328 O 0.59173 0.55284 0.40177 0.0
O329 O 0.58252 0.54895 0.37424 0.0
O330 O 0.57731 0.47332 0.40099 0.0
C331 C 0.59771 0.55993 0.38619 0.0
O332 O 0.51186 0.57847 0.39369 0.0
C333 C 0.57499 0.46213 0.38595 0.0
O334 O 0.50995 0.53585 0.38095 0.0
O335 O 0.56258 0.47692 0.37424 0.0
C336 C 0.21379 0.31941 0.12914 0.0
O337 O 0.22063 0.31014 0.11413 0.0
Cd338 Cd 0.25946 0.27677 0.11054 0.0
O339 O 0.22727 0.31093 0.14263 0.0
Cd340 Cd 0.26716 0.27842 0.14972 0.0
C341 C 0.31542 0.31518 0.12622 0.0
O342 O 0.25609 0.23694 0.13053 0.0
O343 O 0.2975 0.23803 0.143 0.0
O344 O 0.24057 0.26297 0.17546 0.0
C345 C 0.27918 0.22423 0.13426 0.0
O346 O 0.30436 0.30252 0.11314 0.0
C347 C 0.26037 0.26775 0.18638 0.0
O348 O 0.30453 0.31263 0.14138 0.0
O349 O 0.28318 0.27846 0.18035 0.0
C350 C 0.40308 0.48063 0.85529 0.0
O351 O 0.41735 0.49364 0.84367 0.0
Cd352 Cd 0.44627 0.53464 0.85074 0.0
O353 O 0.4049 0.48831 0.87123 0.0
Cd354 Cd 0.43132 0.52371 0.88915 0.0
C355 C 0.39723 0.57868 0.87042 0.0
O356 O 0.47845 0.52409 0.87422 0.0
O357 O 0.46992 0.55678 0.89359 0.0
O358 O 0.43714 0.48277 0.9082 0.0
C359 C 0.4876 0.54461 0.88359 0.0
O360 O 0.41431 0.57381 0.85787 0.0
C361 C 0.43325 0.49609 0.92244 0.0
O362 O 0.39652 0.56216 0.88369 0.0
O363 O 0.42704 0.52252 0.92135 0.0
C364 C 0.24179 0.65475 0.61182 0.0
O365 O 0.22861 0.66704 0.5994 0.0
Cd366 Cd 0.19157 0.70155 0.60266 0.0
O367 O 0.23603 0.66078 0.6277 0.0
Cd368 Cd 0.20348 0.69429 0.64362 0.0
C369 C 0.14468 0.66198 0.62773 0.0
O370 O 0.20881 0.7347 0.62358 0.0
O371 O 0.17532 0.73864 0.64257 0.0
O372 O 0.24411 0.70289 0.66238 0.0
C373 C 0.18969 0.75009 0.63043 0.0
O374 O 0.15046 0.67561 0.61374 0.0
C375 C 0.23052 0.70327 0.6767 0.0
O376 O 0.16161 0.66248 0.64078 0.0
O377 O 0.20407 0.69777 0.6759 0.0
C378 C 0.0728 0.49974 0.36525 0.0
O379 O 0.06038 0.48631 0.35299 0.0
Cd380 Cd 0.02739 0.448 0.35625 0.0
O381 O 0.06773 0.49351 0.38121 0.0
Cd382 Cd 0.03591 0.45912 0.39729 0.0
C383 C 0.06962 0.40177 0.3802 0.0
O384 O -0.00488 0.46457 0.37774 0.0
O385 O -0.00816 0.43044 0.39652 0.0
O386 O 0.02969 0.49873 0.41739 0.0
C387 C 0.98013 0.44499 0.38452 0.0
O388 O 0.05552 0.40745 0.36639 0.0
C389 C 0.02958 0.4838 0.43126 0.0
O390 O 0.06847 0.41823 0.39347 0.0
O391 O 0.03363 0.45705 0.42953 0.0
C392 C 0.22017 0.64861 0.35358 0.0
O393 O 0.22836 0.6589 0.36809 0.0
Cd394 Cd 0.26876 0.69153 0.36758 0.0
O395 O 0.23231 0.65634 0.33952 0.0
Cd396 Cd 0.26896 0.688 0.32758 0.0
C397 C 0.32061 0.65122 0.34775 0.0
O398 O 0.26331 0.73054 0.34698 0.0
O399 O 0.29887 0.72934 0.32889 0.0
O400 O 0.23067 0.69632 0.3074 0.0
C401 C 0.28446 0.74318 0.34002 0.0
O402 O 0.31123 0.66379 0.36133 0.0
C403 C 0.24524 0.69505 0.29349 0.0
O404 O 0.30798 0.65398 0.33308 0.0
O405 O 0.27167 0.68995 0.29517 0.0
C406 C 0.06475 0.46673 0.11955 0.0
O407 O 0.05226 0.48052 0.13161 0.0
Cd408 Cd 0.01794 0.51767 0.12704 0.0
O409 O 0.05918 0.47197 0.10353 0.0
Cd410 Cd 0.02691 0.50471 0.08685 0.0
C411 C 0.05841 0.56416 0.10261 0.0
O412 O -0.01482 0.49997 0.10589 0.0
O413 O -0.017 0.53304 0.0863 0.0
O414 O 0.0207 0.46463 0.067 0.0
C415 C 0.97057 0.51905 0.09826 0.0
O416 O 0.04402 0.55927 0.11639 0.0
C417 C 0.02199 0.47928 0.05303 0.0
O418 O 0.05845 0.54641 0.08997 0.0
O419 O 0.02678 0.50592 0.05469 0.0
C420 C 0.25642 0.3313 0.84574 0.0
O421 O 0.24883 0.32332 0.86091 0.0
Cd422 Cd 0.20932 0.29141 0.86616 0.0
O423 O 0.24301 0.32243 0.83231 0.0
Cd424 Cd 0.20165 0.29107 0.82619 0.0
C425 C 0.15458 0.3302 0.84904 0.0
O426 O 0.21063 0.25097 0.84684 0.0
O427 O 0.16971 0.25253 0.83397 0.0
O428 O 0.22619 0.27218 0.80072 0.0
C429 C 0.187 0.23888 0.84358 0.0
O430 O 0.16525 0.31796 0.8624 0.0
C431 C 0.20636 0.27745 0.7899 0.0
O432 O 0.1655 0.32682 0.83395 0.0
O433 O 0.18456 0.2902 0.79583 0.0
C434 C 0.38814 0.50448 0.60477 0.0
O435 O 0.39523 0.49579 0.61989 0.0
Cd436 Cd 0.42709 0.45549 0.62356 0.0
O437 O 0.39803 0.4922 0.59124 0.0
Cd438 Cd 0.43014 0.45238 0.58376 0.0
C439 C 0.38971 0.40232 0.60361 0.0
O440 O 0.46871 0.46053 0.60535 0.0
O441 O 0.46969 0.42116 0.59047 0.0
O442 O 0.44747 0.48147 0.55953 0.0
C443 C 0.4821 0.43802 0.60098 0.0
O444 O 0.40056 0.41154 0.61779 0.0
C445 C 0.4434 0.46256 0.54787 0.0
O446 O 0.39484 0.41481 0.58916 0.0
O447 O 0.43241 0.43907 0.55284 0.0
H448 H 0.0654 0.35563 0.35869 0.0
H449 H 0.11508 0.38952 0.40183 0.0
H450 H 0.14704 0.34731 0.40015 0.0
H451 H 0.07016 0.28121 0.37135 0.0
H452 H 0.07202 0.26896 0.34904 0.0
H453 H 0.0532 0.30146 0.35417 0.0
H454 H 0.08429 0.32923 0.33187 0.0
H455 H 0.10332 0.29688 0.32675 0.0
H456 H 0.12249 0.32819 0.33393 0.0
H457 H 0.17524 0.30182 0.39211 0.0
H458 H 0.19438 0.25636 0.38007 0.0
H459 H 0.12428 0.25331 0.34312 0.0
C460 C 0.08292 0.35422 0.36786 0.0
C461 C 0.08786 0.37593 0.38033 0.0
C462 C 0.11088 0.37306 0.3922 0.0
C463 C 0.12917 0.34924 0.39129 0.0
C464 C 0.12389 0.32841 0.3786 0.0
C465 C 0.10105 0.33062 0.36726 0.0
C466 C 0.09964 0.30558 0.35481 0.0
C467 C 0.07213 0.28828 0.35752 0.0
C468 C 0.10262 0.31558 0.33571 0.0
C469 C 0.12544 0.28895 0.36072 0.0
C470 C 0.13935 0.30235 0.37438 0.0
C471 C 0.16432 0.29106 0.38152 0.0
C472 C 0.17509 0.26532 0.37457 0.0
C473 C 0.16073 0.25115 0.36075 0.0
C474 C 0.13564 0.26333 0.35382 0.0
H475 H 0.95518 0.86298 0.58224 0.0
H476 H 0.96254 0.93503 0.61772 0.0
H477 H 0.91694 0.92093 0.6317 0.0
H478 H 0.88011 0.86938 0.57557 0.0
H479 H 0.87465 0.83124 0.57403 0.0
H480 H 0.90817 0.8466 0.56758 0.0
H481 H 0.93453 0.8129 0.58916 0.0
H482 H 0.9011 0.79743 0.59568 0.0
H483 H 0.92449 0.81266 0.61191 0.0
H484 H 0.87098 0.89679 0.64243 0.0
H485 H 0.82718 0.86801 0.64699 0.0
H486 H 0.84964 0.81481 0.60265 0.0
C487 C 0.94735 0.8757 0.59306 0.0
C488 C 0.96248 0.89984 0.5991 0.0
C489 C 0.95123 0.91636 0.61298 0.0
C490 C 0.92545 0.90847 0.62099 0.0
C491 C 0.91109 0.88437 0.61471 0.0
C492 C 0.92156 0.86853 0.60088 0.0
C493 C 0.90176 0.84436 0.59594 0.0
C494 C 0.89051 0.84814 0.57717 0.0
C495 C 0.91635 0.81511 0.59832 0.0
C496 C 0.87852 0.84879 0.60925 0.0
C497 C 0.8843 0.87171 0.62013 0.0
C498 C 0.86615 0.87901 0.63385 0.0
C499 C 0.84141 0.86254 0.63638 0.0
C500 C 0.83494 0.83946 0.62504 0.0
C501 C 0.85381 0.83263 0.61135 0.0
H502 H 0.40545 0.62562 0.85016 0.0
H503 H 0.34721 0.58951 0.88821 0.0
H504 H 0.31598 0.63212 0.88493 0.0
H505 H 0.39935 0.69837 0.86439 0.0
H506 H 0.40223 0.71258 0.84253 0.0
H507 H 0.41917 0.67917 0.84799 0.0
H508 H 0.39216 0.65417 0.82262 0.0
H509 H 0.37507 0.68748 0.81712 0.0
H510 H 0.35389 0.65619 0.82174 0.0
H511 H 0.29019 0.67901 0.87594 0.0
H512 H 0.27495 0.72624 0.86412 0.0
H513 H 0.35233 0.73035 0.83339 0.0
C514 C 0.3861 0.62653 0.85781 0.0
C515 C 0.37862 0.60417 0.86933 0.0
C516 C 0.35333 0.60646 0.87929 0.0
C517 C 0.33545 0.63051 0.87746 0.0
C518 C 0.34344 0.6521 0.8658 0.0
C519 C 0.3684 0.65031 0.85632 0.0
C520 C 0.37288 0.67631 0.84493 0.0
C521 C 0.40001 0.69256 0.85029 0.0
C522 C 0.37352 0.66803 0.82545 0.0
C523 C 0.34648 0.69312 0.84934 0.0
C524 C 0.32948 0.67891 0.86125 0.0
C525 C 0.30352 0.69037 0.86673 0.0
C526 C 0.29498 0.71711 0.85993 0.0
C527 C 0.3126 0.73209 0.84801 0.0
C528 C 0.33855 0.71971 0.8427 0.0
H529 H 0.50079 0.09538 0.08603 0.0
H530 H 0.49701 0.03081 0.1268 0.0
H531 H 0.54379 0.0474 0.13805 0.0
H532 H 0.57514 0.08831 0.07737 0.0
H533 H 0.57996 0.12597 0.07307 0.0
H534 H 0.5461 0.10932 0.06882 0.0
H535 H 0.52132 0.14653 0.08883 0.0
H536 H 0.5551 0.16329 0.09314 0.0
H537 H 0.53342 0.15093 0.11105 0.0
H538 H 0.59065 0.07319 0.14528 0.0
H539 H 0.63444 0.10283 0.14639 0.0
H540 H 0.60731 0.14768 0.09955 0.0
C541 C 0.50964 0.08476 0.0974 0.0
C542 C 0.49516 0.06201 0.10568 0.0
C543 C 0.50777 0.04836 0.12031 0.0
C544 C 0.53424 0.05768 0.12679 0.0
C545 C 0.54788 0.08035 0.1183 0.0
C546 C 0.53604 0.09343 0.1038 0.0
C547 C 0.55506 0.11669 0.0966 0.0
C548 C 0.56463 0.10963 0.07786 0.0
C549 C 0.54034 0.14609 0.09747 0.0
C550 C 0.57954 0.11487 0.10934 0.0
C551 C 0.57501 0.09404 0.12191 0.0
C552 C 0.59448 0.08935 0.1354 0.0
C553 C 0.61922 0.1063 0.13596 0.0
C554 C 0.62436 0.1273 0.12295 0.0
C555 C 0.60419 0.13148 0.10952 0.0
H556 H 0.10181 0.72019 0.13295 0.0
H557 H 0.18022 0.71129 0.1036 0.0
H558 H 0.16321 0.66465 0.09205 0.0
H559 H 0.09781 0.6487 0.14632 0.0
H560 H 0.05956 0.64684 0.14513 0.0
H561 H 0.07673 0.68056 0.14936 0.0
H562 H 0.05086 0.7031 0.12271 0.0
H563 H 0.03354 0.6694 0.11841 0.0
H564 H 0.05412 0.68657 0.10151 0.0
H565 H 0.13735 0.61778 0.08456 0.0
H566 H 0.10724 0.57411 0.08374 0.0
H567 H 0.04791 0.61413 0.11955 0.0
C568 C 0.11528 0.70878 0.12383 0.0
C569 C 0.14221 0.71953 0.119 0.0
C570 C 0.15942 0.7035 0.10739 0.0
C571 C 0.14989 0.67707 0.10074 0.0
C572 C 0.12325 0.66699 0.10595 0.0
C573 C 0.10634 0.68238 0.11734 0.0
C574 C 0.07963 0.6662 0.1221 0.0
C575 C 0.07838 0.66022 0.1419 0.0
C576 C 0.05296 0.68228 0.1158 0.0
C577 C 0.08419 0.63902 0.11181 0.0
C578 C 0.10917 0.63993 0.10231 0.0
C579 C 0.11774 0.61691 0.09194 0.0
C580 C 0.10052 0.59226 0.09151 0.0
C581 C 0.07539 0.59075 0.10166 0.0
C582 C 0.06712 0.6146 0.11174 0.0
H583 H 0.50986 0.86402 0.39597 0.0
H584 H 0.50057 0.93507 0.35985 0.0
H585 H 0.54687 0.92248 0.34628 0.0
H586 H 0.58534 0.87292 0.40273 0.0
H587 H 0.5917 0.83496 0.40455 0.0
H588 H 0.55786 0.8496 0.41097 0.0
H589 H 0.53222 0.81482 0.38972 0.0
H590 H 0.56597 0.80013 0.3832 0.0
H591 H 0.54209 0.81448 0.36694 0.0
H592 H 0.59321 0.89934 0.33559 0.0
H593 H 0.63734 0.87122 0.33085 0.0
H594 H 0.61675 0.81841 0.37576 0.0
C595 C 0.51753 0.87693 0.38518 0.0
C596 C 0.50162 0.90031 0.37879 0.0
C597 C 0.51254 0.91703 0.36489 0.0
C598 C 0.53871 0.90998 0.35709 0.0
C599 C 0.55379 0.88654 0.36364 0.0
C600 C 0.54373 0.87061 0.37757 0.0
C601 C 0.56415 0.84703 0.38261 0.0
C602 C 0.57543 0.85141 0.40132 0.0
C603 C 0.55027 0.81737 0.38048 0.0
C604 C 0.58721 0.85182 0.3692 0.0
C605 C 0.58084 0.87447 0.35821 0.0
C606 C 0.59856 0.88183 0.34428 0.0
C607 C 0.62348 0.86574 0.34164 0.0
C608 C 0.63056 0.84295 0.35308 0.0
C609 C 0.61214 0.83607 0.367 0.0
H610 H 0.33484 0.25388 0.64172 0.0
H611 H 0.27557 0.24879 0.59828 0.0
H612 H 0.29351 0.29532 0.58714 0.0
H613 H 0.32732 0.32955 0.6488 0.0
H614 H 0.36416 0.33443 0.65464 0.0
H615 H 0.34692 0.30065 0.65879 0.0
H616 H 0.38589 0.27447 0.64095 0.0
H617 H 0.40324 0.30816 0.63675 0.0
H618 H 0.3929 0.28548 0.61876 0.0
H619 H 0.31993 0.34174 0.58028 0.0
H620 H 0.34983 0.38544 0.57943 0.0
H621 H 0.38919 0.36044 0.62849 0.0
C622 C 0.32568 0.26244 0.62981 0.0
C623 C 0.30401 0.24764 0.62075 0.0
C624 C 0.29224 0.25981 0.60539 0.0
C625 C 0.30233 0.28615 0.59897 0.0
C626 C 0.32385 0.30012 0.60822 0.0
C627 C 0.33512 0.28877 0.62342 0.0
C628 C 0.35749 0.30819 0.63125 0.0
C629 C 0.34841 0.31884 0.64944 0.0
C630 C 0.3866 0.29317 0.63196 0.0
C631 C 0.35733 0.33221 0.61801 0.0
C632 C 0.33799 0.32715 0.60473 0.0
C633 C 0.33493 0.34602 0.5907 0.0
C634 C 0.35203 0.37072 0.59031 0.0
C635 C 0.37161 0.37643 0.60397 0.0
C636 C 0.37413 0.35688 0.61798 0.0
H637 H 0.96011 0.11186 0.89318 0.0
H638 H 0.96286 0.04402 0.85443 0.0
H639 H 0.91691 0.06089 0.84231 0.0
H640 H 0.88537 0.10773 0.9013 0.0
H641 H 0.88142 0.14582 0.90426 0.0
H642 H 0.91474 0.12876 0.90939 0.0
H643 H 0.94094 0.16346 0.88837 0.0
H644 H 0.9077 0.18065 0.88318 0.0
H645 H 0.92944 0.16617 0.86592 0.0
H646 H 0.87069 0.08634 0.8342 0.0
H647 H 0.82743 0.11634 0.83179 0.0
H648 H 0.85509 0.16572 0.8768 0.0
C649 C 0.9512 0.10058 0.88207 0.0
C650 C 0.96518 0.07673 0.87467 0.0
C651 C 0.95253 0.06237 0.8603 0.0
C652 C 0.92649 0.07183 0.85332 0.0
C653 C 0.9133 0.09547 0.86097 0.0
C654 C 0.92521 0.10948 0.87511 0.0
C655 C 0.9066 0.13383 0.88132 0.0
C656 C 0.89643 0.12871 0.90018 0.0
C657 C 0.9221 0.16274 0.87958 0.0
C658 C 0.88233 0.13148 0.86842 0.0
C659 C 0.88658 0.10939 0.85669 0.0
C660 C 0.86711 0.10359 0.84338 0.0
C661 C 0.84264 0.12077 0.84209 0.0
C662 C 0.83778 0.14326 0.85417 0.0
C663 C 0.85799 0.14853 0.86746 0.0
H664 H 0.87176 0.59306 0.62185 0.0
H665 H 0.82044 0.57095 0.57668 0.0
H666 H 0.78777 0.61107 0.58337 0.0
H667 H 0.81415 0.61836 0.65053 0.0
H668 H 0.83545 0.6473 0.65904 0.0
H669 H 0.85223 0.61457 0.65205 0.0
H670 H 0.88461 0.64355 0.63108 0.0
H671 H 0.86783 0.6763 0.6379 0.0
H672 H 0.8686 0.66688 0.61505 0.0
H673 H 0.76247 0.65559 0.5941 0.0
H674 H 0.74814 0.70203 0.60704 0.0
H675 H 0.81809 0.696 0.64395 0.0
C676 C 0.85321 0.59618 0.61366 0.0
C677 C 0.84827 0.5787 0.59892 0.0
C678 C 0.82435 0.58402 0.58813 0.0
C679 C 0.8057 0.60668 0.59185 0.0
C680 C 0.81151 0.62395 0.60629 0.0
C681 C 0.83477 0.61901 0.61698 0.0
C682 C 0.83796 0.64223 0.63062 0.0
C683 C 0.83474 0.62987 0.64916 0.0
C684 C 0.86643 0.65818 0.62852 0.0
C685 C 0.81305 0.66119 0.62585 0.0
C686 C 0.79777 0.65014 0.61196 0.0
C687 C 0.77419 0.66437 0.60505 0.0
C688 C 0.76621 0.69069 0.61247 0.0
C689 C 0.78205 0.70261 0.62644 0.0
C690 C 0.80559 0.68746 0.63324 0.0
H691 H 0.13767 0.09715 0.33749 0.0
H692 H 0.16879 0.10945 0.39044 0.0
H693 H 0.12886 0.08098 0.40181 0.0
H694 H 0.06647 0.10575 0.34691 0.0
H695 H 0.05318 0.07882 0.33212 0.0
H696 H 0.08647 0.09635 0.32765 0.0
H697 H 0.11183 0.04716 0.3263 0.0
H698 H 0.07851 0.02941 0.33067 0.0
H699 H 0.1089 0.02276 0.3445 0.0
H700 H 0.08263 0.05852 0.40792 0.0
H701 H 0.03328 0.04053 0.40831 0.0
H702 H 0.03187 0.04001 0.35163 0.0
C703 C 0.13648 0.09311 0.35141 0.0
C704 C 0.15637 0.10546 0.36308 0.0
C705 C 0.15381 0.10022 0.38126 0.0
C706 C 0.13126 0.08397 0.38785 0.0
C707 C 0.11153 0.07283 0.3761 0.0
C708 C 0.114 0.07682 0.35825 0.0
C709 C 0.08849 0.06442 0.34869 0.0
C710 C 0.07273 0.08773 0.33823 0.0
C711 C 0.09748 0.03944 0.33684 0.0
C712 C 0.07087 0.05391 0.36402 0.0
C713 C 0.08476 0.05885 0.37968 0.0
C714 C 0.0718 0.05383 0.39576 0.0
C715 C 0.04379 0.04375 0.39586 0.0
C716 C 0.02918 0.03849 0.38001 0.0
C717 C 0.04302 0.04311 0.36389 0.0
H718 H 0.59176 0.37747 0.11293 0.0
H719 H 0.6368 0.3923 0.0643 0.0
H720 H 0.669 0.35184 0.07105 0.0
H721 H 0.65308 0.35359 0.13937 0.0
H722 H 0.63238 0.32666 0.15048 0.0
H723 H 0.61557 0.35908 0.14291 0.0
H724 H 0.57902 0.3289 0.12542 0.0
H725 H 0.59579 0.29645 0.13282 0.0
H726 H 0.59157 0.30304 0.10973 0.0
H727 H 0.69426 0.30774 0.08231 0.0
H728 H 0.70906 0.26241 0.09647 0.0
H729 H 0.64552 0.27536 0.13679 0.0
C730 C 0.60886 0.37267 0.10392 0.0
C731 C 0.61209 0.38818 0.0882 0.0
C732 C 0.63416 0.38074 0.07648 0.0
C733 C 0.65256 0.35787 0.08023 0.0
C734 C 0.64842 0.34257 0.09568 0.0
C735 C 0.62706 0.34964 0.10732 0.0
C736 C 0.62538 0.3283 0.12218 0.0
C737 C 0.63201 0.34277 0.13978 0.0
C738 C 0.59622 0.31329 0.12254 0.0
C739 C 0.64879 0.30783 0.11694 0.0
C740 C 0.66216 0.31663 0.10178 0.0
C741 C 0.68405 0.30073 0.09424 0.0
C742 C 0.69231 0.27504 0.10236 0.0
C743 C 0.67837 0.26537 0.11767 0.0
C744 C 0.65653 0.28218 0.12507 0.0
H745 H 0.44545 0.93849 0.85308 0.0
H746 H 0.43992 0.92194 0.90876 0.0
H747 H 0.39033 0.90558 0.90516 0.0
H748 H 0.36971 0.95967 0.84578 0.0
H749 H 0.36767 0.94093 0.82522 0.0
H750 H 0.40102 0.956 0.8324 0.0
H751 H 0.42501 0.90628 0.82935 0.0
H752 H 0.39181 0.89112 0.82217 0.0
H753 H 0.41009 0.87596 0.84074 0.0
H754 H 0.34357 0.88733 0.89557 0.0
H755 H 0.3036 0.86418 0.88027 0.0
H756 H 0.33961 0.88956 0.83034 0.0
C757 C 0.4334 0.93212 0.86451 0.0
C758 C 0.44612 0.93179 0.88123 0.0
C759 C 0.4303 0.92245 0.89587 0.0
C760 C 0.40212 0.91331 0.89397 0.0
C761 C 0.39022 0.91335 0.87729 0.0
C762 C 0.40534 0.92226 0.86276 0.0
C763 C 0.38863 0.91675 0.8461 0.0
C764 C 0.38133 0.94503 0.83683 0.0
C765 C 0.40485 0.89631 0.83388 0.0
C766 C 0.36219 0.90267 0.85355 0.0
C767 C 0.36335 0.90156 0.87159 0.0
C768 C 0.34224 0.88829 0.88145 0.0
C769 C 0.31963 0.87516 0.87263 0.0
C770 C 0.31847 0.87505 0.85412 0.0
C771 C 0.33975 0.88957 0.8445 0.0
H772 H 0.87267 0.38534 0.85635 0.0
H773 H 0.82253 0.40484 0.90236 0.0
H774 H 0.78811 0.36708 0.89415 0.0
H775 H 0.81301 0.36471 0.82684 0.0
H776 H 0.83316 0.33589 0.81725 0.0
H777 H 0.85116 0.36748 0.82512 0.0
H778 H 0.88313 0.33581 0.84486 0.0
H779 H 0.86517 0.3042 0.83717 0.0
H780 H 0.86681 0.31164 0.86028 0.0
H781 H 0.76171 0.32481 0.88249 0.0
H782 H 0.74629 0.27934 0.86909 0.0
H783 H 0.81512 0.28555 0.83148 0.0
C784 C 0.85397 0.38221 0.86437 0.0
C785 C 0.84988 0.39821 0.87983 0.0
C786 C 0.82578 0.39291 0.89038 0.0
C787 C 0.80612 0.37161 0.8858 0.0
C788 C 0.81108 0.35569 0.87069 0.0
C789 C 0.83444 0.36066 0.86015 0.0
C790 C 0.83656 0.33848 0.84576 0.0
C791 C 0.83327 0.35248 0.82767 0.0
C792 C 0.86457 0.32153 0.84711 0.0
C793 C 0.81115 0.31988 0.85012 0.0
C794 C 0.79644 0.3305 0.86434 0.0
C795 C 0.77288 0.31641 0.87124 0.0
C796 C 0.76431 0.29058 0.86355 0.0
C797 C 0.77953 0.2789 0.84925 0.0
C798 C 0.80301 0.29401 0.84235 0.0
H799 H 0.32686 0.12101 0.59876 0.0
H800 H 0.30438 0.07664 0.64667 0.0
H801 H 0.34672 0.0457 0.64354 0.0
H802 H 0.35722 0.05898 0.57542 0.0
H803 H 0.38521 0.08018 0.56583 0.0
H804 H 0.35137 0.09637 0.57073 0.0
H805 H 0.37683 0.13493 0.58945 0.0
H806 H 0.41069 0.11878 0.58472 0.0
H807 H 0.39982 0.12387 0.6071 0.0
H808 H 0.39315 0.02212 0.63635 0.0
H809 H 0.44081 0.00801 0.62594 0.0
H810 H 0.43371 0.06895 0.58323 0.0
C811 C 0.33049 0.10434 0.60837 0.0
C812 C 0.31225 0.101 0.62288 0.0
C813 C 0.31806 0.07943 0.63542 0.0
C814 C 0.34199 0.06175 0.63372 0.0
C815 C 0.35991 0.06601 0.61946 0.0
C816 C 0.35445 0.08676 0.60699 0.0
C817 C 0.3782 0.08846 0.59367 0.0
C818 C 0.36734 0.08052 0.57533 0.0
C819 C 0.39221 0.11827 0.59375 0.0
C820 C 0.39812 0.06581 0.60079 0.0
C821 C 0.38703 0.05287 0.61554 0.0
C822 C 0.40196 0.03192 0.62473 0.0
C823 C 0.42903 0.02409 0.61873 0.0
C824 C 0.44096 0.03739 0.60379 0.0
C825 C 0.42513 0.05835 0.59467 0.0
H826 H 0.65151 0.69583 0.33344 0.0
H827 H 0.71299 0.71121 0.37473 0.0
H828 H 0.6978 0.66636 0.3894 0.0
H829 H 0.59663 0.66875 0.35961 0.0
H830 H 0.5852 0.64211 0.34406 0.0
H831 H 0.6021 0.67441 0.33653 0.0
H832 H 0.64006 0.64431 0.32024 0.0
H833 H 0.6232 0.61186 0.32768 0.0
H834 H 0.66038 0.61795 0.33214 0.0
H835 H 0.67209 0.6221 0.40085 0.0
H836 H 0.64077 0.58053 0.40692 0.0
H837 H 0.59874 0.59336 0.35698 0.0
C838 C 0.66198 0.68964 0.34549 0.0
C839 C 0.68332 0.70696 0.35302 0.0
C840 C 0.69664 0.69811 0.36874 0.0
C841 C 0.68812 0.67274 0.37716 0.0
C842 C 0.66666 0.65633 0.36948 0.0
C843 C 0.6541 0.66427 0.35385 0.0
C844 C 0.6313 0.64326 0.34836 0.0
C845 C 0.60209 0.65802 0.34707 0.0
C846 C 0.63922 0.62847 0.33108 0.0
C847 C 0.63244 0.62255 0.36354 0.0
C848 C 0.65287 0.63041 0.37564 0.0
C849 C 0.65639 0.61548 0.39131 0.0
C850 C 0.63849 0.59198 0.39467 0.0
C851 C 0.61762 0.58357 0.38233 0.0
C852 C 0.61488 0.59894 0.36652 0.0
H853 H 0.12934 0.84071 0.09973 0.0
H854 H 0.15244 0.89276 0.14452 0.0
H855 H 0.11214 0.92524 0.13827 0.0
H856 H 0.10189 0.89941 0.07137 0.0
H857 H 0.07321 0.87749 0.06322 0.0
H858 H 0.10645 0.86119 0.06951 0.0
H859 H 0.07948 0.82746 0.09071 0.0
H860 H 0.04625 0.84378 0.08463 0.0
H861 H 0.05684 0.84267 0.10729 0.0
H862 H 0.0671 0.94918 0.12886 0.0
H863 H 0.01973 0.96239 0.11751 0.0
H864 H 0.02466 0.89331 0.07965 0.0
C865 C 0.12642 0.85948 0.10789 0.0
C866 C 0.14418 0.86459 0.12246 0.0
C867 C 0.13917 0.88872 0.1332 0.0
C868 C 0.1164 0.90725 0.12972 0.0
C869 C 0.09878 0.9012 0.11553 0.0
C870 C 0.10351 0.8779 0.10476 0.0
C871 C 0.07977 0.87445 0.09151 0.0
C872 C 0.09101 0.87838 0.07279 0.0
C873 C 0.0647 0.84537 0.09368 0.0
C874 C 0.06063 0.89902 0.09677 0.0
C875 C 0.07221 0.91445 0.11046 0.0
C876 C 0.05794 0.93744 0.11803 0.0
C877 C 0.03102 0.94474 0.11151 0.0
C878 C 0.01851 0.92886 0.09772 0.0
C879 C 0.03371 0.9059 0.09018 0.0
H880 H 0.62966 0.76519 0.8361 0.0
H881 H 0.69079 0.76137 0.87859 0.0
H882 H 0.6732 0.80814 0.88954 0.0
H883 H 0.63523 0.84197 0.8286 0.0
H884 H 0.59797 0.84543 0.82345 0.0
H885 H 0.61628 0.8124 0.81888 0.0
H886 H 0.57911 0.78458 0.8373 0.0
H887 H 0.56077 0.81751 0.84199 0.0
H888 H 0.57286 0.795 0.85966 0.0
H889 H 0.64562 0.85381 0.89694 0.0
H890 H 0.61338 0.89569 0.89884 0.0
H891 H 0.5726 0.8695 0.85047 0.0
C892 C 0.63951 0.77422 0.84767 0.0
C893 C 0.66145 0.75961 0.85658 0.0
C894 C 0.67397 0.77229 0.87155 0.0
C895 C 0.66407 0.79876 0.87787 0.0
C896 C 0.64202 0.81238 0.86887 0.0
C897 C 0.63022 0.80064 0.85394 0.0
C898 C 0.60676 0.81924 0.84661 0.0
C899 C 0.61454 0.83043 0.82831 0.0
C900 C 0.57819 0.80312 0.84639 0.0
C901 C 0.6067 0.84311 0.85993 0.0
C902 C 0.62707 0.83884 0.87273 0.0
C903 C 0.62987 0.85753 0.88686 0.0
C904 C 0.61142 0.88117 0.88786 0.0
C905 C 0.59066 0.88599 0.87472 0.0
C906 C 0.58851 0.86669 0.86058 0.0
H907 H 0.46012 0.35669 0.07914 0.0
H908 H 0.46872 0.42803 0.11507 0.0
H909 H 0.42392 0.41336 0.12973 0.0
H910 H 0.38487 0.36276 0.07381 0.0
H911 H 0.37942 0.32464 0.07212 0.0
H912 H 0.41263 0.34017 0.06523 0.0
H913 H 0.43994 0.3062 0.0862 0.0
H914 H 0.40681 0.29055 0.09315 0.0
H915 H 0.43083 0.30556 0.10909 0.0
H916 H 0.37845 0.38917 0.1409 0.0
H917 H 0.33472 0.36054 0.14587 0.0
H918 H 0.35541 0.30785 0.10097 0.0
C919 C 0.45275 0.36913 0.0902 0.0
C920 C 0.46801 0.39327 0.09614 0.0
C921 C 0.45734 0.40937 0.11038 0.0
C922 C 0.432 0.40115 0.11878 0.0
C923 C 0.41748 0.37712 0.11256 0.0
C924 C 0.42738 0.36161 0.09844 0.0
C925 C 0.4074 0.33747 0.09368 0.0
C926 C 0.39537 0.34152 0.07511 0.0
C927 C 0.42213 0.30822 0.09565 0.0
C928 C 0.38469 0.34161 0.10738 0.0
C929 C 0.39093 0.36433 0.11832 0.0
C930 C 0.37328 0.37151 0.13231 0.0
C931 C 0.34856 0.35512 0.13506 0.0
C932 C 0.34159 0.33222 0.12369 0.0
C933 C 0.35997 0.32551 0.10972 0.0
H934 H 0.91769 0.1182 0.35023 0.0
H935 H 0.86091 0.08039 0.38852 0.0
H936 H 0.82981 0.12321 0.38661 0.0
H937 H 0.91116 0.19144 0.36573 0.0
H938 H 0.91316 0.20617 0.34397 0.0
H939 H 0.93098 0.17302 0.349 0.0
H940 H 0.90394 0.14798 0.32367 0.0
H941 H 0.88598 0.18099 0.3186 0.0
H942 H 0.86561 0.14914 0.32317 0.0
H943 H 0.80347 0.16958 0.37873 0.0
H944 H 0.78591 0.21574 0.36686 0.0
H945 H 0.86165 0.22233 0.33469 0.0
C946 C 0.89877 0.1189 0.35829 0.0
C947 C 0.89158 0.09593 0.36944 0.0
C948 C 0.86681 0.09783 0.3799 0.0
C949 C 0.84903 0.12201 0.37887 0.0
C950 C 0.85663 0.14416 0.36753 0.0
C951 C 0.88113 0.14285 0.35759 0.0
C952 C 0.88471 0.16919 0.34634 0.0
C953 C 0.91159 0.18594 0.35158 0.0
C954 C 0.88506 0.16134 0.32679 0.0
C955 C 0.85807 0.18536 0.35115 0.0
C956 C 0.84206 0.17074 0.36339 0.0
C957 C 0.81601 0.18131 0.36927 0.0
C958 C 0.80618 0.20749 0.36243 0.0
C959 C 0.82244 0.22275 0.3499 0.0
C960 C 0.84875 0.21142 0.34435 0.0
H961 H 0.09587 0.67366 0.61028 0.0
H962 H 0.13353 0.61229 0.64603 0.0
H963 H 0.09019 0.58201 0.6437 0.0
H964 H 0.02266 0.66648 0.62623 0.0
H965 H 0.00796 0.6709 0.60461 0.0
H966 H 0.04105 0.68805 0.61028 0.0
H967 H 0.0655 0.66343 0.58389 0.0
H968 H 0.0326 0.64609 0.57821 0.0
H969 H 0.06412 0.62497 0.58195 0.0
H970 H 0.04406 0.55613 0.6344 0.0
H971 H -0.00134 0.53954 0.6212 0.0
H972 H -0.00817 0.62 0.59307 0.0
C973 C 0.09489 0.65402 0.61781 0.0
C974 C 0.11802 0.64519 0.62827 0.0
C975 C 0.1159 0.61947 0.63801 0.0
C976 C 0.09144 0.60214 0.63671 0.0
C977 C 0.06921 0.61122 0.6259 0.0
C978 C 0.07065 0.63687 0.61688 0.0
C979 C 0.04445 0.64182 0.60584 0.0
C980 C 0.02806 0.66838 0.61213 0.0
C981 C 0.05214 0.6442 0.58633 0.0
C982 C 0.02821 0.61463 0.60964 0.0
C983 C 0.04269 0.59709 0.62119 0.0
C984 C 0.03236 0.56996 0.6256 0.0
C985 C 0.00663 0.56067 0.61801 0.0
C986 C -0.0085 0.57858 0.60626 0.0
C987 C 0.00251 0.60594 0.60224 0.0
H988 H 0.55154 0.1226 0.62028 0.0
H989 H 0.60619 0.08457 0.58101 0.0
H990 H 0.6372 0.12764 0.58197 0.0
H991 H 0.55719 0.19619 0.60457 0.0
H992 H 0.55643 0.21065 0.62641 0.0
H993 H 0.53823 0.1776 0.62163 0.0
H994 H 0.56653 0.15223 0.64632 0.0
H995 H 0.58489 0.18511 0.65112 0.0
H996 H 0.60486 0.15325 0.64602 0.0
H997 H 0.66445 0.1741 0.58963 0.0
H998 H 0.68307 0.21978 0.60172 0.0
H999 H 0.60851 0.22627 0.63487 0.0
C1000 C 0.56989 0.12335 0.61174 0.0
C1001 C 0.57656 0.1002 0.60063 0.0
C1002 C 0.60064 0.10216 0.58958 0.0
C1003 C 0.61839 0.12648 0.59008 0.0
C1004 C 0.61142 0.14875 0.60149 0.0
C1005 C 0.58745 0.14742 0.61192 0.0
C1006 C 0.58459 0.17364 0.62332 0.0
C1007 C 0.55751 0.19051 0.6187 0.0
C1008 C 0.58527 0.16556 0.64285 0.0
C1009 C 0.61102 0.1898 0.61802 0.0
C1010 C 0.62636 0.17529 0.60544 0.0
C1011 C 0.65235 0.18577 0.59931 0.0
C1012 C 0.66281 0.21168 0.60628 0.0
C1013 C 0.64719 0.22679 0.61915 0.0
C1014 C 0.6209 0.21559 0.62489 0.0
H1015 H 0.11306 0.32137 0.87298 0.0
H1016 H 0.13638 0.37627 0.82954 0.0
H1017 H 0.09171 0.40387 0.83354 0.0
H1018 H 0.03914 0.31739 0.86216 0.0
H1019 H 0.02782 0.31658 0.88466 0.0
H1020 H 0.06209 0.30244 0.87873 0.0
H1021 H 0.08636 0.33624 0.90115 0.0
H1022 H 0.05217 0.35045 0.90717 0.0
H1023 H 0.07995 0.37427 0.89992 0.0
H1024 H 0.04469 0.42655 0.84361 0.0
H1025 H -0.00189 0.4391 0.85685 0.0
H1026 H 0.00533 0.36614 0.89171 0.0
C1027 C 0.10892 0.33936 0.86439 0.0
C1028 C 0.12825 0.34701 0.85111 0.0
C1029 C 0.1218 0.37022 0.83985 0.0
C1030 C 0.09657 0.386 0.84206 0.0
C1031 C 0.07792 0.37786 0.85536 0.0
C1032 C 0.08372 0.3548 0.86615 0.0
C1033 C 0.05986 0.34936 0.87893 0.0
C1034 C 0.04644 0.31969 0.87593 0.0
C1035 C 0.07021 0.3528 0.89791 0.0
C1036 C 0.03973 0.37309 0.87379 0.0
C1037 C 0.05053 0.38962 0.86034 0.0
C1038 C 0.03593 0.41353 0.85401 0.0
C1039 C 0.00958 0.42054 0.8616 0.0
C1040 C -0.00196 0.40333 0.87509 0.0
C1041 C 0.01339 0.37936 0.88117 0.0
H1042 H 0.90248 0.85003 0.12312 0.0
H1043 H 0.85528 0.88083 0.07806 0.0
H1044 H 0.82404 0.83815 0.07967 0.0
H1045 H 0.90063 0.77552 0.11144 0.0
H1046 H 0.89725 0.76361 0.13378 0.0
H1047 H 0.91544 0.79663 0.12897 0.0
H1048 H 0.88161 0.82383 0.14994 0.0
H1049 H 0.8633 0.79091 0.15479 0.0
H1050 H 0.8437 0.82135 0.14672 0.0
H1051 H 0.79676 0.79221 0.08724 0.0
H1052 H 0.77806 0.74637 0.099 0.0
H1053 H 0.84506 0.74611 0.13812 0.0
C1054 C 0.88557 0.8479 0.11357 0.0
C1055 C 0.88123 0.86886 0.10052 0.0
C1056 C 0.85902 0.86503 0.08818 0.0
C1057 C 0.84113 0.8409 0.08901 0.0
C1058 C 0.84596 0.82071 0.10215 0.0
C1059 C 0.86783 0.82393 0.1141 0.0
C1060 C 0.86901 0.79916 0.1268 0.0
C1061 C 0.89725 0.78276 0.12514 0.0
C1062 C 0.8641 0.80944 0.14568 0.0
C1063 C 0.84427 0.7815 0.12025 0.0
C1064 C 0.83104 0.79423 0.1061 0.0
C1065 C 0.80713 0.78197 0.09824 0.0
C1066 C 0.79662 0.75599 0.10501 0.0
C1067 C 0.81022 0.74251 0.11937 0.0
C1068 C 0.83434 0.7556 0.12698 0.0
H1069 H 0.4645 0.60386 0.39338 0.0
H1070 H 0.47416 0.53755 0.35411 0.0
H1071 H 0.42942 0.55372 0.33993 0.0
H1072 H 0.38922 0.59739 0.39779 0.0
H1073 H 0.38402 0.63524 0.40115 0.0
H1074 H 0.41697 0.61868 0.4076 0.0
H1075 H 0.4449 0.65494 0.38846 0.0
H1076 H 0.41202 0.67158 0.38192 0.0
H1077 H 0.43626 0.65836 0.36557 0.0
H1078 H 0.38352 0.57899 0.32975 0.0
H1079 H 0.3398 0.60822 0.32597 0.0
H1080 H 0.3609 0.65552 0.37305 0.0
C1081 C 0.45738 0.59275 0.38174 0.0
C1082 C 0.47293 0.56961 0.37475 0.0
C1083 C 0.46256 0.55538 0.35967 0.0
C1084 C 0.43724 0.56447 0.35151 0.0
C1085 C 0.42251 0.58754 0.35876 0.0
C1086 C 0.43217 0.60124 0.37365 0.0
C1087 C 0.41231 0.62485 0.37931 0.0
C1088 C 0.39989 0.61865 0.39754 0.0
C1089 C 0.42727 0.65416 0.37877 0.0
C1090 C 0.38987 0.6225 0.36526 0.0
C1091 C 0.39608 0.60111 0.35338 0.0
C1092 C 0.37841 0.59566 0.33906 0.0
C1093 C 0.35371 0.61238 0.33698 0.0
C1094 C 0.34685 0.63394 0.3493 0.0
C1095 C 0.36533 0.63896 0.36352 0.0
H1096 H 0.34994 0.09439 0.08396 0.0
H1097 H 0.34122 0.04647 0.13227 0.0
H1098 H 0.31103 0.08478 0.14439 0.0
H1099 H 0.35912 0.1602 0.10349 0.0
H1100 H 0.33985 0.18086 0.08746 0.0
H1101 H 0.35631 0.14764 0.08126 0.0
H1102 H 0.30788 0.12867 0.06993 0.0
H1103 H 0.29123 0.16197 0.07606 0.0
H1104 H 0.27752 0.12852 0.08431 0.0
H1105 H 0.28777 0.13023 0.15281 0.0
H1106 H 0.27333 0.18069 0.15708 0.0
H1107 H 0.29709 0.20014 0.10369 0.0
C1108 C 0.34086 0.09162 0.09686 0.0
C1109 C 0.34758 0.06738 0.10713 0.0
C1110 C 0.33616 0.06484 0.12418 0.0
C1111 C 0.31889 0.08641 0.13113 0.0
C1112 C 0.31327 0.11043 0.12089 0.0
C1113 C 0.32382 0.1132 0.1041 0.0
C1114 C 0.31726 0.14261 0.09665 0.0
C1115 C 0.34477 0.15877 0.09195 0.0
C1116 C 0.29727 0.14029 0.0808 0.0
C1117 C 0.30232 0.15623 0.11211 0.0
C1118 C 0.29983 0.13707 0.12584 0.0
C1119 C 0.28897 0.14524 0.14204 0.0
C1120 C 0.28084 0.17383 0.14437 0.0
C1121 C 0.28359 0.19377 0.13058 0.0
C1122 C 0.29406 0.18487 0.1142 0.0
H1123 H 0.52405 0.54776 0.85555 0.0
H1124 H 0.51801 0.56326 0.91133 0.0
H1125 H 0.56679 0.58268 0.91145 0.0
H1126 H 0.60151 0.53074 0.85408 0.0
H1127 H 0.60665 0.5498 0.83382 0.0
H1128 H 0.57293 0.533 0.8384 0.0
H1129 H 0.54734 0.5815 0.8335 0.0
H1130 H 0.58092 0.59842 0.82896 0.0
H1131 H 0.55832 0.61238 0.84596 0.0
H1132 H 0.61376 0.60387 0.90547 0.0
H1133 H 0.65572 0.62843 0.89348 0.0
H1134 H 0.63153 0.60176 0.84112 0.0
C1135 C 0.5334 0.55458 0.86781 0.0
C1136 C 0.51757 0.55375 0.88349 0.0
C1137 C 0.52996 0.56365 0.89923 0.0
C1138 C 0.55766 0.57456 0.89944 0.0
C1139 C 0.5726 0.57567 0.88375 0.0
C1140 C 0.56097 0.56612 0.86819 0.0
C1141 C 0.58056 0.57266 0.85294 0.0
C1142 C 0.59104 0.54489 0.8443 0.0
C1143 C 0.56591 0.59242 0.83956 0.0
C1144 C 0.60461 0.58796 0.86235 0.0
C1145 C 0.59971 0.58893 0.88015 0.0
C1146 C 0.61802 0.60304 0.89157 0.0
C1147 C 0.64177 0.61699 0.88461 0.0
C1148 C 0.64692 0.61701 0.86637 0.0
C1149 C 0.62831 0.60185 0.85514 0.0
H1150 H 0.14936 0.78763 0.64236 0.0
H1151 H 0.21167 0.77549 0.6012 0.0
H1152 H 0.19557 0.82019 0.58707 0.0
H1153 H 0.09448 0.81204 0.61581 0.0
H1154 H 0.08098 0.8381 0.63106 0.0
H1155 H 0.09951 0.80699 0.63899 0.0
H1156 H 0.13505 0.83956 0.65564 0.0
H1157 H 0.11656 0.87085 0.64776 0.0
H1158 H 0.15418 0.86697 0.64389 0.0
H1159 H 0.16888 0.86246 0.57555 0.0
H1160 H 0.13442 0.9005 0.56799 0.0
H1161 H 0.09085 0.8865 0.61722 0.0
C1162 C 0.15996 0.79465 0.63055 0.0
C1163 C 0.18176 0.7781 0.62287 0.0
C1164 C 0.19497 0.78788 0.60734 0.0
C1165 C 0.18602 0.81327 0.59923 0.0
C1166 C 0.16411 0.8288 0.60696 0.0
C1167 C 0.15143 0.82005 0.62236 0.0
C1168 C 0.1272 0.83973 0.6274 0.0
C1169 C 0.09888 0.82323 0.62836 0.0
C1170 C 0.13365 0.8552 0.6447 0.0
C1171 C 0.12762 0.86036 0.61212 0.0
C1172 C 0.14918 0.85378 0.60052 0.0
C1173 C 0.15229 0.86822 0.58469 0.0
C1174 C 0.13262 0.8897 0.58049 0.0
C1175 C 0.11029 0.89661 0.59213 0.0
C1176 C 0.10814 0.88211 0.60828 0.0
H1177 H 0.94319 0.40393 0.39644 0.0
H1178 H 0.95455 0.46713 0.35535 0.0
H1179 H 0.90985 0.45108 0.34148 0.0
H1180 H 0.91703 0.34872 0.36971 0.0
H1181 H 0.89161 0.3355 0.38539 0.0
H1182 H 0.92332 0.35338 0.3928 0.0
H1183 H 0.89268 0.38966 0.41017 0.0
H1184 H 0.86082 0.37182 0.40283 0.0
H1185 H 0.86533 0.40965 0.39899 0.0
H1186 H 0.86632 0.42529 0.33068 0.0
H1187 H 0.82599 0.3928 0.32444 0.0
H1188 H 0.8422 0.34769 0.37309 0.0
C1189 C 0.93609 0.41465 0.38465 0.0
C1190 C 0.95234 0.43677 0.37697 0.0
C1191 C 0.94239 0.45018 0.36149 0.0
C1192 C 0.91703 0.44123 0.35351 0.0
C1193 C 0.90173 0.41906 0.36128 0.0
C1194 C 0.91073 0.40612 0.37658 0.0
C1195 C 0.8909 0.38211 0.38192 0.0
C1196 C 0.90666 0.35323 0.38248 0.0
C1197 C 0.87658 0.38872 0.39952 0.0
C1198 C 0.86969 0.38316 0.36702 0.0
C1199 C 0.87626 0.40465 0.35526 0.0
C1200 C 0.8607 0.40866 0.33992 0.0
C1201 C 0.8379 0.39009 0.33646 0.0
C1202 C 0.83085 0.36793 0.34835 0.0
C1203 C 0.8468 0.36473 0.3639 0.0
H1204 H 0.28966 0.76978 0.37182 0.0
H1205 H 0.2965 0.78364 0.31595 0.0
H1206 H 0.31456 0.83253 0.32117 0.0
H1207 H 0.2725 0.84584 0.38458 0.0
H1208 H 0.29455 0.84388 0.40385 0.0
H1209 H 0.27684 0.8122 0.39586 0.0
H1210 H 0.32525 0.78581 0.39445 0.0
H1211 H 0.34308 0.81736 0.40232 0.0
H1212 H 0.35393 0.80126 0.38198 0.0
H1213 H 0.33713 0.87678 0.33203 0.0
H1214 H 0.36478 0.91334 0.34788 0.0
H1215 H 0.34569 0.87082 0.39701 0.0
C1216 C 0.29402 0.78361 0.36077 0.0
C1217 C 0.29127 0.77338 0.34349 0.0
C1218 C 0.29824 0.7914 0.32926 0.0
C1219 C 0.30838 0.81918 0.3321 0.0
C1220 C 0.31168 0.8285 0.34928 0.0
C1221 C 0.30478 0.81133 0.36341 0.0
C1222 C 0.31386 0.82523 0.38046 0.0
C1223 C 0.28788 0.8322 0.39186 0.0
C1224 C 0.3353 0.80629 0.39037 0.0
C1225 C 0.32777 0.85234 0.37362 0.0
C1226 C 0.32572 0.85401 0.35562 0.0
C1227 C 0.33853 0.87598 0.34615 0.0
C1228 C 0.35428 0.8966 0.35527 0.0
C1229 C 0.35733 0.89497 0.37367 0.0
C1230 C 0.3434 0.87284 0.38297 0.0
H1231 H 0.93365 0.55708 0.08317 0.0
H1232 H 0.94285 0.49941 0.12737 0.0
H1233 H 0.89627 0.51535 0.13869 0.0
H1234 H 0.90323 0.61425 0.10613 0.0
H1235 H 0.8791 0.62463 0.08892 0.0
H1236 H 0.91199 0.60701 0.08362 0.0
H1237 H 0.88421 0.56768 0.06684 0.0
H1238 H 0.85117 0.58523 0.07208 0.0
H1239 H 0.85639 0.54814 0.07783 0.0
H1240 H 0.85099 0.54094 0.1466 0.0
H1241 H 0.80958 0.57315 0.14992 0.0
H1242 H 0.82919 0.61261 0.09997 0.0
C1243 C 0.92571 0.54752 0.09511 0.0
C1244 C 0.94186 0.52702 0.1044 0.0
C1245 C 0.93078 0.51509 0.12001 0.0
C1246 C 0.90435 0.52399 0.12654 0.0
C1247 C 0.88915 0.54456 0.11718 0.0
C1248 C 0.89931 0.55598 0.10172 0.0
C1249 C 0.87937 0.57857 0.09453 0.0
C1250 C 0.89432 0.60784 0.09324 0.0
C1251 C 0.86706 0.56934 0.07677 0.0
C1252 C 0.85673 0.57859 0.10858 0.0
C1253 C 0.86271 0.55877 0.12151 0.0
C1254 C 0.84584 0.55622 0.13641 0.0
C1255 C 0.82244 0.5746 0.13821 0.0
C1256 C 0.81607 0.59512 0.12513 0.0
C1257 C 0.83324 0.59676 0.11004 0.0
H1258 H 0.14511 0.20325 0.83225 0.0
H1259 H 0.21069 0.21145 0.8719 0.0
H1260 H 0.1946 0.16587 0.88534 0.0
H1261 H 0.09126 0.17595 0.85931 0.0
H1262 H 0.0772 0.15164 0.84316 0.0
H1263 H 0.09493 0.18393 0.83635 0.0
H1264 H 0.12988 0.15406 0.81756 0.0
H1265 H 0.1122 0.12164 0.82428 0.0
H1266 H 0.14996 0.12557 0.82763 0.0
H1267 H 0.16814 0.12136 0.89575 0.0
H1268 H 0.13575 0.0804 0.90112 0.0
H1269 H 0.08964 0.10088 0.85355 0.0
C1270 C 0.15626 0.19536 0.84369 0.0
C1271 C 0.17905 0.21086 0.85111 0.0
C1272 C 0.19321 0.1998 0.866 0.0
C1273 C 0.1842 0.174 0.87372 0.0
C1274 C 0.16134 0.15942 0.86618 0.0
C1275 C 0.14784 0.16959 0.85135 0.0
C1276 C 0.12361 0.15027 0.84585 0.0
C1277 C 0.09507 0.16641 0.8462 0.0
C1278 C 0.12926 0.1371 0.82776 0.0
C1279 C 0.12511 0.12788 0.8601 0.0
C1280 C 0.14693 0.13348 0.87175 0.0
C1281 C 0.15128 0.11655 0.88656 0.0
C1282 C 0.13276 0.09341 0.88953 0.0
C1283 C 0.1104 0.08734 0.87766 0.0
C1284 C 0.10683 0.10469 0.8627 0.0
H1285 H 0.52021 0.40066 0.58702 0.0
H1286 H 0.50898 0.4606 0.62977 0.0
H1287 H 0.55659 0.44753 0.64126 0.0
H1288 H 0.55463 0.34637 0.61077 0.0
H1289 H 0.57864 0.33675 0.59339 0.0
H1290 H 0.5445 0.35203 0.58828 0.0
H1291 H 0.56915 0.39221 0.57041 0.0
H1292 H 0.60342 0.37706 0.57551 0.0
H1293 H 0.59608 0.41399 0.58068 0.0
H1294 H 0.60369 0.42426 0.64934 0.0
H1295 H 0.64705 0.39458 0.65259 0.0
H1296 H 0.62798 0.35246 0.6034 0.0
C1297 C 0.52781 0.41119 0.59875 0.0
C1298 C 0.51092 0.43152 0.60759 0.0
C1299 C 0.52167 0.44498 0.62281 0.0
C1300 C 0.54864 0.4377 0.6294 0.0
C1301 C 0.56468 0.41733 0.62042 0.0
C1302 C 0.55473 0.40453 0.60531 0.0
C1303 C 0.57573 0.38295 0.59822 0.0
C1304 C 0.56259 0.35274 0.59764 0.0
C1305 C 0.58675 0.39211 0.58014 0.0
C1306 C 0.59882 0.38501 0.61193 0.0
C1307 C 0.59212 0.40492 0.62466 0.0
C1308 C 0.60938 0.40899 0.6393 0.0
C1309 C 0.63391 0.39205 0.64104 0.0
C1310 C 0.64102 0.37154 0.62814 0.0
C1311 C 0.62343 0.3684 0.61329 0.0
H1312 H 0.21423 0.24333 0.20234 0.0
H1313 H 0.30002 0.27351 0.21249 0.0
H1314 H 0.29605 0.25711 0.24315 0.0
H1315 H 0.1846 0.2627 0.2445 0.0
H1316 H 0.16216 0.23142 0.24553 0.0
H1317 H 0.17159 0.2465 0.22463 0.0
H1318 H 0.1916 0.19731 0.21489 0.0
H1319 H 0.18243 0.18214 0.23579 0.0
H1320 H 0.21853 0.18005 0.22799 0.0
H1321 H 0.28315 0.23574 0.27248 0.0
H1322 H 0.26177 0.21277 0.29843 0.0
H1323 H 0.18444 0.19675 0.26885 0.0
C1324 C 0.23211 0.24676 0.21103 0.0
C1325 C 0.25743 0.25976 0.20503 0.0
C1326 C 0.28038 0.26369 0.21682 0.0
C1327 C 0.27834 0.2544 0.23424 0.0
C1328 C 0.2532 0.24129 0.23966 0.0
C1329 C 0.23044 0.23764 0.22843 0.0
C1330 C 0.20594 0.22258 0.2374 0.0
C1331 C 0.17952 0.24197 0.23806 0.0
C1332 C 0.19925 0.19382 0.22849 0.0
C1333 C 0.21852 0.21816 0.25543 0.0
C1334 C 0.24579 0.22908 0.25649 0.0
C1335 C 0.26177 0.22722 0.27181 0.0
C1336 C 0.24944 0.21405 0.28648 0.0
C1337 C 0.2214 0.20293 0.28573 0.0
C1338 C 0.2059 0.20501 0.26991 0.0
H1339 H 0.00024 0.97545 0.51832 0.0
H1340 H -0.00317 0.88303 0.51184 0.0
H1341 H 0.97305 0.88915 0.48349 0.0
H1342 H 0.93143 -0.00887 0.49681 0.0
H1343 H 0.9446 0.02314 0.4864 0.0
H1344 H 0.95912 0.01187 0.50712 0.0
H1345 H 0.00981 0.0119 0.49386 0.0
H1346 H -0.00453 0.02328 0.47316 0.0
H1347 H 0.01673 -0.00878 0.47442 0.0
H1348 H 0.95358 0.90444 0.45507 0.0
H1349 H 0.94041 0.92859 0.42753 0.0
H1350 H 0.95527 0.01124 0.45186 0.0
C1351 C -0.00587 0.95654 0.51103 0.0
C1352 C 0.00044 0.92878 0.51735 0.0
C1353 C -0.00761 0.90456 0.5073 0.0
C1354 C 0.97866 0.90776 0.4912 0.0
C1355 C 0.973 0.93531 0.48526 0.0
C1356 C 0.98042 0.95934 0.4948 0.0
C1357 C 0.97346 -0.01352 0.48474 0.0
C1358 C 0.9508 0.0042 0.49434 0.0
C1359 C 0.00048 0.00425 0.48134 0.0
C1360 C 0.9617 0.97383 0.46795 0.0
C1361 C 0.96137 0.94427 0.46866 0.0
C1362 C 0.95331 0.92759 0.45439 0.0
C1363 C 0.94591 0.94148 0.43882 0.0
C1364 C 0.94656 0.97172 0.43765 0.0
C1365 C 0.95399 -0.0119 0.45252 0.0
H1366 H 0.20558 0.7179 0.70808 0.0
H1367 H 0.28728 0.71066 0.68203 0.0
H1368 H 0.31079 0.73248 0.70753 0.0
H1369 H 0.21761 0.78547 0.7269 0.0
H1370 H 0.19997 0.77805 0.74733 0.0
H1371 H 0.18934 0.7594 0.72778 0.0
H1372 H 0.19824 0.71061 0.74297 0.0
H1373 H 0.20852 0.7291 0.76268 0.0
H1374 H 0.23237 0.70354 0.75285 0.0
H1375 H 0.32502 0.75863 0.73421 0.0
H1376 H 0.3302 0.78426 0.76205 0.0
H1377 H 0.23961 0.77453 0.77173 0.0
C1378 C 0.22849 0.72031 0.70793 0.0
C1379 C 0.24462 0.71249 0.69307 0.0
C1380 C 0.27449 0.71642 0.69326 0.0
C1381 C 0.28806 0.72884 0.70768 0.0
C1382 C 0.2715 0.73712 0.72187 0.0
C1383 C 0.24245 0.73273 0.72228 0.0
C1384 C 0.22968 0.74462 0.739 0.0
C1385 C 0.20786 0.76829 0.735 0.0
C1386 C 0.21642 0.72053 0.75003 0.0
C1387 C 0.25607 0.75676 0.74773 0.0
C1388 C 0.27988 0.75215 0.73755 0.0
C1389 C 0.30661 0.76211 0.74241 0.0
C1390 C 0.30926 0.77683 0.75825 0.0
C1391 C 0.28533 0.78144 0.76917 0.0
C1392 C 0.25833 0.77131 0.76374 0.0
H1393 H 0.44131 0.04352 0.01355 0.0
H1394 H 0.462 0.96815 0.0444 0.0
H1395 H 0.48768 0.94776 0.01921 0.0
H1396 H 0.42913 0.0063 0.97315 0.0
H1397 H 0.44438 0.03421 0.95982 0.0
H1398 H 0.42805 0.04301 0.98041 0.0
H1399 H 0.47467 0.06778 -0.00957 0.0
H1400 H 0.49122 0.05884 0.96991 0.0
H1401 H 0.50754 0.0479 -0.00981 0.0
H1402 H 0.51133 0.93561 -0.00929 0.0
H1403 H 0.52864 0.93128 0.96034 0.0
H1404 H 0.49206 0.01429 0.94806 0.0
C1405 C 0.4512 0.02271 0.01503 0.0
C1406 C 0.44964 0.00748 0.03099 0.0
C1407 C 0.46282 0.98024 0.03232 0.0
C1408 C 0.47758 0.96851 0.0181 0.0
C1409 C 0.4789 0.98421 0.00263 0.0
C1410 C 0.46591 0.01062 0.00096 0.0
C1411 C 0.46996 0.02279 0.98277 0.0
C1412 C 0.44117 0.0268 0.97349 0.0
C1413 C 0.48686 0.051 0.98337 0.0
C1414 C 0.48717 -0.00095 0.97445 0.0
C1415 C 0.49228 0.97708 0.98616 0.0
C1416 C 0.50748 0.95268 0.98142 0.0
C1417 C 0.51729 0.95046 0.96416 0.0
C1418 C 0.51175 0.97245 0.95184 0.0
C1419 C 0.49675 -0.00283 0.95718 0.0
H1420 H 0.27037 0.7131 0.26277 0.0
H1421 H 0.18918 0.6903 0.28593 0.0
H1422 H 0.16464 0.70476 0.25891 0.0
H1423 H 0.2467 0.77543 0.24202 0.0
H1424 H 0.26762 0.77145 0.22244 0.0
H1425 H 0.27979 0.75595 0.24267 0.0
H1426 H 0.28284 0.70606 0.228 0.0
H1427 H 0.27093 0.72147 0.20764 0.0
H1428 H 0.25203 0.69162 0.21705 0.0
H1429 H 0.14827 0.72593 0.23144 0.0
H1430 H 0.14049 0.75125 0.20373 0.0
H1431 H 0.2318 0.76089 0.19719 0.0
C1432 C 0.24753 0.71049 0.26193 0.0
C1433 C 0.23165 0.70047 0.2764 0.0
C1434 C 0.20173 0.69792 0.275 0.0
C1435 C 0.18759 0.706 0.25969 0.0
C1436 C 0.20366 0.71657 0.24586 0.0
C1437 C 0.23295 0.71867 0.24668 0.0
C1438 C 0.24467 0.73264 0.23024 0.0
C1439 C 0.26063 0.76052 0.23461 0.0
C1440 C 0.26375 0.71169 0.22013 0.0
C1441 C 0.21729 0.73867 0.22034 0.0
C1442 C 0.19401 0.72898 0.22964 0.0
C1443 C 0.1663 0.73331 0.22389 0.0
C1444 C 0.16213 0.74793 0.20817 0.0
C1445 C 0.18553 0.75809 0.19827 0.0
C1446 C 0.21353 0.75314 0.20439 0.0
H1447 H 0.45595 0.97401 0.45667 0.0
H1448 H 0.44698 0.88279 0.46678 0.0
H1449 H 0.4696 0.88898 0.49548 0.0
H1450 H 0.52437 0.98276 0.47786 0.0
H1451 H 0.51595 0.01727 0.48705 0.0
H1452 H 0.49947 0.00603 0.46689 0.0
H1453 H 0.44958 0.01417 0.48035 0.0
H1454 H 0.46591 0.02571 0.50046 0.0
H1455 H 0.44052 -0.00324 0.50065 0.0
H1456 H 0.49261 0.90433 0.52301 0.0
H1457 H 0.51186 0.92889 0.54894 0.0
H1458 H 0.50616 0.01041 0.52174 0.0
C1459 C 0.45871 0.95536 0.46493 0.0
C1460 C 0.44967 0.9279 0.45937 0.0
C1461 C 0.45364 0.90408 0.47065 0.0
C1462 C 0.46662 0.90731 0.487 0.0
C1463 C 0.47553 0.9345 0.49198 0.0
C1464 C 0.47159 0.9582 0.48141 0.0
C1465 C 0.48245 0.98513 0.49031 0.0
C1466 C 0.50702 -0.00142 0.4799 0.0
C1467 C 0.45816 0.00671 0.49311 0.0
C1468 C 0.49285 0.9728 0.50754 0.0
C1469 C 0.48882 0.9435 0.50811 0.0
C1470 C 0.49597 0.92726 0.52274 0.0
C1471 C 0.50694 0.94142 0.5374 0.0
C1472 C 0.51062 0.97153 0.53736 0.0
C1473 C 0.50392 -0.01267 0.52209 0.0
H1474 H 0.24987 0.24815 0.77456 0.0
H1475 H 0.16634 0.28375 0.76395 0.0
H1476 H 0.16813 0.26393 0.73394 0.0
H1477 H 0.27972 0.2609 0.73182 0.0
H1478 H 0.29973 0.22797 0.73193 0.0
H1479 H 0.29181 0.24576 0.75222 0.0
H1480 H 0.26835 0.19923 0.76388 0.0
H1481 H 0.27594 0.18139 0.74355 0.0
H1482 H 0.23995 0.18283 0.75158 0.0
H1483 H 0.17909 0.23885 0.70508 0.0
H1484 H 0.19911 0.21269 0.67976 0.0
H1485 H 0.27489 0.19367 0.71016 0.0
C1486 C 0.23202 0.25203 0.76591 0.0
C1487 C 0.20799 0.26755 0.77157 0.0
C1488 C 0.18503 0.272 0.75985 0.0
C1489 C 0.18582 0.26075 0.74281 0.0
C1490 C 0.20971 0.24515 0.73775 0.0
C1491 C 0.23243 0.24096 0.74896 0.0
C1492 C 0.25553 0.22328 0.74052 0.0
C1493 C 0.28333 0.24051 0.73903 0.0
C1494 C 0.2602 0.19501 0.75048 0.0
C1495 C 0.2423 0.2181 0.72279 0.0
C1496 C 0.21587 0.23079 0.72137 0.0
C1497 C 0.1998 0.22885 0.70606 0.0
C1498 C 0.21129 0.21388 0.69177 0.0
C1499 C 0.23856 0.20109 0.69294 0.0
C1500 C 0.25398 0.20312 0.70877 0.0
H1501 H 0.01634 0.04448 0.96573 0.0
H1502 H -0.00158 0.97056 0.93306 0.0
H1503 H 0.97212 0.94823 0.95753 0.0
H1504 H 0.02759 0.00572 0.00557 0.0
H1505 H 0.0113 0.03281 0.01902 0.0
H1506 H 0.02832 0.04273 -0.00116 0.0
H1507 H 0.98169 0.06707 -0.01154 0.0
H1508 H 0.96441 0.05691 0.00854 0.0
H1509 H 0.94919 0.04657 -0.01216 0.0
H1510 H 0.94765 0.93414 0.98576 0.0
H1511 H 0.92994 0.92798 0.01595 0.0
H1512 H 0.96407 0.01137 0.02976 0.0
C1513 C 0.00698 0.02355 0.96367 0.0
C1514 C 0.00945 0.00929 0.94743 0.0
C1515 C -0.0031 0.98189 0.94537 0.0
C1516 C 0.98179 0.9691 0.95917 0.0
C1517 C 0.97947 0.98398 0.97491 0.0
C1518 C -0.00808 0.01052 0.97724 0.0
C1519 C -0.01311 0.02185 -0.00448 0.0
C1520 C 0.01521 0.02601 0.00531 0.0
C1521 C 0.96951 0.04975 -0.00495 0.0
C1522 C 0.96977 -0.00253 0.00319 0.0
C1523 C 0.96553 0.9759 -0.00891 0.0
C1524 C 0.9508 0.95094 -0.00468 0.0
C1525 C 0.94072 0.94768 0.01249 0.0
C1526 C 0.94552 0.96923 0.0252 0.0
C1527 C 0.95984 -0.00539 0.02033 0.0
H1528 H 0.71005 0.74499 0.7026 0.0
H1529 H 0.79582 0.77551 0.71249 0.0
H1530 H 0.79315 0.7567 0.74268 0.0
H1531 H 0.68176 0.76123 0.7453 0.0
H1532 H 0.65956 0.72975 0.7459 0.0
H1533 H 0.66832 0.74606 0.72525 0.0
H1534 H 0.68837 0.69756 0.7143 0.0
H1535 H 0.67994 0.68118 0.73499 0.0
H1536 H 0.71581 0.67981 0.72674 0.0
H1537 H 0.78128 0.73356 0.77167 0.0
H1538 H 0.76022 0.71034 0.79766 0.0
H1539 H 0.68233 0.69511 0.76847 0.0
C1540 C 0.72822 0.74793 0.71114 0.0
C1541 C 0.75314 0.76176 0.7052 0.0
C1542 C 0.77647 0.76506 0.71678 0.0
C1543 C 0.77519 0.75436 0.73392 0.0
C1544 C 0.75044 0.74046 0.73927 0.0
C1545 C 0.72731 0.73741 0.72825 0.0
C1546 C 0.70318 0.7217 0.73715 0.0
C1547 C 0.67664 0.74083 0.73848 0.0
C1548 C 0.69644 0.69338 0.72773 0.0
C1549 C 0.71632 0.71638 0.75493 0.0
C1550 C 0.74362 0.72725 0.75589 0.0
C1551 C 0.7599 0.72499 0.77108 0.0
C1552 C 0.74778 0.71168 0.78575 0.0
C1553 C 0.71961 0.70086 0.78514 0.0
C1554 C 0.70392 0.70305 0.76941 0.0
H1555 H 0.75747 0.22424 0.19336 0.0
H1556 H 0.67254 0.19452 0.2063 0.0
H1557 H 0.67856 0.21273 0.23642 0.0
H1558 H 0.78995 0.20721 0.23513 0.0
H1559 H 0.81243 0.2385 0.23495 0.0
H1560 H 0.80156 0.22232 0.21464 0.0
H1561 H 0.78089 0.27098 0.20436 0.0
H1562 H 0.79148 0.28726 0.22469 0.0
H1563 H 0.75488 0.28897 0.21773 0.0
H1564 H 0.69341 0.23573 0.2649 0.0
H1565 H 0.7167 0.25985 0.28986 0.0
H1566 H 0.79183 0.27422 0.25804 0.0
C1567 C 0.7402 0.22133 0.20256 0.0
C1568 C 0.71454 0.20793 0.19749 0.0
C1569 C 0.69243 0.20465 0.20991 0.0
C1570 C 0.69562 0.21498 0.22703 0.0
C1571 C 0.72106 0.22844 0.23152 0.0
C1572 C 0.74303 0.23145 0.21967 0.0
C1573 C 0.76812 0.24695 0.22771 0.0
C1574 C 0.79457 0.22758 0.22813 0.0
C1575 C 0.77418 0.27522 0.21804 0.0
C1576 C 0.75678 0.25234 0.24591 0.0
C1577 C 0.72961 0.24154 0.24787 0.0
C1578 C 0.71473 0.24419 0.26354 0.0
C1579 C 0.72812 0.25799 0.27763 0.0
C1580 C 0.75611 0.26895 0.27595 0.0
C1581 C 0.77044 0.26611 0.2598 0.0
H1582 H 0.69973 0.22101 0.77863 0.0
H1583 H 0.78297 0.18528 0.76754 0.0
H1584 H 0.77849 0.2007 0.73673 0.0
H1585 H 0.66692 0.20322 0.7362 0.0
H1586 H 0.6468 0.23607 0.73567 0.0
H1587 H 0.65563 0.21973 0.75633 0.0
H1588 H 0.67927 0.26713 0.76638 0.0
H1589 H 0.67085 0.2835 0.7457 0.0
H1590 H 0.70716 0.2827 0.75329 0.0
H1591 H 0.76654 0.22393 0.7077 0.0
H1592 H 0.7468 0.25053 0.68245 0.0
H1593 H 0.67153 0.27069 0.71289 0.0
C1594 C 0.71677 0.21587 0.76965 0.0
C1595 C 0.74165 0.20184 0.77547 0.0
C1596 C 0.76363 0.19586 0.76335 0.0
C1597 C 0.76131 0.20459 0.74583 0.0
C1598 C 0.73682 0.21911 0.74064 0.0
C1599 C 0.71481 0.22441 0.75216 0.0
C1600 C 0.69129 0.24147 0.74354 0.0
C1601 C 0.66352 0.22408 0.7429 0.0
C1602 C 0.68691 0.27041 0.75278 0.0
C1603 C 0.70374 0.24544 0.72547 0.0
C1604 C 0.72996 0.23234 0.724 0.0
C1605 C 0.74588 0.23402 0.70865 0.0
C1606 C 0.73456 0.24928 0.69441 0.0
C1607 C 0.70759 0.26267 0.69564 0.0
C1608 C 0.69213 0.26061 0.71144 0.0
H1609 H 0.75423 0.74738 0.2753 0.0
H1610 H 0.66893 0.77834 0.26455 0.0
H1611 H 0.67232 0.75955 0.23436 0.0
H1612 H 0.78391 0.7629 0.23268 0.0
H1613 H 0.80573 0.73116 0.23261 0.0
H1614 H 0.79665 0.74807 0.25301 0.0
H1615 H 0.77571 0.7001 0.26428 0.0
H1616 H 0.78451 0.6831 0.24387 0.0
H1617 H 0.7484 0.68233 0.25175 0.0
H1618 H 0.68489 0.73561 0.20545 0.0
H1619 H 0.70607 0.71016 0.18024 0.0
H1620 H 0.78276 0.69517 0.21063 0.0
C1621 C 0.73632 0.75048 0.26658 0.0
C1622 C 0.71134 0.76438 0.27226 0.0
C1623 C 0.68834 0.76784 0.26045 0.0
C1624 C 0.69004 0.75719 0.24329 0.0
C1625 C 0.71489 0.74321 0.2382 0.0
C1626 C 0.73765 0.74001 0.2495 0.0
C1627 C 0.7618 0.72382 0.24102 0.0
C1628 C 0.7886 0.74262 0.23975 0.0
C1629 C 0.76795 0.69567 0.25081 0.0
C1630 C 0.74906 0.71822 0.22319 0.0
C1631 C 0.72202 0.72953 0.22175 0.0
C1632 C 0.70609 0.72674 0.20643 0.0
C1633 C 0.71827 0.7122 0.1922 0.0
C1634 C 0.74609 0.70064 0.19342 0.0
C1635 C 0.76147 0.70371 0.2092 0.0
H1636 H 0.50331 0.48002 0.01698 0.0
H1637 H 0.495 0.38815 0.0093 0.0
H1638 H 0.46764 0.39652 0.98248 0.0
H1639 H 0.4326 0.49962 -0.00056 0.0
H1640 H 0.44558 0.53142 -0.0113 0.0
H1641 H 0.46259 0.51876 0.00839 0.0
H1642 H 0.51106 0.51705 -0.00765 0.0
H1643 H 0.49425 0.52989 0.97269 0.0
H1644 H 0.51414 0.49689 0.97234 0.0
H1645 H 0.44464 0.41363 0.95564 0.0
H1646 H 0.42884 0.43922 0.92916 0.0
H1647 H 0.45079 0.52033 0.95338 0.0
C1648 C 0.49543 0.46173 0.00974 0.0
C1649 C 0.50138 0.43343 0.0153 0.0
C1650 C 0.49095 0.41005 0.00533 0.0
C1651 C 0.47514 0.41453 -0.0099 0.0
C1652 C 0.4698 0.44254 0.98491 0.0
C1653 C 0.47964 0.46581 -0.00568 0.0
C1654 C 0.47242 0.49362 0.985 0.0
C1655 C 0.45208 0.51193 -0.00396 0.0
C1656 C 0.49959 0.51034 0.98031 0.0
C1657 C 0.45766 0.48216 0.96876 0.0
C1658 C 0.45614 0.45261 0.96916 0.0
C1659 C 0.4453 0.4368 0.95524 0.0
C1660 C 0.43639 0.4515 0.94026 0.0
C1661 C 0.4383 0.4817 0.93934 0.0
C1662 C 0.44846 0.49727 0.95393 0.0
H1663 H 0.01042 0.45722 0.4612 0.0
H1664 H 0.03235 0.54031 0.43951 0.0
H1665 H 0.0153 0.5637 0.46637 0.0
H1666 H 0.94643 0.47846 0.48024 0.0
H1667 H 0.9495 0.45681 0.49968 0.0
H1668 H 0.96679 0.44575 0.47982 0.0
H1669 H 0.01522 0.4436 0.49594 0.0
H1670 H -0.00197 0.45438 0.51594 0.0
H1671 H 0.02777 0.47463 0.50766 0.0
H1672 H -0.00823 0.57856 0.49348 0.0
H1673 H 0.96452 0.58461 0.52051 0.0
H1674 H 0.95705 0.49218 0.52567 0.0
C1675 C 0.01233 0.48026 0.46234 0.0
C1676 C 0.0229 0.49698 0.44833 0.0
C1677 C 0.02443 0.52711 0.4501 0.0
C1678 C 0.01483 0.54059 0.46531 0.0
C1679 C 0.00378 0.52364 0.47866 0.0
C1680 C 0.00264 0.49414 0.47747 0.0
C1681 C -0.01212 0.48133 0.49333 0.0
C1682 C 0.96106 0.46461 0.48794 0.0
C1683 C 0.00846 0.46236 0.50384 0.0
C1684 C 0.98031 0.50833 0.50335 0.0
C1685 C -0.01007 0.53238 0.49461 0.0
C1686 C -0.01557 0.55991 0.50058 0.0
C1687 C 0.9687 0.56308 0.51593 0.0
C1688 C 0.95856 0.53886 0.52527 0.0
C1689 C 0.9647 0.51107 0.51893 0.0
H1690 H 0.00749 0.50635 0.02234 0.0
H1691 H 0.02155 0.42241 0.04526 0.0
H1692 H 0.00562 0.39969 0.01787 0.0
H1693 H 0.94417 0.48903 0.00087 0.0
H1694 H 0.9507 0.51018 0.98155 0.0
H1695 H 0.96654 0.52034 0.00207 0.0
H1696 H 0.01662 0.5191 -0.01198 0.0
H1697 H 0.0009 0.50921 0.96737 0.0
H1698 H 0.0283 0.48716 0.97692 0.0
H1699 H -0.01582 0.38597 -0.01033 0.0
H1700 H 0.95983 0.38149 0.96142 0.0
H1701 H 0.9589 0.4742 0.95604 0.0
C1702 C 0.0079 0.48321 0.02141 0.0
C1703 C 0.01594 0.4661 0.03588 0.0
C1704 C 0.01558 0.4359 0.03432 0.0
C1705 C 0.00659 0.4228 0.01882 0.0
C1706 C -0.00194 0.4402 0.00498 0.0
C1707 C -0.00121 0.46973 0.00601 0.0
C1708 C -0.01337 0.48329 -0.01045 0.0
C1709 C 0.96046 0.50179 -0.00623 0.0
C1710 C 0.00948 0.50072 0.97989 0.0
C1711 C 0.97839 0.45671 0.97932 0.0
C1712 C -0.0146 0.43217 -0.01151 0.0
C1713 C 0.97887 0.405 0.98226 0.0
C1714 C 0.96484 0.40274 0.9662 0.0
C1715 C 0.9574 0.42751 0.95645 0.0
C1716 C 0.96447 0.45487 0.9631 0.0
H1717 H 0.51713 0.54699 0.46959 0.0
H1718 H 0.5051 0.4711 0.43758 0.0
H1719 H 0.48072 0.44726 0.46219 0.0
H1720 H 0.53177 0.51008 0.50956 0.0
H1721 H 0.51333 0.53575 0.523 0.0
H1722 H 0.52921 0.54695 0.50271 0.0
H1723 H 0.48056 0.56694 0.49236 0.0
H1724 H 0.4645 0.55568 0.5126 0.0
H1725 H 0.44993 0.5437 0.49205 0.0
H1726 H 0.45791 0.43158 0.49046 0.0
H1727 H 0.44006 0.4247 0.52057 0.0
H1728 H 0.46742 0.51081 0.53389 0.0
C1729 C 0.50935 0.52537 0.4677 0.0
C1730 C 0.51302 0.51095 0.45162 0.0
C1731 C 0.50258 0.48261 0.44977 0.0
C1732 C 0.48862 0.4689 0.46366 0.0
C1733 C 0.4853 0.4838 0.4793 0.0
C1734 C 0.49546 0.51137 0.48141 0.0
C1735 C 0.48971 0.52247 0.49965 0.0
C1736 C 0.51767 0.5292 0.5093 0.0
C1737 C 0.47 0.54875 0.49913 0.0
C1738 C 0.47485 0.49678 0.50752 0.0
C1739 C 0.47236 0.47474 0.49556 0.0
C1740 C 0.45968 0.44872 0.49993 0.0
C1741 C 0.44957 0.44503 0.51704 0.0
C1742 C 0.45231 0.46722 0.52956 0.0
C1743 C 0.46492 0.49347 0.52461 0.0
H1744 H 0.28573 0.1267 0.3866 0.0
H1745 H 0.32116 0.14749 0.33591 0.0
H1746 H 0.36401 0.11895 0.34289 0.0
H1747 H 0.35477 0.12052 0.41181 0.0
H1748 H 0.34182 0.08999 0.42385 0.0
H1749 H 0.31741 0.11745 0.41676 0.0
H1750 H 0.28699 0.07908 0.40093 0.0
H1751 H 0.31127 0.05162 0.40788 0.0
H1752 H 0.30353 0.05614 0.38495 0.0
H1753 H 0.39948 0.0833 0.35351 0.0
H1754 H 0.4229 0.04045 0.36568 0.0
H1755 H 0.36289 0.03998 0.40875 0.0
C1756 C 0.30311 0.12619 0.37733 0.0
C1757 C 0.30063 0.1398 0.36091 0.0
C1758 C 0.32302 0.13757 0.34867 0.0
C1759 C 0.34744 0.12151 0.35256 0.0
C1760 C 0.34892 0.10753 0.36867 0.0
C1761 C 0.32729 0.10961 0.38085 0.0
C1762 C 0.33191 0.08893 0.39589 0.0
C1763 C 0.33677 0.1052 0.4131 0.0
C1764 C 0.30695 0.06769 0.39749 0.0
C1765 C 0.35887 0.0741 0.38993 0.0
C1766 C 0.36876 0.08572 0.37445 0.0
C1767 C 0.39219 0.07431 0.36576 0.0
C1768 C 0.40536 0.04993 0.37279 0.0
C1769 C 0.39478 0.03688 0.38819 0.0
C1770 C 0.3717 0.04966 0.39707 0.0
H1771 H 0.07264 0.03218 0.61063 0.0
H1772 H 0.0724 0.04943 0.55492 0.0
H1773 H 0.10183 0.09258 0.55988 0.0
H1774 H 0.07575 0.10874 0.62626 0.0
H1775 H 0.09982 0.09935 0.64371 0.0
H1776 H 0.07366 0.07383 0.63628 0.0
H1777 H 0.11366 0.03678 0.63071 0.0
H1778 H 0.13987 0.06214 0.63798 0.0
H1779 H 0.14289 0.04622 0.6166 0.0
H1780 H 0.1366 0.12958 0.57035 0.0
H1781 H 0.17544 0.15579 0.58513 0.0
H1782 H 0.15472 0.11293 0.63385 0.0
C1783 C 0.07782 0.0457 0.59956 0.0
C1784 C 0.06986 0.03781 0.58242 0.0
C1785 C 0.07802 0.05534 0.56818 0.0
C1786 C 0.09465 0.07993 0.57089 0.0
C1787 C 0.10304 0.08659 0.58791 0.0
C1788 C 0.09485 0.06998 0.60203 0.0
C1789 C 0.10987 0.07929 0.61862 0.0
C1790 C 0.08849 0.091 0.63201 0.0
C1791 C 0.12762 0.05464 0.62642 0.0
C1792 C 0.12865 0.10293 0.61152 0.0
C1793 C 0.12392 0.10731 0.59387 0.0
C1794 C 0.14016 0.12667 0.58422 0.0
C1795 C 0.1622 0.14146 0.59273 0.0
C1796 C 0.16807 0.13647 0.61065 0.0
C1797 C 0.15058 0.11744 0.62018 0.0
H1798 H 0.18113 0.84614 0.86315 0.0
H1799 H 0.16575 0.85051 0.80732 0.0
H1800 H 0.12316 0.88037 0.81258 0.0
H1801 H 0.10496 0.84923 0.87809 0.0
H1802 H 0.11406 0.87211 0.89623 0.0
H1803 H 0.13934 0.84611 0.88839 0.0
H1804 H 0.17663 0.88641 0.8842 0.0
H1805 H 0.15151 0.91249 0.89189 0.0
H1806 H 0.16789 0.91693 0.87076 0.0
H1807 H 0.08609 0.91446 0.82361 0.0
H1808 H 0.05953 0.95227 0.83915 0.0
H1809 H 0.10101 0.92806 0.88769 0.0
C1810 C 0.16811 0.85244 0.8521 0.0
C1811 C 0.17629 0.84555 0.83484 0.0
C1812 C 0.15953 0.85523 0.82064 0.0
C1813 C 0.13529 0.87212 0.82352 0.0
C1814 C 0.12827 0.87935 0.84068 0.0
C1815 C 0.14424 0.86983 0.85474 0.0
C1816 C 0.1347 0.88385 0.87162 0.0
C1817 C 0.12253 0.86149 0.88433 0.0
C1818 C 0.15913 0.90093 0.8801 0.0
C1819 C 0.11158 0.90349 0.86478 0.0
C1820 C 0.1077 0.90006 0.84698 0.0
C1821 C 0.08866 0.91705 0.83759 0.0
C1822 C 0.07366 0.93849 0.84653 0.0
C1823 C 0.07814 0.94309 0.86464 0.0
C1824 C 0.09693 0.92491 0.87388 0.0
H1825 H 0.29246 0.84802 0.14795 0.0
H1826 H 0.28542 0.79841 0.10018 0.0
H1827 H 0.32653 0.82439 0.08793 0.0
H1828 H 0.30479 0.91199 0.12892 0.0
H1829 H 0.33004 0.9254 0.14468 0.0
H1830 H 0.30424 0.89909 0.15115 0.0
H1831 H 0.34451 0.86554 0.16192 0.0
H1832 H 0.37056 0.89194 0.15559 0.0
H1833 H 0.37288 0.85593 0.14723 0.0
H1834 H 0.36096 0.86201 0.07868 0.0
H1835 H 0.38831 0.90654 0.07387 0.0
H1836 H 0.37509 0.93057 0.12797 0.0
C1837 C 0.30021 0.84189 0.13516 0.0
C1838 C 0.28577 0.82111 0.12504 0.0
C1839 C 0.29624 0.81409 0.10823 0.0
C1840 C 0.31963 0.82873 0.10116 0.0
C1841 C 0.33262 0.84998 0.11119 0.0
C1842 C 0.32361 0.85621 0.12796 0.0
C1843 C 0.33922 0.88197 0.1353 0.0
C1844 C 0.31832 0.90602 0.14029 0.0
C1845 C 0.35791 0.87332 0.15094 0.0
C1846 C 0.35723 0.89026 0.11968 0.0
C1847 C 0.35337 0.87131 0.10597 0.0
C1848 C 0.36488 0.87648 0.08947 0.0
C1849 C 0.38028 0.90184 0.08683 0.0
C1850 C 0.38422 0.9216 0.10065 0.0
C1851 C 0.37318 0.91532 0.11737 0.0
H1852 H 0.67834 0.85295 0.6038 0.0
H1853 H 0.68542 0.84598 0.6603 0.0
H1854 H 0.64858 0.88309 0.66365 0.0
H1855 H 0.66954 0.92865 0.60231 0.0
H1856 H 0.64425 0.92818 0.58457 0.0
H1857 H 0.67029 0.90007 0.58647 0.0
H1858 H 0.63013 0.86204 0.58652 0.0
H1859 H 0.60395 0.89003 0.58455 0.0
H1860 H 0.60182 0.86471 0.60231 0.0
H1861 H 0.61232 0.92187 0.66103 0.0
H1862 H 0.57836 0.95959 0.65262 0.0
H1863 H 0.59462 0.9418 0.59777 0.0
C1864 C 0.67198 0.85902 0.61688 0.0
C1865 C 0.6848 0.84646 0.63179 0.0
C1866 C 0.67596 0.85523 0.64867 0.0
C1867 C 0.65502 0.8763 0.65073 0.0
C1868 C 0.64307 0.88842 0.63578 0.0
C1869 C 0.65112 0.88009 0.61918 0.0
C1870 C 0.63532 0.89706 0.60531 0.0
C1871 C 0.65609 0.91453 0.59401 0.0
C1872 C 0.6167 0.87727 0.59401 0.0
C1873 C 0.61732 0.91638 0.61673 0.0
C1874 C 0.62209 0.91095 0.63426 0.0
C1875 C 0.6083 0.92626 0.64735 0.0
C1876 C 0.58905 0.9477 0.64241 0.0
C1877 C 0.58374 0.95373 0.62452 0.0
C1878 C 0.59812 0.93773 0.61155 0.0
H1879 H 0.87762 0.93936 0.37553 0.0
H1880 H 0.89558 0.95348 0.32049 0.0
H1881 H 0.85982 0.91685 0.31266 0.0
H1882 H 0.8666 0.86249 0.37261 0.0
H1883 H 0.8383 0.86252 0.38849 0.0
H1884 H 0.86609 0.88903 0.38972 0.0
H1885 H 0.8283 0.92941 0.38887 0.0
H1886 H 0.80042 0.90305 0.38759 0.0
H1887 H 0.80304 0.93055 0.37111 0.0
H1888 H 0.82065 0.8801 0.31084 0.0
H1889 H 0.78153 0.84555 0.31513 0.0
H1890 H 0.78959 0.85537 0.37141 0.0
C1891 C 0.87424 0.93466 0.36182 0.0
C1892 C 0.88947 0.94933 0.34862 0.0
C1893 C 0.88424 0.94252 0.33084 0.0
C1894 C 0.86397 0.92174 0.32626 0.0
C1895 C 0.84919 0.90789 0.33961 0.0
C1896 C 0.85416 0.91399 0.35702 0.0
C1897 C 0.835 0.89652 0.36884 0.0
C1898 C 0.85255 0.87645 0.38061 0.0
C1899 C 0.81554 0.91605 0.37974 0.0
C1900 C 0.81823 0.87984 0.35534 0.0
C1901 C 0.82677 0.88665 0.33856 0.0
C1902 C 0.8139 0.87448 0.32393 0.0
C1903 C 0.79164 0.8549 0.32651 0.0
C1904 C 0.78247 0.84765 0.34361 0.0
C1905 C 0.79615 0.86028 0.35817 0.0
H1906 H 0.77718 0.11251 0.09477 0.0
H1907 H 0.7814 0.1297 0.15056 0.0
H1908 H 0.82063 0.09507 0.15343 0.0
H1909 H 0.78954 0.03748 0.09783 0.0
H1910 H 0.81091 0.03539 0.07832 0.0
H1911 H 0.78412 0.06275 0.08029 0.0
H1912 H 0.82209 0.10185 0.0745 0.0
H1913 H 0.84901 0.07459 0.07248 0.0
H1914 H 0.85351 0.10326 0.08801 0.0
H1915 H 0.85775 0.05768 0.15071 0.0
H1916 H 0.89085 0.01921 0.14265 0.0
H1917 H 0.8631 0.02543 0.08853 0.0
C1918 C 0.78654 0.10921 0.10756 0.0
C1919 C 0.7762 0.12391 0.12244 0.0
C1920 C 0.78888 0.11873 0.13897 0.0
C1921 C 0.81124 0.09914 0.14074 0.0
C1922 C 0.82072 0.08486 0.12588 0.0
C1923 C 0.80887 0.0896 0.1096 0.0
C1924 C 0.82252 0.07059 0.09587 0.0
C1925 C 0.80046 0.05036 0.0876 0.0
C1926 C 0.83769 0.08866 0.08189 0.0
C1927 C 0.84368 0.05424 0.10706 0.0
C1928 C 0.8423 0.06299 0.1243 0.0
C1929 C 0.85915 0.05072 0.13724 0.0
C1930 C 0.87787 0.02879 0.1325 0.0
C1931 C 0.87965 0.01921 0.11493 0.0
C1932 C 0.86239 0.03234 0.10204 0.0
H1933 H 0.59584 0.03662 0.8466 0.0
H1934 H 0.57447 0.04668 0.9015 0.0
H1935 H 0.6077 0.08728 0.90364 0.0
H1936 H 0.66933 0.05031 0.85138 0.0
H1937 H 0.67316 0.06975 0.83114 0.0
H1938 H 0.64582 0.04297 0.83328 0.0
H1939 H 0.60758 0.08038 0.82469 0.0
H1940 H 0.63484 0.10729 0.82245 0.0
H1941 H 0.60509 0.1134 0.83681 0.0
H1942 H 0.64483 0.12431 0.90062 0.0
H1943 H 0.68414 0.15638 0.89265 0.0
H1944 H 0.68262 0.12299 0.83961 0.0
C1945 C 0.59781 0.0477 0.85898 0.0
C1946 C 0.58246 0.03852 0.87388 0.0
C1947 C 0.58599 0.05327 0.88992 0.0
C1948 C 0.60476 0.07643 0.89126 0.0
C1949 C 0.61989 0.08462 0.87645 0.0
C1950 C 0.61666 0.07084 0.8606 0.0
C1951 C 0.63674 0.08316 0.84699 0.0
C1952 C 0.65749 0.06018 0.84031 0.0
C1953 C 0.62006 0.09688 0.83184 0.0
C1954 C 0.65203 0.10567 0.8578 0.0
C1955 C 0.64174 0.10618 0.87471 0.0
C1956 C 0.65295 0.12431 0.88738 0.0
C1957 C 0.67539 0.1424 0.8827 0.0
C1958 C 0.68655 0.14228 0.86548 0.0
C1959 C 0.67447 0.12376 0.85283 0.0
H1960 H 0.80323 0.61649 0.84257 0.0
H1961 H 0.78943 0.6621 0.89123 0.0
H1962 H 0.82824 0.63446 0.90504 0.0
H1963 H 0.81339 0.5503 0.86021 0.0
H1964 H 0.84081 0.53878 0.84535 0.0
H1965 H 0.81547 0.56532 0.83851 0.0
H1966 H 0.85647 0.60034 0.83101 0.0
H1967 H 0.88206 0.57376 0.83775 0.0
H1968 H 0.88265 0.60895 0.84743 0.0
H1969 H 0.86188 0.59589 0.91488 0.0
H1970 H 0.89004 0.5517 0.91934 0.0
H1971 H 0.8842 0.53318 0.86392 0.0
C1972 C 0.80893 0.62126 0.85599 0.0
C1973 C 0.79335 0.64148 0.86582 0.0
C1974 C 0.80122 0.64687 0.8834 0.0
C1975 C 0.82325 0.63127 0.89136 0.0
C1976 C 0.83756 0.61077 0.88145 0.0
C1977 C 0.83105 0.60613 0.86404 0.0
C1978 C 0.848 0.58135 0.85667 0.0
C1979 C 0.82824 0.55755 0.84979 0.0
C1980 C 0.86852 0.59173 0.84237 0.0
C1981 C 0.86402 0.57186 0.87286 0.0
C1982 C 0.85789 0.58922 0.887 0.0
C1983 C 0.86752 0.58265 0.9038 0.0
C1984 C 0.88342 0.55751 0.90623 0.0
C1985 C 0.88974 0.53941 0.89192 0.0
C1986 C 0.88047 0.54713 0.87499 0.0
H1987 H 0.68461 0.61926 0.09195 0.0
H1988 H 0.65 0.63754 0.14323 0.0
H1989 H 0.60685 0.60976 0.13593 0.0
H1990 H 0.61518 0.61651 0.06722 0.0
H1991 H 0.62711 0.58673 0.05416 0.0
H1992 H 0.65235 0.61293 0.0619 0.0
H1993 H 0.68203 0.57252 0.07631 0.0
H1994 H 0.65691 0.5463 0.0687 0.0
H1995 H 0.66517 0.54864 0.09168 0.0
H1996 H 0.57083 0.57508 0.12478 0.0
H1997 H 0.54586 0.53413 0.11136 0.0
H1998 H 0.60462 0.53642 0.06766 0.0
C1999 C 0.66743 0.6183 0.10135 0.0
C2000 C 0.67031 0.63094 0.11803 0.0
C2001 C 0.64798 0.62826 0.13031 0.0
C2002 C 0.62337 0.61262 0.12624 0.0
C2003 C 0.6215 0.59963 0.10987 0.0
C2004 C 0.64294 0.60227 0.0976 0.0
C2005 C 0.63748 0.58302 0.08198 0.0
C2006 C 0.63274 0.60087 0.06533 0.0
C2007 C 0.66184 0.56134 0.07954 0.0
C2008 C 0.61025 0.56836 0.08769 0.0
C2009 C 0.60105 0.57874 0.10363 0.0
C2010 C 0.57755 0.5671 0.11216 0.0
C2011 C 0.56351 0.5438 0.10444 0.0
C2012 C 0.57318 0.53213 0.08842 0.0
C2013 C 0.59644 0.54512 0.07978 0.0
H2014 H 0.6772 0.36136 0.3324 0.0
H2015 H 0.68897 0.31233 0.38011 0.0
H2016 H 0.64917 0.33855 0.39375 0.0
H2017 H 0.66618 0.42597 0.35174 0.0
H2018 H 0.63955 0.4388 0.33667 0.0
H2019 H 0.66521 0.4128 0.32958 0.0
H2020 H 0.62459 0.37856 0.32016 0.0
H2021 H 0.59869 0.40461 0.32715 0.0
H2022 H 0.59756 0.36866 0.33573 0.0
H2023 H 0.6145 0.37547 0.40377 0.0
H2024 H 0.58604 0.41907 0.40904 0.0
H2025 H 0.5953 0.44314 0.35457 0.0
C2026 C 0.67086 0.35553 0.34554 0.0
C2027 C 0.68613 0.33475 0.35519 0.0
C2028 C 0.67747 0.32804 0.37244 0.0
C2029 C 0.65485 0.34279 0.38028 0.0
C2030 C 0.64086 0.36385 0.3706 0.0
C2031 C 0.64827 0.36994 0.35352 0.0
C2032 C 0.63174 0.39536 0.34653 0.0
C2033 C 0.65187 0.41966 0.34081 0.0
C2034 C 0.61197 0.38624 0.3315 0.0
C2035 C 0.6149 0.40352 0.36262 0.0
C2036 C 0.6202 0.38486 0.37631 0.0
C2037 C 0.60958 0.38978 0.39304 0.0
C2038 C 0.59354 0.41463 0.39593 0.0
C2039 C 0.58819 0.43417 0.38214 0.0
C2040 C 0.59842 0.42813 0.36521 0.0
H2041 H 0.85833 0.43194 0.57554 0.0
H2042 H 0.91375 0.43391 0.62096 0.0
H2043 H 0.88762 0.39302 0.63361 0.0
H2044 H 0.79643 0.42033 0.59757 0.0
H2045 H 0.78035 0.39657 0.58183 0.0
H2046 H 0.80636 0.42234 0.57483 0.0
H2047 H 0.83688 0.38178 0.56138 0.0
H2048 H 0.81078 0.3558 0.56824 0.0
H2049 H 0.84742 0.35181 0.57478 0.0
H2050 H 0.85063 0.3583 0.64363 0.0
H2051 H 0.80699 0.33044 0.64953 0.0
H2052 H 0.77635 0.34918 0.59726 0.0
C2053 C 0.86559 0.42316 0.58788 0.0
C2054 C 0.88822 0.43607 0.59721 0.0
C2055 C 0.89664 0.42429 0.61349 0.0
C2056 C 0.88192 0.40103 0.62079 0.0
C2057 C 0.85904 0.38948 0.61155 0.0
C2058 C 0.85116 0.39986 0.59531 0.0
C2059 C 0.82423 0.38541 0.58883 0.0
C2060 C 0.80045 0.40748 0.58558 0.0
C2061 C 0.83019 0.36764 0.57233 0.0
C2062 C 0.81746 0.36627 0.6043 0.0
C2063 C 0.83797 0.36874 0.61719 0.0
C2064 C 0.83484 0.35558 0.63345 0.0
C2065 C 0.80995 0.33988 0.63671 0.0
C2066 C 0.78859 0.33726 0.62374 0.0
C2067 C 0.79275 0.35011 0.60721 0.0
H2068 H 0.09697 0.43308 0.09749 0.0
H2069 H 0.08063 0.45004 0.15243 0.0
H2070 H 0.11603 0.41359 0.16065 0.0
H2071 H 0.10682 0.35644 0.10187 0.0
H2072 H 0.13495 0.35484 0.08591 0.0
H2073 H 0.10789 0.38201 0.0842 0.0
H2074 H 0.14672 0.42142 0.08412 0.0
H2075 H 0.1739 0.39438 0.08582 0.0
H2076 H 0.17221 0.42279 0.10174 0.0
H2077 H 0.15364 0.3762 0.16309 0.0
H2078 H 0.19138 0.34008 0.15959 0.0
H2079 H 0.18356 0.34685 0.10311 0.0
C2080 C 0.10076 0.42908 0.11125 0.0
C2081 C 0.08594 0.44449 0.1243 0.0
C2082 C 0.09164 0.43859 0.14216 0.0
C2083 C 0.11172 0.41787 0.14699 0.0
C2084 C 0.12595 0.40316 0.13382 0.0
C2085 C 0.12077 0.40843 0.11632 0.0
C2086 C 0.13936 0.38978 0.10482 0.0
C2087 C 0.12116 0.36957 0.09354 0.0
C2088 C 0.15922 0.40819 0.09346 0.0
C2089 C 0.15587 0.37335 0.11861 0.0
C2090 C 0.14772 0.38141 0.13525 0.0
C2091 C 0.16016 0.36963 0.15014 0.0
C2092 C 0.18162 0.34913 0.148 0.0
C2093 C 0.19047 0.34054 0.13108 0.0
C2094 C 0.17723 0.35281 0.11622 0.0
H2095 H 0.36993 0.44772 0.87699 0.0
H2096 H 0.39212 0.45992 0.82237 0.0
H2097 H 0.3584 0.42168 0.81408 0.0
H2098 H 0.36171 0.37027 0.87509 0.0
H2099 H 0.33208 0.37003 0.89002 0.0
H2100 H 0.35886 0.39752 0.89169 0.0
H2101 H 0.31994 0.43655 0.8889 0.0
H2102 H 0.29306 0.40922 0.8872 0.0
H2103 H 0.29623 0.43605 0.87034 0.0
H2104 H 0.32055 0.38368 0.81163 0.0
H2105 H 0.28192 0.34835 0.81523 0.0
H2106 H 0.28495 0.3607 0.8715 0.0
C2107 C 0.36791 0.44225 0.86328 0.0
C2108 C 0.38373 0.45687 0.85033 0.0
C2109 C 0.3803 0.44903 0.83254 0.0
C2110 C 0.3612 0.42732 0.8277 0.0
C2111 C 0.34578 0.41354 0.84079 0.0
C2112 C 0.34901 0.42061 0.85822 0.0
C2113 C 0.32941 0.40303 0.86971 0.0
C2114 C 0.34655 0.38409 0.88237 0.0
C2115 C 0.30842 0.42237 0.87961 0.0
C2116 C 0.31437 0.38519 0.85598 0.0
C2117 C 0.32416 0.39152 0.8394 0.0
C2118 C 0.31286 0.37841 0.82457 0.0
C2119 C 0.29087 0.35839 0.82676 0.0
C2120 C 0.28042 0.35163 0.84365 0.0
C2121 C 0.29257 0.36516 0.85842 0.0
H2122 H 0.35867 0.53351 0.63046 0.0
H2123 H 0.37118 0.52956 0.57421 0.0
H2124 H 0.33596 0.56799 0.5702 0.0
H2125 H 0.28369 0.54517 0.62912 0.0
H2126 H 0.2832 0.56964 0.64734 0.0
H2127 H 0.3103 0.54248 0.64605 0.0
H2128 H 0.34939 0.58144 0.64834 0.0
H2129 H 0.32239 0.60874 0.64969 0.0
H2130 H 0.34942 0.61087 0.63305 0.0
H2131 H 0.29858 0.60538 0.57196 0.0
H2132 H 0.26155 0.64047 0.57941 0.0
H2133 H 0.27283 0.62091 0.63457 0.0
C2134 C 0.35418 0.54088 0.61731 0.0
C2135 C 0.36776 0.52846 0.60265 0.0
C2136 C 0.36111 0.53865 0.58566 0.0
C2137 C 0.34112 0.56052 0.58322 0.0
C2138 C 0.32796 0.57206 0.5979 0.0
C2139 C 0.33421 0.56274 0.61462 0.0
C2140 C 0.3165 0.57855 0.62808 0.0
C2141 C 0.29728 0.55771 0.63824 0.0
C2142 C 0.33557 0.59593 0.64052 0.0
C2143 C 0.2992 0.59801 0.61627 0.0
C2144 C 0.30624 0.59388 0.59892 0.0
C2145 C 0.29294 0.60892 0.5855 0.0
C2146 C 0.27186 0.62879 0.58989 0.0
C2147 C 0.26421 0.63353 0.60759 0.0
C2148 C 0.2782 0.61789 0.62093 0.0
H2149 H 0.10738 0.53159 0.38732 0.0
H2150 H 0.08441 0.52021 0.33266 0.0
H2151 H 0.11831 0.55779 0.32434 0.0
H2152 H 0.11672 0.60905 0.38534 0.0
H2153 H 0.14688 0.60927 0.39992 0.0
H2154 H 0.1201 0.58185 0.40197 0.0
H2155 H 0.15878 0.54271 0.39879 0.0
H2156 H 0.18567 0.57 0.39674 0.0
H2157 H 0.18184 0.54313 0.37998 0.0
H2158 H 0.15492 0.59506 0.32147 0.0
H2159 H 0.19313 0.63063 0.32412 0.0
H2160 H 0.19354 0.6192 0.38055 0.0
C2161 C 0.10939 0.53712 0.37362 0.0
C2162 C 0.09314 0.52285 0.36066 0.0
C2163 C 0.09655 0.53068 0.34287 0.0
C2164 C 0.11575 0.55209 0.33797 0.0
C2165 C 0.13146 0.56559 0.35099 0.0
C2166 C 0.12861 0.55854 0.36845 0.0
C2167 C 0.14873 0.57621 0.37966 0.0
C2168 C 0.13211 0.59523 0.39248 0.0
C2169 C 0.17002 0.55686 0.38936 0.0
C2170 C 0.16341 0.59405 0.36571 0.0
C2171 C 0.15294 0.5875 0.34931 0.0
C2172 C 0.16328 0.60049 0.33424 0.0
C2173 C 0.18508 0.62066 0.33591 0.0
C2174 C 0.19643 0.62777 0.35255 0.0
C2175 C 0.18523 0.61436 0.36767 0.0
loop_
_geom_bond_atom_site_label_1
_geom_bond_atom_site_label_2
_geom_bond_distance
_geom_bond_site_symmetry_2
_ccdc_geom_bond_type
C0 O1 1.306 . S
C0 O3 1.160 . S
O1 C0 1.306 . S
O1 Cd2 2.228 . S
Cd2 O1 2.228 . S
Cd2 O6 2.273 . S
Cd2 O10 2.277 . S
O3 C0 1.160 . S
O3 Cd4 2.203 . S
Cd4 O3 2.203 . S
Cd4 O6 2.411 . S
Cd4 O7 2.333 . S
Cd4 O8 2.352 . S
Cd4 O12 2.277 . S
Cd4 O13 2.356 . S
C5 O10 1.209 . S
C5 O12 1.226 . S
O6 Cd2 2.273 . S
O6 Cd4 2.411 . S
O6 C9 1.320 . S
O7 Cd4 2.333 . S
O7 C9 1.214 . S
O8 Cd4 2.352 . S
O8 C11 1.258 . S
C9 O6 1.320 . S
C9 O7 1.214 . S
O10 Cd2 2.277 . S
O10 C5 1.209 . S
C11 O8 1.258 . S
C11 O13 1.282 . S
O12 Cd4 2.277 . S
O12 C5 1.226 . S
O13 Cd4 2.356 . S
O13 C11 1.282 . S
C14 O15 1.306 . S
C14 O17 1.160 . S
O15 C14 1.306 . S
O15 Cd16 2.228 . S
Cd16 O15 2.228 . S
Cd16 O20 2.273 . S
Cd16 O24 2.277 . S
O17 C14 1.160 . S
O17 Cd18 2.203 . S
Cd18 O17 2.203 . S
Cd18 O20 2.411 . S
Cd18 O21 2.333 . S
Cd18 O22 2.352 . S
Cd18 O26 2.277 . S
Cd18 O27 2.356 1_565 S
C19 O24 1.209 . S
C19 O26 1.226 . S
O20 Cd16 2.273 . S
O20 Cd18 2.411 . S
O20 C23 1.320 . S
O21 Cd18 2.333 . S
O21 C23 1.214 . S
O22 Cd18 2.352 . S
O22 C25 1.258 1_565 S
C23 O20 1.320 . S
C23 O21 1.214 . S
O24 Cd16 2.277 . S
O24 C19 1.209 . S
C25 O22 1.258 1_545 S
C25 O27 1.282 . S
O26 Cd18 2.277 . S
O26 C19 1.226 . S
O27 Cd18 2.356 1_545 S
O27 C25 1.282 . S
C28 O29 1.306 . S
C28 O31 1.160 . S
O29 C28 1.306 . S
O29 Cd30 2.228 . S
Cd30 O29 2.228 . S
Cd30 O34 2.273 . S
Cd30 O38 2.277 . S
O31 C28 1.160 . S
O31 Cd32 2.203 . S
Cd32 O31 2.203 . S
Cd32 O34 2.411 . S
Cd32 O35 2.333 . S
Cd32 O36 2.352 . S
Cd32 O40 2.277 . S
Cd32 O41 2.356 . S
C33 O38 1.209 . S
C33 O40 1.226 . S
O34 Cd30 2.273 . S
O34 Cd32 2.411 . S
O34 C37 1.320 . S
O35 Cd32 2.333 . S
O35 C37 1.214 . S
O36 Cd32 2.352 . S
O36 C39 1.258 . S
C37 O34 1.320 . S
C37 O35 1.214 . S
O38 Cd30 2.277 . S
O38 C33 1.209 . S
C39 O36 1.258 . S
C39 O41 1.282 . S
O40 Cd32 2.277 . S
O40 C33 1.226 . S
O41 Cd32 2.356 . S
O41 C39 1.282 . S
C42 O43 1.306 . S
C42 O45 1.160 . S
O43 C42 1.306 . S
O43 Cd44 2.228 . S
Cd44 O43 2.228 . S
Cd44 O48 2.273 . S
Cd44 O52 2.277 . S
O45 C42 1.160 . S
O45 Cd46 2.203 . S
Cd46 O45 2.203 . S
Cd46 O48 2.411 . S
Cd46 O49 2.333 . S
Cd46 O50 2.352 . S
Cd46 O54 2.277 . S
Cd46 O55 2.356 1_545 S
C47 O52 1.209 . S
C47 O54 1.226 . S
O48 Cd44 2.273 . S
O48 Cd46 2.411 . S
O48 C51 1.320 . S
O49 Cd46 2.333 . S
O49 C51 1.214 . S
O50 Cd46 2.352 . S
O50 C53 1.258 1_545 S
C51 O48 1.320 . S
C51 O49 1.214 . S
O52 Cd44 2.277 . S
O52 C47 1.209 . S
C53 O50 1.258 1_565 S
C53 O55 1.282 . S
O54 Cd46 2.277 . S
O54 C47 1.226 . S
O55 Cd46 2.356 1_565 S
O55 C53 1.282 . S
C56 O57 1.306 . S
C56 O59 1.160 . S
O57 C56 1.306 . S
O57 Cd58 2.228 . S
Cd58 O57 2.228 . S
Cd58 O62 2.273 . S
Cd58 O66 2.277 . S
O59 C56 1.160 . S
O59 Cd60 2.203 . S
Cd60 O59 2.203 . S
Cd60 O62 2.411 . S
Cd60 O63 2.333 . S
Cd60 O64 2.352 . S
Cd60 O68 2.277 . S
Cd60 O69 2.356 . S
C61 O66 1.209 . S
C61 O68 1.226 . S
O62 Cd58 2.273 . S
O62 Cd60 2.411 . S
O62 C65 1.320 . S
O63 Cd60 2.333 . S
O63 C65 1.214 . S
O64 Cd60 2.352 . S
O64 C67 1.258 . S
C65 O62 1.320 . S
C65 O63 1.214 . S
O66 Cd58 2.277 . S
O66 C61 1.209 . S
C67 O64 1.258 . S
C67 O69 1.282 . S
O68 Cd60 2.277 . S
O68 C61 1.226 . S
O69 Cd60 2.356 . S
O69 C67 1.282 . S
C70 O71 1.306 . S
C70 O73 1.160 . S
O71 C70 1.306 . S
O71 Cd72 2.228 . S
Cd72 O71 2.228 . S
Cd72 O76 2.273 . S
Cd72 O80 2.277 . S
O73 C70 1.160 . S
O73 Cd74 2.203 . S
Cd74 O73 2.203 . S
Cd74 O76 2.411 . S
Cd74 O77 2.333 . S
Cd74 O78 2.352 . S
Cd74 O82 2.277 . S
Cd74 O83 2.356 1_565 S
C75 O80 1.209 . S
C75 O82 1.226 . S
O76 Cd72 2.273 . S
O76 Cd74 2.411 . S
O76 C79 1.320 . S
O77 Cd74 2.333 . S
O77 C79 1.214 . S
O78 Cd74 2.352 . S
O78 C81 1.258 1_565 S
C79 O76 1.320 . S
C79 O77 1.214 . S
O80 Cd72 2.277 . S
O80 C75 1.209 . S
C81 O78 1.258 1_545 S
C81 O83 1.282 . S
O82 Cd74 2.277 . S
O82 C75 1.226 . S
O83 Cd74 2.356 1_545 S
O83 C81 1.282 . S
C84 O85 1.306 . S
C84 O87 1.160 . S
O85 C84 1.306 . S
O85 Cd86 2.228 . S
Cd86 O85 2.228 . S
Cd86 O90 2.273 . S
Cd86 O94 2.277 . S
O87 C84 1.160 . S
O87 Cd88 2.203 . S
Cd88 O87 2.203 . S
Cd88 O90 2.411 . S
Cd88 O91 2.333 . S
Cd88 O92 2.352 . S
Cd88 O96 2.277 . S
Cd88 O97 2.356 . S
C89 O94 1.209 . S
C89 O96 1.226 . S
O90 Cd86 2.273 . S
O90 Cd88 2.411 . S
O90 C93 1.320 . S
O91 Cd88 2.333 . S
O91 C93 1.214 . S
O92 Cd88 2.352 . S
O92 C95 1.258 . S
C93 O90 1.320 . S
C93 O91 1.214 . S
O94 Cd86 2.277 . S
O94 C89 1.209 . S
C95 O92 1.258 . S
C95 O97 1.282 . S
O96 Cd88 2.277 . S
O96 C89 1.226 . S
O97 Cd88 2.356 . S
O97 C95 1.282 . S
C98 O99 1.306 . S
C98 O101 1.160 . S
O99 C98 1.306 . S
O99 Cd100 2.228 . S
Cd100 O99 2.228 . S
Cd100 O104 2.273 . S
Cd100 O108 2.277 . S
O101 C98 1.160 . S
O101 Cd102 2.203 . S
Cd102 O101 2.203 . S
Cd102 O104 2.411 . S
Cd102 O105 2.333 . S
Cd102 O106 2.352 . S
Cd102 O110 2.277 . S
Cd102 O111 2.356 1_545 S
C103 O108 1.209 . S
C103 O110 1.226 . S
O104 Cd100 2.273 . S
O104 Cd102 2.411 . S
O104 C107 1.320 . S
O105 Cd102 2.333 . S
O105 C107 1.214 . S
O106 Cd102 2.352 . S
O106 C109 1.258 1_545 S
C107 O104 1.320 . S
C107 O105 1.214 . S
O108 Cd100 2.277 . S
O108 C103 1.209 . S
C109 O106 1.258 1_565 S
C109 O111 1.282 . S
O110 Cd102 2.277 . S
O110 C103 1.226 . S
O111 Cd102 2.356 1_565 S
O111 C109 1.282 . S
C112 O113 1.306 . S
C112 O115 1.160 . S
O113 C112 1.306 . S
O113 Cd114 2.228 . S
Cd114 O113 2.228 . S
Cd114 O118 2.273 . S
Cd114 O122 2.277 . S
O115 C112 1.160 . S
O115 Cd116 2.203 . S
Cd116 O115 2.203 . S
Cd116 O118 2.411 . S
Cd116 O119 2.333 . S
Cd116 O120 2.352 . S
Cd116 O124 2.277 . S
Cd116 O125 2.356 . S
C117 O122 1.209 . S
C117 O124 1.226 . S
O118 Cd114 2.273 . S
O118 Cd116 2.411 . S
O118 C121 1.320 . S
O119 Cd116 2.333 . S
O119 C121 1.214 . S
O120 Cd116 2.352 . S
O120 C123 1.258 . S
C121 O118 1.320 . S
C121 O119 1.214 . S
O122 Cd114 2.277 . S
O122 C117 1.209 . S
C123 O120 1.258 . S
C123 O125 1.282 . S
O124 Cd116 2.277 . S
O124 C117 1.226 . S
O125 Cd116 2.356 . S
O125 C123 1.282 . S
C126 O127 1.306 . S
C126 O129 1.160 1_565 S
O127 C126 1.306 . S
O127 Cd128 2.228 1_565 S
Cd128 O127 2.228 1_545 S
Cd128 O132 2.273 . S
Cd128 O136 2.277 . S
O129 C126 1.160 1_545 S
O129 Cd130 2.203 . S
Cd130 O129 2.203 . S
Cd130 O132 2.411 . S
Cd130 O133 2.333 . S
Cd130 O134 2.371 . S
Cd130 O138 2.277 . S
Cd130 O139 2.356 . S
C131 O136 1.209 . S
C131 O138 1.226 . S
O132 Cd128 2.273 . S
O132 Cd130 2.411 . S
O132 C135 1.320 . S
O133 Cd130 2.333 . S
O133 C135 1.214 . S
O134 Cd130 2.371 . S
O134 C137 1.273 . S
C135 O132 1.320 . S
C135 O133 1.214 . S
O136 Cd128 2.277 . S
O136 C131 1.209 . S
C137 O134 1.273 . S
C137 O139 1.282 . S
O138 Cd130 2.277 . S
O138 C131 1.226 . S
O139 Cd130 2.356 . S
O139 C137 1.282 . S
C140 O141 1.306 . S
C140 O143 1.160 . S
O141 C140 1.306 . S
O141 Cd142 2.228 . S
Cd142 O141 2.228 . S
Cd142 O146 2.273 . S
Cd142 O150 2.277 . S
O143 C140 1.160 . S
O143 Cd144 2.203 . S
Cd144 O143 2.203 . S
Cd144 O146 2.411 . S
Cd144 O147 2.333 . S
Cd144 O148 2.352 . S
Cd144 O152 2.277 . S
Cd144 O153 2.356 . S
C145 O150 1.209 . S
C145 O152 1.226 . S
O146 Cd142 2.273 . S
O146 Cd144 2.411 . S
O146 C149 1.320 . S
O147 Cd144 2.333 . S
O147 C149 1.214 . S
O148 Cd144 2.352 . S
O148 C151 1.258 . S
C149 O146 1.320 . S
C149 O147 1.214 . S
O150 Cd142 2.277 . S
O150 C145 1.209 . S
C151 O148 1.258 . S
C151 O153 1.282 . S
O152 Cd144 2.277 . S
O152 C145 1.226 . S
O153 Cd144 2.356 . S
O153 C151 1.282 . S
C154 O155 1.306 . S
C154 O157 1.160 1_545 S
O155 C154 1.306 . S
O155 Cd156 2.228 1_545 S
Cd156 O155 2.228 1_565 S
Cd156 O160 2.273 . S
Cd156 O164 2.277 . S
O157 C154 1.160 1_565 S
O157 Cd158 2.203 . S
Cd158 O157 2.203 . S
Cd158 O160 2.411 . S
Cd158 O161 2.333 . S
Cd158 O162 2.371 . S
Cd158 O166 2.277 . S
Cd158 O167 2.356 . S
C159 O164 1.209 . S
C159 O166 1.226 . S
O160 Cd156 2.273 . S
O160 Cd158 2.411 . S
O160 C163 1.320 . S
O161 Cd158 2.333 . S
O161 C163 1.214 . S
O162 Cd158 2.371 . S
O162 C165 1.273 . S
C163 O160 1.320 . S
C163 O161 1.214 . S
O164 Cd156 2.277 . S
O164 C159 1.209 . S
C165 O162 1.273 . S
C165 O167 1.282 . S
O166 Cd158 2.277 . S
O166 C159 1.226 . S
O167 Cd158 2.356 . S
O167 C165 1.282 . S
C168 O169 1.306 . S
C168 O171 1.160 . S
O169 C168 1.306 . S
O169 Cd170 2.228 . S
Cd170 O169 2.228 . S
Cd170 O174 2.273 . S
Cd170 O178 2.277 . S
O171 C168 1.160 . S
O171 Cd172 2.203 . S
Cd172 O171 2.203 . S
Cd172 O174 2.411 . S
Cd172 O175 2.333 . S
Cd172 O176 2.352 . S
Cd172 O180 2.277 . S
Cd172 O181 2.356 . S
C173 O178 1.209 . S
C173 O180 1.226 . S
O174 Cd170 2.273 . S
O174 Cd172 2.411 . S
O174 C177 1.320 . S
O175 Cd172 2.333 . S
O175 C177 1.214 . S
O176 Cd172 2.352 . S
O176 C179 1.258 . S
C177 O174 1.320 . S
C177 O175 1.214 . S
O178 Cd170 2.277 . S
O178 C173 1.209 . S
C179 O176 1.258 . S
C179 O181 1.282 . S
O180 Cd172 2.277 . S
O180 C173 1.226 . S
O181 Cd172 2.356 . S
O181 C179 1.282 . S
C182 O183 1.306 . S
C182 O185 1.160 1_565 S
O183 C182 1.306 . S
O183 Cd184 2.228 1_565 S
Cd184 O183 2.228 1_545 S
Cd184 O188 2.273 . S
Cd184 O192 2.277 . S
O185 C182 1.160 1_545 S
O185 Cd186 2.203 . S
Cd186 O185 2.203 . S
Cd186 O188 2.411 . S
Cd186 O189 2.333 . S
Cd186 O190 2.371 . S
Cd186 O194 2.277 . S
Cd186 O195 2.356 . S
C187 O192 1.209 . S
C187 O194 1.226 . S
O188 Cd184 2.273 . S
O188 Cd186 2.411 . S
O188 C191 1.320 . S
O189 Cd186 2.333 . S
O189 C191 1.214 . S
O190 Cd186 2.371 . S
O190 C193 1.273 . S
C191 O188 1.320 . S
C191 O189 1.214 . S
O192 Cd184 2.277 . S
O192 C187 1.209 . S
C193 O190 1.273 . S
C193 O195 1.282 . S
O194 Cd186 2.277 . S
O194 C187 1.226 . S
O195 Cd186 2.356 . S
O195 C193 1.282 . S
C196 O197 1.306 . S
C196 O199 1.160 . S
O197 C196 1.306 . S
O197 Cd198 2.228 . S
Cd198 O197 2.228 . S
Cd198 O202 2.273 . S
Cd198 O206 2.277 . S
O199 C196 1.160 . S
O199 Cd200 2.203 . S
Cd200 O199 2.203 . S
Cd200 O202 2.411 . S
Cd200 O203 2.333 . S
Cd200 O204 2.352 . S
Cd200 O208 2.277 . S
Cd200 O209 2.356 . S
C201 O206 1.209 . S
C201 O208 1.226 . S
O202 Cd198 2.273 . S
O202 Cd200 2.411 . S
O202 C205 1.320 . S
O203 Cd200 2.333 . S
O203 C205 1.214 . S
O204 Cd200 2.352 . S
O204 C207 1.258 . S
C205 O202 1.320 . S
C205 O203 1.214 . S
O206 Cd198 2.277 . S
O206 C201 1.209 . S
C207 O204 1.258 . S
C207 O209 1.282 . S
O208 Cd200 2.277 . S
O208 C201 1.226 . S
O209 Cd200 2.356 . S
O209 C207 1.282 . S
C210 O211 1.306 . S
C210 O213 1.160 1_545 S
O211 C210 1.306 . S
O211 Cd212 2.228 1_545 S
Cd212 O211 2.228 1_565 S
Cd212 O216 2.273 . S
Cd212 O220 2.277 . S
O213 C210 1.160 1_565 S
O213 Cd214 2.203 . S
Cd214 O213 2.203 . S
Cd214 O216 2.411 . S
Cd214 O217 2.333 . S
Cd214 O218 2.371 . S
Cd214 O222 2.277 . S
Cd214 O223 2.356 . S
C215 O220 1.209 . S
C215 O222 1.226 . S
O216 Cd212 2.273 . S
O216 Cd214 2.411 . S
O216 C219 1.320 . S
O217 Cd214 2.333 . S
O217 C219 1.214 . S
O218 Cd214 2.371 . S
O218 C221 1.273 . S
C219 O216 1.320 . S
C219 O217 1.214 . S
O220 Cd212 2.277 . S
O220 C215 1.209 . S
C221 O218 1.273 . S
C221 O223 1.282 . S
O222 Cd214 2.277 . S
O222 C215 1.226 . S
O223 Cd214 2.356 . S
O223 C221 1.282 . S
C224 O225 1.306 . S
C224 O227 1.160 . S
O225 C224 1.306 . S
O225 Cd226 2.228 . S
Cd226 O225 2.228 . S
Cd226 O230 2.273 . S
Cd226 O234 2.277 . S
O227 C224 1.160 . S
O227 Cd228 2.203 . S
Cd228 O227 2.203 . S
Cd228 O230 2.411 . S
Cd228 O231 2.333 . S
Cd228 O232 2.352 . S
Cd228 O236 2.277 . S
Cd228 O237 2.356 . S
C229 O234 1.209 . S
C229 O236 1.226 . S
O230 Cd226 2.273 . S
O230 Cd228 2.411 . S
O230 C233 1.320 . S
O231 Cd228 2.333 . S
O231 C233 1.214 . S
O232 Cd228 2.352 . S
O232 C235 1.258 . S
C233 O230 1.320 . S
C233 O231 1.214 . S
O234 Cd226 2.277 . S
O234 C229 1.209 . S
C235 O232 1.258 . S
C235 O237 1.282 . S
O236 Cd228 2.277 . S
O236 C229 1.226 . S
O237 Cd228 2.356 . S
O237 C235 1.282 . S
C238 O239 1.306 . S
C238 O241 1.160 . S
O239 C238 1.306 . S
O239 Cd240 2.228 . S
Cd240 O239 2.228 . S
Cd240 O244 2.273 . S
Cd240 O248 2.277 . S
O241 C238 1.160 . S
O241 Cd242 2.203 . S
Cd242 O241 2.203 . S
Cd242 O244 2.411 . S
Cd242 O245 2.333 . S
Cd242 O246 2.352 . S
Cd242 O250 2.277 . S
Cd242 O251 2.356 . S
C243 O248 1.209 . S
C243 O250 1.226 . S
O244 Cd240 2.273 . S
O244 Cd242 2.411 . S
O244 C247 1.320 . S
O245 Cd242 2.333 . S
O245 C247 1.214 . S
O246 Cd242 2.352 . S
O246 C249 1.258 . S
C247 O244 1.320 . S
C247 O245 1.214 . S
O248 Cd240 2.277 . S
O248 C243 1.209 . S
C249 O246 1.258 . S
C249 O251 1.282 . S
O250 Cd242 2.277 . S
O250 C243 1.226 . S
O251 Cd242 2.356 . S
O251 C249 1.282 . S
C252 O253 1.306 . S
C252 O255 1.160 . S
O253 C252 1.306 . S
O253 Cd254 2.228 . S
Cd254 O253 2.228 . S
Cd254 O258 2.273 . S
Cd254 O262 2.277 . S
O255 C252 1.160 . S
O255 Cd256 2.203 . S
Cd256 O255 2.203 . S
Cd256 O258 2.411 . S
Cd256 O259 2.333 . S
Cd256 O260 2.352 . S
Cd256 O264 2.277 . S
Cd256 O265 2.356 . S
C257 O262 1.209 . S
C257 O264 1.226 . S
O258 Cd254 2.273 . S
O258 Cd256 2.411 . S
O258 C261 1.320 . S
O259 Cd256 2.333 . S
O259 C261 1.214 . S
O260 Cd256 2.352 . S
O260 C263 1.258 . S
C261 O258 1.320 . S
C261 O259 1.214 . S
O262 Cd254 2.277 . S
O262 C257 1.209 . S
C263 O260 1.258 . S
C263 O265 1.282 . S
O264 Cd256 2.277 . S
O264 C257 1.226 . S
O265 Cd256 2.356 . S
O265 C263 1.282 . S
C266 O267 1.306 . S
C266 O269 1.160 . S
O267 C266 1.306 . S
O267 Cd268 2.228 . S
Cd268 O267 2.228 . S
Cd268 O272 2.273 . S
Cd268 O276 2.277 . S
O269 C266 1.160 . S
O269 Cd270 2.203 . S
Cd270 O269 2.203 . S
Cd270 O272 2.411 . S
Cd270 O273 2.333 . S
Cd270 O274 2.352 . S
Cd270 O278 2.277 . S
Cd270 O279 2.356 . S
C271 O276 1.209 . S
C271 O278 1.226 . S
O272 Cd268 2.273 . S
O272 Cd270 2.411 . S
O272 C275 1.320 . S
O273 Cd270 2.333 . S
O273 C275 1.214 . S
O274 Cd270 2.352 . S
O274 C277 1.258 . S
C275 O272 1.320 . S
C275 O273 1.214 . S
O276 Cd268 2.277 . S
O276 C271 1.209 . S
C277 O274 1.258 . S
C277 O279 1.282 . S
O278 Cd270 2.277 . S
O278 C271 1.226 . S
O279 Cd270 2.356 . S
O279 C277 1.282 . S
C280 O281 1.306 . S
C280 O283 1.160 . S
O281 C280 1.306 . S
O281 Cd282 2.228 . S
Cd282 O281 2.228 . S
Cd282 O286 2.273 . S
Cd282 O290 2.277 . S
O283 C280 1.160 . S
O283 Cd284 2.203 . S
Cd284 O283 2.203 . S
Cd284 O286 2.411 . S
Cd284 O287 2.333 . S
Cd284 O288 2.352 . S
Cd284 O292 2.277 . S
Cd284 O293 2.356 . S
C285 O290 1.209 . S
C285 O292 1.226 . S
O286 Cd282 2.273 . S
O286 Cd284 2.411 . S
O286 C289 1.320 . S
O287 Cd284 2.333 . S
O287 C289 1.214 . S
O288 Cd284 2.352 . S
O288 C291 1.258 . S
C289 O286 1.320 . S
C289 O287 1.214 . S
O290 Cd282 2.277 . S
O290 C285 1.209 . S
C291 O288 1.258 . S
C291 O293 1.282 . S
O292 Cd284 2.277 . S
O292 C285 1.226 . S
O293 Cd284 2.356 . S
O293 C291 1.282 . S
C294 O295 1.306 . S
C294 O297 1.160 . S
O295 C294 1.306 . S
O295 Cd296 2.228 . S
Cd296 O295 2.228 . S
Cd296 O300 2.273 . S
Cd296 O304 2.277 . S
O297 C294 1.160 . S
O297 Cd298 2.203 . S
Cd298 O297 2.203 . S
Cd298 O300 2.411 . S
Cd298 O301 2.333 . S
Cd298 O302 2.352 . S
Cd298 O306 2.277 . S
Cd298 O307 2.356 . S
C299 O304 1.209 . S
C299 O306 1.226 . S
O300 Cd296 2.273 . S
O300 Cd298 2.411 . S
O300 C303 1.320 . S
O301 Cd298 2.333 . S
O301 C303 1.214 . S
O302 Cd298 2.352 . S
O302 C305 1.258 . S
C303 O300 1.320 . S
C303 O301 1.214 . S
O304 Cd296 2.277 . S
O304 C299 1.209 . S
C305 O302 1.258 . S
C305 O307 1.282 . S
O306 Cd298 2.277 . S
O306 C299 1.226 . S
O307 Cd298 2.356 . S
O307 C305 1.282 . S
C308 O309 1.306 . S
C308 O311 1.160 . S
O309 C308 1.306 . S
O309 Cd310 2.228 . S
Cd310 O309 2.228 . S
Cd310 O314 2.273 . S
Cd310 O318 2.277 . S
O311 C308 1.160 . S
O311 Cd312 2.203 . S
Cd312 O311 2.203 . S
Cd312 O314 2.411 . S
Cd312 O315 2.333 . S
Cd312 O316 2.352 . S
Cd312 O320 2.277 . S
Cd312 O321 2.356 . S
C313 O318 1.209 . S
C313 O320 1.226 . S
O314 Cd310 2.273 . S
O314 Cd312 2.411 . S
O314 C317 1.320 . S
O315 Cd312 2.333 . S
O315 C317 1.214 . S
O316 Cd312 2.352 . S
O316 C319 1.258 . S
C317 O314 1.320 . S
C317 O315 1.214 . S
O318 Cd310 2.277 . S
O318 C313 1.209 . S
C319 O316 1.258 . S
C319 O321 1.282 . S
O320 Cd312 2.277 . S
O320 C313 1.226 . S
O321 Cd312 2.356 . S
O321 C319 1.282 . S
C322 O323 1.306 . S
C322 O325 1.160 . S
O323 C322 1.306 . S
O323 Cd324 2.228 . S
Cd324 O323 2.228 . S
Cd324 O328 2.273 . S
Cd324 O332 2.277 . S
O325 C322 1.160 . S
O325 Cd326 2.203 . S
Cd326 O325 2.203 . S
Cd326 O328 2.411 . S
Cd326 O329 2.333 . S
Cd326 O330 2.352 . S
Cd326 O334 2.277 . S
Cd326 O335 2.356 . S
C327 O332 1.209 . S
C327 O334 1.226 . S
O328 Cd324 2.273 . S
O328 Cd326 2.411 . S
O328 C331 1.320 . S
O329 Cd326 2.333 . S
O329 C331 1.214 . S
O330 Cd326 2.352 . S
O330 C333 1.258 . S
C331 O328 1.320 . S
C331 O329 1.214 . S
O332 Cd324 2.277 . S
O332 C327 1.209 . S
C333 O330 1.258 . S
C333 O335 1.282 . S
O334 Cd326 2.277 . S
O334 C327 1.226 . S
O335 Cd326 2.356 . S
O335 C333 1.282 . S
C336 O337 1.306 . S
C336 O339 1.160 . S
O337 C336 1.306 . S
O337 Cd338 2.228 . S
Cd338 O337 2.228 . S
Cd338 O342 2.273 . S
Cd338 O346 2.277 . S
O339 C336 1.160 . S
O339 Cd340 2.203 . S
Cd340 O339 2.203 . S
Cd340 O342 2.411 . S
Cd340 O343 2.333 . S
Cd340 O344 2.352 . S
Cd340 O348 2.277 . S
Cd340 O349 2.356 . S
C341 O346 1.209 . S
C341 O348 1.226 . S
O342 Cd338 2.273 . S
O342 Cd340 2.411 . S
O342 C345 1.320 . S
O343 Cd340 2.333 . S
O343 C345 1.214 . S
O344 Cd340 2.352 . S
O344 C347 1.258 . S
C345 O342 1.320 . S
C345 O343 1.214 . S
O346 Cd338 2.277 . S
O346 C341 1.209 . S
C347 O344 1.258 . S
C347 O349 1.282 . S
O348 Cd340 2.277 . S
O348 C341 1.226 . S
O349 Cd340 2.356 . S
O349 C347 1.282 . S
C350 O351 1.306 . S
C350 O353 1.160 . S
O351 C350 1.306 . S
O351 Cd352 2.228 . S
Cd352 O351 2.228 . S
Cd352 O356 2.273 . S
Cd352 O360 2.277 . S
O353 C350 1.160 . S
O353 Cd354 2.203 . S
Cd354 O353 2.203 . S
Cd354 O356 2.411 . S
Cd354 O357 2.333 . S
Cd354 O358 2.352 . S
Cd354 O362 2.277 . S
Cd354 O363 2.356 . S
C355 O360 1.209 . S
C355 O362 1.226 . S
O356 Cd352 2.273 . S
O356 Cd354 2.411 . S
O356 C359 1.320 . S
O357 Cd354 2.333 . S
O357 C359 1.214 . S
O358 Cd354 2.352 . S
O358 C361 1.258 . S
C359 O356 1.320 . S
C359 O357 1.214 . S
O360 Cd352 2.277 . S
O360 C355 1.209 . S
C361 O358 1.258 . S
C361 O363 1.282 . S
O362 Cd354 2.277 . S
O362 C355 1.226 . S
O363 Cd354 2.356 . S
O363 C361 1.282 . S
C364 O365 1.306 . S
C364 O367 1.160 . S
O365 C364 1.306 . S
O365 Cd366 2.228 . S
Cd366 O365 2.228 . S
Cd366 O370 2.273 . S
Cd366 O374 2.277 . S
O367 C364 1.160 . S
O367 Cd368 2.203 . S
Cd368 O367 2.203 . S
Cd368 O370 2.411 . S
Cd368 O371 2.333 . S
Cd368 O372 2.352 . S
Cd368 O376 2.277 . S
Cd368 O377 2.356 . S
C369 O374 1.209 . S
C369 O376 1.226 . S
O370 Cd366 2.273 . S
O370 Cd368 2.411 . S
O370 C373 1.320 . S
O371 Cd368 2.333 . S
O371 C373 1.214 . S
O372 Cd368 2.352 . S
O372 C375 1.258 . S
C373 O370 1.320 . S
C373 O371 1.214 . S
O374 Cd366 2.277 . S
O374 C369 1.209 . S
C375 O372 1.258 . S
C375 O377 1.282 . S
O376 Cd368 2.277 . S
O376 C369 1.226 . S
O377 Cd368 2.356 . S
O377 C375 1.282 . S
C378 O379 1.306 . S
C378 O381 1.160 . S
O379 C378 1.306 . S
O379 Cd380 2.228 . S
Cd380 O379 2.228 . S
Cd380 O384 2.273 . S
Cd380 O388 2.277 . S
O381 C378 1.160 . S
O381 Cd382 2.203 . S
Cd382 O381 2.203 . S
Cd382 O384 2.411 . S
Cd382 O385 2.333 . S
Cd382 O386 2.352 . S
Cd382 O390 2.277 . S
Cd382 O391 2.356 . S
C383 O388 1.209 . S
C383 O390 1.226 . S
O384 Cd380 2.273 . S
O384 Cd382 2.411 . S
O384 C387 1.320 . S
O385 Cd382 2.333 . S
O385 C387 1.214 . S
O386 Cd382 2.352 . S
O386 C389 1.258 . S
C387 O384 1.320 . S
C387 O385 1.214 . S
O388 Cd380 2.277 . S
O388 C383 1.209 . S
C389 O386 1.258 . S
C389 O391 1.282 . S
O390 Cd382 2.277 . S
O390 C383 1.226 . S
O391 Cd382 2.356 . S
O391 C389 1.282 . S
C392 O393 1.306 . S
C392 O395 1.160 . S
O393 C392 1.306 . S
O393 Cd394 2.228 . S
Cd394 O393 2.228 . S
Cd394 O398 2.273 . S
Cd394 O402 2.277 . S
O395 C392 1.160 . S
O395 Cd396 2.203 . S
Cd396 O395 2.203 . S
Cd396 O398 2.411 . S
Cd396 O399 2.333 . S
Cd396 O400 2.352 . S
Cd396 O404 2.277 . S
Cd396 O405 2.356 . S
C397 O402 1.209 . S
C397 O404 1.226 . S
O398 Cd394 2.273 . S
O398 Cd396 2.411 . S
O398 C401 1.320 . S
O399 Cd396 2.333 . S
O399 C401 1.214 . S
O400 Cd396 2.352 . S
O400 C403 1.258 . S
C401 O398 1.320 . S
C401 O399 1.214 . S
O402 Cd394 2.277 . S
O402 C397 1.209 . S
C403 O400 1.258 . S
C403 O405 1.282 . S
O404 Cd396 2.277 . S
O404 C397 1.226 . S
O405 Cd396 2.356 . S
O405 C403 1.282 . S
C406 O407 1.306 . S
C406 O409 1.160 . S
O407 C406 1.306 . S
O407 Cd408 2.228 . S
Cd408 O407 2.228 . S
Cd408 O412 2.273 . S
Cd408 O416 2.277 . S
O409 C406 1.160 . S
O409 Cd410 2.203 . S
Cd410 O409 2.203 . S
Cd410 O412 2.411 . S
Cd410 O413 2.333 . S
Cd410 O414 2.352 . S
Cd410 O418 2.277 . S
Cd410 O419 2.356 . S
C411 O416 1.209 . S
C411 O418 1.226 . S
O412 Cd408 2.273 . S
O412 Cd410 2.411 . S
O412 C415 1.320 . S
O413 Cd410 2.333 . S
O413 C415 1.214 . S
O414 Cd410 2.352 . S
O414 C417 1.258 . S
C415 O412 1.320 . S
C415 O413 1.214 . S
O416 Cd408 2.277 . S
O416 C411 1.209 . S
C417 O414 1.258 . S
C417 O419 1.282 . S
O418 Cd410 2.277 . S
O418 C411 1.226 . S
O419 Cd410 2.356 . S
O419 C417 1.282 . S
C420 O421 1.306 . S
C420 O423 1.160 . S
O421 C420 1.306 . S
O421 Cd422 2.228 . S
Cd422 O421 2.228 . S
Cd422 O426 2.273 . S
Cd422 O430 2.277 . S
O423 C420 1.160 . S
O423 Cd424 2.203 . S
Cd424 O423 2.203 . S
Cd424 O426 2.411 . S
Cd424 O427 2.333 . S
Cd424 O428 2.352 . S
Cd424 O432 2.277 . S
Cd424 O433 2.356 . S
C425 O430 1.209 . S
C425 O432 1.226 . S
O426 Cd422 2.273 . S
O426 Cd424 2.411 . S
O426 C429 1.320 . S
O427 Cd424 2.333 . S
O427 C429 1.214 . S
O428 Cd424 2.352 . S
O428 C431 1.258 . S
C429 O426 1.320 . S
C429 O427 1.214 . S
O430 Cd422 2.277 . S
O430 C425 1.209 . S
C431 O428 1.258 . S
C431 O433 1.282 . S
O432 Cd424 2.277 . S
O432 C425 1.226 . S
O433 Cd424 2.356 . S
O433 C431 1.282 . S
C434 O435 1.306 . S
C434 O437 1.160 . S
O435 C434 1.306 . S
O435 Cd436 2.228 . S
Cd436 O435 2.228 . S
Cd436 O440 2.273 . S
Cd436 O444 2.277 . S
O437 C434 1.160 . S
O437 Cd438 2.203 . S
Cd438 O437 2.203 . S
Cd438 O440 2.411 . S
Cd438 O441 2.333 . S
Cd438 O442 2.352 . S
Cd438 O446 2.277 . S
Cd438 O447 2.356 . S
C439 O444 1.209 . S
C439 O446 1.226 . S
O440 Cd436 2.273 . S
O440 Cd438 2.411 . S
O440 C443 1.320 . S
O441 Cd438 2.333 . S
O441 C443 1.214 . S
O442 Cd438 2.352 . S
O442 C445 1.258 . S
C443 O440 1.320 . S
C443 O441 1.214 . S
O444 Cd436 2.277 . S
O444 C439 1.209 . S
C445 O442 1.258 . S
C445 O447 1.282 . S
O446 Cd438 2.277 . S
O446 C439 1.226 . S
O447 Cd438 2.356 . S
O447 C445 1.282 . S
H448 C460 0.930 . S
H449 C462 0.930 . S
H450 C463 0.930 . S
H451 C467 0.959 . S
H452 C467 0.959 . S
H453 C467 0.961 . S
H454 C468 0.960 . S
H455 C468 0.961 . S
H456 C468 0.959 . S
H457 C471 0.929 . S
H458 C472 0.931 . S
H459 C474 0.930 . S
C460 H448 0.930 . S
C460 C461 1.399 . S
C460 C465 1.399 . S
C461 C460 1.399 . S
C461 C462 1.376 . S
C462 H449 0.930 . S
C462 C461 1.376 . S
C462 C463 1.388 . S
C463 H450 0.930 . S
C463 C462 1.388 . S
C463 C464 1.390 . S
C464 C463 1.390 . S
C464 C465 1.394 . S
C464 C470 1.465 . S
C465 C460 1.399 . S
C465 C464 1.394 . S
C465 C466 1.516 . S
C466 C465 1.516 . S
C466 C467 1.502 . S
C466 C468 1.561 . S
C466 C469 1.526 . S
C467 H451 0.959 . S
C467 H452 0.959 . S
C467 H453 0.961 . S
C467 C466 1.502 . S
C468 H454 0.960 . S
C468 H455 0.961 . S
C468 H456 0.959 . S
C468 C466 1.561 . S
C469 C466 1.526 . S
C469 C470 1.396 . S
C469 C474 1.390 . S
C470 C464 1.465 . S
C470 C469 1.396 . S
C470 C471 1.399 . S
C471 H457 0.929 . S
C471 C470 1.399 . S
C471 C472 1.385 . S
C472 H458 0.931 . S
C472 C471 1.385 . S
C472 C473 1.389 . S
C473 C472 1.389 . S
C473 C474 1.387 . S
C474 H459 0.930 . S
C474 C469 1.390 . S
C474 C473 1.387 . S
H475 C487 0.930 . S
H476 C489 0.930 . S
H477 C490 0.930 . S
H478 C494 0.959 . S
H479 C494 0.959 . S
H480 C494 0.961 . S
H481 C495 0.960 . S
H482 C495 0.961 . S
H483 C495 0.959 . S
H484 C498 0.929 . S
H485 C499 0.931 . S
H486 C501 0.930 . S
C487 H475 0.930 . S
C487 C488 1.399 . S
C487 C492 1.399 . S
C488 C487 1.399 . S
C488 C489 1.376 . S
C489 H476 0.930 . S
C489 C488 1.376 . S
C489 C490 1.388 . S
C490 H477 0.930 . S
C490 C489 1.388 . S
C490 C491 1.390 . S
C491 C490 1.390 . S
C491 C492 1.394 . S
C491 C497 1.465 . S
C492 C487 1.399 . S
C492 C491 1.394 . S
C492 C493 1.516 . S
C493 C492 1.516 . S
C493 C494 1.502 . S
C493 C495 1.561 . S
C493 C496 1.526 . S
C494 H478 0.959 . S
C494 H479 0.959 . S
C494 H480 0.961 . S
C494 C493 1.502 . S
C495 H481 0.960 . S
C495 H482 0.961 . S
C495 H483 0.959 . S
C495 C493 1.561 . S
C496 C493 1.526 . S
C496 C497 1.396 . S
C496 C501 1.390 . S
C497 C491 1.465 . S
C497 C496 1.396 . S
C497 C498 1.399 . S
C498 H484 0.929 . S
C498 C497 1.399 . S
C498 C499 1.385 . S
C499 H485 0.931 . S
C499 C498 1.385 . S
C499 C500 1.389 . S
C500 C499 1.389 . S
C500 C501 1.387 . S
C501 H486 0.930 . S
C501 C496 1.390 . S
C501 C500 1.387 . S
H502 C514 0.930 . S
H503 C516 0.930 . S
H504 C517 0.930 . S
H505 C521 0.959 . S
H506 C521 0.959 . S
H507 C521 0.961 . S
H508 C522 0.960 . S
H509 C522 0.961 . S
H510 C522 0.959 . S
H511 C525 0.929 . S
H512 C526 0.931 . S
H513 C528 0.930 . S
C514 H502 0.930 . S
C514 C515 1.399 . S
C514 C519 1.399 . S
C515 C514 1.399 . S
C515 C516 1.376 . S
C516 H503 0.930 . S
C516 C515 1.376 . S
C516 C517 1.388 . S
C517 H504 0.930 . S
C517 C516 1.388 . S
C517 C518 1.390 . S
C518 C517 1.390 . S
C518 C519 1.394 . S
C518 C524 1.465 . S
C519 C514 1.399 . S
C519 C518 1.394 . S
C519 C520 1.516 . S
C520 C519 1.516 . S
C520 C521 1.502 . S
C520 C522 1.561 . S
C520 C523 1.526 . S
C521 H505 0.959 . S
C521 H506 0.959 . S
C521 H507 0.961 . S
C521 C520 1.502 . S
C522 H508 0.960 . S
C522 H509 0.961 . S
C522 H510 0.959 . S
C522 C520 1.561 . S
C523 C520 1.526 . S
C523 C524 1.396 . S
C523 C528 1.390 . S
C524 C518 1.465 . S
C524 C523 1.396 . S
C524 C525 1.399 . S
C525 H511 0.929 . S
C525 C524 1.399 . S
C525 C526 1.385 . S
C526 H512 0.931 . S
C526 C525 1.385 . S
C526 C527 1.389 . S
C527 C526 1.389 . S
C527 C528 1.387 . S
C528 H513 0.930 . S
C528 C523 1.390 . S
C528 C527 1.387 . S
H529 C541 0.930 . S
H530 C543 0.930 . S
H531 C544 0.930 . S
H532 C548 0.959 . S
H533 C548 0.959 . S
H534 C548 0.961 . S
H535 C549 0.960 . S
H536 C549 0.961 . S
H537 C549 0.959 . S
H538 C552 0.929 . S
H539 C553 0.931 . S
H540 C555 0.930 . S
C541 H529 0.930 . S
C541 C542 1.399 . S
C541 C546 1.399 . S
C542 C541 1.399 . S
C542 C543 1.376 . S
C543 H530 0.930 . S
C543 C542 1.376 . S
C543 C544 1.388 . S
C544 H531 0.930 . S
C544 C543 1.388 . S
C544 C545 1.390 . S
C545 C544 1.390 . S
C545 C546 1.394 . S
C545 C551 1.465 . S
C546 C541 1.399 . S
C546 C545 1.394 . S
C546 C547 1.516 . S
C547 C546 1.516 . S
C547 C548 1.502 . S
C547 C549 1.561 . S
C547 C550 1.526 . S
C548 H532 0.959 . S
C548 H533 0.959 . S
C548 H534 0.961 . S
C548 C547 1.502 . S
C549 H535 0.960 . S
C549 H536 0.961 . S
C549 H537 0.959 . S
C549 C547 1.561 . S
C550 C547 1.526 . S
C550 C551 1.396 . S
C550 C555 1.390 . S
C551 C545 1.465 . S
C551 C550 1.396 . S
C551 C552 1.399 . S
C552 H538 0.929 . S
C552 C551 1.399 . S
C552 C553 1.385 . S
C553 H539 0.931 . S
C553 C552 1.385 . S
C553 C554 1.389 . S
C554 C553 1.389 . S
C554 C555 1.387 . S
C555 H540 0.930 . S
C555 C550 1.390 . S
C555 C554 1.387 . S
H556 C568 0.930 . S
H557 C570 0.930 . S
H558 C571 0.930 . S
H559 C575 0.959 . S
H560 C575 0.959 . S
H561 C575 0.961 . S
H562 C576 0.960 . S
H563 C576 0.961 . S
H564 C576 0.959 . S
H565 C579 0.929 . S
H566 C580 0.931 . S
H567 C582 0.930 . S
C568 H556 0.930 . S
C568 C569 1.399 . S
C568 C573 1.399 . S
C569 C568 1.399 . S
C569 C570 1.376 . S
C570 H557 0.930 . S
C570 C569 1.376 . S
C570 C571 1.388 . S
C571 H558 0.930 . S
C571 C570 1.388 . S
C571 C572 1.390 . S
C572 C571 1.390 . S
C572 C573 1.394 . S
C572 C578 1.465 . S
C573 C568 1.399 . S
C573 C572 1.394 . S
C573 C574 1.516 . S
C574 C573 1.516 . S
C574 C575 1.502 . S
C574 C576 1.561 . S
C574 C577 1.526 . S
C575 H559 0.959 . S
C575 H560 0.959 . S
C575 H561 0.961 . S
C575 C574 1.502 . S
C576 H562 0.960 . S
C576 H563 0.961 . S
C576 H564 0.959 . S
C576 C574 1.561 . S
C577 C574 1.526 . S
C577 C578 1.396 . S
C577 C582 1.390 . S
C578 C572 1.465 . S
C578 C577 1.396 . S
C578 C579 1.399 . S
C579 H565 0.929 . S
C579 C578 1.399 . S
C579 C580 1.385 . S
C580 H566 0.931 . S
C580 C579 1.385 . S
C580 C581 1.389 . S
C581 C580 1.389 . S
C581 C582 1.387 . S
C582 H567 0.930 . S
C582 C577 1.390 . S
C582 C581 1.387 . S
H583 C595 0.930 . S
H584 C597 0.930 . S
H585 C598 0.930 . S
H586 C602 0.959 . S
H587 C602 0.959 . S
H588 C602 0.961 . S
H589 C603 0.960 . S
H590 C603 0.961 . S
H591 C603 0.959 . S
H592 C606 0.929 . S
H593 C607 0.931 . S
H594 C609 0.930 . S
C595 H583 0.930 . S
C595 C596 1.399 . S
C595 C600 1.399 . S
C596 C595 1.399 . S
C596 C597 1.376 . S
C597 H584 0.930 . S
C597 C596 1.376 . S
C597 C598 1.388 . S
C598 H585 0.930 . S
C598 C597 1.388 . S
C598 C599 1.390 . S
C599 C598 1.390 . S
C599 C600 1.394 . S
C599 C605 1.465 . S
C600 C595 1.399 . S
C600 C599 1.394 . S
C600 C601 1.516 . S
C601 C600 1.516 . S
C601 C602 1.502 . S
C601 C603 1.561 . S
C601 C604 1.526 . S
C602 H586 0.959 . S
C602 H587 0.959 . S
C602 H588 0.961 . S
C602 C601 1.502 . S
C603 H589 0.960 . S
C603 H590 0.961 . S
C603 H591 0.959 . S
C603 C601 1.561 . S
C604 C601 1.526 . S
C604 C605 1.396 . S
C604 C609 1.390 . S
C605 C599 1.465 . S
C605 C604 1.396 . S
C605 C606 1.399 . S
C606 H592 0.929 . S
C606 C605 1.399 . S
C606 C607 1.385 . S
C607 H593 0.931 . S
C607 C606 1.385 . S
C607 C608 1.389 . S
C608 C607 1.389 . S
C608 C609 1.387 . S
C609 H594 0.930 . S
C609 C604 1.390 . S
C609 C608 1.387 . S
H610 C622 0.930 . S
H611 C624 0.930 . S
H612 C625 0.930 . S
H613 C629 0.959 . S
H614 C629 0.959 . S
H615 C629 0.961 . S
H616 C630 0.960 . S
H617 C630 0.961 . S
H618 C630 0.959 . S
H619 C633 0.929 . S
H620 C634 0.931 . S
H621 C636 0.930 . S
C622 H610 0.930 . S
C622 C623 1.399 . S
C622 C627 1.399 . S
C623 C622 1.399 . S
C623 C624 1.376 . S
C624 H611 0.930 . S
C624 C623 1.376 . S
C624 C625 1.388 . S
C625 H612 0.930 . S
C625 C624 1.388 . S
C625 C626 1.390 . S
C626 C625 1.390 . S
C626 C627 1.394 . S
C626 C632 1.465 . S
C627 C622 1.399 . S
C627 C626 1.394 . S
C627 C628 1.516 . S
C628 C627 1.516 . S
C628 C629 1.502 . S
C628 C630 1.561 . S
C628 C631 1.526 . S
C629 H613 0.959 . S
C629 H614 0.959 . S
C629 H615 0.961 . S
C629 C628 1.502 . S
C630 H616 0.960 . S
C630 H617 0.961 . S
C630 H618 0.959 . S
C630 C628 1.561 . S
C631 C628 1.526 . S
C631 C632 1.396 . S
C631 C636 1.390 . S
C632 C626 1.465 . S
C632 C631 1.396 . S
C632 C633 1.399 . S
C633 H619 0.929 . S
C633 C632 1.399 . S
C633 C634 1.385 . S
C634 H620 0.931 . S
C634 C633 1.385 . S
C634 C635 1.389 . S
C635 C634 1.389 . S
C635 C636 1.387 . S
C636 H621 0.930 . S
C636 C631 1.390 . S
C636 C635 1.387 . S
H637 C649 0.930 . S
H638 C651 0.930 . S
H639 C652 0.930 . S
H640 C656 0.959 . S
H641 C656 0.959 . S
H642 C656 0.961 . S
H643 C657 0.960 . S
H644 C657 0.961 . S
H645 C657 0.959 . S
H646 C660 0.929 . S
H647 C661 0.931 . S
H648 C663 0.930 . S
C649 H637 0.930 . S
C649 C650 1.399 . S
C649 C654 1.399 . S
C650 C649 1.399 . S
C650 C651 1.376 . S
C651 H638 0.930 . S
C651 C650 1.376 . S
C651 C652 1.388 . S
C652 H639 0.930 . S
C652 C651 1.388 . S
C652 C653 1.390 . S
C653 C652 1.390 . S
C653 C654 1.394 . S
C653 C659 1.465 . S
C654 C649 1.399 . S
C654 C653 1.394 . S
C654 C655 1.516 . S
C655 C654 1.516 . S
C655 C656 1.502 . S
C655 C657 1.561 . S
C655 C658 1.526 . S
C656 H640 0.959 . S
C656 H641 0.959 . S
C656 H642 0.961 . S
C656 C655 1.502 . S
C657 H643 0.960 . S
C657 H644 0.961 . S
C657 H645 0.959 . S
C657 C655 1.561 . S
C658 C655 1.526 . S
C658 C659 1.396 . S
C658 C663 1.390 . S
C659 C653 1.465 . S
C659 C658 1.396 . S
C659 C660 1.399 . S
C660 H646 0.929 . S
C660 C659 1.399 . S
C660 C661 1.385 . S
C661 H647 0.931 . S
C661 C660 1.385 . S
C661 C662 1.389 . S
C662 C661 1.389 . S
C662 C663 1.387 . S
C663 H648 0.930 . S
C663 C658 1.390 . S
C663 C662 1.387 . S
H664 C676 0.930 . S
H665 C678 0.930 . S
H666 C679 0.930 . S
H667 C683 0.959 . S
H668 C683 0.959 . S
H669 C683 0.961 . S
H670 C684 0.960 . S
H671 C684 0.961 . S
H672 C684 0.959 . S
H673 C687 0.929 . S
H674 C688 0.931 . S
H675 C690 0.930 . S
C676 H664 0.930 . S
C676 C677 1.399 . S
C676 C681 1.399 . S
C677 C676 1.399 . S
C677 C678 1.376 . S
C678 H665 0.930 . S
C678 C677 1.376 . S
C678 C679 1.388 . S
C679 H666 0.930 . S
C679 C678 1.388 . S
C679 C680 1.390 . S
C680 C679 1.390 . S
C680 C681 1.394 . S
C680 C686 1.465 . S
C681 C676 1.399 . S
C681 C680 1.394 . S
C681 C682 1.516 . S
C682 C681 1.516 . S
C682 C683 1.502 . S
C682 C684 1.561 . S
C682 C685 1.526 . S
C683 H667 0.959 . S
C683 H668 0.959 . S
C683 H669 0.961 . S
C683 C682 1.502 . S
C684 H670 0.960 . S
C684 H671 0.961 . S
C684 H672 0.959 . S
C684 C682 1.561 . S
C685 C682 1.526 . S
C685 C686 1.396 . S
C685 C690 1.390 . S
C686 C680 1.465 . S
C686 C685 1.396 . S
C686 C687 1.399 . S
C687 H673 0.929 . S
C687 C686 1.399 . S
C687 C688 1.385 . S
C688 H674 0.931 . S
C688 C687 1.385 . S
C688 C689 1.389 . S
C689 C688 1.389 . S
C689 C690 1.387 . S
C690 H675 0.930 . S
C690 C685 1.390 . S
C690 C689 1.387 . S
H691 C703 0.930 . S
H692 C705 0.930 . S
H693 C706 0.930 . S
H694 C710 0.959 . S
H695 C710 0.959 . S
H696 C710 0.961 . S
H697 C711 0.960 . S
H698 C711 0.961 . S
H699 C711 0.959 . S
H700 C714 0.929 . S
H701 C715 0.931 . S
H702 C717 0.930 . S
C703 H691 0.930 . S
C703 C704 1.399 . S
C703 C708 1.399 . S
C704 C703 1.399 . S
C704 C705 1.376 . S
C705 H692 0.930 . S
C705 C704 1.376 . S
C705 C706 1.388 . S
C706 H693 0.930 . S
C706 C705 1.388 . S
C706 C707 1.390 . S
C707 C706 1.390 . S
C707 C708 1.394 . S
C707 C713 1.465 . S
C708 C703 1.399 . S
C708 C707 1.394 . S
C708 C709 1.516 . S
C709 C708 1.516 . S
C709 C710 1.502 . S
C709 C711 1.561 . S
C709 C712 1.526 . S
C710 H694 0.959 . S
C710 H695 0.959 . S
C710 H696 0.961 . S
C710 C709 1.502 . S
C711 H697 0.960 . S
C711 H698 0.961 . S
C711 H699 0.959 . S
C711 C709 1.561 . S
C712 C709 1.526 . S
C712 C713 1.396 . S
C712 C717 1.390 . S
C713 C707 1.465 . S
C713 C712 1.396 . S
C713 C714 1.399 . S
C714 H700 0.929 . S
C714 C713 1.399 . S
C714 C715 1.385 . S
C715 H701 0.931 . S
C715 C714 1.385 . S
C715 C716 1.389 . S
C716 C715 1.389 . S
C716 C717 1.387 . S
C717 H702 0.930 . S
C717 C712 1.390 . S
C717 C716 1.387 . S
H718 C730 0.930 . S
H719 C732 0.930 . S
H720 C733 0.930 . S
H721 C737 0.959 . S
H722 C737 0.959 . S
H723 C737 0.961 . S
H724 C738 0.960 . S
H725 C738 0.961 . S
H726 C738 0.959 . S
H727 C741 0.929 . S
H728 C742 0.931 . S
H729 C744 0.930 . S
C730 H718 0.930 . S
C730 C731 1.399 . S
C730 C735 1.399 . S
C731 C730 1.399 . S
C731 C732 1.376 . S
C732 H719 0.930 . S
C732 C731 1.376 . S
C732 C733 1.388 . S
C733 H720 0.930 . S
C733 C732 1.388 . S
C733 C734 1.390 . S
C734 C733 1.390 . S
C734 C735 1.394 . S
C734 C740 1.465 . S
C735 C730 1.399 . S
C735 C734 1.394 . S
C735 C736 1.516 . S
C736 C735 1.516 . S
C736 C737 1.502 . S
C736 C738 1.561 . S
C736 C739 1.526 . S
C737 H721 0.959 . S
C737 H722 0.959 . S
C737 H723 0.961 . S
C737 C736 1.502 . S
C738 H724 0.960 . S
C738 H725 0.961 . S
C738 H726 0.959 . S
C738 C736 1.561 . S
C739 C736 1.526 . S
C739 C740 1.396 . S
C739 C744 1.390 . S
C740 C734 1.465 . S
C740 C739 1.396 . S
C740 C741 1.399 . S
C741 H727 0.929 . S
C741 C740 1.399 . S
C741 C742 1.385 . S
C742 H728 0.931 . S
C742 C741 1.385 . S
C742 C743 1.389 . S
C743 C742 1.389 . S
C743 C744 1.387 . S
C744 H729 0.930 . S
C744 C739 1.390 . S
C744 C743 1.387 . S
H745 C757 0.930 . S
H746 C759 0.930 . S
H747 C760 0.930 . S
H748 C764 0.959 . S
H749 C764 0.959 . S
H750 C764 0.961 . S
H751 C765 0.960 . S
H752 C765 0.961 . S
H753 C765 0.959 . S
H754 C768 0.929 . S
H755 C769 0.931 . S
H756 C771 0.930 . S
C757 H745 0.930 . S
C757 C758 1.399 . S
C757 C762 1.399 . S
C758 C757 1.399 . S
C758 C759 1.376 . S
C759 H746 0.930 . S
C759 C758 1.376 . S
C759 C760 1.388 . S
C760 H747 0.930 . S
C760 C759 1.388 . S
C760 C761 1.390 . S
C761 C760 1.390 . S
C761 C762 1.394 . S
C761 C767 1.465 . S
C762 C757 1.399 . S
C762 C761 1.394 . S
C762 C763 1.516 . S
C763 C762 1.516 . S
C763 C764 1.502 . S
C763 C765 1.561 . S
C763 C766 1.526 . S
C764 H748 0.959 . S
C764 H749 0.959 . S
C764 H750 0.961 . S
C764 C763 1.502 . S
C765 H751 0.960 . S
C765 H752 0.961 . S
C765 H753 0.959 . S
C765 C763 1.561 . S
C766 C763 1.526 . S
C766 C767 1.396 . S
C766 C771 1.390 . S
C767 C761 1.465 . S
C767 C766 1.396 . S
C767 C768 1.399 . S
C768 H754 0.929 . S
C768 C767 1.399 . S
C768 C769 1.385 . S
C769 H755 0.931 . S
C769 C768 1.385 . S
C769 C770 1.389 . S
C770 C769 1.389 . S
C770 C771 1.387 . S
C771 H756 0.930 . S
C771 C766 1.390 . S
C771 C770 1.387 . S
H772 C784 0.930 . S
H773 C786 0.930 . S
H774 C787 0.930 . S
H775 C791 0.959 . S
H776 C791 0.959 . S
H777 C791 0.961 . S
H778 C792 0.960 . S
H779 C792 0.961 . S
H780 C792 0.959 . S
H781 C795 0.929 . S
H782 C796 0.931 . S
H783 C798 0.930 . S
C784 H772 0.930 . S
C784 C785 1.399 . S
C784 C789 1.399 . S
C785 C784 1.399 . S
C785 C786 1.376 . S
C786 H773 0.930 . S
C786 C785 1.376 . S
C786 C787 1.388 . S
C787 H774 0.930 . S
C787 C786 1.388 . S
C787 C788 1.390 . S
C788 C787 1.390 . S
C788 C789 1.394 . S
C788 C794 1.465 . S
C789 C784 1.399 . S
C789 C788 1.394 . S
C789 C790 1.516 . S
C790 C789 1.516 . S
C790 C791 1.502 . S
C790 C792 1.561 . S
C790 C793 1.526 . S
C791 H775 0.959 . S
C791 H776 0.959 . S
C791 H777 0.961 . S
C791 C790 1.502 . S
C792 H778 0.960 . S
C792 H779 0.961 . S
C792 H780 0.959 . S
C792 C790 1.561 . S
C793 C790 1.526 . S
C793 C794 1.396 . S
C793 C798 1.390 . S
C794 C788 1.465 . S
C794 C793 1.396 . S
C794 C795 1.399 . S
C795 H781 0.929 . S
C795 C794 1.399 . S
C795 C796 1.385 . S
C796 H782 0.931 . S
C796 C795 1.385 . S
C796 C797 1.389 . S
C797 C796 1.389 . S
C797 C798 1.387 . S
C798 H783 0.930 . S
C798 C793 1.390 . S
C798 C797 1.387 . S
H799 C811 0.930 . S
H800 C813 0.930 . S
H801 C814 0.930 . S
H802 C818 0.959 . S
H803 C818 0.959 . S
H804 C818 0.961 . S
H805 C819 0.960 . S
H806 C819 0.961 . S
H807 C819 0.959 . S
H808 C822 0.929 . S
H809 C823 0.931 . S
H810 C825 0.930 . S
C811 H799 0.930 . S
C811 C812 1.399 . S
C811 C816 1.399 . S
C812 C811 1.399 . S
C812 C813 1.376 . S
C813 H800 0.930 . S
C813 C812 1.376 . S
C813 C814 1.388 . S
C814 H801 0.930 . S
C814 C813 1.388 . S
C814 C815 1.390 . S
C815 C814 1.390 . S
C815 C816 1.394 . S
C815 C821 1.465 . S
C816 C811 1.399 . S
C816 C815 1.394 . S
C816 C817 1.516 . S
C817 C816 1.516 . S
C817 C818 1.502 . S
C817 C819 1.561 . S
C817 C820 1.526 . S
C818 H802 0.959 . S
C818 H803 0.959 . S
C818 H804 0.961 . S
C818 C817 1.502 . S
C819 H805 0.960 . S
C819 H806 0.961 . S
C819 H807 0.959 . S
C819 C817 1.561 . S
C820 C817 1.526 . S
C820 C821 1.396 . S
C820 C825 1.390 . S
C821 C815 1.465 . S
C821 C820 1.396 . S
C821 C822 1.399 . S
C822 H808 0.929 . S
C822 C821 1.399 . S
C822 C823 1.385 . S
C823 H809 0.931 . S
C823 C822 1.385 . S
C823 C824 1.389 . S
C824 C823 1.389 . S
C824 C825 1.387 . S
C825 H810 0.930 . S
C825 C820 1.390 . S
C825 C824 1.387 . S
H826 C838 0.930 . S
H827 C840 0.930 . S
H828 C841 0.930 . S
H829 C845 0.959 . S
H830 C845 0.959 . S
H831 C845 0.961 . S
H832 C846 0.960 . S
H833 C846 0.961 . S
H834 C846 0.959 . S
H835 C849 0.929 . S
H836 C850 0.931 . S
H837 C852 0.930 . S
C838 H826 0.930 . S
C838 C839 1.399 . S
C838 C843 1.399 . S
C839 C838 1.399 . S
C839 C840 1.376 . S
C840 H827 0.930 . S
C840 C839 1.376 . S
C840 C841 1.388 . S
C841 H828 0.930 . S
C841 C840 1.388 . S
C841 C842 1.390 . S
C842 C841 1.390 . S
C842 C843 1.394 . S
C842 C848 1.465 . S
C843 C838 1.399 . S
C843 C842 1.394 . S
C843 C844 1.516 . S
C844 C843 1.516 . S
C844 C845 1.502 . S
C844 C846 1.561 . S
C844 C847 1.526 . S
C845 H829 0.959 . S
C845 H830 0.959 . S
C845 H831 0.961 . S
C845 C844 1.502 . S
C846 H832 0.960 . S
C846 H833 0.961 . S
C846 H834 0.959 . S
C846 C844 1.561 . S
C847 C844 1.526 . S
C847 C848 1.396 . S
C847 C852 1.390 . S
C848 C842 1.465 . S
C848 C847 1.396 . S
C848 C849 1.399 . S
C849 H835 0.929 . S
C849 C848 1.399 . S
C849 C850 1.385 . S
C850 H836 0.931 . S
C850 C849 1.385 . S
C850 C851 1.389 . S
C851 C850 1.389 . S
C851 C852 1.387 . S
C852 H837 0.930 . S
C852 C847 1.390 . S
C852 C851 1.387 . S
H853 C865 0.930 . S
H854 C867 0.930 . S
H855 C868 0.930 . S
H856 C872 0.959 . S
H857 C872 0.959 . S
H858 C872 0.961 . S
H859 C873 0.960 . S
H860 C873 0.961 . S
H861 C873 0.959 . S
H862 C876 0.929 . S
H863 C877 0.931 . S
H864 C879 0.930 . S
C865 H853 0.930 . S
C865 C866 1.399 . S
C865 C870 1.399 . S
C866 C865 1.399 . S
C866 C867 1.376 . S
C867 H854 0.930 . S
C867 C866 1.376 . S
C867 C868 1.388 . S
C868 H855 0.930 . S
C868 C867 1.388 . S
C868 C869 1.390 . S
C869 C868 1.390 . S
C869 C870 1.394 . S
C869 C875 1.465 . S
C870 C865 1.399 . S
C870 C869 1.394 . S
C870 C871 1.516 . S
C871 C870 1.516 . S
C871 C872 1.502 . S
C871 C873 1.561 . S
C871 C874 1.526 . S
C872 H856 0.959 . S
C872 H857 0.959 . S
C872 H858 0.961 . S
C872 C871 1.502 . S
C873 H859 0.960 . S
C873 H860 0.961 . S
C873 H861 0.959 . S
C873 C871 1.561 . S
C874 C871 1.526 . S
C874 C875 1.396 . S
C874 C879 1.390 . S
C875 C869 1.465 . S
C875 C874 1.396 . S
C875 C876 1.399 . S
C876 H862 0.929 . S
C876 C875 1.399 . S
C876 C877 1.385 . S
C877 H863 0.931 . S
C877 C876 1.385 . S
C877 C878 1.389 . S
C878 C877 1.389 . S
C878 C879 1.387 . S
C879 H864 0.930 . S
C879 C874 1.390 . S
C879 C878 1.387 . S
H880 C892 0.930 . S
H881 C894 0.930 . S
H882 C895 0.930 . S
H883 C899 0.959 . S
H884 C899 0.959 . S
H885 C899 0.961 . S
H886 C900 0.960 . S
H887 C900 0.961 . S
H888 C900 0.959 . S
H889 C903 0.929 . S
H890 C904 0.931 . S
H891 C906 0.930 . S
C892 H880 0.930 . S
C892 C893 1.399 . S
C892 C897 1.399 . S
C893 C892 1.399 . S
C893 C894 1.376 . S
C894 H881 0.930 . S
C894 C893 1.376 . S
C894 C895 1.388 . S
C895 H882 0.930 . S
C895 C894 1.388 . S
C895 C896 1.390 . S
C896 C895 1.390 . S
C896 C897 1.394 . S
C896 C902 1.465 . S
C897 C892 1.399 . S
C897 C896 1.394 . S
C897 C898 1.516 . S
C898 C897 1.516 . S
C898 C899 1.502 . S
C898 C900 1.561 . S
C898 C901 1.526 . S
C899 H883 0.959 . S
C899 H884 0.959 . S
C899 H885 0.961 . S
C899 C898 1.502 . S
C900 H886 0.960 . S
C900 H887 0.961 . S
C900 H888 0.959 . S
C900 C898 1.561 . S
C901 C898 1.526 . S
C901 C902 1.396 . S
C901 C906 1.390 . S
C902 C896 1.465 . S
C902 C901 1.396 . S
C902 C903 1.399 . S
C903 H889 0.929 . S
C903 C902 1.399 . S
C903 C904 1.385 . S
C904 H890 0.931 . S
C904 C903 1.385 . S
C904 C905 1.389 . S
C905 C904 1.389 . S
C905 C906 1.387 . S
C906 H891 0.930 . S
C906 C901 1.390 . S
C906 C905 1.387 . S
H907 C919 0.930 . S
H908 C921 0.930 . S
H909 C922 0.930 . S
H910 C926 0.959 . S
H911 C926 0.959 . S
H912 C926 0.961 . S
H913 C927 0.960 . S
H914 C927 0.961 . S
H915 C927 0.959 . S
H916 C930 0.929 . S
H917 C931 0.931 . S
H918 C933 0.930 . S
C919 H907 0.930 . S
C919 C920 1.399 . S
C919 C924 1.399 . S
C920 C919 1.399 . S
C920 C921 1.376 . S
C921 H908 0.930 . S
C921 C920 1.376 . S
C921 C922 1.388 . S
C922 H909 0.930 . S
C922 C921 1.388 . S
C922 C923 1.390 . S
C923 C922 1.390 . S
C923 C924 1.394 . S
C923 C929 1.465 . S
C924 C919 1.399 . S
C924 C923 1.394 . S
C924 C925 1.516 . S
C925 C924 1.516 . S
C925 C926 1.502 . S
C925 C927 1.561 . S
C925 C928 1.526 . S
C926 H910 0.959 . S
C926 H911 0.959 . S
C926 H912 0.961 . S
C926 C925 1.502 . S
C927 H913 0.960 . S
C927 H914 0.961 . S
C927 H915 0.959 . S
C927 C925 1.561 . S
C928 C925 1.526 . S
C928 C929 1.396 . S
C928 C933 1.390 . S
C929 C923 1.465 . S
C929 C928 1.396 . S
C929 C930 1.399 . S
C930 H916 0.929 . S
C930 C929 1.399 . S
C930 C931 1.385 . S
C931 H917 0.931 . S
C931 C930 1.385 . S
C931 C932 1.389 . S
C932 C931 1.389 . S
C932 C933 1.387 . S
C933 H918 0.930 . S
C933 C928 1.390 . S
C933 C932 1.387 . S
H934 C946 0.930 . S
H935 C948 0.930 . S
H936 C949 0.930 . S
H937 C953 0.959 . S
H938 C953 0.959 . S
H939 C953 0.961 . S
H940 C954 0.960 . S
H941 C954 0.961 . S
H942 C954 0.959 . S
H943 C957 0.929 . S
H944 C958 0.931 . S
H945 C960 0.930 . S
C946 H934 0.930 . S
C946 C947 1.399 . S
C946 C951 1.399 . S
C947 C946 1.399 . S
C947 C948 1.376 . S
C948 H935 0.930 . S
C948 C947 1.376 . S
C948 C949 1.388 . S
C949 H936 0.930 . S
C949 C948 1.388 . S
C949 C950 1.390 . S
C950 C949 1.390 . S
C950 C951 1.394 . S
C950 C956 1.465 . S
C951 C946 1.399 . S
C951 C950 1.394 . S
C951 C952 1.516 . S
C952 C951 1.516 . S
C952 C953 1.502 . S
C952 C954 1.561 . S
C952 C955 1.526 . S
C953 H937 0.959 . S
C953 H938 0.959 . S
C953 H939 0.961 . S
C953 C952 1.502 . S
C954 H940 0.960 . S
C954 H941 0.961 . S
C954 H942 0.959 . S
C954 C952 1.561 . S
C955 C952 1.526 . S
C955 C956 1.396 . S
C955 C960 1.390 . S
C956 C950 1.465 . S
C956 C955 1.396 . S
C956 C957 1.399 . S
C957 H943 0.929 . S
C957 C956 1.399 . S
C957 C958 1.385 . S
C958 H944 0.931 . S
C958 C957 1.385 . S
C958 C959 1.389 . S
C959 C958 1.389 . S
C959 C960 1.387 . S
C960 H945 0.930 . S
C960 C955 1.390 . S
C960 C959 1.387 . S
H961 C973 0.930 . S
H962 C975 0.930 . S
H963 C976 0.930 . S
H964 C980 0.959 . S
H965 C980 0.959 . S
H966 C980 0.961 . S
H967 C981 0.960 . S
H968 C981 0.961 . S
H969 C981 0.959 . S
H970 C984 0.929 . S
H971 C985 0.931 . S
H972 C987 0.930 . S
C973 H961 0.930 . S
C973 C974 1.399 . S
C973 C978 1.399 . S
C974 C973 1.399 . S
C974 C975 1.376 . S
C975 H962 0.930 . S
C975 C974 1.376 . S
C975 C976 1.388 . S
C976 H963 0.930 . S
C976 C975 1.388 . S
C976 C977 1.390 . S
C977 C976 1.390 . S
C977 C978 1.394 . S
C977 C983 1.465 . S
C978 C973 1.399 . S
C978 C977 1.394 . S
C978 C979 1.516 . S
C979 C978 1.516 . S
C979 C980 1.502 . S
C979 C981 1.561 . S
C979 C982 1.526 . S
C980 H964 0.959 . S
C980 H965 0.959 . S
C980 H966 0.961 . S
C980 C979 1.502 . S
C981 H967 0.960 . S
C981 H968 0.961 . S
C981 H969 0.959 . S
C981 C979 1.561 . S
C982 C979 1.526 . S
C982 C983 1.396 . S
C982 C987 1.390 . S
C983 C977 1.465 . S
C983 C982 1.396 . S
C983 C984 1.399 . S
C984 H970 0.929 . S
C984 C983 1.399 . S
C984 C985 1.385 . S
C985 H971 0.931 . S
C985 C984 1.385 . S
C985 C986 1.389 . S
C986 C985 1.389 . S
C986 C987 1.387 . S
C987 H972 0.930 . S
C987 C982 1.390 . S
C987 C986 1.387 . S
H988 C1000 0.930 . S
H989 C1002 0.930 . S
H990 C1003 0.930 . S
H991 C1007 0.959 . S
H992 C1007 0.959 . S
H993 C1007 0.961 . S
H994 C1008 0.960 . S
H995 C1008 0.961 . S
H996 C1008 0.959 . S
H997 C1011 0.929 . S
H998 C1012 0.931 . S
H999 C1014 0.930 . S
C1000 H988 0.930 . S
C1000 C1001 1.399 . S
C1000 C1005 1.399 . S
C1001 C1000 1.399 . S
C1001 C1002 1.376 . S
C1002 H989 0.930 . S
C1002 C1001 1.376 . S
C1002 C1003 1.388 . S
C1003 H990 0.930 . S
C1003 C1002 1.388 . S
C1003 C1004 1.390 . S
C1004 C1003 1.390 . S
C1004 C1005 1.394 . S
C1004 C1010 1.465 . S
C1005 C1000 1.399 . S
C1005 C1004 1.394 . S
C1005 C1006 1.516 . S
C1006 C1005 1.516 . S
C1006 C1007 1.502 . S
C1006 C1008 1.561 . S
C1006 C1009 1.526 . S
C1007 H991 0.959 . S
C1007 H992 0.959 . S
C1007 H993 0.961 . S
C1007 C1006 1.502 . S
C1008 H994 0.960 . S
C1008 H995 0.961 . S
C1008 H996 0.959 . S
C1008 C1006 1.561 . S
C1009 C1006 1.526 . S
C1009 C1010 1.396 . S
C1009 C1014 1.390 . S
C1010 C1004 1.465 . S
C1010 C1009 1.396 . S
C1010 C1011 1.399 . S
C1011 H997 0.929 . S
C1011 C1010 1.399 . S
C1011 C1012 1.385 . S
C1012 H998 0.931 . S
C1012 C1011 1.385 . S
C1012 C1013 1.389 . S
C1013 C1012 1.389 . S
C1013 C1014 1.387 . S
C1014 H999 0.930 . S
C1014 C1009 1.390 . S
C1014 C1013 1.387 . S
H1015 C1027 0.930 . S
H1016 C1029 0.930 . S
H1017 C1030 0.930 . S
H1018 C1034 0.959 . S
H1019 C1034 0.959 . S
H1020 C1034 0.961 . S
H1021 C1035 0.960 . S
H1022 C1035 0.961 . S
H1023 C1035 0.959 . S
H1024 C1038 0.929 . S
H1025 C1039 0.931 . S
H1026 C1041 0.930 . S
C1027 H1015 0.930 . S
C1027 C1028 1.399 . S
C1027 C1032 1.399 . S
C1028 C1027 1.399 . S
C1028 C1029 1.376 . S
C1029 H1016 0.930 . S
C1029 C1028 1.376 . S
C1029 C1030 1.388 . S
C1030 H1017 0.930 . S
C1030 C1029 1.388 . S
C1030 C1031 1.390 . S
C1031 C1030 1.390 . S
C1031 C1032 1.394 . S
C1031 C1037 1.465 . S
C1032 C1027 1.399 . S
C1032 C1031 1.394 . S
C1032 C1033 1.516 . S
C1033 C1032 1.516 . S
C1033 C1034 1.502 . S
C1033 C1035 1.561 . S
C1033 C1036 1.526 . S
C1034 H1018 0.959 . S
C1034 H1019 0.959 . S
C1034 H1020 0.961 . S
C1034 C1033 1.502 . S
C1035 H1021 0.960 . S
C1035 H1022 0.961 . S
C1035 H1023 0.959 . S
C1035 C1033 1.561 . S
C1036 C1033 1.526 . S
C1036 C1037 1.396 . S
C1036 C1041 1.390 . S
C1037 C1031 1.465 . S
C1037 C1036 1.396 . S
C1037 C1038 1.399 . S
C1038 H1024 0.929 . S
C1038 C1037 1.399 . S
C1038 C1039 1.385 . S
C1039 H1025 0.931 . S
C1039 C1038 1.385 . S
C1039 C1040 1.389 . S
C1040 C1039 1.389 . S
C1040 C1041 1.387 . S
C1041 H1026 0.930 . S
C1041 C1036 1.390 . S
C1041 C1040 1.387 . S
H1042 C1054 0.930 . S
H1043 C1056 0.930 . S
H1044 C1057 0.930 . S
H1045 C1061 0.959 . S
H1046 C1061 0.959 . S
H1047 C1061 0.961 . S
H1048 C1062 0.960 . S
H1049 C1062 0.961 . S
H1050 C1062 0.959 . S
H1051 C1065 0.929 . S
H1052 C1066 0.931 . S
H1053 C1068 0.930 . S
C1054 H1042 0.930 . S
C1054 C1055 1.399 . S
C1054 C1059 1.399 . S
C1055 C1054 1.399 . S
C1055 C1056 1.376 . S
C1056 H1043 0.930 . S
C1056 C1055 1.376 . S
C1056 C1057 1.388 . S
C1057 H1044 0.930 . S
C1057 C1056 1.388 . S
C1057 C1058 1.390 . S
C1058 C1057 1.390 . S
C1058 C1059 1.394 . S
C1058 C1064 1.465 . S
C1059 C1054 1.399 . S
C1059 C1058 1.394 . S
C1059 C1060 1.516 . S
C1060 C1059 1.516 . S
C1060 C1061 1.502 . S
C1060 C1062 1.561 . S
C1060 C1063 1.526 . S
C1061 H1045 0.959 . S
C1061 H1046 0.959 . S
C1061 H1047 0.961 . S
C1061 C1060 1.502 . S
C1062 H1048 0.960 . S
C1062 H1049 0.961 . S
C1062 H1050 0.959 . S
C1062 C1060 1.561 . S
C1063 C1060 1.526 . S
C1063 C1064 1.396 . S
C1063 C1068 1.390 . S
C1064 C1058 1.465 . S
C1064 C1063 1.396 . S
C1064 C1065 1.399 . S
C1065 H1051 0.929 . S
C1065 C1064 1.399 . S
C1065 C1066 1.385 . S
C1066 H1052 0.931 . S
C1066 C1065 1.385 . S
C1066 C1067 1.389 . S
C1067 C1066 1.389 . S
C1067 C1068 1.387 . S
C1068 H1053 0.930 . S
C1068 C1063 1.390 . S
C1068 C1067 1.387 . S
H1069 C1081 0.930 . S
H1070 C1083 0.930 . S
H1071 C1084 0.930 . S
H1072 C1088 0.959 . S
H1073 C1088 0.959 . S
H1074 C1088 0.961 . S
H1075 C1089 0.960 . S
H1076 C1089 0.961 . S
H1077 C1089 0.959 . S
H1078 C1092 0.929 . S
H1079 C1093 0.931 . S
H1080 C1095 0.930 . S
C1081 H1069 0.930 . S
C1081 C1082 1.399 . S
C1081 C1086 1.399 . S
C1082 C1081 1.399 . S
C1082 C1083 1.376 . S
C1083 H1070 0.930 . S
C1083 C1082 1.376 . S
C1083 C1084 1.388 . S
C1084 H1071 0.930 . S
C1084 C1083 1.388 . S
C1084 C1085 1.390 . S
C1085 C1084 1.390 . S
C1085 C1086 1.394 . S
C1085 C1091 1.465 . S
C1086 C1081 1.399 . S
C1086 C1085 1.394 . S
C1086 C1087 1.516 . S
C1087 C1086 1.516 . S
C1087 C1088 1.502 . S
C1087 C1089 1.561 . S
C1087 C1090 1.526 . S
C1088 H1072 0.959 . S
C1088 H1073 0.959 . S
C1088 H1074 0.961 . S
C1088 C1087 1.502 . S
C1089 H1075 0.960 . S
C1089 H1076 0.961 . S
C1089 H1077 0.959 . S
C1089 C1087 1.561 . S
C1090 C1087 1.526 . S
C1090 C1091 1.396 . S
C1090 C1095 1.390 . S
C1091 C1085 1.465 . S
C1091 C1090 1.396 . S
C1091 C1092 1.399 . S
C1092 H1078 0.929 . S
C1092 C1091 1.399 . S
C1092 C1093 1.385 . S
C1093 H1079 0.931 . S
C1093 C1092 1.385 . S
C1093 C1094 1.389 . S
C1094 C1093 1.389 . S
C1094 C1095 1.387 . S
C1095 H1080 0.930 . S
C1095 C1090 1.390 . S
C1095 C1094 1.387 . S
H1096 C1108 0.930 . S
H1097 C1110 0.930 . S
H1098 C1111 0.930 . S
H1099 C1115 0.959 . S
H1100 C1115 0.959 . S
H1101 C1115 0.961 . S
H1102 C1116 0.960 . S
H1103 C1116 0.961 . S
H1104 C1116 0.959 . S
H1105 C1119 0.929 . S
H1106 C1120 0.931 . S
H1107 C1122 0.930 . S
C1108 H1096 0.930 . S
C1108 C1109 1.399 . S
C1108 C1113 1.399 . S
C1109 C1108 1.399 . S
C1109 C1110 1.376 . S
C1110 H1097 0.930 . S
C1110 C1109 1.376 . S
C1110 C1111 1.388 . S
C1111 H1098 0.930 . S
C1111 C1110 1.388 . S
C1111 C1112 1.390 . S
C1112 C1111 1.390 . S
C1112 C1113 1.394 . S
C1112 C1118 1.465 . S
C1113 C1108 1.399 . S
C1113 C1112 1.394 . S
C1113 C1114 1.516 . S
C1114 C1113 1.516 . S
C1114 C1115 1.502 . S
C1114 C1116 1.561 . S
C1114 C1117 1.526 . S
C1115 H1099 0.959 . S
C1115 H1100 0.959 . S
C1115 H1101 0.961 . S
C1115 C1114 1.502 . S
C1116 H1102 0.960 . S
C1116 H1103 0.961 . S
C1116 H1104 0.959 . S
C1116 C1114 1.561 . S
C1117 C1114 1.526 . S
C1117 C1118 1.396 . S
C1117 C1122 1.390 . S
C1118 C1112 1.465 . S
C1118 C1117 1.396 . S
C1118 C1119 1.399 . S
C1119 H1105 0.929 . S
C1119 C1118 1.399 . S
C1119 C1120 1.385 . S
C1120 H1106 0.931 . S
C1120 C1119 1.385 . S
C1120 C1121 1.389 . S
C1121 C1120 1.389 . S
C1121 C1122 1.387 . S
C1122 H1107 0.930 . S
C1122 C1117 1.390 . S
C1122 C1121 1.387 . S
H1123 C1135 0.930 . S
H1124 C1137 0.930 . S
H1125 C1138 0.930 . S
H1126 C1142 0.959 . S
H1127 C1142 0.959 . S
H1128 C1142 0.961 . S
H1129 C1143 0.960 . S
H1130 C1143 0.961 . S
H1131 C1143 0.959 . S
H1132 C1146 0.929 . S
H1133 C1147 0.931 . S
H1134 C1149 0.930 . S
C1135 H1123 0.930 . S
C1135 C1136 1.399 . S
C1135 C1140 1.399 . S
C1136 C1135 1.399 . S
C1136 C1137 1.376 . S
C1137 H1124 0.930 . S
C1137 C1136 1.376 . S
C1137 C1138 1.388 . S
C1138 H1125 0.930 . S
C1138 C1137 1.388 . S
C1138 C1139 1.390 . S
C1139 C1138 1.390 . S
C1139 C1140 1.394 . S
C1139 C1145 1.465 . S
C1140 C1135 1.399 . S
C1140 C1139 1.394 . S
C1140 C1141 1.516 . S
C1141 C1140 1.516 . S
C1141 C1142 1.502 . S
C1141 C1143 1.561 . S
C1141 C1144 1.526 . S
C1142 H1126 0.959 . S
C1142 H1127 0.959 . S
C1142 H1128 0.961 . S
C1142 C1141 1.502 . S
C1143 H1129 0.960 . S
C1143 H1130 0.961 . S
C1143 H1131 0.959 . S
C1143 C1141 1.561 . S
C1144 C1141 1.526 . S
C1144 C1145 1.396 . S
C1144 C1149 1.390 . S
C1145 C1139 1.465 . S
C1145 C1144 1.396 . S
C1145 C1146 1.399 . S
C1146 H1132 0.929 . S
C1146 C1145 1.399 . S
C1146 C1147 1.385 . S
C1147 H1133 0.931 . S
C1147 C1146 1.385 . S
C1147 C1148 1.389 . S
C1148 C1147 1.389 . S
C1148 C1149 1.387 . S
C1149 H1134 0.930 . S
C1149 C1144 1.390 . S
C1149 C1148 1.387 . S
H1150 C1162 0.930 . S
H1151 C1164 0.930 . S
H1152 C1165 0.930 . S
H1153 C1169 0.959 . S
H1154 C1169 0.959 . S
H1155 C1169 0.961 . S
H1156 C1170 0.960 . S
H1157 C1170 0.961 . S
H1158 C1170 0.959 . S
H1159 C1173 0.929 . S
H1160 C1174 0.931 . S
H1161 C1176 0.930 . S
C1162 H1150 0.930 . S
C1162 C1163 1.399 . S
C1162 C1167 1.399 . S
C1163 C1162 1.399 . S
C1163 C1164 1.376 . S
C1164 H1151 0.930 . S
C1164 C1163 1.376 . S
C1164 C1165 1.388 . S
C1165 H1152 0.930 . S
C1165 C1164 1.388 . S
C1165 C1166 1.390 . S
C1166 C1165 1.390 . S
C1166 C1167 1.394 . S
C1166 C1172 1.465 . S
C1167 C1162 1.399 . S
C1167 C1166 1.394 . S
C1167 C1168 1.516 . S
C1168 C1167 1.516 . S
C1168 C1169 1.502 . S
C1168 C1170 1.561 . S
C1168 C1171 1.526 . S
C1169 H1153 0.959 . S
C1169 H1154 0.959 . S
C1169 H1155 0.961 . S
C1169 C1168 1.502 . S
C1170 H1156 0.960 . S
C1170 H1157 0.961 . S
C1170 H1158 0.959 . S
C1170 C1168 1.561 . S
C1171 C1168 1.526 . S
C1171 C1172 1.396 . S
C1171 C1176 1.390 . S
C1172 C1166 1.465 . S
C1172 C1171 1.396 . S
C1172 C1173 1.399 . S
C1173 H1159 0.929 . S
C1173 C1172 1.399 . S
C1173 C1174 1.385 . S
C1174 H1160 0.931 . S
C1174 C1173 1.385 . S
C1174 C1175 1.389 . S
C1175 C1174 1.389 . S
C1175 C1176 1.387 . S
C1176 H1161 0.930 . S
C1176 C1171 1.390 . S
C1176 C1175 1.387 . S
H1177 C1189 0.930 . S
H1178 C1191 0.930 . S
H1179 C1192 0.930 . S
H1180 C1196 0.959 . S
H1181 C1196 0.959 . S
H1182 C1196 0.961 . S
H1183 C1197 0.960 . S
H1184 C1197 0.961 . S
H1185 C1197 0.959 . S
H1186 C1200 0.929 . S
H1187 C1201 0.931 . S
H1188 C1203 0.930 . S
C1189 H1177 0.930 . S
C1189 C1190 1.399 . S
C1189 C1194 1.399 . S
C1190 C1189 1.399 . S
C1190 C1191 1.376 . S
C1191 H1178 0.930 . S
C1191 C1190 1.376 . S
C1191 C1192 1.388 . S
C1192 H1179 0.930 . S
C1192 C1191 1.388 . S
C1192 C1193 1.390 . S
C1193 C1192 1.390 . S
C1193 C1194 1.394 . S
C1193 C1199 1.465 . S
C1194 C1189 1.399 . S
C1194 C1193 1.394 . S
C1194 C1195 1.516 . S
C1195 C1194 1.516 . S
C1195 C1196 1.502 . S
C1195 C1197 1.561 . S
C1195 C1198 1.526 . S
C1196 H1180 0.959 . S
C1196 H1181 0.959 . S
C1196 H1182 0.961 . S
C1196 C1195 1.502 . S
C1197 H1183 0.960 . S
C1197 H1184 0.961 . S
C1197 H1185 0.959 . S
C1197 C1195 1.561 . S
C1198 C1195 1.526 . S
C1198 C1199 1.396 . S
C1198 C1203 1.390 . S
C1199 C1193 1.465 . S
C1199 C1198 1.396 . S
C1199 C1200 1.399 . S
C1200 H1186 0.929 . S
C1200 C1199 1.399 . S
C1200 C1201 1.385 . S
C1201 H1187 0.931 . S
C1201 C1200 1.385 . S
C1201 C1202 1.389 . S
C1202 C1201 1.389 . S
C1202 C1203 1.387 . S
C1203 H1188 0.930 . S
C1203 C1198 1.390 . S
C1203 C1202 1.387 . S
H1204 C1216 0.930 . S
H1205 C1218 0.930 . S
H1206 C1219 0.930 . S
H1207 C1223 0.959 . S
H1208 C1223 0.959 . S
H1209 C1223 0.961 . S
H1210 C1224 0.960 . S
H1211 C1224 0.961 . S
H1212 C1224 0.959 . S
H1213 C1227 0.929 . S
H1214 C1228 0.931 . S
H1215 C1230 0.930 . S
C1216 H1204 0.930 . S
C1216 C1217 1.399 . S
C1216 C1221 1.399 . S
C1217 C1216 1.399 . S
C1217 C1218 1.376 . S
C1218 H1205 0.930 . S
C1218 C1217 1.376 . S
C1218 C1219 1.388 . S
C1219 H1206 0.930 . S
C1219 C1218 1.388 . S
C1219 C1220 1.390 . S
C1220 C1219 1.390 . S
C1220 C1221 1.394 . S
C1220 C1226 1.465 . S
C1221 C1216 1.399 . S
C1221 C1220 1.394 . S
C1221 C1222 1.516 . S
C1222 C1221 1.516 . S
C1222 C1223 1.502 . S
C1222 C1224 1.561 . S
C1222 C1225 1.526 . S
C1223 H1207 0.959 . S
C1223 H1208 0.959 . S
C1223 H1209 0.961 . S
C1223 C1222 1.502 . S
C1224 H1210 0.960 . S
C1224 H1211 0.961 . S
C1224 H1212 0.959 . S
C1224 C1222 1.561 . S
C1225 C1222 1.526 . S
C1225 C1226 1.396 . S
C1225 C1230 1.390 . S
C1226 C1220 1.465 . S
C1226 C1225 1.396 . S
C1226 C1227 1.399 . S
C1227 H1213 0.929 . S
C1227 C1226 1.399 . S
C1227 C1228 1.385 . S
C1228 H1214 0.931 . S
C1228 C1227 1.385 . S
C1228 C1229 1.389 . S
C1229 C1228 1.389 . S
C1229 C1230 1.387 . S
C1230 H1215 0.930 . S
C1230 C1225 1.390 . S
C1230 C1229 1.387 . S
H1231 C1243 0.930 . S
H1232 C1245 0.930 1_455 S
H1233 C1246 0.930 . S
H1234 C1250 0.959 . S
H1235 C1250 0.959 . S
H1236 C1250 0.961 . S
H1237 C1251 0.960 . S
H1238 C1251 0.961 . S
H1239 C1251 0.959 . S
H1240 C1254 0.929 . S
H1241 C1255 0.931 . S
H1242 C1257 0.930 . S
C1243 H1231 0.930 . S
C1243 C1244 1.399 . S
C1243 C1248 1.399 . S
C1244 C1243 1.399 . S
C1244 C1245 1.376 . S
C1245 H1232 0.930 1_655 S
C1245 C1244 1.376 . S
C1245 C1246 1.388 . S
C1246 H1233 0.930 . S
C1246 C1245 1.388 . S
C1246 C1247 1.390 . S
C1247 C1246 1.390 . S
C1247 C1248 1.394 . S
C1247 C1253 1.465 . S
C1248 C1243 1.399 . S
C1248 C1247 1.394 . S
C1248 C1249 1.516 . S
C1249 C1248 1.516 . S
C1249 C1250 1.502 . S
C1249 C1251 1.561 . S
C1249 C1252 1.526 . S
C1250 H1234 0.959 . S
C1250 H1235 0.959 . S
C1250 H1236 0.961 . S
C1250 C1249 1.502 . S
C1251 H1237 0.960 . S
C1251 H1238 0.961 . S
C1251 H1239 0.959 . S
C1251 C1249 1.561 . S
C1252 C1249 1.526 . S
C1252 C1253 1.396 . S
C1252 C1257 1.390 . S
C1253 C1247 1.465 . S
C1253 C1252 1.396 . S
C1253 C1254 1.399 . S
C1254 H1240 0.929 . S
C1254 C1253 1.399 . S
C1254 C1255 1.385 . S
C1255 H1241 0.931 . S
C1255 C1254 1.385 . S
C1255 C1256 1.389 . S
C1256 C1255 1.389 . S
C1256 C1257 1.387 . S
C1257 H1242 0.930 . S
C1257 C1252 1.390 . S
C1257 C1256 1.387 . S
H1258 C1270 0.930 . S
H1259 C1272 0.930 . S
H1260 C1273 0.930 . S
H1261 C1277 0.959 . S
H1262 C1277 0.959 . S
H1263 C1277 0.961 . S
H1264 C1278 0.960 . S
H1265 C1278 0.961 . S
H1266 C1278 0.959 . S
H1267 C1281 0.929 . S
H1268 C1282 0.931 . S
H1269 C1284 0.930 . S
C1270 H1258 0.930 . S
C1270 C1271 1.399 . S
C1270 C1275 1.399 . S
C1271 C1270 1.399 . S
C1271 C1272 1.376 . S
C1272 H1259 0.930 . S
C1272 C1271 1.376 . S
C1272 C1273 1.388 . S
C1273 H1260 0.930 . S
C1273 C1272 1.388 . S
C1273 C1274 1.390 . S
C1274 C1273 1.390 . S
C1274 C1275 1.394 . S
C1274 C1280 1.465 . S
C1275 C1270 1.399 . S
C1275 C1274 1.394 . S
C1275 C1276 1.516 . S
C1276 C1275 1.516 . S
C1276 C1277 1.502 . S
C1276 C1278 1.561 . S
C1276 C1279 1.526 . S
C1277 H1261 0.959 . S
C1277 H1262 0.959 . S
C1277 H1263 0.961 . S
C1277 C1276 1.502 . S
C1278 H1264 0.960 . S
C1278 H1265 0.961 . S
C1278 H1266 0.959 . S
C1278 C1276 1.561 . S
C1279 C1276 1.526 . S
C1279 C1280 1.396 . S
C1279 C1284 1.390 . S
C1280 C1274 1.465 . S
C1280 C1279 1.396 . S
C1280 C1281 1.399 . S
C1281 H1267 0.929 . S
C1281 C1280 1.399 . S
C1281 C1282 1.385 . S
C1282 H1268 0.931 . S
C1282 C1281 1.385 . S
C1282 C1283 1.389 . S
C1283 C1282 1.389 . S
C1283 C1284 1.387 . S
C1284 H1269 0.930 . S
C1284 C1279 1.390 . S
C1284 C1283 1.387 . S
H1285 C1297 0.930 . S
H1286 C1299 0.930 . S
H1287 C1300 0.930 . S
H1288 C1304 0.959 . S
H1289 C1304 0.959 . S
H1290 C1304 0.961 . S
H1291 C1305 0.960 . S
H1292 C1305 0.961 . S
H1293 C1305 0.959 . S
H1294 C1308 0.929 . S
H1295 C1309 0.931 . S
H1296 C1311 0.930 . S
C1297 H1285 0.930 . S
C1297 C1298 1.399 . S
C1297 C1302 1.399 . S
C1298 C1297 1.399 . S
C1298 C1299 1.376 . S
C1299 H1286 0.930 . S
C1299 C1298 1.376 . S
C1299 C1300 1.388 . S
C1300 H1287 0.930 . S
C1300 C1299 1.388 . S
C1300 C1301 1.390 . S
C1301 C1300 1.390 . S
C1301 C1302 1.394 . S
C1301 C1307 1.465 . S
C1302 C1297 1.399 . S
C1302 C1301 1.394 . S
C1302 C1303 1.516 . S
C1303 C1302 1.516 . S
C1303 C1304 1.502 . S
C1303 C1305 1.561 . S
C1303 C1306 1.526 . S
C1304 H1288 0.959 . S
C1304 H1289 0.959 . S
C1304 H1290 0.961 . S
C1304 C1303 1.502 . S
C1305 H1291 0.960 . S
C1305 H1292 0.961 . S
C1305 H1293 0.959 . S
C1305 C1303 1.561 . S
C1306 C1303 1.526 . S
C1306 C1307 1.396 . S
C1306 C1311 1.390 . S
C1307 C1301 1.465 . S
C1307 C1306 1.396 . S
C1307 C1308 1.399 . S
C1308 H1294 0.929 . S
C1308 C1307 1.399 . S
C1308 C1309 1.385 . S
C1309 H1295 0.931 . S
C1309 C1308 1.385 . S
C1309 C1310 1.389 . S
C1310 C1309 1.389 . S
C1310 C1311 1.387 . S
C1311 H1296 0.930 . S
C1311 C1306 1.390 . S
C1311 C1310 1.387 . S
H1312 C1324 0.930 . S
H1313 C1326 0.930 . S
H1314 C1327 0.930 . S
H1315 C1331 0.959 . S
H1316 C1331 0.959 . S
H1317 C1331 0.961 . S
H1318 C1332 0.960 . S
H1319 C1332 0.961 . S
H1320 C1332 0.959 . S
H1321 C1335 0.929 . S
H1322 C1336 0.931 . S
H1323 C1338 0.930 . S
C1324 H1312 0.930 . S
C1324 C1325 1.399 . S
C1324 C1329 1.399 . S
C1325 C1324 1.399 . S
C1325 C1326 1.376 . S
C1326 H1313 0.930 . S
C1326 C1325 1.376 . S
C1326 C1327 1.388 . S
C1327 H1314 0.930 . S
C1327 C1326 1.388 . S
C1327 C1328 1.390 . S
C1328 C1327 1.390 . S
C1328 C1329 1.394 . S
C1328 C1334 1.465 . S
C1329 C1324 1.399 . S
C1329 C1328 1.394 . S
C1329 C1330 1.516 . S
C1330 C1329 1.516 . S
C1330 C1331 1.502 . S
C1330 C1332 1.561 . S
C1330 C1333 1.526 . S
C1331 H1315 0.959 . S
C1331 H1316 0.959 . S
C1331 H1317 0.961 . S
C1331 C1330 1.502 . S
C1332 H1318 0.960 . S
C1332 H1319 0.961 . S
C1332 H1320 0.959 . S
C1332 C1330 1.561 . S
C1333 C1330 1.526 . S
C1333 C1334 1.396 . S
C1333 C1338 1.390 . S
C1334 C1328 1.465 . S
C1334 C1333 1.396 . S
C1334 C1335 1.399 . S
C1335 H1321 0.929 . S
C1335 C1334 1.399 . S
C1335 C1336 1.385 . S
C1336 H1322 0.931 . S
C1336 C1335 1.385 . S
C1336 C1337 1.389 . S
C1337 C1336 1.389 . S
C1337 C1338 1.387 . S
C1338 H1323 0.930 . S
C1338 C1333 1.390 . S
C1338 C1337 1.387 . S
H1339 C1351 0.930 . S
H1340 C1353 0.930 . S
H1341 C1354 0.930 . S
H1342 C1358 0.959 . S
H1343 C1358 0.959 . S
H1344 C1358 0.961 . S
H1345 C1359 0.960 . S
H1346 C1359 0.961 . S
H1347 C1359 0.959 . S
H1348 C1362 0.929 . S
H1349 C1363 0.931 . S
H1350 C1365 0.930 . S
C1351 H1339 0.930 . S
C1351 C1352 1.399 1_545 S
C1351 C1356 1.399 . S
C1352 C1351 1.399 1_565 S
C1352 C1353 1.376 . S
C1353 H1340 0.930 . S
C1353 C1352 1.376 . S
C1353 C1354 1.388 . S
C1354 H1341 0.930 . S
C1354 C1353 1.388 . S
C1354 C1355 1.390 . S
C1355 C1354 1.390 . S
C1355 C1356 1.394 1_565 S
C1355 C1361 1.465 1_455 S
C1356 C1351 1.399 . S
C1356 C1355 1.394 1_545 S
C1356 C1357 1.516 . S
C1357 C1356 1.516 . S
C1357 C1358 1.502 1_455 S
C1357 C1359 1.561 . S
C1357 C1360 1.526 1_455 S
C1358 H1342 0.959 . S
C1358 H1343 0.959 . S
C1358 H1344 0.961 . S
C1358 C1357 1.502 1_655 S
C1359 H1345 0.960 . S
C1359 H1346 0.961 . S
C1359 H1347 0.959 . S
C1359 C1357 1.561 . S
C1360 C1357 1.526 1_655 S
C1360 C1361 1.396 1_545 S
C1360 C1365 1.390 . S
C1361 C1355 1.465 1_655 S
C1361 C1360 1.396 1_565 S
C1361 C1362 1.399 . S
C1362 H1348 0.929 . S
C1362 C1361 1.399 . S
C1362 C1363 1.385 . S
C1363 H1349 0.931 . S
C1363 C1362 1.385 . S
C1363 C1364 1.389 1_565 S
C1364 C1363 1.389 1_545 S
C1364 C1365 1.387 . S
C1365 H1350 0.930 . S
C1365 C1360 1.390 . S
C1365 C1364 1.387 . S
H1366 C1378 0.930 . S
H1367 C1380 0.930 . S
H1368 C1381 0.930 . S
H1369 C1385 0.959 . S
H1370 C1385 0.959 . S
H1371 C1385 0.961 . S
H1372 C1386 0.960 . S
H1373 C1386 0.961 . S
H1374 C1386 0.959 . S
H1375 C1389 0.929 . S
H1376 C1390 0.931 . S
H1377 C1392 0.930 . S
C1378 H1366 0.930 . S
C1378 C1379 1.399 . S
C1378 C1383 1.399 . S
C1379 C1378 1.399 . S
C1379 C1380 1.376 . S
C1380 H1367 0.930 . S
C1380 C1379 1.376 . S
C1380 C1381 1.388 . S
C1381 H1368 0.930 . S
C1381 C1380 1.388 . S
C1381 C1382 1.390 . S
C1382 C1381 1.390 . S
C1382 C1383 1.394 . S
C1382 C1388 1.465 . S
C1383 C1378 1.399 . S
C1383 C1382 1.394 . S
C1383 C1384 1.516 . S
C1384 C1383 1.516 . S
C1384 C1385 1.502 . S
C1384 C1386 1.561 . S
C1384 C1387 1.526 . S
C1385 H1369 0.959 . S
C1385 H1370 0.959 . S
C1385 H1371 0.961 . S
C1385 C1384 1.502 . S
C1386 H1372 0.960 . S
C1386 H1373 0.961 . S
C1386 H1374 0.959 . S
C1386 C1384 1.561 . S
C1387 C1384 1.526 . S
C1387 C1388 1.396 . S
C1387 C1392 1.390 . S
C1388 C1382 1.465 . S
C1388 C1387 1.396 . S
C1388 C1389 1.399 . S
C1389 H1375 0.929 . S
C1389 C1388 1.399 . S
C1389 C1390 1.385 . S
C1390 H1376 0.931 . S
C1390 C1389 1.385 . S
C1390 C1391 1.389 . S
C1391 C1390 1.389 . S
C1391 C1392 1.387 . S
C1392 H1377 0.930 . S
C1392 C1387 1.390 . S
C1392 C1391 1.387 . S
H1393 C1405 0.930 . S
H1394 C1407 0.930 . S
H1395 C1408 0.930 . S
H1396 C1412 0.959 . S
H1397 C1412 0.959 . S
H1398 C1412 0.961 . S
H1399 C1413 0.943 1_554 S
H1400 C1413 0.984 . S
H1401 C1413 0.951 1_554 S
H1402 C1416 0.929 . S
H1403 C1417 0.931 . S
H1404 C1419 0.930 . S
C1405 H1393 0.930 . S
C1405 C1406 1.399 . S
C1405 C1410 1.399 . S
C1406 C1405 1.399 . S
C1406 C1407 1.376 1_545 S
C1407 H1394 0.930 . S
C1407 C1406 1.376 1_565 S
C1407 C1408 1.388 . S
C1408 H1395 0.930 . S
C1408 C1407 1.388 . S
C1408 C1409 1.390 . S
C1409 C1408 1.390 . S
C1409 C1410 1.394 1_565 S
C1409 C1415 1.465 1_554 S
C1410 C1405 1.399 . S
C1410 C1409 1.394 1_545 S
C1410 C1411 1.516 1_554 S
C1411 C1410 1.516 1_556 S
C1411 C1412 1.502 . S
C1411 C1413 1.565 . S
C1411 C1414 1.526 . S
C1412 H1396 0.959 . S
C1412 H1397 0.959 . S
C1412 H1398 0.961 . S
C1412 C1411 1.502 . S
C1413 H1399 0.943 1_556 S
C1413 H1400 0.984 . S
C1413 H1401 0.951 1_556 S
C1413 C1411 1.565 . S
C1414 C1411 1.526 . S
C1414 C1415 1.396 1_545 S
C1414 C1419 1.390 . S
C1415 C1409 1.465 1_556 S
C1415 C1414 1.396 1_565 S
C1415 C1416 1.399 . S
C1416 H1402 0.929 . S
C1416 C1415 1.399 . S
C1416 C1417 1.385 . S
C1417 H1403 0.931 . S
C1417 C1416 1.385 . S
C1417 C1418 1.389 . S
C1418 C1417 1.389 . S
C1418 C1419 1.387 1_565 S
C1419 H1404 0.930 . S
C1419 C1414 1.390 . S
C1419 C1418 1.387 1_545 S
H1420 C1432 0.930 . S
H1421 C1434 0.930 . S
H1422 C1435 0.930 . S
H1423 C1439 0.959 . S
H1424 C1439 0.959 . S
H1425 C1439 0.961 . S
H1426 C1440 0.960 . S
H1427 C1440 0.961 . S
H1428 C1440 0.959 . S
H1429 C1443 0.929 . S
H1430 C1444 0.931 . S
H1431 C1446 0.930 . S
C1432 H1420 0.930 . S
C1432 C1433 1.399 . S
C1432 C1437 1.399 . S
C1433 C1432 1.399 . S
C1433 C1434 1.376 . S
C1434 H1421 0.930 . S
C1434 C1433 1.376 . S
C1434 C1435 1.388 . S
C1435 H1422 0.930 . S
C1435 C1434 1.388 . S
C1435 C1436 1.390 . S
C1436 C1435 1.390 . S
C1436 C1437 1.394 . S
C1436 C1442 1.465 . S
C1437 C1432 1.399 . S
C1437 C1436 1.394 . S
C1437 C1438 1.516 . S
C1438 C1437 1.516 . S
C1438 C1439 1.502 . S
C1438 C1440 1.561 . S
C1438 C1441 1.526 . S
C1439 H1423 0.959 . S
C1439 H1424 0.959 . S
C1439 H1425 0.961 . S
C1439 C1438 1.502 . S
C1440 H1426 0.960 . S
C1440 H1427 0.961 . S
C1440 H1428 0.959 . S
C1440 C1438 1.561 . S
C1441 C1438 1.526 . S
C1441 C1442 1.396 . S
C1441 C1446 1.390 . S
C1442 C1436 1.465 . S
C1442 C1441 1.396 . S
C1442 C1443 1.399 . S
C1443 H1429 0.929 . S
C1443 C1442 1.399 . S
C1443 C1444 1.385 . S
C1444 H1430 0.931 . S
C1444 C1443 1.385 . S
C1444 C1445 1.389 . S
C1445 C1444 1.389 . S
C1445 C1446 1.387 . S
C1446 H1431 0.930 . S
C1446 C1441 1.390 . S
C1446 C1445 1.387 . S
H1447 C1459 0.930 . S
H1448 C1461 0.930 . S
H1449 C1462 0.930 . S
H1450 C1466 0.959 . S
H1451 C1466 0.959 . S
H1452 C1466 0.961 . S
H1453 C1467 0.960 . S
H1454 C1467 0.961 . S
H1455 C1467 0.959 . S
H1456 C1470 0.929 . S
H1457 C1471 0.931 . S
H1458 C1473 0.930 . S
C1459 H1447 0.930 . S
C1459 C1460 1.399 1_545 S
C1459 C1464 1.399 . S
C1460 C1459 1.399 1_565 S
C1460 C1461 1.376 . S
C1461 H1448 0.930 . S
C1461 C1460 1.376 . S
C1461 C1462 1.388 . S
C1462 H1449 0.930 . S
C1462 C1461 1.388 . S
C1462 C1463 1.390 . S
C1463 C1462 1.390 . S
C1463 C1464 1.394 1_565 S
C1463 C1469 1.465 . S
C1464 C1459 1.399 . S
C1464 C1463 1.394 1_545 S
C1464 C1465 1.516 . S
C1465 C1464 1.516 . S
C1465 C1466 1.502 . S
C1465 C1467 1.561 . S
C1465 C1468 1.526 . S
C1466 H1450 0.959 . S
C1466 H1451 0.959 . S
C1466 H1452 0.961 . S
C1466 C1465 1.502 . S
C1467 H1453 0.960 . S
C1467 H1454 0.961 . S
C1467 H1455 0.959 . S
C1467 C1465 1.561 . S
C1468 C1465 1.526 . S
C1468 C1469 1.396 1_545 S
C1468 C1473 1.390 . S
C1469 C1463 1.465 . S
C1469 C1468 1.396 1_565 S
C1469 C1470 1.399 . S
C1470 H1456 0.929 . S
C1470 C1469 1.399 . S
C1470 C1471 1.385 . S
C1471 H1457 0.931 . S
C1471 C1470 1.385 . S
C1471 C1472 1.389 1_565 S
C1472 C1471 1.389 1_545 S
C1472 C1473 1.387 . S
C1473 H1458 0.930 . S
C1473 C1468 1.390 . S
C1473 C1472 1.387 . S
H1474 C1486 0.930 . S
H1475 C1488 0.930 . S
H1476 C1489 0.930 . S
H1477 C1493 0.959 . S
H1478 C1493 0.959 . S
H1479 C1493 0.961 . S
H1480 C1494 0.960 . S
H1481 C1494 0.961 . S
H1482 C1494 0.959 . S
H1483 C1497 0.929 . S
H1484 C1498 0.931 . S
H1485 C1500 0.930 . S
C1486 H1474 0.930 . S
C1486 C1487 1.399 . S
C1486 C1491 1.399 . S
C1487 C1486 1.399 . S
C1487 C1488 1.376 . S
C1488 H1475 0.930 . S
C1488 C1487 1.376 . S
C1488 C1489 1.388 . S
C1489 H1476 0.930 . S
C1489 C1488 1.388 . S
C1489 C1490 1.390 . S
C1490 C1489 1.390 . S
C1490 C1491 1.394 . S
C1490 C1496 1.465 . S
C1491 C1486 1.399 . S
C1491 C1490 1.394 . S
C1491 C1492 1.516 . S
C1492 C1491 1.516 . S
C1492 C1493 1.502 . S
C1492 C1494 1.561 . S
C1492 C1495 1.526 . S
C1493 H1477 0.959 . S
C1493 H1478 0.959 . S
C1493 H1479 0.961 . S
C1493 C1492 1.502 . S
C1494 H1480 0.960 . S
C1494 H1481 0.961 . S
C1494 H1482 0.959 . S
C1494 C1492 1.561 . S
C1495 C1492 1.526 . S
C1495 C1496 1.396 . S
C1495 C1500 1.390 . S
C1496 C1490 1.465 . S
C1496 C1495 1.396 . S
C1496 C1497 1.399 . S
C1497 H1483 0.929 . S
C1497 C1496 1.399 . S
C1497 C1498 1.385 . S
C1498 H1484 0.931 . S
C1498 C1497 1.385 . S
C1498 C1499 1.389 . S
C1499 C1498 1.389 . S
C1499 C1500 1.387 . S
C1500 H1485 0.930 . S
C1500 C1495 1.390 . S
C1500 C1499 1.387 . S
H1501 C1513 0.930 . S
H1502 C1515 0.930 . S
H1503 C1516 0.930 . S
H1504 C1520 0.959 . S
H1505 C1520 0.959 . S
H1506 C1520 0.954 1_556 S
H1507 C1521 0.960 . S
H1508 C1521 0.961 . S
H1509 C1521 0.959 . S
H1510 C1524 0.929 . S
H1511 C1525 0.931 . S
H1512 C1527 0.917 1_455 S
C1513 H1501 0.930 . S
C1513 C1514 1.399 . S
C1513 C1518 1.399 . S
C1514 C1513 1.399 . S
C1514 C1515 1.376 1_455 S
C1515 H1502 0.930 . S
C1515 C1514 1.376 1_655 S
C1515 C1516 1.388 . S
C1516 H1503 0.930 . S
C1516 C1515 1.388 . S
C1516 C1517 1.390 . S
C1517 C1516 1.390 . S
C1517 C1518 1.394 1_655 S
C1517 C1523 1.465 1_556 S
C1518 C1513 1.399 . S
C1518 C1517 1.394 1_455 S
C1518 C1519 1.516 1_556 S
C1519 C1518 1.516 1_554 S
C1519 C1520 1.502 1_545 S
C1519 C1521 1.561 . S
C1519 C1522 1.526 . S
C1520 H1504 0.959 . S
C1520 H1505 0.959 . S
C1520 H1506 0.954 1_554 S
C1520 C1519 1.502 1_565 S
C1521 H1507 0.960 . S
C1521 H1508 0.961 . S
C1521 H1509 0.959 . S
C1521 C1519 1.561 . S
C1522 C1519 1.526 . S
C1522 C1523 1.396 1_455 S
C1522 C1527 1.386 1_445 S
C1523 C1517 1.465 1_554 S
C1523 C1522 1.396 1_655 S
C1523 C1524 1.399 . S
C1524 H1510 0.929 . S
C1524 C1523 1.399 . S
C1524 C1525 1.385 . S
C1525 H1511 0.931 . S
C1525 C1524 1.385 . S
C1525 C1526 1.389 1_545 S
C1526 C1525 1.389 1_565 S
C1526 C1527 1.403 . S
C1527 H1512 0.917 1_655 S
C1527 C1522 1.386 1_665 S
C1527 C1526 1.403 . S
H1528 C1540 0.930 . S
H1529 C1542 0.930 . S
H1530 C1543 0.930 . S
H1531 C1547 0.959 . S
H1532 C1547 0.959 . S
H1533 C1547 0.961 . S
H1534 C1548 0.960 . S
H1535 C1548 0.961 . S
H1536 C1548 0.959 . S
H1537 C1551 0.929 . S
H1538 C1552 0.931 . S
H1539 C1554 0.930 . S
C1540 H1528 0.930 . S
C1540 C1541 1.399 . S
C1540 C1545 1.399 . S
C1541 C1540 1.399 . S
C1541 C1542 1.376 . S
C1542 H1529 0.930 . S
C1542 C1541 1.376 . S
C1542 C1543 1.388 . S
C1543 H1530 0.930 . S
C1543 C1542 1.388 . S
C1543 C1544 1.390 . S
C1544 C1543 1.390 . S
C1544 C1545 1.394 . S
C1544 C1550 1.465 . S
C1545 C1540 1.399 . S
C1545 C1544 1.394 . S
C1545 C1546 1.516 . S
C1546 C1545 1.516 . S
C1546 C1547 1.502 . S
C1546 C1548 1.561 . S
C1546 C1549 1.526 . S
C1547 H1531 0.959 . S
C1547 H1532 0.959 . S
C1547 H1533 0.961 . S
C1547 C1546 1.502 . S
C1548 H1534 0.960 . S
C1548 H1535 0.961 . S
C1548 H1536 0.959 . S
C1548 C1546 1.561 . S
C1549 C1546 1.526 . S
C1549 C1550 1.396 . S
C1549 C1554 1.390 . S
C1550 C1544 1.465 . S
C1550 C1549 1.396 . S
C1550 C1551 1.399 . S
C1551 H1537 0.929 . S
C1551 C1550 1.399 . S
C1551 C1552 1.385 . S
C1552 H1538 0.931 . S
C1552 C1551 1.385 . S
C1552 C1553 1.389 . S
C1553 C1552 1.389 . S
C1553 C1554 1.387 . S
C1554 H1539 0.930 . S
C1554 C1549 1.390 . S
C1554 C1553 1.387 . S
H1555 C1567 0.930 . S
H1556 C1569 0.930 . S
H1557 C1570 0.930 . S
H1558 C1574 0.959 . S
H1559 C1574 0.959 . S
H1560 C1574 0.961 . S
H1561 C1575 0.960 . S
H1562 C1575 0.961 . S
H1563 C1575 0.959 . S
H1564 C1578 0.929 . S
H1565 C1579 0.931 . S
H1566 C1581 0.930 . S
C1567 H1555 0.930 . S
C1567 C1568 1.399 . S
C1567 C1572 1.399 . S
C1568 C1567 1.399 . S
C1568 C1569 1.376 . S
C1569 H1556 0.930 . S
C1569 C1568 1.376 . S
C1569 C1570 1.388 . S
C1570 H1557 0.930 . S
C1570 C1569 1.388 . S
C1570 C1571 1.390 . S
C1571 C1570 1.390 . S
C1571 C1572 1.394 . S
C1571 C1577 1.465 . S
C1572 C1567 1.399 . S
C1572 C1571 1.394 . S
C1572 C1573 1.516 . S
C1573 C1572 1.516 . S
C1573 C1574 1.502 . S
C1573 C1575 1.561 . S
C1573 C1576 1.526 . S
C1574 H1558 0.959 . S
C1574 H1559 0.959 . S
C1574 H1560 0.961 . S
C1574 C1573 1.502 . S
C1575 H1561 0.960 . S
C1575 H1562 0.961 . S
C1575 H1563 0.959 . S
C1575 C1573 1.561 . S
C1576 C1573 1.526 . S
C1576 C1577 1.396 . S
C1576 C1581 1.390 . S
C1577 C1571 1.465 . S
C1577 C1576 1.396 . S
C1577 C1578 1.399 . S
C1578 H1564 0.929 . S
C1578 C1577 1.399 . S
C1578 C1579 1.385 . S
C1579 H1565 0.931 . S
C1579 C1578 1.385 . S
C1579 C1580 1.389 . S
C1580 C1579 1.389 . S
C1580 C1581 1.387 . S
C1581 H1566 0.930 . S
C1581 C1576 1.390 . S
C1581 C1580 1.387 . S
H1582 C1594 0.930 . S
H1583 C1596 0.930 . S
H1584 C1597 0.930 . S
H1585 C1601 0.959 . S
H1586 C1601 0.959 . S
H1587 C1601 0.961 . S
H1588 C1602 0.960 . S
H1589 C1602 0.961 . S
H1590 C1602 0.959 . S
H1591 C1605 0.929 . S
H1592 C1606 0.931 . S
H1593 C1608 0.930 . S
C1594 H1582 0.930 . S
C1594 C1595 1.399 . S
C1594 C1599 1.399 . S
C1595 C1594 1.399 . S
C1595 C1596 1.376 . S
C1596 H1583 0.930 . S
C1596 C1595 1.376 . S
C1596 C1597 1.388 . S
C1597 H1584 0.930 . S
C1597 C1596 1.388 . S
C1597 C1598 1.390 . S
C1598 C1597 1.390 . S
C1598 C1599 1.394 . S
C1598 C1604 1.465 . S
C1599 C1594 1.399 . S
C1599 C1598 1.394 . S
C1599 C1600 1.516 . S
C1600 C1599 1.516 . S
C1600 C1601 1.502 . S
C1600 C1602 1.561 . S
C1600 C1603 1.526 . S
C1601 H1585 0.959 . S
C1601 H1586 0.959 . S
C1601 H1587 0.961 . S
C1601 C1600 1.502 . S
C1602 H1588 0.960 . S
C1602 H1589 0.961 . S
C1602 H1590 0.959 . S
C1602 C1600 1.561 . S
C1603 C1600 1.526 . S
C1603 C1604 1.396 . S
C1603 C1608 1.390 . S
C1604 C1598 1.465 . S
C1604 C1603 1.396 . S
C1604 C1605 1.399 . S
C1605 H1591 0.929 . S
C1605 C1604 1.399 . S
C1605 C1606 1.385 . S
C1606 H1592 0.931 . S
C1606 C1605 1.385 . S
C1606 C1607 1.389 . S
C1607 C1606 1.389 . S
C1607 C1608 1.387 . S
C1608 H1593 0.930 . S
C1608 C1603 1.390 . S
C1608 C1607 1.387 . S
H1609 C1621 0.930 . S
H1610 C1623 0.930 . S
H1611 C1624 0.930 . S
H1612 C1628 0.959 . S
H1613 C1628 0.959 . S
H1614 C1628 0.961 . S
H1615 C1629 0.960 . S
H1616 C1629 0.961 . S
H1617 C1629 0.959 . S
H1618 C1632 0.929 . S
H1619 C1633 0.931 . S
H1620 C1635 0.930 . S
C1621 H1609 0.930 . S
C1621 C1622 1.399 . S
C1621 C1626 1.399 . S
C1622 C1621 1.399 . S
C1622 C1623 1.376 . S
C1623 H1610 0.930 . S
C1623 C1622 1.376 . S
C1623 C1624 1.388 . S
C1624 H1611 0.930 . S
C1624 C1623 1.388 . S
C1624 C1625 1.390 . S
C1625 C1624 1.390 . S
C1625 C1626 1.394 . S
C1625 C1631 1.465 . S
C1626 C1621 1.399 . S
C1626 C1625 1.394 . S
C1626 C1627 1.516 . S
C1627 C1626 1.516 . S
C1627 C1628 1.502 . S
C1627 C1629 1.561 . S
C1627 C1630 1.526 . S
C1628 H1612 0.959 . S
C1628 H1613 0.959 . S
C1628 H1614 0.961 . S
C1628 C1627 1.502 . S
C1629 H1615 0.960 . S
C1629 H1616 0.961 . S
C1629 H1617 0.959 . S
C1629 C1627 1.561 . S
C1630 C1627 1.526 . S
C1630 C1631 1.396 . S
C1630 C1635 1.390 . S
C1631 C1625 1.465 . S
C1631 C1630 1.396 . S
C1631 C1632 1.399 . S
C1632 H1618 0.929 . S
C1632 C1631 1.399 . S
C1632 C1633 1.385 . S
C1633 H1619 0.931 . S
C1633 C1632 1.385 . S
C1633 C1634 1.389 . S
C1634 C1633 1.389 . S
C1634 C1635 1.387 . S
C1635 H1620 0.930 . S
C1635 C1630 1.390 . S
C1635 C1634 1.387 . S
H1636 C1648 0.930 . S
H1637 C1650 0.930 . S
H1638 C1651 0.930 . S
H1639 C1655 0.959 . S
H1640 C1655 0.959 . S
H1641 C1655 0.961 . S
H1642 C1656 0.960 . S
H1643 C1656 0.961 . S
H1644 C1656 0.959 . S
H1645 C1659 0.929 . S
H1646 C1660 0.931 . S
H1647 C1662 0.930 . S
C1648 H1636 0.930 . S
C1648 C1649 1.399 . S
C1648 C1653 1.399 . S
C1649 C1648 1.399 . S
C1649 C1650 1.376 . S
C1650 H1637 0.930 . S
C1650 C1649 1.376 . S
C1650 C1651 1.388 . S
C1651 H1638 0.930 . S
C1651 C1650 1.388 . S
C1651 C1652 1.390 . S
C1652 C1651 1.390 . S
C1652 C1653 1.394 . S
C1652 C1658 1.465 1_554 S
C1653 C1648 1.399 . S
C1653 C1652 1.394 . S
C1653 C1654 1.516 . S
C1654 C1653 1.516 . S
C1654 C1655 1.502 . S
C1654 C1656 1.561 . S
C1654 C1657 1.526 1_554 S
C1655 H1639 0.959 . S
C1655 H1640 0.959 . S
C1655 H1641 0.961 . S
C1655 C1654 1.502 . S
C1656 H1642 0.960 . S
C1656 H1643 0.961 . S
C1656 H1644 0.959 . S
C1656 C1654 1.561 . S
C1657 C1654 1.526 1_556 S
C1657 C1658 1.396 . S
C1657 C1662 1.390 . S
C1658 C1652 1.465 1_556 S
C1658 C1657 1.396 . S
C1658 C1659 1.399 . S
C1659 H1645 0.929 . S
C1659 C1658 1.399 . S
C1659 C1660 1.385 . S
C1660 H1646 0.931 . S
C1660 C1659 1.385 . S
C1660 C1661 1.389 . S
C1661 C1660 1.389 . S
C1661 C1662 1.387 . S
C1662 H1647 0.930 . S
C1662 C1657 1.390 . S
C1662 C1661 1.387 . S
H1663 C1675 0.930 . S
H1664 C1677 0.930 . S
H1665 C1678 0.930 . S
H1666 C1682 0.959 . S
H1667 C1682 0.959 . S
H1668 C1682 0.961 . S
H1669 C1683 0.960 . S
H1670 C1683 0.961 1_655 S
H1671 C1683 0.959 . S
H1672 C1686 0.929 . S
H1673 C1687 0.931 . S
H1674 C1689 0.930 . S
C1675 H1663 0.930 . S
C1675 C1676 1.399 . S
C1675 C1680 1.399 . S
C1676 C1675 1.399 . S
C1676 C1677 1.376 . S
C1677 H1664 0.930 . S
C1677 C1676 1.376 . S
C1677 C1678 1.388 . S
C1678 H1665 0.930 . S
C1678 C1677 1.388 . S
C1678 C1679 1.390 . S
C1679 C1678 1.390 . S
C1679 C1680 1.394 . S
C1679 C1685 1.465 . S
C1680 C1675 1.399 . S
C1680 C1679 1.394 . S
C1680 C1681 1.516 1_455 S
C1681 C1680 1.516 1_655 S
C1681 C1682 1.502 . S
C1681 C1683 1.561 1_655 S
C1681 C1684 1.526 . S
C1682 H1666 0.959 . S
C1682 H1667 0.959 . S
C1682 H1668 0.961 . S
C1682 C1681 1.502 . S
C1683 H1669 0.960 . S
C1683 H1670 0.961 1_455 S
C1683 H1671 0.959 . S
C1683 C1681 1.561 1_455 S
C1684 C1681 1.526 . S
C1684 C1685 1.396 1_655 S
C1684 C1689 1.390 . S
C1685 C1679 1.465 . S
C1685 C1684 1.396 1_455 S
C1685 C1686 1.399 . S
C1686 H1672 0.929 . S
C1686 C1685 1.399 . S
C1686 C1687 1.385 1_455 S
C1687 H1673 0.931 . S
C1687 C1686 1.385 1_655 S
C1687 C1688 1.389 . S
C1688 C1687 1.389 . S
C1688 C1689 1.387 . S
C1689 H1674 0.930 . S
C1689 C1684 1.390 . S
C1689 C1688 1.387 . S
H1690 C1702 0.930 . S
H1691 C1704 0.930 . S
H1692 C1705 0.930 . S
H1693 C1709 0.959 . S
H1694 C1709 0.959 1_556 S
H1695 C1709 0.961 . S
H1696 C1710 0.960 . S
H1697 C1710 0.962 . S
H1698 C1710 0.959 . S
H1699 C1713 0.946 . S
H1700 C1714 0.931 . S
H1701 C1716 0.930 . S
C1702 H1690 0.930 . S
C1702 C1703 1.399 . S
C1702 C1707 1.399 . S
C1703 C1702 1.399 . S
C1703 C1704 1.376 . S
C1704 H1691 0.930 . S
C1704 C1703 1.376 . S
C1704 C1705 1.388 . S
C1705 H1692 0.930 . S
C1705 C1704 1.388 . S
C1705 C1706 1.390 . S
C1706 C1705 1.390 . S
C1706 C1707 1.394 . S
C1706 C1712 1.467 1_554 S
C1707 C1702 1.399 . S
C1707 C1706 1.394 . S
C1707 C1708 1.516 1_454 S
C1708 C1707 1.516 1_656 S
C1708 C1709 1.502 1_556 S
C1708 C1710 1.561 1_655 S
C1708 C1711 1.526 . S
C1709 H1693 0.959 . S
C1709 H1694 0.959 1_554 S
C1709 H1695 0.961 . S
C1709 C1708 1.502 1_554 S
C1710 H1696 0.960 . S
C1710 H1697 0.962 . S
C1710 H1698 0.959 . S
C1710 C1708 1.561 1_455 S
C1711 C1708 1.526 . S
C1711 C1712 1.394 1_655 S
C1711 C1716 1.390 . S
C1712 C1706 1.467 1_556 S
C1712 C1711 1.394 1_455 S
C1712 C1713 1.398 . S
C1713 H1699 0.946 . S
C1713 C1712 1.398 . S
C1713 C1714 1.370 1_455 S
C1714 H1700 0.931 . S
C1714 C1713 1.370 1_655 S
C1714 C1715 1.389 . S
C1715 C1714 1.389 . S
C1715 C1716 1.387 . S
C1716 H1701 0.930 . S
C1716 C1711 1.390 . S
C1716 C1715 1.387 . S
H1717 C1729 0.930 . S
H1718 C1731 0.930 . S
H1719 C1732 0.930 . S
H1720 C1736 0.959 . S
H1721 C1736 0.959 . S
H1722 C1736 0.961 . S
H1723 C1737 0.960 . S
H1724 C1737 0.961 . S
H1725 C1737 0.959 . S
H1726 C1740 0.929 . S
H1727 C1741 0.931 . S
H1728 C1743 0.930 . S
C1729 H1717 0.930 . S
C1729 C1730 1.399 . S
C1729 C1734 1.399 . S
C1730 C1729 1.399 . S
C1730 C1731 1.376 . S
C1731 H1718 0.930 . S
C1731 C1730 1.376 . S
C1731 C1732 1.388 . S
C1732 H1719 0.930 . S
C1732 C1731 1.388 . S
C1732 C1733 1.390 . S
C1733 C1732 1.390 . S
C1733 C1734 1.394 . S
C1733 C1739 1.465 . S
C1734 C1729 1.399 . S
C1734 C1733 1.394 . S
C1734 C1735 1.516 . S
C1735 C1734 1.516 . S
C1735 C1736 1.502 . S
C1735 C1737 1.561 . S
C1735 C1738 1.526 . S
C1736 H1720 0.959 . S
C1736 H1721 0.959 . S
C1736 H1722 0.961 . S
C1736 C1735 1.502 . S
C1737 H1723 0.960 . S
C1737 H1724 0.961 . S
C1737 H1725 0.959 . S
C1737 C1735 1.561 . S
C1738 C1735 1.526 . S
C1738 C1739 1.396 . S
C1738 C1743 1.390 . S
C1739 C1733 1.465 . S
C1739 C1738 1.396 . S
C1739 C1740 1.399 . S
C1740 H1726 0.929 . S
C1740 C1739 1.399 . S
C1740 C1741 1.385 . S
C1741 H1727 0.931 . S
C1741 C1740 1.385 . S
C1741 C1742 1.389 . S
C1742 C1741 1.389 . S
C1742 C1743 1.387 . S
C1743 H1728 0.930 . S
C1743 C1738 1.390 . S
C1743 C1742 1.387 . S
H1744 C1756 0.930 . S
H1745 C1758 0.930 . S
H1746 C1759 0.930 . S
H1747 C1763 0.959 . S
H1748 C1763 0.959 . S
H1749 C1763 0.961 . S
H1750 C1764 0.960 . S
H1751 C1764 0.961 . S
H1752 C1764 0.959 . S
H1753 C1767 0.929 . S
H1754 C1768 0.920 1_565 S
H1755 C1770 0.930 . S
C1756 H1744 0.930 . S
C1756 C1757 1.399 . S
C1756 C1761 1.399 . S
C1757 C1756 1.399 . S
C1757 C1758 1.376 . S
C1758 H1745 0.930 . S
C1758 C1757 1.376 . S
C1758 C1759 1.388 . S
C1759 H1746 0.930 . S
C1759 C1758 1.388 . S
C1759 C1760 1.390 . S
C1760 C1759 1.390 . S
C1760 C1761 1.394 . S
C1760 C1766 1.465 . S
C1761 C1756 1.399 . S
C1761 C1760 1.394 . S
C1761 C1762 1.516 . S
C1762 C1761 1.516 . S
C1762 C1763 1.502 . S
C1762 C1764 1.561 . S
C1762 C1765 1.526 . S
C1763 H1747 0.959 . S
C1763 H1748 0.959 . S
C1763 H1749 0.961 . S
C1763 C1762 1.502 . S
C1764 H1750 0.960 . S
C1764 H1751 0.961 . S
C1764 H1752 0.959 . S
C1764 C1762 1.561 . S
C1765 C1762 1.526 . S
C1765 C1766 1.396 . S
C1765 C1770 1.390 . S
C1766 C1760 1.465 . S
C1766 C1765 1.396 . S
C1766 C1767 1.399 . S
C1767 H1753 0.929 . S
C1767 C1766 1.399 . S
C1767 C1768 1.385 . S
C1768 H1754 0.920 1_545 S
C1768 C1767 1.385 . S
C1768 C1769 1.389 . S
C1769 C1768 1.389 . S
C1769 C1770 1.387 . S
C1770 H1755 0.930 . S
C1770 C1765 1.390 . S
C1770 C1769 1.387 . S
H1771 C1783 0.930 . S
H1772 C1785 0.930 . S
H1773 C1786 0.930 . S
H1774 C1790 0.959 . S
H1775 C1790 0.959 . S
H1776 C1790 0.961 . S
H1777 C1791 0.960 . S
H1778 C1791 0.961 . S
H1779 C1791 0.959 . S
H1780 C1794 0.929 . S
H1781 C1795 0.931 . S
H1782 C1797 0.930 . S
C1783 H1771 0.930 . S
C1783 C1784 1.399 . S
C1783 C1788 1.399 . S
C1784 C1783 1.399 . S
C1784 C1785 1.376 . S
C1785 H1772 0.930 . S
C1785 C1784 1.376 . S
C1785 C1786 1.388 . S
C1786 H1773 0.930 . S
C1786 C1785 1.388 . S
C1786 C1787 1.390 . S
C1787 C1786 1.390 . S
C1787 C1788 1.394 . S
C1787 C1793 1.465 . S
C1788 C1783 1.399 . S
C1788 C1787 1.394 . S
C1788 C1789 1.516 . S
C1789 C1788 1.516 . S
C1789 C1790 1.502 . S
C1789 C1791 1.561 . S
C1789 C1792 1.526 . S
C1790 H1774 0.959 . S
C1790 H1775 0.959 . S
C1790 H1776 0.961 . S
C1790 C1789 1.502 . S
C1791 H1777 0.960 . S
C1791 H1778 0.961 . S
C1791 H1779 0.959 . S
C1791 C1789 1.561 . S
C1792 C1789 1.526 . S
C1792 C1793 1.396 . S
C1792 C1797 1.390 . S
C1793 C1787 1.465 . S
C1793 C1792 1.396 . S
C1793 C1794 1.399 . S
C1794 H1780 0.929 . S
C1794 C1793 1.399 . S
C1794 C1795 1.385 . S
C1795 H1781 0.931 . S
C1795 C1794 1.385 . S
C1795 C1796 1.389 . S
C1796 C1795 1.389 . S
C1796 C1797 1.387 . S
C1797 H1782 0.930 . S
C1797 C1792 1.390 . S
C1797 C1796 1.387 . S
H1798 C1810 0.930 . S
H1799 C1812 0.930 . S
H1800 C1813 0.930 . S
H1801 C1817 0.959 . S
H1802 C1817 0.959 . S
H1803 C1817 0.961 . S
H1804 C1818 0.960 . S
H1805 C1818 0.961 . S
H1806 C1818 0.959 . S
H1807 C1821 0.929 . S
H1808 C1822 0.931 . S
H1809 C1824 0.930 . S
C1810 H1798 0.930 . S
C1810 C1811 1.399 . S
C1810 C1815 1.399 . S
C1811 C1810 1.399 . S
C1811 C1812 1.376 . S
C1812 H1799 0.930 . S
C1812 C1811 1.376 . S
C1812 C1813 1.388 . S
C1813 H1800 0.930 . S
C1813 C1812 1.388 . S
C1813 C1814 1.390 . S
C1814 C1813 1.390 . S
C1814 C1815 1.394 . S
C1814 C1820 1.465 . S
C1815 C1810 1.399 . S
C1815 C1814 1.394 . S
C1815 C1816 1.516 . S
C1816 C1815 1.516 . S
C1816 C1817 1.502 . S
C1816 C1818 1.561 . S
C1816 C1819 1.526 . S
C1817 H1801 0.959 . S
C1817 H1802 0.959 . S
C1817 H1803 0.961 . S
C1817 C1816 1.502 . S
C1818 H1804 0.960 . S
C1818 H1805 0.961 . S
C1818 H1806 0.959 . S
C1818 C1816 1.561 . S
C1819 C1816 1.526 . S
C1819 C1820 1.396 . S
C1819 C1824 1.390 . S
C1820 C1814 1.465 . S
C1820 C1819 1.396 . S
C1820 C1821 1.399 . S
C1821 H1807 0.929 . S
C1821 C1820 1.399 . S
C1821 C1822 1.385 . S
C1822 H1808 0.931 . S
C1822 C1821 1.385 . S
C1822 C1823 1.389 . S
C1823 C1822 1.389 . S
C1823 C1824 1.387 . S
C1824 H1809 0.930 . S
C1824 C1819 1.390 . S
C1824 C1823 1.387 . S
H1825 C1837 0.930 . S
H1826 C1839 0.930 . S
H1827 C1840 0.930 . S
H1828 C1844 0.959 . S
H1829 C1844 0.959 . S
H1830 C1844 0.961 . S
H1831 C1845 0.960 . S
H1832 C1845 0.961 . S
H1833 C1845 0.959 . S
H1834 C1848 0.929 . S
H1835 C1849 0.931 . S
H1836 C1851 0.930 . S
C1837 H1825 0.930 . S
C1837 C1838 1.399 . S
C1837 C1842 1.399 . S
C1838 C1837 1.399 . S
C1838 C1839 1.376 . S
C1839 H1826 0.930 . S
C1839 C1838 1.376 . S
C1839 C1840 1.388 . S
C1840 H1827 0.930 . S
C1840 C1839 1.388 . S
C1840 C1841 1.390 . S
C1841 C1840 1.390 . S
C1841 C1842 1.394 . S
C1841 C1847 1.465 . S
C1842 C1837 1.399 . S
C1842 C1841 1.394 . S
C1842 C1843 1.516 . S
C1843 C1842 1.516 . S
C1843 C1844 1.502 . S
C1843 C1845 1.561 . S
C1843 C1846 1.526 . S
C1844 H1828 0.959 . S
C1844 H1829 0.959 . S
C1844 H1830 0.961 . S
C1844 C1843 1.502 . S
C1845 H1831 0.960 . S
C1845 H1832 0.961 . S
C1845 H1833 0.959 . S
C1845 C1843 1.561 . S
C1846 C1843 1.526 . S
C1846 C1847 1.396 . S
C1846 C1851 1.390 . S
C1847 C1841 1.465 . S
C1847 C1846 1.396 . S
C1847 C1848 1.399 . S
C1848 H1834 0.929 . S
C1848 C1847 1.399 . S
C1848 C1849 1.385 . S
C1849 H1835 0.931 . S
C1849 C1848 1.385 . S
C1849 C1850 1.389 . S
C1850 C1849 1.389 . S
C1850 C1851 1.387 . S
C1851 H1836 0.930 . S
C1851 C1846 1.390 . S
C1851 C1850 1.387 . S
H1852 C1864 0.930 . S
H1853 C1866 0.930 . S
H1854 C1867 0.930 . S
H1855 C1871 0.959 . S
H1856 C1871 0.959 . S
H1857 C1871 0.961 . S
H1858 C1872 0.960 . S
H1859 C1872 0.961 . S
H1860 C1872 0.959 . S
H1861 C1875 0.929 . S
H1862 C1876 0.931 . S
H1863 C1878 0.930 . S
C1864 H1852 0.930 . S
C1864 C1865 1.399 . S
C1864 C1869 1.399 . S
C1865 C1864 1.399 . S
C1865 C1866 1.376 . S
C1866 H1853 0.930 . S
C1866 C1865 1.376 . S
C1866 C1867 1.388 . S
C1867 H1854 0.930 . S
C1867 C1866 1.388 . S
C1867 C1868 1.390 . S
C1868 C1867 1.390 . S
C1868 C1869 1.394 . S
C1868 C1874 1.465 . S
C1869 C1864 1.399 . S
C1869 C1868 1.394 . S
C1869 C1870 1.516 . S
C1870 C1869 1.516 . S
C1870 C1871 1.502 . S
C1870 C1872 1.561 . S
C1870 C1873 1.526 . S
C1871 H1855 0.959 . S
C1871 H1856 0.959 . S
C1871 H1857 0.961 . S
C1871 C1870 1.502 . S
C1872 H1858 0.960 . S
C1872 H1859 0.961 . S
C1872 H1860 0.959 . S
C1872 C1870 1.561 . S
C1873 C1870 1.526 . S
C1873 C1874 1.396 . S
C1873 C1878 1.390 . S
C1874 C1868 1.465 . S
C1874 C1873 1.396 . S
C1874 C1875 1.399 . S
C1875 H1861 0.929 . S
C1875 C1874 1.399 . S
C1875 C1876 1.385 . S
C1876 H1862 0.931 . S
C1876 C1875 1.385 . S
C1876 C1877 1.389 . S
C1877 C1876 1.389 . S
C1877 C1878 1.387 . S
C1878 H1863 0.930 . S
C1878 C1873 1.390 . S
C1878 C1877 1.387 . S
H1879 C1891 0.930 . S
H1880 C1893 0.930 . S
H1881 C1894 0.930 . S
H1882 C1898 0.959 . S
H1883 C1898 0.959 . S
H1884 C1898 0.961 . S
H1885 C1899 0.960 . S
H1886 C1899 0.961 . S
H1887 C1899 0.959 . S
H1888 C1902 0.929 . S
H1889 C1903 0.931 . S
H1890 C1905 0.930 . S
C1891 H1879 0.930 . S
C1891 C1892 1.399 . S
C1891 C1896 1.399 . S
C1892 C1891 1.399 . S
C1892 C1893 1.376 . S
C1893 H1880 0.930 . S
C1893 C1892 1.376 . S
C1893 C1894 1.388 . S
C1894 H1881 0.930 . S
C1894 C1893 1.388 . S
C1894 C1895 1.390 . S
C1895 C1894 1.390 . S
C1895 C1896 1.394 . S
C1895 C1901 1.465 . S
C1896 C1891 1.399 . S
C1896 C1895 1.394 . S
C1896 C1897 1.516 . S
C1897 C1896 1.516 . S
C1897 C1898 1.502 . S
C1897 C1899 1.561 . S
C1897 C1900 1.526 . S
C1898 H1882 0.959 . S
C1898 H1883 0.959 . S
C1898 H1884 0.961 . S
C1898 C1897 1.502 . S
C1899 H1885 0.960 . S
C1899 H1886 0.961 . S
C1899 H1887 0.959 . S
C1899 C1897 1.561 . S
C1900 C1897 1.526 . S
C1900 C1901 1.396 . S
C1900 C1905 1.390 . S
C1901 C1895 1.465 . S
C1901 C1900 1.396 . S
C1901 C1902 1.399 . S
C1902 H1888 0.929 . S
C1902 C1901 1.399 . S
C1902 C1903 1.385 . S
C1903 H1889 0.931 . S
C1903 C1902 1.385 . S
C1903 C1904 1.389 . S
C1904 C1903 1.389 . S
C1904 C1905 1.387 . S
C1905 H1890 0.930 . S
C1905 C1900 1.390 . S
C1905 C1904 1.387 . S
H1906 C1918 0.930 . S
H1907 C1920 0.930 . S
H1908 C1921 0.930 . S
H1909 C1925 0.959 . S
H1910 C1925 0.959 . S
H1911 C1925 0.961 . S
H1912 C1926 0.960 . S
H1913 C1926 0.961 . S
H1914 C1926 0.959 . S
H1915 C1929 0.929 . S
H1916 C1930 0.931 . S
H1917 C1932 0.930 . S
C1918 H1906 0.930 . S
C1918 C1919 1.399 . S
C1918 C1923 1.399 . S
C1919 C1918 1.399 . S
C1919 C1920 1.376 . S
C1920 H1907 0.930 . S
C1920 C1919 1.376 . S
C1920 C1921 1.388 . S
C1921 H1908 0.930 . S
C1921 C1920 1.388 . S
C1921 C1922 1.390 . S
C1922 C1921 1.390 . S
C1922 C1923 1.394 . S
C1922 C1928 1.465 . S
C1923 C1918 1.399 . S
C1923 C1922 1.394 . S
C1923 C1924 1.516 . S
C1924 C1923 1.516 . S
C1924 C1925 1.502 . S
C1924 C1926 1.561 . S
C1924 C1927 1.526 . S
C1925 H1909 0.959 . S
C1925 H1910 0.959 . S
C1925 H1911 0.961 . S
C1925 C1924 1.502 . S
C1926 H1912 0.960 . S
C1926 H1913 0.961 . S
C1926 H1914 0.959 . S
C1926 C1924 1.561 . S
C1927 C1924 1.526 . S
C1927 C1928 1.396 . S
C1927 C1932 1.390 . S
C1928 C1922 1.465 . S
C1928 C1927 1.396 . S
C1928 C1929 1.399 . S
C1929 H1915 0.929 . S
C1929 C1928 1.399 . S
C1929 C1930 1.385 . S
C1930 H1916 0.931 . S
C1930 C1929 1.385 . S
C1930 C1931 1.389 . S
C1931 C1930 1.389 . S
C1931 C1932 1.387 . S
C1932 H1917 0.930 . S
C1932 C1927 1.390 . S
C1932 C1931 1.387 . S
H1933 C1945 0.930 . S
H1934 C1947 0.930 . S
H1935 C1948 0.930 . S
H1936 C1952 0.959 . S
H1937 C1952 0.959 . S
H1938 C1952 0.961 . S
H1939 C1953 0.960 . S
H1940 C1953 0.961 . S
H1941 C1953 0.959 . S
H1942 C1956 0.929 . S
H1943 C1957 0.931 . S
H1944 C1959 0.930 . S
C1945 H1933 0.930 . S
C1945 C1946 1.399 . S
C1945 C1950 1.399 . S
C1946 C1945 1.399 . S
C1946 C1947 1.376 . S
C1947 H1934 0.930 . S
C1947 C1946 1.376 . S
C1947 C1948 1.388 . S
C1948 H1935 0.930 . S
C1948 C1947 1.388 . S
C1948 C1949 1.390 . S
C1949 C1948 1.390 . S
C1949 C1950 1.394 . S
C1949 C1955 1.465 . S
C1950 C1945 1.399 . S
C1950 C1949 1.394 . S
C1950 C1951 1.516 . S
C1951 C1950 1.516 . S
C1951 C1952 1.502 . S
C1951 C1953 1.561 . S
C1951 C1954 1.526 . S
C1952 H1936 0.959 . S
C1952 H1937 0.959 . S
C1952 H1938 0.961 . S
C1952 C1951 1.502 . S
C1953 H1939 0.960 . S
C1953 H1940 0.961 . S
C1953 H1941 0.959 . S
C1953 C1951 1.561 . S
C1954 C1951 1.526 . S
C1954 C1955 1.396 . S
C1954 C1959 1.390 . S
C1955 C1949 1.465 . S
C1955 C1954 1.396 . S
C1955 C1956 1.399 . S
C1956 H1942 0.929 . S
C1956 C1955 1.399 . S
C1956 C1957 1.385 . S
C1957 H1943 0.931 . S
C1957 C1956 1.385 . S
C1957 C1958 1.389 . S
C1958 C1957 1.389 . S
C1958 C1959 1.387 . S
C1959 H1944 0.930 . S
C1959 C1954 1.390 . S
C1959 C1958 1.387 . S
H1960 C1972 0.930 . S
H1961 C1974 0.930 . S
H1962 C1975 0.930 . S
H1963 C1979 0.959 . S
H1964 C1979 0.959 . S
H1965 C1979 0.961 . S
H1966 C1980 0.960 . S
H1967 C1980 0.961 . S
H1968 C1980 0.959 . S
H1969 C1983 0.929 . S
H1970 C1984 0.931 . S
H1971 C1986 0.930 . S
C1972 H1960 0.930 . S
C1972 C1973 1.399 . S
C1972 C1977 1.399 . S
C1973 C1972 1.399 . S
C1973 C1974 1.376 . S
C1974 H1961 0.930 . S
C1974 C1973 1.376 . S
C1974 C1975 1.388 . S
C1975 H1962 0.930 . S
C1975 C1974 1.388 . S
C1975 C1976 1.390 . S
C1976 C1975 1.390 . S
C1976 C1977 1.394 . S
C1976 C1982 1.465 . S
C1977 C1972 1.399 . S
C1977 C1976 1.394 . S
C1977 C1978 1.516 . S
C1978 C1977 1.516 . S
C1978 C1979 1.502 . S
C1978 C1980 1.561 . S
C1978 C1981 1.526 . S
C1979 H1963 0.959 . S
C1979 H1964 0.959 . S
C1979 H1965 0.961 . S
C1979 C1978 1.502 . S
C1980 H1966 0.960 . S
C1980 H1967 0.961 . S
C1980 H1968 0.959 . S
C1980 C1978 1.561 . S
C1981 C1978 1.526 . S
C1981 C1982 1.396 . S
C1981 C1986 1.390 . S
C1982 C1976 1.465 . S
C1982 C1981 1.396 . S
C1982 C1983 1.399 . S
C1983 H1969 0.929 . S
C1983 C1982 1.399 . S
C1983 C1984 1.385 . S
C1984 H1970 0.931 . S
C1984 C1983 1.385 . S
C1984 C1985 1.389 . S
C1985 C1984 1.389 . S
C1985 C1986 1.387 . S
C1986 H1971 0.930 . S
C1986 C1981 1.390 . S
C1986 C1985 1.387 . S
H1987 C1999 0.930 . S
H1988 C2001 0.930 . S
H1989 C2002 0.930 . S
H1990 C2006 0.959 . S
H1991 C2006 0.959 . S
H1992 C2006 0.961 . S
H1993 C2007 0.960 . S
H1994 C2007 0.961 . S
H1995 C2007 0.959 . S
H1996 C2010 0.929 . S
H1997 C2011 0.931 . S
H1998 C2013 0.930 . S
C1999 H1987 0.930 . S
C1999 C2000 1.399 . S
C1999 C2004 1.399 . S
C2000 C1999 1.399 . S
C2000 C2001 1.376 . S
C2001 H1988 0.930 . S
C2001 C2000 1.376 . S
C2001 C2002 1.388 . S
C2002 H1989 0.930 . S
C2002 C2001 1.388 . S
C2002 C2003 1.390 . S
C2003 C2002 1.390 . S
C2003 C2004 1.394 . S
C2003 C2009 1.465 . S
C2004 C1999 1.399 . S
C2004 C2003 1.394 . S
C2004 C2005 1.516 . S
C2005 C2004 1.516 . S
C2005 C2006 1.502 . S
C2005 C2007 1.561 . S
C2005 C2008 1.526 . S
C2006 H1990 0.959 . S
C2006 H1991 0.959 . S
C2006 H1992 0.961 . S
C2006 C2005 1.502 . S
C2007 H1993 0.960 . S
C2007 H1994 0.961 . S
C2007 H1995 0.959 . S
C2007 C2005 1.561 . S
C2008 C2005 1.526 . S
C2008 C2009 1.396 . S
C2008 C2013 1.390 . S
C2009 C2003 1.465 . S
C2009 C2008 1.396 . S
C2009 C2010 1.399 . S
C2010 H1996 0.929 . S
C2010 C2009 1.399 . S
C2010 C2011 1.385 . S
C2011 H1997 0.931 . S
C2011 C2010 1.385 . S
C2011 C2012 1.389 . S
C2012 C2011 1.389 . S
C2012 C2013 1.387 . S
C2013 H1998 0.930 . S
C2013 C2008 1.390 . S
C2013 C2012 1.387 . S
H2014 C2026 0.930 . S
H2015 C2028 0.930 . S
H2016 C2029 0.930 . S
H2017 C2033 0.959 . S
H2018 C2033 0.959 . S
H2019 C2033 0.961 . S
H2020 C2034 0.960 . S
H2021 C2034 0.961 . S
H2022 C2034 0.959 . S
H2023 C2037 0.929 . S
H2024 C2038 0.931 . S
H2025 C2040 0.930 . S
C2026 H2014 0.930 . S
C2026 C2027 1.399 . S
C2026 C2031 1.399 . S
C2027 C2026 1.399 . S
C2027 C2028 1.376 . S
C2028 H2015 0.930 . S
C2028 C2027 1.376 . S
C2028 C2029 1.388 . S
C2029 H2016 0.930 . S
C2029 C2028 1.388 . S
C2029 C2030 1.390 . S
C2030 C2029 1.390 . S
C2030 C2031 1.394 . S
C2030 C2036 1.465 . S
C2031 C2026 1.399 . S
C2031 C2030 1.394 . S
C2031 C2032 1.516 . S
C2032 C2031 1.516 . S
C2032 C2033 1.502 . S
C2032 C2034 1.561 . S
C2032 C2035 1.526 . S
C2033 H2017 0.959 . S
C2033 H2018 0.959 . S
C2033 H2019 0.961 . S
C2033 C2032 1.502 . S
C2034 H2020 0.960 . S
C2034 H2021 0.961 . S
C2034 H2022 0.959 . S
C2034 C2032 1.561 . S
C2035 C2032 1.526 . S
C2035 C2036 1.396 . S
C2035 C2040 1.390 . S
C2036 C2030 1.465 . S
C2036 C2035 1.396 . S
C2036 C2037 1.399 . S
C2037 H2023 0.929 . S
C2037 C2036 1.399 . S
C2037 C2038 1.385 . S
C2038 H2024 0.931 . S
C2038 C2037 1.385 . S
C2038 C2039 1.389 . S
C2039 C2038 1.389 . S
C2039 C2040 1.387 . S
C2040 H2025 0.930 . S
C2040 C2035 1.390 . S
C2040 C2039 1.387 . S
H2041 C2053 0.930 . S
H2042 C2055 0.930 . S
H2043 C2056 0.930 . S
H2044 C2060 0.959 . S
H2045 C2060 0.959 . S
H2046 C2060 0.961 . S
H2047 C2061 0.960 . S
H2048 C2061 0.961 . S
H2049 C2061 0.959 . S
H2050 C2064 0.929 . S
H2051 C2065 0.931 . S
H2052 C2067 0.930 . S
C2053 H2041 0.930 . S
C2053 C2054 1.399 . S
C2053 C2058 1.399 . S
C2054 C2053 1.399 . S
C2054 C2055 1.376 . S
C2055 H2042 0.930 . S
C2055 C2054 1.376 . S
C2055 C2056 1.388 . S
C2056 H2043 0.930 . S
C2056 C2055 1.388 . S
C2056 C2057 1.390 . S
C2057 C2056 1.390 . S
C2057 C2058 1.394 . S
C2057 C2063 1.465 . S
C2058 C2053 1.399 . S
C2058 C2057 1.394 . S
C2058 C2059 1.516 . S
C2059 C2058 1.516 . S
C2059 C2060 1.502 . S
C2059 C2061 1.561 . S
C2059 C2062 1.526 . S
C2060 H2044 0.959 . S
C2060 H2045 0.959 . S
C2060 H2046 0.961 . S
C2060 C2059 1.502 . S
C2061 H2047 0.960 . S
C2061 H2048 0.961 . S
C2061 H2049 0.959 . S
C2061 C2059 1.561 . S
C2062 C2059 1.526 . S
C2062 C2063 1.396 . S
C2062 C2067 1.390 . S
C2063 C2057 1.465 . S
C2063 C2062 1.396 . S
C2063 C2064 1.399 . S
C2064 H2050 0.929 . S
C2064 C2063 1.399 . S
C2064 C2065 1.385 . S
C2065 H2051 0.931 . S
C2065 C2064 1.385 . S
C2065 C2066 1.389 . S
C2066 C2065 1.389 . S
C2066 C2067 1.387 . S
C2067 H2052 0.930 . S
C2067 C2062 1.390 . S
C2067 C2066 1.387 . S
H2068 C2080 0.930 . S
H2069 C2082 0.930 . S
H2070 C2083 0.930 . S
H2071 C2087 0.959 . S
H2072 C2087 0.959 . S
H2073 C2087 0.961 . S
H2074 C2088 0.960 . S
H2075 C2088 0.961 . S
H2076 C2088 0.959 . S
H2077 C2091 0.929 . S
H2078 C2092 0.931 . S
H2079 C2094 0.930 . S
C2080 H2068 0.930 . S
C2080 C2081 1.399 . S
C2080 C2085 1.399 . S
C2081 C2080 1.399 . S
C2081 C2082 1.376 . S
C2082 H2069 0.930 . S
C2082 C2081 1.376 . S
C2082 C2083 1.388 . S
C2083 H2070 0.930 . S
C2083 C2082 1.388 . S
C2083 C2084 1.390 . S
C2084 C2083 1.390 . S
C2084 C2085 1.394 . S
C2084 C2090 1.465 . S
C2085 C2080 1.399 . S
C2085 C2084 1.394 . S
C2085 C2086 1.516 . S
C2086 C2085 1.516 . S
C2086 C2087 1.502 . S
C2086 C2088 1.561 . S
C2086 C2089 1.526 . S
C2087 H2071 0.959 . S
C2087 H2072 0.959 . S
C2087 H2073 0.961 . S
C2087 C2086 1.502 . S
C2088 H2074 0.960 . S
C2088 H2075 0.961 . S
C2088 H2076 0.959 . S
C2088 C2086 1.561 . S
C2089 C2086 1.526 . S
C2089 C2090 1.396 . S
C2089 C2094 1.390 . S
C2090 C2084 1.465 . S
C2090 C2089 1.396 . S
C2090 C2091 1.399 . S
C2091 H2077 0.929 . S
C2091 C2090 1.399 . S
C2091 C2092 1.385 . S
C2092 H2078 0.931 . S
C2092 C2091 1.385 . S
C2092 C2093 1.389 . S
C2093 C2092 1.389 . S
C2093 C2094 1.387 . S
C2094 H2079 0.930 . S
C2094 C2089 1.390 . S
C2094 C2093 1.387 . S
H2095 C2107 0.930 . S
H2096 C2109 0.930 . S
H2097 C2110 0.930 . S
H2098 C2114 0.959 . S
H2099 C2114 0.959 . S
H2100 C2114 0.961 . S
H2101 C2115 0.960 . S
H2102 C2115 0.961 . S
H2103 C2115 0.959 . S
H2104 C2118 0.929 . S
H2105 C2119 0.931 . S
H2106 C2121 0.930 . S
C2107 H2095 0.930 . S
C2107 C2108 1.399 . S
C2107 C2112 1.399 . S
C2108 C2107 1.399 . S
C2108 C2109 1.376 . S
C2109 H2096 0.930 . S
C2109 C2108 1.376 . S
C2109 C2110 1.388 . S
C2110 H2097 0.930 . S
C2110 C2109 1.388 . S
C2110 C2111 1.390 . S
C2111 C2110 1.390 . S
C2111 C2112 1.394 . S
C2111 C2117 1.465 . S
C2112 C2107 1.399 . S
C2112 C2111 1.394 . S
C2112 C2113 1.516 . S
C2113 C2112 1.516 . S
C2113 C2114 1.502 . S
C2113 C2115 1.561 . S
C2113 C2116 1.526 . S
C2114 H2098 0.959 . S
C2114 H2099 0.959 . S
C2114 H2100 0.961 . S
C2114 C2113 1.502 . S
C2115 H2101 0.960 . S
C2115 H2102 0.961 . S
C2115 H2103 0.959 . S
C2115 C2113 1.561 . S
C2116 C2113 1.526 . S
C2116 C2117 1.396 . S
C2116 C2121 1.390 . S
C2117 C2111 1.465 . S
C2117 C2116 1.396 . S
C2117 C2118 1.399 . S
C2118 H2104 0.929 . S
C2118 C2117 1.399 . S
C2118 C2119 1.385 . S
C2119 H2105 0.931 . S
C2119 C2118 1.385 . S
C2119 C2120 1.389 . S
C2120 C2119 1.389 . S
C2120 C2121 1.387 . S
C2121 H2106 0.930 . S
C2121 C2116 1.390 . S
C2121 C2120 1.387 . S
H2122 C2134 0.930 . S
H2123 C2136 0.930 . S
H2124 C2137 0.930 . S
H2125 C2141 0.959 . S
H2126 C2141 0.959 . S
H2127 C2141 0.961 . S
H2128 C2142 0.960 . S
H2129 C2142 0.961 . S
H2130 C2142 0.959 . S
H2131 C2145 0.929 . S
H2132 C2146 0.931 . S
H2133 C2148 0.930 . S
C2134 H2122 0.930 . S
C2134 C2135 1.399 . S
C2134 C2139 1.399 . S
C2135 C2134 1.399 . S
C2135 C2136 1.376 . S
C2136 H2123 0.930 . S
C2136 C2135 1.376 . S
C2136 C2137 1.388 . S
C2137 H2124 0.930 . S
C2137 C2136 1.388 . S
C2137 C2138 1.390 . S
C2138 C2137 1.390 . S
C2138 C2139 1.394 . S
C2138 C2144 1.465 . S
C2139 C2134 1.399 . S
C2139 C2138 1.394 . S
C2139 C2140 1.516 . S
C2140 C2139 1.516 . S
C2140 C2141 1.502 . S
C2140 C2142 1.561 . S
C2140 C2143 1.526 . S
C2141 H2125 0.959 . S
C2141 H2126 0.959 . S
C2141 H2127 0.961 . S
C2141 C2140 1.502 . S
C2142 H2128 0.960 . S
C2142 H2129 0.961 . S
C2142 H2130 0.959 . S
C2142 C2140 1.561 . S
C2143 C2140 1.526 . S
C2143 C2144 1.396 . S
C2143 C2148 1.390 . S
C2144 C2138 1.465 . S
C2144 C2143 1.396 . S
C2144 C2145 1.399 . S
C2145 H2131 0.929 . S
C2145 C2144 1.399 . S
C2145 C2146 1.385 . S
C2146 H2132 0.931 . S
C2146 C2145 1.385 . S
C2146 C2147 1.389 . S
C2147 C2146 1.389 . S
C2147 C2148 1.387 . S
C2148 H2133 0.930 . S
C2148 C2143 1.390 . S
C2148 C2147 1.387 . S
H2149 C2161 0.930 . S
H2150 C2163 0.930 . S
H2151 C2164 0.930 . S
H2152 C2168 0.959 . S
H2153 C2168 0.959 . S
H2154 C2168 0.961 . S
H2155 C2169 0.960 . S
H2156 C2169 0.961 . S
H2157 C2169 0.959 . S
H2158 C2172 0.929 . S
H2159 C2173 0.931 . S
H2160 C2175 0.930 . S
C2161 H2149 0.930 . S
C2161 C2162 1.399 . S
C2161 C2166 1.399 . S
C2162 C2161 1.399 . S
C2162 C2163 1.376 . S
C2163 H2150 0.930 . S
C2163 C2162 1.376 . S
C2163 C2164 1.388 . S
C2164 H2151 0.930 . S
C2164 C2163 1.388 . S
C2164 C2165 1.390 . S
C2165 C2164 1.390 . S
C2165 C2166 1.394 . S
C2165 C2171 1.465 . S
C2166 C2161 1.399 . S
C2166 C2165 1.394 . S
C2166 C2167 1.516 . S
C2167 C2166 1.516 . S
C2167 C2168 1.502 . S
C2167 C2169 1.561 . S
C2167 C2170 1.526 . S
C2168 H2152 0.959 . S
C2168 H2153 0.959 . S
C2168 H2154 0.961 . S
C2168 C2167 1.502 . S
C2169 H2155 0.960 . S
C2169 H2156 0.961 . S
C2169 H2157 0.959 . S
C2169 C2167 1.561 . S
C2170 C2167 1.526 . S
C2170 C2171 1.396 . S
C2170 C2175 1.390 . S
C2171 C2165 1.465 . S
C2171 C2170 1.396 . S
C2171 C2172 1.399 . S
C2172 H2158 0.929 . S
C2172 C2171 1.399 . S
C2172 C2173 1.385 . S
C2173 H2159 0.931 . S
C2173 C2172 1.385 . S
C2173 C2174 1.389 . S
C2174 C2173 1.389 . S
C2174 C2175 1.387 . S
C2175 H2160 0.930 . S
C2175 C2170 1.390 . S
C2175 C2174 1.387 . S
C461 C383 1.296 . S
C473 C5 1.298 . S
C488 C19 1.290 1_655 S
C500 C117 1.292 . S
C515 C355 1.296 . S
C527 C33 1.298 . S
C542 C47 1.273 . S
C554 C145 1.281 . S
C569 C61 1.290 . S
C581 C411 1.290 . S
C596 C75 1.292 . S
C608 C201 1.293 . S
C623 C89 1.273 . S
C635 C439 1.283 . S
C650 C103 1.279 1_655 S
C662 C173 1.286 . S
C677 C275 1.321 . S
C689 C121 1.317 . S
C704 C9 1.318 . S
C716 C135 1.307 1_455 S
C731 C247 1.340 . S
C743 C149 1.313 . S
C758 C163 1.305 . S
C770 C37 1.337 . S
C785 C303 1.339 . S
C797 C177 1.311 . S
C812 C93 1.339 . S
C824 C191 1.342 . S
C839 C205 1.342 . S
C851 C331 1.338 . S
C866 C65 1.342 . S
C878 C219 1.339 1_455 S
C893 C229 1.263 . S
C905 C159 1.277 . S
C920 C243 1.268 . S
C932 C341 1.280 . S
C947 C131 1.276 . S
C959 C257 1.264 . S
C974 C369 1.292 . S
C986 C271 1.290 1_455 S
C1001 C187 1.296 . S
C1013 C285 1.299 . S
C1028 C425 1.296 . S
C1040 C299 1.299 1_455 S
C1055 C215 1.293 . S
C1067 C313 1.292 . S
C1082 C327 1.298 . S
C1094 C397 1.296 . S
C1109 C51 1.317 . S
C1121 C345 1.304 . S
C1136 C359 1.288 . S
C1148 C233 1.318 . S
C1163 C373 1.342 . S
C1175 C23 1.337 . S
C1190 C387 1.340 1_655 S
C1202 C261 1.333 . S
C1217 C401 1.284 . S
C1229 C79 1.323 . S
C1244 C415 1.328 1_655 S
C1256 C317 1.343 . S
C1271 C429 1.342 . S
C1283 C107 1.339 . S
C1298 C443 1.334 . S
C1310 C289 1.329 . S
C1325 C347 1.494 . S
C1337 C0 1.495 . S
C1352 C14 1.484 . S
C1364 C137 1.520 . S
C1379 C375 1.514 . S
C1391 C28 1.496 . S
C1406 C42 1.505 . S
C1418 C165 1.487 . S
C1433 C403 1.516 . S
C1445 C56 1.491 . S
C1460 C70 1.493 . S
C1472 C193 1.515 . S
C1487 C431 1.498 . S
C1499 C84 1.491 . S
C1514 C98 1.477 . S
C1526 C221 1.512 . S
C1541 C123 1.489 . S
C1553 C224 1.501 . S
C1568 C151 1.496 . S
C1580 C252 1.492 . S
C1595 C179 1.489 . S
C1607 C280 1.502 . S
C1622 C207 1.491 . S
C1634 C308 1.499 . S
C1649 C238 1.495 . S
C1661 C361 1.513 . S
C1676 C389 1.517 . S
C1688 C266 1.475 . S
C1703 C417 1.519 . S
C1715 C294 1.475 . S
C1730 C322 1.504 . S
C1742 C445 1.487 . S
C1757 C11 1.397 . S
C1769 C81 1.391 . S
C1784 C25 1.403 . S
C1796 C95 1.392 . S
C1811 C39 1.402 . S
C1823 C109 1.392 . S
C1838 C67 1.403 . S
C1850 C53 1.411 . S
C1865 C112 1.553 . S
C1877 C182 1.534 . S
C1892 C126 1.530 . S
C1904 C196 1.544 . S
C1919 C140 1.553 . S
C1931 C210 1.555 . S
C1946 C154 1.550 . S
C1958 C168 1.533 . S
C1973 C235 1.406 . S
C1985 C305 1.410 . S
C2000 C319 1.397 . S
C2012 C249 1.391 . S
C2027 C263 1.402 . S
C2039 C333 1.410 . S
C2054 C277 1.395 . S
C2066 C291 1.407 . S
C2081 C406 1.539 . S
C2093 C336 1.556 . S
C2108 C350 1.534 . S
C2120 C420 1.553 . S
C2135 C434 1.558 . S
C2147 C364 1.544 . S
C2162 C378 1.531 . S
C2174 C392 1.538 . S
