# Generated by pormake.
# Topology kag, (6)-cn, num edge types: 1
# Building blocks:
#     Node 0, Type 0, BuildingBlock: FUNLAD_clean_sbu_0, # of connection points: 6
#     Node 1, Type 0, BuildingBlock: FUNLAD_clean_sbu_0, # of connection points: 6
#     Node 2, Type 0, BuildingBlock: FUNLAD_clean_sbu_0, # of connection points: 6
#     Edge 3, Type (0, 0), BuildingBlock: MIFKUJ_clean_linker_0, # of connection points: 2
#     Edge 4, Type (0, 0), BuildingBlock: MIFKUJ_clean_linker_0, # of connection points: 2
#     Edge 5, Type (0, 0), BuildingBlock: MIFKUJ_clean_linker_0, # of connection points: 2
#     Edge 6, Type (0, 0), BuildingBlock: MIFKUJ_clean_linker_0, # of connection points: 2
#     Edge 7, Type (0, 0), BuildingBlock: MIFKUJ_clean_linker_0, # of connection points: 2
#     Edge 8, Type (0, 0), BuildingBlock: MIFKUJ_clean_linker_0, # of connection points: 2
#     Edge 9, Type (0, 0), BuildingBlock: MIFKUJ_clean_linker_0, # of connection points: 2
#     Edge 10, Type (0, 0), BuildingBlock: MIFKUJ_clean_linker_0, # of connection points: 2
#     Edge 11, Type (0, 0), BuildingBlock: MIFKUJ_clean_linker_0, # of connection points: 2
# Relax obj value: 0.141
# Max RMSD: 0.177
# Mean RMSD: 0.176
data_MOF--net-kag--node1-FUNLAD_clean_sbu_0--edge1-MIFKUJ_clean_linker_0
_symmetry_space_group_name_H-M    P1
_symmetry_Int_Tables_number       1
_symmetry_cell_setting            triclinic
loop_
_symmetry_equiv_pos_as_xyz
'x, y, z'
_cell_length_a     37.635404
_cell_length_b     37.156053
_cell_length_c     26.256844
_cell_angle_alpha  89.10915
_cell_angle_beta   93.08063
_cell_angle_gamma 120.29925
loop_
_atom_site_label
_atom_site_type_symbol
_atom_site_fract_x
_atom_site_fract_y
_atom_site_fract_z
_atom_type_partial_charge
C0 C 0.92 0.43684 0.99588 0.0
N1 N 0.98441 0.41909 0.11871 0.0
C2 C 0.98225 0.44993 0.14309 0.0
C3 C 0.98167 0.45041 0.19616 0.0
C4 C 0.9834 0.4189 0.22451 0.0
C5 C -0.01402 0.38767 0.19832 0.0
C6 C -0.0136 0.38834 0.14518 0.0
Zn7 Zn 0.98313 0.41822 0.04093 0.0
C8 C 0.92361 0.33415 0.99845 0.0
N9 N 0.97866 0.4159 0.87829 0.0
C10 C 0.97619 0.44651 0.8521 0.0
C11 C 0.98036 0.38494 0.85356 0.0
C12 C 0.97976 0.38407 0.80037 0.0
C13 C 0.97731 0.41533 0.7723 0.0
C14 C 0.97542 0.44679 0.7989 0.0
Zn15 Zn 0.98026 0.41674 0.95612 0.0
O16 O 0.9355 0.43229 0.03792 0.0
C17 C 0.03896 0.50106 0.99895 0.0
O18 O 0.93259 0.43148 0.95428 0.0
H19 H 0.9824 0.36097 0.87515 0.0
H20 H 0.98056 0.47401 0.1213 0.0
H21 H 0.97483 0.47081 0.87251 0.0
O22 O 0.02699 0.48224 0.04083 0.0
O23 O 0.02444 0.48088 0.95714 0.0
H24 H -0.01188 0.36415 0.12504 0.0
O25 O 0.02869 0.40319 0.95938 0.0
O26 O 0.03103 0.40501 0.04302 0.0
O27 O 0.93558 0.3526 0.95633 0.0
O28 O 0.93921 0.35443 0.03998 0.0
C29 C 0.04506 0.40084 1.002 0.0
H30 H 0.97913 0.4748 0.21469 0.0
H31 H -0.01205 0.36311 0.21866 0.0
H32 H 0.98183 0.35953 0.78153 0.0
H33 H 0.97293 0.47118 0.77883 0.0
C34 C 0.343 0.93124 1.00969 0.0
N35 N 0.42149 0.00145 0.13333 0.0
C36 C 0.38802 -0.00276 0.15619 0.0
C37 C 0.38742 -0.00257 0.20931 0.0
C38 C 0.42164 0.0021 0.23919 0.0
C39 C 0.45585 0.00665 0.21452 0.0
C40 C 0.45511 0.0062 0.16133 0.0
Zn41 Zn 0.42126 -7e-05 0.05562 0.0
C42 C 0.45439 0.94744 0.0199 0.0
N43 N 0.42159 -0.0032 0.89335 0.0
C44 C 0.38801 0.9917 0.86496 0.0
C45 C 0.45536 0.00134 0.8709 0.0
C46 C 0.45628 0.00106 0.81784 0.0
C47 C 0.42209 -0.00403 0.78756 0.0
C48 C 0.38759 0.99115 0.81179 0.0
Zn49 Zn 0.42147 -0.00173 0.97101 0.0
O50 O 0.36077 0.94813 0.05236 0.0
C51 C 0.39246 0.05404 1.00687 0.0
O52 O 0.36157 0.94629 0.96896 0.0
H53 H 0.48171 0.00529 0.89419 0.0
H54 H 0.36168 0.99362 0.13317 0.0
H55 H 0.36156 0.98829 0.88359 0.0
O56 O 0.39862 0.0418 0.05019 0.0
O57 O 0.39809 0.03929 0.96673 0.0
H58 H 0.48134 0.00936 0.1424 0.0
O59 O 0.48096 0.04965 0.97403 0.0
O60 O 0.48187 0.05114 0.0576 0.0
O61 O 0.44676 0.95851 0.97657 0.0
O62 O 0.44526 0.95912 0.05993 0.0
C63 C 0.49984 0.0658 0.0164 0.0
H64 H 0.36061 0.99432 0.22678 0.0
H65 H 0.48265 0.00979 0.23606 0.0
H66 H 0.48332 0.00439 0.80074 0.0
H67 H 0.36079 0.9877 0.78991 0.0
C68 C 0.62947 0.57528 0.02229 0.0
N69 N 0.55017 0.5703 0.9015 0.0
C70 C 0.58354 0.59997 0.87765 0.0
C71 C 0.58361 0.60077 0.82447 0.0
C72 C 0.549 0.57072 0.79551 0.0
C73 C 0.51481 0.54076 0.82117 0.0
C74 C 0.51605 0.54112 0.8744 0.0
Zn75 Zn 0.55183 0.56865 0.97936 0.0
C76 C 0.5185 0.48194 0.01717 0.0
N77 N 0.55483 0.56399 0.14196 0.0
C78 C 0.58906 0.59287 0.16915 0.0
C79 C 0.52115 0.5347 0.1657 0.0
C80 C 0.52091 0.53399 0.21886 0.0
C81 C 0.55562 0.56376 0.24793 0.0
C82 C 0.5901 0.59335 0.22238 0.0
Zn83 Zn 0.55335 0.56569 0.06408 0.0
O84 O 0.61123 0.57643 0.98071 0.0
C85 C 0.58378 0.652 0.02656 0.0
O86 O 0.61266 0.57211 0.06415 0.0
H87 H 0.49419 0.51214 0.14336 0.0
H88 H 0.61039 0.62279 0.89994 0.0
H89 H 0.61551 0.61582 0.14949 0.0
O90 O 0.57612 0.63384 0.98339 0.0
O91 O 0.57861 0.63094 0.0669 0.0
H92 H 0.48981 0.51787 0.89411 0.0
O93 O 0.49376 0.55807 0.06252 0.0
O94 O 0.49207 0.55976 0.97891 0.0
O95 O 0.52687 0.50039 0.06019 0.0
O96 O 0.52657 0.5032 0.97664 0.0
C97 C 0.47461 0.55597 0.02032 0.0
H98 H 0.61083 0.62413 0.8063 0.0
H99 H 0.48729 0.51735 0.80035 0.0
H100 H 0.49348 0.51093 0.23695 0.0
H101 H 0.61769 0.61653 0.24331 0.0
H102 H 0.017 0.4822 0.7097 0.0
H103 H 0.0162 0.48205 0.61662 0.0
H104 H 0.9369 0.34841 0.61353 0.0
H105 H 0.93705 0.34829 0.70669 0.0
H106 H -0.00018 0.37358 0.55014 0.0
H107 H 0.89776 0.40992 0.58291 0.0
H108 H 0.87009 0.44996 0.62202 0.0
H109 H 0.96109 0.56163 0.55191 0.0
H110 H -0.01028 0.52236 0.51295 0.0
H111 H 0.94165 0.35149 0.28564 0.0
H112 H 0.94024 0.35074 0.3786 0.0
H113 H 0.02016 0.48428 0.38413 0.0
H114 H 0.0222 0.48529 0.29116 0.0
H115 H 0.95595 0.45846 0.44616 0.0
H116 H 0.05848 0.42216 0.41434 0.0
H117 H 0.08585 0.38197 0.37489 0.0
H118 H -0.00644 0.27002 0.44313 0.0
H119 H 0.96524 0.30946 0.48242 0.0
C120 C -0.00102 0.4528 0.68925 0.0
C121 C 0.97695 0.41526 0.71567 0.0
C122 C -0.00135 0.45278 0.63604 0.0
C123 C 0.97618 0.41526 0.60818 0.0
C124 C 0.95449 0.3777 0.63436 0.0
C125 C 0.95474 0.37769 0.68759 0.0
C126 C 0.97572 0.41522 0.55171 0.0
C127 C -0.01033 0.39166 0.52735 0.0
C128 C 0.96333 0.43956 0.52212 0.0
C129 C 0.94615 0.46327 0.54543 0.0
C130 C 0.91211 0.44309 0.57618 0.0
C131 C 0.8962 0.46563 0.59826 0.0
C132 C 0.91389 0.50834 0.58957 0.0
C133 C 0.94746 0.52856 0.55867 0.0
C134 C 0.96352 0.50617 0.53654 0.0
C135 C 0.9593 0.38067 0.30664 0.0
C136 C 0.98223 0.41844 0.28098 0.0
C137 C 0.95833 0.38019 0.35974 0.0
C138 C 0.9804 0.41741 0.38824 0.0
C139 C 0.00286 0.45522 0.36279 0.0
C140 C 0.00389 0.45573 0.30967 0.0
C141 C 0.98012 0.41689 0.44465 0.0
C142 C 0.96604 0.44035 0.46899 0.0
C143 C -0.00763 0.39245 0.47422 0.0
C144 C 0.00949 0.3687 0.45091 0.0
C145 C 0.04382 0.38891 0.42061 0.0
C146 C 0.05954 0.36628 0.39833 0.0
C147 C 0.04139 0.32345 0.40639 0.0
C148 C 0.00755 0.30318 0.43687 0.0
C149 C -0.00833 0.32567 0.45919 0.0
H150 H 0.05361 0.30598 0.38911 0.0
H151 H 0.90153 0.52573 0.60668 0.0
H152 H 0.4846 0.05265 0.30716 0.0
H153 H 0.48479 0.05115 0.40028 0.0
H154 H 0.35884 0.9497 0.39223 0.0
H155 H 0.35844 0.95095 0.29905 0.0
H156 H 0.37011 0.00747 0.46157 0.0
H157 H 0.43799 0.93217 0.42153 0.0
H158 H 0.48974 0.92125 0.38171 0.0
H159 H 0.58698 0.02689 0.46448 0.0
H160 H 0.5358 0.0388 0.50428 0.0
H161 H 0.35964 0.94494 0.71933 0.0
H162 H 0.3599 0.94627 0.62624 0.0
H163 H 0.48561 0.04821 0.63486 0.0
H164 H 0.48554 0.04718 0.72802 0.0
H165 H 0.47464 0.99032 0.5653 0.0
H166 H 0.40687 0.0657 0.60523 0.0
H167 H 0.35519 0.07662 0.64523 0.0
H168 H 0.25783 0.9709 0.56271 0.0
H169 H 0.30895 0.95898 0.52274 0.0
C170 C 0.45704 0.02981 0.32522 0.0
C171 C 0.42155 0.0018 0.29573 0.0
C172 C 0.45718 0.02902 0.37842 0.0
C173 C 0.42198 -2e-05 0.40317 0.0
C174 C 0.38632 0.97238 0.37388 0.0
C175 C 0.38611 0.97323 0.32066 0.0
C176 C 0.42226 -0.00152 0.45965 0.0
C177 C 0.39261 0.00315 0.48424 0.0
C178 C 0.45224 0.99382 0.48922 0.0
C179 C 0.48307 0.98661 0.4655 0.0
C180 C 0.47042 0.95327 0.43094 0.0
C181 C 0.49965 0.94687 0.40842 0.0
C182 C 0.54163 0.97342 0.42046 0.0
C183 C 0.55446 0.00638 0.45514 0.0
C184 C 0.52535 0.01295 0.47772 0.0
C185 C 0.38724 0.96785 0.70141 0.0
C186 C 0.4225 -0.0039 0.73105 0.0
C187 C 0.38737 0.96852 0.64823 0.0
C188 C 0.42262 -0.00233 0.62364 0.0
C189 C 0.45809 0.02545 0.65309 0.0
C190 C 0.45803 0.02474 0.7063 0.0
C191 C 0.42246 -0.00074 0.56719 0.0
C192 C 0.45214 -0.00537 0.54262 0.0
C193 C 0.39252 0.00397 0.53762 0.0
C194 C 0.36173 0.01122 0.56137 0.0
C195 C 0.37443 0.04459 0.5959 0.0
C196 C 0.34524 0.05099 0.61852 0.0
C197 C 0.30325 0.02441 0.60662 0.0
C198 C 0.29037 0.99143 0.57195 0.0
C199 C 0.31944 0.98486 0.54927 0.0
H200 H 0.2807 0.02942 0.62417 0.0
H201 H 0.56421 0.96842 0.40299 0.0
H202 H 0.51957 0.50287 0.7319 0.0
H203 H 0.52032 0.50199 0.63895 0.0
H204 H 0.57998 0.63619 0.63814 0.0
H205 H 0.57819 0.63725 0.73111 0.0
H206 H 0.51892 0.60113 0.56421 0.0
H207 H 0.63497 0.58832 0.6228 0.0
H208 H 0.67067 0.5578 0.67225 0.0
H209 H 0.5944 0.44038 0.59464 0.0
H210 H 0.55783 0.47005 0.54521 0.0
H211 H 0.58513 0.63169 0.31139 0.0
H212 H 0.58407 0.63264 0.40435 0.0
H213 H 0.52392 0.49842 0.40529 0.0
H214 H 0.52589 0.49728 0.31234 0.0
H215 H 0.58524 0.53353 0.47914 0.0
H216 H 0.46924 0.54634 0.42049 0.0
H217 H 0.43342 0.57677 0.37116 0.0
H218 H 0.5095 0.69416 0.44891 0.0
H219 H 0.5462 0.66457 0.49823 0.0
C220 C 0.53243 0.53218 0.71194 0.0
C221 C 0.54891 0.57015 0.73893 0.0
C222 C 0.5332 0.53165 0.65884 0.0
C223 C 0.55068 0.56906 0.6317 0.0
C224 C 0.56651 0.60697 0.65839 0.0
C225 C 0.56577 0.60754 0.71152 0.0
C226 C 0.55255 0.56863 0.57545 0.0
C227 C 0.53391 0.58686 0.54562 0.0
C228 C 0.5713 0.54917 0.5512 0.0
C229 C 0.5934 0.53131 0.58066 0.0
C230 C 0.6256 0.5559 0.61655 0.0
C231 C 0.64603 0.53877 0.64453 0.0
C232 C 0.63474 0.49715 0.63668 0.0
C233 C 0.60307 0.4726 0.60072 0.0
C234 C 0.58251 0.48957 0.57268 0.0
C235 C 0.57207 0.60239 0.3314 0.0
C236 C 0.55552 0.56439 0.30447 0.0
C237 C 0.57114 0.60297 0.38448 0.0
C238 C 0.55347 0.56557 0.41166 0.0
C239 C 0.53754 0.52762 0.38502 0.0
C240 C 0.5384 0.52701 0.33191 0.0
C241 C 0.55162 0.56604 0.4679 0.0
C242 C 0.57026 0.54781 0.49774 0.0
C243 C 0.53287 0.58551 0.49215 0.0
C244 C 0.51075 0.60335 0.46269 0.0
C245 C 0.47856 0.57874 0.42678 0.0
C246 C 0.45806 0.59581 0.39887 0.0
C247 C 0.46925 0.6374 0.4068 0.0
C248 C 0.5009 0.66196 0.44276 0.0
C249 C 0.52155 0.64505 0.47073 0.0
H250 H 0.45333 0.65057 0.38515 0.0
H251 H 0.65059 0.48395 0.65838 0.0
H252 H 0.09098 0.40262 0.08688 0.0
H253 H 0.16367 0.42319 0.09045 0.0
H254 H 0.16163 0.42126 0.92615 0.0
H255 H 0.08876 0.40083 0.92197 0.0
H256 H 0.21547 0.39568 0.97712 0.0
H257 H 0.18367 0.50599 0.9765 0.0
H258 H 0.14947 0.54269 1.00689 0.0
H259 H 0.21181 0.56066 0.15418 0.0
H260 H 0.24558 0.523 0.12505 0.0
H261 H 0.42272 0.5403 0.93644 0.0
H262 H 0.34822 0.51104 0.93475 0.0
H263 H 0.35308 0.51661 0.09907 0.0
H264 H 0.42777 0.54574 0.10133 0.0
H265 H 0.2978 0.53942 0.04926 0.0
H266 H 0.32985 0.42942 0.04969 0.0
H267 H 0.3644 0.39312 0.01891 0.0
H268 H 0.30237 0.37582 0.87149 0.0
H269 H 0.268 0.41272 0.90116 0.0
C270 C 0.10556 0.4053 0.05144 0.0
C271 C 0.08439 0.40103 1.00408 0.0
C272 C 0.1471 0.41708 0.05363 0.0
C273 C 0.16796 0.42454 1.00857 0.0
C274 C 0.14592 0.41583 0.96129 0.0
C275 C 0.10433 0.40424 0.95901 0.0
C276 C 0.21337 0.44699 1.01076 0.0
C277 C 0.23352 0.42718 0.99246 0.0
C278 C 0.23665 0.48798 0.03134 0.0
C279 C 0.21676 0.51114 0.04877 0.0
C280 C 0.18968 0.51724 0.01558 0.0
C281 C 0.17035 0.53823 0.03258 0.0
C282 C 0.17834 0.55388 0.08249 0.0
C283 C 0.20562 0.54848 0.11553 0.0
C284 C 0.22482 0.52726 0.09882 0.0
C285 C 0.40812 0.53597 0.97225 0.0
C286 C 0.43101 0.54479 0.01908 0.0
C287 C 0.36557 0.51919 0.97115 0.0
C288 C 0.34532 0.51113 0.0168 0.0
C289 C 0.36832 0.52246 0.0635 0.0
C290 C 0.4109 0.53896 0.06468 0.0
C291 C 0.29991 0.48805 0.01577 0.0
C292 C 0.27975 0.50783 0.03414 0.0
C293 C 0.27664 0.4471 0.9952 0.0
C294 C 0.29665 0.42419 0.97751 0.0
C295 C 0.32381 0.41815 1.0106 0.0
C296 C 0.34334 0.39744 0.99337 0.0
C297 C 0.33566 0.38226 0.94325 0.0
C298 C 0.30833 0.38765 0.9103 0.0
C299 C 0.28879 0.40844 0.92731 0.0
H300 H 0.35083 0.36625 0.92997 0.0
H301 H 0.16354 0.57032 0.09552 0.0
H302 H 0.54601 0.10468 0.93533 0.0
H303 H 0.62098 0.14637 0.93588 0.0
H304 H 0.62821 0.13983 0.09999 0.0
H305 H 0.55305 0.09824 0.10003 0.0
H306 H 0.68538 0.21757 0.06006 0.0
H307 H 0.633 0.07174 0.03247 0.0
H308 H 0.58662 0.00529 0.98743 0.0
H309 H 0.65005 0.05506 0.84991 0.0
H310 H 0.69524 0.12278 0.8932 0.0
H311 H 0.89167 0.28566 0.08159 0.0
H312 H 0.82068 0.2291 0.08716 0.0
H313 H 0.80095 0.2315 0.92416 0.0
H314 H 0.87203 0.28805 0.91802 0.0
H315 H 0.75015 0.15099 0.96871 0.0
H316 H 0.78796 0.29546 0.98561 0.0
H317 H 0.82824 0.36671 0.02079 0.0
H318 H 0.78999 0.32093 0.17095 0.0
H319 H 0.74985 0.24897 0.13651 0.0
C320 C 0.56345 0.1128 0.97165 0.0
C321 C 0.54379 0.09764 0.01761 0.0
C322 C 0.60621 0.13651 0.97183 0.0
C323 C 0.6298 0.14508 0.01786 0.0
C324 C 0.61027 0.13302 0.06412 0.0
C325 C 0.56742 0.10932 0.06403 0.0
C326 C 0.67474 0.16378 0.01732 0.0
C327 C 0.69958 0.20266 0.04102 0.0
C328 C 0.69283 0.14435 0.99134 0.0
C329 C 0.6673 0.10272 0.96605 0.0
C330 C 0.63678 0.06882 0.99244 0.0
C331 C 0.61046 0.03097 0.9671 0.0
C332 C 0.61531 0.02599 0.91582 0.0
C333 C 0.64631 0.05898 0.88966 0.0
C334 C 0.67212 0.09723 0.91451 0.0
C335 C 0.87276 0.27314 0.04665 0.0
C336 C 0.88695 0.29212 0.99954 0.0
C337 C 0.83226 0.24071 0.04994 0.0
C338 C 0.80556 0.22702 1.00622 0.0
C339 C 0.82119 0.24193 0.95831 0.0
C340 C 0.86179 0.27439 0.95494 0.0
C341 C 0.76065 0.20473 0.01159 0.0
C342 C 0.73585 0.16534 0.98865 0.0
C343 C 0.74228 0.22376 0.03767 0.0
C344 C 0.76653 0.26683 0.05865 0.0
C345 C 0.7886 0.30051 0.02624 0.0
C346 C 0.81141 0.34107 0.04606 0.0
C347 C 0.81198 0.34844 0.0982 0.0
C348 C 0.78967 0.31518 0.1306 0.0
C349 C 0.76691 0.27448 0.11096 0.0
H350 H 0.82945 0.37989 0.11348 0.0
H351 H 0.59518 -0.0035 0.89644 0.0
H352 H 0.46294 0.90712 0.10335 0.0
H353 H 0.49837 0.86714 0.11013 0.0
H354 H 0.53042 0.89377 0.95323 0.0
H355 H 0.4949 0.93369 0.94604 0.0
H356 H 0.47813 0.79764 0.05726 0.0
H357 H 0.62322 0.89778 0.94034 0.0
H358 H 0.67684 0.97121 0.92892 0.0
H359 H 0.6518 0.00377 0.07345 0.0
H360 H 0.59806 0.93059 0.08576 0.0
H361 H 0.59453 0.70575 0.94845 0.0
H362 H 0.58572 0.76655 0.9521 0.0
H363 H 0.57739 0.75462 0.1152 0.0
H364 H 0.5866 0.69424 0.11222 0.0
H365 H 0.62169 0.84583 0.01244 0.0
H366 H 0.48452 0.74973 0.13581 0.0
H367 H 0.43679 0.67624 0.15666 0.0
H368 H 0.44963 0.63758 1.00884 0.0
H369 H 0.49683 0.71087 0.98681 0.0
C370 C 0.47759 0.90454 0.0703 0.0
C371 C 0.47564 0.92308 0.02396 0.0
C372 C 0.49796 0.88183 0.0743 0.0
C373 C 0.51729 0.87774 0.03232 0.0
C374 C 0.51614 0.89694 0.98629 0.0
C375 C 0.49539 0.91931 0.98208 0.0
C376 C 0.53538 0.85033 0.03531 0.0
C377 C 0.50974 0.80847 0.04822 0.0
C378 C 0.57641 0.86419 0.02268 0.0
C379 C 0.60638 0.90874 0.01374 0.0
C380 C 0.62901 0.92066 0.96955 0.0
C381 C 0.65952 0.9622 0.96301 0.0
C382 C 0.66796 0.99204 1.00064 0.0
C383 C 0.64538 0.98055 0.04447 0.0
C384 C 0.61465 0.93911 0.05105 0.0
C385 C 0.59225 0.7169 0.98532 0.0
C386 C 0.59052 0.69471 0.02993 0.0
C387 C 0.5873 0.75169 0.9873 0.0
C388 C 0.58019 0.76443 0.03378 0.0
C389 C 0.58249 0.7449 0.07893 0.0
C390 C 0.58782 0.71042 0.07708 0.0
C391 C 0.56437 0.7936 0.0342 0.0
C392 C 0.5902 0.8354 0.02163 0.0
C393 C 0.52362 0.77992 0.04763 0.0
C394 C 0.49458 0.73575 0.05995 0.0
C395 C 0.47702 0.72555 0.10771 0.0
C396 C 0.45007 0.68394 0.11972 0.0
C397 C 0.44029 0.65226 0.08416 0.0
C398 C 0.45735 0.66213 0.03642 0.0
C399 C 0.48424 0.70371 0.02418 0.0
H400 H 0.41939 0.62011 0.09356 0.0
H401 H 0.69172 0.02415 0.99561 0.0
H402 H 0.88563 0.44832 0.07823 0.0
H403 H 0.83615 0.47235 0.07903 0.0
H404 H 0.83603 0.48132 0.91508 0.0
H405 H 0.88509 0.45631 0.91369 0.0
H406 H 0.84755 0.55351 0.9675 0.0
H407 H 0.7545 0.40655 0.95923 0.0
H408 H 0.72747 0.3333 0.98378 0.0
H409 H 0.70947 0.36182 0.13469 0.0
H410 H 0.73667 0.43539 0.11114 0.0
H411 H 0.67302 0.58135 0.93952 0.0
H412 H 0.72479 0.56067 0.93405 0.0
H413 H 0.72042 0.53736 0.0957 0.0
H414 H 0.66822 0.55763 0.10153 0.0
H415 H 0.71033 0.47115 0.04037 0.0
H416 H 0.80427 0.61911 0.04756 0.0
H417 H 0.83172 0.69214 0.02173 0.0
H418 H 0.84853 0.66148 0.87129 0.0
H419 H 0.82065 0.5881 0.89603 0.0
C420 C 0.87482 0.45497 0.04223 0.0
C421 C 0.88906 0.45013 0.99584 0.0
C422 C 0.84653 0.46867 0.0428 0.0
C423 C 0.8324 0.47837 0.9971 0.0
C424 C 0.84662 0.47385 0.95069 0.0
C425 C 0.87451 0.45949 0.95 0.0
C426 C 0.8037 0.49444 0.99844 0.0
C427 C 0.81725 0.53537 0.98264 0.0
C428 C 0.76466 0.47087 0.01922 0.0
C429 C 0.74794 0.42658 0.03353 0.0
C430 C 0.74501 0.39728 0.99775 0.0
C431 C 0.72952 0.35567 0.01142 0.0
C432 C 0.71677 0.34292 0.06076 0.0
C433 C 0.71933 0.37174 0.09647 0.0
C434 C 0.73468 0.41339 0.08294 0.0
C435 C 0.68367 0.57269 0.97416 0.0
C436 C 0.66637 0.57099 0.02095 0.0
C437 C 0.71329 0.56087 0.97093 0.0
C438 C 0.72634 0.54738 0.01445 0.0
C439 C 0.71058 0.54751 0.06164 0.0
C440 C 0.681 0.55943 0.06495 0.0
C441 C 0.75436 0.53061 1.01005 0.0
C442 C 0.7406 0.48939 0.02518 0.0
C443 C 0.79317 0.5539 0.98847 0.0
C444 C 0.80998 0.59802 0.97351 0.0
C445 C 0.81349 0.62786 1.00884 0.0
C446 C 0.8292 0.66934 0.99442 0.0
C447 C 0.84176 0.68142 0.94486 0.0
C448 C 0.83874 0.65207 0.90965 0.0
C449 C 0.82302 0.61054 0.92386 0.0
H450 H 0.85392 0.71355 0.93378 0.0
H451 H 0.70498 0.31073 0.07133 0.0
H452 H 0.06571 0.55173 0.91646 0.0
H453 H 0.1129 0.62695 0.91658 0.0
H454 H 0.12679 0.62763 0.08083 0.0
H455 H 0.0789 0.55247 0.0812 0.0
H456 H 0.11483 0.68988 0.04795 0.0
H457 H 0.20512 0.63772 1.00787 0.0
H458 H 0.2276 0.59677 0.95979 0.0
H459 H 0.22173 0.65698 0.82141 0.0
H460 H 0.19977 0.69871 0.8687 0.0
H461 H 0.30151 0.88305 0.08958 0.0
H462 H 0.24278 0.81212 0.08487 0.0
H463 H 0.2357 0.81925 0.92074 0.0
H464 H 0.29497 0.88996 0.92502 0.0
H465 H 0.24105 0.75362 0.94975 0.0
H466 H 0.15889 0.81215 0.99261 0.0
H467 H 0.13946 0.85503 0.04173 0.0
H468 H 0.12961 0.7832 0.17544 0.0
H469 H 0.14956 0.74023 0.12732 0.0
C470 C 0.07892 0.56784 0.95262 0.0
C471 C 0.06862 0.54621 0.99883 0.0
C472 C 0.10597 0.61079 0.95259 0.0
C473 C 0.12355 0.63273 0.99869 0.0
C474 C 0.11342 0.61122 0.04487 0.0
C475 C 0.08618 0.56829 0.04497 0.0
C476 C 0.15209 0.67825 0.99879 0.0
C477 C 0.1427 0.7039 0.02697 0.0
C478 C 0.18772 0.69643 0.97021 0.0
C479 C 0.20042 0.671 0.9417 0.0
C480 C 0.20835 0.642 0.96713 0.0
C481 C 0.22107 0.61872 0.94007 0.0
C482 C 0.22572 0.624 0.88757 0.0
C483 C 0.218 0.65283 0.86206 0.0
C484 C 0.20561 0.67644 0.88898 0.0
C485 C 0.28689 0.86989 0.05254 0.0
C486 C 0.30315 0.89186 1.00763 0.0
C487 C 0.25319 0.82939 0.04993 0.0
C488 C 0.23492 0.81046 1.00244 0.0
C489 C 0.24951 0.8333 0.95774 0.0
C490 C 0.28333 0.87369 0.96029 0.0
C491 C 0.20402 0.76548 0.99914 0.0
C492 C 0.21301 0.73981 0.97041 0.0
C493 C 0.16814 0.74741 0.02733 0.0
C494 C 0.15606 0.77317 0.05641 0.0
C495 C 0.15291 0.8057 0.03259 0.0
C496 C 0.14174 0.82998 0.06024 0.0
C497 C 0.13339 0.8219 0.1117 0.0
C498 C 0.13611 0.78945 0.13558 0.0
C499 C 0.1473 0.76508 0.10811 0.0
H500 H 0.12474 0.84074 0.13303 0.0
H501 H 0.2355 0.60588 0.86672 0.0
H502 H 0.487 0.42648 0.09476 0.0
H503 H 0.45573 0.35065 0.08995 0.0
H504 H 0.47432 0.35803 0.92859 0.0
H505 H 0.50556 0.43379 0.93293 0.0
H506 H 0.38768 0.28932 0.03351 0.0
H507 H 0.50717 0.28934 0.90218 0.0
H508 H 0.58062 0.33376 0.88449 0.0
H509 H 0.60596 0.38844 0.03447 0.0
H510 H 0.53284 0.34396 0.0533 0.0
H511 H 0.39299 0.09714 0.92153 0.0
H512 H 0.40259 0.16717 0.91903 0.0
H513 H 0.39018 0.16475 0.08153 0.0
H514 H 0.38086 0.09471 0.08462 0.0
H515 H 0.47111 0.2306 0.97389 0.0
H516 H 0.3552 0.23398 0.107 0.0
H517 H 0.28341 0.18858 0.1308 0.0
H518 H 0.25296 0.12561 0.98555 0.0
H519 H 0.32436 0.17099 0.96058 0.0
C520 C 0.48441 0.41196 0.05823 0.0
C521 C 0.49909 0.43613 0.01428 0.0
C522 C 0.46629 0.36865 0.05553 0.0
C523 C 0.46299 0.34889 1.00902 0.0
C524 C 0.47693 0.37282 0.96493 0.0
C525 C 0.49476 0.41607 0.9675 0.0
C526 C 0.44644 0.30339 1.00684 0.0
C527 C 0.40595 0.27637 0.0209 0.0
C528 C 0.47028 0.28674 0.98987 0.0
C529 C 0.51437 0.31368 0.97884 0.0
C530 C 0.52842 0.31081 0.93138 0.0
C531 C 0.57001 0.33599 0.92118 0.0
C532 C 0.59791 0.36402 0.95827 0.0
C533 C 0.58429 0.36686 1.00569 0.0
C534 C 0.54276 0.34173 0.01609 0.0
C535 C 0.39103 0.1109 0.95658 0.0
C536 C 0.38676 0.09058 1.00344 0.0
C537 C 0.39668 0.151 0.95504 0.0
C538 C 0.39744 0.17116 1.00011 0.0
C539 C 0.38953 0.1496 0.04628 0.0
C540 C 0.38423 0.10957 0.04797 0.0
C541 C 0.41212 0.21634 0.99999 0.0
C542 C 0.45255 0.24342 0.98588 0.0
C543 C 0.38843 0.23291 0.01771 0.0
C544 C 0.34529 0.20564 0.03216 0.0
C545 C 0.33315 0.21054 0.08007 0.0
C546 C 0.29253 0.18479 0.09377 0.0
C547 C 0.26368 0.15414 0.05978 0.0
C548 C 0.27538 0.14924 0.01194 0.0
C549 C 0.31595 0.17491 0.99804 0.0
H550 H 0.23225 0.13424 0.07047 0.0
H551 H 0.63009 0.38345 0.95032 0.0
loop_
_geom_bond_atom_site_label_1
_geom_bond_atom_site_label_2
_geom_bond_distance
_geom_bond_site_symmetry_2
_ccdc_geom_bond_type
C0 O16 1.269 . S
C0 O18 1.234 1_554 S
N1 C2 1.333 1_455 S
N1 C6 1.307 . S
N1 Zn7 2.020 . S
C2 N1 1.333 1_655 S
C2 C3 1.379 . S
C2 H20 0.952 . S
C3 C2 1.379 . S
C3 C4 1.390 1_655 S
C3 H30 0.949 . S
C4 C3 1.390 1_455 S
C4 C5 1.357 . S
C5 C4 1.357 . S
C5 C6 1.370 . S
C5 H31 0.950 . S
C6 N1 1.307 . S
C6 C5 1.370 . S
C6 H24 0.948 . S
Zn7 N1 2.020 . S
Zn7 O16 2.039 1_455 S
Zn7 O22 2.034 . S
Zn7 O26 2.025 . S
Zn7 O28 2.024 1_455 S
C8 O27 1.246 . S
C8 O28 1.249 1_556 S
N9 C10 1.307 . S
N9 C11 1.333 1_655 S
N9 Zn15 2.020 . S
C10 N9 1.307 . S
C10 C14 1.370 . S
C10 H21 0.948 . S
C11 N9 1.333 1_455 S
C11 C12 1.379 . S
C11 H19 0.952 . S
C12 C11 1.379 . S
C12 C13 1.390 1_455 S
C12 H32 0.949 . S
C13 C12 1.390 1_655 S
C13 C14 1.357 . S
C14 C10 1.370 . S
C14 C13 1.357 . S
C14 H33 0.950 . S
Zn15 N9 2.020 . S
Zn15 O18 2.025 . S
Zn15 O23 2.024 1_655 S
Zn15 O25 2.039 1_655 S
Zn15 O27 2.034 . S
O16 C0 1.269 . S
O16 Zn7 2.039 1_655 S
C17 O22 1.246 . S
C17 O23 1.249 1_554 S
O18 C0 1.234 1_556 S
O18 Zn15 2.025 . S
H19 C11 0.952 . S
H20 C2 0.952 . S
H21 C10 0.948 . S
O22 Zn7 2.034 . S
O22 C17 1.246 . S
O23 Zn15 2.024 1_455 S
O23 C17 1.249 1_556 S
H24 C6 0.948 . S
O25 Zn15 2.039 1_455 S
O25 C29 1.265 . S
O26 Zn7 2.025 . S
O26 C29 1.239 1_554 S
O27 C8 1.246 . S
O27 Zn15 2.034 . S
O28 Zn7 2.024 1_655 S
O28 C8 1.249 1_554 S
C29 O25 1.265 . S
C29 O26 1.239 1_556 S
H30 C3 0.949 . S
H31 C5 0.950 . S
H32 C12 0.949 . S
H33 C14 0.950 . S
C34 O50 1.263 . S
C34 O52 1.241 1_554 S
N35 C36 1.333 1_545 S
N35 C40 1.307 . S
N35 Zn41 2.021 . S
C36 N35 1.333 1_565 S
C36 C37 1.379 . S
C36 H54 0.952 . S
C37 C36 1.379 . S
C37 C38 1.391 1_565 S
C37 H64 0.949 . S
C38 C37 1.391 1_545 S
C38 C39 1.355 . S
C39 C38 1.355 . S
C39 C40 1.370 . S
C39 H65 0.950 . S
C40 N35 1.307 . S
C40 C39 1.370 . S
C40 H58 0.948 . S
Zn41 N35 2.021 . S
Zn41 O50 2.034 1_545 S
Zn41 O56 2.052 . S
Zn41 O60 2.031 . S
Zn41 O62 2.006 1_545 S
C42 O61 1.246 1_554 S
C42 O62 1.249 . S
N43 C44 1.307 . S
N43 C45 1.333 1_565 S
N43 Zn49 2.020 . S
C44 N43 1.307 . S
C44 C48 1.370 . S
C44 H55 0.948 . S
C45 N43 1.333 1_545 S
C45 C46 1.379 . S
C45 H53 0.952 . S
C46 C45 1.379 . S
C46 C47 1.389 . S
C46 H66 0.949 . S
C47 C46 1.389 . S
C47 C48 1.358 1_545 S
C48 C44 1.370 . S
C48 C47 1.358 1_565 S
C48 H67 0.950 . S
Zn49 N43 2.020 . S
Zn49 O52 2.025 . S
Zn49 O57 2.025 1_565 S
Zn49 O59 2.039 1_565 S
Zn49 O61 2.033 . S
O50 C34 1.263 . S
O50 Zn41 2.034 1_565 S
C51 O56 1.246 1_556 S
C51 O57 1.249 . S
O52 C34 1.241 1_556 S
O52 Zn49 2.025 . S
H53 C45 0.952 . S
H54 C36 0.952 . S
H55 C44 0.948 . S
O56 Zn41 2.052 . S
O56 C51 1.246 1_554 S
O57 Zn49 2.025 1_545 S
O57 C51 1.249 . S
H58 C40 0.948 . S
O59 Zn49 2.039 1_545 S
O59 C63 1.258 . S
O60 Zn41 2.031 . S
O60 C63 1.246 1_554 S
O61 C42 1.246 1_556 S
O61 Zn49 2.033 . S
O62 Zn41 2.006 1_565 S
O62 C42 1.249 . S
C63 O59 1.258 . S
C63 O60 1.246 1_556 S
H64 C37 0.949 . S
H65 C39 0.950 . S
H66 C46 0.949 . S
H67 C48 0.950 . S
C68 O84 1.253 . S
C68 O86 1.251 1_556 S
N69 C70 1.333 . S
N69 C74 1.307 . S
N69 Zn75 2.020 . S
C70 N69 1.333 . S
C70 C71 1.379 . S
C70 H88 0.952 . S
C71 C70 1.379 . S
C71 C72 1.390 . S
C71 H98 0.949 . S
C72 C71 1.390 . S
C72 C73 1.357 . S
C73 C72 1.357 . S
C73 C74 1.370 . S
C73 H99 0.950 . S
C74 N69 1.307 . S
C74 C73 1.370 . S
C74 H92 0.948 . S
Zn75 N69 2.020 . S
Zn75 O84 2.039 . S
Zn75 O90 2.034 . S
Zn75 O94 2.025 . S
Zn75 O96 2.024 . S
C76 O95 1.246 . S
C76 O96 1.249 1_554 S
N77 C78 1.307 . S
N77 C79 1.333 . S
N77 Zn83 2.020 . S
C78 N77 1.307 . S
C78 C82 1.370 . S
C78 H89 0.948 . S
C79 N77 1.333 . S
C79 C80 1.379 . S
C79 H87 0.952 . S
C80 C79 1.379 . S
C80 C81 1.390 . S
C80 H100 0.949 . S
C81 C80 1.390 . S
C81 C82 1.357 . S
C82 C78 1.370 . S
C82 C81 1.357 . S
C82 H101 0.950 . S
Zn83 N77 2.020 . S
Zn83 O86 2.025 . S
Zn83 O91 2.024 . S
Zn83 O93 2.039 . S
Zn83 O95 2.034 . S
O84 C68 1.253 . S
O84 Zn75 2.039 . S
C85 O90 1.246 1_554 S
C85 O91 1.249 . S
O86 C68 1.251 1_554 S
O86 Zn83 2.025 . S
H87 C79 0.952 . S
H88 C70 0.952 . S
H89 C78 0.948 . S
O90 Zn75 2.034 . S
O90 C85 1.246 1_556 S
O91 Zn83 2.024 . S
O91 C85 1.249 . S
H92 C74 0.948 . S
O93 Zn83 2.039 . S
O93 C97 1.258 . S
O94 Zn75 2.025 . S
O94 C97 1.246 1_556 S
O95 C76 1.246 . S
O95 Zn83 2.034 . S
O96 Zn75 2.024 . S
O96 C76 1.249 1_556 S
C97 O93 1.258 . S
C97 O94 1.246 1_554 S
H98 C71 0.949 . S
H99 C73 0.950 . S
H100 C80 0.949 . S
H101 C82 0.950 . S
H102 C120 0.951 . S
H103 C122 0.951 . S
H104 C124 0.950 . S
H105 C125 0.950 . S
H106 C127 0.950 . S
H107 C130 0.950 . S
H108 C131 0.950 . S
H109 C133 0.950 . S
H110 C134 0.950 . S
H111 C135 0.951 . S
H112 C137 0.951 . S
H113 C139 0.950 . S
H114 C140 0.950 . S
H115 C142 0.950 . S
H116 C145 0.950 . S
H117 C146 0.950 . S
H118 C148 0.950 . S
H119 C149 0.950 . S
C120 H102 0.951 . S
C120 C121 1.366 1_455 S
C120 C122 1.388 . S
C121 C120 1.366 1_655 S
C121 C125 1.385 . S
C122 H103 0.951 . S
C122 C120 1.388 . S
C122 C123 1.366 1_455 S
C123 C122 1.366 1_655 S
C123 C124 1.414 . S
C123 C126 1.499 . S
C124 H104 0.950 . S
C124 C123 1.414 . S
C124 C125 1.374 . S
C125 H105 0.950 . S
C125 C121 1.385 . S
C125 C124 1.374 . S
C126 C123 1.499 . S
C126 C127 1.373 . S
C126 C128 1.389 1_655 S
C127 H106 0.950 . S
C127 C126 1.373 . S
C127 C143 1.377 . S
C128 C126 1.389 1_455 S
C128 C129 1.524 . S
C128 C142 1.377 . S
C129 C128 1.524 . S
C129 C130 1.397 1_455 S
C129 C134 1.363 . S
C130 H107 0.950 . S
C130 C129 1.397 1_655 S
C130 C131 1.334 . S
C131 H108 0.950 . S
C131 C130 1.334 . S
C131 C132 1.287 1_655 S
C132 C131 1.287 1_455 S
C132 C133 1.524 . S
C132 H151 0.913 . S
C133 H109 0.950 . S
C133 C132 1.524 . S
C133 C134 1.415 . S
C134 H110 0.950 . S
C134 C129 1.363 . S
C134 C133 1.415 . S
C135 H111 0.951 . S
C135 C136 1.366 1_655 S
C135 C137 1.388 . S
C136 C135 1.366 1_455 S
C136 C140 1.385 . S
C137 H112 0.951 . S
C137 C135 1.388 . S
C137 C138 1.366 1_655 S
C138 C137 1.366 1_455 S
C138 C139 1.414 . S
C138 C141 1.499 . S
C139 H113 0.950 . S
C139 C138 1.414 . S
C139 C140 1.374 . S
C140 H114 0.950 . S
C140 C136 1.385 . S
C140 C139 1.374 . S
C141 C138 1.499 . S
C141 C142 1.373 . S
C141 C143 1.389 1_455 S
C142 H115 0.950 . S
C142 C128 1.377 . S
C142 C141 1.373 . S
C143 C127 1.377 . S
C143 C141 1.389 1_655 S
C143 C144 1.524 . S
C144 C143 1.524 . S
C144 C145 1.397 1_655 S
C144 C149 1.363 . S
C145 H116 0.950 . S
C145 C144 1.397 1_455 S
C145 C146 1.334 . S
C146 H117 0.950 . S
C146 C145 1.334 . S
C146 C147 1.287 1_455 S
C147 C146 1.287 1_655 S
C147 C148 1.524 . S
C147 H150 0.999 . S
C148 H118 0.950 . S
C148 C147 1.524 . S
C148 C149 1.415 . S
C149 H119 0.950 . S
C149 C144 1.363 . S
C149 C148 1.415 . S
H150 C147 0.999 . S
H151 C132 0.913 . S
H152 C170 0.951 . S
H153 C172 0.951 . S
H154 C174 0.950 . S
H155 C175 0.950 . S
H156 C177 0.950 . S
H157 C180 0.950 . S
H158 C181 0.950 . S
H159 C183 0.950 . S
H160 C184 0.950 . S
H161 C185 0.951 . S
H162 C187 0.951 . S
H163 C189 0.950 . S
H164 C190 0.950 . S
H165 C192 0.950 . S
H166 C195 0.950 . S
H167 C196 0.950 . S
H168 C198 0.950 . S
H169 C199 0.950 . S
C170 H152 0.951 . S
C170 C171 1.366 1_545 S
C170 C172 1.388 . S
C171 C170 1.366 1_565 S
C171 C175 1.385 . S
C172 H153 0.951 . S
C172 C170 1.388 . S
C172 C173 1.368 1_545 S
C173 C172 1.368 1_565 S
C173 C174 1.411 . S
C173 C176 1.499 . S
C174 H154 0.950 . S
C174 C173 1.411 . S
C174 C175 1.374 . S
C175 H155 0.950 . S
C175 C171 1.385 . S
C175 C174 1.374 . S
C176 C173 1.499 . S
C176 C177 1.382 . S
C176 C178 1.379 1_565 S
C177 H156 0.950 . S
C177 C176 1.382 . S
C177 C193 1.377 . S
C178 C176 1.379 1_545 S
C178 C179 1.524 . S
C178 C192 1.377 . S
C179 C178 1.524 . S
C179 C180 1.397 . S
C179 C184 1.363 . S
C180 H157 0.950 . S
C180 C179 1.397 . S
C180 C181 1.334 . S
C181 H158 0.950 . S
C181 C180 1.334 . S
C181 C182 1.287 . S
C182 C181 1.287 . S
C182 C183 1.524 . S
C182 H201 0.913 . S
C183 H159 0.950 . S
C183 C182 1.524 . S
C183 C184 1.415 . S
C184 H160 0.950 . S
C184 C179 1.363 . S
C184 C183 1.415 . S
C185 H161 0.951 . S
C185 C186 1.366 1_565 S
C185 C187 1.388 . S
C186 C185 1.366 1_545 S
C186 C190 1.385 . S
C187 H162 0.951 . S
C187 C185 1.388 . S
C187 C188 1.351 1_565 S
C188 C187 1.351 1_545 S
C188 C189 1.429 . S
C188 C191 1.499 . S
C189 H163 0.950 . S
C189 C188 1.429 . S
C189 C190 1.374 . S
C190 H164 0.950 . S
C190 C186 1.385 . S
C190 C189 1.374 . S
C191 C188 1.499 . S
C191 C192 1.373 . S
C191 C193 1.389 1_545 S
C192 H165 0.950 . S
C192 C178 1.377 . S
C192 C191 1.373 . S
C193 C177 1.377 . S
C193 C191 1.389 1_565 S
C193 C194 1.524 . S
C194 C193 1.524 . S
C194 C195 1.397 . S
C194 C199 1.363 . S
C195 H166 0.950 . S
C195 C194 1.397 . S
C195 C196 1.334 . S
C196 H167 0.950 . S
C196 C195 1.334 . S
C196 C197 1.287 . S
C197 C196 1.287 . S
C197 C198 1.524 . S
C197 H200 0.999 . S
C198 H168 0.950 . S
C198 C197 1.524 . S
C198 C199 1.415 . S
C199 H169 0.950 . S
C199 C194 1.363 . S
C199 C198 1.415 . S
H200 C197 0.999 . S
H201 C182 0.913 . S
H202 C220 0.951 . S
H203 C222 0.951 . S
H204 C224 0.950 . S
H205 C225 0.950 . S
H206 C227 0.950 . S
H207 C230 0.950 . S
H208 C231 0.950 . S
H209 C233 0.950 . S
H210 C234 0.950 . S
H211 C235 0.951 . S
H212 C237 0.951 . S
H213 C239 0.950 . S
H214 C240 0.950 . S
H215 C242 0.950 . S
H216 C245 0.950 . S
H217 C246 0.950 . S
H218 C248 0.950 . S
H219 C249 0.950 . S
C220 H202 0.951 . S
C220 C221 1.366 . S
C220 C222 1.388 . S
C221 C220 1.366 . S
C221 C225 1.385 . S
C222 H203 0.951 . S
C222 C220 1.388 . S
C222 C223 1.366 . S
C223 C222 1.366 . S
C223 C224 1.414 . S
C223 C226 1.499 . S
C224 H204 0.950 . S
C224 C223 1.414 . S
C224 C225 1.374 . S
C225 H205 0.950 . S
C225 C221 1.385 . S
C225 C224 1.374 . S
C226 C223 1.499 . S
C226 C227 1.373 . S
C226 C228 1.389 . S
C227 H206 0.950 . S
C227 C226 1.373 . S
C227 C243 1.377 . S
C228 C226 1.389 . S
C228 C229 1.524 . S
C228 C242 1.377 . S
C229 C228 1.524 . S
C229 C230 1.397 . S
C229 C234 1.363 . S
C230 H207 0.950 . S
C230 C229 1.397 . S
C230 C231 1.334 . S
C231 H208 0.950 . S
C231 C230 1.334 . S
C231 C232 1.287 . S
C232 C231 1.287 . S
C232 C233 1.524 . S
C232 H251 0.913 . S
C233 H209 0.950 . S
C233 C232 1.524 . S
C233 C234 1.415 . S
C234 H210 0.950 . S
C234 C229 1.363 . S
C234 C233 1.415 . S
C235 H211 0.951 . S
C235 C236 1.366 . S
C235 C237 1.388 . S
C236 C235 1.366 . S
C236 C240 1.385 . S
C237 H212 0.951 . S
C237 C235 1.388 . S
C237 C238 1.366 . S
C238 C237 1.366 . S
C238 C239 1.414 . S
C238 C241 1.499 . S
C239 H213 0.950 . S
C239 C238 1.414 . S
C239 C240 1.374 . S
C240 H214 0.950 . S
C240 C236 1.385 . S
C240 C239 1.374 . S
C241 C238 1.499 . S
C241 C242 1.373 . S
C241 C243 1.389 . S
C242 H215 0.950 . S
C242 C228 1.377 . S
C242 C241 1.373 . S
C243 C227 1.377 . S
C243 C241 1.389 . S
C243 C244 1.524 . S
C244 C243 1.524 . S
C244 C245 1.397 . S
C244 C249 1.363 . S
C245 H216 0.950 . S
C245 C244 1.397 . S
C245 C246 1.334 . S
C246 H217 0.950 . S
C246 C245 1.334 . S
C246 C247 1.287 . S
C247 C246 1.287 . S
C247 C248 1.524 . S
C247 H250 0.999 . S
C248 H218 0.950 . S
C248 C247 1.524 . S
C248 C249 1.415 . S
C249 H219 0.950 . S
C249 C244 1.363 . S
C249 C248 1.415 . S
H250 C247 0.999 . S
H251 C232 0.913 . S
H252 C270 0.951 . S
H253 C272 0.951 . S
H254 C274 0.950 . S
H255 C275 0.950 . S
H256 C277 0.950 . S
H257 C280 0.950 . S
H258 C281 0.950 . S
H259 C283 0.950 . S
H260 C284 0.950 . S
H261 C285 0.951 . S
H262 C287 0.951 . S
H263 C289 0.950 . S
H264 C290 0.950 . S
H265 C292 0.950 . S
H266 C295 0.950 . S
H267 C296 0.950 . S
H268 C298 0.950 . S
H269 C299 0.950 . S
C270 H252 0.951 . S
C270 C271 1.366 1_554 S
C270 C272 1.388 . S
C271 C270 1.366 1_556 S
C271 C275 1.385 . S
C272 H253 0.951 . S
C272 C270 1.388 . S
C272 C273 1.375 . S
C273 C272 1.375 . S
C273 C274 1.405 1_554 S
C273 C276 1.498 1_554 S
C274 H254 0.950 . S
C274 C273 1.405 1_556 S
C274 C275 1.374 . S
C275 H255 0.950 . S
C275 C271 1.385 . S
C275 C274 1.374 . S
C276 C273 1.498 1_556 S
C276 C277 1.377 . S
C276 C278 1.386 1_556 S
C277 H256 0.950 . S
C277 C276 1.377 . S
C277 C293 1.377 . S
C278 C276 1.386 1_554 S
C278 C279 1.524 . S
C278 C292 1.377 . S
C279 C278 1.524 . S
C279 C280 1.397 . S
C279 C284 1.363 . S
C280 H257 0.950 . S
C280 C279 1.397 . S
C280 C281 1.334 . S
C281 H258 0.950 . S
C281 C280 1.334 . S
C281 C282 1.287 . S
C282 C281 1.287 . S
C282 C283 1.524 . S
C282 H301 0.913 . S
C283 H259 0.950 . S
C283 C282 1.524 . S
C283 C284 1.415 . S
C284 H260 0.950 . S
C284 C279 1.363 . S
C284 C283 1.415 . S
C285 H261 0.951 . S
C285 C286 1.349 1_556 S
C285 C287 1.388 . S
C286 C285 1.349 1_554 S
C286 C290 1.402 . S
C287 H262 0.951 . S
C287 C285 1.388 . S
C287 C288 1.366 . S
C288 C287 1.366 . S
C288 C289 1.414 1_556 S
C288 C291 1.499 . S
C289 H263 0.950 . S
C289 C288 1.414 1_554 S
C289 C290 1.374 . S
C290 H264 0.950 . S
C290 C286 1.402 . S
C290 C289 1.374 . S
C291 C288 1.499 . S
C291 C292 1.372 1_556 S
C291 C293 1.391 . S
C292 H265 0.950 . S
C292 C278 1.377 . S
C292 C291 1.372 1_554 S
C293 C277 1.377 . S
C293 C291 1.391 . S
C293 C294 1.524 . S
C294 C293 1.524 . S
C294 C295 1.397 . S
C294 C299 1.363 . S
C295 H266 0.950 . S
C295 C294 1.397 . S
C295 C296 1.334 . S
C296 H267 0.950 . S
C296 C295 1.334 . S
C296 C297 1.287 . S
C297 C296 1.287 . S
C297 C298 1.524 . S
C297 H300 0.999 . S
C298 H268 0.950 . S
C298 C297 1.524 . S
C298 C299 1.415 . S
C299 H269 0.950 . S
C299 C294 1.363 . S
C299 C298 1.415 . S
H300 C297 0.999 . S
H301 C282 0.913 . S
H302 C320 0.951 . S
H303 C322 0.951 . S
H304 C324 0.950 . S
H305 C325 0.950 . S
H306 C327 0.950 . S
H307 C330 0.950 . S
H308 C331 0.950 . S
H309 C333 0.950 . S
H310 C334 0.950 . S
H311 C335 0.951 . S
H312 C337 0.951 . S
H313 C339 0.950 . S
H314 C340 0.950 . S
H315 C342 0.950 . S
H316 C345 0.950 . S
H317 C346 0.950 . S
H318 C348 0.950 . S
H319 C349 0.950 . S
C320 H302 0.951 . S
C320 C321 1.366 . S
C320 C322 1.388 . S
C321 C320 1.366 . S
C321 C325 1.385 1_556 S
C322 H303 0.951 . S
C322 C320 1.388 . S
C322 C323 1.366 . S
C323 C322 1.366 . S
C323 C324 1.414 1_556 S
C323 C326 1.499 . S
C324 H304 0.950 . S
C324 C323 1.414 1_554 S
C324 C325 1.374 . S
C325 H305 0.950 . S
C325 C321 1.385 1_554 S
C325 C324 1.374 . S
C326 C323 1.499 . S
C326 C327 1.373 1_556 S
C326 C328 1.389 . S
C327 H306 0.950 . S
C327 C326 1.373 1_554 S
C327 C343 1.377 . S
C328 C326 1.389 . S
C328 C329 1.524 . S
C328 C342 1.377 . S
C329 C328 1.524 . S
C329 C330 1.397 . S
C329 C334 1.363 . S
C330 H307 0.950 . S
C330 C329 1.397 . S
C330 C331 1.334 . S
C331 H308 0.950 . S
C331 C330 1.334 . S
C331 C332 1.287 . S
C332 C331 1.287 . S
C332 C333 1.524 . S
C332 H351 0.913 . S
C333 H309 0.950 . S
C333 C332 1.524 . S
C333 C334 1.415 . S
C334 H310 0.950 . S
C334 C329 1.363 . S
C334 C333 1.415 . S
C335 H311 0.951 . S
C335 C336 1.366 1_554 S
C335 C337 1.388 . S
C336 C335 1.366 1_556 S
C336 C340 1.385 . S
C337 H312 0.951 . S
C337 C335 1.388 . S
C337 C338 1.363 1_554 S
C338 C337 1.363 1_556 S
C338 C339 1.418 . S
C338 C341 1.499 . S
C339 H313 0.950 . S
C339 C338 1.418 . S
C339 C340 1.374 . S
C340 H314 0.950 . S
C340 C336 1.385 . S
C340 C339 1.374 . S
C341 C338 1.499 . S
C341 C342 1.386 . S
C341 C343 1.376 1_556 S
C342 H315 0.950 . S
C342 C328 1.377 . S
C342 C341 1.386 . S
C343 C327 1.377 . S
C343 C341 1.376 1_554 S
C343 C344 1.524 . S
C344 C343 1.524 . S
C344 C345 1.397 . S
C344 C349 1.363 . S
C345 H316 0.950 . S
C345 C344 1.397 . S
C345 C346 1.334 . S
C346 H317 0.950 . S
C346 C345 1.334 . S
C346 C347 1.287 . S
C347 C346 1.287 . S
C347 C348 1.524 . S
C347 H350 0.999 . S
C348 H318 0.950 . S
C348 C347 1.524 . S
C348 C349 1.415 . S
C349 H319 0.950 . S
C349 C344 1.363 . S
C349 C348 1.415 . S
H350 C347 0.999 . S
H351 C332 0.913 . S
H352 C370 0.951 . S
H353 C372 0.951 . S
H354 C374 0.950 . S
H355 C375 0.950 . S
H356 C377 0.950 . S
H357 C380 0.950 . S
H358 C381 0.950 . S
H359 C383 0.950 . S
H360 C384 0.950 . S
H361 C385 0.951 . S
H362 C387 0.951 . S
H363 C389 0.950 . S
H364 C390 0.950 . S
H365 C392 0.950 . S
H366 C395 0.950 . S
H367 C396 0.950 . S
H368 C398 0.950 . S
H369 C399 0.950 . S
C370 H352 0.951 . S
C370 C371 1.366 . S
C370 C372 1.388 . S
C371 C370 1.366 . S
C371 C375 1.384 1_554 S
C372 H353 0.951 . S
C372 C370 1.388 . S
C372 C373 1.365 1_554 S
C373 C372 1.365 1_556 S
C373 C374 1.414 . S
C373 C376 1.499 . S
C374 H354 0.950 . S
C374 C373 1.414 . S
C374 C375 1.374 . S
C375 H355 0.950 . S
C375 C371 1.384 1_556 S
C375 C374 1.374 . S
C376 C373 1.499 . S
C376 C377 1.373 1_556 S
C376 C378 1.389 . S
C377 H356 0.950 . S
C377 C376 1.373 1_554 S
C377 C393 1.377 . S
C378 C376 1.389 . S
C378 C379 1.524 . S
C378 C392 1.377 . S
C379 C378 1.524 . S
C379 C380 1.397 . S
C379 C384 1.363 . S
C380 H357 0.950 . S
C380 C379 1.397 . S
C380 C381 1.334 . S
C381 H358 0.950 . S
C381 C380 1.334 . S
C381 C382 1.287 . S
C382 C381 1.287 . S
C382 C383 1.524 . S
C382 H401 0.913 . S
C383 H359 0.950 . S
C383 C382 1.524 . S
C383 C384 1.415 . S
C384 H360 0.950 . S
C384 C379 1.363 . S
C384 C383 1.415 . S
C385 H361 0.951 . S
C385 C386 1.366 . S
C385 C387 1.388 . S
C386 C385 1.366 . S
C386 C390 1.385 1_556 S
C387 H362 0.951 . S
C387 C385 1.388 . S
C387 C388 1.366 1_556 S
C388 C387 1.366 1_554 S
C388 C389 1.414 . S
C388 C391 1.499 . S
C389 H363 0.950 . S
C389 C388 1.414 . S
C389 C390 1.374 . S
C390 H364 0.950 . S
C390 C386 1.385 1_554 S
C390 C389 1.374 . S
C391 C388 1.499 . S
C391 C392 1.373 1_554 S
C391 C393 1.389 . S
C392 H365 0.950 . S
C392 C378 1.377 . S
C392 C391 1.373 1_556 S
C393 C377 1.377 . S
C393 C391 1.389 . S
C393 C394 1.524 . S
C394 C393 1.524 . S
C394 C395 1.397 . S
C394 C399 1.363 . S
C395 H366 0.950 . S
C395 C394 1.397 . S
C395 C396 1.334 . S
C396 H367 0.950 . S
C396 C395 1.334 . S
C396 C397 1.287 . S
C397 C396 1.287 . S
C397 C398 1.524 . S
C397 H400 0.999 . S
C398 H368 0.950 . S
C398 C397 1.524 . S
C398 C399 1.415 . S
C399 H369 0.950 . S
C399 C394 1.363 . S
C399 C398 1.415 . S
H400 C397 0.999 . S
H401 C382 0.913 . S
H402 C420 0.951 . S
H403 C422 0.951 . S
H404 C424 0.950 . S
H405 C425 0.950 . S
H406 C427 0.950 . S
H407 C430 0.950 . S
H408 C431 0.950 . S
H409 C433 0.950 . S
H410 C434 0.950 . S
H411 C435 0.951 . S
H412 C437 0.951 . S
H413 C439 0.950 . S
H414 C440 0.950 . S
H415 C442 0.950 . S
H416 C445 0.950 . S
H417 C446 0.950 . S
H418 C448 0.950 . S
H419 C449 0.950 . S
C420 H402 0.951 . S
C420 C421 1.366 . S
C420 C422 1.388 . S
C421 C420 1.366 . S
C421 C425 1.385 1_554 S
C422 H403 0.951 . S
C422 C420 1.388 . S
C422 C423 1.357 1_554 S
C423 C422 1.357 1_556 S
C423 C424 1.423 . S
C423 C426 1.498 . S
C424 H404 0.950 . S
C424 C423 1.423 . S
C424 C425 1.374 . S
C425 H405 0.950 . S
C425 C421 1.385 1_556 S
C425 C424 1.374 . S
C426 C423 1.498 . S
C426 C427 1.373 . S
C426 C428 1.389 1_556 S
C427 H406 0.950 . S
C427 C426 1.373 . S
C427 C443 1.377 . S
C428 C426 1.389 1_554 S
C428 C429 1.524 . S
C428 C442 1.377 . S
C429 C428 1.524 . S
C429 C430 1.397 1_554 S
C429 C434 1.363 . S
C430 H407 0.950 . S
C430 C429 1.397 1_556 S
C430 C431 1.334 . S
C431 H408 0.950 . S
C431 C430 1.334 . S
C431 C432 1.280 1_556 S
C432 C431 1.280 1_554 S
C432 C433 1.532 . S
C432 H451 0.913 1_554 S
C433 H409 0.950 . S
C433 C432 1.532 . S
C433 C434 1.415 . S
C434 H410 0.950 . S
C434 C429 1.363 . S
C434 C433 1.415 . S
C435 H411 0.951 . S
C435 C436 1.379 . S
C435 C437 1.388 . S
C436 C435 1.379 . S
C436 C440 1.372 1_556 S
C437 H412 0.951 . S
C437 C435 1.388 . S
C437 C438 1.366 1_556 S
C438 C437 1.366 1_554 S
C438 C439 1.414 . S
C438 C441 1.499 . S
C439 H413 0.950 . S
C439 C438 1.414 . S
C439 C440 1.374 . S
C440 H414 0.950 . S
C440 C436 1.372 1_554 S
C440 C439 1.374 . S
C441 C438 1.499 . S
C441 C442 1.373 . S
C441 C443 1.389 1_554 S
C442 H415 0.950 . S
C442 C428 1.377 . S
C442 C441 1.373 . S
C443 C427 1.377 . S
C443 C441 1.389 1_556 S
C443 C444 1.524 . S
C444 C443 1.524 . S
C444 C445 1.397 1_556 S
C444 C449 1.363 . S
C445 H416 0.950 . S
C445 C444 1.397 1_554 S
C445 C446 1.334 . S
C446 H417 0.950 . S
C446 C445 1.334 . S
C446 C447 1.292 . S
C447 C446 1.292 . S
C447 C448 1.518 1_554 S
C447 H450 0.999 1_554 S
C448 H418 0.950 . S
C448 C447 1.518 1_556 S
C448 C449 1.415 . S
C449 H419 0.950 . S
C449 C444 1.363 . S
C449 C448 1.415 . S
H450 C447 0.999 1_556 S
H451 C432 0.913 1_556 S
H452 C470 0.951 . S
H453 C472 0.951 . S
H454 C474 0.950 . S
H455 C475 0.950 . S
H456 C477 0.950 . S
H457 C480 0.950 . S
H458 C481 0.950 . S
H459 C483 0.950 . S
H460 C484 0.950 . S
H461 C485 0.951 . S
H462 C487 0.951 . S
H463 C489 0.950 . S
H464 C490 0.950 . S
H465 C492 0.950 . S
H466 C495 0.950 . S
H467 C496 0.950 . S
H468 C498 0.950 . S
H469 C499 0.950 . S
C470 H452 0.951 . S
C470 C471 1.366 1_556 S
C470 C472 1.388 . S
C471 C470 1.366 1_554 S
C471 C475 1.385 . S
C472 H453 0.951 . S
C472 C470 1.388 . S
C472 C473 1.365 1_556 S
C473 C472 1.365 1_554 S
C473 C474 1.415 . S
C473 C476 1.498 . S
C474 H454 0.950 . S
C474 C473 1.415 . S
C474 C475 1.374 . S
C475 H455 0.950 . S
C475 C471 1.385 . S
C475 C474 1.374 . S
C476 C473 1.498 . S
C476 C477 1.376 . S
C476 C478 1.387 1_554 S
C477 H456 0.950 . S
C477 C476 1.376 . S
C477 C493 1.377 . S
C478 C476 1.387 1_556 S
C478 C479 1.524 . S
C478 C492 1.377 . S
C479 C478 1.524 . S
C479 C480 1.397 . S
C479 C484 1.363 . S
C480 H457 0.950 . S
C480 C479 1.397 . S
C480 C481 1.334 . S
C481 H458 0.950 . S
C481 C480 1.334 . S
C481 C482 1.287 . S
C482 C481 1.287 . S
C482 C483 1.524 . S
C482 H501 0.913 . S
C483 H459 0.950 . S
C483 C482 1.524 . S
C483 C484 1.415 . S
C484 H460 0.950 . S
C484 C479 1.363 . S
C484 C483 1.415 . S
C485 H461 0.951 . S
C485 C486 1.366 . S
C485 C487 1.388 . S
C486 C485 1.366 . S
C486 C490 1.385 1_554 S
C487 H462 0.951 . S
C487 C485 1.388 . S
C487 C488 1.366 . S
C488 C487 1.366 . S
C488 C489 1.414 1_554 S
C488 C491 1.499 . S
C489 H463 0.950 . S
C489 C488 1.414 1_556 S
C489 C490 1.374 . S
C490 H464 0.950 . S
C490 C486 1.385 1_556 S
C490 C489 1.374 . S
C491 C488 1.499 . S
C491 C492 1.373 1_554 S
C491 C493 1.389 . S
C492 H465 0.950 . S
C492 C478 1.377 . S
C492 C491 1.373 1_556 S
C493 C477 1.377 . S
C493 C491 1.389 . S
C493 C494 1.524 . S
C494 C493 1.524 . S
C494 C495 1.397 . S
C494 C499 1.363 . S
C495 H466 0.950 . S
C495 C494 1.397 . S
C495 C496 1.334 . S
C496 H467 0.950 . S
C496 C495 1.334 . S
C496 C497 1.287 . S
C497 C496 1.287 . S
C497 C498 1.524 . S
C497 H500 0.999 . S
C498 H468 0.950 . S
C498 C497 1.524 . S
C498 C499 1.415 . S
C499 H469 0.950 . S
C499 C494 1.363 . S
C499 C498 1.415 . S
H500 C497 0.999 . S
H501 C482 0.913 . S
H502 C520 0.951 . S
H503 C522 0.951 . S
H504 C524 0.950 . S
H505 C525 0.950 . S
H506 C527 0.950 . S
H507 C530 0.950 . S
H508 C531 0.950 . S
H509 C533 0.950 . S
H510 C534 0.950 . S
H511 C535 0.951 . S
H512 C537 0.951 . S
H513 C539 0.950 . S
H514 C540 0.950 . S
H515 C542 0.950 . S
H516 C545 0.950 . S
H517 C546 0.950 . S
H518 C548 0.950 . S
H519 C549 0.950 . S
C520 H502 0.951 . S
C520 C521 1.366 . S
C520 C522 1.388 . S
C521 C520 1.366 . S
C521 C525 1.385 1_554 S
C522 H503 0.951 . S
C522 C520 1.388 . S
C522 C523 1.366 1_554 S
C523 C522 1.366 1_556 S
C523 C524 1.414 . S
C523 C526 1.499 . S
C524 H504 0.950 . S
C524 C523 1.414 . S
C524 C525 1.374 . S
C525 H505 0.950 . S
C525 C521 1.385 1_556 S
C525 C524 1.374 . S
C526 C523 1.499 . S
C526 C527 1.373 1_556 S
C526 C528 1.389 . S
C527 H506 0.950 . S
C527 C526 1.373 1_554 S
C527 C543 1.377 . S
C528 C526 1.389 . S
C528 C529 1.524 . S
C528 C542 1.377 . S
C529 C528 1.524 . S
C529 C530 1.397 . S
C529 C534 1.363 . S
C530 H507 0.950 . S
C530 C529 1.397 . S
C530 C531 1.334 . S
C531 H508 0.950 . S
C531 C530 1.334 . S
C531 C532 1.287 . S
C532 C531 1.287 . S
C532 C533 1.524 . S
C532 H551 0.913 . S
C533 H509 0.950 . S
C533 C532 1.524 . S
C533 C534 1.415 . S
C534 H510 0.950 . S
C534 C529 1.363 . S
C534 C533 1.415 . S
C535 H511 0.951 . S
C535 C536 1.366 . S
C535 C537 1.388 . S
C536 C535 1.366 . S
C536 C540 1.385 1_556 S
C537 H512 0.951 . S
C537 C535 1.388 . S
C537 C538 1.366 1_556 S
C538 C537 1.366 1_554 S
C538 C539 1.414 . S
C538 C541 1.499 . S
C539 H513 0.950 . S
C539 C538 1.414 . S
C539 C540 1.374 . S
C540 H514 0.950 . S
C540 C536 1.385 1_554 S
C540 C539 1.374 . S
C541 C538 1.499 . S
C541 C542 1.373 1_554 S
C541 C543 1.389 . S
C542 H515 0.950 . S
C542 C528 1.377 . S
C542 C541 1.373 1_556 S
C543 C527 1.377 . S
C543 C541 1.389 . S
C543 C544 1.524 . S
C544 C543 1.524 . S
C544 C545 1.397 . S
C544 C549 1.363 . S
C545 H516 0.950 . S
C545 C544 1.397 . S
C545 C546 1.334 . S
C546 H517 0.950 . S
C546 C545 1.334 . S
C546 C547 1.287 . S
C547 C546 1.287 . S
C547 C548 1.524 . S
C547 H550 0.999 . S
C548 H518 0.950 . S
C548 C547 1.524 . S
C548 C549 1.415 . S
C549 H519 0.950 . S
C549 C544 1.363 . S
C549 C548 1.415 . S
H550 C547 0.999 . S
H551 C532 0.913 . S
C121 C13 1.502 . S
C136 C4 1.502 . S
C171 C38 1.498 1_565 S
C186 C47 1.498 . S
C221 C72 1.499 . S
C236 C81 1.499 . S
C271 C29 0.987 . S
C286 C97 0.984 . S
C321 C63 0.990 . S
C336 C8 0.991 . S
C371 C42 0.994 . S
C386 C85 0.994 1_556 S
C421 C0 0.987 . S
C436 C68 0.984 . S
C471 C17 0.991 . S
C486 C34 0.990 . S
C521 C76 0.994 . S
C536 C51 0.994 . S
