# Generated by pormake.
# Topology uoj, (4)-cn, num edge types: 1
# Building blocks:
#     Node 0, Type 0, BuildingBlock: QUQFOY_clean_sbu_3, # of connection points: 4
#     Node 1, Type 0, BuildingBlock: QUQFOY_clean_sbu_3, # of connection points: 4
#     Node 2, Type 0, BuildingBlock: QUQFOY_clean_sbu_3, # of connection points: 4
#     Node 3, Type 0, BuildingBlock: QUQFOY_clean_sbu_3, # of connection points: 4
#     Node 4, Type 0, BuildingBlock: QUQFOY_clean_sbu_3, # of connection points: 4
#     Node 5, Type 0, BuildingBlock: QUQFOY_clean_sbu_3, # of connection points: 4
#     Node 6, Type 0, BuildingBlock: QUQFOY_clean_sbu_3, # of connection points: 4
#     Node 7, Type 0, BuildingBlock: QUQFOY_clean_sbu_3, # of connection points: 4
#     Edge 8, Type (0, 0), BuildingBlock: FUNLAD_clean_linker_0, # of connection points: 2
#     Edge 9, Type (0, 0), BuildingBlock: FUNLAD_clean_linker_0, # of connection points: 2
#     Edge 10, Type (0, 0), BuildingBlock: FUNLAD_clean_linker_0, # of connection points: 2
#     Edge 11, Type (0, 0), BuildingBlock: FUNLAD_clean_linker_0, # of connection points: 2
#     Edge 12, Type (0, 0), BuildingBlock: FUNLAD_clean_linker_0, # of connection points: 2
#     Edge 13, Type (0, 0), BuildingBlock: FUNLAD_clean_linker_0, # of connection points: 2
#     Edge 14, Type (0, 0), BuildingBlock: FUNLAD_clean_linker_0, # of connection points: 2
#     Edge 15, Type (0, 0), BuildingBlock: FUNLAD_clean_linker_0, # of connection points: 2
#     Edge 16, Type (0, 0), BuildingBlock: FUNLAD_clean_linker_0, # of connection points: 2
#     Edge 17, Type (0, 0), BuildingBlock: FUNLAD_clean_linker_0, # of connection points: 2
#     Edge 18, Type (0, 0), BuildingBlock: FUNLAD_clean_linker_0, # of connection points: 2
#     Edge 19, Type (0, 0), BuildingBlock: FUNLAD_clean_linker_0, # of connection points: 2
#     Edge 20, Type (0, 0), BuildingBlock: FUNLAD_clean_linker_0, # of connection points: 2
#     Edge 21, Type (0, 0), BuildingBlock: FUNLAD_clean_linker_0, # of connection points: 2
#     Edge 22, Type (0, 0), BuildingBlock: FUNLAD_clean_linker_0, # of connection points: 2
#     Edge 23, Type (0, 0), BuildingBlock: FUNLAD_clean_linker_0, # of connection points: 2
# Relax obj value: 0.110
# Max RMSD: 0.139
# Mean RMSD: 0.138
data_MOF--net-uoj--node1-QUQFOY_clean_sbu_3--edge1-FUNLAD_clean_linker_0
_symmetry_space_group_name_H-M    P1
_symmetry_Int_Tables_number       1
_symmetry_cell_setting            triclinic
loop_
_symmetry_equiv_pos_as_xyz
'x, y, z'
_cell_length_a     39.74587
_cell_length_b     39.68548
_cell_length_c     42.245397
_cell_angle_alpha  89.916503
_cell_angle_beta   90.427735
_cell_angle_gamma 91.956937
loop_
_atom_site_label
_atom_site_type_symbol
_atom_site_fract_x
_atom_site_fract_y
_atom_site_fract_z
_atom_type_partial_charge
C0 C 0.06696 0.29375 0.36742 0.0
O1 O 0.0352 0.28898 0.367 0.0
Cd2 Cd 0.00202 0.27227 0.41151 0.0
O3 O 0.08388 0.28905 0.39275 0.0
Cd4 Cd 0.07273 0.26974 0.44807 0.0
C5 C 0.02524 0.33639 0.46289 0.0
O6 O 0.03113 0.22659 0.43374 0.0
O7 O 0.03406 0.23761 0.48342 0.0
O8 O 0.12493 0.24025 0.4442 0.0
C9 C 0.02128 0.21958 0.46142 0.0
O10 O 0.00224 0.32101 0.44682 0.0
C11 C 0.1351 0.24711 0.47208 0.0
O12 O 0.05457 0.32466 0.46528 0.0
O13 O 0.11688 0.26595 0.48852 0.0
C14 C 0.23136 0.89823 0.51567 0.0
O15 O 0.24934 0.91209 0.49422 0.0
Cd16 Cd 0.30035 0.94545 0.50031 0.0
O17 O 0.23991 0.90049 0.54478 0.0
Cd18 Cd 0.28644 0.92624 0.57701 0.0
C19 C 0.27089 0.00535 0.55216 0.0
O20 O 0.33138 0.91904 0.53988 0.0
O21 O 0.3429 0.95217 0.57894 0.0
O22 O 0.29364 0.87646 0.60988 0.0
C23 C 0.35234 0.93923 0.55324 0.0
O24 O 0.2842 -0.00289 0.52604 0.0
C25 C 0.28918 0.89137 0.63602 0.0
O26 O 0.26508 -0.01624 0.57408 0.0
O27 O 0.28172 0.92225 0.6346 0.0
C28 C 0.92762 0.6732 0.35214 0.0
O29 O 0.95939 0.67728 0.35425 0.0
Cd30 Cd -0.01195 0.6907 0.40305 0.0
O31 O 0.90913 0.67746 0.37624 0.0
Cd32 Cd 0.91446 0.69487 0.43255 0.0
C33 C 0.95708 0.6255 0.44987 0.0
O34 O 0.95943 0.73713 0.42473 0.0
O35 O 0.94823 0.72442 0.4732 0.0
O36 O 0.86375 0.72465 0.42087 0.0
C37 C 0.96489 0.74267 0.45387 0.0
O38 O -0.01802 0.64014 0.43608 0.0
C39 C 0.84969 0.71849 0.44721 0.0
O40 O 0.92843 0.63886 0.45036 0.0
O41 O 0.86538 0.70028 0.46674 0.0
C42 C 0.74056 0.07989 0.46475 0.0
O43 O 0.72536 0.06992 0.43978 0.0
Cd44 Cd 0.67639 0.0329 0.44093 0.0
O45 O 0.72879 0.07225 0.49182 0.0
Cd46 Cd 0.67951 0.04203 0.51408 0.0
C47 C 0.70574 0.96853 0.48751 0.0
O48 O 0.634 0.05207 0.47564 0.0
O49 O 0.62961 0.00767 0.50541 0.0
O50 O 0.66605 0.08804 0.54942 0.0
C51 C 0.61633 0.02688 0.48523 0.0
O52 O 0.69484 0.9788 0.46086 0.0
C53 C 0.66895 0.07126 0.57483 0.0
O54 O 0.70632 -0.0122 0.51162 0.0
O55 O 0.67736 0.0408 0.57208 0.0
C56 C 0.38166 0.73438 0.01287 0.0
O57 O 0.39015 0.75089 0.03752 0.0
Cd58 Cd 0.42429 0.80197 0.03564 0.0
O59 O 0.38912 0.74579 0.98558 0.0
Cd60 Cd 0.41633 0.796 0.96181 0.0
C61 C 0.49106 0.77546 -0.00902 0.0
O62 O 0.40415 0.84206 -0.00134 0.0
O63 O 0.44799 0.8477 0.96866 0.0
O64 O 0.36863 0.8061 0.92724 0.0
C65 C 0.42855 0.86052 0.98862 0.0
O66 O 0.47938 0.78632 0.01692 0.0
C67 C 0.38447 0.80371 0.90142 0.0
O68 O 0.47245 0.77277 0.96631 0.0
O69 O 0.41546 0.79695 0.90348 0.0
C70 C 0.79634 0.54533 0.11356 0.0
O71 O 0.79304 0.51343 0.11208 0.0
Cd72 Cd 0.77631 0.48279 0.0655 0.0
O73 O 0.78965 0.56354 0.08957 0.0
Cd74 Cd 0.76807 0.55508 0.03453 0.0
C75 C 0.83654 0.51367 0.01378 0.0
O76 O 0.72757 0.50949 0.04635 0.0
O77 O 0.73795 0.51774 -0.00305 0.0
O78 O 0.73517 0.60425 0.04376 0.0
C79 C 0.72065 0.50227 0.01781 0.0
O80 O 0.82314 0.48863 0.02848 0.0
C81 C 0.73977 0.61719 0.01658 0.0
O82 O 0.82325 0.54239 0.01418 0.0
O83 O 0.75908 0.602 -0.00203 0.0
C84 C 0.56823 0.23876 0.94132 0.0
O85 O 0.55801 0.22132 0.96484 0.0
Cd86 Cd 0.52126 0.17215 0.96371 0.0
O87 O 0.56033 0.23014 0.91309 0.0
Cd88 Cd 0.52868 0.18491 0.88424 0.0
C89 C 0.45597 0.20593 0.91942 0.0
O90 O 0.53795 0.13963 0.92077 0.0
O91 O 0.50091 0.12933 0.88438 0.0
O92 O 0.57484 0.17739 0.84802 0.0
C93 C 0.5154 0.11967 0.90946 0.0
O94 O 0.46828 0.19323 0.94454 0.0
C95 C 0.5579 0.18254 0.82297 0.0
O96 O 0.47324 0.2088 0.89409 0.0
O97 O 0.52727 0.19003 0.82643 0.0
C98 C 0.16911 0.40369 0.11093 0.0
O99 O 0.17305 0.43558 0.1118 0.0
Cd100 Cd 0.18867 0.47037 0.0679 0.0
O101 O 0.17397 0.38753 0.08536 0.0
Cd102 Cd 0.19224 0.40105 0.03019 0.0
C103 C 0.12453 0.44798 0.01637 0.0
O104 O 0.23513 0.44264 0.04574 0.0
O105 O 0.22451 0.4407 -0.00412 0.0
O106 O 0.22067 0.34778 0.03159 0.0
C107 C 0.24234 0.45305 0.01826 0.0
O108 O 0.13925 0.47085 0.03306 0.0
C109 C 0.21338 0.33971 0.00322 0.0
O110 O 0.13731 0.41923 0.01323 0.0
O111 O 0.19506 0.35958 0.98775 0.0
C112 C 0.15837 0.40254 0.16916 0.0
C113 C 0.1587 0.38546 0.14004 0.0
C114 C 0.14776 0.38593 0.19663 0.0
C115 C 0.1372 0.35177 0.19564 0.0
C116 C 0.13748 0.33466 0.16658 0.0
C117 C 0.14841 0.35123 0.13906 0.0
C118 C 0.12345 0.33423 0.22402 0.0
C119 C 0.13258 0.34285 0.25378 0.0
C120 C 0.11605 0.32814 0.28224 0.0
C121 C 0.13382 0.32782 0.31108 0.0
C122 C 0.11817 0.31609 0.33872 0.0
C123 C 0.08421 0.30499 0.33812 0.0
H124 H 0.0673 0.31758 0.26006 0.0
C125 C 0.06646 0.30531 0.30922 0.0
C126 C 0.08216 0.31674 0.2816 0.0
H127 H 0.04024 0.29702 0.3079 0.0
H128 H 0.16604 0.42894 0.17077 0.0
H129 H 0.14689 0.40029 0.21835 0.0
H130 H 0.12909 0.30844 0.16513 0.0
H131 H 0.14822 0.33739 0.11698 0.0
H132 H 0.10542 0.31344 0.22012 0.0
H133 H 0.15308 0.36123 0.25762 0.0
H134 H 0.15984 0.33684 0.31226 0.0
H135 H 0.13252 0.3163 0.36063 0.0
C136 C 0.29219 0.89197 0.69525 0.0
C137 C 0.29548 0.87445 0.66663 0.0
C138 C 0.30217 0.87753 0.72388 0.0
C139 C 0.31553 0.84511 0.72451 0.0
C140 C 0.31792 0.82729 0.69598 0.0
C141 C 0.30784 0.84169 0.66737 0.0
C142 C 0.32972 0.83035 0.75391 0.0
C143 C 0.3204 0.83941 0.78319 0.0
C144 C 0.3367 0.82722 0.81266 0.0
C145 C 0.31889 0.82861 0.84114 0.0
C146 C 0.33413 0.82001 0.86979 0.0
C147 C 0.36776 0.81015 0.87067 0.0
H148 H 0.38515 0.81617 0.79213 0.0
C149 C 0.38554 0.80823 0.84215 0.0
C150 C 0.37022 0.81671 0.81342 0.0
H151 H 0.41155 0.80092 0.84208 0.0
H152 H 0.28301 0.91736 0.69545 0.0
H153 H 0.30071 0.89255 0.74514 0.0
H154 H 0.32828 0.80239 0.69573 0.0
H155 H 0.31084 0.82755 0.64572 0.0
H156 H 0.34827 0.81114 0.75114 0.0
H157 H 0.29959 0.85616 0.78596 0.0
H158 H 0.29317 0.83683 0.84131 0.0
H159 H 0.31972 0.82183 0.89134 0.0
C160 C 0.87767 0.65325 0.31984 0.0
C161 C 0.91196 0.6631 0.32153 0.0
C162 C 0.86314 0.64268 0.29116 0.0
C163 C 0.8826 0.64181 0.26351 0.0
C164 C 0.91654 0.65266 0.26498 0.0
C165 C 0.93117 0.66293 0.29372 0.0
C166 C 0.86829 0.62972 0.23287 0.0
C167 C 0.84393 0.60537 0.23106 0.0
C168 C 0.83148 0.59094 0.20062 0.0
C169 C 0.81992 0.55717 0.19993 0.0
C170 C 0.80861 0.5424 0.17166 0.0
C171 C 0.80801 0.56131 0.1435 0.0
H172 H 0.8384 0.63647 0.17247 0.0
C173 C 0.81878 0.59542 0.14432 0.0
C174 C 0.83051 0.6101 0.17259 0.0
H175 H 0.81844 0.61073 0.12308 0.0
H176 H 0.86207 0.65336 0.34075 0.0
H177 H 0.83663 0.63544 0.29069 0.0
H178 H 0.93198 0.65253 0.24395 0.0
H179 H 0.95757 0.67066 0.29411 0.0
H180 H 0.8801 0.63913 0.21134 0.0
H181 H 0.83463 0.59355 0.25265 0.0
H182 H 0.82014 0.54197 0.22125 0.0
H183 H 0.80021 0.51615 0.17193 0.0
C184 C 0.606 0.16732 0.78859 0.0
C185 C 0.57267 0.17764 0.79135 0.0
C186 C 0.61907 0.15931 0.75905 0.0
C187 C 0.59898 0.16129 0.7316 0.0
C188 C 0.56625 0.17321 0.73418 0.0
C189 C 0.55313 0.18115 0.76377 0.0
C190 C 0.61116 0.15074 0.70007 0.0
C191 C 0.63405 0.12677 0.69639 0.0
C192 C 0.6441 0.11373 0.66501 0.0
C193 C 0.65617 0.08095 0.66308 0.0
C194 C 0.6647 0.06725 0.63388 0.0
C195 C 0.66166 0.08623 0.60598 0.0
H196 H 0.63394 0.15885 0.63778 0.0
C197 C 0.65064 0.11944 0.60799 0.0
C198 C 0.64202 0.1331 0.63718 0.0
H199 H 0.64835 0.13485 0.58695 0.0
H200 H 0.62186 0.16473 0.80936 0.0
H201 H 0.64484 0.15145 0.7579 0.0
H202 H 0.55039 0.1754 0.71335 0.0
H203 H 0.52742 0.18922 0.76508 0.0
H204 H 0.5987 0.161 0.67942 0.0
H205 H 0.64398 0.1142 0.71713 0.0
H206 H 0.65837 0.0656 0.68418 0.0
H207 H 0.67329 0.04166 0.63314 0.0
C208 C 0.28238 0.06625 0.54224 0.0
C209 C 0.26214 0.0408 0.55629 0.0
C210 C 0.27223 0.0995 0.54181 0.0
C211 C 0.241 0.10781 0.55459 0.0
C212 C 0.22207 0.08279 0.57087 0.0
C213 C 0.23263 0.04949 0.57184 0.0
C214 C 0.22596 0.14109 0.54875 0.0
C215 C 0.23391 0.1602 0.52325 0.0
C216 C 0.21245 0.18741 0.51146 0.0
C217 C 0.2105 0.19264 0.47864 0.0
C218 C 0.18655 0.21373 0.46586 0.0
C219 C 0.1645 0.2305 0.48573 0.0
H220 H 0.19381 0.20358 0.55699 0.0
C221 C 0.16841 0.22768 0.51872 0.0
C222 C 0.19215 0.20619 0.53152 0.0
H223 H 0.15189 0.24056 0.53461 0.0
H224 H 0.30578 0.06027 0.53084 0.0
H225 H 0.2885 0.11825 0.53053 0.0
H226 H 0.19815 0.08857 0.58134 0.0
H227 H 0.21676 0.0303 0.58307 0.0
H228 H 0.20439 0.14731 0.56297 0.0
H229 H 0.25354 0.15244 0.50739 0.0
H230 H 0.22616 0.17881 0.46267 0.0
H231 H 0.18435 0.21572 0.44035 0.0
C232 C 0.17794 0.86629 0.52967 0.0
C233 C 0.19983 0.87972 0.50655 0.0
C234 C 0.14788 0.84941 0.52086 0.0
C235 C 0.1391 0.84574 0.48867 0.0
C236 C 0.16126 0.85867 0.46564 0.0
C237 C 0.19118 0.87561 0.47442 0.0
C238 C 0.10779 0.82766 0.47795 0.0
C239 C 0.07999 0.82374 0.4958 0.0
C240 C 0.04933 0.80487 0.48458 0.0
C241 C 0.02853 0.7884 0.50684 0.0
C242 C 0.00056 0.76876 0.49696 0.0
C243 C -0.00726 0.76552 0.46459 0.0
H244 H 0.05516 0.81634 0.4345 0.0
C245 C 0.01264 0.78327 0.44241 0.0
C246 C 0.04058 0.80286 0.45228 0.0
H247 H 0.00695 0.78166 0.41733 0.0
H248 H 0.18397 0.8688 0.55462 0.0
H249 H 0.13205 0.83885 0.53934 0.0
H250 H 0.15528 0.8559 0.44068 0.0
H251 H 0.20752 0.88549 0.45595 0.0
H252 H 0.10781 0.81743 0.45413 0.0
H253 H 0.0798 0.83354 0.51976 0.0
H254 H 0.03445 0.78995 0.53189 0.0
H255 H -0.0145 0.7556 0.51464 0.0
C256 C 0.71351 0.91159 0.46425 0.0
C257 C 0.71697 0.93348 0.49026 0.0
C258 C 0.72421 0.8786 0.46625 0.0
C259 C 0.7385 0.86651 0.49446 0.0
C260 C 0.74184 0.8883 0.52054 0.0
C261 C 0.73098 0.92142 0.51857 0.0
C262 C 0.7536 0.83284 0.49602 0.0
C263 C 0.74465 0.80741 0.47626 0.0
C264 C 0.76696 0.77903 0.47058 0.0
C265 C 0.77146 0.76853 0.43926 0.0
C266 C 0.7973 0.74707 0.43181 0.0
C267 C 0.81846 0.73505 0.45572 0.0
H268 H 0.78289 0.77201 0.51932 0.0
C269 C 0.81187 0.74287 0.48745 0.0
C270 C 0.78642 0.76496 0.49485 0.0
H271 H 0.82776 0.73376 0.50634 0.0
H272 H 0.7029 0.92002 0.44203 0.0
H273 H 0.72235 0.86326 0.44513 0.0
H274 H 0.75327 0.8798 0.54238 0.0
H275 H 0.73399 0.93764 0.53906 0.0
H276 H 0.77488 0.83018 0.51202 0.0
H277 H 0.72337 0.80987 0.46028 0.0
H278 H 0.75656 0.77885 0.42021 0.0
H279 H 0.80167 0.74113 0.40719 0.0
C280 C 0.79069 0.10882 0.49015 0.0
C281 C 0.77314 0.09877 0.46254 0.0
C282 C 0.82257 0.12449 0.48826 0.0
C283 C 0.83768 0.13026 0.45865 0.0
C284 C 0.81964 0.1213 0.43106 0.0
C285 C 0.78776 0.1056 0.43294 0.0
C286 C 0.87185 0.14598 0.4554 0.0
C287 C 0.89554 0.14576 0.47838 0.0
C288 C 0.92932 0.16194 0.4742 0.0
C289 C 0.94596 0.17664 0.50042 0.0
C290 C 0.97662 0.19444 0.49662 0.0
C291 C -0.00875 0.19747 0.46654 0.0
H292 H 0.93357 0.15102 0.42401 0.0
C293 C 0.97559 0.18098 0.44069 0.0
C294 C 0.94498 0.16332 0.44448 0.0
H295 H -0.01346 0.18239 0.4173 0.0
H296 H 0.77997 0.10427 0.51333 0.0
H297 H 0.83501 0.13217 0.51006 0.0
H298 H 0.83053 0.12586 0.40794 0.0
H299 H 0.77486 0.09833 0.4112 0.0
H300 H 0.87776 0.15774 0.43279 0.0
H301 H 0.89 0.13453 0.50126 0.0
H302 H 0.93462 0.17541 0.52366 0.0
H303 H -0.01171 0.20665 0.51703 0.0
C304 C 0.28101 0.49832 0.03977 0.0
C305 C 0.265 0.4828 0.01359 0.0
C306 C 0.29943 0.52858 0.03616 0.0
C307 C 0.30207 0.54401 0.00626 0.0
C308 C 0.28776 0.5275 0.97981 0.0
C309 C 0.2692 0.49722 0.98343 0.0
C310 C 0.31903 0.5775 0.00205 0.0
C311 C 0.31893 0.60144 0.02463 0.0
C312 C 0.33447 0.63569 0.02079 0.0
C313 C 0.34304 0.65437 0.04804 0.0
C314 C 0.35791 0.68665 0.04557 0.0
C315 C 0.3643 0.701 0.01571 0.0
H316 H 0.33266 0.63749 0.96929 0.0
C317 C 0.35491 0.68266 0.98842 0.0
C318 C 0.34005 0.65042 -0.00911 0.0
H319 H 0.35915 0.69312 0.96503 0.0
H320 H 0.27866 0.48752 0.06325 0.0
H321 H 0.31134 0.53988 0.05687 0.0
H322 H 0.28991 0.53867 0.95645 0.0
H323 H 0.25739 0.48565 0.96277 0.0
H324 H 0.33051 0.58274 0.97927 0.0
H325 H 0.30702 0.59587 0.04719 0.0
H326 H 0.33863 0.64379 0.07137 0.0
H327 H 0.36473 0.70014 0.06708 0.0
C328 C 0.70309 0.66504 0.02846 0.0
C329 C 0.72014 0.64608 0.00608 0.0
C330 C 0.67925 0.68792 0.01878 0.0
C331 C 0.67191 0.69233 0.9864 0.0
C332 C 0.69027 0.67465 0.96396 0.0
C333 C 0.71447 0.65195 0.97369 0.0
C334 C 0.64212 0.71112 0.97599 0.0
C335 C 0.62981 0.73632 -0.00677 0.0
C336 C 0.59504 0.74857 0.9899 0.0
C337 C 0.5817 0.76561 0.01575 0.0
C338 C 0.5481 0.7744 0.01585 0.0
C339 C 0.52692 0.7667 0.98989 0.0
H340 H 0.58364 0.7296 0.9425 0.0
C341 C 0.54049 0.75095 0.96332 0.0
C342 C 0.57425 0.74192 0.96329 0.0
H343 H 0.52493 0.74513 0.94275 0.0
H344 H 0.7069 0.66097 0.05358 0.0
H345 H 0.66507 0.70025 0.03692 0.0
H346 H 0.6849 0.67736 0.93892 0.0
H347 H 0.72713 0.6375 0.95591 0.0
H348 H 0.62867 0.7016 0.95527 0.0
H349 H 0.64458 0.74605 0.01316 0.0
H350 H 0.59705 0.77123 0.03652 0.0
H351 H 0.5387 0.787 0.03655 0.0
C352 C 0.69358 0.46325 0.97799 0.0
C353 C 0.69773 0.47355 0.00961 0.0
C354 C 0.67378 0.43457 0.97052 0.0
C355 C 0.65787 0.41556 -0.00536 0.0
C356 C 0.66094 0.42673 0.02606 0.0
C357 C 0.68077 0.45534 0.03352 0.0
C358 C 0.63804 0.38396 0.98821 0.0
C359 C 0.6429 0.36427 0.96281 0.0
C360 C 0.62423 0.33172 0.95786 0.0
C361 C 0.6186 0.32005 0.92688 0.0
C362 C 0.60072 0.28967 0.92142 0.0
C363 C 0.5885 0.27014 0.94693 0.0
H364 H 0.61785 0.31922 0.00765 0.0
C365 C 0.59509 0.28135 0.97797 0.0
C366 C 0.61283 0.31175 0.9834 0.0
H367 H 0.58637 0.26678 -0.00182 0.0
H368 H 0.70601 0.47706 0.95901 0.0
H369 H 0.67103 0.42756 0.94589 0.0
H370 H 0.64862 0.41279 0.04504 0.0
H371 H 0.68327 0.46281 0.0581 0.0
H372 H 0.61967 0.37607 0.00586 0.0
H373 H 0.66095 0.372 0.94485 0.0
H374 H 0.62758 0.33476 0.90683 0.0
H375 H 0.59628 0.28166 0.8972 0.0
C376 C 0.4009 0.20879 0.94681 0.0
C377 C 0.42074 0.2168 0.92027 0.0
C378 C 0.36808 0.21959 0.9489 0.0
C379 C 0.35397 0.23859 0.92434 0.0
C380 C 0.37358 0.24633 0.89758 0.0
C381 C 0.40662 0.23532 0.89541 0.0
C382 C 0.32067 0.25397 0.928 0.0
C383 C 0.29707 0.24176 0.94815 0.0
C384 C 0.27018 0.26297 0.96031 0.0
C385 C 0.26288 0.26136 -0.00727 0.0
C386 C 0.24277 0.28534 0.00655 0.0
C387 C 0.22891 0.31079 0.98798 0.0
H388 H 0.25894 0.2882 0.91608 0.0
C389 C 0.23364 0.31052 0.95504 0.0
C390 C 0.25437 0.28692 0.9413 0.0
H391 H 0.22308 0.32979 0.94014 0.0
H392 H 0.41086 0.19455 0.96645 0.0
H393 H 0.35458 0.21413 0.97054 0.0
H394 H 0.36351 0.2614 0.87856 0.0
H395 H 0.42127 0.24191 0.87465 0.0
H396 H 0.3171 0.27791 0.91615 0.0
H397 H 0.30043 0.21776 0.95989 0.0
H398 H 0.27461 0.24293 0.0078 0.0
H399 H 0.23925 0.28481 0.03196 0.0
C400 C -0.00674 0.57795 0.46586 0.0
C401 C 0.96119 0.59167 0.46378 0.0
C402 C -0.00307 0.5447 0.47571 0.0
C403 C 0.96853 0.52442 0.48378 0.0
C404 C 0.93664 0.53855 0.48287 0.0
C405 C 0.93299 0.57191 0.4732 0.0
C406 C 0.97077 0.48757 0.48874 0.0
C407 C -0.00088 0.47277 0.49835 0.0
C408 C 0.00463 0.4361 0.49468 0.0
C409 C 0.0379 0.42529 0.49373 0.0
C410 C 0.04467 0.39229 0.48497 0.0
C411 C 0.01823 0.36947 0.47688 0.0
H412 H 0.95204 0.41891 0.49113 0.0
C413 C -0.01512 0.37947 0.48014 0.0
C414 C 0.97809 0.41232 0.48925 0.0
H415 H 0.96394 0.36215 0.47485 0.0
H416 H 0.01552 0.59252 0.45884 0.0
H417 H 0.02185 0.53459 0.47517 0.0
H418 H 0.91434 0.52338 0.48867 0.0
H419 H 0.90792 0.58172 0.47191 0.0
H420 H 0.94884 0.47239 0.48162 0.0
H421 H 0.02054 0.48848 0.50603 0.0
H422 H 0.05885 0.44288 0.49818 0.0
H423 H 0.07066 0.38523 0.48297 0.0
C424 C 0.57283 -0.01605 0.46955 0.0
C425 C 0.58301 0.01805 0.47196 0.0
C426 C 0.53935 0.97489 0.46313 0.0
C427 C 0.51543 -0.00021 0.45995 0.0
C428 C 0.52617 0.03397 0.45926 0.0
C429 C 0.55997 0.04305 0.46504 0.0
C430 C 0.47964 -0.01066 0.4635 0.0
C431 C 0.46029 0.00552 0.48412 0.0
C432 C 0.43136 -0.01124 0.50033 0.0
C433 C 0.42449 -0.0013 0.5314 0.0
C434 C 0.39954 0.98187 0.54888 0.0
C435 C 0.38057 0.95495 0.53549 0.0
H436 H 0.41629 0.95415 0.46257 0.0
C437 C 0.38702 0.94523 0.50419 0.0
C438 C 0.41216 0.96203 0.4867 0.0
H439 H 0.37238 0.92493 0.49307 0.0
H440 H 0.59043 0.96424 0.47424 0.0
H441 H 0.53168 0.94842 0.46353 0.0
H442 H 0.50816 0.05362 0.45624 0.0
H443 H 0.56748 0.0695 0.46648 0.0
H444 H 0.47221 0.96414 0.45557 0.0
H445 H 0.46959 0.02936 0.49406 0.0
H446 H 0.43898 0.01914 0.5425 0.0
H447 H 0.39495 -0.00978 0.57282 0.0
C448 C 0.51041 0.08708 0.96014 0.0
C449 C 0.49967 0.0926 0.92884 0.0
C450 C 0.49356 0.06318 0.97915 0.0
C451 C 0.46578 0.04425 0.96703 0.0
C452 C 0.45489 0.05022 0.93592 0.0
C453 C 0.47171 0.07396 0.91698 0.0
C454 C 0.44884 0.01634 0.98477 0.0
C455 C 0.46479 -0.00214 0.00657 0.0
C456 C 0.45433 0.96218 0.01159 0.0
C457 C 0.47935 0.93823 0.01036 0.0
C458 C 0.47062 0.90449 0.0049 0.0
C459 C 0.4367 0.89409 0.00152 0.0
H460 H 0.40044 0.96928 0.01317 0.0
C461 C 0.41145 0.91722 0.00672 0.0
C462 C 0.42022 0.95127 0.01156 0.0
H463 H 0.38512 0.90952 0.00451 0.0
H464 H 0.53154 0.10152 0.97011 0.0
H465 H 0.50226 0.05984 0.00323 0.0
H466 H 0.43365 0.03593 0.92593 0.0
H467 H 0.46259 0.07785 0.89307 0.0
H468 H 0.42494 0.00677 0.97514 0.0
H469 H 0.48992 0.00558 0.0145 0.0
H470 H 0.50576 0.946 0.01059 0.0
H471 H 0.49049 0.88683 0.00154 0.0
C472 C 0.07724 0.48619 0.00452 0.0
C473 C 0.09115 0.45421 0.00228 0.0
C474 C 0.04416 0.49114 -0.00528 0.0
C475 C 0.0243 0.46415 0.98233 0.0
C476 C 0.03873 0.43261 0.97877 0.0
C477 C 0.07188 0.42771 0.98843 0.0
C478 C -0.01253 0.46664 0.97752 0.0
C479 C 0.97216 0.49601 0.97262 0.0
C480 C 0.93547 0.50016 0.97732 0.0
C481 C 0.92407 0.53274 0.98291 0.0
C482 C 0.89121 0.53745 -0.00687 0.0
C483 C 0.86918 0.50957 -0.0019 0.0
H484 H 0.91923 0.44719 0.97401 0.0
C485 C 0.87965 0.47726 0.99015 0.0
C486 C 0.9123 0.47259 0.97951 0.0
H487 H 0.86287 0.45539 -0.00704 0.0
H488 H 0.09144 0.50718 0.015 0.0
H489 H 0.03382 0.51561 -0.00129 0.0
H490 H 0.02391 0.41135 0.96955 0.0
H491 H 0.08185 0.40276 0.98626 0.0
H492 H 0.97272 0.44349 0.98094 0.0
H493 H -0.01253 0.51875 0.96845 0.0
H494 H 0.94115 0.55451 0.98103 0.0
H495 H 0.88372 0.56271 -0.00121 0.0
loop_
_geom_bond_atom_site_label_1
_geom_bond_atom_site_label_2
_geom_bond_distance
_geom_bond_site_symmetry_2
_ccdc_geom_bond_type
C0 O1 1.306 . S
C0 O3 1.160 . S
O1 C0 1.306 . S
O1 Cd2 2.228 . S
Cd2 O1 2.228 . S
Cd2 O6 2.273 . S
Cd2 O10 2.277 . S
O3 C0 1.160 . S
O3 Cd4 2.203 . S
Cd4 O3 2.203 . S
Cd4 O6 2.411 . S
Cd4 O7 2.333 . S
Cd4 O8 2.352 . S
Cd4 O12 2.277 . S
Cd4 O13 2.356 . S
C5 O10 1.209 . S
C5 O12 1.226 . S
O6 Cd2 2.273 . S
O6 Cd4 2.411 . S
O6 C9 1.320 . S
O7 Cd4 2.333 . S
O7 C9 1.214 . S
O8 Cd4 2.352 . S
O8 C11 1.258 . S
C9 O6 1.320 . S
C9 O7 1.214 . S
O10 Cd2 2.277 . S
O10 C5 1.209 . S
C11 O8 1.258 . S
C11 O13 1.282 . S
O12 Cd4 2.277 . S
O12 C5 1.226 . S
O13 Cd4 2.356 . S
O13 C11 1.282 . S
C14 O15 1.306 . S
C14 O17 1.160 . S
O15 C14 1.306 . S
O15 Cd16 2.228 . S
Cd16 O15 2.228 . S
Cd16 O20 2.273 . S
Cd16 O24 2.277 . S
O17 C14 1.160 . S
O17 Cd18 2.203 . S
Cd18 O17 2.203 . S
Cd18 O20 2.411 . S
Cd18 O21 2.333 . S
Cd18 O22 2.352 . S
Cd18 O26 2.277 . S
Cd18 O27 2.356 . S
C19 O24 1.209 . S
C19 O26 1.226 . S
O20 Cd16 2.273 . S
O20 Cd18 2.411 . S
O20 C23 1.320 . S
O21 Cd18 2.333 . S
O21 C23 1.214 . S
O22 Cd18 2.352 . S
O22 C25 1.258 . S
C23 O20 1.320 . S
C23 O21 1.214 . S
O24 Cd16 2.277 . S
O24 C19 1.209 . S
C25 O22 1.258 . S
C25 O27 1.282 . S
O26 Cd18 2.277 . S
O26 C19 1.226 . S
O27 Cd18 2.356 . S
O27 C25 1.282 . S
C28 O29 1.306 . S
C28 O31 1.160 . S
O29 C28 1.306 . S
O29 Cd30 2.228 . S
Cd30 O29 2.228 . S
Cd30 O34 2.273 . S
Cd30 O38 2.277 . S
O31 C28 1.160 . S
O31 Cd32 2.203 . S
Cd32 O31 2.203 . S
Cd32 O34 2.411 . S
Cd32 O35 2.333 . S
Cd32 O36 2.352 . S
Cd32 O40 2.277 . S
Cd32 O41 2.356 . S
C33 O38 1.209 . S
C33 O40 1.226 . S
O34 Cd30 2.273 . S
O34 Cd32 2.411 . S
O34 C37 1.320 . S
O35 Cd32 2.333 . S
O35 C37 1.214 . S
O36 Cd32 2.352 . S
O36 C39 1.258 . S
C37 O34 1.320 . S
C37 O35 1.214 . S
O38 Cd30 2.277 . S
O38 C33 1.209 . S
C39 O36 1.258 . S
C39 O41 1.282 . S
O40 Cd32 2.277 . S
O40 C33 1.226 . S
O41 Cd32 2.356 . S
O41 C39 1.282 . S
C42 O43 1.306 . S
C42 O45 1.160 . S
O43 C42 1.306 . S
O43 Cd44 2.228 . S
Cd44 O43 2.228 . S
Cd44 O48 2.273 . S
Cd44 O52 2.277 . S
O45 C42 1.160 . S
O45 Cd46 2.203 . S
Cd46 O45 2.203 . S
Cd46 O48 2.411 . S
Cd46 O49 2.333 . S
Cd46 O50 2.352 . S
Cd46 O54 2.277 . S
Cd46 O55 2.356 . S
C47 O52 1.209 . S
C47 O54 1.226 . S
O48 Cd44 2.273 . S
O48 Cd46 2.411 . S
O48 C51 1.320 . S
O49 Cd46 2.333 . S
O49 C51 1.214 . S
O50 Cd46 2.352 . S
O50 C53 1.258 . S
C51 O48 1.320 . S
C51 O49 1.214 . S
O52 Cd44 2.277 . S
O52 C47 1.209 . S
C53 O50 1.258 . S
C53 O55 1.282 . S
O54 Cd46 2.277 . S
O54 C47 1.226 . S
O55 Cd46 2.356 . S
O55 C53 1.282 . S
C56 O57 1.306 1_556 S
C56 O59 1.160 . S
O57 C56 1.306 1_554 S
O57 Cd58 2.228 . S
Cd58 O57 2.228 . S
Cd58 O62 2.273 1_554 S
Cd58 O66 2.277 1_554 S
O59 C56 1.160 . S
O59 Cd60 2.203 . S
Cd60 O59 2.203 . S
Cd60 O62 2.411 . S
Cd60 O63 2.333 . S
Cd60 O64 2.352 . S
Cd60 O68 2.277 . S
Cd60 O69 2.356 . S
C61 O66 1.209 . S
C61 O68 1.226 . S
O62 Cd58 2.273 1_556 S
O62 Cd60 2.411 . S
O62 C65 1.320 . S
O63 Cd60 2.333 . S
O63 C65 1.214 . S
O64 Cd60 2.352 . S
O64 C67 1.258 . S
C65 O62 1.320 . S
C65 O63 1.214 . S
O66 Cd58 2.277 1_556 S
O66 C61 1.209 . S
C67 O64 1.258 . S
C67 O69 1.282 . S
O68 Cd60 2.277 . S
O68 C61 1.226 . S
O69 Cd60 2.356 . S
O69 C67 1.282 . S
C70 O71 1.306 . S
C70 O73 1.160 . S
O71 C70 1.306 . S
O71 Cd72 2.228 . S
Cd72 O71 2.228 . S
Cd72 O76 2.273 . S
Cd72 O80 2.277 . S
O73 C70 1.160 . S
O73 Cd74 2.203 . S
Cd74 O73 2.203 . S
Cd74 O76 2.411 . S
Cd74 O77 2.333 . S
Cd74 O78 2.352 . S
Cd74 O82 2.277 . S
Cd74 O83 2.355 . S
C75 O80 1.209 . S
C75 O82 1.226 . S
O76 Cd72 2.273 . S
O76 Cd74 2.411 . S
O76 C79 1.320 . S
O77 Cd74 2.333 . S
O77 C79 1.214 . S
O78 Cd74 2.352 . S
O78 C81 1.258 . S
C79 O76 1.320 . S
C79 O77 1.214 . S
O80 Cd72 2.277 . S
O80 C75 1.209 . S
C81 O78 1.258 . S
C81 O83 1.281 . S
O82 Cd74 2.277 . S
O82 C75 1.226 . S
O83 Cd74 2.355 . S
O83 C81 1.281 . S
C84 O85 1.306 1_556 S
C84 O87 1.160 . S
O85 C84 1.306 1_554 S
O85 Cd86 2.228 . S
Cd86 O85 2.228 . S
Cd86 O90 2.273 1_554 S
Cd86 O94 2.277 1_554 S
O87 C84 1.160 . S
O87 Cd88 2.203 . S
Cd88 O87 2.203 . S
Cd88 O90 2.411 . S
Cd88 O91 2.333 . S
Cd88 O92 2.352 . S
Cd88 O96 2.277 . S
Cd88 O97 2.356 . S
C89 O94 1.209 . S
C89 O96 1.226 . S
O90 Cd86 2.273 1_556 S
O90 Cd88 2.411 . S
O90 C93 1.320 . S
O91 Cd88 2.333 . S
O91 C93 1.214 . S
O92 Cd88 2.352 . S
O92 C95 1.258 . S
C93 O90 1.320 . S
C93 O91 1.214 . S
O94 Cd86 2.277 1_556 S
O94 C89 1.209 . S
C95 O92 1.258 . S
C95 O97 1.282 . S
O96 Cd88 2.277 . S
O96 C89 1.226 . S
O97 Cd88 2.356 . S
O97 C95 1.282 . S
C98 O99 1.306 . S
C98 O101 1.160 . S
O99 C98 1.306 . S
O99 Cd100 2.228 . S
Cd100 O99 2.228 . S
Cd100 O104 2.273 . S
Cd100 O108 2.277 . S
O101 C98 1.160 . S
O101 Cd102 2.203 . S
Cd102 O101 2.203 . S
Cd102 O104 2.411 . S
Cd102 O105 2.333 . S
Cd102 O106 2.352 . S
Cd102 O110 2.277 . S
Cd102 O111 2.355 . S
C103 O108 1.209 . S
C103 O110 1.226 . S
O104 Cd100 2.273 . S
O104 Cd102 2.411 . S
O104 C107 1.320 . S
O105 Cd102 2.333 . S
O105 C107 1.214 . S
O106 Cd102 2.352 . S
O106 C109 1.258 . S
C107 O104 1.320 . S
C107 O105 1.214 . S
O108 Cd100 2.277 . S
O108 C103 1.209 . S
C109 O106 1.258 . S
C109 O111 1.281 . S
O110 Cd102 2.277 . S
O110 C103 1.226 . S
O111 Cd102 2.355 . S
O111 C109 1.281 . S
C112 C113 1.386 . S
C112 C114 1.383 . S
C112 H128 0.951 . S
C113 C112 1.386 . S
C113 C117 1.383 . S
C114 C112 1.383 . S
C114 C115 1.402 . S
C114 H129 0.951 . S
C115 C114 1.402 . S
C115 C116 1.375 . S
C115 C118 1.481 . S
C116 C115 1.375 . S
C116 C117 1.367 . S
C116 H130 0.951 . S
C117 C113 1.383 . S
C117 C116 1.367 . S
C117 H131 0.950 . S
C118 C115 1.481 . S
C118 C119 1.297 . S
C118 H132 0.950 . S
C119 C118 1.297 . S
C119 C120 1.479 . S
C119 H133 0.950 . S
C120 C119 1.479 . S
C120 C121 1.375 . S
C120 C126 1.404 . S
C121 C120 1.375 . S
C121 C122 1.369 . S
C121 H134 0.950 . S
C122 C121 1.369 . S
C122 C123 1.392 . S
C122 H135 0.951 . S
C123 C122 1.392 . S
C123 C125 1.384 . S
H124 C126 0.949 . S
C125 C123 1.384 . S
C125 C126 1.385 . S
C125 H127 0.950 . S
C126 C120 1.404 . S
C126 H124 0.949 . S
C126 C125 1.385 . S
H127 C125 0.950 . S
H128 C112 0.951 . S
H129 C114 0.951 . S
H130 C116 0.951 . S
H131 C117 0.950 . S
H132 C118 0.950 . S
H133 C119 0.950 . S
H134 C121 0.950 . S
H135 C122 0.951 . S
C136 C137 1.386 . S
C136 C138 1.383 . S
C136 H152 0.951 . S
C137 C136 1.386 . S
C137 C141 1.383 . S
C138 C136 1.383 . S
C138 C139 1.402 . S
C138 H153 0.951 . S
C139 C138 1.402 . S
C139 C140 1.375 . S
C139 C142 1.481 . S
C140 C139 1.375 . S
C140 C141 1.367 . S
C140 H154 0.951 . S
C141 C137 1.383 . S
C141 C140 1.367 . S
C141 H155 0.950 . S
C142 C139 1.481 . S
C142 C143 1.297 . S
C142 H156 0.950 . S
C143 C142 1.297 . S
C143 C144 1.479 . S
C143 H157 0.950 . S
C144 C143 1.479 . S
C144 C145 1.375 . S
C144 C150 1.404 . S
C145 C144 1.375 . S
C145 C146 1.369 . S
C145 H158 0.950 . S
C146 C145 1.369 . S
C146 C147 1.392 . S
C146 H159 0.951 . S
C147 C146 1.392 . S
C147 C149 1.384 . S
H148 C150 0.949 . S
C149 C147 1.384 . S
C149 C150 1.385 . S
C149 H151 0.950 . S
C150 C144 1.404 . S
C150 H148 0.949 . S
C150 C149 1.385 . S
H151 C149 0.950 . S
H152 C136 0.951 . S
H153 C138 0.951 . S
H154 C140 0.951 . S
H155 C141 0.950 . S
H156 C142 0.950 . S
H157 C143 0.950 . S
H158 C145 0.950 . S
H159 C146 0.951 . S
C160 C161 1.386 . S
C160 C162 1.383 . S
C160 H176 0.951 . S
C161 C160 1.386 . S
C161 C165 1.383 . S
C162 C160 1.383 . S
C162 C163 1.402 . S
C162 H177 0.951 . S
C163 C162 1.402 . S
C163 C164 1.375 . S
C163 C166 1.481 . S
C164 C163 1.375 . S
C164 C165 1.367 . S
C164 H178 0.951 . S
C165 C161 1.383 . S
C165 C164 1.367 . S
C165 H179 0.950 . S
C166 C163 1.481 . S
C166 C167 1.297 . S
C166 H180 0.950 . S
C167 C166 1.297 . S
C167 C168 1.479 . S
C167 H181 0.950 . S
C168 C167 1.479 . S
C168 C169 1.375 . S
C168 C174 1.404 . S
C169 C168 1.375 . S
C169 C170 1.369 . S
C169 H182 0.950 . S
C170 C169 1.369 . S
C170 C171 1.392 . S
C170 H183 0.951 . S
C171 C170 1.392 . S
C171 C173 1.384 . S
H172 C174 0.949 . S
C173 C171 1.384 . S
C173 C174 1.385 . S
C173 H175 0.950 . S
C174 C168 1.404 . S
C174 H172 0.949 . S
C174 C173 1.385 . S
H175 C173 0.950 . S
H176 C160 0.951 . S
H177 C162 0.951 . S
H178 C164 0.951 . S
H179 C165 0.950 . S
H180 C166 0.950 . S
H181 C167 0.950 . S
H182 C169 0.950 . S
H183 C170 0.951 . S
C184 C185 1.386 . S
C184 C186 1.383 . S
C184 H200 0.951 . S
C185 C184 1.386 . S
C185 C189 1.383 . S
C186 C184 1.383 . S
C186 C187 1.402 . S
C186 H201 0.951 . S
C187 C186 1.402 . S
C187 C188 1.375 . S
C187 C190 1.481 . S
C188 C187 1.375 . S
C188 C189 1.367 . S
C188 H202 0.951 . S
C189 C185 1.383 . S
C189 C188 1.367 . S
C189 H203 0.950 . S
C190 C187 1.481 . S
C190 C191 1.297 . S
C190 H204 0.950 . S
C191 C190 1.297 . S
C191 C192 1.479 . S
C191 H205 0.950 . S
C192 C191 1.479 . S
C192 C193 1.375 . S
C192 C198 1.404 . S
C193 C192 1.375 . S
C193 C194 1.369 . S
C193 H206 0.950 . S
C194 C193 1.369 . S
C194 C195 1.392 . S
C194 H207 0.951 . S
C195 C194 1.392 . S
C195 C197 1.384 . S
H196 C198 0.949 . S
C197 C195 1.384 . S
C197 C198 1.385 . S
C197 H199 0.950 . S
C198 C192 1.404 . S
C198 H196 0.949 . S
C198 C197 1.385 . S
H199 C197 0.950 . S
H200 C184 0.951 . S
H201 C186 0.951 . S
H202 C188 0.951 . S
H203 C189 0.950 . S
H204 C190 0.950 . S
H205 C191 0.950 . S
H206 C193 0.950 . S
H207 C194 0.951 . S
C208 C209 1.386 . S
C208 C210 1.383 . S
C208 H224 0.951 1_545 S
C209 C208 1.386 . S
C209 C213 1.383 . S
C210 C208 1.383 . S
C210 C211 1.402 . S
C210 H225 0.951 . S
C211 C210 1.402 . S
C211 C212 1.375 . S
C211 C214 1.481 . S
C212 C211 1.375 . S
C212 C213 1.367 . S
C212 H226 0.951 . S
C213 C209 1.383 . S
C213 C212 1.367 . S
C213 H227 0.950 . S
C214 C211 1.481 . S
C214 C215 1.297 . S
C214 H228 0.950 . S
C215 C214 1.297 . S
C215 C216 1.479 . S
C215 H229 0.950 . S
C216 C215 1.479 . S
C216 C217 1.375 . S
C216 C222 1.404 . S
C217 C216 1.375 . S
C217 C218 1.369 . S
C217 H230 0.950 . S
C218 C217 1.369 . S
C218 C219 1.392 . S
C218 H231 0.951 . S
C219 C218 1.392 . S
C219 C221 1.384 . S
H220 C222 0.949 . S
C221 C219 1.384 . S
C221 C222 1.385 . S
C221 H223 0.950 . S
C222 C216 1.404 . S
C222 H220 0.949 . S
C222 C221 1.385 . S
H223 C221 0.950 . S
H224 C208 0.951 1_565 S
H225 C210 0.951 . S
H226 C212 0.951 . S
H227 C213 0.950 . S
H228 C214 0.950 . S
H229 C215 0.950 . S
H230 C217 0.950 . S
H231 C218 0.951 . S
C232 C233 1.386 . S
C232 C234 1.383 . S
C232 H248 0.951 . S
C233 C232 1.386 . S
C233 C237 1.383 . S
C234 C232 1.383 . S
C234 C235 1.402 . S
C234 H249 0.951 . S
C235 C234 1.402 . S
C235 C236 1.375 . S
C235 C238 1.481 . S
C236 C235 1.375 . S
C236 C237 1.367 . S
C236 H250 0.951 . S
C237 C233 1.383 . S
C237 C236 1.367 . S
C237 H251 0.950 . S
C238 C235 1.481 . S
C238 C239 1.297 . S
C238 H252 0.950 . S
C239 C238 1.297 . S
C239 C240 1.479 . S
C239 H253 0.950 . S
C240 C239 1.479 . S
C240 C241 1.375 . S
C240 C246 1.404 . S
C241 C240 1.375 . S
C241 C242 1.369 . S
C241 H254 0.950 . S
C242 C241 1.369 . S
C242 C243 1.392 . S
C242 H255 0.951 . S
C243 C242 1.392 . S
C243 C245 1.384 . S
H244 C246 0.949 . S
C245 C243 1.384 . S
C245 C246 1.385 . S
C245 H247 0.950 . S
C246 C240 1.404 . S
C246 H244 0.949 . S
C246 C245 1.385 . S
H247 C245 0.950 . S
H248 C232 0.951 . S
H249 C234 0.951 . S
H250 C236 0.951 . S
H251 C237 0.950 . S
H252 C238 0.950 . S
H253 C239 0.950 . S
H254 C241 0.950 . S
H255 C242 0.951 . S
C256 C257 1.386 . S
C256 C258 1.383 . S
C256 H272 0.951 . S
C257 C256 1.386 . S
C257 C261 1.383 . S
C258 C256 1.383 . S
C258 C259 1.402 . S
C258 H273 0.951 . S
C259 C258 1.402 . S
C259 C260 1.375 . S
C259 C262 1.481 . S
C260 C259 1.375 . S
C260 C261 1.367 . S
C260 H274 0.951 . S
C261 C257 1.383 . S
C261 C260 1.367 . S
C261 H275 0.950 . S
C262 C259 1.481 . S
C262 C263 1.297 . S
C262 H276 0.950 . S
C263 C262 1.297 . S
C263 C264 1.479 . S
C263 H277 0.950 . S
C264 C263 1.479 . S
C264 C265 1.375 . S
C264 C270 1.404 . S
C265 C264 1.375 . S
C265 C266 1.369 . S
C265 H278 0.950 . S
C266 C265 1.369 . S
C266 C267 1.392 . S
C266 H279 0.951 . S
C267 C266 1.392 . S
C267 C269 1.384 . S
H268 C270 0.949 . S
C269 C267 1.384 . S
C269 C270 1.385 . S
C269 H271 0.950 . S
C270 C264 1.404 . S
C270 H268 0.949 . S
C270 C269 1.385 . S
H271 C269 0.950 . S
H272 C256 0.951 . S
H273 C258 0.951 . S
H274 C260 0.951 . S
H275 C261 0.950 . S
H276 C262 0.950 . S
H277 C263 0.950 . S
H278 C265 0.950 . S
H279 C266 0.951 . S
C280 C281 1.386 . S
C280 C282 1.383 . S
C280 H296 0.951 . S
C281 C280 1.386 . S
C281 C285 1.383 . S
C282 C280 1.383 . S
C282 C283 1.402 . S
C282 H297 0.951 . S
C283 C282 1.402 . S
C283 C284 1.375 . S
C283 C286 1.481 . S
C284 C283 1.375 . S
C284 C285 1.367 . S
C284 H298 0.951 . S
C285 C281 1.383 . S
C285 C284 1.367 . S
C285 H299 0.950 . S
C286 C283 1.481 . S
C286 C287 1.297 . S
C286 H300 0.950 . S
C287 C286 1.297 . S
C287 C288 1.479 . S
C287 H301 0.950 . S
C288 C287 1.479 . S
C288 C289 1.375 . S
C288 C294 1.404 . S
C289 C288 1.375 . S
C289 C290 1.369 . S
C289 H302 0.950 . S
C290 C289 1.369 . S
C290 C291 1.392 . S
C290 H303 0.951 . S
C291 C290 1.392 . S
C291 C293 1.384 . S
H292 C294 0.949 . S
C293 C291 1.384 . S
C293 C294 1.385 . S
C293 H295 0.950 . S
C294 C288 1.404 . S
C294 H292 0.949 . S
C294 C293 1.385 . S
H295 C293 0.950 . S
H296 C280 0.951 . S
H297 C282 0.951 . S
H298 C284 0.951 . S
H299 C285 0.950 . S
H300 C286 0.950 . S
H301 C287 0.950 . S
H302 C289 0.950 . S
H303 C290 0.951 . S
C304 C305 1.386 . S
C304 C306 1.383 . S
C304 H320 0.951 . S
C305 C304 1.386 . S
C305 C309 1.383 1_554 S
C306 C304 1.383 . S
C306 C307 1.402 1_554 S
C306 H321 0.951 . S
C307 C306 1.402 1_556 S
C307 C308 1.375 . S
C307 C310 1.481 . S
C308 C307 1.375 . S
C308 C309 1.367 . S
C308 H322 0.951 . S
C309 C305 1.383 1_556 S
C309 C308 1.367 . S
C309 H323 0.950 . S
C310 C307 1.481 . S
C310 C311 1.310 . S
C310 H324 0.950 . S
C311 C310 1.310 . S
C311 C312 1.488 . S
C311 H325 0.928 1_556 S
C312 C311 1.488 . S
C312 C313 1.375 1_556 S
C312 C318 1.404 . S
C313 C312 1.375 1_554 S
C313 C314 1.369 . S
C313 H326 0.950 . S
C314 C313 1.369 . S
C314 C315 1.392 1_554 S
C314 H327 0.951 . S
C315 C314 1.392 1_556 S
C315 C317 1.384 . S
H316 C318 0.949 . S
C317 C315 1.384 . S
C317 C318 1.385 . S
C317 H319 0.950 . S
C318 C312 1.404 . S
C318 H316 0.949 . S
C318 C317 1.385 . S
H319 C317 0.950 . S
H320 C304 0.951 . S
H321 C306 0.951 . S
H322 C308 0.951 . S
H323 C309 0.950 . S
H324 C310 0.950 . S
H325 C311 0.928 1_554 S
H326 C313 0.950 . S
H327 C314 0.951 . S
C328 C329 1.386 . S
C328 C330 1.383 . S
C328 H344 0.951 . S
C329 C328 1.386 . S
C329 C333 1.383 1_554 S
C330 C328 1.383 . S
C330 C331 1.377 1_554 S
C330 H345 0.951 . S
C331 C330 1.377 1_556 S
C331 C332 1.394 . S
C331 C334 1.488 . S
C332 C331 1.394 . S
C332 C333 1.367 . S
C332 H346 0.951 . S
C333 C329 1.383 1_556 S
C333 C332 1.367 . S
C333 H347 0.950 . S
C334 C331 1.488 . S
C334 C335 1.297 1_556 S
C334 H348 0.950 . S
C335 C334 1.297 1_554 S
C335 C336 1.487 . S
C335 H349 0.950 . S
C336 C335 1.487 . S
C336 C337 1.392 . S
C336 C342 1.381 1_554 S
C337 C336 1.392 . S
C337 C338 1.369 . S
C337 H350 0.950 . S
C338 C337 1.369 . S
C338 C339 1.392 1_554 S
C338 H351 0.951 . S
C339 C338 1.392 1_556 S
C339 C341 1.384 . S
H340 C342 0.949 . S
C341 C339 1.384 . S
C341 C342 1.385 . S
C341 H343 0.950 . S
C342 C336 1.381 1_556 S
C342 H340 0.949 . S
C342 C341 1.385 . S
H343 C341 0.950 . S
H344 C328 0.951 . S
H345 C330 0.951 . S
H346 C332 0.951 . S
H347 C333 0.950 . S
H348 C334 0.950 . S
H349 C335 0.950 . S
H350 C337 0.950 . S
H351 C338 0.951 . S
C352 C353 1.386 1_556 S
C352 C354 1.383 . S
C352 H368 0.951 . S
C353 C352 1.386 1_554 S
C353 C357 1.383 . S
C354 C352 1.383 . S
C354 C355 1.402 1_556 S
C354 H369 0.951 . S
C355 C354 1.402 1_554 S
C355 C356 1.375 . S
C355 C358 1.481 . S
C356 C355 1.375 . S
C356 C357 1.367 . S
C356 H370 0.951 . S
C357 C353 1.383 . S
C357 C356 1.367 . S
C357 H371 0.950 . S
C358 C355 1.481 . S
C358 C359 1.297 1_554 S
C358 H372 0.950 . S
C359 C358 1.297 1_556 S
C359 C360 1.479 . S
C359 H373 0.950 . S
C360 C359 1.479 . S
C360 C361 1.375 . S
C360 C366 1.404 1_556 S
C361 C360 1.375 . S
C361 C362 1.369 . S
C361 H374 0.950 . S
C362 C361 1.369 . S
C362 C363 1.392 . S
C362 H375 0.951 . S
C363 C362 1.392 . S
C363 C365 1.384 1_556 S
H364 C366 0.949 . S
C365 C363 1.384 1_554 S
C365 C366 1.385 . S
C365 H367 0.950 . S
C366 C360 1.404 1_554 S
C366 H364 0.949 . S
C366 C365 1.385 . S
H367 C365 0.950 . S
H368 C352 0.951 . S
H369 C354 0.951 . S
H370 C356 0.951 . S
H371 C357 0.950 . S
H372 C358 0.950 . S
H373 C359 0.950 . S
H374 C361 0.950 . S
H375 C362 0.951 . S
C376 C377 1.386 1_554 S
C376 C378 1.383 . S
C376 H392 0.951 . S
C377 C376 1.386 1_556 S
C377 C381 1.383 . S
C378 C376 1.383 . S
C378 C379 1.402 1_554 S
C378 H393 0.951 . S
C379 C378 1.402 1_556 S
C379 C380 1.375 . S
C379 C382 1.481 . S
C380 C379 1.375 . S
C380 C381 1.367 . S
C380 H394 0.951 . S
C381 C377 1.383 . S
C381 C380 1.367 . S
C381 H395 0.950 . S
C382 C379 1.481 . S
C382 C383 1.297 1_556 S
C382 H396 0.950 . S
C383 C382 1.297 1_554 S
C383 C384 1.479 . S
C383 H397 0.950 . S
C384 C383 1.479 . S
C384 C385 1.375 . S
C384 C390 1.404 1_554 S
C385 C384 1.375 . S
C385 C386 1.369 . S
C385 H398 0.950 . S
C386 C385 1.369 . S
C386 C387 1.392 . S
C386 H399 0.951 . S
C387 C386 1.392 . S
C387 C389 1.384 1_554 S
H388 C390 0.949 . S
C389 C387 1.384 1_556 S
C389 C390 1.385 . S
C389 H391 0.950 . S
C390 C384 1.404 1_556 S
C390 H388 0.949 . S
C390 C389 1.385 . S
H391 C389 0.950 . S
H392 C376 0.951 . S
H393 C378 0.951 . S
H394 C380 0.951 . S
H395 C381 0.950 . S
H396 C382 0.950 . S
H397 C383 0.950 . S
H398 C385 0.950 . S
H399 C386 0.951 . S
C400 C401 1.386 . S
C400 C402 1.383 . S
C400 H416 0.951 . S
C401 C400 1.386 . S
C401 C405 1.383 . S
C402 C400 1.383 . S
C402 C403 1.402 . S
C402 H417 0.951 1_655 S
C403 C402 1.402 . S
C403 C404 1.375 . S
C403 C406 1.481 . S
C404 C403 1.375 . S
C404 C405 1.367 . S
C404 H418 0.951 . S
C405 C401 1.383 . S
C405 C404 1.367 . S
C405 H419 0.950 . S
C406 C403 1.481 . S
C406 C407 1.297 1_655 S
C406 H420 0.950 . S
C407 C406 1.297 1_455 S
C407 C408 1.479 . S
C407 H421 0.950 . S
C408 C407 1.479 . S
C408 C409 1.375 . S
C408 C414 1.404 . S
C409 C408 1.375 . S
C409 C410 1.369 . S
C409 H422 0.950 . S
C410 C409 1.369 . S
C410 C411 1.392 . S
C410 H423 0.951 . S
C411 C410 1.392 . S
C411 C413 1.384 . S
H412 C414 0.949 1_655 S
C413 C411 1.384 . S
C413 C414 1.385 . S
C413 H415 0.950 . S
C414 C408 1.404 . S
C414 H412 0.949 1_455 S
C414 C413 1.385 . S
H415 C413 0.950 . S
H416 C400 0.951 . S
H417 C402 0.951 1_455 S
H418 C404 0.951 . S
H419 C405 0.950 . S
H420 C406 0.950 . S
H421 C407 0.950 . S
H422 C409 0.950 . S
H423 C410 0.951 . S
C424 C425 1.386 . S
C424 C426 1.383 . S
C424 H440 0.951 . S
C425 C424 1.386 . S
C425 C429 1.383 . S
C426 C424 1.383 . S
C426 C427 1.402 . S
C426 H441 0.951 . S
C427 C426 1.402 . S
C427 C428 1.375 . S
C427 C430 1.481 . S
C428 C427 1.375 . S
C428 C429 1.367 . S
C428 H442 0.951 . S
C429 C425 1.383 . S
C429 C428 1.367 . S
C429 H443 0.950 . S
C430 C427 1.481 . S
C430 C431 1.297 . S
C430 H444 0.950 1_545 S
C431 C430 1.297 . S
C431 C432 1.479 1_545 S
C431 H445 0.950 . S
C432 C431 1.479 1_565 S
C432 C433 1.375 . S
C432 C438 1.404 . S
C433 C432 1.375 . S
C433 C434 1.369 . S
C433 H446 0.952 1_565 S
C434 C433 1.369 . S
C434 C435 1.392 . S
C434 H447 0.951 . S
C435 C434 1.392 . S
C435 C437 1.384 . S
H436 C438 0.949 . S
C437 C435 1.384 . S
C437 C438 1.385 . S
C437 H439 0.950 . S
C438 C432 1.404 . S
C438 H436 0.949 . S
C438 C437 1.385 . S
H439 C437 0.950 . S
H440 C424 0.951 . S
H441 C426 0.951 . S
H442 C428 0.951 . S
H443 C429 0.950 . S
H444 C430 0.950 1_565 S
H445 C431 0.950 . S
H446 C433 0.952 1_545 S
H447 C434 0.951 . S
C448 C449 1.386 . S
C448 C450 1.383 . S
C448 H464 0.951 . S
C449 C448 1.386 . S
C449 C453 1.383 . S
C450 C448 1.383 . S
C450 C451 1.402 . S
C450 H465 0.951 . S
C451 C450 1.402 . S
C451 C452 1.375 . S
C451 C454 1.481 . S
C452 C451 1.375 . S
C452 C453 1.367 . S
C452 H466 0.951 1_556 S
C453 C449 1.383 . S
C453 C452 1.367 . S
C453 H467 0.940 1_556 S
C454 C451 1.481 . S
C454 C455 1.297 1_545 S
C454 H468 0.944 1_556 S
C455 C454 1.297 1_565 S
C455 C456 1.479 . S
C455 H469 0.950 . S
C456 C455 1.479 . S
C456 C457 1.375 . S
C456 C462 1.404 1_556 S
C457 C456 1.375 . S
C457 C458 1.369 . S
C457 H470 0.950 . S
C458 C457 1.369 . S
C458 C459 1.392 . S
C458 H471 0.951 . S
C459 C458 1.392 . S
C459 C461 1.384 . S
H460 C462 0.949 . S
C461 C459 1.384 . S
C461 C462 1.385 1_556 S
C461 H463 0.950 1_556 S
C462 C456 1.404 1_554 S
C462 H460 0.949 . S
C462 C461 1.385 1_554 S
H463 C461 0.950 1_554 S
H464 C448 0.951 . S
H465 C450 0.951 . S
H466 C452 0.951 1_554 S
H467 C453 0.940 1_554 S
H468 C454 0.944 1_554 S
H469 C455 0.950 . S
H470 C457 0.950 . S
H471 C458 0.951 . S
C472 C473 1.386 . S
C472 C474 1.383 . S
C472 H488 0.951 . S
C473 C472 1.386 . S
C473 C477 1.383 . S
C474 C472 1.383 . S
C474 C475 1.402 . S
C474 H489 0.951 . S
C475 C474 1.402 . S
C475 C476 1.375 . S
C475 C478 1.481 . S
C476 C475 1.375 . S
C476 C477 1.367 . S
C476 H490 0.951 . S
C477 C473 1.383 . S
C477 C476 1.367 . S
C477 H491 0.950 . S
C478 C475 1.481 . S
C478 C479 1.297 1_455 S
C478 H492 0.950 1_455 S
C479 C478 1.297 1_655 S
C479 C480 1.479 . S
C479 H493 0.950 1_655 S
C480 C479 1.479 . S
C480 C481 1.375 . S
C480 C486 1.404 . S
C481 C480 1.375 . S
C481 C482 1.369 . S
C481 H494 0.950 . S
C482 C481 1.369 . S
C482 C483 1.392 . S
C482 H495 0.951 . S
C483 C482 1.392 . S
C483 C485 1.384 . S
H484 C486 0.949 1_556 S
C485 C483 1.384 . S
C485 C486 1.385 . S
C485 H487 0.950 . S
C486 C480 1.404 . S
C486 H484 0.949 1_554 S
C486 C485 1.385 . S
H487 C485 0.950 . S
H488 C472 0.951 . S
H489 C474 0.951 . S
H490 C476 0.951 . S
H491 C477 0.950 . S
H492 C478 0.950 1_655 S
H493 C479 0.950 1_455 S
H494 C481 0.950 . S
H495 C482 0.951 . S
C113 C98 1.500 . S
C123 C0 1.496 . S
C137 C25 1.575 . S
C147 C67 1.577 . S
C161 C28 1.522 . S
C171 C70 1.529 . S
C185 C95 1.558 . S
C195 C53 1.554 . S
C209 C19 1.454 1_545 S
C219 C11 1.436 . S
C233 C14 1.360 . S
C243 C37 1.394 1_455 S
C257 C47 1.458 1_565 S
C267 C39 1.410 . S
C281 C42 1.362 . S
C291 C9 1.393 1_655 S
C305 C107 1.405 . S
C315 C56 1.340 . S
C329 C81 1.464 . S
C339 C61 1.460 . S
C353 C79 1.410 . S
C363 C84 1.395 . S
C377 C89 1.461 . S
C387 C109 1.412 . S
C401 C33 1.026 . S
C411 C5 1.031 . S
C425 C51 1.015 . S
C435 C23 0.952 . S
C449 C93 0.997 . S
C459 C65 1.008 . S
C473 C103 1.027 . S
C483 C75 1.040 . S
