# Generated by pormake.
# Topology rkf, (6)-cn, num edge types: 1
# Building blocks:
#     Node 0, Type 0, BuildingBlock: INOVEN_clean_sbu_0, # of connection points: 6
#     Node 1, Type 0, BuildingBlock: INOVEN_clean_sbu_0, # of connection points: 6
#     Node 2, Type 0, BuildingBlock: INOVEN_clean_sbu_0, # of connection points: 6
#     Node 3, Type 0, BuildingBlock: INOVEN_clean_sbu_0, # of connection points: 6
#     Node 4, Type 0, BuildingBlock: INOVEN_clean_sbu_0, # of connection points: 6
#     Node 5, Type 0, BuildingBlock: INOVEN_clean_sbu_0, # of connection points: 6
#     Edge 6, Type (0, 0), BuildingBlock: OJICUG_clean_linker_0, # of connection points: 2
#     Edge 7, Type (0, 0), BuildingBlock: OJICUG_clean_linker_0, # of connection points: 2
#     Edge 8, Type (0, 0), BuildingBlock: OJICUG_clean_linker_0, # of connection points: 2
#     Edge 9, Type (0, 0), BuildingBlock: OJICUG_clean_linker_0, # of connection points: 2
#     Edge 10, Type (0, 0), BuildingBlock: OJICUG_clean_linker_0, # of connection points: 2
#     Edge 11, Type (0, 0), BuildingBlock: OJICUG_clean_linker_0, # of connection points: 2
#     Edge 12, Type (0, 0), BuildingBlock: OJICUG_clean_linker_0, # of connection points: 2
#     Edge 13, Type (0, 0), BuildingBlock: OJICUG_clean_linker_0, # of connection points: 2
#     Edge 14, Type (0, 0), BuildingBlock: OJICUG_clean_linker_0, # of connection points: 2
#     Edge 15, Type (0, 0), BuildingBlock: OJICUG_clean_linker_0, # of connection points: 2
#     Edge 16, Type (0, 0), BuildingBlock: OJICUG_clean_linker_0, # of connection points: 2
#     Edge 17, Type (0, 0), BuildingBlock: OJICUG_clean_linker_0, # of connection points: 2
#     Edge 18, Type (0, 0), BuildingBlock: OJICUG_clean_linker_0, # of connection points: 2
#     Edge 19, Type (0, 0), BuildingBlock: OJICUG_clean_linker_0, # of connection points: 2
#     Edge 20, Type (0, 0), BuildingBlock: OJICUG_clean_linker_0, # of connection points: 2
#     Edge 21, Type (0, 0), BuildingBlock: OJICUG_clean_linker_0, # of connection points: 2
#     Edge 22, Type (0, 0), BuildingBlock: OJICUG_clean_linker_0, # of connection points: 2
#     Edge 23, Type (0, 0), BuildingBlock: OJICUG_clean_linker_0, # of connection points: 2
# Relax obj value: 0.999
# Max RMSD: 0.254
# Mean RMSD: 0.254
data_MOF--net-rkf--node1-INOVEN_clean_sbu_0--edge1-OJICUG_clean_linker_0
_symmetry_space_group_name_H-M    P1
_symmetry_Int_Tables_number       1
_symmetry_cell_setting            triclinic
loop_
_symmetry_equiv_pos_as_xyz
'x, y, z'
_cell_length_a     19.790226
_cell_length_b     19.407661
_cell_length_c     31.327598
_cell_angle_alpha  89.626768
_cell_angle_beta   90.703615
_cell_angle_gamma 120.58111
loop_
_atom_site_label
_atom_site_type_symbol
_atom_site_fract_x
_atom_site_fract_y
_atom_site_fract_z
_atom_type_partial_charge
Gd0 Gd 0.33605 0.01634 0.25812 0.0
Gd1 Gd 0.40923 0.18101 1.22228 0.0
C2 C 0.38647 0.15501 0.32641 0.0
C3 C 0.31216 0.87349 0.26919 0.0
C4 C 0.29213 0.80973 0.30028 0.0
C5 C 0.31141 0.82682 0.34355 0.0
C6 C 0.24562 0.73011 0.2868 0.0
C7 C 0.22323 0.6866 0.36051 0.0
C8 C 0.2112 0.66866 0.31679 0.0
C9 C 0.27771 0.7653 0.37353 0.0
C10 C 0.24233 0.07791 0.26368 0.0
C11 C 0.3087 0.04015 1.15638 0.0
C12 C 0.46801 0.33101 1.2045 0.0
C13 C 0.4542 0.39699 1.21239 0.0
C14 C 0.50572 0.47137 1.19442 0.0
C15 C 0.38557 0.38441 1.23209 0.0
C16 C 0.41244 0.51527 1.20727 0.0
C17 C 0.36513 0.44363 1.22989 0.0
C18 C 0.48548 0.53027 1.19205 0.0
C19 C 0.49933 0.11274 1.21863 0.0
O20 O 0.37017 0.08003 0.32184 0.0
O21 O 0.39525 0.20064 0.29272 0.0
O22 O 0.25631 0.88846 0.25964 0.0
O23 O 0.38148 0.93816 0.27265 0.0
O24 O 0.24094 0.02644 0.29121 0.0
O25 O 0.28673 0.08754 1.23276 0.0
O26 O 0.33649 0.11697 1.16395 0.0
O27 O 0.31188 -0.00642 1.18646 0.0
O28 O 0.41533 0.27299 1.18074 0.0
O29 O 0.49192 0.30578 1.23678 0.0
O30 O 0.49464 0.15542 1.18827 0.0
O31 O 0.45861 0.11088 1.24946 0.0
H32 H 0.34764 0.88805 0.3544 0.0
H33 H 0.23106 0.71615 0.25329 0.0
H34 H 0.16918 0.60861 0.30608 0.0
H35 H 0.28724 0.78103 0.40708 0.0
H36 H 0.55862 0.48147 1.17897 0.0
H37 H 0.34539 0.32707 1.24645 0.0
H38 H 0.3093 0.43059 1.24277 0.0
H39 H 0.52361 0.58384 1.17409 0.0
Gd40 Gd 0.39451 0.3294 0.59088 0.0
Gd41 Gd 0.2513 0.32411 0.54882 0.0
C42 C 0.28102 0.35311 0.65363 0.0
C43 C 0.5357 0.36918 0.61379 0.0
C44 C 0.58023 0.39798 0.65394 0.0
C45 C 0.55421 0.42909 0.68577 0.0
C46 C 0.6412 0.38325 0.66314 0.0
C47 C 0.63612 0.41176 0.73827 0.0
C48 C 0.66972 0.391 0.705 0.0
C49 C 0.58211 0.43628 0.72754 0.0
C50 C 0.25921 0.18671 0.59132 0.0
C51 C 0.35508 0.28264 0.48846 0.0
C52 C 0.10921 0.28603 0.52998 0.0
C53 C 0.04476 0.29968 0.53967 0.0
C54 C 0.05772 0.37503 0.55146 0.0
C55 C -0.03194 0.23648 0.53291 0.0
C56 C 0.91939 0.3286 0.53808 0.0
C57 C 0.90576 0.25058 0.53221 0.0
C58 C -0.00499 0.38911 0.5513 0.0
C59 C 0.38452 0.46783 0.54879 0.0
O60 O 0.35226 0.36334 0.64972 0.0
O61 O 0.23275 0.33396 0.62011 0.0
O62 O 0.47637 0.29549 0.61505 0.0
O63 O 0.51838 0.41837 0.59441 0.0
O64 O 0.30849 0.21163 0.6234 0.0
O65 O 0.28634 0.2366 0.56164 0.0
O66 O 0.28343 0.26911 0.49525 0.0
O67 O 0.41019 0.31477 0.51892 0.0
O68 O 0.12681 0.24948 0.55926 0.0
O69 O 0.17055 0.34284 0.51018 0.0
O70 O 0.3345 0.4431 0.51721 0.0
O71 O 0.35932 0.41801 0.57872 0.0
H72 H 0.50753 0.44145 0.67916 0.0
H73 H 0.66257 0.36001 0.63872 0.0
H74 H 0.7126 0.37341 0.7119 0.0
H75 H 0.55431 0.45237 0.75193 0.0
H76 H 0.11663 0.42406 0.55794 0.0
H77 H -0.04298 0.1774 0.52467 0.0
H78 H 0.84891 0.20195 0.5221 0.0
H79 H 0.00729 0.44934 0.55729 0.0
Gd80 Gd 0.17295 0.42347 0.92343 0.0
Gd81 Gd 0.01621 0.29434 0.88634 0.0
C82 C 0.03651 0.32088 0.99061 0.0
C83 C 0.28962 0.56038 0.94574 0.0
C84 C 0.30636 0.60321 0.98661 0.0
C85 C 0.3822 0.6392 1.00406 0.0
C86 C 0.24451 0.59508 1.01189 0.0
C87 C 0.33074 0.64044 1.07413 0.0
C88 C 0.25681 0.61439 1.05524 0.0
C89 C 0.39445 0.65795 1.04748 0.0
C90 C 0.14577 0.27372 0.92872 0.0
C91 C 0.16087 0.3699 0.82156 0.0
C92 C 0.8864 0.16338 0.87024 0.0
C93 C 0.80211 0.1199 0.87928 0.0
C94 C 0.75937 0.15927 0.88242 0.0
C95 C 0.76212 0.03635 0.87798 0.0
C96 C 0.63814 0.03301 0.86937 0.0
C97 C 0.68075 -0.00696 0.87331 0.0
C98 C 0.67752 0.11578 0.87814 0.0
C99 C 0.03916 0.44414 0.88634 0.0
O100 O 0.10394 0.38882 0.98513 0.0
O101 O -0.0039 0.27516 0.95774 0.0
O102 O 0.29207 0.49415 0.94742 0.0
O103 O 0.22929 0.55271 0.92381 0.0
O104 O 0.18516 0.3273 0.95792 0.0
O105 O 0.12953 0.3043 0.89766 0.0
O106 O 0.09098 0.30742 0.82994 0.0
O107 O 0.20109 0.42521 0.85146 0.0
O108 O 0.93403 0.16976 0.90122 0.0
O109 O 0.91327 0.2278 0.84664 0.0
O110 O 0.00139 0.39266 0.85633 0.0
O111 O 0.05751 0.41209 0.91563 0.0
H112 H 0.43062 0.64593 0.98508 0.0
H113 H 0.18531 0.56743 0.99915 0.0
H114 H 0.20682 0.60138 1.07472 0.0
H115 H 0.4522 0.67754 1.06078 0.0
H116 H 0.78941 0.22394 0.88453 0.0
H117 H 0.79429 0.00494 0.8763 0.0
H118 H 0.65344 0.92951 0.86723 0.0
H119 H 0.64635 0.14823 0.87681 0.0
Gd120 Gd 0.89049 0.19031 0.26392 0.0
Gd121 Gd 0.88627 0.04376 1.22718 0.0
C122 C 0.86646 0.05386 0.33115 0.0
C123 C 0.84966 0.29393 0.28093 0.0
C124 C 0.80571 0.30027 0.31647 0.0
C125 C 0.768 0.23632 0.34509 0.0
C126 C 0.81146 0.3735 0.32584 0.0
C127 C 0.76396 0.32573 0.39758 0.0
C128 C 0.78919 0.38575 0.36599 0.0
C129 C 0.74676 0.24871 0.38528 0.0
C130 C 0.02772 0.19356 0.2658 0.0
C131 C 0.93049 0.18728 1.16122 0.0
C132 C 0.9111 0.92819 1.21208 0.0
C133 C 0.88589 0.84655 1.22632 0.0
C134 C 0.80856 0.79387 1.2393 0.0
C135 C 0.93688 0.81759 1.22051 0.0
C136 C 0.82758 0.681 1.22756 0.0
C137 C 0.90824 0.73551 1.22138 0.0
C138 C 0.77976 0.71142 1.24041 0.0
C139 C 0.74755 0.03943 1.22667 0.0
O140 O 0.85689 0.11609 0.32469 0.0
O141 O 0.88259 0.02054 0.29898 0.0
O142 O 0.91839 0.30381 0.29154 0.0
O143 O 0.80931 0.23302 0.25532 0.0
O144 O 0.00647 0.22344 0.29639 0.0
O145 O -0.02198 0.16833 1.23601 0.0
O146 O 0.93257 0.1212 1.16867 0.0
O147 O 0.91262 0.22208 1.19213 0.0
O148 O -0.04521 -0.01347 1.23846 0.0
O149 O 0.85869 0.93808 1.19142 0.0
O150 O 0.76879 0.00937 1.19642 0.0
O151 O 0.79811 0.06518 0.2561 0.0
H152 H 0.76202 0.1789 0.33806 0.0
H153 H 0.83919 0.42311 0.30365 0.0
H154 H 0.8009 0.44509 0.37398 0.0
H155 H 0.72688 0.20046 0.40824 0.0
H156 H 0.76875 0.81564 1.24498 0.0
H157 H -0.00281 0.85774 1.21121 0.0
H158 H -0.05231 0.71539 1.2117 0.0
H159 H 0.71799 0.67137 1.24661 0.0
Gd160 Gd 0.76791 0.89721 0.59963 0.0
Gd161 Gd 0.8562 0.81315 0.57666 0.0
C162 C 0.81933 0.82197 0.67749 0.0
C163 C 0.657 0.92477 0.61815 0.0
C164 C 0.5981 0.90261 0.65143 0.0
C165 C 0.59883 0.85994 0.68743 0.0
C166 C 0.54628 0.9317 0.64948 0.0
C167 C 0.51093 0.89333 0.72358 0.0
C168 C 0.50217 0.9263 0.6852 0.0
C169 C 0.55538 0.85506 0.72323 0.0
C170 C 0.92453 -0.00831 0.59511 0.0
C171 C 0.83068 0.91458 0.50273 0.0
C172 C -0.05219 0.75527 0.57516 0.0
C173 C -0.02623 0.71252 0.54812 0.0
C174 C 0.92291 0.65515 0.5186 0.0
C175 C 0.05135 0.73017 0.55192 0.0
C176 C 0.02985 0.63839 0.49381 0.0
C177 C 0.07932 0.69374 0.525 0.0
C178 C -0.04938 0.61818 0.4918 0.0
C179 C 0.70166 0.73172 0.55716 0.0
O180 O 0.78541 0.86389 0.66711 0.0
O181 O 0.84819 0.79585 0.64814 0.0
O182 O 0.73021 -0.02906 0.63052 0.0
O183 O 0.64695 0.86708 0.59258 0.0
O184 O 0.87672 0.01501 0.58196 0.0
O185 O 0.88774 0.92295 0.61069 0.0
O186 O 0.8771 0.8879 0.51648 0.0
O187 O 0.77571 0.91196 0.52763 0.0
O188 O 0.87497 0.71472 0.58795 0.0
O189 O -0.02909 0.82946 0.56443 0.0
O190 O 0.7549 0.73258 0.533 0.0
O191 O 0.73289 0.77122 0.59065 0.0
H192 H 0.63765 0.83592 0.6891 0.0
H193 H 0.54408 0.96358 0.62146 0.0
H194 H 0.46742 0.955 0.68412 0.0
H195 H 0.56408 0.82919 0.752 0.0
H196 H 0.8624 0.64043 0.51549 0.0
H197 H 0.09114 0.77423 0.57483 0.0
H198 H 0.14109 0.71314 0.52717 0.0
H199 H 0.91033 0.5763 0.46849 0.0
Gd200 Gd -0.01576 0.78706 0.94091 0.0
Gd201 Gd 0.12372 0.91795 0.89184 0.0
C202 C 0.13839 0.9012 0.99602 0.0
C203 C 0.87187 0.64889 0.96595 0.0
C204 C 0.85279 0.59977 1.0046 0.0
C205 C 0.77512 0.53926 1.01194 0.0
C206 C 0.90982 0.61909 1.03647 0.0
C207 C 0.80838 0.53004 1.08601 0.0
C208 C 0.88793 0.58421 1.07678 0.0
C209 C 0.75306 0.50409 1.05234 0.0
C210 C 0.00194 0.9334 0.94337 0.0
C211 C -0.0367 0.82635 0.83948 0.0
C212 C 0.24168 0.05018 0.86534 0.0
C213 C 0.32167 0.11411 0.8767 0.0
C214 C 0.38207 0.09823 0.88594 0.0
C215 C 0.3399 0.19353 0.87224 0.0
C216 C 0.47937 0.23893 0.87463 0.0
C217 C 0.4179 0.25545 0.87135 0.0
C218 C 0.46046 0.16048 0.88541 0.0
C219 C 0.10502 0.77023 0.88897 0.0
O220 O 0.07266 0.83022 0.9955 0.0
O221 O 0.16486 0.94556 0.96102 0.0
O222 O 0.87054 0.71533 0.97004 0.0
O223 O 0.93233 0.65846 0.94439 0.0
O224 O -0.02221 0.88586 0.97633 0.0
O225 O 0.01099 0.89943 0.91202 0.0
O226 O 0.03146 0.89376 0.84247 0.0
O227 O 0.93758 0.77293 0.87119 0.0
O228 O 0.18413 0.04708 0.88697 0.0
O229 O 0.23075 -0.02035 0.85557 0.0
O230 O 0.12661 0.81819 0.85637 0.0
O231 O 0.09732 0.80369 0.92126 0.0
H232 H 0.73055 0.5231 0.98736 0.0
H233 H -0.02976 0.66543 1.03119 0.0
H234 H 0.9324 0.60653 1.10173 0.0
H235 H 0.6916 0.4619 1.05818 0.0
H236 H 0.36928 0.03739 0.89048 0.0
H237 H 0.29401 0.20715 0.86567 0.0
H238 H 0.42914 0.31459 0.86308 0.0
H239 H 0.50618 0.14582 0.88932 0.0
C240 C 0.12875 0.17686 1.2298 0.0
C241 C 0.09134 0.17567 0.26777 0.0
H242 H 0.20711 0.14804 1.19903 0.0
C243 C 0.10733 0.14654 0.30532 0.0
H244 H 0.11668 0.19863 1.20042 0.0
C245 C 0.15739 0.11525 0.30426 0.0
C246 C 0.19295 0.11436 0.26585 0.0
H247 H 0.07798 0.14397 0.33477 0.0
H248 H 0.16728 0.09067 0.33322 0.0
C249 C 0.18 0.14753 1.22897 0.0
C250 C 0.0492 0.06193 0.55542 0.0
C251 C 0.01025 0.03886 0.59439 0.0
H252 H 0.15993 0.12286 0.52414 0.0
C253 C 0.05372 0.05555 0.63262 0.0
H254 H 0.01647 0.04748 0.52561 0.0
C255 C 0.13586 0.10026 0.63203 0.0
C256 C 0.17497 0.12656 0.59303 0.0
H257 H 0.02404 0.03612 0.66296 0.0
H258 H 0.16835 0.11685 0.66194 0.0
C259 C 0.13104 0.104 0.55471 0.0
C260 C 0.06627 0.06837 0.97866 0.0
C261 C 0.03093 0.01954 0.94278 0.0
H262 H 0.13251 0.18918 1.00226 0.0
C263 C 0.03284 0.05473 0.90326 0.0
H264 H 0.06643 0.04223 1.00929 0.0
C265 C 0.07149 0.13729 0.89906 0.0
C266 C 0.10845 0.18673 0.93439 0.0
H267 H 0.00622 0.01824 0.87511 0.0
H268 H 0.0727 0.1624 0.86789 0.0
C269 C 0.10512 0.15197 0.97445 0.0
C270 C 0.30189 0.52192 1.1727 0.0
C271 C 0.37882 0.5629 1.18941 0.0
H272 H 0.22545 0.51572 1.12274 0.0
C273 C 0.4285 0.64332 1.17739 0.0
H274 H 0.26096 0.46046 1.18142 0.0
C275 C 0.40813 0.67522 1.14277 0.0
C276 C 0.33729 0.62746 1.12044 0.0
H277 H 0.48695 0.67804 1.19103 0.0
H278 H 0.45143 0.73336 1.13051 0.0
C279 C 0.28125 0.55404 1.13853 0.0
C280 C 0.89615 0.41633 0.49001 0.0
C281 C 0.86419 0.34986 0.51741 0.0
H282 H 0.8881 0.46087 0.42957 0.0
C283 C 0.78386 0.2923 0.51279 0.0
H284 H -0.04285 0.46264 0.49256 0.0
C285 C 0.74296 0.29146 0.47578 0.0
C286 C 0.78227 0.34826 0.44339 0.0
H287 H 0.75605 0.24197 0.53449 0.0
H288 H 0.6849 0.24043 0.46998 0.0
C289 C 0.85568 0.41537 0.45324 0.0
C290 C 0.55954 0.0395 0.80886 0.0
C291 C 0.56477 -0.0051 0.84298 0.0
H292 H 0.53394 0.04035 0.74308 0.0
C293 C 0.5173 0.91091 0.8412 0.0
H294 H 0.5942 0.10403 0.80861 0.0
C295 C 0.48411 0.87344 0.80218 0.0
C296 C 0.49697 0.92005 0.76526 0.0
H297 H 0.51636 0.87441 0.86774 0.0
H298 H 0.45911 0.80931 0.79969 0.0
C299 C 0.52497 0.00216 0.77036 0.0
C300 C 0.83669 0.5634 1.20253 0.0
C301 C 0.79206 0.60079 1.20697 0.0
H302 H 0.87604 0.50735 1.15867 0.0
C303 C 0.7286 0.57852 1.1786 0.0
H304 H 0.88335 0.57555 1.22512 0.0
C305 C 0.72378 0.53866 1.14084 0.0
C306 C 0.78264 0.52119 1.13114 0.0
H307 H 0.69093 0.60361 1.1813 0.0
H308 H 0.68241 0.53486 1.11669 0.0
C309 C 0.83244 0.52414 1.16442 0.0
C310 C 0.1348 0.61345 0.46675 0.0
C311 C 0.06466 0.61402 0.45943 0.0
H312 H 0.2433 0.63662 0.43955 0.0
C313 C 0.03764 0.60828 0.41714 0.0
H314 H 0.15534 0.61306 0.49889 0.0
C315 C 0.086 0.61677 0.38329 0.0
C316 C 0.16298 0.63402 0.39126 0.0
H317 H -0.01623 0.6075 0.40966 0.0
H318 H 0.06737 0.62248 0.35144 0.0
C319 C 0.18464 0.62516 0.43281 0.0
C320 C 0.58325 0.37816 0.8531 0.0
C321 C 0.55591 0.29555 0.85441 0.0
H322 H 0.63506 0.48372 0.81429 0.0
C323 C 0.58669 0.26458 0.82501 0.0
H324 H 0.564 0.40519 0.8765 0.0
C325 C 0.62755 0.30942 0.78955 0.0
C326 C 0.63796 0.38596 0.78297 0.0
H327 H 0.56855 0.20194 0.82518 0.0
H328 H 0.63899 0.27869 0.76448 0.0
C329 C 0.62412 0.42327 0.8174 0.0
C330 C 0.59033 0.07768 1.18311 0.0
C331 C 0.55877 0.08819 1.22075 0.0
H332 H 0.67389 0.05196 1.15553 0.0
C333 C 0.58697 0.07843 0.26036 0.0
H334 H 0.56942 0.08471 1.1522 0.0
C335 C 0.64771 0.06139 0.26224 0.0
C336 C 0.67995 0.05192 1.22459 0.0
H337 H 0.5638 0.08641 0.28987 0.0
H338 H 0.6699 0.05619 0.29314 0.0
C339 C 0.64975 0.05867 1.18501 0.0
C340 C 0.49567 0.57775 0.58879 0.0
C341 C 0.46224 0.54109 0.54953 0.0
H342 H 0.59708 0.66871 0.62169 0.0
C343 C 0.50601 0.57135 0.51209 0.0
H344 H 0.4629 0.55528 0.61809 0.0
C345 C 0.5838 0.63499 0.51428 0.0
C346 C 0.61775 0.67041 0.55376 0.0
H347 H 0.48139 0.54351 0.48152 0.0
H348 H 0.61783 0.65555 0.4853 0.0
C349 C 0.57231 0.64263 0.59081 0.0
C350 C 0.05728 0.56645 0.84878 0.0
C351 C 0.05568 0.52739 0.88698 0.0
H352 H 0.07576 0.67491 0.81945 0.0
C353 C 0.07063 0.56874 0.92578 0.0
H354 H 0.04612 0.53585 0.81844 0.0
C355 C 0.08643 0.64767 0.92643 0.0
C356 C 0.08885 0.68708 0.88819 0.0
H357 H 0.06906 0.53965 0.95568 0.0
H358 H 0.09711 0.678 0.95683 0.0
C359 C 0.07457 0.64596 0.84934 0.0
C360 C 0.32698 0.13701 0.39936 0.0
C361 C 0.38454 0.18624 0.36974 0.0
H362 H 0.27176 0.12956 0.45931 0.0
C363 C 0.43525 0.26738 0.38053 0.0
H364 H 0.28617 0.07473 0.39192 0.0
C365 C 0.42851 0.29834 0.41988 0.0
C366 C 0.36892 0.24962 0.44865 0.0
H367 H 0.47983 0.30714 0.35832 0.0
H368 H 0.46787 0.36106 0.42705 0.0
C369 C 0.31846 0.16859 0.43789 0.0
C370 C 0.30446 0.40109 0.73128 0.0
C371 C 0.25273 0.36203 0.69658 0.0
H372 H 0.31709 0.43642 0.79754 0.0
C373 C 0.17192 0.32969 0.7034 0.0
H374 H 0.36709 0.42691 0.72742 0.0
C375 C 0.14349 0.33424 0.74351 0.0
C376 C 0.19464 0.37265 0.77833 0.0
H377 H 0.12989 0.29892 0.67785 0.0
H378 H 0.08064 0.3069 0.74728 0.0
C379 C 0.27585 0.40709 0.7715 0.0
C380 C -0.0399 0.20659 1.04102 0.0
C381 C 0.00713 0.28977 1.0346 0.0
H382 H 0.90033 0.11004 1.08538 0.0
C383 C 0.02664 0.34017 1.0705 0.0
H384 H -0.05558 0.16556 1.01445 0.0
C385 C -0.00077 0.30782 1.11157 0.0
C386 C -0.04617 0.22431 1.11779 0.0
H387 H 0.06297 0.40444 1.06687 0.0
H388 H 0.01578 0.34794 1.1386 0.0
C389 C 0.93483 0.17449 1.08188 0.0
C390 C 0.88775 -0.03177 0.38515 0.0
C391 C 0.85807 0.01907 0.37527 0.0
H392 H 0.90381 0.89672 0.43253 0.0
C393 C 0.8204 0.03579 0.40802 0.0
H394 H 0.91769 0.95421 0.36104 0.0
C395 C 0.81136 0.00161 0.44894 0.0
C396 C 0.84095 0.95071 0.45883 0.0
H397 H 0.79687 0.0746 0.40194 0.0
H398 H 0.78156 0.01581 0.47304 0.0
C399 C 0.88003 0.93528 0.42634 0.0
C400 C 0.84552 0.74867 0.73612 0.0
C401 C 0.83895 0.8147 0.72284 0.0
H402 H 0.88779 0.69915 0.78411 0.0
C403 C 0.86535 0.87987 0.75083 0.0
H404 H 0.82636 0.69776 0.71512 0.0
C405 C 0.90261 0.88153 0.78958 0.0
C406 C 0.91232 0.81713 0.80198 0.0
H407 H 0.86245 0.93213 0.74142 0.0
H408 H 0.9264 0.93466 0.80929 0.0
C409 C 0.88074 0.74934 0.77558 0.0
C410 C 0.17303 0.88684 1.07277 0.0
C411 C 0.18318 0.93527 1.03697 0.0
H412 H 0.2054 0.88127 1.13792 0.0
C413 C 0.23635 0.0183 1.04072 0.0
H414 H 0.13272 0.82284 1.07123 0.0
C415 C 0.27719 0.05202 1.07912 0.0
C416 C 0.26742 0.00375 1.11488 0.0
H417 H 0.24553 0.05792 1.01409 0.0
H418 H 0.31655 0.11619 1.08074 0.0
C419 C 0.21514 0.9205 1.11102 0.0
loop_
_geom_bond_atom_site_label_1
_geom_bond_atom_site_label_2
_geom_bond_distance
_geom_bond_site_symmetry_2
_ccdc_geom_bond_type
Gd0 C3 2.818 . S
Gd0 O20 2.377 . S
Gd0 O22 2.448 . S
Gd0 O23 2.506 . S
Gd0 O24 2.435 . S
Gd0 O25 2.717 . S
Gd0 O27 2.395 1_554 S
Gd0 O31 2.327 . S
Gd1 C12 2.818 . S
Gd1 O21 2.395 1_556 S
Gd1 O25 2.327 1_556 S
Gd1 O26 2.377 . S
Gd1 O28 2.448 . S
Gd1 O29 2.506 . S
Gd1 O30 2.435 . S
Gd1 O31 2.717 1_556 S
C2 O20 1.240 . S
C2 O21 1.240 . S
C3 Gd0 2.818 . S
C3 C4 1.510 . S
C3 O22 1.249 . S
C3 O23 1.252 . S
C4 C3 1.510 . S
C4 C5 1.404 . S
C4 C6 1.352 . S
C5 C4 1.404 . S
C5 C9 1.389 1_545 S
C5 H32 0.930 1_545 S
C6 C4 1.352 . S
C6 C8 1.374 . S
C6 H33 0.931 . S
C7 C8 1.359 . S
C7 C9 1.364 1_545 S
C8 C6 1.374 . S
C8 C7 1.359 . S
C8 H34 0.931 . S
C9 C5 1.389 1_565 S
C9 C7 1.364 1_565 S
C9 H35 0.931 . S
C10 O24 1.256 . S
C10 O25 1.257 . S
C11 O26 1.240 . S
C11 O27 1.240 . S
C12 Gd1 2.818 . S
C12 C13 1.510 . S
C12 O28 1.249 . S
C12 O29 1.252 . S
C13 C12 1.510 . S
C13 C14 1.404 . S
C13 C15 1.352 . S
C14 C13 1.404 . S
C14 C18 1.389 . S
C14 H36 0.930 . S
C15 C13 1.352 . S
C15 C17 1.374 . S
C15 H37 0.931 . S
C16 C17 1.359 . S
C16 C18 1.364 . S
C17 C15 1.374 . S
C17 C16 1.359 . S
C17 H38 0.931 . S
C18 C14 1.389 . S
C18 C16 1.364 . S
C18 H39 0.931 . S
C19 O30 1.256 1_554 S
C19 O31 1.257 . S
O20 Gd0 2.377 . S
O20 C2 1.240 . S
O21 Gd1 2.395 1_554 S
O21 C2 1.240 . S
O22 Gd0 2.448 . S
O22 C3 1.249 . S
O23 Gd0 2.506 . S
O23 C3 1.252 . S
O24 Gd0 2.435 . S
O24 C10 1.256 . S
O25 Gd0 2.717 . S
O25 Gd1 2.327 1_554 S
O25 C10 1.257 . S
O26 Gd1 2.377 . S
O26 C11 1.240 . S
O27 Gd0 2.395 1_556 S
O27 C11 1.240 . S
O28 Gd1 2.448 . S
O28 C12 1.249 . S
O29 Gd1 2.506 . S
O29 C12 1.252 . S
O30 Gd1 2.435 . S
O30 C19 1.256 1_556 S
O31 Gd0 2.327 . S
O31 Gd1 2.717 1_554 S
O31 C19 1.257 . S
H32 C5 0.930 1_565 S
H33 C6 0.931 . S
H34 C8 0.931 . S
H35 C9 0.931 . S
H36 C14 0.930 . S
H37 C15 0.931 . S
H38 C17 0.931 . S
H39 C18 0.931 . S
Gd40 C43 2.818 . S
Gd40 O60 2.377 . S
Gd40 O62 2.448 . S
Gd40 O63 2.506 . S
Gd40 O64 2.435 . S
Gd40 O65 2.717 . S
Gd40 O67 2.395 . S
Gd40 O71 2.327 . S
Gd41 C52 2.818 . S
Gd41 O61 2.395 . S
Gd41 O65 2.327 . S
Gd41 O66 2.377 . S
Gd41 O68 2.448 . S
Gd41 O69 2.506 . S
Gd41 O70 2.435 . S
Gd41 O71 2.717 . S
C42 O60 1.240 . S
C42 O61 1.240 . S
C43 Gd40 2.818 . S
C43 C44 1.510 . S
C43 O62 1.249 . S
C43 O63 1.252 . S
C44 C43 1.510 . S
C44 C45 1.404 . S
C44 C46 1.352 . S
C45 C44 1.404 . S
C45 C49 1.389 . S
C45 H72 0.930 . S
C46 C44 1.352 . S
C46 C48 1.374 . S
C46 H73 0.931 . S
C47 C48 1.359 . S
C47 C49 1.364 . S
C48 C46 1.374 . S
C48 C47 1.359 . S
C48 H74 0.931 . S
C49 C45 1.389 . S
C49 C47 1.364 . S
C49 H75 0.931 . S
C50 O64 1.256 . S
C50 O65 1.257 . S
C51 O66 1.240 . S
C51 O67 1.240 . S
C52 Gd41 2.818 . S
C52 C53 1.510 . S
C52 O68 1.249 . S
C52 O69 1.252 . S
C53 C52 1.510 . S
C53 C54 1.404 . S
C53 C55 1.352 . S
C54 C53 1.404 . S
C54 C58 1.389 . S
C54 H76 0.930 . S
C55 C53 1.352 . S
C55 C57 1.374 . S
C55 H77 0.931 . S
C56 C57 1.359 . S
C56 C58 1.364 . S
C57 C55 1.374 . S
C57 C56 1.359 . S
C57 H78 0.931 . S
C58 C54 1.389 . S
C58 C56 1.364 . S
C58 H79 0.931 . S
C59 O70 1.256 . S
C59 O71 1.257 . S
O60 Gd40 2.377 . S
O60 C42 1.240 . S
O61 Gd41 2.395 . S
O61 C42 1.240 . S
O62 Gd40 2.448 . S
O62 C43 1.249 . S
O63 Gd40 2.506 . S
O63 C43 1.252 . S
O64 Gd40 2.435 . S
O64 C50 1.256 . S
O65 Gd40 2.717 . S
O65 Gd41 2.327 . S
O65 C50 1.257 . S
O66 Gd41 2.377 . S
O66 C51 1.240 . S
O67 Gd40 2.395 . S
O67 C51 1.240 . S
O68 Gd41 2.448 . S
O68 C52 1.249 . S
O69 Gd41 2.506 . S
O69 C52 1.252 . S
O70 Gd41 2.435 . S
O70 C59 1.256 . S
O71 Gd40 2.327 . S
O71 Gd41 2.717 . S
O71 C59 1.257 . S
H72 C45 0.930 . S
H73 C46 0.931 . S
H74 C48 0.931 . S
H75 C49 0.931 . S
H76 C54 0.930 . S
H77 C55 0.931 . S
H78 C57 0.931 . S
H79 C58 0.931 . S
Gd80 C83 2.818 . S
Gd80 O100 2.377 . S
Gd80 O102 2.448 . S
Gd80 O103 2.506 . S
Gd80 O104 2.435 . S
Gd80 O105 2.717 . S
Gd80 O107 2.395 . S
Gd80 O111 2.327 . S
Gd81 C92 2.818 . S
Gd81 O101 2.395 . S
Gd81 O105 2.327 1_655 S
Gd81 O106 2.377 1_655 S
Gd81 O108 2.448 . S
Gd81 O109 2.506 . S
Gd81 O110 2.435 . S
Gd81 O111 2.717 1_655 S
C82 O100 1.240 1_655 S
C82 O101 1.240 . S
C83 Gd80 2.818 . S
C83 C84 1.510 . S
C83 O102 1.249 . S
C83 O103 1.252 . S
C84 C83 1.510 . S
C84 C85 1.404 . S
C84 C86 1.352 . S
C85 C84 1.404 . S
C85 C89 1.389 . S
C85 H112 0.930 . S
C86 C84 1.352 . S
C86 C88 1.374 . S
C86 H113 0.931 . S
C87 C88 1.359 . S
C87 C89 1.364 . S
C88 C86 1.374 . S
C88 C87 1.359 . S
C88 H114 0.931 . S
C89 C85 1.389 . S
C89 C87 1.364 . S
C89 H115 0.931 . S
C90 O104 1.256 . S
C90 O105 1.257 . S
C91 O106 1.240 . S
C91 O107 1.240 . S
C92 Gd81 2.818 . S
C92 C93 1.510 . S
C92 O108 1.249 . S
C92 O109 1.252 . S
C93 C92 1.510 . S
C93 C94 1.404 . S
C93 C95 1.352 . S
C94 C93 1.404 . S
C94 C98 1.389 . S
C94 H116 0.930 . S
C95 C93 1.352 . S
C95 C97 1.374 . S
C95 H117 0.931 . S
C96 C97 1.359 . S
C96 C98 1.364 . S
C97 C95 1.374 . S
C97 C96 1.359 . S
C97 H118 0.931 . S
C98 C94 1.389 . S
C98 C96 1.364 . S
C98 H119 0.931 . S
C99 O110 1.256 . S
C99 O111 1.257 1_655 S
O100 Gd80 2.377 . S
O100 C82 1.240 1_455 S
O101 Gd81 2.395 . S
O101 C82 1.240 . S
O102 Gd80 2.448 . S
O102 C83 1.249 . S
O103 Gd80 2.506 . S
O103 C83 1.252 . S
O104 Gd80 2.435 . S
O104 C90 1.256 . S
O105 Gd80 2.717 . S
O105 Gd81 2.327 1_455 S
O105 C90 1.257 . S
O106 Gd81 2.377 1_455 S
O106 C91 1.240 . S
O107 Gd80 2.395 . S
O107 C91 1.240 . S
O108 Gd81 2.448 . S
O108 C92 1.249 . S
O109 Gd81 2.506 . S
O109 C92 1.252 . S
O110 Gd81 2.435 . S
O110 C99 1.256 . S
O111 Gd80 2.327 . S
O111 Gd81 2.717 1_455 S
O111 C99 1.257 1_455 S
H112 C85 0.930 . S
H113 C86 0.931 . S
H114 C88 0.931 . S
H115 C89 0.931 . S
H116 C94 0.930 . S
H117 C95 0.931 . S
H118 C97 0.931 . S
H119 C98 0.931 . S
Gd120 C123 2.818 . S
Gd120 O140 2.377 1_545 S
Gd120 O142 2.448 . S
Gd120 O143 2.506 . S
Gd120 O144 2.435 . S
Gd120 O145 2.717 1_545 S
Gd120 O147 2.395 1_554 S
Gd120 O151 2.327 . S
Gd121 C132 2.818 . S
Gd121 O141 2.395 1_556 S
Gd121 O145 2.327 1_556 S
Gd121 O146 2.377 1_565 S
Gd121 O148 2.448 . S
Gd121 O149 2.506 . S
Gd121 O150 2.435 . S
Gd121 O151 2.717 1_566 S
C122 O140 1.240 . S
C122 O141 1.240 . S
C123 Gd120 2.818 . S
C123 C124 1.510 . S
C123 O142 1.249 . S
C123 O143 1.252 . S
C124 C123 1.510 . S
C124 C125 1.404 . S
C124 C126 1.352 . S
C125 C124 1.404 . S
C125 C129 1.389 . S
C125 H152 0.930 1_655 S
C126 C124 1.352 . S
C126 C128 1.374 . S
C126 H153 0.931 . S
C127 C128 1.359 . S
C127 C129 1.364 . S
C128 C126 1.374 . S
C128 C127 1.359 . S
C128 H154 0.931 . S
C129 C125 1.389 . S
C129 C127 1.364 . S
C129 H155 0.931 1_655 S
C130 O144 1.256 . S
C130 O145 1.257 1_545 S
C131 O146 1.240 . S
C131 O147 1.240 . S
C132 Gd121 2.818 . S
C132 C133 1.510 . S
C132 O148 1.249 . S
C132 O149 1.252 . S
C133 C132 1.510 . S
C133 C134 1.404 . S
C133 C135 1.352 . S
C134 C133 1.404 . S
C134 C138 1.389 . S
C134 H156 0.930 . S
C135 C133 1.352 . S
C135 C137 1.374 . S
C135 H157 0.931 . S
C136 C137 1.359 . S
C136 C138 1.364 . S
C137 C135 1.374 . S
C137 C136 1.359 . S
C137 H158 0.931 . S
C138 C134 1.389 . S
C138 C136 1.364 . S
C138 H159 0.931 . S
C139 O150 1.256 1_554 S
C139 O151 1.257 1_565 S
O140 Gd120 2.377 1_565 S
O140 C122 1.240 . S
O141 Gd121 2.395 1_554 S
O141 C122 1.240 . S
O142 Gd120 2.448 . S
O142 C123 1.249 . S
O143 Gd120 2.506 . S
O143 C123 1.252 . S
O144 Gd120 2.435 . S
O144 C130 1.256 . S
O145 Gd120 2.717 1_565 S
O145 Gd121 2.327 1_554 S
O145 C130 1.257 1_565 S
O146 Gd121 2.377 1_545 S
O146 C131 1.240 . S
O147 Gd120 2.395 1_556 S
O147 C131 1.240 . S
O148 Gd121 2.448 . S
O148 C132 1.249 . S
O149 Gd121 2.506 . S
O149 C132 1.252 . S
O150 Gd121 2.435 . S
O150 C139 1.256 1_556 S
O151 Gd120 2.327 . S
O151 Gd121 2.717 1_544 S
O151 C139 1.257 1_545 S
H152 C125 0.930 1_455 S
H153 C126 0.931 . S
H154 C128 0.931 . S
H155 C129 0.931 1_455 S
H156 C134 0.930 . S
H157 C135 0.931 . S
H158 C137 0.931 . S
H159 C138 0.931 . S
Gd160 C163 2.818 . S
Gd160 O180 2.377 . S
Gd160 O182 2.448 . S
Gd160 O183 2.506 . S
Gd160 O184 2.435 1_655 S
Gd160 O185 2.717 1_655 S
Gd160 O187 2.395 . S
Gd160 O191 2.327 . S
Gd161 C172 2.818 1_655 S
Gd161 O181 2.395 1_655 S
Gd161 O185 2.327 1_655 S
Gd161 O186 2.377 . S
Gd161 O188 2.448 . S
Gd161 O189 2.506 1_655 S
Gd161 O190 2.435 . S
Gd161 O191 2.717 . S
C162 O180 1.240 . S
C162 O181 1.240 1_655 S
C163 Gd160 2.818 . S
C163 C164 1.510 . S
C163 O182 1.249 . S
C163 O183 1.252 . S
C164 C163 1.510 . S
C164 C165 1.404 . S
C164 C166 1.352 . S
C165 C164 1.404 . S
C165 C169 1.389 . S
C165 H192 0.930 . S
C166 C164 1.352 . S
C166 C168 1.374 . S
C166 H193 0.931 . S
C167 C168 1.359 . S
C167 C169 1.364 . S
C168 C166 1.374 . S
C168 C167 1.359 . S
C168 H194 0.931 . S
C169 C165 1.389 . S
C169 C167 1.364 . S
C169 H195 0.931 1_565 S
C170 O184 1.256 . S
C170 O185 1.257 . S
C171 O186 1.240 . S
C171 O187 1.240 . S
C172 Gd161 2.818 1_455 S
C172 C173 1.510 . S
C172 O188 1.249 1_455 S
C172 O189 1.252 . S
C173 C172 1.510 . S
C173 C174 1.404 . S
C173 C175 1.352 . S
C174 C173 1.404 . S
C174 C178 1.389 . S
C174 H196 0.930 . S
C175 C173 1.352 . S
C175 C177 1.374 . S
C175 H197 0.931 . S
C176 C177 1.359 . S
C176 C178 1.364 . S
C177 C175 1.374 . S
C177 C176 1.359 . S
C177 H198 0.931 . S
C178 C174 1.389 . S
C178 C176 1.364 . S
C178 H199 0.931 . S
C179 O190 1.256 . S
C179 O191 1.257 . S
O180 Gd160 2.377 . S
O180 C162 1.240 . S
O181 Gd161 2.395 1_455 S
O181 C162 1.240 1_455 S
O182 Gd160 2.448 . S
O182 C163 1.249 . S
O183 Gd160 2.506 . S
O183 C163 1.252 . S
O184 Gd160 2.435 1_455 S
O184 C170 1.256 . S
O185 Gd160 2.717 1_455 S
O185 Gd161 2.327 1_455 S
O185 C170 1.257 . S
O186 Gd161 2.377 . S
O186 C171 1.240 . S
O187 Gd160 2.395 . S
O187 C171 1.240 . S
O188 Gd161 2.448 . S
O188 C172 1.249 1_655 S
O189 Gd161 2.506 1_455 S
O189 C172 1.252 . S
O190 Gd161 2.435 . S
O190 C179 1.256 . S
O191 Gd160 2.327 . S
O191 Gd161 2.717 . S
O191 C179 1.257 . S
H192 C165 0.930 . S
H193 C166 0.931 . S
H194 C168 0.931 . S
H195 C169 0.931 1_545 S
H196 C174 0.930 . S
H197 C175 0.931 . S
H198 C177 0.931 . S
H199 C178 0.931 . S
Gd200 C203 2.818 . S
Gd200 O220 2.377 . S
Gd200 O222 2.448 . S
Gd200 O223 2.506 . S
Gd200 O224 2.435 1_565 S
Gd200 O225 2.717 1_565 S
Gd200 O227 2.395 . S
Gd200 O231 2.327 . S
Gd201 C212 2.818 1_565 S
Gd201 O221 2.395 . S
Gd201 O225 2.327 1_565 S
Gd201 O226 2.377 . S
Gd201 O228 2.448 . S
Gd201 O229 2.506 1_565 S
Gd201 O230 2.435 . S
Gd201 O231 2.717 . S
C202 O220 1.240 . S
C202 O221 1.240 . S
C203 Gd200 2.818 . S
C203 C204 1.510 . S
C203 O222 1.249 . S
C203 O223 1.252 . S
C204 C203 1.510 . S
C204 C205 1.404 . S
C204 C206 1.352 . S
C205 C204 1.404 . S
C205 C209 1.389 1_455 S
C205 H232 0.930 1_455 S
C206 C204 1.352 . S
C206 C208 1.374 . S
C206 H233 0.931 . S
C207 C208 1.359 . S
C207 C209 1.364 1_455 S
C208 C206 1.374 . S
C208 C207 1.359 . S
C208 H234 0.931 . S
C209 C205 1.389 1_655 S
C209 C207 1.364 1_655 S
C209 H235 0.931 . S
C210 O224 1.256 . S
C210 O225 1.257 . S
C211 O226 1.240 . S
C211 O227 1.240 . S
C212 Gd201 2.818 1_545 S
C212 C213 1.510 . S
C212 O228 1.249 1_545 S
C212 O229 1.252 . S
C213 C212 1.510 . S
C213 C214 1.404 . S
C213 C215 1.352 . S
C214 C213 1.404 . S
C214 C218 1.389 . S
C214 H236 0.930 . S
C215 C213 1.352 . S
C215 C217 1.374 . S
C215 H237 0.931 . S
C216 C217 1.359 . S
C216 C218 1.364 . S
C217 C215 1.374 . S
C217 C216 1.359 . S
C217 H238 0.931 . S
C218 C214 1.389 . S
C218 C216 1.364 . S
C218 H239 0.931 . S
C219 O230 1.256 . S
C219 O231 1.257 . S
O220 Gd200 2.377 . S
O220 C202 1.240 . S
O221 Gd201 2.395 . S
O221 C202 1.240 . S
O222 Gd200 2.448 . S
O222 C203 1.249 . S
O223 Gd200 2.506 . S
O223 C203 1.252 . S
O224 Gd200 2.435 1_545 S
O224 C210 1.256 . S
O225 Gd200 2.717 1_545 S
O225 Gd201 2.327 1_545 S
O225 C210 1.257 . S
O226 Gd201 2.377 . S
O226 C211 1.240 . S
O227 Gd200 2.395 . S
O227 C211 1.240 . S
O228 Gd201 2.448 . S
O228 C212 1.249 1_565 S
O229 Gd201 2.506 1_545 S
O229 C212 1.252 . S
O230 Gd201 2.435 . S
O230 C219 1.256 . S
O231 Gd200 2.327 . S
O231 Gd201 2.717 . S
O231 C219 1.257 . S
H232 C205 0.930 1_655 S
H233 C206 0.931 . S
H234 C208 0.931 . S
H235 C209 0.931 . S
H236 C214 0.930 . S
H237 C215 0.931 . S
H238 C217 0.931 . S
H239 C218 0.931 . S
C240 C241 1.387 1_556 S
C240 H244 0.950 . S
C240 C249 1.390 . S
C241 C240 1.387 1_554 S
C241 C243 1.387 . S
H242 C249 0.950 . S
C243 C241 1.387 . S
C243 C245 1.390 . S
C243 H247 0.950 . S
H244 C240 0.950 . S
C245 C243 1.390 . S
C245 C246 1.387 . S
C245 H248 0.950 . S
C246 C245 1.387 . S
C246 C249 1.387 1_554 S
H247 C243 0.950 . S
H248 C245 0.950 . S
C249 C240 1.390 . S
C249 H242 0.950 . S
C249 C246 1.387 1_556 S
C250 C251 1.387 . S
C250 H254 0.950 . S
C250 C259 1.390 . S
C251 C250 1.387 . S
C251 C253 1.387 . S
H252 C259 0.950 . S
C253 C251 1.387 . S
C253 C255 1.390 . S
C253 H257 0.950 . S
H254 C250 0.950 . S
C255 C253 1.390 . S
C255 C256 1.387 . S
C255 H258 0.950 . S
C256 C255 1.387 . S
C256 C259 1.387 . S
H257 C253 0.950 . S
H258 C255 0.950 . S
C259 C250 1.390 . S
C259 H252 0.950 . S
C259 C256 1.387 . S
C260 C261 1.387 . S
C260 H264 0.950 . S
C260 C269 1.390 . S
C261 C260 1.387 . S
C261 C263 1.387 . S
H262 C269 0.950 . S
C263 C261 1.387 . S
C263 C265 1.390 . S
C263 H267 0.950 . S
H264 C260 0.950 . S
C265 C263 1.390 . S
C265 C266 1.387 . S
C265 H268 0.950 . S
C266 C265 1.387 . S
C266 C269 1.387 . S
H267 C263 0.950 . S
H268 C265 0.950 . S
C269 C260 1.390 . S
C269 H262 0.950 . S
C269 C266 1.387 . S
C270 C271 1.387 . S
C270 H274 0.950 . S
C270 C279 1.390 . S
C271 C270 1.387 . S
C271 C273 1.387 . S
H272 C279 0.950 . S
C273 C271 1.387 . S
C273 C275 1.390 . S
C273 H277 0.950 . S
H274 C270 0.950 . S
C275 C273 1.390 . S
C275 C276 1.387 . S
C275 H278 0.950 . S
C276 C275 1.387 . S
C276 C279 1.387 . S
H277 C273 0.950 . S
H278 C275 0.950 . S
C279 C270 1.390 . S
C279 H272 0.950 . S
C279 C276 1.387 . S
C280 C281 1.387 . S
C280 H284 0.950 . S
C280 C289 1.390 1_455 S
C281 C280 1.387 . S
C281 C283 1.387 . S
H282 C289 0.950 . S
C283 C281 1.387 . S
C283 C285 1.390 1_455 S
C283 H287 0.950 . S
H284 C280 0.950 . S
C285 C283 1.390 1_655 S
C285 C286 1.387 . S
C285 H288 0.950 . S
C286 C285 1.387 . S
C286 C289 1.387 . S
H287 C283 0.950 . S
H288 C285 0.950 . S
C289 C280 1.390 1_655 S
C289 H282 0.950 . S
C289 C286 1.387 . S
C290 C291 1.387 . S
C290 H294 0.950 . S
C290 C299 1.390 1_545 S
C291 C290 1.387 . S
C291 C293 1.387 . S
H292 C299 0.950 . S
C293 C291 1.387 . S
C293 C295 1.390 1_545 S
C293 H297 0.950 . S
H294 C290 0.950 . S
C295 C293 1.390 1_565 S
C295 C296 1.387 . S
C295 H298 0.950 . S
C296 C295 1.387 . S
C296 C299 1.387 . S
H297 C293 0.950 . S
H298 C295 0.950 . S
C299 C290 1.390 1_565 S
C299 H292 0.950 . S
C299 C296 1.387 . S
C300 C301 1.387 . S
C300 H304 0.950 . S
C300 C309 1.390 . S
C301 C300 1.387 . S
C301 C303 1.387 . S
H302 C309 0.950 . S
C303 C301 1.387 . S
C303 C305 1.390 . S
C303 H307 0.950 . S
H304 C300 0.950 . S
C305 C303 1.390 . S
C305 C306 1.387 . S
C305 H308 0.950 . S
C306 C305 1.387 . S
C306 C309 1.387 . S
H307 C303 0.950 . S
H308 C305 0.950 . S
C309 C300 1.390 . S
C309 H302 0.950 . S
C309 C306 1.387 . S
C310 C311 1.387 . S
C310 H314 0.950 . S
C310 C319 1.390 . S
C311 C310 1.387 . S
C311 C313 1.387 . S
H312 C319 0.950 . S
C313 C311 1.387 . S
C313 C315 1.390 . S
C313 H317 0.950 . S
H314 C310 0.950 . S
C315 C313 1.390 . S
C315 C316 1.387 . S
C315 H318 0.950 . S
C316 C315 1.387 . S
C316 C319 1.387 . S
H317 C313 0.950 . S
H318 C315 0.950 . S
C319 C310 1.390 . S
C319 H312 0.950 . S
C319 C316 1.387 . S
C320 C321 1.387 . S
C320 H324 0.950 . S
C320 C329 1.390 . S
C321 C320 1.387 . S
C321 C323 1.387 . S
H322 C329 0.950 . S
C323 C321 1.387 . S
C323 C325 1.390 . S
C323 H327 0.950 . S
H324 C320 0.950 . S
C325 C323 1.390 . S
C325 C326 1.387 . S
C325 H328 0.950 . S
C326 C325 1.387 . S
C326 C329 1.387 . S
H327 C323 0.950 . S
H328 C325 0.950 . S
C329 C320 1.390 . S
C329 H322 0.950 . S
C329 C326 1.387 . S
C330 C331 1.387 1_556 S
C330 H334 0.950 . S
C330 C339 1.390 . S
C331 C330 1.387 1_554 S
C331 C333 1.387 . S
H332 C339 0.950 . S
C333 C331 1.387 . S
C333 C335 1.390 . S
C333 H337 0.950 . S
H334 C330 0.950 . S
C335 C333 1.390 . S
C335 C336 1.387 . S
C335 H338 0.950 . S
C336 C335 1.387 . S
C336 C339 1.387 1_554 S
H337 C333 0.950 . S
H338 C335 0.950 . S
C339 C330 1.390 . S
C339 H332 0.950 . S
C339 C336 1.387 1_556 S
C340 C341 1.387 . S
C340 H344 0.950 . S
C340 C349 1.390 . S
C341 C340 1.387 . S
C341 C343 1.387 . S
H342 C349 0.950 . S
C343 C341 1.387 . S
C343 C345 1.390 . S
C343 H347 0.950 . S
H344 C340 0.950 . S
C345 C343 1.390 . S
C345 C346 1.387 . S
C345 H348 0.950 . S
C346 C345 1.387 . S
C346 C349 1.387 . S
H347 C343 0.950 . S
H348 C345 0.950 . S
C349 C340 1.390 . S
C349 H342 0.950 . S
C349 C346 1.387 . S
C350 C351 1.387 . S
C350 H354 0.950 . S
C350 C359 1.390 . S
C351 C350 1.387 . S
C351 C353 1.387 . S
H352 C359 0.950 . S
C353 C351 1.387 . S
C353 C355 1.390 . S
C353 H357 0.950 . S
H354 C350 0.950 . S
C355 C353 1.390 . S
C355 C356 1.387 . S
C355 H358 0.950 . S
C356 C355 1.387 . S
C356 C359 1.387 . S
H357 C353 0.950 . S
H358 C355 0.950 . S
C359 C350 1.390 . S
C359 H352 0.950 . S
C359 C356 1.387 . S
C360 C361 1.387 . S
C360 H364 0.950 . S
C360 C369 1.390 . S
C361 C360 1.387 . S
C361 C363 1.387 . S
H362 C369 0.950 . S
C363 C361 1.387 . S
C363 C365 1.390 . S
C363 H367 0.950 . S
H364 C360 0.950 . S
C365 C363 1.390 . S
C365 C366 1.387 . S
C365 H368 0.950 . S
C366 C365 1.387 . S
C366 C369 1.387 . S
H367 C363 0.950 . S
H368 C365 0.950 . S
C369 C360 1.390 . S
C369 H362 0.950 . S
C369 C366 1.387 . S
C370 C371 1.387 . S
C370 H374 0.950 . S
C370 C379 1.390 . S
C371 C370 1.387 . S
C371 C373 1.387 . S
H372 C379 0.950 . S
C373 C371 1.387 . S
C373 C375 1.390 . S
C373 H377 0.950 . S
H374 C370 0.950 . S
C375 C373 1.390 . S
C375 C376 1.387 . S
C375 H378 0.950 . S
C376 C375 1.387 . S
C376 C379 1.387 . S
H377 C373 0.950 . S
H378 C375 0.950 . S
C379 C370 1.390 . S
C379 H372 0.950 . S
C379 C376 1.387 . S
C380 C381 1.387 . S
C380 H384 0.950 . S
C380 C389 1.390 . S
C381 C380 1.387 . S
C381 C383 1.387 . S
H382 C389 0.950 . S
C383 C381 1.387 . S
C383 C385 1.390 . S
C383 H387 0.950 1_655 S
H384 C380 0.950 . S
C385 C383 1.390 . S
C385 C386 1.387 . S
C385 H388 0.950 1_655 S
C386 C385 1.387 . S
C386 C389 1.387 . S
H387 C383 0.950 1_455 S
H388 C385 0.950 1_455 S
C389 C380 1.390 . S
C389 H382 0.950 . S
C389 C386 1.387 . S
C390 C391 1.387 . S
C390 H394 0.950 . S
C390 C399 1.390 . S
C391 C390 1.387 . S
C391 C393 1.387 . S
H392 C399 0.950 . S
C393 C391 1.387 . S
C393 C395 1.390 . S
C393 H397 0.950 1_565 S
H394 C390 0.950 . S
C395 C393 1.390 . S
C395 C396 1.387 . S
C395 H398 0.950 . S
C396 C395 1.387 . S
C396 C399 1.387 . S
H397 C393 0.950 1_545 S
H398 C395 0.950 . S
C399 C390 1.390 . S
C399 H392 0.950 . S
C399 C396 1.387 . S
C400 C401 1.387 . S
C400 H404 0.950 1_455 S
C400 C409 1.390 . S
C401 C400 1.387 . S
C401 C403 1.387 . S
H402 C409 0.950 . S
C403 C401 1.387 . S
C403 C405 1.390 . S
C403 H407 0.950 . S
H404 C400 0.950 1_655 S
C405 C403 1.390 . S
C405 C406 1.387 . S
C405 H408 0.950 . S
C406 C405 1.387 . S
C406 C409 1.387 . S
H407 C403 0.950 . S
H408 C405 0.950 . S
C409 C400 1.390 . S
C409 H402 0.950 . S
C409 C406 1.387 . S
C410 C411 1.387 . S
C410 H414 0.950 1_545 S
C410 C419 1.390 . S
C411 C410 1.387 . S
C411 C413 1.387 . S
H412 C419 0.950 . S
C413 C411 1.387 . S
C413 C415 1.390 . S
C413 H417 0.950 . S
H414 C410 0.950 1_565 S
C415 C413 1.390 . S
C415 C416 1.387 . S
C415 H418 0.950 . S
C416 C415 1.387 . S
C416 C419 1.387 . S
H417 C413 0.950 . S
H418 C415 0.950 . S
C419 C410 1.390 . S
C419 H412 0.950 . S
C419 C416 1.387 . S
C241 C130 1.306 1_455 S
C246 C10 1.306 . S
C251 C170 1.306 1_545 S
C256 C50 1.306 . S
C261 C210 1.301 . S
C266 C90 1.301 . S
C271 C16 1.137 . S
C276 C87 1.288 . S
C281 C56 1.135 . S
C286 C127 1.284 . S
C291 C96 1.135 . S
C296 C167 1.284 . S
C301 C136 1.130 . S
C306 C207 1.282 1_655 S
C311 C176 1.130 . S
C316 C7 1.284 1_565 S
C321 C216 1.132 . S
C326 C47 1.286 . S
C331 C19 1.757 . S
C336 C139 1.757 1_545 S
C341 C59 1.759 . S
C346 C179 1.759 . S
C351 C99 1.757 1_455 S
C356 C219 1.757 . S
C361 C2 4.226 . S
C366 C51 4.284 . S
C371 C42 4.226 . S
C376 C91 4.284 . S
C381 C82 4.226 . S
C386 C131 4.284 . S
C391 C122 4.226 . S
C396 C171 4.284 . S
C401 C162 4.226 1_455 S
C406 C211 4.284 . S
C411 C202 4.225 1_545 S
C416 C11 4.284 . S
