# Generated by pormake.
# Topology upd, (4)-cn, num edge types: 1
# Building blocks:
#     Node 0, Type 0, BuildingBlock: NAWXER_clean_sbu_0, # of connection points: 4
#     Node 1, Type 0, BuildingBlock: NAWXER_clean_sbu_0, # of connection points: 4
#     Node 2, Type 0, BuildingBlock: NAWXER_clean_sbu_0, # of connection points: 4
#     Node 3, Type 0, BuildingBlock: NAWXER_clean_sbu_0, # of connection points: 4
#     Node 4, Type 0, BuildingBlock: NAWXER_clean_sbu_0, # of connection points: 4
#     Node 5, Type 0, BuildingBlock: NAWXER_clean_sbu_0, # of connection points: 4
#     Node 6, Type 0, BuildingBlock: NAWXER_clean_sbu_0, # of connection points: 4
#     Node 7, Type 0, BuildingBlock: NAWXER_clean_sbu_0, # of connection points: 4
#     Node 8, Type 0, BuildingBlock: NAWXER_clean_sbu_0, # of connection points: 4
#     Node 9, Type 0, BuildingBlock: NAWXER_clean_sbu_0, # of connection points: 4
#     Node 10, Type 0, BuildingBlock: NAWXER_clean_sbu_0, # of connection points: 4
#     Node 11, Type 0, BuildingBlock: NAWXER_clean_sbu_0, # of connection points: 4
#     Node 12, Type 0, BuildingBlock: NAWXER_clean_sbu_0, # of connection points: 4
#     Node 13, Type 0, BuildingBlock: NAWXER_clean_sbu_0, # of connection points: 4
#     Node 14, Type 0, BuildingBlock: NAWXER_clean_sbu_0, # of connection points: 4
#     Node 15, Type 0, BuildingBlock: NAWXER_clean_sbu_0, # of connection points: 4
#     Node 16, Type 0, BuildingBlock: NAWXER_clean_sbu_0, # of connection points: 4
#     Node 17, Type 0, BuildingBlock: NAWXER_clean_sbu_0, # of connection points: 4
#     Node 18, Type 0, BuildingBlock: NAWXER_clean_sbu_0, # of connection points: 4
#     Node 19, Type 0, BuildingBlock: NAWXER_clean_sbu_0, # of connection points: 4
#     Node 20, Type 0, BuildingBlock: NAWXER_clean_sbu_0, # of connection points: 4
#     Node 21, Type 0, BuildingBlock: NAWXER_clean_sbu_0, # of connection points: 4
#     Node 22, Type 0, BuildingBlock: NAWXER_clean_sbu_0, # of connection points: 4
#     Node 23, Type 0, BuildingBlock: NAWXER_clean_sbu_0, # of connection points: 4
#     Node 24, Type 0, BuildingBlock: NAWXER_clean_sbu_0, # of connection points: 4
#     Node 25, Type 0, BuildingBlock: NAWXER_clean_sbu_0, # of connection points: 4
#     Node 26, Type 0, BuildingBlock: NAWXER_clean_sbu_0, # of connection points: 4
#     Node 27, Type 0, BuildingBlock: NAWXER_clean_sbu_0, # of connection points: 4
#     Node 28, Type 0, BuildingBlock: NAWXER_clean_sbu_0, # of connection points: 4
#     Node 29, Type 0, BuildingBlock: NAWXER_clean_sbu_0, # of connection points: 4
#     Node 30, Type 0, BuildingBlock: NAWXER_clean_sbu_0, # of connection points: 4
#     Node 31, Type 0, BuildingBlock: NAWXER_clean_sbu_0, # of connection points: 4
#     Edge 32, Type (0, 0), BuildingBlock: XUDNAN_clean_linker_2, # of connection points: 2
#     Edge 33, Type (0, 0), BuildingBlock: XUDNAN_clean_linker_2, # of connection points: 2
#     Edge 34, Type (0, 0), BuildingBlock: XUDNAN_clean_linker_2, # of connection points: 2
#     Edge 35, Type (0, 0), BuildingBlock: XUDNAN_clean_linker_2, # of connection points: 2
#     Edge 36, Type (0, 0), BuildingBlock: XUDNAN_clean_linker_2, # of connection points: 2
#     Edge 37, Type (0, 0), BuildingBlock: XUDNAN_clean_linker_2, # of connection points: 2
#     Edge 38, Type (0, 0), BuildingBlock: XUDNAN_clean_linker_2, # of connection points: 2
#     Edge 39, Type (0, 0), BuildingBlock: XUDNAN_clean_linker_2, # of connection points: 2
#     Edge 40, Type (0, 0), BuildingBlock: XUDNAN_clean_linker_2, # of connection points: 2
#     Edge 41, Type (0, 0), BuildingBlock: XUDNAN_clean_linker_2, # of connection points: 2
#     Edge 42, Type (0, 0), BuildingBlock: XUDNAN_clean_linker_2, # of connection points: 2
#     Edge 43, Type (0, 0), BuildingBlock: XUDNAN_clean_linker_2, # of connection points: 2
#     Edge 44, Type (0, 0), BuildingBlock: XUDNAN_clean_linker_2, # of connection points: 2
#     Edge 45, Type (0, 0), BuildingBlock: XUDNAN_clean_linker_2, # of connection points: 2
#     Edge 46, Type (0, 0), BuildingBlock: XUDNAN_clean_linker_2, # of connection points: 2
#     Edge 47, Type (0, 0), BuildingBlock: XUDNAN_clean_linker_2, # of connection points: 2
#     Edge 48, Type (0, 0), BuildingBlock: XUDNAN_clean_linker_2, # of connection points: 2
#     Edge 49, Type (0, 0), BuildingBlock: XUDNAN_clean_linker_2, # of connection points: 2
#     Edge 50, Type (0, 0), BuildingBlock: XUDNAN_clean_linker_2, # of connection points: 2
#     Edge 51, Type (0, 0), BuildingBlock: XUDNAN_clean_linker_2, # of connection points: 2
#     Edge 52, Type (0, 0), BuildingBlock: XUDNAN_clean_linker_2, # of connection points: 2
#     Edge 53, Type (0, 0), BuildingBlock: XUDNAN_clean_linker_2, # of connection points: 2
#     Edge 54, Type (0, 0), BuildingBlock: XUDNAN_clean_linker_2, # of connection points: 2
#     Edge 55, Type (0, 0), BuildingBlock: XUDNAN_clean_linker_2, # of connection points: 2
#     Edge 56, Type (0, 0), BuildingBlock: XUDNAN_clean_linker_2, # of connection points: 2
#     Edge 57, Type (0, 0), BuildingBlock: XUDNAN_clean_linker_2, # of connection points: 2
#     Edge 58, Type (0, 0), BuildingBlock: XUDNAN_clean_linker_2, # of connection points: 2
#     Edge 59, Type (0, 0), BuildingBlock: XUDNAN_clean_linker_2, # of connection points: 2
#     Edge 60, Type (0, 0), BuildingBlock: XUDNAN_clean_linker_2, # of connection points: 2
#     Edge 61, Type (0, 0), BuildingBlock: XUDNAN_clean_linker_2, # of connection points: 2
#     Edge 62, Type (0, 0), BuildingBlock: XUDNAN_clean_linker_2, # of connection points: 2
#     Edge 63, Type (0, 0), BuildingBlock: XUDNAN_clean_linker_2, # of connection points: 2
#     Edge 64, Type (0, 0), BuildingBlock: XUDNAN_clean_linker_2, # of connection points: 2
#     Edge 65, Type (0, 0), BuildingBlock: XUDNAN_clean_linker_2, # of connection points: 2
#     Edge 66, Type (0, 0), BuildingBlock: XUDNAN_clean_linker_2, # of connection points: 2
#     Edge 67, Type (0, 0), BuildingBlock: XUDNAN_clean_linker_2, # of connection points: 2
#     Edge 68, Type (0, 0), BuildingBlock: XUDNAN_clean_linker_2, # of connection points: 2
#     Edge 69, Type (0, 0), BuildingBlock: XUDNAN_clean_linker_2, # of connection points: 2
#     Edge 70, Type (0, 0), BuildingBlock: XUDNAN_clean_linker_2, # of connection points: 2
#     Edge 71, Type (0, 0), BuildingBlock: XUDNAN_clean_linker_2, # of connection points: 2
#     Edge 72, Type (0, 0), BuildingBlock: XUDNAN_clean_linker_2, # of connection points: 2
#     Edge 73, Type (0, 0), BuildingBlock: XUDNAN_clean_linker_2, # of connection points: 2
#     Edge 74, Type (0, 0), BuildingBlock: XUDNAN_clean_linker_2, # of connection points: 2
#     Edge 75, Type (0, 0), BuildingBlock: XUDNAN_clean_linker_2, # of connection points: 2
#     Edge 76, Type (0, 0), BuildingBlock: XUDNAN_clean_linker_2, # of connection points: 2
#     Edge 77, Type (0, 0), BuildingBlock: XUDNAN_clean_linker_2, # of connection points: 2
#     Edge 78, Type (0, 0), BuildingBlock: XUDNAN_clean_linker_2, # of connection points: 2
#     Edge 79, Type (0, 0), BuildingBlock: XUDNAN_clean_linker_2, # of connection points: 2
#     Edge 80, Type (0, 0), BuildingBlock: XUDNAN_clean_linker_2, # of connection points: 2
#     Edge 81, Type (0, 0), BuildingBlock: XUDNAN_clean_linker_2, # of connection points: 2
#     Edge 82, Type (0, 0), BuildingBlock: XUDNAN_clean_linker_2, # of connection points: 2
#     Edge 83, Type (0, 0), BuildingBlock: XUDNAN_clean_linker_2, # of connection points: 2
#     Edge 84, Type (0, 0), BuildingBlock: XUDNAN_clean_linker_2, # of connection points: 2
#     Edge 85, Type (0, 0), BuildingBlock: XUDNAN_clean_linker_2, # of connection points: 2
#     Edge 86, Type (0, 0), BuildingBlock: XUDNAN_clean_linker_2, # of connection points: 2
#     Edge 87, Type (0, 0), BuildingBlock: XUDNAN_clean_linker_2, # of connection points: 2
#     Edge 88, Type (0, 0), BuildingBlock: XUDNAN_clean_linker_2, # of connection points: 2
#     Edge 89, Type (0, 0), BuildingBlock: XUDNAN_clean_linker_2, # of connection points: 2
#     Edge 90, Type (0, 0), BuildingBlock: XUDNAN_clean_linker_2, # of connection points: 2
#     Edge 91, Type (0, 0), BuildingBlock: XUDNAN_clean_linker_2, # of connection points: 2
#     Edge 92, Type (0, 0), BuildingBlock: XUDNAN_clean_linker_2, # of connection points: 2
#     Edge 93, Type (0, 0), BuildingBlock: XUDNAN_clean_linker_2, # of connection points: 2
#     Edge 94, Type (0, 0), BuildingBlock: XUDNAN_clean_linker_2, # of connection points: 2
#     Edge 95, Type (0, 0), BuildingBlock: XUDNAN_clean_linker_2, # of connection points: 2
# Relax obj value: 0.044
# Max RMSD: 0.097
# Mean RMSD: 0.097
data_MOF--net-upd--node1-NAWXER_clean_sbu_0--edge1-XUDNAN_clean_linker_2
_symmetry_space_group_name_H-M    P1
_symmetry_Int_Tables_number       1
_symmetry_cell_setting            triclinic
loop_
_symmetry_equiv_pos_as_xyz
'x, y, z'
_cell_length_a     40.111557
_cell_length_b     40.043433
_cell_length_c     76.056089
_cell_angle_alpha  90.10288
_cell_angle_beta   89.991489
_cell_angle_gamma 90.035036
loop_
_atom_site_label
_atom_site_type_symbol
_atom_site_fract_x
_atom_site_fract_y
_atom_site_fract_z
_atom_type_partial_charge
C0 C 0.15739 0.07158 0.29762 0.0
C1 C 0.15696 0.16176 0.3412 0.0
O2 O 0.13349 0.0921 0.29467 0.0
Zn3 Zn 0.11525 0.13762 0.30686 0.0
O4 O 0.1762 0.07637 0.31079 0.0
Zn5 Zn 0.15617 0.11705 0.31945 0.0
O6 O 0.10771 0.1025 0.33016 0.0
O7 O 0.07035 0.12633 0.313 0.0
O8 O 0.17651 0.13697 0.33971 0.0
O9 O 0.13322 0.16536 0.32998 0.0
O10 O 0.11999 0.16944 0.28839 0.0
O11 O 0.16835 0.15278 0.29886 0.0
C12 C 0.07709 0.1081 0.32614 0.0
C13 C 0.15158 0.17072 0.28804 0.0
C14 C 0.05445 0.91417 0.54386 0.0
C15 C 0.11838 0.83535 0.57904 0.0
O16 O 0.07796 0.92893 0.55223 0.0
Zn17 Zn 0.11731 0.91464 0.56977 0.0
O18 O 0.05109 0.88281 0.54538 0.0
Zn19 Zn 0.08752 0.8741 0.56115 0.0
O20 O 0.0731 0.89572 0.58564 0.0
O21 O 0.10623 0.93844 0.59145 0.0
O22 O 0.09366 0.82914 0.56908 0.0
O23 O 0.1299 0.86527 0.58018 0.0
O24 O 0.15715 0.92688 0.55677 0.0
O25 O 0.1319 0.8822 0.54608 0.0
C26 C 0.08222 0.91946 0.59585 0.0
C27 C 0.15611 0.90311 0.54569 0.0
C28 C 0.30209 0.84008 0.85594 0.0
C29 C 0.30154 0.92724 0.81068 0.0
O30 O 0.32082 0.83379 0.84273 0.0
Zn31 Zn 0.33627 0.85643 0.81869 0.0
O32 O 0.28512 0.86691 0.85643 0.0
Zn33 Zn 0.30013 0.88407 0.83368 0.0
O34 O 0.27996 0.84904 0.81541 0.0
O35 O 0.321 0.82411 0.80124 0.0
O36 O 0.28356 0.92606 0.82445 0.0
O37 O 0.32201 0.90344 0.80738 0.0
O38 O 0.38344 0.86196 0.82373 0.0
O39 O 0.35087 0.89457 0.83976 0.0
C40 C 0.2899 0.82795 0.80385 0.0
C41 C 0.37999 0.88428 0.83553 0.0
C42 C 0.44608 0.11489 0.08615 0.0
C43 C 0.366 0.09854 0.03882 0.0
O44 O 0.44762 0.13877 0.07494 0.0
Zn45 Zn 0.42227 0.15179 0.05071 0.0
O46 O 0.42635 0.09067 0.0834 0.0
Zn47 Zn 0.40732 0.10653 0.06172 0.0
O48 O 0.44695 0.10242 0.04243 0.0
O49 O 0.45726 0.1536 0.03342 0.0
O50 O 0.37344 0.07914 0.05139 0.0
O51 O 0.38162 0.12637 0.03705 0.0
O52 O 0.40268 0.1936 0.05723 0.0
O53 O 0.37989 0.15033 0.07064 0.0
C54 C 0.46337 0.12257 0.03255 0.0
C55 C 0.38136 0.18194 0.06792 0.0
C56 C 0.17121 0.78845 0.17314 0.0
C57 C 0.16549 0.88753 0.2113 0.0
O58 O 0.14601 0.78796 0.18353 0.0
Zn59 Zn 0.1238 0.82014 0.20309 0.0
O60 O 0.19008 0.81397 0.17307 0.0
Zn61 Zn 0.16745 0.83929 0.19138 0.0
O62 O 0.17527 0.80801 0.21398 0.0
O63 O 0.12601 0.79199 0.22372 0.0
O64 O 0.18697 0.88056 0.19957 0.0
O65 O 0.14068 0.86774 0.21371 0.0
O66 O 0.0806 0.82962 0.19298 0.0
O67 O 0.12162 0.85521 0.17909 0.0
C68 C 0.15761 0.79167 0.22508 0.0
C69 C 0.09039 0.84916 0.18092 0.0
C70 C 0.34018 0.90374 0.46042 0.0
C71 C 0.41662 0.91271 0.41063 0.0
O72 O 0.36703 0.88679 0.46239 0.0
Zn73 Zn 0.41363 0.87942 0.44906 0.0
O74 O 0.33679 0.92271 0.44715 0.0
Zn75 Zn 0.37881 0.91132 0.43594 0.0
O76 O 0.37294 0.85835 0.43123 0.0
O77 O 0.41291 0.83147 0.44549 0.0
O78 O 0.38916 0.92816 0.41255 0.0
O79 O 0.42785 0.89457 0.42317 0.0
O80 O 0.44679 0.90007 0.46464 0.0
O81 O 0.41393 0.93683 0.45197 0.0
C82 C 0.38745 0.83099 0.43549 0.0
C83 C 0.43834 0.9303 0.46225 0.0
C84 C 0.34218 0.19249 0.72661 0.0
C85 C 0.40827 0.11731 0.69015 0.0
O86 O 0.32437 0.17598 0.71565 0.0
Zn87 Zn 0.33159 0.13952 0.69546 0.0
O88 O 0.37359 0.18843 0.72665 0.0
Zn89 Zn 0.37571 0.15447 0.70841 0.0
O90 O 0.36457 0.18168 0.68426 0.0
O91 O 0.31607 0.16276 0.67477 0.0
O92 O 0.41838 0.13491 0.703 0.0
O93 O 0.37724 0.11708 0.68601 0.0
O94 O 0.30545 0.10256 0.70443 0.0
O95 O 0.35018 0.11291 0.7204 0.0
C96 C 0.34092 0.18213 0.67288 0.0
C97 C 0.3236 0.09588 0.71765 0.0
C98 C 0.13022 0.15529 0.93941 0.0
C99 C 0.07694 0.05715 0.96541 0.0
O100 O 0.14004 0.12755 0.93268 0.0
Zn101 Zn 0.13159 0.07471 0.93625 0.0
O102 O 0.10979 0.15521 0.95222 0.0
Zn103 Zn 0.10445 0.10719 0.95299 0.0
O104 O 0.15271 0.09273 0.96282 0.0
O105 O 0.17458 0.05797 0.94346 0.0
O106 O 0.07265 0.08761 0.96949 0.0
O107 O 0.09799 0.04971 0.95338 0.0
O108 O 0.11488 0.06232 0.91336 0.0
O109 O 0.08261 0.09853 0.92723 0.0
C110 C 0.17677 0.07384 0.95788 0.0
C111 C 0.08933 0.08109 0.91349 0.0
C112 C 0.93832 0.86226 0.69179 0.0
C113 C 0.85517 0.79352 0.72192 0.0
O114 O 0.94395 0.83754 0.70186 0.0
Zn115 Zn 0.89763 0.82852 0.70746 0.0
O116 O 0.90825 0.87126 0.68861 0.0
Zn117 Zn 0.85834 0.85581 0.69541 0.0
O118 O 0.84067 0.89546 0.70703 0.0
O119 O 0.88434 0.87407 0.7206 0.0
O120 O 0.8421 0.81505 0.71153 0.0
O121 O 0.88654 0.79328 0.72415 0.0
O122 O 0.88127 0.80972 0.68226 0.0
O123 O 0.84217 0.84353 0.67222 0.0
C124 C 0.86232 0.89709 0.71919 0.0
C125 C 0.86069 0.81805 0.67012 0.0
C126 C 0.88867 0.17471 0.44107 0.0
C127 C 0.92932 0.0753 0.47175 0.0
O128 O 0.91367 0.17329 0.45133 0.0
Zn129 Zn 0.90996 0.12598 0.45665 0.0
O130 O 0.87189 0.14829 0.43758 0.0
Zn131 Zn 0.87293 0.09607 0.44386 0.0
O132 O 0.82972 0.08932 0.45485 0.0
O133 O 0.86244 0.12357 0.4698 0.0
O134 O 0.90491 0.06954 0.46131 0.0
O135 O 0.94039 0.10494 0.47328 0.0
O136 O 0.92502 0.10493 0.43205 0.0
O137 O 0.88296 0.07627 0.42103 0.0
C138 C 0.83434 0.1087 0.4679 0.0
C139 C 0.91275 0.08691 0.41971 0.0
C140 C 0.68335 0.20567 0.17174 0.0
C141 C 0.67595 0.1034 0.20706 0.0
O142 O 0.69974 0.1788 0.16944 0.0
Zn143 Zn 0.67934 0.15354 0.18836 0.0
O144 O 0.66187 0.20734 0.18423 0.0
Zn145 Zn 0.6427 0.1763 0.20504 0.0
O146 O 0.65712 0.2017 0.22584 0.0
O147 O 0.69831 0.17922 0.21068 0.0
O148 O 0.65602 0.12632 0.21234 0.0
O149 O 0.69382 0.10829 0.1935 0.0
O150 O 0.62921 0.14898 0.17916 0.0
O151 O 0.59575 0.17197 0.19883 0.0
C152 C 0.68819 0.1963 0.22387 0.0
C153 C 0.59981 0.15695 0.18424 0.0
C154 C 0.59761 0.99255 0.94858 0.0
C155 C 0.64964 0.91286 0.90764 0.0
O156 O 0.59135 0.96173 0.95178 0.0
Zn157 Zn 0.60413 0.91295 0.94209 0.0
O158 O 0.61721 1.00013 0.93599 0.0
Zn159 Zn 0.62715 0.95451 0.92862 0.0
O160 O 0.57906 0.93987 0.91927 0.0
O161 O 0.5607 0.8964 0.93444 0.0
O162 O 0.65563 0.94405 0.90818 0.0
O163 O 0.6316 0.89949 0.91954 0.0
O164 O 0.62828 0.89332 0.96193 0.0
O165 O 0.65363 0.93767 0.95107 0.0
C166 C 0.5567 0.91774 0.92221 0.0
C167 C 0.65185 0.91452 0.9626 0.0
C168 C 0.83961 0.16628 0.84757 0.0
C169 C 0.8535 0.09443 0.79627 0.0
O170 O 0.82362 0.13961 0.84419 0.0
Zn171 Zn 0.84332 0.13163 0.82123 0.0
O172 O 0.8595 0.17858 0.83609 0.0
Zn173 Zn 0.87727 0.16679 0.81018 0.0
O174 O 0.85915 0.20204 0.79496 0.0
O175 O 0.82025 0.16899 0.80552 0.0
O176 O 0.87111 0.12116 0.79544 0.0
O177 O 0.83285 0.09067 0.80879 0.0
O178 O 0.89548 0.12484 0.82791 0.0
O179 O 0.92457 0.1655 0.81546 0.0
C180 C 0.82853 0.19428 0.7962 0.0
C181 C 0.92343 0.13952 0.82507 0.0
C182 C 0.55928 0.08102 0.59216 0.0
C183 C 0.64912 0.11348 0.55238 0.0
O184 O 0.58781 0.06732 0.59087 0.0
Zn185 Zn 0.60331 0.09589 0.57193 0.0
O186 O 0.55124 0.10442 0.58147 0.0
Zn187 Zn 0.57363 0.13301 0.56059 0.0
O188 O 0.54612 0.12331 0.54074 0.0
O189 O 0.57281 0.07869 0.55001 0.0
O190 O 0.62327 0.13183 0.55034 0.0
O191 O 0.64853 0.08986 0.56346 0.0
O192 O 0.60204 0.144 0.58608 0.0
O193 O 0.56891 0.17658 0.57052 0.0
C194 C 0.55224 0.09237 0.53927 0.0
C195 C 0.58659 0.17191 0.58414 0.0
C196 C 0.66672 0.92985 0.29792 0.0
C197 C 0.66315 0.84511 0.34433 0.0
O198 O 0.6813 0.9302 0.31275 0.0
Zn199 Zn 0.66435 0.8883 0.32157 0.0
O200 O 0.64763 0.90529 0.29387 0.0
Zn201 Zn 0.63261 0.85857 0.30573 0.0
O202 O 0.58477 0.86205 0.30808 0.0
O203 O 0.61197 0.89666 0.32561 0.0
O204 O 0.64602 0.83699 0.33074 0.0
O205 O 0.67801 0.87316 0.34469 0.0
O206 O 0.68918 0.85338 0.30458 0.0
O207 O 0.65091 0.82611 0.28947 0.0
C208 C 0.58446 0.88471 0.31977 0.0
C209 C 0.68145 0.83134 0.29304 0.0
C210 C 0.93636 0.90672 0.03628 0.0
C211 C 0.86682 0.83564 0.07318 0.0
O212 O 0.93367 0.87513 0.03621 0.0
Zn213 Zn 0.90124 0.87057 0.05481 0.0
O214 O 0.91907 0.9238 0.04724 0.0
Zn215 Zn 0.88352 0.91383 0.06765 0.0
O216 O 0.90604 0.93062 0.08851 0.0
O217 O 0.92805 0.884 0.07826 0.0
O218 O 0.86313 0.86676 0.07673 0.0
O219 O 0.8871 0.82647 0.06126 0.0
O220 O 0.85597 0.89107 0.04393 0.0
O221 O 0.84392 0.93614 0.05938 0.0
C222 C 0.92734 0.90727 0.08984 0.0
C223 C 0.83674 0.91601 0.04699 0.0
C224 C 0.62258 0.61904 0.79702 0.0
C225 C 0.64903 0.72454 0.82748 0.0
O226 O 0.60552 0.64584 0.79647 0.0
Zn227 Zn 0.63306 0.67212 0.81243 0.0
O228 O 0.64854 0.61761 0.80685 0.0
Zn229 Zn 0.67565 0.64907 0.82486 0.0
O230 O 0.66786 0.62749 0.84786 0.0
O231 O 0.62205 0.64883 0.83662 0.0
O232 O 0.66918 0.70064 0.83085 0.0
O233 O 0.62381 0.71918 0.81771 0.0
O234 O 0.67895 0.6749 0.7982 0.0
O235 O 0.71958 0.65136 0.81345 0.0
C236 C 0.63662 0.6328 0.84894 0.0
C237 C 0.70969 0.66667 0.79972 0.0
C238 C 0.59562 0.48883 0.06563 0.0
C239 C 0.65485 0.40184 0.09873 0.0
O240 O 0.61915 0.49333 0.07661 0.0
Zn241 Zn 0.62682 0.44635 0.08243 0.0
O242 O 0.58602 0.45898 0.06216 0.0
Zn243 Zn 0.59788 0.40873 0.06936 0.0
O244 O 0.55681 0.39262 0.08001 0.0
O245 O 0.58105 0.43304 0.09519 0.0
O246 O 0.63334 0.39043 0.08786 0.0
O247 O 0.65936 0.43317 0.10021 0.0
O248 O 0.64873 0.42678 0.05881 0.0
O249 O 0.61365 0.39025 0.04728 0.0
C250 C 0.55712 0.41216 0.09321 0.0
C251 C 0.64124 0.40586 0.04665 0.0
C252 C 0.84578 0.3428 0.35155 0.0
C253 C 0.83694 0.42423 0.30408 0.0
O254 O 0.86751 0.33809 0.33944 0.0
Zn255 Zn 0.88075 0.36011 0.31452 0.0
O256 O 0.82427 0.36586 0.3498 0.0
Zn257 Zn 0.84077 0.38284 0.32761 0.0
O258 O 0.82638 0.34387 0.30948 0.0
O259 O 0.87308 0.32439 0.29823 0.0
O260 O 0.81918 0.42136 0.31781 0.0
O261 O 0.86087 0.40359 0.30134 0.0
O262 O 0.92617 0.37137 0.3191 0.0
O263 O 0.89027 0.40021 0.33514 0.0
C264 C 0.84151 0.32352 0.29918 0.0
C265 C 0.92047 0.39291 0.33099 0.0
C266 C 0.92428 0.57311 0.59542 0.0
C267 C 0.8491 0.58467 0.5452 0.0
O268 O 0.93602 0.59147 0.58307 0.0
Zn269 Zn 0.92081 0.61048 0.55781 0.0
O270 O 0.89532 0.56035 0.59389 0.0
Zn271 Zn 0.88552 0.57942 0.57109 0.0
O272 O 0.92117 0.55376 0.55464 0.0
O273 O 0.95476 0.59111 0.54268 0.0
O274 O 0.8427 0.57079 0.55982 0.0
O275 O 0.87696 0.59972 0.54302 0.0
O276 O 0.91912 0.65882 0.56206 0.0
O277 O 0.88357 0.63063 0.57844 0.0
C278 C 0.94603 0.56076 0.54466 0.0
C279 C 0.8974 0.65827 0.57424 0.0
C280 C 0.67743 0.33339 0.72433 0.0
C281 C 0.62626 0.40458 0.67923 0.0
O282 O 0.69255 0.35071 0.71282 0.0
Zn283 Zn 0.65326 0.37067 0.70172 0.0
O284 O 0.64549 0.33445 0.72503 0.0
Zn285 Zn 0.6051 0.35829 0.71173 0.0
O286 O 0.58004 0.32176 0.70148 0.0
O287 O 0.62916 0.32883 0.68895 0.0
O288 O 0.60555 0.39076 0.6897 0.0
O289 O 0.65746 0.4 0.68117 0.0
O290 O 0.634 0.40498 0.7213 0.0
O291 O 0.58439 0.38657 0.72924 0.0
C292 C 0.60116 0.31343 0.68978 0.0
C293 C 0.60734 0.40835 0.73049 0.0
C294 C 0.82994 0.39918 0.96445 0.0
C295 C 0.9178 0.3961 0.92037 0.0
O296 O 0.85379 0.37991 0.96935 0.0
Zn297 Zn 0.90216 0.36528 0.95883 0.0
O298 O 0.83284 0.41591 0.95039 0.0
Zn299 Zn 0.87567 0.39978 0.94331 0.0
O300 O 0.86503 0.34798 0.93814 0.0
O301 O 0.89684 0.31748 0.9556 0.0
O302 O 0.89178 0.41415 0.92073 0.0
O303 O 0.92464 0.37745 0.93361 0.0
O304 O 0.9346 0.38124 0.97602 0.0
O305 O 0.91089 0.42195 0.96118 0.0
C306 C 0.87488 0.31939 0.94358 0.0
C307 C 0.93189 0.41223 0.97283 0.0
C308 C 0.82773 0.69257 0.21925 0.0
C309 C 0.89362 0.63171 0.17609 0.0
O310 O 0.80962 0.67385 0.20945 0.0
Zn311 Zn 0.81699 0.63799 0.18884 0.0
O312 O 0.85922 0.69175 0.21758 0.0
Zn313 Zn 0.8613 0.65891 0.19902 0.0
O314 O 0.83897 0.68454 0.1771 0.0
O315 O 0.79225 0.65854 0.16981 0.0
O316 O 0.90409 0.64979 0.18869 0.0
O317 O 0.86249 0.62437 0.17507 0.0
O318 O 0.79991 0.59738 0.19884 0.0
O319 O 0.84653 0.61319 0.21174 0.0
C320 C 0.81329 0.68176 0.16718 0.0
C321 C 0.82208 0.59265 0.21046 0.0
C322 C 0.67324 0.5845 0.45527 0.0
C323 C 0.58587 0.58433 0.41099 0.0
O324 O 0.65022 0.60536 0.45932 0.0
Zn325 Zn 0.60449 0.62217 0.44731 0.0
O326 O 0.67076 0.56774 0.44118 0.0
Zn327 Zn 0.6284 0.58447 0.43342 0.0
O328 O 0.63942 0.63546 0.42468 0.0
O329 O 0.61308 0.66864 0.44325 0.0
O330 O 0.61075 0.56492 0.41234 0.0
O331 O 0.58058 0.60663 0.42283 0.0
O332 O 0.57135 0.61229 0.46449 0.0
O333 O 0.59283 0.56662 0.453 0.0
C334 C 0.63176 0.66502 0.42993 0.0
C335 C 0.57246 0.58066 0.46374 0.0
C336 C 0.38575 0.36883 0.1819 0.0
C337 C 0.2961 0.30777 0.21192 0.0
O338 O 0.38945 0.34504 0.19281 0.0
Zn339 Zn 0.34233 0.3388 0.19802 0.0
O340 O 0.35645 0.37989 0.17848 0.0
Zn341 Zn 0.30553 0.36867 0.18508 0.0
O342 O 0.28932 0.40864 0.19633 0.0
O343 O 0.32865 0.38384 0.2119 0.0
O344 O 0.2861 0.33099 0.20167 0.0
O345 O 0.32724 0.30313 0.21395 0.0
O346 O 0.32644 0.32148 0.17264 0.0
O347 O 0.28747 0.35536 0.16239 0.0
C348 C 0.30777 0.40781 0.20989 0.0
C349 C 0.30581 0.32971 0.16054 0.0
C350 C 0.46372 0.61332 0.93851 0.0
C351 C 0.36382 0.6271 0.97557 0.0
O352 O 0.43944 0.59297 0.9397 0.0
Zn353 Zn 0.41374 0.61767 0.95734 0.0
O354 O 0.46354 0.64039 0.94751 0.0
Zn355 Zn 0.43211 0.66567 0.96601 0.0
O356 O 0.46086 0.66715 0.98689 0.0
O357 O 0.44573 0.61601 0.97967 0.0
O358 O 0.38453 0.65145 0.97627 0.0
O359 O 0.37118 0.60108 0.96673 0.0
O360 O 0.39682 0.65959 0.94257 0.0
O361 O 0.41868 0.70605 0.9531 0.0
C362 C 0.46218 0.63583 0.98968 0.0
C363 C 0.39958 0.69144 0.94211 0.0
C364 C 0.16276 0.58787 0.71749 0.0
C365 C 0.15639 0.67531 0.67361 0.0
O366 O 0.18104 0.5929 0.70415 0.0
Zn367 Zn 0.1594 0.63257 0.6959 0.0
O368 O 0.13833 0.60763 0.72065 0.0
Zn369 Zn 0.11687 0.65098 0.70829 0.0
O370 O 0.07293 0.63589 0.70262 0.0
O371 O 0.11199 0.6142 0.68562 0.0
O372 O 0.13199 0.67723 0.68451 0.0
O373 O 0.17885 0.6534 0.67574 0.0
O374 O 0.16909 0.66915 0.71637 0.0
O375 O 0.11969 0.68431 0.72617 0.0
C376 C 0.08108 0.61753 0.68971 0.0
C377 C 0.15118 0.68694 0.72678 0.0
C378 C 0.18089 0.41261 0.46433 0.0
C379 C 0.09241 0.41589 0.42058 0.0
O380 O 0.17712 0.43176 0.45123 0.0
Zn381 Zn 0.13653 0.41297 0.44193 0.0
O382 O 0.16012 0.38872 0.46679 0.0
Zn383 Zn 0.11546 0.37115 0.45391 0.0
O384 O 0.1263 0.32659 0.44656 0.0
O385 O 0.14925 0.36511 0.42968 0.0
O386 O 0.08913 0.39087 0.431 0.0
O387 O 0.11648 0.43616 0.42259 0.0
O388 O 0.10056 0.42402 0.46235 0.0
O389 O 0.08241 0.3756 0.47215 0.0
C390 C 0.14327 0.33425 0.43308 0.0
C391 C 0.08172 0.40729 0.47275 0.0
C392 C 0.33301 0.6516 0.3542 0.0
C393 C 0.32184 0.56881 0.30721 0.0
O394 O 0.31473 0.62566 0.35422 0.0
Zn395 Zn 0.32638 0.61027 0.33077 0.0
O396 O 0.34989 0.65905 0.34044 0.0
Zn397 Zn 0.35834 0.63912 0.31454 0.0
O398 O 0.33915 0.67271 0.29908 0.0
O399 O 0.30142 0.64576 0.31458 0.0
O400 O 0.34143 0.59282 0.30295 0.0
O401 O 0.30771 0.56896 0.32216 0.0
O402 O 0.37901 0.59985 0.3333 0.0
O403 O 0.40605 0.634 0.3154 0.0
C404 C 0.30877 0.6679 0.30308 0.0
C405 C 0.40646 0.611 0.3269 0.0
C406 C 0.05329 0.62149 0.07895 0.0
C407 C 0.15028 0.62679 0.0395 0.0
O408 O 0.07207 0.59567 0.07934 0.0
Zn409 Zn 0.11726 0.57753 0.0681 0.0
O410 O 0.06064 0.646 0.06903 0.0
Zn411 Zn 0.10086 0.62611 0.05887 0.0
O412 O 0.0816 0.58443 0.04477 0.0
O413 O 0.10038 0.53723 0.05593 0.0
O414 O 0.12758 0.64876 0.04128 0.0
O415 O 0.1488 0.59986 0.04858 0.0
O416 O 0.14652 0.57676 0.08908 0.0
O417 O 0.1328 0.62775 0.08078 0.0
C418 C 0.08254 0.55245 0.04461 0.0
C419 C 0.14838 0.60829 0.09118 0.0
C420 C 0.1698 0.33389 0.85563 0.0
C421 C 0.1649 0.4118 0.80658 0.0
O422 O 0.18178 0.36331 0.85529 0.0
Zn423 Zn 0.16671 0.37392 0.83169 0.0
O424 O 0.15407 0.32246 0.84224 0.0
Zn425 Zn 0.13869 0.33876 0.81672 0.0
O426 O 0.16013 0.30658 0.80175 0.0
O427 O 0.19565 0.34004 0.81533 0.0
O428 O 0.1505 0.38396 0.80323 0.0
O429 O 0.1767 0.41741 0.8218 0.0
O430 O 0.1141 0.37575 0.83599 0.0
O431 O 0.0904 0.33821 0.81876 0.0
C432 C 0.19 0.31586 0.80459 0.0
C433 C 0.08794 0.3609 0.83036 0.0
C434 C 0.45196 0.42823 0.5942 0.0
C435 C 0.35406 0.42214 0.55574 0.0
O436 O 0.4255 0.4456 0.59518 0.0
Zn437 Zn 0.40154 0.42491 0.57582 0.0
O438 O 0.45428 0.40542 0.58242 0.0
Zn439 Zn 0.42516 0.38525 0.56133 0.0
O440 O 0.45339 0.39693 0.54073 0.0
O441 O 0.43 0.44007 0.55385 0.0
O442 O 0.37624 0.40014 0.55196 0.0
O443 O 0.35859 0.44173 0.56873 0.0
O444 O 0.38992 0.37614 0.58504 0.0
O445 O 0.41796 0.33909 0.56942 0.0
C446 C 0.4482 0.42831 0.54151 0.0
C447 C 0.39765 0.34572 0.58182 0.0
H448 H 0.12219 0.32596 0.3993 0.0
H449 H 0.18465 0.28193 0.43949 0.0
H450 H 0.19728 0.23446 0.4196 0.0
H451 H 0.08582 0.24855 0.38572 0.0
H452 H 0.0828 0.2602 0.36289 0.0
H453 H 0.08168 0.29186 0.37973 0.0
H454 H 0.1314 0.32195 0.3646 0.0
H455 H 0.1326 0.28996 0.34792 0.0
H456 H 0.16945 0.29924 0.36059 0.0
H457 H 0.20196 0.19145 0.39571 0.0
H458 H 0.19604 0.15371 0.37028 0.0
H459 H 0.12696 0.22334 0.34612 0.0
C460 C 0.13914 0.30664 0.40367 0.0
C461 C 0.15327 0.30779 0.42068 0.0
C462 C 0.17422 0.28159 0.42635 0.0
C463 C 0.18143 0.25461 0.41516 0.0
C464 C 0.16688 0.25393 0.39849 0.0
C465 C 0.14591 0.27908 0.39281 0.0
C466 C 0.13134 0.27089 0.37487 0.0
C467 C 0.09315 0.26768 0.37587 0.0
C468 C 0.14184 0.29707 0.36119 0.0
C469 C 0.14761 0.23732 0.3713 0.0
C470 C 0.16823 0.22823 0.38504 0.0
C471 C 0.18591 0.19831 0.38487 0.0
C472 C 0.18239 0.17703 0.37032 0.0
C473 C 0.16103 0.18544 0.35615 0.0
C474 C 0.14346 0.21611 0.35671 0.0
H475 H 0.07388 0.86775 0.61774 0.0
H476 H 0.05592 0.97397 0.61312 0.0
H477 H 0.02292 0.97255 0.6408 0.0
H478 H 0.99619 0.84451 0.63148 0.0
H479 H 0.01058 0.81243 0.64624 0.0
H480 H 0.03572 0.82445 0.62775 0.0
H481 H 0.08531 0.83747 0.64933 0.0
H482 H 0.05904 0.82485 0.66741 0.0
H483 H 0.07832 0.86554 0.66747 0.0
H484 H 0.98345 0.95663 0.66539 0.0
H485 H 0.94417 0.9289 0.68578 0.0
H486 H 0.99163 0.83374 0.67551 0.0
C487 C 0.06368 0.89087 0.62285 0.0
C488 C 0.06722 0.92098 0.61346 0.0
C489 C 0.05359 0.95078 0.62032 0.0
C490 C 0.03488 0.95012 0.63599 0.0
C491 C 0.031 0.91963 0.64471 0.0
C492 C 0.04564 0.89069 0.63853 0.0
C493 C 0.03594 0.86066 0.64943 0.0
C494 C 0.01857 0.83395 0.63806 0.0
C495 C 0.06646 0.84626 0.65899 0.0
C496 C 0.01196 0.87672 0.66223 0.0
C497 C 0.00961 0.91082 0.65941 0.0
C498 C 0.98588 0.93021 0.66808 0.0
C499 C 0.96366 0.91428 0.6796 0.0
C500 C 0.96555 0.87941 0.68246 0.0
C501 C 0.99058 0.86063 0.67404 0.0
H502 H 0.39311 0.7602 0.93771 0.0
H503 H 0.3583 0.66482 0.91744 0.0
H504 H 0.32217 0.69383 0.89648 0.0
H505 H 0.31243 0.80517 0.93228 0.0
H506 H 0.33236 0.84338 0.92548 0.0
H507 H 0.35334 0.81555 0.94045 0.0
H508 H 0.4041 0.81252 0.91944 0.0
H509 H 0.38337 0.84061 0.90459 0.0
H510 H 0.39762 0.80049 0.89683 0.0
H511 H 0.29417 0.73169 0.87577 0.0
H512 H 0.27926 0.77686 0.85516 0.0
H513 H 0.32991 0.84866 0.88836 0.0
C514 C 0.37767 0.74548 0.92896 0.0
C515 C 0.37866 0.71015 0.92934 0.0
C516 C 0.35814 0.69187 0.91754 0.0
C517 C 0.33721 0.70811 0.90561 0.0
C518 C 0.33665 0.74281 0.90561 0.0
C519 C 0.35634 0.76139 0.9169 0.0
C520 C 0.35268 0.79843 0.9131 0.0
C521 C 0.33675 0.81671 0.92876 0.0
C522 C 0.38646 0.81392 0.9082 0.0
C523 C 0.32917 0.79752 0.89743 0.0
C524 C 0.3197 0.76511 0.89363 0.0
C525 C 0.30068 0.75728 0.87884 0.0
C526 C 0.29214 0.78305 0.86727 0.0
C527 C 0.30241 0.8162 0.87058 0.0
C528 C 0.32045 0.82369 0.88605 0.0
H529 H 0.50674 0.14478 0.09178 0.0
H530 H 0.42798 0.09005 0.11813 0.0
H531 H 0.45736 0.09692 0.14651 0.0
H532 H 0.57397 0.10812 0.11688 0.0
H533 H 0.59841 0.14591 0.11714 0.0
H534 H 0.57042 0.1377 0.09913 0.0
H535 H 0.54128 0.19451 0.10471 0.0
H536 H 0.56899 0.20273 0.12284 0.0
H537 H 0.52451 0.20356 0.12618 0.0
H538 H 0.49414 0.11293 0.17244 0.0
H539 H 0.53955 0.12923 0.19295 0.0
H540 H 0.59645 0.16831 0.14914 0.0
C541 C 0.49577 0.1342 0.10353 0.0
C542 C 0.46505 0.117 0.1028 0.0
C543 C 0.4516 0.10317 0.1184 0.0
C544 C 0.46797 0.10716 0.13459 0.0
C545 C 0.4981 0.12452 0.13491 0.0
C546 C 0.5122 0.13722 0.11973 0.0
C547 C 0.54565 0.15328 0.12348 0.0
C548 C 0.57377 0.13516 0.11357 0.0
C549 C 0.54505 0.19074 0.11904 0.0
C550 C 0.54812 0.14774 0.14314 0.0
C551 C 0.52016 0.13172 0.14958 0.0
C552 C 0.51631 0.12514 0.1675 0.0
C553 C 0.54204 0.13459 0.17906 0.0
C554 C 0.5714 0.14968 0.17254 0.0
C555 C 0.57431 0.15644 0.15439 0.0
H556 H 0.1353 0.73025 0.17048 0.0
H557 H 0.22245 0.78047 0.14942 0.0
H558 H 0.23246 0.73255 0.12957 0.0
H559 H 0.16883 0.64364 0.16742 0.0
H560 H 0.12883 0.62682 0.1612 0.0
H561 H 0.1311 0.66292 0.17536 0.0
H562 H 0.0937 0.69593 0.15381 0.0
H563 H 0.09143 0.65996 0.13968 0.0
H564 H 0.10584 0.69929 0.13104 0.0
H565 H 0.22872 0.68257 0.10946 0.0
H566 H 0.209 0.6377 0.08962 0.0
H567 H 0.12538 0.61924 0.12411 0.0
C568 C 0.15685 0.73101 0.16192 0.0
C569 C 0.17814 0.75922 0.16159 0.0
C570 C 0.2058 0.7592 0.14999 0.0
C571 C 0.21183 0.73194 0.13874 0.0
C572 C 0.19023 0.70462 0.13935 0.0
C573 C 0.16328 0.704 0.15066 0.0
C574 C 0.14208 0.67316 0.14769 0.0
C575 C 0.14276 0.65028 0.16389 0.0
C576 C 0.10615 0.68272 0.14276 0.0
C577 C 0.16025 0.65729 0.13233 0.0
C578 C 0.18845 0.6754 0.12796 0.0
C579 C 0.20727 0.66767 0.11307 0.0
C580 C 0.19614 0.6419 0.10196 0.0
C581 C 0.16656 0.62411 0.10579 0.0
C582 C 0.14904 0.63126 0.12144 0.0
H583 H 0.45412 0.86328 0.39642 0.0
H584 H 0.42189 0.96513 0.38745 0.0
H585 H 0.45805 0.96789 0.36097 0.0
H586 H 0.53739 0.87312 0.38483 0.0
H587 H 0.54131 0.83307 0.37418 0.0
H588 H 0.51117 0.83876 0.39143 0.0
H589 H 0.46413 0.81866 0.37058 0.0
H590 H 0.49422 0.81279 0.35325 0.0
H591 H 0.45834 0.839 0.34968 0.0
H592 H 0.50407 0.9614 0.33801 0.0
H593 H 0.55191 0.94462 0.3192 0.0
H594 H 0.54942 0.8456 0.34184 0.0
C595 C 0.45439 0.88607 0.38877 0.0
C596 C 0.4355 0.91412 0.39398 0.0
C597 C 0.43619 0.94338 0.38359 0.0
C598 C 0.45664 0.94513 0.36858 0.0
C599 C 0.47547 0.91711 0.36396 0.0
C600 C 0.47398 0.88793 0.37362 0.0
C601 C 0.49708 0.86151 0.36627 0.0
C602 C 0.52328 0.85103 0.37999 0.0
C603 C 0.47725 0.8312 0.35954 0.0
C604 C 0.51275 0.88064 0.35127 0.0
C605 C 0.50011 0.91273 0.35013 0.0
C606 C 0.51342 0.93607 0.33844 0.0
C607 C 0.54047 0.92641 0.32782 0.0
C608 C 0.55331 0.89361 0.32877 0.0
C609 C 0.53901 0.87042 0.34045 0.0
H610 H 0.39446 0.1963 0.65151 0.0
H611 H 0.29041 0.22037 0.66028 0.0
H612 H 0.29276 0.26194 0.63629 0.0
H613 H 0.4254 0.2749 0.64169 0.0
H614 H 0.45211 0.26249 0.62377 0.0
H615 H 0.44192 0.23305 0.64078 0.0
H616 H 0.41689 0.19098 0.61737 0.0
H617 H 0.43084 0.22024 0.60095 0.0
H618 H 0.38797 0.20672 0.60147 0.0
H619 H 0.30783 0.30459 0.61374 0.0
H620 H 0.3336 0.34362 0.59266 0.0
H621 H 0.42694 0.2895 0.59623 0.0
C622 C 0.37218 0.21023 0.64825 0.0
C623 C 0.34228 0.20551 0.65783 0.0
C624 C 0.31348 0.22371 0.65309 0.0
C625 C 0.3146 0.24731 0.63948 0.0
C626 C 0.34447 0.25166 0.63037 0.0
C627 C 0.37256 0.23314 0.63425 0.0
C628 C 0.40129 0.24255 0.62217 0.0
C629 C 0.43198 0.25393 0.63274 0.0
C630 C 0.40981 0.21343 0.60976 0.0
C631 C 0.38579 0.2711 0.61192 0.0
C632 C 0.35277 0.27543 0.61667 0.0
C633 C 0.33346 0.30106 0.60969 0.0
C634 C 0.34831 0.32311 0.59774 0.0
C635 C 0.38207 0.3193 0.59266 0.0
C636 C 0.40088 0.29253 0.59961 0.0
H637 H 0.05781 0.13703 0.90154 0.0
H638 H 0.0736 0.03226 0.88974 0.0
H639 H 0.03648 0.03714 0.86384 0.0
H640 H 0.97328 0.14239 0.89009 0.0
H641 H 0.9764 0.18311 0.8801 0.0
H642 H 0.0051 0.17129 0.89714 0.0
H643 H 0.0544 0.18446 0.8763 0.0
H644 H 0.02565 0.1959 0.85912 0.0
H645 H 0.0567 0.16425 0.85514 0.0
H646 H 0.99247 0.05194 0.84164 0.0
H647 H 0.9476 0.07647 0.82342 0.0
H648 H 0.96448 0.1729 0.84771 0.0
C649 C 0.05348 0.11517 0.89344 0.0
C650 C 0.06815 0.08413 0.89769 0.0
C651 C 0.06248 0.05619 0.88668 0.0
C652 C 0.04151 0.05878 0.87196 0.0
C653 C 0.02721 0.08971 0.86818 0.0
C654 C 0.03337 0.11755 0.87844 0.0
C655 C 0.01483 0.14783 0.87157 0.0
C656 C 0.99098 0.16195 0.88556 0.0
C657 C 0.03936 0.17469 0.86514 0.0
C658 C 0.99593 0.13231 0.85633 0.0
C659 C 0.00356 0.09876 0.85458 0.0
C660 C 0.98694 0.07833 0.84257 0.0
C661 C 0.96156 0.09241 0.83229 0.0
C662 C 0.95346 0.12663 0.83387 0.0
C663 C 0.97121 0.14694 0.84582 0.0
H664 H 0.8956 0.65962 0.60963 0.0
H665 H 0.88494 0.72317 0.56394 0.0
H666 H 0.87102 0.77111 0.58351 0.0
H667 H 0.83095 0.6942 0.63617 0.0
H668 H 0.85428 0.69106 0.65635 0.0
H669 H 0.86207 0.66208 0.63869 0.0
H670 H 0.92463 0.67826 0.6387 0.0
H671 H 0.91715 0.70701 0.65649 0.0
H672 H 0.9363 0.72153 0.63647 0.0
H673 H 0.8555 0.81124 0.60875 0.0
H674 H 0.84832 0.84173 0.63692 0.0
H675 H 0.87424 0.75192 0.66555 0.0
C676 C 0.8902 0.68365 0.60374 0.0
C677 C 0.89082 0.68781 0.58533 0.0
C678 C 0.88444 0.71964 0.57805 0.0
C679 C 0.87636 0.74683 0.58906 0.0
C680 C 0.87554 0.74174 0.60725 0.0
C681 C 0.88301 0.71101 0.61449 0.0
C682 C 0.88252 0.71217 0.63437 0.0
C683 C 0.85586 0.68847 0.64182 0.0
C684 C 0.91721 0.70429 0.64195 0.0
C685 C 0.87318 0.74832 0.63731 0.0
C686 C 0.86872 0.76495 0.62155 0.0
C687 C 0.8592 0.79846 0.62112 0.0
C688 C 0.85492 0.81551 0.63717 0.0
C689 C 0.86077 0.79916 0.65337 0.0
C690 C 0.86972 0.76508 0.65335 0.0
H691 H 0.0771 0.10235 0.36189 0.0
H692 H 0.01478 0.0887 0.3159 0.0
H693 H 0.96687 0.07479 0.33506 0.0
H694 H 0.0377 0.0385 0.39054 0.0
H695 H 0.04102 0.06467 0.40976 0.0
H696 H 0.07151 0.06798 0.39244 0.0
H697 H 0.05935 0.13135 0.38986 0.0
H698 H 0.02885 0.12823 0.4071 0.0
H699 H 0.0172 0.14517 0.38604 0.0
H700 H 0.92464 0.06657 0.35942 0.0
H701 H 0.89097 0.06922 0.38669 0.0
H702 H 0.98036 0.09194 0.41652 0.0
C703 C 0.05363 0.09536 0.35588 0.0
C704 C 0.04972 0.09589 0.33744 0.0
C705 C 0.0183 0.08801 0.33002 0.0
C706 C 0.99102 0.08 0.34079 0.0
C707 C 0.99545 0.08039 0.35898 0.0
C708 C 0.02596 0.08808 0.36646 0.0
C709 C 0.02327 0.09069 0.38628 0.0
C710 C 0.04464 0.06385 0.39528 0.0
C711 C 0.03271 0.12595 0.39269 0.0
C712 C 0.98642 0.08386 0.38876 0.0
C713 C 0.97088 0.07731 0.37292 0.0
C714 C 0.93662 0.0714 0.37192 0.0
C715 C 0.91769 0.07287 0.38747 0.0
C716 C 0.93301 0.08077 0.40372 0.0
C717 C 0.9679 0.08577 0.40431 0.0
H718 H 0.63509 0.38201 0.13098 0.0
H719 H 0.70967 0.36495 0.09088 0.0
H720 H 0.72904 0.31451 0.10676 0.0
H721 H 0.68387 0.34895 0.16939 0.0
H722 H 0.6471 0.33036 0.17886 0.0
H723 H 0.64366 0.36801 0.16604 0.0
H724 H 0.60034 0.3389 0.14592 0.0
H725 H 0.60401 0.30105 0.15844 0.0
H726 H 0.61129 0.30039 0.13506 0.0
H727 H 0.73493 0.26197 0.12503 0.0
H728 H 0.72843 0.21317 0.14468 0.0
H729 H 0.64895 0.26464 0.1724 0.0
C730 C 0.65656 0.36848 0.12608 0.0
C731 C 0.67189 0.37782 0.11017 0.0
C732 C 0.69858 0.35865 0.10344 0.0
C733 C 0.70951 0.32991 0.1123 0.0
C734 C 0.69324 0.32069 0.12778 0.0
C735 C 0.66754 0.33965 0.1347 0.0
C736 C 0.65191 0.32272 0.15047 0.0
C737 C 0.65695 0.34376 0.16718 0.0
C738 C 0.61471 0.31533 0.14727 0.0
C739 C 0.67224 0.2909 0.1511 0.0
C740 C 0.69614 0.29023 0.13802 0.0
C741 C 0.71664 0.26248 0.13549 0.0
C742 C 0.71269 0.23481 0.14667 0.0
C743 C 0.68832 0.23505 0.16015 0.0
C744 C 0.66806 0.26366 0.16235 0.0
H745 H 0.52964 0.86503 0.90387 0.0
H746 H 0.51911 0.97109 0.91399 0.0
H747 H 0.4747 0.9745 0.89158 0.0
H748 H 0.5172 0.86999 0.85653 0.0
H749 H 0.49453 0.83122 0.85541 0.0
H750 H 0.52514 0.8374 0.87238 0.0
H751 H 0.48039 0.82338 0.89552 0.0
H752 H 0.44879 0.81895 0.87884 0.0
H753 H 0.44317 0.84836 0.89663 0.0
H754 H 0.43227 0.96692 0.86818 0.0
H755 H 0.39136 0.94782 0.84605 0.0
H756 H 0.4304 0.84715 0.84978 0.0
C757 C 0.51737 0.88872 0.90157 0.0
C758 C 0.5271 0.91773 0.91083 0.0
C759 C 0.51147 0.94858 0.90716 0.0
C760 C 0.48648 0.9508 0.89439 0.0
C761 C 0.47787 0.922 0.88518 0.0
C762 C 0.49273 0.89152 0.88855 0.0
C763 C 0.47864 0.86455 0.87664 0.0
C764 C 0.50554 0.84993 0.86453 0.0
C765 C 0.46171 0.83713 0.88754 0.0
C766 C 0.45355 0.88463 0.86617 0.0
C767 C 0.45368 0.91775 0.87129 0.0
C768 C 0.43211 0.94111 0.86394 0.0
C769 C 0.40918 0.93013 0.85131 0.0
C770 C 0.40837 0.89628 0.846 0.0
C771 C 0.43125 0.87337 0.85327 0.0
H772 H 0.9123 0.27405 0.92597 0.0
H773 H 0.81054 0.30028 0.93885 0.0
H774 H 0.78989 0.25696 0.91825 0.0
H775 H 0.90003 0.26864 0.88184 0.0
H776 H 0.928 0.23423 0.87781 0.0
H777 H 0.93469 0.26113 0.89639 0.0
H778 H 0.93389 0.20987 0.91672 0.0
H779 H 0.92527 0.18204 0.89861 0.0
H780 H 0.89778 0.18303 0.91727 0.0
H781 H 0.78051 0.21491 0.89391 0.0
H782 H 0.78333 0.18162 0.86635 0.0
H783 H 0.89114 0.18775 0.86753 0.0
C784 C 0.88574 0.26948 0.925 0.0
C785 C 0.86289 0.28945 0.93435 0.0
C786 C 0.82827 0.2844 0.93209 0.0
C787 C 0.81639 0.25992 0.92043 0.0
C788 C 0.83953 0.24118 0.91094 0.0
C789 C 0.87353 0.2458 0.91305 0.0
C790 C 0.89308 0.226 0.89959 0.0
C791 C 0.91522 0.24887 0.88824 0.0
C792 C 0.91375 0.19863 0.9086 0.0
C793 C 0.86485 0.21096 0.88901 0.0
C794 C 0.83415 0.21894 0.89611 0.0
C795 C 0.80443 0.20829 0.88832 0.0
C796 C 0.80619 0.18944 0.87272 0.0
C797 C 0.83739 0.18245 0.86492 0.0
C798 C 0.86697 0.19298 0.87329 0.0
H799 H 0.41474 0.13426 0.65644 0.0
H800 H 0.45679 0.06993 0.69633 0.0
H801 H 0.49774 0.04809 0.67448 0.0
H802 H 0.4232 0.08405 0.61844 0.0
H803 H 0.43676 0.1181 0.6047 0.0
H804 H 0.41005 0.12616 0.62324 0.0
H805 H 0.45427 0.16832 0.63701 0.0
H806 H 0.47758 0.16182 0.617 0.0
H807 H 0.49697 0.1552 0.63806 0.0
H808 H 0.53574 0.03583 0.64764 0.0
H809 H 0.56891 0.03777 0.6201 0.0
H810 H 0.50051 0.11161 0.59915 0.0
C811 C 0.43221 0.1151 0.66046 0.0
C812 C 0.43239 0.10302 0.67778 0.0
C813 C 0.45626 0.079 0.68293 0.0
C814 C 0.47942 0.0665 0.67062 0.0
C815 C 0.47855 0.07899 0.65347 0.0
C816 C 0.45584 0.10325 0.6486 0.0
C817 C 0.46199 0.1156 0.63019 0.0
C818 C 0.43116 0.11066 0.61845 0.0
C819 C 0.47333 0.15239 0.63055 0.0
C820 C 0.49031 0.09304 0.62489 0.0
C821 C 0.50014 0.07242 0.63848 0.0
C822 C 0.52794 0.05163 0.63688 0.0
C823 C 0.54654 0.05276 0.62116 0.0
C824 C 0.53713 0.0745 0.60734 0.0
C825 C 0.50814 0.09414 0.60923 0.0
H826 H 0.65148 0.77772 0.34439 0.0
H827 H 0.67718 0.8605 0.3787 0.0
H828 H 0.67496 0.82263 0.40436 0.0
H829 H 0.59419 0.73777 0.37263 0.0
H830 H 0.60684 0.69597 0.36686 0.0
H831 H 0.61169 0.72932 0.35124 0.0
H832 H 0.67464 0.71559 0.34853 0.0
H833 H 0.66984 0.6822 0.36419 0.0
H834 H 0.70014 0.71466 0.36804 0.0
H835 H 0.66406 0.77684 0.42651 0.0
H836 H 0.65011 0.72562 0.44318 0.0
H837 H 0.63608 0.6718 0.39424 0.0
C838 C 0.65694 0.78784 0.35729 0.0
C839 C 0.66442 0.82211 0.35957 0.0
C840 C 0.67156 0.83432 0.37664 0.0
C841 C 0.67027 0.81301 0.39129 0.0
C842 C 0.66242 0.77944 0.3886 0.0
C843 C 0.65637 0.76682 0.37198 0.0
C844 C 0.64833 0.72983 0.37264 0.0
C845 C 0.61317 0.72284 0.36542 0.0
C846 C 0.67483 0.70936 0.36277 0.0
C847 C 0.65006 0.72372 0.39227 0.0
C848 C 0.65802 0.7527 0.40127 0.0
C849 C 0.65849 0.75387 0.41959 0.0
C850 C 0.65049 0.72473 0.42894 0.0
C851 C 0.64272 0.69472 0.41997 0.0
C852 C 0.64289 0.69419 0.40141 0.0
H853 H 0.04135 0.8182 0.162 0.0
H854 H 0.08598 0.91483 0.17224 0.0
H855 H 0.04646 0.94112 0.15138 0.0
H856 H 0.03301 0.831 0.11581 0.0
H857 H 0.9944 0.8082 0.1139 0.0
H858 H 0.02365 0.79769 0.13095 0.0
H859 H 0.97761 0.8062 0.1544 0.0
H860 H 0.94826 0.81682 0.13738 0.0
H861 H 0.95547 0.84534 0.15535 0.0
H862 H 1.00133 0.95681 0.1296 0.0
H863 H 0.95911 0.9597 0.10582 0.0
H864 H 0.94851 0.852 0.10745 0.0
C865 C 0.04234 0.84496 0.16001 0.0
C866 C 0.06616 0.86474 0.16888 0.0
C867 C 0.06761 0.89946 0.16562 0.0
C868 C 0.04524 0.91455 0.15387 0.0
C869 C 0.02208 0.89439 0.14521 0.0
C870 C 0.02085 0.86024 0.14791 0.0
C871 C 0.99566 0.84382 0.1358 0.0
C872 C 0.01271 0.81871 0.12338 0.0
C873 C 0.96758 0.82707 0.14637 0.0
C874 C 0.98296 0.87404 0.12587 0.0
C875 C 0.99797 0.90306 0.13174 0.0
C876 C 0.98959 0.93422 0.12482 0.0
C877 C 0.96557 0.93567 0.11138 0.0
C878 C 0.95092 0.90609 0.10475 0.0
C879 C 0.95968 0.87497 0.11217 0.0
H880 H 0.60368 0.76942 0.84061 0.0
H881 H 0.70954 0.75316 0.83324 0.0
H882 H 0.72183 0.80486 0.84985 0.0
H883 H 0.60533 0.86125 0.8394 0.0
H884 H 0.57627 0.86695 0.85712 0.0
H885 H 0.57265 0.83102 0.84284 0.0
H886 H 0.57587 0.79028 0.86849 0.0
H887 H 0.57847 0.82407 0.88406 0.0
H888 H 0.61024 0.79243 0.88373 0.0
H889 H 0.72256 0.85629 0.86983 0.0
H890 H 0.71112 0.89916 0.89283 0.0
H891 H 0.60544 0.87903 0.88817 0.0
C892 C 0.62935 0.7774 0.842 0.0
C893 C 0.65563 0.75768 0.83541 0.0
C894 C 0.68902 0.76816 0.83808 0.0
C895 C 0.69626 0.79755 0.84744 0.0
C896 C 0.66982 0.81612 0.8542 0.0
C897 C 0.63703 0.80632 0.85163 0.0
C898 C 0.61339 0.82822 0.86197 0.0
C899 C 0.59051 0.84797 0.84958 0.0
C900 C 0.59329 0.80752 0.87533 0.0
C901 C 0.63787 0.85119 0.87108 0.0
C902 C 0.67032 0.8445 0.86619 0.0
C903 C 0.69716 0.86197 0.87358 0.0
C904 C 0.69054 0.88634 0.88654 0.0
C905 C 0.65747 0.89235 0.89208 0.0
C906 C 0.63097 0.87497 0.884 0.0
H907 H 0.53339 0.35829 0.11169 0.0
H908 H 0.52205 0.46515 0.10504 0.0
H909 H 0.47968 0.46615 0.12866 0.0
H910 H 0.448 0.33744 0.12179 0.0
H911 H 0.45984 0.30722 0.13824 0.0
H912 H 0.48745 0.31606 0.12023 0.0
H913 H 0.53346 0.32893 0.14336 0.0
H914 H 0.50461 0.32196 0.16114 0.0
H915 H 0.52647 0.36117 0.15951 0.0
H916 H 0.43688 0.45531 0.15159 0.0
H917 H 0.39595 0.43336 0.17288 0.0
H918 H 0.43753 0.33407 0.16683 0.0
C919 C 0.52154 0.38172 0.11511 0.0
C920 C 0.53029 0.4116 0.10641 0.0
C921 C 0.51524 0.44203 0.11149 0.0
C922 C 0.49134 0.44283 0.12492 0.0
C923 C 0.48343 0.41308 0.13342 0.0
C924 C 0.4982 0.38311 0.12885 0.0
C925 C 0.48576 0.355 0.1405 0.0
C926 C 0.46924 0.32732 0.12951 0.0
C927 C 0.51427 0.34095 0.1518 0.0
C928 C 0.46051 0.37358 0.15175 0.0
C929 C 0.4599 0.40714 0.1475 0.0
C930 C 0.43743 0.42921 0.15524 0.0
C931 C 0.41434 0.41656 0.16734 0.0
C932 C 0.41409 0.38226 0.17174 0.0
C933 C 0.43792 0.36061 0.1641 0.0
H934 H 0.92536 0.21096 0.41782 0.0
H935 H 0.82922 0.20628 0.44357 0.0
H936 H 0.80897 0.25293 0.42509 0.0
H937 H 0.92739 0.30291 0.40935 0.0
H938 H 0.94582 0.29723 0.38795 0.0
H939 H 0.95465 0.26793 0.40529 0.0
H940 H 0.93461 0.21949 0.3853 0.0
H941 H 0.9255 0.24863 0.36799 0.0
H942 H 0.89336 0.22102 0.37592 0.0
H943 H 0.79783 0.29679 0.40213 0.0
H944 H 0.79598 0.33295 0.37578 0.0
H945 H 0.89819 0.30584 0.36366 0.0
C946 C 0.90054 0.22078 0.41998 0.0
C947 C 0.87905 0.20601 0.4324 0.0
C948 C 0.84614 0.21805 0.43435 0.0
C949 C 0.83447 0.24442 0.42391 0.0
C950 C 0.85594 0.25803 0.41141 0.0
C951 C 0.88829 0.24661 0.40938 0.0
C952 C 0.90496 0.26273 0.39366 0.0
C953 C 0.93498 0.28396 0.39942 0.0
C954 C 0.91519 0.23639 0.37991 0.0
C955 C 0.87678 0.28445 0.38699 0.0
C956 C 0.84891 0.28187 0.39757 0.0
C957 C 0.81958 0.29917 0.39381 0.0
C958 C 0.81872 0.31959 0.37881 0.0
C959 C 0.84681 0.32203 0.36762 0.0
C960 C 0.8762 0.3043 0.37189 0.0
H961 H 0.0835 0.60584 0.65445 0.0
H962 H 0.01907 0.59697 0.69996 0.0
H963 H 0.97325 0.57701 0.68084 0.0
H964 H 0.02345 0.6407 0.6275 0.0
H965 H 0.03725 0.62072 0.60754 0.0
H966 H 0.06644 0.62846 0.62501 0.0
H967 H 0.08192 0.56571 0.62576 0.0
H968 H 0.05282 0.55765 0.60819 0.0
H969 H 0.04955 0.53491 0.62855 0.0
H970 H 0.93318 0.56234 0.65637 0.0
H971 H 0.90118 0.55902 0.62858 0.0
H972 H 0.99131 0.58081 0.59922 0.0
C973 C 0.06006 0.59868 0.66043 0.0
C974 C 0.0549 0.60229 0.67868 0.0
C975 C 0.02352 0.594 0.686 0.0
C976 C 0.99745 0.58253 0.67526 0.0
C977 C 0.00311 0.57984 0.65723 0.0
C978 C 0.03362 0.58789 0.64987 0.0
C979 C 0.03219 0.58678 0.63 0.0
C980 C 0.04028 0.6212 0.62206 0.0
C981 C 0.05551 0.55964 0.6227 0.0
C982 C 0.99597 0.57752 0.62731 0.0
C983 C 0.97972 0.57291 0.64314 0.0
C984 C 0.94573 0.56555 0.64389 0.0
C985 C 0.92778 0.56358 0.62806 0.0
C986 C 0.94379 0.56957 0.61178 0.0
C987 C 0.97842 0.57596 0.61147 0.0
H988 H 0.63493 0.19092 0.60815 0.0
H989 H 0.53098 0.20492 0.59428 0.0
H990 H 0.52268 0.23938 0.62082 0.0
H991 H 0.62498 0.1874 0.65493 0.0
H992 H 0.66181 0.21148 0.65984 0.0
H993 H 0.65982 0.18706 0.63995 0.0
H994 H 0.67254 0.23975 0.62137 0.0
H995 H 0.67509 0.26419 0.64123 0.0
H996 H 0.64684 0.27636 0.62397 0.0
H997 H 0.52479 0.26998 0.64961 0.0
H998 H 0.53917 0.30208 0.67634 0.0
H999 H 0.64274 0.27302 0.67045 0.0
C1000 C 0.61057 0.20156 0.61066 0.0
C1001 C 0.58364 0.19543 0.59911 0.0
C1002 C 0.55208 0.20973 0.60281 0.0
C1003 C 0.54703 0.22908 0.61795 0.0
C1004 C 0.57395 0.23451 0.62915 0.0
C1005 C 0.60529 0.22186 0.62551 0.0
C1006 C 0.6303 0.23306 0.6393 0.0
C1007 C 0.6451 0.20295 0.64908 0.0
C1008 C 0.65782 0.25463 0.63097 0.0
C1009 C 0.60805 0.25366 0.65128 0.0
C1010 C 0.57551 0.25364 0.64534 0.0
C1011 C 0.55023 0.27032 0.65436 0.0
C1012 C 0.55856 0.28824 0.66962 0.0
C1013 C 0.592 0.28989 0.67553 0.0
C1014 C 0.61695 0.27208 0.66627 0.0
H1015 H 0.06477 0.32894 0.85903 0.0
H1016 H 0.04204 0.40897 0.8228 0.0
H1017 H 0.99364 0.42536 0.84127 0.0
H1018 H 0.97735 0.308 0.87136 0.0
H1019 H 0.98881 0.30013 0.89388 0.0
H1020 H 0.01837 0.29244 0.8765 0.0
H1021 H 0.06081 0.33121 0.89221 0.0
H1022 H 0.03112 0.3395 0.9094 0.0
H1023 H 0.04915 0.37364 0.89725 0.0
H1024 H 0.95057 0.43533 0.86504 0.0
H1025 H 0.91561 0.4378 0.89178 0.0
H1026 H 0.96816 0.35201 0.91287 0.0
C1027 C 0.04883 0.3492 0.85475 0.0
C1028 C 0.05623 0.36726 0.83935 0.0
C1029 C 0.03597 0.39447 0.83437 0.0
C1030 C 0.00864 0.40395 0.84481 0.0
C1031 C 1.00225 0.386 0.86018 0.0
C1032 C 0.02165 0.35902 0.86506 0.0
C1033 C 0.01111 0.34536 0.88278 0.0
C1034 C 0.99813 0.30935 0.88101 0.0
C1035 C 0.03975 0.34758 0.89619 0.0
C1036 C 0.9832 0.36931 0.88731 0.0
C1037 C 0.97821 0.39234 0.87405 0.0
C1038 C 0.95411 0.41728 0.87544 0.0
C1039 C 0.93445 0.41855 0.89071 0.0
C1040 C 0.93921 0.39522 0.90448 0.0
C1041 C 0.96399 0.37035 0.90266 0.0
H1042 H 0.89435 0.78125 0.08845 0.0
H1043 H 0.80178 0.83603 0.08358 0.0
H1044 H 0.77508 0.79793 0.10508 0.0
H1045 H 0.85961 0.69742 0.09645 0.0
H1046 H 0.89005 0.68742 0.11301 0.0
H1047 H 0.90095 0.71495 0.09516 0.0
H1048 H 0.91905 0.7604 0.11705 0.0
H1049 H 0.90817 0.73445 0.13547 0.0
H1050 H 0.89 0.77531 0.13336 0.0
H1051 H 0.75979 0.75529 0.12865 0.0
H1052 H 0.75931 0.71617 0.15405 0.0
H1053 H 0.86371 0.69444 0.14501 0.0
C1054 C 0.86814 0.78439 0.09147 0.0
C1055 C 0.84971 0.81079 0.08412 0.0
C1056 C 0.81597 0.81542 0.08895 0.0
C1057 C 0.80065 0.7939 0.10107 0.0
C1058 C 0.81972 0.76838 0.10843 0.0
C1059 C 0.85285 0.76381 0.10389 0.0
C1060 C 0.86925 0.73777 0.11533 0.0
C1061 C 0.88065 0.70761 0.10433 0.0
C1062 C 0.89833 0.7529 0.12591 0.0
C1063 C 0.8404 0.72868 0.12713 0.0
C1064 C 0.81175 0.7459 0.12276 0.0
C1065 C 0.78207 0.74161 0.13214 0.0
C1066 C 0.78194 0.71944 0.14648 0.0
C1067 C 0.81153 0.7028 0.15143 0.0
C1068 C 0.84085 0.70723 0.14151 0.0
H1069 H 0.55603 0.63494 0.39295 0.0
H1070 H 0.56464 0.52713 0.39506 0.0
H1071 H 0.52353 0.52201 0.3709 0.0
H1072 H 0.47099 0.64042 0.38505 0.0
H1073 H 0.47359 0.67472 0.36976 0.0
H1074 H 0.50519 0.66958 0.38629 0.0
H1075 H 0.5503 0.66894 0.36198 0.0
H1076 H 0.51869 0.67367 0.34534 0.0
H1077 H 0.54742 0.63913 0.34426 0.0
H1078 H 0.47544 0.52878 0.35 0.0
H1079 H 0.42725 0.54711 0.33207 0.0
H1080 H 0.45445 0.65039 0.34102 0.0
C1081 C 0.54945 0.61031 0.38816 0.0
C1082 C 0.56311 0.58137 0.39587 0.0
C1083 C 0.55435 0.54954 0.38924 0.0
C1084 C 0.53112 0.54643 0.37554 0.0
C1085 C 0.51776 0.57546 0.3683 0.0
C1086 C 0.5271 0.60682 0.37414 0.0
C1087 C 0.50857 0.63401 0.36438 0.0
C1088 C 0.48839 0.65595 0.37714 0.0
C1089 C 0.53269 0.65518 0.35333 0.0
C1090 C 0.48604 0.61306 0.3528 0.0
C1091 C 0.49178 0.57931 0.35521 0.0
C1092 C 0.4714 0.55508 0.34756 0.0
C1093 C 0.44415 0.56564 0.33741 0.0
C1094 C 0.43803 0.60002 0.33478 0.0
C1095 C 0.4596 0.62395 0.34226 0.0
H1096 H 0.40246 0.23817 0.08419 0.0
H1097 H 0.31541 0.17572 0.07676 0.0
H1098 H 0.28325 0.21214 0.09707 0.0
H1099 H 0.39136 0.24414 0.12889 0.0
H1100 H 0.4061 0.28621 0.13169 0.0
H1101 H 0.42179 0.26106 0.11388 0.0
H1102 H 0.4039 0.304 0.09074 0.0
H1103 H 0.38952 0.33127 0.10802 0.0
H1104 H 0.36165 0.31935 0.09051 0.0
H1105 H 0.26191 0.25416 0.11985 0.0
H1106 H 0.2558 0.29289 0.14528 0.0
H1107 H 0.35871 0.32332 0.13923 0.0
C1108 C 0.3763 0.23286 0.0864 0.0
C1109 C 0.361 0.20484 0.07862 0.0
C1110 C 0.32727 0.19752 0.08245 0.0
C1111 C 0.30886 0.21811 0.09388 0.0
C1112 C 0.32484 0.24546 0.10158 0.0
C1113 C 0.35799 0.25251 0.09812 0.0
C1114 C 0.37098 0.27999 0.10991 0.0
C1115 C 0.39925 0.26706 0.12177 0.0
C1116 C 0.38217 0.31045 0.09914 0.0
C1117 C 0.34003 0.28758 0.12049 0.0
C1118 C 0.3134 0.26791 0.11535 0.0
C1119 C 0.28255 0.26985 0.12385 0.0
C1120 C 0.27919 0.29192 0.13818 0.0
C1121 C 0.30674 0.31104 0.14393 0.0
C1122 C 0.33724 0.30912 0.13484 0.0
H1123 H 0.467 0.61508 0.90265 0.0
H1124 H 0.52639 0.59896 0.94936 0.0
H1125 H 0.57753 0.59604 0.93111 0.0
H1126 H 0.51755 0.56346 0.87166 0.0
H1127 H 0.51225 0.59297 0.85401 0.0
H1128 H 0.48015 0.58828 0.87041 0.0
H1129 H 0.48308 0.65173 0.87702 0.0
H1130 H 0.51527 0.65656 0.86076 0.0
H1131 H 0.52248 0.6702 0.88303 0.0
H1132 H 0.62292 0.59993 0.90777 0.0
H1133 H 0.65815 0.61265 0.8818 0.0
H1134 H 0.56882 0.62874 0.85079 0.0
C1135 C 0.49067 0.60972 0.90888 0.0
C1136 C 0.49286 0.60621 0.92728 0.0
C1137 C 0.52433 0.60087 0.93519 0.0
C1138 C 0.55344 0.59924 0.92493 0.0
C1139 C 0.55068 0.60342 0.90679 0.0
C1140 C 0.52004 0.60857 0.89883 0.0
C1141 C 0.52414 0.61584 0.87941 0.0
C1142 C 0.50754 0.5885 0.86821 0.0
C1143 C 0.51044 0.65065 0.8748 0.0
C1144 C 0.56178 0.61465 0.87775 0.0
C1145 C 0.57673 0.60695 0.89357 0.0
C1146 C 0.61142 0.60569 0.89527 0.0
C1147 C 0.63127 0.61291 0.88045 0.0
C1148 C 0.61636 0.62175 0.86425 0.0
C1149 C 0.58113 0.62209 0.86296 0.0
H1150 H 0.10498 0.69564 0.65277 0.0
H1151 H 0.21162 0.70572 0.66036 0.0
H1152 H 0.21433 0.74539 0.63545 0.0
H1153 H 0.10922 0.69819 0.6044 0.0
H1154 H 0.07036 0.72044 0.60239 0.0
H1155 H 0.07688 0.69243 0.62058 0.0
H1156 H 0.06371 0.73986 0.64263 0.0
H1157 H 0.0566 0.76771 0.62451 0.0
H1158 H 0.08654 0.77852 0.64129 0.0
H1159 H 0.20423 0.78801 0.61185 0.0
H1160 H 0.18279 0.82769 0.58965 0.0
H1161 H 0.08369 0.78587 0.59554 0.0
C1162 C 0.12886 0.70624 0.64912 0.0
C1163 C 0.15807 0.69814 0.65851 0.0
C1164 C 0.18902 0.71183 0.65327 0.0
C1165 C 0.19076 0.73429 0.63917 0.0
C1166 C 0.16146 0.74195 0.63019 0.0
C1167 C 0.13119 0.7279 0.63476 0.0
C1168 C 0.10349 0.74001 0.62284 0.0
C1169 C 0.08916 0.71104 0.6119 0.0
C1170 C 0.07598 0.75761 0.63346 0.0
C1171 C 0.12263 0.7643 0.61139 0.0
C1172 C 0.15606 0.76496 0.61581 0.0
C1173 C 0.17827 0.78724 0.60799 0.0
C1174 C 0.16592 0.80966 0.59544 0.0
C1175 C 0.13183 0.80927 0.59068 0.0
C1176 C 0.11008 0.78596 0.59858 0.0
H1177 H 0.06948 0.36863 0.39793 0.0
H1178 H 0.0618 0.47375 0.41089 0.0
H1179 H 0.01896 0.48086 0.38767 0.0
H1180 H 0.06042 0.38074 0.34995 0.0
H1181 H 0.038 0.34201 0.34737 0.0
H1182 H 0.0686 0.34637 0.36456 0.0
H1183 H 0.02378 0.32933 0.38756 0.0
H1184 H 0.9933 0.32545 0.37034 0.0
H1185 H 0.98541 0.35266 0.38878 0.0
H1186 H 0.97204 0.47428 0.3656 0.0
H1187 H 0.92891 0.45592 0.34428 0.0
H1188 H 0.97241 0.35692 0.34344 0.0
C1189 C 0.05886 0.39315 0.39575 0.0
C1190 C 0.06846 0.42064 0.40618 0.0
C1191 C 0.05457 0.45248 0.40294 0.0
C1192 C 0.0303 0.45669 0.38982 0.0
C1193 C 0.0211 0.42898 0.37979 0.0
C1194 C 0.03547 0.39798 0.38236 0.0
C1195 C 0.02153 0.3723 0.36974 0.0
C1196 C 0.04876 0.35961 0.35716 0.0
C1197 C 0.00502 0.34324 0.37971 0.0
C1198 C 0.99605 0.39333 0.36014 0.0
C1199 C 0.99603 0.42594 0.36615 0.0
C1200 C 0.97241 0.44909 0.36044 0.0
C1201 C 0.94805 0.43852 0.34837 0.0
C1202 C 0.94808 0.40539 0.34192 0.0
C1203 C 0.97267 0.38275 0.3477 0.0
H1204 H 0.38852 0.68296 0.36649 0.0
H1205 H 0.28316 0.6694 0.37695 0.0
H1206 H 0.2867 0.71059 0.40128 0.0
H1207 H 0.41258 0.69343 0.41411 0.0
H1208 H 0.44512 0.72236 0.40813 0.0
H1209 H 0.43318 0.68942 0.39322 0.0
H1210 H 0.42349 0.73476 0.36916 0.0
H1211 H 0.43376 0.76728 0.38456 0.0
H1212 H 0.3941 0.76787 0.37343 0.0
H1213 H 0.30039 0.75915 0.4213 0.0
H1214 H 0.32412 0.8076 0.43729 0.0
H1215 H 0.42163 0.7856 0.41577 0.0
C1216 C 0.36631 0.68837 0.37409 0.0
C1217 C 0.33548 0.6733 0.36985 0.0
C1218 C 0.30699 0.68066 0.38009 0.0
C1219 C 0.3088 0.704 0.39389 0.0
C1220 C 0.33951 0.71892 0.39754 0.0
C1221 C 0.36791 0.71084 0.38817 0.0
C1222 C 0.39775 0.73072 0.39453 0.0
C1223 C 0.42372 0.70763 0.40301 0.0
C1224 C 0.41315 0.75138 0.37952 0.0
C1225 C 0.38137 0.75274 0.40821 0.0
C1226 C 0.34778 0.7454 0.40985 0.0
C1227 C 0.3268 0.76446 0.42049 0.0
C1228 C 0.34043 0.79187 0.42951 0.0
C1229 C 0.37474 0.79953 0.42807 0.0
C1230 C 0.39555 0.77941 0.41753 0.0
H1231 H 0.03527 0.667 0.10432 0.0
H1232 H 0.00583 0.574 0.07957 0.0
H1233 H 0.96092 0.567 0.10148 0.0
H1234 H 0.02653 0.63971 0.14705 0.0
H1235 H 0.00916 0.67713 0.15659 0.0
H1236 H 0.03549 0.68005 0.13755 0.0
H1237 H 0.99175 0.71072 0.11967 0.0
H1238 H 0.96491 0.71071 0.13865 0.0
H1239 H 0.95023 0.69399 0.118 0.0
H1240 H 0.92165 0.5681 0.12688 0.0
H1241 H 0.88929 0.57807 0.15407 0.0
H1242 H 0.94612 0.66848 0.16368 0.0
C1243 C 0.01852 0.64587 0.10322 0.0
C1244 C 0.02327 0.62139 0.09007 0.0
C1245 C 1.00199 0.59324 0.0894 0.0
C1246 C 0.97656 0.58902 0.10181 0.0
C1247 C 0.973 0.613 0.11495 0.0
C1248 C 0.99321 0.64099 0.11573 0.0
C1249 C 0.98542 0.66168 0.13196 0.0
C1250 C 0.01599 0.66473 0.14402 0.0
C1251 C 0.97225 0.69632 0.12676 0.0
C1252 C 0.95835 0.6405 0.14032 0.0
C1253 C 0.95129 0.61279 0.13015 0.0
C1254 C 0.92695 0.58969 0.13499 0.0
C1255 C 0.90887 0.5954 0.15049 0.0
C1256 C 0.91568 0.6236 0.16113 0.0
C1257 C 0.94098 0.64623 0.15602 0.0
H1258 H 0.1715 0.26648 0.85666 0.0
H1259 H 0.17051 0.35406 0.89022 0.0
H1260 H 0.16362 0.31764 0.91637 0.0
H1261 H 0.10955 0.22275 0.87818 0.0
H1262 H 0.12819 0.18215 0.87536 0.0
H1263 H 0.13668 0.21475 0.85976 0.0
H1264 H 0.20023 0.20839 0.86503 0.0
H1265 H 0.19209 0.1753 0.88047 0.0
H1266 H 0.21643 0.21102 0.8871 0.0
H1267 H 0.14885 0.27097 0.93823 0.0
H1268 H 0.13384 0.21856 0.95382 0.0
H1269 H 0.14793 0.16301 0.9054 0.0
C1270 C 0.17061 0.27798 0.86956 0.0
C1271 C 0.17164 0.31296 0.87151 0.0
C1272 C 0.1702 0.3272 0.88854 0.0
C1273 C 0.16609 0.30673 0.90341 0.0
C1274 C 0.16411 0.27221 0.90094 0.0
C1275 C 0.16698 0.25803 0.88442 0.0
C1276 C 0.16273 0.2206 0.88497 0.0
C1277 C 0.1325 0.20943 0.87392 0.0
C1278 C 0.19479 0.20278 0.87905 0.0
C1279 C 0.15646 0.21579 0.90435 0.0
C1280 C 0.15706 0.24571 0.91343 0.0
C1281 C 0.14908 0.24734 0.9313 0.0
C1282 C 0.14047 0.21757 0.94003 0.0
C1283 C 0.14037 0.18676 0.93088 0.0
C1284 C 0.14868 0.18606 0.91287 0.0
H1285 H 0.5054 0.38729 0.59998 0.0
H1286 H 0.46253 0.48202 0.61604 0.0
H1287 H 0.51007 0.49113 0.63622 0.0
H1288 H 0.53146 0.36295 0.64208 0.0
H1289 H 0.56878 0.34242 0.63452 0.0
H1290 H 0.53335 0.34573 0.62019 0.0
H1291 H 0.57079 0.37442 0.59681 0.0
H1292 H 0.60615 0.3718 0.61137 0.0
H1293 H 0.59362 0.41165 0.60259 0.0
H1294 H 0.55915 0.48714 0.65675 0.0
H1295 H 0.60212 0.46773 0.67773 0.0
H1296 H 0.6135 0.37646 0.64789 0.0
C1297 C 0.50622 0.41023 0.60753 0.0
C1298 C 0.48034 0.4341 0.60632 0.0
C1299 C 0.48207 0.46342 0.61672 0.0
C1300 C 0.50913 0.46893 0.6281 0.0
C1301 C 0.53427 0.44489 0.62893 0.0
C1302 C 0.53285 0.41597 0.61902 0.0
C1303 C 0.56124 0.39254 0.62352 0.0
C1304 C 0.54791 0.35896 0.6305 0.0
C1305 C 0.58432 0.38731 0.60762 0.0
C1306 C 0.57848 0.41244 0.63782 0.0
C1307 C 0.56288 0.44282 0.64059 0.0
C1308 C 0.57215 0.46389 0.65439 0.0
C1309 C 0.59685 0.45293 0.66612 0.0
C1310 C 0.61209 0.42141 0.66386 0.0
C1311 C 0.60352 0.40148 0.64925 0.0
H1312 H 0.30451 0.2625 0.23936 0.0
H1313 H 0.22965 0.307 0.20537 0.0
H1314 H 0.18578 0.27633 0.2209 0.0
H1315 H 0.26433 0.18057 0.24278 0.0
H1316 H 0.27511 0.17507 0.2656 0.0
H1317 H 0.30155 0.19966 0.2515 0.0
H1318 H 0.29633 0.2497 0.27295 0.0
H1319 H 0.26977 0.2253 0.28707 0.0
H1320 H 0.25553 0.26497 0.27881 0.0
H1321 H 0.14951 0.24326 0.24019 0.0
H1322 H 0.12237 0.20755 0.2622 0.0
H1323 H 0.21922 0.18295 0.28427 0.0
C1324 C 0.27892 0.2655 0.23512 0.0
C1325 C 0.27066 0.28729 0.22113 0.0
C1326 C 0.23679 0.29066 0.21606 0.0
C1327 C 0.21155 0.27328 0.22479 0.0
C1328 C 0.22037 0.25245 0.2386 0.0
C1329 C 0.25313 0.24824 0.24377 0.0
C1330 C 0.25523 0.22454 0.25932 0.0
C1331 C 0.27524 0.19309 0.25451 0.0
C1332 C 0.2701 0.24219 0.2755 0.0
C1333 C 0.21855 0.21644 0.26206 0.0
C1334 C 0.19904 0.2329 0.2499 0.0
C1335 C 0.16447 0.23007 0.24976 0.0
C1336 C 0.14928 0.20973 0.26237 0.0
C1337 C 0.16858 0.19235 0.27499 0.0
C1338 C 0.20375 0.19581 0.27478 0.0
H1339 H 0.05581 0.98161 0.53676 0.0
H1340 H 1.00145 0.89041 0.52497 0.0
H1341 H 0.96371 0.92207 0.50562 0.0
H1342 H 0.98426 0.03648 0.53757 0.0
H1343 H 0.00587 0.07084 0.52736 0.0
H1344 H 0.02862 0.04119 0.54049 0.0
H1345 H 0.06821 0.02955 0.51427 0.0
H1346 H 0.04557 0.05915 0.50106 0.0
H1347 H 0.05092 0.01685 0.49342 0.0
H1348 H 0.93232 0.96286 0.48746 0.0
H1349 H 0.90872 0.01047 0.47139 0.0
H1350 H 0.98304 0.07602 0.49467 0.0
C1351 C 0.03592 0.96829 0.53015 0.0
C1352 C 0.03161 0.93346 0.53241 0.0
C1353 C 0.0053 0.91702 0.52347 0.0
C1354 C 0.9837 0.93479 0.51245 0.0
C1355 C 0.98869 0.96901 0.51048 0.0
C1356 C 0.01409 0.98566 0.51906 0.0
C1357 C 0.01402 0.02256 0.5145 0.0
C1358 C 0.00781 0.04403 0.53096 0.0
C1359 C 0.04662 0.0326 0.50526 0.0
C1360 C 0.98463 0.02397 0.50198 0.0
C1361 C 0.97045 0.99275 0.49991 0.0
C1362 C 0.94316 0.98745 0.48898 0.0
C1363 C 0.92996 0.01475 0.47989 0.0
C1364 C 0.94397 0.04711 0.48173 0.0
C1365 C 0.97171 0.05168 0.49299 0.0
H1366 H 0.21823 0.6991 0.73213 0.0
H1367 H 0.11948 0.72733 0.75036 0.0
H1368 H 0.14468 0.76577 0.77184 0.0
H1369 H 0.25811 0.70093 0.77465 0.0
H1370 H 0.2967 0.71811 0.76654 0.0
H1371 H 0.27116 0.69262 0.75238 0.0
H1372 H 0.2694 0.74021 0.72938 0.0
H1373 H 0.29496 0.76584 0.74346 0.0
H1374 H 0.25519 0.7811 0.73592 0.0
H1375 H 0.17957 0.80076 0.79123 0.0
H1376 H 0.22255 0.83129 0.80764 0.0
H1377 H 0.29973 0.78133 0.7773 0.0
C1378 C 0.20192 0.71339 0.74063 0.0
C1379 C 0.16682 0.71015 0.73953 0.0
C1380 C 0.14639 0.72932 0.75091 0.0
C1381 C 0.16046 0.75125 0.76318 0.0
C1382 C 0.19502 0.75381 0.76394 0.0
C1383 C 0.21558 0.73551 0.75301 0.0
C1384 C 0.25202 0.74322 0.75665 0.0
C1385 C 0.27058 0.71185 0.76293 0.0
C1386 C 0.26888 0.75851 0.74038 0.0
C1387 C 0.2486 0.7687 0.77134 0.0
C1388 C 0.21544 0.7743 0.77528 0.0
C1389 C 0.20564 0.79664 0.78828 0.0
C1390 C 0.23036 0.81388 0.79754 0.0
C1391 C 0.26464 0.80879 0.7938 0.0
C1392 C 0.2738 0.78578 0.7805 0.0
H1393 H 0.4786 0.05713 0.02533 0.0
H1394 H 0.5033 0.15864 0.01019 0.0
H1395 H 0.54162 0.13692 0.98744 0.0
H1396 H 0.56125 0.02193 0.01886 0.0
H1397 H 0.54527 0.98301 0.0104 0.0
H1398 H 0.52114 0.00679 0.02598 0.0
H1399 H 0.47137 0.00741 1.00423 0.0
H1400 H 0.4954 0.98378 0.98857 0.0
H1401 H 0.47743 0.02324 0.98229 0.0
H1402 H 0.576 0.10345 0.96534 0.0
H1403 H 0.6035 0.06121 0.94637 0.0
H1404 H 0.55554 0.98242 0.97629 0.0
C1405 C 0.49231 0.07486 0.01738 0.0
C1406 C 0.48795 0.10962 0.01962 0.0
C1407 C 0.50623 0.13189 0.00879 0.0
C1408 C 0.52807 0.11979 0.99581 0.0
C1409 C 0.53145 0.08535 0.99381 0.0
C1410 C 0.51413 0.06324 1.00437 0.0
C1411 C 0.52141 0.02742 0.99932 0.0
C1412 C 0.53828 0.0087 0.01454 0.0
C1413 C 0.48951 0.00942 0.99324 0.0
C1414 C 0.5453 0.03279 0.98418 0.0
C1415 C 0.55095 0.06631 0.98118 0.0
C1416 C 0.57184 0.07711 0.96763 0.0
C1417 C 0.58733 0.05297 0.95691 0.0
C1418 C 0.58175 0.01847 0.95979 0.0
C1419 C 0.56047 0.00853 0.97367 0.0
H1420 H 0.31327 0.71185 0.27525 0.0
H1421 H 0.24234 0.66549 0.31082 0.0
H1422 H 0.19617 0.69332 0.29536 0.0
H1423 H 0.26949 0.79141 0.27102 0.0
H1424 H 0.2796 0.79576 0.24805 0.0
H1425 H 0.30738 0.77345 0.26246 0.0
H1426 H 0.30406 0.7217 0.24202 0.0
H1427 H 0.27619 0.7438 0.22759 0.0
H1428 H 0.26389 0.70414 0.23671 0.0
H1429 H 0.15723 0.72407 0.27525 0.0
H1430 H 0.12866 0.75662 0.25213 0.0
H1431 H 0.22476 0.78306 0.22979 0.0
C1432 C 0.28807 0.70785 0.27991 0.0
C1433 C 0.28152 0.68648 0.29428 0.0
C1434 C 0.2481 0.68172 0.29985 0.0
C1435 C 0.22162 0.69744 0.29117 0.0
C1436 C 0.22887 0.71797 0.27693 0.0
C1437 C 0.26126 0.72335 0.27137 0.0
C1438 C 0.2621 0.7459 0.25541 0.0
C1439 C 0.28074 0.77857 0.25949 0.0
C1440 C 0.27746 0.72779 0.23949 0.0
C1441 C 0.22516 0.75201 0.25279 0.0
C1442 C 0.2064 0.73576 0.26536 0.0
C1443 C 0.17165 0.73711 0.26538 0.0
C1444 C 0.15564 0.7556 0.25218 0.0
C1445 C 0.1744 0.77247 0.23916 0.0
C1446 C 0.20963 0.77062 0.23959 0.0
H1447 H 0.48319 0.92828 0.49011 0.0
H1448 H 0.4325 0.99625 0.45457 0.0
H1449 H 0.45809 0.04404 0.46965 0.0
H1450 H 0.4737 0.97842 0.52857 0.0
H1451 H 0.51408 0.96884 0.53764 0.0
H1452 H 0.49354 0.93919 0.52347 0.0
H1453 H 0.54502 0.93847 0.50292 0.0
H1454 H 0.56576 0.96808 0.51706 0.0
H1455 H 0.5605 0.9772 0.49402 0.0
H1456 H 0.48615 0.08467 0.48902 0.0
H1457 H 0.51611 0.11642 0.51177 0.0
H1458 H 0.54977 0.0236 0.53531 0.0
C1459 C 0.47784 0.95321 0.48539 0.0
C1460 C 0.45578 0.9584 0.47111 0.0
C1461 C 0.44917 0.99148 0.46548 0.0
C1462 C 0.46367 0.0189 0.47394 0.0
C1463 C 0.48486 0.01303 0.48806 0.0
C1464 C 0.49211 0.98111 0.49378 0.0
C1465 C 0.51493 0.98224 0.50973 0.0
C1466 C 0.49804 0.96622 0.5258 0.0
C1467 C 0.54855 0.96551 0.50568 0.0
C1468 C 0.5189 0.01973 0.51213 0.0
C1469 C 0.50137 0.03687 0.49939 0.0
C1470 C 0.50018 0.07159 0.49901 0.0
C1471 C 0.51725 0.08941 0.51205 0.0
C1472 C 0.5354 0.07259 0.52534 0.0
C1473 C 0.53637 0.03721 0.52526 0.0
H1474 H 0.1868 0.26956 0.77794 0.0
H1475 H 0.25688 0.32639 0.8096 0.0
H1476 H 0.30369 0.30142 0.79308 0.0
H1477 H 0.23628 0.19462 0.77436 0.0
H1478 H 0.22393 0.18654 0.75197 0.0
H1479 H 0.19614 0.20841 0.76658 0.0
H1480 H 0.19289 0.25754 0.74449 0.0
H1481 H 0.22081 0.23589 0.72985 0.0
H1482 H 0.23081 0.27748 0.73728 0.0
H1483 H 0.34309 0.27008 0.77285 0.0
H1484 H 0.37148 0.23486 0.75064 0.0
H1485 H 0.27521 0.19986 0.73209 0.0
C1486 C 0.21197 0.27662 0.7815 0.0
C1487 C 0.21811 0.29988 0.79512 0.0
C1488 C 0.25149 0.3086 0.79924 0.0
C1489 C 0.27828 0.29456 0.78992 0.0
C1490 C 0.27132 0.27192 0.77648 0.0
C1491 C 0.23897 0.26301 0.77229 0.0
C1492 C 0.23814 0.23848 0.75714 0.0
C1493 C 0.22272 0.20503 0.76286 0.0
C1494 C 0.21957 0.25324 0.74126 0.0
C1495 C 0.27505 0.23497 0.75345 0.0
C1496 C 0.29385 0.25437 0.76475 0.0
C1497 C 0.3286 0.25483 0.76391 0.0
C1498 C 0.34451 0.23479 0.75124 0.0
C1499 C 0.32564 0.21469 0.73956 0.0
C1500 C 0.29045 0.21506 0.74072 0.0
H1501 H 0.03021 0.06222 0.99209 0.0
H1502 H 0.08112 0.99034 0.95873 0.0
H1503 H 0.05063 0.94456 0.97306 0.0
H1504 H 0.02997 0.01169 0.03127 0.0
H1505 H 0.98911 0.02493 0.03824 0.0
H1506 H 0.01473 0.05246 0.02529 0.0
H1507 H 0.96749 0.05751 1.00221 0.0
H1508 H 0.94173 0.02999 0.0151 0.0
H1509 H 0.95044 0.02019 0.99242 0.0
H1510 H 0.01506 0.90626 0.99091 0.0
H1511 H 0.9765 0.878 0.01133 0.0
H1512 H 0.94837 0.97417 0.03327 0.0
C1513 C 0.03492 0.03687 0.9878 0.0
C1514 C 0.05813 0.02999 0.97425 0.0
C1515 C 0.06353 0.99638 0.96905 0.0
C1516 C 0.04631 0.97011 0.97711 0.0
C1517 C 0.02368 0.9777 0.99039 0.0
C1518 C 0.0179 0.0102 0.99573 0.0
C1519 C 0.99227 0.01132 0.01039 0.0
C1520 C 0.00744 0.02596 0.0273 0.0
C1521 C 0.96114 0.03091 1.00468 0.0
C1522 C 0.98467 0.9744 0.01242 0.0
C1523 C 0.00307 0.95548 1.00074 0.0
C1524 C 1.00047 0.9208 1.00013 0.0
C1525 C 0.97849 0.90496 0.01179 0.0
C1526 C 0.95935 0.92378 0.02392 0.0
C1527 C 0.96258 0.95901 0.02417 0.0
H1528 H 0.85973 0.76751 0.7555 0.0
H1529 H 0.80109 0.76379 0.70763 0.0
H1530 H 0.76223 0.7242 0.72159 0.0
H1531 H 0.8457 0.67956 0.76972 0.0
H1532 H 0.84174 0.69081 0.79259 0.0
H1533 H 0.86797 0.71519 0.77825 0.0
H1534 H 0.83536 0.76866 0.78673 0.0
H1535 H 0.8092 0.74449 0.80112 0.0
H1536 H 0.79071 0.76953 0.78403 0.0
H1537 H 0.72735 0.68956 0.74083 0.0
H1538 H 0.69537 0.66487 0.76516 0.0
H1539 H 0.77427 0.69113 0.80166 0.0
C1540 C 0.83909 0.75769 0.74791 0.0
C1541 C 0.83352 0.76837 0.73042 0.0
C1542 C 0.80578 0.75584 0.72101 0.0
C1543 C 0.78372 0.73317 0.72879 0.0
C1544 C 0.78951 0.72342 0.74609 0.0
C1545 C 0.8163 0.73539 0.75565 0.0
C1546 C 0.81448 0.72352 0.77462 0.0
C1547 C 0.84425 0.70092 0.77905 0.0
C1548 C 0.8123 0.75332 0.78737 0.0
C1549 C 0.7821 0.70374 0.77427 0.0
C1550 C 0.76859 0.70364 0.75754 0.0
C1551 C 0.73784 0.68908 0.75394 0.0
C1552 C 0.71986 0.67513 0.76785 0.0
C1553 C 0.73251 0.67577 0.78522 0.0
C1554 C 0.76445 0.68953 0.78842 0.0
H1555 H 0.68344 0.24891 0.24766 0.0
H1556 H 0.75074 0.17243 0.22808 0.0
H1557 H 0.79582 0.19516 0.24631 0.0
H1558 H 0.74243 0.3145 0.2479 0.0
H1559 H 0.728 0.33381 0.26792 0.0
H1560 H 0.69949 0.31013 0.25452 0.0
H1561 H 0.68489 0.27269 0.28117 0.0
H1562 H 0.71324 0.29641 0.2947 0.0
H1563 H 0.71785 0.25176 0.2929 0.0
H1564 H 0.83494 0.22793 0.26431 0.0
H1565 H 0.86578 0.2683 0.28258 0.0
H1566 H 0.77432 0.32384 0.29149 0.0
C1567 C 0.70749 0.23665 0.2475 0.0
C1568 C 0.71352 0.20892 0.2364 0.0
C1569 C 0.7455 0.19382 0.23637 0.0
C1570 C 0.77134 0.20646 0.24673 0.0
C1571 C 0.76494 0.23421 0.25717 0.0
C1572 C 0.73385 0.24908 0.25781 0.0
C1573 C 0.73449 0.2796 0.2697 0.0
C1574 C 0.72558 0.31138 0.25939 0.0
C1575 C 0.71124 0.27481 0.28556 0.0
C1576 C 0.77085 0.27971 0.27529 0.0
C1577 C 0.78782 0.25319 0.2679 0.0
C1578 C 0.82191 0.24862 0.27036 0.0
C1579 C 0.83924 0.27178 0.28071 0.0
C1580 C 0.82248 0.29912 0.28853 0.0
C1581 C 0.78775 0.30296 0.28584 0.0
H1582 H 0.83466 0.24269 0.77012 0.0
H1583 H 0.7619 0.19024 0.80217 0.0
H1584 H 0.71667 0.22091 0.78768 0.0
H1585 H 0.79133 0.32278 0.76934 0.0
H1586 H 0.80172 0.33159 0.74676 0.0
H1587 H 0.82919 0.30632 0.75994 0.0
H1588 H 0.82573 0.25889 0.73683 0.0
H1589 H 0.79824 0.284 0.72359 0.0
H1590 H 0.7855 0.24285 0.73044 0.0
H1591 H 0.67906 0.25588 0.76998 0.0
H1592 H 0.65041 0.29318 0.74937 0.0
H1593 H 0.74593 0.32375 0.7277 0.0
C1594 C 0.80922 0.23786 0.77414 0.0
C1595 C 0.80196 0.21397 0.78734 0.0
C1596 C 0.76826 0.20824 0.7921 0.0
C1597 C 0.74228 0.22562 0.78396 0.0
C1598 C 0.75017 0.24872 0.77098 0.0
C1599 C 0.78271 0.25495 0.76601 0.0
C1600 C 0.78379 0.28068 0.7513 0.0
C1601 C 0.80263 0.31221 0.7572 0.0
C1602 C 0.79923 0.2657 0.73455 0.0
C1603 C 0.7468 0.28771 0.74884 0.0
C1604 C 0.72805 0.269 0.76045 0.0
C1605 C 0.69343 0.27073 0.76083 0.0
C1606 C 0.67737 0.29208 0.74901 0.0
C1607 C 0.69578 0.31153 0.73683 0.0
C1608 C 0.73108 0.30929 0.73682 0.0
H1609 H 0.67533 0.78284 0.26743 0.0
H1610 H 0.74856 0.83769 0.29811 0.0
H1611 H 0.79378 0.80766 0.28296 0.0
H1612 H 0.7196 0.70412 0.26695 0.0
H1613 H 0.70769 0.69411 0.24471 0.0
H1614 H 0.68085 0.71959 0.25816 0.0
H1615 H 0.68192 0.76603 0.23447 0.0
H1616 H 0.70877 0.7407 0.22095 0.0
H1617 H 0.72142 0.78232 0.22708 0.0
H1618 H 0.8313 0.77251 0.26415 0.0
H1619 H 0.85832 0.73426 0.24297 0.0
H1620 H 0.76084 0.70216 0.22467 0.0
C1621 C 0.70086 0.78846 0.27101 0.0
C1622 C 0.70832 0.81264 0.28398 0.0
C1623 C 0.74212 0.81928 0.28823 0.0
C1624 C 0.76806 0.80234 0.2797 0.0
C1625 C 0.75987 0.77877 0.26695 0.0
C1626 C 0.72712 0.77175 0.26262 0.0
C1627 C 0.7252 0.74548 0.24831 0.0
C1628 C 0.70728 0.71396 0.25493 0.0
C1629 C 0.70833 0.75948 0.23172 0.0
C1630 C 0.76195 0.73899 0.24524 0.0
C1631 C 0.78153 0.75841 0.25614 0.0
C1632 C 0.81624 0.75707 0.25557 0.0
C1633 C 0.83136 0.73529 0.24349 0.0
C1634 C 0.81175 0.71516 0.23217 0.0
C1635 C 0.77659 0.7171 0.23316 0.0
H1636 H 0.54499 0.48548 0.04174 0.0
H1637 H 0.60828 0.55654 0.06905 0.0
H1638 H 0.57991 0.60297 0.05351 0.0
H1639 H 0.54428 0.52692 1.0005 0.0
H1640 H 0.50154 0.5162 0.99583 0.0
H1641 H 0.52637 0.48937 0.00953 0.0
H1642 H 0.48221 0.49394 0.03432 0.0
H1643 H 0.45727 0.52088 0.0207 0.0
H1644 H 0.47002 0.53458 0.04227 0.0
H1645 H 0.54416 0.6418 0.03385 0.0
H1646 H 0.50613 0.66807 0.01215 0.0
H1647 H 0.46742 0.57014 0.99859 0.0
C1648 C 0.55296 0.51077 0.04457 0.0
C1649 C 0.57893 0.51729 0.05667 0.0
C1650 C 0.58845 0.55086 0.05986 0.0
C1651 C 0.57243 0.5774 0.0511 0.0
C1652 C 0.54691 0.56994 0.03922 0.0
C1653 C 0.53734 0.53733 0.03601 0.0
C1654 C 0.50981 0.53545 0.02247 0.0
C1655 C 0.52119 0.51583 1.00612 0.0
C1656 C 0.47794 0.52033 0.03042 0.0
C1657 C 0.50532 0.5721 0.01842 0.0
C1658 C 0.52676 0.5918 0.02817 0.0
C1659 C 0.52722 0.62651 0.02623 0.0
C1660 C 0.50549 0.64125 0.0139 0.0
C1661 C 0.48366 0.62128 1.00365 0.0
C1662 C 0.48362 0.5863 1.00619 0.0
H1663 H 0.07509 0.47508 0.47784 0.0
H1664 H 0.03731 0.37935 0.4958 0.0
H1665 H 0.9993 0.4084 0.51622 0.0
H1666 H 0.07288 0.51645 0.52015 0.0
H1667 H 0.06001 0.55606 0.51122 0.0
H1668 H 0.08456 0.52783 0.49807 0.0
H1669 H 0.0395 0.52919 0.47368 0.0
H1670 H 0.01481 0.55741 0.48676 0.0
H1671 H 0.997 0.51869 0.47908 0.0
H1672 H 0.96483 0.44743 0.53426 0.0
H1673 H 0.93622 0.4939 0.5491 0.0
H1674 H 0.99637 0.56491 0.51982 0.0
C1675 C 0.05889 0.46019 0.48609 0.0
C1676 C 0.05922 0.42485 0.48519 0.0
C1677 C 0.03757 0.40638 0.49623 0.0
C1678 C 0.01587 0.42267 0.50788 0.0
C1679 C 0.01613 0.45745 0.5084 0.0
C1680 C 0.03708 0.47604 0.49784 0.0
C1681 C 0.03221 0.51318 0.50095 0.0
C1682 C 0.06433 0.52932 0.50802 0.0
C1683 C 0.02016 0.53064 0.48412 0.0
C1684 C 0.00512 0.51254 0.51487 0.0
C1685 C 0.99627 0.4801 0.51893 0.0
C1686 C 0.97159 0.47294 0.53122 0.0
C1687 C 0.95545 0.49961 0.53957 0.0
C1688 C 0.964 0.53318 0.53567 0.0
C1689 C 0.98931 0.5396 0.52316 0.0
H1690 H 0.06445 0.48499 0.0431 0.0
H1691 H 0.05288 0.57986 0.01609 0.0
H1692 H 0.01436 0.55386 0.99518 0.0
H1693 H 0.06058 0.43276 1.00309 0.0
H1694 H 0.03719 0.3999 0.01357 0.0
H1695 H 0.06541 0.42528 0.02632 0.0
H1696 H 0.01729 0.44049 0.04755 0.0
H1697 H 0.98888 0.41537 0.03481 0.0
H1698 H 0.97967 0.45876 0.03888 0.0
H1699 H 0.97487 0.51992 0.9782 0.0
H1700 H 0.93843 0.47796 0.96454 0.0
H1701 H 0.97472 0.40324 1.00121 0.0
C1702 C 0.05415 0.50009 0.03263 0.0
C1703 C 0.06177 0.5346 0.03136 0.0
C1704 C 0.04747 0.5535 0.01751 0.0
C1705 C 0.02548 0.53896 1.00549 0.0
C1706 C 0.01792 0.50529 1.00729 0.0
C1707 C 0.03193 0.48585 0.02034 0.0
C1708 C 0.01876 0.45024 0.01922 0.0
C1709 C 0.04718 0.42559 0.01531 0.0
C1710 C 1.00004 0.44066 0.03612 0.0
C1711 C 0.99502 0.45306 1.00367 0.0
C1712 C 0.99505 0.48517 0.99709 0.0
C1713 C 0.97477 0.49458 0.98311 0.0
C1714 C 0.954 0.4705 0.97548 0.0
C1715 C 0.95362 0.43719 0.98173 0.0
C1716 C 0.9745 0.42842 0.99606 0.0
H1717 H 0.57733 0.51409 0.47378 0.0
H1718 H 0.51494 0.6023 0.47854 0.0
H1719 H 0.47551 0.57091 0.49686 0.0
H1720 H 0.50941 0.45243 0.4729 0.0
H1721 H 0.53135 0.4224 0.4862 0.0
H1722 H 0.55431 0.45074 0.47233 0.0
H1723 H 0.58809 0.47126 0.49927 0.0
H1724 H 0.56534 0.44292 0.5132 0.0
H1725 H 0.56627 0.48688 0.51831 0.0
H1726 H 0.44361 0.53216 0.51485 0.0
H1727 H 0.42159 0.48826 0.5339 0.0
H1728 H 0.50396 0.42334 0.51937 0.0
C1729 C 0.55519 0.5266 0.47858 0.0
C1730 C 0.54919 0.5607 0.47465 0.0
C1731 C 0.52019 0.57632 0.48137 0.0
C1732 C 0.49749 0.55864 0.49173 0.0
C1733 C 0.50411 0.52528 0.49541 0.0
C1734 C 0.53226 0.5093 0.48923 0.0
C1735 C 0.53384 0.47364 0.49616 0.0
C1736 C 0.53212 0.4483 0.48099 0.0
C1737 C 0.56525 0.46838 0.50741 0.0
C1738 C 0.50237 0.47243 0.50735 0.0
C1739 C 0.48562 0.50254 0.50642 0.0
C1740 C 0.45643 0.50845 0.51571 0.0
C1741 C 0.44421 0.48325 0.52657 0.0
C1742 C 0.4611 0.45231 0.52828 0.0
C1743 C 0.49036 0.44658 0.51825 0.0
H1744 H 0.11292 0.03393 0.27823 0.0
H1745 H 0.21837 0.04732 0.2887 0.0
H1746 H 0.23173 0.00364 0.26683 0.0
H1747 H 0.11756 0.9437 0.27428 0.0
H1748 H 0.08634 0.94127 0.25728 0.0
H1749 H 0.08507 0.97471 0.27313 0.0
H1750 H 0.08564 0.01793 0.24784 0.0
H1751 H 0.08716 0.98461 0.23191 0.0
H1752 H 0.11869 0.01669 0.23178 0.0
H1753 H 0.23388 0.96059 0.24279 0.0
H1754 H 0.22459 0.91527 0.22126 0.0
H1755 H 0.11771 0.92526 0.22825 0.0
C1756 C 0.13879 0.02761 0.27587 0.0
C1757 C 0.16466 0.04414 0.28508 0.0
C1758 C 0.19818 0.03491 0.28184 0.0
C1759 C 0.20602 0.01028 0.26936 0.0
C1760 C 0.18002 0.99455 0.26044 0.0
C1761 C 0.14704 1.00234 0.26377 0.0
C1762 C 0.12388 0.98019 0.25307 0.0
C1763 C 0.10192 0.95869 0.26516 0.0
C1764 C 0.10259 1.00111 0.2404 0.0
C1765 C 0.14901 0.95896 0.24313 0.0
C1766 C 0.18124 0.96813 0.24737 0.0
C1767 C 0.20875 0.95298 0.23949 0.0
C1768 C 0.20322 0.92738 0.2272 0.0
C1769 C 0.17048 0.91664 0.22312 0.0
C1770 C 0.14304 0.9328 0.23119 0.0
H1771 H 0.19309 0.95021 0.52773 0.0
H1772 H 0.18052 0.84352 0.53516 0.0
H1773 H 0.22617 0.83267 0.51421 0.0
H1774 H 0.20872 0.94467 0.4808 0.0
H1775 H 0.23887 0.97807 0.48058 0.0
H1776 H 0.20602 0.97792 0.49674 0.0
H1777 H 0.24987 0.98152 0.52168 0.0
H1778 H 0.28285 0.98173 0.50559 0.0
H1779 H 0.2826 0.95076 0.52276 0.0
H1780 H 0.27427 0.83302 0.49391 0.0
H1781 H 0.31974 0.84431 0.47291 0.0
H1782 H 0.29882 0.95044 0.47591 0.0
C1783 C 0.20018 0.92464 0.52496 0.0
C1784 C 0.18354 0.89765 0.5331 0.0
C1785 C 0.19297 0.86449 0.529 0.0
C1786 C 0.2189 0.85809 0.51718 0.0
C1787 C 0.23475 0.88511 0.5093 0.0
C1788 C 0.22558 0.91773 0.51278 0.0
C1789 C 0.246 0.94197 0.50184 0.0
C1790 C 0.22356 0.96183 0.48924 0.0
C1791 C 0.26655 0.96537 0.51368 0.0
C1792 C 0.26827 0.91782 0.49187 0.0
C1793 C 0.26149 0.8852 0.4966 0.0
C1794 C 0.27961 0.8584 0.48993 0.0
C1795 C 0.3054 0.86505 0.47808 0.0
C1796 C 0.31245 0.89814 0.47275 0.0
C1797 C 0.29349 0.92488 0.47961 0.0
H1798 H 0.36377 0.05437 0.73677 0.0
H1799 H 0.26021 0.08029 0.7279 0.0
H1800 H 0.24321 0.04149 0.75161 0.0
H1801 H 0.34802 0.96604 0.74448 0.0
H1802 H 0.38048 0.96251 0.76076 0.0
H1803 H 0.38416 0.99275 0.74337 0.0
H1804 H 0.39174 0.03966 0.76654 0.0
H1805 H 0.38768 0.00962 0.78401 0.0
H1806 H 0.36049 0.04541 0.78332 0.0
H1807 H 0.2382 1.00273 0.77792 0.0
H1808 H 0.24461 0.96036 0.80141 0.0
H1809 H 0.35078 0.95594 0.79102 0.0
C1810 C 0.3375 0.05168 0.73977 0.0
C1811 C 0.31326 0.07035 0.73059 0.0
C1812 C 0.27912 0.06602 0.73473 0.0
C1813 C 0.26928 0.04425 0.74825 0.0
C1814 C 0.29386 0.02652 0.75724 0.0
C1815 C 0.3272 0.02942 0.75289 0.0
C1816 C 0.34854 0.00645 0.764 0.0
C1817 C 0.36634 0.98039 0.75246 0.0
C1818 C 0.37358 0.02649 0.77512 0.0
C1819 C 0.32207 0.99042 0.77543 0.0
C1820 C 0.29074 1.00275 0.77155 0.0
C1821 C 0.26256 0.99263 0.78091 0.0
C1822 C 0.26644 0.96877 0.7943 0.0
C1823 C 0.29811 0.95484 0.79792 0.0
C1824 C 0.32622 0.96601 0.7884 0.0
H1825 H 0.31816 0.13814 0.02385 0.0
H1826 H 0.35505 0.03646 0.02549 0.0
H1827 H 0.31174 0.01926 1.00413 0.0
H1828 H 0.23148 0.11492 0.02281 0.0
H1829 H 0.2194 0.14881 0.00861 0.0
H1830 H 0.25464 0.15352 0.02307 0.0
H1831 H 0.29205 0.16866 0.99647 0.0
H1832 H 0.25691 0.16395 0.98192 0.0
H1833 H 0.29449 0.1404 0.97803 0.0
H1834 H 0.26568 0.01376 0.98171 0.0
H1835 H 0.21604 0.01885 0.96251 0.0
H1836 H 0.20561 0.12265 0.97788 0.0
C1837 C 0.31719 0.11234 0.01956 0.0
C1838 C 0.34005 0.08862 0.0261 0.0
C1839 C 0.33771 0.05494 0.02056 0.0
C1840 C 0.31333 0.04501 0.0084 0.0
C1841 C 0.29105 0.06895 1.00221 0.0
C1842 C 0.29239 0.10181 1.00781 0.0
C1843 C 0.26417 0.12208 1.0 0.0
C1844 C 0.24106 0.13562 0.01449 0.0
C1845 C 0.27772 0.15045 0.98841 0.0
C1846 C 0.24691 0.09556 0.98904 0.0
C1847 C 0.26313 0.06522 0.99026 0.0
C1848 C 0.25256 0.0373 0.98079 0.0
C1849 C 0.22447 0.04041 0.9699 0.0
C1850 C 0.20692 0.07099 0.96891 0.0
C1851 C 0.21834 0.09884 0.97862 0.0
H1852 H 0.80932 0.0469 0.78383 0.0
H1853 H 0.91206 0.08032 0.78022 0.0
H1854 H 0.92475 0.03359 0.7602 0.0
H1855 H 0.82492 0.95893 0.78261 0.0
H1856 H 0.78976 0.94897 0.7688 0.0
H1857 H 0.78829 0.98499 0.783 0.0
H1858 H 0.77521 0.02276 0.75628 0.0
H1859 H 0.7765 0.98683 0.74199 0.0
H1860 H 0.80276 0.02237 0.73754 0.0
H1861 H 0.92772 0.98167 0.74262 0.0
H1862 H 0.91942 0.93027 0.72526 0.0
H1863 H 0.81375 0.93219 0.73735 0.0
C1864 C 0.83441 0.04434 0.77874 0.0
C1865 C 0.85977 0.06714 0.78359 0.0
C1866 C 0.89224 0.06326 0.77658 0.0
C1867 C 0.89973 0.03671 0.76527 0.0
C1868 C 0.87433 0.01459 0.76079 0.0
C1869 C 0.84218 0.01834 0.76701 0.0
C1870 C 0.81947 0.99137 0.75959 0.0
C1871 C 0.80475 0.96979 0.77439 0.0
C1872 C 0.79185 0.00676 0.74817 0.0
C1873 C 0.84408 0.97166 0.7485 0.0
C1874 C 0.87564 0.9854 0.74963 0.0
C1875 C 0.90307 0.9709 0.74142 0.0
C1876 C 0.89815 0.94166 0.73168 0.0
C1877 C 0.86598 0.92753 0.72993 0.0
C1878 C 0.8385 0.94282 0.73834 0.0
H1879 H 0.68576 0.06658 0.53473 0.0
H1880 H 0.67766 0.17303 0.54421 0.0
H1881 H 0.72509 0.18312 0.52406 0.0
H1882 H 0.77593 0.06172 0.52997 0.0
H1883 H 0.77412 0.0319 0.51221 0.0
H1884 H 0.74152 0.03286 0.5285 0.0
H1885 H 0.69753 0.0403 0.50389 0.0
H1886 H 0.73 0.03957 0.48753 0.0
H1887 H 0.70167 0.07445 0.48862 0.0
H1888 H 0.77391 0.18143 0.50347 0.0
H1889 H 0.81798 0.16881 0.48173 0.0
H1890 H 0.79064 0.06406 0.48293 0.0
C1891 C 0.69445 0.09192 0.53275 0.0
C1892 C 0.67866 0.11907 0.54122 0.0
C1893 C 0.6898 0.15198 0.53795 0.0
C1894 C 0.71666 0.1579 0.52655 0.0
C1895 C 0.73154 0.13065 0.51824 0.0
C1896 C 0.72062 0.09834 0.521 0.0
C1897 C 0.73946 0.0738 0.50946 0.0
C1898 C 0.75891 0.04859 0.52071 0.0
C1899 C 0.71574 0.05599 0.49661 0.0
C1900 C 0.7628 0.09734 0.49986 0.0
C1901 C 0.75812 0.12995 0.50535 0.0
C1902 C 0.77759 0.15606 0.49895 0.0
C1903 C 0.80255 0.14866 0.48665 0.0
C1904 C 0.80734 0.11559 0.48057 0.0
C1905 C 0.78705 0.08964 0.48717 0.0
H1906 H 0.62817 0.06633 0.22386 0.0
H1907 H 0.7349 0.07459 0.21605 0.0
H1908 H 0.74417 0.03122 0.23869 0.0
H1909 H 0.62785 0.05388 0.26942 0.0
H1910 H 0.59522 0.02292 0.26963 0.0
H1911 H 0.59666 0.05356 0.25235 0.0
H1912 H 0.59753 0.00665 0.22886 0.0
H1913 H 0.59551 0.97583 0.24607 0.0
H1914 H 0.62874 0.97437 0.23013 0.0
H1915 H 0.74176 0.99253 0.26484 0.0
H1916 H 0.72788 0.95289 0.2887 0.0
H1917 H 0.62271 0.96452 0.27719 0.0
C1918 C 0.65343 0.05843 0.22669 0.0
C1919 C 0.68088 0.07362 0.21821 0.0
C1920 C 0.71358 0.06288 0.22225 0.0
C1921 C 0.71906 0.0385 0.23519 0.0
C1922 C 0.6915 0.02454 0.24362 0.0
C1923 C 0.65928 0.03335 0.23917 0.0
C1924 C 0.63405 0.0139 0.24994 0.0
C1925 C 0.61216 0.03748 0.26099 0.0
C1926 C 0.6127 0.99134 0.23804 0.0
C1927 C 0.6571 0.99346 0.26149 0.0
C1928 C 0.69015 1.0004 0.25782 0.0
C1929 C 0.71601 0.9864 0.26758 0.0
C1930 C 0.70791 0.96418 0.28119 0.0
C1931 C 0.67432 0.95563 0.28465 0.0
C1932 C 0.64862 0.97045 0.27466 0.0
H1933 H 0.70017 0.8702 0.97371 0.0
H1934 H 0.65415 0.96557 0.98536 0.0
H1935 H 0.69469 0.9751 0.00929 0.0
H1936 H 0.72327 0.84831 0.01953 0.0
H1937 H 0.76261 0.83037 0.01306 0.0
H1938 H 0.72766 0.82919 0.99818 0.0
H1939 H 0.76335 0.85847 0.97436 0.0
H1940 H 0.79827 0.86003 0.9892 0.0
H1941 H 0.78293 0.89791 0.97934 0.0
H1942 H 0.7419 0.97618 0.03056 0.0
H1943 H 0.7932 0.96869 0.04801 0.0
H1944 H 0.81054 0.87353 0.02209 0.0
C1945 C 0.69826 0.89258 0.98166 0.0
C1946 C 0.67385 0.91696 0.97802 0.0
C1947 C 0.67255 0.94652 0.9882 0.0
C1948 C 0.69544 0.95213 1.00178 0.0
C1949 C 0.71972 0.92805 1.00489 0.0
C1950 C 0.72135 0.89882 0.99518 0.0
C1951 C 0.75144 0.87824 1.00051 0.0
C1952 C 0.74059 0.84453 0.00829 0.0
C1953 C 0.77541 0.87339 0.98492 0.0
C1954 C 0.76657 0.9007 0.0145 0.0
C1955 C 0.74768 0.92914 0.01691 0.0
C1956 C 0.75684 0.95391 0.02887 0.0
C1957 C 0.78608 0.94947 0.03871 0.0
C1958 C 0.806 0.92059 0.03643 0.0
C1959 C 0.79595 0.89594 0.02414 0.0
H1960 H 0.65548 0.44884 0.74484 0.0
H1961 H 0.5483 0.43694 0.74052 0.0
H1962 H 0.54018 0.49024 0.75647 0.0
H1963 H 0.65428 0.48321 0.78914 0.0
H1964 H 0.68867 0.51113 0.78504 0.0
H1965 H 0.68573 0.47223 0.77321 0.0
H1966 H 0.6886 0.50444 0.74373 0.0
H1967 H 0.69122 0.54345 0.75547 0.0
H1968 H 0.65881 0.5371 0.73939 0.0
H1969 H 0.54414 0.54729 0.77127 0.0
H1970 H 0.55975 0.59931 0.78703 0.0
H1971 H 0.66397 0.57139 0.78352 0.0
C1972 C 0.63029 0.45735 0.74735 0.0
C1973 C 0.60251 0.43877 0.74139 0.0
C1974 C 0.56996 0.45065 0.74504 0.0
C1975 C 0.5651 0.48101 0.754 0.0
C1976 C 0.59304 0.49897 0.75949 0.0
C1977 C 0.625 0.48723 0.75658 0.0
C1978 C 0.65081 0.5107 0.76429 0.0
C1979 C 0.67106 0.49328 0.77879 0.0
C1980 C 0.6737 0.52475 0.74985 0.0
C1981 C 0.62845 0.53764 0.77185 0.0
C1982 C 0.59522 0.53071 0.76875 0.0
C1983 C 0.57008 0.55275 0.77394 0.0
C1984 C 0.57915 0.5823 0.78279 0.0
C1985 C 0.61299 0.58922 0.78661 0.0
C1986 C 0.63784 0.56657 0.78096 0.0
H1987 H 0.81999 0.39891 1.00024 0.0
H1988 H 0.76792 0.40021 0.95029 0.0
H1989 H 0.71385 0.39839 0.96587 0.0
H1990 H 0.76294 0.34555 0.02405 0.0
H1991 H 0.7658 0.36905 0.04423 0.0
H1992 H 0.80054 0.36824 0.02921 0.0
H1993 H 0.80035 0.4329 0.0279 0.0
H1994 H 0.7658 0.4339 0.04301 0.0
H1995 H 0.76251 0.45443 0.02201 0.0
H1996 H 0.66542 0.39426 0.98692 0.0
H1997 H 0.62595 0.39685 0.01197 0.0
H1998 H 0.70919 0.40429 0.04812 0.0
C1999 C 0.79714 0.39869 0.99264 0.0
C2000 C 0.79798 0.39948 0.97409 0.0
C2001 C 0.7677 0.39971 0.96453 0.0
C2002 C 0.73692 0.39845 0.97326 0.0
C2003 C 0.73683 0.39762 0.99156 0.0
C2004 C 0.76612 0.39842 1.00117 0.0
C2005 C 0.75896 0.39981 0.02073 0.0
C2006 C 0.77289 0.36881 0.0301 0.0
C2007 C 0.77272 0.43219 0.02888 0.0
C2008 C 0.72116 0.39961 0.02059 0.0
C2009 C 0.70889 0.3976 1.00366 0.0
C2010 C 0.67473 0.39611 1.00024 0.0
C2011 C 0.65252 0.39741 0.01451 0.0
C2012 C 0.6646 0.40096 0.03188 0.0
C2013 C 0.69935 0.40184 0.03492 0.0
H2014 H 0.8798 0.45934 0.28281 0.0
H2015 H 0.77508 0.44605 0.29519 0.0
H2016 H 0.76001 0.48579 0.27167 0.0
H2017 H 0.87342 0.54853 0.27496 0.0
H2018 H 0.90393 0.54847 0.25756 0.0
H2019 H 0.90639 0.51795 0.27488 0.0
H2020 H 0.90563 0.47051 0.25167 0.0
H2021 H 0.90288 0.50088 0.23429 0.0
H2022 H 0.87192 0.4684 0.23603 0.0
H2023 H 0.75618 0.52436 0.24583 0.0
H2024 H 0.76386 0.56589 0.22221 0.0
H2025 H 0.87116 0.55874 0.22833 0.0
C2026 C 0.85374 0.46489 0.28053 0.0
C2027 C 0.82853 0.44956 0.2907 0.0
C2028 C 0.79472 0.45767 0.28756 0.0
C2029 C 0.78593 0.48002 0.27417 0.0
C2030 C 0.81131 0.49455 0.26428 0.0
C2031 C 0.84455 0.48789 0.26752 0.0
C2032 C 0.86692 0.50839 0.25559 0.0
C2033 C 0.88896 0.53226 0.26639 0.0
C2034 C 0.88808 0.48568 0.24369 0.0
C2035 C 0.84103 0.52735 0.24505 0.0
C2036 C 0.80912 0.5185 0.25008 0.0
C2037 C 0.78104 0.53174 0.24189 0.0
C2038 C 0.78565 0.55514 0.22841 0.0
C2039 C 0.81807 0.56557 0.22349 0.0
C2040 C 0.84609 0.55134 0.2319 0.0
H2041 H 0.67837 0.59597 0.49086 0.0
H2042 H 0.73521 0.56465 0.44516 0.0
H2043 H 0.78579 0.56034 0.46348 0.0
H2044 H 0.74174 0.64489 0.51145 0.0
H2045 H 0.73175 0.63191 0.53351 0.0
H2046 H 0.69977 0.6325 0.51689 0.0
H2047 H 0.68695 0.57015 0.52291 0.0
H2048 H 0.71886 0.56938 0.53958 0.0
H2049 H 0.72015 0.53991 0.52165 0.0
H2050 H 0.83073 0.56363 0.48594 0.0
H2051 H 0.86691 0.5689 0.51205 0.0
H2052 H 0.78082 0.59305 0.54414 0.0
C2053 C 0.70149 0.58815 0.48476 0.0
C2054 C 0.70298 0.58081 0.46657 0.0
C2055 C 0.73353 0.5703 0.45907 0.0
C2056 C 0.76239 0.56787 0.46935 0.0
C2057 C 0.76015 0.57541 0.4872 0.0
C2058 C 0.73045 0.58484 0.49494 0.0
C2059 C 0.73493 0.59085 0.51452 0.0
C2060 C 0.72656 0.6272 0.51937 0.0
C2061 C 0.71398 0.56609 0.5253 0.0
C2062 C 0.77193 0.5839 0.51648 0.0
C2063 C 0.78594 0.57537 0.50047 0.0
C2064 C 0.82 0.56978 0.49859 0.0
C2065 C 0.84033 0.57294 0.51345 0.0
C2066 C 0.82651 0.581 0.53004 0.0
C2067 C 0.79182 0.58627 0.53163 0.0
H2068 H 0.36452 0.53682 0.28465 0.0
H2069 H 0.26069 0.54281 0.30014 0.0
H2070 H 0.24559 0.5035 0.27627 0.0
H2071 H 0.35297 0.53054 0.23838 0.0
H2072 H 0.38541 0.50008 0.23498 0.0
H2073 H 0.38816 0.52897 0.2531 0.0
H2074 H 0.39355 0.47971 0.27494 0.0
H2075 H 0.3912 0.45066 0.25687 0.0
H2076 H 0.36236 0.44727 0.27495 0.0
H2077 H 0.24141 0.46763 0.24909 0.0
H2078 H 0.24929 0.42966 0.22369 0.0
H2079 H 0.3564 0.44149 0.22801 0.0
C2080 C 0.33867 0.52958 0.28305 0.0
C2081 C 0.31367 0.54282 0.29412 0.0
C2082 C 0.28016 0.5327 0.29182 0.0
C2083 C 0.27136 0.51061 0.27824 0.0
C2084 C 0.29652 0.49829 0.26737 0.0
C2085 C 0.3296 0.50671 0.2699 0.0
C2086 C 0.35193 0.48863 0.25691 0.0
C2087 C 0.37072 0.51355 0.24515 0.0
C2088 C 0.37619 0.46517 0.26649 0.0
C2089 C 0.32618 0.46916 0.24649 0.0
C2090 C 0.29432 0.47561 0.25254 0.0
C2091 C 0.26626 0.46199 0.24441 0.0
C2092 C 0.27093 0.44069 0.22995 0.0
C2093 C 0.30339 0.43264 0.22405 0.0
C2094 C 0.33134 0.44708 0.23242 0.0
H2095 H 0.32177 0.58011 0.99081 0.0
H2096 H 0.33037 0.68539 0.97813 0.0
H2097 H 0.27536 0.69592 0.99135 0.0
H2098 H 0.23161 0.57258 0.98405 0.0
H2099 H 0.22559 0.54529 1.00261 0.0
H2100 H 0.26471 0.54512 0.99095 0.0
H2101 H 0.29608 0.55737 0.02003 0.0
H2102 H 0.25709 0.55749 0.03176 0.0
H2103 H 0.28438 0.59319 0.03303 0.0
H2104 H 0.21997 0.69579 1.00623 0.0
H2105 H 0.16941 0.68545 0.02394 0.0
H2106 H 0.19711 0.58102 0.02861 0.0
C2107 C 0.31182 0.60524 0.99069 0.0
C2108 C 0.33032 0.63191 0.98341 0.0
C2109 C 0.31674 0.66459 0.98373 0.0
C2110 C 0.28539 0.67084 0.99111 0.0
C2111 C 0.26787 0.64422 0.99834 0.0
C2112 C 0.28061 0.6121 0.99837 0.0
C2113 C 0.25737 0.58854 0.00807 0.0
C2114 C 0.24403 0.56127 0.99568 0.0
C2115 C 0.27477 0.57325 0.02418 0.0
C2116 C 0.22987 0.61251 0.01353 0.0
C2117 C 0.23625 0.6444 1.00755 0.0
C2118 C 0.21465 0.6709 0.01099 0.0
C2119 C 0.18593 0.66478 0.02103 0.0
C2120 C 0.17924 0.63249 0.02771 0.0
C2121 C 0.20148 0.60603 0.02373 0.0
H2122 H 0.14864 0.47837 0.80508 0.0
H2123 H 0.19279 0.39727 0.77532 0.0
H2124 H 0.20058 0.43482 0.74989 0.0
H2125 H 0.10164 0.51033 0.76927 0.0
H2126 H 0.10612 0.55359 0.77543 0.0
H2127 H 0.10746 0.52162 0.79203 0.0
H2128 H 0.16513 0.54321 0.8024 0.0
H2129 H 0.16393 0.57532 0.78584 0.0
H2130 H 0.19867 0.54685 0.78674 0.0
H2131 H 0.20283 0.4804 0.7277 0.0
H2132 H 0.19476 0.53003 0.70895 0.0
H2133 H 0.14471 0.58053 0.75205 0.0
C2134 C 0.16046 0.46889 0.79328 0.0
C2135 C 0.17062 0.43526 0.79209 0.0
C2136 C 0.18512 0.42314 0.77638 0.0
C2137 C 0.18973 0.44426 0.76194 0.0
C2138 C 0.17916 0.47725 0.76337 0.0
C2139 C 0.16448 0.48949 0.77854 0.0
C2140 C 0.15275 0.52514 0.776 0.0
C2141 C 0.11474 0.5278 0.77832 0.0
C2142 C 0.17123 0.54904 0.78849 0.0
C2143 C 0.16293 0.53083 0.75704 0.0
C2144 C 0.17867 0.50308 0.75014 0.0
C2145 C 0.19052 0.50231 0.73292 0.0
C2146 C 0.18588 0.5306 0.7224 0.0
C2147 C 0.16899 0.55897 0.72903 0.0
C2148 C 0.15751 0.55906 0.74661 0.0
H2149 H 0.21878 0.36832 0.48347 0.0
H2150 H 0.20068 0.47394 0.47539 0.0
H2151 H 0.2404 0.48753 0.49919 0.0
H2152 H 0.22955 0.37007 0.53042 0.0
H2153 H 0.26342 0.34051 0.53059 0.0
H2154 H 0.23247 0.33872 0.51345 0.0
H2155 H 0.27872 0.34349 0.4898 0.0
H2156 H 0.30981 0.34491 0.50687 0.0
H2157 H 0.30775 0.37783 0.49077 0.0
H2158 H 0.27969 0.48958 0.52491 0.0
H2159 H 0.32318 0.48057 0.54744 0.0
H2160 H 0.32056 0.37412 0.5369 0.0
C2161 C 0.22332 0.39427 0.48673 0.0
C2162 C 0.20662 0.42013 0.47768 0.0
C2163 C 0.21339 0.45381 0.48212 0.0
C2164 C 0.23569 0.46175 0.4957 0.0
C2165 C 0.25157 0.43573 0.50449 0.0
C2166 C 0.24631 0.4027 0.49994 0.0
C2167 C 0.26831 0.3797 0.51072 0.0
C2168 C 0.24716 0.35584 0.52196 0.0
C2169 C 0.29259 0.36035 0.49883 0.0
C2170 C 0.28654 0.40496 0.5221 0.0
C2171 C 0.27596 0.43708 0.51854 0.0
C2172 C 0.28839 0.46457 0.52771 0.0
C2173 C 0.31289 0.45921 0.54057 0.0
C2174 C 0.32522 0.42671 0.54387 0.0
C2175 C 0.31164 0.39925 0.53458 0.0
loop_
_geom_bond_atom_site_label_1
_geom_bond_atom_site_label_2
_geom_bond_distance
_geom_bond_site_symmetry_2
_ccdc_geom_bond_type
C0 O2 1.247 . S
C0 O4 1.258 . S
C1 O8 1.247 . S
C1 O9 1.258 . S
O2 C0 1.247 . S
O2 Zn3 2.028 . S
Zn3 O2 2.028 . S
Zn3 O7 2.035 . S
Zn3 O9 2.035 . S
Zn3 O10 2.028 . S
O4 C0 1.258 . S
O4 Zn5 2.035 . S
Zn5 O4 2.035 . S
Zn5 O6 2.028 . S
Zn5 O8 2.028 . S
Zn5 O11 2.035 . S
O6 Zn5 2.028 . S
O6 C12 1.247 . S
O7 Zn3 2.035 . S
O7 C12 1.258 . S
O8 C1 1.247 . S
O8 Zn5 2.028 . S
O9 C1 1.258 . S
O9 Zn3 2.035 . S
O10 Zn3 2.028 . S
O10 C13 1.247 . S
O11 Zn5 2.035 . S
O11 C13 1.258 . S
C12 O6 1.247 . S
C12 O7 1.258 . S
C13 O10 1.247 . S
C13 O11 1.258 . S
C14 O16 1.247 . S
C14 O18 1.258 . S
C15 O22 1.247 . S
C15 O23 1.258 . S
O16 C14 1.247 . S
O16 Zn17 2.028 . S
Zn17 O16 2.028 . S
Zn17 O21 2.035 . S
Zn17 O23 2.035 . S
Zn17 O24 2.028 . S
O18 C14 1.258 . S
O18 Zn19 2.035 . S
Zn19 O18 2.035 . S
Zn19 O20 2.028 . S
Zn19 O22 2.028 . S
Zn19 O25 2.035 . S
O20 Zn19 2.028 . S
O20 C26 1.247 . S
O21 Zn17 2.035 . S
O21 C26 1.258 . S
O22 C15 1.247 . S
O22 Zn19 2.028 . S
O23 C15 1.258 . S
O23 Zn17 2.035 . S
O24 Zn17 2.028 . S
O24 C27 1.247 . S
O25 Zn19 2.035 . S
O25 C27 1.258 . S
C26 O20 1.247 . S
C26 O21 1.258 . S
C27 O24 1.247 . S
C27 O25 1.258 . S
C28 O30 1.247 . S
C28 O32 1.258 . S
C29 O36 1.247 . S
C29 O37 1.258 . S
O30 C28 1.247 . S
O30 Zn31 2.028 . S
Zn31 O30 2.028 . S
Zn31 O35 2.035 . S
Zn31 O37 2.035 . S
Zn31 O38 2.028 . S
O32 C28 1.258 . S
O32 Zn33 2.035 . S
Zn33 O32 2.035 . S
Zn33 O34 2.028 . S
Zn33 O36 2.028 . S
Zn33 O39 2.035 . S
O34 Zn33 2.028 . S
O34 C40 1.247 . S
O35 Zn31 2.035 . S
O35 C40 1.258 . S
O36 C29 1.247 . S
O36 Zn33 2.028 . S
O37 C29 1.258 . S
O37 Zn31 2.035 . S
O38 Zn31 2.028 . S
O38 C41 1.247 . S
O39 Zn33 2.035 . S
O39 C41 1.258 . S
C40 O34 1.247 . S
C40 O35 1.258 . S
C41 O38 1.247 . S
C41 O39 1.258 . S
C42 O44 1.247 . S
C42 O46 1.258 . S
C43 O50 1.247 . S
C43 O51 1.258 . S
O44 C42 1.247 . S
O44 Zn45 2.028 . S
Zn45 O44 2.028 . S
Zn45 O49 2.035 . S
Zn45 O51 2.035 . S
Zn45 O52 2.028 . S
O46 C42 1.258 . S
O46 Zn47 2.035 . S
Zn47 O46 2.035 . S
Zn47 O48 2.028 . S
Zn47 O50 2.028 . S
Zn47 O53 2.035 . S
O48 Zn47 2.028 . S
O48 C54 1.247 . S
O49 Zn45 2.035 . S
O49 C54 1.258 . S
O50 C43 1.247 . S
O50 Zn47 2.028 . S
O51 C43 1.258 . S
O51 Zn45 2.035 . S
O52 Zn45 2.028 . S
O52 C55 1.247 . S
O53 Zn47 2.035 . S
O53 C55 1.258 . S
C54 O48 1.247 . S
C54 O49 1.258 . S
C55 O52 1.247 . S
C55 O53 1.258 . S
C56 O58 1.247 . S
C56 O60 1.258 . S
C57 O64 1.247 . S
C57 O65 1.258 . S
O58 C56 1.247 . S
O58 Zn59 2.028 . S
Zn59 O58 2.028 . S
Zn59 O63 2.035 . S
Zn59 O65 2.035 . S
Zn59 O66 2.028 . S
O60 C56 1.258 . S
O60 Zn61 2.035 . S
Zn61 O60 2.035 . S
Zn61 O62 2.028 . S
Zn61 O64 2.028 . S
Zn61 O67 2.035 . S
O62 Zn61 2.028 . S
O62 C68 1.247 . S
O63 Zn59 2.035 . S
O63 C68 1.258 . S
O64 C57 1.247 . S
O64 Zn61 2.028 . S
O65 C57 1.258 . S
O65 Zn59 2.035 . S
O66 Zn59 2.028 . S
O66 C69 1.247 . S
O67 Zn61 2.035 . S
O67 C69 1.258 . S
C68 O62 1.247 . S
C68 O63 1.258 . S
C69 O66 1.247 . S
C69 O67 1.258 . S
C70 O72 1.247 . S
C70 O74 1.258 . S
C71 O78 1.247 . S
C71 O79 1.258 . S
O72 C70 1.247 . S
O72 Zn73 2.028 . S
Zn73 O72 2.028 . S
Zn73 O77 2.035 . S
Zn73 O79 2.035 . S
Zn73 O80 2.028 . S
O74 C70 1.258 . S
O74 Zn75 2.035 . S
Zn75 O74 2.035 . S
Zn75 O76 2.028 . S
Zn75 O78 2.028 . S
Zn75 O81 2.035 . S
O76 Zn75 2.028 . S
O76 C82 1.247 . S
O77 Zn73 2.035 . S
O77 C82 1.258 . S
O78 C71 1.247 . S
O78 Zn75 2.028 . S
O79 C71 1.258 . S
O79 Zn73 2.035 . S
O80 Zn73 2.028 . S
O80 C83 1.247 . S
O81 Zn75 2.035 . S
O81 C83 1.258 . S
C82 O76 1.247 . S
C82 O77 1.258 . S
C83 O80 1.247 . S
C83 O81 1.258 . S
C84 O86 1.247 . S
C84 O88 1.258 . S
C85 O92 1.247 . S
C85 O93 1.258 . S
O86 C84 1.247 . S
O86 Zn87 2.028 . S
Zn87 O86 2.028 . S
Zn87 O91 2.035 . S
Zn87 O93 2.035 . S
Zn87 O94 2.028 . S
O88 C84 1.258 . S
O88 Zn89 2.035 . S
Zn89 O88 2.035 . S
Zn89 O90 2.028 . S
Zn89 O92 2.028 . S
Zn89 O95 2.035 . S
O90 Zn89 2.028 . S
O90 C96 1.247 . S
O91 Zn87 2.035 . S
O91 C96 1.258 . S
O92 C85 1.247 . S
O92 Zn89 2.028 . S
O93 C85 1.258 . S
O93 Zn87 2.035 . S
O94 Zn87 2.028 . S
O94 C97 1.247 . S
O95 Zn89 2.035 . S
O95 C97 1.258 . S
C96 O90 1.247 . S
C96 O91 1.258 . S
C97 O94 1.247 . S
C97 O95 1.258 . S
C98 O100 1.247 . S
C98 O102 1.258 . S
C99 O106 1.247 . S
C99 O107 1.258 . S
O100 C98 1.247 . S
O100 Zn101 2.028 . S
Zn101 O100 2.028 . S
Zn101 O105 2.035 . S
Zn101 O107 2.035 . S
Zn101 O108 2.028 . S
O102 C98 1.258 . S
O102 Zn103 2.035 . S
Zn103 O102 2.035 . S
Zn103 O104 2.028 . S
Zn103 O106 2.028 . S
Zn103 O109 2.035 . S
O104 Zn103 2.028 . S
O104 C110 1.247 . S
O105 Zn101 2.035 . S
O105 C110 1.258 . S
O106 C99 1.247 . S
O106 Zn103 2.028 . S
O107 C99 1.258 . S
O107 Zn101 2.035 . S
O108 Zn101 2.028 . S
O108 C111 1.247 . S
O109 Zn103 2.035 . S
O109 C111 1.258 . S
C110 O104 1.247 . S
C110 O105 1.258 . S
C111 O108 1.247 . S
C111 O109 1.258 . S
C112 O114 1.247 . S
C112 O116 1.258 . S
C113 O120 1.247 . S
C113 O121 1.258 . S
O114 C112 1.247 . S
O114 Zn115 2.028 . S
Zn115 O114 2.028 . S
Zn115 O119 2.035 . S
Zn115 O121 2.035 . S
Zn115 O122 2.028 . S
O116 C112 1.258 . S
O116 Zn117 2.035 . S
Zn117 O116 2.035 . S
Zn117 O118 2.028 . S
Zn117 O120 2.028 . S
Zn117 O123 2.035 . S
O118 Zn117 2.028 . S
O118 C124 1.247 . S
O119 Zn115 2.035 . S
O119 C124 1.258 . S
O120 C113 1.247 . S
O120 Zn117 2.028 . S
O121 C113 1.258 . S
O121 Zn115 2.035 . S
O122 Zn115 2.028 . S
O122 C125 1.247 . S
O123 Zn117 2.035 . S
O123 C125 1.258 . S
C124 O118 1.247 . S
C124 O119 1.258 . S
C125 O122 1.247 . S
C125 O123 1.258 . S
C126 O128 1.247 . S
C126 O130 1.258 . S
C127 O134 1.247 . S
C127 O135 1.258 . S
O128 C126 1.247 . S
O128 Zn129 2.028 . S
Zn129 O128 2.028 . S
Zn129 O133 2.035 . S
Zn129 O135 2.035 . S
Zn129 O136 2.028 . S
O130 C126 1.258 . S
O130 Zn131 2.035 . S
Zn131 O130 2.035 . S
Zn131 O132 2.028 . S
Zn131 O134 2.028 . S
Zn131 O137 2.035 . S
O132 Zn131 2.028 . S
O132 C138 1.247 . S
O133 Zn129 2.035 . S
O133 C138 1.258 . S
O134 C127 1.247 . S
O134 Zn131 2.028 . S
O135 C127 1.258 . S
O135 Zn129 2.035 . S
O136 Zn129 2.028 . S
O136 C139 1.247 . S
O137 Zn131 2.035 . S
O137 C139 1.258 . S
C138 O132 1.247 . S
C138 O133 1.258 . S
C139 O136 1.247 . S
C139 O137 1.258 . S
C140 O142 1.247 . S
C140 O144 1.258 . S
C141 O148 1.247 . S
C141 O149 1.258 . S
O142 C140 1.247 . S
O142 Zn143 2.028 . S
Zn143 O142 2.028 . S
Zn143 O147 2.035 . S
Zn143 O149 2.035 . S
Zn143 O150 2.028 . S
O144 C140 1.258 . S
O144 Zn145 2.035 . S
Zn145 O144 2.035 . S
Zn145 O146 2.028 . S
Zn145 O148 2.028 . S
Zn145 O151 2.035 . S
O146 Zn145 2.028 . S
O146 C152 1.247 . S
O147 Zn143 2.035 . S
O147 C152 1.258 . S
O148 C141 1.247 . S
O148 Zn145 2.028 . S
O149 C141 1.258 . S
O149 Zn143 2.035 . S
O150 Zn143 2.028 . S
O150 C153 1.247 . S
O151 Zn145 2.035 . S
O151 C153 1.258 . S
C152 O146 1.247 . S
C152 O147 1.258 . S
C153 O150 1.247 . S
C153 O151 1.258 . S
C154 O156 1.247 . S
C154 O158 1.258 . S
C155 O162 1.247 . S
C155 O163 1.258 . S
O156 C154 1.247 . S
O156 Zn157 2.028 . S
Zn157 O156 2.028 . S
Zn157 O161 2.035 . S
Zn157 O163 2.035 . S
Zn157 O164 2.028 . S
O158 C154 1.258 . S
O158 Zn159 2.035 . S
Zn159 O158 2.035 . S
Zn159 O160 2.028 . S
Zn159 O162 2.028 . S
Zn159 O165 2.035 . S
O160 Zn159 2.028 . S
O160 C166 1.247 . S
O161 Zn157 2.035 . S
O161 C166 1.258 . S
O162 C155 1.247 . S
O162 Zn159 2.028 . S
O163 C155 1.258 . S
O163 Zn157 2.035 . S
O164 Zn157 2.028 . S
O164 C167 1.247 . S
O165 Zn159 2.035 . S
O165 C167 1.258 . S
C166 O160 1.247 . S
C166 O161 1.258 . S
C167 O164 1.247 . S
C167 O165 1.258 . S
C168 O170 1.247 . S
C168 O172 1.258 . S
C169 O176 1.247 . S
C169 O177 1.258 . S
O170 C168 1.247 . S
O170 Zn171 2.028 . S
Zn171 O170 2.028 . S
Zn171 O175 2.035 . S
Zn171 O177 2.035 . S
Zn171 O178 2.028 . S
O172 C168 1.258 . S
O172 Zn173 2.035 . S
Zn173 O172 2.035 . S
Zn173 O174 2.028 . S
Zn173 O176 2.028 . S
Zn173 O179 2.035 . S
O174 Zn173 2.028 . S
O174 C180 1.247 . S
O175 Zn171 2.035 . S
O175 C180 1.258 . S
O176 C169 1.247 . S
O176 Zn173 2.028 . S
O177 C169 1.258 . S
O177 Zn171 2.035 . S
O178 Zn171 2.028 . S
O178 C181 1.247 . S
O179 Zn173 2.035 . S
O179 C181 1.258 . S
C180 O174 1.247 . S
C180 O175 1.258 . S
C181 O178 1.247 . S
C181 O179 1.258 . S
C182 O184 1.247 . S
C182 O186 1.258 . S
C183 O190 1.247 . S
C183 O191 1.258 . S
O184 C182 1.247 . S
O184 Zn185 2.028 . S
Zn185 O184 2.028 . S
Zn185 O189 2.035 . S
Zn185 O191 2.035 . S
Zn185 O192 2.028 . S
O186 C182 1.258 . S
O186 Zn187 2.035 . S
Zn187 O186 2.035 . S
Zn187 O188 2.028 . S
Zn187 O190 2.028 . S
Zn187 O193 2.035 . S
O188 Zn187 2.028 . S
O188 C194 1.247 . S
O189 Zn185 2.035 . S
O189 C194 1.258 . S
O190 C183 1.247 . S
O190 Zn187 2.028 . S
O191 C183 1.258 . S
O191 Zn185 2.035 . S
O192 Zn185 2.028 . S
O192 C195 1.247 . S
O193 Zn187 2.035 . S
O193 C195 1.258 . S
C194 O188 1.247 . S
C194 O189 1.258 . S
C195 O192 1.247 . S
C195 O193 1.258 . S
C196 O198 1.247 . S
C196 O200 1.258 . S
C197 O204 1.247 . S
C197 O205 1.258 . S
O198 C196 1.247 . S
O198 Zn199 2.028 . S
Zn199 O198 2.028 . S
Zn199 O203 2.035 . S
Zn199 O205 2.035 . S
Zn199 O206 2.028 . S
O200 C196 1.258 . S
O200 Zn201 2.035 . S
Zn201 O200 2.035 . S
Zn201 O202 2.028 . S
Zn201 O204 2.028 . S
Zn201 O207 2.035 . S
O202 Zn201 2.028 . S
O202 C208 1.247 . S
O203 Zn199 2.035 . S
O203 C208 1.258 . S
O204 C197 1.247 . S
O204 Zn201 2.028 . S
O205 C197 1.258 . S
O205 Zn199 2.035 . S
O206 Zn199 2.028 . S
O206 C209 1.247 . S
O207 Zn201 2.035 . S
O207 C209 1.258 . S
C208 O202 1.247 . S
C208 O203 1.258 . S
C209 O206 1.247 . S
C209 O207 1.258 . S
C210 O212 1.247 . S
C210 O214 1.258 . S
C211 O218 1.247 . S
C211 O219 1.258 . S
O212 C210 1.247 . S
O212 Zn213 2.028 . S
Zn213 O212 2.028 . S
Zn213 O217 2.035 . S
Zn213 O219 2.035 . S
Zn213 O220 2.028 . S
O214 C210 1.258 . S
O214 Zn215 2.035 . S
Zn215 O214 2.035 . S
Zn215 O216 2.028 . S
Zn215 O218 2.028 . S
Zn215 O221 2.035 . S
O216 Zn215 2.028 . S
O216 C222 1.247 . S
O217 Zn213 2.035 . S
O217 C222 1.258 . S
O218 C211 1.247 . S
O218 Zn215 2.028 . S
O219 C211 1.258 . S
O219 Zn213 2.035 . S
O220 Zn213 2.028 . S
O220 C223 1.247 . S
O221 Zn215 2.035 . S
O221 C223 1.258 . S
C222 O216 1.247 . S
C222 O217 1.258 . S
C223 O220 1.247 . S
C223 O221 1.258 . S
C224 O226 1.247 . S
C224 O228 1.258 . S
C225 O232 1.247 . S
C225 O233 1.258 . S
O226 C224 1.247 . S
O226 Zn227 2.028 . S
Zn227 O226 2.028 . S
Zn227 O231 2.035 . S
Zn227 O233 2.035 . S
Zn227 O234 2.028 . S
O228 C224 1.258 . S
O228 Zn229 2.035 . S
Zn229 O228 2.035 . S
Zn229 O230 2.028 . S
Zn229 O232 2.028 . S
Zn229 O235 2.035 . S
O230 Zn229 2.028 . S
O230 C236 1.247 . S
O231 Zn227 2.035 . S
O231 C236 1.258 . S
O232 C225 1.247 . S
O232 Zn229 2.028 . S
O233 C225 1.258 . S
O233 Zn227 2.035 . S
O234 Zn227 2.028 . S
O234 C237 1.247 . S
O235 Zn229 2.035 . S
O235 C237 1.258 . S
C236 O230 1.247 . S
C236 O231 1.258 . S
C237 O234 1.247 . S
C237 O235 1.258 . S
C238 O240 1.247 . S
C238 O242 1.258 . S
C239 O246 1.247 . S
C239 O247 1.258 . S
O240 C238 1.247 . S
O240 Zn241 2.028 . S
Zn241 O240 2.028 . S
Zn241 O245 2.035 . S
Zn241 O247 2.035 . S
Zn241 O248 2.028 . S
O242 C238 1.258 . S
O242 Zn243 2.035 . S
Zn243 O242 2.035 . S
Zn243 O244 2.028 . S
Zn243 O246 2.028 . S
Zn243 O249 2.035 . S
O244 Zn243 2.028 . S
O244 C250 1.247 . S
O245 Zn241 2.035 . S
O245 C250 1.258 . S
O246 C239 1.247 . S
O246 Zn243 2.028 . S
O247 C239 1.258 . S
O247 Zn241 2.035 . S
O248 Zn241 2.028 . S
O248 C251 1.247 . S
O249 Zn243 2.035 . S
O249 C251 1.258 . S
C250 O244 1.247 . S
C250 O245 1.258 . S
C251 O248 1.247 . S
C251 O249 1.258 . S
C252 O254 1.247 . S
C252 O256 1.258 . S
C253 O260 1.247 . S
C253 O261 1.258 . S
O254 C252 1.247 . S
O254 Zn255 2.028 . S
Zn255 O254 2.028 . S
Zn255 O259 2.035 . S
Zn255 O261 2.035 . S
Zn255 O262 2.028 . S
O256 C252 1.258 . S
O256 Zn257 2.035 . S
Zn257 O256 2.035 . S
Zn257 O258 2.028 . S
Zn257 O260 2.028 . S
Zn257 O263 2.035 . S
O258 Zn257 2.028 . S
O258 C264 1.247 . S
O259 Zn255 2.035 . S
O259 C264 1.258 . S
O260 C253 1.247 . S
O260 Zn257 2.028 . S
O261 C253 1.258 . S
O261 Zn255 2.035 . S
O262 Zn255 2.028 . S
O262 C265 1.247 . S
O263 Zn257 2.035 . S
O263 C265 1.258 . S
C264 O258 1.247 . S
C264 O259 1.258 . S
C265 O262 1.247 . S
C265 O263 1.258 . S
C266 O268 1.247 . S
C266 O270 1.258 . S
C267 O274 1.247 . S
C267 O275 1.258 . S
O268 C266 1.247 . S
O268 Zn269 2.028 . S
Zn269 O268 2.028 . S
Zn269 O273 2.035 . S
Zn269 O275 2.035 . S
Zn269 O276 2.028 . S
O270 C266 1.258 . S
O270 Zn271 2.035 . S
Zn271 O270 2.035 . S
Zn271 O272 2.028 . S
Zn271 O274 2.028 . S
Zn271 O277 2.035 . S
O272 Zn271 2.028 . S
O272 C278 1.247 . S
O273 Zn269 2.035 . S
O273 C278 1.258 . S
O274 C267 1.247 . S
O274 Zn271 2.028 . S
O275 C267 1.258 . S
O275 Zn269 2.035 . S
O276 Zn269 2.028 . S
O276 C279 1.247 . S
O277 Zn271 2.035 . S
O277 C279 1.258 . S
C278 O272 1.247 . S
C278 O273 1.258 . S
C279 O276 1.247 . S
C279 O277 1.258 . S
C280 O282 1.247 . S
C280 O284 1.258 . S
C281 O288 1.247 . S
C281 O289 1.258 . S
O282 C280 1.247 . S
O282 Zn283 2.028 . S
Zn283 O282 2.028 . S
Zn283 O287 2.035 . S
Zn283 O289 2.035 . S
Zn283 O290 2.028 . S
O284 C280 1.258 . S
O284 Zn285 2.035 . S
Zn285 O284 2.035 . S
Zn285 O286 2.028 . S
Zn285 O288 2.028 . S
Zn285 O291 2.035 . S
O286 Zn285 2.028 . S
O286 C292 1.247 . S
O287 Zn283 2.035 . S
O287 C292 1.258 . S
O288 C281 1.247 . S
O288 Zn285 2.028 . S
O289 C281 1.258 . S
O289 Zn283 2.035 . S
O290 Zn283 2.028 . S
O290 C293 1.247 . S
O291 Zn285 2.035 . S
O291 C293 1.258 . S
C292 O286 1.247 . S
C292 O287 1.258 . S
C293 O290 1.247 . S
C293 O291 1.258 . S
C294 O296 1.247 . S
C294 O298 1.258 . S
C295 O302 1.247 . S
C295 O303 1.258 . S
O296 C294 1.247 . S
O296 Zn297 2.028 . S
Zn297 O296 2.028 . S
Zn297 O301 2.035 . S
Zn297 O303 2.035 . S
Zn297 O304 2.028 . S
O298 C294 1.258 . S
O298 Zn299 2.035 . S
Zn299 O298 2.035 . S
Zn299 O300 2.028 . S
Zn299 O302 2.028 . S
Zn299 O305 2.035 . S
O300 Zn299 2.028 . S
O300 C306 1.247 . S
O301 Zn297 2.035 . S
O301 C306 1.258 . S
O302 C295 1.247 . S
O302 Zn299 2.028 . S
O303 C295 1.258 . S
O303 Zn297 2.035 . S
O304 Zn297 2.028 . S
O304 C307 1.247 . S
O305 Zn299 2.035 . S
O305 C307 1.258 . S
C306 O300 1.247 . S
C306 O301 1.258 . S
C307 O304 1.247 . S
C307 O305 1.258 . S
C308 O310 1.247 . S
C308 O312 1.258 . S
C309 O316 1.247 . S
C309 O317 1.258 . S
O310 C308 1.247 . S
O310 Zn311 2.028 . S
Zn311 O310 2.028 . S
Zn311 O315 2.035 . S
Zn311 O317 2.035 . S
Zn311 O318 2.028 . S
O312 C308 1.258 . S
O312 Zn313 2.035 . S
Zn313 O312 2.035 . S
Zn313 O314 2.028 . S
Zn313 O316 2.028 . S
Zn313 O319 2.035 . S
O314 Zn313 2.028 . S
O314 C320 1.247 . S
O315 Zn311 2.035 . S
O315 C320 1.258 . S
O316 C309 1.247 . S
O316 Zn313 2.028 . S
O317 C309 1.258 . S
O317 Zn311 2.035 . S
O318 Zn311 2.028 . S
O318 C321 1.247 . S
O319 Zn313 2.035 . S
O319 C321 1.258 . S
C320 O314 1.247 . S
C320 O315 1.258 . S
C321 O318 1.247 . S
C321 O319 1.258 . S
C322 O324 1.247 . S
C322 O326 1.258 . S
C323 O330 1.247 . S
C323 O331 1.258 . S
O324 C322 1.247 . S
O324 Zn325 2.028 . S
Zn325 O324 2.028 . S
Zn325 O329 2.035 . S
Zn325 O331 2.035 . S
Zn325 O332 2.028 . S
O326 C322 1.258 . S
O326 Zn327 2.035 . S
Zn327 O326 2.035 . S
Zn327 O328 2.028 . S
Zn327 O330 2.028 . S
Zn327 O333 2.035 . S
O328 Zn327 2.028 . S
O328 C334 1.247 . S
O329 Zn325 2.035 . S
O329 C334 1.258 . S
O330 C323 1.247 . S
O330 Zn327 2.028 . S
O331 C323 1.258 . S
O331 Zn325 2.035 . S
O332 Zn325 2.028 . S
O332 C335 1.247 . S
O333 Zn327 2.035 . S
O333 C335 1.258 . S
C334 O328 1.247 . S
C334 O329 1.258 . S
C335 O332 1.247 . S
C335 O333 1.258 . S
C336 O338 1.247 . S
C336 O340 1.258 . S
C337 O344 1.247 . S
C337 O345 1.258 . S
O338 C336 1.247 . S
O338 Zn339 2.028 . S
Zn339 O338 2.028 . S
Zn339 O343 2.035 . S
Zn339 O345 2.035 . S
Zn339 O346 2.028 . S
O340 C336 1.258 . S
O340 Zn341 2.035 . S
Zn341 O340 2.035 . S
Zn341 O342 2.028 . S
Zn341 O344 2.028 . S
Zn341 O347 2.035 . S
O342 Zn341 2.028 . S
O342 C348 1.247 . S
O343 Zn339 2.035 . S
O343 C348 1.258 . S
O344 C337 1.247 . S
O344 Zn341 2.028 . S
O345 C337 1.258 . S
O345 Zn339 2.035 . S
O346 Zn339 2.028 . S
O346 C349 1.247 . S
O347 Zn341 2.035 . S
O347 C349 1.258 . S
C348 O342 1.247 . S
C348 O343 1.258 . S
C349 O346 1.247 . S
C349 O347 1.258 . S
C350 O352 1.247 . S
C350 O354 1.258 . S
C351 O358 1.247 . S
C351 O359 1.258 . S
O352 C350 1.247 . S
O352 Zn353 2.028 . S
Zn353 O352 2.028 . S
Zn353 O357 2.035 . S
Zn353 O359 2.035 . S
Zn353 O360 2.028 . S
O354 C350 1.258 . S
O354 Zn355 2.035 . S
Zn355 O354 2.035 . S
Zn355 O356 2.028 . S
Zn355 O358 2.028 . S
Zn355 O361 2.035 . S
O356 Zn355 2.028 . S
O356 C362 1.247 . S
O357 Zn353 2.035 . S
O357 C362 1.258 . S
O358 C351 1.247 . S
O358 Zn355 2.028 . S
O359 C351 1.258 . S
O359 Zn353 2.035 . S
O360 Zn353 2.028 . S
O360 C363 1.247 . S
O361 Zn355 2.035 . S
O361 C363 1.258 . S
C362 O356 1.247 . S
C362 O357 1.258 . S
C363 O360 1.247 . S
C363 O361 1.258 . S
C364 O366 1.247 . S
C364 O368 1.258 . S
C365 O372 1.247 . S
C365 O373 1.258 . S
O366 C364 1.247 . S
O366 Zn367 2.028 . S
Zn367 O366 2.028 . S
Zn367 O371 2.035 . S
Zn367 O373 2.035 . S
Zn367 O374 2.028 . S
O368 C364 1.258 . S
O368 Zn369 2.035 . S
Zn369 O368 2.035 . S
Zn369 O370 2.028 . S
Zn369 O372 2.028 . S
Zn369 O375 2.035 . S
O370 Zn369 2.028 . S
O370 C376 1.247 . S
O371 Zn367 2.035 . S
O371 C376 1.258 . S
O372 C365 1.247 . S
O372 Zn369 2.028 . S
O373 C365 1.258 . S
O373 Zn367 2.035 . S
O374 Zn367 2.028 . S
O374 C377 1.247 . S
O375 Zn369 2.035 . S
O375 C377 1.258 . S
C376 O370 1.247 . S
C376 O371 1.258 . S
C377 O374 1.247 . S
C377 O375 1.258 . S
C378 O380 1.247 . S
C378 O382 1.258 . S
C379 O386 1.247 . S
C379 O387 1.258 . S
O380 C378 1.247 . S
O380 Zn381 2.028 . S
Zn381 O380 2.028 . S
Zn381 O385 2.035 . S
Zn381 O387 2.035 . S
Zn381 O388 2.028 . S
O382 C378 1.258 . S
O382 Zn383 2.035 . S
Zn383 O382 2.035 . S
Zn383 O384 2.028 . S
Zn383 O386 2.028 . S
Zn383 O389 2.035 . S
O384 Zn383 2.028 . S
O384 C390 1.247 . S
O385 Zn381 2.035 . S
O385 C390 1.258 . S
O386 C379 1.247 . S
O386 Zn383 2.028 . S
O387 C379 1.258 . S
O387 Zn381 2.035 . S
O388 Zn381 2.028 . S
O388 C391 1.247 . S
O389 Zn383 2.035 . S
O389 C391 1.258 . S
C390 O384 1.247 . S
C390 O385 1.258 . S
C391 O388 1.247 . S
C391 O389 1.258 . S
C392 O394 1.247 . S
C392 O396 1.258 . S
C393 O400 1.247 . S
C393 O401 1.258 . S
O394 C392 1.247 . S
O394 Zn395 2.028 . S
Zn395 O394 2.028 . S
Zn395 O399 2.035 . S
Zn395 O401 2.035 . S
Zn395 O402 2.028 . S
O396 C392 1.258 . S
O396 Zn397 2.035 . S
Zn397 O396 2.035 . S
Zn397 O398 2.028 . S
Zn397 O400 2.028 . S
Zn397 O403 2.035 . S
O398 Zn397 2.028 . S
O398 C404 1.247 . S
O399 Zn395 2.035 . S
O399 C404 1.258 . S
O400 C393 1.247 . S
O400 Zn397 2.028 . S
O401 C393 1.258 . S
O401 Zn395 2.035 . S
O402 Zn395 2.028 . S
O402 C405 1.247 . S
O403 Zn397 2.035 . S
O403 C405 1.258 . S
C404 O398 1.247 . S
C404 O399 1.258 . S
C405 O402 1.247 . S
C405 O403 1.258 . S
C406 O408 1.247 . S
C406 O410 1.258 . S
C407 O414 1.247 . S
C407 O415 1.258 . S
O408 C406 1.247 . S
O408 Zn409 2.028 . S
Zn409 O408 2.028 . S
Zn409 O413 2.035 . S
Zn409 O415 2.035 . S
Zn409 O416 2.028 . S
O410 C406 1.258 . S
O410 Zn411 2.035 . S
Zn411 O410 2.035 . S
Zn411 O412 2.028 . S
Zn411 O414 2.028 . S
Zn411 O417 2.035 . S
O412 Zn411 2.028 . S
O412 C418 1.247 . S
O413 Zn409 2.035 . S
O413 C418 1.258 . S
O414 C407 1.247 . S
O414 Zn411 2.028 . S
O415 C407 1.258 . S
O415 Zn409 2.035 . S
O416 Zn409 2.028 . S
O416 C419 1.247 . S
O417 Zn411 2.035 . S
O417 C419 1.258 . S
C418 O412 1.247 . S
C418 O413 1.258 . S
C419 O416 1.247 . S
C419 O417 1.258 . S
C420 O422 1.247 . S
C420 O424 1.258 . S
C421 O428 1.247 . S
C421 O429 1.258 . S
O422 C420 1.247 . S
O422 Zn423 2.028 . S
Zn423 O422 2.028 . S
Zn423 O427 2.035 . S
Zn423 O429 2.035 . S
Zn423 O430 2.028 . S
O424 C420 1.258 . S
O424 Zn425 2.035 . S
Zn425 O424 2.035 . S
Zn425 O426 2.028 . S
Zn425 O428 2.028 . S
Zn425 O431 2.035 . S
O426 Zn425 2.028 . S
O426 C432 1.247 . S
O427 Zn423 2.035 . S
O427 C432 1.258 . S
O428 C421 1.247 . S
O428 Zn425 2.028 . S
O429 C421 1.258 . S
O429 Zn423 2.035 . S
O430 Zn423 2.028 . S
O430 C433 1.247 . S
O431 Zn425 2.035 . S
O431 C433 1.258 . S
C432 O426 1.247 . S
C432 O427 1.258 . S
C433 O430 1.247 . S
C433 O431 1.258 . S
C434 O436 1.247 . S
C434 O438 1.258 . S
C435 O442 1.247 . S
C435 O443 1.258 . S
O436 C434 1.247 . S
O436 Zn437 2.028 . S
Zn437 O436 2.028 . S
Zn437 O441 2.035 . S
Zn437 O443 2.035 . S
Zn437 O444 2.028 . S
O438 C434 1.258 . S
O438 Zn439 2.035 . S
Zn439 O438 2.035 . S
Zn439 O440 2.028 . S
Zn439 O442 2.028 . S
Zn439 O445 2.035 . S
O440 Zn439 2.028 . S
O440 C446 1.247 . S
O441 Zn437 2.035 . S
O441 C446 1.258 . S
O442 C435 1.247 . S
O442 Zn439 2.028 . S
O443 C435 1.258 . S
O443 Zn437 2.035 . S
O444 Zn437 2.028 . S
O444 C447 1.247 . S
O445 Zn439 2.035 . S
O445 C447 1.258 . S
C446 O440 1.247 . S
C446 O441 1.258 . S
C447 O444 1.247 . S
C447 O445 1.258 . S
H448 C460 0.930 . S
H449 C462 0.930 . S
H450 C463 0.930 . S
H451 C467 0.959 . S
H452 C467 0.959 . S
H453 C467 0.961 . S
H454 C468 0.960 . S
H455 C468 0.961 . S
H456 C468 0.959 . S
H457 C471 0.929 . S
H458 C472 0.931 . S
H459 C474 0.930 . S
C460 H448 0.930 . S
C460 C461 1.399 . S
C460 C465 1.399 . S
C461 C460 1.399 . S
C461 C462 1.376 . S
C462 H449 0.930 . S
C462 C461 1.376 . S
C462 C463 1.388 . S
C463 H450 0.930 . S
C463 C462 1.388 . S
C463 C464 1.390 . S
C464 C463 1.390 . S
C464 C465 1.394 . S
C464 C470 1.465 . S
C465 C460 1.399 . S
C465 C464 1.394 . S
C465 C466 1.516 . S
C466 C465 1.516 . S
C466 C467 1.502 . S
C466 C468 1.561 . S
C466 C469 1.526 . S
C467 H451 0.959 . S
C467 H452 0.959 . S
C467 H453 0.961 . S
C467 C466 1.502 . S
C468 H454 0.960 . S
C468 H455 0.961 . S
C468 H456 0.959 . S
C468 C466 1.561 . S
C469 C466 1.526 . S
C469 C470 1.396 . S
C469 C474 1.390 . S
C470 C464 1.465 . S
C470 C469 1.396 . S
C470 C471 1.399 . S
C471 H457 0.929 . S
C471 C470 1.399 . S
C471 C472 1.385 . S
C472 H458 0.931 . S
C472 C471 1.385 . S
C472 C473 1.389 . S
C473 C472 1.389 . S
C473 C474 1.387 . S
C474 H459 0.930 . S
C474 C469 1.390 . S
C474 C473 1.387 . S
H475 C487 0.930 . S
H476 C489 0.930 . S
H477 C490 0.930 . S
H478 C494 0.959 . S
H479 C494 0.959 . S
H480 C494 0.961 . S
H481 C495 0.955 1_455 S
H482 C495 0.961 . S
H483 C495 0.959 . S
H484 C498 0.929 . S
H485 C499 0.931 . S
H486 C501 0.930 . S
C487 H475 0.930 . S
C487 C488 1.399 . S
C487 C492 1.399 1_455 S
C488 C487 1.399 . S
C488 C489 1.376 . S
C489 H476 0.930 . S
C489 C488 1.376 . S
C489 C490 1.388 1_455 S
C490 H477 0.930 . S
C490 C489 1.388 1_655 S
C490 C491 1.390 . S
C491 C490 1.390 . S
C491 C492 1.394 . S
C491 C497 1.465 . S
C492 C487 1.399 1_655 S
C492 C491 1.394 . S
C492 C493 1.516 . S
C493 C492 1.516 . S
C493 C494 1.502 . S
C493 C495 1.561 . S
C493 C496 1.526 . S
C494 H478 0.959 . S
C494 H479 0.959 . S
C494 H480 0.961 . S
C494 C493 1.502 . S
C495 H481 0.955 1_655 S
C495 H482 0.961 . S
C495 H483 0.959 . S
C495 C493 1.561 . S
C496 C493 1.526 . S
C496 C497 1.396 . S
C496 C501 1.390 . S
C497 C491 1.465 . S
C497 C496 1.396 . S
C497 C498 1.399 . S
C498 H484 0.929 . S
C498 C497 1.399 . S
C498 C499 1.385 . S
C499 H485 0.931 . S
C499 C498 1.385 . S
C499 C500 1.389 . S
C500 C499 1.389 . S
C500 C501 1.387 . S
C501 H486 0.930 . S
C501 C496 1.390 . S
C501 C500 1.387 . S
H502 C514 0.930 . S
H503 C516 0.930 . S
H504 C517 0.930 . S
H505 C521 0.959 . S
H506 C521 0.959 . S
H507 C521 0.961 . S
H508 C522 0.960 . S
H509 C522 0.961 . S
H510 C522 0.959 . S
H511 C525 0.929 . S
H512 C526 0.931 . S
H513 C528 0.930 . S
C514 H502 0.930 . S
C514 C515 1.399 . S
C514 C519 1.399 . S
C515 C514 1.399 . S
C515 C516 1.376 . S
C516 H503 0.930 . S
C516 C515 1.376 . S
C516 C517 1.388 . S
C517 H504 0.930 . S
C517 C516 1.388 . S
C517 C518 1.390 . S
C518 C517 1.390 . S
C518 C519 1.394 . S
C518 C524 1.465 . S
C519 C514 1.399 . S
C519 C518 1.394 . S
C519 C520 1.516 . S
C520 C519 1.516 . S
C520 C521 1.502 . S
C520 C522 1.561 . S
C520 C523 1.526 . S
C521 H505 0.959 . S
C521 H506 0.959 . S
C521 H507 0.961 . S
C521 C520 1.502 . S
C522 H508 0.960 . S
C522 H509 0.961 . S
C522 H510 0.959 . S
C522 C520 1.561 . S
C523 C520 1.526 . S
C523 C524 1.396 . S
C523 C528 1.390 . S
C524 C518 1.465 . S
C524 C523 1.396 . S
C524 C525 1.399 . S
C525 H511 0.929 . S
C525 C524 1.399 . S
C525 C526 1.385 . S
C526 H512 0.931 . S
C526 C525 1.385 . S
C526 C527 1.389 . S
C527 C526 1.389 . S
C527 C528 1.387 . S
C528 H513 0.930 . S
C528 C523 1.390 . S
C528 C527 1.387 . S
H529 C541 0.930 . S
H530 C543 0.930 . S
H531 C544 0.930 . S
H532 C548 0.959 . S
H533 C548 0.959 . S
H534 C548 0.961 . S
H535 C549 0.960 . S
H536 C549 0.961 . S
H537 C549 0.959 . S
H538 C552 0.929 . S
H539 C553 0.931 . S
H540 C555 0.930 . S
C541 H529 0.930 . S
C541 C542 1.399 . S
C541 C546 1.399 . S
C542 C541 1.399 . S
C542 C543 1.376 . S
C543 H530 0.930 . S
C543 C542 1.376 . S
C543 C544 1.388 . S
C544 H531 0.930 . S
C544 C543 1.388 . S
C544 C545 1.390 . S
C545 C544 1.390 . S
C545 C546 1.394 . S
C545 C551 1.465 . S
C546 C541 1.399 . S
C546 C545 1.394 . S
C546 C547 1.516 . S
C547 C546 1.516 . S
C547 C548 1.502 . S
C547 C549 1.561 . S
C547 C550 1.526 . S
C548 H532 0.959 . S
C548 H533 0.959 . S
C548 H534 0.961 . S
C548 C547 1.502 . S
C549 H535 0.960 . S
C549 H536 0.961 . S
C549 H537 0.959 . S
C549 C547 1.561 . S
C550 C547 1.526 . S
C550 C551 1.396 . S
C550 C555 1.390 . S
C551 C545 1.465 . S
C551 C550 1.396 . S
C551 C552 1.399 . S
C552 H538 0.929 . S
C552 C551 1.399 . S
C552 C553 1.385 . S
C553 H539 0.931 . S
C553 C552 1.385 . S
C553 C554 1.389 . S
C554 C553 1.389 . S
C554 C555 1.387 . S
C555 H540 0.930 . S
C555 C550 1.390 . S
C555 C554 1.387 . S
H556 C568 0.930 . S
H557 C570 0.930 . S
H558 C571 0.930 . S
H559 C575 0.959 . S
H560 C575 0.959 . S
H561 C575 0.961 . S
H562 C576 0.960 . S
H563 C576 0.961 . S
H564 C576 0.959 . S
H565 C579 0.929 . S
H566 C580 0.931 . S
H567 C582 0.930 . S
C568 H556 0.930 . S
C568 C569 1.399 . S
C568 C573 1.399 . S
C569 C568 1.399 . S
C569 C570 1.376 . S
C570 H557 0.930 . S
C570 C569 1.376 . S
C570 C571 1.388 . S
C571 H558 0.930 . S
C571 C570 1.388 . S
C571 C572 1.390 . S
C572 C571 1.390 . S
C572 C573 1.394 . S
C572 C578 1.465 . S
C573 C568 1.399 . S
C573 C572 1.394 . S
C573 C574 1.516 . S
C574 C573 1.516 . S
C574 C575 1.502 . S
C574 C576 1.561 . S
C574 C577 1.526 . S
C575 H559 0.959 . S
C575 H560 0.959 . S
C575 H561 0.961 . S
C575 C574 1.502 . S
C576 H562 0.960 . S
C576 H563 0.961 . S
C576 H564 0.959 . S
C576 C574 1.561 . S
C577 C574 1.526 . S
C577 C578 1.396 . S
C577 C582 1.390 . S
C578 C572 1.465 . S
C578 C577 1.396 . S
C578 C579 1.399 . S
C579 H565 0.929 . S
C579 C578 1.399 . S
C579 C580 1.385 . S
C580 H566 0.931 . S
C580 C579 1.385 . S
C580 C581 1.389 . S
C581 C580 1.389 . S
C581 C582 1.387 . S
C582 H567 0.930 . S
C582 C577 1.390 . S
C582 C581 1.387 . S
H583 C595 0.930 . S
H584 C597 0.930 . S
H585 C598 0.930 . S
H586 C602 0.959 . S
H587 C602 0.959 . S
H588 C602 0.961 . S
H589 C603 0.960 . S
H590 C603 0.961 . S
H591 C603 0.959 . S
H592 C606 0.929 . S
H593 C607 0.931 . S
H594 C609 0.930 . S
C595 H583 0.930 . S
C595 C596 1.399 . S
C595 C600 1.399 . S
C596 C595 1.399 . S
C596 C597 1.376 . S
C597 H584 0.930 . S
C597 C596 1.376 . S
C597 C598 1.388 . S
C598 H585 0.930 . S
C598 C597 1.388 . S
C598 C599 1.390 . S
C599 C598 1.390 . S
C599 C600 1.394 . S
C599 C605 1.465 . S
C600 C595 1.399 . S
C600 C599 1.394 . S
C600 C601 1.516 . S
C601 C600 1.516 . S
C601 C602 1.502 . S
C601 C603 1.561 . S
C601 C604 1.526 . S
C602 H586 0.959 . S
C602 H587 0.959 . S
C602 H588 0.961 . S
C602 C601 1.502 . S
C603 H589 0.960 . S
C603 H590 0.961 . S
C603 H591 0.959 . S
C603 C601 1.561 . S
C604 C601 1.526 . S
C604 C605 1.396 . S
C604 C609 1.390 . S
C605 C599 1.465 . S
C605 C604 1.396 . S
C605 C606 1.399 . S
C606 H592 0.929 . S
C606 C605 1.399 . S
C606 C607 1.385 . S
C607 H593 0.931 . S
C607 C606 1.385 . S
C607 C608 1.389 . S
C608 C607 1.389 . S
C608 C609 1.387 . S
C609 H594 0.930 . S
C609 C604 1.390 . S
C609 C608 1.387 . S
H610 C622 0.930 . S
H611 C624 0.930 . S
H612 C625 0.930 . S
H613 C629 0.959 . S
H614 C629 0.959 . S
H615 C629 0.961 . S
H616 C630 0.960 . S
H617 C630 0.961 . S
H618 C630 0.959 . S
H619 C633 0.929 . S
H620 C634 0.931 . S
H621 C636 0.930 . S
C622 H610 0.930 . S
C622 C623 1.399 . S
C622 C627 1.399 . S
C623 C622 1.399 . S
C623 C624 1.376 . S
C624 H611 0.930 . S
C624 C623 1.376 . S
C624 C625 1.388 . S
C625 H612 0.930 . S
C625 C624 1.388 . S
C625 C626 1.390 . S
C626 C625 1.390 . S
C626 C627 1.394 . S
C626 C632 1.465 . S
C627 C622 1.399 . S
C627 C626 1.394 . S
C627 C628 1.516 . S
C628 C627 1.516 . S
C628 C629 1.502 . S
C628 C630 1.561 . S
C628 C631 1.526 . S
C629 H613 0.959 . S
C629 H614 0.959 . S
C629 H615 0.961 . S
C629 C628 1.502 . S
C630 H616 0.960 . S
C630 H617 0.961 . S
C630 H618 0.959 . S
C630 C628 1.561 . S
C631 C628 1.526 . S
C631 C632 1.396 . S
C631 C636 1.390 . S
C632 C626 1.465 . S
C632 C631 1.396 . S
C632 C633 1.399 . S
C633 H619 0.929 . S
C633 C632 1.399 . S
C633 C634 1.385 . S
C634 H620 0.931 . S
C634 C633 1.385 . S
C634 C635 1.389 . S
C635 C634 1.389 . S
C635 C636 1.387 . S
C636 H621 0.930 . S
C636 C631 1.390 . S
C636 C635 1.387 . S
H637 C649 0.930 . S
H638 C651 0.930 . S
H639 C652 0.930 . S
H640 C656 0.959 . S
H641 C656 0.959 . S
H642 C656 0.961 1_455 S
H643 C657 0.960 . S
H644 C657 0.961 . S
H645 C657 0.959 . S
H646 C660 0.929 . S
H647 C661 0.931 . S
H648 C663 0.930 . S
C649 H637 0.930 . S
C649 C650 1.399 . S
C649 C654 1.399 1_455 S
C650 C649 1.399 . S
C650 C651 1.376 . S
C651 H638 0.930 . S
C651 C650 1.376 . S
C651 C652 1.388 1_455 S
C652 H639 0.930 . S
C652 C651 1.388 1_655 S
C652 C653 1.390 . S
C653 C652 1.390 . S
C653 C654 1.394 . S
C653 C659 1.465 . S
C654 C649 1.399 1_655 S
C654 C653 1.394 . S
C654 C655 1.516 . S
C655 C654 1.516 . S
C655 C656 1.502 . S
C655 C657 1.561 . S
C655 C658 1.526 . S
C656 H640 0.959 . S
C656 H641 0.959 . S
C656 H642 0.961 1_655 S
C656 C655 1.502 . S
C657 H643 0.960 . S
C657 H644 0.961 . S
C657 H645 0.959 . S
C657 C655 1.561 . S
C658 C655 1.526 . S
C658 C659 1.396 . S
C658 C663 1.390 . S
C659 C653 1.465 . S
C659 C658 1.396 . S
C659 C660 1.399 . S
C660 H646 0.929 . S
C660 C659 1.399 . S
C660 C661 1.385 . S
C661 H647 0.931 . S
C661 C660 1.385 . S
C661 C662 1.389 . S
C662 C661 1.389 . S
C662 C663 1.387 . S
C663 H648 0.930 . S
C663 C658 1.390 . S
C663 C662 1.387 . S
H664 C676 0.930 . S
H665 C678 0.930 . S
H666 C679 0.930 . S
H667 C683 0.959 . S
H668 C683 0.959 . S
H669 C683 0.961 . S
H670 C684 0.960 . S
H671 C684 0.961 . S
H672 C684 0.959 . S
H673 C687 0.929 . S
H674 C688 0.931 . S
H675 C690 0.930 . S
C676 H664 0.930 . S
C676 C677 1.399 . S
C676 C681 1.399 . S
C677 C676 1.399 . S
C677 C678 1.376 . S
C678 H665 0.930 . S
C678 C677 1.376 . S
C678 C679 1.388 . S
C679 H666 0.930 . S
C679 C678 1.388 . S
C679 C680 1.390 . S
C680 C679 1.390 . S
C680 C681 1.394 . S
C680 C686 1.465 . S
C681 C676 1.399 . S
C681 C680 1.394 . S
C681 C682 1.516 . S
C682 C681 1.516 . S
C682 C683 1.502 . S
C682 C684 1.561 . S
C682 C685 1.526 . S
C683 H667 0.959 . S
C683 H668 0.959 . S
C683 H669 0.961 . S
C683 C682 1.502 . S
C684 H670 0.960 . S
C684 H671 0.961 . S
C684 H672 0.959 . S
C684 C682 1.561 . S
C685 C682 1.526 . S
C685 C686 1.396 . S
C685 C690 1.390 . S
C686 C680 1.465 . S
C686 C685 1.396 . S
C686 C687 1.399 . S
C687 H673 0.929 . S
C687 C686 1.399 . S
C687 C688 1.385 . S
C688 H674 0.931 . S
C688 C687 1.385 . S
C688 C689 1.389 . S
C689 C688 1.389 . S
C689 C690 1.387 . S
C690 H675 0.930 . S
C690 C685 1.390 . S
C690 C689 1.387 . S
H691 C703 0.930 . S
H692 C705 0.930 . S
H693 C706 0.930 . S
H694 C710 0.959 . S
H695 C710 0.959 . S
H696 C710 0.961 . S
H697 C711 0.960 . S
H698 C711 0.961 . S
H699 C711 0.959 . S
H700 C714 0.929 . S
H701 C715 0.931 . S
H702 C717 0.930 . S
C703 H691 0.930 . S
C703 C704 1.399 . S
C703 C708 1.399 . S
C704 C703 1.399 . S
C704 C705 1.376 . S
C705 H692 0.930 . S
C705 C704 1.376 . S
C705 C706 1.388 . S
C706 H693 0.930 . S
C706 C705 1.388 . S
C706 C707 1.390 . S
C707 C706 1.390 . S
C707 C708 1.394 . S
C707 C713 1.465 . S
C708 C703 1.399 . S
C708 C707 1.394 . S
C708 C709 1.516 . S
C709 C708 1.516 . S
C709 C710 1.502 . S
C709 C711 1.561 . S
C709 C712 1.526 . S
C710 H694 0.959 . S
C710 H695 0.959 . S
C710 H696 0.961 . S
C710 C709 1.502 . S
C711 H697 0.960 . S
C711 H698 0.961 . S
C711 H699 0.959 . S
C711 C709 1.561 . S
C712 C709 1.526 . S
C712 C713 1.396 . S
C712 C717 1.390 . S
C713 C707 1.465 . S
C713 C712 1.396 . S
C713 C714 1.399 1_455 S
C714 H700 0.929 . S
C714 C713 1.399 1_655 S
C714 C715 1.385 . S
C715 H701 0.931 . S
C715 C714 1.385 . S
C715 C716 1.389 . S
C716 C715 1.389 . S
C716 C717 1.387 1_655 S
C717 H702 0.930 . S
C717 C712 1.390 . S
C717 C716 1.387 1_455 S
H718 C730 0.930 . S
H719 C732 0.930 . S
H720 C733 0.930 . S
H721 C737 0.959 . S
H722 C737 0.959 . S
H723 C737 0.961 . S
H724 C738 0.960 . S
H725 C738 0.961 . S
H726 C738 0.959 . S
H727 C741 0.929 . S
H728 C742 0.931 . S
H729 C744 0.930 . S
C730 H718 0.930 . S
C730 C731 1.399 . S
C730 C735 1.399 . S
C731 C730 1.399 . S
C731 C732 1.376 . S
C732 H719 0.930 . S
C732 C731 1.376 . S
C732 C733 1.388 . S
C733 H720 0.930 . S
C733 C732 1.388 . S
C733 C734 1.390 . S
C734 C733 1.390 . S
C734 C735 1.394 . S
C734 C740 1.465 . S
C735 C730 1.399 . S
C735 C734 1.394 . S
C735 C736 1.516 . S
C736 C735 1.516 . S
C736 C737 1.502 . S
C736 C738 1.561 . S
C736 C739 1.526 . S
C737 H721 0.959 . S
C737 H722 0.959 . S
C737 H723 0.961 . S
C737 C736 1.502 . S
C738 H724 0.960 . S
C738 H725 0.961 . S
C738 H726 0.959 . S
C738 C736 1.561 . S
C739 C736 1.526 . S
C739 C740 1.396 . S
C739 C744 1.390 . S
C740 C734 1.465 . S
C740 C739 1.396 . S
C740 C741 1.399 . S
C741 H727 0.929 . S
C741 C740 1.399 . S
C741 C742 1.385 . S
C742 H728 0.931 . S
C742 C741 1.385 . S
C742 C743 1.389 . S
C743 C742 1.389 . S
C743 C744 1.387 . S
C744 H729 0.930 . S
C744 C739 1.390 . S
C744 C743 1.387 . S
H745 C757 0.930 . S
H746 C759 0.930 . S
H747 C760 0.930 . S
H748 C764 0.959 . S
H749 C764 0.959 . S
H750 C764 0.961 . S
H751 C765 0.960 . S
H752 C765 0.961 . S
H753 C765 0.959 . S
H754 C768 0.929 . S
H755 C769 0.931 . S
H756 C771 0.930 . S
C757 H745 0.930 . S
C757 C758 1.399 . S
C757 C762 1.399 . S
C758 C757 1.399 . S
C758 C759 1.376 . S
C759 H746 0.930 . S
C759 C758 1.376 . S
C759 C760 1.388 . S
C760 H747 0.930 . S
C760 C759 1.388 . S
C760 C761 1.390 . S
C761 C760 1.390 . S
C761 C762 1.394 . S
C761 C767 1.465 . S
C762 C757 1.399 . S
C762 C761 1.394 . S
C762 C763 1.516 . S
C763 C762 1.516 . S
C763 C764 1.502 . S
C763 C765 1.561 . S
C763 C766 1.526 . S
C764 H748 0.959 . S
C764 H749 0.959 . S
C764 H750 0.961 . S
C764 C763 1.502 . S
C765 H751 0.960 . S
C765 H752 0.961 . S
C765 H753 0.959 . S
C765 C763 1.561 . S
C766 C763 1.526 . S
C766 C767 1.396 . S
C766 C771 1.390 . S
C767 C761 1.465 . S
C767 C766 1.396 . S
C767 C768 1.399 . S
C768 H754 0.929 . S
C768 C767 1.399 . S
C768 C769 1.385 . S
C769 H755 0.931 . S
C769 C768 1.385 . S
C769 C770 1.389 . S
C770 C769 1.389 . S
C770 C771 1.387 . S
C771 H756 0.930 . S
C771 C766 1.390 . S
C771 C770 1.387 . S
H772 C784 0.930 . S
H773 C786 0.930 . S
H774 C787 0.930 . S
H775 C791 0.959 . S
H776 C791 0.959 . S
H777 C791 0.961 . S
H778 C792 0.960 . S
H779 C792 0.961 . S
H780 C792 0.959 . S
H781 C795 0.929 . S
H782 C796 0.931 . S
H783 C798 0.930 . S
C784 H772 0.930 . S
C784 C785 1.399 . S
C784 C789 1.399 . S
C785 C784 1.399 . S
C785 C786 1.376 . S
C786 H773 0.930 . S
C786 C785 1.376 . S
C786 C787 1.388 . S
C787 H774 0.930 . S
C787 C786 1.388 . S
C787 C788 1.390 . S
C788 C787 1.390 . S
C788 C789 1.394 . S
C788 C794 1.465 . S
C789 C784 1.399 . S
C789 C788 1.394 . S
C789 C790 1.516 . S
C790 C789 1.516 . S
C790 C791 1.502 . S
C790 C792 1.561 . S
C790 C793 1.526 . S
C791 H775 0.959 . S
C791 H776 0.959 . S
C791 H777 0.961 . S
C791 C790 1.502 . S
C792 H778 0.960 . S
C792 H779 0.961 . S
C792 H780 0.959 . S
C792 C790 1.561 . S
C793 C790 1.526 . S
C793 C794 1.396 . S
C793 C798 1.390 . S
C794 C788 1.465 . S
C794 C793 1.396 . S
C794 C795 1.399 . S
C795 H781 0.929 . S
C795 C794 1.399 . S
C795 C796 1.385 . S
C796 H782 0.931 . S
C796 C795 1.385 . S
C796 C797 1.389 . S
C797 C796 1.389 . S
C797 C798 1.387 . S
C798 H783 0.930 . S
C798 C793 1.390 . S
C798 C797 1.387 . S
H799 C811 0.930 . S
H800 C813 0.930 . S
H801 C814 0.930 . S
H802 C818 0.959 . S
H803 C818 0.959 . S
H804 C818 0.961 . S
H805 C819 0.960 . S
H806 C819 0.961 . S
H807 C819 0.959 . S
H808 C822 0.929 . S
H809 C823 0.931 . S
H810 C825 0.930 . S
C811 H799 0.930 . S
C811 C812 1.399 . S
C811 C816 1.399 . S
C812 C811 1.399 . S
C812 C813 1.376 . S
C813 H800 0.930 . S
C813 C812 1.376 . S
C813 C814 1.388 . S
C814 H801 0.930 . S
C814 C813 1.388 . S
C814 C815 1.390 . S
C815 C814 1.390 . S
C815 C816 1.394 . S
C815 C821 1.465 . S
C816 C811 1.399 . S
C816 C815 1.394 . S
C816 C817 1.516 . S
C817 C816 1.516 . S
C817 C818 1.502 . S
C817 C819 1.561 . S
C817 C820 1.526 . S
C818 H802 0.959 . S
C818 H803 0.959 . S
C818 H804 0.961 . S
C818 C817 1.502 . S
C819 H805 0.960 . S
C819 H806 0.961 . S
C819 H807 0.959 . S
C819 C817 1.561 . S
C820 C817 1.526 . S
C820 C821 1.396 . S
C820 C825 1.390 . S
C821 C815 1.465 . S
C821 C820 1.396 . S
C821 C822 1.399 . S
C822 H808 0.929 . S
C822 C821 1.399 . S
C822 C823 1.385 . S
C823 H809 0.931 . S
C823 C822 1.385 . S
C823 C824 1.389 . S
C824 C823 1.389 . S
C824 C825 1.387 . S
C825 H810 0.930 . S
C825 C820 1.390 . S
C825 C824 1.387 . S
H826 C838 0.930 . S
H827 C840 0.930 . S
H828 C841 0.930 . S
H829 C845 0.959 . S
H830 C845 0.959 . S
H831 C845 0.961 . S
H832 C846 0.960 . S
H833 C846 0.961 . S
H834 C846 0.959 . S
H835 C849 0.929 . S
H836 C850 0.931 . S
H837 C852 0.930 . S
C838 H826 0.930 . S
C838 C839 1.399 . S
C838 C843 1.399 . S
C839 C838 1.399 . S
C839 C840 1.376 . S
C840 H827 0.930 . S
C840 C839 1.376 . S
C840 C841 1.388 . S
C841 H828 0.930 . S
C841 C840 1.388 . S
C841 C842 1.390 . S
C842 C841 1.390 . S
C842 C843 1.394 . S
C842 C848 1.465 . S
C843 C838 1.399 . S
C843 C842 1.394 . S
C843 C844 1.516 . S
C844 C843 1.516 . S
C844 C845 1.502 . S
C844 C846 1.561 . S
C844 C847 1.526 . S
C845 H829 0.959 . S
C845 H830 0.959 . S
C845 H831 0.961 . S
C845 C844 1.502 . S
C846 H832 0.960 . S
C846 H833 0.961 . S
C846 H834 0.959 . S
C846 C844 1.561 . S
C847 C844 1.526 . S
C847 C848 1.396 . S
C847 C852 1.390 . S
C848 C842 1.465 . S
C848 C847 1.396 . S
C848 C849 1.399 . S
C849 H835 0.929 . S
C849 C848 1.399 . S
C849 C850 1.385 . S
C850 H836 0.931 . S
C850 C849 1.385 . S
C850 C851 1.389 . S
C851 C850 1.389 . S
C851 C852 1.387 . S
C852 H837 0.930 . S
C852 C847 1.390 . S
C852 C851 1.387 . S
H853 C865 0.930 . S
H854 C867 0.930 . S
H855 C868 0.930 . S
H856 C872 0.959 . S
H857 C872 0.968 . S
H858 C872 0.961 . S
H859 C873 0.960 . S
H860 C873 0.961 . S
H861 C873 0.959 . S
H862 C876 0.929 . S
H863 C877 0.931 . S
H864 C879 0.930 . S
C865 H853 0.930 . S
C865 C866 1.399 . S
C865 C870 1.399 . S
C866 C865 1.399 . S
C866 C867 1.376 . S
C867 H854 0.930 . S
C867 C866 1.376 . S
C867 C868 1.388 . S
C868 H855 0.930 . S
C868 C867 1.388 . S
C868 C869 1.390 . S
C869 C868 1.390 . S
C869 C870 1.394 . S
C869 C875 1.465 . S
C870 C865 1.399 . S
C870 C869 1.394 . S
C870 C871 1.516 . S
C871 C870 1.516 . S
C871 C872 1.502 . S
C871 C873 1.561 . S
C871 C874 1.526 . S
C872 H856 0.959 . S
C872 H857 0.968 . S
C872 H858 0.961 . S
C872 C871 1.502 . S
C873 H859 0.960 . S
C873 H860 0.961 . S
C873 H861 0.959 . S
C873 C871 1.561 . S
C874 C871 1.526 . S
C874 C875 1.396 . S
C874 C879 1.390 1_455 S
C875 C869 1.465 . S
C875 C874 1.396 . S
C875 C876 1.399 . S
C876 H862 0.929 . S
C876 C875 1.399 . S
C876 C877 1.385 1_455 S
C877 H863 0.931 . S
C877 C876 1.385 1_655 S
C877 C878 1.389 . S
C878 C877 1.389 . S
C878 C879 1.387 . S
C879 H864 0.930 . S
C879 C874 1.390 1_655 S
C879 C878 1.387 . S
H880 C892 0.930 . S
H881 C894 0.930 . S
H882 C895 0.930 . S
H883 C899 0.959 . S
H884 C899 0.959 . S
H885 C899 0.961 . S
H886 C900 0.960 . S
H887 C900 0.961 . S
H888 C900 0.959 . S
H889 C903 0.929 . S
H890 C904 0.931 . S
H891 C906 0.930 . S
C892 H880 0.930 . S
C892 C893 1.399 . S
C892 C897 1.399 . S
C893 C892 1.399 . S
C893 C894 1.376 . S
C894 H881 0.930 . S
C894 C893 1.376 . S
C894 C895 1.388 . S
C895 H882 0.930 . S
C895 C894 1.388 . S
C895 C896 1.390 . S
C896 C895 1.390 . S
C896 C897 1.394 . S
C896 C902 1.465 . S
C897 C892 1.399 . S
C897 C896 1.394 . S
C897 C898 1.516 . S
C898 C897 1.516 . S
C898 C899 1.502 . S
C898 C900 1.561 . S
C898 C901 1.526 . S
C899 H883 0.959 . S
C899 H884 0.959 . S
C899 H885 0.961 . S
C899 C898 1.502 . S
C900 H886 0.960 . S
C900 H887 0.961 . S
C900 H888 0.959 . S
C900 C898 1.561 . S
C901 C898 1.526 . S
C901 C902 1.396 . S
C901 C906 1.390 . S
C902 C896 1.465 . S
C902 C901 1.396 . S
C902 C903 1.399 . S
C903 H889 0.929 . S
C903 C902 1.399 . S
C903 C904 1.385 . S
C904 H890 0.931 . S
C904 C903 1.385 . S
C904 C905 1.389 . S
C905 C904 1.389 . S
C905 C906 1.387 . S
C906 H891 0.930 . S
C906 C901 1.390 . S
C906 C905 1.387 . S
H907 C919 0.930 . S
H908 C921 0.930 . S
H909 C922 0.930 . S
H910 C926 0.959 . S
H911 C926 0.959 . S
H912 C926 0.961 . S
H913 C927 0.960 . S
H914 C927 0.961 . S
H915 C927 0.959 . S
H916 C930 0.929 . S
H917 C931 0.931 . S
H918 C933 0.930 . S
C919 H907 0.930 . S
C919 C920 1.399 . S
C919 C924 1.399 . S
C920 C919 1.399 . S
C920 C921 1.376 . S
C921 H908 0.930 . S
C921 C920 1.376 . S
C921 C922 1.388 . S
C922 H909 0.930 . S
C922 C921 1.388 . S
C922 C923 1.390 . S
C923 C922 1.390 . S
C923 C924 1.394 . S
C923 C929 1.465 . S
C924 C919 1.399 . S
C924 C923 1.394 . S
C924 C925 1.516 . S
C925 C924 1.516 . S
C925 C926 1.502 . S
C925 C927 1.561 . S
C925 C928 1.526 . S
C926 H910 0.959 . S
C926 H911 0.959 . S
C926 H912 0.961 . S
C926 C925 1.502 . S
C927 H913 0.960 . S
C927 H914 0.961 . S
C927 H915 0.959 . S
C927 C925 1.561 . S
C928 C925 1.526 . S
C928 C929 1.396 . S
C928 C933 1.390 . S
C929 C923 1.465 . S
C929 C928 1.396 . S
C929 C930 1.399 . S
C930 H916 0.929 . S
C930 C929 1.399 . S
C930 C931 1.385 . S
C931 H917 0.931 . S
C931 C930 1.385 . S
C931 C932 1.389 . S
C932 C931 1.389 . S
C932 C933 1.387 . S
C933 H918 0.930 . S
C933 C928 1.390 . S
C933 C932 1.387 . S
H934 C946 0.930 . S
H935 C948 0.930 . S
H936 C949 0.930 . S
H937 C953 0.959 . S
H938 C953 0.959 . S
H939 C953 0.961 . S
H940 C954 0.960 . S
H941 C954 0.961 . S
H942 C954 0.959 . S
H943 C957 0.929 . S
H944 C958 0.931 . S
H945 C960 0.930 . S
C946 H934 0.930 . S
C946 C947 1.399 . S
C946 C951 1.399 . S
C947 C946 1.399 . S
C947 C948 1.376 . S
C948 H935 0.930 . S
C948 C947 1.376 . S
C948 C949 1.388 . S
C949 H936 0.930 . S
C949 C948 1.388 . S
C949 C950 1.390 . S
C950 C949 1.390 . S
C950 C951 1.394 . S
C950 C956 1.465 . S
C951 C946 1.399 . S
C951 C950 1.394 . S
C951 C952 1.516 . S
C952 C951 1.516 . S
C952 C953 1.502 . S
C952 C954 1.561 . S
C952 C955 1.526 . S
C953 H937 0.959 . S
C953 H938 0.959 . S
C953 H939 0.961 . S
C953 C952 1.502 . S
C954 H940 0.960 . S
C954 H941 0.961 . S
C954 H942 0.959 . S
C954 C952 1.561 . S
C955 C952 1.526 . S
C955 C956 1.396 . S
C955 C960 1.390 . S
C956 C950 1.465 . S
C956 C955 1.396 . S
C956 C957 1.399 . S
C957 H943 0.929 . S
C957 C956 1.399 . S
C957 C958 1.385 . S
C958 H944 0.931 . S
C958 C957 1.385 . S
C958 C959 1.389 . S
C959 C958 1.389 . S
C959 C960 1.387 . S
C960 H945 0.930 . S
C960 C955 1.390 . S
C960 C959 1.387 . S
H961 C973 0.930 . S
H962 C975 0.930 . S
H963 C976 0.930 . S
H964 C980 0.959 . S
H965 C980 0.959 . S
H966 C980 0.961 . S
H967 C981 0.960 . S
H968 C981 0.961 . S
H969 C981 0.959 . S
H970 C984 0.929 . S
H971 C985 0.931 . S
H972 C987 0.930 . S
C973 H961 0.930 . S
C973 C974 1.399 . S
C973 C978 1.399 . S
C974 C973 1.399 . S
C974 C975 1.376 . S
C975 H962 0.930 . S
C975 C974 1.376 . S
C975 C976 1.388 . S
C976 H963 0.930 . S
C976 C975 1.388 . S
C976 C977 1.390 . S
C977 C976 1.390 . S
C977 C978 1.394 . S
C977 C983 1.465 . S
C978 C973 1.399 . S
C978 C977 1.394 . S
C978 C979 1.516 . S
C979 C978 1.516 . S
C979 C980 1.502 . S
C979 C981 1.561 . S
C979 C982 1.526 . S
C980 H964 0.959 . S
C980 H965 0.959 . S
C980 H966 0.961 . S
C980 C979 1.502 . S
C981 H967 0.960 . S
C981 H968 0.961 . S
C981 H969 0.959 . S
C981 C979 1.561 . S
C982 C979 1.526 . S
C982 C983 1.396 . S
C982 C987 1.390 1_455 S
C983 C977 1.465 . S
C983 C982 1.396 . S
C983 C984 1.399 . S
C984 H970 0.929 . S
C984 C983 1.399 . S
C984 C985 1.385 1_455 S
C985 H971 0.931 . S
C985 C984 1.385 1_655 S
C985 C986 1.389 . S
C986 C985 1.389 . S
C986 C987 1.387 . S
C987 H972 0.930 . S
C987 C982 1.390 1_655 S
C987 C986 1.387 . S
H988 C1000 0.930 . S
H989 C1002 0.930 . S
H990 C1003 0.930 . S
H991 C1007 0.959 . S
H992 C1007 0.959 . S
H993 C1007 0.961 . S
H994 C1008 0.960 . S
H995 C1008 0.961 . S
H996 C1008 0.959 . S
H997 C1011 0.929 . S
H998 C1012 0.931 . S
H999 C1014 0.930 . S
C1000 H988 0.930 . S
C1000 C1001 1.399 . S
C1000 C1005 1.399 . S
C1001 C1000 1.399 . S
C1001 C1002 1.376 . S
C1002 H989 0.930 . S
C1002 C1001 1.376 . S
C1002 C1003 1.388 . S
C1003 H990 0.930 . S
C1003 C1002 1.388 . S
C1003 C1004 1.390 . S
C1004 C1003 1.390 . S
C1004 C1005 1.394 . S
C1004 C1010 1.465 . S
C1005 C1000 1.399 . S
C1005 C1004 1.394 . S
C1005 C1006 1.516 . S
C1006 C1005 1.516 . S
C1006 C1007 1.502 . S
C1006 C1008 1.561 . S
C1006 C1009 1.526 . S
C1007 H991 0.959 . S
C1007 H992 0.959 . S
C1007 H993 0.961 . S
C1007 C1006 1.502 . S
C1008 H994 0.960 . S
C1008 H995 0.961 . S
C1008 H996 0.959 . S
C1008 C1006 1.561 . S
C1009 C1006 1.526 . S
C1009 C1010 1.396 . S
C1009 C1014 1.390 . S
C1010 C1004 1.465 . S
C1010 C1009 1.396 . S
C1010 C1011 1.399 . S
C1011 H997 0.929 . S
C1011 C1010 1.399 . S
C1011 C1012 1.385 . S
C1012 H998 0.931 . S
C1012 C1011 1.385 . S
C1012 C1013 1.389 . S
C1013 C1012 1.389 . S
C1013 C1014 1.387 . S
C1014 H999 0.930 . S
C1014 C1009 1.390 . S
C1014 C1013 1.387 . S
H1015 C1027 0.930 . S
H1016 C1029 0.930 . S
H1017 C1030 0.930 . S
H1018 C1034 0.959 . S
H1019 C1034 0.959 . S
H1020 C1034 0.961 . S
H1021 C1035 0.960 . S
H1022 C1035 0.961 . S
H1023 C1035 0.959 . S
H1024 C1038 0.929 . S
H1025 C1039 0.931 . S
H1026 C1041 0.930 . S
C1027 H1015 0.930 . S
C1027 C1028 1.399 . S
C1027 C1032 1.399 . S
C1028 C1027 1.399 . S
C1028 C1029 1.376 . S
C1029 H1016 0.930 . S
C1029 C1028 1.376 . S
C1029 C1030 1.388 . S
C1030 H1017 0.930 . S
C1030 C1029 1.388 . S
C1030 C1031 1.390 . S
C1031 C1030 1.390 . S
C1031 C1032 1.394 . S
C1031 C1037 1.465 . S
C1032 C1027 1.399 . S
C1032 C1031 1.394 . S
C1032 C1033 1.516 . S
C1033 C1032 1.516 . S
C1033 C1034 1.502 . S
C1033 C1035 1.561 . S
C1033 C1036 1.526 . S
C1034 H1018 0.959 . S
C1034 H1019 0.959 . S
C1034 H1020 0.961 . S
C1034 C1033 1.502 . S
C1035 H1021 0.960 . S
C1035 H1022 0.961 . S
C1035 H1023 0.959 . S
C1035 C1033 1.561 . S
C1036 C1033 1.526 . S
C1036 C1037 1.396 . S
C1036 C1041 1.390 1_455 S
C1037 C1031 1.465 . S
C1037 C1036 1.396 . S
C1037 C1038 1.399 . S
C1038 H1024 0.929 . S
C1038 C1037 1.399 . S
C1038 C1039 1.385 1_455 S
C1039 H1025 0.931 . S
C1039 C1038 1.385 1_655 S
C1039 C1040 1.389 . S
C1040 C1039 1.389 . S
C1040 C1041 1.387 . S
C1041 H1026 0.930 . S
C1041 C1036 1.390 1_655 S
C1041 C1040 1.387 . S
H1042 C1054 0.930 . S
H1043 C1056 0.930 . S
H1044 C1057 0.930 . S
H1045 C1061 0.959 . S
H1046 C1061 0.959 . S
H1047 C1061 0.961 . S
H1048 C1062 0.960 . S
H1049 C1062 0.961 . S
H1050 C1062 0.959 . S
H1051 C1065 0.929 . S
H1052 C1066 0.931 . S
H1053 C1068 0.930 . S
C1054 H1042 0.930 . S
C1054 C1055 1.399 . S
C1054 C1059 1.399 . S
C1055 C1054 1.399 . S
C1055 C1056 1.376 . S
C1056 H1043 0.930 . S
C1056 C1055 1.376 . S
C1056 C1057 1.388 . S
C1057 H1044 0.930 . S
C1057 C1056 1.388 . S
C1057 C1058 1.390 . S
C1058 C1057 1.390 . S
C1058 C1059 1.394 . S
C1058 C1064 1.465 . S
C1059 C1054 1.399 . S
C1059 C1058 1.394 . S
C1059 C1060 1.516 . S
C1060 C1059 1.516 . S
C1060 C1061 1.502 . S
C1060 C1062 1.561 . S
C1060 C1063 1.526 . S
C1061 H1045 0.959 . S
C1061 H1046 0.959 . S
C1061 H1047 0.961 . S
C1061 C1060 1.502 . S
C1062 H1048 0.960 . S
C1062 H1049 0.961 . S
C1062 H1050 0.959 . S
C1062 C1060 1.561 . S
C1063 C1060 1.526 . S
C1063 C1064 1.396 . S
C1063 C1068 1.390 . S
C1064 C1058 1.465 . S
C1064 C1063 1.396 . S
C1064 C1065 1.399 . S
C1065 H1051 0.929 . S
C1065 C1064 1.399 . S
C1065 C1066 1.385 . S
C1066 H1052 0.931 . S
C1066 C1065 1.385 . S
C1066 C1067 1.389 . S
C1067 C1066 1.389 . S
C1067 C1068 1.387 . S
C1068 H1053 0.930 . S
C1068 C1063 1.390 . S
C1068 C1067 1.387 . S
H1069 C1081 0.930 . S
H1070 C1083 0.930 . S
H1071 C1084 0.930 . S
H1072 C1088 0.959 . S
H1073 C1088 0.959 . S
H1074 C1088 0.961 . S
H1075 C1089 0.960 . S
H1076 C1089 0.961 . S
H1077 C1089 0.959 . S
H1078 C1092 0.929 . S
H1079 C1093 0.931 . S
H1080 C1095 0.930 . S
C1081 H1069 0.930 . S
C1081 C1082 1.399 . S
C1081 C1086 1.399 . S
C1082 C1081 1.399 . S
C1082 C1083 1.376 . S
C1083 H1070 0.930 . S
C1083 C1082 1.376 . S
C1083 C1084 1.388 . S
C1084 H1071 0.930 . S
C1084 C1083 1.388 . S
C1084 C1085 1.390 . S
C1085 C1084 1.390 . S
C1085 C1086 1.394 . S
C1085 C1091 1.465 . S
C1086 C1081 1.399 . S
C1086 C1085 1.394 . S
C1086 C1087 1.516 . S
C1087 C1086 1.516 . S
C1087 C1088 1.502 . S
C1087 C1089 1.561 . S
C1087 C1090 1.526 . S
C1088 H1072 0.959 . S
C1088 H1073 0.959 . S
C1088 H1074 0.961 . S
C1088 C1087 1.502 . S
C1089 H1075 0.960 . S
C1089 H1076 0.961 . S
C1089 H1077 0.959 . S
C1089 C1087 1.561 . S
C1090 C1087 1.526 . S
C1090 C1091 1.396 . S
C1090 C1095 1.390 . S
C1091 C1085 1.465 . S
C1091 C1090 1.396 . S
C1091 C1092 1.399 . S
C1092 H1078 0.929 . S
C1092 C1091 1.399 . S
C1092 C1093 1.385 . S
C1093 H1079 0.931 . S
C1093 C1092 1.385 . S
C1093 C1094 1.389 . S
C1094 C1093 1.389 . S
C1094 C1095 1.387 . S
C1095 H1080 0.930 . S
C1095 C1090 1.390 . S
C1095 C1094 1.387 . S
H1096 C1108 0.930 . S
H1097 C1110 0.930 . S
H1098 C1111 0.930 . S
H1099 C1115 0.959 . S
H1100 C1115 0.959 . S
H1101 C1115 0.961 . S
H1102 C1116 0.960 . S
H1103 C1116 0.961 . S
H1104 C1116 0.959 . S
H1105 C1119 0.929 . S
H1106 C1120 0.931 . S
H1107 C1122 0.930 . S
C1108 H1096 0.930 . S
C1108 C1109 1.399 . S
C1108 C1113 1.399 . S
C1109 C1108 1.399 . S
C1109 C1110 1.376 . S
C1110 H1097 0.930 . S
C1110 C1109 1.376 . S
C1110 C1111 1.388 . S
C1111 H1098 0.930 . S
C1111 C1110 1.388 . S
C1111 C1112 1.390 . S
C1112 C1111 1.390 . S
C1112 C1113 1.394 . S
C1112 C1118 1.465 . S
C1113 C1108 1.399 . S
C1113 C1112 1.394 . S
C1113 C1114 1.516 . S
C1114 C1113 1.516 . S
C1114 C1115 1.502 . S
C1114 C1116 1.561 . S
C1114 C1117 1.526 . S
C1115 H1099 0.959 . S
C1115 H1100 0.959 . S
C1115 H1101 0.961 . S
C1115 C1114 1.502 . S
C1116 H1102 0.960 . S
C1116 H1103 0.961 . S
C1116 H1104 0.959 . S
C1116 C1114 1.561 . S
C1117 C1114 1.526 . S
C1117 C1118 1.396 . S
C1117 C1122 1.390 . S
C1118 C1112 1.465 . S
C1118 C1117 1.396 . S
C1118 C1119 1.399 . S
C1119 H1105 0.929 . S
C1119 C1118 1.399 . S
C1119 C1120 1.385 . S
C1120 H1106 0.931 . S
C1120 C1119 1.385 . S
C1120 C1121 1.389 . S
C1121 C1120 1.389 . S
C1121 C1122 1.387 . S
C1122 H1107 0.930 . S
C1122 C1117 1.390 . S
C1122 C1121 1.387 . S
H1123 C1135 0.930 . S
H1124 C1137 0.930 . S
H1125 C1138 0.930 . S
H1126 C1142 0.959 . S
H1127 C1142 0.959 . S
H1128 C1142 0.961 . S
H1129 C1143 0.960 . S
H1130 C1143 0.961 . S
H1131 C1143 0.959 . S
H1132 C1146 0.929 . S
H1133 C1147 0.931 . S
H1134 C1149 0.930 . S
C1135 H1123 0.930 . S
C1135 C1136 1.399 . S
C1135 C1140 1.399 . S
C1136 C1135 1.399 . S
C1136 C1137 1.376 . S
C1137 H1124 0.930 . S
C1137 C1136 1.376 . S
C1137 C1138 1.388 . S
C1138 H1125 0.930 . S
C1138 C1137 1.388 . S
C1138 C1139 1.390 . S
C1139 C1138 1.390 . S
C1139 C1140 1.394 . S
C1139 C1145 1.465 . S
C1140 C1135 1.399 . S
C1140 C1139 1.394 . S
C1140 C1141 1.516 . S
C1141 C1140 1.516 . S
C1141 C1142 1.502 . S
C1141 C1143 1.561 . S
C1141 C1144 1.526 . S
C1142 H1126 0.959 . S
C1142 H1127 0.959 . S
C1142 H1128 0.961 . S
C1142 C1141 1.502 . S
C1143 H1129 0.960 . S
C1143 H1130 0.961 . S
C1143 H1131 0.959 . S
C1143 C1141 1.561 . S
C1144 C1141 1.526 . S
C1144 C1145 1.396 . S
C1144 C1149 1.390 . S
C1145 C1139 1.465 . S
C1145 C1144 1.396 . S
C1145 C1146 1.399 . S
C1146 H1132 0.929 . S
C1146 C1145 1.399 . S
C1146 C1147 1.385 . S
C1147 H1133 0.931 . S
C1147 C1146 1.385 . S
C1147 C1148 1.389 . S
C1148 C1147 1.389 . S
C1148 C1149 1.387 . S
C1149 H1134 0.930 . S
C1149 C1144 1.390 . S
C1149 C1148 1.387 . S
H1150 C1162 0.930 . S
H1151 C1164 0.930 . S
H1152 C1165 0.930 . S
H1153 C1169 0.959 . S
H1154 C1169 0.959 . S
H1155 C1169 0.961 . S
H1156 C1170 0.960 . S
H1157 C1170 0.961 . S
H1158 C1170 0.959 . S
H1159 C1173 0.929 . S
H1160 C1174 0.931 . S
H1161 C1176 0.930 . S
C1162 H1150 0.930 . S
C1162 C1163 1.399 . S
C1162 C1167 1.399 . S
C1163 C1162 1.399 . S
C1163 C1164 1.376 . S
C1164 H1151 0.930 . S
C1164 C1163 1.376 . S
C1164 C1165 1.388 . S
C1165 H1152 0.930 . S
C1165 C1164 1.388 . S
C1165 C1166 1.390 . S
C1166 C1165 1.390 . S
C1166 C1167 1.394 . S
C1166 C1172 1.465 . S
C1167 C1162 1.399 . S
C1167 C1166 1.394 . S
C1167 C1168 1.516 . S
C1168 C1167 1.516 . S
C1168 C1169 1.502 . S
C1168 C1170 1.561 . S
C1168 C1171 1.526 . S
C1169 H1153 0.959 . S
C1169 H1154 0.959 . S
C1169 H1155 0.961 . S
C1169 C1168 1.502 . S
C1170 H1156 0.960 . S
C1170 H1157 0.961 . S
C1170 H1158 0.959 . S
C1170 C1168 1.561 . S
C1171 C1168 1.526 . S
C1171 C1172 1.396 . S
C1171 C1176 1.390 . S
C1172 C1166 1.465 . S
C1172 C1171 1.396 . S
C1172 C1173 1.399 . S
C1173 H1159 0.929 . S
C1173 C1172 1.399 . S
C1173 C1174 1.385 . S
C1174 H1160 0.931 . S
C1174 C1173 1.385 . S
C1174 C1175 1.389 . S
C1175 C1174 1.389 . S
C1175 C1176 1.387 . S
C1176 H1161 0.930 . S
C1176 C1171 1.390 . S
C1176 C1175 1.387 . S
H1177 C1189 0.930 . S
H1178 C1191 0.930 . S
H1179 C1192 0.930 . S
H1180 C1196 0.959 . S
H1181 C1196 0.959 . S
H1182 C1196 0.961 . S
H1183 C1197 0.960 . S
H1184 C1197 0.961 . S
H1185 C1197 0.959 . S
H1186 C1200 0.929 . S
H1187 C1201 0.931 . S
H1188 C1203 0.930 . S
C1189 H1177 0.930 . S
C1189 C1190 1.399 . S
C1189 C1194 1.399 1_455 S
C1190 C1189 1.399 . S
C1190 C1191 1.376 . S
C1191 H1178 0.930 . S
C1191 C1190 1.376 . S
C1191 C1192 1.388 1_455 S
C1192 H1179 0.930 . S
C1192 C1191 1.388 1_655 S
C1192 C1193 1.390 . S
C1193 C1192 1.390 . S
C1193 C1194 1.394 . S
C1193 C1199 1.465 . S
C1194 C1189 1.399 1_655 S
C1194 C1193 1.394 . S
C1194 C1195 1.516 . S
C1195 C1194 1.516 . S
C1195 C1196 1.502 . S
C1195 C1197 1.561 . S
C1195 C1198 1.526 . S
C1196 H1180 0.959 . S
C1196 H1181 0.959 . S
C1196 H1182 0.961 . S
C1196 C1195 1.502 . S
C1197 H1183 0.960 . S
C1197 H1184 0.961 . S
C1197 H1185 0.959 . S
C1197 C1195 1.561 . S
C1198 C1195 1.526 . S
C1198 C1199 1.396 . S
C1198 C1203 1.390 . S
C1199 C1193 1.465 . S
C1199 C1198 1.396 . S
C1199 C1200 1.399 . S
C1200 H1186 0.929 . S
C1200 C1199 1.399 . S
C1200 C1201 1.385 . S
C1201 H1187 0.931 . S
C1201 C1200 1.385 . S
C1201 C1202 1.389 . S
C1202 C1201 1.389 . S
C1202 C1203 1.387 . S
C1203 H1188 0.930 . S
C1203 C1198 1.390 . S
C1203 C1202 1.387 . S
H1204 C1216 0.930 . S
H1205 C1218 0.930 . S
H1206 C1219 0.930 . S
H1207 C1223 0.959 . S
H1208 C1223 0.959 . S
H1209 C1223 0.961 . S
H1210 C1224 0.960 . S
H1211 C1224 0.961 . S
H1212 C1224 0.959 . S
H1213 C1227 0.929 . S
H1214 C1228 0.931 . S
H1215 C1230 0.930 . S
C1216 H1204 0.930 . S
C1216 C1217 1.399 . S
C1216 C1221 1.399 . S
C1217 C1216 1.399 . S
C1217 C1218 1.376 . S
C1218 H1205 0.930 . S
C1218 C1217 1.376 . S
C1218 C1219 1.388 . S
C1219 H1206 0.930 . S
C1219 C1218 1.388 . S
C1219 C1220 1.390 . S
C1220 C1219 1.390 . S
C1220 C1221 1.394 . S
C1220 C1226 1.465 . S
C1221 C1216 1.399 . S
C1221 C1220 1.394 . S
C1221 C1222 1.516 . S
C1222 C1221 1.516 . S
C1222 C1223 1.502 . S
C1222 C1224 1.561 . S
C1222 C1225 1.526 . S
C1223 H1207 0.959 . S
C1223 H1208 0.959 . S
C1223 H1209 0.961 . S
C1223 C1222 1.502 . S
C1224 H1210 0.960 . S
C1224 H1211 0.961 . S
C1224 H1212 0.959 . S
C1224 C1222 1.561 . S
C1225 C1222 1.526 . S
C1225 C1226 1.396 . S
C1225 C1230 1.390 . S
C1226 C1220 1.465 . S
C1226 C1225 1.396 . S
C1226 C1227 1.399 . S
C1227 H1213 0.929 . S
C1227 C1226 1.399 . S
C1227 C1228 1.385 . S
C1228 H1214 0.931 . S
C1228 C1227 1.385 . S
C1228 C1229 1.389 . S
C1229 C1228 1.389 . S
C1229 C1230 1.387 . S
C1230 H1215 0.930 . S
C1230 C1225 1.390 . S
C1230 C1229 1.387 . S
H1231 C1243 0.930 . S
H1232 C1245 0.930 . S
H1233 C1246 0.930 . S
H1234 C1250 0.959 . S
H1235 C1250 0.959 . S
H1236 C1250 0.941 1_455 S
H1237 C1251 0.960 . S
H1238 C1251 0.961 . S
H1239 C1251 0.959 . S
H1240 C1254 0.929 . S
H1241 C1255 0.931 . S
H1242 C1257 0.930 . S
C1243 H1231 0.930 . S
C1243 C1244 1.399 . S
C1243 C1248 1.399 1_455 S
C1244 C1243 1.399 . S
C1244 C1245 1.376 . S
C1245 H1232 0.930 . S
C1245 C1244 1.376 . S
C1245 C1246 1.388 1_455 S
C1246 H1233 0.930 . S
C1246 C1245 1.388 1_655 S
C1246 C1247 1.390 . S
C1247 C1246 1.390 . S
C1247 C1248 1.394 . S
C1247 C1253 1.465 . S
C1248 C1243 1.399 1_655 S
C1248 C1247 1.394 . S
C1248 C1249 1.516 . S
C1249 C1248 1.516 . S
C1249 C1250 1.502 . S
C1249 C1251 1.561 . S
C1249 C1252 1.526 . S
C1250 H1234 0.959 . S
C1250 H1235 0.959 . S
C1250 H1236 0.941 1_655 S
C1250 C1249 1.502 . S
C1251 H1237 0.960 . S
C1251 H1238 0.961 . S
C1251 H1239 0.959 . S
C1251 C1249 1.561 . S
C1252 C1249 1.526 . S
C1252 C1253 1.396 . S
C1252 C1257 1.390 . S
C1253 C1247 1.465 . S
C1253 C1252 1.396 . S
C1253 C1254 1.399 . S
C1254 H1240 0.929 . S
C1254 C1253 1.399 . S
C1254 C1255 1.385 . S
C1255 H1241 0.931 . S
C1255 C1254 1.385 . S
C1255 C1256 1.389 . S
C1256 C1255 1.389 . S
C1256 C1257 1.387 . S
C1257 H1242 0.930 . S
C1257 C1252 1.390 . S
C1257 C1256 1.387 . S
H1258 C1270 0.930 . S
H1259 C1272 0.930 . S
H1260 C1273 0.930 . S
H1261 C1277 0.959 . S
H1262 C1277 0.959 . S
H1263 C1277 0.961 . S
H1264 C1278 0.960 . S
H1265 C1278 0.961 . S
H1266 C1278 0.959 . S
H1267 C1281 0.929 . S
H1268 C1282 0.931 . S
H1269 C1284 0.930 . S
C1270 H1258 0.930 . S
C1270 C1271 1.399 . S
C1270 C1275 1.399 . S
C1271 C1270 1.399 . S
C1271 C1272 1.376 . S
C1272 H1259 0.930 . S
C1272 C1271 1.376 . S
C1272 C1273 1.388 . S
C1273 H1260 0.930 . S
C1273 C1272 1.388 . S
C1273 C1274 1.390 . S
C1274 C1273 1.390 . S
C1274 C1275 1.394 . S
C1274 C1280 1.465 . S
C1275 C1270 1.399 . S
C1275 C1274 1.394 . S
C1275 C1276 1.516 . S
C1276 C1275 1.516 . S
C1276 C1277 1.502 . S
C1276 C1278 1.561 . S
C1276 C1279 1.526 . S
C1277 H1261 0.959 . S
C1277 H1262 0.959 . S
C1277 H1263 0.961 . S
C1277 C1276 1.502 . S
C1278 H1264 0.960 . S
C1278 H1265 0.961 . S
C1278 H1266 0.959 . S
C1278 C1276 1.561 . S
C1279 C1276 1.526 . S
C1279 C1280 1.396 . S
C1279 C1284 1.390 . S
C1280 C1274 1.465 . S
C1280 C1279 1.396 . S
C1280 C1281 1.399 . S
C1281 H1267 0.929 . S
C1281 C1280 1.399 . S
C1281 C1282 1.385 . S
C1282 H1268 0.931 . S
C1282 C1281 1.385 . S
C1282 C1283 1.389 . S
C1283 C1282 1.389 . S
C1283 C1284 1.387 . S
C1284 H1269 0.930 . S
C1284 C1279 1.390 . S
C1284 C1283 1.387 . S
H1285 C1297 0.930 . S
H1286 C1299 0.930 . S
H1287 C1300 0.930 . S
H1288 C1304 0.959 . S
H1289 C1304 0.959 . S
H1290 C1304 0.961 . S
H1291 C1305 0.960 . S
H1292 C1305 0.961 . S
H1293 C1305 0.959 . S
H1294 C1308 0.929 . S
H1295 C1309 0.931 . S
H1296 C1311 0.930 . S
C1297 H1285 0.930 . S
C1297 C1298 1.399 . S
C1297 C1302 1.399 . S
C1298 C1297 1.399 . S
C1298 C1299 1.376 . S
C1299 H1286 0.930 . S
C1299 C1298 1.376 . S
C1299 C1300 1.388 . S
C1300 H1287 0.930 . S
C1300 C1299 1.388 . S
C1300 C1301 1.390 . S
C1301 C1300 1.390 . S
C1301 C1302 1.394 . S
C1301 C1307 1.465 . S
C1302 C1297 1.399 . S
C1302 C1301 1.394 . S
C1302 C1303 1.516 . S
C1303 C1302 1.516 . S
C1303 C1304 1.502 . S
C1303 C1305 1.561 . S
C1303 C1306 1.526 . S
C1304 H1288 0.959 . S
C1304 H1289 0.959 . S
C1304 H1290 0.961 . S
C1304 C1303 1.502 . S
C1305 H1291 0.960 . S
C1305 H1292 0.961 . S
C1305 H1293 0.959 . S
C1305 C1303 1.561 . S
C1306 C1303 1.526 . S
C1306 C1307 1.396 . S
C1306 C1311 1.390 . S
C1307 C1301 1.465 . S
C1307 C1306 1.396 . S
C1307 C1308 1.399 . S
C1308 H1294 0.929 . S
C1308 C1307 1.399 . S
C1308 C1309 1.385 . S
C1309 H1295 0.931 . S
C1309 C1308 1.385 . S
C1309 C1310 1.389 . S
C1310 C1309 1.389 . S
C1310 C1311 1.387 . S
C1311 H1296 0.930 . S
C1311 C1306 1.390 . S
C1311 C1310 1.387 . S
H1312 C1324 0.930 . S
H1313 C1326 0.930 . S
H1314 C1327 0.930 . S
H1315 C1331 0.959 . S
H1316 C1331 0.959 . S
H1317 C1331 0.961 . S
H1318 C1332 0.960 . S
H1319 C1332 0.961 . S
H1320 C1332 0.959 . S
H1321 C1335 0.929 . S
H1322 C1336 0.931 . S
H1323 C1338 0.930 . S
C1324 H1312 0.930 . S
C1324 C1325 1.399 . S
C1324 C1329 1.399 . S
C1325 C1324 1.399 . S
C1325 C1326 1.376 . S
C1326 H1313 0.930 . S
C1326 C1325 1.376 . S
C1326 C1327 1.388 . S
C1327 H1314 0.930 . S
C1327 C1326 1.388 . S
C1327 C1328 1.390 . S
C1328 C1327 1.390 . S
C1328 C1329 1.394 . S
C1328 C1334 1.465 . S
C1329 C1324 1.399 . S
C1329 C1328 1.394 . S
C1329 C1330 1.516 . S
C1330 C1329 1.516 . S
C1330 C1331 1.502 . S
C1330 C1332 1.561 . S
C1330 C1333 1.526 . S
C1331 H1315 0.959 . S
C1331 H1316 0.959 . S
C1331 H1317 0.961 . S
C1331 C1330 1.502 . S
C1332 H1318 0.960 . S
C1332 H1319 0.961 . S
C1332 H1320 0.959 . S
C1332 C1330 1.561 . S
C1333 C1330 1.526 . S
C1333 C1334 1.396 . S
C1333 C1338 1.390 . S
C1334 C1328 1.465 . S
C1334 C1333 1.396 . S
C1334 C1335 1.399 . S
C1335 H1321 0.929 . S
C1335 C1334 1.399 . S
C1335 C1336 1.385 . S
C1336 H1322 0.931 . S
C1336 C1335 1.385 . S
C1336 C1337 1.389 . S
C1337 C1336 1.389 . S
C1337 C1338 1.387 . S
C1338 H1323 0.930 . S
C1338 C1333 1.390 . S
C1338 C1337 1.387 . S
H1339 C1351 0.930 . S
H1340 C1353 0.930 . S
H1341 C1354 0.930 . S
H1342 C1358 0.959 . S
H1343 C1358 0.959 . S
H1344 C1358 0.961 . S
H1345 C1359 0.960 . S
H1346 C1359 0.961 1_655 S
H1347 C1359 0.959 . S
H1348 C1362 0.929 1_455 S
H1349 C1363 0.931 . S
H1350 C1365 0.930 . S
C1351 H1339 0.930 . S
C1351 C1352 1.399 1_545 S
C1351 C1356 1.399 . S
C1352 C1351 1.399 1_565 S
C1352 C1353 1.376 . S
C1353 H1340 0.930 . S
C1353 C1352 1.376 . S
C1353 C1354 1.388 . S
C1354 H1341 0.930 . S
C1354 C1353 1.388 . S
C1354 C1355 1.390 . S
C1355 C1354 1.390 . S
C1355 C1356 1.394 1_565 S
C1355 C1361 1.465 1_455 S
C1356 C1351 1.399 . S
C1356 C1355 1.394 1_545 S
C1356 C1357 1.516 1_455 S
C1357 C1356 1.516 1_655 S
C1357 C1358 1.502 . S
C1357 C1359 1.561 1_655 S
C1357 C1360 1.526 . S
C1358 H1342 0.959 . S
C1358 H1343 0.959 . S
C1358 H1344 0.961 . S
C1358 C1357 1.502 . S
C1359 H1345 0.960 . S
C1359 H1346 0.961 1_455 S
C1359 H1347 0.959 . S
C1359 C1357 1.561 1_455 S
C1360 C1357 1.526 . S
C1360 C1361 1.396 1_545 S
C1360 C1365 1.390 . S
C1361 C1355 1.465 1_655 S
C1361 C1360 1.396 1_565 S
C1361 C1362 1.399 . S
C1362 H1348 0.929 1_655 S
C1362 C1361 1.399 . S
C1362 C1363 1.385 . S
C1363 H1349 0.931 . S
C1363 C1362 1.385 . S
C1363 C1364 1.389 1_565 S
C1364 C1363 1.389 1_545 S
C1364 C1365 1.387 . S
C1365 H1350 0.930 . S
C1365 C1360 1.390 . S
C1365 C1364 1.387 . S
H1366 C1378 0.930 . S
H1367 C1380 0.930 . S
H1368 C1381 0.930 . S
H1369 C1385 0.959 . S
H1370 C1385 0.959 . S
H1371 C1385 0.961 . S
H1372 C1386 0.960 . S
H1373 C1386 0.961 . S
H1374 C1386 0.959 . S
H1375 C1389 0.929 . S
H1376 C1390 0.931 . S
H1377 C1392 0.930 . S
C1378 H1366 0.930 . S
C1378 C1379 1.399 . S
C1378 C1383 1.399 . S
C1379 C1378 1.399 . S
C1379 C1380 1.376 . S
C1380 H1367 0.930 . S
C1380 C1379 1.376 . S
C1380 C1381 1.388 . S
C1381 H1368 0.930 . S
C1381 C1380 1.388 . S
C1381 C1382 1.390 . S
C1382 C1381 1.390 . S
C1382 C1383 1.394 . S
C1382 C1388 1.465 . S
C1383 C1378 1.399 . S
C1383 C1382 1.394 . S
C1383 C1384 1.516 . S
C1384 C1383 1.516 . S
C1384 C1385 1.502 . S
C1384 C1386 1.561 . S
C1384 C1387 1.526 . S
C1385 H1369 0.959 . S
C1385 H1370 0.959 . S
C1385 H1371 0.961 . S
C1385 C1384 1.502 . S
C1386 H1372 0.960 . S
C1386 H1373 0.961 . S
C1386 H1374 0.959 . S
C1386 C1384 1.561 . S
C1387 C1384 1.526 . S
C1387 C1388 1.396 . S
C1387 C1392 1.390 . S
C1388 C1382 1.465 . S
C1388 C1387 1.396 . S
C1388 C1389 1.399 . S
C1389 H1375 0.929 . S
C1389 C1388 1.399 . S
C1389 C1390 1.385 . S
C1390 H1376 0.931 . S
C1390 C1389 1.385 . S
C1390 C1391 1.389 . S
C1391 C1390 1.389 . S
C1391 C1392 1.387 . S
C1392 H1377 0.930 . S
C1392 C1387 1.390 . S
C1392 C1391 1.387 . S
H1393 C1405 0.930 . S
H1394 C1407 0.930 . S
H1395 C1408 0.904 1_556 S
H1396 C1412 0.953 1_556 S
H1397 C1412 0.959 . S
H1398 C1412 0.961 . S
H1399 C1413 0.960 . S
H1400 C1413 0.961 . S
H1401 C1413 0.959 1_565 S
H1402 C1416 0.929 . S
H1403 C1417 0.931 . S
H1404 C1419 0.930 . S
C1405 H1393 0.930 . S
C1405 C1406 1.399 . S
C1405 C1410 1.399 . S
C1406 C1405 1.399 . S
C1406 C1407 1.376 1_545 S
C1407 H1394 0.930 . S
C1407 C1406 1.376 1_565 S
C1407 C1408 1.388 . S
C1408 H1395 0.904 1_554 S
C1408 C1407 1.388 . S
C1408 C1409 1.390 . S
C1409 C1408 1.390 . S
C1409 C1410 1.394 1_565 S
C1409 C1415 1.465 1_554 S
C1410 C1405 1.399 . S
C1410 C1409 1.394 1_545 S
C1410 C1411 1.516 . S
C1411 C1410 1.516 . S
C1411 C1412 1.502 . S
C1411 C1413 1.561 . S
C1411 C1414 1.526 1_554 S
C1412 H1396 0.953 1_554 S
C1412 H1397 0.959 . S
C1412 H1398 0.961 . S
C1412 C1411 1.502 . S
C1413 H1399 0.960 . S
C1413 H1400 0.961 . S
C1413 H1401 0.959 1_545 S
C1413 C1411 1.561 . S
C1414 C1411 1.526 1_556 S
C1414 C1415 1.396 1_545 S
C1414 C1419 1.390 . S
C1415 C1409 1.465 1_556 S
C1415 C1414 1.396 1_565 S
C1415 C1416 1.399 . S
C1416 H1402 0.929 . S
C1416 C1415 1.399 . S
C1416 C1417 1.385 . S
C1417 H1403 0.931 . S
C1417 C1416 1.385 . S
C1417 C1418 1.389 . S
C1418 C1417 1.389 . S
C1418 C1419 1.387 1_565 S
C1419 H1404 0.930 . S
C1419 C1414 1.390 . S
C1419 C1418 1.387 1_545 S
H1420 C1432 0.930 . S
H1421 C1434 0.930 . S
H1422 C1435 0.930 . S
H1423 C1439 0.959 . S
H1424 C1439 0.959 . S
H1425 C1439 0.961 . S
H1426 C1440 0.960 . S
H1427 C1440 0.961 . S
H1428 C1440 0.959 . S
H1429 C1443 0.929 . S
H1430 C1444 0.931 . S
H1431 C1446 0.930 . S
C1432 H1420 0.930 . S
C1432 C1433 1.399 . S
C1432 C1437 1.399 . S
C1433 C1432 1.399 . S
C1433 C1434 1.376 . S
C1434 H1421 0.930 . S
C1434 C1433 1.376 . S
C1434 C1435 1.388 . S
C1435 H1422 0.930 . S
C1435 C1434 1.388 . S
C1435 C1436 1.390 . S
C1436 C1435 1.390 . S
C1436 C1437 1.394 . S
C1436 C1442 1.465 . S
C1437 C1432 1.399 . S
C1437 C1436 1.394 . S
C1437 C1438 1.516 . S
C1438 C1437 1.516 . S
C1438 C1439 1.502 . S
C1438 C1440 1.561 . S
C1438 C1441 1.526 . S
C1439 H1423 0.959 . S
C1439 H1424 0.959 . S
C1439 H1425 0.961 . S
C1439 C1438 1.502 . S
C1440 H1426 0.960 . S
C1440 H1427 0.961 . S
C1440 H1428 0.959 . S
C1440 C1438 1.561 . S
C1441 C1438 1.526 . S
C1441 C1442 1.396 . S
C1441 C1446 1.390 . S
C1442 C1436 1.465 . S
C1442 C1441 1.396 . S
C1442 C1443 1.399 . S
C1443 H1429 0.929 . S
C1443 C1442 1.399 . S
C1443 C1444 1.385 . S
C1444 H1430 0.931 . S
C1444 C1443 1.385 . S
C1444 C1445 1.389 . S
C1445 C1444 1.389 . S
C1445 C1446 1.387 . S
C1446 H1431 0.930 . S
C1446 C1441 1.390 . S
C1446 C1445 1.387 . S
H1447 C1459 0.930 . S
H1448 C1461 0.930 . S
H1449 C1462 0.930 . S
H1450 C1466 0.959 . S
H1451 C1466 0.959 . S
H1452 C1466 0.961 . S
H1453 C1467 0.960 . S
H1454 C1467 0.961 . S
H1455 C1467 0.959 . S
H1456 C1470 0.929 . S
H1457 C1471 0.931 . S
H1458 C1473 0.930 . S
C1459 H1447 0.930 . S
C1459 C1460 1.399 . S
C1459 C1464 1.399 . S
C1460 C1459 1.399 . S
C1460 C1461 1.376 1_565 S
C1461 H1448 0.930 . S
C1461 C1460 1.376 1_545 S
C1461 C1462 1.388 . S
C1462 H1449 0.930 . S
C1462 C1461 1.388 . S
C1462 C1463 1.390 . S
C1463 C1462 1.390 . S
C1463 C1464 1.394 1_545 S
C1463 C1469 1.465 . S
C1464 C1459 1.399 . S
C1464 C1463 1.394 1_565 S
C1464 C1465 1.516 . S
C1465 C1464 1.516 . S
C1465 C1466 1.502 . S
C1465 C1467 1.561 . S
C1465 C1468 1.526 . S
C1466 H1450 0.959 . S
C1466 H1451 0.959 . S
C1466 H1452 0.961 . S
C1466 C1465 1.502 . S
C1467 H1453 0.960 . S
C1467 H1454 0.961 . S
C1467 H1455 0.959 . S
C1467 C1465 1.561 . S
C1468 C1465 1.526 . S
C1468 C1469 1.396 1_565 S
C1468 C1473 1.390 . S
C1469 C1463 1.465 . S
C1469 C1468 1.396 1_545 S
C1469 C1470 1.399 . S
C1470 H1456 0.929 . S
C1470 C1469 1.399 . S
C1470 C1471 1.385 . S
C1471 H1457 0.931 . S
C1471 C1470 1.385 . S
C1471 C1472 1.389 . S
C1472 C1471 1.389 . S
C1472 C1473 1.387 1_545 S
C1473 H1458 0.930 . S
C1473 C1468 1.390 . S
C1473 C1472 1.387 1_565 S
H1474 C1486 0.930 . S
H1475 C1488 0.930 . S
H1476 C1489 0.930 . S
H1477 C1493 0.959 . S
H1478 C1493 0.959 . S
H1479 C1493 0.961 . S
H1480 C1494 0.960 . S
H1481 C1494 0.961 . S
H1482 C1494 0.959 . S
H1483 C1497 0.929 . S
H1484 C1498 0.931 . S
H1485 C1500 0.930 . S
C1486 H1474 0.930 . S
C1486 C1487 1.399 . S
C1486 C1491 1.399 . S
C1487 C1486 1.399 . S
C1487 C1488 1.376 . S
C1488 H1475 0.930 . S
C1488 C1487 1.376 . S
C1488 C1489 1.388 . S
C1489 H1476 0.930 . S
C1489 C1488 1.388 . S
C1489 C1490 1.390 . S
C1490 C1489 1.390 . S
C1490 C1491 1.394 . S
C1490 C1496 1.465 . S
C1491 C1486 1.399 . S
C1491 C1490 1.394 . S
C1491 C1492 1.516 . S
C1492 C1491 1.516 . S
C1492 C1493 1.502 . S
C1492 C1494 1.561 . S
C1492 C1495 1.526 . S
C1493 H1477 0.959 . S
C1493 H1478 0.959 . S
C1493 H1479 0.961 . S
C1493 C1492 1.502 . S
C1494 H1480 0.960 . S
C1494 H1481 0.961 . S
C1494 H1482 0.959 . S
C1494 C1492 1.561 . S
C1495 C1492 1.526 . S
C1495 C1496 1.396 . S
C1495 C1500 1.390 . S
C1496 C1490 1.465 . S
C1496 C1495 1.396 . S
C1496 C1497 1.399 . S
C1497 H1483 0.929 . S
C1497 C1496 1.399 . S
C1497 C1498 1.385 . S
C1498 H1484 0.931 . S
C1498 C1497 1.385 . S
C1498 C1499 1.389 . S
C1499 C1498 1.389 . S
C1499 C1500 1.387 . S
C1500 H1485 0.930 . S
C1500 C1495 1.390 . S
C1500 C1499 1.387 . S
H1501 C1513 0.930 . S
H1502 C1515 0.930 . S
H1503 C1516 0.930 . S
H1504 C1520 0.959 . S
H1505 C1520 0.959 . S
H1506 C1520 0.961 . S
H1507 C1521 0.961 . S
H1508 C1521 0.959 1_554 S
H1509 C1521 0.960 . S
H1510 C1524 0.929 1_556 S
H1511 C1525 0.931 . S
H1512 C1527 0.930 . S
C1513 H1501 0.930 . S
C1513 C1514 1.399 . S
C1513 C1518 1.399 . S
C1514 C1513 1.399 . S
C1514 C1515 1.376 1_545 S
C1515 H1502 0.930 . S
C1515 C1514 1.376 1_565 S
C1515 C1516 1.388 . S
C1516 H1503 0.930 . S
C1516 C1515 1.388 . S
C1516 C1517 1.390 . S
C1517 C1516 1.390 . S
C1517 C1518 1.394 1_565 S
C1517 C1523 1.465 1_456 S
C1518 C1513 1.399 . S
C1518 C1517 1.394 1_545 S
C1518 C1519 1.516 1_556 S
C1519 C1518 1.516 1_554 S
C1519 C1520 1.502 . S
C1519 C1521 1.560 1_454 S
C1519 C1522 1.526 1_455 S
C1520 H1504 0.959 . S
C1520 H1505 0.959 . S
C1520 H1506 0.961 . S
C1520 C1519 1.502 . S
C1521 H1507 0.961 . S
C1521 H1508 0.959 1_556 S
C1521 H1509 0.960 . S
C1521 C1519 1.560 1_656 S
C1522 C1519 1.526 1_655 S
C1522 C1523 1.396 1_545 S
C1522 C1527 1.390 . S
C1523 C1517 1.465 1_654 S
C1523 C1522 1.396 1_565 S
C1523 C1524 1.399 . S
C1524 H1510 0.929 1_554 S
C1524 C1523 1.399 . S
C1524 C1525 1.385 . S
C1525 H1511 0.931 . S
C1525 C1524 1.385 . S
C1525 C1526 1.389 . S
C1526 C1525 1.389 . S
C1526 C1527 1.387 1_565 S
C1527 H1512 0.930 . S
C1527 C1522 1.390 . S
C1527 C1526 1.387 1_545 S
H1528 C1540 0.930 . S
H1529 C1542 0.930 . S
H1530 C1543 0.930 . S
H1531 C1547 0.959 . S
H1532 C1547 0.959 . S
H1533 C1547 0.961 . S
H1534 C1548 0.960 . S
H1535 C1548 0.961 . S
H1536 C1548 0.959 . S
H1537 C1551 0.929 . S
H1538 C1552 0.931 . S
H1539 C1554 0.930 . S
C1540 H1528 0.930 . S
C1540 C1541 1.399 . S
C1540 C1545 1.399 . S
C1541 C1540 1.399 . S
C1541 C1542 1.376 . S
C1542 H1529 0.930 . S
C1542 C1541 1.376 . S
C1542 C1543 1.388 . S
C1543 H1530 0.930 . S
C1543 C1542 1.388 . S
C1543 C1544 1.390 . S
C1544 C1543 1.390 . S
C1544 C1545 1.394 . S
C1544 C1550 1.465 . S
C1545 C1540 1.399 . S
C1545 C1544 1.394 . S
C1545 C1546 1.516 . S
C1546 C1545 1.516 . S
C1546 C1547 1.502 . S
C1546 C1548 1.561 . S
C1546 C1549 1.526 . S
C1547 H1531 0.959 . S
C1547 H1532 0.959 . S
C1547 H1533 0.961 . S
C1547 C1546 1.502 . S
C1548 H1534 0.960 . S
C1548 H1535 0.961 . S
C1548 H1536 0.959 . S
C1548 C1546 1.561 . S
C1549 C1546 1.526 . S
C1549 C1550 1.396 . S
C1549 C1554 1.390 . S
C1550 C1544 1.465 . S
C1550 C1549 1.396 . S
C1550 C1551 1.399 . S
C1551 H1537 0.929 . S
C1551 C1550 1.399 . S
C1551 C1552 1.385 . S
C1552 H1538 0.931 . S
C1552 C1551 1.385 . S
C1552 C1553 1.389 . S
C1553 C1552 1.389 . S
C1553 C1554 1.387 . S
C1554 H1539 0.930 . S
C1554 C1549 1.390 . S
C1554 C1553 1.387 . S
H1555 C1567 0.930 . S
H1556 C1569 0.930 . S
H1557 C1570 0.930 . S
H1558 C1574 0.959 . S
H1559 C1574 0.959 . S
H1560 C1574 0.961 . S
H1561 C1575 0.960 . S
H1562 C1575 0.961 . S
H1563 C1575 0.959 . S
H1564 C1578 0.929 . S
H1565 C1579 0.931 . S
H1566 C1581 0.930 . S
C1567 H1555 0.930 . S
C1567 C1568 1.399 . S
C1567 C1572 1.399 . S
C1568 C1567 1.399 . S
C1568 C1569 1.376 . S
C1569 H1556 0.930 . S
C1569 C1568 1.376 . S
C1569 C1570 1.388 . S
C1570 H1557 0.930 . S
C1570 C1569 1.388 . S
C1570 C1571 1.390 . S
C1571 C1570 1.390 . S
C1571 C1572 1.394 . S
C1571 C1577 1.465 . S
C1572 C1567 1.399 . S
C1572 C1571 1.394 . S
C1572 C1573 1.516 . S
C1573 C1572 1.516 . S
C1573 C1574 1.502 . S
C1573 C1575 1.561 . S
C1573 C1576 1.526 . S
C1574 H1558 0.959 . S
C1574 H1559 0.959 . S
C1574 H1560 0.961 . S
C1574 C1573 1.502 . S
C1575 H1561 0.960 . S
C1575 H1562 0.961 . S
C1575 H1563 0.959 . S
C1575 C1573 1.561 . S
C1576 C1573 1.526 . S
C1576 C1577 1.396 . S
C1576 C1581 1.390 . S
C1577 C1571 1.465 . S
C1577 C1576 1.396 . S
C1577 C1578 1.399 . S
C1578 H1564 0.929 . S
C1578 C1577 1.399 . S
C1578 C1579 1.385 . S
C1579 H1565 0.931 . S
C1579 C1578 1.385 . S
C1579 C1580 1.389 . S
C1580 C1579 1.389 . S
C1580 C1581 1.387 . S
C1581 H1566 0.930 . S
C1581 C1576 1.390 . S
C1581 C1580 1.387 . S
H1582 C1594 0.930 . S
H1583 C1596 0.930 . S
H1584 C1597 0.930 . S
H1585 C1601 0.959 . S
H1586 C1601 0.959 . S
H1587 C1601 0.961 . S
H1588 C1602 0.960 . S
H1589 C1602 0.961 . S
H1590 C1602 0.959 . S
H1591 C1605 0.929 . S
H1592 C1606 0.931 . S
H1593 C1608 0.930 . S
C1594 H1582 0.930 . S
C1594 C1595 1.399 . S
C1594 C1599 1.399 . S
C1595 C1594 1.399 . S
C1595 C1596 1.376 . S
C1596 H1583 0.930 . S
C1596 C1595 1.376 . S
C1596 C1597 1.388 . S
C1597 H1584 0.930 . S
C1597 C1596 1.388 . S
C1597 C1598 1.390 . S
C1598 C1597 1.390 . S
C1598 C1599 1.394 . S
C1598 C1604 1.465 . S
C1599 C1594 1.399 . S
C1599 C1598 1.394 . S
C1599 C1600 1.516 . S
C1600 C1599 1.516 . S
C1600 C1601 1.502 . S
C1600 C1602 1.561 . S
C1600 C1603 1.526 . S
C1601 H1585 0.959 . S
C1601 H1586 0.959 . S
C1601 H1587 0.961 . S
C1601 C1600 1.502 . S
C1602 H1588 0.960 . S
C1602 H1589 0.961 . S
C1602 H1590 0.959 . S
C1602 C1600 1.561 . S
C1603 C1600 1.526 . S
C1603 C1604 1.396 . S
C1603 C1608 1.390 . S
C1604 C1598 1.465 . S
C1604 C1603 1.396 . S
C1604 C1605 1.399 . S
C1605 H1591 0.929 . S
C1605 C1604 1.399 . S
C1605 C1606 1.385 . S
C1606 H1592 0.931 . S
C1606 C1605 1.385 . S
C1606 C1607 1.389 . S
C1607 C1606 1.389 . S
C1607 C1608 1.387 . S
C1608 H1593 0.930 . S
C1608 C1603 1.390 . S
C1608 C1607 1.387 . S
H1609 C1621 0.930 . S
H1610 C1623 0.930 . S
H1611 C1624 0.930 . S
H1612 C1628 0.959 . S
H1613 C1628 0.959 . S
H1614 C1628 0.961 . S
H1615 C1629 0.960 . S
H1616 C1629 0.961 . S
H1617 C1629 0.959 . S
H1618 C1632 0.929 . S
H1619 C1633 0.931 . S
H1620 C1635 0.930 . S
C1621 H1609 0.930 . S
C1621 C1622 1.399 . S
C1621 C1626 1.399 . S
C1622 C1621 1.399 . S
C1622 C1623 1.376 . S
C1623 H1610 0.930 . S
C1623 C1622 1.376 . S
C1623 C1624 1.388 . S
C1624 H1611 0.930 . S
C1624 C1623 1.388 . S
C1624 C1625 1.390 . S
C1625 C1624 1.390 . S
C1625 C1626 1.394 . S
C1625 C1631 1.465 . S
C1626 C1621 1.399 . S
C1626 C1625 1.394 . S
C1626 C1627 1.516 . S
C1627 C1626 1.516 . S
C1627 C1628 1.502 . S
C1627 C1629 1.561 . S
C1627 C1630 1.526 . S
C1628 H1612 0.959 . S
C1628 H1613 0.959 . S
C1628 H1614 0.961 . S
C1628 C1627 1.502 . S
C1629 H1615 0.960 . S
C1629 H1616 0.961 . S
C1629 H1617 0.959 . S
C1629 C1627 1.561 . S
C1630 C1627 1.526 . S
C1630 C1631 1.396 . S
C1630 C1635 1.390 . S
C1631 C1625 1.465 . S
C1631 C1630 1.396 . S
C1631 C1632 1.399 . S
C1632 H1618 0.929 . S
C1632 C1631 1.399 . S
C1632 C1633 1.385 . S
C1633 H1619 0.931 . S
C1633 C1632 1.385 . S
C1633 C1634 1.389 . S
C1634 C1633 1.389 . S
C1634 C1635 1.387 . S
C1635 H1620 0.930 . S
C1635 C1630 1.390 . S
C1635 C1634 1.387 . S
H1636 C1648 0.930 . S
H1637 C1650 0.930 . S
H1638 C1651 0.897 1_556 S
H1639 C1655 0.959 . S
H1640 C1655 0.959 . S
H1641 C1655 0.961 . S
H1642 C1656 0.926 1_554 S
H1643 C1656 0.978 . S
H1644 C1656 0.993 . S
H1645 C1659 0.929 . S
H1646 C1660 0.931 . S
H1647 C1662 0.930 . S
C1648 H1636 0.930 . S
C1648 C1649 1.399 . S
C1648 C1653 1.399 . S
C1649 C1648 1.399 . S
C1649 C1650 1.376 . S
C1650 H1637 0.930 . S
C1650 C1649 1.376 . S
C1650 C1651 1.388 . S
C1651 H1638 0.897 1_554 S
C1651 C1650 1.388 . S
C1651 C1652 1.390 . S
C1652 C1651 1.390 . S
C1652 C1653 1.394 . S
C1652 C1658 1.465 1_554 S
C1653 C1648 1.399 . S
C1653 C1652 1.394 . S
C1653 C1654 1.516 . S
C1654 C1653 1.516 . S
C1654 C1655 1.502 . S
C1654 C1656 1.546 1_554 S
C1654 C1657 1.526 1_554 S
C1655 H1639 0.959 . S
C1655 H1640 0.959 . S
C1655 H1641 0.961 . S
C1655 C1654 1.502 . S
C1656 H1642 0.926 1_556 S
C1656 H1643 0.978 . S
C1656 H1644 0.993 . S
C1656 C1654 1.546 1_556 S
C1657 C1654 1.526 1_556 S
C1657 C1658 1.396 . S
C1657 C1662 1.390 . S
C1658 C1652 1.465 1_556 S
C1658 C1657 1.396 . S
C1658 C1659 1.399 . S
C1659 H1645 0.929 . S
C1659 C1658 1.399 . S
C1659 C1660 1.385 . S
C1660 H1646 0.931 . S
C1660 C1659 1.385 . S
C1660 C1661 1.389 . S
C1661 C1660 1.389 . S
C1661 C1662 1.387 . S
C1662 H1647 0.930 . S
C1662 C1657 1.390 . S
C1662 C1661 1.387 . S
H1663 C1675 0.930 . S
H1664 C1677 0.930 . S
H1665 C1678 0.930 . S
H1666 C1682 0.959 . S
H1667 C1682 0.959 1_655 S
H1668 C1682 0.961 . S
H1669 C1683 0.960 . S
H1670 C1683 0.961 . S
H1671 C1683 0.959 . S
H1672 C1686 0.929 . S
H1673 C1687 0.931 . S
H1674 C1689 0.930 . S
C1675 H1663 0.930 . S
C1675 C1676 1.399 . S
C1675 C1680 1.399 . S
C1676 C1675 1.399 . S
C1676 C1677 1.376 . S
C1677 H1664 0.930 . S
C1677 C1676 1.376 . S
C1677 C1678 1.388 . S
C1678 H1665 0.930 . S
C1678 C1677 1.388 . S
C1678 C1679 1.390 . S
C1679 C1678 1.390 . S
C1679 C1680 1.394 . S
C1679 C1685 1.465 1_455 S
C1680 C1675 1.399 . S
C1680 C1679 1.394 . S
C1680 C1681 1.516 1_455 S
C1681 C1680 1.516 1_655 S
C1681 C1682 1.502 1_655 S
C1681 C1683 1.561 . S
C1681 C1684 1.526 . S
C1682 H1666 0.959 . S
C1682 H1667 0.959 1_455 S
C1682 H1668 0.961 . S
C1682 C1681 1.502 1_455 S
C1683 H1669 0.960 . S
C1683 H1670 0.961 . S
C1683 H1671 0.959 . S
C1683 C1681 1.561 . S
C1684 C1681 1.526 . S
C1684 C1685 1.396 . S
C1684 C1689 1.390 . S
C1685 C1679 1.465 1_655 S
C1685 C1684 1.396 . S
C1685 C1686 1.399 . S
C1686 H1672 0.929 . S
C1686 C1685 1.399 . S
C1686 C1687 1.385 . S
C1687 H1673 0.931 . S
C1687 C1686 1.385 . S
C1687 C1688 1.389 . S
C1688 C1687 1.389 . S
C1688 C1689 1.387 . S
C1689 H1674 0.930 . S
C1689 C1684 1.390 . S
C1689 C1688 1.387 . S
H1690 C1702 0.930 . S
H1691 C1704 0.930 . S
H1692 C1705 0.930 1_655 S
H1693 C1709 0.959 . S
H1694 C1709 0.959 . S
H1695 C1709 0.961 . S
H1696 C1710 0.960 1_455 S
H1697 C1710 0.961 . S
H1698 C1710 0.959 . S
H1699 C1713 0.929 . S
H1700 C1714 0.931 . S
H1701 C1716 0.930 . S
C1702 H1690 0.930 . S
C1702 C1703 1.399 . S
C1702 C1707 1.399 . S
C1703 C1702 1.399 . S
C1703 C1704 1.376 . S
C1704 H1691 0.930 . S
C1704 C1703 1.376 . S
C1704 C1705 1.388 . S
C1705 H1692 0.930 1_455 S
C1705 C1704 1.388 . S
C1705 C1706 1.390 . S
C1706 C1705 1.390 . S
C1706 C1707 1.394 . S
C1706 C1712 1.465 1_454 S
C1707 C1702 1.399 . S
C1707 C1706 1.394 . S
C1707 C1708 1.482 1_554 S
C1708 C1707 1.482 1_556 S
C1708 C1709 1.535 . S
C1708 C1710 1.531 1_456 S
C1708 C1711 1.557 1_455 S
C1709 H1693 0.959 . S
C1709 H1694 0.959 . S
C1709 H1695 0.961 . S
C1709 C1708 1.535 . S
C1710 H1696 0.960 1_655 S
C1710 H1697 0.961 . S
C1710 H1698 0.959 . S
C1710 C1708 1.531 1_654 S
C1711 C1708 1.557 1_655 S
C1711 C1712 1.396 . S
C1711 C1716 1.390 . S
C1712 C1706 1.465 1_656 S
C1712 C1711 1.396 . S
C1712 C1713 1.399 . S
C1713 H1699 0.929 . S
C1713 C1712 1.399 . S
C1713 C1714 1.385 . S
C1714 H1700 0.931 . S
C1714 C1713 1.385 . S
C1714 C1715 1.389 . S
C1715 C1714 1.389 . S
C1715 C1716 1.387 . S
C1716 H1701 0.930 . S
C1716 C1711 1.390 . S
C1716 C1715 1.387 . S
H1717 C1729 0.930 . S
H1718 C1731 0.930 . S
H1719 C1732 0.930 . S
H1720 C1736 0.959 . S
H1721 C1736 0.959 . S
H1722 C1736 0.961 . S
H1723 C1737 0.960 . S
H1724 C1737 0.961 . S
H1725 C1737 0.959 . S
H1726 C1740 0.929 . S
H1727 C1741 0.931 . S
H1728 C1743 0.930 . S
C1729 H1717 0.930 . S
C1729 C1730 1.399 . S
C1729 C1734 1.399 . S
C1730 C1729 1.399 . S
C1730 C1731 1.376 . S
C1731 H1718 0.930 . S
C1731 C1730 1.376 . S
C1731 C1732 1.388 . S
C1732 H1719 0.930 . S
C1732 C1731 1.388 . S
C1732 C1733 1.390 . S
C1733 C1732 1.390 . S
C1733 C1734 1.394 . S
C1733 C1739 1.465 . S
C1734 C1729 1.399 . S
C1734 C1733 1.394 . S
C1734 C1735 1.516 . S
C1735 C1734 1.516 . S
C1735 C1736 1.502 . S
C1735 C1737 1.561 . S
C1735 C1738 1.526 . S
C1736 H1720 0.959 . S
C1736 H1721 0.959 . S
C1736 H1722 0.961 . S
C1736 C1735 1.502 . S
C1737 H1723 0.960 . S
C1737 H1724 0.961 . S
C1737 H1725 0.959 . S
C1737 C1735 1.561 . S
C1738 C1735 1.526 . S
C1738 C1739 1.396 . S
C1738 C1743 1.390 . S
C1739 C1733 1.465 . S
C1739 C1738 1.396 . S
C1739 C1740 1.399 . S
C1740 H1726 0.929 . S
C1740 C1739 1.399 . S
C1740 C1741 1.385 . S
C1741 H1727 0.931 . S
C1741 C1740 1.385 . S
C1741 C1742 1.389 . S
C1742 C1741 1.389 . S
C1742 C1743 1.387 . S
C1743 H1728 0.930 . S
C1743 C1738 1.390 . S
C1743 C1742 1.387 . S
H1744 C1756 0.930 . S
H1745 C1758 0.930 . S
H1746 C1759 0.930 . S
H1747 C1763 0.959 . S
H1748 C1763 0.959 . S
H1749 C1763 0.961 . S
H1750 C1764 0.960 . S
H1751 C1764 0.961 . S
H1752 C1764 0.959 . S
H1753 C1767 0.929 . S
H1754 C1768 0.931 . S
H1755 C1770 0.930 . S
C1756 H1744 0.930 . S
C1756 C1757 1.399 . S
C1756 C1761 1.399 . S
C1757 C1756 1.399 . S
C1757 C1758 1.376 . S
C1758 H1745 0.930 . S
C1758 C1757 1.376 . S
C1758 C1759 1.388 1_545 S
C1759 H1746 0.930 . S
C1759 C1758 1.388 1_565 S
C1759 C1760 1.389 1_565 S
C1760 C1759 1.389 1_545 S
C1760 C1761 1.401 . S
C1760 C1766 1.459 1_545 S
C1761 C1756 1.399 . S
C1761 C1760 1.401 . S
C1761 C1762 1.516 . S
C1762 C1761 1.516 . S
C1762 C1763 1.502 . S
C1762 C1764 1.561 . S
C1762 C1765 1.526 1_545 S
C1763 H1747 0.959 . S
C1763 H1748 0.959 . S
C1763 H1749 0.961 . S
C1763 C1762 1.502 . S
C1764 H1750 0.960 . S
C1764 H1751 0.961 . S
C1764 H1752 0.959 . S
C1764 C1762 1.561 . S
C1765 C1762 1.526 1_565 S
C1765 C1766 1.396 . S
C1765 C1770 1.390 . S
C1766 C1760 1.459 1_565 S
C1766 C1765 1.396 . S
C1766 C1767 1.399 . S
C1767 H1753 0.929 . S
C1767 C1766 1.399 . S
C1767 C1768 1.385 . S
C1768 H1754 0.931 . S
C1768 C1767 1.385 . S
C1768 C1769 1.389 . S
C1769 C1768 1.389 . S
C1769 C1770 1.387 . S
C1770 H1755 0.930 . S
C1770 C1765 1.390 . S
C1770 C1769 1.387 . S
H1771 C1783 0.930 . S
H1772 C1785 0.930 . S
H1773 C1786 0.930 . S
H1774 C1790 0.959 . S
H1775 C1790 0.959 1_545 S
H1776 C1790 0.961 1_545 S
H1777 C1791 0.960 . S
H1778 C1791 0.961 . S
H1779 C1791 0.968 . S
H1780 C1794 0.929 . S
H1781 C1795 0.931 . S
H1782 C1797 0.930 . S
C1783 H1771 0.930 . S
C1783 C1784 1.399 . S
C1783 C1788 1.399 . S
C1784 C1783 1.399 . S
C1784 C1785 1.376 . S
C1785 H1772 0.930 . S
C1785 C1784 1.376 . S
C1785 C1786 1.388 . S
C1786 H1773 0.930 . S
C1786 C1785 1.388 . S
C1786 C1787 1.390 . S
C1787 C1786 1.390 . S
C1787 C1788 1.394 . S
C1787 C1793 1.465 . S
C1788 C1783 1.399 . S
C1788 C1787 1.394 . S
C1788 C1789 1.516 . S
C1789 C1788 1.516 . S
C1789 C1790 1.502 . S
C1789 C1791 1.561 1_565 S
C1789 C1792 1.526 . S
C1790 H1774 0.959 . S
C1790 H1775 0.959 1_565 S
C1790 H1776 0.961 1_565 S
C1790 C1789 1.502 . S
C1791 H1777 0.960 . S
C1791 H1778 0.961 . S
C1791 H1779 0.968 . S
C1791 C1789 1.561 1_545 S
C1792 C1789 1.526 . S
C1792 C1793 1.396 . S
C1792 C1797 1.390 . S
C1793 C1787 1.465 . S
C1793 C1792 1.396 . S
C1793 C1794 1.399 . S
C1794 H1780 0.929 . S
C1794 C1793 1.399 . S
C1794 C1795 1.385 . S
C1795 H1781 0.931 . S
C1795 C1794 1.385 . S
C1795 C1796 1.389 . S
C1796 C1795 1.389 . S
C1796 C1797 1.387 . S
C1797 H1782 0.930 . S
C1797 C1792 1.390 . S
C1797 C1796 1.387 . S
H1798 C1810 0.930 . S
H1799 C1812 0.930 . S
H1800 C1813 0.930 . S
H1801 C1817 0.959 . S
H1802 C1817 0.959 . S
H1803 C1817 0.961 . S
H1804 C1818 0.960 . S
H1805 C1818 0.961 . S
H1806 C1818 0.959 . S
H1807 C1821 0.929 . S
H1808 C1822 0.931 . S
H1809 C1824 0.930 . S
C1810 H1798 0.930 . S
C1810 C1811 1.399 . S
C1810 C1815 1.399 . S
C1811 C1810 1.399 . S
C1811 C1812 1.376 . S
C1812 H1799 0.930 . S
C1812 C1811 1.376 . S
C1812 C1813 1.388 1_545 S
C1813 H1800 0.930 . S
C1813 C1812 1.388 1_565 S
C1813 C1814 1.390 1_565 S
C1814 C1813 1.390 1_545 S
C1814 C1815 1.394 . S
C1814 C1820 1.465 1_545 S
C1815 C1810 1.399 . S
C1815 C1814 1.394 . S
C1815 C1816 1.516 . S
C1816 C1815 1.516 . S
C1816 C1817 1.502 . S
C1816 C1818 1.561 . S
C1816 C1819 1.526 1_545 S
C1817 H1801 0.959 . S
C1817 H1802 0.959 . S
C1817 H1803 0.961 . S
C1817 C1816 1.502 . S
C1818 H1804 0.960 . S
C1818 H1805 0.961 . S
C1818 H1806 0.959 . S
C1818 C1816 1.561 . S
C1819 C1816 1.526 1_565 S
C1819 C1820 1.396 . S
C1819 C1824 1.390 . S
C1820 C1814 1.465 1_565 S
C1820 C1819 1.396 . S
C1820 C1821 1.399 . S
C1821 H1807 0.929 . S
C1821 C1820 1.399 . S
C1821 C1822 1.385 . S
C1822 H1808 0.931 . S
C1822 C1821 1.385 . S
C1822 C1823 1.389 . S
C1823 C1822 1.389 . S
C1823 C1824 1.387 . S
C1824 H1809 0.930 . S
C1824 C1819 1.390 . S
C1824 C1823 1.387 . S
H1825 C1837 0.930 . S
H1826 C1839 0.930 . S
H1827 C1840 0.930 1_565 S
H1828 C1844 0.959 . S
H1829 C1844 0.959 . S
H1830 C1844 0.961 . S
H1831 C1845 0.970 . S
H1832 C1845 0.961 . S
H1833 C1845 0.959 . S
H1834 C1848 0.929 1_565 S
H1835 C1849 0.931 . S
H1836 C1851 0.930 . S
C1837 H1825 0.930 . S
C1837 C1838 1.399 . S
C1837 C1842 1.399 . S
C1838 C1837 1.399 . S
C1838 C1839 1.376 . S
C1839 H1826 0.930 . S
C1839 C1838 1.376 . S
C1839 C1840 1.388 . S
C1840 H1827 0.930 1_545 S
C1840 C1839 1.388 . S
C1840 C1841 1.390 . S
C1841 C1840 1.390 . S
C1841 C1842 1.394 . S
C1841 C1847 1.465 1_554 S
C1842 C1837 1.399 . S
C1842 C1841 1.394 . S
C1842 C1843 1.516 . S
C1843 C1842 1.516 . S
C1843 C1844 1.502 . S
C1843 C1845 1.561 1_554 S
C1843 C1846 1.526 1_554 S
C1844 H1828 0.959 . S
C1844 H1829 0.959 . S
C1844 H1830 0.961 . S
C1844 C1843 1.502 . S
C1845 H1831 0.970 . S
C1845 H1832 0.961 . S
C1845 H1833 0.959 . S
C1845 C1843 1.561 1_556 S
C1846 C1843 1.526 1_556 S
C1846 C1847 1.396 . S
C1846 C1851 1.390 . S
C1847 C1841 1.465 1_556 S
C1847 C1846 1.396 . S
C1847 C1848 1.399 . S
C1848 H1834 0.929 1_545 S
C1848 C1847 1.399 . S
C1848 C1849 1.385 . S
C1849 H1835 0.931 . S
C1849 C1848 1.385 . S
C1849 C1850 1.389 . S
C1850 C1849 1.389 . S
C1850 C1851 1.387 . S
C1851 H1836 0.930 . S
C1851 C1846 1.390 . S
C1851 C1850 1.387 . S
H1852 C1864 0.930 . S
H1853 C1866 0.930 . S
H1854 C1867 0.930 . S
H1855 C1871 0.959 . S
H1856 C1871 0.959 . S
H1857 C1871 0.961 . S
H1858 C1872 0.960 . S
H1859 C1872 0.979 . S
H1860 C1872 0.959 . S
H1861 C1875 0.929 . S
H1862 C1876 0.931 . S
H1863 C1878 0.930 . S
C1864 H1852 0.930 . S
C1864 C1865 1.399 . S
C1864 C1869 1.399 . S
C1865 C1864 1.399 . S
C1865 C1866 1.376 . S
C1866 H1853 0.930 . S
C1866 C1865 1.376 . S
C1866 C1867 1.388 . S
C1867 H1854 0.930 . S
C1867 C1866 1.388 . S
C1867 C1868 1.390 . S
C1868 C1867 1.390 . S
C1868 C1869 1.394 . S
C1868 C1874 1.465 1_545 S
C1869 C1864 1.399 . S
C1869 C1868 1.394 . S
C1869 C1870 1.516 1_545 S
C1870 C1869 1.516 1_565 S
C1870 C1871 1.502 . S
C1870 C1872 1.561 1_565 S
C1870 C1873 1.526 . S
C1871 H1855 0.959 . S
C1871 H1856 0.959 . S
C1871 H1857 0.961 . S
C1871 C1870 1.502 . S
C1872 H1858 0.960 . S
C1872 H1859 0.979 . S
C1872 H1860 0.959 . S
C1872 C1870 1.561 1_545 S
C1873 C1870 1.526 . S
C1873 C1874 1.396 . S
C1873 C1878 1.390 . S
C1874 C1868 1.465 1_565 S
C1874 C1873 1.396 . S
C1874 C1875 1.399 . S
C1875 H1861 0.929 . S
C1875 C1874 1.399 . S
C1875 C1876 1.385 . S
C1876 H1862 0.931 . S
C1876 C1875 1.385 . S
C1876 C1877 1.389 . S
C1877 C1876 1.389 . S
C1877 C1878 1.387 . S
C1878 H1863 0.930 . S
C1878 C1873 1.390 . S
C1878 C1877 1.387 . S
H1879 C1891 0.930 . S
H1880 C1893 0.930 . S
H1881 C1894 0.930 . S
H1882 C1898 0.959 . S
H1883 C1898 0.959 1_565 S
H1884 C1898 0.961 . S
H1885 C1899 0.960 . S
H1886 C1899 0.961 . S
H1887 C1899 0.959 . S
H1888 C1902 0.929 . S
H1889 C1903 0.931 . S
H1890 C1905 0.930 . S
C1891 H1879 0.930 . S
C1891 C1892 1.399 . S
C1891 C1896 1.399 . S
C1892 C1891 1.399 . S
C1892 C1893 1.376 . S
C1893 H1880 0.930 . S
C1893 C1892 1.376 . S
C1893 C1894 1.388 . S
C1894 H1881 0.930 . S
C1894 C1893 1.388 . S
C1894 C1895 1.390 . S
C1895 C1894 1.390 . S
C1895 C1896 1.394 . S
C1895 C1901 1.465 . S
C1896 C1891 1.399 . S
C1896 C1895 1.394 . S
C1896 C1897 1.516 . S
C1897 C1896 1.516 . S
C1897 C1898 1.502 . S
C1897 C1899 1.561 1_545 S
C1897 C1900 1.526 . S
C1898 H1882 0.959 . S
C1898 H1883 0.959 1_545 S
C1898 H1884 0.961 . S
C1898 C1897 1.502 . S
C1899 H1885 0.960 . S
C1899 H1886 0.961 . S
C1899 H1887 0.959 . S
C1899 C1897 1.561 1_565 S
C1900 C1897 1.526 . S
C1900 C1901 1.396 . S
C1900 C1905 1.390 . S
C1901 C1895 1.465 . S
C1901 C1900 1.396 . S
C1901 C1902 1.399 . S
C1902 H1888 0.929 . S
C1902 C1901 1.399 . S
C1902 C1903 1.385 . S
C1903 H1889 0.931 . S
C1903 C1902 1.385 . S
C1903 C1904 1.389 . S
C1904 C1903 1.389 . S
C1904 C1905 1.387 . S
C1905 H1890 0.930 . S
C1905 C1900 1.390 . S
C1905 C1904 1.387 . S
H1906 C1918 0.930 . S
H1907 C1920 0.930 . S
H1908 C1921 0.930 . S
H1909 C1925 0.959 . S
H1910 C1925 0.959 . S
H1911 C1925 0.961 . S
H1912 C1926 0.960 . S
H1913 C1926 0.961 . S
H1914 C1926 0.959 . S
H1915 C1929 0.929 . S
H1916 C1930 0.931 . S
H1917 C1932 0.930 . S
C1918 H1906 0.930 . S
C1918 C1919 1.399 . S
C1918 C1923 1.399 . S
C1919 C1918 1.399 . S
C1919 C1920 1.376 . S
C1920 H1907 0.930 . S
C1920 C1919 1.376 . S
C1920 C1921 1.388 . S
C1921 H1908 0.930 . S
C1921 C1920 1.388 . S
C1921 C1922 1.390 . S
C1922 C1921 1.390 . S
C1922 C1923 1.394 . S
C1922 C1928 1.475 . S
C1923 C1918 1.399 . S
C1923 C1922 1.394 . S
C1923 C1924 1.516 1_545 S
C1924 C1923 1.516 1_565 S
C1924 C1925 1.502 . S
C1924 C1926 1.561 . S
C1924 C1927 1.526 . S
C1925 H1909 0.959 . S
C1925 H1910 0.959 . S
C1925 H1911 0.961 . S
C1925 C1924 1.502 . S
C1926 H1912 0.960 . S
C1926 H1913 0.961 . S
C1926 H1914 0.959 . S
C1926 C1924 1.561 . S
C1927 C1924 1.526 . S
C1927 C1928 1.383 1_565 S
C1927 C1932 1.390 . S
C1928 C1922 1.475 . S
C1928 C1927 1.383 1_545 S
C1928 C1929 1.400 . S
C1929 H1915 0.929 . S
C1929 C1928 1.400 . S
C1929 C1930 1.385 1_545 S
C1930 H1916 0.931 . S
C1930 C1929 1.385 1_565 S
C1930 C1931 1.389 . S
C1931 C1930 1.389 . S
C1931 C1932 1.387 . S
C1932 H1917 0.930 . S
C1932 C1927 1.390 . S
C1932 C1931 1.387 . S
H1933 C1945 0.930 . S
H1934 C1947 0.930 . S
H1935 C1948 0.930 . S
H1936 C1952 0.959 1_554 S
H1937 C1952 0.959 . S
H1938 C1952 0.961 . S
H1939 C1953 0.960 . S
H1940 C1953 0.961 . S
H1941 C1953 0.959 . S
H1942 C1956 0.929 . S
H1943 C1957 0.931 . S
H1944 C1959 0.930 . S
C1945 H1933 0.930 . S
C1945 C1946 1.399 . S
C1945 C1950 1.399 . S
C1946 C1945 1.399 . S
C1946 C1947 1.376 . S
C1947 H1934 0.930 . S
C1947 C1946 1.376 . S
C1947 C1948 1.388 . S
C1948 H1935 0.930 . S
C1948 C1947 1.388 . S
C1948 C1949 1.390 . S
C1949 C1948 1.390 . S
C1949 C1950 1.394 . S
C1949 C1955 1.465 1_556 S
C1950 C1945 1.399 . S
C1950 C1949 1.394 . S
C1950 C1951 1.516 . S
C1951 C1950 1.516 . S
C1951 C1952 1.502 . S
C1951 C1953 1.561 . S
C1951 C1954 1.526 1_556 S
C1952 H1936 0.959 1_556 S
C1952 H1937 0.959 . S
C1952 H1938 0.961 . S
C1952 C1951 1.502 . S
C1953 H1939 0.960 . S
C1953 H1940 0.961 . S
C1953 H1941 0.959 . S
C1953 C1951 1.561 . S
C1954 C1951 1.526 1_554 S
C1954 C1955 1.396 . S
C1954 C1959 1.390 . S
C1955 C1949 1.465 1_554 S
C1955 C1954 1.396 . S
C1955 C1956 1.399 . S
C1956 H1942 0.929 . S
C1956 C1955 1.399 . S
C1956 C1957 1.385 . S
C1957 H1943 0.931 . S
C1957 C1956 1.385 . S
C1957 C1958 1.389 . S
C1958 C1957 1.389 . S
C1958 C1959 1.387 . S
C1959 H1944 0.930 . S
C1959 C1954 1.390 . S
C1959 C1958 1.387 . S
H1960 C1972 0.930 . S
H1961 C1974 0.930 . S
H1962 C1975 0.930 . S
H1963 C1979 0.959 . S
H1964 C1979 0.959 . S
H1965 C1979 0.961 . S
H1966 C1980 0.960 . S
H1967 C1980 0.961 . S
H1968 C1980 0.959 . S
H1969 C1983 0.929 . S
H1970 C1984 0.931 . S
H1971 C1986 0.930 . S
C1972 H1960 0.930 . S
C1972 C1973 1.399 . S
C1972 C1977 1.399 . S
C1973 C1972 1.399 . S
C1973 C1974 1.376 . S
C1974 H1961 0.930 . S
C1974 C1973 1.376 . S
C1974 C1975 1.388 . S
C1975 H1962 0.930 . S
C1975 C1974 1.388 . S
C1975 C1976 1.390 . S
C1976 C1975 1.390 . S
C1976 C1977 1.394 . S
C1976 C1982 1.465 . S
C1977 C1972 1.399 . S
C1977 C1976 1.394 . S
C1977 C1978 1.516 . S
C1978 C1977 1.516 . S
C1978 C1979 1.502 . S
C1978 C1980 1.561 . S
C1978 C1981 1.526 . S
C1979 H1963 0.959 . S
C1979 H1964 0.959 . S
C1979 H1965 0.961 . S
C1979 C1978 1.502 . S
C1980 H1966 0.960 . S
C1980 H1967 0.961 . S
C1980 H1968 0.959 . S
C1980 C1978 1.561 . S
C1981 C1978 1.526 . S
C1981 C1982 1.396 . S
C1981 C1986 1.390 . S
C1982 C1976 1.465 . S
C1982 C1981 1.396 . S
C1982 C1983 1.399 . S
C1983 H1969 0.929 . S
C1983 C1982 1.399 . S
C1983 C1984 1.385 . S
C1984 H1970 0.931 . S
C1984 C1983 1.385 . S
C1984 C1985 1.389 . S
C1985 C1984 1.389 . S
C1985 C1986 1.387 . S
C1986 H1971 0.930 . S
C1986 C1981 1.390 . S
C1986 C1985 1.387 . S
H1987 C1999 0.930 . S
H1988 C2001 0.930 . S
H1989 C2002 0.930 . S
H1990 C2006 0.959 . S
H1991 C2006 0.973 . S
H1992 C2006 0.961 . S
H1993 C2007 0.960 . S
H1994 C2007 0.961 . S
H1995 C2007 0.959 . S
H1996 C2010 0.929 . S
H1997 C2011 0.931 . S
H1998 C2013 0.930 . S
C1999 H1987 0.930 . S
C1999 C2000 1.399 . S
C1999 C2004 1.399 . S
C2000 C1999 1.399 . S
C2000 C2001 1.376 . S
C2001 H1988 0.930 . S
C2001 C2000 1.376 . S
C2001 C2002 1.388 . S
C2002 H1989 0.930 . S
C2002 C2001 1.388 . S
C2002 C2003 1.390 . S
C2003 C2002 1.390 . S
C2003 C2004 1.394 . S
C2003 C2009 1.465 1_556 S
C2004 C1999 1.399 . S
C2004 C2003 1.394 . S
C2004 C2005 1.516 1_556 S
C2005 C2004 1.516 1_554 S
C2005 C2006 1.502 1_554 S
C2005 C2007 1.561 . S
C2005 C2008 1.526 . S
C2006 H1990 0.959 . S
C2006 H1991 0.973 . S
C2006 H1992 0.961 . S
C2006 C2005 1.502 1_556 S
C2007 H1993 0.960 . S
C2007 H1994 0.961 . S
C2007 H1995 0.959 . S
C2007 C2005 1.561 . S
C2008 C2005 1.526 . S
C2008 C2009 1.396 . S
C2008 C2013 1.390 . S
C2009 C2003 1.465 1_554 S
C2009 C2008 1.396 . S
C2009 C2010 1.399 . S
C2010 H1996 0.929 . S
C2010 C2009 1.399 . S
C2010 C2011 1.385 . S
C2011 H1997 0.931 . S
C2011 C2010 1.385 . S
C2011 C2012 1.389 . S
C2012 C2011 1.389 . S
C2012 C2013 1.387 . S
C2013 H1998 0.930 . S
C2013 C2008 1.390 . S
C2013 C2012 1.387 . S
H2014 C2026 0.930 . S
H2015 C2028 0.930 . S
H2016 C2029 0.930 . S
H2017 C2033 0.959 . S
H2018 C2033 0.959 . S
H2019 C2033 0.961 . S
H2020 C2034 0.960 . S
H2021 C2034 0.961 . S
H2022 C2034 0.959 . S
H2023 C2037 0.929 . S
H2024 C2038 0.931 . S
H2025 C2040 0.930 . S
C2026 H2014 0.930 . S
C2026 C2027 1.399 . S
C2026 C2031 1.399 . S
C2027 C2026 1.399 . S
C2027 C2028 1.376 . S
C2028 H2015 0.930 . S
C2028 C2027 1.376 . S
C2028 C2029 1.388 . S
C2029 H2016 0.930 . S
C2029 C2028 1.388 . S
C2029 C2030 1.390 . S
C2030 C2029 1.390 . S
C2030 C2031 1.394 . S
C2030 C2036 1.465 . S
C2031 C2026 1.399 . S
C2031 C2030 1.394 . S
C2031 C2032 1.516 . S
C2032 C2031 1.516 . S
C2032 C2033 1.502 . S
C2032 C2034 1.561 . S
C2032 C2035 1.526 . S
C2033 H2017 0.959 . S
C2033 H2018 0.959 . S
C2033 H2019 0.961 . S
C2033 C2032 1.502 . S
C2034 H2020 0.960 . S
C2034 H2021 0.961 . S
C2034 H2022 0.959 . S
C2034 C2032 1.561 . S
C2035 C2032 1.526 . S
C2035 C2036 1.396 . S
C2035 C2040 1.390 . S
C2036 C2030 1.465 . S
C2036 C2035 1.396 . S
C2036 C2037 1.399 . S
C2037 H2023 0.929 . S
C2037 C2036 1.399 . S
C2037 C2038 1.385 . S
C2038 H2024 0.931 . S
C2038 C2037 1.385 . S
C2038 C2039 1.389 . S
C2039 C2038 1.389 . S
C2039 C2040 1.387 . S
C2040 H2025 0.930 . S
C2040 C2035 1.390 . S
C2040 C2039 1.387 . S
H2041 C2053 0.930 . S
H2042 C2055 0.930 . S
H2043 C2056 0.930 . S
H2044 C2060 0.959 . S
H2045 C2060 0.959 . S
H2046 C2060 0.961 . S
H2047 C2061 0.960 . S
H2048 C2061 0.961 . S
H2049 C2061 0.959 . S
H2050 C2064 0.929 . S
H2051 C2065 0.931 . S
H2052 C2067 0.930 . S
C2053 H2041 0.930 . S
C2053 C2054 1.399 . S
C2053 C2058 1.399 . S
C2054 C2053 1.399 . S
C2054 C2055 1.376 . S
C2055 H2042 0.930 . S
C2055 C2054 1.376 . S
C2055 C2056 1.388 . S
C2056 H2043 0.930 . S
C2056 C2055 1.388 . S
C2056 C2057 1.390 . S
C2057 C2056 1.390 . S
C2057 C2058 1.394 . S
C2057 C2063 1.465 . S
C2058 C2053 1.399 . S
C2058 C2057 1.394 . S
C2058 C2059 1.516 . S
C2059 C2058 1.516 . S
C2059 C2060 1.502 . S
C2059 C2061 1.561 . S
C2059 C2062 1.526 . S
C2060 H2044 0.959 . S
C2060 H2045 0.959 . S
C2060 H2046 0.961 . S
C2060 C2059 1.502 . S
C2061 H2047 0.960 . S
C2061 H2048 0.961 . S
C2061 H2049 0.959 . S
C2061 C2059 1.561 . S
C2062 C2059 1.526 . S
C2062 C2063 1.396 . S
C2062 C2067 1.390 . S
C2063 C2057 1.465 . S
C2063 C2062 1.396 . S
C2063 C2064 1.399 . S
C2064 H2050 0.929 . S
C2064 C2063 1.399 . S
C2064 C2065 1.385 . S
C2065 H2051 0.931 . S
C2065 C2064 1.385 . S
C2065 C2066 1.389 . S
C2066 C2065 1.389 . S
C2066 C2067 1.387 . S
C2067 H2052 0.930 . S
C2067 C2062 1.390 . S
C2067 C2066 1.387 . S
H2068 C2080 0.930 . S
H2069 C2082 0.930 . S
H2070 C2083 0.930 . S
H2071 C2087 0.959 . S
H2072 C2087 0.959 . S
H2073 C2087 0.961 . S
H2074 C2088 0.960 . S
H2075 C2088 0.961 . S
H2076 C2088 0.959 . S
H2077 C2091 0.929 . S
H2078 C2092 0.931 . S
H2079 C2094 0.930 . S
C2080 H2068 0.930 . S
C2080 C2081 1.399 . S
C2080 C2085 1.399 . S
C2081 C2080 1.399 . S
C2081 C2082 1.376 . S
C2082 H2069 0.930 . S
C2082 C2081 1.376 . S
C2082 C2083 1.388 . S
C2083 H2070 0.930 . S
C2083 C2082 1.388 . S
C2083 C2084 1.390 . S
C2084 C2083 1.390 . S
C2084 C2085 1.394 . S
C2084 C2090 1.465 . S
C2085 C2080 1.399 . S
C2085 C2084 1.394 . S
C2085 C2086 1.516 . S
C2086 C2085 1.516 . S
C2086 C2087 1.502 . S
C2086 C2088 1.561 . S
C2086 C2089 1.526 . S
C2087 H2071 0.959 . S
C2087 H2072 0.959 . S
C2087 H2073 0.961 . S
C2087 C2086 1.502 . S
C2088 H2074 0.960 . S
C2088 H2075 0.961 . S
C2088 H2076 0.959 . S
C2088 C2086 1.561 . S
C2089 C2086 1.526 . S
C2089 C2090 1.396 . S
C2089 C2094 1.390 . S
C2090 C2084 1.465 . S
C2090 C2089 1.396 . S
C2090 C2091 1.399 . S
C2091 H2077 0.929 . S
C2091 C2090 1.399 . S
C2091 C2092 1.385 . S
C2092 H2078 0.931 . S
C2092 C2091 1.385 . S
C2092 C2093 1.389 . S
C2093 C2092 1.389 . S
C2093 C2094 1.387 . S
C2094 H2079 0.930 . S
C2094 C2089 1.390 . S
C2094 C2093 1.387 . S
H2095 C2107 0.930 . S
H2096 C2109 0.930 . S
H2097 C2110 0.930 1_554 S
H2098 C2114 0.959 . S
H2099 C2114 0.959 . S
H2100 C2114 0.961 . S
H2101 C2115 0.961 . S
H2102 C2115 0.960 1_554 S
H2103 C2115 0.958 1_554 S
H2104 C2118 0.929 . S
H2105 C2119 0.931 . S
H2106 C2121 0.930 . S
C2107 H2095 0.930 . S
C2107 C2108 1.399 . S
C2107 C2112 1.399 . S
C2108 C2107 1.399 . S
C2108 C2109 1.376 . S
C2109 H2096 0.930 . S
C2109 C2108 1.376 . S
C2109 C2110 1.388 . S
C2110 H2097 0.930 1_556 S
C2110 C2109 1.388 . S
C2110 C2111 1.390 . S
C2111 C2110 1.390 . S
C2111 C2112 1.394 . S
C2111 C2117 1.465 1_556 S
C2112 C2107 1.399 . S
C2112 C2111 1.394 . S
C2112 C2113 1.516 . S
C2113 C2112 1.516 . S
C2113 C2114 1.502 . S
C2113 C2115 1.561 . S
C2113 C2116 1.526 1_556 S
C2114 H2098 0.959 . S
C2114 H2099 0.959 . S
C2114 H2100 0.961 . S
C2114 C2113 1.502 . S
C2115 H2101 0.961 . S
C2115 H2102 0.960 1_556 S
C2115 H2103 0.958 1_556 S
C2115 C2113 1.561 . S
C2116 C2113 1.526 1_554 S
C2116 C2117 1.396 . S
C2116 C2121 1.390 . S
C2117 C2111 1.465 1_554 S
C2117 C2116 1.396 . S
C2117 C2118 1.399 . S
C2118 H2104 0.929 . S
C2118 C2117 1.399 . S
C2118 C2119 1.385 . S
C2119 H2105 0.931 . S
C2119 C2118 1.385 . S
C2119 C2120 1.389 . S
C2120 C2119 1.389 . S
C2120 C2121 1.387 . S
C2121 H2106 0.930 . S
C2121 C2116 1.390 . S
C2121 C2120 1.387 . S
H2122 C2134 0.930 . S
H2123 C2136 0.930 . S
H2124 C2137 0.930 . S
H2125 C2141 0.959 . S
H2126 C2141 0.959 . S
H2127 C2141 0.961 . S
H2128 C2142 0.960 . S
H2129 C2142 0.961 . S
H2130 C2142 0.959 . S
H2131 C2145 0.929 . S
H2132 C2146 0.931 . S
H2133 C2148 0.930 . S
C2134 H2122 0.930 . S
C2134 C2135 1.399 . S
C2134 C2139 1.399 . S
C2135 C2134 1.399 . S
C2135 C2136 1.376 . S
C2136 H2123 0.930 . S
C2136 C2135 1.376 . S
C2136 C2137 1.388 . S
C2137 H2124 0.930 . S
C2137 C2136 1.388 . S
C2137 C2138 1.390 . S
C2138 C2137 1.390 . S
C2138 C2139 1.394 . S
C2138 C2144 1.465 . S
C2139 C2134 1.399 . S
C2139 C2138 1.394 . S
C2139 C2140 1.516 . S
C2140 C2139 1.516 . S
C2140 C2141 1.502 . S
C2140 C2142 1.561 . S
C2140 C2143 1.526 . S
C2141 H2125 0.959 . S
C2141 H2126 0.959 . S
C2141 H2127 0.961 . S
C2141 C2140 1.502 . S
C2142 H2128 0.960 . S
C2142 H2129 0.961 . S
C2142 H2130 0.959 . S
C2142 C2140 1.561 . S
C2143 C2140 1.526 . S
C2143 C2144 1.396 . S
C2143 C2148 1.390 . S
C2144 C2138 1.465 . S
C2144 C2143 1.396 . S
C2144 C2145 1.399 . S
C2145 H2131 0.929 . S
C2145 C2144 1.399 . S
C2145 C2146 1.385 . S
C2146 H2132 0.931 . S
C2146 C2145 1.385 . S
C2146 C2147 1.389 . S
C2147 C2146 1.389 . S
C2147 C2148 1.387 . S
C2148 H2133 0.930 . S
C2148 C2143 1.390 . S
C2148 C2147 1.387 . S
H2149 C2161 0.930 . S
H2150 C2163 0.930 . S
H2151 C2164 0.930 . S
H2152 C2168 0.959 . S
H2153 C2168 0.959 . S
H2154 C2168 0.961 . S
H2155 C2169 0.960 . S
H2156 C2169 0.961 . S
H2157 C2169 0.959 . S
H2158 C2172 0.929 . S
H2159 C2173 0.931 . S
H2160 C2175 0.930 . S
C2161 H2149 0.930 . S
C2161 C2162 1.399 . S
C2161 C2166 1.399 . S
C2162 C2161 1.399 . S
C2162 C2163 1.376 . S
C2163 H2150 0.930 . S
C2163 C2162 1.376 . S
C2163 C2164 1.388 . S
C2164 H2151 0.930 . S
C2164 C2163 1.388 . S
C2164 C2165 1.390 . S
C2165 C2164 1.390 . S
C2165 C2166 1.394 . S
C2165 C2171 1.465 . S
C2166 C2161 1.399 . S
C2166 C2165 1.394 . S
C2166 C2167 1.516 . S
C2167 C2166 1.516 . S
C2167 C2168 1.502 . S
C2167 C2169 1.561 . S
C2167 C2170 1.526 . S
C2168 H2152 0.959 . S
C2168 H2153 0.959 . S
C2168 H2154 0.961 . S
C2168 C2167 1.502 . S
C2169 H2155 0.960 . S
C2169 H2156 0.961 . S
C2169 H2157 0.959 . S
C2169 C2167 1.561 . S
C2170 C2167 1.526 . S
C2170 C2171 1.396 . S
C2170 C2175 1.390 . S
C2171 C2165 1.465 . S
C2171 C2170 1.396 . S
C2171 C2172 1.399 . S
C2172 H2158 0.929 . S
C2172 C2171 1.399 . S
C2172 C2173 1.385 . S
C2173 H2159 0.931 . S
C2173 C2172 1.385 . S
C2173 C2174 1.389 . S
C2174 C2173 1.389 . S
C2174 C2175 1.387 . S
C2175 H2160 0.930 . S
C2175 C2170 1.390 . S
C2175 C2174 1.387 . S
C461 C390 1.498 . S
C473 C1 1.512 . S
C488 C26 1.514 . S
C500 C112 1.494 . S
C515 C363 1.488 . S
C527 C28 1.489 . S
C542 C42 1.521 . S
C554 C153 1.474 . S
C569 C56 1.520 . S
C581 C419 1.462 . S
C596 C71 1.512 . S
C608 C208 1.497 . S
C623 C96 1.499 . S
C635 C447 1.512 . S
C650 C111 1.488 . S
C662 C181 1.499 . S
C677 C279 1.454 . S
C689 C125 1.520 . S
C704 C12 1.461 . S
C716 C139 1.515 . S
C731 C239 1.454 . S
C743 C140 1.520 . S
C758 C166 1.498 . S
C770 C41 1.503 . S
C785 C306 1.514 . S
C797 C168 1.489 . S
C812 C85 1.473 . S
C824 C182 1.515 . S
C839 C197 1.518 . S
C851 C334 1.470 . S
C866 C69 1.501 . S
C878 C222 1.491 . S
C893 C225 1.518 . S
C905 C155 1.458 . S
C920 C250 1.513 . S
C932 C336 1.496 . S
C947 C126 1.501 . S
C959 C252 1.487 . S
C974 C376 1.501 . S
C986 C266 1.510 . S
C1001 C195 1.458 . S
C1013 C292 1.518 . S
C1028 C433 1.511 . S
C1040 C295 1.502 . S
C1055 C211 1.482 . S
C1067 C320 1.491 . S
C1082 C323 1.488 . S
C1094 C405 1.506 . S
C1109 C55 1.503 . S
C1121 C349 1.498 . S
C1136 C350 1.511 . S
C1148 C236 1.468 . S
C1163 C365 1.493 . S
C1175 C15 1.493 . S
C1190 C379 1.501 . S
C1202 C265 1.498 . S
C1217 C392 1.495 . S
C1229 C82 1.494 . S
C1244 C406 1.495 . S
C1256 C309 1.507 . S
C1271 C420 1.519 . S
C1283 C98 1.468 . S
C1298 C434 1.499 . S
C1310 C281 1.501 . S
C1325 C337 1.690 . S
C1337 C13 1.673 . S
C1352 C14 1.686 . S
C1364 C127 1.700 . S
C1379 C377 1.681 . S
C1391 C40 1.684 . S
C1406 C54 1.721 . S
C1418 C154 1.653 . S
C1433 C404 1.697 . S
C1445 C68 1.687 . S
C1460 C83 1.691 . S
C1472 C194 1.669 . S
C1487 C432 1.707 . S
C1499 C84 1.675 . S
C1514 C99 1.695 . S
C1526 C210 1.666 . S
C1541 C113 1.721 . S
C1553 C237 1.653 . S
C1568 C152 1.706 . S
C1580 C264 1.660 . S
C1595 C180 1.719 . S
C1607 C280 1.658 . S
C1622 C209 1.703 . S
C1634 C308 1.682 . S
C1649 C238 1.677 . S
C1661 C362 1.705 . S
C1676 C391 1.655 . S
C1688 C278 1.714 . S
C1703 C418 1.652 . S
C1715 C307 1.719 . S
C1730 C335 1.688 . S
C1742 C446 1.692 . S
C1757 C0 1.935 . S
C1769 C57 1.927 . S
C1784 C27 1.926 . S
C1796 C70 1.919 . S
C1811 C97 1.936 . S
C1823 C29 1.928 . S
C1838 C43 1.931 . S
C1850 C110 1.937 . S
C1865 C169 1.918 . S
C1877 C124 1.923 . S
C1892 C183 1.919 . S
C1904 C138 1.925 . S
C1919 C141 1.926 . S
C1931 C196 1.933 . S
C1946 C167 1.935 . S
C1958 C223 1.937 . S
C1973 C293 1.920 . S
C1985 C224 1.927 . S
C2000 C294 1.933 . S
C2012 C251 1.936 . S
C2027 C253 1.937 . S
C2039 C321 1.931 . S
C2054 C322 1.925 . S
C2066 C267 1.920 . S
C2081 C393 1.929 . S
C2093 C348 1.935 . S
C2108 C351 1.919 . S
C2120 C407 1.924 . S
C2135 C421 1.930 . S
C2147 C364 1.935 . S
C2162 C378 1.936 . S
C2174 C435 1.932 . S
