# Generated by pormake.
# Topology wje, (4)-cn, num edge types: 1
# Building blocks:
#     Node 0, Type 0, BuildingBlock: AZAVOO_clean_sbu_0, # of connection points: 4
#     Node 1, Type 0, BuildingBlock: AZAVOO_clean_sbu_0, # of connection points: 4
#     Node 2, Type 0, BuildingBlock: AZAVOO_clean_sbu_0, # of connection points: 4
#     Node 3, Type 0, BuildingBlock: AZAVOO_clean_sbu_0, # of connection points: 4
#     Node 4, Type 0, BuildingBlock: AZAVOO_clean_sbu_0, # of connection points: 4
#     Node 5, Type 0, BuildingBlock: AZAVOO_clean_sbu_0, # of connection points: 4
#     Node 6, Type 0, BuildingBlock: AZAVOO_clean_sbu_0, # of connection points: 4
#     Node 7, Type 0, BuildingBlock: AZAVOO_clean_sbu_0, # of connection points: 4
#     Node 8, Type 0, BuildingBlock: AZAVOO_clean_sbu_0, # of connection points: 4
#     Node 9, Type 0, BuildingBlock: AZAVOO_clean_sbu_0, # of connection points: 4
#     Node 10, Type 0, BuildingBlock: AZAVOO_clean_sbu_0, # of connection points: 4
#     Node 11, Type 0, BuildingBlock: AZAVOO_clean_sbu_0, # of connection points: 4
#     Edge 12, Type (0, 0), BuildingBlock: TEMPAE_clean_linker_10, # of connection points: 2
#     Edge 13, Type (0, 0), BuildingBlock: TEMPAE_clean_linker_10, # of connection points: 2
#     Edge 14, Type (0, 0), BuildingBlock: TEMPAE_clean_linker_10, # of connection points: 2
#     Edge 15, Type (0, 0), BuildingBlock: TEMPAE_clean_linker_10, # of connection points: 2
#     Edge 16, Type (0, 0), BuildingBlock: TEMPAE_clean_linker_10, # of connection points: 2
#     Edge 17, Type (0, 0), BuildingBlock: TEMPAE_clean_linker_10, # of connection points: 2
#     Edge 18, Type (0, 0), BuildingBlock: TEMPAE_clean_linker_10, # of connection points: 2
#     Edge 19, Type (0, 0), BuildingBlock: TEMPAE_clean_linker_10, # of connection points: 2
#     Edge 20, Type (0, 0), BuildingBlock: TEMPAE_clean_linker_10, # of connection points: 2
#     Edge 21, Type (0, 0), BuildingBlock: TEMPAE_clean_linker_10, # of connection points: 2
#     Edge 22, Type (0, 0), BuildingBlock: TEMPAE_clean_linker_10, # of connection points: 2
#     Edge 23, Type (0, 0), BuildingBlock: TEMPAE_clean_linker_10, # of connection points: 2
#     Edge 24, Type (0, 0), BuildingBlock: TEMPAE_clean_linker_10, # of connection points: 2
#     Edge 25, Type (0, 0), BuildingBlock: TEMPAE_clean_linker_10, # of connection points: 2
#     Edge 26, Type (0, 0), BuildingBlock: TEMPAE_clean_linker_10, # of connection points: 2
#     Edge 27, Type (0, 0), BuildingBlock: TEMPAE_clean_linker_10, # of connection points: 2
#     Edge 28, Type (0, 0), BuildingBlock: TEMPAE_clean_linker_10, # of connection points: 2
#     Edge 29, Type (0, 0), BuildingBlock: TEMPAE_clean_linker_10, # of connection points: 2
#     Edge 30, Type (0, 0), BuildingBlock: TEMPAE_clean_linker_10, # of connection points: 2
#     Edge 31, Type (0, 0), BuildingBlock: TEMPAE_clean_linker_10, # of connection points: 2
#     Edge 32, Type (0, 0), BuildingBlock: TEMPAE_clean_linker_10, # of connection points: 2
#     Edge 33, Type (0, 0), BuildingBlock: TEMPAE_clean_linker_10, # of connection points: 2
#     Edge 34, Type (0, 0), BuildingBlock: TEMPAE_clean_linker_10, # of connection points: 2
#     Edge 35, Type (0, 0), BuildingBlock: TEMPAE_clean_linker_10, # of connection points: 2
# Relax obj value: 0.161
# Max RMSD: 0.140
# Mean RMSD: 0.139
data_MOF--net-wje--node1-AZAVOO_clean_sbu_0--edge1-TEMPAE_clean_linker_10
_symmetry_space_group_name_H-M    P1
_symmetry_Int_Tables_number       1
_symmetry_cell_setting            triclinic
loop_
_symmetry_equiv_pos_as_xyz
'x, y, z'
_cell_length_a     44.661346
_cell_length_b     44.454593
_cell_length_c     29.985276
_cell_angle_alpha  89.981153
_cell_angle_beta   90.031027
_cell_angle_gamma 119.98934
loop_
_atom_site_label
_atom_site_type_symbol
_atom_site_fract_x
_atom_site_fract_y
_atom_site_fract_z
_atom_type_partial_charge
Mg0 Mg 0.32193 0.99157 0.25598 0.0
O1 O 0.33734 0.00762 0.32843 0.0
O2 O 0.39151 0.0517 0.33196 0.0
Mg3 Mg 0.40948 0.06627 0.25961 0.0
C4 C 0.36357 0.0293 0.35087 0.0
C5 C 0.24922 0.92698 0.26648 0.0
O6 O 0.26197 0.916 0.2351 0.0
O7 O 0.31352 0.0372 0.24389 0.0
O8 O 0.36797 0.08144 0.24624 0.0
O9 O 0.34569 0.9581 0.26147 0.0
O10 O 0.37349 0.01264 0.23788 0.0
C11 C 0.33552 0.06956 0.24132 0.0
C12 C 0.37427 0.98507 0.24895 0.0
O13 O 0.26719 0.95789 0.28059 0.0
Mg14 Mg 0.32119 0.29773 0.54062 0.0
O15 O 0.31843 0.30736 0.61539 0.0
O16 O 0.34103 0.36457 0.62447 0.0
Mg17 Mg 0.35465 0.39093 0.55627 0.0
C18 C 0.32785 0.33388 0.64038 0.0
C19 C 0.2722 0.21423 0.5745 0.0
O20 O 0.24391 0.18519 0.56424 0.0
O21 O 0.27583 0.30562 0.52532 0.0
O22 O 0.29733 0.36253 0.53612 0.0
O23 O 0.37619 0.30937 0.55188 0.0
O24 O 0.36127 0.34798 0.53221 0.0
C25 C 0.27247 0.33245 0.52582 0.0
C26 C 0.38498 0.34133 0.5436 0.0
O27 O 0.28188 0.24004 0.54852 0.0
Mg28 Mg 0.99332 0.33175 0.90019 0.0
O29 O 0.97928 0.33029 0.9735 0.0
O30 O 0.9338 0.33779 0.98091 0.0
Mg31 Mg 0.91667 0.34055 0.90956 0.0
C32 C 0.9576 0.33342 0.9978 0.0
C33 C 0.06051 0.32828 0.90833 0.0
O34 O 0.07002 0.35324 0.87875 0.0
O35 O 0.94924 0.27663 0.89017 0.0
O36 O 0.90341 0.28394 0.89589 0.0
O37 O 0.02519 0.38898 0.90565 0.0
O38 O 0.97019 0.36151 0.88499 0.0
C39 C 0.91664 0.26452 0.88973 0.0
C40 C -0.00236 0.39019 0.89547 0.0
O41 O 0.02946 0.31264 0.92194 0.0
Mg42 Mg 0.66126 -0.00197 0.2622 0.0
O43 O 0.64898 0.98424 0.33567 0.0
O44 O 0.59663 0.9377 0.34344 0.0
Mg45 Mg 0.57663 0.91957 0.27253 0.0
C46 C 0.62449 0.96217 0.36012 0.0
C47 C 0.72941 0.0676 0.27254 0.0
O48 O 0.712 0.07692 0.24611 0.0
O49 O 0.67351 0.9547 0.25278 0.0
O50 O 0.6207 0.90811 0.25922 0.0
O51 O 0.63384 0.02816 0.26621 0.0
O52 O 0.60884 0.97276 0.24675 0.0
C53 C 0.65326 0.92187 0.25293 0.0
C54 C 0.60605 -0.00047 0.25586 0.0
O55 O 0.7161 0.0359 0.28352 0.0
Mg56 Mg 0.62849 0.64422 0.55358 0.0
O57 O 0.63524 0.6519 0.62979 0.0
O58 O 0.64292 0.60896 0.65545 0.0
Mg59 Mg 0.64545 0.57726 0.59756 0.0
C60 C 0.6396 0.63552 0.6618 0.0
C61 C 0.63226 0.72528 0.54399 0.0
O62 O 0.6276 0.73576 0.50497 0.0
O63 O 0.68674 0.66836 0.544 0.0
O64 O 0.69367 0.6251 0.57011 0.0
O65 O 0.57213 0.60581 0.56246 0.0
O66 O 0.61278 0.59155 0.55935 0.0
C67 C 0.70581 0.6552 0.55262 0.0
C68 C 0.58071 0.58201 0.56475 0.0
O69 O 0.63088 0.69617 0.54714 0.0
Mg70 Mg 0.00614 0.67746 0.90415 0.0
O71 O 0.01636 0.67763 0.97847 0.0
O72 O 0.06064 0.66902 0.9911 0.0
Mg73 Mg 0.08106 0.66661 0.92163 0.0
C74 C 0.03637 0.67379 0.00519 0.0
C75 C 0.93807 0.67901 0.91058 0.0
O76 O 0.92901 0.65261 0.88348 0.0
O77 O 0.05147 0.7325 0.89699 0.0
O78 O 0.09597 0.72353 0.90721 0.0
O79 O 0.97346 0.62003 0.90749 0.0
O80 O 0.02934 0.64732 0.89158 0.0
C81 C 0.08391 0.74374 0.8992 0.0
C82 C 0.00119 0.6186 0.8995 0.0
O83 O 0.96942 0.69671 0.92272 0.0
Mg84 Mg 0.98112 0.6696 0.43381 0.0
O85 O 0.98206 0.66278 0.35828 0.0
O86 O 0.93733 0.61163 0.33845 0.0
Mg87 Mg 0.90741 0.58553 0.40226 0.0
C88 C 0.96448 0.64019 0.32863 0.0
C89 C 0.05171 0.73766 0.43439 0.0
O90 O 0.05963 0.71721 0.45686 0.0
O91 O 0.93683 0.68061 0.42772 0.0
O92 O 0.89266 0.62787 0.41211 0.0
O93 O 0.01231 0.6437 0.44324 0.0
O94 O 0.9551 0.61574 0.44155 0.0
C95 C 0.90474 0.66013 0.42036 0.0
C96 C 0.98334 0.61461 0.44299 0.0
O97 O 0.02048 0.72632 0.4231 0.0
Mg98 Mg 0.35571 0.02918 0.78424 0.0
O99 O 0.35516 0.01702 0.71037 0.0
O100 O 0.3573 0.96856 0.69986 0.0
Mg101 Mg 0.35553 0.94705 0.76995 0.0
C102 C 0.35632 0.99485 0.68462 0.0
C103 C 0.35886 0.10283 0.77391 0.0
O104 O 0.38226 0.11365 0.80563 0.0
O105 O 0.29811 0.98797 0.79063 0.0
O106 O 0.30164 0.93987 0.78076 0.0
O107 O 0.4137 0.05417 0.78355 0.0
O108 O 0.37803 -0.00092 0.79997 0.0
C109 C 0.28407 0.95493 0.78766 0.0
C110 C 0.40908 0.02378 0.79351 0.0
O111 O 0.34388 0.07118 0.76173 0.0
Mg112 Mg 0.32662 0.33148 0.07423 0.0
O113 O 0.33226 0.32537 0.99943 0.0
O114 O 0.38293 0.32865 0.98615 0.0
Mg115 Mg 0.4102 0.33728 0.05348 0.0
C116 C 0.35415 0.32486 0.97259 0.0
C117 C 0.25769 0.33201 0.0715 0.0
O118 O 0.27725 0.36094 0.09344 0.0
O119 O 0.31603 0.27676 0.08757 0.0
O120 O 0.36841 0.28299 0.07682 0.0
O121 O 0.35258 0.389 0.06674 0.0
O122 O 0.38014 0.36015 0.08041 0.0
C123 C 0.33651 0.26455 0.0874 0.0
C124 C 0.38143 0.38914 0.07184 0.0
O125 O 0.26999 0.31264 0.06131 0.0
Mg126 Mg 0.99184 0.33721 0.43116 0.0
O127 O 0.99394 0.34476 0.35546 0.0
O128 O 0.0372 0.39755 0.33822 0.0
Mg129 Mg 0.06326 0.4239 0.40388 0.0
C130 C 0.01179 0.36816 0.32679 0.0
C131 C 0.92503 0.26517 0.43322 0.0
O132 O 0.91573 0.28263 0.45968 0.0
O133 O 0.0388 0.33036 0.42931 0.0
O134 O 0.08151 0.38428 0.4148 0.0
O135 O 0.95726 0.35958 0.43727 0.0
O136 O 0.01446 0.3906 0.43978 0.0
C137 C 0.07072 0.35228 0.42322 0.0
C138 C 0.98515 0.38964 0.4389 0.0
O139 O 0.95579 0.27992 0.41858 0.0
Mg140 Mg 0.65583 0.96555 0.79106 0.0
O141 O 0.6529 0.97761 0.7178 0.0
O142 O 0.64608 0.0237 0.71051 0.0
Mg143 Mg 0.64969 0.04463 0.78124 0.0
C144 C 0.64861 -0.00127 0.69362 0.0
C145 C 0.65252 0.89373 0.77743 0.0
O146 O 0.62875 0.88428 0.8085 0.0
O147 O 0.71261 0.00907 0.79481 0.0
O148 O 0.7051 0.05503 0.7871 0.0
O149 O 0.5978 0.93731 0.79256 0.0
O150 O 0.63101 0.99274 0.80985 0.0
C151 C 0.72458 0.04183 0.79176 0.0
C152 C 0.6006 0.96683 0.80325 0.0
O153 O 0.66954 0.9255 0.766 0.0
Mg154 Mg 0.66782 0.6627 0.08684 0.0
O155 O 0.65784 0.66976 0.01371 0.0
O156 O 0.60581 0.66486 0.00678 0.0
Mg157 Mg 0.58204 0.65419 0.07648 0.0
C158 C 0.63419 0.66992 0.98994 0.0
C159 C 0.73843 0.6658 0.07873 0.0
O160 O 0.72116 0.63748 0.10274 0.0
O161 O 0.67756 0.71669 0.10367 0.0
O162 O 0.62408 0.7087 0.09817 0.0
O163 O 0.64296 0.6055 0.07653 0.0
O164 O 0.6148 0.63256 0.09679 0.0
C165 C 0.65633 0.72792 0.10634 0.0
C166 C 0.61399 0.60436 0.08486 0.0
O167 O 0.72408 0.68338 0.06875 0.0
C168 C 0.29635 0.08293 0.19673 0.0
C169 C 0.32417 0.09392 0.22644 0.0
C170 C 0.29046 0.10721 0.17419 0.0
C171 C 0.31265 0.14308 0.18221 0.0
C172 C 0.3386 0.15397 0.21538 0.0
C173 C 0.34424 0.12926 0.23681 0.0
C174 C 0.26249 0.09457 0.13916 0.0
C175 C 0.36229 0.19196 0.22576 0.0
C176 C 0.34138 0.21133 0.09239 0.0
C177 C 0.32448 0.22934 0.10507 0.0
C178 C 0.33547 0.18134 0.11513 0.0
C179 C 0.31255 0.16948 0.15195 0.0
C180 C 0.29345 0.18603 0.16279 0.0
C181 C 0.29948 0.21574 0.13892 0.0
C182 C 0.35575 0.16392 0.10177 0.0
C183 C 0.26881 0.17418 0.20179 0.0
H184 H 0.28077 0.0556 0.18856 0.0
H185 H 0.36547 0.13777 0.26023 0.0
H186 H 0.24853 0.10933 0.14057 0.0
H187 H 0.27444 0.09876 0.10563 0.0
H188 H 0.24353 0.06645 0.14295 0.0
H189 H 0.37797 0.1958 0.25623 0.0
H190 H 0.38017 0.20463 0.19734 0.0
H191 H 0.34714 0.20532 0.2304 0.0
H192 H 0.36039 0.22155 0.06584 0.0
H193 H 0.28639 0.22965 0.1489 0.0
H194 H 0.33847 0.13539 0.09943 0.0
H195 H 0.37551 0.1689 0.1276 0.0
H196 H 0.3691 0.17363 0.06928 0.0
H197 H 0.25294 0.14544 0.20284 0.0
H198 H 0.25132 0.1852 0.20056 0.0
H199 H 0.28385 0.18277 0.23328 0.0
C200 C 0.21892 0.30473 0.47926 0.0
C201 C 0.23938 0.32925 0.5116 0.0
C202 C 0.1893 0.30397 0.46207 0.0
C203 C 0.17961 0.32774 0.47848 0.0
C204 C 0.19934 0.35144 0.51262 0.0
C205 C 0.22925 0.35221 0.52834 0.0
C206 C 0.16928 0.27883 0.42509 0.0
C207 C 0.18937 0.37664 0.53177 0.0
C208 C 0.12941 0.35993 0.41164 0.0
C209 C 0.09662 0.34151 0.43127 0.0
C210 C 0.1561 0.35385 0.42453 0.0
C211 C 0.15002 0.32941 0.45864 0.0
C212 C 0.11646 0.3094 0.47685 0.0
C213 C 0.09001 0.31544 0.46255 0.0
C214 C 0.19131 0.37502 0.40343 0.0
C215 C 0.1091 0.28347 0.51372 0.0
H216 H 0.22688 0.28713 0.46602 0.0
H217 H 0.2449 0.37097 0.55363 0.0
H218 H 0.1414 0.26376 0.43352 0.0
H219 H 0.17169 0.29349 0.39406 0.0
H220 H 0.1787 0.2604 0.41832 0.0
H221 H 0.20586 0.39141 0.56054 0.0
H222 H 0.19174 0.39543 0.5057 0.0
H223 H 0.16199 0.36255 0.54281 0.0
H224 H 0.13448 0.37985 0.38712 0.0
H225 H 0.06472 0.30127 0.47799 0.0
H226 H 0.20177 0.35802 0.39355 0.0
H227 H 0.2095 0.39406 0.42799 0.0
H228 H 0.1906 0.38946 0.37357 0.0
H229 H 0.1196 0.26625 0.50529 0.0
H230 H 0.08098 0.26716 0.5205 0.0
H231 H 0.12211 0.29754 0.54476 0.0
C232 C 0.7777 0.06463 0.83816 0.0
C233 C 0.76153 0.06649 0.79907 0.0
C234 C 0.80803 0.09389 0.85359 0.0
C235 C 0.82237 0.12526 0.82891 0.0
C236 C 0.80828 0.12571 0.78677 0.0
C237 C 0.77778 0.09638 0.77259 0.0
C238 C 0.8224 0.09223 0.89847 0.0
C239 C 0.82314 0.1583 0.75883 0.0
C240 C 0.85774 0.21199 0.88706 0.0
C241 C 0.89332 0.2273 0.87914 0.0
C242 C 0.83469 0.17802 0.87303 0.0
C243 C 0.84743 0.15886 0.85009 0.0
C244 C 0.88346 0.17345 0.84387 0.0
C245 C 0.90604 0.20751 0.85862 0.0
C246 C 0.79645 0.16327 0.88094 0.0
C247 C 0.89804 0.15389 0.81958 0.0
H248 H 0.76491 0.04157 0.85883 0.0
H249 H 0.7652 0.09769 0.74229 0.0
H250 H 0.85107 0.10683 0.89819 0.0
H251 H 0.81373 0.10438 0.92388 0.0
H252 H 0.81335 0.065 0.90878 0.0
H253 H 0.81281 0.15286 0.72425 0.0
H254 H 0.8165 0.17691 0.77424 0.0
H255 H 0.85173 0.17107 0.7574 0.0
H256 H 0.84771 0.22687 0.9034 0.0
H257 H 0.93353 0.2191 0.8524 0.0
H258 H 0.78513 0.13731 0.89681 0.0
H259 H 0.78309 0.15992 0.84856 0.0
H260 H 0.79104 0.18032 0.90252 0.0
H261 H 0.88572 0.12662 0.83136 0.0
H262 H 0.92648 0.16626 0.82393 0.0
H263 H 0.89241 0.15319 0.78344 0.0
C264 C 0.65036 0.78038 0.11117 0.0
C265 C 0.66825 0.76325 0.12329 0.0
C266 C 0.65641 0.81066 0.13313 0.0
C267 C 0.68058 0.82378 0.1686 0.0
C268 C 0.70068 0.80815 0.1787 0.0
C269 C 0.69439 0.77802 0.15564 0.0
C270 C 0.63494 0.82699 0.12059 0.0
C271 C 0.72677 0.82145 0.21612 0.0
C272 C 0.69399 0.91007 0.20946 0.0
C273 C 0.66661 0.89876 0.23992 0.0
C274 C 0.70114 0.88616 0.18836 0.0
C275 C 0.68064 0.8504 0.1985 0.0
C276 C 0.65554 0.83951 0.23277 0.0
C277 C 0.64866 0.86383 0.25284 0.0
C278 C 0.72833 0.89881 0.15233 0.0
C279 C 0.63366 0.8017 0.24538 0.0
H280 H 0.63051 0.76924 0.08568 0.0
H281 H 0.70827 0.76479 0.16509 0.0
H282 H 0.61613 0.82238 0.14759 0.0
H283 H 0.65162 0.85549 0.11668 0.0
H284 H 0.62036 0.81614 0.0891 0.0
H285 H 0.74515 0.81157 0.21344 0.0
H286 H 0.74159 0.85025 0.21657 0.0
H287 H 0.71301 0.81266 0.24846 0.0
H288 H 0.70803 0.93713 0.19947 0.0
H289 H 0.62787 0.85513 0.27696 0.0
H290 H 0.71557 0.89365 0.11923 0.0
H291 H 0.74308 0.88483 0.15361 0.0
H292 H 0.7467 0.92716 0.15511 0.0
H293 H 0.61492 0.78755 0.21823 0.0
H294 H 0.61895 0.7982 0.27668 0.0
H295 H 0.64999 0.7896 0.24968 0.0
C296 C 0.84478 0.65057 0.41863 0.0
C297 C 0.87991 0.67253 0.42815 0.0
C298 C 0.81963 0.65739 0.4358 0.0
C299 C 0.82988 0.68704 0.46295 0.0
C300 C 0.86544 0.71142 0.46827 0.0
C301 C 0.89015 0.70383 0.45089 0.0
C302 C 0.78196 0.63094 0.42856 0.0
C303 C 0.87746 0.74393 0.49565 0.0
C304 C 0.75198 0.69351 0.49842 0.0
C305 C 0.74193 0.6724 0.53657 0.0
C306 C 0.78276 0.70171 0.47589 0.0
C307 C 0.80359 0.68833 0.49199 0.0
C308 C 0.79542 0.67042 0.53323 0.0
C309 C 0.76473 0.66274 0.55502 0.0
C310 C 0.79118 0.72191 0.43286 0.0
C311 C 0.8172 0.65618 0.55216 0.0
H312 H 0.83664 0.62673 0.40021 0.0
H313 H 0.91729 0.7213 0.45786 0.0
H314 H 0.77061 0.61692 0.46025 0.0
H315 H 0.7673 0.64391 0.41848 0.0
H316 H 0.77835 0.61154 0.40264 0.0
H317 H 0.90432 0.76402 0.48688 0.0
H318 H 0.86019 0.75494 0.49101 0.0
H319 H 0.87699 0.73754 0.53151 0.0
H320 H 0.7346 0.70134 0.48416 0.0
H321 H 0.75741 0.64704 0.58504 0.0
H322 H 0.78147 0.70352 0.40439 0.0
H323 H 0.8195 0.73887 0.42865 0.0
H324 H 0.77871 0.73815 0.43134 0.0
H325 H 0.81456 0.63459 0.5308 0.0
H326 H 0.80938 0.64616 0.58665 0.0
H327 H 0.8449 0.6765 0.55248 0.0
C328 C 0.23218 0.93807 0.83527 0.0
C329 C 0.24703 0.93216 0.79754 0.0
C330 C 0.201 0.91131 0.85302 0.0
C331 C 0.18449 0.87826 0.83217 0.0
C332 C 0.19751 0.87366 0.79125 0.0
C333 C 0.22876 0.9006 0.77464 0.0
C334 C 0.18774 0.91742 0.89634 0.0
C335 C 0.18041 0.83915 0.76732 0.0
C336 C 0.14382 0.79473 0.89834 0.0
C337 C 0.10863 0.78065 0.88849 0.0
C338 C 0.16849 0.82764 0.88271 0.0
C339 C 0.1578 0.84702 0.85629 0.0
C340 C 0.12213 0.83405 0.84874 0.0
C341 C 0.0979 0.80098 0.86503 0.0
C342 C 0.20625 0.84067 0.89216 0.0
C343 C 0.10966 0.85398 0.82108 0.0
H344 H 0.24638 0.96243 0.85315 0.0
H345 H 0.24016 0.89615 0.74524 0.0
H346 H 0.1591 0.90444 0.89624 0.0
H347 H 0.19541 0.90622 0.92416 0.0
H348 H 0.19854 0.94557 0.90297 0.0
H349 H 0.1908 0.84128 0.73308 0.0
H350 H 0.18488 0.82032 0.78636 0.0
H351 H 0.15208 0.82843 0.76514 0.0
H352 H 0.15233 0.77947 0.91704 0.0
H353 H 0.07073 0.7904 0.85739 0.0
H354 H 0.21893 0.86763 0.90512 0.0
H355 H 0.21957 0.84104 0.86075 0.0
H356 H 0.21 0.82412 0.91672 0.0
H357 H 0.12404 0.88202 0.82957 0.0
H358 H 0.08156 0.84401 0.82572 0.0
H359 H 0.11435 0.85152 0.78529 0.0
C360 C 0.43468 0.00848 0.22317 0.0
C361 C 0.4075 0.98571 0.25089 0.0
C362 C 0.46682 0.0102 0.22481 0.0
C363 C 0.47212 0.9893 0.2558 0.0
C364 C 0.44485 0.9665 0.28427 0.0
C365 C 0.41259 0.96462 0.28104 0.0
C366 C 0.495 0.03418 0.19312 0.0
C367 C 0.44988 0.94444 0.31842 0.0
C368 C 0.54465 0.97089 0.23174 0.0
C369 C 0.57176 0.99667 0.25696 0.0
C370 C 0.51197 0.96804 0.23133 0.0
C371 C 0.50611 0.99099 0.25766 0.0
C372 C 0.53316 0.01651 0.28414 0.0
C373 C 0.56589 0.01937 0.28299 0.0
C374 C 0.48401 0.94106 0.20184 0.0
C375 C 0.52756 0.0409 0.31341 0.0
H376 H 0.43064 0.02469 0.1997 0.0
H377 H 0.39164 0.94729 0.30282 0.0
H378 H 0.51774 0.05371 0.21218 0.0
H379 H 0.50369 0.01912 0.17274 0.0
H380 H 0.48636 0.04806 0.17032 0.0
H381 H 0.42638 0.92887 0.33895 0.0
H382 H 0.45672 0.92649 0.30155 0.0
H383 H 0.47168 0.96123 0.34087 0.0
H384 H 0.54923 0.95341 0.21143 0.0
H385 H 0.58678 0.03908 0.30286 0.0
H386 H 0.47578 0.954 0.17699 0.0
H387 H 0.46096 0.92364 0.22204 0.0
H388 H 0.49271 0.92497 0.18376 0.0
H389 H 0.52154 0.05777 0.29246 0.0
H390 H 0.55057 0.0577 0.33417 0.0
H391 H 0.50509 0.02586 0.33572 0.0
C392 C 0.56442 0.51949 0.56875 0.0
C393 C 0.55474 0.54498 0.57204 0.0
C394 C 0.53962 0.48402 0.56978 0.0
C395 C 0.50426 0.47379 0.57409 0.0
C396 C 0.49452 0.49936 0.58017 0.0
C397 C 0.51989 0.53468 0.57898 0.0
C398 C 0.55109 0.45762 0.56329 0.0
C399 C 0.45706 0.48948 0.58525 0.0
C400 C 0.43578 0.39369 0.51497 0.0
C401 C 0.42001 0.37063 0.5504 0.0
C402 C 0.46448 0.42665 0.52205 0.0
C403 C 0.47724 0.43704 0.56592 0.0
C404 C 0.46243 0.41312 0.60163 0.0
C405 C 0.43385 0.37996 0.59338 0.0
C406 C 0.47969 0.45113 0.48291 0.0
C407 C 0.47517 0.42332 0.64885 0.0
H408 H 0.59127 0.52712 0.56334 0.0
H409 H 0.51223 0.55421 0.58189 0.0
H410 H 0.53818 0.43612 0.58768 0.0
H411 H 0.54353 0.44616 0.52945 0.0
H412 H 0.57953 0.46935 0.56679 0.0
H413 H 0.45412 0.51199 0.5949 0.0
H414 H 0.44332 0.47895 0.5532 0.0
H415 H 0.44422 0.4688 0.61074 0.0
H416 H 0.42451 0.3865 0.48191 0.0
H417 H 0.42089 0.36235 0.62091 0.0
H418 H 0.50814 0.46239 0.48188 0.0
H419 H 0.47453 0.47296 0.48667 0.0
H420 H 0.46868 0.43803 0.45058 0.0
H421 H 0.5038 0.43661 0.65013 0.0
H422 H 0.46437 0.40052 0.67154 0.0
H423 H 0.46738 0.44188 0.66141 0.0
C424 C 0.97671 0.55788 0.92761 0.0
C425 C 0.00095 0.58529 0.90124 0.0
C426 C 0.97595 0.52593 0.92896 0.0
C427 C -0.00073 0.52101 0.90219 0.0
C428 C 0.0237 0.54862 0.87534 0.0
C429 C 0.0246 0.58063 0.87576 0.0
C430 C 0.95027 0.49748 0.95907 0.0
C431 C 0.04842 0.54414 0.84549 0.0
C432 C 0.0195 0.44931 0.92766 0.0
C433 C -0.00283 0.42309 0.89834 0.0
C434 C 0.01973 0.48095 0.93022 0.0
C435 C -0.00211 0.48686 0.90173 0.0
C436 C 0.97531 0.46042 0.87201 0.0
C437 C 0.97483 0.4286 0.87121 0.0
C438 C 0.04338 0.50807 0.96331 0.0
C439 C 0.95226 0.46605 0.84032 0.0
H440 H 0.9586 0.56158 0.94766 0.0
H441 H 0.04322 0.60177 0.85514 0.0
H442 H 0.93201 0.47476 0.93885 0.0
H443 H 0.96395 0.48862 0.98178 0.0
H444 H 0.93517 0.50608 0.97949 0.0
H445 H 0.06536 0.56797 0.82602 0.0
H446 H 0.06497 0.53732 0.86572 0.0
H447 H 0.03369 0.5224 0.82189 0.0
H448 H 0.03654 0.44491 0.94902 0.0
H449 H 0.95767 0.40838 0.84837 0.0
H450 H 0.02832 0.51604 0.98478 0.0
H451 H 0.06289 0.53158 0.94538 0.0
H452 H 0.05713 0.49858 0.98495 0.0
H453 H 0.93466 0.47218 0.85926 0.0
H454 H 0.93643 0.44297 0.81905 0.0
H455 H 0.96826 0.48861 0.81841 0.0
C456 C 0.00556 0.57631 0.46869 0.0
C457 C 0.98292 0.58136 0.44162 0.0
C458 C 0.0051 0.54454 0.46847 0.0
C459 C 0.98221 0.51775 0.43939 0.0
C460 C 0.95979 0.52307 0.41131 0.0
C461 C 0.96013 0.55475 0.41318 0.0
C462 C 0.02887 0.53954 0.49955 0.0
C463 C 0.93582 0.49551 0.37888 0.0
C464 C 0.00628 0.44951 0.41066 0.0
C465 C 0.98347 0.42178 0.43764 0.0
C466 C 0.00557 0.48067 0.41007 0.0
C467 C 0.98206 0.48431 0.43805 0.0
C468 C 0.95881 0.45621 0.46521 0.0
C469 C 0.95944 0.42499 0.46413 0.0
C470 C 0.03 0.50968 0.37961 0.0
C471 C 0.93387 0.45941 0.49614 0.0
H472 H 0.02312 0.597 0.49071 0.0
H473 H 0.94323 0.55901 0.39149 0.0
H474 H 0.01358 0.51649 0.52104 0.0
H475 H 0.04704 0.53456 0.48002 0.0
H476 H 0.04414 0.5625 0.52125 0.0
H477 H 0.9205 0.50404 0.35878 0.0
H478 H 0.95099 0.4887 0.35588 0.0
H479 H 0.91771 0.47151 0.39715 0.0
H480 H 0.02429 0.44666 0.3894 0.0
H481 H 0.94188 0.40341 0.48504 0.0
H482 H 0.04808 0.53261 0.39966 0.0
H483 H 0.01527 0.51786 0.35779 0.0
H484 H 0.04537 0.50197 0.35826 0.0
H485 H 0.94841 0.48093 0.52009 0.0
H486 H 0.91763 0.43516 0.51523 0.0
H487 H 0.91665 0.46588 0.47684 0.0
C488 C 0.54355 0.95495 0.77264 0.0
C489 C 0.57092 0.97268 0.80262 0.0
C490 C 0.51723 0.96342 0.76909 0.0
C491 C 0.51802 0.98954 0.79703 0.0
C492 C 0.54523 0.00683 0.82811 0.0
C493 C 0.57156 -0.00151 0.83008 0.0
C494 C 0.48895 0.94494 0.73498 0.0
C495 C 0.54652 0.03411 0.85936 0.0
C496 C 0.46744 0.03507 0.76871 0.0
C497 C 0.43761 0.0161 0.79447 0.0
C498 C 0.49352 0.02612 0.76819 0.0
C499 C 0.48992 -0.0018 0.79498 0.0
C500 C 0.46001 0.97935 0.82147 0.0
C501 C 0.43407 0.98828 0.82045 0.0
C502 C 0.5248 0.04635 0.73887 0.0
C503 C 0.4556 0.95006 0.85141 0.0
H504 H 0.54337 0.93536 0.75092 0.0
H505 H 0.59277 0.01218 0.85331 0.0
H506 H 0.46344 0.931 0.75179 0.0
H507 H 0.48824 0.96415 0.71201 0.0
H508 H 0.49256 0.92595 0.715 0.0
H509 H 0.56908 0.04451 0.88227 0.0
H510 H 0.54791 0.056 0.83994 0.0
H511 H 0.52255 0.02297 0.87963 0.0
H512 H 0.47001 0.05634 0.74823 0.0
H513 H 0.41106 0.97366 0.84058 0.0
H514 H 0.52799 0.02838 0.71627 0.0
H515 H 0.54845 0.05962 0.7597 0.0
H516 H 0.52289 0.06616 0.71841 0.0
H517 H 0.45656 0.92959 0.8314 0.0
H518 H 0.43079 0.9381 0.87004 0.0
H519 H 0.47715 0.95986 0.8758 0.0
C520 C 0.44138 0.42248 0.04228 0.0
C521 C 0.41477 0.4214 0.06807 0.0
C522 C 0.47404 0.45257 0.04084 0.0
C523 C 0.48039 0.48158 0.06727 0.0
C524 C 0.45334 0.48059 0.09307 0.0
C525 C 0.42058 0.45064 0.09244 0.0
C526 C 0.50182 0.45317 0.01156 0.0
C527 C 0.45936 0.51058 0.12269 0.0
C528 C 0.57262 0.54308 0.10401 0.0
C529 C 0.5809 0.57238 0.07818 0.0
C530 C 0.53992 0.51321 0.10068 0.0
C531 C 0.51564 0.51242 0.06956 0.0
C532 C 0.52463 0.54162 0.04204 0.0
C533 C 0.55702 0.57161 0.04736 0.0
C534 C 0.53095 0.483 0.13153 0.0
C535 C 0.49995 0.5413 0.00735 0.0
H536 H 0.43655 0.39987 0.023 0.0
H537 H 0.39987 0.4495 0.11261 0.0
H538 H 0.51329 0.47663 0.99004 0.0
H539 H 0.52293 0.45455 0.03255 0.0
H540 H 0.49175 0.42978 0.98999 0.0
H541 H 0.43556 0.50563 0.14065 0.0
H542 H 0.47967 0.51548 0.14764 0.0
H543 H 0.46877 0.5346 0.10264 0.0
H544 H 0.59127 0.54406 0.128 0.0
H545 H 0.56381 0.59438 0.02721 0.0
H546 H 0.52365 0.45917 0.11191 0.0
H547 H 0.50828 0.47781 0.15227 0.0
H548 H 0.55272 0.48787 0.15398 0.0
H549 H 0.49057 0.51802 0.98576 0.0
H550 H 0.51211 0.56487 0.98598 0.0
H551 H 0.47703 0.53976 0.02389 0.0
C552 C 0.07109 0.78967 0.38536 0.0
C553 C 0.07932 0.77059 0.4153 0.0
C554 C 0.09705 0.81782 0.36163 0.0
C555 C 0.13199 0.82703 0.36806 0.0
C556 C 0.14057 0.8091 0.4 0.0
C557 C 0.11411 0.78111 0.4233 0.0
C558 C 0.08696 0.83652 0.32808 0.0
C559 C 0.17761 0.81835 0.40795 0.0
C560 C 0.1972 0.86804 0.27473 0.0
C561 C 0.21669 0.90249 0.28937 0.0
C562 C 0.16864 0.84349 0.29919 0.0
C563 C 0.15947 0.85368 0.33929 0.0
C564 C 0.17804 0.88875 0.35319 0.0
C565 C 0.20643 0.91279 0.328 0.0
C566 C 0.14918 0.80631 0.2831 0.0
C567 C 0.16887 0.90057 0.39564 0.0
H568 H 0.04425 0.78179 0.37908 0.0
H569 H 0.1207 0.76664 0.44654 0.0
H570 H 0.10291 0.86505 0.33259 0.0
H571 H 0.09184 0.83048 0.29387 0.0
H572 H 0.05924 0.82887 0.33074 0.0
H573 H 0.18012 0.80353 0.43614 0.0
H574 H 0.18807 0.81281 0.37744 0.0
H575 H 0.19387 0.84651 0.41507 0.0
H576 H 0.20483 0.85995 0.24477 0.0
H577 H 0.2213 0.93941 0.33951 0.0
H578 H 0.1211 0.79709 0.28114 0.0
H579 H 0.15261 0.78935 0.30725 0.0
H580 H 0.15816 0.80312 0.24983 0.0
H581 H 0.14087 0.89185 0.39632 0.0
H582 H 0.18374 0.92926 0.39956 0.0
H583 H 0.17434 0.88866 0.42477 0.0
C584 C 0.32727 0.22773 0.6126 0.0
C585 C 0.29159 0.21486 0.61459 0.0
C586 C 0.34358 0.21767 0.64471 0.0
C587 C 0.32355 0.19437 0.6791 0.0
C588 C 0.28862 0.18546 0.68443 0.0
C589 C 0.27297 0.19557 0.65183 0.0
C590 C 0.38127 0.22891 0.63912 0.0
C591 C 0.26674 0.16205 0.7218 0.0
C592 C 0.33629 0.11858 0.70732 0.0
C593 C 0.3516 0.12754 0.74963 0.0
C594 C 0.32868 0.141 0.68345 0.0
C595 C 0.33608 0.17317 0.70251 0.0
C596 C 0.35239 0.18289 0.74478 0.0
C597 C 0.3601 0.15996 0.7678 0.0
C598 C 0.31179 0.12967 0.63816 0.0
C599 C 0.3604 0.21656 0.76696 0.0
H600 H 0.34169 0.24269 0.58382 0.0
H601 H 0.24542 0.18614 0.65374 0.0
H602 H 0.3946 0.23551 0.67191 0.0
H603 H 0.3836 0.20717 0.62471 0.0
H604 H 0.39459 0.2517 0.61657 0.0
H605 H 0.2422 0.16244 0.72573 0.0
H606 H 0.26033 0.13498 0.71467 0.0
H607 H 0.28113 0.16998 0.7538 0.0
H608 H 0.3302 0.09387 0.69265 0.0
H609 H 0.37203 0.16711 0.80048 0.0
H610 H 0.32675 0.14994 0.61289 0.0
H611 H 0.28538 0.12614 0.63928 0.0
H612 H 0.30975 0.10488 0.62697 0.0
H613 H 0.38439 0.22695 0.78721 0.0
H614 H 0.33895 0.21149 0.78999 0.0
H615 H 0.36334 0.23669 0.74266 0.0
C616 C 0.20649 0.2978 0.02205 0.0
C617 C 0.22422 0.32504 0.05255 0.0
C618 C 0.17744 0.29395 0.99898 0.0
C619 C 0.16586 0.31786 0.00673 0.0
C620 C 0.18251 0.34426 0.03917 0.0
C621 C 0.21152 0.34754 0.0617 0.0
C622 C 0.16023 0.26538 0.96478 0.0
C623 C 0.17071 0.37009 0.04861 0.0
C624 C 0.12092 0.33941 0.91548 0.0
C625 C 0.08656 0.32201 0.93027 0.0
C626 C 0.14678 0.33713 0.9392 0.0
C627 C 0.13804 0.31706 0.97873 0.0
C628 C 0.10317 0.29819 0.99278 0.0
C629 C 0.0778 0.30083 0.9683 0.0
C630 C 0.18368 0.35739 0.92294 0.0
C631 C 0.09289 0.27646 0.03469 0.0
H632 H 0.21607 0.28022 0.01485 0.0
H633 H 0.22492 0.36851 0.0854 0.0
H634 H 0.13182 0.25086 0.96981 0.0
H635 H 0.16512 0.2769 0.93089 0.0
H636 H 0.16997 0.24678 0.96614 0.0
H637 H 0.1848 0.38741 0.0771 0.0
H638 H 0.17491 0.38639 0.01865 0.0
H639 H 0.14262 0.35634 0.05604 0.0
H640 H 0.12785 0.35564 0.88598 0.0
H641 H 0.05128 0.28725 0.97997 0.0
H642 H 0.19482 0.34007 0.91998 0.0
H643 H 0.19961 0.37791 0.9475 0.0
H644 H 0.18582 0.36989 0.8901 0.0
H645 H 0.10355 0.25865 0.03444 0.0
H646 H 0.06438 0.26085 0.03875 0.0
H647 H 0.10388 0.29364 0.06418 0.0
C648 C 0.90742 0.2162 0.37939 0.0
C649 C 0.89874 0.2314 0.41439 0.0
C650 C 0.88184 0.18718 0.35651 0.0
C651 C 0.84682 0.17302 0.36907 0.0
C652 C 0.83812 0.18697 0.40601 0.0
C653 C 0.86421 0.21604 0.42823 0.0
C654 C 0.89211 0.1729 0.31741 0.0
C655 C 0.80104 0.17234 0.42062 0.0
C656 C 0.77603 0.12925 0.28264 0.0
C657 C 0.7618 0.09412 0.2939 0.0
C658 C 0.80446 0.1551 0.30598 0.0
C659 C 0.81896 0.14557 0.34148 0.0
C660 C 0.80563 0.1101 0.35188 0.0
C661 C 0.77719 0.08475 0.32791 0.0
C662 C 0.81819 0.19272 0.29369 0.0
C663 C 0.82055 0.09899 0.38938 0.0
H664 H 0.93407 0.22783 0.36854 0.0
H665 H 0.85732 0.22748 0.45543 0.0
H666 H 0.87971 0.14423 0.31978 0.0
H667 H 0.88301 0.17891 0.286 0.0
H668 H 0.92056 0.18412 0.31523 0.0
H669 H 0.79891 0.18426 0.45215 0.0
H670 H 0.7864 0.17704 0.39426 0.0
H671 H 0.7885 0.14384 0.4254 0.0
H672 H 0.7644 0.13668 0.25627 0.0
H673 H 0.76638 0.05764 0.33681 0.0
H674 H 0.84637 0.20567 0.2871 0.0
H675 H 0.81436 0.20654 0.32198 0.0
H676 H 0.80518 0.19566 0.26378 0.0
H677 H 0.84898 0.11119 0.38558 0.0
H678 H 0.80914 0.07034 0.39078 0.0
H679 H 0.81567 0.10791 0.42169 0.0
C680 C 0.61214 0.75761 0.59082 0.0
C681 C 0.6351 0.74527 0.58433 0.0
C682 C 0.6156 0.77854 0.6276 0.0
C683 C 0.64354 0.78843 0.65752 0.0
C684 C 0.66617 0.77502 0.65181 0.0
C685 C 0.66126 0.75297 0.61558 0.0
C686 C 0.59015 0.79121 0.63343 0.0
C687 C 0.6967 0.78558 0.68226 0.0
C688 C 0.67248 0.87632 0.70944 0.0
C689 C 0.65504 0.86712 0.75045 0.0
C690 C 0.67038 0.85091 0.67989 0.0
C691 C 0.6507 0.8154 0.69178 0.0
C692 C 0.6351 0.80604 0.73444 0.0
C693 C 0.6372 0.83202 0.76315 0.0
C694 C 0.68743 0.862 0.63472 0.0
C695 C 0.61426 0.76855 0.74884 0.0
H696 H 0.59151 0.75097 0.56694 0.0
H697 H 0.6789 0.74318 0.61044 0.0
H698 H 0.57973 0.78597 0.6679 0.0
H699 H 0.60346 0.81972 0.62818 0.0
H700 H 0.56817 0.77864 0.60967 0.0
H701 H 0.70759 0.76803 0.67892 0.0
H702 H 0.71727 0.81229 0.67362 0.0
H703 H 0.68943 0.78594 0.71753 0.0
H704 H 0.68637 0.90333 0.69928 0.0
H705 H 0.62386 0.82466 0.79492 0.0
H706 H 0.66727 0.85355 0.60847 0.0
H707 H 0.70301 0.84944 0.62762 0.0
H708 H 0.70444 0.89061 0.63222 0.0
H709 H 0.58737 0.75752 0.73649 0.0
H710 H 0.61331 0.76615 0.78577 0.0
H711 H 0.62489 0.7527 0.73492 0.0
C712 C 0.78743 0.7009 0.02646 0.0
C713 C 0.7719 0.67425 0.05824 0.0
C714 C 0.81669 0.70621 0.00255 0.0
C715 C 0.83073 0.6844 0.01071 0.0
C716 C 0.81624 0.65864 0.04432 0.0
C717 C 0.78698 0.65386 0.06767 0.0
C718 C 0.83157 0.73408 0.96715 0.0
C719 C 0.83069 0.63504 0.05424 0.0
C720 C 0.87671 0.66465 0.91905 0.0
C721 C 0.91132 0.68423 0.93249 0.0
C722 C 0.85036 0.66559 0.94329 0.0
C723 C 0.85883 0.68656 0.98198 0.0
C724 C 0.89386 0.70764 0.99456 0.0
C725 C 0.91973 0.70629 0.96958 0.0
C726 C 0.81328 0.64292 0.92861 0.0
C727 C 0.90389 0.73034 0.03557 0.0
H728 H 0.77602 0.71688 0.01904 0.0
H729 H 0.7753 0.63338 0.09236 0.0
H730 H 0.85995 0.75048 0.97138 0.0
H731 H 0.82692 0.72183 0.93374 0.0
H732 H 0.81988 0.75104 0.96796 0.0
H733 H 0.81805 0.61804 0.08353 0.0
H734 H 0.82697 0.61834 0.02487 0.0
H735 H 0.85889 0.65059 0.06066 0.0
H736 H 0.87003 0.6477 0.89031 0.0
H737 H 0.94643 0.7215 0.98026 0.0
H738 H 0.80034 0.6586 0.92553 0.0
H739 H 0.79897 0.62263 0.95413 0.0
H740 H 0.81123 0.62996 0.89618 0.0
H741 H 0.89117 0.74632 0.03546 0.0
H742 H 0.9323 0.74787 0.0381 0.0
H743 H 0.89495 0.71376 0.06582 0.0
C744 C 0.3921 0.04507 0.42604 0.0
C745 C 0.36203 0.02671 0.40027 0.0
C746 C 0.39134 0.04069 0.4725 0.0
C747 C 0.35974 0.01759 0.49376 0.0
C748 C 0.32915 -0.00035 0.46814 0.0
C749 C 0.33067 0.00435 0.42175 0.0
C750 C 0.42451 0.06023 0.49872 0.0
C751 C 0.29488 0.97502 0.48963 0.0
C752 C 0.36261 0.9793 0.60602 0.0
C753 C 0.35688 0.0003 0.6357 0.0
C754 C 0.36372 0.98473 0.55975 0.0
C755 C 0.35876 0.01166 0.54272 0.0
C756 C 0.35278 0.03281 0.57243 0.0
C757 C 0.35199 0.02694 0.6185 0.0
C758 C 0.37031 0.96173 0.52907 0.0
C759 C 0.34713 0.06163 0.55556 0.0
H760 H 0.41647 0.0623 0.40982 0.0
H761 H 0.30724 0.99012 0.40224 0.0
H762 H 0.4215 0.07583 0.52536 0.0
H763 H 0.43056 0.04157 0.51528 0.0
H764 H 0.44677 0.07786 0.47736 0.0
H765 H 0.27328 0.96397 0.4652 0.0
H766 H 0.29632 0.95333 0.50581 0.0
H767 H 0.28889 0.98865 0.51609 0.0
H768 H 0.36652 0.95874 0.61891 0.0
H769 H 0.34742 0.04328 0.64105 0.0
H770 H 0.39378 0.97778 0.50877 0.0
H771 H 0.34836 0.94801 0.5056 0.0
H772 H 0.37387 0.94209 0.5476 0.0
H773 H 0.36978 0.08042 0.53572 0.0
H774 H 0.34298 0.07587 0.58309 0.0
H775 H 0.32432 0.05078 0.53315 0.0
C776 C 0.37042 0.32165 0.89341 0.0
C777 C 0.34641 0.32109 0.92407 0.0
C778 C 0.36454 0.32062 0.84731 0.0
C779 C 0.33391 0.31901 0.83141 0.0
C780 C 0.30893 0.31703 0.86209 0.0
C781 C 0.31548 0.31814 0.90803 0.0
C782 C 0.39166 0.32243 0.81558 0.0
C783 C 0.27582 0.31499 0.84642 0.0
C784 C 0.34051 0.35876 0.71743 0.0
C785 C 0.32621 0.32946 0.68955 0.0
C786 C 0.34242 0.35555 0.76369 0.0
C787 C 0.32948 0.32221 0.78278 0.0
C788 C 0.31396 0.2924 0.75515 0.0
C789 C 0.31256 0.29636 0.70882 0.0
C790 C 0.35936 0.38801 0.79199 0.0
C791 C 0.29931 0.25642 0.77449 0.0
H792 H 0.39426 0.32365 0.90534 0.0
H793 H 0.2966 0.31742 0.93135 0.0
H794 H 0.37987 0.30044 0.79171 0.0
H795 H 0.40251 0.34676 0.7958 0.0
H796 H 0.41319 0.32177 0.83324 0.0
H797 H 0.25767 0.31036 0.87435 0.0
H798 H 0.28182 0.33966 0.82971 0.0
H799 H 0.26268 0.29388 0.82156 0.0
H800 H 0.35117 0.38446 0.70304 0.0
H801 H 0.30133 0.27354 0.68767 0.0
H802 H 0.38285 0.39048 0.80814 0.0
H803 H 0.34159 0.38633 0.81895 0.0
H804 H 0.36693 0.41189 0.77221 0.0
H805 H 0.31917 0.25467 0.7947 0.0
H806 H 0.28983 0.23609 0.74829 0.0
H807 H 0.27751 0.25092 0.79711 0.0
C808 C 0.97584 0.32835 0.26498 0.0
C809 C 0.00232 0.36114 0.27891 0.0
C810 C 0.96644 0.32149 0.21985 0.0
C811 C 0.98383 0.34808 0.18785 0.0
C812 C 0.01046 0.38123 0.20164 0.0
C813 C 0.01942 0.38733 0.24693 0.0
C814 C 0.93801 0.28577 0.20639 0.0
C815 C 0.02957 0.41028 0.1685 0.0
C816 C 0.98603 0.32648 0.06592 0.0
C817 C 0.9618 0.33409 0.04697 0.0
C818 C 0.99264 0.32987 0.11191 0.0
C819 C 0.9747 0.34127 0.13974 0.0
C820 C 0.94942 0.34792 0.12115 0.0
C821 C 0.9432 0.34417 0.07499 0.0
C822 C 0.01962 0.32228 0.13048 0.0
C823 C 0.92978 0.36014 0.14981 0.0
H824 H 0.96244 0.30789 0.28934 0.0
H825 H 0.0398 0.41278 0.25726 0.0
H826 H 0.91702 0.28769 0.18919 0.0
H827 H 0.94819 0.27407 0.18244 0.0
H828 H 0.9268 0.26804 0.23541 0.0
H829 H 0.04929 0.4347 0.18471 0.0
H830 H 0.04265 0.40249 0.1434 0.0
H831 H 0.01104 0.41555 0.15031 0.0
H832 H 0.00039 0.31843 0.04469 0.0
H833 H 0.92445 0.35012 0.06074 0.0
H834 H 0.00865 0.30344 0.15837 0.0
H835 H 0.04159 0.34647 0.14411 0.0
H836 H 0.02973 0.31162 0.10484 0.0
H837 H 0.91737 0.34207 0.17817 0.0
H838 H 0.90953 0.36217 0.13074 0.0
H839 H 0.94798 0.386 0.16407 0.0
C840 C 0.60008 0.94636 0.43748 0.0
C841 C 0.62832 0.96603 0.40926 0.0
C842 C 0.60314 0.95109 0.48391 0.0
C843 C 0.63526 0.9759 0.50258 0.0
C844 C 0.66399 0.99541 0.47439 0.0
C845 C 0.66016 0.99032 0.42812 0.0
C846 C 0.57188 0.9299 0.51295 0.0
C847 C 0.69874 0.02193 0.49307 0.0
C848 C 0.63628 0.01287 0.61717 0.0
C849 C 0.64569 0.99336 0.64461 0.0
C850 C 0.63263 0.00732 0.57091 0.0
C851 C 0.63873 0.98181 0.55158 0.0
C852 C 0.64841 0.96216 0.579 0.0
C853 C 0.65169 0.96811 0.62515 0.0
C854 C 0.6221 0.02866 0.54271 0.0
C855 C 0.65534 0.93487 0.5596 0.0
H856 H 0.57536 0.92762 0.42328 0.0
H857 H 0.68221 0.00557 0.40669 0.0
H858 H 0.57766 0.91507 0.53791 0.0
H859 H 0.56537 0.9474 0.53164 0.0
H860 H 0.5489 0.91136 0.4933 0.0
H861 H 0.71871 0.03441 0.46669 0.0
H862 H 0.6964 0.04246 0.51107 0.0
H863 H 0.70774 0.00943 0.51754 0.0
H864 H 0.63144 0.03231 0.63184 0.0
H865 H 0.65903 0.95291 0.64598 0.0
H866 H 0.59785 0.0113 0.5245 0.0
H867 H 0.64228 0.04348 0.51736 0.0
H868 H 0.61801 0.04724 0.56292 0.0
H869 H 0.63205 0.91488 0.54186 0.0
H870 H 0.66262 0.92181 0.58552 0.0
H871 H 0.67653 0.94688 0.53475 0.0
C872 C 0.61534 0.67771 0.91408 0.0
C873 C 0.6389 0.67372 0.94092 0.0
C874 C 0.61721 0.67718 0.86738 0.0
C875 C 0.6429 0.67201 0.84715 0.0
C876 C 0.66813 0.67035 0.87393 0.0
C877 C 0.66589 0.67131 0.92049 0.0
C878 C 0.59073 0.68041 0.83971 0.0
C879 C 0.69648 0.66579 0.85343 0.0
C880 C 0.62135 0.62016 0.74028 0.0
C881 C 0.63896 0.646 0.70826 0.0
C882 C 0.62158 0.62858 0.78526 0.0
C883 C 0.64076 0.66373 0.79883 0.0
C884 C 0.65859 0.69011 0.7666 0.0
C885 C 0.65678 0.68096 0.7213 0.0
C886 C 0.60188 0.59968 0.81842 0.0
C887 C 0.67993 0.72782 0.77975 0.0
H888 H 0.5948 0.6803 0.92953 0.0
H889 H 0.68451 0.66866 0.94084 0.0
H890 H 0.60374 0.70024 0.81325 0.0
H891 H 0.57351 0.6553 0.82295 0.0
H892 H 0.57459 0.68769 0.86016 0.0
H893 H 0.71603 0.66843 0.87842 0.0
H894 H 0.68509 0.63966 0.83797 0.0
H895 H 0.7097 0.68524 0.82663 0.0
H896 H 0.60726 0.59315 0.73003 0.0
H897 H 0.6704 0.70096 0.69645 0.0
H898 H 0.58355 0.60471 0.8375 0.0
H899 H 0.62013 0.5987 0.84271 0.0
H900 H 0.5871 0.57388 0.8021 0.0
H901 H 0.66301 0.73943 0.78102 0.0
H902 H 0.70084 0.74256 0.75523 0.0
H903 H 0.69193 0.73106 0.81311 0.0
C904 C 0.96012 0.62116 0.24904 0.0
C905 C 0.97653 0.64699 0.28162 0.0
C906 C 0.97164 0.62696 0.20467 0.0
C907 C 0.00018 0.65944 0.19242 0.0
C908 C 0.0169 0.68567 0.22505 0.0
C909 C 0.00492 0.67911 0.26926 0.0
C910 C 0.95321 0.59828 0.17084 0.0
C911 C 0.0473 0.7207 0.21323 0.0
C912 C 0.04561 0.66148 0.08426 0.0
C913 C 0.02966 0.67301 0.05378 0.0
C914 C 0.03694 0.6578 0.12977 0.0
C915 C 0.01191 0.66604 0.14516 0.0
C916 C -0.00334 0.67886 0.11486 0.0
C917 C 0.00565 0.68212 0.0696 0.0
C918 C 0.0537 0.64396 0.1611 0.0
C919 C 0.97006 0.68819 0.12998 0.0
H920 H 0.9383 0.59621 0.25819 0.0
H921 H 0.01783 0.69928 0.29411 0.0
H922 H 0.94231 0.60709 0.14395 0.0
H923 H 0.97179 0.59186 0.15507 0.0
H924 H 0.93189 0.57429 0.18593 0.0
H925 H 0.05774 0.73815 0.24263 0.0
H926 H 0.06831 0.71746 0.19854 0.0
H927 H 0.03948 0.73349 0.18768 0.0
H928 H 0.06415 0.65436 0.07241 0.0
H929 H 0.99334 0.69131 0.04645 0.0
H930 H 0.03382 0.6184 0.17444 0.0
H931 H 0.06529 0.66169 0.18997 0.0
H932 H 0.07413 0.64073 0.14446 0.0
H933 H 0.94672 0.6646 0.14234 0.0
H934 H 0.96216 0.69973 0.10274 0.0
H935 H 0.98038 0.70691 0.15806 0.0
loop_
_geom_bond_atom_site_label_1
_geom_bond_atom_site_label_2
_geom_bond_distance
_geom_bond_site_symmetry_2
_ccdc_geom_bond_type
Mg0 O1 2.028 . S
Mg0 O7 1.986 1_565 S
Mg0 O9 2.114 . S
Mg0 O10 2.251 1_565 S
Mg0 O13 2.010 . S
O1 Mg0 2.028 . S
O1 C4 1.250 1_565 S
O2 Mg3 2.028 . S
O2 C4 1.248 . S
Mg3 O2 2.028 . S
Mg3 O8 2.032 . S
Mg3 O10 2.079 . S
C4 O1 1.250 1_545 S
C4 O2 1.248 . S
C5 O6 1.264 . S
C5 O13 1.249 . S
O6 C5 1.264 . S
O7 Mg0 1.986 1_545 S
O7 C11 1.246 . S
O8 Mg3 2.032 . S
O8 C11 1.259 . S
O9 Mg0 2.114 . S
O9 C12 1.252 . S
O10 Mg0 2.251 1_545 S
O10 Mg3 2.079 . S
O10 C12 1.273 1_545 S
C11 O7 1.246 . S
C11 O8 1.259 . S
C12 O9 1.252 . S
C12 O10 1.273 1_565 S
O13 Mg0 2.010 . S
O13 C5 1.249 . S
Mg14 O15 2.028 . S
Mg14 O21 1.986 . S
Mg14 O23 2.114 . S
Mg14 O24 2.251 . S
Mg14 O27 2.010 . S
O15 Mg14 2.028 . S
O15 C18 1.250 . S
O16 Mg17 2.028 . S
O16 C18 1.248 . S
Mg17 O16 2.028 . S
Mg17 O22 2.032 . S
Mg17 O24 2.079 . S
C18 O15 1.250 . S
C18 O16 1.248 . S
C19 O20 1.264 . S
C19 O27 1.249 . S
O20 C19 1.264 . S
O21 Mg14 1.986 . S
O21 C25 1.246 . S
O22 Mg17 2.032 . S
O22 C25 1.259 . S
O23 Mg14 2.114 . S
O23 C26 1.252 . S
O24 Mg14 2.251 . S
O24 Mg17 2.079 . S
O24 C26 1.273 . S
C25 O21 1.246 . S
C25 O22 1.259 . S
C26 O23 1.252 . S
C26 O24 1.273 . S
O27 Mg14 2.010 . S
O27 C19 1.249 . S
Mg28 O29 2.028 . S
Mg28 O35 1.986 1_455 S
Mg28 O37 2.114 . S
Mg28 O38 2.251 1_455 S
Mg28 O41 2.010 . S
O29 Mg28 2.028 . S
O29 C32 1.250 1_456 S
O30 Mg31 2.028 1_554 S
O30 C32 1.248 . S
Mg31 O30 2.028 1_556 S
Mg31 O36 2.032 . S
Mg31 O38 2.079 . S
C32 O29 1.250 1_654 S
C32 O30 1.248 . S
C33 O34 1.264 . S
C33 O41 1.249 . S
O34 C33 1.264 . S
O35 Mg28 1.986 1_655 S
O35 C39 1.246 . S
O36 Mg31 2.032 . S
O36 C39 1.259 . S
O37 Mg28 2.114 . S
O37 C40 1.252 . S
O38 Mg28 2.251 1_655 S
O38 Mg31 2.079 . S
O38 C40 1.273 1_655 S
C39 O35 1.246 . S
C39 O36 1.259 . S
C40 O37 1.252 . S
C40 O38 1.273 1_455 S
O41 Mg28 2.010 . S
O41 C33 1.249 . S
Mg42 O43 2.028 . S
Mg42 O49 1.986 1_545 S
Mg42 O51 2.114 . S
Mg42 O52 2.251 1_545 S
Mg42 O55 2.010 . S
O43 Mg42 2.028 . S
O43 C46 1.250 1_545 S
O44 Mg45 2.028 . S
O44 C46 1.248 . S
Mg45 O44 2.028 . S
Mg45 O50 2.032 . S
Mg45 O52 2.079 . S
C46 O43 1.250 1_565 S
C46 O44 1.248 . S
C47 O48 1.264 . S
C47 O55 1.249 . S
O48 C47 1.264 . S
O49 Mg42 1.986 1_565 S
O49 C53 1.246 . S
O50 Mg45 2.032 . S
O50 C53 1.259 . S
O51 Mg42 2.114 . S
O51 C54 1.252 . S
O52 Mg42 2.251 1_565 S
O52 Mg45 2.079 . S
O52 C54 1.273 1_565 S
C53 O49 1.246 . S
C53 O50 1.259 . S
C54 O51 1.252 . S
C54 O52 1.273 1_545 S
O55 Mg42 2.010 . S
O55 C47 1.249 . S
Mg56 O57 2.028 . S
Mg56 O63 1.986 . S
Mg56 O65 2.114 . S
Mg56 O66 2.251 . S
Mg56 O69 2.010 . S
O57 Mg56 2.028 . S
O57 C60 1.250 . S
O58 Mg59 2.028 . S
O58 C60 1.248 . S
Mg59 O58 2.028 . S
Mg59 O64 2.032 . S
Mg59 O66 2.079 . S
C60 O57 1.250 . S
C60 O58 1.248 . S
C61 O62 1.264 . S
C61 O69 1.249 . S
O62 C61 1.264 . S
O63 Mg56 1.986 . S
O63 C67 1.246 . S
O64 Mg59 2.032 . S
O64 C67 1.259 . S
O65 Mg56 2.114 . S
O65 C68 1.252 . S
O66 Mg56 2.251 . S
O66 Mg59 2.079 . S
O66 C68 1.273 . S
C67 O63 1.246 . S
C67 O64 1.259 . S
C68 O65 1.252 . S
C68 O66 1.273 . S
O69 Mg56 2.010 . S
O69 C61 1.249 . S
Mg70 O71 2.028 . S
Mg70 O77 1.986 1_655 S
Mg70 O79 2.114 . S
Mg70 O80 2.251 1_655 S
Mg70 O83 2.010 . S
O71 Mg70 2.028 . S
O71 C74 1.250 1_656 S
O72 Mg73 2.028 1_554 S
O72 C74 1.248 . S
Mg73 O72 2.028 1_556 S
Mg73 O78 2.032 . S
Mg73 O80 2.079 . S
C74 O71 1.250 1_454 S
C74 O72 1.248 . S
C75 O76 1.264 . S
C75 O83 1.249 . S
O76 C75 1.264 . S
O77 Mg70 1.986 1_455 S
O77 C81 1.246 . S
O78 Mg73 2.032 . S
O78 C81 1.259 . S
O79 Mg70 2.114 . S
O79 C82 1.252 . S
O80 Mg70 2.251 1_455 S
O80 Mg73 2.079 . S
O80 C82 1.273 1_455 S
C81 O77 1.246 . S
C81 O78 1.259 . S
C82 O79 1.252 . S
C82 O80 1.273 1_655 S
O83 Mg70 2.010 . S
O83 C75 1.249 . S
Mg84 O85 2.028 . S
Mg84 O91 1.986 1_455 S
Mg84 O93 2.114 . S
Mg84 O94 2.251 1_455 S
Mg84 O97 2.010 . S
O85 Mg84 2.028 . S
O85 C88 1.250 1_455 S
O86 Mg87 2.028 . S
O86 C88 1.248 . S
Mg87 O86 2.028 . S
Mg87 O92 2.032 . S
Mg87 O94 2.079 . S
C88 O85 1.250 1_655 S
C88 O86 1.248 . S
C89 O90 1.264 . S
C89 O97 1.249 . S
O90 C89 1.264 . S
O91 Mg84 1.986 1_655 S
O91 C95 1.246 . S
O92 Mg87 2.032 . S
O92 C95 1.259 . S
O93 Mg84 2.114 . S
O93 C96 1.252 . S
O94 Mg84 2.251 1_655 S
O94 Mg87 2.079 . S
O94 C96 1.273 1_655 S
C95 O91 1.246 . S
C95 O92 1.259 . S
C96 O93 1.252 . S
C96 O94 1.273 1_455 S
O97 Mg84 2.010 . S
O97 C89 1.249 . S
Mg98 O99 2.028 . S
Mg98 O105 1.986 1_545 S
Mg98 O107 2.114 . S
Mg98 O108 2.251 1_545 S
Mg98 O111 2.010 . S
O99 Mg98 2.028 . S
O99 C102 1.250 1_545 S
O100 Mg101 2.028 . S
O100 C102 1.248 . S
Mg101 O100 2.028 . S
Mg101 O106 2.032 . S
Mg101 O108 2.079 . S
C102 O99 1.250 1_565 S
C102 O100 1.248 . S
C103 O104 1.264 . S
C103 O111 1.249 . S
O104 C103 1.264 . S
O105 Mg98 1.986 1_565 S
O105 C109 1.246 . S
O106 Mg101 2.032 . S
O106 C109 1.259 . S
O107 Mg98 2.114 . S
O107 C110 1.252 . S
O108 Mg98 2.251 1_565 S
O108 Mg101 2.079 . S
O108 C110 1.273 1_565 S
C109 O105 1.246 . S
C109 O106 1.259 . S
C110 O107 1.252 . S
C110 O108 1.273 1_545 S
O111 Mg98 2.010 . S
O111 C103 1.249 . S
Mg112 O113 2.028 . S
Mg112 O119 1.986 . S
Mg112 O121 2.114 . S
Mg112 O122 2.251 . S
Mg112 O125 2.010 . S
O113 Mg112 2.028 . S
O113 C116 1.250 1_554 S
O114 Mg115 2.028 1_556 S
O114 C116 1.248 . S
Mg115 O114 2.028 1_554 S
Mg115 O120 2.032 . S
Mg115 O122 2.079 . S
C116 O113 1.250 1_556 S
C116 O114 1.248 . S
C117 O118 1.264 . S
C117 O125 1.249 . S
O118 C117 1.264 . S
O119 Mg112 1.986 . S
O119 C123 1.246 . S
O120 Mg115 2.032 . S
O120 C123 1.259 . S
O121 Mg112 2.114 . S
O121 C124 1.252 . S
O122 Mg112 2.251 . S
O122 Mg115 2.079 . S
O122 C124 1.273 . S
C123 O119 1.246 . S
C123 O120 1.259 . S
C124 O121 1.252 . S
C124 O122 1.273 . S
O125 Mg112 2.010 . S
O125 C117 1.249 . S
Mg126 O127 2.028 . S
Mg126 O133 1.986 1_655 S
Mg126 O135 2.114 . S
Mg126 O136 2.251 1_655 S
Mg126 O139 2.010 . S
O127 Mg126 2.028 . S
O127 C130 1.250 1_655 S
O128 Mg129 2.028 . S
O128 C130 1.248 . S
Mg129 O128 2.028 . S
Mg129 O134 2.032 . S
Mg129 O136 2.079 . S
C130 O127 1.250 1_455 S
C130 O128 1.248 . S
C131 O132 1.264 . S
C131 O139 1.249 . S
O132 C131 1.264 . S
O133 Mg126 1.986 1_455 S
O133 C137 1.246 . S
O134 Mg129 2.032 . S
O134 C137 1.259 . S
O135 Mg126 2.114 . S
O135 C138 1.252 . S
O136 Mg126 2.251 1_455 S
O136 Mg129 2.079 . S
O136 C138 1.273 1_455 S
C137 O133 1.246 . S
C137 O134 1.259 . S
C138 O135 1.252 . S
C138 O136 1.273 1_655 S
O139 Mg126 2.010 . S
O139 C131 1.249 . S
Mg140 O141 2.028 . S
Mg140 O147 1.986 1_565 S
Mg140 O149 2.114 . S
Mg140 O150 2.251 1_565 S
Mg140 O153 2.010 . S
O141 Mg140 2.028 . S
O141 C144 1.250 1_565 S
O142 Mg143 2.028 . S
O142 C144 1.248 . S
Mg143 O142 2.028 . S
Mg143 O148 2.032 . S
Mg143 O150 2.079 . S
C144 O141 1.250 1_545 S
C144 O142 1.248 . S
C145 O146 1.264 . S
C145 O153 1.249 . S
O146 C145 1.264 . S
O147 Mg140 1.986 1_545 S
O147 C151 1.246 . S
O148 Mg143 2.032 . S
O148 C151 1.259 . S
O149 Mg140 2.114 . S
O149 C152 1.252 . S
O150 Mg140 2.251 1_545 S
O150 Mg143 2.079 . S
O150 C152 1.273 1_545 S
C151 O147 1.246 . S
C151 O148 1.259 . S
C152 O149 1.252 . S
C152 O150 1.273 1_565 S
O153 Mg140 2.010 . S
O153 C145 1.249 . S
Mg154 O155 2.028 . S
Mg154 O161 1.986 . S
Mg154 O163 2.114 . S
Mg154 O164 2.251 . S
Mg154 O167 2.010 . S
O155 Mg154 2.028 . S
O155 C158 1.250 1_554 S
O156 Mg157 2.028 1_556 S
O156 C158 1.248 . S
Mg157 O156 2.028 1_554 S
Mg157 O162 2.032 . S
Mg157 O164 2.079 . S
C158 O155 1.250 1_556 S
C158 O156 1.248 . S
C159 O160 1.264 . S
C159 O167 1.249 . S
O160 C159 1.264 . S
O161 Mg154 1.986 . S
O161 C165 1.246 . S
O162 Mg157 2.032 . S
O162 C165 1.259 . S
O163 Mg154 2.114 . S
O163 C166 1.252 . S
O164 Mg154 2.251 . S
O164 Mg157 2.079 . S
O164 C166 1.273 . S
C165 O161 1.246 . S
C165 O162 1.259 . S
C166 O163 1.252 . S
C166 O164 1.273 . S
O167 Mg154 2.010 . S
O167 C159 1.249 . S
C168 C169 1.391 . S
C168 C170 1.394 . S
C168 H184 0.931 . S
C169 C168 1.391 . S
C169 C173 1.376 . S
C170 C168 1.394 . S
C170 C171 1.369 . S
C170 C174 1.531 . S
C171 C170 1.369 . S
C171 C172 1.410 . S
C171 C179 1.503 . S
C172 C171 1.410 . S
C172 C173 1.392 . S
C172 C175 1.511 . S
C173 C169 1.376 . S
C173 C172 1.392 . S
C173 H185 0.929 . S
C174 C170 1.531 . S
C174 H186 0.960 . S
C174 H187 0.962 . S
C174 H188 0.960 . S
C175 C172 1.511 . S
C175 H189 0.961 . S
C175 H190 0.961 . S
C175 H191 0.961 . S
C176 C177 1.370 . S
C176 C178 1.363 . S
C176 H192 0.931 . S
C177 C176 1.370 . S
C177 C181 1.408 . S
C178 C176 1.363 . S
C178 C179 1.370 . S
C178 C182 1.524 . S
C179 C171 1.503 . S
C179 C178 1.370 . S
C179 C180 1.403 . S
C180 C179 1.403 . S
C180 C181 1.404 . S
C180 C183 1.539 . S
C181 C177 1.408 . S
C181 C180 1.404 . S
C181 H193 0.930 . S
C182 C178 1.524 . S
C182 H194 0.956 . S
C182 H195 0.961 . S
C182 H196 0.961 . S
C183 C180 1.539 . S
C183 H197 0.958 . S
C183 H198 0.961 . S
C183 H199 0.960 . S
H184 C168 0.931 . S
H185 C173 0.929 . S
H186 C174 0.960 . S
H187 C174 0.962 . S
H188 C174 0.960 . S
H189 C175 0.961 . S
H190 C175 0.961 . S
H191 C175 0.961 . S
H192 C176 0.931 . S
H193 C181 0.930 . S
H194 C182 0.956 . S
H195 C182 0.961 . S
H196 C182 0.961 . S
H197 C183 0.958 . S
H198 C183 0.961 . S
H199 C183 0.960 . S
C200 C201 1.391 . S
C200 C202 1.394 . S
C200 H216 0.931 . S
C201 C200 1.391 . S
C201 C205 1.376 . S
C202 C200 1.394 . S
C202 C203 1.369 . S
C202 C206 1.531 . S
C203 C202 1.369 . S
C203 C204 1.410 . S
C203 C211 1.503 . S
C204 C203 1.410 . S
C204 C205 1.392 . S
C204 C207 1.511 . S
C205 C201 1.376 . S
C205 C204 1.392 . S
C205 H217 0.929 . S
C206 C202 1.531 . S
C206 H218 0.960 . S
C206 H219 0.962 . S
C206 H220 0.960 . S
C207 C204 1.511 . S
C207 H221 0.961 . S
C207 H222 0.961 . S
C207 H223 0.961 . S
C208 C209 1.370 . S
C208 C210 1.363 . S
C208 H224 0.931 . S
C209 C208 1.370 . S
C209 C213 1.408 . S
C210 C208 1.363 . S
C210 C211 1.370 . S
C210 C214 1.524 . S
C211 C203 1.503 . S
C211 C210 1.370 . S
C211 C212 1.403 . S
C212 C211 1.403 . S
C212 C213 1.404 . S
C212 C215 1.539 . S
C213 C209 1.408 . S
C213 C212 1.404 . S
C213 H225 0.930 . S
C214 C210 1.524 . S
C214 H226 0.956 . S
C214 H227 0.961 . S
C214 H228 0.961 . S
C215 C212 1.539 . S
C215 H229 0.958 . S
C215 H230 0.961 . S
C215 H231 0.960 . S
H216 C200 0.931 . S
H217 C205 0.929 . S
H218 C206 0.960 . S
H219 C206 0.962 . S
H220 C206 0.960 . S
H221 C207 0.961 . S
H222 C207 0.961 . S
H223 C207 0.961 . S
H224 C208 0.931 . S
H225 C213 0.930 . S
H226 C214 0.956 . S
H227 C214 0.961 . S
H228 C214 0.961 . S
H229 C215 0.958 . S
H230 C215 0.961 . S
H231 C215 0.960 . S
C232 C233 1.391 . S
C232 C234 1.394 . S
C232 H248 0.931 . S
C233 C232 1.391 . S
C233 C237 1.376 . S
C234 C232 1.394 . S
C234 C235 1.369 . S
C234 C238 1.531 . S
C235 C234 1.369 . S
C235 C236 1.410 . S
C235 C243 1.503 . S
C236 C235 1.410 . S
C236 C237 1.392 . S
C236 C239 1.511 . S
C237 C233 1.376 . S
C237 C236 1.392 . S
C237 H249 0.929 . S
C238 C234 1.531 . S
C238 H250 0.960 . S
C238 H251 0.962 . S
C238 H252 0.960 . S
C239 C236 1.511 . S
C239 H253 0.961 . S
C239 H254 0.961 . S
C239 H255 0.961 . S
C240 C241 1.370 . S
C240 C242 1.363 . S
C240 H256 0.931 . S
C241 C240 1.370 . S
C241 C245 1.408 . S
C242 C240 1.363 . S
C242 C243 1.370 . S
C242 C246 1.524 . S
C243 C235 1.503 . S
C243 C242 1.370 . S
C243 C244 1.403 . S
C244 C243 1.403 . S
C244 C245 1.404 . S
C244 C247 1.539 . S
C245 C241 1.408 . S
C245 C244 1.404 . S
C245 H257 0.930 . S
C246 C242 1.524 . S
C246 H258 0.956 . S
C246 H259 0.961 . S
C246 H260 0.961 . S
C247 C244 1.539 . S
C247 H261 0.958 . S
C247 H262 0.961 . S
C247 H263 0.960 . S
H248 C232 0.931 . S
H249 C237 0.929 . S
H250 C238 0.960 . S
H251 C238 0.962 . S
H252 C238 0.960 . S
H253 C239 0.961 . S
H254 C239 0.961 . S
H255 C239 0.961 . S
H256 C240 0.931 . S
H257 C245 0.930 . S
H258 C246 0.956 . S
H259 C246 0.961 . S
H260 C246 0.961 . S
H261 C247 0.958 . S
H262 C247 0.961 . S
H263 C247 0.960 . S
C264 C265 1.391 . S
C264 C266 1.394 . S
C264 H280 0.931 . S
C265 C264 1.391 . S
C265 C269 1.376 . S
C266 C264 1.394 . S
C266 C267 1.369 . S
C266 C270 1.531 . S
C267 C266 1.369 . S
C267 C268 1.410 . S
C267 C275 1.503 . S
C268 C267 1.410 . S
C268 C269 1.392 . S
C268 C271 1.511 . S
C269 C265 1.376 . S
C269 C268 1.392 . S
C269 H281 0.929 . S
C270 C266 1.531 . S
C270 H282 0.960 . S
C270 H283 0.962 . S
C270 H284 0.960 . S
C271 C268 1.511 . S
C271 H285 0.961 . S
C271 H286 0.961 . S
C271 H287 0.961 . S
C272 C273 1.370 . S
C272 C274 1.363 . S
C272 H288 0.931 . S
C273 C272 1.370 . S
C273 C277 1.408 . S
C274 C272 1.363 . S
C274 C275 1.370 . S
C274 C278 1.524 . S
C275 C267 1.503 . S
C275 C274 1.370 . S
C275 C276 1.403 . S
C276 C275 1.403 . S
C276 C277 1.404 . S
C276 C279 1.539 . S
C277 C273 1.408 . S
C277 C276 1.404 . S
C277 H289 0.930 . S
C278 C274 1.524 . S
C278 H290 0.956 . S
C278 H291 0.961 . S
C278 H292 0.961 . S
C279 C276 1.539 . S
C279 H293 0.958 . S
C279 H294 0.961 . S
C279 H295 0.960 . S
H280 C264 0.931 . S
H281 C269 0.929 . S
H282 C270 0.960 . S
H283 C270 0.962 . S
H284 C270 0.960 . S
H285 C271 0.961 . S
H286 C271 0.961 . S
H287 C271 0.961 . S
H288 C272 0.931 . S
H289 C277 0.930 . S
H290 C278 0.956 . S
H291 C278 0.961 . S
H292 C278 0.961 . S
H293 C279 0.958 . S
H294 C279 0.961 . S
H295 C279 0.960 . S
C296 C297 1.391 . S
C296 C298 1.394 . S
C296 H312 0.931 . S
C297 C296 1.391 . S
C297 C301 1.376 . S
C298 C296 1.394 . S
C298 C299 1.369 . S
C298 C302 1.531 . S
C299 C298 1.369 . S
C299 C300 1.410 . S
C299 C307 1.503 . S
C300 C299 1.410 . S
C300 C301 1.392 . S
C300 C303 1.511 . S
C301 C297 1.376 . S
C301 C300 1.392 . S
C301 H313 0.929 . S
C302 C298 1.531 . S
C302 H314 0.960 . S
C302 H315 0.962 . S
C302 H316 0.960 . S
C303 C300 1.511 . S
C303 H317 0.961 . S
C303 H318 0.961 . S
C303 H319 0.961 . S
C304 C305 1.370 . S
C304 C306 1.363 . S
C304 H320 0.931 . S
C305 C304 1.370 . S
C305 C309 1.408 . S
C306 C304 1.363 . S
C306 C307 1.370 . S
C306 C310 1.524 . S
C307 C299 1.503 . S
C307 C306 1.370 . S
C307 C308 1.403 . S
C308 C307 1.403 . S
C308 C309 1.404 . S
C308 C311 1.539 . S
C309 C305 1.408 . S
C309 C308 1.404 . S
C309 H321 0.930 . S
C310 C306 1.524 . S
C310 H322 0.956 . S
C310 H323 0.961 . S
C310 H324 0.961 . S
C311 C308 1.539 . S
C311 H325 0.958 . S
C311 H326 0.961 . S
C311 H327 0.960 . S
H312 C296 0.931 . S
H313 C301 0.929 . S
H314 C302 0.960 . S
H315 C302 0.962 . S
H316 C302 0.960 . S
H317 C303 0.961 . S
H318 C303 0.961 . S
H319 C303 0.961 . S
H320 C304 0.931 . S
H321 C309 0.930 . S
H322 C310 0.956 . S
H323 C310 0.961 . S
H324 C310 0.961 . S
H325 C311 0.958 . S
H326 C311 0.961 . S
H327 C311 0.960 . S
C328 C329 1.391 . S
C328 C330 1.394 . S
C328 H344 0.931 . S
C329 C328 1.391 . S
C329 C333 1.376 . S
C330 C328 1.394 . S
C330 C331 1.369 . S
C330 C334 1.531 . S
C331 C330 1.369 . S
C331 C332 1.410 . S
C331 C339 1.503 . S
C332 C331 1.410 . S
C332 C333 1.392 . S
C332 C335 1.511 . S
C333 C329 1.376 . S
C333 C332 1.392 . S
C333 H345 0.929 . S
C334 C330 1.531 . S
C334 H346 0.960 . S
C334 H347 0.962 . S
C334 H348 0.960 . S
C335 C332 1.511 . S
C335 H349 0.961 . S
C335 H350 0.961 . S
C335 H351 0.961 . S
C336 C337 1.370 . S
C336 C338 1.363 . S
C336 H352 0.931 . S
C337 C336 1.370 . S
C337 C341 1.408 . S
C338 C336 1.363 . S
C338 C339 1.370 . S
C338 C342 1.524 . S
C339 C331 1.503 . S
C339 C338 1.370 . S
C339 C340 1.403 . S
C340 C339 1.403 . S
C340 C341 1.404 . S
C340 C343 1.539 . S
C341 C337 1.408 . S
C341 C340 1.404 . S
C341 H353 0.930 . S
C342 C338 1.524 . S
C342 H354 0.956 . S
C342 H355 0.961 . S
C342 H356 0.961 . S
C343 C340 1.539 . S
C343 H357 0.958 . S
C343 H358 0.961 . S
C343 H359 0.960 . S
H344 C328 0.931 . S
H345 C333 0.929 . S
H346 C334 0.960 . S
H347 C334 0.962 . S
H348 C334 0.960 . S
H349 C335 0.961 . S
H350 C335 0.961 . S
H351 C335 0.961 . S
H352 C336 0.931 . S
H353 C341 0.930 . S
H354 C342 0.956 . S
H355 C342 0.961 . S
H356 C342 0.961 . S
H357 C343 0.958 . S
H358 C343 0.961 . S
H359 C343 0.960 . S
C360 C361 1.391 . S
C360 C362 1.394 . S
C360 H376 0.931 . S
C361 C360 1.391 . S
C361 C365 1.384 . S
C362 C360 1.394 . S
C362 C363 1.369 . S
C362 C366 1.531 . S
C363 C362 1.369 . S
C363 C364 1.410 . S
C363 C371 1.503 . S
C364 C363 1.410 . S
C364 C365 1.381 . S
C364 C367 1.511 . S
C365 C361 1.384 . S
C365 C364 1.381 . S
C365 H377 0.933 1_545 S
C366 C362 1.531 . S
C366 H378 0.960 . S
C366 H379 0.962 1_545 S
C366 H380 0.960 . S
C367 C364 1.511 . S
C367 H381 0.961 1_545 S
C367 H382 0.961 1_545 S
C367 H383 0.961 . S
C368 C369 1.370 1_565 S
C368 C370 1.363 . S
C368 H384 0.931 . S
C369 C368 1.370 1_545 S
C369 C373 1.408 . S
C370 C368 1.363 . S
C370 C371 1.370 1_565 S
C370 C374 1.524 . S
C371 C363 1.503 . S
C371 C370 1.370 1_545 S
C371 C372 1.403 . S
C372 C371 1.403 . S
C372 C373 1.404 . S
C372 C375 1.539 . S
C373 C369 1.408 . S
C373 C372 1.404 . S
C373 H385 0.930 . S
C374 C370 1.524 . S
C374 H386 0.956 . S
C374 H387 0.961 . S
C374 H388 0.961 . S
C375 C372 1.539 . S
C375 H389 0.958 . S
C375 H390 0.961 . S
C375 H391 0.960 . S
H376 C360 0.931 . S
H377 C365 0.933 1_565 S
H378 C366 0.960 . S
H379 C366 0.962 1_565 S
H380 C366 0.960 . S
H381 C367 0.961 1_565 S
H382 C367 0.961 1_565 S
H383 C367 0.961 . S
H384 C368 0.931 . S
H385 C373 0.930 . S
H386 C374 0.956 . S
H387 C374 0.961 . S
H388 C374 0.961 . S
H389 C375 0.958 . S
H390 C375 0.961 . S
H391 C375 0.960 . S
C392 C393 1.391 . S
C392 C394 1.394 . S
C392 H408 0.931 . S
C393 C392 1.391 . S
C393 C397 1.376 . S
C394 C392 1.394 . S
C394 C395 1.369 . S
C394 C398 1.531 . S
C395 C394 1.369 . S
C395 C396 1.410 . S
C395 C403 1.503 . S
C396 C395 1.410 . S
C396 C397 1.392 . S
C396 C399 1.511 . S
C397 C393 1.376 . S
C397 C396 1.392 . S
C397 H409 0.929 . S
C398 C394 1.531 . S
C398 H410 0.960 . S
C398 H411 0.962 . S
C398 H412 0.960 . S
C399 C396 1.511 . S
C399 H413 0.961 . S
C399 H414 0.961 . S
C399 H415 0.961 . S
C400 C401 1.370 . S
C400 C402 1.363 . S
C400 H416 0.931 . S
C401 C400 1.370 . S
C401 C405 1.408 . S
C402 C400 1.363 . S
C402 C403 1.370 . S
C402 C406 1.524 . S
C403 C395 1.503 . S
C403 C402 1.370 . S
C403 C404 1.403 . S
C404 C403 1.403 . S
C404 C405 1.404 . S
C404 C407 1.539 . S
C405 C401 1.408 . S
C405 C404 1.404 . S
C405 H417 0.930 . S
C406 C402 1.524 . S
C406 H418 0.956 . S
C406 H419 0.961 . S
C406 H420 0.961 . S
C407 C404 1.539 . S
C407 H421 0.958 . S
C407 H422 0.961 . S
C407 H423 0.960 . S
H408 C392 0.931 . S
H409 C397 0.929 . S
H410 C398 0.960 . S
H411 C398 0.962 . S
H412 C398 0.960 . S
H413 C399 0.961 . S
H414 C399 0.961 . S
H415 C399 0.961 . S
H416 C400 0.931 . S
H417 C405 0.930 . S
H418 C406 0.956 . S
H419 C406 0.961 . S
H420 C406 0.961 . S
H421 C407 0.958 . S
H422 C407 0.961 . S
H423 C407 0.960 . S
C424 C425 1.391 . S
C424 C426 1.394 . S
C424 H440 0.931 . S
C425 C424 1.391 . S
C425 C429 1.376 1_655 S
C426 C424 1.394 . S
C426 C427 1.369 . S
C426 C430 1.531 . S
C427 C426 1.369 . S
C427 C428 1.410 1_655 S
C427 C435 1.503 . S
C428 C427 1.410 1_455 S
C428 C429 1.392 . S
C428 C431 1.511 . S
C429 C425 1.376 1_455 S
C429 C428 1.392 . S
C429 H441 0.929 . S
C430 C426 1.531 . S
C430 H442 0.960 . S
C430 H443 0.962 . S
C430 H444 0.960 . S
C431 C428 1.511 . S
C431 H445 0.961 . S
C431 H446 0.961 . S
C431 H447 0.961 . S
C432 C433 1.373 . S
C432 C434 1.363 . S
C432 H448 0.931 . S
C433 C432 1.373 . S
C433 C437 1.393 1_455 S
C434 C432 1.363 . S
C434 C435 1.370 1_455 S
C434 C438 1.524 . S
C435 C427 1.503 . S
C435 C434 1.370 1_655 S
C435 C436 1.403 . S
C436 C435 1.403 . S
C436 C437 1.404 . S
C436 C439 1.539 . S
C437 C433 1.393 1_655 S
C437 C436 1.404 . S
C437 H449 0.930 . S
C438 C434 1.524 . S
C438 H450 0.956 1_556 S
C438 H451 0.961 . S
C438 H452 0.961 1_556 S
C439 C436 1.539 . S
C439 H453 0.958 . S
C439 H454 0.961 . S
C439 H455 0.960 . S
H440 C424 0.931 . S
H441 C429 0.929 . S
H442 C430 0.960 . S
H443 C430 0.962 . S
H444 C430 0.960 . S
H445 C431 0.961 . S
H446 C431 0.961 . S
H447 C431 0.961 . S
H448 C432 0.931 . S
H449 C437 0.930 . S
H450 C438 0.956 1_554 S
H451 C438 0.961 . S
H452 C438 0.961 1_554 S
H453 C439 0.958 . S
H454 C439 0.961 . S
H455 C439 0.960 . S
C456 C457 1.362 1_455 S
C456 C458 1.394 . S
C456 H472 0.931 . S
C457 C456 1.362 1_655 S
C457 C461 1.390 . S
C458 C456 1.394 . S
C458 C459 1.369 1_455 S
C458 C462 1.531 . S
C459 C458 1.369 1_655 S
C459 C460 1.410 . S
C459 C467 1.503 . S
C460 C459 1.410 . S
C460 C461 1.392 . S
C460 C463 1.511 . S
C461 C457 1.390 . S
C461 C460 1.392 . S
C461 H473 0.929 . S
C462 C458 1.531 . S
C462 H474 0.960 . S
C462 H475 0.962 . S
C462 H476 0.960 . S
C463 C460 1.511 . S
C463 H477 0.961 . S
C463 H478 0.961 . S
C463 H479 0.961 . S
C464 C465 1.370 1_455 S
C464 C466 1.363 . S
C464 H480 0.931 . S
C465 C464 1.370 1_655 S
C465 C469 1.408 . S
C466 C464 1.363 . S
C466 C467 1.370 1_455 S
C466 C470 1.524 . S
C467 C459 1.503 . S
C467 C466 1.370 1_655 S
C467 C468 1.403 . S
C468 C467 1.403 . S
C468 C469 1.404 . S
C468 C471 1.539 . S
C469 C465 1.408 . S
C469 C468 1.404 . S
C469 H481 0.930 . S
C470 C466 1.524 . S
C470 H482 0.956 . S
C470 H483 0.961 . S
C470 H484 0.961 . S
C471 C468 1.539 . S
C471 H485 0.958 . S
C471 H486 0.961 . S
C471 H487 0.960 . S
H472 C456 0.931 . S
H473 C461 0.929 . S
H474 C462 0.960 . S
H475 C462 0.962 . S
H476 C462 0.960 . S
H477 C463 0.961 . S
H478 C463 0.961 . S
H479 C463 0.961 . S
H480 C464 0.931 . S
H481 C469 0.930 . S
H482 C470 0.956 . S
H483 C470 0.961 . S
H484 C470 0.961 . S
H485 C471 0.958 . S
H486 C471 0.961 . S
H487 C471 0.960 . S
C488 C489 1.391 . S
C488 C490 1.394 . S
C488 H504 0.931 . S
C489 C488 1.391 . S
C489 C493 1.376 1_565 S
C490 C488 1.394 . S
C490 C491 1.369 . S
C490 C494 1.531 . S
C491 C490 1.369 . S
C491 C492 1.410 1_565 S
C491 C499 1.503 . S
C492 C491 1.410 1_545 S
C492 C493 1.392 . S
C492 C495 1.511 . S
C493 C489 1.376 1_545 S
C493 C492 1.392 . S
C493 H505 0.929 . S
C494 C490 1.531 . S
C494 H506 0.960 . S
C494 H507 0.962 . S
C494 H508 0.960 . S
C495 C492 1.511 . S
C495 H509 0.961 . S
C495 H510 0.961 . S
C495 H511 0.961 . S
C496 C497 1.369 . S
C496 C498 1.363 . S
C496 H512 0.931 . S
C497 C496 1.369 . S
C497 C501 1.390 1_545 S
C498 C496 1.363 . S
C498 C499 1.370 1_545 S
C498 C502 1.524 . S
C499 C491 1.503 . S
C499 C498 1.370 1_565 S
C499 C500 1.403 . S
C500 C499 1.403 . S
C500 C501 1.404 . S
C500 C503 1.539 . S
C501 C497 1.390 1_565 S
C501 C500 1.404 . S
C501 H513 0.930 . S
C502 C498 1.524 . S
C502 H514 0.956 . S
C502 H515 0.961 . S
C502 H516 0.961 . S
C503 C500 1.539 . S
C503 H517 0.958 . S
C503 H518 0.961 . S
C503 H519 0.960 . S
H504 C488 0.931 . S
H505 C493 0.929 . S
H506 C494 0.960 . S
H507 C494 0.962 . S
H508 C494 0.960 . S
H509 C495 0.961 . S
H510 C495 0.961 . S
H511 C495 0.961 . S
H512 C496 0.931 . S
H513 C501 0.930 . S
H514 C502 0.956 . S
H515 C502 0.961 . S
H516 C502 0.961 . S
H517 C503 0.958 . S
H518 C503 0.961 . S
H519 C503 0.960 . S
C520 C521 1.391 . S
C520 C522 1.394 . S
C520 H536 0.931 . S
C521 C520 1.391 . S
C521 C525 1.376 . S
C522 C520 1.394 . S
C522 C523 1.369 . S
C522 C526 1.531 . S
C523 C522 1.369 . S
C523 C524 1.410 . S
C523 C531 1.503 . S
C524 C523 1.410 . S
C524 C525 1.392 . S
C524 C527 1.511 . S
C525 C521 1.376 . S
C525 C524 1.392 . S
C525 H537 0.929 . S
C526 C522 1.531 . S
C526 H538 0.960 1_554 S
C526 H539 0.962 . S
C526 H540 0.960 1_554 S
C527 C524 1.511 . S
C527 H541 0.961 . S
C527 H542 0.961 . S
C527 H543 0.961 . S
C528 C529 1.370 . S
C528 C530 1.363 . S
C528 H544 0.931 . S
C529 C528 1.370 . S
C529 C533 1.408 . S
C530 C528 1.363 . S
C530 C531 1.370 . S
C530 C534 1.524 . S
C531 C523 1.503 . S
C531 C530 1.370 . S
C531 C532 1.403 . S
C532 C531 1.403 . S
C532 C533 1.404 . S
C532 C535 1.539 . S
C533 C529 1.408 . S
C533 C532 1.404 . S
C533 H545 0.930 . S
C534 C530 1.524 . S
C534 H546 0.956 . S
C534 H547 0.961 . S
C534 H548 0.961 . S
C535 C532 1.539 . S
C535 H549 0.958 1_554 S
C535 H550 0.961 . S
C535 H551 0.960 . S
H536 C520 0.931 . S
H537 C525 0.929 . S
H538 C526 0.960 1_556 S
H539 C526 0.962 . S
H540 C526 0.960 1_556 S
H541 C527 0.961 . S
H542 C527 0.961 . S
H543 C527 0.961 . S
H544 C528 0.931 . S
H545 C533 0.930 . S
H546 C534 0.956 . S
H547 C534 0.961 . S
H548 C534 0.961 . S
H549 C535 0.958 1_556 S
H550 C535 0.961 . S
H551 C535 0.960 . S
C552 C553 1.391 . S
C552 C554 1.394 . S
C552 H568 0.931 . S
C553 C552 1.391 . S
C553 C557 1.376 . S
C554 C552 1.394 . S
C554 C555 1.369 . S
C554 C558 1.531 . S
C555 C554 1.369 . S
C555 C556 1.410 . S
C555 C563 1.503 . S
C556 C555 1.410 . S
C556 C557 1.392 . S
C556 C559 1.511 . S
C557 C553 1.376 . S
C557 C556 1.392 . S
C557 H569 0.929 . S
C558 C554 1.531 . S
C558 H570 0.960 . S
C558 H571 0.962 . S
C558 H572 0.960 . S
C559 C556 1.511 . S
C559 H573 0.961 . S
C559 H574 0.961 . S
C559 H575 0.961 . S
C560 C561 1.370 . S
C560 C562 1.363 . S
C560 H576 0.931 . S
C561 C560 1.370 . S
C561 C565 1.408 . S
C562 C560 1.363 . S
C562 C563 1.370 . S
C562 C566 1.524 . S
C563 C555 1.503 . S
C563 C562 1.370 . S
C563 C564 1.403 . S
C564 C563 1.403 . S
C564 C565 1.404 . S
C564 C567 1.539 . S
C565 C561 1.408 . S
C565 C564 1.404 . S
C565 H577 0.930 . S
C566 C562 1.524 . S
C566 H578 0.956 . S
C566 H579 0.961 . S
C566 H580 0.961 . S
C567 C564 1.539 . S
C567 H581 0.958 . S
C567 H582 0.961 . S
C567 H583 0.960 . S
H568 C552 0.931 . S
H569 C557 0.929 . S
H570 C558 0.960 . S
H571 C558 0.962 . S
H572 C558 0.960 . S
H573 C559 0.961 . S
H574 C559 0.961 . S
H575 C559 0.961 . S
H576 C560 0.931 . S
H577 C565 0.930 . S
H578 C566 0.956 . S
H579 C566 0.961 . S
H580 C566 0.961 . S
H581 C567 0.958 . S
H582 C567 0.961 . S
H583 C567 0.960 . S
C584 C585 1.391 . S
C584 C586 1.394 . S
C584 H600 0.931 . S
C585 C584 1.391 . S
C585 C589 1.376 . S
C586 C584 1.394 . S
C586 C587 1.369 . S
C586 C590 1.531 . S
C587 C586 1.369 . S
C587 C588 1.410 . S
C587 C595 1.503 . S
C588 C587 1.410 . S
C588 C589 1.392 . S
C588 C591 1.511 . S
C589 C585 1.376 . S
C589 C588 1.392 . S
C589 H601 0.929 . S
C590 C586 1.531 . S
C590 H602 0.960 . S
C590 H603 0.962 . S
C590 H604 0.960 . S
C591 C588 1.511 . S
C591 H605 0.961 . S
C591 H606 0.961 . S
C591 H607 0.961 . S
C592 C593 1.370 . S
C592 C594 1.363 . S
C592 H608 0.931 . S
C593 C592 1.370 . S
C593 C597 1.408 . S
C594 C592 1.363 . S
C594 C595 1.370 . S
C594 C598 1.524 . S
C595 C587 1.503 . S
C595 C594 1.370 . S
C595 C596 1.403 . S
C596 C595 1.403 . S
C596 C597 1.404 . S
C596 C599 1.539 . S
C597 C593 1.408 . S
C597 C596 1.404 . S
C597 H609 0.930 . S
C598 C594 1.524 . S
C598 H610 0.956 . S
C598 H611 0.961 . S
C598 H612 0.961 . S
C599 C596 1.539 . S
C599 H613 0.958 . S
C599 H614 0.961 . S
C599 H615 0.960 . S
H600 C584 0.931 . S
H601 C589 0.929 . S
H602 C590 0.960 . S
H603 C590 0.962 . S
H604 C590 0.960 . S
H605 C591 0.961 . S
H606 C591 0.961 . S
H607 C591 0.961 . S
H608 C592 0.931 . S
H609 C597 0.930 . S
H610 C598 0.956 . S
H611 C598 0.961 . S
H612 C598 0.961 . S
H613 C599 0.958 . S
H614 C599 0.961 . S
H615 C599 0.960 . S
C616 C617 1.391 . S
C616 C618 1.394 . S
C616 H632 0.931 . S
C617 C616 1.391 . S
C617 C621 1.376 . S
C618 C616 1.394 . S
C618 C619 1.369 . S
C618 C622 1.531 . S
C619 C618 1.369 . S
C619 C620 1.410 . S
C619 C627 1.503 1_554 S
C620 C619 1.410 . S
C620 C621 1.392 . S
C620 C623 1.511 1_554 S
C621 C617 1.376 . S
C621 C620 1.392 . S
C621 H633 0.929 . S
C622 C618 1.531 . S
C622 H634 0.960 . S
C622 H635 0.962 . S
C622 H636 0.960 . S
C623 C620 1.511 1_556 S
C623 H637 0.961 . S
C623 H638 0.961 . S
C623 H639 0.961 1_556 S
C624 C625 1.370 . S
C624 C626 1.363 . S
C624 H640 0.931 . S
C625 C624 1.370 . S
C625 C629 1.408 . S
C626 C624 1.363 . S
C626 C627 1.370 . S
C626 C630 1.524 . S
C627 C619 1.503 1_556 S
C627 C626 1.370 . S
C627 C628 1.403 1_556 S
C628 C627 1.403 1_554 S
C628 C629 1.404 1_554 S
C628 C631 1.539 . S
C629 C625 1.408 . S
C629 C628 1.404 1_556 S
C629 H641 0.930 1_556 S
C630 C626 1.524 . S
C630 H642 0.956 . S
C630 H643 0.961 . S
C630 H644 0.961 . S
C631 C628 1.539 . S
C631 H645 0.958 . S
C631 H646 0.961 . S
C631 H647 0.960 . S
H632 C616 0.931 . S
H633 C621 0.929 . S
H634 C622 0.960 . S
H635 C622 0.962 . S
H636 C622 0.960 . S
H637 C623 0.961 . S
H638 C623 0.961 . S
H639 C623 0.961 1_554 S
H640 C624 0.931 . S
H641 C629 0.930 1_554 S
H642 C630 0.956 . S
H643 C630 0.961 . S
H644 C630 0.961 . S
H645 C631 0.958 . S
H646 C631 0.961 . S
H647 C631 0.960 . S
C648 C649 1.391 . S
C648 C650 1.394 . S
C648 H664 0.931 . S
C649 C648 1.391 . S
C649 C653 1.376 . S
C650 C648 1.394 . S
C650 C651 1.369 . S
C650 C654 1.531 . S
C651 C650 1.369 . S
C651 C652 1.410 . S
C651 C659 1.503 . S
C652 C651 1.410 . S
C652 C653 1.392 . S
C652 C655 1.511 . S
C653 C649 1.376 . S
C653 C652 1.392 . S
C653 H665 0.929 . S
C654 C650 1.531 . S
C654 H666 0.960 . S
C654 H667 0.962 . S
C654 H668 0.960 . S
C655 C652 1.511 . S
C655 H669 0.961 . S
C655 H670 0.961 . S
C655 H671 0.961 . S
C656 C657 1.370 . S
C656 C658 1.363 . S
C656 H672 0.931 . S
C657 C656 1.370 . S
C657 C661 1.408 . S
C658 C656 1.363 . S
C658 C659 1.370 . S
C658 C662 1.524 . S
C659 C651 1.503 . S
C659 C658 1.370 . S
C659 C660 1.403 . S
C660 C659 1.403 . S
C660 C661 1.404 . S
C660 C663 1.539 . S
C661 C657 1.408 . S
C661 C660 1.404 . S
C661 H673 0.930 . S
C662 C658 1.524 . S
C662 H674 0.956 . S
C662 H675 0.961 . S
C662 H676 0.961 . S
C663 C660 1.539 . S
C663 H677 0.958 . S
C663 H678 0.961 . S
C663 H679 0.960 . S
H664 C648 0.931 . S
H665 C653 0.929 . S
H666 C654 0.960 . S
H667 C654 0.962 . S
H668 C654 0.960 . S
H669 C655 0.961 . S
H670 C655 0.961 . S
H671 C655 0.961 . S
H672 C656 0.931 . S
H673 C661 0.930 . S
H674 C662 0.956 . S
H675 C662 0.961 . S
H676 C662 0.961 . S
H677 C663 0.958 . S
H678 C663 0.961 . S
H679 C663 0.960 . S
C680 C681 1.391 . S
C680 C682 1.394 . S
C680 H696 0.931 . S
C681 C680 1.391 . S
C681 C685 1.376 . S
C682 C680 1.394 . S
C682 C683 1.369 . S
C682 C686 1.531 . S
C683 C682 1.369 . S
C683 C684 1.410 . S
C683 C691 1.503 . S
C684 C683 1.410 . S
C684 C685 1.392 . S
C684 C687 1.511 . S
C685 C681 1.376 . S
C685 C684 1.392 . S
C685 H697 0.929 . S
C686 C682 1.531 . S
C686 H698 0.960 . S
C686 H699 0.962 . S
C686 H700 0.960 . S
C687 C684 1.511 . S
C687 H701 0.961 . S
C687 H702 0.961 . S
C687 H703 0.961 . S
C688 C689 1.370 . S
C688 C690 1.363 . S
C688 H704 0.931 . S
C689 C688 1.370 . S
C689 C693 1.408 . S
C690 C688 1.363 . S
C690 C691 1.370 . S
C690 C694 1.524 . S
C691 C683 1.503 . S
C691 C690 1.370 . S
C691 C692 1.403 . S
C692 C691 1.403 . S
C692 C693 1.404 . S
C692 C695 1.539 . S
C693 C689 1.408 . S
C693 C692 1.404 . S
C693 H705 0.930 . S
C694 C690 1.524 . S
C694 H706 0.956 . S
C694 H707 0.961 . S
C694 H708 0.961 . S
C695 C692 1.539 . S
C695 H709 0.958 . S
C695 H710 0.961 . S
C695 H711 0.960 . S
H696 C680 0.931 . S
H697 C685 0.929 . S
H698 C686 0.960 . S
H699 C686 0.962 . S
H700 C686 0.960 . S
H701 C687 0.961 . S
H702 C687 0.961 . S
H703 C687 0.961 . S
H704 C688 0.931 . S
H705 C693 0.930 . S
H706 C694 0.956 . S
H707 C694 0.961 . S
H708 C694 0.961 . S
H709 C695 0.958 . S
H710 C695 0.961 . S
H711 C695 0.960 . S
C712 C713 1.391 . S
C712 C714 1.394 . S
C712 H728 0.931 . S
C713 C712 1.391 . S
C713 C717 1.376 . S
C714 C712 1.394 . S
C714 C715 1.369 . S
C714 C718 1.531 1_554 S
C715 C714 1.369 . S
C715 C716 1.410 . S
C715 C723 1.503 1_554 S
C716 C715 1.410 . S
C716 C717 1.392 . S
C716 C719 1.511 . S
C717 C713 1.376 . S
C717 C716 1.392 . S
C717 H729 0.929 . S
C718 C714 1.531 1_556 S
C718 H730 0.960 . S
C718 H731 0.962 . S
C718 H732 0.960 . S
C719 C716 1.511 . S
C719 H733 0.961 . S
C719 H734 0.961 . S
C719 H735 0.961 . S
C720 C721 1.370 . S
C720 C722 1.363 . S
C720 H736 0.931 . S
C721 C720 1.370 . S
C721 C725 1.408 . S
C722 C720 1.363 . S
C722 C723 1.370 . S
C722 C726 1.524 . S
C723 C715 1.503 1_556 S
C723 C722 1.370 . S
C723 C724 1.403 1_556 S
C724 C723 1.403 1_554 S
C724 C725 1.404 1_554 S
C724 C727 1.539 . S
C725 C721 1.408 . S
C725 C724 1.404 1_556 S
C725 H737 0.930 . S
C726 C722 1.524 . S
C726 H738 0.956 . S
C726 H739 0.961 . S
C726 H740 0.961 . S
C727 C724 1.539 . S
C727 H741 0.958 . S
C727 H742 0.961 . S
C727 H743 0.960 . S
H728 C712 0.931 . S
H729 C717 0.929 . S
H730 C718 0.960 . S
H731 C718 0.962 . S
H732 C718 0.960 . S
H733 C719 0.961 . S
H734 C719 0.961 . S
H735 C719 0.961 . S
H736 C720 0.931 . S
H737 C725 0.930 . S
H738 C726 0.956 . S
H739 C726 0.961 . S
H740 C726 0.961 . S
H741 C727 0.958 . S
H742 C727 0.961 . S
H743 C727 0.960 . S
C744 C745 1.391 . S
C744 C746 1.394 . S
C744 H760 0.931 . S
C745 C744 1.391 . S
C745 C749 1.376 . S
C746 C744 1.394 . S
C746 C747 1.369 . S
C746 C750 1.531 . S
C747 C746 1.369 . S
C747 C748 1.410 . S
C747 C755 1.503 . S
C748 C747 1.410 . S
C748 C749 1.392 . S
C748 C751 1.511 1_545 S
C749 C745 1.376 . S
C749 C748 1.392 . S
C749 H761 0.929 . S
C750 C746 1.531 . S
C750 H762 0.960 . S
C750 H763 0.962 . S
C750 H764 0.960 . S
C751 C748 1.511 1_565 S
C751 H765 0.961 . S
C751 H766 0.961 . S
C751 H767 0.961 1_565 S
C752 C753 1.370 . S
C752 C754 1.363 . S
C752 H768 0.931 . S
C753 C752 1.370 . S
C753 C757 1.408 1_565 S
C754 C752 1.363 . S
C754 C755 1.370 1_565 S
C754 C758 1.524 . S
C755 C747 1.503 . S
C755 C754 1.370 1_545 S
C755 C756 1.403 . S
C756 C755 1.403 . S
C756 C757 1.404 . S
C756 C759 1.539 . S
C757 C753 1.408 1_545 S
C757 C756 1.404 . S
C757 H769 0.930 . S
C758 C754 1.524 . S
C758 H770 0.956 . S
C758 H771 0.961 . S
C758 H772 0.961 . S
C759 C756 1.539 . S
C759 H773 0.958 . S
C759 H774 0.961 . S
C759 H775 0.960 . S
H760 C744 0.931 . S
H761 C749 0.929 . S
H762 C750 0.960 . S
H763 C750 0.962 . S
H764 C750 0.960 . S
H765 C751 0.961 . S
H766 C751 0.961 . S
H767 C751 0.961 1_545 S
H768 C752 0.931 . S
H769 C757 0.930 . S
H770 C758 0.956 . S
H771 C758 0.961 . S
H772 C758 0.961 . S
H773 C759 0.958 . S
H774 C759 0.961 . S
H775 C759 0.960 . S
C776 C777 1.391 . S
C776 C778 1.394 . S
C776 H792 0.931 . S
C777 C776 1.391 . S
C777 C781 1.376 . S
C778 C776 1.394 . S
C778 C779 1.369 . S
C778 C782 1.531 . S
C779 C778 1.369 . S
C779 C780 1.410 . S
C779 C787 1.503 . S
C780 C779 1.410 . S
C780 C781 1.392 . S
C780 C783 1.511 . S
C781 C777 1.376 . S
C781 C780 1.392 . S
C781 H793 0.929 . S
C782 C778 1.531 . S
C782 H794 0.960 . S
C782 H795 0.962 . S
C782 H796 0.960 . S
C783 C780 1.511 . S
C783 H797 0.961 . S
C783 H798 0.961 . S
C783 H799 0.961 . S
C784 C785 1.370 . S
C784 C786 1.363 . S
C784 H800 0.931 . S
C785 C784 1.370 . S
C785 C789 1.408 . S
C786 C784 1.363 . S
C786 C787 1.370 . S
C786 C790 1.524 . S
C787 C779 1.503 . S
C787 C786 1.370 . S
C787 C788 1.403 . S
C788 C787 1.403 . S
C788 C789 1.404 . S
C788 C791 1.539 . S
C789 C785 1.408 . S
C789 C788 1.404 . S
C789 H801 0.930 . S
C790 C786 1.524 . S
C790 H802 0.956 . S
C790 H803 0.961 . S
C790 H804 0.961 . S
C791 C788 1.539 . S
C791 H805 0.958 . S
C791 H806 0.961 . S
C791 H807 0.960 . S
H792 C776 0.931 . S
H793 C781 0.929 . S
H794 C782 0.960 . S
H795 C782 0.962 . S
H796 C782 0.960 . S
H797 C783 0.961 . S
H798 C783 0.961 . S
H799 C783 0.961 . S
H800 C784 0.931 . S
H801 C789 0.930 . S
H802 C790 0.956 . S
H803 C790 0.961 . S
H804 C790 0.961 . S
H805 C791 0.958 . S
H806 C791 0.961 . S
H807 C791 0.960 . S
C808 C809 1.391 . S
C808 C810 1.394 1_455 S
C808 H824 0.926 . S
C809 C808 1.391 . S
C809 C813 1.376 . S
C810 C808 1.394 1_655 S
C810 C811 1.369 . S
C810 C814 1.531 . S
C811 C810 1.369 . S
C811 C812 1.410 1_655 S
C811 C819 1.503 . S
C812 C811 1.410 1_455 S
C812 C813 1.392 . S
C812 C815 1.511 . S
C813 C809 1.376 . S
C813 C812 1.392 . S
C813 H825 0.929 . S
C814 C810 1.531 . S
C814 H826 0.960 . S
C814 H827 0.962 1_655 S
C814 H828 0.960 . S
C815 C812 1.511 . S
C815 H829 0.961 . S
C815 H830 0.961 . S
C815 H831 0.961 1_455 S
C816 C817 1.370 1_455 S
C816 C818 1.363 . S
C816 H832 0.931 . S
C817 C816 1.370 1_655 S
C817 C821 1.408 . S
C818 C816 1.363 . S
C818 C819 1.370 1_455 S
C818 C822 1.524 . S
C819 C811 1.503 . S
C819 C818 1.370 1_655 S
C819 C820 1.403 . S
C820 C819 1.403 . S
C820 C821 1.404 . S
C820 C823 1.539 . S
C821 C817 1.408 . S
C821 C820 1.404 . S
C821 H833 0.930 . S
C822 C818 1.524 . S
C822 H834 0.956 . S
C822 H835 0.961 . S
C822 H836 0.961 . S
C823 C820 1.539 . S
C823 H837 0.958 . S
C823 H838 0.961 . S
C823 H839 0.960 . S
H824 C808 0.926 . S
H825 C813 0.929 . S
H826 C814 0.960 . S
H827 C814 0.962 1_455 S
H828 C814 0.960 . S
H829 C815 0.961 . S
H830 C815 0.961 . S
H831 C815 0.961 1_655 S
H832 C816 0.931 . S
H833 C821 0.930 . S
H834 C822 0.956 . S
H835 C822 0.961 . S
H836 C822 0.961 . S
H837 C823 0.958 . S
H838 C823 0.961 . S
H839 C823 0.960 . S
C840 C841 1.391 . S
C840 C842 1.394 . S
C840 H856 0.931 . S
C841 C840 1.391 . S
C841 C845 1.376 1_565 S
C842 C840 1.394 . S
C842 C843 1.369 . S
C842 C846 1.531 . S
C843 C842 1.369 . S
C843 C844 1.410 1_565 S
C843 C851 1.503 . S
C844 C843 1.410 1_545 S
C844 C845 1.392 . S
C844 C847 1.511 . S
C845 C841 1.376 1_545 S
C845 C844 1.392 . S
C845 H857 0.929 . S
C846 C842 1.531 . S
C846 H858 0.960 . S
C846 H859 0.962 . S
C846 H860 0.960 . S
C847 C844 1.511 . S
C847 H861 0.961 . S
C847 H862 0.961 . S
C847 H863 0.961 . S
C848 C849 1.370 . S
C848 C850 1.363 . S
C848 H864 0.931 . S
C849 C848 1.370 . S
C849 C853 1.408 1_545 S
C850 C848 1.363 . S
C850 C851 1.370 1_545 S
C850 C854 1.524 . S
C851 C843 1.503 . S
C851 C850 1.370 1_565 S
C851 C852 1.403 . S
C852 C851 1.403 . S
C852 C853 1.404 . S
C852 C855 1.539 . S
C853 C849 1.408 1_565 S
C853 C852 1.404 . S
C853 H865 0.930 . S
C854 C850 1.524 . S
C854 H866 0.956 . S
C854 H867 0.961 . S
C854 H868 0.961 . S
C855 C852 1.539 . S
C855 H869 0.958 . S
C855 H870 0.961 . S
C855 H871 0.960 . S
H856 C840 0.931 . S
H857 C845 0.929 . S
H858 C846 0.960 . S
H859 C846 0.962 . S
H860 C846 0.960 . S
H861 C847 0.961 . S
H862 C847 0.961 . S
H863 C847 0.961 . S
H864 C848 0.931 . S
H865 C853 0.930 . S
H866 C854 0.956 . S
H867 C854 0.961 . S
H868 C854 0.961 . S
H869 C855 0.958 . S
H870 C855 0.961 . S
H871 C855 0.960 . S
C872 C873 1.391 . S
C872 C874 1.394 . S
C872 H888 0.931 . S
C873 C872 1.391 . S
C873 C877 1.376 . S
C874 C872 1.394 . S
C874 C875 1.369 . S
C874 C878 1.531 . S
C875 C874 1.369 . S
C875 C876 1.410 . S
C875 C883 1.503 . S
C876 C875 1.410 . S
C876 C877 1.392 . S
C876 C879 1.511 . S
C877 C873 1.376 . S
C877 C876 1.392 . S
C877 H889 0.929 . S
C878 C874 1.531 . S
C878 H890 0.960 . S
C878 H891 0.962 . S
C878 H892 0.960 . S
C879 C876 1.511 . S
C879 H893 0.961 . S
C879 H894 0.961 . S
C879 H895 0.961 . S
C880 C881 1.370 . S
C880 C882 1.363 . S
C880 H896 0.931 . S
C881 C880 1.370 . S
C881 C885 1.408 . S
C882 C880 1.363 . S
C882 C883 1.370 . S
C882 C886 1.524 . S
C883 C875 1.503 . S
C883 C882 1.370 . S
C883 C884 1.403 . S
C884 C883 1.403 . S
C884 C885 1.404 . S
C884 C887 1.539 . S
C885 C881 1.408 . S
C885 C884 1.404 . S
C885 H897 0.930 . S
C886 C882 1.524 . S
C886 H898 0.956 . S
C886 H899 0.961 . S
C886 H900 0.961 . S
C887 C884 1.539 . S
C887 H901 0.958 . S
C887 H902 0.961 . S
C887 H903 0.960 . S
H888 C872 0.931 . S
H889 C877 0.929 . S
H890 C878 0.960 . S
H891 C878 0.962 . S
H892 C878 0.960 . S
H893 C879 0.961 . S
H894 C879 0.961 . S
H895 C879 0.961 . S
H896 C880 0.931 . S
H897 C885 0.930 . S
H898 C886 0.956 . S
H899 C886 0.961 . S
H900 C886 0.961 . S
H901 C887 0.958 . S
H902 C887 0.961 . S
H903 C887 0.960 . S
C904 C905 1.391 1_455 S
C904 C906 1.394 . S
C904 H920 0.931 . S
C905 C904 1.391 1_655 S
C905 C909 1.376 . S
C906 C904 1.394 . S
C906 C907 1.369 1_455 S
C906 C910 1.531 . S
C907 C906 1.369 1_655 S
C907 C908 1.410 . S
C907 C915 1.503 . S
C908 C907 1.410 . S
C908 C909 1.392 . S
C908 C911 1.511 . S
C909 C905 1.376 . S
C909 C908 1.392 . S
C909 H921 0.929 . S
C910 C906 1.531 . S
C910 H922 0.960 . S
C910 H923 0.962 . S
C910 H924 0.960 . S
C911 C908 1.511 . S
C911 H925 0.961 . S
C911 H926 0.961 . S
C911 H927 0.961 . S
C912 C913 1.370 . S
C912 C914 1.363 . S
C912 H928 0.931 . S
C913 C912 1.370 . S
C913 C917 1.408 1_455 S
C914 C912 1.363 . S
C914 C915 1.370 1_455 S
C914 C918 1.524 . S
C915 C907 1.503 . S
C915 C914 1.370 1_655 S
C915 C916 1.403 . S
C916 C915 1.403 . S
C916 C917 1.404 . S
C916 C919 1.539 . S
C917 C913 1.408 1_655 S
C917 C916 1.404 . S
C917 H929 0.930 . S
C918 C914 1.524 . S
C918 H930 0.956 . S
C918 H931 0.961 . S
C918 H932 0.961 . S
C919 C916 1.539 . S
C919 H933 0.958 . S
C919 H934 0.961 . S
C919 H935 0.960 . S
H920 C904 0.931 . S
H921 C909 0.929 . S
H922 C910 0.960 . S
H923 C910 0.962 . S
H924 C910 0.960 . S
H925 C911 0.961 . S
H926 C911 0.961 . S
H927 C911 0.961 . S
H928 C912 0.931 . S
H929 C917 0.930 . S
H930 C918 0.956 . S
H931 C918 0.961 . S
H932 C918 0.961 . S
H933 C919 0.958 . S
H934 C919 0.961 . S
H935 C919 0.960 . S
C169 C11 1.788 . S
C177 C123 1.775 . S
C201 C25 1.779 . S
C209 C137 1.780 . S
C233 C151 1.746 . S
C241 C39 1.728 . S
C265 C165 1.782 . S
C273 C53 1.768 . S
C297 C95 1.764 . S
C305 C67 1.760 . S
C329 C109 1.709 . S
C337 C81 1.729 . S
C361 C12 1.436 1_545 S
C369 C54 1.446 . S
C393 C68 1.409 . S
C401 C26 1.420 . S
C425 C82 1.406 . S
C433 C40 1.410 . S
C457 C96 1.464 1_655 S
C465 C138 1.450 . S
C489 C152 1.407 . S
C497 C110 1.418 . S
C521 C124 1.413 . S
C529 C166 1.420 . S
C553 C89 1.158 . S
C561 C5 1.216 . S
C585 C19 1.202 . S
C593 C103 1.155 . S
C617 C117 1.125 . S
C625 C33 1.180 . S
C649 C131 1.211 . S
C657 C47 1.208 . S
C681 C61 1.190 . S
C689 C145 1.153 . S
C713 C159 1.138 . S
C721 C75 1.186 . S
C745 C4 0.864 . S
C753 C102 0.869 . S
C777 C116 0.907 . S
C785 C18 0.892 . S
C809 C130 0.857 . S
C817 C32 0.856 . S
C841 C46 0.871 . S
C849 C144 0.871 . S
C873 C158 0.908 . S
C881 C60 0.891 . S
C905 C88 0.839 . S
C913 C74 0.858 . S
