# Generated by pormake.
# Topology wli, (5)-cn, num edge types: 1
# Building blocks:
#     Node 0, Type 0, BuildingBlock: XOMCOT_clean_sbu_1, # of connection points: 5
#     Node 1, Type 0, BuildingBlock: XOMCOT_clean_sbu_1, # of connection points: 5
#     Node 2, Type 0, BuildingBlock: XOMCOT_clean_sbu_1, # of connection points: 5
#     Node 3, Type 0, BuildingBlock: XOMCOT_clean_sbu_1, # of connection points: 5
#     Node 4, Type 0, BuildingBlock: XOMCOT_clean_sbu_1, # of connection points: 5
#     Node 5, Type 0, BuildingBlock: XOMCOT_clean_sbu_1, # of connection points: 5
#     Edge 6, Type (0, 0), BuildingBlock: OJICUG_clean_linker_0, # of connection points: 2
#     Edge 7, Type (0, 0), BuildingBlock: OJICUG_clean_linker_0, # of connection points: 2
#     Edge 8, Type (0, 0), BuildingBlock: OJICUG_clean_linker_0, # of connection points: 2
#     Edge 9, Type (0, 0), BuildingBlock: OJICUG_clean_linker_0, # of connection points: 2
#     Edge 10, Type (0, 0), BuildingBlock: OJICUG_clean_linker_0, # of connection points: 2
#     Edge 11, Type (0, 0), BuildingBlock: OJICUG_clean_linker_0, # of connection points: 2
#     Edge 12, Type (0, 0), BuildingBlock: OJICUG_clean_linker_0, # of connection points: 2
#     Edge 13, Type (0, 0), BuildingBlock: OJICUG_clean_linker_0, # of connection points: 2
#     Edge 14, Type (0, 0), BuildingBlock: OJICUG_clean_linker_0, # of connection points: 2
#     Edge 15, Type (0, 0), BuildingBlock: OJICUG_clean_linker_0, # of connection points: 2
#     Edge 16, Type (0, 0), BuildingBlock: OJICUG_clean_linker_0, # of connection points: 2
#     Edge 17, Type (0, 0), BuildingBlock: OJICUG_clean_linker_0, # of connection points: 2
#     Edge 18, Type (0, 0), BuildingBlock: OJICUG_clean_linker_0, # of connection points: 2
#     Edge 19, Type (0, 0), BuildingBlock: OJICUG_clean_linker_0, # of connection points: 2
#     Edge 20, Type (0, 0), BuildingBlock: OJICUG_clean_linker_0, # of connection points: 2
# Relax obj value: 0.117
# Max RMSD: 0.139
# Mean RMSD: 0.139
data_MOF--net-wli--node1-XOMCOT_clean_sbu_1--edge1-OJICUG_clean_linker_0
_symmetry_space_group_name_H-M    P1
_symmetry_Int_Tables_number       1
_symmetry_cell_setting            triclinic
loop_
_symmetry_equiv_pos_as_xyz
'x, y, z'
_cell_length_a     26.139399
_cell_length_b     26.149083
_cell_length_c     21.429535
_cell_angle_alpha  90.079813
_cell_angle_beta   89.947398
_cell_angle_gamma 120.04121
loop_
_atom_site_label
_atom_site_type_symbol
_atom_site_fract_x
_atom_site_fract_y
_atom_site_fract_z
_atom_type_partial_charge
C0 C 0.25463 0.55085 0.02215 0.0
C1 C 0.29657 0.60076 0.99179 0.0
N2 N 0.35041 0.60786 0.00406 0.0
N3 N 0.28169 0.52599 0.05266 0.0
C4 C 0.33978 0.56196 0.04164 0.0
H5 H 0.20737 0.53339 0.02164 0.0
Co6 Co 0.24619 0.45956 0.10387 0.0
C7 C 0.29842 0.38815 0.05969 0.0
O8 O 0.24441 0.3428 0.06259 0.0
N9 N 0.20955 0.3948 0.16021 0.0
C10 C 0.1925 0.32858 0.23493 0.0
C11 C 0.23168 0.36437 0.18979 0.0
C12 C 0.15877 0.37935 0.19154 0.0
N13 N 0.14674 0.33842 0.23606 0.0
O14 O 0.29107 0.50883 0.17213 0.0
H15 H 0.27515 0.37022 0.18223 0.0
H16 H 0.13213 0.39975 0.18394 0.0
O17 O 0.30849 0.43896 0.07927 0.0
C18 C 0.25884 0.52893 0.19314 0.0
O19 O 0.20698 0.51055 0.16711 0.0
N20 N 0.19854 0.41415 0.03552 0.0
C21 C 0.12936 0.35989 0.93047 0.0
C22 C 0.1908 0.39341 0.92554 0.0
C23 C 0.22443 0.4206 0.9783 0.0
C24 C 0.1384 0.38238 0.04057 0.0
C25 C 0.10303 0.35382 0.98887 0.0
H26 H 0.27163 0.44828 0.9726 0.0
H27 H 0.11674 0.38109 0.08349 0.0
H28 H 0.37342 0.55446 0.06155 0.0
H29 H 0.28759 0.62857 0.96182 0.0
H30 H 0.19898 0.3004 0.26706 0.0
H31 H 0.21269 0.39981 0.8809 0.0
H32 H 0.05539 0.33004 0.99389 0.0
C33 C 0.54046 0.72287 0.69246 0.0
C34 C 0.49107 0.71465 0.66072 0.0
N35 N 0.48385 0.7615 0.67174 0.0
N36 N 0.56488 0.77507 0.72261 0.0
C37 C 0.52916 0.7971 0.70991 0.0
H38 H 0.55772 0.69294 0.69335 0.0
Co39 Co 0.62993 0.80666 0.77606 0.0
C40 C 0.70279 0.92899 0.72904 0.0
O41 O 0.74797 0.92032 0.73437 0.0
N42 N 0.69323 0.83582 0.83476 0.0
C43 C 0.75913 0.88694 0.9093 0.0
C44 C 0.72441 0.88944 0.86232 0.0
C45 C 0.70699 0.80093 0.86928 0.0
N46 N 0.74776 0.83095 0.91365 0.0
O47 O 0.57916 0.80403 0.84173 0.0
H48 H 0.72005 0.92747 0.85185 0.0
H49 H 0.68596 0.75358 0.86357 0.0
O50 O 0.65161 0.8889 0.74843 0.0
C51 C 0.55883 0.75205 0.86374 0.0
O52 O 0.57727 0.71805 0.83913 0.0
N53 N 0.67699 0.80246 0.71064 0.0
C54 C 0.73659 0.78573 0.61136 0.0
C55 C 0.70253 0.81266 0.60171 0.0
C56 C 0.67285 0.82018 0.6517 0.0
C57 C 0.70854 0.7745 0.72017 0.0
C58 C 0.73983 0.7671 0.67174 0.0
H59 H 0.64525 0.83922 0.64251 0.0
H60 H 0.70812 0.75532 0.7644 0.0
H61 H 0.53624 0.8383 0.72932 0.0
H62 H 0.46358 0.6775 0.63087 0.0
H63 H 0.78794 0.92272 0.94011 0.0
H64 H 0.69681 0.82584 0.55555 0.0
H65 H 0.76505 0.74545 0.68144 0.0
C66 C 0.36593 0.83236 0.35795 0.0
C67 C 0.37254 0.7905 0.32544 0.0
N68 N 0.32484 0.73697 0.33642 0.0
N69 N 0.31394 0.8055 0.38857 0.0
C70 C 0.29042 0.7476 0.37535 0.0
H71 H 0.39676 0.87939 0.35895 0.0
Co72 Co 0.2837 0.8398 0.44274 0.0
C73 C 0.16114 0.79131 0.3965 0.0
O74 O 0.1704 0.84535 0.40207 0.0
N75 N 0.25562 0.87455 0.5021 0.0
C76 C 0.20498 0.88949 0.57709 0.0
C77 C 0.20212 0.85227 0.52987 0.0
C78 C 0.29084 0.92315 0.53675 0.0
N79 N 0.2611 0.93402 0.5814 0.0
O80 O 0.28652 0.79156 0.50815 0.0
H81 H 0.16388 0.80996 0.51937 0.0
H82 H 0.3382 0.94933 0.53092 0.0
O83 O 0.20092 0.77976 0.41569 0.0
C84 C 0.33892 0.82332 0.5293 0.0
O85 O 0.37273 0.87548 0.50405 0.0
N86 N 0.28802 0.8913 0.37764 0.0
C87 C 0.30548 0.96827 0.27891 0.0
C88 C 0.27765 0.90721 0.26894 0.0
C89 C 0.26978 0.86968 0.31864 0.0
C90 C 0.3168 0.95084 0.38746 0.0
C91 C 0.32456 0.98985 0.33936 0.0
H92 H 0.25007 0.82298 0.30918 0.0
H93 H 0.33639 0.96934 0.43169 0.0
H94 H 0.24898 0.71394 0.39485 0.0
H95 H 0.40905 0.79925 0.29498 0.0
H96 H 0.16934 0.88262 0.60804 0.0
H97 H 0.26403 0.88847 0.22272 0.0
H98 H 0.34687 0.03673 0.34934 0.0
C99 C 0.56337 0.2385 0.9756 0.0
C100 C 0.61162 0.28058 0.00816 0.0
N101 N 0.61852 0.3341 0.99499 0.0
N102 N 0.53962 0.26531 0.94262 0.0
C103 C 0.57443 0.3234 0.95472 0.0
H104 H 0.54637 0.19133 0.97611 0.0
Co105 Co 0.47595 0.22918 0.88799 0.0
C106 C 0.40441 0.28467 0.91842 0.0
O107 O 0.35838 0.23106 0.91577 0.0
N108 N 0.41363 0.19176 0.82838 0.0
C109 C 0.35293 0.1765 0.74819 0.0
C110 C 0.38827 0.21603 0.79321 0.0
C111 C 0.39593 0.13893 0.80028 0.0
N112 N 0.35808 0.12803 0.75258 0.0
O113 O 0.52868 0.2714 0.82104 0.0
H114 H 0.39759 0.2611 0.79689 0.0
H115 H 0.41323 0.11027 0.81179 0.0
O116 O 0.45603 0.29298 0.90516 0.0
C117 C 0.54796 0.23766 0.80272 0.0
O118 O 0.52715 0.18593 0.82984 0.0
N119 N 0.42708 0.1842 0.95548 0.0
C120 C 0.37225 0.11727 0.06157 0.0
C121 C 0.40102 0.17891 0.06388 0.0
C122 C 0.42878 0.21151 0.01067 0.0
C123 C 0.39936 0.12405 0.95293 0.0
C124 C 0.37058 0.08969 0.00503 0.0
H125 H 0.45438 0.25896 0.01496 0.0
H126 H 0.40267 0.10203 0.91222 0.0
H127 H 0.56778 0.35719 0.93369 0.0
H128 H 0.63846 0.27211 0.04025 0.0
H129 H 0.32862 0.18443 0.71229 0.0
H130 H 0.40428 0.20181 0.10717 0.0
H131 H 0.35083 0.04213 0.0022 0.0
C132 C 0.85027 0.33991 0.63584 0.0
C133 C 0.80925 0.34637 0.67018 0.0
N134 N 0.75537 0.29928 0.65913 0.0
N135 N 0.82246 0.28871 0.60382 0.0
C136 C 0.76481 0.26531 0.61837 0.0
H137 H 0.89737 0.37042 0.63429 0.0
Co138 Co 0.85641 0.26063 0.54679 0.0
C139 C 0.8043 0.13488 0.58064 0.0
O140 O 0.8581 0.14336 0.57527 0.0
N141 N 0.89121 0.2348 0.48469 0.0
C142 C 0.90433 0.18721 0.40497 0.0
C143 C 0.8665 0.18372 0.45172 0.0
C144 C 0.94212 0.2699 0.45331 0.0
N145 N 0.95189 0.24173 0.40602 0.0
O146 O 0.81054 0.26902 0.48246 0.0
H147 H 0.82226 0.14707 0.45838 0.0
H148 H 0.97034 0.31647 0.46251 0.0
O149 O 0.79449 0.1772 0.56758 0.0
C150 C 0.84416 0.32196 0.46377 0.0
O151 O 0.89641 0.35296 0.48993 0.0
N152 N 0.90558 0.25956 0.61119 0.0
C153 C 0.98109 0.27928 0.71191 0.0
C154 C 0.91971 0.24503 0.71929 0.0
C155 C 0.88278 0.23615 0.66855 0.0
C156 C 0.96524 0.29284 0.60366 0.0
C157 C 1.00367 0.30166 0.65261 0.0
H158 H 0.83566 0.21335 0.67653 0.0
H159 H 0.98392 0.31645 0.56126 0.0
H160 H 0.73034 0.22447 0.59851 0.0
H161 H 0.81869 0.38231 0.70183 0.0
H162 H 0.89589 0.15355 0.37053 0.0
H163 H 0.9001 0.22835 0.7646 0.0
H164 H 1.05077 0.32855 0.6446 0.0
C165 C 0.74845 0.53015 0.3073 0.0
C166 C 0.74061 0.48111 0.33933 0.0
N167 N 0.78621 0.47256 0.32588 0.0
N168 N 0.79909 0.55286 0.27442 0.0
C169 C 0.82076 0.51664 0.28604 0.0
H170 H 0.71923 0.54826 0.30792 0.0
Co171 Co 0.82739 0.61639 0.21963 0.0
C172 C 0.95438 0.68816 0.24953 0.0
O173 O 0.94651 0.73392 0.24581 0.0
N174 N 0.85274 0.67848 0.15982 0.0
C175 C 0.89807 0.73821 0.07893 0.0
C176 C 0.90201 0.70281 0.12393 0.0
C177 C 0.81799 0.69677 0.13216 0.0
N178 N 0.84491 0.73407 0.08406 0.0
O179 O 0.81721 0.56352 0.15302 0.0
H180 H 0.93727 0.69273 0.12723 0.0
H181 H 0.77218 0.6801 0.14407 0.0
O182 O 0.91106 0.63622 0.23723 0.0
C183 C 0.76447 0.5444 0.13392 0.0
O184 O 0.73342 0.56561 0.16001 0.0
N185 N 0.83119 0.66545 0.2869 0.0
C186 C 0.81902 0.72021 0.39309 0.0
C187 C 0.85235 0.69195 0.39515 0.0
C188 C 0.85713 0.66413 0.34194 0.0
C189 C 0.7983 0.69266 0.28458 0.0
C190 C 0.79268 0.72141 0.33674 0.0
H191 H 0.87913 0.6387 0.34619 0.0
H192 H 0.77256 0.68883 0.24411 0.0
H193 H 0.86074 0.52219 0.26474 0.0
H194 H 0.70475 0.45475 0.3711 0.0
H195 H 0.93006 0.7618 0.04251 0.0
H196 H 0.87229 0.68901 0.4383 0.0
H197 H 0.76447 0.7407 0.33416 0.0
C198 C 0.35432 0.67324 0.27787 0.0
C199 C 0.31071 0.6811 0.30811 0.0
H200 H 0.37248 0.61793 0.21813 0.0
C201 C 0.25193 0.63432 0.30687 0.0
H202 H 0.40023 0.70767 0.27873 0.0
C203 C 0.23655 0.58305 0.27324 0.0
C204 C 0.27928 0.57687 0.23966 0.0
H205 H 0.21679 0.63805 0.32902 0.0
H206 H 0.19032 0.5492 0.27103 0.0
C207 C 0.33871 0.62147 0.24391 0.0
C208 C 0.46462 0.7377 0.91124 0.0
C209 C 0.51109 0.72551 0.91037 0.0
H210 H 0.37684 0.71014 0.94254 0.0
C211 C 0.50683 0.67918 0.94711 0.0
H212 H 0.46677 0.77306 0.883 0.0
C213 C 0.45543 0.6426 0.98017 0.0
C214 C 0.40656 0.65129 0.97752 0.0
H215 H 0.5423 0.66905 0.94757 0.0
H216 H 0.45344 0.60562 0.00476 0.0
C217 C 0.41272 0.70087 0.94462 0.0
C218 C 0.35386 0.74425 0.57783 0.0
C219 C 0.3659 0.80285 0.57614 0.0
H220 H 0.38168 0.68463 0.61029 0.0
C221 C 0.41246 0.84557 0.61232 0.0
H222 H 0.31837 0.71056 0.55 0.0
C223 C 0.44924 0.83136 0.64577 0.0
C224 C 0.44054 0.77378 0.64418 0.0
H225 H 0.42254 0.89114 0.61211 0.0
H226 H 0.48632 0.86678 0.66994 0.0
C227 C 0.3909 0.72979 0.61164 0.0
C228 C 0.60355 0.21203 0.72739 0.0
C229 C 0.59666 0.256 0.75741 0.0
H230 H 0.65901 0.1909 0.67373 0.0
C231 C 0.64047 0.3154 0.74985 0.0
H232 H 0.57037 0.1658 0.73215 0.0
C233 C 0.69193 0.33003 0.71581 0.0
C234 C 0.70016 0.2855 0.68855 0.0
H235 H 0.63639 0.35013 0.77278 0.0
H236 H 0.72576 0.37602 0.71208 0.0
C237 C 0.65448 0.22651 0.69346 0.0
C238 C 0.7533 0.3775 0.38155 0.0
C239 C 0.79832 0.42903 0.35277 0.0
H240 H 0.73211 0.30185 0.43885 0.0
C241 C 0.85642 0.43926 0.35416 0.0
H242 H 0.70784 0.36749 0.38042 0.0
C243 C 0.86985 0.40142 0.38665 0.0
C244 C 0.82572 0.35228 0.41877 0.0
H245 H 0.89243 0.47821 0.33305 0.0
H246 H 0.91564 0.41233 0.38902 0.0
C247 C 0.76691 0.33933 0.41426 0.0
C248 C 0.64712 0.43598 0.0258 0.0
C249 C 0.66028 0.39013 0.02271 0.0
H250 H 0.67064 0.52092 0.06215 0.0
C251 C 0.71304 0.39894 0.05043 0.0
H252 H 0.607 0.43106 0.00562 0.0
C253 C 0.7499 0.4511 0.08339 0.0
C254 C 0.73435 0.49504 0.08934 0.0
H255 H 0.72511 0.365 0.04805 0.0
H256 H 0.78863 0.45561 0.10687 0.0
C257 C 0.68363 0.48763 0.05863 0.0
C258 C 0.06866 0.35594 0.77041 0.0
C259 C 1.0209 0.29775 0.7668 0.0
H260 H 0.14003 0.42076 0.82496 0.0
C261 C 1.00988 0.25927 0.81732 0.0
H262 H 0.07748 0.38745 0.7334 0.0
C263 C 1.04544 0.27901 0.87063 0.0
C264 C 0.09289 0.33723 0.87379 0.0
H265 H 0.97369 0.21409 0.81581 0.0
H266 H 1.03595 0.24891 0.9093 0.0
C267 C 0.10441 0.37528 0.82308 0.0
C268 C 0.78341 0.70263 0.50275 0.0
C269 C 0.80458 0.7406 0.45113 0.0
H270 H 0.74407 0.68634 0.59291 0.0
C271 C 0.80706 0.79539 0.45383 0.0
H272 H 0.78001 0.65961 0.50132 0.0
C273 C 0.78728 0.81133 0.50695 0.0
C274 C 0.76385 0.77228 0.5578 0.0
H275 H 0.8235 0.82544 0.41454 0.0
H276 H 0.78942 0.85377 0.50776 0.0
C277 C 0.76297 0.71812 0.55537 0.0
C278 C 0.38961 0.09855 0.17103 0.0
C279 C 0.3516 0.08228 0.11945 0.0
H280 H 0.40566 0.0748 0.26085 0.0
C281 C 0.29647 1.03024 0.12198 0.0
H282 H 0.43287 0.13794 0.16975 0.0
C283 C 0.28025 0.99425 0.17484 0.0
C284 C 0.31933 1.0093 0.22563 0.0
H285 H 0.26637 1.01704 0.08274 0.0
H286 H 0.23754 0.9542 0.17549 0.0
C287 C 0.37384 0.06233 0.22338 0.0
C288 C 0.41799 0.3571 0.00339 0.0
C289 C 0.39434 0.33128 0.94491 0.0
H290 H 0.40614 0.39662 0.08675 0.0
C291 C 0.34713 0.33613 0.92093 0.0
H292 H 0.45364 0.35289 0.02365 0.0
C293 C 0.32031 0.36083 0.95666 0.0
C294 C 0.3399 0.38159 0.01747 0.0
H295 H 0.32736 0.3158 0.87663 0.0
H296 H 0.28075 0.35879 0.93848 0.0
C297 C 0.39074 0.38201 0.03964 0.0
C298 C 0.7318 0.07702 0.66611 0.0
C299 C 0.75938 0.07839 0.60906 0.0
H300 H 0.69099 1.02737 0.75001 0.0
C301 C 0.75704 1.0265 0.58803 0.0
H302 H 0.7341 0.11686 0.68409 0.0
C303 C 0.73291 0.97612 0.62536 0.0
C304 C 0.71011 0.97589 0.68483 0.0
H305 H 0.77858 1.02645 0.54479 0.0
H306 H 0.73655 0.93877 0.60951 0.0
C307 C 0.70733 1.02593 0.70396 0.0
C308 C 0.11345 0.77482 0.29313 0.0
C309 C 0.11394 0.75196 0.35229 0.0
H310 H 0.06274 0.77058 0.21311 0.0
C311 C 0.06402 0.69888 0.37114 0.0
H312 H 0.15074 0.81595 0.27746 0.0
C313 C 1.01274 0.6724 0.33349 0.0
C314 C 1.01104 0.699 0.2769 0.0
H315 H 0.06282 0.6808 0.4169 0.0
H316 H 0.97302 0.6347 0.3514 0.0
C317 C 0.06289 0.74868 0.25597 0.0
C318 C 1.027 0.32531 0.34356 0.0
C319 C 1.00092 0.26614 0.36294 0.0
H320 H 0.09374 0.39463 0.28776 0.0
C321 C 1.02372 0.23121 0.33991 0.0
H322 H 1.0101 0.35315 0.36007 0.0
C323 C 0.07198 0.25511 0.29892 0.0
C324 C 0.09768 0.3141 0.2791 0.0
H325 H 1.00471 0.18562 0.3544 0.0
H326 H 0.08873 0.22727 0.28195 0.0
C327 C 0.07452 0.34888 0.30172 0.0
C328 C 0.83127 0.84005 0.97648 0.0
C329 C 0.77175 0.80718 0.95817 0.0
H330 H 0.90137 0.842 0.03051 0.0
C331 C 0.73637 0.75021 0.98295 0.0
H332 H 0.85957 0.88386 0.95781 0.0
C333 C 0.76003 0.72661 0.02502 0.0
C334 C 0.81987 0.75904 0.04239 0.0
H335 H 0.69024 0.72406 0.9701 0.0
H336 H 0.73184 0.68245 0.04287 0.0
C337 C 0.85523 0.81598 0.01763 0.0
C338 C 0.27597 0.05598 0.68641 0.0
C339 C 0.33315 0.07801 0.71074 0.0
H340 H 0.20793 0.99222 0.62673 0.0
C341 C 0.36586 0.0511 0.69266 0.0
H342 H 0.24973 0.07569 0.69982 0.0
C343 C 0.34226 1.00389 0.65033 0.0
C344 C 0.28504 0.98186 0.626 0.0
H345 H 0.4102 0.06742 0.71017 0.0
H346 H 0.3686 0.98428 0.63697 0.0
C347 C 0.25195 1.00805 0.64501 0.0
loop_
_geom_bond_atom_site_label_1
_geom_bond_atom_site_label_2
_geom_bond_distance
_geom_bond_site_symmetry_2
_ccdc_geom_bond_type
C0 C1 1.351 . S
C0 N3 1.368 1_556 S
C0 H5 0.931 1_556 S
C1 C0 1.351 . S
C1 N2 1.373 . S
C1 H29 0.930 . S
N2 C1 1.373 . S
N2 C4 1.340 . S
N3 C0 1.368 1_554 S
N3 C4 1.321 1_554 S
N3 Co6 2.135 . S
C4 N2 1.340 . S
C4 N3 1.321 1_556 S
C4 H28 0.930 . S
H5 C0 0.931 1_554 S
Co6 N3 2.135 . S
Co6 N9 2.121 . S
Co6 O14 2.055 . S
Co6 O17 2.039 . S
Co6 N20 2.140 . S
C7 O8 1.227 . S
C7 O17 1.265 . S
O8 C7 1.227 . S
N9 Co6 2.121 . S
N9 C11 1.375 . S
N9 C12 1.313 . S
C10 C11 1.338 . S
C10 N13 1.377 . S
C10 H30 0.930 . S
C11 N9 1.375 . S
C11 C10 1.338 . S
C11 H15 0.931 . S
C12 N9 1.313 . S
C12 N13 1.344 . S
C12 H16 0.930 . S
N13 C10 1.377 . S
N13 C12 1.344 . S
O14 Co6 2.055 . S
O14 C18 1.253 . S
H15 C11 0.931 . S
H16 C12 0.930 . S
O17 Co6 2.039 . S
O17 C7 1.265 . S
C18 O14 1.253 . S
C18 O19 1.227 . S
O19 C18 1.227 . S
N20 Co6 2.140 . S
N20 C23 1.346 1_554 S
N20 C24 1.345 . S
C21 C22 1.387 . S
C21 C25 1.391 . S
C22 C21 1.387 . S
C22 C23 1.369 . S
C22 H31 0.929 . S
C23 N20 1.346 1_556 S
C23 C22 1.369 . S
C23 H26 0.928 . S
C24 N20 1.345 . S
C24 C25 1.371 1_554 S
C24 H27 0.931 . S
C25 C21 1.391 . S
C25 C24 1.371 1_556 S
C25 H32 0.930 . S
H26 C23 0.928 . S
H27 C24 0.931 . S
H28 C4 0.930 . S
H29 C1 0.930 . S
H30 C10 0.930 . S
H31 C22 0.929 . S
H32 C25 0.930 . S
C33 C34 1.351 . S
C33 N36 1.368 . S
C33 H38 0.931 . S
C34 C33 1.351 . S
C34 N35 1.373 . S
C34 H62 0.930 . S
N35 C34 1.373 . S
N35 C37 1.340 . S
N36 C33 1.368 . S
N36 C37 1.321 . S
N36 Co39 2.135 . S
C37 N35 1.340 . S
C37 N36 1.321 . S
C37 H61 0.930 . S
H38 C33 0.931 . S
Co39 N36 2.135 . S
Co39 N42 2.121 . S
Co39 O47 2.055 . S
Co39 O50 2.039 . S
Co39 N53 2.140 . S
C40 O41 1.227 . S
C40 O50 1.265 . S
O41 C40 1.227 . S
N42 Co39 2.121 . S
N42 C44 1.375 . S
N42 C45 1.313 . S
C43 C44 1.338 . S
C43 N46 1.377 . S
C43 H63 0.930 . S
C44 N42 1.375 . S
C44 C43 1.338 . S
C44 H48 0.931 . S
C45 N42 1.313 . S
C45 N46 1.344 . S
C45 H49 0.930 . S
N46 C43 1.377 . S
N46 C45 1.344 . S
O47 Co39 2.055 . S
O47 C51 1.253 . S
H48 C44 0.931 . S
H49 C45 0.930 . S
O50 Co39 2.039 . S
O50 C40 1.265 . S
C51 O47 1.253 . S
C51 O52 1.227 . S
O52 C51 1.227 . S
N53 Co39 2.140 . S
N53 C56 1.346 . S
N53 C57 1.345 . S
C54 C55 1.387 . S
C54 C58 1.391 . S
C55 C54 1.387 . S
C55 C56 1.369 . S
C55 H64 0.929 . S
C56 N53 1.346 . S
C56 C55 1.369 . S
C56 H59 0.928 . S
C57 N53 1.345 . S
C57 C58 1.371 . S
C57 H60 0.931 . S
C58 C54 1.391 . S
C58 C57 1.371 . S
C58 H65 0.930 . S
H59 C56 0.928 . S
H60 C57 0.931 . S
H61 C37 0.930 . S
H62 C34 0.930 . S
H63 C43 0.930 . S
H64 C55 0.929 . S
H65 C58 0.930 . S
C66 C67 1.351 . S
C66 N69 1.368 . S
C66 H71 0.931 . S
C67 C66 1.351 . S
C67 N68 1.373 . S
C67 H95 0.930 . S
N68 C67 1.373 . S
N68 C70 1.340 . S
N69 C66 1.368 . S
N69 C70 1.321 . S
N69 Co72 2.135 . S
C70 N68 1.340 . S
C70 N69 1.321 . S
C70 H94 0.930 . S
H71 C66 0.931 . S
Co72 N69 2.135 . S
Co72 N75 2.121 . S
Co72 O80 2.055 . S
Co72 O83 2.039 . S
Co72 N86 2.140 . S
C73 O74 1.227 . S
C73 O83 1.265 . S
O74 C73 1.227 . S
N75 Co72 2.121 . S
N75 C77 1.375 . S
N75 C78 1.313 . S
C76 C77 1.338 . S
C76 N79 1.377 . S
C76 H96 0.930 . S
C77 N75 1.375 . S
C77 C76 1.338 . S
C77 H81 0.931 . S
C78 N75 1.313 . S
C78 N79 1.344 . S
C78 H82 0.930 . S
N79 C76 1.377 . S
N79 C78 1.344 . S
O80 Co72 2.055 . S
O80 C84 1.253 . S
H81 C77 0.931 . S
H82 C78 0.930 . S
O83 Co72 2.039 . S
O83 C73 1.265 . S
C84 O80 1.253 . S
C84 O85 1.227 . S
O85 C84 1.227 . S
N86 Co72 2.140 . S
N86 C89 1.346 . S
N86 C90 1.345 . S
C87 C88 1.387 . S
C87 C91 1.391 . S
C88 C87 1.387 . S
C88 C89 1.369 . S
C88 H97 0.929 . S
C89 N86 1.346 . S
C89 C88 1.369 . S
C89 H92 0.928 . S
C90 N86 1.345 . S
C90 C91 1.371 . S
C90 H93 0.931 . S
C91 C87 1.391 . S
C91 C90 1.371 . S
C91 H98 0.930 . S
H92 C89 0.928 . S
H93 C90 0.931 . S
H94 C70 0.930 . S
H95 C67 0.930 . S
H96 C76 0.930 . S
H97 C88 0.929 . S
H98 C91 0.930 . S
C99 C100 1.351 . S
C99 N102 1.368 1_554 S
C99 H104 0.931 1_554 S
C100 C99 1.351 . S
C100 N101 1.373 . S
C100 H128 0.930 . S
N101 C100 1.373 . S
N101 C103 1.340 . S
N102 C99 1.368 1_556 S
N102 C103 1.321 1_556 S
N102 Co105 2.135 . S
C103 N101 1.340 . S
C103 N102 1.321 1_554 S
C103 H127 0.930 . S
H104 C99 0.931 1_556 S
Co105 N102 2.135 . S
Co105 N108 2.121 . S
Co105 O113 2.055 . S
Co105 O116 2.039 . S
Co105 N119 2.140 . S
C106 O107 1.227 . S
C106 O116 1.265 . S
O107 C106 1.227 . S
N108 Co105 2.121 . S
N108 C110 1.375 . S
N108 C111 1.313 . S
C109 C110 1.338 . S
C109 N112 1.377 . S
C109 H129 0.930 . S
C110 N108 1.375 . S
C110 C109 1.338 . S
C110 H114 0.931 . S
C111 N108 1.313 . S
C111 N112 1.344 . S
C111 H115 0.930 . S
N112 C109 1.377 . S
N112 C111 1.344 . S
O113 Co105 2.055 . S
O113 C117 1.253 . S
H114 C110 0.931 . S
H115 C111 0.930 . S
O116 Co105 2.039 . S
O116 C106 1.265 . S
C117 O113 1.253 . S
C117 O118 1.227 . S
O118 C117 1.227 . S
N119 Co105 2.140 . S
N119 C122 1.346 1_556 S
N119 C123 1.345 . S
C120 C121 1.387 . S
C120 C124 1.391 . S
C121 C120 1.387 . S
C121 C122 1.369 . S
C121 H130 0.929 . S
C122 N119 1.346 1_554 S
C122 C121 1.369 . S
C122 H125 0.928 . S
C123 N119 1.345 . S
C123 C124 1.371 1_556 S
C123 H126 0.931 . S
C124 C120 1.391 . S
C124 C123 1.371 1_554 S
C124 H131 0.930 . S
H125 C122 0.928 . S
H126 C123 0.931 . S
H127 C103 0.930 . S
H128 C100 0.930 . S
H129 C109 0.930 . S
H130 C121 0.929 . S
H131 C124 0.930 . S
C132 C133 1.351 . S
C132 N135 1.368 . S
C132 H137 0.931 . S
C133 C132 1.351 . S
C133 N134 1.373 . S
C133 H161 0.930 . S
N134 C133 1.373 . S
N134 C136 1.340 . S
N135 C132 1.368 . S
N135 C136 1.321 . S
N135 Co138 2.135 . S
C136 N134 1.340 . S
C136 N135 1.321 . S
C136 H160 0.930 . S
H137 C132 0.931 . S
Co138 N135 2.135 . S
Co138 N141 2.121 . S
Co138 O146 2.055 . S
Co138 O149 2.039 . S
Co138 N152 2.140 . S
C139 O140 1.227 . S
C139 O149 1.265 . S
O140 C139 1.227 . S
N141 Co138 2.121 . S
N141 C143 1.375 . S
N141 C144 1.313 . S
C142 C143 1.338 . S
C142 N145 1.377 . S
C142 H162 0.930 . S
C143 N141 1.375 . S
C143 C142 1.338 . S
C143 H147 0.931 . S
C144 N141 1.313 . S
C144 N145 1.344 . S
C144 H148 0.930 . S
N145 C142 1.377 . S
N145 C144 1.344 . S
O146 Co138 2.055 . S
O146 C150 1.253 . S
H147 C143 0.931 . S
H148 C144 0.930 . S
O149 Co138 2.039 . S
O149 C139 1.265 . S
C150 O146 1.253 . S
C150 O151 1.227 . S
O151 C150 1.227 . S
N152 Co138 2.140 . S
N152 C155 1.346 . S
N152 C156 1.345 . S
C153 C154 1.387 . S
C153 C157 1.391 . S
C154 C153 1.387 . S
C154 C155 1.369 . S
C154 H163 0.929 . S
C155 N152 1.346 . S
C155 C154 1.369 . S
C155 H158 0.928 . S
C156 N152 1.345 . S
C156 C157 1.371 . S
C156 H159 0.931 . S
C157 C153 1.391 . S
C157 C156 1.371 . S
C157 H164 0.930 . S
H158 C155 0.928 . S
H159 C156 0.931 . S
H160 C136 0.930 . S
H161 C133 0.930 . S
H162 C142 0.930 . S
H163 C154 0.929 . S
H164 C157 0.930 . S
C165 C166 1.351 . S
C165 N168 1.368 . S
C165 H170 0.931 . S
C166 C165 1.351 . S
C166 N167 1.373 . S
C166 H194 0.930 . S
N167 C166 1.373 . S
N167 C169 1.340 . S
N168 C165 1.368 . S
N168 C169 1.321 . S
N168 Co171 2.135 . S
C169 N167 1.340 . S
C169 N168 1.321 . S
C169 H193 0.930 . S
H170 C165 0.931 . S
Co171 N168 2.135 . S
Co171 N174 2.121 . S
Co171 O179 2.055 . S
Co171 O182 2.039 . S
Co171 N185 2.140 . S
C172 O173 1.227 . S
C172 O182 1.265 . S
O173 C172 1.227 . S
N174 Co171 2.121 . S
N174 C176 1.375 . S
N174 C177 1.313 . S
C175 C176 1.338 . S
C175 N178 1.377 . S
C175 H195 0.930 . S
C176 N174 1.375 . S
C176 C175 1.338 . S
C176 H180 0.931 . S
C177 N174 1.313 . S
C177 N178 1.344 . S
C177 H181 0.930 . S
N178 C175 1.377 . S
N178 C177 1.344 . S
O179 Co171 2.055 . S
O179 C183 1.253 . S
H180 C176 0.931 . S
H181 C177 0.930 . S
O182 Co171 2.039 . S
O182 C172 1.265 . S
C183 O179 1.253 . S
C183 O184 1.227 . S
O184 C183 1.227 . S
N185 Co171 2.140 . S
N185 C188 1.346 . S
N185 C189 1.345 . S
C186 C187 1.387 . S
C186 C190 1.391 . S
C187 C186 1.387 . S
C187 C188 1.369 . S
C187 H196 0.929 . S
C188 N185 1.346 . S
C188 C187 1.369 . S
C188 H191 0.928 . S
C189 N185 1.345 . S
C189 C190 1.371 . S
C189 H192 0.931 . S
C190 C186 1.391 . S
C190 C189 1.371 . S
C190 H197 0.930 . S
H191 C188 0.928 . S
H192 C189 0.931 . S
H193 C169 0.930 . S
H194 C166 0.930 . S
H195 C175 0.930 . S
H196 C187 0.929 . S
H197 C190 0.930 . S
C198 C199 1.387 . S
C198 H202 0.950 . S
C198 C207 1.390 . S
C199 C198 1.387 . S
C199 C201 1.387 . S
H200 C207 0.950 . S
C201 C199 1.387 . S
C201 C203 1.390 . S
C201 H205 0.950 . S
H202 C198 0.950 . S
C203 C201 1.390 . S
C203 C204 1.387 . S
C203 H206 0.950 . S
C204 C203 1.387 . S
C204 C207 1.387 . S
H205 C201 0.950 . S
H206 C203 0.950 . S
C207 C198 1.390 . S
C207 H200 0.950 . S
C207 C204 1.387 . S
C208 C209 1.387 . S
C208 H212 0.950 . S
C208 C217 1.390 . S
C209 C208 1.387 . S
C209 C211 1.387 . S
H210 C217 0.950 . S
C211 C209 1.387 . S
C211 C213 1.390 . S
C211 H215 0.950 . S
H212 C208 0.950 . S
C213 C211 1.390 . S
C213 C214 1.387 . S
C213 H216 0.950 . S
C214 C213 1.387 . S
C214 C217 1.387 . S
H215 C211 0.950 . S
H216 C213 0.950 . S
C217 C208 1.390 . S
C217 H210 0.950 . S
C217 C214 1.387 . S
C218 C219 1.387 . S
C218 H222 0.950 . S
C218 C227 1.390 . S
C219 C218 1.387 . S
C219 C221 1.387 . S
H220 C227 0.950 . S
C221 C219 1.387 . S
C221 C223 1.390 . S
C221 H225 0.950 . S
H222 C218 0.950 . S
C223 C221 1.390 . S
C223 C224 1.387 . S
C223 H226 0.950 . S
C224 C223 1.387 . S
C224 C227 1.387 . S
H225 C221 0.950 . S
H226 C223 0.950 . S
C227 C218 1.390 . S
C227 H220 0.950 . S
C227 C224 1.387 . S
C228 C229 1.387 . S
C228 H232 0.950 . S
C228 C237 1.390 . S
C229 C228 1.387 . S
C229 C231 1.387 . S
H230 C237 0.950 . S
C231 C229 1.387 . S
C231 C233 1.390 . S
C231 H235 0.950 . S
H232 C228 0.950 . S
C233 C231 1.390 . S
C233 C234 1.387 . S
C233 H236 0.950 . S
C234 C233 1.387 . S
C234 C237 1.387 . S
H235 C231 0.950 . S
H236 C233 0.950 . S
C237 C228 1.390 . S
C237 H230 0.950 . S
C237 C234 1.387 . S
C238 C239 1.387 . S
C238 H242 0.950 . S
C238 C247 1.390 . S
C239 C238 1.387 . S
C239 C241 1.387 . S
H240 C247 0.950 . S
C241 C239 1.387 . S
C241 C243 1.390 . S
C241 H245 0.950 . S
H242 C238 0.950 . S
C243 C241 1.390 . S
C243 C244 1.387 . S
C243 H246 0.950 . S
C244 C243 1.387 . S
C244 C247 1.387 . S
H245 C241 0.950 . S
H246 C243 0.950 . S
C247 C238 1.390 . S
C247 H240 0.950 . S
C247 C244 1.387 . S
C248 C249 1.387 . S
C248 H252 0.950 . S
C248 C257 1.390 . S
C249 C248 1.387 . S
C249 C251 1.387 . S
H250 C257 0.950 . S
C251 C249 1.387 . S
C251 C253 1.390 . S
C251 H255 0.950 . S
H252 C248 0.950 . S
C253 C251 1.390 . S
C253 C254 1.387 . S
C253 H256 0.950 . S
C254 C253 1.387 . S
C254 C257 1.387 . S
H255 C251 0.950 . S
H256 C253 0.950 . S
C257 C248 1.390 . S
C257 H250 0.950 . S
C257 C254 1.387 . S
C258 C259 1.387 1_455 S
C258 H262 0.950 . S
C258 C267 1.390 . S
C259 C258 1.387 1_655 S
C259 C261 1.387 . S
H260 C267 0.950 . S
C261 C259 1.387 . S
C261 C263 1.390 . S
C261 H265 0.950 . S
H262 C258 0.950 . S
C263 C261 1.390 . S
C263 C264 1.387 1_655 S
C263 H266 0.950 . S
C264 C263 1.387 1_455 S
C264 C267 1.387 . S
H265 C261 0.950 . S
H266 C263 0.950 . S
C267 C258 1.390 . S
C267 H260 0.950 . S
C267 C264 1.387 . S
C268 C269 1.387 . S
C268 H272 0.950 . S
C268 C277 1.390 . S
C269 C268 1.387 . S
C269 C271 1.387 . S
H270 C277 0.950 . S
C271 C269 1.387 . S
C271 C273 1.390 . S
C271 H275 0.950 . S
H272 C268 0.950 . S
C273 C271 1.390 . S
C273 C274 1.387 . S
C273 H276 0.950 . S
C274 C273 1.387 . S
C274 C277 1.387 . S
H275 C271 0.950 . S
H276 C273 0.950 . S
C277 C268 1.390 . S
C277 H270 0.950 . S
C277 C274 1.387 . S
C278 C279 1.387 . S
C278 H282 0.950 . S
C278 C287 1.390 1_545 S
C279 C278 1.387 . S
C279 C281 1.387 . S
H280 C287 0.950 . S
C281 C279 1.387 . S
C281 C283 1.390 1_545 S
C281 H285 0.950 . S
H282 C278 0.950 . S
C283 C281 1.390 1_565 S
C283 C284 1.387 . S
C283 H286 0.950 . S
C284 C283 1.387 . S
C284 C287 1.387 . S
H285 C281 0.950 . S
H286 C283 0.950 . S
C287 C278 1.390 1_565 S
C287 H280 0.950 . S
C287 C284 1.387 . S
C288 C289 1.387 1_554 S
C288 H292 0.950 . S
C288 C297 1.390 . S
C289 C288 1.387 1_556 S
C289 C291 1.387 . S
H290 C297 0.950 . S
C291 C289 1.387 . S
C291 C293 1.390 . S
C291 H295 0.950 . S
H292 C288 0.950 . S
C293 C291 1.390 . S
C293 C294 1.387 1_556 S
C293 H296 0.950 . S
C294 C293 1.387 1_554 S
C294 C297 1.387 . S
H295 C291 0.950 . S
H296 C293 0.950 . S
C297 C288 1.390 . S
C297 H290 0.950 . S
C297 C294 1.387 . S
C298 C299 1.387 . S
C298 H302 0.950 . S
C298 C307 1.390 1_545 S
C299 C298 1.387 . S
C299 C301 1.387 . S
H300 C307 0.950 . S
C301 C299 1.387 . S
C301 C303 1.390 1_545 S
C301 H305 0.950 . S
H302 C298 0.950 . S
C303 C301 1.390 1_565 S
C303 C304 1.387 . S
C303 H306 0.950 . S
C304 C303 1.387 . S
C304 C307 1.387 . S
H305 C301 0.950 . S
H306 C303 0.950 . S
C307 C298 1.390 1_565 S
C307 H300 0.950 . S
C307 C304 1.387 . S
C308 C309 1.387 . S
C308 H312 0.950 . S
C308 C317 1.390 1_455 S
C309 C308 1.387 . S
C309 C311 1.387 . S
H310 C317 0.950 . S
C311 C309 1.387 . S
C311 C313 1.390 1_455 S
C311 H315 0.950 . S
H312 C308 0.950 . S
C313 C311 1.390 1_655 S
C313 C314 1.387 . S
C313 H316 0.950 . S
C314 C313 1.387 . S
C314 C317 1.387 . S
H315 C311 0.950 . S
H316 C313 0.950 . S
C317 C308 1.390 1_655 S
C317 H310 0.950 . S
C317 C314 1.387 . S
C318 C319 1.387 . S
C318 H322 0.950 . S
C318 C327 1.390 1_655 S
C319 C318 1.387 . S
C319 C321 1.387 . S
H320 C327 0.950 . S
C321 C319 1.387 . S
C321 C323 1.390 1_655 S
C321 H325 0.950 . S
H322 C318 0.950 . S
C323 C321 1.390 1_455 S
C323 C324 1.387 . S
C323 H326 0.950 . S
C324 C323 1.387 . S
C324 C327 1.387 . S
H325 C321 0.950 . S
H326 C323 0.950 . S
C327 C318 1.390 1_455 S
C327 H320 0.950 . S
C327 C324 1.387 . S
C328 C329 1.387 . S
C328 H332 0.950 . S
C328 C337 1.390 1_556 S
C329 C328 1.387 . S
C329 C331 1.387 . S
H330 C337 0.950 . S
C331 C329 1.387 . S
C331 C333 1.390 1_556 S
C331 H335 0.950 . S
H332 C328 0.950 . S
C333 C331 1.390 1_554 S
C333 C334 1.387 . S
C333 H336 0.950 . S
C334 C333 1.387 . S
C334 C337 1.387 . S
H335 C331 0.950 . S
H336 C333 0.950 . S
C337 C328 1.390 1_554 S
C337 H330 0.950 . S
C337 C334 1.387 . S
C338 C339 1.387 . S
C338 H342 0.950 . S
C338 C347 1.390 1_545 S
C339 C338 1.387 . S
C339 C341 1.387 . S
H340 C347 0.950 . S
C341 C339 1.387 . S
C341 C343 1.390 1_545 S
C341 H345 0.950 . S
H342 C338 0.950 . S
C343 C341 1.390 1_565 S
C343 C344 1.387 . S
C343 H346 0.950 . S
C344 C343 1.387 . S
C344 C347 1.387 . S
H345 C341 0.950 . S
H346 C343 0.950 . S
C347 C338 1.390 1_565 S
C347 H340 0.950 . S
C347 C344 1.387 . S
C199 N68 1.264 . S
C204 C18 1.365 . S
C209 C51 1.364 . S
C214 N2 1.263 . S
C219 C84 1.364 . S
C224 N35 1.263 . S
C229 C117 1.363 . S
C234 N134 1.261 . S
C239 N167 1.263 . S
C244 C150 1.364 . S
C249 N101 1.259 . S
C254 C183 1.362 . S
C259 C153 0.870 . S
C264 C21 0.870 . S
C269 C186 0.870 . S
C274 C54 0.870 . S
C279 C120 0.870 . S
C284 C87 0.870 . S
C289 C106 1.620 . S
C294 C7 1.620 . S
C299 C139 1.618 . S
C304 C40 1.618 . S
C309 C73 1.621 . S
C314 C172 1.621 . S
C319 N145 1.876 . S
C324 N13 1.876 . S
C329 N46 1.876 . S
C334 N178 1.877 . S
C339 N112 1.876 . S
C344 N79 1.876 . S
