# Generated by pormake.
# Topology wjo, (5)-cn, num edge types: 1
# Building blocks:
#     Node 0, Type 0, BuildingBlock: XOMCOT_clean_sbu_0, # of connection points: 5
#     Node 1, Type 0, BuildingBlock: XOMCOT_clean_sbu_0, # of connection points: 5
#     Node 2, Type 0, BuildingBlock: XOMCOT_clean_sbu_0, # of connection points: 5
#     Node 3, Type 0, BuildingBlock: XOMCOT_clean_sbu_0, # of connection points: 5
#     Node 4, Type 0, BuildingBlock: XOMCOT_clean_sbu_0, # of connection points: 5
#     Node 5, Type 0, BuildingBlock: XOMCOT_clean_sbu_0, # of connection points: 5
#     Node 6, Type 0, BuildingBlock: XOMCOT_clean_sbu_0, # of connection points: 5
#     Node 7, Type 0, BuildingBlock: XOMCOT_clean_sbu_0, # of connection points: 5
#     Node 8, Type 0, BuildingBlock: XOMCOT_clean_sbu_0, # of connection points: 5
#     Node 9, Type 0, BuildingBlock: XOMCOT_clean_sbu_0, # of connection points: 5
#     Node 10, Type 0, BuildingBlock: XOMCOT_clean_sbu_0, # of connection points: 5
#     Node 11, Type 0, BuildingBlock: XOMCOT_clean_sbu_0, # of connection points: 5
#     Edge 12, Type (0, 0), BuildingBlock: XUDNAN_clean_linker_2, # of connection points: 2
#     Edge 13, Type (0, 0), BuildingBlock: XUDNAN_clean_linker_2, # of connection points: 2
#     Edge 14, Type (0, 0), BuildingBlock: XUDNAN_clean_linker_2, # of connection points: 2
#     Edge 15, Type (0, 0), BuildingBlock: XUDNAN_clean_linker_2, # of connection points: 2
#     Edge 16, Type (0, 0), BuildingBlock: XUDNAN_clean_linker_2, # of connection points: 2
#     Edge 17, Type (0, 0), BuildingBlock: XUDNAN_clean_linker_2, # of connection points: 2
#     Edge 18, Type (0, 0), BuildingBlock: XUDNAN_clean_linker_2, # of connection points: 2
#     Edge 19, Type (0, 0), BuildingBlock: XUDNAN_clean_linker_2, # of connection points: 2
#     Edge 20, Type (0, 0), BuildingBlock: XUDNAN_clean_linker_2, # of connection points: 2
#     Edge 21, Type (0, 0), BuildingBlock: XUDNAN_clean_linker_2, # of connection points: 2
#     Edge 22, Type (0, 0), BuildingBlock: XUDNAN_clean_linker_2, # of connection points: 2
#     Edge 23, Type (0, 0), BuildingBlock: XUDNAN_clean_linker_2, # of connection points: 2
#     Edge 24, Type (0, 0), BuildingBlock: XUDNAN_clean_linker_2, # of connection points: 2
#     Edge 25, Type (0, 0), BuildingBlock: XUDNAN_clean_linker_2, # of connection points: 2
#     Edge 26, Type (0, 0), BuildingBlock: XUDNAN_clean_linker_2, # of connection points: 2
#     Edge 27, Type (0, 0), BuildingBlock: XUDNAN_clean_linker_2, # of connection points: 2
#     Edge 28, Type (0, 0), BuildingBlock: XUDNAN_clean_linker_2, # of connection points: 2
#     Edge 29, Type (0, 0), BuildingBlock: XUDNAN_clean_linker_2, # of connection points: 2
#     Edge 30, Type (0, 0), BuildingBlock: XUDNAN_clean_linker_2, # of connection points: 2
#     Edge 31, Type (0, 0), BuildingBlock: XUDNAN_clean_linker_2, # of connection points: 2
#     Edge 32, Type (0, 0), BuildingBlock: XUDNAN_clean_linker_2, # of connection points: 2
#     Edge 33, Type (0, 0), BuildingBlock: XUDNAN_clean_linker_2, # of connection points: 2
#     Edge 34, Type (0, 0), BuildingBlock: XUDNAN_clean_linker_2, # of connection points: 2
#     Edge 35, Type (0, 0), BuildingBlock: XUDNAN_clean_linker_2, # of connection points: 2
#     Edge 36, Type (0, 0), BuildingBlock: XUDNAN_clean_linker_2, # of connection points: 2
#     Edge 37, Type (0, 0), BuildingBlock: XUDNAN_clean_linker_2, # of connection points: 2
#     Edge 38, Type (0, 0), BuildingBlock: XUDNAN_clean_linker_2, # of connection points: 2
#     Edge 39, Type (0, 0), BuildingBlock: XUDNAN_clean_linker_2, # of connection points: 2
#     Edge 40, Type (0, 0), BuildingBlock: XUDNAN_clean_linker_2, # of connection points: 2
#     Edge 41, Type (0, 0), BuildingBlock: XUDNAN_clean_linker_2, # of connection points: 2
# Relax obj value: 0.367
# Max RMSD: 0.208
# Mean RMSD: 0.207
data_MOF--net-wjo--node1-XOMCOT_clean_sbu_0--edge1-XUDNAN_clean_linker_2
_symmetry_space_group_name_H-M    P1
_symmetry_Int_Tables_number       1
_symmetry_cell_setting            triclinic
loop_
_symmetry_equiv_pos_as_xyz
'x, y, z'
_cell_length_a     46.881752
_cell_length_b     46.797373
_cell_length_c     29.579234
_cell_angle_alpha  90.061133
_cell_angle_beta   89.892652
_cell_angle_gamma 119.96651
loop_
_atom_site_label
_atom_site_type_symbol
_atom_site_fract_x
_atom_site_fract_y
_atom_site_fract_z
_atom_type_partial_charge
Co0 Co 0.27227 0.37556 0.98765 0.0
C1 C 0.2815 0.32311 0.94382 0.0
C2 C 0.26218 0.34475 0.89805 0.0
C3 C 0.26877 0.32339 0.8741 0.0
N4 N 0.27035 0.34479 0.94175 0.0
N5 N 0.28085 0.30981 0.90297 0.0
H6 H 0.29134 0.31816 0.97392 0.0
H7 H 0.25335 0.36028 0.88414 0.0
C8 C 0.21014 0.37988 0.97955 0.0
O9 O 0.22429 0.40872 -0.00039 0.0
N10 N 0.27556 0.40654 0.03425 0.0
C11 C 0.30197 0.43673 0.04047 0.0
C12 C 0.29814 0.44973 0.07997 0.0
C13 C 0.2567 0.40096 0.07173 0.0
N14 N 0.26953 0.42749 0.09952 0.0
C15 C 0.32701 0.41654 0.93314 0.0
C16 C 0.31302 0.4667 0.92049 0.0
C17 C 0.34542 0.4733 0.91362 0.0
C18 C 0.35159 0.44702 0.91723 0.0
C19 C 0.2889 0.4355 0.9358 0.0
N20 N 0.29687 0.4118 0.94541 0.0
H21 H 0.33313 0.39746 0.93918 0.0
H22 H 0.26492 0.43176 0.94318 0.0
H23 H 0.32343 0.4481 0.01887 0.0
H24 H 0.23393 0.37823 0.07806 0.0
O25 O 0.30943 0.37651 0.01611 0.0
O26 O 0.25701 0.34165 0.03333 0.0
O27 O 0.22704 0.36649 0.96737 0.0
C28 C 0.28808 0.35356 0.0425 0.0
H29 H 0.26531 0.31848 0.83816 0.0
H30 H 0.31569 0.47352 0.09389 0.0
H31 H 0.30681 0.486 0.91737 0.0
H32 H 0.37579 0.4504 0.91035 0.0
Co33 Co 0.90772 0.26809 0.14264 0.0
C34 C 0.96582 0.28197 0.08538 0.0
C35 C 0.92012 0.25138 0.0513 0.0
C36 C 0.94554 0.25582 0.0233 0.0
N37 N 0.93279 0.2677 0.09033 0.0
N38 N 0.97426 0.27505 0.0448 0.0
H39 H 0.98347 0.29659 0.1111 0.0
H40 H 0.89417 0.23725 0.04356 0.0
C41 C 0.84962 0.19898 0.11614 0.0
O42 O 0.83455 0.20873 0.08807 0.0
N43 N 0.88284 0.26723 0.19558 0.0
C44 C 0.88176 0.2927 0.21523 0.0
C45 C 0.86457 0.28194 0.25539 0.0
C46 C 0.86635 0.24145 0.2238 0.0
N47 N 0.85488 0.24973 0.26038 0.0
C48 C 0.90296 0.31048 0.07942 0.0
C49 C 0.84048 0.29712 0.10324 0.0
C50 C 0.86124 0.32622 0.07969 0.0
C51 C 0.89222 0.33209 0.06614 0.0
C52 C 0.85216 0.27585 0.11577 0.0
N53 N 0.88368 0.28346 0.10556 0.0
H54 H 0.92833 0.31768 0.07277 0.0
H55 H 0.83699 0.25519 0.13752 0.0
H56 H 0.89321 0.31747 0.20174 0.0
H57 H 0.86385 0.21742 0.21874 0.0
O58 O 0.94212 0.31103 0.16049 0.0
O59 O 0.93768 0.2635 0.18248 0.0
O60 O 0.8767 0.21957 0.13478 0.0
C61 C 0.95253 0.29551 0.186 0.0
H62 H 0.94304 0.2459 0.98955 0.0
H63 H 0.85955 0.29655 0.27904 0.0
H64 H 0.81638 0.29202 0.11447 0.0
H65 H 0.90895 0.35451 0.04821 0.0
Co66 Co 0.65145 0.89789 0.30642 0.0
C67 C 0.70177 0.9566 0.25598 0.0
C68 C 0.67014 0.91751 0.21119 0.0
C69 C 0.69063 0.94495 0.18563 0.0
N70 N 0.67694 0.92492 0.2554 0.0
N71 N 0.71048 0.96935 0.214 0.0
H72 H 0.7126 0.97074 0.28633 0.0
H73 H 0.65078 0.89416 0.19844 0.0
C74 C 0.64239 0.82999 0.29676 0.0
O75 O 0.61546 0.81757 0.32128 0.0
N76 N 0.62613 0.87211 0.35832 0.0
C77 C 0.59577 0.86539 0.37145 0.0
C78 C 0.58995 0.85274 0.41473 0.0
C79 C 0.63852 0.86416 0.39428 0.0
N80 N 0.61701 0.85234 0.42883 0.0
C81 C 0.6066 0.91355 0.26596 0.0
C82 C 0.55641 0.85026 0.24766 0.0
C83 C 0.55099 0.87681 0.24158 0.0
C84 C 0.57674 0.90879 0.24953 0.0
C85 C 0.58715 0.85621 0.26304 0.0
N86 N 0.61125 0.88745 0.27403 0.0
H87 H 0.62591 0.93837 0.27333 0.0
H88 H 0.59079 0.83554 0.26729 0.0
H89 H 0.57976 0.87135 0.35248 0.0
H90 H 0.66334 0.86825 0.39603 0.0
O91 O 0.65711 0.93615 0.33902 0.0
O92 O 0.69062 0.91554 0.34266 0.0
O93 O 0.65524 0.85944 0.28104 0.0
C94 C 0.68229 0.93641 0.35798 0.0
H95 H 0.69085 0.94688 0.14915 0.0
H96 H 0.5686 0.84667 0.43544 0.0
H97 H 0.53705 0.82524 0.24092 0.0
H98 H 0.57343 0.9299 0.24462 0.0
Co99 Co 0.76059 0.65057 0.4777 0.0
C100 C 0.74612 0.69161 0.41504 0.0
C101 C 0.77209 0.671 0.38114 0.0
C102 C 0.76614 0.68965 0.3506 0.0
N103 N 0.75975 0.67235 0.4218 0.0
N104 N 0.74976 0.70257 0.37198 0.0
H105 H 0.73385 0.69775 0.441 0.0
H106 H 0.78415 0.65713 0.37354 0.0
C107 C 0.81832 0.64323 0.43783 0.0
O108 O 0.80127 0.61949 0.4088 0.0
N109 N 0.76145 0.62957 0.53346 0.0
C110 C 0.73547 0.60459 0.55454 0.0
C111 C 0.74552 0.59985 0.59614 0.0
C112 C 0.78676 0.64014 0.56268 0.0
N113 N 0.7777 0.62233 0.60127 0.0
C114 C 0.70475 0.60088 0.43164 0.0
C115 C 0.71742 0.5498 0.44541 0.0
C116 C 0.68662 0.54262 0.42857 0.0
C117 C 0.68058 0.56864 0.42101 0.0
C118 C 0.74067 0.58236 0.45664 0.0
N119 N 0.73413 0.60743 0.4499 0.0
H120 H 0.69905 0.62045 0.42784 0.0
H121 H 0.76299 0.58703 0.47359 0.0
H122 H 0.71066 0.59162 0.54131 0.0
H123 H 0.81095 0.66111 0.55638 0.0
O124 O 0.7253 0.65554 0.50341 0.0
O125 O 0.77882 0.69169 0.50921 0.0
O126 O 0.80465 0.65561 0.462 0.0
C127 C 0.74879 0.68291 0.52065 0.0
H128 H 0.77277 0.69284 0.31515 0.0
H129 H 0.72993 0.5824 0.62161 0.0
H130 H 0.7227 0.5302 0.45239 0.0
H131 H 0.657 0.56397 0.4082 0.0
Co132 Co 0.11115 0.74964 0.64993 0.0
C133 C 0.05994 0.73043 0.57842 0.0
C134 C 0.08593 0.78236 0.59118 0.0
C135 C 0.05964 0.77513 0.56341 0.0
N136 N 0.08669 0.75446 0.60013 0.0
N137 N 0.04334 0.74246 0.55545 0.0
H138 H 0.05035 0.70438 0.58311 0.0
H139 H 0.1015 0.80594 0.60706 0.0
C140 C 0.16547 0.81813 0.61409 0.0
O141 O 0.15777 0.81359 0.57101 0.0
N142 N 0.13478 0.74588 0.70083 0.0
C143 C 0.13932 0.72086 0.71378 0.0
C144 C 0.15592 0.72927 0.75458 0.0
C145 C 0.14804 0.76863 0.7337 0.0
N146 N 0.1614 0.75943 0.767 0.0
C147 C 0.11065 0.69928 0.59619 0.0
C148 C 0.17754 0.72278 0.59939 0.0
C149 C 0.1564 0.68948 0.58808 0.0
C150 C 0.12269 0.67849 0.5845 0.0
C151 C 0.16434 0.74299 0.61087 0.0
N152 N 0.13103 0.73061 0.61117 0.0
H153 H 0.08444 0.68835 0.59851 0.0
H154 H 0.18075 0.76727 0.62417 0.0
H155 H 0.13072 0.69802 0.69542 0.0
H156 H 0.14665 0.791 0.7337 0.0
O157 O 0.07304 0.70935 0.66839 0.0
O158 O 0.08551 0.7593 0.69194 0.0
O159 O 0.1491 0.79585 0.6433 0.0
C160 C 0.06679 0.72746 0.6954 0.0
H161 H 0.05199 0.79227 0.5521 0.0
H162 H 0.16308 0.71413 0.77358 0.0
H163 H 0.20384 0.73264 0.60216 0.0
H164 H 0.10499 0.65299 0.57714 0.0
Co165 Co 0.37592 0.11465 0.81522 0.0
C166 C 0.34168 0.05544 0.75684 0.0
C167 C 0.33318 0.09384 0.73375 0.0
C168 C 0.3138 0.06573 0.70888 0.0
N169 N 0.35073 0.08742 0.76401 0.0
N170 N 0.3189 0.04137 0.72366 0.0
H171 H 0.35062 0.04235 0.77696 0.0
H172 H 0.33274 0.11662 0.73135 0.0
C173 C 0.37091 0.17735 0.77523 0.0
O174 O 0.3845 0.18963 0.73586 0.0
N175 N 0.40044 0.14114 0.86693 0.0
C176 C 0.43079 0.14839 0.88073 0.0
C177 C 0.43644 0.1623 0.92323 0.0
C178 C 0.38791 0.15003 0.90174 0.0
N179 N 0.40927 0.16296 0.93642 0.0
C180 C 0.42533 0.10397 0.77657 0.0
C181 C 0.47128 0.1693 0.75993 0.0
C182 C 0.48075 0.14531 0.75588 0.0
C183 C 0.45704 0.11223 0.76313 0.0
C184 C 0.43919 0.15999 0.77401 0.0
N185 N 0.41697 0.12771 0.78332 0.0
H186 H 0.40801 0.07851 0.78404 0.0
H187 H 0.43315 0.17905 0.7805 0.0
H188 H 0.44703 0.14219 0.86271 0.0
H189 H 0.36295 0.14529 0.90301 0.0
O190 O 0.37155 0.07661 0.84669 0.0
O191 O 0.33601 0.09486 0.85057 0.0
O192 O 0.37279 0.15296 0.79094 0.0
C193 C 0.34458 0.07368 0.86355 0.0
H194 H 0.29591 0.06311 0.68376 0.0
H195 H 0.45793 0.16928 0.944 0.0
H196 H 0.48899 0.19516 0.75482 0.0
H197 H 0.46323 0.09291 0.75971 0.0
Co198 Co 0.66177 0.75946 0.85138 0.0
C199 C 0.70166 0.74203 0.91214 0.0
C200 C 0.68436 0.77124 0.9456 0.0
C201 C 0.70004 0.7621 0.97683 0.0
N202 N 0.68534 0.75873 0.90497 0.0
N203 N 0.71086 0.7437 0.95582 0.0
H204 H 0.70527 0.72748 0.88675 0.0
H205 H 0.67183 0.78487 0.95263 0.0
C206 C 0.65233 0.81867 0.8559 0.0
O207 O 0.62522 0.80327 0.83196 0.0
N208 N 0.63813 0.75914 0.79733 0.0
C209 C 0.60781 0.73577 0.78419 0.0
C210 C 0.60139 0.74411 0.74239 0.0
C211 C 0.65011 0.78072 0.76259 0.0
N212 N 0.62799 0.77247 0.72875 0.0
C213 C 0.6125 0.6987 0.88737 0.0
C214 C 0.56516 0.71607 0.90372 0.0
C215 C 0.5558 0.6825 0.90333 0.0
C216 C 0.58039 0.67416 0.89725 0.0
C217 C 0.5978 0.73997 0.89396 0.0
N218 N 0.62038 0.73084 0.88257 0.0
H219 H 0.63062 0.69144 0.88073 0.0
H220 H 0.60413 0.76535 0.89403 0.0
H221 H 0.59148 0.71384 0.80309 0.0
H222 H 0.67462 0.80198 0.76239 0.0
O223 O 0.66783 0.72584 0.82241 0.0
O224 O 0.7021 0.77971 0.81713 0.0
O225 O 0.66564 0.80279 0.87254 0.0
C226 C 0.69408 0.75007 0.80425 0.0
H227 H 0.70262 0.76791 0.01255 0.0
H228 H 0.57869 0.73016 0.72379 0.0
H229 H 0.54724 0.72376 0.9101 0.0
H230 H 0.57463 0.64868 0.89708 0.0
Co231 Co 0.90422 0.64493 0.02391 0.0
C232 C 0.95912 0.68452 0.08817 0.0
C233 C 0.91301 0.67482 0.11605 0.0
C234 C 0.93767 0.69451 0.14575 0.0
N235 N 0.92629 0.66851 0.07952 0.0
N236 N 0.96671 0.70072 0.12814 0.0
H237 H 0.97744 0.68531 0.06522 0.0
H238 H 0.88741 0.66659 0.12122 0.0
C239 C 0.8422 0.6452 0.05697 0.0
O240 O 0.83638 0.62372 0.08927 0.0
N241 N 0.88357 0.62285 0.96796 0.0
C242 C 0.88244 0.59573 0.95025 0.0
C243 C 0.87112 0.59183 0.90647 0.0
C244 C 0.87381 0.63554 0.93449 0.0
N245 N 0.86604 0.61706 0.89662 0.0
C246 C 0.90161 0.594 0.07855 0.0
C247 C 0.8397 0.54571 0.05142 0.0
C248 C 0.86113 0.53598 0.06994 0.0
C249 C 0.89182 0.5608 0.0858 0.0
C250 C 0.85063 0.57916 0.0442 0.0
N251 N 0.88188 0.60281 0.05574 0.0
H252 H 0.92661 0.61242 0.08676 0.0
H253 H 0.83514 0.58565 0.02487 0.0
H254 H 0.89082 0.58079 0.96721 0.0
H255 H 0.87389 0.65865 0.93718 0.0
O256 O 0.94236 0.64261 0.00618 0.0
O257 O 0.93295 0.68334 0.98856 0.0
O258 O 0.86768 0.65565 0.03188 0.0
C259 C 0.95102 0.66958 0.98356 0.0
H260 H 0.93439 0.70371 0.17778 0.0
H261 H 0.86873 0.57308 0.88284 0.0
H262 H 0.81544 0.5276 0.0396 0.0
H263 H 0.90946 0.55484 0.10007 0.0
Co264 Co 0.26049 0.89544 0.18496 0.0
C265 C 0.28128 0.95833 0.23294 0.0
C266 C 0.247 0.91756 0.27317 0.0
C267 C 0.25646 0.94648 0.29685 0.0
N268 N 0.26252 0.92511 0.23286 0.0
N269 N 0.27807 0.97219 0.27133 0.0
H270 H 0.29784 0.9721 0.20581 0.0
H271 H 0.23019 0.89286 0.28495 0.0
C272 C 0.20153 0.82808 0.2001 0.0
O273 O 0.21538 0.81415 0.1773 0.0
N274 N 0.25947 0.86724 0.13585 0.0
C275 C 0.28345 0.86079 0.12345 0.0
C276 C 0.27589 0.84573 0.08169 0.0
C277 C 0.23834 0.85701 0.1006 0.0
N278 N 0.24764 0.84357 0.06756 0.0
C279 C 0.3213 0.91304 0.2248 0.0
C280 C 0.31169 0.85024 0.23607 0.0
C281 C 0.34384 0.87716 0.23411 0.0
C282 C 0.34831 0.90894 0.23194 0.0
C283 C 0.28502 0.85555 0.22938 0.0
N284 N 0.29052 0.88646 0.21954 0.0
H285 H 0.32583 0.93764 0.21847 0.0
H286 H 0.26071 0.83451 0.2278 0.0
H287 H 0.30627 0.86885 0.14136 0.0
H288 H 0.21748 0.86087 0.09799 0.0
O289 O 0.29296 0.93195 0.14972 0.0
O290 O 0.23904 0.91205 0.14613 0.0
O291 O 0.2185 0.85832 0.21257 0.0
C292 C 0.26828 0.9327 0.1309 0.0
H293 H 0.24792 0.94823 0.33017 0.0
H294 H 0.29138 0.83959 0.06153 0.0
H295 H 0.30738 0.82529 0.2384 0.0
H296 H 0.37282 0.93037 0.23119 0.0
Co297 Co 0.37361 0.26353 0.35727 0.0
C298 C 0.33414 0.27848 0.42155 0.0
C299 C 0.33912 0.23827 0.44615 0.0
C300 C 0.3193 0.24351 0.47558 0.0
N301 N 0.34846 0.2602 0.41194 0.0
N302 N 0.31612 0.26881 0.45993 0.0
H303 H 0.33588 0.29795 0.40019 0.0
H304 H 0.34526 0.21912 0.44957 0.0
C305 C 0.37138 0.19833 0.38597 0.0
O306 O 0.38949 0.20928 0.42257 0.0
N307 N 0.39729 0.26663 0.30221 0.0
C308 C 0.42486 0.29249 0.28557 0.0
C309 C 0.43008 0.2847 0.24243 0.0
C310 C 0.38575 0.24403 0.26893 0.0
N311 N 0.40532 0.25416 0.23199 0.0
C312 C 0.42214 0.31159 0.41343 0.0
C313 C 0.47145 0.29769 0.39358 0.0
C314 C 0.48039 0.32909 0.41128 0.0
C315 C 0.4547 0.335 0.42305 0.0
C316 C 0.43844 0.27529 0.38311 0.0
N317 N 0.41448 0.28309 0.3913 0.0
H318 H 0.40341 0.31819 0.41923 0.0
H319 H 0.43276 0.2532 0.36445 0.0
H320 H 0.4395 0.3157 0.30294 0.0
H321 H 0.36289 0.2209 0.27168 0.0
O322 O 0.37523 0.30394 0.34081 0.0
O323 O 0.33581 0.25377 0.32074 0.0
O324 O 0.36411 0.21667 0.36254 0.0
C325 C 0.34851 0.28561 0.31787 0.0
H326 H 0.30789 0.22944 0.50588 0.0
H327 H 0.44985 0.30084 0.21998 0.0
H328 H 0.48979 0.29097 0.38524 0.0
H329 H 0.45935 0.35849 0.43617 0.0
Co330 Co 0.1276 0.38294 0.51038 0.0
C331 C 0.0663 0.331 0.55431 0.0
C332 C 0.10677 0.35157 0.60059 0.0
C333 C 0.07854 0.3298 0.62391 0.0
N334 N 0.09902 0.35244 0.55686 0.0
N335 N 0.05321 0.31689 0.59455 0.0
H336 H 0.05175 0.32651 0.52415 0.0
H337 H 0.13104 0.36657 0.6149 0.0
C338 C 0.19214 0.38257 0.51414 0.0
O339 O 0.20743 0.41058 0.49207 0.0
N340 N 0.15476 0.41355 0.46325 0.0
C341 C 0.15879 0.44391 0.45781 0.0
C342 C 0.17324 0.45616 0.41677 0.0
C343 C 0.16564 0.40722 0.42398 0.0
N344 N 0.17799 0.43335 0.3954 0.0
C345 C 0.11858 0.42521 0.56877 0.0
C346 C 0.18386 0.47385 0.57545 0.0
C347 C 0.15925 0.4818 0.5845 0.0
C348 C 0.12636 0.45645 0.58388 0.0
C349 C 0.17492 0.44203 0.56034 0.0
N350 N 0.14254 0.41905 0.55373 0.0
H351 H 0.09292 0.40681 0.56485 0.0
H352 H 0.1941 0.43729 0.55007 0.0
H353 H 0.14991 0.4557 0.4808 0.0
H354 H 0.16425 0.38391 0.41655 0.0
O355 O 0.09174 0.38658 0.48621 0.0
O356 O 0.10569 0.34984 0.46392 0.0
O357 O 0.1623 0.37093 0.52724 0.0
C358 C 0.0871 0.36302 0.45867 0.0
H359 H 0.07679 0.32398 0.65958 0.0
H360 H 0.17834 0.47966 0.40307 0.0
H361 H 0.20963 0.49268 0.57625 0.0
H362 H 0.10663 0.46131 0.59197 0.0
Co363 Co 0.75751 0.10899 0.67044 0.0
C364 C 0.74537 0.06288 0.74602 0.0
C365 C 0.796 0.10062 0.74386 0.0
C366 C 0.79248 0.077 0.77472 0.0
N367 N 0.76633 0.09209 0.72599 0.0
N368 N 0.76063 0.053 0.77567 0.0
H369 H 0.71979 0.04785 0.73677 0.0
H370 H 0.81927 0.12066 0.73243 0.0
C371 C 0.82382 0.17357 0.69348 0.0
O372 O 0.81766 0.17799 0.73546 0.0
N373 N 0.74805 0.12431 0.61473 0.0
C374 C 0.71812 0.11868 0.60169 0.0
C375 C 0.71996 0.12847 0.55741 0.0
C376 C 0.76768 0.1374 0.57825 0.0
N377 N 0.75113 0.14037 0.54302 0.0
C378 C 0.70748 0.10872 0.72505 0.0
C379 C 0.72287 0.17256 0.70544 0.0
C380 C 0.69173 0.15081 0.72387 0.0
C381 C 0.68489 0.11892 0.73546 0.0
C382 C 0.74479 0.16127 0.69536 0.0
N383 N 0.73635 0.12927 0.70354 0.0
H384 H 0.70011 0.0832 0.73028 0.0
H385 H 0.76704 0.17736 0.67694 0.0
H386 H 0.69614 0.10688 0.62233 0.0
H387 H 0.79275 0.14245 0.57634 0.0
O388 O 0.71939 0.0662 0.65829 0.0
O389 O 0.77082 0.08292 0.63656 0.0
O390 O 0.80242 0.14948 0.6701 0.0
C391 C 0.74003 0.06017 0.63654 0.0
H392 H 0.8124 0.07621 0.792 0.0
H393 H 0.69982 0.12619 0.5369 0.0
H394 H 0.7296 0.19758 0.69649 0.0
H395 H 0.66116 0.10088 0.74902 0.0
H396 H 0.17428 0.38481 0.33797 0.0
H397 H 0.21753 0.49103 0.35238 0.0
H398 H 0.24155 0.49907 0.27718 0.0
H399 H 0.24511 0.38962 0.28094 0.0
H400 H 0.22134 0.35545 0.24346 0.0
H401 H 0.20517 0.35683 0.29823 0.0
H402 H 0.15289 0.35126 0.26035 0.0
H403 H 0.16895 0.35011 0.20537 0.0
H404 H 0.15699 0.38042 0.21747 0.0
H405 H 0.26075 0.49727 0.20173 0.0
H406 H 0.27917 0.48585 0.12999 0.0
H407 H 0.22846 0.38126 0.16182 0.0
C408 C 0.18881 0.40974 0.32538 0.0
C409 C 0.19307 0.43721 0.35132 0.0
C410 C 0.21264 0.46938 0.33325 0.0
C411 C 0.22674 0.47434 0.29037 0.0
C412 C 0.22165 0.44699 0.26561 0.0
C413 C 0.2036 0.41531 0.28229 0.0
C414 C 0.20363 0.39068 0.24848 0.0
C415 C 0.21978 0.37205 0.26901 0.0
C416 C 0.16853 0.3667 0.23194 0.0
C417 C 0.2247 0.41376 0.21068 0.0
C418 C 0.23434 0.44603 0.22156 0.0
C419 C 0.25371 0.47216 0.1929 0.0
C420 C 0.26428 0.46539 0.15226 0.0
C421 C 0.25591 0.43278 0.14044 0.0
C422 C 0.23529 0.40645 0.16983 0.0
H423 H 0.8632 0.26409 0.34996 0.0
H424 H 0.80516 0.18703 0.25344 0.0
H425 H 0.77247 0.14996 0.31607 0.0
H426 H 0.86643 0.20927 0.43443 0.0
H427 H 0.8642 0.23242 0.48169 0.0
H428 H 0.88266 0.2531 0.42932 0.0
H429 H 0.84241 0.2759 0.42595 0.0
H430 H 0.82389 0.25533 0.47832 0.0
H431 H 0.79868 0.24762 0.42884 0.0
H432 H 0.74371 0.12302 0.38854 0.0
H433 H 0.7242 0.10584 0.46709 0.0
H434 H 0.80416 0.19794 0.51743 0.0
C435 C 0.84349 0.23944 0.34225 0.0
C436 C 0.83631 0.22835 0.29706 0.0
C437 C 0.81086 0.1958 0.28795 0.0
C438 C 0.7922 0.1747 0.32323 0.0
C439 C 0.7998 0.18635 0.36747 0.0
C440 C 0.82515 0.21777 0.3772 0.0
C441 C 0.82879 0.22378 0.42781 0.0
C442 C 0.86253 0.23001 0.44427 0.0
C443 C 0.8231 0.25235 0.44099 0.0
C444 C 0.80121 0.19104 0.44493 0.0
C445 C 0.78457 0.16995 0.40949 0.0
C446 C 0.75688 0.13908 0.41659 0.0
C447 C 0.74594 0.12952 0.46108 0.0
C448 C 0.76305 0.15039 0.49782 0.0
C449 C 0.79115 0.18141 0.48969 0.0
H450 H 0.5812 0.79772 0.47897 0.0
H451 H 0.66861 0.8943 0.47977 0.0
H452 H 0.68089 0.88499 0.55812 0.0
H453 H 0.55759 0.79598 0.5953 0.0
H454 H 0.54464 0.75299 0.60308 0.0
H455 H 0.54238 0.76802 0.54794 0.0
H456 H 0.5781 0.74496 0.51478 0.0
H457 H 0.58046 0.72984 0.5698 0.0
H458 H 0.61767 0.75716 0.53951 0.0
H459 H 0.68226 0.8653 0.63709 0.0
H460 H 0.67538 0.8358 0.70853 0.0
H461 H 0.58921 0.74998 0.65329 0.0
C462 C 0.60277 0.8168 0.49599 0.0
C463 C 0.624 0.84669 0.47397 0.0
C464 C 0.65231 0.87119 0.49648 0.0
C465 C 0.65932 0.86615 0.54085 0.0
C466 C 0.63796 0.83624 0.56175 0.0
C467 C 0.61047 0.81184 0.53989 0.0
C468 C 0.59231 0.78144 0.56914 0.0
C469 C 0.55715 0.7742 0.57947 0.0
C470 C 0.59214 0.75159 0.54699 0.0
C471 C 0.61365 0.79264 0.61104 0.0
C472 C 0.63968 0.82439 0.60628 0.0
C473 C 0.6622 0.84023 0.64098 0.0
C474 C 0.65814 0.82306 0.68151 0.0
C475 C 0.63192 0.79015 0.68699 0.0
C476 C 0.60947 0.77499 0.65092 0.0
H477 H 0.77205 0.57659 0.6621 0.0
H478 H 0.82647 0.68128 0.63235 0.0
H479 H 0.85635 0.6915 0.70475 0.0
H480 H 0.76139 0.58352 0.77924 0.0
H481 H 0.76661 0.54924 0.79518 0.0
H482 H 0.75081 0.55013 0.7401 0.0
H483 H 0.79734 0.54375 0.70251 0.0
H484 H 0.81321 0.54266 0.75752 0.0
H485 H 0.83966 0.57258 0.71628 0.0
H486 H 0.87724 0.69044 0.78332 0.0
H487 H 0.89048 0.67763 0.85895 0.0
H488 H 0.82331 0.57357 0.83599 0.0
C489 C 0.79034 0.60164 0.67077 0.0
C490 C 0.79691 0.62814 0.64169 0.0
C491 C 0.8213 0.66057 0.65391 0.0
C492 C 0.83823 0.66662 0.69508 0.0
C493 C 0.83071 0.63993 0.72334 0.0
C494 C 0.80762 0.60804 0.71143 0.0
C495 C 0.8039 0.58368 0.74778 0.0
C496 C 0.76858 0.56559 0.76668 0.0
C497 C 0.81415 0.55923 0.72995 0.0
C498 C 0.82809 0.60686 0.78243 0.0
C499 C 0.84324 0.63924 0.76784 0.0
C500 C 0.86566 0.66515 0.79491 0.0
C501 C 0.87284 0.6577 0.83788 0.0
C502 C 0.85787 0.62463 0.85311 0.0
C503 C 0.83532 0.59899 0.82487 0.0
H504 H 0.17402 0.73627 0.84525 0.0
H505 H 0.18429 0.82488 0.78224 0.0
H506 H 0.20576 0.85506 0.85318 0.0
H507 H 0.1505 0.74836 0.95503 0.0
H508 H 0.17444 0.73402 0.98489 0.0
H509 H 0.15902 0.71851 0.92915 0.0
H510 H 0.21827 0.73689 0.90158 0.0
H511 H 0.23381 0.75221 0.95734 0.0
H512 H 0.25025 0.77918 0.90913 0.0
H513 H 0.22315 0.87525 0.93203 0.0
H514 H 0.2419 0.8856 0.01173 0.0
H515 H 0.22575 0.78633 0.022 0.0
C516 C 0.181 0.76205 0.84599 0.0
C517 C 0.17651 0.7777 0.80792 0.0
C518 C 0.18626 0.81169 0.81091 0.0
C519 C 0.19879 0.82929 0.85115 0.0
C520 C 0.20212 0.81289 0.88812 0.0
C521 C 0.19411 0.78024 0.88578 0.0
C522 C 0.20114 0.76887 0.93025 0.0
C523 C 0.16938 0.74077 0.95104 0.0
C524 C 0.22744 0.75869 0.9242 0.0
C525 C 0.21414 0.8002 0.95788 0.0
C526 C 0.21404 0.82516 0.93305 0.0
C527 C 0.22366 0.85603 0.95169 0.0
C528 C 0.23405 0.86165 0.99683 0.0
C529 C 0.23519 0.83672 0.02234 0.0
C530 C 0.22518 0.80568 0.0027 0.0
H531 H 0.45275 0.21134 0.99201 0.0
H532 H 0.35088 0.13352 0.98077 0.0
H533 H 0.33905 0.14844 0.05568 0.0
H534 H 0.46152 0.20229 0.1121 0.0
H535 H 0.4869 0.246 0.12176 0.0
H536 H 0.4875 0.2288 0.06749 0.0
H537 H 0.47255 0.26921 0.02865 0.0
H538 H 0.47172 0.28641 0.08282 0.0
H539 H 0.4362 0.2701 0.04644 0.0
H540 H 0.33792 0.17227 0.13062 0.0
H541 H 0.34728 0.20304 0.20134 0.0
H542 H 0.45049 0.26504 0.16574 0.0
C543 C 0.42805 0.19736 0.00556 0.0
C544 C 0.40266 0.17148 0.98045 0.0
C545 C 0.37054 0.15385 -0.00097 0.0
C546 C 0.36364 0.16199 0.04168 0.0
C547 C 0.38911 0.18786 0.06533 0.0
C548 C 0.42068 0.2053 0.04806 0.0
C549 C 0.44336 0.23244 0.0802 0.0
C550 C 0.47148 0.22704 0.09635 0.0
C551 C 0.45674 0.26656 0.05821 0.0
C552 C 0.41962 0.22737 0.11831 0.0
C553 C 0.38849 0.20155 0.10892 0.0
C554 C 0.36226 0.19239 0.13855 0.0
C555 C 0.36798 0.21001 0.17899 0.0
C556 C 0.39978 0.2365 0.18981 0.0
C557 C 0.42585 0.24518 0.1587 0.0
H558 H 0.31436 0.30984 0.82782 0.0
H559 H 0.27286 0.25823 0.95363 0.0
H560 H 0.29041 0.21777 0.9342 0.0
H561 H 0.29398 0.23907 0.75838 0.0
H562 H 0.33207 0.25879 0.72706 0.0
H563 H 0.31561 0.28315 0.75033 0.0
H564 H 0.37033 0.31939 0.79307 0.0
H565 H 0.38698 0.2952 0.76977 0.0
H566 H 0.38619 0.30005 0.83014 0.0
H567 H 0.30904 0.18063 0.89778 0.0
H568 H 0.33334 0.15388 0.85212 0.0
H569 H 0.36828 0.2333 0.75447 0.0
C570 C 0.30884 0.28989 0.85109 0.0
C571 C 0.29193 0.28687 0.89205 0.0
C572 C 0.28577 0.2609 0.92215 0.0
C573 C 0.2955 0.23778 0.91125 0.0
C574 C 0.3119 0.24128 0.87043 0.0
C575 C 0.319 0.26701 0.84114 0.0
C576 C 0.33813 0.26599 0.80033 0.0
C577 C 0.31878 0.26148 0.75644 0.0
C578 C 0.37244 0.297 0.79823 0.0
C579 C 0.34044 0.23553 0.811 0.0
C580 C 0.32477 0.22138 0.85127 0.0
C581 C 0.32217 0.19206 0.86687 0.0
C582 C 0.3365 0.17724 0.84109 0.0
C583 C 0.35415 0.19218 0.80093 0.0
C584 C 0.35561 0.22152 0.78553 0.0
H585 H 0.16754 0.39316 0.02528 0.0
H586 H 0.1702 0.32211 0.93342 0.0
H587 H 0.10945 0.28774 0.93883 0.0
H588 H 0.10675 0.33453 0.09821 0.0
H589 H 0.08754 0.35892 0.10934 0.0
H590 H 0.13067 0.37889 0.09544 0.0
H591 H 0.12151 0.40946 0.02891 0.0
H592 H 0.07839 0.38982 0.04285 0.0
H593 H 0.091 0.38602 0.98662 0.0
H594 H 0.04819 0.2606 0.95644 0.0
H595 H 0.99219 0.24266 0.98505 0.0
H596 H 0.03086 0.33121 0.06695 0.0
C597 C 0.15543 0.37071 0.00547 0.0
C598 C 0.17366 0.3606 0.97831 0.0
C599 C 0.15674 0.33056 0.95402 0.0
C600 C 0.12227 0.31086 0.95701 0.0
C601 C 0.10519 0.32142 0.98474 0.0
C602 C 0.12129 0.35065 0.00857 0.0
C603 C 0.09768 0.3559 0.03766 0.0
C604 C 0.10617 0.35712 0.08813 0.0
C605 C 0.09711 0.38715 0.02312 0.0
C606 C 0.0656 0.32505 0.02646 0.0
C607 C 0.07036 0.30552 0.99574 0.0
C608 C 0.04422 0.2758 0.98035 0.0
C609 C 1.01245 0.26589 0.99664 0.0
C610 C 1.00702 0.28552 0.02822 0.0
C611 C 0.03414 0.31545 0.04325 0.0
H612 H 0.78929 0.14497 0.09129 0.0
H613 H 0.8747 0.17376 0.17699 0.0
H614 H 0.84852 0.11827 0.20927 0.0
H615 H 0.72881 0.0933 0.17186 0.0
H616 H 0.70272 0.06204 0.13187 0.0
H617 H 0.72829 0.10406 0.11348 0.0
H618 H 0.75497 0.08492 0.05271 0.0
H619 H 0.72937 0.04278 0.07074 0.0
H620 H 0.7735 0.06083 0.06943 0.0
H621 H 0.81255 0.06166 0.23702 0.0
H622 H 0.76952 1.00447 0.25414 0.0
H623 H 0.70781 0.00931 0.14895 0.0
C624 C 0.80263 0.13945 0.11636 0.0
C625 C 0.83412 0.16406 0.13146 0.0
C626 C 0.8506 0.15567 0.16462 0.0
C627 C 0.83593 0.12408 0.18338 0.0
C628 C 0.80484 0.10067 0.1684 0.0
C629 C 0.78843 0.10763 0.13529 0.0
C630 C 0.75504 0.07753 0.1258 0.0
C631 C 0.72706 0.08467 0.13639 0.0
C632 C 0.75311 0.06582 0.07675 0.0
C633 C 0.7553 0.05293 0.15912 0.0
C634 C 0.78427 0.06705 0.18349 0.0
C635 C 0.7899 0.05012 0.21781 0.0
C636 C 0.76532 0.01775 0.22745 0.0
C637 C 0.73559 1.00244 0.20263 0.0
C638 C 0.73061 0.02026 0.16783 0.0
H639 H 0.69685 0.70753 0.39903 0.0
H640 H 0.77645 0.74496 0.30119 0.0
H641 H 0.75677 0.78058 0.26838 0.0
H642 H 0.63536 0.7053 0.32492 0.0
H643 H 0.61678 0.71806 0.36795 0.0
H644 H 0.63724 0.69562 0.38344 0.0
H645 H 0.67484 0.74243 0.43873 0.0
H646 H 0.65431 0.76486 0.42363 0.0
H647 H 0.69839 0.78413 0.41805 0.0
H648 H 0.72911 0.81429 0.24843 0.0
H649 H 0.6952 0.84132 0.24251 0.0
H650 H 0.63329 0.7796 0.35187 0.0
C651 C 0.71034 0.72335 0.37093 0.0
C652 C 0.73827 0.7234 0.35278 0.0
C653 C 0.75481 0.74419 0.31543 0.0
C654 C 0.74389 0.76464 0.29669 0.0
C655 C 0.71624 0.76393 0.31543 0.0
C656 C 0.69967 0.74371 0.35167 0.0
C657 C 0.6706 0.74736 0.36568 0.0
C658 C 0.63808 0.71464 0.36015 0.0
C659 C 0.6748 0.76048 0.41439 0.0
C660 C 0.67336 0.77276 0.33168 0.0
C661 C 0.69991 0.7823 0.3031 0.0
C662 C 0.70801 0.80668 0.27032 0.0
C663 C 0.68859 0.82183 0.26706 0.0
C664 C 0.66118 0.81219 0.29603 0.0
C665 C 0.65353 0.78709 0.32835 0.0
H666 H 0.99166 0.75329 0.55898 0.0
H667 H 0.02383 0.68869 0.50234 0.0
H668 H 0.97017 0.65676 0.46306 0.0
H669 H 0.90795 0.68919 0.57963 0.0
H670 H 0.89081 0.71517 0.56678 0.0
H671 H 0.93195 0.73306 0.58901 0.0
H672 H 0.95432 0.77256 0.52015 0.0
H673 H 0.91326 0.75471 0.49765 0.0
H674 H 0.94572 0.75565 0.46377 0.0
H675 H 0.91262 0.63267 0.42868 0.0
H676 H 0.85523 0.61595 0.40757 0.0
H677 H 0.86117 0.6958 0.48946 0.0
C678 C 0.98751 0.73262 0.53793 0.0
C679 C 1.01201 0.72367 0.53308 0.0
C680 C 1.00534 0.69592 0.50629 0.0
C681 C 0.97503 0.67778 0.48381 0.0
C682 C 0.95145 0.68743 0.48904 0.0
C683 C 0.95725 0.71398 0.51597 0.0
C684 C 0.92749 0.71853 0.51771 0.0
C685 C 0.91374 0.71369 0.56615 0.0
C686 C 0.9357 0.75237 0.49867 0.0
C687 C 0.9042 0.69079 0.48694 0.0
C688 C 0.91837 0.67313 0.47053 0.0
C689 C 0.90129 0.64633 0.44144 0.0
C690 C 0.86875 0.63709 0.42943 0.0
C691 C 0.85358 0.6545 0.44669 0.0
C692 C 0.87189 0.68187 0.4755 0.0
H693 H 0.27954 0.01351 0.64899 0.0
H694 H 0.31575 0.98933 0.77006 0.0
H695 H 0.28383 0.93085 0.75073 0.0
H696 H 0.1975 0.94547 0.6576 0.0
H697 H 0.19182 0.93829 0.59756 0.0
H698 H 0.21951 0.9791 0.61858 0.0
H699 H 0.26671 0.98124 0.57037 0.0
H700 H 0.23916 0.94035 0.54933 0.0
H701 H 0.27708 0.94917 0.57652 0.0
H702 H 0.24618 0.87493 0.72202 0.0
H703 H 0.20393 0.82421 0.68551 0.0
H704 H 0.18986 0.88229 0.58291 0.0
C705 C 0.28098 0.99609 0.67148 0.0
C706 C 0.30082 1.00675 0.71103 0.0
C707 C 0.30164 0.98259 0.73916 0.0
C708 C 0.28332 0.94898 0.72859 0.0
C709 C 0.26408 0.93951 0.68974 0.0
C710 C 0.26264 0.96222 0.66155 0.0
C711 C 0.23864 0.94496 0.62292 0.0
C712 C 0.21019 0.9524 0.62427 0.0
C713 C 0.25647 0.95451 0.57706 0.0
C714 C 0.22671 0.90904 0.63418 0.0
C715 C 0.24194 0.9067 0.67287 0.0
C716 C 0.2343 0.87643 0.6915 0.0
C717 C 0.21016 0.84773 0.6705 0.0
C718 C 0.19368 0.84922 0.63119 0.0
C719 C 0.20248 0.88036 0.61236 0.0
H720 H 0.83689 0.67677 0.98159 0.0
H721 H 0.79506 0.64187 0.11492 0.0
H722 H 0.75661 0.66273 0.10261 0.0
H723 H 0.8321 0.75102 0.98193 0.0
H724 H 0.82082 0.74811 0.92318 0.0
H725 H 0.84526 0.7306 0.94229 0.0
H726 H 0.80244 0.67396 0.90928 0.0
H727 H 0.77781 0.69125 0.8901 0.0
H728 H 0.75992 0.65551 0.92633 0.0
H729 H 0.72401 0.68878 0.07721 0.0
H730 H 0.69757 0.71641 0.03917 0.0
H731 H 0.75847 0.73272 0.92073 0.0
C732 C 0.8197 0.67359 0.00827 0.0
C733 C 0.81912 0.65779 0.04942 0.0
C734 C 0.79599 0.65383 0.08319 0.0
C735 C 0.77406 0.66564 0.0765 0.0
C736 C 0.77526 0.68103 0.03564 0.0
C737 C 0.7973 0.68484 0.00191 0.0
C738 C 0.79309 0.70194 0.9609 0.0
C739 C 0.8247 0.73487 0.95155 0.0
C740 C 0.78269 0.6793 0.91919 0.0
C741 C 0.76543 0.70741 0.97708 0.0
C742 C 0.75569 0.69527 0.02038 0.0
C743 C 0.73132 0.69825 0.04325 0.0
C744 C 0.71657 0.71415 0.02146 0.0
C745 C 0.72596 0.72676 0.97704 0.0
C746 C 0.75056 0.72302 0.95448 0.0
H747 H 0.02216 0.69671 0.11429 0.0
H748 H 0.98522 0.7533 0.18397 0.0
H749 H 0.04063 0.79007 0.21497 0.0
H750 H 0.07901 0.70271 0.20186 0.0
H751 H 0.10993 0.70645 0.16221 0.0
H752 H 0.06704 0.68385 0.14682 0.0
H753 H 0.07921 0.72087 0.07601 0.0
H754 H 0.12212 0.74335 0.091 0.0
H755 H 0.0998 0.76504 0.08274 0.0
H756 H 0.10142 0.82277 0.23527 0.0
H757 H 0.16195 0.8483 0.24211 0.0
H758 H 0.15824 0.76932 0.16054 0.0
C759 C 0.02567 0.71682 0.13601 0.0
C760 C 0.99913 0.72191 0.14679 0.0
C761 C 1.00491 0.74847 0.17573 0.0
C762 C 0.03639 0.76963 0.19339 0.0
C763 C 0.06196 0.76388 0.18213 0.0
C764 C 0.05689 0.73806 0.15416 0.0
C765 C 0.08858 0.73754 0.14653 0.0
C766 C 0.08597 0.70574 0.16549 0.0
C767 C 0.09797 0.74198 0.09609 0.0
C768 C 0.11233 0.76735 0.174 0.0
C769 C 0.09659 0.78223 0.19443 0.0
C770 C 0.11393 0.81107 0.21983 0.0
C771 C 0.14831 0.82535 0.22371 0.0
C772 C 0.16497 0.8107 0.20242 0.0
C773 C 0.1464 0.78097 0.17798 0.0
H774 H 0.28264 1.00169 0.35403 0.0
H775 H 0.31092 0.02345 0.21251 0.0
H776 H 0.34091 0.08217 0.22966 0.0
H777 H 0.26822 0.06993 0.36979 0.0
H778 H 0.28374 0.07857 0.42684 0.0
H779 H 0.2657 0.03724 0.40485 0.0
H780 H 0.31896 0.03618 0.42443 0.0
H781 H 0.33727 0.07763 0.44615 0.0
H782 H 0.35788 0.06793 0.40239 0.0
H783 H 0.36827 0.13824 0.26003 0.0
H784 H 0.38714 0.19001 0.3017 0.0
H785 H 0.33884 0.13522 0.42314 0.0
C786 C 0.29508 0.01866 0.32655 0.0
C787 C 0.29474 1.00716 0.28192 0.0
C788 C 0.31131 0.03077 0.24722 0.0
C789 C 0.32845 0.06454 0.25653 0.0
C790 C 0.32867 0.07482 0.30064 0.0
C791 C 0.31213 0.05282 0.33511 0.0
C792 C 0.3152 0.07112 0.37909 0.0
C793 C 0.28119 0.06378 0.39613 0.0
C794 C 0.33341 0.0627 0.41514 0.0
C795 C 0.33585 0.10675 0.36356 0.0
C796 C 0.34355 0.10798 0.3182 0.0
C797 C 0.36219 0.13763 0.29546 0.0
C798 C 0.37258 0.16693 0.31932 0.0
C799 C 0.36399 0.16662 0.36526 0.0
C800 C 0.34594 0.13611 0.38808 0.0
H801 H 0.32244 0.32916 0.444 0.0
H802 H 0.26306 0.23722 0.51621 0.0
H803 H 0.22675 0.25781 0.54307 0.0
H804 H 0.3155 0.38328 0.525 0.0
H805 H 0.31283 0.4091 0.48197 0.0
H806 H 0.33536 0.38791 0.47108 0.0
H807 H 0.29976 0.36069 0.39987 0.0
H808 H 0.27726 0.3819 0.4104 0.0
H809 H 0.25555 0.33761 0.40517 0.0
H810 H 0.19454 0.28752 0.55796 0.0
H811 H 0.16982 0.32353 0.55911 0.0
H812 H 0.25059 0.39522 0.47654 0.0
C813 C 0.30186 0.31318 0.4654 0.0
C814 C 0.29581 0.28144 0.47786 0.0
C815 C 0.26867 0.26177 0.50656 0.0
C816 C 0.24773 0.2732 0.52185 0.0
C817 C 0.25424 0.30442 0.50832 0.0
C818 C 0.28071 0.32411 0.48077 0.0
C819 C 0.28174 0.35614 0.46949 0.0
C820 C 0.31323 0.38586 0.488 0.0
C821 C 0.27836 0.35925 0.41821 0.0
C822 C 0.25155 0.35135 0.4947 0.0
C823 C 0.23598 0.32144 0.51704 0.0
C824 C 0.20675 0.31115 0.54096 0.0
C825 C 0.19292 0.3318 0.54151 0.0
C826 C 0.20838 0.3624 0.51833 0.0
C827 C 0.23832 0.37228 0.49524 0.0
H828 H 0.0176 0.30916 0.67199 0.0
H829 H 1.01123 0.27068 0.53651 0.0
H830 H 0.95236 0.23153 0.54798 0.0
H831 H 0.96077 0.23055 0.72504 0.0
H832 H 0.94211 0.24751 0.76157 0.0
H833 H 0.98425 0.27283 0.7436 0.0
H834 H 0.97036 0.31597 0.7118 0.0
H835 H 0.92814 0.29067 0.72947 0.0
H836 H 0.93755 0.30326 0.67123 0.0
H837 H 0.89569 0.19675 0.57253 0.0
H838 H 0.84228 0.16634 0.60914 0.0
H839 H 0.88149 0.22616 0.73019 0.0
C840 C 1.00379 0.29223 0.64503 0.0
C841 C 0.01906 0.29311 0.60314 0.0
C842 C 1.00007 0.27082 0.5685 0.0
C843 C 0.96662 0.24838 0.57478 0.0
C844 C 0.95226 0.2484 0.61597 0.0
C845 C 0.96999 0.26956 0.65067 0.0
C846 C 0.94777 0.26418 0.6913 0.0
C847 C 0.95943 0.25311 0.73284 0.0
C848 C 0.94585 0.29539 0.70155 0.0
C849 C 0.91497 0.23652 0.67388 0.0
C850 C 0.91852 0.22812 0.63028 0.0
C851 C 0.89249 0.20324 0.60654 0.0
C852 C 0.86193 0.18619 0.62781 0.0
C853 C 0.85701 0.19399 0.67254 0.0
C854 C 0.88412 0.21971 0.69589 0.0
H855 H 0.7076 0.9946 0.74878 0.0
H856 H 0.78348 0.0383 0.85153 0.0
H857 H 0.76298 0.98331 0.88589 0.0
H858 H 0.64299 0.93467 0.82181 0.0
H859 H 0.62653 0.90334 0.77858 0.0
H860 H 0.64675 0.94628 0.76306 0.0
H861 H 0.68676 0.93804 0.71127 0.0
H862 H 0.66666 0.89512 0.72668 0.0
H863 H 0.7104 0.92086 0.73471 0.0
H864 H 0.73562 0.92216 0.90648 0.0
H865 H 0.70287 0.86113 0.91216 0.0
H866 H 0.64391 0.85905 0.79794 0.0
C867 C 0.71961 0.99294 0.77902 0.0
C868 C 0.74722 0.0211 0.79745 0.0
C869 C 0.76251 0.01721 0.83649 0.0
C870 C 0.75093 0.98604 0.85639 0.0
C871 C 0.72388 0.95884 0.83707 0.0
C872 C 0.70835 0.96207 0.79934 0.0
C873 C 0.68026 0.92896 0.78434 0.0
C874 C 0.64717 0.92829 0.78713 0.0
C875 C 0.6864 0.92024 0.73643 0.0
C876 C 0.68237 0.90659 0.81951 0.0
C877 C 0.70776 0.92413 0.84956 0.0
C878 C 0.71537 0.90827 0.8835 0.0
C879 C 0.69663 0.87362 0.88656 0.0
C880 C 0.67036 0.8553 0.8562 0.0
C881 C 0.6632 0.87227 0.82256 0.0
H882 H 0.26916 0.29479 0.08569 0.0
H883 H 0.32958 0.401 0.09863 0.0
H884 H 0.34459 0.3946 0.17618 0.0
H885 H 0.24136 0.27602 0.2033 0.0
H886 H 0.24544 0.23974 0.20561 0.0
H887 H 0.23604 0.25232 0.15274 0.0
H888 H 0.28693 0.25391 0.1153 0.0
H889 H 0.29609 0.24082 0.16778 0.0
H890 H 0.32686 0.27819 0.14095 0.0
H891 H 0.35464 0.3775 0.24991 0.0
H892 H 0.36674 0.35042 0.31224 0.0
H893 H 0.30296 0.25486 0.25101 0.0
C894 C 0.28544 0.31652 0.10517 0.0
C895 C 0.29836 0.34832 0.08673 0.0
C896 C 0.31983 0.37641 0.11243 0.0
C897 C 0.32812 0.37307 0.15658 0.0
C898 C 0.31504 0.34142 0.17411 0.0
C899 C 0.29477 0.31357 0.14905 0.0
C900 C 0.28732 0.2825 0.17436 0.0
C901 C 0.25033 0.2614 0.18461 0.0
C902 C 0.30007 0.2627 0.14805 0.0
C903 C 0.30695 0.29737 0.21713 0.0
C904 C 0.32205 0.33138 0.21658 0.0
C905 C 0.34285 0.35088 0.25102 0.0
C906 C 0.34954 0.33528 0.28625 0.0
C907 C 0.33574 0.30063 0.28631 0.0
C908 C 0.3134 0.28137 0.25209 0.0
H909 H 1.00241 0.28714 0.22034 0.0
H910 H 0.9498 0.3407 0.23878 0.0
H911 H 0.97709 0.36151 0.31201 0.0
H912 H 1.00374 0.26364 0.33148 0.0
H913 H 0.04581 0.27239 0.33192 0.0
H914 H 0.02323 0.2621 0.27962 0.0
H915 H 0.06824 0.31656 0.24337 0.0
H916 H 0.09135 0.3267 0.2953 0.0
H917 H 0.08032 0.3552 0.27126 0.0
H918 H 1.00456 0.37154 0.38526 0.0
H919 H 0.04027 0.38032 0.45061 0.0
H920 H 0.08024 0.32523 0.38359 0.0
C921 C 0.99733 0.30382 0.23956 0.0
C922 C 0.97404 0.31232 0.22437 0.0
C923 C 0.96778 0.33415 0.24992 0.0
C924 C 0.98295 0.34591 0.29164 0.0
C925 C 1.00513 0.33646 0.30641 0.0
C926 C 0.01337 0.31697 0.28065 0.0
C927 C 0.03939 0.31211 0.30405 0.0
C928 C 0.02729 0.27537 0.31225 0.0
C929 C 0.07174 0.32862 0.27688 0.0
C930 C 0.04289 0.3303 0.34798 0.0
C931 C 0.02277 0.34403 0.34837 0.0
C932 C 0.02092 0.36147 0.38521 0.0
C933 C 0.04118 0.36616 0.4222 0.0
C934 C 0.06306 0.35358 0.42194 0.0
C935 C 0.06356 0.33493 0.38469 0.0
H936 H 0.66118 0.97159 0.40764 0.0
H937 H 0.73386 0.93993 0.40516 0.0
H938 H 0.75132 0.96176 0.48229 0.0
H939 H 0.71084 0.04704 0.46696 0.0
H940 H 0.6769 0.04469 0.49881 0.0
H941 H 0.66981 0.02584 0.44385 0.0
H942 H 0.62644 0.96985 0.47843 0.0
H943 H 0.63369 0.98823 0.53384 0.0
H944 H 0.638 0.9525 0.52444 0.0
H945 H 0.76216 0.98848 0.55778 0.0
H946 H 0.76988 0.02414 0.62367 0.0
H947 H 0.6886 0.03614 0.57871 0.0
C948 C 0.68108 0.96966 0.42305 0.0
C949 C 0.69636 0.95431 0.40039 0.0
C950 C 0.72205 0.95191 0.42184 0.0
C951 C 0.73186 0.96386 0.4658 0.0
C952 C 0.71556 0.9779 0.48776 0.0
C953 C 0.69103 0.98125 0.46697 0.0
C954 C 0.67848 0.99862 0.49731 0.0
C955 C 0.68436 0.03097 0.47545 0.0
C956 C 0.64198 0.97593 0.5092 0.0
C957 C 0.70021 1.00504 0.53817 0.0
C958 C 0.72118 0.99254 0.53211 0.0
C959 C 0.74554 0.9979 0.56335 0.0
C960 C 0.74962 0.01792 0.60071 0.0
C961 C 0.72924 0.03193 0.60646 0.0
C962 C 0.70351 0.02448 0.57582 0.0
H963 H 0.69767 0.65787 0.58047 0.0
H964 H 0.78788 0.74708 0.54431 0.0
H965 H 0.78439 0.77378 0.61451 0.0
H966 H 0.65645 0.69838 0.63599 0.0
H967 H 0.63862 0.66705 0.67908 0.0
H968 H 0.64652 0.65669 0.62355 0.0
H969 H 0.68119 0.63352 0.65975 0.0
H970 H 0.6742 0.64467 0.71525 0.0
H971 H 0.71566 0.65987 0.69527 0.0
H972 H 0.77309 0.78945 0.69041 0.0
H973 H 0.752 0.79477 0.76466 0.0
H974 H 0.67055 0.69441 0.75278 0.0
C975 C 0.71601 0.6834 0.58663 0.0
C976 C 0.74276 0.7007 0.55686 0.0
C977 C 0.767 0.73364 0.56664 0.0
C978 C 0.76532 0.74891 0.60647 0.0
C979 C 0.73938 0.73074 0.63613 0.0
C980 C 0.71493 0.69886 0.62653 0.0
C981 C 0.69064 0.68427 0.66517 0.0
C982 C 0.65601 0.67613 0.65004 0.0
C983 C 0.69043 0.65378 0.68502 0.0
C984 C 0.70539 0.71285 0.69804 0.0
C985 C 0.73345 0.73942 0.68061 0.0
C986 C 0.75112 0.76883 0.70446 0.0
C987 C 0.73912 0.77153 0.7467 0.0
C988 C 0.70991 0.74489 0.7646 0.0
C989 C 0.69329 0.71498 0.74032 0.0
H990 H 0.02942 0.74715 0.74409 0.0
H991 H 0.06345 0.67626 0.74098 0.0
H992 H 0.04226 0.65822 0.81793 0.0
H993 H 0.04486 0.77002 0.85915 0.0
H994 H 1.00732 0.77077 0.86928 0.0
H995 H 0.02501 0.77876 0.8134 0.0
H996 H 0.97045 0.73145 0.78033 0.0
H997 H 0.95238 0.72422 0.83589 0.0
H998 H 0.95231 0.69092 0.80515 0.0
H999 H 0.02184 0.65076 0.89613 0.0
H1000 H 0.99099 0.64434 0.96633 0.0
H1001 H 0.9654 0.7163 0.91797 0.0
C1002 C 0.03169 0.72738 0.75944 0.0
C1003 C 0.04781 0.71292 0.73675 0.0
C1004 C 0.05064 0.68723 0.75763 0.0
C1005 C 0.03912 0.67713 0.80154 0.0
C1006 C 0.02417 0.69244 0.82361 0.0
C1007 C 0.01928 0.71612 0.80291 0.0
C1008 C 1.00035 0.72678 0.83354 0.0
C1009 C 0.02061 0.76378 0.84448 0.0
C1010 C 0.96689 0.7178 0.81248 0.0
C1011 C 0.99616 0.70592 0.87489 0.0
C1012 C 1.01063 0.68676 0.86852 0.0
C1013 C 1.01008 0.66536 0.90152 0.0
C1014 C 0.99271 0.66208 0.9414 0.0
C1015 C 0.97582 0.6798 0.94752 0.0
C1016 C 0.97842 0.70275 0.91443 0.0
H1017 H 0.32629 0.97442 0.08893 0.0
H1018 H 0.22092 0.93659 0.08195 0.0
H1019 H 0.22869 0.96763 0.01111 0.0
H1020 H 0.35144 0.05594 0.04529 0.0
H1021 H 0.38582 0.05847 0.01446 0.0
H1022 H 0.3717 0.03427 0.06542 0.0
H1023 H 0.36466 0.98322 0.02126 0.0
H1024 H 0.37826 1.00711 0.97002 0.0
H1025 H 0.33896 0.96956 0.97163 0.0
H1026 H 0.24826 1.00365 0.94179 0.0
H1027 H 0.27838 0.0416 0.87848 0.0
H1028 H 0.37008 0.05261 0.92902 0.0
C1029 C 0.30487 0.97295 0.07282 0.0
C1030 C 0.27304 0.9534 0.09105 0.0
C1031 C 0.24558 0.95176 0.06872 0.0
C1032 C 0.24972 0.96916 0.02842 0.0
C1033 C 0.28143 0.98789 0.01101 0.0
C1034 C 0.30852 0.98993 0.03254 0.0
C1035 C 0.33991 0.0114 0.00659 0.0
C1036 C 0.36361 0.04182 0.03461 0.0
C1037 C 0.3564 0.99163 0.99147 0.0
C1038 C 0.32621 0.0209 0.96682 0.0
C1039 C 0.29248 1.00741 0.97019 0.0
C1040 C 0.27462 0.01414 0.93856 0.0
C1041 C 0.29182 0.03562 0.90285 0.0
C1042 C 0.32627 0.04941 0.89887 0.0
C1043 C 0.34357 0.04167 0.9309 0.0
H1044 H 0.52872 0.62255 0.94693 0.0
H1045 H 0.50323 0.68221 0.86235 0.0
H1046 H 0.44605 0.63596 0.85736 0.0
H1047 H 0.48249 0.54837 0.88688 0.0
H1048 H 0.46999 0.52224 0.93617 0.0
H1049 H 0.50809 0.56095 0.93662 0.0
H1050 H 0.48917 0.57919 0.00801 0.0
H1051 H 0.45115 0.54034 0.00813 0.0
H1052 H 0.45036 0.57846 0.00739 0.0
H1053 H 0.39234 0.58129 0.85692 0.0
H1054 H 0.34629 0.52394 0.86441 0.0
H1055 H 0.40754 0.50084 0.94937 0.0
C1056 C 0.51109 0.62606 0.92768 0.0
C1057 C 0.52054 0.65616 0.90523 0.0
C1058 C 0.49653 0.65966 0.88059 0.0
C1059 C 0.46401 0.63341 0.87721 0.0
C1060 C 0.4558 0.60381 0.89878 0.0
C1061 C 0.47861 0.60015 0.9239 0.0
C1062 C 0.46391 0.56555 0.94264 0.0
C1063 C 0.48221 0.54827 0.92448 0.0
C1064 C 0.46362 0.56592 0.99463 0.0
C1065 C 0.42942 0.55016 0.92361 0.0
C1066 C 0.42511 0.57255 0.89847 0.0
C1067 C 0.39537 0.56362 0.87687 0.0
C1068 C 0.36932 0.53099 0.88138 0.0
C1069 C 0.3732 0.50764 0.90717 0.0
C1070 C 0.40377 0.51769 0.92858 0.0
H1071 H 0.87868 0.37905 0.13444 0.0
H1072 H 0.82688 0.33333 0.01049 0.0
H1073 H 0.81826 0.38082 0.99676 0.0
H1074 H 0.8281 0.41578 0.16746 0.0
H1075 H 0.86285 0.45268 0.18943 0.0
H1076 H 0.86272 0.41411 0.19087 0.0
H1077 H 0.91806 0.44099 0.14726 0.0
H1078 H 0.91828 0.47955 0.1455 0.0
H1079 H 0.92122 0.46079 0.09375 0.0
H1080 H 0.81891 0.43492 0.99421 0.0
H1081 H 0.82805 0.49114 0.00247 0.0
H1082 H 0.87812 0.50137 0.13004 0.0
C1083 C 0.86491 0.37886 0.10496 0.0
C1084 C 0.85284 0.35249 0.07378 0.0
C1085 C 0.83569 0.35316 0.03498 0.0
C1086 C 0.83083 0.38002 0.02696 0.0
C1087 C 0.84322 0.40586 0.05821 0.0
C1088 C 0.85978 0.40542 0.09658 0.0
C1089 C 0.8718 0.43687 0.12383 0.0
C1090 C 0.85538 0.4294 0.17067 0.0
C1091 C 0.90958 0.45565 0.12779 0.0
C1092 C 0.85992 0.45535 0.09442 0.0
C1093 C 0.84338 0.43695 0.05688 0.0
C1094 C 0.83131 0.4493 0.02389 0.0
C1095 C 0.83639 0.4813 0.0292 0.0
C1096 C 0.85334 0.50085 0.06737 0.0
C1097 C 0.865 0.48731 0.10049 0.0
H1098 H 0.49403 0.84805 0.29077 0.0
H1099 H 0.53632 0.89675 0.16353 0.0
H1100 H 0.48461 0.89605 0.14474 0.0
H1101 H 0.4069 0.79684 0.25052 0.0
H1102 H 0.39027 0.80254 0.30253 0.0
H1103 H 0.42849 0.80206 0.30299 0.0
H1104 H 0.45722 0.85919 0.34216 0.0
H1105 H 0.41925 0.85997 0.34157 0.0
H1106 H 0.4557 0.89322 0.31611 0.0
H1107 H 0.43193 0.89556 0.14308 0.0
H1108 H 0.38073 0.89641 0.15874 0.0
H1109 H 0.37158 0.84916 0.28821 0.0
C1110 C 0.49177 0.85748 0.25835 0.0
C1111 C 0.5186 0.87178 0.22793 0.0
C1112 C 0.51564 0.88519 0.18663 0.0
C1113 C 0.48644 0.88487 0.17579 0.0
C1114 C 0.46058 0.87119 0.20679 0.0
C1115 C 0.46281 0.85768 0.24723 0.0
C1116 C 0.43249 0.84754 0.27631 0.0
C1117 C 0.4134 0.81001 0.2835 0.0
C1118 C 0.44173 0.8661 0.32171 0.0
C1119 C 0.41338 0.85844 0.24647 0.0
C1120 C 0.42996 0.87155 0.20628 0.0
C1121 C 0.41849 0.88499 0.1741 0.0
C1122 C 0.38952 0.88547 0.18336 0.0
C1123 C 0.37238 0.87281 0.22457 0.0
C1124 C 0.38409 0.85856 0.25625 0.0
H1125 H 0.50869 0.38589 0.46487 0.0
H1126 H 0.53326 0.33659 0.35959 0.0
H1127 H 0.5893 0.38384 0.35675 0.0
H1128 H 0.5494 0.46367 0.4098 0.0
H1129 H 0.56228 0.48706 0.46158 0.0
H1130 H 0.52535 0.44732 0.46061 0.0
H1131 H 0.54804 0.42738 0.52573 0.0
H1132 H 0.58504 0.46711 0.527 0.0
H1133 H 0.58767 0.43026 0.51956 0.0
H1134 H 0.643 0.43804 0.36303 0.0
H1135 H 0.68799 0.49562 0.37507 0.0
H1136 H 0.62572 0.51178 0.46772 0.0
C1137 C 0.52542 0.3846 0.44088 0.0
C1138 C 0.51571 0.35658 0.41281 0.0
C1139 C 0.53954 0.35673 0.38278 0.0
C1140 C 0.57166 0.38384 0.38041 0.0
C1141 C 0.57977 0.41117 0.40754 0.0
C1142 C 0.5572 0.41186 0.43688 0.0
C1143 C 0.57108 0.44527 0.45949 0.0
C1144 C 0.55082 0.46179 0.44712 0.0
C1145 C 0.57308 0.44231 0.511 0.0
C1146 C 0.60503 0.46326 0.4383 0.0
C1147 C 0.60979 0.44303 0.40891 0.0
C1148 C 0.63947 0.45412 0.38582 0.0
C1149 C 0.66485 0.48675 0.39282 0.0
C1150 C 0.66009 0.50803 0.4219 0.0
C1151 C 0.6298 0.49604 0.4449 0.0
H1152 H 0.13246 0.63356 0.5352 0.0
H1153 H 0.20535 0.68847 0.63853 0.0
H1154 H 0.21744 0.64306 0.64485 0.0
H1155 H 0.09882 0.55824 0.59178 0.0
H1156 H 0.08994 0.53355 0.54138 0.0
H1157 H 0.09104 0.5725 0.53915 0.0
H1158 H 0.13479 0.59233 0.47534 0.0
H1159 H 0.13357 0.55325 0.47701 0.0
H1160 H 0.17219 0.59103 0.48397 0.0
H1161 H 0.218 0.58879 0.64466 0.0
H1162 H 0.20639 0.53103 0.6379 0.0
H1163 H 0.13006 0.51114 0.5398 0.0
C1164 C 0.15127 0.63641 0.55888 0.0
C1165 C 0.16799 0.66496 0.58616 0.0
C1166 C 0.19263 0.6674 0.61635 0.0
C1167 C 0.19948 0.64149 0.62057 0.0
C1168 C 0.18141 0.61317 0.59458 0.0
C1169 C 0.15785 0.61059 0.56425 0.0
C1170 C 0.13968 0.5766 0.5432 0.0
C1171 C 0.10269 0.55921 0.55458 0.0
C1172 C 0.14542 0.57842 0.49184 0.0
C1173 C 0.15641 0.56028 0.5668 0.0
C1174 C 0.18071 0.58177 0.59592 0.0
C1175 C 0.1991 0.57181 0.62182 0.0
C1176 C 0.19237 0.53904 0.61784 0.0
C1177 C 0.16708 0.51659 0.58884 0.0
C1178 C 0.14918 0.52761 0.56286 0.0
H1179 H 0.64195 0.13131 0.78723 0.0
H1180 H 0.68 0.18893 0.66428 0.0
H1181 H 0.63259 0.19799 0.66273 0.0
H1182 H 0.55973 0.08873 0.75276 0.0
H1183 H 0.54276 0.0879 0.8078 0.0
H1184 H 0.58196 0.08986 0.80304 0.0
H1185 H 0.60892 0.14278 0.85221 0.0
H1186 H 0.56971 0.14091 0.85728 0.0
H1187 H 0.60489 0.17769 0.83583 0.0
H1188 H 0.57836 0.19729 0.67133 0.0
H1189 H 0.52164 0.18538 0.68868 0.0
H1190 H 0.518 0.12562 0.80283 0.0
C1191 C 0.64062 0.14613 0.76014 0.0
C1192 C 0.66518 0.15964 0.72616 0.0
C1193 C 0.6622 0.17897 0.69149 0.0
C1194 C 0.63512 0.18406 0.69006 0.0
C1195 C 0.61104 0.16968 0.72346 0.0
C1196 C 0.6136 0.15115 0.7579 0.0
C1197 C 0.58334 0.13641 0.78789 0.0
C1198 C 0.56593 0.09848 0.78783 0.0
C1199 C 0.59226 0.15028 0.83616 0.0
C1200 C 0.56293 0.14871 0.76416 0.0
C1201 C 0.57951 0.16836 0.72753 0.0
C1202 C 0.56524 0.18208 0.7001 0.0
C1203 C 0.5331 0.17525 0.71017 0.0
C1204 C 0.51545 0.15444 0.74683 0.0
C1205 C 0.53083 0.14138 0.77431 0.0
loop_
_geom_bond_atom_site_label_1
_geom_bond_atom_site_label_2
_geom_bond_distance
_geom_bond_site_symmetry_2
_ccdc_geom_bond_type
Co0 N4 2.148 1_554 S
Co0 N10 2.128 . S
Co0 N20 2.194 1_554 S
Co0 O25 2.351 . S
Co0 O26 2.155 . S
Co0 O27 2.096 . S
C1 N4 1.301 . S
C1 N5 1.328 . S
C1 H6 0.930 . S
C2 C3 1.333 . S
C2 N4 1.317 . S
C2 H7 0.930 . S
C3 C2 1.333 . S
C3 N5 1.350 . S
C3 H29 0.931 . S
N4 Co0 2.148 1_556 S
N4 C1 1.301 . S
N4 C2 1.317 . S
N5 C1 1.328 . S
N5 C3 1.350 . S
H6 C1 0.930 . S
H7 C2 0.930 . S
C8 O9 1.224 . S
C8 O27 1.247 1_556 S
O9 C8 1.224 . S
N10 Co0 2.128 . S
N10 C11 1.355 . S
N10 C13 1.311 . S
C11 N10 1.355 . S
C11 C12 1.363 . S
C11 H23 0.929 . S
C12 C11 1.363 . S
C12 N14 1.375 . S
C12 H30 0.931 . S
C13 N10 1.311 . S
C13 N14 1.347 . S
C13 H24 0.929 . S
N14 C12 1.375 . S
N14 C13 1.347 . S
C15 C18 1.365 . S
C15 N20 1.328 . S
C15 H21 0.929 . S
C16 C17 1.362 . S
C16 C19 1.378 . S
C16 H31 0.929 . S
C17 C16 1.362 . S
C17 C18 1.366 . S
C18 C15 1.365 . S
C18 C17 1.366 . S
C18 H32 0.930 . S
C19 C16 1.378 . S
C19 N20 1.315 . S
C19 H22 0.930 . S
N20 Co0 2.194 1_556 S
N20 C15 1.328 . S
N20 C19 1.315 . S
H21 C15 0.929 . S
H22 C19 0.930 . S
H23 C11 0.929 . S
H24 C13 0.929 . S
O25 Co0 2.351 . S
O25 C28 1.244 . S
O26 Co0 2.155 . S
O26 C28 1.240 . S
O27 Co0 2.096 . S
O27 C8 1.247 1_554 S
C28 O25 1.244 . S
C28 O26 1.240 . S
H29 C3 0.931 . S
H30 C12 0.931 . S
H31 C16 0.929 . S
H32 C18 0.930 . S
Co33 N37 2.148 . S
Co33 N43 2.128 . S
Co33 N53 2.194 . S
Co33 O58 2.351 . S
Co33 O59 2.155 . S
Co33 O60 2.096 . S
C34 N37 1.301 . S
C34 N38 1.328 . S
C34 H39 0.930 . S
C35 C36 1.333 . S
C35 N37 1.317 . S
C35 H40 0.930 . S
C36 C35 1.333 . S
C36 N38 1.350 . S
C36 H62 0.931 . S
N37 Co33 2.148 . S
N37 C34 1.301 . S
N37 C35 1.317 . S
N38 C34 1.328 . S
N38 C36 1.350 . S
H39 C34 0.930 . S
H40 C35 0.930 . S
C41 O42 1.224 . S
C41 O60 1.247 . S
O42 C41 1.224 . S
N43 Co33 2.128 . S
N43 C44 1.355 . S
N43 C46 1.311 . S
C44 N43 1.355 . S
C44 C45 1.363 . S
C44 H56 0.929 . S
C45 C44 1.363 . S
C45 N47 1.375 . S
C45 H63 0.931 . S
C46 N43 1.311 . S
C46 N47 1.347 . S
C46 H57 0.929 . S
N47 C45 1.375 . S
N47 C46 1.347 . S
C48 C51 1.365 . S
C48 N53 1.328 . S
C48 H54 0.929 . S
C49 C50 1.362 . S
C49 C52 1.378 . S
C49 H64 0.929 . S
C50 C49 1.362 . S
C50 C51 1.366 . S
C51 C48 1.365 . S
C51 C50 1.366 . S
C51 H65 0.930 . S
C52 C49 1.378 . S
C52 N53 1.315 . S
C52 H55 0.930 . S
N53 Co33 2.194 . S
N53 C48 1.328 . S
N53 C52 1.315 . S
H54 C48 0.929 . S
H55 C52 0.930 . S
H56 C44 0.929 . S
H57 C46 0.929 . S
O58 Co33 2.351 . S
O58 C61 1.244 . S
O59 Co33 2.155 . S
O59 C61 1.240 . S
O60 Co33 2.096 . S
O60 C41 1.247 . S
C61 O58 1.244 . S
C61 O59 1.240 . S
H62 C36 0.931 . S
H63 C45 0.931 . S
H64 C49 0.929 . S
H65 C51 0.930 . S
Co66 N70 2.148 . S
Co66 N76 2.128 . S
Co66 N86 2.194 . S
Co66 O91 2.351 . S
Co66 O92 2.155 . S
Co66 O93 2.096 . S
C67 N70 1.301 . S
C67 N71 1.328 . S
C67 H72 0.930 . S
C68 C69 1.333 . S
C68 N70 1.317 . S
C68 H73 0.930 . S
C69 C68 1.333 . S
C69 N71 1.350 . S
C69 H95 0.931 . S
N70 Co66 2.148 . S
N70 C67 1.301 . S
N70 C68 1.317 . S
N71 C67 1.328 . S
N71 C69 1.350 . S
H72 C67 0.930 . S
H73 C68 0.930 . S
C74 O75 1.224 . S
C74 O93 1.247 . S
O75 C74 1.224 . S
N76 Co66 2.128 . S
N76 C77 1.355 . S
N76 C79 1.311 . S
C77 N76 1.355 . S
C77 C78 1.363 . S
C77 H89 0.929 . S
C78 C77 1.363 . S
C78 N80 1.375 . S
C78 H96 0.931 . S
C79 N76 1.311 . S
C79 N80 1.347 . S
C79 H90 0.929 . S
N80 C78 1.375 . S
N80 C79 1.347 . S
C81 C84 1.365 . S
C81 N86 1.328 . S
C81 H87 0.929 . S
C82 C83 1.362 . S
C82 C85 1.378 . S
C82 H97 0.929 . S
C83 C82 1.362 . S
C83 C84 1.366 . S
C84 C81 1.365 . S
C84 C83 1.366 . S
C84 H98 0.930 . S
C85 C82 1.378 . S
C85 N86 1.315 . S
C85 H88 0.930 . S
N86 Co66 2.194 . S
N86 C81 1.328 . S
N86 C85 1.315 . S
H87 C81 0.929 . S
H88 C85 0.930 . S
H89 C77 0.929 . S
H90 C79 0.929 . S
O91 Co66 2.351 . S
O91 C94 1.244 . S
O92 Co66 2.155 . S
O92 C94 1.240 . S
O93 Co66 2.096 . S
O93 C74 1.247 . S
C94 O91 1.244 . S
C94 O92 1.240 . S
H95 C69 0.931 . S
H96 C78 0.931 . S
H97 C82 0.929 . S
H98 C84 0.930 . S
Co99 N103 2.148 . S
Co99 N109 2.128 . S
Co99 N119 2.194 . S
Co99 O124 2.351 . S
Co99 O125 2.155 . S
Co99 O126 2.096 . S
C100 N103 1.301 . S
C100 N104 1.328 . S
C100 H105 0.930 . S
C101 C102 1.333 . S
C101 N103 1.317 . S
C101 H106 0.930 . S
C102 C101 1.333 . S
C102 N104 1.350 . S
C102 H128 0.931 . S
N103 Co99 2.148 . S
N103 C100 1.301 . S
N103 C101 1.317 . S
N104 C100 1.328 . S
N104 C102 1.350 . S
H105 C100 0.930 . S
H106 C101 0.930 . S
C107 O108 1.224 . S
C107 O126 1.247 . S
O108 C107 1.224 . S
N109 Co99 2.128 . S
N109 C110 1.355 . S
N109 C112 1.311 . S
C110 N109 1.355 . S
C110 C111 1.363 . S
C110 H122 0.929 . S
C111 C110 1.363 . S
C111 N113 1.375 . S
C111 H129 0.931 . S
C112 N109 1.311 . S
C112 N113 1.347 . S
C112 H123 0.929 . S
N113 C111 1.375 . S
N113 C112 1.347 . S
C114 C117 1.365 . S
C114 N119 1.328 . S
C114 H120 0.929 . S
C115 C116 1.362 . S
C115 C118 1.378 . S
C115 H130 0.929 . S
C116 C115 1.362 . S
C116 C117 1.366 . S
C117 C114 1.365 . S
C117 C116 1.366 . S
C117 H131 0.930 . S
C118 C115 1.378 . S
C118 N119 1.315 . S
C118 H121 0.930 . S
N119 Co99 2.194 . S
N119 C114 1.328 . S
N119 C118 1.315 . S
H120 C114 0.929 . S
H121 C118 0.930 . S
H122 C110 0.929 . S
H123 C112 0.929 . S
O124 Co99 2.351 . S
O124 C127 1.244 . S
O125 Co99 2.155 . S
O125 C127 1.240 . S
O126 Co99 2.096 . S
O126 C107 1.247 . S
C127 O124 1.244 . S
C127 O125 1.240 . S
H128 C102 0.931 . S
H129 C111 0.931 . S
H130 C115 0.929 . S
H131 C117 0.930 . S
Co132 N136 2.148 . S
Co132 N142 2.128 . S
Co132 N152 2.194 . S
Co132 O157 2.351 . S
Co132 O158 2.155 . S
Co132 O159 2.096 . S
C133 N136 1.301 . S
C133 N137 1.328 . S
C133 H138 0.930 . S
C134 C135 1.333 . S
C134 N136 1.317 . S
C134 H139 0.930 . S
C135 C134 1.333 . S
C135 N137 1.350 . S
C135 H161 0.931 . S
N136 Co132 2.148 . S
N136 C133 1.301 . S
N136 C134 1.317 . S
N137 C133 1.328 . S
N137 C135 1.350 . S
H138 C133 0.930 . S
H139 C134 0.930 . S
C140 O141 1.224 . S
C140 O159 1.247 . S
O141 C140 1.224 . S
N142 Co132 2.128 . S
N142 C143 1.355 . S
N142 C145 1.311 . S
C143 N142 1.355 . S
C143 C144 1.363 . S
C143 H155 0.929 . S
C144 C143 1.363 . S
C144 N146 1.375 . S
C144 H162 0.931 . S
C145 N142 1.311 . S
C145 N146 1.347 . S
C145 H156 0.929 . S
N146 C144 1.375 . S
N146 C145 1.347 . S
C147 C150 1.365 . S
C147 N152 1.328 . S
C147 H153 0.929 . S
C148 C149 1.362 . S
C148 C151 1.378 . S
C148 H163 0.929 . S
C149 C148 1.362 . S
C149 C150 1.366 . S
C150 C147 1.365 . S
C150 C149 1.366 . S
C150 H164 0.930 . S
C151 C148 1.378 . S
C151 N152 1.315 . S
C151 H154 0.930 . S
N152 Co132 2.194 . S
N152 C147 1.328 . S
N152 C151 1.315 . S
H153 C147 0.929 . S
H154 C151 0.930 . S
H155 C143 0.929 . S
H156 C145 0.929 . S
O157 Co132 2.351 . S
O157 C160 1.244 . S
O158 Co132 2.155 . S
O158 C160 1.240 . S
O159 Co132 2.096 . S
O159 C140 1.247 . S
C160 O157 1.244 . S
C160 O158 1.240 . S
H161 C135 0.931 . S
H162 C144 0.931 . S
H163 C148 0.929 . S
H164 C150 0.930 . S
Co165 N169 2.148 . S
Co165 N175 2.128 . S
Co165 N185 2.194 . S
Co165 O190 2.351 . S
Co165 O191 2.155 . S
Co165 O192 2.096 . S
C166 N169 1.301 . S
C166 N170 1.328 . S
C166 H171 0.930 . S
C167 C168 1.333 . S
C167 N169 1.317 . S
C167 H172 0.930 . S
C168 C167 1.333 . S
C168 N170 1.350 . S
C168 H194 0.931 . S
N169 Co165 2.148 . S
N169 C166 1.301 . S
N169 C167 1.317 . S
N170 C166 1.328 . S
N170 C168 1.350 . S
H171 C166 0.930 . S
H172 C167 0.930 . S
C173 O174 1.224 . S
C173 O192 1.247 . S
O174 C173 1.224 . S
N175 Co165 2.128 . S
N175 C176 1.355 . S
N175 C178 1.311 . S
C176 N175 1.355 . S
C176 C177 1.363 . S
C176 H188 0.929 . S
C177 C176 1.363 . S
C177 N179 1.375 . S
C177 H195 0.931 . S
C178 N175 1.311 . S
C178 N179 1.347 . S
C178 H189 0.929 . S
N179 C177 1.375 . S
N179 C178 1.347 . S
C180 C183 1.365 . S
C180 N185 1.328 . S
C180 H186 0.929 . S
C181 C182 1.362 . S
C181 C184 1.378 . S
C181 H196 0.929 . S
C182 C181 1.362 . S
C182 C183 1.366 . S
C183 C180 1.365 . S
C183 C182 1.366 . S
C183 H197 0.930 . S
C184 C181 1.378 . S
C184 N185 1.315 . S
C184 H187 0.930 . S
N185 Co165 2.194 . S
N185 C180 1.328 . S
N185 C184 1.315 . S
H186 C180 0.929 . S
H187 C184 0.930 . S
H188 C176 0.929 . S
H189 C178 0.929 . S
O190 Co165 2.351 . S
O190 C193 1.244 . S
O191 Co165 2.155 . S
O191 C193 1.240 . S
O192 Co165 2.096 . S
O192 C173 1.247 . S
C193 O190 1.244 . S
C193 O191 1.240 . S
H194 C168 0.931 . S
H195 C177 0.931 . S
H196 C181 0.929 . S
H197 C183 0.930 . S
Co198 N202 2.148 . S
Co198 N208 2.128 . S
Co198 N218 2.194 . S
Co198 O223 2.351 . S
Co198 O224 2.155 . S
Co198 O225 2.096 . S
C199 N202 1.301 . S
C199 N203 1.328 . S
C199 H204 0.930 . S
C200 C201 1.333 . S
C200 N202 1.317 . S
C200 H205 0.930 . S
C201 C200 1.333 . S
C201 N203 1.350 . S
C201 H227 0.931 . S
N202 Co198 2.148 . S
N202 C199 1.301 . S
N202 C200 1.317 . S
N203 C199 1.328 . S
N203 C201 1.350 . S
H204 C199 0.930 . S
H205 C200 0.930 . S
C206 O207 1.224 . S
C206 O225 1.247 . S
O207 C206 1.224 . S
N208 Co198 2.128 . S
N208 C209 1.355 . S
N208 C211 1.311 . S
C209 N208 1.355 . S
C209 C210 1.363 . S
C209 H221 0.929 . S
C210 C209 1.363 . S
C210 N212 1.375 . S
C210 H228 0.931 . S
C211 N208 1.311 . S
C211 N212 1.347 . S
C211 H222 0.929 . S
N212 C210 1.375 . S
N212 C211 1.347 . S
C213 C216 1.365 . S
C213 N218 1.328 . S
C213 H219 0.929 . S
C214 C215 1.362 . S
C214 C217 1.378 . S
C214 H229 0.929 . S
C215 C214 1.362 . S
C215 C216 1.366 . S
C216 C213 1.365 . S
C216 C215 1.366 . S
C216 H230 0.930 . S
C217 C214 1.378 . S
C217 N218 1.315 . S
C217 H220 0.930 . S
N218 Co198 2.194 . S
N218 C213 1.328 . S
N218 C217 1.315 . S
H219 C213 0.929 . S
H220 C217 0.930 . S
H221 C209 0.929 . S
H222 C211 0.929 . S
O223 Co198 2.351 . S
O223 C226 1.244 . S
O224 Co198 2.155 . S
O224 C226 1.240 . S
O225 Co198 2.096 . S
O225 C206 1.247 . S
C226 O223 1.244 . S
C226 O224 1.240 . S
H227 C201 0.931 . S
H228 C210 0.931 . S
H229 C214 0.929 . S
H230 C216 0.930 . S
Co231 N235 2.148 1_556 S
Co231 N241 2.128 . S
Co231 N251 2.194 1_556 S
Co231 O256 2.351 . S
Co231 O257 2.155 . S
Co231 O258 2.096 . S
C232 N235 1.301 . S
C232 N236 1.328 . S
C232 H237 0.930 . S
C233 C234 1.333 . S
C233 N235 1.317 . S
C233 H238 0.930 . S
C234 C233 1.333 . S
C234 N236 1.350 . S
C234 H260 0.931 . S
N235 Co231 2.148 1_554 S
N235 C232 1.301 . S
N235 C233 1.317 . S
N236 C232 1.328 . S
N236 C234 1.350 . S
H237 C232 0.930 . S
H238 C233 0.930 . S
C239 O240 1.224 . S
C239 O258 1.247 1_554 S
O240 C239 1.224 . S
N241 Co231 2.128 . S
N241 C242 1.355 . S
N241 C244 1.311 . S
C242 N241 1.355 . S
C242 C243 1.363 . S
C242 H254 0.929 . S
C243 C242 1.363 . S
C243 N245 1.375 . S
C243 H261 0.931 . S
C244 N241 1.311 . S
C244 N245 1.347 . S
C244 H255 0.929 . S
N245 C243 1.375 . S
N245 C244 1.347 . S
C246 C249 1.365 . S
C246 N251 1.328 . S
C246 H252 0.929 . S
C247 C248 1.362 . S
C247 C250 1.378 . S
C247 H262 0.929 . S
C248 C247 1.362 . S
C248 C249 1.366 . S
C249 C246 1.365 . S
C249 C248 1.366 . S
C249 H263 0.930 . S
C250 C247 1.378 . S
C250 N251 1.315 . S
C250 H253 0.930 . S
N251 Co231 2.194 1_554 S
N251 C246 1.328 . S
N251 C250 1.315 . S
H252 C246 0.929 . S
H253 C250 0.930 . S
H254 C242 0.929 . S
H255 C244 0.929 . S
O256 Co231 2.351 . S
O256 C259 1.244 . S
O257 Co231 2.155 . S
O257 C259 1.240 . S
O258 Co231 2.096 . S
O258 C239 1.247 1_556 S
C259 O256 1.244 . S
C259 O257 1.240 . S
H260 C234 0.931 . S
H261 C243 0.931 . S
H262 C247 0.929 . S
H263 C249 0.930 . S
Co264 N268 2.148 . S
Co264 N274 2.128 . S
Co264 N284 2.194 . S
Co264 O289 2.351 . S
Co264 O290 2.155 . S
Co264 O291 2.096 . S
C265 N268 1.301 . S
C265 N269 1.328 . S
C265 H270 0.930 . S
C266 C267 1.333 . S
C266 N268 1.317 . S
C266 H271 0.930 . S
C267 C266 1.333 . S
C267 N269 1.350 . S
C267 H293 0.931 . S
N268 Co264 2.148 . S
N268 C265 1.301 . S
N268 C266 1.317 . S
N269 C265 1.328 . S
N269 C267 1.350 . S
H270 C265 0.930 . S
H271 C266 0.930 . S
C272 O273 1.224 . S
C272 O291 1.247 . S
O273 C272 1.224 . S
N274 Co264 2.128 . S
N274 C275 1.355 . S
N274 C277 1.311 . S
C275 N274 1.355 . S
C275 C276 1.363 . S
C275 H287 0.929 . S
C276 C275 1.363 . S
C276 N278 1.375 . S
C276 H294 0.931 . S
C277 N274 1.311 . S
C277 N278 1.347 . S
C277 H288 0.929 . S
N278 C276 1.375 . S
N278 C277 1.347 . S
C279 C282 1.365 . S
C279 N284 1.328 . S
C279 H285 0.929 . S
C280 C281 1.362 . S
C280 C283 1.378 . S
C280 H295 0.929 . S
C281 C280 1.362 . S
C281 C282 1.366 . S
C282 C279 1.365 . S
C282 C281 1.366 . S
C282 H296 0.930 . S
C283 C280 1.378 . S
C283 N284 1.315 . S
C283 H286 0.930 . S
N284 Co264 2.194 . S
N284 C279 1.328 . S
N284 C283 1.315 . S
H285 C279 0.929 . S
H286 C283 0.930 . S
H287 C275 0.929 . S
H288 C277 0.929 . S
O289 Co264 2.351 . S
O289 C292 1.244 . S
O290 Co264 2.155 . S
O290 C292 1.240 . S
O291 Co264 2.096 . S
O291 C272 1.247 . S
C292 O289 1.244 . S
C292 O290 1.240 . S
H293 C267 0.931 . S
H294 C276 0.931 . S
H295 C280 0.929 . S
H296 C282 0.930 . S
Co297 N301 2.148 . S
Co297 N307 2.128 . S
Co297 N317 2.194 . S
Co297 O322 2.351 . S
Co297 O323 2.155 . S
Co297 O324 2.096 . S
C298 N301 1.301 . S
C298 N302 1.328 . S
C298 H303 0.930 . S
C299 C300 1.333 . S
C299 N301 1.317 . S
C299 H304 0.930 . S
C300 C299 1.333 . S
C300 N302 1.350 . S
C300 H326 0.931 . S
N301 Co297 2.148 . S
N301 C298 1.301 . S
N301 C299 1.317 . S
N302 C298 1.328 . S
N302 C300 1.350 . S
H303 C298 0.930 . S
H304 C299 0.930 . S
C305 O306 1.224 . S
C305 O324 1.247 . S
O306 C305 1.224 . S
N307 Co297 2.128 . S
N307 C308 1.355 . S
N307 C310 1.311 . S
C308 N307 1.355 . S
C308 C309 1.363 . S
C308 H320 0.929 . S
C309 C308 1.363 . S
C309 N311 1.375 . S
C309 H327 0.931 . S
C310 N307 1.311 . S
C310 N311 1.347 . S
C310 H321 0.929 . S
N311 C309 1.375 . S
N311 C310 1.347 . S
C312 C315 1.365 . S
C312 N317 1.328 . S
C312 H318 0.929 . S
C313 C314 1.362 . S
C313 C316 1.378 . S
C313 H328 0.929 . S
C314 C313 1.362 . S
C314 C315 1.366 . S
C315 C312 1.365 . S
C315 C314 1.366 . S
C315 H329 0.930 . S
C316 C313 1.378 . S
C316 N317 1.315 . S
C316 H319 0.930 . S
N317 Co297 2.194 . S
N317 C312 1.328 . S
N317 C316 1.315 . S
H318 C312 0.929 . S
H319 C316 0.930 . S
H320 C308 0.929 . S
H321 C310 0.929 . S
O322 Co297 2.351 . S
O322 C325 1.244 . S
O323 Co297 2.155 . S
O323 C325 1.240 . S
O324 Co297 2.096 . S
O324 C305 1.247 . S
C325 O322 1.244 . S
C325 O323 1.240 . S
H326 C300 0.931 . S
H327 C309 0.931 . S
H328 C313 0.929 . S
H329 C315 0.930 . S
Co330 N334 2.148 . S
Co330 N340 2.128 . S
Co330 N350 2.194 . S
Co330 O355 2.351 . S
Co330 O356 2.155 . S
Co330 O357 2.096 . S
C331 N334 1.301 . S
C331 N335 1.328 . S
C331 H336 0.930 . S
C332 C333 1.333 . S
C332 N334 1.317 . S
C332 H337 0.930 . S
C333 C332 1.333 . S
C333 N335 1.350 . S
C333 H359 0.931 . S
N334 Co330 2.148 . S
N334 C331 1.301 . S
N334 C332 1.317 . S
N335 C331 1.328 . S
N335 C333 1.350 . S
H336 C331 0.930 . S
H337 C332 0.930 . S
C338 O339 1.224 . S
C338 O357 1.247 . S
O339 C338 1.224 . S
N340 Co330 2.128 . S
N340 C341 1.355 . S
N340 C343 1.311 . S
C341 N340 1.355 . S
C341 C342 1.363 . S
C341 H353 0.929 . S
C342 C341 1.363 . S
C342 N344 1.375 . S
C342 H360 0.931 . S
C343 N340 1.311 . S
C343 N344 1.347 . S
C343 H354 0.929 . S
N344 C342 1.375 . S
N344 C343 1.347 . S
C345 C348 1.365 . S
C345 N350 1.328 . S
C345 H351 0.929 . S
C346 C347 1.362 . S
C346 C349 1.378 . S
C346 H361 0.929 . S
C347 C346 1.362 . S
C347 C348 1.366 . S
C348 C345 1.365 . S
C348 C347 1.366 . S
C348 H362 0.930 . S
C349 C346 1.378 . S
C349 N350 1.315 . S
C349 H352 0.930 . S
N350 Co330 2.194 . S
N350 C345 1.328 . S
N350 C349 1.315 . S
H351 C345 0.929 . S
H352 C349 0.930 . S
H353 C341 0.929 . S
H354 C343 0.929 . S
O355 Co330 2.351 . S
O355 C358 1.244 . S
O356 Co330 2.155 . S
O356 C358 1.240 . S
O357 Co330 2.096 . S
O357 C338 1.247 . S
C358 O355 1.244 . S
C358 O356 1.240 . S
H359 C333 0.931 . S
H360 C342 0.931 . S
H361 C346 0.929 . S
H362 C348 0.930 . S
Co363 N367 2.148 . S
Co363 N373 2.128 . S
Co363 N383 2.194 . S
Co363 O388 2.351 . S
Co363 O389 2.155 . S
Co363 O390 2.096 . S
C364 N367 1.301 . S
C364 N368 1.328 . S
C364 H369 0.930 . S
C365 C366 1.333 . S
C365 N367 1.317 . S
C365 H370 0.930 . S
C366 C365 1.333 . S
C366 N368 1.350 . S
C366 H392 0.931 . S
N367 Co363 2.148 . S
N367 C364 1.301 . S
N367 C365 1.317 . S
N368 C364 1.328 . S
N368 C366 1.350 . S
H369 C364 0.930 . S
H370 C365 0.930 . S
C371 O372 1.224 . S
C371 O390 1.247 . S
O372 C371 1.224 . S
N373 Co363 2.128 . S
N373 C374 1.355 . S
N373 C376 1.311 . S
C374 N373 1.355 . S
C374 C375 1.363 . S
C374 H386 0.929 . S
C375 C374 1.363 . S
C375 N377 1.375 . S
C375 H393 0.931 . S
C376 N373 1.311 . S
C376 N377 1.347 . S
C376 H387 0.929 . S
N377 C375 1.375 . S
N377 C376 1.347 . S
C378 C381 1.365 . S
C378 N383 1.328 . S
C378 H384 0.929 . S
C379 C380 1.362 . S
C379 C382 1.378 . S
C379 H394 0.929 . S
C380 C379 1.362 . S
C380 C381 1.366 . S
C381 C378 1.365 . S
C381 C380 1.366 . S
C381 H395 0.930 . S
C382 C379 1.378 . S
C382 N383 1.315 . S
C382 H385 0.930 . S
N383 Co363 2.194 . S
N383 C378 1.328 . S
N383 C382 1.315 . S
H384 C378 0.929 . S
H385 C382 0.930 . S
H386 C374 0.929 . S
H387 C376 0.929 . S
O388 Co363 2.351 . S
O388 C391 1.244 . S
O389 Co363 2.155 . S
O389 C391 1.240 . S
O390 Co363 2.096 . S
O390 C371 1.247 . S
C391 O388 1.244 . S
C391 O389 1.240 . S
H392 C366 0.931 . S
H393 C375 0.931 . S
H394 C379 0.929 . S
H395 C381 0.930 . S
H396 C408 0.930 . S
H397 C410 0.930 . S
H398 C411 0.930 . S
H399 C415 0.959 . S
H400 C415 0.959 . S
H401 C415 0.961 . S
H402 C416 0.960 . S
H403 C416 0.961 . S
H404 C416 0.959 . S
H405 C419 0.929 . S
H406 C420 0.931 . S
H407 C422 0.930 . S
C408 H396 0.930 . S
C408 C409 1.399 . S
C408 C413 1.399 . S
C409 C408 1.399 . S
C409 C410 1.376 . S
C410 H397 0.930 . S
C410 C409 1.376 . S
C410 C411 1.388 . S
C411 H398 0.930 . S
C411 C410 1.388 . S
C411 C412 1.390 . S
C412 C411 1.390 . S
C412 C413 1.394 . S
C412 C418 1.465 . S
C413 C408 1.399 . S
C413 C412 1.394 . S
C413 C414 1.516 . S
C414 C413 1.516 . S
C414 C415 1.502 . S
C414 C416 1.561 . S
C414 C417 1.526 . S
C415 H399 0.959 . S
C415 H400 0.959 . S
C415 H401 0.961 . S
C415 C414 1.502 . S
C416 H402 0.960 . S
C416 H403 0.961 . S
C416 H404 0.959 . S
C416 C414 1.561 . S
C417 C414 1.526 . S
C417 C418 1.396 . S
C417 C422 1.390 . S
C418 C412 1.465 . S
C418 C417 1.396 . S
C418 C419 1.399 . S
C419 H405 0.929 . S
C419 C418 1.399 . S
C419 C420 1.385 . S
C420 H406 0.931 . S
C420 C419 1.385 . S
C420 C421 1.389 . S
C421 C420 1.389 . S
C421 C422 1.387 . S
C422 H407 0.930 . S
C422 C417 1.390 . S
C422 C421 1.387 . S
H423 C435 0.930 . S
H424 C437 0.930 . S
H425 C438 0.930 . S
H426 C442 0.959 . S
H427 C442 0.959 . S
H428 C442 0.961 . S
H429 C443 0.960 . S
H430 C443 0.961 . S
H431 C443 0.959 . S
H432 C446 0.929 . S
H433 C447 0.931 . S
H434 C449 0.930 . S
C435 H423 0.930 . S
C435 C436 1.399 . S
C435 C440 1.399 . S
C436 C435 1.399 . S
C436 C437 1.376 . S
C437 H424 0.930 . S
C437 C436 1.376 . S
C437 C438 1.388 . S
C438 H425 0.930 . S
C438 C437 1.388 . S
C438 C439 1.390 . S
C439 C438 1.390 . S
C439 C440 1.394 . S
C439 C445 1.465 . S
C440 C435 1.399 . S
C440 C439 1.394 . S
C440 C441 1.516 . S
C441 C440 1.516 . S
C441 C442 1.502 . S
C441 C443 1.561 . S
C441 C444 1.526 . S
C442 H426 0.959 . S
C442 H427 0.959 . S
C442 H428 0.961 . S
C442 C441 1.502 . S
C443 H429 0.960 . S
C443 H430 0.961 . S
C443 H431 0.959 . S
C443 C441 1.561 . S
C444 C441 1.526 . S
C444 C445 1.396 . S
C444 C449 1.390 . S
C445 C439 1.465 . S
C445 C444 1.396 . S
C445 C446 1.399 . S
C446 H432 0.929 . S
C446 C445 1.399 . S
C446 C447 1.385 . S
C447 H433 0.931 . S
C447 C446 1.385 . S
C447 C448 1.389 . S
C448 C447 1.389 . S
C448 C449 1.387 . S
C449 H434 0.930 . S
C449 C444 1.390 . S
C449 C448 1.387 . S
H450 C462 0.930 . S
H451 C464 0.930 . S
H452 C465 0.930 . S
H453 C469 0.959 . S
H454 C469 0.959 . S
H455 C469 0.961 . S
H456 C470 0.960 . S
H457 C470 0.961 . S
H458 C470 0.959 . S
H459 C473 0.929 . S
H460 C474 0.931 . S
H461 C476 0.930 . S
C462 H450 0.930 . S
C462 C463 1.399 . S
C462 C467 1.399 . S
C463 C462 1.399 . S
C463 C464 1.376 . S
C464 H451 0.930 . S
C464 C463 1.376 . S
C464 C465 1.388 . S
C465 H452 0.930 . S
C465 C464 1.388 . S
C465 C466 1.390 . S
C466 C465 1.390 . S
C466 C467 1.394 . S
C466 C472 1.465 . S
C467 C462 1.399 . S
C467 C466 1.394 . S
C467 C468 1.516 . S
C468 C467 1.516 . S
C468 C469 1.502 . S
C468 C470 1.561 . S
C468 C471 1.526 . S
C469 H453 0.959 . S
C469 H454 0.959 . S
C469 H455 0.961 . S
C469 C468 1.502 . S
C470 H456 0.960 . S
C470 H457 0.961 . S
C470 H458 0.959 . S
C470 C468 1.561 . S
C471 C468 1.526 . S
C471 C472 1.396 . S
C471 C476 1.390 . S
C472 C466 1.465 . S
C472 C471 1.396 . S
C472 C473 1.399 . S
C473 H459 0.929 . S
C473 C472 1.399 . S
C473 C474 1.385 . S
C474 H460 0.931 . S
C474 C473 1.385 . S
C474 C475 1.389 . S
C475 C474 1.389 . S
C475 C476 1.387 . S
C476 H461 0.930 . S
C476 C471 1.390 . S
C476 C475 1.387 . S
H477 C489 0.930 . S
H478 C491 0.930 . S
H479 C492 0.930 . S
H480 C496 0.959 . S
H481 C496 0.959 . S
H482 C496 0.961 . S
H483 C497 0.960 . S
H484 C497 0.961 . S
H485 C497 0.959 . S
H486 C500 0.929 . S
H487 C501 0.931 . S
H488 C503 0.930 . S
C489 H477 0.930 . S
C489 C490 1.399 . S
C489 C494 1.399 . S
C490 C489 1.399 . S
C490 C491 1.376 . S
C491 H478 0.930 . S
C491 C490 1.376 . S
C491 C492 1.388 . S
C492 H479 0.930 . S
C492 C491 1.388 . S
C492 C493 1.390 . S
C493 C492 1.390 . S
C493 C494 1.394 . S
C493 C499 1.465 . S
C494 C489 1.399 . S
C494 C493 1.394 . S
C494 C495 1.516 . S
C495 C494 1.516 . S
C495 C496 1.502 . S
C495 C497 1.561 . S
C495 C498 1.526 . S
C496 H480 0.959 . S
C496 H481 0.959 . S
C496 H482 0.961 . S
C496 C495 1.502 . S
C497 H483 0.960 . S
C497 H484 0.961 . S
C497 H485 0.959 . S
C497 C495 1.561 . S
C498 C495 1.526 . S
C498 C499 1.396 . S
C498 C503 1.390 . S
C499 C493 1.465 . S
C499 C498 1.396 . S
C499 C500 1.399 . S
C500 H486 0.929 . S
C500 C499 1.399 . S
C500 C501 1.385 . S
C501 H487 0.931 . S
C501 C500 1.385 . S
C501 C502 1.389 . S
C502 C501 1.389 . S
C502 C503 1.387 . S
C503 H488 0.930 . S
C503 C498 1.390 . S
C503 C502 1.387 . S
H504 C516 0.930 . S
H505 C518 0.930 . S
H506 C519 0.930 . S
H507 C523 0.959 . S
H508 C523 0.959 . S
H509 C523 0.961 . S
H510 C524 0.960 . S
H511 C524 0.961 . S
H512 C524 0.959 . S
H513 C527 0.929 . S
H514 C528 0.931 . S
H515 C530 0.930 . S
C516 H504 0.930 . S
C516 C517 1.399 . S
C516 C521 1.399 . S
C517 C516 1.399 . S
C517 C518 1.376 . S
C518 H505 0.930 . S
C518 C517 1.376 . S
C518 C519 1.388 . S
C519 H506 0.930 . S
C519 C518 1.388 . S
C519 C520 1.390 . S
C520 C519 1.390 . S
C520 C521 1.394 . S
C520 C526 1.465 . S
C521 C516 1.399 . S
C521 C520 1.394 . S
C521 C522 1.516 . S
C522 C521 1.516 . S
C522 C523 1.502 . S
C522 C524 1.561 . S
C522 C525 1.526 . S
C523 H507 0.959 . S
C523 H508 0.959 . S
C523 H509 0.961 . S
C523 C522 1.502 . S
C524 H510 0.960 . S
C524 H511 0.961 . S
C524 H512 0.959 . S
C524 C522 1.561 . S
C525 C522 1.526 . S
C525 C526 1.396 . S
C525 C530 1.390 1_556 S
C526 C520 1.465 . S
C526 C525 1.396 . S
C526 C527 1.399 . S
C527 H513 0.929 . S
C527 C526 1.399 . S
C527 C528 1.385 1_556 S
C528 H514 0.931 . S
C528 C527 1.385 1_554 S
C528 C529 1.389 . S
C529 C528 1.389 . S
C529 C530 1.387 . S
C530 H515 0.930 . S
C530 C525 1.390 1_554 S
C530 C529 1.387 . S
H531 C543 0.930 . S
H532 C545 0.930 . S
H533 C546 0.930 . S
H534 C550 0.959 . S
H535 C550 0.959 . S
H536 C550 0.961 . S
H537 C551 0.960 . S
H538 C551 0.961 . S
H539 C551 0.959 . S
H540 C554 0.929 . S
H541 C555 0.931 . S
H542 C557 0.930 . S
C543 H531 0.930 . S
C543 C544 1.399 . S
C543 C548 1.399 1_556 S
C544 C543 1.399 . S
C544 C545 1.376 . S
C545 H532 0.930 . S
C545 C544 1.376 . S
C545 C546 1.388 1_556 S
C546 H533 0.930 . S
C546 C545 1.388 1_554 S
C546 C547 1.390 . S
C547 C546 1.390 . S
C547 C548 1.394 . S
C547 C553 1.465 . S
C548 C543 1.399 1_554 S
C548 C547 1.394 . S
C548 C549 1.516 . S
C549 C548 1.516 . S
C549 C550 1.502 . S
C549 C551 1.561 . S
C549 C552 1.526 . S
C550 H534 0.959 . S
C550 H535 0.959 . S
C550 H536 0.961 . S
C550 C549 1.502 . S
C551 H537 0.960 . S
C551 H538 0.961 . S
C551 H539 0.959 . S
C551 C549 1.561 . S
C552 C549 1.526 . S
C552 C553 1.396 . S
C552 C557 1.390 . S
C553 C547 1.465 . S
C553 C552 1.396 . S
C553 C554 1.399 . S
C554 H540 0.929 . S
C554 C553 1.399 . S
C554 C555 1.385 . S
C555 H541 0.931 . S
C555 C554 1.385 . S
C555 C556 1.389 . S
C556 C555 1.389 . S
C556 C557 1.387 . S
C557 H542 0.930 . S
C557 C552 1.390 . S
C557 C556 1.387 . S
H558 C570 0.930 . S
H559 C572 0.930 . S
H560 C573 0.930 . S
H561 C577 0.959 . S
H562 C577 0.959 . S
H563 C577 0.961 . S
H564 C578 0.960 . S
H565 C578 0.961 . S
H566 C578 0.959 . S
H567 C581 0.929 . S
H568 C582 0.931 . S
H569 C584 0.930 . S
C570 H558 0.930 . S
C570 C571 1.399 . S
C570 C575 1.399 . S
C571 C570 1.399 . S
C571 C572 1.376 . S
C572 H559 0.930 . S
C572 C571 1.376 . S
C572 C573 1.388 . S
C573 H560 0.930 . S
C573 C572 1.388 . S
C573 C574 1.390 . S
C574 C573 1.390 . S
C574 C575 1.394 . S
C574 C580 1.465 . S
C575 C570 1.399 . S
C575 C574 1.394 . S
C575 C576 1.516 . S
C576 C575 1.516 . S
C576 C577 1.502 . S
C576 C578 1.561 . S
C576 C579 1.526 . S
C577 H561 0.959 . S
C577 H562 0.959 . S
C577 H563 0.961 . S
C577 C576 1.502 . S
C578 H564 0.960 . S
C578 H565 0.961 . S
C578 H566 0.959 . S
C578 C576 1.561 . S
C579 C576 1.526 . S
C579 C580 1.396 . S
C579 C584 1.390 . S
C580 C574 1.465 . S
C580 C579 1.396 . S
C580 C581 1.399 . S
C581 H567 0.929 . S
C581 C580 1.399 . S
C581 C582 1.385 . S
C582 H568 0.931 . S
C582 C581 1.385 . S
C582 C583 1.389 . S
C583 C582 1.389 . S
C583 C584 1.387 . S
C584 H569 0.930 . S
C584 C579 1.390 . S
C584 C583 1.387 . S
H585 C597 0.930 . S
H586 C599 0.930 . S
H587 C600 0.930 . S
H588 C604 0.959 . S
H589 C604 0.959 . S
H590 C604 0.961 . S
H591 C605 0.960 . S
H592 C605 0.961 . S
H593 C605 0.959 . S
H594 C608 0.929 . S
H595 C609 0.931 . S
H596 C611 0.930 . S
C597 H585 0.930 . S
C597 C598 1.399 1_554 S
C597 C602 1.399 . S
C598 C597 1.399 1_556 S
C598 C599 1.376 . S
C599 H586 0.930 . S
C599 C598 1.376 . S
C599 C600 1.388 . S
C600 H587 0.930 . S
C600 C599 1.388 . S
C600 C601 1.390 1_556 S
C601 C600 1.390 1_554 S
C601 C602 1.394 . S
C601 C607 1.465 . S
C602 C597 1.399 . S
C602 C601 1.394 . S
C602 C603 1.516 . S
C603 C602 1.516 . S
C603 C604 1.502 . S
C603 C605 1.561 1_554 S
C603 C606 1.526 . S
C604 H588 0.959 . S
C604 H589 0.959 . S
C604 H590 0.961 . S
C604 C603 1.502 . S
C605 H591 0.960 . S
C605 H592 0.961 . S
C605 H593 0.959 . S
C605 C603 1.561 1_556 S
C606 C603 1.526 . S
C606 C607 1.396 . S
C606 C611 1.390 . S
C607 C601 1.465 . S
C607 C606 1.396 . S
C607 C608 1.399 . S
C608 H594 0.929 . S
C608 C607 1.399 . S
C608 C609 1.385 1_455 S
C609 H595 0.931 . S
C609 C608 1.385 1_655 S
C609 C610 1.389 . S
C610 C609 1.389 . S
C610 C611 1.387 1_655 S
C611 H596 0.930 . S
C611 C606 1.390 . S
C611 C610 1.387 1_455 S
H612 C624 0.930 . S
H613 C626 0.930 . S
H614 C627 0.930 . S
H615 C631 0.959 . S
H616 C631 0.959 . S
H617 C631 0.961 . S
H618 C632 0.960 . S
H619 C632 0.961 . S
H620 C632 0.959 . S
H621 C635 0.929 . S
H622 C636 0.931 1_565 S
H623 C638 0.930 1_565 S
C624 H612 0.930 . S
C624 C625 1.399 . S
C624 C629 1.399 . S
C625 C624 1.399 . S
C625 C626 1.376 . S
C626 H613 0.930 . S
C626 C625 1.376 . S
C626 C627 1.388 . S
C627 H614 0.930 . S
C627 C626 1.388 . S
C627 C628 1.390 . S
C628 C627 1.390 . S
C628 C629 1.394 . S
C628 C634 1.465 . S
C629 C624 1.399 . S
C629 C628 1.394 . S
C629 C630 1.516 . S
C630 C629 1.516 . S
C630 C631 1.502 . S
C630 C632 1.561 . S
C630 C633 1.526 . S
C631 H615 0.959 . S
C631 H616 0.959 . S
C631 H617 0.961 . S
C631 C630 1.502 . S
C632 H618 0.960 . S
C632 H619 0.961 . S
C632 H620 0.959 . S
C632 C630 1.561 . S
C633 C630 1.526 . S
C633 C634 1.396 . S
C633 C638 1.390 . S
C634 C628 1.465 . S
C634 C633 1.396 . S
C634 C635 1.399 . S
C635 H621 0.929 . S
C635 C634 1.399 . S
C635 C636 1.385 . S
C636 H622 0.931 1_545 S
C636 C635 1.385 . S
C636 C637 1.389 1_545 S
C637 C636 1.389 1_565 S
C637 C638 1.387 1_565 S
C638 H623 0.930 1_545 S
C638 C633 1.390 . S
C638 C637 1.387 1_545 S
H639 C651 0.930 . S
H640 C653 0.930 . S
H641 C654 0.930 . S
H642 C658 0.959 . S
H643 C658 0.959 . S
H644 C658 0.961 . S
H645 C659 0.960 . S
H646 C659 0.961 . S
H647 C659 0.959 . S
H648 C662 0.929 . S
H649 C663 0.931 . S
H650 C665 0.930 . S
C651 H639 0.930 . S
C651 C652 1.399 . S
C651 C656 1.399 . S
C652 C651 1.399 . S
C652 C653 1.376 . S
C653 H640 0.930 . S
C653 C652 1.376 . S
C653 C654 1.388 . S
C654 H641 0.930 . S
C654 C653 1.388 . S
C654 C655 1.390 . S
C655 C654 1.390 . S
C655 C656 1.394 . S
C655 C661 1.465 . S
C656 C651 1.399 . S
C656 C655 1.394 . S
C656 C657 1.516 . S
C657 C656 1.516 . S
C657 C658 1.502 . S
C657 C659 1.561 . S
C657 C660 1.526 . S
C658 H642 0.959 . S
C658 H643 0.959 . S
C658 H644 0.961 . S
C658 C657 1.502 . S
C659 H645 0.960 . S
C659 H646 0.961 . S
C659 H647 0.959 . S
C659 C657 1.561 . S
C660 C657 1.526 . S
C660 C661 1.396 . S
C660 C665 1.390 . S
C661 C655 1.465 . S
C661 C660 1.396 . S
C661 C662 1.399 . S
C662 H648 0.929 . S
C662 C661 1.399 . S
C662 C663 1.385 . S
C663 H649 0.931 . S
C663 C662 1.385 . S
C663 C664 1.389 . S
C664 C663 1.389 . S
C664 C665 1.387 . S
C665 H650 0.930 . S
C665 C660 1.390 . S
C665 C664 1.387 . S
H666 C678 0.930 . S
H667 C680 0.930 1_455 S
H668 C681 0.930 . S
H669 C685 0.959 . S
H670 C685 0.959 . S
H671 C685 0.961 . S
H672 C686 0.960 . S
H673 C686 0.961 . S
H674 C686 0.959 . S
H675 C689 0.929 . S
H676 C690 0.931 . S
H677 C692 0.930 . S
C678 H666 0.930 . S
C678 C679 1.399 1_655 S
C678 C683 1.399 . S
C679 C678 1.399 1_455 S
C679 C680 1.376 1_455 S
C680 H667 0.930 1_655 S
C680 C679 1.376 1_655 S
C680 C681 1.388 . S
C681 H668 0.930 . S
C681 C680 1.388 . S
C681 C682 1.390 . S
C682 C681 1.390 . S
C682 C683 1.394 . S
C682 C688 1.465 . S
C683 C678 1.399 . S
C683 C682 1.394 . S
C683 C684 1.516 . S
C684 C683 1.516 . S
C684 C685 1.502 . S
C684 C686 1.561 . S
C684 C687 1.526 . S
C685 H669 0.959 . S
C685 H670 0.959 . S
C685 H671 0.961 . S
C685 C684 1.502 . S
C686 H672 0.960 . S
C686 H673 0.961 . S
C686 H674 0.959 . S
C686 C684 1.561 . S
C687 C684 1.526 . S
C687 C688 1.396 . S
C687 C692 1.390 . S
C688 C682 1.465 . S
C688 C687 1.396 . S
C688 C689 1.399 . S
C689 H675 0.929 . S
C689 C688 1.399 . S
C689 C690 1.385 . S
C690 H676 0.931 . S
C690 C689 1.385 . S
C690 C691 1.389 . S
C691 C690 1.389 . S
C691 C692 1.387 . S
C692 H677 0.930 . S
C692 C687 1.390 . S
C692 C691 1.387 . S
H693 C705 0.930 1_545 S
H694 C707 0.930 . S
H695 C708 0.930 . S
H696 C712 0.959 . S
H697 C712 0.959 . S
H698 C712 0.961 . S
H699 C713 0.960 . S
H700 C713 0.961 . S
H701 C713 0.959 . S
H702 C716 0.929 . S
H703 C717 0.931 . S
H704 C719 0.930 . S
C705 H693 0.930 1_565 S
C705 C706 1.399 1_565 S
C705 C710 1.399 . S
C706 C705 1.399 1_545 S
C706 C707 1.376 1_545 S
C707 H694 0.930 . S
C707 C706 1.376 1_565 S
C707 C708 1.388 . S
C708 H695 0.930 . S
C708 C707 1.388 . S
C708 C709 1.390 . S
C709 C708 1.390 . S
C709 C710 1.394 . S
C709 C715 1.465 . S
C710 C705 1.399 . S
C710 C709 1.394 . S
C710 C711 1.516 . S
C711 C710 1.516 . S
C711 C712 1.502 . S
C711 C713 1.561 . S
C711 C714 1.526 . S
C712 H696 0.959 . S
C712 H697 0.959 . S
C712 H698 0.961 . S
C712 C711 1.502 . S
C713 H699 0.960 . S
C713 H700 0.961 . S
C713 H701 0.959 . S
C713 C711 1.561 . S
C714 C711 1.526 . S
C714 C715 1.396 . S
C714 C719 1.390 . S
C715 C709 1.465 . S
C715 C714 1.396 . S
C715 C716 1.399 . S
C716 H702 0.929 . S
C716 C715 1.399 . S
C716 C717 1.385 . S
C717 H703 0.931 . S
C717 C716 1.385 . S
C717 C718 1.389 . S
C718 C717 1.389 . S
C718 C719 1.387 . S
C719 H704 0.930 . S
C719 C714 1.390 . S
C719 C718 1.387 . S
H720 C732 0.930 . S
H721 C734 0.930 . S
H722 C735 0.930 . S
H723 C739 0.959 . S
H724 C739 0.959 . S
H725 C739 0.961 . S
H726 C740 0.960 . S
H727 C740 0.961 . S
H728 C740 0.959 . S
H729 C743 0.929 . S
H730 C744 0.920 1_554 S
H731 C746 0.930 . S
C732 H720 0.930 . S
C732 C733 1.399 1_556 S
C732 C737 1.399 . S
C733 C732 1.399 1_554 S
C733 C734 1.376 . S
C734 H721 0.930 . S
C734 C733 1.376 . S
C734 C735 1.388 . S
C735 H722 0.930 . S
C735 C734 1.388 . S
C735 C736 1.390 . S
C736 C735 1.390 . S
C736 C737 1.394 1_554 S
C736 C742 1.465 1_554 S
C737 C732 1.399 . S
C737 C736 1.394 1_556 S
C737 C738 1.516 . S
C738 C737 1.516 . S
C738 C739 1.502 . S
C738 C740 1.561 . S
C738 C741 1.526 . S
C739 H723 0.959 . S
C739 H724 0.959 . S
C739 H725 0.961 . S
C739 C738 1.502 . S
C740 H726 0.960 . S
C740 H727 0.961 . S
C740 H728 0.959 . S
C740 C738 1.561 . S
C741 C738 1.526 . S
C741 C742 1.396 . S
C741 C746 1.390 . S
C742 C736 1.465 1_556 S
C742 C741 1.396 . S
C742 C743 1.399 1_556 S
C743 H729 0.929 . S
C743 C742 1.399 1_554 S
C743 C744 1.377 1_554 S
C744 H730 0.920 1_556 S
C744 C743 1.377 1_556 S
C744 C745 1.409 . S
C745 C744 1.409 . S
C745 C746 1.387 . S
C746 H731 0.930 . S
C746 C741 1.390 . S
C746 C745 1.387 . S
H747 C759 0.930 . S
H748 C761 0.930 1_655 S
H749 C762 0.930 . S
H750 C766 0.959 . S
H751 C766 0.959 . S
H752 C766 0.961 . S
H753 C767 0.960 . S
H754 C767 0.961 . S
H755 C767 0.959 . S
H756 C770 0.929 . S
H757 C771 0.931 . S
H758 C773 0.930 . S
C759 H747 0.930 . S
C759 C760 1.399 1_455 S
C759 C764 1.399 . S
C760 C759 1.399 1_655 S
C760 C761 1.376 1_655 S
C761 H748 0.930 1_455 S
C761 C760 1.376 1_455 S
C761 C762 1.388 . S
C762 H749 0.930 . S
C762 C761 1.388 . S
C762 C763 1.390 . S
C763 C762 1.390 . S
C763 C764 1.394 . S
C763 C769 1.465 . S
C764 C759 1.399 . S
C764 C763 1.394 . S
C764 C765 1.516 . S
C765 C764 1.516 . S
C765 C766 1.502 . S
C765 C767 1.561 . S
C765 C768 1.526 . S
C766 H750 0.959 . S
C766 H751 0.959 . S
C766 H752 0.961 . S
C766 C765 1.502 . S
C767 H753 0.960 . S
C767 H754 0.961 . S
C767 H755 0.959 . S
C767 C765 1.561 . S
C768 C765 1.526 . S
C768 C769 1.396 . S
C768 C773 1.390 . S
C769 C763 1.465 . S
C769 C768 1.396 . S
C769 C770 1.399 . S
C770 H756 0.929 . S
C770 C769 1.399 . S
C770 C771 1.385 . S
C771 H757 0.931 . S
C771 C770 1.385 . S
C771 C772 1.389 . S
C772 C771 1.389 . S
C772 C773 1.387 . S
C773 H758 0.930 . S
C773 C768 1.390 . S
C773 C772 1.387 . S
H774 C786 0.930 1_565 S
H775 C788 0.930 . S
H776 C789 0.930 . S
H777 C793 0.959 . S
H778 C793 0.959 . S
H779 C793 0.961 . S
H780 C794 0.960 . S
H781 C794 0.961 . S
H782 C794 0.959 . S
H783 C797 0.929 . S
H784 C798 0.931 . S
H785 C800 0.930 . S
C786 H774 0.930 1_545 S
C786 C787 1.399 1_545 S
C786 C791 1.399 . S
C787 C786 1.399 1_565 S
C787 C788 1.376 1_565 S
C788 H775 0.930 . S
C788 C787 1.376 1_545 S
C788 C789 1.388 . S
C789 H776 0.930 . S
C789 C788 1.388 . S
C789 C790 1.390 . S
C790 C789 1.390 . S
C790 C791 1.394 . S
C790 C796 1.465 . S
C791 C786 1.399 . S
C791 C790 1.394 . S
C791 C792 1.516 . S
C792 C791 1.516 . S
C792 C793 1.502 . S
C792 C794 1.561 . S
C792 C795 1.526 . S
C793 H777 0.959 . S
C793 H778 0.959 . S
C793 H779 0.961 . S
C793 C792 1.502 . S
C794 H780 0.960 . S
C794 H781 0.961 . S
C794 H782 0.959 . S
C794 C792 1.561 . S
C795 C792 1.526 . S
C795 C796 1.396 . S
C795 C800 1.390 . S
C796 C790 1.465 . S
C796 C795 1.396 . S
C796 C797 1.399 . S
C797 H783 0.929 . S
C797 C796 1.399 . S
C797 C798 1.385 . S
C798 H784 0.931 . S
C798 C797 1.385 . S
C798 C799 1.389 . S
C799 C798 1.389 . S
C799 C800 1.387 . S
C800 H785 0.930 . S
C800 C795 1.390 . S
C800 C799 1.387 . S
H801 C813 0.930 . S
H802 C815 0.930 . S
H803 C816 0.930 . S
H804 C820 0.959 . S
H805 C820 0.959 . S
H806 C820 0.961 . S
H807 C821 0.960 . S
H808 C821 0.961 . S
H809 C821 0.959 . S
H810 C824 0.929 . S
H811 C825 0.931 . S
H812 C827 0.930 . S
C813 H801 0.930 . S
C813 C814 1.399 . S
C813 C818 1.399 . S
C814 C813 1.399 . S
C814 C815 1.376 . S
C815 H802 0.930 . S
C815 C814 1.376 . S
C815 C816 1.388 . S
C816 H803 0.930 . S
C816 C815 1.388 . S
C816 C817 1.390 . S
C817 C816 1.390 . S
C817 C818 1.394 . S
C817 C823 1.465 . S
C818 C813 1.399 . S
C818 C817 1.394 . S
C818 C819 1.516 . S
C819 C818 1.516 . S
C819 C820 1.502 . S
C819 C821 1.561 . S
C819 C822 1.526 . S
C820 H804 0.959 . S
C820 H805 0.959 . S
C820 H806 0.961 . S
C820 C819 1.502 . S
C821 H807 0.960 . S
C821 H808 0.961 . S
C821 H809 0.959 . S
C821 C819 1.561 . S
C822 C819 1.526 . S
C822 C823 1.396 . S
C822 C827 1.390 . S
C823 C817 1.465 . S
C823 C822 1.396 . S
C823 C824 1.399 . S
C824 H810 0.929 . S
C824 C823 1.399 . S
C824 C825 1.385 . S
C825 H811 0.931 . S
C825 C824 1.385 . S
C825 C826 1.389 . S
C826 C825 1.389 . S
C826 C827 1.387 . S
C827 H812 0.930 . S
C827 C822 1.390 . S
C827 C826 1.387 . S
H828 C840 0.930 1_455 S
H829 C842 0.930 1_455 S
H830 C843 0.930 . S
H831 C847 0.959 . S
H832 C847 0.959 . S
H833 C847 0.961 . S
H834 C848 0.960 . S
H835 C848 0.961 . S
H836 C848 0.959 . S
H837 C851 0.929 . S
H838 C852 0.931 . S
H839 C854 0.930 . S
C840 H828 0.930 1_655 S
C840 C841 1.399 1_655 S
C840 C845 1.399 . S
C841 C840 1.399 1_455 S
C841 C842 1.376 1_455 S
C842 H829 0.930 1_655 S
C842 C841 1.376 1_655 S
C842 C843 1.388 . S
C843 H830 0.930 . S
C843 C842 1.388 . S
C843 C844 1.390 . S
C844 C843 1.390 . S
C844 C845 1.394 . S
C844 C850 1.465 . S
C845 C840 1.399 . S
C845 C844 1.394 . S
C845 C846 1.516 . S
C846 C845 1.516 . S
C846 C847 1.502 . S
C846 C848 1.561 . S
C846 C849 1.526 . S
C847 H831 0.959 . S
C847 H832 0.959 . S
C847 H833 0.961 . S
C847 C846 1.502 . S
C848 H834 0.960 . S
C848 H835 0.961 . S
C848 H836 0.959 . S
C848 C846 1.561 . S
C849 C846 1.526 . S
C849 C850 1.396 . S
C849 C854 1.390 . S
C850 C844 1.465 . S
C850 C849 1.396 . S
C850 C851 1.399 . S
C851 H837 0.929 . S
C851 C850 1.399 . S
C851 C852 1.385 . S
C852 H838 0.931 . S
C852 C851 1.385 . S
C852 C853 1.389 . S
C853 C852 1.389 . S
C853 C854 1.387 . S
C854 H839 0.930 . S
C854 C849 1.390 . S
C854 C853 1.387 . S
H855 C867 0.930 . S
H856 C869 0.930 . S
H857 C870 0.930 . S
H858 C874 0.959 . S
H859 C874 0.959 . S
H860 C874 0.961 . S
H861 C875 0.960 . S
H862 C875 0.961 . S
H863 C875 0.959 . S
H864 C878 0.929 . S
H865 C879 0.931 . S
H866 C881 0.930 . S
C867 H855 0.930 . S
C867 C868 1.399 1_565 S
C867 C872 1.399 . S
C868 C867 1.399 1_545 S
C868 C869 1.376 . S
C869 H856 0.930 . S
C869 C868 1.376 . S
C869 C870 1.388 1_545 S
C870 H857 0.930 . S
C870 C869 1.388 1_565 S
C870 C871 1.390 . S
C871 C870 1.390 . S
C871 C872 1.394 . S
C871 C877 1.465 . S
C872 C867 1.399 . S
C872 C871 1.394 . S
C872 C873 1.516 . S
C873 C872 1.516 . S
C873 C874 1.502 . S
C873 C875 1.561 . S
C873 C876 1.526 . S
C874 H858 0.959 . S
C874 H859 0.959 . S
C874 H860 0.961 . S
C874 C873 1.502 . S
C875 H861 0.960 . S
C875 H862 0.961 . S
C875 H863 0.959 . S
C875 C873 1.561 . S
C876 C873 1.526 . S
C876 C877 1.396 . S
C876 C881 1.390 . S
C877 C871 1.465 . S
C877 C876 1.396 . S
C877 C878 1.399 . S
C878 H864 0.929 . S
C878 C877 1.399 . S
C878 C879 1.385 . S
C879 H865 0.931 . S
C879 C878 1.385 . S
C879 C880 1.389 . S
C880 C879 1.389 . S
C880 C881 1.387 . S
C881 H866 0.930 . S
C881 C876 1.390 . S
C881 C880 1.387 . S
H882 C894 0.930 . S
H883 C896 0.930 . S
H884 C897 0.930 . S
H885 C901 0.959 . S
H886 C901 0.959 . S
H887 C901 0.961 . S
H888 C902 0.960 . S
H889 C902 0.961 . S
H890 C902 0.959 . S
H891 C905 0.929 . S
H892 C906 0.931 . S
H893 C908 0.930 . S
C894 H882 0.930 . S
C894 C895 1.399 . S
C894 C899 1.399 . S
C895 C894 1.399 . S
C895 C896 1.376 . S
C896 H883 0.930 . S
C896 C895 1.376 . S
C896 C897 1.388 . S
C897 H884 0.930 . S
C897 C896 1.388 . S
C897 C898 1.390 . S
C898 C897 1.390 . S
C898 C899 1.394 . S
C898 C904 1.465 . S
C899 C894 1.399 . S
C899 C898 1.394 . S
C899 C900 1.516 . S
C900 C899 1.516 . S
C900 C901 1.502 . S
C900 C902 1.561 . S
C900 C903 1.526 . S
C901 H885 0.959 . S
C901 H886 0.959 . S
C901 H887 0.961 . S
C901 C900 1.502 . S
C902 H888 0.960 . S
C902 H889 0.961 . S
C902 H890 0.959 . S
C902 C900 1.561 . S
C903 C900 1.526 . S
C903 C904 1.396 . S
C903 C908 1.390 . S
C904 C898 1.465 . S
C904 C903 1.396 . S
C904 C905 1.399 . S
C905 H891 0.929 . S
C905 C904 1.399 . S
C905 C906 1.385 . S
C906 H892 0.931 . S
C906 C905 1.385 . S
C906 C907 1.389 . S
C907 C906 1.389 . S
C907 C908 1.387 . S
C908 H893 0.930 . S
C908 C903 1.390 . S
C908 C907 1.387 . S
H909 C921 0.943 . S
H910 C923 0.930 . S
H911 C924 0.930 . S
H912 C928 0.959 . S
H913 C928 0.959 . S
H914 C928 0.961 . S
H915 C929 0.960 . S
H916 C929 0.961 . S
H917 C929 0.959 . S
H918 C932 0.929 . S
H919 C933 0.931 . S
H920 C935 0.930 . S
C921 H909 0.943 . S
C921 C922 1.399 . S
C921 C926 1.399 . S
C922 C921 1.399 . S
C922 C923 1.376 . S
C923 H910 0.930 . S
C923 C922 1.376 . S
C923 C924 1.388 . S
C924 H911 0.930 . S
C924 C923 1.388 . S
C924 C925 1.390 . S
C925 C924 1.390 . S
C925 C926 1.394 . S
C925 C931 1.465 . S
C926 C921 1.399 . S
C926 C925 1.394 . S
C926 C927 1.516 1_655 S
C927 C926 1.516 1_455 S
C927 C928 1.502 . S
C927 C929 1.561 . S
C927 C930 1.526 . S
C928 H912 0.959 . S
C928 H913 0.959 . S
C928 H914 0.961 . S
C928 C927 1.502 . S
C929 H915 0.960 . S
C929 H916 0.961 . S
C929 H917 0.959 . S
C929 C927 1.561 . S
C930 C927 1.526 . S
C930 C931 1.396 1_455 S
C930 C935 1.390 . S
C931 C925 1.465 . S
C931 C930 1.396 1_655 S
C931 C932 1.399 . S
C932 H918 0.929 . S
C932 C931 1.399 . S
C932 C933 1.385 1_655 S
C933 H919 0.931 . S
C933 C932 1.385 1_455 S
C933 C934 1.389 . S
C934 C933 1.389 . S
C934 C935 1.387 . S
C935 H920 0.930 . S
C935 C930 1.390 . S
C935 C934 1.387 . S
H936 C948 0.930 . S
H937 C950 0.930 . S
H938 C951 0.930 . S
H939 C955 0.959 . S
H940 C955 0.959 . S
H941 C955 0.961 . S
H942 C956 0.960 . S
H943 C956 0.961 1_545 S
H944 C956 0.959 . S
H945 C959 0.929 1_565 S
H946 C960 0.931 . S
H947 C962 0.930 . S
C948 H936 0.930 . S
C948 C949 1.399 . S
C948 C953 1.399 . S
C949 C948 1.399 . S
C949 C950 1.376 . S
C950 H937 0.930 . S
C950 C949 1.376 . S
C950 C951 1.388 . S
C951 H938 0.930 . S
C951 C950 1.388 . S
C951 C952 1.390 . S
C952 C951 1.390 . S
C952 C953 1.394 . S
C952 C958 1.448 1_565 S
C953 C948 1.399 . S
C953 C952 1.394 . S
C953 C954 1.516 1_565 S
C954 C953 1.516 1_545 S
C954 C955 1.502 . S
C954 C956 1.561 1_545 S
C954 C957 1.526 . S
C955 H939 0.959 . S
C955 H940 0.959 . S
C955 H941 0.961 . S
C955 C954 1.502 . S
C956 H942 0.960 . S
C956 H943 0.961 1_565 S
C956 H944 0.959 . S
C956 C954 1.561 1_565 S
C957 C954 1.526 . S
C957 C958 1.429 . S
C957 C962 1.390 . S
C958 C952 1.448 1_545 S
C958 C957 1.429 . S
C958 C959 1.389 . S
C959 H945 0.929 1_545 S
C959 C958 1.389 . S
C959 C960 1.385 . S
C960 H946 0.931 . S
C960 C959 1.385 . S
C960 C961 1.389 . S
C961 C960 1.389 . S
C961 C962 1.387 . S
C962 H947 0.930 . S
C962 C957 1.390 . S
C962 C961 1.387 . S
H963 C975 0.930 . S
H964 C977 0.930 . S
H965 C978 0.930 . S
H966 C982 0.959 . S
H967 C982 0.959 . S
H968 C982 0.961 . S
H969 C983 0.960 . S
H970 C983 0.961 . S
H971 C983 0.959 . S
H972 C986 0.929 . S
H973 C987 0.931 . S
H974 C989 0.930 . S
C975 H963 0.930 . S
C975 C976 1.399 . S
C975 C980 1.399 . S
C976 C975 1.399 . S
C976 C977 1.376 . S
C977 H964 0.930 . S
C977 C976 1.376 . S
C977 C978 1.388 . S
C978 H965 0.930 . S
C978 C977 1.388 . S
C978 C979 1.390 . S
C979 C978 1.390 . S
C979 C980 1.394 . S
C979 C985 1.465 . S
C980 C975 1.399 . S
C980 C979 1.394 . S
C980 C981 1.516 . S
C981 C980 1.516 . S
C981 C982 1.502 . S
C981 C983 1.561 . S
C981 C984 1.526 . S
C982 H966 0.959 . S
C982 H967 0.959 . S
C982 H968 0.961 . S
C982 C981 1.502 . S
C983 H969 0.960 . S
C983 H970 0.961 . S
C983 H971 0.959 . S
C983 C981 1.561 . S
C984 C981 1.526 . S
C984 C985 1.396 . S
C984 C989 1.390 . S
C985 C979 1.465 . S
C985 C984 1.396 . S
C985 C986 1.399 . S
C986 H972 0.929 . S
C986 C985 1.399 . S
C986 C987 1.385 . S
C987 H973 0.931 . S
C987 C986 1.385 . S
C987 C988 1.389 . S
C988 C987 1.389 . S
C988 C989 1.387 . S
C989 H974 0.930 . S
C989 C984 1.390 . S
C989 C988 1.387 . S
H990 C1002 0.930 . S
H991 C1004 0.930 . S
H992 C1005 0.930 . S
H993 C1009 0.959 . S
H994 C1009 0.959 . S
H995 C1009 0.961 . S
H996 C1010 0.960 . S
H997 C1010 0.961 . S
H998 C1010 0.959 . S
H999 C1013 0.929 . S
H1000 C1014 0.931 . S
H1001 C1016 0.930 . S
C1002 H990 0.930 . S
C1002 C1003 1.399 . S
C1002 C1007 1.399 . S
C1003 C1002 1.399 . S
C1003 C1004 1.376 . S
C1004 H991 0.930 . S
C1004 C1003 1.376 . S
C1004 C1005 1.388 . S
C1005 H992 0.930 . S
C1005 C1004 1.388 . S
C1005 C1006 1.390 . S
C1006 C1005 1.390 . S
C1006 C1007 1.394 . S
C1006 C1012 1.465 . S
C1007 C1002 1.399 . S
C1007 C1006 1.394 . S
C1007 C1008 1.516 1_455 S
C1008 C1007 1.516 1_655 S
C1008 C1009 1.502 . S
C1008 C1010 1.561 . S
C1008 C1011 1.526 . S
C1009 H993 0.959 . S
C1009 H994 0.959 . S
C1009 H995 0.961 . S
C1009 C1008 1.502 . S
C1010 H996 0.960 . S
C1010 H997 0.961 . S
C1010 H998 0.959 . S
C1010 C1008 1.561 . S
C1011 C1008 1.526 . S
C1011 C1012 1.396 1_655 S
C1011 C1016 1.390 . S
C1012 C1006 1.465 . S
C1012 C1011 1.396 1_455 S
C1012 C1013 1.399 . S
C1013 H999 0.929 . S
C1013 C1012 1.399 . S
C1013 C1014 1.385 1_455 S
C1014 H1000 0.931 . S
C1014 C1013 1.385 1_655 S
C1014 C1015 1.389 . S
C1015 C1014 1.389 . S
C1015 C1016 1.387 . S
C1016 H1001 0.930 . S
C1016 C1011 1.390 . S
C1016 C1015 1.387 . S
H1017 C1029 0.930 . S
H1018 C1031 0.930 . S
H1019 C1032 0.930 1_556 S
H1020 C1036 0.959 . S
H1021 C1036 0.959 . S
H1022 C1036 0.961 . S
H1023 C1037 0.960 . S
H1024 C1037 0.961 . S
H1025 C1037 0.959 . S
H1026 C1040 0.929 . S
H1027 C1041 0.931 . S
H1028 C1043 0.930 . S
C1029 H1017 0.930 . S
C1029 C1030 1.399 . S
C1029 C1034 1.399 . S
C1030 C1029 1.399 . S
C1030 C1031 1.376 . S
C1031 H1018 0.930 . S
C1031 C1030 1.376 . S
C1031 C1032 1.388 . S
C1032 H1019 0.930 1_554 S
C1032 C1031 1.388 . S
C1032 C1033 1.390 . S
C1033 C1032 1.390 . S
C1033 C1034 1.394 . S
C1033 C1039 1.465 1_554 S
C1034 C1029 1.399 . S
C1034 C1033 1.394 . S
C1034 C1035 1.516 1_565 S
C1035 C1034 1.516 1_545 S
C1035 C1036 1.502 . S
C1035 C1037 1.561 . S
C1035 C1038 1.526 1_554 S
C1036 H1020 0.959 . S
C1036 H1021 0.959 . S
C1036 H1022 0.961 . S
C1036 C1035 1.502 . S
C1037 H1023 0.960 . S
C1037 H1024 0.961 . S
C1037 H1025 0.959 . S
C1037 C1035 1.561 . S
C1038 C1035 1.526 1_556 S
C1038 C1039 1.396 1_545 S
C1038 C1043 1.390 . S
C1039 C1033 1.465 1_556 S
C1039 C1038 1.396 1_565 S
C1039 C1040 1.399 . S
C1040 H1026 0.929 . S
C1040 C1039 1.399 . S
C1040 C1041 1.385 1_565 S
C1041 H1027 0.931 . S
C1041 C1040 1.385 1_545 S
C1041 C1042 1.389 . S
C1042 C1041 1.389 . S
C1042 C1043 1.387 . S
C1043 H1028 0.930 . S
C1043 C1038 1.390 . S
C1043 C1042 1.387 . S
H1044 C1056 0.930 . S
H1045 C1058 0.930 . S
H1046 C1059 0.930 . S
H1047 C1063 0.959 . S
H1048 C1063 0.959 1_554 S
H1049 C1063 0.961 1_554 S
H1050 C1064 0.960 . S
H1051 C1064 0.961 . S
H1052 C1064 0.959 . S
H1053 C1067 0.929 . S
H1054 C1068 0.931 . S
H1055 C1070 0.930 . S
C1056 H1044 0.930 . S
C1056 C1057 1.399 . S
C1056 C1061 1.399 . S
C1057 C1056 1.399 . S
C1057 C1058 1.376 . S
C1058 H1045 0.930 . S
C1058 C1057 1.376 . S
C1058 C1059 1.388 . S
C1059 H1046 0.930 . S
C1059 C1058 1.388 . S
C1059 C1060 1.390 . S
C1060 C1059 1.390 . S
C1060 C1061 1.394 . S
C1060 C1066 1.465 . S
C1061 C1056 1.399 . S
C1061 C1060 1.394 . S
C1061 C1062 1.516 . S
C1062 C1061 1.516 . S
C1062 C1063 1.502 . S
C1062 C1064 1.561 1_556 S
C1062 C1065 1.526 . S
C1063 H1047 0.959 . S
C1063 H1048 0.959 1_556 S
C1063 H1049 0.961 1_556 S
C1063 C1062 1.502 . S
C1064 H1050 0.960 . S
C1064 H1051 0.961 . S
C1064 H1052 0.959 . S
C1064 C1062 1.561 1_554 S
C1065 C1062 1.526 . S
C1065 C1066 1.396 . S
C1065 C1070 1.390 . S
C1066 C1060 1.465 . S
C1066 C1065 1.396 . S
C1066 C1067 1.399 . S
C1067 H1053 0.929 . S
C1067 C1066 1.399 . S
C1067 C1068 1.385 . S
C1068 H1054 0.931 . S
C1068 C1067 1.385 . S
C1068 C1069 1.389 . S
C1069 C1068 1.389 . S
C1069 C1070 1.387 . S
C1070 H1055 0.930 . S
C1070 C1065 1.390 . S
C1070 C1069 1.387 . S
H1071 C1083 0.930 . S
H1072 C1085 0.930 . S
H1073 C1086 0.920 1_556 S
H1074 C1090 0.959 . S
H1075 C1090 0.959 . S
H1076 C1090 0.961 . S
H1077 C1091 0.960 . S
H1078 C1091 0.961 . S
H1079 C1091 0.959 . S
H1080 C1094 0.929 1_556 S
H1081 C1095 0.931 . S
H1082 C1097 0.930 . S
C1083 H1071 0.930 . S
C1083 C1084 1.399 . S
C1083 C1088 1.399 . S
C1084 C1083 1.399 . S
C1084 C1085 1.376 . S
C1085 H1072 0.930 . S
C1085 C1084 1.376 . S
C1085 C1086 1.388 . S
C1086 H1073 0.920 1_554 S
C1086 C1085 1.388 . S
C1086 C1087 1.390 . S
C1087 C1086 1.390 . S
C1087 C1088 1.394 . S
C1087 C1093 1.465 . S
C1088 C1083 1.399 . S
C1088 C1087 1.394 . S
C1088 C1089 1.516 . S
C1089 C1088 1.516 . S
C1089 C1090 1.502 . S
C1089 C1091 1.561 . S
C1089 C1092 1.526 . S
C1090 H1074 0.959 . S
C1090 H1075 0.959 . S
C1090 H1076 0.961 . S
C1090 C1089 1.502 . S
C1091 H1077 0.960 . S
C1091 H1078 0.961 . S
C1091 H1079 0.959 . S
C1091 C1089 1.561 . S
C1092 C1089 1.526 . S
C1092 C1093 1.396 . S
C1092 C1097 1.390 . S
C1093 C1087 1.465 . S
C1093 C1092 1.396 . S
C1093 C1094 1.399 . S
C1094 H1080 0.929 1_554 S
C1094 C1093 1.399 . S
C1094 C1095 1.385 . S
C1095 H1081 0.931 . S
C1095 C1094 1.385 . S
C1095 C1096 1.389 . S
C1096 C1095 1.389 . S
C1096 C1097 1.387 . S
C1097 H1082 0.930 . S
C1097 C1092 1.390 . S
C1097 C1096 1.387 . S
H1098 C1110 0.930 . S
H1099 C1112 0.930 . S
H1100 C1113 0.930 . S
H1101 C1117 0.959 . S
H1102 C1117 0.959 . S
H1103 C1117 0.961 . S
H1104 C1118 0.960 . S
H1105 C1118 0.961 . S
H1106 C1118 0.959 . S
H1107 C1121 0.929 . S
H1108 C1122 0.931 . S
H1109 C1124 0.930 . S
C1110 H1098 0.930 . S
C1110 C1111 1.399 . S
C1110 C1115 1.399 . S
C1111 C1110 1.399 . S
C1111 C1112 1.376 . S
C1112 H1099 0.930 . S
C1112 C1111 1.376 . S
C1112 C1113 1.388 . S
C1113 H1100 0.930 . S
C1113 C1112 1.388 . S
C1113 C1114 1.390 . S
C1114 C1113 1.390 . S
C1114 C1115 1.394 . S
C1114 C1120 1.465 . S
C1115 C1110 1.399 . S
C1115 C1114 1.394 . S
C1115 C1116 1.516 . S
C1116 C1115 1.516 . S
C1116 C1117 1.502 . S
C1116 C1118 1.561 . S
C1116 C1119 1.526 . S
C1117 H1101 0.959 . S
C1117 H1102 0.959 . S
C1117 H1103 0.961 . S
C1117 C1116 1.502 . S
C1118 H1104 0.960 . S
C1118 H1105 0.961 . S
C1118 H1106 0.959 . S
C1118 C1116 1.561 . S
C1119 C1116 1.526 . S
C1119 C1120 1.396 . S
C1119 C1124 1.390 . S
C1120 C1114 1.465 . S
C1120 C1119 1.396 . S
C1120 C1121 1.399 . S
C1121 H1107 0.929 . S
C1121 C1120 1.399 . S
C1121 C1122 1.385 . S
C1122 H1108 0.931 . S
C1122 C1121 1.385 . S
C1122 C1123 1.389 . S
C1123 C1122 1.389 . S
C1123 C1124 1.387 . S
C1124 H1109 0.930 . S
C1124 C1119 1.390 . S
C1124 C1123 1.387 . S
H1125 C1137 0.930 . S
H1126 C1139 0.930 . S
H1127 C1140 0.930 . S
H1128 C1144 0.959 . S
H1129 C1144 0.959 . S
H1130 C1144 0.961 . S
H1131 C1145 0.960 . S
H1132 C1145 0.961 . S
H1133 C1145 0.959 . S
H1134 C1148 0.929 . S
H1135 C1149 0.931 . S
H1136 C1151 0.930 . S
C1137 H1125 0.930 . S
C1137 C1138 1.399 . S
C1137 C1142 1.399 . S
C1138 C1137 1.399 . S
C1138 C1139 1.376 . S
C1139 H1126 0.930 . S
C1139 C1138 1.376 . S
C1139 C1140 1.388 . S
C1140 H1127 0.930 . S
C1140 C1139 1.388 . S
C1140 C1141 1.390 . S
C1141 C1140 1.390 . S
C1141 C1142 1.394 . S
C1141 C1147 1.465 . S
C1142 C1137 1.399 . S
C1142 C1141 1.394 . S
C1142 C1143 1.516 . S
C1143 C1142 1.516 . S
C1143 C1144 1.502 . S
C1143 C1145 1.561 . S
C1143 C1146 1.526 . S
C1144 H1128 0.959 . S
C1144 H1129 0.959 . S
C1144 H1130 0.961 . S
C1144 C1143 1.502 . S
C1145 H1131 0.960 . S
C1145 H1132 0.961 . S
C1145 H1133 0.959 . S
C1145 C1143 1.561 . S
C1146 C1143 1.526 . S
C1146 C1147 1.396 . S
C1146 C1151 1.390 . S
C1147 C1141 1.465 . S
C1147 C1146 1.396 . S
C1147 C1148 1.399 . S
C1148 H1134 0.929 . S
C1148 C1147 1.399 . S
C1148 C1149 1.385 . S
C1149 H1135 0.931 . S
C1149 C1148 1.385 . S
C1149 C1150 1.389 . S
C1150 C1149 1.389 . S
C1150 C1151 1.387 . S
C1151 H1136 0.930 . S
C1151 C1146 1.390 . S
C1151 C1150 1.387 . S
H1152 C1164 0.930 . S
H1153 C1166 0.930 . S
H1154 C1167 0.930 . S
H1155 C1171 0.959 . S
H1156 C1171 0.959 . S
H1157 C1171 0.961 . S
H1158 C1172 0.960 . S
H1159 C1172 0.961 . S
H1160 C1172 0.959 . S
H1161 C1175 0.929 . S
H1162 C1176 0.931 . S
H1163 C1178 0.930 . S
C1164 H1152 0.930 . S
C1164 C1165 1.399 . S
C1164 C1169 1.399 . S
C1165 C1164 1.399 . S
C1165 C1166 1.376 . S
C1166 H1153 0.930 . S
C1166 C1165 1.376 . S
C1166 C1167 1.388 . S
C1167 H1154 0.930 . S
C1167 C1166 1.388 . S
C1167 C1168 1.390 . S
C1168 C1167 1.390 . S
C1168 C1169 1.394 . S
C1168 C1174 1.465 . S
C1169 C1164 1.399 . S
C1169 C1168 1.394 . S
C1169 C1170 1.516 . S
C1170 C1169 1.516 . S
C1170 C1171 1.502 . S
C1170 C1172 1.561 . S
C1170 C1173 1.526 . S
C1171 H1155 0.959 . S
C1171 H1156 0.959 . S
C1171 H1157 0.961 . S
C1171 C1170 1.502 . S
C1172 H1158 0.960 . S
C1172 H1159 0.961 . S
C1172 H1160 0.959 . S
C1172 C1170 1.561 . S
C1173 C1170 1.526 . S
C1173 C1174 1.396 . S
C1173 C1178 1.390 . S
C1174 C1168 1.465 . S
C1174 C1173 1.396 . S
C1174 C1175 1.399 . S
C1175 H1161 0.929 . S
C1175 C1174 1.399 . S
C1175 C1176 1.385 . S
C1176 H1162 0.931 . S
C1176 C1175 1.385 . S
C1176 C1177 1.389 . S
C1177 C1176 1.389 . S
C1177 C1178 1.387 . S
C1178 H1163 0.930 . S
C1178 C1173 1.390 . S
C1178 C1177 1.387 . S
H1179 C1191 0.930 . S
H1180 C1193 0.930 . S
H1181 C1194 0.930 . S
H1182 C1198 0.959 . S
H1183 C1198 0.959 . S
H1184 C1198 0.961 . S
H1185 C1199 0.960 . S
H1186 C1199 0.961 . S
H1187 C1199 0.959 . S
H1188 C1202 0.929 . S
H1189 C1203 0.931 . S
H1190 C1205 0.930 . S
C1191 H1179 0.930 . S
C1191 C1192 1.399 . S
C1191 C1196 1.399 . S
C1192 C1191 1.399 . S
C1192 C1193 1.376 . S
C1193 H1180 0.930 . S
C1193 C1192 1.376 . S
C1193 C1194 1.388 . S
C1194 H1181 0.930 . S
C1194 C1193 1.388 . S
C1194 C1195 1.390 . S
C1195 C1194 1.390 . S
C1195 C1196 1.394 . S
C1195 C1201 1.465 . S
C1196 C1191 1.399 . S
C1196 C1195 1.394 . S
C1196 C1197 1.516 . S
C1197 C1196 1.516 . S
C1197 C1198 1.502 . S
C1197 C1199 1.561 . S
C1197 C1200 1.526 . S
C1198 H1182 0.959 . S
C1198 H1183 0.959 . S
C1198 H1184 0.961 . S
C1198 C1197 1.502 . S
C1199 H1185 0.960 . S
C1199 H1186 0.961 . S
C1199 H1187 0.959 . S
C1199 C1197 1.561 . S
C1200 C1197 1.526 . S
C1200 C1201 1.396 . S
C1200 C1205 1.390 . S
C1201 C1195 1.465 . S
C1201 C1200 1.396 . S
C1201 C1202 1.399 . S
C1202 H1188 0.929 . S
C1202 C1201 1.399 . S
C1202 C1203 1.385 . S
C1203 H1189 0.931 . S
C1203 C1202 1.385 . S
C1203 C1204 1.389 . S
C1204 C1203 1.389 . S
C1204 C1205 1.387 . S
C1205 H1190 0.930 . S
C1205 C1200 1.390 . S
C1205 C1204 1.387 . S
C409 N344 1.042 . S
C421 N14 1.135 . S
C436 N47 1.198 . S
C448 N377 1.058 . S
C463 N80 1.097 . S
C475 N212 1.138 . S
C490 N113 1.124 . S
C502 N245 1.027 . S
C517 N146 1.188 . S
C529 N278 1.053 . S
C544 N179 1.096 . S
C556 N311 1.137 . S
C571 N5 1.666 . S
C583 C173 1.679 . S
C598 C8 1.729 . S
C610 N38 1.669 . S
C625 C41 1.701 . S
C637 N71 1.670 . S
C652 N104 1.688 . S
C664 C74 1.738 . S
C679 N137 1.748 . S
C691 C107 1.746 . S
C706 N170 1.705 . S
C718 C140 1.691 . S
C733 C239 1.711 . S
C745 N203 1.715 . S
C760 N236 1.655 . S
C772 C272 1.690 . S
C787 N269 1.696 . S
C799 C305 1.690 . S
C814 N302 1.689 . S
C826 C338 1.745 . S
C841 N335 1.675 . S
C853 C371 1.694 . S
C868 N368 1.680 . S
C880 C206 1.738 . S
C895 C28 0.709 . S
C907 C325 0.778 . S
C922 C61 0.743 . S
C934 C358 0.850 . S
C949 C94 0.735 . S
C961 C391 0.817 . S
C976 C127 0.786 . S
C988 C226 0.794 . S
C1003 C160 0.689 . S
C1015 C259 0.791 . S
C1030 C292 0.704 . S
C1042 C193 0.826 . S
C1057 C215 1.387 . S
C1069 C17 1.421 . S
C1084 C50 1.387 . S
C1096 C248 1.352 . S
C1111 C83 1.366 . S
C1123 C281 1.368 . S
C1138 C314 1.410 . S
C1150 C116 1.446 . S
C1165 C149 1.395 . S
C1177 C347 1.441 . S
C1192 C380 1.368 . S
C1204 C182 1.413 . S
