# Generated by pormake.
# Topology ukj, (4)-cn, num edge types: 1
# Building blocks:
#     Node 0, Type 0, BuildingBlock: ICAMEG_clean_sbu_1, # of connection points: 4
#     Node 1, Type 0, BuildingBlock: ICAMEG_clean_sbu_1, # of connection points: 4
#     Node 2, Type 0, BuildingBlock: ICAMEG_clean_sbu_1, # of connection points: 4
#     Node 3, Type 0, BuildingBlock: ICAMEG_clean_sbu_1, # of connection points: 4
#     Node 4, Type 0, BuildingBlock: ICAMEG_clean_sbu_1, # of connection points: 4
#     Node 5, Type 0, BuildingBlock: ICAMEG_clean_sbu_1, # of connection points: 4
#     Node 6, Type 0, BuildingBlock: ICAMEG_clean_sbu_1, # of connection points: 4
#     Node 7, Type 0, BuildingBlock: ICAMEG_clean_sbu_1, # of connection points: 4
#     Node 8, Type 0, BuildingBlock: ICAMEG_clean_sbu_1, # of connection points: 4
#     Node 9, Type 0, BuildingBlock: ICAMEG_clean_sbu_1, # of connection points: 4
#     Node 10, Type 0, BuildingBlock: ICAMEG_clean_sbu_1, # of connection points: 4
#     Node 11, Type 0, BuildingBlock: ICAMEG_clean_sbu_1, # of connection points: 4
#     Node 12, Type 0, BuildingBlock: ICAMEG_clean_sbu_1, # of connection points: 4
#     Node 13, Type 0, BuildingBlock: ICAMEG_clean_sbu_1, # of connection points: 4
#     Node 14, Type 0, BuildingBlock: ICAMEG_clean_sbu_1, # of connection points: 4
#     Node 15, Type 0, BuildingBlock: ICAMEG_clean_sbu_1, # of connection points: 4
#     Node 16, Type 0, BuildingBlock: ICAMEG_clean_sbu_1, # of connection points: 4
#     Node 17, Type 0, BuildingBlock: ICAMEG_clean_sbu_1, # of connection points: 4
#     Node 18, Type 0, BuildingBlock: ICAMEG_clean_sbu_1, # of connection points: 4
#     Node 19, Type 0, BuildingBlock: ICAMEG_clean_sbu_1, # of connection points: 4
#     Node 20, Type 0, BuildingBlock: ICAMEG_clean_sbu_1, # of connection points: 4
#     Node 21, Type 0, BuildingBlock: ICAMEG_clean_sbu_1, # of connection points: 4
#     Node 22, Type 0, BuildingBlock: ICAMEG_clean_sbu_1, # of connection points: 4
#     Node 23, Type 0, BuildingBlock: ICAMEG_clean_sbu_1, # of connection points: 4
#     Node 24, Type 0, BuildingBlock: ICAMEG_clean_sbu_1, # of connection points: 4
#     Node 25, Type 0, BuildingBlock: ICAMEG_clean_sbu_1, # of connection points: 4
#     Node 26, Type 0, BuildingBlock: ICAMEG_clean_sbu_1, # of connection points: 4
#     Node 27, Type 0, BuildingBlock: ICAMEG_clean_sbu_1, # of connection points: 4
#     Node 28, Type 0, BuildingBlock: ICAMEG_clean_sbu_1, # of connection points: 4
#     Node 29, Type 0, BuildingBlock: ICAMEG_clean_sbu_1, # of connection points: 4
#     Node 30, Type 0, BuildingBlock: ICAMEG_clean_sbu_1, # of connection points: 4
#     Node 31, Type 0, BuildingBlock: ICAMEG_clean_sbu_1, # of connection points: 4
#     Edge 32, Type (0, 0), BuildingBlock: XIVTED_clean_linker_0, # of connection points: 2
#     Edge 33, Type (0, 0), BuildingBlock: XIVTED_clean_linker_0, # of connection points: 2
#     Edge 34, Type (0, 0), BuildingBlock: XIVTED_clean_linker_0, # of connection points: 2
#     Edge 35, Type (0, 0), BuildingBlock: XIVTED_clean_linker_0, # of connection points: 2
#     Edge 36, Type (0, 0), BuildingBlock: XIVTED_clean_linker_0, # of connection points: 2
#     Edge 37, Type (0, 0), BuildingBlock: XIVTED_clean_linker_0, # of connection points: 2
#     Edge 38, Type (0, 0), BuildingBlock: XIVTED_clean_linker_0, # of connection points: 2
#     Edge 39, Type (0, 0), BuildingBlock: XIVTED_clean_linker_0, # of connection points: 2
#     Edge 40, Type (0, 0), BuildingBlock: XIVTED_clean_linker_0, # of connection points: 2
#     Edge 41, Type (0, 0), BuildingBlock: XIVTED_clean_linker_0, # of connection points: 2
#     Edge 42, Type (0, 0), BuildingBlock: XIVTED_clean_linker_0, # of connection points: 2
#     Edge 43, Type (0, 0), BuildingBlock: XIVTED_clean_linker_0, # of connection points: 2
#     Edge 44, Type (0, 0), BuildingBlock: XIVTED_clean_linker_0, # of connection points: 2
#     Edge 45, Type (0, 0), BuildingBlock: XIVTED_clean_linker_0, # of connection points: 2
#     Edge 46, Type (0, 0), BuildingBlock: XIVTED_clean_linker_0, # of connection points: 2
#     Edge 47, Type (0, 0), BuildingBlock: XIVTED_clean_linker_0, # of connection points: 2
#     Edge 48, Type (0, 0), BuildingBlock: XIVTED_clean_linker_0, # of connection points: 2
#     Edge 49, Type (0, 0), BuildingBlock: XIVTED_clean_linker_0, # of connection points: 2
#     Edge 50, Type (0, 0), BuildingBlock: XIVTED_clean_linker_0, # of connection points: 2
#     Edge 51, Type (0, 0), BuildingBlock: XIVTED_clean_linker_0, # of connection points: 2
#     Edge 52, Type (0, 0), BuildingBlock: XIVTED_clean_linker_0, # of connection points: 2
#     Edge 53, Type (0, 0), BuildingBlock: XIVTED_clean_linker_0, # of connection points: 2
#     Edge 54, Type (0, 0), BuildingBlock: XIVTED_clean_linker_0, # of connection points: 2
#     Edge 55, Type (0, 0), BuildingBlock: XIVTED_clean_linker_0, # of connection points: 2
#     Edge 56, Type (0, 0), BuildingBlock: XIVTED_clean_linker_0, # of connection points: 2
#     Edge 57, Type (0, 0), BuildingBlock: XIVTED_clean_linker_0, # of connection points: 2
#     Edge 58, Type (0, 0), BuildingBlock: XIVTED_clean_linker_0, # of connection points: 2
#     Edge 59, Type (0, 0), BuildingBlock: XIVTED_clean_linker_0, # of connection points: 2
#     Edge 60, Type (0, 0), BuildingBlock: XIVTED_clean_linker_0, # of connection points: 2
#     Edge 61, Type (0, 0), BuildingBlock: XIVTED_clean_linker_0, # of connection points: 2
#     Edge 62, Type (0, 0), BuildingBlock: XIVTED_clean_linker_0, # of connection points: 2
#     Edge 63, Type (0, 0), BuildingBlock: XIVTED_clean_linker_0, # of connection points: 2
#     Edge 64, Type (0, 0), BuildingBlock: XIVTED_clean_linker_0, # of connection points: 2
#     Edge 65, Type (0, 0), BuildingBlock: XIVTED_clean_linker_0, # of connection points: 2
#     Edge 66, Type (0, 0), BuildingBlock: XIVTED_clean_linker_0, # of connection points: 2
#     Edge 67, Type (0, 0), BuildingBlock: XIVTED_clean_linker_0, # of connection points: 2
#     Edge 68, Type (0, 0), BuildingBlock: XIVTED_clean_linker_0, # of connection points: 2
#     Edge 69, Type (0, 0), BuildingBlock: XIVTED_clean_linker_0, # of connection points: 2
#     Edge 70, Type (0, 0), BuildingBlock: XIVTED_clean_linker_0, # of connection points: 2
#     Edge 71, Type (0, 0), BuildingBlock: XIVTED_clean_linker_0, # of connection points: 2
#     Edge 72, Type (0, 0), BuildingBlock: XIVTED_clean_linker_0, # of connection points: 2
#     Edge 73, Type (0, 0), BuildingBlock: XIVTED_clean_linker_0, # of connection points: 2
#     Edge 74, Type (0, 0), BuildingBlock: XIVTED_clean_linker_0, # of connection points: 2
#     Edge 75, Type (0, 0), BuildingBlock: XIVTED_clean_linker_0, # of connection points: 2
#     Edge 76, Type (0, 0), BuildingBlock: XIVTED_clean_linker_0, # of connection points: 2
#     Edge 77, Type (0, 0), BuildingBlock: XIVTED_clean_linker_0, # of connection points: 2
#     Edge 78, Type (0, 0), BuildingBlock: XIVTED_clean_linker_0, # of connection points: 2
#     Edge 79, Type (0, 0), BuildingBlock: XIVTED_clean_linker_0, # of connection points: 2
#     Edge 80, Type (0, 0), BuildingBlock: XIVTED_clean_linker_0, # of connection points: 2
#     Edge 81, Type (0, 0), BuildingBlock: XIVTED_clean_linker_0, # of connection points: 2
#     Edge 82, Type (0, 0), BuildingBlock: XIVTED_clean_linker_0, # of connection points: 2
#     Edge 83, Type (0, 0), BuildingBlock: XIVTED_clean_linker_0, # of connection points: 2
#     Edge 84, Type (0, 0), BuildingBlock: XIVTED_clean_linker_0, # of connection points: 2
#     Edge 85, Type (0, 0), BuildingBlock: XIVTED_clean_linker_0, # of connection points: 2
#     Edge 86, Type (0, 0), BuildingBlock: XIVTED_clean_linker_0, # of connection points: 2
#     Edge 87, Type (0, 0), BuildingBlock: XIVTED_clean_linker_0, # of connection points: 2
#     Edge 88, Type (0, 0), BuildingBlock: XIVTED_clean_linker_0, # of connection points: 2
#     Edge 89, Type (0, 0), BuildingBlock: XIVTED_clean_linker_0, # of connection points: 2
#     Edge 90, Type (0, 0), BuildingBlock: XIVTED_clean_linker_0, # of connection points: 2
#     Edge 91, Type (0, 0), BuildingBlock: XIVTED_clean_linker_0, # of connection points: 2
#     Edge 92, Type (0, 0), BuildingBlock: XIVTED_clean_linker_0, # of connection points: 2
#     Edge 93, Type (0, 0), BuildingBlock: XIVTED_clean_linker_0, # of connection points: 2
#     Edge 94, Type (0, 0), BuildingBlock: XIVTED_clean_linker_0, # of connection points: 2
#     Edge 95, Type (0, 0), BuildingBlock: XIVTED_clean_linker_0, # of connection points: 2
# Relax obj value: 0.068
# Max RMSD: 0.115
# Mean RMSD: 0.115
data_MOF--net-ukj--node1-ICAMEG_clean_sbu_1--edge1-XIVTED_clean_linker_0
_symmetry_space_group_name_H-M    P1
_symmetry_Int_Tables_number       1
_symmetry_cell_setting            triclinic
loop_
_symmetry_equiv_pos_as_xyz
'x, y, z'
_cell_length_a     32.323404
_cell_length_b     70.657165
_cell_length_c     61.233677
_cell_angle_alpha  89.999829
_cell_angle_beta   89.999659
_cell_angle_gamma 90.023163
loop_
_atom_site_label
_atom_site_type_symbol
_atom_site_fract_x
_atom_site_fract_y
_atom_site_fract_z
_atom_type_partial_charge
Co0 Co 0.13704 0.36285 0.24898 0.0
Co1 Co 0.16977 0.32102 0.27125 0.0
O2 O 0.13798 0.33525 0.24967 0.0
C3 C 0.15556 0.35121 0.20389 0.0
O4 O 0.18279 0.33946 0.21215 0.0
C5 C 0.08677 0.30399 0.27125 0.0
O6 O 0.07176 0.32113 0.27358 0.0
O7 O 0.14179 0.33481 0.2953 0.0
O8 O 0.13927 0.36431 0.28174 0.0
H9 H 0.25536 0.31299 0.33911 0.0
H10 H 0.07232 0.34143 0.2252 0.0
O11 O 0.13469 0.36204 0.21632 0.0
H12 H 0.99696 0.381 0.27828 0.0
H13 H 0.09027 0.42627 0.22081 0.0
H14 H 0.18249 0.39315 0.27234 0.0
H15 H 0.07306 0.38247 0.27589 0.0
H16 H 0.0909 0.39139 0.22265 0.0
O17 O 0.12565 0.30132 0.27134 0.0
H18 H 0.21666 0.33095 0.31128 0.0
H19 H 0.1877 0.28001 0.27777 0.0
H20 H 0.18261 0.42806 0.27117 0.0
H21 H 0.99618 0.33964 0.22691 0.0
H22 H 0.13624 0.44484 0.24526 0.0
H23 H 0.958 0.35949 0.25364 0.0
O24 O 0.19836 0.36342 0.2476 0.0
H25 H 0.17552 0.28482 0.20062 0.0
H26 H 0.25781 0.31216 0.26067 0.0
H27 H 0.29332 0.29585 0.23042 0.0
H28 H 0.2521 0.28199 0.20014 0.0
H29 H 0.14128 0.30148 0.23101 0.0
H30 H 0.22587 0.26148 0.30533 0.0
H31 H 0.26016 0.27799 0.33623 0.0
O32 O 0.215 0.34034 0.27128 0.0
C33 C 0.13705 0.35261 0.29763 0.0
C34 C 0.24067 0.30564 0.32569 0.0
C35 C 0.22407 0.27672 0.30674 0.0
N36 N 0.20024 0.30655 0.29282 0.0
C37 C 0.21881 0.31574 0.30984 0.0
C38 C 0.20244 0.28729 0.29121 0.0
C39 C 0.24332 0.286 0.32407 0.0
C40 C 0.05589 0.35026 0.23671 0.0
N41 N 0.0771 0.3621 0.25036 0.0
C42 C 0.01279 0.34912 0.23767 0.0
C43 C 0.9914 0.36023 0.25271 0.0
C44 C 0.01325 0.37229 0.26655 0.0
C45 C 0.05635 0.37303 0.26516 0.0
C46 C 0.11055 0.41912 0.2322 0.0
C47 C 0.16205 0.40037 0.26112 0.0
C48 C 0.1111 0.39938 0.23329 0.0
N49 N 0.13645 0.39027 0.24773 0.0
C50 C 0.16234 0.42013 0.26049 0.0
C51 C 0.13634 0.42953 0.24593 0.0
C52 C 0.2243 0.35462 0.25952 0.0
C53 C 0.19381 0.29074 0.21376 0.0
C54 C 0.23964 0.30626 0.2475 0.0
C55 C 0.25993 0.29698 0.23045 0.0
C56 C 0.23678 0.28919 0.21348 0.0
N57 N 0.19747 0.30774 0.24766 0.0
C58 C 0.17457 0.3001 0.23109 0.0
Co59 Co 0.11021 0.88519 0.25013 0.0
Co60 Co 0.0758 0.92739 0.27078 0.0
O61 O 0.10868 0.91278 0.25004 0.0
C62 C 0.09267 0.89586 0.20468 0.0
O63 O 0.06491 0.9076 0.21247 0.0
C64 C 0.15879 0.94438 0.27163 0.0
O65 O 0.17352 0.92729 0.27479 0.0
O66 O 0.10258 0.91414 0.29559 0.0
O67 O 0.10701 0.8844 0.28287 0.0
H68 H 0.9869 0.93675 0.33722 0.0
H69 H 0.17516 0.90646 0.22635 0.0
O70 O 0.1135 0.88537 0.21751 0.0
H71 H 0.24977 0.86836 0.28111 0.0
H72 H 0.15921 0.82145 0.22407 0.0
H73 H 0.0647 0.85515 0.27391 0.0
H74 H 0.1738 0.86642 0.27809 0.0
H75 H 0.15778 0.85636 0.22498 0.0
O76 O 0.11994 0.9471 0.27095 0.0
H77 H 0.02697 0.91825 0.3104 0.0
H78 H 0.0575 0.96851 0.27594 0.0
H79 H 0.06536 0.82023 0.27368 0.0
H80 H 0.25117 0.90872 0.2287 0.0
H81 H 0.11289 0.80316 0.24862 0.0
H82 H 0.28897 0.88961 0.25628 0.0
O83 O 0.04897 0.88428 0.24825 0.0
H84 H 0.07355 0.96214 0.19913 0.0
H85 H 0.98831 0.93597 0.25872 0.0
H86 H 0.95431 0.95162 0.22754 0.0
H87 H 0.99701 0.96488 0.19748 0.0
H88 H 0.10628 0.94614 0.23045 0.0
H89 H 0.01797 0.98758 0.30246 0.0
H90 H 0.9822 0.97167 0.33332 0.0
O91 O 0.03061 0.90803 0.27068 0.0
C92 C 0.10804 0.89644 0.29843 0.0
C93 C 0.00223 0.94383 0.32379 0.0
C94 C 0.01971 0.97236 0.3043 0.0
N95 N 0.04424 0.94227 0.29152 0.0
C96 C 0.02486 0.93343 0.30853 0.0
C97 C 0.04211 0.9615 0.28936 0.0
C98 C -0.00036 0.96343 0.32161 0.0
C99 C 0.19143 0.89795 0.23823 0.0
N100 N 0.17008 0.88626 0.25199 0.0
C101 C 0.23445 0.89935 0.23955 0.0
C102 C 0.25563 0.88865 0.25506 0.0
C103 C 0.23365 0.87674 0.26901 0.0
C104 C 0.19062 0.87574 0.26726 0.0
C105 C 0.13844 0.82873 0.2351 0.0
C106 C 0.08564 0.84781 0.26307 0.0
C107 C 0.13743 0.84849 0.23566 0.0
N108 N 0.11144 0.85776 0.24963 0.0
C109 C 0.08579 0.82804 0.26296 0.0
C110 C 0.11244 0.81847 0.24888 0.0
C111 C 0.02223 0.89335 0.2594 0.0
C112 C 0.05461 0.95648 0.21216 0.0
C113 C 0.00713 0.94161 0.24566 0.0
C114 C 0.98769 0.95052 0.22807 0.0
C115 C 0.01167 0.95798 0.21123 0.0
N116 N 0.04928 0.94018 0.24646 0.0
C117 C 0.07299 0.94749 0.23001 0.0
Co118 Co 0.13931 0.88521 0.00052 0.0
Co119 Co 0.17142 0.92717 0.97825 0.0
O120 O 0.14028 0.91281 -2e-05 0.0
C121 C 0.15955 0.89663 0.04543 0.0
O122 O 0.18651 0.90841 0.03696 0.0
C123 C 0.08828 0.94391 0.97877 0.0
O124 O 0.07355 0.92672 0.97633 0.0
O125 O 0.14301 0.91343 0.95431 0.0
O126 O 0.14035 0.8839 0.96778 0.0
H127 H 0.25538 0.93566 0.90989 0.0
H128 H 0.07552 0.90657 0.02502 0.0
O129 O 0.13815 0.88588 0.03316 0.0
H130 H -0.00185 0.86726 0.97248 0.0
H131 H 0.09335 0.82167 0.02875 0.0
H132 H 0.18386 0.855 0.97654 0.0
H133 H 0.07431 0.8657 0.97416 0.0
H134 H 0.09402 0.85656 0.02712 0.0
O135 O 0.1271 0.94675 0.97855 0.0
H136 H 0.21746 0.9175 0.93787 0.0
H137 H 0.18881 0.96825 0.97183 0.0
H138 H 0.18392 0.82009 0.97749 0.0
H139 H -0.00064 0.90845 0.02402 0.0
H140 H 0.1384 0.8032 0.00374 0.0
H141 H 0.96017 0.88874 0.99755 0.0
O142 O 0.20065 0.88462 0.00129 0.0
H143 H 0.17852 0.96305 0.04907 0.0
H144 H 0.25962 0.9362 0.9883 0.0
H145 H 0.2957 0.95243 0.01843 0.0
H146 H 0.25508 0.96604 0.04907 0.0
H147 H 0.14371 0.94648 0.01878 0.0
H148 H 0.2262 0.98697 0.94413 0.0
H149 H 0.25994 0.97065 0.91292 0.0
O150 O 0.21679 0.90796 0.97783 0.0
C151 C 0.13783 0.89565 0.95198 0.0
C152 C 0.24093 0.94293 0.92345 0.0
C153 C 0.2245 0.97173 0.94265 0.0
N154 N 0.20126 0.94179 0.95656 0.0
C155 C 0.21951 0.93272 0.93937 0.0
C156 C 0.20331 0.96106 0.95826 0.0
C157 C 0.24344 0.96256 0.92515 0.0
C158 C 0.05866 0.89779 0.01363 0.0
N159 N 0.07933 0.88598 -0.00026 0.0
C160 C 0.01555 0.89898 0.01306 0.0
C161 C 0.99358 0.88795 0.99818 0.0
C162 C 0.01488 0.8759 0.98409 0.0
C163 C 0.05802 0.87512 0.98508 0.0
C164 C 0.11324 0.82887 0.01721 0.0
C165 C 0.1638 0.84774 0.98791 0.0
C166 C 0.11382 0.84862 0.01624 0.0
N167 N 0.13869 0.85779 0.00161 0.0
C168 C 0.16404 0.82798 0.98842 0.0
C169 C 0.13852 0.81851 0.00317 0.0
C170 C 0.22633 0.89357 0.98935 0.0
C171 C 0.19655 0.95724 0.03577 0.0
C172 C 0.24171 0.94199 0.00163 0.0
C173 C 0.26232 0.95123 0.01861 0.0
C174 C 0.23951 0.95888 0.03578 0.0
N175 N 0.19955 0.94043 0.00173 0.0
C176 C 0.17698 0.94793 0.0185 0.0
Co177 Co 0.10787 0.35855 0.99906 0.0
Co178 Co 0.07051 0.31597 0.97965 0.0
O179 O 0.10549 0.33094 0.9991 0.0
C180 C 0.08935 0.3479 0.04446 0.0
O181 O 0.06193 0.33606 0.03652 0.0
C182 C 0.15454 0.30057 0.97479 0.0
O183 O 0.16777 0.31799 0.97214 0.0
O184 O 0.09115 0.3301 0.95368 0.0
O185 O 0.10539 0.35921 0.96647 0.0
H186 H 0.96967 0.30597 0.9183 0.0
H187 H 0.17129 0.3367 0.02331 0.0
O188 O 0.11035 0.35842 0.03173 0.0
H189 H 0.24882 0.37388 0.96881 0.0
H190 H 0.15914 0.42186 0.02533 0.0
H191 H 0.0644 0.38897 0.97487 0.0
H192 H 0.17291 0.3766 0.97144 0.0
H193 H 0.15618 0.38698 0.02445 0.0
O194 O 0.11605 0.29722 0.97655 0.0
H195 H 0.01311 0.32479 0.94332 0.0
H196 H 0.05547 0.27457 0.97417 0.0
H197 H 0.06658 0.42387 0.97509 0.0
H198 H 0.24721 0.33365 0.02135 0.0
H199 H 0.11423 0.44054 0.00045 0.0
H200 H 0.28647 0.35229 0.9939 0.0
O201 O 0.0466 0.36027 0.00043 0.0
H202 H 0.08607 0.2809 0.05061 0.0
H203 H 0.98705 0.30434 0.9957 0.0
H204 H 0.96105 0.28758 0.02824 0.0
H205 H 0.01075 0.27569 0.05597 0.0
H206 H 0.11064 0.29797 0.01799 0.0
H207 H 0.01274 0.25519 0.94937 0.0
H208 H 0.96931 0.27091 0.92125 0.0
O209 O 0.024 0.33428 0.98287 0.0
C210 C 0.10089 0.34744 0.95084 0.0
C211 C 0.98835 0.29896 0.93053 0.0
C212 C 0.01258 0.27046 0.94795 0.0
N213 N 0.03653 0.3008 0.96029 0.0
C214 C 0.01292 0.30955 0.94478 0.0
C215 C 0.03678 0.2815 0.96191 0.0
C216 C 0.9882 0.27929 0.93218 0.0
C217 C 0.1882 0.34502 0.01149 0.0
N218 N 0.16772 0.3569 0.9976 0.0
C219 C 0.23117 0.34317 0.01039 0.0
C220 C 0.25317 0.3536 0.99495 0.0
C221 C 0.23206 0.3657 0.98086 0.0
C222 C 0.18907 0.36716 0.98239 0.0
C223 C 0.13832 0.41476 0.01417 0.0
C224 C 0.0854 0.39613 0.98585 0.0
C225 C 0.13646 0.39502 0.01362 0.0
N226 N 0.1104 0.38596 0.99949 0.0
C227 C 0.08641 0.41589 0.98595 0.0
C228 C 0.11312 0.42523 0.0002 0.0
C229 C 0.01785 0.3502 0.99214 0.0
C230 C 0.0641 0.28599 0.03863 0.0
C231 C 0.00881 0.29937 0.00777 0.0
C232 C 0.99394 0.28979 0.02611 0.0
C233 C 0.02184 0.2831 0.04165 0.0
N234 N 0.05029 0.3022 0.00494 0.0
C235 C 0.07784 0.2956 0.02007 0.0
Co236 Co 0.85169 0.63507 0.75116 0.0
Co237 Co 0.82246 0.67722 0.72834 0.0
O238 O 0.85284 0.66266 0.75016 0.0
C239 C 0.83291 0.64746 0.79597 0.0
O240 O 0.80646 0.65936 0.78728 0.0
C241 C 0.90669 0.69287 0.72818 0.0
O242 O 0.92049 0.67549 0.72612 0.0
O243 O 0.8496 0.66282 0.70456 0.0
O244 O 0.85012 0.63336 0.71834 0.0
H245 H 0.73838 0.6861 0.66009 0.0
H246 H 0.91742 0.65574 0.77504 0.0
O247 O 0.85341 0.63619 0.78386 0.0
H248 H 0.99099 0.61455 0.72292 0.0
H249 H 0.89318 0.57125 0.78037 0.0
H250 H 0.80467 0.60526 0.72782 0.0
H251 H 0.91478 0.61422 0.7249 0.0
H252 H 0.89507 0.6061 0.77814 0.0
O253 O 0.86803 0.69613 0.72813 0.0
H254 H 0.77538 0.66775 0.68823 0.0
H255 H 0.80773 0.71845 0.72136 0.0
H256 H 0.80205 0.57038 0.72936 0.0
H257 H 0.99367 0.65641 0.77373 0.0
H258 H 0.84655 0.55315 0.75579 0.0
H259 H 0.03095 0.63574 0.74748 0.0
O260 O 0.79029 0.63543 0.75216 0.0
H261 H 0.81888 0.714 0.79861 0.0
H262 H 0.73506 0.68763 0.73857 0.0
H263 H 0.70057 0.70471 0.76859 0.0
H264 H 0.74256 0.71807 0.79886 0.0
H265 H 0.85208 0.69659 0.76845 0.0
H266 H 0.77131 0.73737 0.6935 0.0
H267 H 0.73617 0.72118 0.66263 0.0
O268 O 0.77581 0.65871 0.72837 0.0
C269 C 0.85338 0.64495 0.70239 0.0
C270 C 0.75345 0.69332 0.6735 0.0
C271 C 0.77198 0.72209 0.69223 0.0
N272 N 0.79337 0.69201 0.70652 0.0
C273 C 0.77435 0.683 0.68952 0.0
C274 C 0.79261 0.71131 0.70794 0.0
C275 C 0.75226 0.713 0.67492 0.0
C276 C 0.93344 0.64656 0.76374 0.0
N277 N 0.91168 0.6349 0.75014 0.0
C278 C 0.97661 0.64706 0.763 0.0
C279 C 0.9975 0.63549 0.74824 0.0
C280 C 0.9751 0.62361 0.73444 0.0
C281 C 0.93194 0.62352 0.7356 0.0
C282 C 0.8737 0.57859 0.76876 0.0
C283 C 0.8243 0.59784 0.73926 0.0
C284 C 0.87458 0.59832 0.76745 0.0
N285 N 0.85026 0.60767 0.75273 0.0
C286 C 0.8226 0.57811 0.74011 0.0
C287 C 0.84754 0.56845 0.75496 0.0
C288 C 0.76521 0.64466 0.74015 0.0
C289 C 0.80026 0.7083 0.78547 0.0
C290 C 0.75356 0.69332 0.75174 0.0
C291 C 0.73385 0.70303 0.76866 0.0
C292 C 0.75743 0.71055 0.78562 0.0
N293 N 0.79559 0.69115 0.7517 0.0
C294 C 0.81891 0.69852 0.76827 0.0
Co295 Co 0.89246 0.10687 0.74974 0.0
Co296 Co 0.93093 0.06438 0.73058 0.0
O297 O 0.8957 0.07931 0.74991 0.0
C298 C 0.91272 0.09642 0.79504 0.0
O299 O 0.94019 0.08475 0.78685 0.0
C300 C 0.84692 0.04946 0.7249 0.0
O301 O 0.83466 0.06698 0.72188 0.0
O302 O 0.91097 0.07855 0.70449 0.0
O303 O 0.89371 0.10738 0.7171 0.0
H304 H 0.03294 0.0543 0.66979 0.0
H305 H 0.83066 0.08455 0.7746 0.0
O306 O 0.8911 0.10685 0.78248 0.0
H307 H 0.74999 0.12105 0.72079 0.0
H308 H 0.84022 0.16995 0.77617 0.0
H309 H 0.9339 0.13747 0.72484 0.0
H310 H 0.82585 0.12443 0.72276 0.0
H311 H 0.8443 0.13508 0.7755 0.0
O312 O 0.88515 0.04576 0.7272 0.0
H313 H 0.98924 0.07317 0.69464 0.0
H314 H 0.94553 0.02297 0.72504 0.0
H315 H 0.93057 0.17235 0.72484 0.0
H316 H 0.75483 0.08083 0.77328 0.0
H317 H 0.88346 0.18881 0.75065 0.0
H318 H 0.71399 0.09913 0.74618 0.0
O319 O 0.95373 0.10903 0.75049 0.0
H320 H 0.91377 0.02925 0.80141 0.0
H321 H 0.01397 0.05264 0.74704 0.0
H322 H 0.03924 0.03583 0.7797 0.0
H323 H 0.98894 0.02397 0.80716 0.0
H324 H 0.88992 0.04636 0.76867 0.0
H325 H 0.9885 0.00355 0.70042 0.0
H326 H 0.03274 0.01923 0.67261 0.0
O327 O 0.97743 0.08265 0.73412 0.0
C328 C 0.8995 0.09565 0.70154 0.0
C329 C 0.01391 0.04731 0.68189 0.0
C330 C 0.98891 0.01882 0.69906 0.0
N331 N 0.96515 0.04918 0.71137 0.0
C332 C 0.9892 0.05792 0.69604 0.0
C333 C 0.96458 0.02989 0.71292 0.0
C334 C 0.01374 0.02763 0.68347 0.0
C335 C 0.81306 0.09272 0.76293 0.0
N336 N 0.83264 0.10478 0.74887 0.0
C337 C 0.77015 0.09049 0.76219 0.0
C338 C 0.74726 0.10073 0.74695 0.0
C339 C 0.76744 0.11303 0.73269 0.0
C340 C 0.81041 0.11486 0.73386 0.0
C341 C 0.86081 0.16294 0.76482 0.0
C342 C 0.91314 0.14453 0.73602 0.0
C343 C 0.86331 0.14321 0.7644 0.0
N344 N 0.88907 0.13426 0.75002 0.0
C345 C 0.91148 0.16428 0.73599 0.0
C346 C 0.88507 0.17351 0.75049 0.0
C347 C 0.98292 0.09887 0.74279 0.0
C348 C 0.93599 0.03432 0.78955 0.0
C349 C 0.99195 0.04767 0.75898 0.0
C350 C 0.00641 0.03807 0.7774 0.0
C351 C 0.97817 0.03139 0.79278 0.0
N352 N 0.95055 0.05053 0.75594 0.0
C353 C 0.92266 0.04396 0.77092 0.0
Co354 Co 0.86052 0.10835 0.00014 0.0
Co355 Co 0.8231 0.06575 0.01955 0.0
O356 O 0.85912 0.08071 0.0006 0.0
C357 C 0.84552 0.09698 0.95455 0.0
O358 O 0.81817 0.08496 0.96218 0.0
C359 C 0.90717 0.05071 0.02657 0.0
O360 O 0.92042 0.06819 0.02857 0.0
O361 O 0.84112 0.08043 0.04566 0.0
O362 O 0.85574 0.10945 0.03268 0.0
H363 H 0.71766 0.056 0.07877 0.0
H364 H 0.92629 0.08667 0.97749 0.0
O365 O 0.86525 0.10783 0.9675 0.0
H366 H -0.00124 0.1251 0.03278 0.0
H367 H 0.91146 0.17166 0.97366 0.0
H368 H 0.81448 0.13879 0.02294 0.0
H369 H 0.92299 0.12722 0.02867 0.0
H370 H 0.90958 0.13677 0.97514 0.0
O371 O 0.86882 0.04735 0.02417 0.0
H372 H 0.76254 0.07473 0.05437 0.0
H373 H 0.80882 0.02433 0.02553 0.0
H374 H 0.81554 0.17369 0.02211 0.0
H375 H 0.00212 0.08421 0.98094 0.0
H376 H 0.86431 0.19035 0.99734 0.0
H377 H 0.03884 0.10348 0.00879 0.0
O378 O 0.7993 0.10965 0.99756 0.0
H379 H 0.84588 0.02982 0.94973 0.0
H380 H 0.7415 0.0531 0.00189 0.0
H381 H 0.71889 0.03566 0.96912 0.0
H382 H 0.77131 0.02384 0.94278 0.0
H383 H 0.86703 0.04757 0.98254 0.0
H384 H 0.76471 0.00505 0.04974 0.0
H385 H 0.71857 0.0209 0.07654 0.0
O386 O 0.77628 0.08362 0.01487 0.0
C387 C 0.85023 0.09786 0.04842 0.0
C388 C 0.73753 0.04893 0.06712 0.0
C389 C 0.76398 0.02034 0.05085 0.0
N390 N 0.78802 0.05064 0.03844 0.0
C391 C 0.76292 0.05946 0.05322 0.0
C392 C 0.78897 0.03133 0.03722 0.0
C393 C 0.73809 0.02924 0.06587 0.0
C394 C 0.9421 0.09525 0.98949 0.0
N395 N 0.92027 0.10715 0.00278 0.0
C396 C 0.98502 0.09374 0.99143 0.0
C397 C 0.00559 0.10453 0.00709 0.0
C398 C 0.98312 0.11665 0.02057 0.0
C399 C 0.94021 0.11776 0.01819 0.0
C400 C 0.89014 0.16456 0.98456 0.0
C401 C 0.83596 0.14594 0.01222 0.0
C402 C 0.88888 0.14482 0.98544 0.0
N403 N 0.86218 0.13577 0.99925 0.0
C404 C 0.83634 0.16571 0.01178 0.0
C405 C 0.86368 0.17504 0.99785 0.0
C406 C 0.77029 0.09941 0.0053 0.0
C407 C 0.82275 0.03487 0.9611 0.0
C408 C 0.76442 0.04818 0.99041 0.0
C409 C 0.75148 0.03821 0.97194 0.0
C410 C 0.7809 0.03156 0.95719 0.0
N411 N 0.8055 0.05143 0.99412 0.0
C412 C 0.83454 0.04487 0.97976 0.0
Co413 Co 0.88433 0.63933 0.00131 0.0
Co414 Co 0.92058 0.68211 0.02068 0.0
O415 O 0.88525 0.66698 0.00153 0.0
C416 C 0.89933 0.65036 0.95557 0.0
O417 O 0.92641 0.66259 0.96304 0.0
C418 C 0.83626 0.69732 0.02646 0.0
O419 O 0.82274 0.67988 0.02853 0.0
O420 O 0.90154 0.66767 0.04677 0.0
O421 O 0.88892 0.63844 0.03386 0.0
H422 H 0.02366 0.69237 0.08093 0.0
H423 H 0.81826 0.66056 0.97834 0.0
O424 O 0.87976 0.6396 0.96867 0.0
H425 H 0.74623 0.62218 0.03384 0.0
H426 H 0.83482 0.57563 0.97532 0.0
H427 H 0.93097 0.60925 0.02439 0.0
H428 H 0.82207 0.62038 0.0299 0.0
H429 H 0.83593 0.61053 0.97652 0.0
O430 O 0.87475 0.70059 0.02457 0.0
H431 H 0.97974 0.67344 0.05626 0.0
H432 H 0.93473 0.72359 0.02631 0.0
H433 H 0.93069 0.57434 0.02384 0.0
H434 H 0.74235 0.66268 0.98161 0.0
H435 H 0.88234 0.5573 0.99917 0.0
H436 H 0.70585 0.64343 0.00956 0.0
O437 O 0.94557 0.63831 0.99881 0.0
H438 H 0.90055 0.71746 0.95022 0.0
H439 H 0.00287 0.69458 0.00374 0.0
H440 H 0.02676 0.71175 0.97103 0.0
H441 H 0.97538 0.72336 0.94401 0.0
H442 H 0.87811 0.69998 0.98299 0.0
H443 H 0.97791 0.74307 0.05077 0.0
H444 H 0.02291 0.72745 0.07826 0.0
O445 O 0.96761 0.6642 0.01671 0.0
C446 C 0.89325 0.65016 0.04956 0.0
C447 C 0.00428 0.69934 0.06897 0.0
C448 C 0.97855 0.72779 0.05207 0.0
N449 N 0.95495 0.69739 0.03976 0.0
C450 C 0.97944 0.68869 0.05492 0.0
C451 C 0.95409 0.71669 0.0383 0.0
C452 C 0.00381 0.71902 0.06748 0.0
C453 C 0.80255 0.65199 0.99038 0.0
N454 N 0.82454 0.64029 0.00383 0.0
C455 C 0.75958 0.65331 0.99222 0.0
C456 C 0.73913 0.64254 0.00794 0.0
C457 C 0.76178 0.63062 0.02158 0.0
C458 C 0.80472 0.62969 0.01931 0.0
C459 C 0.85596 0.58289 0.98618 0.0
C460 C 0.90967 0.60193 0.01371 0.0
C461 C 0.85678 0.60264 0.98689 0.0
N462 N 0.88325 0.6119 0.00065 0.0
C463 C 0.90973 0.58216 0.01343 0.0
C464 C 0.88263 0.57261 0.99957 0.0
C465 C 0.97417 0.64854 0.00698 0.0
C466 C 0.92323 0.71249 0.96189 0.0
C467 C 0.9804 0.69941 0.99197 0.0
C468 C 0.99407 0.70923 0.97353 0.0
C469 C 0.96523 0.71577 0.95839 0.0
N470 N 0.93918 0.6962 0.99527 0.0
C471 C 0.91071 0.70265 0.98053 0.0
Co472 Co 0.13075 0.85848 0.75058 0.0
Co473 Co 0.17184 0.81646 0.76916 0.0
O474 O 0.1357 0.83102 0.75002 0.0
C475 C 0.15201 0.85007 0.70479 0.0
O476 O 0.18437 0.84085 0.71217 0.0
C477 C 0.08935 0.79965 0.77455 0.0
O478 O 0.07507 0.81683 0.7777 0.0
O479 O 0.15022 0.82987 0.79542 0.0
O480 O 0.13343 0.85885 0.78312 0.0
H481 H 0.2738 0.80737 0.83018 0.0
H482 H 0.06918 0.83552 0.72626 0.0
O483 O 0.12758 0.8584 0.71796 0.0
H484 H 0.98876 0.87071 0.78134 0.0
H485 H 0.0732 0.92092 0.72523 0.0
H486 H 0.1713 0.88953 0.77515 0.0
H487 H 0.0643 0.87499 0.77853 0.0
H488 H 0.07966 0.88612 0.7256 0.0
O489 O 0.12789 0.79691 0.77198 0.0
H490 H 0.22874 0.82578 0.80556 0.0
H491 H 0.19022 0.77528 0.77387 0.0
H492 H 0.16563 0.92435 0.77543 0.0
H493 H 0.99367 0.83092 0.72841 0.0
H494 H 0.11628 0.94026 0.75034 0.0
H495 H 0.95295 0.84855 0.75614 0.0
O496 O 0.192 0.8615 0.74926 0.0
H497 H 0.15885 0.78307 0.69701 0.0
H498 H 0.25607 0.80617 0.75301 0.0
H499 H 0.28327 0.79064 0.71994 0.0
H500 H 0.23448 0.77893 0.69166 0.0
H501 H 0.13306 0.79885 0.73023 0.0
H502 H 0.2346 0.75632 0.79827 0.0
H503 H 0.27692 0.77238 0.82661 0.0
O504 O 0.21662 0.8356 0.76623 0.0
C505 C 0.13895 0.84698 0.79854 0.0
C506 C 0.25561 0.80021 0.81785 0.0
C507 C 0.23355 0.77156 0.79996 0.0
N508 N 0.20714 0.80163 0.7882 0.0
C509 C 0.23013 0.81056 0.80383 0.0
C510 C 0.20841 0.78236 0.78624 0.0
C511 C 0.25731 0.78058 0.81585 0.0
C512 C 0.05163 0.8434 0.73822 0.0
N513 N 0.07112 0.85559 0.75217 0.0
C514 C 0.00889 0.84067 0.73942 0.0
C515 C 0.98608 0.85054 0.75501 0.0
C516 C 0.00616 0.86296 0.76917 0.0
C517 C 0.04896 0.8653 0.76753 0.0
C518 C 0.09476 0.91415 0.73627 0.0
C519 C 0.14959 0.89636 0.76428 0.0
C520 C 0.0986 0.89446 0.73652 0.0
N521 N 0.12559 0.88582 0.75051 0.0
C522 C 0.1466 0.91607 0.76447 0.0
C523 C 0.11893 0.92499 0.75037 0.0
C524 C 0.22155 0.85177 0.75735 0.0
C525 C 0.18043 0.78809 0.70922 0.0
C526 C 0.2347 0.80125 0.74072 0.0
C527 C 0.25025 0.79238 0.72206 0.0
C528 C 0.22286 0.7858 0.70622 0.0
N529 N 0.19305 0.80347 0.74356 0.0
C530 C 0.16601 0.797 0.72811 0.0
Co531 Co 0.11572 0.38898 0.75018 0.0
Co532 Co 0.07658 0.43112 0.7696 0.0
O533 O 0.11262 0.41652 0.75046 0.0
C534 C 0.09637 0.39886 0.70457 0.0
O535 O 0.06463 0.40839 0.71217 0.0
C536 C 0.15993 0.44705 0.776 0.0
O537 O 0.17396 0.42972 0.77819 0.0
O538 O 0.09628 0.41682 0.79562 0.0
O539 O 0.11169 0.38786 0.78274 0.0
H540 H 0.97272 0.44006 0.82976 0.0
H541 H 0.1797 0.4115 0.72707 0.0
O542 O 0.11997 0.38982 0.71756 0.0
H543 H 0.25565 0.37409 0.78196 0.0
H544 H 0.17014 0.32644 0.72332 0.0
H545 H 0.07224 0.3579 0.77329 0.0
H546 H 0.17994 0.37102 0.77836 0.0
H547 H 0.16593 0.36128 0.72482 0.0
O548 O 0.12144 0.45004 0.77359 0.0
H549 H 0.01768 0.42168 0.80506 0.0
H550 H 0.06038 0.4724 0.7754 0.0
H551 H 0.07563 0.32303 0.77244 0.0
H552 H 0.25543 0.41488 0.72999 0.0
H553 H 0.12487 0.30708 0.74732 0.0
H554 H 0.2939 0.39613 0.75764 0.0
O555 O 0.05439 0.3868 0.74817 0.0
H556 H 0.09483 0.46596 0.6987 0.0
H557 H 0.99377 0.44304 0.75286 0.0
H558 H 0.96903 0.45972 0.72 0.0
H559 H 0.01977 0.47134 0.69264 0.0
H560 H 0.11813 0.44903 0.73167 0.0
H561 H 0.01615 0.49133 0.79989 0.0
H562 H 0.97177 0.47515 0.82725 0.0
O563 O 0.03074 0.41268 0.76554 0.0
C564 C 0.10616 0.3995 0.79842 0.0
C565 C 0.99182 0.44727 0.81786 0.0
C566 C 0.01624 0.47605 0.80112 0.0
N567 N 0.04137 0.44595 0.7887 0.0
C568 C 0.01724 0.43694 0.80379 0.0
C569 C 0.0413 0.46526 0.78733 0.0
C570 C 0.99134 0.46696 0.81646 0.0
C571 C 0.19626 0.40313 0.73898 0.0
N572 N 0.17543 0.391 0.75244 0.0
C573 C 0.23913 0.40517 0.74062 0.0
C574 C 0.26068 0.39468 0.75617 0.0
C575 C 0.23923 0.38232 0.76983 0.0
C576 C 0.19635 0.38067 0.76775 0.0
C577 C 0.14862 0.33322 0.73437 0.0
C578 C 0.09392 0.35106 0.76242 0.0
C579 C 0.14605 0.35294 0.73526 0.0
N580 N 0.11912 0.3616 0.74926 0.0
C581 C 0.09562 0.33131 0.76196 0.0
C582 C 0.12322 0.32237 0.74784 0.0
C583 C 0.02515 0.39677 0.75617 0.0
C584 C 0.07242 0.46097 0.7105 0.0
C585 C 0.01597 0.44791 0.74096 0.0
C586 C 0.00182 0.45743 0.72243 0.0
C587 C 0.0303 0.46397 0.7071 0.0
N588 N 0.05731 0.44499 0.74418 0.0
C589 C 0.08542 0.45142 0.72925 0.0
Co590 Co 0.13973 0.39042 0.49917 0.0
Co591 Co 0.17955 0.43248 0.47994 0.0
O592 O 0.14436 0.41787 0.49951 0.0
C593 C 0.16234 0.39912 0.54478 0.0
O594 O 0.19447 0.40833 0.53708 0.0
C595 C 0.0964 0.44848 0.4753 0.0
O596 O 0.08319 0.43117 0.47181 0.0
O597 O 0.1575 0.4188 0.45394 0.0
O598 O 0.14136 0.38985 0.46658 0.0
H599 H 0.27945 0.44183 0.41802 0.0
H600 H 0.07864 0.41334 0.52384 0.0
O601 O 0.13759 0.39068 0.53184 0.0
H602 H 0.99695 0.37759 0.46975 0.0
H603 H 0.08391 0.32793 0.52549 0.0
H604 H 0.17998 0.35937 0.47449 0.0
H605 H 0.07261 0.37352 0.47196 0.0
H606 H 0.08983 0.36275 0.5248 0.0
O607 O 0.13486 0.45172 0.47748 0.0
H608 H 0.23567 0.42329 0.44317 0.0
H609 H 0.19651 0.47373 0.47472 0.0
H610 H 0.17482 0.32453 0.47451 0.0
H611 H 0.00303 0.41774 0.52229 0.0
H612 H 0.12649 0.30859 0.50015 0.0
H613 H 0.96167 0.39983 0.49505 0.0
O614 O 0.20101 0.38767 0.49996 0.0
H615 H 0.16824 0.46622 0.55196 0.0
H616 H 0.26404 0.44327 0.49522 0.0
H617 H 0.29202 0.45914 0.5279 0.0
H618 H 0.24394 0.47077 0.55655 0.0
H619 H 0.14167 0.4501 0.51913 0.0
H620 H 0.2396 0.49283 0.44981 0.0
H621 H 0.2816 0.47686 0.42127 0.0
O622 O 0.22491 0.41357 0.48264 0.0
C623 C 0.14632 0.40165 0.45102 0.0
C624 C 0.2614 0.44895 0.43044 0.0
C625 C 0.23898 0.47757 0.44825 0.0
N626 N 0.21384 0.44741 0.46049 0.0
C627 C 0.23665 0.43852 0.44475 0.0
C628 C 0.21456 0.46669 0.46227 0.0
C629 C 0.26255 0.4686 0.43225 0.0
C630 C 0.06082 0.40533 0.5121 0.0
N631 N 0.08001 0.3931 0.4981 0.0
C632 C 0.01802 0.40795 0.51124 0.0
C633 C 0.99485 0.39792 0.49593 0.0
C634 C 0.01463 0.38546 0.48171 0.0
C635 C 0.0575 0.38323 0.48301 0.0
C636 C 0.10502 0.33472 0.51421 0.0
C637 C 0.15871 0.35253 0.4856 0.0
C638 C 0.10856 0.35441 0.51378 0.0
N639 N 0.13498 0.36307 0.49949 0.0
C640 C 0.156 0.3328 0.48558 0.0
C641 C 0.12891 0.32387 0.49999 0.0
C642 C 0.23023 0.39746 0.49162 0.0
C643 C 0.18951 0.46123 0.53959 0.0
C644 C 0.24298 0.44817 0.50767 0.0
C645 C 0.25897 0.45722 0.52611 0.0
C646 C 0.23198 0.46376 0.54216 0.0
N647 N 0.20129 0.44571 0.50526 0.0
C648 C 0.17464 0.45214 0.52092 0.0
Co649 Co 0.10567 0.85963 0.49965 0.0
Co650 Co 0.06661 0.81706 0.48154 0.0
O651 O 0.1017 0.83216 0.50064 0.0
C652 C 0.08368 0.85137 0.54535 0.0
O653 O 0.0518 0.84189 0.5378 0.0
C654 C 0.15 0.80113 0.47696 0.0
O655 O 0.16324 0.81842 0.47334 0.0
O656 O 0.08825 0.83034 0.4552 0.0
O657 O 0.10379 0.85961 0.46707 0.0
H658 H 0.96654 0.80622 0.42003 0.0
H659 H 0.16749 0.83743 0.52471 0.0
O660 O 0.10804 0.8599 0.5323 0.0
H661 H 0.24792 0.87265 0.46965 0.0
H662 H 0.16025 0.9228 0.52447 0.0
H663 H 0.06461 0.89007 0.47433 0.0
H664 H 0.17218 0.87637 0.47192 0.0
H665 H 0.15509 0.88795 0.52457 0.0
O666 O 0.11158 0.79793 0.47938 0.0
H667 H 0.01016 0.82537 0.44464 0.0
H668 H 0.05021 0.77567 0.47741 0.0
H669 H 0.069 0.92493 0.47357 0.0
H670 H 0.24319 0.83339 0.52311 0.0
H671 H 0.11712 0.94151 0.49877 0.0
H672 H 0.28392 0.85104 0.49538 0.0
O673 O 0.04432 0.86215 0.5005 0.0
H674 H 0.07921 0.78472 0.55435 0.0
H675 H 0.98244 0.80626 0.49733 0.0
H676 H 0.95507 0.79094 0.53049 0.0
H677 H 0.00363 0.78002 0.55929 0.0
H678 H 0.10518 0.80028 0.52102 0.0
H679 H 0.00729 0.75596 0.45305 0.0
H680 H 0.96493 0.77125 0.42417 0.0
O681 O 0.02092 0.83583 0.48387 0.0
C682 C 0.09902 0.84748 0.45183 0.0
C683 C 0.98476 0.79939 0.4326 0.0
C684 C 0.00768 0.77119 0.45111 0.0
N685 N 0.03242 0.80165 0.46254 0.0
C686 C 0.00941 0.81017 0.44661 0.0
C687 C 0.032 0.78241 0.46481 0.0
C688 C 0.9839 0.77977 0.43491 0.0
C689 C 0.18503 0.84532 0.51276 0.0
N690 N 0.16544 0.85721 0.49851 0.0
C691 C 0.22788 0.84291 0.51186 0.0
C692 C 0.2507 0.85279 0.49628 0.0
C693 C 0.23052 0.8649 0.48182 0.0
C694 C 0.18761 0.86693 0.48316 0.0
C695 C 0.13924 0.91573 0.51338 0.0
C696 C 0.08579 0.89719 0.48526 0.0
C697 C 0.13612 0.89602 0.51339 0.0
N698 N 0.10982 0.887 0.49934 0.0
C699 C 0.08806 0.91693 0.48479 0.0
C700 C 0.11503 0.92622 0.49895 0.0
C701 C 0.01527 0.85208 0.49244 0.0
C702 C 0.05774 0.7894 0.54191 0.0
C703 C 0.00372 0.80167 0.50983 0.0
C704 C 0.98806 0.79293 0.52854 0.0
C705 C 0.01533 0.78679 0.54469 0.0
N706 N 0.04534 0.80421 0.50723 0.0
C707 C 0.07226 0.79817 0.52296 0.0
Co708 Co 0.8563 0.14025 0.24894 0.0
Co709 Co 0.81837 0.18274 0.22957 0.0
O710 O 0.85432 0.16789 0.24866 0.0
C711 C 0.84047 0.15124 0.29459 0.0
O712 O 0.813 0.16322 0.28699 0.0
C713 C 0.90222 0.19832 0.22327 0.0
O714 O 0.91595 0.18093 0.22124 0.0
O715 O 0.83745 0.16833 0.20346 0.0
O716 O 0.85203 0.1393 0.21638 0.0
H717 H 0.71425 0.19225 0.16966 0.0
H718 H 0.92133 0.16208 0.272 0.0
O719 O 0.86057 0.1406 0.28159 0.0
H720 H 0.99532 0.12426 0.21674 0.0
H721 H 0.90812 0.07701 0.27511 0.0
H722 H 0.81108 0.10975 0.22577 0.0
H723 H 0.91954 0.12181 0.22052 0.0
H724 H 0.90561 0.1119 0.27389 0.0
O725 O 0.86373 0.20146 0.22542 0.0
H726 H 0.75895 0.17363 0.19425 0.0
H727 H 0.80315 0.22412 0.22382 0.0
H728 H 0.81277 0.07485 0.22636 0.0
H729 H 0.99716 0.16487 0.2689 0.0
H730 H 0.86157 0.05825 0.25116 0.0
H731 H 0.03465 0.1459 0.24107 0.0
O732 O 0.79508 0.13869 0.25128 0.0
H733 H 0.83843 0.21837 0.29983 0.0
H734 H 0.73599 0.19479 0.24676 0.0
H735 H 0.7121 0.21189 0.27951 0.0
H736 H 0.76353 0.22385 0.30632 0.0
H737 H 0.86088 0.20097 0.26703 0.0
H738 H 0.75919 0.24328 0.19944 0.0
H739 H 0.71419 0.22734 0.17218 0.0
O740 O 0.77185 0.16456 0.23379 0.0
C741 C 0.84683 0.15094 0.20067 0.0
C742 C 0.73362 0.19936 0.18152 0.0
C743 C 0.75889 0.228 0.19821 0.0
N744 N 0.78338 0.19777 0.21056 0.0
C745 C 0.7589 0.18889 0.19552 0.0
C746 C 0.78379 0.21708 0.21193 0.0
C747 C 0.73363 0.21905 0.18292 0.0
C748 C 0.93747 0.15363 0.26001 0.0
N749 N 0.91606 0.14173 0.24654 0.0
C750 C 0.98039 0.15533 0.25827 0.0
C751 C 0.00139 0.14472 0.24262 0.0
C752 C 0.97934 0.13258 0.22895 0.0
C753 C 0.93642 0.13128 0.23113 0.0
C754 C 0.88679 0.08408 0.2642 0.0
C755 C 0.83258 0.10262 0.23651 0.0
C756 C 0.88518 0.10382 0.26346 0.0
N757 N 0.85847 0.11283 0.24964 0.0
C758 C 0.83331 0.08286 0.23682 0.0
C759 C 0.86067 0.07356 0.25075 0.0
C760 C 0.766 0.14875 0.24335 0.0
C761 C 0.81572 0.21325 0.28827 0.0
C762 C 0.7585 0.19978 0.25843 0.0
C763 C 0.74482 0.20955 0.2769 0.0
C764 C 0.77369 0.21628 0.29191 0.0
N765 N 0.79975 0.1968 0.25499 0.0
C766 C 0.82825 0.20345 0.2696 0.0
Co767 Co 0.88799 0.6075 0.25011 0.0
Co768 Co 0.92627 0.56521 0.23035 0.0
O769 O 0.89048 0.57988 0.24969 0.0
C770 C 0.90521 0.59632 0.29552 0.0
O771 O 0.93289 0.58461 0.28758 0.0
C772 C 0.84252 0.54945 0.22443 0.0
O773 O 0.82865 0.56683 0.22242 0.0
O774 O 0.90646 0.57966 0.20442 0.0
O775 O 0.8915 0.60859 0.21752 0.0
H776 H 0.02931 0.55622 0.16982 0.0
H777 H 0.82392 0.58531 0.27347 0.0
O778 O 0.88449 0.60696 0.28279 0.0
H779 H 0.74794 0.62305 0.2189 0.0
H780 H 0.83561 0.67041 0.277 0.0
H781 H 0.93204 0.63828 0.22681 0.0
H782 H 0.82375 0.6258 0.2222 0.0
H783 H 0.83877 0.63554 0.27556 0.0
O784 O 0.88107 0.54637 0.2264 0.0
H785 H 0.98484 0.57462 0.19473 0.0
H786 H 0.94197 0.52391 0.22434 0.0
H787 H 0.92968 0.67317 0.2276 0.0
H788 H 0.74807 0.58223 0.27083 0.0
H789 H 0.88119 0.68946 0.25283 0.0
H790 H 0.70959 0.60115 0.24335 0.0
O791 O 0.94922 0.6093 0.25206 0.0
H792 H 0.90823 0.52926 0.30055 0.0
H793 H 0.00919 0.55344 0.24705 0.0
H794 H 0.03403 0.53632 0.27958 0.0
H795 H 0.98335 0.52406 0.3066 0.0
H796 H 0.88482 0.5467 0.26796 0.0
H797 H 0.98573 0.50495 0.19964 0.0
H798 H 0.02994 0.52112 0.17219 0.0
O799 O 0.97259 0.58354 0.23438 0.0
C800 C 0.89668 0.59702 0.20175 0.0
C801 C 0.01029 0.54901 0.18176 0.0
C802 C 0.98578 0.52024 0.19847 0.0
N803 N 0.9611 0.55036 0.21108 0.0
C804 C 0.98514 0.55936 0.19594 0.0
C805 C 0.96099 0.53105 0.21238 0.0
C806 C 0.01059 0.52932 0.18308 0.0
C807 C 0.80734 0.59374 0.26163 0.0
N808 N 0.82821 0.60579 0.2481 0.0
C809 C 0.76441 0.59187 0.26015 0.0
C810 C 0.74285 0.60247 0.24469 0.0
C811 C 0.76435 0.61475 0.23096 0.0
C812 C 0.80729 0.61621 0.23288 0.0
C813 C 0.8568 0.66348 0.2659 0.0
C814 C 0.91068 0.64527 0.23773 0.0
C815 C 0.85878 0.64375 0.26504 0.0
N816 N 0.88532 0.6349 0.25098 0.0
C817 C 0.90956 0.66503 0.23815 0.0
C818 C 0.88238 0.67416 0.25233 0.0
C819 C 0.97833 0.59937 0.24393 0.0
C820 C 0.93062 0.53451 0.28888 0.0
C821 C 0.987 0.54831 0.25881 0.0
C822 C 0.00122 0.53853 0.27715 0.0
C823 C 0.97277 0.53163 0.29229 0.0
N824 N 0.94563 0.55114 0.2556 0.0
C825 C 0.91754 0.54434 0.27033 0.0
Co826 Co 0.85722 0.6079 0.50048 0.0
Co827 Co 0.81992 0.56507 0.51932 0.0
O828 O 0.85492 0.5803 0.50016 0.0
C829 C 0.83816 0.59749 0.45501 0.0
O830 O 0.81101 0.58553 0.46297 0.0
C831 C 0.90428 0.55042 0.52497 0.0
O832 O 0.91654 0.56795 0.52789 0.0
O833 O 0.83937 0.57922 0.54552 0.0
O834 O 0.85542 0.60826 0.53311 0.0
H835 H 0.71774 0.55417 0.57985 0.0
H836 H 0.92019 0.58617 0.47577 0.0
O837 O 0.85913 0.60803 0.46776 0.0
H838 H -0.00129 0.62306 0.53014 0.0
H839 H 0.90772 0.67147 0.47462 0.0
H840 H 0.81431 0.63807 0.52533 0.0
H841 H 0.92277 0.62584 0.52787 0.0
H842 H 0.90484 0.63657 0.4751 0.0
O843 O 0.86605 0.54668 0.52271 0.0
H844 H 0.76118 0.57338 0.55521 0.0
H845 H 0.80621 0.52356 0.52456 0.0
H846 H 0.81643 0.67298 0.52552 0.0
H847 H 0.99612 0.58305 0.47739 0.0
H848 H 0.86341 0.6899 0.50003 0.0
H849 H 0.03588 0.60154 0.50476 0.0
O850 O 0.79588 0.60961 0.49944 0.0
H851 H 0.83857 0.53032 0.44836 0.0
H852 H 0.73731 0.55292 0.5026 0.0
H853 H 0.71275 0.53608 0.4698 0.0
H854 H 0.76359 0.52461 0.44241 0.0
H855 H 0.86169 0.54746 0.48123 0.0
H856 H 0.76352 0.5038 0.54897 0.0
H857 H 0.71875 0.51912 0.5768 0.0
O858 O 0.77298 0.58308 0.51579 0.0
C859 C 0.85007 0.59641 0.54859 0.0
C860 C 0.73701 0.54733 0.56774 0.0
C861 C 0.76276 0.51906 0.55043 0.0
N862 N 0.78592 0.54961 0.53836 0.0
C863 C 0.76158 0.55814 0.55371 0.0
C864 C 0.78694 0.53032 0.53669 0.0
C865 C 0.73763 0.52767 0.56603 0.0
C866 C 0.93732 0.59442 0.48757 0.0
N867 N 0.91709 0.60625 0.50161 0.0
C868 C 0.98029 0.59253 0.48847 0.0
C869 C 0.00257 0.60288 0.50386 0.0
C870 C 0.98173 0.61495 0.51812 0.0
C871 C 0.93872 0.61644 0.51678 0.0
C872 C 0.88719 0.66425 0.48583 0.0
C873 C 0.83501 0.64534 0.51429 0.0
C874 C 0.88537 0.64451 0.48615 0.0
N875 N 0.85967 0.63531 0.50035 0.0
C876 C 0.83599 0.6651 0.51443 0.0
C877 C 0.86233 0.67459 0.5001 0.0
C878 C 0.76698 0.59925 0.50709 0.0
C879 C 0.81612 0.53522 0.46019 0.0
C880 C 0.75955 0.54813 0.49068 0.0
C881 C 0.7455 0.53851 0.47218 0.0
C882 C 0.77404 0.53205 0.45684 0.0
N883 N 0.80085 0.55123 0.49383 0.0
C884 C 0.82903 0.54487 0.47889 0.0
Co885 Co 0.89157 0.13417 0.49898 0.0
Co886 Co 0.92219 0.1763 0.52138 0.0
O887 O 0.89086 0.16177 0.49988 0.0
C888 C 0.9088 0.14634 0.4539 0.0
O889 O 0.93559 0.15829 0.46222 0.0
C890 C 0.83828 0.19219 0.52207 0.0
O891 O 0.8243 0.17485 0.52432 0.0
O892 O 0.89558 0.16204 0.54546 0.0
O893 O 0.8943 0.13255 0.53178 0.0
H894 H 0.00858 0.18509 0.58884 0.0
H895 H 0.82528 0.15492 0.47565 0.0
O896 O 0.88869 0.13517 0.46629 0.0
H897 H 0.75301 0.1141 0.52868 0.0
H898 H 0.84814 0.07036 0.47047 0.0
H899 H 0.93904 0.10431 0.52195 0.0
H900 H 0.82913 0.11358 0.52596 0.0
H901 H 0.84679 0.10522 0.47258 0.0
O902 O 0.87697 0.19536 0.52191 0.0
H903 H 0.97039 0.16678 0.56109 0.0
H904 H 0.93784 0.21749 0.52807 0.0
H905 H 0.94115 0.06943 0.52052 0.0
H906 H 0.7491 0.15577 0.47769 0.0
H907 H 0.89545 0.05222 0.49464 0.0
H908 H 0.71247 0.13529 0.5044 0.0
O909 O 0.9529 0.13438 0.49735 0.0
H910 H 0.92416 0.2129 0.45097 0.0
H911 H 0.00942 0.1864 0.51033 0.0
H912 H 0.04324 0.20331 0.47997 0.0
H913 H 0.00052 0.21675 0.45004 0.0
H914 H 0.89163 0.19566 0.48146 0.0
H915 H 0.97546 0.23637 0.55554 0.0
H916 H 0.0113 0.22015 0.58615 0.0
O917 O 0.96851 0.15763 0.52098 0.0
C918 C 0.8917 0.14418 0.54773 0.0
C919 C 0.99321 0.19232 0.57554 0.0
C920 C 0.97458 0.2211 0.55686 0.0
N921 N 0.95222 0.19104 0.54288 0.0
C922 C 0.97164 0.18202 0.55974 0.0
C923 C 0.95326 0.21034 0.54138 0.0
C924 C 0.99469 0.21199 0.57403 0.0
C925 C 0.80954 0.14582 0.48715 0.0
N926 N 0.83162 0.13415 0.50059 0.0
C927 C 0.76641 0.14642 0.4883 0.0
C928 C 0.74589 0.13496 0.50332 0.0
C929 C 0.76862 0.12308 0.51696 0.0
C930 C 0.81172 0.12288 0.51539 0.0
C931 C 0.86814 0.07769 0.48185 0.0
C932 C 0.91889 0.09691 0.51075 0.0
C933 C 0.86757 0.09743 0.48309 0.0
N934 N 0.89256 0.10676 0.49751 0.0
C935 C 0.9203 0.07717 0.50996 0.0
C936 C 0.89468 0.06752 0.49542 0.0
C937 C 0.97853 0.14355 0.5091 0.0
C938 C 0.94309 0.20717 0.46396 0.0
C939 C 0.9906 0.19211 0.49732 0.0
C940 C 0.00993 0.20174 0.4802 0.0
C941 C 0.98594 0.20929 0.46342 0.0
N942 N 0.94855 0.19008 0.49772 0.0
C943 C 0.92483 0.19748 0.48134 0.0
Co944 Co 0.64319 0.36063 0.74934 0.0
Co945 Co 0.67814 0.31787 0.76946 0.0
O946 O 0.64339 0.333 0.75009 0.0
C947 C 0.65902 0.34864 0.70405 0.0
O948 O 0.68579 0.33655 0.71209 0.0
C949 C 0.59317 0.30408 0.77614 0.0
O950 O 0.58135 0.32175 0.77828 0.0
O951 O 0.66017 0.33294 0.79523 0.0
O952 O 0.64692 0.36198 0.78193 0.0
H953 H 0.78145 0.30751 0.82956 0.0
H954 H 0.5772 0.33928 0.72643 0.0
O955 O 0.63942 0.35982 0.71667 0.0
H956 H 0.50472 0.37888 0.78057 0.0
H957 H 0.59593 0.42414 0.7217 0.0
H958 H 0.68986 0.39084 0.7722 0.0
H959 H 0.58067 0.38035 0.77705 0.0
H960 H 0.59622 0.38926 0.72358 0.0
O961 O 0.63126 0.30007 0.77391 0.0
H962 H 0.73828 0.3265 0.80459 0.0
H963 H 0.68991 0.27637 0.77607 0.0
H964 H 0.69038 0.42575 0.77097 0.0
H965 H 0.50119 0.33746 0.7293 0.0
H966 H 0.64314 0.44262 0.74558 0.0
H967 H 0.46446 0.35733 0.75657 0.0
O968 O 0.70452 0.36133 0.74727 0.0
H969 H 0.65539 0.28148 0.69994 0.0
H970 H 0.75953 0.30426 0.75254 0.0
H971 H 0.78212 0.28627 0.72018 0.0
H972 H 0.72983 0.2747 0.69362 0.0
H973 H 0.63427 0.29977 0.73235 0.0
H974 H 0.7323 0.25683 0.80084 0.0
H975 H 0.77861 0.27241 0.82777 0.0
O976 O 0.72598 0.3352 0.7649 0.0
C977 C 0.65145 0.35042 0.79778 0.0
C978 C 0.7615 0.30056 0.81785 0.0
C979 C 0.73386 0.27211 0.80175 0.0
N980 N 0.71188 0.30256 0.78878 0.0
C981 C 0.73707 0.31124 0.80363 0.0
C982 C 0.70986 0.28325 0.7878 0.0
C983 C 0.75985 0.28087 0.81685 0.0
C984 C 0.5614 0.34812 0.73817 0.0
N985 N 0.58333 0.35998 0.75146 0.0
C986 C 0.51837 0.34697 0.73979 0.0
C987 C 0.49779 0.35809 0.75512 0.0
C988 C 0.52037 0.37017 0.7686 0.0
C989 C 0.56337 0.37092 0.76657 0.0
C990 C 0.61659 0.41695 0.73286 0.0
C991 C 0.66904 0.3981 0.76121 0.0
C992 C 0.61694 0.39721 0.73397 0.0
N993 N 0.64279 0.38805 0.74812 0.0
C994 C 0.66956 0.41786 0.76054 0.0
C995 C 0.64308 0.42731 0.74627 0.0
C996 C 0.73289 0.35086 0.75523 0.0
C997 C 0.67847 0.28642 0.71141 0.0
C998 C 0.73667 0.29944 0.74097 0.0
C999 C 0.7496 0.28917 0.72273 0.0
C1000 C 0.72024 0.28265 0.70785 0.0
N1001 N 0.69566 0.30314 0.74433 0.0
C1002 C 0.66669 0.29672 0.72985 0.0
Co1003 Co 0.60155 0.89161 0.74826 0.0
Co1004 Co 0.56604 0.93443 0.76795 0.0
O1005 O 0.60017 0.91922 0.74834 0.0
C1006 C 0.58283 0.90255 0.70291 0.0
O1007 O 0.55624 0.91474 0.71091 0.0
C1008 C 0.65088 0.94855 0.77327 0.0
O1009 O 0.66263 0.93093 0.77598 0.0
O1010 O 0.58581 0.91991 0.79383 0.0
O1011 O 0.60001 0.89088 0.78084 0.0
H1012 H 0.46559 0.94521 0.8293 0.0
H1013 H 0.66511 0.91318 0.72376 0.0
O1014 O 0.6033 0.89177 0.71559 0.0
H1015 H 0.7427 0.87516 0.77744 0.0
H1016 H 0.64975 0.82796 0.72147 0.0
H1017 H 0.55765 0.86148 0.77272 0.0
H1018 H 0.66667 0.87291 0.77525 0.0
H1019 H 0.6481 0.86287 0.72244 0.0
O1020 O 0.61274 0.95255 0.77126 0.0
H1021 H 0.50796 0.92604 0.80412 0.0
H1022 H 0.55358 0.97596 0.77387 0.0
H1023 H 0.55855 0.82656 0.77243 0.0
H1024 H 0.74114 0.91578 0.72529 0.0
H1025 H 0.60486 0.80958 0.74667 0.0
H1026 H 0.78045 0.89671 0.75232 0.0
O1027 O 0.54017 0.89037 0.74729 0.0
H1028 H 0.58378 0.96982 0.69734 0.0
H1029 H 0.48333 0.94718 0.752 0.0
H1030 H 0.45838 0.96448 0.71961 0.0
H1031 H 0.50881 0.97597 0.69202 0.0
H1032 H 0.60729 0.95223 0.72981 0.0
H1033 H 0.51197 0.99567 0.79883 0.0
H1034 H 0.46744 0.98029 0.82673 0.0
O1035 O 0.51851 0.91671 0.7645 0.0
C1036 C 0.59574 0.90259 0.79654 0.0
C1037 C 0.48476 0.95208 0.81717 0.0
C1038 C 0.51084 0.9804 0.80009 0.0
N1039 N 0.53293 0.94987 0.78744 0.0
C1040 C 0.50872 0.9413 0.80283 0.0
C1041 C 0.53441 0.96916 0.78603 0.0
C1042 C 0.48585 0.97176 0.81573 0.0
C1043 C 0.68203 0.90468 0.7354 0.0
N1044 N 0.66149 0.89282 0.74931 0.0
C1045 C 0.72507 0.90627 0.73626 0.0
C1046 C 0.74709 0.8956 0.75146 0.0
C1047 C 0.72593 0.88352 0.76557 0.0
C1048 C 0.68286 0.88232 0.76428 0.0
C1049 C 0.6295 0.8352 0.7328 0.0
C1050 C 0.57806 0.85418 0.76156 0.0
C1051 C 0.62837 0.85496 0.73339 0.0
N1052 N 0.60304 0.86418 0.74774 0.0
C1053 C 0.57835 0.83441 0.76142 0.0
C1054 C 0.60431 0.8249 0.74695 0.0
C1055 C 0.51178 0.90077 0.75537 0.0
C1056 C 0.5615 0.96491 0.70926 0.0
C1057 C 0.50539 0.95198 0.73998 0.0
C1058 C 0.49112 0.96186 0.72172 0.0
C1059 C 0.51943 0.96833 0.70627 0.0
N1060 N 0.54669 0.94863 0.74279 0.0
C1061 C 0.57464 0.955 0.72774 0.0
Co1062 Co 0.63441 0.89171 0.49856 0.0
Co1063 Co 0.67127 0.93432 0.47887 0.0
O1064 O 0.63622 0.91934 0.49828 0.0
C1065 C 0.65258 0.90292 0.54384 0.0
O1066 O 0.67977 0.9148 0.53575 0.0
C1067 C 0.58692 0.94923 0.47295 0.0
O1068 O 0.57377 0.93173 0.47099 0.0
O1069 O 0.65181 0.91977 0.45299 0.0
O1070 O 0.63671 0.89081 0.46598 0.0
H1071 H 0.77356 0.94425 0.41817 0.0
H1072 H 0.57064 0.91356 0.52257 0.0
O1073 O 0.63196 0.89212 0.53123 0.0
H1074 H 0.49364 0.87549 0.46868 0.0
H1075 H 0.58454 0.82841 0.52562 0.0
H1076 H 0.6782 0.86128 0.47458 0.0
H1077 H 0.56961 0.87312 0.47126 0.0
H1078 H 0.58684 0.8633 0.52437 0.0
O1079 O 0.62531 0.95269 0.47498 0.0
H1080 H 0.72999 0.92544 0.44315 0.0
H1081 H 0.68522 0.97575 0.47285 0.0
H1082 H 0.67667 0.82637 0.47516 0.0
H1083 H 0.49467 0.91628 0.52065 0.0
H1084 H 0.62957 0.80971 0.50083 0.0
H1085 H 0.45566 0.89719 0.49351 0.0
O1086 O 0.69577 0.89021 0.49993 0.0
H1087 H 0.65221 0.97007 0.54912 0.0
H1088 H 0.75381 0.94681 0.49544 0.0
H1089 H 0.77815 0.96413 0.52795 0.0
H1090 H 0.72714 0.97593 0.55506 0.0
H1091 H 0.62931 0.95245 0.51655 0.0
H1092 H 0.72803 0.99511 0.44808 0.0
H1093 H 0.77274 0.97935 0.42056 0.0
O1094 O 0.71825 0.91642 0.48279 0.0
C1095 C 0.64162 0.90247 0.45027 0.0
C1096 C 0.75431 0.95128 0.43015 0.0
C1097 C 0.72871 0.97982 0.44691 0.0
N1098 N 0.70536 0.94948 0.45955 0.0
C1099 C 0.72967 0.94071 0.44437 0.0
C1100 C 0.70446 0.96879 0.46085 0.0
C1101 C 0.7538 0.97097 0.43148 0.0
C1102 C 0.55386 0.90506 0.51088 0.0
N1103 N 0.57453 0.89312 0.49713 0.0
C1104 C 0.51085 0.90672 0.5098 0.0
C1105 C 0.48899 0.89603 0.49454 0.0
C1106 C 0.51029 0.88387 0.48059 0.0
C1107 C 0.55332 0.88261 0.4821 0.0
C1108 C 0.60513 0.8355 0.51434 0.0
C1109 C 0.65744 0.85412 0.48569 0.0
C1110 C 0.60663 0.85525 0.51358 0.0
N1111 N 0.63239 0.8643 0.49929 0.0
C1112 C 0.6568 0.83436 0.48599 0.0
C1113 C 0.63039 0.82502 0.50041 0.0
C1114 C 0.72452 0.90049 0.49198 0.0
C1115 C 0.67474 0.96502 0.53742 0.0
C1116 C 0.73149 0.95174 0.50724 0.0
C1117 C 0.74542 0.96163 0.52557 0.0
C1118 C 0.71678 0.96827 0.54075 0.0
N1119 N 0.69022 0.94855 0.5041 0.0
C1120 C 0.66195 0.9551 0.51888 0.0
Co1121 Co 0.61006 0.35596 0.49918 0.0
Co1122 Co 0.57201 0.3135 0.47964 0.0
O1123 O 0.60745 0.32834 0.49902 0.0
C1124 C 0.59148 0.34515 0.54462 0.0
O1125 O 0.56424 0.33324 0.53665 0.0
C1126 C 0.65588 0.29819 0.47364 0.0
O1127 O 0.66921 0.31564 0.47146 0.0
O1128 O 0.59178 0.32788 0.45366 0.0
O1129 O 0.60785 0.35675 0.46659 0.0
H1130 H 0.46931 0.30398 0.41905 0.0
H1131 H 0.67309 0.3338 0.52333 0.0
O1132 O 0.6124 0.35572 0.53189 0.0
H1133 H 0.75135 0.37114 0.46927 0.0
H1134 H 0.66179 0.41906 0.52589 0.0
H1135 H 0.56716 0.38656 0.47503 0.0
H1136 H 0.67547 0.37405 0.47183 0.0
H1137 H 0.65846 0.38419 0.52483 0.0
O1138 O 0.61747 0.29486 0.47582 0.0
H1139 H 0.51343 0.32261 0.44394 0.0
H1140 H 0.557 0.27213 0.47375 0.0
H1141 H 0.56972 0.42146 0.47541 0.0
H1142 H 0.74897 0.33055 0.52143 0.0
H1143 H 0.61731 0.43793 0.50098 0.0
H1144 H 0.78861 0.34927 0.4942 0.0
O1145 O 0.54874 0.35783 0.5005 0.0
H1146 H 0.59019 0.27791 0.55007 0.0
H1147 H 0.48918 0.30145 0.49624 0.0
H1148 H 0.46442 0.28438 0.52883 0.0
H1149 H 0.51513 0.27244 0.55602 0.0
H1150 H 0.61352 0.29528 0.5174 0.0
H1151 H 0.51362 0.25295 0.44908 0.0
H1152 H 0.46923 0.26889 0.42154 0.0
O1153 O 0.52555 0.33167 0.48352 0.0
C1154 C 0.60249 0.34511 0.4509 0.0
C1155 C 0.48841 0.29687 0.43103 0.0
C1156 C 0.51333 0.26823 0.44786 0.0
N1157 N 0.5375 0.29847 0.46038 0.0
C1158 C 0.51336 0.30734 0.4452 0.0
C1159 C 0.53791 0.27916 0.46175 0.0
C1160 C 0.48842 0.27718 0.43242 0.0
C1161 C 0.69016 0.34214 0.5116 0.0
N1162 N 0.6699 0.35418 0.4978 0.0
C1163 C 0.73311 0.34018 0.51053 0.0
C1164 C 0.75532 0.35066 0.49522 0.0
C1165 C 0.73443 0.36292 0.48122 0.0
C1166 C 0.69145 0.36448 0.48272 0.0
C1167 C 0.64099 0.41205 0.51464 0.0
C1168 C 0.58812 0.39363 0.4861 0.0
C1169 C 0.63891 0.39231 0.514 0.0
N1170 N 0.61287 0.38336 0.49976 0.0
C1171 C 0.58936 0.41339 0.48629 0.0
C1172 C 0.61604 0.42263 0.50066 0.0
C1173 C 0.51972 0.34768 0.49262 0.0
C1174 C 0.56779 0.28302 0.53833 0.0
C1175 C 0.51137 0.29646 0.50808 0.0
C1176 C 0.4972 0.28671 0.52645 0.0
C1177 C 0.52567 0.27999 0.54168 0.0
N1178 N 0.55272 0.29944 0.50493 0.0
C1179 C 0.58082 0.29281 0.51975 0.0
Co1180 Co 0.36037 0.64039 0.24884 0.0
Co1181 Co 0.31923 0.68228 0.22993 0.0
O1182 O 0.35579 0.66786 0.24896 0.0
C1183 C 0.34054 0.64955 0.29452 0.0
O1184 O 0.30827 0.65882 0.28711 0.0
C1185 C 0.40193 0.6989 0.22389 0.0
O1186 O 0.41601 0.68168 0.2208 0.0
O1187 O 0.33984 0.66846 0.2037 0.0
O1188 O 0.35638 0.63956 0.21636 0.0
H1189 H 0.21559 0.69093 0.16961 0.0
H1190 H 0.42311 0.66343 0.27221 0.0
O1191 O 0.36458 0.64092 0.28141 0.0
H1192 H 0.50103 0.62743 0.21684 0.0
H1193 H 0.4181 0.57818 0.27479 0.0
H1194 H 0.31841 0.60909 0.22535 0.0
H1195 H 0.42554 0.6234 0.22047 0.0
H1196 H 0.41209 0.61298 0.27378 0.0
O1197 O 0.3634 0.70172 0.22649 0.0
H1198 H 0.26113 0.67269 0.19416 0.0
H1199 H 0.30124 0.72345 0.22472 0.0
H1200 H 0.3236 0.57426 0.22572 0.0
H1201 H 0.4986 0.66778 0.26924 0.0
H1202 H 0.37375 0.55858 0.25057 0.0
H1203 H 0.53806 0.64975 0.24135 0.0
O1204 O 0.2992 0.63756 0.25078 0.0
H1205 H 0.33475 0.71648 0.30144 0.0
H1206 H 0.23563 0.69301 0.24659 0.0
H1207 H 0.20959 0.70901 0.27962 0.0
H1208 H 0.25934 0.7209 0.30733 0.0
H1209 H 0.35937 0.70022 0.26828 0.0
H1210 H 0.25639 0.74225 0.20039 0.0
H1211 H 0.21303 0.72597 0.17266 0.0
O1212 O 0.27419 0.66327 0.23356 0.0
C1213 C 0.3504 0.65123 0.20078 0.0
C1214 C 0.23424 0.69818 0.18168 0.0
C1215 C 0.25719 0.72699 0.19893 0.0
N1216 N 0.28355 0.69698 0.21095 0.0
C1217 C 0.25998 0.68793 0.19566 0.0
C1218 C 0.2826 0.71627 0.21262 0.0
C1219 C 0.23285 0.71784 0.18338 0.0
C1220 C 0.44012 0.65537 0.26019 0.0
N1221 N 0.41996 0.6431 0.24662 0.0
C1222 C 0.48284 0.65796 0.25853 0.0
C1223 C 0.50495 0.64786 0.24284 0.0
C1224 C 0.48418 0.63535 0.22907 0.0
C1225 C 0.44142 0.63316 0.23118 0.0
C1226 C 0.3962 0.58485 0.26386 0.0
C1227 C 0.34048 0.60237 0.23611 0.0
C1228 C 0.39261 0.60454 0.26324 0.0
N1229 N 0.36519 0.61305 0.24938 0.0
C1230 C 0.3432 0.58264 0.23629 0.0
C1231 C 0.37132 0.57386 0.25026 0.0
C1232 C 0.26946 0.64722 0.24278 0.0
C1233 C 0.31276 0.71137 0.28948 0.0
C1234 C 0.25742 0.69801 0.25862 0.0
C1235 C 0.24252 0.70714 0.27726 0.0
C1236 C 0.27045 0.71383 0.29279 0.0
N1237 N 0.29895 0.69563 0.2555 0.0
C1238 C 0.32652 0.7022 0.27063 0.0
Co1239 Co 0.38326 0.10915 0.24864 0.0
Co1240 Co 0.42375 0.06737 0.22908 0.0
O1241 O 0.38744 0.08167 0.2484 0.0
C1242 C 0.40259 0.09961 0.29433 0.0
O1243 O 0.4348 0.09026 0.28698 0.0
C1244 C 0.34086 0.05088 0.22314 0.0
O1245 O 0.32677 0.06813 0.22029 0.0
O1246 O 0.40302 0.08146 0.20307 0.0
O1247 O 0.38742 0.11031 0.21619 0.0
H1248 H 0.52688 0.05916 0.16845 0.0
H1249 H 0.32002 0.08611 0.27162 0.0
O1250 O 0.37882 0.10836 0.28119 0.0
H1251 H 0.24298 0.12292 0.21661 0.0
H1252 H 0.32637 0.17131 0.27529 0.0
H1253 H 0.42587 0.14054 0.22564 0.0
H1254 H 0.31851 0.12664 0.22039 0.0
H1255 H 0.33182 0.1365 0.27385 0.0
O1256 O 0.37943 0.04803 0.2255 0.0
H1257 H 0.48167 0.07722 0.19333 0.0
H1258 H 0.44136 0.02622 0.22327 0.0
H1259 H 0.42125 0.17538 0.22644 0.0
H1260 H 0.24448 0.08206 0.2685 0.0
H1261 H 0.37119 0.19099 0.2514 0.0
H1262 H 0.20546 0.1005 0.2408 0.0
O1263 O 0.44447 0.11174 0.25073 0.0
H1264 H 0.40851 0.03247 0.30016 0.0
H1265 H 0.50738 0.05627 0.24538 0.0
H1266 H 0.53354 0.03985 0.2781 0.0
H1267 H 0.48391 0.02778 0.30577 0.0
H1268 H 0.38376 0.04915 0.26731 0.0
H1269 H 0.48587 0.0076 0.19859 0.0
H1270 H 0.52917 0.02409 0.171 0.0
O1271 O 0.46897 0.08626 0.23287 0.0
C1272 C 0.39293 0.09879 0.20042 0.0
C1273 C 0.50826 0.05182 0.18045 0.0
C1274 C 0.48519 0.02287 0.19734 0.0
N1275 N 0.45916 0.05279 0.20983 0.0
C1276 C 0.48269 0.06197 0.19462 0.0
C1277 C 0.45996 0.03349 0.21123 0.0
C1278 C 0.50949 0.03214 0.18187 0.0
C1279 C 0.30321 0.09435 0.25969 0.0
N1280 N 0.32364 0.10668 0.24629 0.0
C1281 C 0.26045 0.09193 0.25793 0.0
C1282 C 0.23859 0.10225 0.24235 0.0
C1283 C 0.25963 0.11482 0.22877 0.0
C1284 C 0.30242 0.11684 0.23095 0.0
C1285 C 0.34823 0.16467 0.26431 0.0
C1286 C 0.40384 0.14723 0.23644 0.0
C1287 C 0.3515 0.14498 0.26345 0.0
N1288 N 0.37888 0.13651 0.24953 0.0
C1289 C 0.40144 0.16696 0.23687 0.0
C1290 C 0.37338 0.17571 0.2509 0.0
C1291 C 0.47401 0.10213 0.24246 0.0
C1292 C 0.43044 0.03765 0.28822 0.0
C1293 C 0.48565 0.05121 0.25741 0.0
C1294 C 0.50061 0.04184 0.27587 0.0
C1295 C 0.47275 0.03505 0.29137 0.0
N1296 N 0.44412 0.05373 0.25443 0.0
C1297 C 0.41661 0.04707 0.26954 0.0
Co1298 Co 0.36563 0.11512 0.49963 0.0
Co1299 Co 0.32725 0.07441 0.52201 0.0
O1300 O 0.36059 0.08772 0.50045 0.0
C1301 C 0.34294 0.10495 0.45453 0.0
O1302 O 0.31037 0.09634 0.46261 0.0
C1303 C 0.40828 0.056 0.52279 0.0
O1304 O 0.4241 0.07291 0.52588 0.0
O1305 O 0.35642 0.08762 0.5461 0.0
O1306 O 0.36375 0.11689 0.53232 0.0
H1307 H 0.24012 0.0685 0.58963 0.0
H1308 H 0.42689 0.09146 0.47606 0.0
O1309 O 0.36795 0.11368 0.46705 0.0
H1310 H 0.50825 0.12904 0.52861 0.0
H1311 H 0.42181 0.17661 0.47057 0.0
H1312 H 0.32517 0.14702 0.52273 0.0
H1313 H 0.43256 0.13291 0.52622 0.0
H1314 H 0.41573 0.14185 0.47283 0.0
O1315 O 0.36927 0.0538 0.52218 0.0
H1316 H 0.28103 0.0855 0.56186 0.0
H1317 H 0.30495 0.03388 0.52864 0.0
H1318 H 0.33051 0.18183 0.52114 0.0
H1319 H 0.50254 0.08727 0.47778 0.0
H1320 H 0.37912 0.19683 0.49492 0.0
H1321 H 0.54374 0.1061 0.50425 0.0
O1322 O 0.30441 0.11764 0.49854 0.0
H1323 H 0.31774 0.03924 0.45082 0.0
H1324 H 0.23844 0.06734 0.51149 0.0
H1325 H 0.20125 0.05218 0.481 0.0
H1326 H 0.24095 0.03796 0.45039 0.0
H1327 H 0.3537 0.0547 0.48153 0.0
H1328 H 0.26452 0.01629 0.55615 0.0
H1329 H 0.23164 0.03363 0.58687 0.0
O1330 O 0.2845 0.09476 0.52186 0.0
C1331 C 0.36392 0.10524 0.54829 0.0
C1332 C 0.25418 0.06079 0.57628 0.0
C1333 C 0.26792 0.03148 0.55751 0.0
N1334 N 0.29505 0.06071 0.54356 0.0
C1335 C 0.27728 0.07035 0.56047 0.0
C1336 C 0.29084 0.04151 0.54201 0.0
C1337 C 0.24947 0.04122 0.57474 0.0
C1338 C 0.44464 0.09987 0.48745 0.0
N1339 N 0.42533 0.11249 0.50094 0.0
C1340 C 0.48746 0.09737 0.48842 0.0
C1341 C 0.51054 0.10791 0.50331 0.0
C1342 C 0.49064 0.12077 0.51699 0.0
C1343 C 0.44776 0.12287 0.5156 0.0
C1344 C 0.40058 0.17023 0.4821 0.0
C1345 C 0.34657 0.15345 0.51137 0.0
C1346 C 0.39695 0.15057 0.48342 0.0
N1347 N 0.3704 0.14243 0.49804 0.0
C1348 C 0.34937 0.17316 0.5105 0.0
C1349 C 0.37663 0.18158 0.49577 0.0
C1350 C 0.27731 0.10943 0.51034 0.0
C1351 C 0.3001 0.04532 0.4641 0.0
C1352 C 0.25596 0.06122 0.49822 0.0
C1353 C 0.23472 0.05262 0.48102 0.0
C1354 C 0.25701 0.04463 0.46385 0.0
N1355 N 0.29824 0.06181 0.49837 0.0
C1356 C 0.3203 0.05402 0.48159 0.0
Co1357 Co 0.38444 0.63892 0.49941 0.0
Co1358 Co 0.42423 0.68111 0.51825 0.0
O1359 O 0.38917 0.66636 0.49878 0.0
C1360 C 0.40763 0.64747 0.45397 0.0
O1361 O 0.4396 0.65671 0.4618 0.0
C1362 C 0.34111 0.69728 0.52267 0.0
O1363 O 0.32767 0.68001 0.52614 0.0
O1364 O 0.40182 0.66768 0.54432 0.0
O1365 O 0.38562 0.63864 0.53196 0.0
H1366 H 0.52343 0.69092 0.58039 0.0
H1367 H 0.32377 0.66171 0.47428 0.0
O1368 O 0.38279 0.63896 0.46679 0.0
H1369 H 0.24122 0.62644 0.52842 0.0
H1370 H 0.32874 0.57628 0.47352 0.0
H1371 H 0.42418 0.60803 0.52459 0.0
H1372 H 0.31689 0.62229 0.52653 0.0
H1373 H 0.33481 0.6111 0.47387 0.0
O1374 O 0.3796 0.70042 0.52041 0.0
H1375 H 0.47985 0.6722 0.55532 0.0
H1376 H 0.44139 0.72238 0.52302 0.0
H1377 H 0.41887 0.5732 0.5249 0.0
H1378 H 0.24816 0.66619 0.4755 0.0
H1379 H 0.37085 0.5571 0.49924 0.0
H1380 H 0.20637 0.64852 0.50276 0.0
O1381 O 0.44571 0.63608 0.4989 0.0
H1382 H 0.41375 0.71425 0.44583 0.0
H1383 H 0.50893 0.69164 0.50304 0.0
H1384 H 0.53728 0.70717 0.47023 0.0
H1385 H 0.48952 0.71862 0.44134 0.0
H1386 H 0.38679 0.69847 0.4788 0.0
H1387 H 0.48429 0.74166 0.54784 0.0
H1388 H 0.52583 0.72591 0.57672 0.0
O1389 O 0.46955 0.66213 0.51592 0.0
C1390 C 0.39045 0.65058 0.54738 0.0
C1391 C 0.50558 0.69794 0.56783 0.0
C1392 C 0.48356 0.72642 0.54958 0.0
N1393 N 0.4584 0.69618 0.53763 0.0
C1394 C 0.48095 0.68741 0.55355 0.0
C1395 C 0.45925 0.71544 0.53561 0.0
C1396 C 0.50687 0.71757 0.56577 0.0
C1397 C 0.30576 0.65381 0.48603 0.0
N1398 N 0.32472 0.64167 0.50022 0.0
C1399 C 0.26297 0.65647 0.48671 0.0
C1400 C 0.23955 0.64658 0.50204 0.0
C1401 C 0.25909 0.6342 0.51644 0.0
C1402 C 0.30196 0.63193 0.51532 0.0
C1403 C 0.34971 0.58313 0.48481 0.0
C1404 C 0.40304 0.60113 0.51346 0.0
C1405 C 0.35333 0.60283 0.48506 0.0
N1406 N 0.37956 0.61157 0.49937 0.0
C1407 C 0.40025 0.5814 0.51367 0.0
C1408 C 0.37334 0.57238 0.49925 0.0
C1409 C 0.47488 0.64591 0.50721 0.0
C1410 C 0.43488 0.70933 0.45831 0.0
C1411 C 0.488 0.69646 0.49049 0.0
C1412 C 0.50421 0.70532 0.47198 0.0
C1413 C 0.47739 0.71176 0.45579 0.0
N1414 N 0.44628 0.69411 0.49285 0.0
C1415 C 0.41979 0.70044 0.47706 0.0
Co1416 Co 0.63796 0.86395 0.24836 0.0
Co1417 Co 0.66984 0.82173 0.2701 0.0
O1418 O 0.63848 0.83635 0.24871 0.0
C1419 C 0.65718 0.85272 0.20323 0.0
O1420 O 0.68399 0.84075 0.21148 0.0
C1421 C 0.5862 0.80538 0.27025 0.0
O1422 O 0.57196 0.82262 0.27294 0.0
O1423 O 0.64249 0.83548 0.29439 0.0
O1424 O 0.6396 0.86507 0.28112 0.0
H1425 H 0.75556 0.81247 0.33771 0.0
H1426 H 0.57343 0.8429 0.22403 0.0
O1427 O 0.63622 0.86348 0.2157 0.0
H1428 H 0.49758 0.88212 0.27724 0.0
H1429 H 0.59248 0.92777 0.22082 0.0
H1430 H 0.68334 0.8939 0.27237 0.0
H1431 H 0.57372 0.8835 0.27518 0.0
H1432 H 0.59267 0.89287 0.22219 0.0
O1433 O 0.62498 0.80237 0.27002 0.0
H1434 H 0.7173 0.83096 0.31017 0.0
H1435 H 0.68634 0.78054 0.2761 0.0
H1436 H 0.68389 0.92881 0.27169 0.0
H1437 H 0.49726 0.84119 0.22542 0.0
H1438 H 0.6382 0.94597 0.24578 0.0
H1439 H 0.45883 0.86087 0.25222 0.0
O1440 O 0.69931 0.86439 0.2473 0.0
H1441 H 0.67402 0.78615 0.19903 0.0
H1442 H 0.75751 0.81237 0.25927 0.0
H1443 H 0.79233 0.79611 0.22876 0.0
H1444 H 0.75051 0.78282 0.19838 0.0
H1445 H 0.64049 0.80275 0.22969 0.0
H1446 H 0.72405 0.76148 0.30336 0.0
H1447 H 0.75912 0.77746 0.3344 0.0
O1448 O 0.71571 0.84074 0.2703 0.0
C1449 C 0.6375 0.85325 0.29688 0.0
C1450 C 0.74053 0.80534 0.32423 0.0
C1451 C 0.72279 0.77673 0.30496 0.0
N1452 N 0.69992 0.80685 0.29145 0.0
C1453 C 0.71891 0.81574 0.30854 0.0
C1454 C 0.70142 0.78759 0.2896 0.0
C1455 C 0.74247 0.7857 0.32237 0.0
C1456 C 0.5569 0.85165 0.23557 0.0
N1457 N 0.57799 0.86334 0.24943 0.0
C1458 C 0.51378 0.85056 0.23635 0.0
C1459 C 0.49225 0.86158 0.25142 0.0
C1460 C 0.51397 0.87349 0.26548 0.0
C1461 C 0.5571 0.87418 0.26427 0.0
C1462 C 0.61246 0.92046 0.23222 0.0
C1463 C 0.6632 0.90128 0.26114 0.0
C1464 C 0.61276 0.9007 0.23304 0.0
N1465 N 0.63773 0.89138 0.24748 0.0
C1466 C 0.66373 0.92104 0.26079 0.0
C1467 C 0.63811 0.93066 0.24623 0.0
C1468 C 0.72515 0.85526 0.25896 0.0
C1469 C 0.69257 0.79182 0.21221 0.0
C1470 C 0.73909 0.80672 0.24606 0.0
C1471 C 0.75898 0.79746 0.22886 0.0
C1472 C 0.73549 0.78999 0.21183 0.0
N1473 N 0.69697 0.80847 0.24631 0.0
C1474 C 0.67374 0.80115 0.22969 0.0
Co1475 Co 0.60926 0.38477 0.24885 0.0
Co1476 Co 0.57496 0.4264 0.27108 0.0
O1477 O 0.60753 0.41236 0.24966 0.0
C1478 C 0.59065 0.39645 0.20377 0.0
O1479 O 0.56303 0.40798 0.2121 0.0
C1480 C 0.65772 0.44363 0.27184 0.0
O1481 O 0.67281 0.42651 0.27426 0.0
O1482 O 0.60245 0.41262 0.2953 0.0
O1483 O 0.60675 0.3832 0.28161 0.0
H1484 H 0.48735 0.43393 0.3383 0.0
H1485 H 0.67355 0.40668 0.22534 0.0
O1486 O 0.61186 0.38572 0.21617 0.0
H1487 H 0.74957 0.36746 0.27849 0.0
H1488 H 0.6582 0.32175 0.22053 0.0
H1489 H 0.56451 0.35411 0.27196 0.0
H1490 H 0.67355 0.36548 0.27585 0.0
H1491 H 0.65648 0.35662 0.22252 0.0
O1492 O 0.61881 0.44623 0.27161 0.0
H1493 H 0.52711 0.41619 0.31069 0.0
H1494 H 0.55626 0.46733 0.27764 0.0
H1495 H 0.56547 0.31921 0.27066 0.0
H1496 H 0.7496 0.40898 0.2273 0.0
H1497 H 0.61259 0.30281 0.2448 0.0
H1498 H 0.78811 0.38931 0.25408 0.0
O1499 O 0.54798 0.38381 0.2473 0.0
H1500 H 0.57066 0.46282 0.20057 0.0
H1501 H 0.4871 0.43503 0.25984 0.0
H1502 H 0.45221 0.45132 0.22938 0.0
H1503 H 0.49406 0.4654 0.19949 0.0
H1504 H 0.60429 0.44617 0.23116 0.0
H1505 H 0.51702 0.48565 0.30497 0.0
H1506 H 0.4821 0.46892 0.33553 0.0
O1507 O 0.53003 0.40694 0.27065 0.0
C1508 C 0.60799 0.39486 0.29757 0.0
C1509 C 0.5023 0.44137 0.32502 0.0
C1510 C 0.51901 0.4704 0.30633 0.0
N1511 N 0.54368 0.4407 0.29248 0.0
C1512 C 0.52477 0.4314 0.30931 0.0
C1513 C 0.54124 0.45996 0.29093 0.0
C1514 C 0.49941 0.46101 0.32347 0.0
C1515 C 0.69013 0.39792 0.23687 0.0
N1516 N 0.66915 0.3859 0.25039 0.0
C1517 C 0.73317 0.39935 0.23797 0.0
C1518 C 0.75475 0.38834 0.25303 0.0
C1519 C 0.73314 0.37609 0.26675 0.0
C1520 C 0.69009 0.37506 0.26521 0.0
C1521 C 0.6376 0.32873 0.2319 0.0
C1522 C 0.58527 0.34707 0.26077 0.0
C1523 C 0.63644 0.34847 0.23307 0.0
N1524 N 0.61068 0.35737 0.24748 0.0
C1525 C 0.5856 0.32731 0.26005 0.0
C1526 C 0.61201 0.31812 0.24553 0.0
C1527 C 0.52146 0.39254 0.25893 0.0
C1528 C 0.5521 0.4568 0.21354 0.0
C1529 C 0.50555 0.44102 0.24684 0.0
C1530 C 0.48561 0.45029 0.22967 0.0
C1531 C 0.50911 0.45821 0.21292 0.0
N1532 N 0.54774 0.43969 0.24734 0.0
C1533 C 0.57098 0.44744 0.23098 0.0
Co1534 Co 0.63755 0.39073 0.99851 0.0
Co1535 Co 0.6751 0.43357 0.97993 0.0
O1536 O 0.63973 0.41834 0.99889 0.0
C1537 C 0.65527 0.40101 0.04412 0.0
O1538 O 0.68273 0.41293 0.03639 0.0
C1539 C 0.59099 0.44871 0.97448 0.0
O1540 O 0.57819 0.43128 0.97145 0.0
O1541 O 0.65565 0.41958 0.9536 0.0
O1542 O 0.64075 0.39038 0.96591 0.0
H1543 H 0.77787 0.44443 0.91967 0.0
H1544 H 0.57355 0.4123 0.02268 0.0
O1545 O 0.63446 0.39057 0.0312 0.0
H1546 H 0.4973 0.37558 0.96726 0.0
H1547 H 0.58608 0.32714 0.02375 0.0
H1548 H 0.68161 0.36057 0.97417 0.0
H1549 H 0.57316 0.37287 0.97031 0.0
H1550 H 0.58893 0.36204 0.02331 0.0
O1551 O 0.62935 0.45219 0.97662 0.0
H1552 H 0.73391 0.42525 0.94407 0.0
H1553 H 0.68963 0.47506 0.97505 0.0
H1554 H 0.67955 0.32567 0.97395 0.0
H1555 H 0.49768 0.41533 0.02029 0.0
H1556 H 0.63151 0.30873 0.99887 0.0
H1557 H 0.45905 0.39692 0.99238 0.0
O1558 O 0.69882 0.38906 0.00018 0.0
H1559 H 0.65657 0.46794 0.05115 0.0
H1560 H 0.7578 0.44535 0.99689 0.0
H1561 H 0.78243 0.4619 0.02987 0.0
H1562 H 0.73161 0.47336 0.05728 0.0
H1563 H 0.63338 0.45109 0.01811 0.0
H1564 H 0.73287 0.49479 0.95088 0.0
H1565 H 0.77752 0.47947 0.92301 0.0
O1566 O 0.72175 0.41538 0.9834 0.0
C1567 C 0.646 0.40226 0.95046 0.0
C1568 C 0.75865 0.45127 0.9318 0.0
C1569 C 0.73334 0.47954 0.9493 0.0
N1570 N 0.7095 0.44902 0.96107 0.0
C1571 C 0.73378 0.44048 0.9457 0.0
C1572 C 0.70885 0.4683 0.9629 0.0
C1573 C 0.7584 0.47093 0.93367 0.0
C1574 C 0.55691 0.40408 0.01065 0.0
N1575 N 0.57773 0.39234 0.99674 0.0
C1576 C 0.51397 0.40592 0.00931 0.0
C1577 C 0.49233 0.39562 0.99362 0.0
C1578 C 0.51378 0.38365 0.97951 0.0
C1579 C 0.55674 0.3822 0.98129 0.0
C1580 C 0.60708 0.33436 0.01278 0.0
C1581 C 0.66044 0.3533 0.98496 0.0
C1582 C 0.60888 0.35411 0.01249 0.0
N1583 N 0.63516 0.36332 0.9986 0.0
C1584 C 0.6595 0.33353 0.98481 0.0
C1585 C 0.63257 0.32404 0.99882 0.0
C1586 C 0.72774 0.39931 0.99235 0.0
C1587 C 0.67902 0.46304 0.03932 0.0
C1588 C 0.73556 0.45014 0.00881 0.0
C1589 C 0.74965 0.45959 0.02741 0.0
C1590 C 0.72112 0.46605 0.04276 0.0
N1591 N 0.69423 0.4472 0.00557 0.0
C1592 C 0.66606 0.45355 0.02051 0.0
Co1593 Co 0.61144 0.86328 0.99832 0.0
Co1594 Co 0.57599 0.82168 0.97652 0.0
O1595 O 0.60918 0.8357 0.99769 0.0
C1596 C 0.59335 0.85189 0.04351 0.0
O1597 O 0.56537 0.84042 0.03538 0.0
C1598 C 0.6584 0.80422 0.97554 0.0
O1599 O 0.67365 0.82128 0.97281 0.0
O1600 O 0.60328 0.83525 0.95208 0.0
O1601 O 0.60833 0.8647 0.96559 0.0
H1602 H 0.4871 0.81411 0.90977 0.0
H1603 H 0.67573 0.84125 0.02164 0.0
O1604 O 0.61459 0.86247 0.03096 0.0
H1605 H 0.75154 0.87995 0.96787 0.0
H1606 H 0.66208 0.92624 0.02601 0.0
H1607 H 0.56683 0.894 0.97526 0.0
H1608 H 0.67561 0.88222 0.97088 0.0
H1609 H 0.65969 0.89137 0.02423 0.0
O1610 O 0.61947 0.80171 0.97594 0.0
H1611 H 0.52762 0.83186 0.93708 0.0
H1612 H 0.55647 0.78078 0.97031 0.0
H1613 H 0.56845 0.9289 0.97636 0.0
H1614 H 0.75169 0.83864 0.0193 0.0
H1615 H 0.61636 0.94524 0.00188 0.0
H1616 H 0.79009 0.85805 0.99222 0.0
O1617 O 0.55022 0.86446 0.00016 0.0
H1618 H 0.57223 0.78567 0.04733 0.0
H1619 H 0.48818 0.8134 0.98823 0.0
H1620 H 0.4535 0.79741 0.01898 0.0
H1621 H 0.4956 0.78337 0.04879 0.0
H1622 H 0.60564 0.80201 0.01644 0.0
H1623 H 0.51646 0.76245 0.94328 0.0
H1624 H 0.4813 0.77915 0.91279 0.0
O1625 O 0.53146 0.84129 0.97703 0.0
C1626 C 0.60899 0.85299 0.94969 0.0
C1627 C 0.50215 0.80668 0.92303 0.0
C1628 C 0.51868 0.77769 0.94182 0.0
N1629 N 0.54409 0.80738 0.95537 0.0
C1630 C 0.52505 0.81666 0.93857 0.0
C1631 C 0.54135 0.78813 0.95705 0.0
C1632 C 0.49895 0.78706 0.92472 0.0
C1633 C 0.69227 0.84989 0.00998 0.0
N1634 N 0.67128 0.86193 0.99649 0.0
C1635 C 0.73526 0.84829 0.00866 0.0
C1636 C 0.75678 0.85916 0.99343 0.0
C1637 C 0.73516 0.87143 0.97975 0.0
C1638 C 0.69215 0.87262 0.98149 0.0
C1639 C 0.64115 0.91929 0.01479 0.0
C1640 C 0.58793 0.90102 0.9863 0.0
C1641 C 0.6396 0.89955 0.01374 0.0
N1642 N 0.61341 0.89068 0.99951 0.0
C1643 C 0.58863 0.92078 0.9869 0.0
C1644 C 0.61549 0.92994 0.00124 0.0
C1645 C 0.52336 0.85578 0.98869 0.0
C1646 C 0.55355 0.79167 0.03439 0.0
C1647 C 0.50674 0.80741 0.00118 0.0
C1648 C 0.48692 0.79832 0.01852 0.0
C1649 C 0.51056 0.79042 0.03523 0.0
N1650 N 0.54894 0.8086 0.00048 0.0
C1651 C 0.57231 0.80086 0.01679 0.0
Co1652 Co 0.36355 0.1424 0.74945 0.0
Co1653 Co 0.32162 0.1841 0.73054 0.0
O1654 O 0.35744 0.16977 0.75005 0.0
C1655 C 0.34062 0.15071 0.795 0.0
O1656 O 0.30805 0.15961 0.78735 0.0
C1657 C 0.40384 0.20113 0.72636 0.0
O1658 O 0.41792 0.18401 0.72263 0.0
O1659 O 0.34479 0.17094 0.70448 0.0
O1660 O 0.362 0.14206 0.71691 0.0
H1661 H 0.22208 0.19277 0.66834 0.0
H1662 H 0.42338 0.16585 0.77436 0.0
O1663 O 0.36562 0.14247 0.78206 0.0
H1664 H 0.50704 0.13136 0.72005 0.0
H1665 H 0.42259 0.08038 0.77523 0.0
H1666 H 0.32499 0.11107 0.72446 0.0
H1667 H 0.43159 0.12645 0.72214 0.0
H1668 H 0.41485 0.11513 0.77485 0.0
O1669 O 0.36521 0.20393 0.72848 0.0
H1670 H 0.26656 0.17455 0.69344 0.0
H1671 H 0.30229 0.22517 0.72576 0.0
H1672 H 0.33196 0.0763 0.72418 0.0
H1673 H 0.49875 0.17106 0.77294 0.0
H1674 H 0.38107 0.06074 0.7497 0.0
H1675 H 0.5411 0.15379 0.7456 0.0
O1676 O 0.30245 0.13893 0.75016 0.0
H1677 H 0.33002 0.21735 0.80299 0.0
H1678 H 0.23633 0.19362 0.74567 0.0
H1679 H 0.20701 0.20882 0.77844 0.0
H1680 H 0.25402 0.22084 0.80739 0.0
H1681 H 0.35796 0.20188 0.77006 0.0
H1682 H 0.25846 0.24395 0.70091 0.0
H1683 H 0.21784 0.22772 0.672 0.0
O1684 O 0.27736 0.16458 0.73284 0.0
C1685 C 0.35673 0.15392 0.70146 0.0
C1686 C 0.23953 0.19999 0.68091 0.0
C1687 C 0.26 0.22872 0.69917 0.0
N1688 N 0.28671 0.19877 0.71114 0.0
C1689 C 0.26466 0.18975 0.69521 0.0
C1690 C 0.28484 0.21802 0.71316 0.0
C1691 C 0.2372 0.21961 0.68296 0.0
C1692 C 0.44164 0.15811 0.76257 0.0
N1693 N 0.42311 0.14577 0.74844 0.0
C1694 C 0.48429 0.16119 0.76179 0.0
C1695 C 0.50802 0.15152 0.74641 0.0
C1696 C 0.48892 0.13895 0.73206 0.0
C1697 C 0.44617 0.13625 0.73329 0.0
C1698 C 0.40115 0.087 0.764 0.0
C1699 C 0.3466 0.1044 0.73552 0.0
C1700 C 0.39658 0.10666 0.76374 0.0
N1701 N 0.36975 0.11511 0.74951 0.0
C1702 C 0.35033 0.08471 0.73533 0.0
C1703 C 0.37786 0.07599 0.74967 0.0
C1704 C 0.27282 0.14838 0.74172 0.0
C1705 C 0.30922 0.21219 0.79048 0.0
C1706 C 0.25694 0.1987 0.75824 0.0
C1707 C 0.24018 0.20737 0.77673 0.0
C1708 C 0.26657 0.21412 0.79295 0.0
N1709 N 0.29878 0.19683 0.75593 0.0
C1710 C 0.32486 0.20347 0.77175 0.0
Co1711 Co 0.37831 0.61393 0.7496 0.0
Co1712 Co 0.4195 0.57336 0.72833 0.0
O1713 O 0.38477 0.58658 0.74935 0.0
C1714 C 0.40015 0.60466 0.79505 0.0
O1715 O 0.43335 0.59628 0.78738 0.0
C1716 C 0.33953 0.55394 0.7273 0.0
O1717 O 0.32277 0.5706 0.72388 0.0
O1718 O 0.39033 0.58588 0.70376 0.0
O1719 O 0.38109 0.61525 0.71691 0.0
H1720 H 0.50882 0.56751 0.66151 0.0
H1721 H 0.31753 0.58997 0.77314 0.0
O1722 O 0.37507 0.61294 0.78218 0.0
H1723 H 0.23591 0.62591 0.71923 0.0
H1724 H 0.3182 0.6752 0.77701 0.0
H1725 H 0.41781 0.64593 0.72621 0.0
H1726 H 0.31132 0.63059 0.72211 0.0
H1727 H 0.32608 0.64049 0.77547 0.0
O1728 O 0.37864 0.55225 0.7282 0.0
H1729 H 0.46625 0.58442 0.68865 0.0
H1730 H 0.44421 0.53302 0.72268 0.0
H1731 H 0.4107 0.68069 0.72708 0.0
H1732 H 0.24215 0.58498 0.77095 0.0
H1733 H 0.36058 0.69553 0.75262 0.0
H1734 H 0.20082 0.60298 0.74379 0.0
O1735 O 0.43933 0.61715 0.75116 0.0
H1736 H 0.4287 0.53933 0.80026 0.0
H1737 H 0.50832 0.56748 0.73972 0.0
H1738 H 0.54538 0.55319 0.77081 0.0
H1739 H 0.50551 0.53895 0.80135 0.0
H1740 H 0.39287 0.55393 0.76896 0.0
H1741 H 0.48633 0.51552 0.69583 0.0
H1742 H 0.5191 0.5328 0.66502 0.0
O1743 O 0.46116 0.59421 0.72845 0.0
C1744 C 0.38198 0.60338 0.70117 0.0
C1745 C 0.49482 0.55983 0.67491 0.0
C1746 C 0.48215 0.53065 0.69415 0.0
N1747 N 0.45307 0.55974 0.70732 0.0
C1748 C 0.47078 0.56934 0.69035 0.0
C1749 C 0.45827 0.54062 0.70928 0.0
C1750 C 0.50054 0.54035 0.67687 0.0
C1751 C 0.29971 0.59801 0.76145 0.0
N1752 N 0.3188 0.61063 0.74785 0.0
C1753 C 0.25705 0.59506 0.76021 0.0
C1754 C 0.2339 0.60514 0.74494 0.0
C1755 C 0.25357 0.61799 0.73114 0.0
C1756 C 0.29631 0.62055 0.73281 0.0
C1757 C 0.34008 0.66889 0.76578 0.0
C1758 C 0.39576 0.65229 0.73727 0.0
C1759 C 0.34473 0.64926 0.76486 0.0
N1760 N 0.37211 0.64121 0.75062 0.0
C1761 C 0.39196 0.67198 0.73773 0.0
C1762 C 0.36386 0.6803 0.75208 0.0
C1763 C 0.46724 0.6091 0.73977 0.0
C1764 C 0.44642 0.54543 0.78701 0.0
C1765 C 0.49073 0.56134 0.75296 0.0
C1766 C 0.5119 0.55324 0.77051 0.0
C1767 C 0.48951 0.54525 0.78763 0.0
N1768 N 0.44845 0.56144 0.75245 0.0
C1769 C 0.4263 0.55364 0.7692 0.0
Co1770 Co 0.35606 0.60947 0.00069 0.0
Co1771 Co 0.31766 0.56709 0.01973 0.0
O1772 O 0.35306 0.58195 0.00051 0.0
C1773 C 0.33689 0.60022 0.95489 0.0
O1774 O 0.30501 0.59056 0.96212 0.0
C1775 C 0.40127 0.55143 0.02499 0.0
O1776 O 0.4144 0.56878 0.02829 0.0
O1777 O 0.33822 0.58105 0.04588 0.0
O1778 O 0.35218 0.61021 0.03317 0.0
H1779 H 0.21576 0.55717 0.08061 0.0
H1780 H 0.42007 0.58728 0.97722 0.0
O1781 O 0.36028 0.60907 0.96814 0.0
H1782 H 0.49603 0.62419 0.03257 0.0
H1783 H 0.41004 0.67244 0.97488 0.0
H1784 H 0.3123 0.64018 0.02427 0.0
H1785 H 0.42032 0.62725 0.02904 0.0
H1786 H 0.40609 0.63758 0.97579 0.0
O1787 O 0.36285 0.54814 0.02276 0.0
H1788 H 0.25986 0.57595 0.05586 0.0
H1789 H 0.30194 0.52572 0.02494 0.0
H1790 H 0.31543 0.67506 0.024 0.0
H1791 H 0.4958 0.5839 0.98009 0.0
H1792 H 0.3646 0.69142 0.99917 0.0
H1793 H 0.53428 0.6024 0.00797 0.0
O1794 O 0.29473 0.61147 0.99879 0.0
H1795 H 0.33324 0.53328 0.94797 0.0
H1796 H 0.23427 0.55538 0.00362 0.0
H1797 H 0.20828 0.53916 0.97073 0.0
H1798 H 0.25796 0.52794 0.94262 0.0
H1799 H 0.35779 0.54976 0.981 0.0
H1800 H 0.25856 0.50638 0.04947 0.0
H1801 H 0.21493 0.52212 0.07748 0.0
O1802 O 0.27162 0.58561 0.01645 0.0
C1803 C 0.34755 0.59844 0.04877 0.0
C1804 C 0.23453 0.55015 0.06842 0.0
C1805 C 0.25861 0.52164 0.05096 0.0
N1806 N 0.28318 0.55195 0.03888 0.0
C1807 C 0.25947 0.56071 0.05433 0.0
C1808 C 0.28319 0.53266 0.03716 0.0
C1809 C 0.23412 0.53049 0.06667 0.0
C1810 C 0.43663 0.59554 0.98923 0.0
N1811 N 0.4158 0.60753 0.00286 0.0
C1812 C 0.4795 0.59351 0.99084 0.0
C1813 C 0.50106 0.60386 0.00652 0.0
C1814 C 0.47961 0.61607 0.02034 0.0
C1815 C 0.43673 0.61772 0.01829 0.0
C1816 C 0.38856 0.66548 0.9858 0.0
C1817 C 0.33394 0.6472 0.01352 0.0
C1818 C 0.38613 0.64575 0.98636 0.0
N1819 N 0.35925 0.63687 0.00021 0.0
C1820 C 0.33549 0.66695 0.01339 0.0
C1821 C 0.36306 0.67612 0.99944 0.0
C1822 C 0.26575 0.6015 0.00706 0.0
C1823 C 0.31128 0.53809 0.9601 0.0
C1824 C 0.25601 0.5507 0.9914 0.0
C1825 C 0.24115 0.54143 0.97285 0.0
C1826 C 0.26904 0.53512 0.9571 0.0
N1827 N 0.29746 0.55359 0.99423 0.0
C1828 C 0.325 0.54739 0.97888 0.0
Co1829 Co 0.38956 0.14066 -0.00032 0.0
Co1830 Co 0.42896 0.1824 0.01997 0.0
O1831 O 0.39337 0.16815 0.00024 0.0
C1832 C 0.40955 0.1508 0.95425 0.0
O1833 O 0.44161 0.16009 0.96191 0.0
C1834 C 0.34578 0.19848 0.02527 0.0
O1835 O 0.33212 0.18115 0.02808 0.0
O1836 O 0.40758 0.16808 0.04566 0.0
O1837 O 0.39302 0.13924 0.03215 0.0
H1838 H 0.53025 0.19049 0.08149 0.0
H1839 H 0.32645 0.16369 0.9766 0.0
O1840 O 0.38575 0.14177 0.96712 0.0
H1841 H 0.24881 0.12608 0.03067 0.0
H1842 H 0.33415 0.07855 0.97198 0.0
H1843 H 0.43213 0.10923 0.02258 0.0
H1844 H 0.32449 0.1227 0.02734 0.0
H1845 H 0.33909 0.11337 0.97384 0.0
O1846 O 0.38433 0.20159 0.02331 0.0
H1847 H 0.48594 0.17247 0.0561 0.0
H1848 H 0.44591 0.22355 0.02629 0.0
H1849 H 0.428 0.07438 0.02137 0.0
H1850 H 0.25077 0.16739 0.97926 0.0
H1851 H 0.37872 0.05882 0.99593 0.0
H1852 H 0.21144 0.14854 0.00649 0.0
O1853 O 0.45083 0.13833 0.99791 0.0
H1854 H 0.41555 0.2177 0.94905 0.0
H1855 H 0.51297 0.19379 0.00446 0.0
H1856 H 0.53997 0.21045 0.97209 0.0
H1857 H 0.49107 0.22257 0.9441 0.0
H1858 H 0.38997 0.20078 0.98155 0.0
H1859 H 0.48951 0.24213 0.05147 0.0
H1860 H 0.53222 0.22558 0.07926 0.0
O1861 O 0.47447 0.16365 0.01639 0.0
C1862 C 0.39774 0.15069 0.04807 0.0
C1863 C 0.51188 0.19786 0.06941 0.0
C1864 C 0.48897 0.22685 0.05258 0.0
N1865 N 0.46364 0.19694 0.03963 0.0
C1866 C 0.48683 0.18773 0.05495 0.0
C1867 C 0.46426 0.21626 0.03841 0.0
C1868 C 0.51294 0.21755 0.06816 0.0
C1869 C 0.30951 0.15528 0.98832 0.0
N1870 N 0.32985 0.14291 0.00171 0.0
C1871 C 0.26667 0.1575 0.98982 0.0
C1872 C 0.24464 0.14695 0.00514 0.0
C1873 C 0.2656 0.13435 0.01872 0.0
C1874 C 0.30847 0.13253 0.01679 0.0
C1875 C 0.35568 0.08517 0.98316 0.0
C1876 C 0.41043 0.10256 0.01157 0.0
C1877 C 0.35866 0.10487 0.98426 0.0
N1878 N 0.38561 0.1133 0.99845 0.0
C1879 C 0.40832 0.08282 0.01091 0.0
C1880 C 0.38069 0.0741 0.99661 0.0
C1881 C 0.48 0.14793 0.00656 0.0
C1882 C 0.43717 0.2125 0.96113 0.0
C1883 C 0.49156 0.19888 0.9923 0.0
C1884 C 0.507 0.20839 0.97403 0.0
C1885 C 0.47955 0.2152 0.95835 0.0
N1886 N 0.44997 0.19625 0.99491 0.0
C1887 C 0.42286 0.20295 0.97962 0.0
H1888 H 0.12709 0.38044 0.17901 0.0
H1889 H 0.0797 0.31925 0.07395 0.0
H1890 H 0.16406 0.32185 0.17524 0.0
H1891 H 0.11851 0.37751 0.06853 0.0
H1892 H 0.097 0.32 0.11301 0.0
H1893 H 0.11069 0.37976 0.13989 0.0
C1894 C 0.13179 0.36746 0.16992 0.0
C1895 C 0.14713 0.3512 0.18025 0.0
C1896 C 0.10161 0.33259 0.1032 0.0
C1897 C 0.12759 0.35025 0.1359 0.0
C1898 C 0.0915 0.33223 0.08104 0.0
C1899 C 0.09771 0.34835 0.0681 0.0
C1900 C 0.11697 0.34933 0.11249 0.0
C1901 C 0.11342 0.36477 0.07798 0.0
C1902 C 0.12253 0.36711 0.14768 0.0
C1903 C 0.15265 0.33473 0.16779 0.0
N1904 N 0.12219 0.3649 0.09968 0.0
N1905 N 0.14243 0.3346 0.14625 0.0
H1906 H 0.16926 0.92583 0.07418 0.0
H1907 H 0.12259 0.86637 0.18075 0.0
H1908 H 0.13193 0.86728 0.07033 0.0
H1909 H 0.08416 0.92467 0.17533 0.0
H1910 H 0.13988 0.86644 0.14173 0.0
H1911 H 0.15232 0.92571 0.1133 0.0
C1912 C 0.15792 0.91292 0.08163 0.0
C1913 C 0.15193 0.89653 0.06912 0.0
C1914 C 0.12755 0.87916 0.14914 0.0
C1915 C 0.13308 0.89628 0.11355 0.0
C1916 C 0.11778 0.87916 0.17131 0.0
C1917 C 0.10173 0.89551 0.18114 0.0
C1918 C 0.12228 0.89577 0.13693 0.0
C1919 C 0.0961 0.91173 0.16826 0.0
C1920 C 0.14801 0.91292 0.10382 0.0
C1921 C 0.13681 0.88021 0.07945 0.0
N1922 N 0.10679 0.91153 0.1468 0.0
N1923 N 0.12819 0.88045 0.10116 0.0
H1924 H 0.82345 0.67726 0.82392 0.0
H1925 H 0.87069 0.62016 0.93226 0.0
H1926 H 0.86121 0.61871 0.82177 0.0
H1927 H 0.90635 0.67873 0.92546 0.0
H1928 H 0.85394 0.61928 0.89319 0.0
H1929 H 0.84024 0.67803 0.86301 0.0
C1930 C 0.83491 0.66454 0.83173 0.0
C1931 C 0.84097 0.64789 0.81967 0.0
C1932 C 0.86553 0.63228 0.9003 0.0
C1933 C 0.85968 0.64865 0.86417 0.0
C1934 C 0.87497 0.63282 0.92253 0.0
C1935 C 0.8901 0.64952 0.93201 0.0
C1936 C 0.87022 0.64869 0.88765 0.0
C1937 C 0.89509 0.66553 0.91871 0.0
C1938 C 0.84472 0.66504 0.85392 0.0
C1939 C 0.85623 0.63184 0.8305 0.0
N1940 N 0.88476 0.66479 0.8972 0.0
N1941 N 0.86476 0.63257 0.85222 0.0
H1942 H 0.87424 0.12676 0.93052 0.0
H1943 H 0.92386 0.06758 0.8241 0.0
H1944 H 0.83898 0.06804 0.92521 0.0
H1945 H 0.88291 0.12558 0.81973 0.0
H1946 H 0.90699 0.06771 0.86319 0.0
H1947 H 0.8913 0.12687 0.89144 0.0
C1948 C 0.87013 0.11391 0.92111 0.0
C1949 C 0.855 0.09739 0.931 0.0
C1950 C 0.90186 0.08039 0.85362 0.0
C1951 C 0.87527 0.09733 0.88668 0.0
C1952 C 0.9117 0.08038 0.83142 0.0
C1953 C 0.90473 0.0966 0.81875 0.0
C1954 C 0.88598 0.09688 0.86325 0.0
C1955 C 0.88859 0.11277 0.82897 0.0
C1956 C 0.87973 0.11401 0.89889 0.0
C1957 C 0.85022 0.0811 0.91813 0.0
N1958 N 0.88007 0.11256 0.85071 0.0
N1959 N 0.86075 0.08142 0.89663 0.0
H1960 H 0.20493 0.8433 0.67078 0.0
H1961 H 0.03088 0.84369 0.57915 0.0
H1962 H 0.07771 0.85703 0.68523 0.0
H1963 H 0.1576 0.85872 0.56515 0.0
H1964 H 0.04758 0.84334 0.61823 0.0
H1965 H 0.18818 0.84367 0.6317 0.0
C1966 C 0.17352 0.84636 0.66573 0.0
C1967 C 0.14271 0.85024 0.68121 0.0
C1968 C 0.07161 0.84676 0.60655 0.0
C1969 C 0.12334 0.8504 0.63677 0.0
C1970 C 0.06216 0.84691 0.58431 0.0
C1971 C 0.09285 0.85135 0.56895 0.0
C1972 C 0.11219 0.85065 0.61338 0.0
C1973 C 0.13293 0.85539 0.57648 0.0
C1974 C 0.16405 0.84663 0.64348 0.0
C1975 C 0.10247 0.85411 0.67381 0.0
N1976 N 0.14154 0.85481 0.59818 0.0
N1977 N 0.09386 0.85396 0.6521 0.0
H1978 H 0.21616 0.40596 0.57841 0.0
H1979 H 0.04376 0.40702 0.6709 0.0
H1980 H 0.08841 0.39252 0.56489 0.0
H1981 H 0.17014 0.39128 0.68462 0.0
H1982 H 0.06005 0.40718 0.63179 0.0
H1983 H 0.20026 0.40599 0.61761 0.0
C1984 C 0.18481 0.40305 0.58369 0.0
C1985 C 0.1536 0.39914 0.56843 0.0
C1986 C 0.08412 0.40367 0.64341 0.0
C1987 C 0.1352 0.39945 0.613 0.0
C1988 C 0.07492 0.40364 0.66568 0.0
C1989 C 0.1056 0.39903 0.68097 0.0
C1990 C 0.12447 0.39947 0.63646 0.0
C1991 C 0.14549 0.39476 0.67334 0.0
C1992 C 0.17583 0.403 0.606 0.0
C1993 C 0.11347 0.39546 0.57613 0.0
N1994 N 0.15388 0.39521 0.6516 0.0
N1995 N 0.10534 0.39584 0.59789 0.0
H1996 H 0.83195 0.17967 0.32449 0.0
H1997 H 0.88027 0.1173 0.42863 0.0
H1998 H 0.86996 0.12139 0.31819 0.0
H1999 H 0.91649 0.17603 0.42563 0.0
H2000 H 0.86355 0.11836 0.38955 0.0
H2001 H 0.84971 0.1785 0.36347 0.0
C2002 C 0.84372 0.16661 0.33136 0.0
C2003 C 0.84953 0.15059 0.31818 0.0
C2004 C 0.8753 0.13096 0.39749 0.0
C2005 C 0.86928 0.14914 0.36254 0.0
C2006 C 0.88473 0.13039 0.41973 0.0
C2007 C 0.89997 0.14658 0.43027 0.0
C2008 C 0.88008 0.14797 0.38593 0.0
C2009 C 0.90516 0.1632 0.41803 0.0
C2010 C 0.85406 0.166 0.35349 0.0
C2011 C 0.86518 0.13406 0.32782 0.0
N2012 N 0.89479 0.16354 0.39651 0.0
N2013 N 0.87418 0.13369 0.3495 0.0
H2014 H 0.9145 0.56738 0.32464 0.0
H2015 H 0.86688 0.62712 0.43073 0.0
H2016 H 0.87547 0.62563 0.31995 0.0
H2017 H 0.82947 0.56865 0.42571 0.0
H2018 H 0.88324 0.62704 0.39157 0.0
H2019 H 0.89693 0.56769 0.36365 0.0
C2020 C 0.90257 0.58026 0.33187 0.0
C2021 C 0.89639 0.59651 0.31914 0.0
C2022 C 0.8713 0.61429 0.39909 0.0
C2023 C 0.87686 0.59699 0.36353 0.0
C2024 C 0.86207 0.6143 0.42136 0.0
C2025 C 0.84662 0.59789 0.43136 0.0
C2026 C 0.86613 0.59762 0.38696 0.0
C2027 C 0.84098 0.58163 0.41854 0.0
C2028 C 0.89232 0.58037 0.35402 0.0
C2029 C 0.88053 0.6128 0.32923 0.0
N2030 N 0.85119 0.58183 0.397 0.0
N2031 N 0.87164 0.61269 0.35093 0.0
H2032 H 0.58154 0.31659 0.57422 0.0
H2033 H 0.63047 0.37795 0.67922 0.0
H2034 H 0.62057 0.3748 0.5687 0.0
H2035 H 0.66567 0.31913 0.67547 0.0
H2036 H 0.61337 0.37726 0.64016 0.0
H2037 H 0.59857 0.31742 0.6133 0.0
C2038 C 0.59333 0.32957 0.58129 0.0
C2039 C 0.5997 0.34566 0.5683 0.0
C2040 C 0.62495 0.36456 0.64794 0.0
C2041 C 0.61865 0.34672 0.61276 0.0
C2042 C 0.63459 0.36491 0.67016 0.0
C2043 C 0.6497 0.3486 0.68048 0.0
C2044 C 0.62938 0.34764 0.63618 0.0
C2045 C 0.65446 0.33206 0.66804 0.0
C2046 C 0.60327 0.32998 0.60348 0.0
C2047 C 0.61537 0.36209 0.57818 0.0
N2048 N 0.64391 0.33194 0.64655 0.0
N2049 N 0.62401 0.36226 0.59991 0.0
H2050 H 0.61038 0.8727 0.67876 0.0
H2051 H 0.66169 0.93204 0.57276 0.0
H2052 H 0.57558 0.93148 0.67357 0.0
H2053 H 0.62273 0.87374 0.56839 0.0
H2054 H 0.64328 0.932 0.61167 0.0
H2055 H 0.62758 0.87263 0.63974 0.0
C2056 C 0.60629 0.88556 0.66937 0.0
C2057 C 0.59136 0.9021 0.67929 0.0
C2058 C 0.63888 0.91925 0.60213 0.0
C2059 C 0.61182 0.90221 0.63503 0.0
C2060 C 0.64963 0.9192 0.58005 0.0
C2061 C 0.64371 0.90286 0.56744 0.0
C2062 C 0.62312 0.9027 0.61169 0.0
C2063 C 0.62763 0.88664 0.57758 0.0
C2064 C 0.616 0.88549 0.64718 0.0
C2065 C 0.58665 0.9184 0.66645 0.0
N2066 N 0.61821 0.88691 0.59921 0.0
N2067 N 0.59731 0.91812 0.64497 0.0
H2068 H 0.28783 0.65681 0.32843 0.0
H2069 H 0.4611 0.65517 0.42046 0.0
H2070 H 0.41474 0.64238 0.3141 0.0
H2071 H 0.33381 0.64073 0.43387 0.0
H2072 H 0.44487 0.65591 0.38131 0.0
H2073 H 0.30444 0.65644 0.3675 0.0
C2074 C 0.31916 0.65361 0.33351 0.0
C2075 C 0.34991 0.64951 0.31808 0.0
C2076 C 0.42062 0.65254 0.39289 0.0
C2077 C 0.36911 0.64933 0.3625 0.0
C2078 C 0.4298 0.65217 0.41516 0.0
C2079 C 0.3988 0.64777 0.43036 0.0
C2080 C 0.38003 0.64891 0.3859 0.0
C2081 C 0.35871 0.64402 0.42267 0.0
C2082 C 0.32855 0.65334 0.35575 0.0
C2083 C 0.39004 0.64546 0.32551 0.0
N2084 N 0.35039 0.6448 0.40096 0.0
N2085 N 0.39858 0.64559 0.34722 0.0
H2086 H 0.41716 0.11045 0.43432 0.0
H2087 H 0.32853 0.10723 0.3138 0.0
H2088 H 0.28929 0.09696 0.42118 0.0
H2089 H 0.45515 0.09249 0.32838 0.0
H2090 H 0.31356 0.10796 0.35297 0.0
H2091 H 0.43181 0.10845 0.39519 0.0
C2092 C 0.39213 0.10714 0.42319 0.0
C2093 C 0.3519 0.10391 0.43096 0.0
C2094 C 0.34455 0.10451 0.34755 0.0
C2095 C 0.36847 0.10175 0.3863 0.0
C2096 C 0.3532 0.10418 0.32525 0.0
C2097 C 0.3932 0.09983 0.31788 0.0
C2098 C 0.37631 0.10084 0.36256 0.0
C2099 C 0.42391 0.09587 0.3334 0.0
C2100 C 0.4006 0.10589 0.40092 0.0
C2101 C 0.32072 0.09952 0.41585 0.0
N2102 N 0.41492 0.09664 0.35507 0.0
N2103 N 0.32959 0.09872 0.39416 0.0
H2104 H 0.6302 0.88242 0.17867 0.0
H2105 H 0.58262 0.82291 0.07246 0.0
H2106 H 0.66557 0.82367 0.17415 0.0
H2107 H 0.62365 0.88092 0.06812 0.0
H2108 H 0.59958 0.82304 0.11157 0.0
H2109 H 0.6147 0.88234 0.13944 0.0
C2110 C 0.63474 0.86953 0.16939 0.0
C2111 C 0.64935 0.85305 0.17954 0.0
C2112 C 0.60477 0.8357 0.10198 0.0
C2113 C 0.63084 0.85278 0.13506 0.0
C2114 C 0.59487 0.8357 0.07979 0.0
C2115 C 0.60177 0.85194 0.06714 0.0
C2116 C 0.62062 0.85221 0.11159 0.0
C2117 C 0.61802 0.8681 0.07734 0.0
C2118 C 0.62601 0.86952 0.14709 0.0
C2119 C 0.6547 0.83671 0.16684 0.0
N2120 N 0.62656 0.86789 0.09906 0.0
N2121 N 0.64498 0.83691 0.14524 0.0
H2122 H 0.66459 0.42943 0.0739 0.0
H2123 H 0.61985 0.3675 0.17864 0.0
H2124 H 0.62631 0.37115 0.06792 0.0
H2125 H 0.58106 0.42586 0.17531 0.0
H2126 H 0.63561 0.36843 0.13942 0.0
H2127 H 0.64767 0.42832 0.11298 0.0
C2128 C 0.65295 0.41638 0.08087 0.0
C2129 C 0.6468 0.40034 0.06776 0.0
C2130 C 0.62351 0.38097 0.14733 0.0
C2131 C 0.62804 0.39896 0.11221 0.0
C2132 C 0.61464 0.38048 0.16963 0.0
C2133 C 0.59896 0.3966 0.18011 0.0
C2134 C 0.61776 0.39784 0.13566 0.0
C2135 C 0.59277 0.41308 0.16775 0.0
C2136 C 0.64309 0.41581 0.10305 0.0
C2137 C 0.63133 0.38382 0.07751 0.0
N2138 N 0.60264 0.41336 0.14617 0.0
N2139 N 0.62282 0.38348 0.09924 0.0
H2140 H 0.28733 0.15769 0.82882 0.0
H2141 H 0.46172 0.15918 0.92041 0.0
H2142 H 0.41505 0.14464 0.81472 0.0
H2143 H 0.33538 0.14365 0.93467 0.0
H2144 H 0.44469 0.15954 0.88137 0.0
H2145 H 0.30406 0.15815 0.86791 0.0
C2146 C 0.31884 0.15495 0.83395 0.0
C2147 C 0.3498 0.151 0.81858 0.0
C2148 C 0.4208 0.15604 0.89311 0.0
C2149 C 0.36913 0.15181 0.86298 0.0
C2150 C 0.43043 0.1559 0.91533 0.0
C2151 C 0.39998 0.15126 0.93072 0.0
C2152 C 0.38028 0.15191 0.88636 0.0
C2153 C 0.35988 0.14713 0.92329 0.0
C2154 C 0.3283 0.15516 0.85619 0.0
C2155 C 0.39016 0.14757 0.82607 0.0
N2156 N 0.3511 0.14766 0.90161 0.0
N2157 N 0.39874 0.14818 0.84776 0.0
H2158 H 0.32517 0.60977 0.81461 0.0
H2159 H 0.41093 0.6085 0.9358 0.0
H2160 H 0.45321 0.59759 0.82892 0.0
H2161 H 0.28523 0.59258 0.92058 0.0
H2162 H 0.42673 0.60912 0.89673 0.0
H2163 H 0.30956 0.60813 0.85366 0.0
C2164 C 0.35003 0.60683 0.82599 0.0
C2165 C 0.3906 0.60385 0.81857 0.0
C2166 C 0.39575 0.60545 0.90198 0.0
C2167 C 0.37292 0.60211 0.86313 0.0
C2168 C 0.38663 0.60519 0.92422 0.0
C2169 C 0.34665 0.60052 0.93139 0.0
C2170 C 0.3645 0.60139 0.88681 0.0
C2171 C 0.31644 0.59621 0.91572 0.0
C2172 C 0.34102 0.60578 0.84821 0.0
C2173 C 0.42154 0.59994 0.83398 0.0
N2174 N 0.32589 0.59691 0.8941 0.0
N2175 N 0.41212 0.59934 0.8556 0.0
H2176 H 0.88397 0.23596 0.22413 0.0
H2177 H 0.10786 0.26678 0.26648 0.0
H2178 H 0.9856 0.19685 0.23177 0.0
H2179 H 0.00398 0.30498 0.26156 0.0
H2180 H 0.06433 0.24117 0.25293 0.0
H2181 H 0.92888 0.26168 0.23582 0.0
C2182 C 0.91593 0.2328 0.22803 0.0
C2183 C 0.93103 0.21419 0.22706 0.0
C2184 C 0.05099 0.25513 0.25489 0.0
C2185 C 0.98253 0.24364 0.24077 0.0
C2186 C 0.07576 0.26976 0.26274 0.0
C2187 C 0.05949 0.28807 0.26522 0.0
C2188 C 0.00964 0.2588 0.24941 0.0
C2189 C 0.01776 0.29108 0.26003 0.0
C2190 C 0.9415 0.24751 0.23482 0.0
C2191 C 0.97271 0.21099 0.23223 0.0
N2192 N 0.9943 0.27659 0.2523 0.0
N2193 N 0.99697 0.22557 0.23903 0.0
H2194 H 0.24245 0.94316 0.26436 0.0
H2195 H 0.25672 0.05218 0.22901 0.0
H2196 H 0.13815 0.98137 0.26458 0.0
H2197 H 0.36019 0.01353 0.2278 0.0
H2198 H 0.21212 0.0262 0.24101 0.0
H2199 H 0.28618 0.96889 0.25099 0.0
C2200 C 0.22884 0.957 0.26183 0.0
C2201 C 0.18662 0.96012 0.26565 0.0
C2202 C 0.24454 0.0234 0.23796 0.0
C2203 C 0.23629 0.98955 0.25006 0.0
C2204 C 0.26993 0.0382 0.23095 0.0
C2205 C 0.31225 0.03504 0.22745 0.0
C2206 C 0.26165 0.00536 0.2415 0.0
C2207 C 0.32777 0.01665 0.23039 0.0
C2208 C 0.25374 0.97165 0.25405 0.0
C2209 C 0.17057 0.97831 0.26188 0.0
N2210 N 0.30254 0.00255 0.23736 0.0
N2211 N 0.1954 0.99231 0.25426 0.0
H2212 H 0.00552 0.94251 0.98833 0.0
H2213 H 0.99073 0.0526 0.01868 0.0
H2214 H 0.10881 0.98114 0.98406 0.0
H2215 H 0.88971 0.01301 0.02555 0.0
H2216 H 0.03544 0.02649 0.00714 0.0
H2217 H 0.96257 0.96836 0.00199 0.0
C2218 C 0.01905 0.95646 0.99004 0.0
C2219 C 0.06076 0.95967 0.98499 0.0
C2220 C 0.00356 0.02352 0.01136 0.0
C2221 C 0.01201 0.98926 0.00091 0.0
C2222 C 0.97814 0.03839 0.01812 0.0
C2223 C 0.93641 0.03499 0.02298 0.0
C2224 C 0.98702 0.00518 0.00945 0.0
C2225 C 0.92164 0.01632 0.02181 0.0
C2226 C 0.99462 0.97119 0.99801 0.0
C2227 C 0.07676 0.97801 0.98773 0.0
N2228 N 0.94683 0.00216 0.01503 0.0
N2229 N 0.05238 0.99211 0.99553 0.0
H2230 H 0.36386 0.23599 0.02055 0.0
H2231 H 0.1373 0.26295 0.9788 0.0
H2232 H 0.26229 0.19632 0.01771 0.0
H2233 H 0.23781 0.30308 0.98303 0.0
H2234 H 0.18324 0.23824 0.99215 0.0
H2235 H 0.31807 0.26079 0.00718 0.0
C2236 C 0.33176 0.23253 0.01736 0.0
C2237 C 0.31687 0.21402 0.02023 0.0
C2238 C 0.19536 0.25241 0.99006 0.0
C2239 C 0.26444 0.24236 0.0046 0.0
C2240 C 0.16921 0.26653 0.9823 0.0
C2241 C 0.18374 0.28514 0.97982 0.0
C2242 C 0.23639 0.25689 0.99544 0.0
C2243 C 0.22536 0.28893 0.98461 0.0
C2244 C 0.3057 0.2467 0.0096 0.0
C2245 C 0.27505 0.21039 0.01581 0.0
N2246 N 0.25019 0.27492 0.99232 0.0
N2247 N 0.25034 0.22443 0.00808 0.0
H2248 H 0.98983 0.69104 0.73696 0.0
H2249 H 0.0053 0.80084 0.76868 0.0
H2250 H 0.8876 0.73024 0.73277 0.0
H2251 H 0.10898 0.76231 0.77035 0.0
H2252 H 0.96079 0.7747 0.75717 0.0
H2253 H 0.03396 0.71687 0.74979 0.0
C2254 C 0.97679 0.7051 0.7385 0.0
C2255 C 0.93502 0.70849 0.73376 0.0
C2256 C 0.99325 0.77195 0.76019 0.0
C2257 C 0.98503 0.73799 0.74872 0.0
C2258 C 0.01858 0.78684 0.76692 0.0
C2259 C 0.06089 0.78375 0.77041 0.0
C2260 C 0.01042 0.75389 0.75695 0.0
C2261 C 0.07653 0.76535 0.76774 0.0
C2262 C 0.0019 0.71981 0.74597 0.0
C2263 C 0.91965 0.72696 0.73624 0.0
N2264 N 0.05132 0.75114 0.76107 0.0
N2265 N 0.94462 0.74099 0.74361 0.0
H2266 H 0.73431 0.94465 0.76646 0.0
H2267 H 0.76329 0.05298 0.73099 0.0
H2268 H 0.63668 0.98635 0.76844 0.0
H2269 H 0.86202 0.01179 0.73052 0.0
H2270 H 0.71588 0.02844 0.74381 0.0
H2271 H 0.78198 0.96913 0.75363 0.0
C2272 C 0.72305 0.95899 0.7645 0.0
C2273 C 0.68147 0.96346 0.76849 0.0
C2274 C 0.74788 0.02476 0.74078 0.0
C2275 C 0.73552 0.99141 0.75348 0.0
C2276 C 0.77486 0.03873 0.73328 0.0
C2277 C 0.81665 0.03443 0.72971 0.0
C2278 C 0.76283 0.00639 0.74471 0.0
C2279 C 0.83004 0.01575 0.73312 0.0
C2280 C 0.75017 0.97292 0.75701 0.0
C2281 C 0.66846 0.98225 0.76551 0.0
N2282 N 0.80324 0.00244 0.74052 0.0
N2283 N 0.69534 0.9955 0.75808 0.0
H2284 H 0.74134 0.80517 0.98472 0.0
H2285 H 0.75306 0.69551 0.01746 0.0
H2286 H 0.63687 0.76715 0.98122 0.0
H2287 H 0.85423 0.73494 0.02488 0.0
H2288 H 0.70925 0.72157 0.00479 0.0
H2289 H 0.78351 0.77925 0.99886 0.0
C2290 C 0.72739 0.79133 0.98667 0.0
C2291 C 0.68556 0.78832 0.98174 0.0
C2292 C 0.74096 0.72451 0.00937 0.0
C2293 C 0.73342 0.75866 0.99823 0.0
C2294 C 0.76585 0.70967 0.01678 0.0
C2295 C 0.80738 0.71304 0.02215 0.0
C2296 C 0.75784 0.74277 0.0073 0.0
C2297 C 0.82245 0.73166 0.02078 0.0
C2298 C 0.75138 0.77656 0.99492 0.0
C2299 C 0.66903 0.77011 0.9848 0.0
N2300 N 0.79779 0.74577 0.01336 0.0
N2301 N 0.69298 0.75598 0.99289 0.0
H2302 H 0.36394 0.51737 0.73411 0.0
H2303 H 0.14096 0.48455 0.77563 0.0
H2304 H 0.25629 0.55356 0.73536 0.0
H2305 H 0.24331 0.44593 0.76738 0.0
H2306 H 0.18508 0.5105 0.76389 0.0
H2307 H 0.32181 0.49135 0.74805 0.0
C2308 C 0.33134 0.5198 0.73713 0.0
C2309 C 0.31354 0.53766 0.73351 0.0
C2310 C 0.19804 0.49639 0.76476 0.0
C2311 C 0.26541 0.50802 0.74976 0.0
C2312 C 0.17292 0.48156 0.77159 0.0
C2313 C 0.18844 0.46302 0.77235 0.0
C2314 C 0.23904 0.49271 0.75859 0.0
C2315 C 0.23013 0.46001 0.76705 0.0
C2316 C 0.30739 0.50496 0.74518 0.0
C2317 C 0.27126 0.54002 0.73779 0.0
N2318 N 0.25398 0.47472 0.76022 0.0
N2319 N 0.24867 0.52537 0.74577 0.0
H2320 H 0.98792 0.55381 0.5184 0.0
H2321 H 0.0126 0.44574 0.48113 0.0
H2322 H 0.88892 0.51274 0.51998 0.0
H2323 H 0.11351 0.48583 0.48226 0.0
H2324 H 0.96632 0.47049 0.49446 0.0
H2325 H 0.03485 0.52908 0.50548 0.0
C2326 C 0.9762 0.53955 0.51635 0.0
C2327 C 0.93445 0.53534 0.52023 0.0
C2328 C -0.00144 0.47389 0.49168 0.0
C2329 C 0.98764 0.50711 0.50511 0.0
C2330 C 0.02491 0.4598 0.4839 0.0
C2331 C 0.06696 0.46372 0.4806 0.0
C2332 C 0.0144 0.49201 0.49616 0.0
C2333 C 0.0813 0.48217 0.48462 0.0
C2334 C 0.0029 0.52547 0.5088 0.0
C2335 C 0.92085 0.51665 0.51712 0.0
N2336 N 0.05509 0.49561 0.49227 0.0
N2337 N 0.94732 0.50327 0.50963 0.0
H2338 H 0.25693 0.69506 0.51798 0.0
H2339 H 0.2342 0.80349 0.48172 0.0
H2340 H 0.35888 0.73457 0.51579 0.0
H2341 H 0.13255 0.76381 0.48361 0.0
H2342 H 0.28074 0.77828 0.4937 0.0
H2343 H 0.21054 0.72028 0.50596 0.0
C2344 C 0.26947 0.70908 0.51523 0.0
C2345 C 0.31181 0.71271 0.51788 0.0
C2346 C 0.24827 0.77509 0.49137 0.0
C2347 C 0.25911 0.74154 0.50383 0.0
C2348 C 0.22176 0.78944 0.48439 0.0
C2349 C 0.17945 0.78575 0.48168 0.0
C2350 C 0.23229 0.75696 0.49568 0.0
C2351 C 0.16495 0.76731 0.48554 0.0
C2352 C 0.24304 0.72344 0.50822 0.0
C2353 C 0.32643 0.73112 0.51392 0.0
N2354 N 0.1913 0.75363 0.49242 0.0
N2355 N 0.30014 0.74482 0.50702 0.0
H2356 H 0.86113 0.51186 0.22587 0.0
H2357 H 0.6365 0.48081 0.26692 0.0
H2358 H 0.75904 0.55083 0.23268 0.0
H2359 H 0.7408 0.44278 0.26287 0.0
H2360 H 0.68023 0.50648 0.25368 0.0
H2361 H 0.81625 0.48613 0.23758 0.0
C2362 C 0.82909 0.51499 0.22959 0.0
C2363 C 0.81384 0.53356 0.22836 0.0
C2364 C 0.69361 0.49255 0.25578 0.0
C2365 C 0.76234 0.50411 0.24209 0.0
C2366 C 0.66872 0.47788 0.26344 0.0
C2367 C 0.68506 0.4596 0.26606 0.0
C2368 C 0.73515 0.48894 0.25062 0.0
C2369 C 0.72696 0.45665 0.26122 0.0
C2370 C 0.80352 0.50027 0.23639 0.0
C2371 C 0.77205 0.53672 0.23333 0.0
N2372 N 0.75053 0.47117 0.25365 0.0
N2373 N 0.74779 0.52214 0.24013 0.0
H2374 H 0.73925 0.30023 0.48174 0.0
H2375 H 0.75561 0.19023 0.5123 0.0
H2376 H 0.63836 0.26051 0.47534 0.0
H2377 H 0.85733 0.22962 0.51781 0.0
H2378 H 0.71202 0.21592 0.49872 0.0
H2379 H 0.78395 0.27431 0.49375 0.0
C2380 C 0.72669 0.28603 0.48252 0.0
C2381 C 0.68502 0.28253 0.47763 0.0
C2382 C 0.74385 0.21894 0.50299 0.0
C2383 C 0.7356 0.25294 0.4917 0.0
C2384 C 0.76863 0.20431 0.51091 0.0
C2385 C 0.81011 0.20779 0.51622 0.0
C2386 C 0.76073 0.23715 0.50039 0.0
C2387 C 0.82549 0.22628 0.5139 0.0
C2388 C 0.75209 0.27127 0.48955 0.0
C2389 C 0.67027 0.26388 0.47909 0.0
N2390 N 0.80082 0.24025 0.5061 0.0
N2391 N 0.69546 0.24981 0.48612 0.0
H2392 H 0.48754 0.19906 0.73264 0.0
H2393 H 0.50987 0.30758 0.76828 0.0
H2394 H 0.38509 0.2383 0.73364 0.0
H2395 H 0.60765 0.26619 0.77368 0.0
H2396 H 0.46321 0.28258 0.75561 0.0
H2397 H 0.53262 0.22407 0.7464 0.0
C2398 C 0.47463 0.21299 0.73549 0.0
C2399 C 0.43252 0.2166 0.73199 0.0
C2400 C 0.49481 0.27898 0.75976 0.0
C2401 C 0.48375 0.24521 0.74803 0.0
C2402 C 0.52133 0.29321 0.76716 0.0
C2403 C 0.56272 0.28898 0.77195 0.0
C2404 C 0.50994 0.26047 0.7571 0.0
C2405 C 0.57603 0.27013 0.77004 0.0
C2406 C 0.5003 0.22723 0.74352 0.0
C2407 C 0.41741 0.23489 0.73613 0.0
N2408 N 0.54981 0.25662 0.76261 0.0
N2409 N 0.443 0.24851 0.74398 0.0
H2410 H 0.4914 0.05664 0.5145 0.0
H2411 H 0.50373 0.94711 0.48187 0.0
H2412 H 0.38586 0.01913 0.51615 0.0
H2413 H 0.60404 0.98691 0.47378 0.0
H2414 H 0.45935 0.97313 0.49412 0.0
H2415 H 0.53351 0.03072 0.50047 0.0
C2416 C 0.47719 0.0429 0.51214 0.0
C2417 C 0.4351 0.04004 0.51653 0.0
C2418 C 0.49098 0.97615 0.48946 0.0
C2419 C 0.48294 0.01036 0.50019 0.0
C2420 C 0.5162 0.96134 0.48231 0.0
C2421 C 0.55767 0.96485 0.47692 0.0
C2422 C 0.50752 0.9945 0.49125 0.0
C2423 C 0.57233 0.98353 0.47794 0.0
C2424 C 0.50116 0.02813 0.50395 0.0
C2425 C 0.41824 0.02196 0.51299 0.0
N2426 N 0.54738 0.99761 0.48514 0.0
N2427 N 0.44222 0.0078 0.50499 0.0
H2428 H 0.50255 0.80692 0.26296 0.0
H2429 H 0.48624 0.69763 0.22893 0.0
H2430 H 0.60599 0.76824 0.26368 0.0
H2431 H 0.38268 0.73625 0.22889 0.0
H2432 H 0.5313 0.72363 0.24034 0.0
H2433 H 0.45815 0.7812 0.25014 0.0
C2434 C 0.51584 0.79299 0.26064 0.0
C2435 C 0.55801 0.78972 0.26445 0.0
C2436 C 0.49875 0.72642 0.23769 0.0
C2437 C 0.50757 0.76031 0.24951 0.0
C2438 C 0.47309 0.71161 0.23102 0.0
C2439 C 0.43064 0.71476 0.228 0.0
C2440 C 0.4818 0.74447 0.24135 0.0
C2441 C 0.41521 0.73314 0.23111 0.0
C2442 C 0.49054 0.77834 0.25319 0.0
C2443 C 0.57363 0.77141 0.26098 0.0
N2444 N 0.44074 0.74727 0.23771 0.0
N2445 N 0.54843 0.75742 0.25366 0.0
H2446 H 0.50735 0.4458 0.9814 0.0
H2447 H 0.48503 0.55409 0.01852 0.0
H2448 H 0.6075 0.48628 0.97988 0.0
H2449 H 0.38415 0.51398 0.01898 0.0
H2450 H 0.5309 0.52915 0.00516 0.0
H2451 H 0.4613 0.47071 0.99473 0.0
C2452 C 0.51951 0.45997 0.98355 0.0
C2453 C 0.56132 0.46396 0.97954 0.0
C2454 C 0.49877 0.52579 0.00831 0.0
C2455 C 0.5091 0.4924 0.99514 0.0
C2456 C 0.47266 0.53999 0.01611 0.0
C2457 C 0.43071 0.53612 0.01984 0.0
C2458 C 0.48277 0.50762 0.00423 0.0
C2459 C 0.41628 0.51762 0.01627 0.0
C2460 C 0.49331 0.47415 0.99134 0.0
C2461 C 0.57549 0.48254 0.98281 0.0
N2462 N 0.44222 0.50409 0.00857 0.0
N2463 N 0.54949 0.49604 0.99051 0.0
H2464 H 0.12572 0.3658 0.43784 0.0
H2465 H 0.13296 0.38985 0.31025 0.0
H2466 H 0.15192 0.42162 0.41251 0.0
H2467 H 0.13003 0.33298 0.33616 0.0
H2468 H 0.13094 0.4022 0.34747 0.0
H2469 H 0.11848 0.35419 0.4006 0.0
C2470 C 0.12977 0.37568 0.42448 0.0
C2471 C 0.13971 0.39475 0.42841 0.0
C2472 C 0.13052 0.38703 0.34499 0.0
C2473 C 0.13137 0.38141 0.38556 0.0
C2474 C 0.13154 0.37993 0.32372 0.0
C2475 C 0.13194 0.3603 0.32 0.0
C2476 C 0.12968 0.37444 0.36271 0.0
C2477 C 0.12995 0.34821 0.33817 0.0
C2478 C 0.12566 0.36899 0.40318 0.0
C2479 C 0.1444 0.40681 0.41033 0.0
N2480 N 0.12906 0.35547 0.35872 0.0
N2481 N 0.14031 0.39992 0.3897 0.0
H2482 H 0.11424 0.91697 0.33635 0.0
H2483 H 0.09443 0.82661 0.41397 0.0
H2484 H 0.11236 0.85952 0.31218 0.0
H2485 H 0.11773 0.88324 0.43763 0.0
H2486 H 0.10141 0.83825 0.37655 0.0
H2487 H 0.11633 0.90476 0.37359 0.0
C2488 C 0.11459 0.90179 0.33882 0.0
C2489 C 0.1129 0.88928 0.32103 0.0
C2490 C 0.10525 0.84808 0.38996 0.0
C2491 C 0.11491 0.87519 0.36375 0.0
C2492 C 0.10122 0.84145 0.41135 0.0
C2493 C 0.10529 0.85395 0.42905 0.0
C2494 C 0.1131 0.86737 0.38621 0.0
C2495 C 0.11417 0.87305 0.42457 0.0
C2496 C 0.11577 0.89482 0.36013 0.0
C2497 C 0.11349 0.86974 0.32534 0.0
N2498 N 0.1175 0.87917 0.40363 0.0
N2499 N 0.11411 0.86331 0.34625 0.0
H2500 H 0.11839 0.88271 0.81207 0.0
H2501 H 0.13234 0.85847 0.93937 0.0
H2502 H 0.14636 0.8269 0.83687 0.0
H2503 H 0.12934 0.91539 0.91361 0.0
H2504 H 0.12801 0.84618 0.90219 0.0
H2505 H 0.11297 0.89424 0.84941 0.0
C2506 C 0.12319 0.87281 0.82533 0.0
C2507 C 0.13314 0.85377 0.82123 0.0
C2508 C 0.12808 0.86135 0.90471 0.0
C2509 C 0.12691 0.86702 0.86419 0.0
C2510 C 0.13044 0.86841 0.92595 0.0
C2511 C 0.13151 0.88804 0.92968 0.0
C2512 C 0.12655 0.87397 0.88703 0.0
C2513 C 0.12881 0.90017 0.91157 0.0
C2514 C 0.12013 0.87946 0.84669 0.0
C2515 C 0.13881 0.84169 0.8392 0.0
N2516 N 0.12661 0.89294 0.89105 0.0
N2517 N 0.13574 0.84854 0.85989 0.0
H2518 H 0.10281 0.41947 0.83689 0.0
H2519 H 0.09909 0.32733 0.91238 0.0
H2520 H 0.11733 0.36276 0.81164 0.0
H2521 H 0.11366 0.38405 0.93764 0.0
H2522 H 0.1038 0.33998 0.87529 0.0
H2523 H 0.10484 0.40672 0.87396 0.0
C2524 C 0.10665 0.40436 0.8391 0.0
C2525 C 0.10979 0.39219 0.82104 0.0
C2526 C 0.10622 0.34962 0.88898 0.0
C2527 C 0.11179 0.37748 0.86351 0.0
C2528 C 0.10348 0.34241 0.91017 0.0
C2529 C 0.10586 0.35462 0.92823 0.0
C2530 C 0.11095 0.3692 0.88577 0.0
C2531 C 0.11159 0.37405 0.92429 0.0
C2532 C 0.10784 0.39709 0.86029 0.0
C2533 C 0.11474 0.37272 0.825 0.0
N2534 N 0.11366 0.38073 0.90352 0.0
N2535 N 0.11529 0.36597 0.84578 0.0
H2536 H 0.85542 0.60766 0.68966 0.0
H2537 H 0.86998 0.63223 0.56227 0.0
H2538 H 0.86351 0.66452 0.66405 0.0
H2539 H 0.84271 0.57628 0.58688 0.0
H2540 H 0.87553 0.64364 0.59968 0.0
H2541 H 0.85874 0.59539 0.65239 0.0
C2542 C 0.85823 0.61759 0.67626 0.0
C2543 C 0.85893 0.6372 0.68007 0.0
C2544 C 0.86848 0.62885 0.59691 0.0
C2545 C 0.86267 0.62318 0.63731 0.0
C2546 C 0.86535 0.62228 0.5755 0.0
C2547 C 0.85563 0.60323 0.57132 0.0
C2548 C 0.86197 0.61634 0.61438 0.0
C2549 C 0.85011 0.59108 0.58926 0.0
C2550 C 0.86 0.61055 0.65496 0.0
C2551 C 0.86268 0.64931 0.66198 0.0
N2552 N 0.85324 0.59785 0.60999 0.0
N2553 N 0.86426 0.64211 0.64142 0.0
H2554 H 0.87888 0.13144 0.68804 0.0
H2555 H 0.88984 0.10692 0.56054 0.0
H2556 H 0.9064 0.07561 0.66316 0.0
H2557 H 0.88312 0.16381 0.58615 0.0
H2558 H 0.88775 0.09468 0.59784 0.0
H2559 H 0.87237 0.14288 0.65067 0.0
C2560 C 0.88338 0.12152 0.67476 0.0
C2561 C 0.89344 0.1025 0.67885 0.0
C2562 C 0.88652 0.10984 0.59527 0.0
C2563 C 0.88596 0.11564 0.63585 0.0
C2564 C 0.88759 0.11686 0.57395 0.0
C2565 C 0.8869 0.13647 0.57012 0.0
C2566 C 0.88456 0.12248 0.61293 0.0
C2567 C 0.8839 0.1486 0.58823 0.0
C2568 C 0.87969 0.12811 0.65338 0.0
C2569 C 0.89876 0.09039 0.66086 0.0
N2570 N 0.88298 0.14141 0.60881 0.0
N2571 N 0.89506 0.09718 0.64016 0.0
H2572 H 0.84376 0.17075 0.16201 0.0
H2573 H 0.84663 0.07811 0.08708 0.0
H2574 H 0.85831 0.11418 0.18764 0.0
H2575 H 0.86021 0.13474 0.06144 0.0
H2576 H 0.84838 0.09108 0.12407 0.0
H2577 H 0.84723 0.15785 0.12499 0.0
C2578 C 0.84785 0.15565 0.15991 0.0
C2579 C 0.85068 0.14357 0.17806 0.0
C2580 C 0.85119 0.10064 0.11033 0.0
C2581 C 0.85436 0.12869 0.13565 0.0
C2582 C 0.85016 0.09324 0.08918 0.0
C2583 C 0.85322 0.10532 0.07103 0.0
C2584 C 0.8549 0.12028 0.11342 0.0
C2585 C 0.85774 0.12484 0.07486 0.0
C2586 C 0.84988 0.14829 0.13874 0.0
C2587 C 0.85596 0.12409 0.17422 0.0
N2588 N 0.85819 0.1317 0.0956 0.0
N2589 N 0.85738 0.11727 0.15349 0.0
H2590 H 0.89566 0.66999 0.08823 0.0
H2591 H 0.89979 0.57729 0.16305 0.0
H2592 H 0.88379 0.61327 0.0626 0.0
H2593 H 0.88435 0.63377 0.18884 0.0
H2594 H 0.89607 0.59024 0.12608 0.0
H2595 H 0.89362 0.65704 0.12524 0.0
C2596 C 0.89242 0.65484 0.09033 0.0
C2597 C 0.88997 0.64274 0.07218 0.0
C2598 C 0.89327 0.59977 0.13985 0.0
C2599 C 0.88795 0.6278 0.11459 0.0
C2600 C 0.89543 0.59239 0.16099 0.0
C2601 C 0.89246 0.60443 0.17917 0.0
C2602 C 0.8885 0.61937 0.13681 0.0
C2603 C 0.88683 0.62389 0.17539 0.0
C2604 C 0.89123 0.64745 0.1115 0.0
C2605 C 0.88582 0.6232 0.07602 0.0
N2606 N 0.88529 0.63075 0.15467 0.0
N2607 N 0.8852 0.61636 0.09676 0.0
H2608 H 0.6516 0.42252 0.91217 0.0
H2609 H 0.65092 0.33051 0.83631 0.0
H2610 H 0.63284 0.36582 0.9367 0.0
H2611 H 0.64255 0.38739 0.81079 0.0
H2612 H 0.64635 0.34328 0.87328 0.0
H2613 H 0.65006 0.41003 0.87492 0.0
C2614 C 0.6469 0.40748 0.90977 0.0
C2615 C 0.64246 0.39523 0.92769 0.0
C2616 C 0.64531 0.35295 0.85958 0.0
C2617 C 0.64106 0.38083 0.88504 0.0
C2618 C 0.648 0.34567 0.83843 0.0
C2619 C 0.64721 0.35786 0.82033 0.0
C2620 C 0.6422 0.3726 0.86274 0.0
C2621 C 0.6433 0.3774 0.82419 0.0
C2622 C 0.64603 0.40036 0.88848 0.0
C2623 C 0.63648 0.37586 0.92348 0.0
N2624 N 0.64119 0.38416 0.84495 0.0
N2625 N 0.63624 0.36927 0.90264 0.0
H2626 H 0.61511 0.89016 0.93703 0.0
H2627 H 0.61297 0.86627 0.80935 0.0
H2628 H 0.61222 0.83332 0.91104 0.0
H2629 H 0.59315 0.92245 0.83519 0.0
H2630 H 0.62093 0.85441 0.84645 0.0
H2631 H 0.61567 0.90253 0.89981 0.0
C2632 C 0.61496 0.88024 0.92354 0.0
C2633 C 0.61336 0.86062 0.92725 0.0
C2634 C 0.61496 0.86934 0.84401 0.0
C2635 C 0.6139 0.87478 0.88453 0.0
C2636 C 0.61043 0.87617 0.82279 0.0
C2637 C 0.60215 0.89543 0.81905 0.0
C2638 C 0.61136 0.88181 0.86174 0.0
C2639 C 0.59934 0.9075 0.83723 0.0
C2640 C 0.61513 0.88735 0.90227 0.0
C2641 C 0.61331 0.84853 0.90904 0.0
N2642 N 0.60386 0.90048 0.85777 0.0
N2643 N 0.6134 0.85581 0.8885 0.0
H2644 H 0.62483 0.86614 0.43722 0.0
H2645 H 0.63083 0.89034 0.30965 0.0
H2646 H 0.64593 0.92235 0.41173 0.0
H2647 H 0.63197 0.83339 0.33535 0.0
H2648 H 0.62772 0.90255 0.34687 0.0
H2649 H 0.61906 0.85429 0.39997 0.0
C2650 C 0.62806 0.87605 0.42383 0.0
C2651 C 0.63611 0.89531 0.4277 0.0
C2652 C 0.62845 0.88738 0.34435 0.0
C2653 C 0.62946 0.88172 0.38488 0.0
C2654 C 0.6301 0.88036 0.32307 0.0
C2655 C 0.63193 0.86076 0.31928 0.0
C2656 C 0.62845 0.87474 0.36204 0.0
C2657 C 0.63076 0.84859 0.33742 0.0
C2658 C 0.62481 0.86922 0.40253 0.0
C2659 C 0.63988 0.9074 0.40959 0.0
N2660 N 0.62925 0.85579 0.35799 0.0
N2661 N 0.63661 0.90039 0.38899 0.0
H2662 H 0.62045 0.38133 0.43785 0.0
H2663 H 0.61364 0.35763 0.31012 0.0
H2664 H 0.59717 0.32533 0.41227 0.0
H2665 H 0.61358 0.41445 0.33621 0.0
H2666 H 0.61618 0.34522 0.3473 0.0
H2667 H 0.62632 0.39321 0.40063 0.0
C2668 C 0.61675 0.37147 0.42445 0.0
C2669 C 0.60807 0.35226 0.4283 0.0
C2670 C 0.61582 0.3604 0.34487 0.0
C2671 C 0.61485 0.3659 0.38548 0.0
C2672 C 0.6145 0.36753 0.32362 0.0
C2673 C 0.61315 0.38716 0.31995 0.0
C2674 C 0.61601 0.37295 0.36264 0.0
C2675 C 0.61442 0.39923 0.33817 0.0
C2676 C 0.62006 0.37831 0.40316 0.0
C2677 C 0.60373 0.34024 0.41016 0.0
N2678 N 0.61564 0.39193 0.3587 0.0
N2679 N 0.60708 0.34727 0.38955 0.0
H2680 H 0.3453 0.67105 0.16221 0.0
H2681 H 0.34547 0.57852 0.08738 0.0
H2682 H 0.36379 0.61466 0.18771 0.0
H2683 H 0.3592 0.63515 0.06171 0.0
H2684 H 0.3494 0.59145 0.12439 0.0
H2685 H 0.34767 0.65813 0.12519 0.0
C2686 C 0.35009 0.656 0.16007 0.0
C2687 C 0.35424 0.64396 0.17817 0.0
C2688 C 0.35179 0.601 0.11062 0.0
C2689 C 0.35659 0.62906 0.13582 0.0
C2690 C 0.3495 0.59363 0.08948 0.0
C2691 C 0.3519 0.60573 0.07134 0.0
C2692 C 0.35608 0.62062 0.11366 0.0
C2693 C 0.35713 0.62522 0.07513 0.0
C2694 C 0.35147 0.64863 0.13891 0.0
C2695 C 0.36037 0.62453 0.17431 0.0
N2696 N 0.35877 0.63205 0.09584 0.0
N2697 N 0.36107 0.61769 0.1536 0.0
H2698 H 0.37918 0.1355 0.18801 0.0
H2699 H 0.38493 0.11381 0.06012 0.0
H2700 H 0.39812 0.07951 0.16145 0.0
H2701 H 0.39951 0.16992 0.08715 0.0
H2702 H 0.38039 0.10106 0.097 0.0
H2703 H 0.37714 0.14818 0.15105 0.0
C2704 C 0.38268 0.12581 0.17444 0.0
C2705 C 0.38904 0.10635 0.17794 0.0
C2706 C 0.38449 0.11616 0.09485 0.0
C2707 C 0.38664 0.12092 0.13545 0.0
C2708 C 0.38698 0.12351 0.07377 0.0
C2709 C 0.39281 0.14302 0.07044 0.0
C2710 C 0.3875 0.12838 0.11283 0.0
C2711 C 0.39515 0.1548 0.08887 0.0
C2712 C 0.38163 0.13312 0.15331 0.0
C2713 C 0.39327 0.09458 0.1596 0.0
N2714 N 0.3925 0.14728 0.10927 0.0
N2715 N 0.39203 0.10206 0.13914 0.0
H2716 H 0.37862 0.11829 0.68821 0.0
H2717 H 0.37117 0.14239 0.56077 0.0
H2718 H 0.35088 0.17402 0.66306 0.0
H2719 H 0.37005 0.08553 0.58676 0.0
H2720 H 0.37437 0.15474 0.59797 0.0
H2721 H 0.38603 0.1068 0.65096 0.0
C2722 C 0.37429 0.12819 0.67489 0.0
C2723 C 0.36377 0.14718 0.67885 0.0
C2724 C 0.37367 0.13957 0.59549 0.0
C2725 C 0.37233 0.13397 0.63602 0.0
C2726 C 0.37198 0.13247 0.57425 0.0
C2727 C 0.37 0.11285 0.57058 0.0
C2728 C 0.37367 0.12699 0.61322 0.0
C2729 C 0.37128 0.10075 0.58875 0.0
C2730 C 0.37849 0.12156 0.65359 0.0
C2731 C 0.35879 0.15926 0.66082 0.0
N2732 N 0.37288 0.10802 0.60927 0.0
N2733 N 0.36298 0.15243 0.64018 0.0
H2734 H 0.37251 0.64023 0.68801 0.0
H2735 H 0.37089 0.61473 0.56088 0.0
H2736 H 0.37864 0.58312 0.66296 0.0
H2737 H 0.39406 0.67105 0.58557 0.0
H2738 H 0.36326 0.60345 0.59823 0.0
H2739 H 0.36974 0.65209 0.6506 0.0
C2740 C 0.3729 0.63015 0.67469 0.0
C2741 C 0.37615 0.61062 0.67869 0.0
C2742 C 0.36986 0.61829 0.59547 0.0
C2743 C 0.37299 0.62419 0.63581 0.0
C2744 C 0.37418 0.62479 0.57412 0.0
C2745 C 0.38345 0.64389 0.57 0.0
C2746 C 0.37462 0.63095 0.61293 0.0
C2747 C 0.38714 0.6562 0.58792 0.0
C2748 C 0.37145 0.63697 0.65333 0.0
C2749 C 0.37638 0.59829 0.66071 0.0
N2750 N 0.38283 0.64949 0.60861 0.0
N2751 N 0.375 0.60529 0.64007 0.0
H2752 H 0.278 0.3533 0.2936 0.0
H2753 H 0.47872 0.37645 0.22519 0.0
H2754 H 0.26895 0.36978 0.22591 0.0
H2755 H 0.46623 0.39415 0.29233 0.0
H2756 H 0.40512 0.36759 0.22502 0.0
H2757 H 0.35118 0.36226 0.29338 0.0
C2758 C 0.29147 0.35885 0.27872 0.0
C2759 C 0.26759 0.36094 0.25977 0.0
C2760 C 0.41872 0.37339 0.23974 0.0
C2761 C 0.35099 0.37072 0.25931 0.0
C2762 C 0.46057 0.37827 0.23992 0.0
C2763 C 0.47832 0.386 0.25881 0.0
C2764 C 0.39508 0.37585 0.25874 0.0
C2765 C 0.45355 0.38828 0.27743 0.0
C2766 C 0.33305 0.36396 0.27863 0.0
C2767 C 0.28639 0.36817 0.24089 0.0
N2768 N 0.41317 0.38308 0.27699 0.0
N2769 N 0.3273 0.37264 0.24105 0.0
H2770 H 0.77858 0.85356 0.29316 0.0
H2771 H 0.98009 0.8769 0.22572 0.0
H2772 H 0.77012 0.87068 0.22566 0.0
H2773 H 0.96639 0.89538 0.29251 0.0
H2774 H 0.90653 0.86797 0.22534 0.0
H2775 H 0.85176 0.86263 0.29324 0.0
C2776 C 0.7922 0.85926 0.27838 0.0
C2777 C 0.76848 0.86151 0.2594 0.0
C2778 C 0.91986 0.87395 0.24003 0.0
C2779 C 0.85183 0.8714 0.25928 0.0
C2780 C 0.96167 0.87887 0.24033 0.0
C2781 C 0.97907 0.88684 0.25918 0.0
C2782 C 0.89589 0.87659 0.25888 0.0
C2783 C 0.95397 0.88933 0.27764 0.0
C2784 C 0.83375 0.86444 0.27847 0.0
C2785 C 0.78743 0.86894 0.24066 0.0
N2786 N 0.91362 0.88405 0.2771 0.0
N2787 N 0.82831 0.87345 0.24098 0.0
H2788 H 0.27963 0.89536 0.95511 0.0
H2789 H 0.48116 0.87175 0.02266 0.0
H2790 H 0.27144 0.87817 0.02261 0.0
H2791 H 0.46794 0.85457 0.95538 0.0
H2792 H 0.40762 0.88068 0.02311 0.0
H2793 H 0.35291 0.88656 0.95502 0.0
C2794 C 0.29332 0.88968 0.96988 0.0
C2795 C 0.26965 0.88734 0.98887 0.0
C2796 C 0.42106 0.87499 0.00829 0.0
C2797 C 0.35313 0.87776 0.98897 0.0
C2798 C 0.46287 0.87008 0.00796 0.0
C2799 C 0.48037 0.86246 0.98895 0.0
C2800 C 0.39723 0.87268 0.98933 0.0
C2801 C 0.45543 0.86035 0.97037 0.0
C2802 C 0.33494 0.88467 0.96979 0.0
C2803 C 0.28871 0.87997 0.00759 0.0
N2804 N 0.41509 0.86558 0.97097 0.0
N2805 N 0.32964 0.8756 0.00727 0.0
H2806 H 0.94644 0.33043 0.98451 0.0
H2807 H 0.79924 0.41938 0.98622 0.0
H2808 H 0.99115 0.38605 0.00199 0.0
H2809 H 0.75431 0.3632 0.0009 0.0
H2810 H 0.86993 0.40749 0.98766 0.0
H2811 H 0.87575 0.34229 0.98613 0.0
C2812 C 0.9415 0.34511 0.98881 0.0
C2813 C 0.97489 0.35723 0.99328 0.0
C2814 C 0.84456 0.39783 0.99072 0.0
C2815 C 0.89396 0.3709 0.99474 0.0
C2816 C 0.80414 0.40457 0.98987 0.0
C2817 C 0.77069 0.39229 0.99358 0.0
C2818 C 0.8516 0.3786 0.99483 0.0
C2819 C 0.77912 0.37319 0.99806 0.0
C2820 C 0.90107 0.35183 0.98976 0.0
C2821 C 0.96638 0.37617 0.99854 0.0
N2822 N 0.81881 0.36688 0.99836 0.0
N2823 N 0.9267 0.38248 0.99895 0.0
H2824 H 0.7116 0.64787 0.70625 0.0
H2825 H 0.50935 0.62436 0.77421 0.0
H2826 H 0.71915 0.62973 0.77345 0.0
H2827 H 0.52101 0.61042 0.70589 0.0
H2828 H 0.58297 0.63334 0.77473 0.0
H2829 H 0.63763 0.64064 0.70636 0.0
C2830 C 0.69763 0.64231 0.72101 0.0
C2831 C 0.72136 0.63924 0.73984 0.0
C2832 C 0.56912 0.62843 0.75965 0.0
C2833 C 0.63699 0.63141 0.74017 0.0
C2834 C 0.52727 0.62353 0.75929 0.0
C2835 C 0.50943 0.61671 0.73997 0.0
C2836 C 0.59258 0.62687 0.74045 0.0
C2837 C 0.53383 0.61559 0.7211 0.0
C2838 C 0.65556 0.63821 0.72104 0.0
C2839 C 0.70185 0.63206 0.75854 0.0
N2840 N 0.57421 0.62071 0.72178 0.0
N2841 N 0.66051 0.62852 0.75832 0.0
H2842 H 0.008 0.13533 0.75035 0.0
H2843 H 0.24887 0.11214 0.7521 0.0
H2844 H 0.05525 0.07923 0.7375 0.0
H2845 H 0.20011 0.16667 0.73319 0.0
H2846 H 0.17796 0.09983 0.75347 0.0
H2847 H 0.07908 0.14722 0.75106 0.0
C2848 C 0.03324 0.12548 0.74783 0.0
C2849 C 0.02562 0.10624 0.74387 0.0
C2850 C 0.18305 0.1145 0.7491 0.0
C2851 C 0.10673 0.11972 0.74486 0.0
C2852 C 0.22338 0.12154 0.74836 0.0
C2853 C 0.23051 0.14051 0.74264 0.0
C2854 C 0.14976 0.1266 0.74445 0.0
C2855 C 0.19625 0.15202 0.73782 0.0
C2856 C 0.07371 0.13229 0.74817 0.0
C2857 C 0.05959 0.09415 0.74063 0.0
N2858 N 0.15737 0.14491 0.73897 0.0
N2859 N 0.09873 0.10109 0.74129 0.0
H2860 H 0.55162 0.16725 0.0148 0.0
H2861 H 0.69902 0.07896 0.01049 0.0
H2862 H 0.5063 0.11234 0.99497 0.0
H2863 H 0.74322 0.13534 0.99625 0.0
H2864 H 0.62812 0.09058 0.00875 0.0
H2865 H 0.62213 0.15548 0.01219 0.0
C2866 C 0.55637 0.15275 0.00976 0.0
C2867 C 0.52284 0.14081 0.00493 0.0
C2868 C 0.65339 0.10033 0.0058 0.0
C2869 C 0.60371 0.12721 0.00234 0.0
C2870 C 0.69392 0.09375 0.00684 0.0
C2871 C 0.72723 0.10618 0.00343 0.0
C2872 C 0.6461 0.11956 0.00186 0.0
C2873 C 0.71853 0.12524 0.9989 0.0
C2874 C 0.59673 0.14608 0.00823 0.0
C2875 C 0.53118 0.12207 0.99873 0.0
N2876 N 0.67874 0.13141 0.99849 0.0
N2877 N 0.57088 0.11577 0.99781 0.0
H2878 H 0.19459 0.58146 0.01399 0.0
H2879 H 0.04487 0.66901 0.01404 0.0
H2880 H 0.23857 0.63734 0.99716 0.0
H2881 H 0.00231 0.61307 0.99644 0.0
H2882 H 0.11606 0.65782 0.01203 0.0
H2883 H 0.12379 0.59292 0.01185 0.0
C2884 C 0.18948 0.59611 0.0097 0.0
C2885 C 0.22273 0.60842 0.00558 0.0
C2886 C 0.09109 0.64808 0.00842 0.0
C2887 C 0.14152 0.62166 0.00356 0.0
C2888 C 0.05038 0.65441 0.00959 0.0
C2889 C 0.01743 0.64199 0.00528 0.0
C2890 C 0.09892 0.62908 0.00341 0.0
C2891 C 0.02669 0.62317 -0.0002 0.0
C2892 C 0.14896 0.60261 0.00845 0.0
C2893 C 0.21392 0.62734 0.00034 0.0
N2894 N 0.06663 0.61723 0.99925 0.0
N2895 N 0.17407 0.63345 -0.00031 0.0
H2896 H 0.44088 0.92125 0.76198 0.0
H2897 H 0.29345 0.8326 0.76504 0.0
H2898 H 0.48402 0.86494 0.74656 0.0
H2899 H 0.24722 0.88786 0.74719 0.0
H2900 H 0.36368 0.84466 0.76283 0.0
H2901 H 0.36975 0.90969 0.76087 0.0
C2902 C 0.4355 0.90649 0.75824 0.0
C2903 C 0.46857 0.89406 0.75427 0.0
C2904 C 0.33816 0.8541 0.75924 0.0
C2905 C 0.38729 0.88078 0.75339 0.0
C2906 C 0.29794 0.84726 0.76052 0.0
C2907 C 0.26421 0.85919 0.75608 0.0
C2908 C 0.34489 0.87312 0.75396 0.0
C2909 C 0.27226 0.87813 0.75061 0.0
C2910 C 0.39485 0.89995 0.75756 0.0
C2911 C 0.45955 0.87505 0.74964 0.0
N2912 N 0.31189 0.88459 0.74987 0.0
N2913 N 0.41972 0.86894 0.74954 0.0
H2914 H 0.80306 0.32986 0.76161 0.0
H2915 H 0.95413 0.41691 0.76269 0.0
H2916 H 0.76189 0.3862 0.74489 0.0
H2917 H 0.99782 0.361 0.74583 0.0
H2918 H 0.88333 0.40564 0.76008 0.0
H2919 H 0.87457 0.3407 0.75957 0.0
C2920 C 0.80895 0.34447 0.75735 0.0
C2921 C 0.77631 0.35713 0.75335 0.0
C2922 C 0.90842 0.39589 0.75676 0.0
C2923 C 0.85811 0.36961 0.75139 0.0
C2924 C 0.94896 0.40228 0.75828 0.0
C2925 C 0.98214 0.38992 0.75431 0.0
C2926 C 0.90082 0.37688 0.75174 0.0
C2927 C 0.97322 0.37104 0.74891 0.0
C2928 C 0.84983 0.3506 0.75614 0.0
C2929 C 0.78602 0.37593 0.74804 0.0
N2930 N 0.93329 0.36502 0.748 0.0
N2931 N 0.8261 0.38166 0.74745 0.0
H2932 H 0.30207 0.4167 0.4836 0.0
H2933 H 0.44816 0.32762 0.48665 0.0
H2934 H 0.25605 0.36148 0.50185 0.0
H2935 H 0.49323 0.3838 0.50122 0.0
H2936 H 0.3775 0.33954 0.48799 0.0
H2937 H 0.37241 0.40463 0.48564 0.0
C2938 C 0.30663 0.40206 0.48815 0.0
C2939 C 0.27296 0.39013 0.49274 0.0
C2940 C 0.4029 0.34919 0.49106 0.0
C2941 C 0.35362 0.3762 0.49469 0.0
C2942 C 0.4433 0.34243 0.49027 0.0
C2943 C 0.47679 0.35471 0.49394 0.0
C2944 C 0.39591 0.36843 0.49507 0.0
C2945 C 0.4684 0.37381 0.49838 0.0
C2946 C 0.3469 0.39522 0.48935 0.0
C2947 C 0.28105 0.37121 0.4983 0.0
N2948 N 0.42873 0.38014 0.49861 0.0
N2949 N 0.32064 0.36477 0.49894 0.0
H2950 H 0.94388 0.83238 0.48486 0.0
H2951 H 0.79561 0.92083 0.4856 0.0
H2952 H 0.98862 0.88815 0.5017 0.0
H2953 H 0.75195 0.86463 0.5012 0.0
H2954 H 0.8666 0.90931 0.48725 0.0
H2955 H 0.87329 0.84417 0.48643 0.0
C2956 C 0.93898 0.84709 0.48901 0.0
C2957 C 0.97238 0.85925 0.49334 0.0
C2958 C 0.84143 0.89957 0.49047 0.0
C2959 C 0.89139 0.87286 0.49474 0.0
C2960 C 0.80085 0.9061 0.4895 0.0
C2961 C 0.76765 0.8937 0.49339 0.0
C2962 C 0.8489 0.88043 0.49487 0.0
C2963 C 0.77653 0.87471 0.49819 0.0
C2964 C 0.89857 0.85377 0.48993 0.0
C2965 C 0.96385 0.87824 0.49837 0.0
N2966 N 0.81636 0.8686 0.4986 0.0
N2967 N 0.9241 0.88452 0.49876 0.0
H2968 H 0.49941 0.1381 0.25311 0.0
H2969 H 0.73953 0.11287 0.25319 0.0
H2970 H 0.54615 0.08287 0.23555 0.0
H2971 H 0.69435 0.16875 0.23733 0.0
H2972 H 0.66793 0.10162 0.25469 0.0
H2973 H 0.57088 0.14968 0.2551 0.0
C2974 C 0.52457 0.12838 0.24985 0.0
C2975 C 0.5167 0.10945 0.24422 0.0
C2976 C 0.6739 0.11637 0.25101 0.0
C2977 C 0.59807 0.12253 0.24676 0.0
C2978 C 0.71466 0.12281 0.25022 0.0
C2979 C 0.72303 0.1418 0.24513 0.0
C2980 C 0.64136 0.12906 0.24707 0.0
C2981 C 0.68948 0.15402 0.24134 0.0
C2982 C 0.56522 0.135 0.25094 0.0
C2983 C 0.55057 0.09752 0.24005 0.0
N2984 N 0.65009 0.14746 0.24246 0.0
N2985 N 0.58976 0.10423 0.24152 0.0
H2986 H 0.00425 0.6353 0.2539 0.0
H2987 H 0.2448 0.61098 0.25261 0.0
H2988 H 0.05026 0.57973 0.23729 0.0
H2989 H 0.19692 0.66633 0.23649 0.0
H2990 H 0.17358 0.59909 0.2545 0.0
H2991 H 0.07563 0.64684 0.25519 0.0
C2992 C 0.02926 0.62548 0.25071 0.0
C2993 C 0.02119 0.6065 0.24549 0.0
C2994 C 0.17892 0.61385 0.25066 0.0
C2995 C 0.10263 0.61957 0.24717 0.0
C2996 C 0.21944 0.62066 0.24963 0.0
C2997 C 0.22691 0.63971 0.24444 0.0
C2998 C 0.1458 0.62627 0.24685 0.0
C2999 C 0.19279 0.65158 0.24063 0.0
C3000 C 0.0699 0.63209 0.25138 0.0
C3001 C 0.05491 0.59445 0.24142 0.0
N3002 N 0.15374 0.64469 0.24202 0.0
N3003 N 0.09419 0.60117 0.24243 0.0
H3004 H 0.74043 0.63541 0.49897 0.0
H3005 H 0.50059 0.60983 0.49736 0.0
H3006 H 0.69543 0.57904 0.51262 0.0
H3007 H 0.54671 0.6651 0.51532 0.0
H3008 H 0.57207 0.59825 0.49618 0.0
H3009 H 0.66886 0.64663 0.49796 0.0
C3010 C 0.7156 0.62537 0.5016 0.0
C3011 C 0.724 0.60624 0.50587 0.0
C3012 C 0.56629 0.61292 0.5003 0.0
C3013 C 0.64233 0.61896 0.50452 0.0
C3014 C 0.52562 0.61955 0.50093 0.0
C3015 C 0.51758 0.6385 0.50635 0.0
C3016 C 0.59899 0.62542 0.50475 0.0
C3017 C 0.55128 0.65043 0.51094 0.0
C3018 C 0.67484 0.6318 0.50109 0.0
C3019 C 0.69051 0.59389 0.50924 0.0
N3020 N 0.5905 0.64371 0.50991 0.0
N3021 N 0.6511 0.60045 0.50841 0.0
H3022 H 0.02276 0.12771 0.47566 0.0
H3023 H 0.22526 0.11105 0.54491 0.0
H3024 H 0.03382 0.14732 0.54217 0.0
H3025 H 0.23268 0.12324 0.47598 0.0
H3026 H 0.15199 0.11964 0.54439 0.0
H3027 H 0.09732 0.12076 0.47551 0.0
C3028 C 0.04081 0.13036 0.49025 0.0
C3029 C 0.02233 0.13803 0.50897 0.0
C3030 C 0.16977 0.12059 0.52943 0.0
C3031 C 0.10671 0.13015 0.5089 0.0
C3032 C 0.21141 0.11572 0.52972 0.0
C3033 C 0.23478 0.1166 0.51048 0.0
C3034 C 0.15122 0.12589 0.50967 0.0
C3035 C 0.21559 0.12263 0.49117 0.0
C3036 C 0.08321 0.12659 0.49007 0.0
C3037 C 0.047 0.14144 0.52739 0.0
N3038 N 0.17455 0.12684 0.49117 0.0
N3039 N 0.08793 0.13733 0.52696 0.0
loop_
_geom_bond_atom_site_label_1
_geom_bond_atom_site_label_2
_geom_bond_distance
_geom_bond_site_symmetry_2
_ccdc_geom_bond_type
Co0 O2 2.143 . S
Co0 O8 2.074 . S
Co0 O11 2.093 . S
Co0 O24 2.097 . S
Co0 N41 2.151 . S
Co0 N49 2.214 . S
Co1 O2 2.160 . S
Co1 O7 2.058 . S
Co1 O17 2.057 . S
Co1 O32 2.037 . S
Co1 N36 2.145 . S
Co1 N57 2.257 . S
O2 Co0 2.143 . S
O2 Co1 2.160 . S
C3 O4 1.278 . S
C3 O11 1.224 . S
O4 C3 1.278 . S
C5 O6 1.245 . S
C5 O17 1.232 . S
O6 C5 1.245 . S
O7 Co1 2.058 . S
O7 C33 1.269 . S
O8 Co0 2.074 . S
O8 C33 1.257 . S
H9 C34 0.930 . S
H10 C40 0.930 . S
O11 Co0 2.093 . S
O11 C3 1.224 . S
H12 C44 0.929 . S
H13 C46 0.930 . S
H14 C47 0.930 . S
H15 C45 0.929 . S
H16 C48 0.928 . S
O17 Co1 2.057 . S
O17 C5 1.232 . S
H18 C37 0.929 . S
H19 C38 0.929 . S
H20 C50 0.931 . S
H21 C42 0.917 1_655 S
H22 C51 0.930 . S
H23 C43 0.931 . S
O24 Co0 2.097 . S
O24 C52 1.214 . S
H25 C53 0.929 . S
H26 C54 0.929 . S
H27 C55 0.930 . S
H28 C56 0.929 . S
H29 C58 0.930 . S
H30 C35 0.930 . S
H31 C39 0.930 . S
O32 Co1 2.037 . S
O32 C52 1.234 . S
C33 O7 1.269 . S
C33 O8 1.257 . S
C34 H9 0.930 . S
C34 C37 1.388 . S
C34 C39 1.418 . S
C35 H30 0.930 . S
C35 C38 1.404 . S
C35 C39 1.353 . S
N36 Co1 2.145 . S
N36 C37 1.397 . S
N36 C38 1.334 . S
C37 H18 0.929 . S
C37 C34 1.388 . S
C37 N36 1.397 . S
C38 H19 0.929 . S
C38 C35 1.404 . S
C38 N36 1.334 . S
C39 H31 0.930 . S
C39 C34 1.418 . S
C39 C35 1.353 . S
C40 H10 0.930 . S
C40 N41 1.330 . S
C40 C42 1.464 . S
N41 Co0 2.151 . S
N41 C40 1.330 . S
N41 C45 1.418 . S
C42 H21 0.917 1_455 S
C42 C40 1.464 . S
C42 C43 1.328 1_455 S
C43 H23 0.931 . S
C43 C42 1.328 1_655 S
C43 C44 1.267 1_655 S
C44 H12 0.929 . S
C44 C43 1.267 1_455 S
C44 C45 1.251 . S
C45 H15 0.929 . S
C45 N41 1.418 . S
C45 C44 1.251 . S
C46 H13 0.930 . S
C46 C48 1.406 . S
C46 C51 1.261 . S
C47 H14 0.930 . S
C47 N49 1.325 . S
C47 C50 1.357 . S
C48 H16 0.928 . S
C48 C46 1.406 . S
C48 N49 1.261 . S
N49 Co0 2.214 . S
N49 C47 1.325 . S
N49 C48 1.261 . S
C50 H20 0.931 . S
C50 C47 1.357 . S
C50 C51 1.312 . S
C51 H22 0.930 . S
C51 C46 1.261 . S
C51 C50 1.312 . S
C52 O24 1.214 . S
C52 O32 1.234 . S
C53 H25 0.929 . S
C53 C56 1.391 . S
C53 C58 1.391 . S
C54 H26 0.929 . S
C54 C55 1.390 . S
C54 N57 1.391 . S
C55 H27 0.930 . S
C55 C54 1.390 . S
C55 C56 1.392 . S
C56 H28 0.929 . S
C56 C53 1.391 . S
C56 C55 1.392 . S
N57 Co1 2.257 . S
N57 C54 1.391 . S
N57 C58 1.388 . S
C58 H29 0.930 . S
C58 C53 1.391 . S
C58 N57 1.388 . S
Co59 O61 2.143 . S
Co59 O67 2.074 . S
Co59 O70 2.093 . S
Co59 O83 2.097 . S
Co59 N100 2.151 . S
Co59 N108 2.214 . S
Co60 O61 2.160 . S
Co60 O66 2.058 . S
Co60 O76 2.057 . S
Co60 O91 2.037 . S
Co60 N95 2.145 . S
Co60 N116 2.257 . S
O61 Co59 2.143 . S
O61 Co60 2.160 . S
C62 O63 1.278 . S
C62 O70 1.224 . S
O63 C62 1.278 . S
C64 O65 1.245 . S
C64 O76 1.232 . S
O65 C64 1.245 . S
O66 Co60 2.058 . S
O66 C92 1.269 . S
O67 Co59 2.074 . S
O67 C92 1.257 . S
H68 C93 0.930 1_655 S
H69 C99 0.930 . S
O70 Co59 2.093 . S
O70 C62 1.224 . S
H71 C103 0.929 . S
H72 C105 0.930 . S
H73 C106 0.930 . S
H74 C104 0.929 . S
H75 C107 0.928 . S
O76 Co60 2.057 . S
O76 C64 1.232 . S
H77 C96 0.929 . S
H78 C97 0.929 . S
H79 C109 0.931 . S
H80 C101 0.929 . S
H81 C110 0.930 . S
H82 C102 0.931 . S
O83 Co59 2.097 . S
O83 C111 1.214 . S
H84 C112 0.929 . S
H85 C113 0.929 . S
H86 C114 0.930 1_655 S
H87 C115 0.929 . S
H88 C117 0.930 . S
H89 C94 0.930 . S
H90 C98 0.930 1_655 S
O91 Co60 2.037 . S
O91 C111 1.234 . S
C92 O66 1.269 . S
C92 O67 1.257 . S
C93 H68 0.930 1_455 S
C93 C96 1.388 . S
C93 C98 1.418 . S
C94 H89 0.930 . S
C94 C97 1.404 . S
C94 C98 1.353 . S
N95 Co60 2.145 . S
N95 C96 1.397 . S
N95 C97 1.334 . S
C96 H77 0.929 . S
C96 C93 1.388 . S
C96 N95 1.397 . S
C97 H78 0.929 . S
C97 C94 1.404 . S
C97 N95 1.334 . S
C98 H90 0.930 1_455 S
C98 C93 1.418 . S
C98 C94 1.353 . S
C99 H69 0.930 . S
C99 N100 1.330 . S
C99 C101 1.446 . S
N100 Co59 2.151 . S
N100 C99 1.330 . S
N100 C104 1.418 . S
C101 H80 0.929 . S
C101 C99 1.446 . S
C101 C102 1.332 . S
C102 H82 0.931 . S
C102 C101 1.332 . S
C102 C103 1.267 . S
C103 H71 0.929 . S
C103 C102 1.267 . S
C103 C104 1.251 . S
C104 H74 0.929 . S
C104 N100 1.418 . S
C104 C103 1.251 . S
C105 H72 0.930 . S
C105 C107 1.406 . S
C105 C110 1.261 . S
C106 H73 0.930 . S
C106 N108 1.325 . S
C106 C109 1.357 . S
C107 H75 0.928 . S
C107 C105 1.406 . S
C107 N108 1.261 . S
N108 Co59 2.214 . S
N108 C106 1.325 . S
N108 C107 1.261 . S
C109 H79 0.931 . S
C109 C106 1.357 . S
C109 C110 1.312 . S
C110 H81 0.930 . S
C110 C105 1.261 . S
C110 C109 1.312 . S
C111 O83 1.214 . S
C111 O91 1.234 . S
C112 H84 0.929 . S
C112 C115 1.391 . S
C112 C117 1.391 . S
C113 H85 0.929 . S
C113 C114 1.390 . S
C113 N116 1.391 . S
C114 H86 0.930 1_455 S
C114 C113 1.390 . S
C114 C115 1.392 . S
C115 H87 0.929 . S
C115 C112 1.391 . S
C115 C114 1.392 . S
N116 Co60 2.257 . S
N116 C113 1.391 . S
N116 C117 1.388 . S
C117 H88 0.930 . S
C117 C112 1.391 . S
C117 N116 1.388 . S
Co118 O120 2.143 . S
Co118 O126 2.074 1_554 S
Co118 O129 2.093 . S
Co118 O142 2.097 . S
Co118 N159 2.151 . S
Co118 N167 2.214 . S
Co119 O120 2.160 1_556 S
Co119 O125 2.058 . S
Co119 O135 2.057 . S
Co119 O150 2.037 . S
Co119 N154 2.145 . S
Co119 N175 2.257 1_556 S
O120 Co118 2.143 . S
O120 Co119 2.160 1_554 S
C121 O122 1.278 . S
C121 O129 1.224 . S
O122 C121 1.278 . S
C123 O124 1.259 . S
C123 O135 1.232 . S
O124 C123 1.259 . S
O125 Co119 2.058 . S
O125 C151 1.269 . S
O126 Co118 2.074 1_556 S
O126 C151 1.257 . S
H127 C152 0.930 . S
H128 C158 0.930 . S
O129 Co118 2.093 . S
O129 C121 1.224 . S
H130 C162 0.929 . S
H131 C164 0.930 . S
H132 C165 0.930 . S
H133 C163 0.929 . S
H134 C166 0.928 . S
O135 Co119 2.057 . S
O135 C123 1.232 . S
H136 C155 0.929 . S
H137 C156 0.929 . S
H138 C168 0.931 . S
H139 C160 0.917 1_655 S
H140 C169 0.933 . S
H141 C161 0.931 . S
O142 Co118 2.097 . S
O142 C170 1.214 1_554 S
H143 C171 0.929 . S
H144 C172 0.898 1_556 S
H145 C173 0.930 . S
H146 C174 0.929 . S
H147 C176 0.930 . S
H148 C153 0.930 . S
H149 C157 0.930 . S
O150 Co119 2.037 . S
O150 C170 1.234 . S
C151 O125 1.269 . S
C151 O126 1.257 . S
C152 H127 0.930 . S
C152 C155 1.388 . S
C152 C157 1.418 . S
C153 H148 0.930 . S
C153 C156 1.404 . S
C153 C157 1.353 . S
N154 Co119 2.145 . S
N154 C155 1.397 . S
N154 C156 1.334 . S
C155 H136 0.929 . S
C155 C152 1.388 . S
C155 N154 1.397 . S
C156 H137 0.929 . S
C156 C153 1.404 . S
C156 N154 1.334 . S
C157 H149 0.930 . S
C157 C152 1.418 . S
C157 C153 1.353 . S
C158 H128 0.930 . S
C158 N159 1.330 . S
C158 C160 1.464 . S
N159 Co118 2.151 . S
N159 C158 1.330 . S
N159 C163 1.418 1_554 S
C160 H139 0.917 1_455 S
C160 C158 1.464 . S
C160 C161 1.328 1_455 S
C161 H141 0.931 . S
C161 C160 1.328 1_655 S
C161 C162 1.267 1_654 S
C162 H130 0.929 . S
C162 C161 1.267 1_456 S
C162 C163 1.251 . S
C163 H133 0.929 . S
C163 N159 1.418 1_556 S
C163 C162 1.251 . S
C164 H131 0.930 . S
C164 C166 1.406 . S
C164 C169 1.244 1_554 S
C165 H132 0.930 . S
C165 N167 1.325 1_556 S
C165 C168 1.357 . S
C166 H134 0.928 . S
C166 C164 1.406 . S
C166 N167 1.261 . S
N167 Co118 2.214 . S
N167 C165 1.325 1_554 S
N167 C166 1.261 . S
C168 H138 0.931 . S
C168 C165 1.357 . S
C168 C169 1.326 . S
C169 H140 0.933 . S
C169 C164 1.244 1_556 S
C169 C168 1.326 . S
C170 O142 1.214 1_556 S
C170 O150 1.234 . S
C171 H143 0.929 . S
C171 C174 1.391 . S
C171 C176 1.391 . S
C172 H144 0.898 1_554 S
C172 C173 1.390 . S
C172 N175 1.391 . S
C173 H145 0.930 . S
C173 C172 1.390 . S
C173 C174 1.392 . S
C174 H146 0.929 . S
C174 C171 1.391 . S
C174 C173 1.392 . S
N175 Co119 2.257 1_554 S
N175 C172 1.391 . S
N175 C176 1.388 . S
C176 H147 0.930 . S
C176 C171 1.391 . S
C176 N175 1.388 . S
Co177 O179 2.143 . S
Co177 O185 2.074 1_554 S
Co177 O188 2.093 . S
Co177 O201 2.097 . S
Co177 N218 2.151 . S
Co177 N226 2.214 . S
Co178 O179 2.160 1_556 S
Co178 O184 2.058 . S
Co178 O194 2.057 . S
Co178 O209 2.037 . S
Co178 N213 2.145 . S
Co178 N234 2.257 1_556 S
O179 Co177 2.143 . S
O179 Co178 2.160 1_554 S
C180 O181 1.278 . S
C180 O188 1.224 . S
O181 C180 1.278 . S
C182 O183 1.259 . S
C182 O194 1.232 . S
O183 C182 1.259 . S
O184 Co178 2.058 . S
O184 C210 1.269 . S
O185 Co177 2.074 1_556 S
O185 C210 1.257 . S
H186 C211 0.930 1_655 S
H187 C217 0.930 . S
O188 Co177 2.093 . S
O188 C180 1.224 . S
H189 C221 0.929 . S
H190 C223 0.930 . S
H191 C224 0.930 . S
H192 C222 0.929 . S
H193 C225 0.928 . S
O194 Co178 2.057 . S
O194 C182 1.232 . S
H195 C214 0.929 . S
H196 C215 0.929 . S
H197 C227 0.931 . S
H198 C219 0.929 . S
H199 C228 0.933 . S
H200 C220 0.931 . S
O201 Co177 2.097 . S
O201 C229 1.214 1_554 S
H202 C230 0.929 . S
H203 C231 0.898 1_556 S
H204 C232 0.930 1_655 S
H205 C233 0.929 . S
H206 C235 0.930 . S
H207 C212 0.930 . S
H208 C216 0.930 1_655 S
O209 Co178 2.037 . S
O209 C229 1.234 . S
C210 O184 1.269 . S
C210 O185 1.257 . S
C211 H186 0.930 1_455 S
C211 C214 1.388 . S
C211 C216 1.418 . S
C212 H207 0.930 . S
C212 C215 1.404 . S
C212 C216 1.353 . S
N213 Co178 2.145 . S
N213 C214 1.397 . S
N213 C215 1.334 . S
C214 H195 0.929 . S
C214 C211 1.388 . S
C214 N213 1.397 . S
C215 H196 0.929 . S
C215 C212 1.404 . S
C215 N213 1.334 . S
C216 H208 0.930 1_455 S
C216 C211 1.418 . S
C216 C212 1.353 . S
C217 H187 0.930 . S
C217 N218 1.330 . S
C217 C219 1.446 . S
N218 Co177 2.151 . S
N218 C217 1.330 . S
N218 C222 1.418 1_554 S
C219 H198 0.929 . S
C219 C217 1.446 . S
C219 C220 1.332 . S
C220 H200 0.931 . S
C220 C219 1.332 . S
C220 C221 1.267 1_554 S
C221 H189 0.929 . S
C221 C220 1.267 1_556 S
C221 C222 1.251 . S
C222 H192 0.929 . S
C222 N218 1.418 1_556 S
C222 C221 1.251 . S
C223 H190 0.930 . S
C223 C225 1.406 . S
C223 C228 1.244 1_554 S
C224 H191 0.930 . S
C224 N226 1.325 1_556 S
C224 C227 1.357 . S
C225 H193 0.928 . S
C225 C223 1.406 . S
C225 N226 1.261 . S
N226 Co177 2.214 . S
N226 C224 1.325 1_554 S
N226 C225 1.261 . S
C227 H197 0.931 . S
C227 C224 1.357 . S
C227 C228 1.326 . S
C228 H199 0.933 . S
C228 C223 1.244 1_556 S
C228 C227 1.326 . S
C229 O201 1.214 1_556 S
C229 O209 1.234 . S
C230 H202 0.929 . S
C230 C233 1.391 . S
C230 C235 1.391 . S
C231 H203 0.898 1_554 S
C231 C232 1.390 . S
C231 N234 1.391 . S
C232 H204 0.930 1_455 S
C232 C231 1.390 . S
C232 C233 1.392 . S
C233 H205 0.929 . S
C233 C230 1.391 . S
C233 C232 1.392 . S
N234 Co178 2.257 1_554 S
N234 C231 1.391 . S
N234 C235 1.388 . S
C235 H206 0.930 . S
C235 C230 1.391 . S
C235 N234 1.388 . S
Co236 O238 2.143 . S
Co236 O244 2.074 . S
Co236 O247 2.093 . S
Co236 O260 2.097 . S
Co236 N277 2.151 . S
Co236 N285 2.214 . S
Co237 O238 2.160 . S
Co237 O243 2.058 . S
Co237 O253 2.057 . S
Co237 O268 2.037 . S
Co237 N272 2.145 . S
Co237 N293 2.257 . S
O238 Co236 2.143 . S
O238 Co237 2.160 . S
C239 O240 1.278 . S
C239 O247 1.224 . S
O240 C239 1.278 . S
C241 O242 1.245 . S
C241 O253 1.232 . S
O242 C241 1.245 . S
O243 Co237 2.058 . S
O243 C269 1.269 . S
O244 Co236 2.074 . S
O244 C269 1.257 . S
H245 C270 0.930 . S
H246 C276 0.930 . S
O247 Co236 2.093 . S
O247 C239 1.224 . S
H248 C280 0.929 . S
H249 C282 0.930 . S
H250 C283 0.930 . S
H251 C281 0.929 . S
H252 C284 0.928 . S
O253 Co237 2.057 . S
O253 C241 1.232 . S
H254 C273 0.929 . S
H255 C274 0.929 . S
H256 C286 0.931 . S
H257 C278 0.917 1_455 S
H258 C287 0.930 . S
H259 C279 0.931 . S
O260 Co236 2.097 . S
O260 C288 1.214 . S
H261 C289 0.929 . S
H262 C290 0.929 . S
H263 C291 0.930 . S
H264 C292 0.929 . S
H265 C294 0.930 . S
H266 C271 0.930 . S
H267 C275 0.930 . S
O268 Co237 2.037 . S
O268 C288 1.234 . S
C269 O243 1.269 . S
C269 O244 1.257 . S
C270 H245 0.930 . S
C270 C273 1.388 . S
C270 C275 1.418 . S
C271 H266 0.930 . S
C271 C274 1.404 . S
C271 C275 1.353 . S
N272 Co237 2.145 . S
N272 C273 1.397 . S
N272 C274 1.334 . S
C273 H254 0.929 . S
C273 C270 1.388 . S
C273 N272 1.397 . S
C274 H255 0.929 . S
C274 C271 1.404 . S
C274 N272 1.334 . S
C275 H267 0.930 . S
C275 C270 1.418 . S
C275 C271 1.353 . S
C276 H246 0.930 . S
C276 N277 1.330 . S
C276 C278 1.464 . S
N277 Co236 2.151 . S
N277 C276 1.330 . S
N277 C281 1.418 . S
C278 H257 0.917 1_655 S
C278 C276 1.464 . S
C278 C279 1.328 1_655 S
C279 H259 0.931 . S
C279 C278 1.328 1_455 S
C279 C280 1.267 1_455 S
C280 H248 0.929 . S
C280 C279 1.267 1_655 S
C280 C281 1.251 . S
C281 H251 0.929 . S
C281 N277 1.418 . S
C281 C280 1.251 . S
C282 H249 0.930 . S
C282 C284 1.406 . S
C282 C287 1.261 . S
C283 H250 0.930 . S
C283 N285 1.325 . S
C283 C286 1.357 . S
C284 H252 0.928 . S
C284 C282 1.406 . S
C284 N285 1.261 . S
N285 Co236 2.214 . S
N285 C283 1.325 . S
N285 C284 1.261 . S
C286 H256 0.931 . S
C286 C283 1.357 . S
C286 C287 1.312 . S
C287 H258 0.930 . S
C287 C282 1.261 . S
C287 C286 1.312 . S
C288 O260 1.214 . S
C288 O268 1.234 . S
C289 H261 0.929 . S
C289 C292 1.391 . S
C289 C294 1.391 . S
C290 H262 0.929 . S
C290 C291 1.390 . S
C290 N293 1.391 . S
C291 H263 0.930 . S
C291 C290 1.390 . S
C291 C292 1.392 . S
C292 H264 0.929 . S
C292 C289 1.391 . S
C292 C291 1.392 . S
N293 Co237 2.257 . S
N293 C290 1.391 . S
N293 C294 1.388 . S
C294 H265 0.930 . S
C294 C289 1.391 . S
C294 N293 1.388 . S
Co295 O297 2.143 . S
Co295 O303 2.074 . S
Co295 O306 2.093 . S
Co295 O319 2.097 . S
Co295 N336 2.151 . S
Co295 N344 2.214 . S
Co296 O297 2.160 . S
Co296 O302 2.058 . S
Co296 O312 2.057 . S
Co296 O327 2.037 . S
Co296 N331 2.145 . S
Co296 N352 2.257 . S
O297 Co295 2.143 . S
O297 Co296 2.160 . S
C298 O299 1.278 . S
C298 O306 1.224 . S
O299 C298 1.278 . S
C300 O301 1.245 . S
C300 O312 1.232 . S
O301 C300 1.245 . S
O302 Co296 2.058 . S
O302 C328 1.269 . S
O303 Co295 2.074 . S
O303 C328 1.257 . S
H304 C329 0.930 1_455 S
H305 C335 0.930 . S
O306 Co295 2.093 . S
O306 C298 1.224 . S
H307 C339 0.929 . S
H308 C341 0.930 . S
H309 C342 0.930 . S
H310 C340 0.929 . S
H311 C343 0.928 . S
O312 Co296 2.057 . S
O312 C300 1.232 . S
H313 C332 0.929 . S
H314 C333 0.929 . S
H315 C345 0.931 . S
H316 C337 0.929 . S
H317 C346 0.930 . S
H318 C338 0.931 . S
O319 Co295 2.097 . S
O319 C347 1.214 . S
H320 C348 0.929 . S
H321 C349 0.929 . S
H322 C350 0.930 1_455 S
H323 C351 0.929 . S
H324 C353 0.930 . S
H325 C330 0.930 . S
H326 C334 0.930 1_455 S
O327 Co296 2.037 . S
O327 C347 1.234 . S
C328 O302 1.269 . S
C328 O303 1.257 . S
C329 H304 0.930 1_655 S
C329 C332 1.388 . S
C329 C334 1.418 . S
C330 H325 0.930 . S
C330 C333 1.404 . S
C330 C334 1.353 . S
N331 Co296 2.145 . S
N331 C332 1.397 . S
N331 C333 1.334 . S
C332 H313 0.929 . S
C332 C329 1.388 . S
C332 N331 1.397 . S
C333 H314 0.929 . S
C333 C330 1.404 . S
C333 N331 1.334 . S
C334 H326 0.930 1_655 S
C334 C329 1.418 . S
C334 C330 1.353 . S
C335 H305 0.930 . S
C335 N336 1.330 . S
C335 C337 1.446 . S
N336 Co295 2.151 . S
N336 C335 1.330 . S
N336 C340 1.418 . S
C337 H316 0.929 . S
C337 C335 1.446 . S
C337 C338 1.332 . S
C338 H318 0.931 . S
C338 C337 1.332 . S
C338 C339 1.267 . S
C339 H307 0.929 . S
C339 C338 1.267 . S
C339 C340 1.251 . S
C340 H310 0.929 . S
C340 N336 1.418 . S
C340 C339 1.251 . S
C341 H308 0.930 . S
C341 C343 1.406 . S
C341 C346 1.261 . S
C342 H309 0.930 . S
C342 N344 1.325 . S
C342 C345 1.357 . S
C343 H311 0.928 . S
C343 C341 1.406 . S
C343 N344 1.261 . S
N344 Co295 2.214 . S
N344 C342 1.325 . S
N344 C343 1.261 . S
C345 H315 0.931 . S
C345 C342 1.357 . S
C345 C346 1.312 . S
C346 H317 0.930 . S
C346 C341 1.261 . S
C346 C345 1.312 . S
C347 O319 1.214 . S
C347 O327 1.234 . S
C348 H320 0.929 . S
C348 C351 1.391 . S
C348 C353 1.391 . S
C349 H321 0.929 . S
C349 C350 1.390 . S
C349 N352 1.391 . S
C350 H322 0.930 1_655 S
C350 C349 1.390 . S
C350 C351 1.392 . S
C351 H323 0.929 . S
C351 C348 1.391 . S
C351 C350 1.392 . S
N352 Co296 2.257 . S
N352 C349 1.391 . S
N352 C353 1.388 . S
C353 H324 0.930 . S
C353 C348 1.391 . S
C353 N352 1.388 . S
Co354 O356 2.143 . S
Co354 O362 2.074 1_556 S
Co354 O365 2.093 . S
Co354 O378 2.097 . S
Co354 N395 2.151 . S
Co354 N403 2.214 . S
Co355 O356 2.160 1_554 S
Co355 O361 2.058 . S
Co355 O371 2.057 . S
Co355 O386 2.037 . S
Co355 N390 2.145 . S
Co355 N411 2.257 1_554 S
O356 Co354 2.143 . S
O356 Co355 2.160 1_556 S
C357 O358 1.278 . S
C357 O365 1.224 . S
O358 C357 1.278 . S
C359 O360 1.259 . S
C359 O371 1.232 . S
O360 C359 1.259 . S
O361 Co355 2.058 . S
O361 C387 1.269 . S
O362 Co354 2.074 1_554 S
O362 C387 1.257 . S
H363 C388 0.930 . S
H364 C394 0.930 . S
O365 Co354 2.093 . S
O365 C357 1.224 . S
H366 C398 0.929 . S
H367 C400 0.930 . S
H368 C401 0.930 . S
H369 C399 0.929 . S
H370 C402 0.928 . S
O371 Co355 2.057 . S
O371 C359 1.232 . S
H372 C391 0.929 . S
H373 C392 0.929 . S
H374 C404 0.931 . S
H375 C396 0.917 1_455 S
H376 C405 0.933 . S
H377 C397 0.931 . S
O378 Co354 2.097 . S
O378 C406 1.214 1_556 S
H379 C407 0.929 . S
H380 C408 0.898 1_554 S
H381 C409 0.930 . S
H382 C410 0.929 . S
H383 C412 0.930 . S
H384 C389 0.930 . S
H385 C393 0.930 . S
O386 Co355 2.037 . S
O386 C406 1.234 . S
C387 O361 1.269 . S
C387 O362 1.257 . S
C388 H363 0.930 . S
C388 C391 1.388 . S
C388 C393 1.418 . S
C389 H384 0.930 . S
C389 C392 1.404 . S
C389 C393 1.353 . S
N390 Co355 2.145 . S
N390 C391 1.397 . S
N390 C392 1.334 . S
C391 H372 0.929 . S
C391 C388 1.388 . S
C391 N390 1.397 . S
C392 H373 0.929 . S
C392 C389 1.404 . S
C392 N390 1.334 . S
C393 H385 0.930 . S
C393 C388 1.418 . S
C393 C389 1.353 . S
C394 H364 0.930 . S
C394 N395 1.330 . S
C394 C396 1.464 . S
N395 Co354 2.151 . S
N395 C394 1.330 . S
N395 C399 1.418 1_556 S
C396 H375 0.917 1_655 S
C396 C394 1.464 . S
C396 C397 1.328 1_655 S
C397 H377 0.931 . S
C397 C396 1.328 1_455 S
C397 C398 1.267 1_456 S
C398 H366 0.929 . S
C398 C397 1.267 1_654 S
C398 C399 1.251 . S
C399 H369 0.929 . S
C399 N395 1.418 1_554 S
C399 C398 1.251 . S
C400 H367 0.930 . S
C400 C402 1.406 . S
C400 C405 1.244 1_556 S
C401 H368 0.930 . S
C401 N403 1.325 1_554 S
C401 C404 1.357 . S
C402 H370 0.928 . S
C402 C400 1.406 . S
C402 N403 1.261 . S
N403 Co354 2.214 . S
N403 C401 1.325 1_556 S
N403 C402 1.261 . S
C404 H374 0.931 . S
C404 C401 1.357 . S
C404 C405 1.326 . S
C405 H376 0.933 . S
C405 C400 1.244 1_554 S
C405 C404 1.326 . S
C406 O378 1.214 1_554 S
C406 O386 1.234 . S
C407 H379 0.929 . S
C407 C410 1.391 . S
C407 C412 1.391 . S
C408 H380 0.898 1_556 S
C408 C409 1.390 . S
C408 N411 1.391 . S
C409 H381 0.930 . S
C409 C408 1.390 . S
C409 C410 1.392 . S
C410 H382 0.929 . S
C410 C407 1.391 . S
C410 C409 1.392 . S
N411 Co355 2.257 1_556 S
N411 C408 1.391 . S
N411 C412 1.388 . S
C412 H383 0.930 . S
C412 C407 1.391 . S
C412 N411 1.388 . S
Co413 O415 2.143 . S
Co413 O421 2.074 1_556 S
Co413 O424 2.093 . S
Co413 O437 2.097 . S
Co413 N454 2.151 . S
Co413 N462 2.214 . S
Co414 O415 2.160 1_554 S
Co414 O420 2.058 . S
Co414 O430 2.057 . S
Co414 O445 2.037 . S
Co414 N449 2.145 . S
Co414 N470 2.257 1_554 S
O415 Co413 2.143 . S
O415 Co414 2.160 1_556 S
C416 O417 1.278 . S
C416 O424 1.224 . S
O417 C416 1.278 . S
C418 O419 1.259 . S
C418 O430 1.232 . S
O419 C418 1.259 . S
O420 Co414 2.058 . S
O420 C446 1.269 . S
O421 Co413 2.074 1_554 S
O421 C446 1.257 . S
H422 C447 0.930 1_455 S
H423 C453 0.930 . S
O424 Co413 2.093 . S
O424 C416 1.224 . S
H425 C457 0.929 . S
H426 C459 0.930 . S
H427 C460 0.930 . S
H428 C458 0.929 . S
H429 C461 0.928 . S
O430 Co414 2.057 . S
O430 C418 1.232 . S
H431 C450 0.929 . S
H432 C451 0.929 . S
H433 C463 0.931 . S
H434 C455 0.929 . S
H435 C464 0.933 . S
H436 C456 0.931 . S
O437 Co413 2.097 . S
O437 C465 1.214 1_556 S
H438 C466 0.929 . S
H439 C467 0.898 1_554 S
H440 C468 0.930 1_455 S
H441 C469 0.929 . S
H442 C471 0.930 . S
H443 C448 0.930 . S
H444 C452 0.930 1_455 S
O445 Co414 2.037 . S
O445 C465 1.234 . S
C446 O420 1.269 . S
C446 O421 1.257 . S
C447 H422 0.930 1_655 S
C447 C450 1.388 . S
C447 C452 1.418 . S
C448 H443 0.930 . S
C448 C451 1.404 . S
C448 C452 1.353 . S
N449 Co414 2.145 . S
N449 C450 1.397 . S
N449 C451 1.334 . S
C450 H431 0.929 . S
C450 C447 1.388 . S
C450 N449 1.397 . S
C451 H432 0.929 . S
C451 C448 1.404 . S
C451 N449 1.334 . S
C452 H444 0.930 1_655 S
C452 C447 1.418 . S
C452 C448 1.353 . S
C453 H423 0.930 . S
C453 N454 1.330 . S
C453 C455 1.446 . S
N454 Co413 2.151 . S
N454 C453 1.330 . S
N454 C458 1.418 1_556 S
C455 H434 0.929 . S
C455 C453 1.446 . S
C455 C456 1.332 . S
C456 H436 0.931 . S
C456 C455 1.332 . S
C456 C457 1.267 1_556 S
C457 H425 0.929 . S
C457 C456 1.267 1_554 S
C457 C458 1.251 . S
C458 H428 0.929 . S
C458 N454 1.418 1_554 S
C458 C457 1.251 . S
C459 H426 0.930 . S
C459 C461 1.406 . S
C459 C464 1.244 1_556 S
C460 H427 0.930 . S
C460 N462 1.325 1_554 S
C460 C463 1.357 . S
C461 H429 0.928 . S
C461 C459 1.406 . S
C461 N462 1.261 . S
N462 Co413 2.214 . S
N462 C460 1.325 1_556 S
N462 C461 1.261 . S
C463 H433 0.931 . S
C463 C460 1.357 . S
C463 C464 1.326 . S
C464 H435 0.933 . S
C464 C459 1.244 1_554 S
C464 C463 1.326 . S
C465 O437 1.214 1_554 S
C465 O445 1.234 . S
C466 H438 0.929 . S
C466 C469 1.391 . S
C466 C471 1.391 . S
C467 H439 0.898 1_556 S
C467 C468 1.390 . S
C467 N470 1.391 . S
C468 H440 0.930 1_655 S
C468 C467 1.390 . S
C468 C469 1.392 . S
C469 H441 0.929 . S
C469 C466 1.391 . S
C469 C468 1.392 . S
N470 Co414 2.257 1_556 S
N470 C467 1.391 . S
N470 C471 1.388 . S
C471 H442 0.930 . S
C471 C466 1.391 . S
C471 N470 1.388 . S
Co472 O474 2.143 . S
Co472 O480 2.074 . S
Co472 O483 2.093 . S
Co472 O496 2.097 . S
Co472 N513 2.151 . S
Co472 N521 2.214 . S
Co473 O474 2.160 . S
Co473 O479 2.058 . S
Co473 O489 2.057 . S
Co473 O504 2.037 . S
Co473 N508 2.145 . S
Co473 N529 2.257 . S
O474 Co472 2.143 . S
O474 Co473 2.160 . S
C475 O476 1.278 . S
C475 O483 1.224 . S
O476 C475 1.278 . S
C477 O478 1.245 . S
C477 O489 1.232 . S
O478 C477 1.245 . S
O479 Co473 2.058 . S
O479 C505 1.269 . S
O480 Co472 2.074 . S
O480 C505 1.257 . S
H481 C506 0.930 . S
H482 C512 0.930 . S
O483 Co472 2.093 . S
O483 C475 1.224 . S
H484 C516 0.929 . S
H485 C518 0.930 . S
H486 C519 0.930 . S
H487 C517 0.929 . S
H488 C520 0.928 . S
O489 Co473 2.057 . S
O489 C477 1.232 . S
H490 C509 0.929 . S
H491 C510 0.929 . S
H492 C522 0.931 . S
H493 C514 0.917 1_655 S
H494 C523 0.930 . S
H495 C515 0.931 . S
O496 Co472 2.097 . S
O496 C524 1.214 . S
H497 C525 0.929 . S
H498 C526 0.929 . S
H499 C527 0.930 . S
H500 C528 0.929 . S
H501 C530 0.930 . S
H502 C507 0.930 . S
H503 C511 0.930 . S
O504 Co473 2.037 . S
O504 C524 1.234 . S
C505 O479 1.269 . S
C505 O480 1.257 . S
C506 H481 0.930 . S
C506 C509 1.388 . S
C506 C511 1.418 . S
C507 H502 0.930 . S
C507 C510 1.404 . S
C507 C511 1.353 . S
N508 Co473 2.145 . S
N508 C509 1.397 . S
N508 C510 1.334 . S
C509 H490 0.929 . S
C509 C506 1.388 . S
C509 N508 1.397 . S
C510 H491 0.929 . S
C510 C507 1.404 . S
C510 N508 1.334 . S
C511 H503 0.930 . S
C511 C506 1.418 . S
C511 C507 1.353 . S
C512 H482 0.930 . S
C512 N513 1.330 . S
C512 C514 1.464 . S
N513 Co472 2.151 . S
N513 C512 1.330 . S
N513 C517 1.418 . S
C514 H493 0.917 1_455 S
C514 C512 1.464 . S
C514 C515 1.328 1_455 S
C515 H495 0.931 . S
C515 C514 1.328 1_655 S
C515 C516 1.267 1_655 S
C516 H484 0.929 . S
C516 C515 1.267 1_455 S
C516 C517 1.251 . S
C517 H487 0.929 . S
C517 N513 1.418 . S
C517 C516 1.251 . S
C518 H485 0.930 . S
C518 C520 1.406 . S
C518 C523 1.261 . S
C519 H486 0.930 . S
C519 N521 1.325 . S
C519 C522 1.357 . S
C520 H488 0.928 . S
C520 C518 1.406 . S
C520 N521 1.261 . S
N521 Co472 2.214 . S
N521 C519 1.325 . S
N521 C520 1.261 . S
C522 H492 0.931 . S
C522 C519 1.357 . S
C522 C523 1.312 . S
C523 H494 0.930 . S
C523 C518 1.261 . S
C523 C522 1.312 . S
C524 O496 1.214 . S
C524 O504 1.234 . S
C525 H497 0.929 . S
C525 C528 1.391 . S
C525 C530 1.391 . S
C526 H498 0.929 . S
C526 C527 1.390 . S
C526 N529 1.391 . S
C527 H499 0.930 . S
C527 C526 1.390 . S
C527 C528 1.392 . S
C528 H500 0.929 . S
C528 C525 1.391 . S
C528 C527 1.392 . S
N529 Co473 2.257 . S
N529 C526 1.391 . S
N529 C530 1.388 . S
C530 H501 0.930 . S
C530 C525 1.391 . S
C530 N529 1.388 . S
Co531 O533 2.143 . S
Co531 O539 2.074 . S
Co531 O542 2.093 . S
Co531 O555 2.097 . S
Co531 N572 2.151 . S
Co531 N580 2.214 . S
Co532 O533 2.160 . S
Co532 O538 2.058 . S
Co532 O548 2.057 . S
Co532 O563 2.037 . S
Co532 N567 2.145 . S
Co532 N588 2.257 . S
O533 Co531 2.143 . S
O533 Co532 2.160 . S
C534 O535 1.278 . S
C534 O542 1.224 . S
O535 C534 1.278 . S
C536 O537 1.245 . S
C536 O548 1.232 . S
O537 C536 1.245 . S
O538 Co532 2.058 . S
O538 C564 1.269 . S
O539 Co531 2.074 . S
O539 C564 1.257 . S
H540 C565 0.930 1_655 S
H541 C571 0.930 . S
O542 Co531 2.093 . S
O542 C534 1.224 . S
H543 C575 0.929 . S
H544 C577 0.930 . S
H545 C578 0.930 . S
H546 C576 0.929 . S
H547 C579 0.928 . S
O548 Co532 2.057 . S
O548 C536 1.232 . S
H549 C568 0.929 . S
H550 C569 0.929 . S
H551 C581 0.931 . S
H552 C573 0.929 . S
H553 C582 0.930 . S
H554 C574 0.931 . S
O555 Co531 2.097 . S
O555 C583 1.214 . S
H556 C584 0.929 . S
H557 C585 0.929 . S
H558 C586 0.930 1_655 S
H559 C587 0.929 . S
H560 C589 0.930 . S
H561 C566 0.930 . S
H562 C570 0.930 1_655 S
O563 Co532 2.037 . S
O563 C583 1.234 . S
C564 O538 1.269 . S
C564 O539 1.257 . S
C565 H540 0.930 1_455 S
C565 C568 1.388 . S
C565 C570 1.418 . S
C566 H561 0.930 . S
C566 C569 1.404 . S
C566 C570 1.353 . S
N567 Co532 2.145 . S
N567 C568 1.397 . S
N567 C569 1.334 . S
C568 H549 0.929 . S
C568 C565 1.388 . S
C568 N567 1.397 . S
C569 H550 0.929 . S
C569 C566 1.404 . S
C569 N567 1.334 . S
C570 H562 0.930 1_455 S
C570 C565 1.418 . S
C570 C566 1.353 . S
C571 H541 0.930 . S
C571 N572 1.330 . S
C571 C573 1.446 . S
N572 Co531 2.151 . S
N572 C571 1.330 . S
N572 C576 1.418 . S
C573 H552 0.929 . S
C573 C571 1.446 . S
C573 C574 1.332 . S
C574 H554 0.931 . S
C574 C573 1.332 . S
C574 C575 1.267 . S
C575 H543 0.929 . S
C575 C574 1.267 . S
C575 C576 1.251 . S
C576 H546 0.929 . S
C576 N572 1.418 . S
C576 C575 1.251 . S
C577 H544 0.930 . S
C577 C579 1.406 . S
C577 C582 1.261 . S
C578 H545 0.930 . S
C578 N580 1.325 . S
C578 C581 1.357 . S
C579 H547 0.928 . S
C579 C577 1.406 . S
C579 N580 1.261 . S
N580 Co531 2.214 . S
N580 C578 1.325 . S
N580 C579 1.261 . S
C581 H551 0.931 . S
C581 C578 1.357 . S
C581 C582 1.312 . S
C582 H553 0.930 . S
C582 C577 1.261 . S
C582 C581 1.312 . S
C583 O555 1.214 . S
C583 O563 1.234 . S
C584 H556 0.929 . S
C584 C587 1.391 . S
C584 C589 1.391 . S
C585 H557 0.929 . S
C585 C586 1.390 . S
C585 N588 1.391 . S
C586 H558 0.930 1_455 S
C586 C585 1.390 . S
C586 C587 1.392 . S
C587 H559 0.929 . S
C587 C584 1.391 . S
C587 C586 1.392 . S
N588 Co532 2.257 . S
N588 C585 1.391 . S
N588 C589 1.388 . S
C589 H560 0.930 . S
C589 C584 1.391 . S
C589 N588 1.388 . S
Co590 O592 2.143 . S
Co590 O598 2.074 . S
Co590 O601 2.093 . S
Co590 O614 2.097 . S
Co590 N631 2.151 . S
Co590 N639 2.214 . S
Co591 O592 2.160 . S
Co591 O597 2.058 . S
Co591 O607 2.057 . S
Co591 O622 2.037 . S
Co591 N626 2.145 . S
Co591 N647 2.257 . S
O592 Co590 2.143 . S
O592 Co591 2.160 . S
C593 O594 1.278 . S
C593 O601 1.224 . S
O594 C593 1.278 . S
C595 O596 1.245 . S
C595 O607 1.232 . S
O596 C595 1.245 . S
O597 Co591 2.058 . S
O597 C623 1.269 . S
O598 Co590 2.074 . S
O598 C623 1.257 . S
H599 C624 0.930 . S
H600 C630 0.930 . S
O601 Co590 2.093 . S
O601 C593 1.224 . S
H602 C634 0.929 . S
H603 C636 0.930 . S
H604 C637 0.930 . S
H605 C635 0.929 . S
H606 C638 0.928 . S
O607 Co591 2.057 . S
O607 C595 1.232 . S
H608 C627 0.929 . S
H609 C628 0.929 . S
H610 C640 0.931 . S
H611 C632 0.917 1_655 S
H612 C641 0.930 . S
H613 C633 0.931 . S
O614 Co590 2.097 . S
O614 C642 1.214 . S
H615 C643 0.929 . S
H616 C644 0.929 . S
H617 C645 0.930 . S
H618 C646 0.929 . S
H619 C648 0.930 . S
H620 C625 0.930 . S
H621 C629 0.930 . S
O622 Co591 2.037 . S
O622 C642 1.234 . S
C623 O597 1.269 . S
C623 O598 1.257 . S
C624 H599 0.930 . S
C624 C627 1.388 . S
C624 C629 1.418 . S
C625 H620 0.930 . S
C625 C628 1.404 . S
C625 C629 1.353 . S
N626 Co591 2.145 . S
N626 C627 1.397 . S
N626 C628 1.334 . S
C627 H608 0.929 . S
C627 C624 1.388 . S
C627 N626 1.397 . S
C628 H609 0.929 . S
C628 C625 1.404 . S
C628 N626 1.334 . S
C629 H621 0.930 . S
C629 C624 1.418 . S
C629 C625 1.353 . S
C630 H600 0.930 . S
C630 N631 1.330 . S
C630 C632 1.464 . S
N631 Co590 2.151 . S
N631 C630 1.330 . S
N631 C635 1.418 . S
C632 H611 0.917 1_455 S
C632 C630 1.464 . S
C632 C633 1.328 1_455 S
C633 H613 0.931 . S
C633 C632 1.328 1_655 S
C633 C634 1.267 1_655 S
C634 H602 0.929 . S
C634 C633 1.267 1_455 S
C634 C635 1.251 . S
C635 H605 0.929 . S
C635 N631 1.418 . S
C635 C634 1.251 . S
C636 H603 0.930 . S
C636 C638 1.406 . S
C636 C641 1.261 . S
C637 H604 0.930 . S
C637 N639 1.325 . S
C637 C640 1.357 . S
C638 H606 0.928 . S
C638 C636 1.406 . S
C638 N639 1.261 . S
N639 Co590 2.214 . S
N639 C637 1.325 . S
N639 C638 1.261 . S
C640 H610 0.931 . S
C640 C637 1.357 . S
C640 C641 1.312 . S
C641 H612 0.930 . S
C641 C636 1.261 . S
C641 C640 1.312 . S
C642 O614 1.214 . S
C642 O622 1.234 . S
C643 H615 0.929 . S
C643 C646 1.391 . S
C643 C648 1.391 . S
C644 H616 0.929 . S
C644 C645 1.390 . S
C644 N647 1.391 . S
C645 H617 0.930 . S
C645 C644 1.390 . S
C645 C646 1.392 . S
C646 H618 0.929 . S
C646 C643 1.391 . S
C646 C645 1.392 . S
N647 Co591 2.257 . S
N647 C644 1.391 . S
N647 C648 1.388 . S
C648 H619 0.930 . S
C648 C643 1.391 . S
C648 N647 1.388 . S
Co649 O651 2.143 . S
Co649 O657 2.074 . S
Co649 O660 2.093 . S
Co649 O673 2.097 . S
Co649 N690 2.151 . S
Co649 N698 2.214 . S
Co650 O651 2.160 . S
Co650 O656 2.058 . S
Co650 O666 2.057 . S
Co650 O681 2.037 . S
Co650 N685 2.145 . S
Co650 N706 2.257 . S
O651 Co649 2.143 . S
O651 Co650 2.160 . S
C652 O653 1.278 . S
C652 O660 1.224 . S
O653 C652 1.278 . S
C654 O655 1.245 . S
C654 O666 1.232 . S
O655 C654 1.245 . S
O656 Co650 2.058 . S
O656 C682 1.269 . S
O657 Co649 2.074 . S
O657 C682 1.257 . S
H658 C683 0.930 1_655 S
H659 C689 0.930 . S
O660 Co649 2.093 . S
O660 C652 1.224 . S
H661 C693 0.929 . S
H662 C695 0.930 . S
H663 C696 0.930 . S
H664 C694 0.929 . S
H665 C697 0.928 . S
O666 Co650 2.057 . S
O666 C654 1.232 . S
H667 C686 0.929 . S
H668 C687 0.929 . S
H669 C699 0.931 . S
H670 C691 0.929 . S
H671 C700 0.930 . S
H672 C692 0.931 . S
O673 Co649 2.097 . S
O673 C701 1.214 . S
H674 C702 0.929 . S
H675 C703 0.929 . S
H676 C704 0.930 1_655 S
H677 C705 0.929 . S
H678 C707 0.930 . S
H679 C684 0.930 . S
H680 C688 0.930 1_655 S
O681 Co650 2.037 . S
O681 C701 1.234 . S
C682 O656 1.269 . S
C682 O657 1.257 . S
C683 H658 0.930 1_455 S
C683 C686 1.388 . S
C683 C688 1.418 . S
C684 H679 0.930 . S
C684 C687 1.404 . S
C684 C688 1.353 . S
N685 Co650 2.145 . S
N685 C686 1.397 . S
N685 C687 1.334 . S
C686 H667 0.929 . S
C686 C683 1.388 . S
C686 N685 1.397 . S
C687 H668 0.929 . S
C687 C684 1.404 . S
C687 N685 1.334 . S
C688 H680 0.930 1_455 S
C688 C683 1.418 . S
C688 C684 1.353 . S
C689 H659 0.930 . S
C689 N690 1.330 . S
C689 C691 1.446 . S
N690 Co649 2.151 . S
N690 C689 1.330 . S
N690 C694 1.418 . S
C691 H670 0.929 . S
C691 C689 1.446 . S
C691 C692 1.332 . S
C692 H672 0.931 . S
C692 C691 1.332 . S
C692 C693 1.267 . S
C693 H661 0.929 . S
C693 C692 1.267 . S
C693 C694 1.251 . S
C694 H664 0.929 . S
C694 N690 1.418 . S
C694 C693 1.251 . S
C695 H662 0.930 . S
C695 C697 1.406 . S
C695 C700 1.261 . S
C696 H663 0.930 . S
C696 N698 1.325 . S
C696 C699 1.357 . S
C697 H665 0.928 . S
C697 C695 1.406 . S
C697 N698 1.261 . S
N698 Co649 2.214 . S
N698 C696 1.325 . S
N698 C697 1.261 . S
C699 H669 0.931 . S
C699 C696 1.357 . S
C699 C700 1.312 . S
C700 H671 0.930 . S
C700 C695 1.261 . S
C700 C699 1.312 . S
C701 O673 1.214 . S
C701 O681 1.234 . S
C702 H674 0.929 . S
C702 C705 1.391 . S
C702 C707 1.391 . S
C703 H675 0.929 . S
C703 C704 1.390 . S
C703 N706 1.391 . S
C704 H676 0.930 1_455 S
C704 C703 1.390 . S
C704 C705 1.392 . S
C705 H677 0.929 . S
C705 C702 1.391 . S
C705 C704 1.392 . S
N706 Co650 2.257 . S
N706 C703 1.391 . S
N706 C707 1.388 . S
C707 H678 0.930 . S
C707 C702 1.391 . S
C707 N706 1.388 . S
Co708 O710 2.143 . S
Co708 O716 2.074 . S
Co708 O719 2.093 . S
Co708 O732 2.097 . S
Co708 N749 2.151 . S
Co708 N757 2.214 . S
Co709 O710 2.160 . S
Co709 O715 2.058 . S
Co709 O725 2.057 . S
Co709 O740 2.037 . S
Co709 N744 2.145 . S
Co709 N765 2.257 . S
O710 Co708 2.143 . S
O710 Co709 2.160 . S
C711 O712 1.278 . S
C711 O719 1.224 . S
O712 C711 1.278 . S
C713 O714 1.245 . S
C713 O725 1.232 . S
O714 C713 1.245 . S
O715 Co709 2.058 . S
O715 C741 1.269 . S
O716 Co708 2.074 . S
O716 C741 1.257 . S
H717 C742 0.930 . S
H718 C748 0.930 . S
O719 Co708 2.093 . S
O719 C711 1.224 . S
H720 C752 0.929 . S
H721 C754 0.930 . S
H722 C755 0.930 . S
H723 C753 0.929 . S
H724 C756 0.928 . S
O725 Co709 2.057 . S
O725 C713 1.232 . S
H726 C745 0.929 . S
H727 C746 0.929 . S
H728 C758 0.931 . S
H729 C750 0.917 1_455 S
H730 C759 0.930 . S
H731 C751 0.931 . S
O732 Co708 2.097 . S
O732 C760 1.214 . S
H733 C761 0.929 . S
H734 C762 0.929 . S
H735 C763 0.930 . S
H736 C764 0.929 . S
H737 C766 0.930 . S
H738 C743 0.930 . S
H739 C747 0.930 . S
O740 Co709 2.037 . S
O740 C760 1.234 . S
C741 O715 1.269 . S
C741 O716 1.257 . S
C742 H717 0.930 . S
C742 C745 1.388 . S
C742 C747 1.418 . S
C743 H738 0.930 . S
C743 C746 1.404 . S
C743 C747 1.353 . S
N744 Co709 2.145 . S
N744 C745 1.397 . S
N744 C746 1.334 . S
C745 H726 0.929 . S
C745 C742 1.388 . S
C745 N744 1.397 . S
C746 H727 0.929 . S
C746 C743 1.404 . S
C746 N744 1.334 . S
C747 H739 0.930 . S
C747 C742 1.418 . S
C747 C743 1.353 . S
C748 H718 0.930 . S
C748 N749 1.330 . S
C748 C750 1.464 . S
N749 Co708 2.151 . S
N749 C748 1.330 . S
N749 C753 1.418 . S
C750 H729 0.917 1_655 S
C750 C748 1.464 . S
C750 C751 1.328 1_655 S
C751 H731 0.931 . S
C751 C750 1.328 1_455 S
C751 C752 1.267 1_455 S
C752 H720 0.929 . S
C752 C751 1.267 1_655 S
C752 C753 1.251 . S
C753 H723 0.929 . S
C753 N749 1.418 . S
C753 C752 1.251 . S
C754 H721 0.930 . S
C754 C756 1.406 . S
C754 C759 1.261 . S
C755 H722 0.930 . S
C755 N757 1.325 . S
C755 C758 1.357 . S
C756 H724 0.928 . S
C756 C754 1.406 . S
C756 N757 1.261 . S
N757 Co708 2.214 . S
N757 C755 1.325 . S
N757 C756 1.261 . S
C758 H728 0.931 . S
C758 C755 1.357 . S
C758 C759 1.312 . S
C759 H730 0.930 . S
C759 C754 1.261 . S
C759 C758 1.312 . S
C760 O732 1.214 . S
C760 O740 1.234 . S
C761 H733 0.929 . S
C761 C764 1.391 . S
C761 C766 1.391 . S
C762 H734 0.929 . S
C762 C763 1.390 . S
C762 N765 1.391 . S
C763 H735 0.930 . S
C763 C762 1.390 . S
C763 C764 1.392 . S
C764 H736 0.929 . S
C764 C761 1.391 . S
C764 C763 1.392 . S
N765 Co709 2.257 . S
N765 C762 1.391 . S
N765 C766 1.388 . S
C766 H737 0.930 . S
C766 C761 1.391 . S
C766 N765 1.388 . S
Co767 O769 2.143 . S
Co767 O775 2.074 . S
Co767 O778 2.093 . S
Co767 O791 2.097 . S
Co767 N808 2.151 . S
Co767 N816 2.214 . S
Co768 O769 2.160 . S
Co768 O774 2.058 . S
Co768 O784 2.057 . S
Co768 O799 2.037 . S
Co768 N803 2.145 . S
Co768 N824 2.257 . S
O769 Co767 2.143 . S
O769 Co768 2.160 . S
C770 O771 1.278 . S
C770 O778 1.224 . S
O771 C770 1.278 . S
C772 O773 1.245 . S
C772 O784 1.232 . S
O773 C772 1.245 . S
O774 Co768 2.058 . S
O774 C800 1.269 . S
O775 Co767 2.074 . S
O775 C800 1.257 . S
H776 C801 0.930 1_455 S
H777 C807 0.930 . S
O778 Co767 2.093 . S
O778 C770 1.224 . S
H779 C811 0.929 . S
H780 C813 0.930 . S
H781 C814 0.930 . S
H782 C812 0.929 . S
H783 C815 0.928 . S
O784 Co768 2.057 . S
O784 C772 1.232 . S
H785 C804 0.929 . S
H786 C805 0.929 . S
H787 C817 0.931 . S
H788 C809 0.929 . S
H789 C818 0.930 . S
H790 C810 0.931 . S
O791 Co767 2.097 . S
O791 C819 1.214 . S
H792 C820 0.929 . S
H793 C821 0.929 . S
H794 C822 0.930 1_455 S
H795 C823 0.929 . S
H796 C825 0.930 . S
H797 C802 0.930 . S
H798 C806 0.930 1_455 S
O799 Co768 2.037 . S
O799 C819 1.234 . S
C800 O774 1.269 . S
C800 O775 1.257 . S
C801 H776 0.930 1_655 S
C801 C804 1.388 . S
C801 C806 1.418 . S
C802 H797 0.930 . S
C802 C805 1.404 . S
C802 C806 1.353 . S
N803 Co768 2.145 . S
N803 C804 1.397 . S
N803 C805 1.334 . S
C804 H785 0.929 . S
C804 C801 1.388 . S
C804 N803 1.397 . S
C805 H786 0.929 . S
C805 C802 1.404 . S
C805 N803 1.334 . S
C806 H798 0.930 1_655 S
C806 C801 1.418 . S
C806 C802 1.353 . S
C807 H777 0.930 . S
C807 N808 1.330 . S
C807 C809 1.446 . S
N808 Co767 2.151 . S
N808 C807 1.330 . S
N808 C812 1.418 . S
C809 H788 0.929 . S
C809 C807 1.446 . S
C809 C810 1.332 . S
C810 H790 0.931 . S
C810 C809 1.332 . S
C810 C811 1.267 . S
C811 H779 0.929 . S
C811 C810 1.267 . S
C811 C812 1.251 . S
C812 H782 0.929 . S
C812 N808 1.418 . S
C812 C811 1.251 . S
C813 H780 0.930 . S
C813 C815 1.406 . S
C813 C818 1.261 . S
C814 H781 0.930 . S
C814 N816 1.325 . S
C814 C817 1.357 . S
C815 H783 0.928 . S
C815 C813 1.406 . S
C815 N816 1.261 . S
N816 Co767 2.214 . S
N816 C814 1.325 . S
N816 C815 1.261 . S
C817 H787 0.931 . S
C817 C814 1.357 . S
C817 C818 1.312 . S
C818 H789 0.930 . S
C818 C813 1.261 . S
C818 C817 1.312 . S
C819 O791 1.214 . S
C819 O799 1.234 . S
C820 H792 0.929 . S
C820 C823 1.391 . S
C820 C825 1.391 . S
C821 H793 0.929 . S
C821 C822 1.390 . S
C821 N824 1.391 . S
C822 H794 0.930 1_655 S
C822 C821 1.390 . S
C822 C823 1.392 . S
C823 H795 0.929 . S
C823 C820 1.391 . S
C823 C822 1.392 . S
N824 Co768 2.257 . S
N824 C821 1.391 . S
N824 C825 1.388 . S
C825 H796 0.930 . S
C825 C820 1.391 . S
C825 N824 1.388 . S
Co826 O828 2.143 . S
Co826 O834 2.074 . S
Co826 O837 2.093 . S
Co826 O850 2.097 . S
Co826 N867 2.151 . S
Co826 N875 2.214 . S
Co827 O828 2.160 . S
Co827 O833 2.058 . S
Co827 O843 2.057 . S
Co827 O858 2.037 . S
Co827 N862 2.145 . S
Co827 N883 2.257 . S
O828 Co826 2.143 . S
O828 Co827 2.160 . S
C829 O830 1.278 . S
C829 O837 1.224 . S
O830 C829 1.278 . S
C831 O832 1.245 . S
C831 O843 1.232 . S
O832 C831 1.245 . S
O833 Co827 2.058 . S
O833 C859 1.269 . S
O834 Co826 2.074 . S
O834 C859 1.257 . S
H835 C860 0.930 . S
H836 C866 0.930 . S
O837 Co826 2.093 . S
O837 C829 1.224 . S
H838 C870 0.929 . S
H839 C872 0.930 . S
H840 C873 0.930 . S
H841 C871 0.929 . S
H842 C874 0.928 . S
O843 Co827 2.057 . S
O843 C831 1.232 . S
H844 C863 0.929 . S
H845 C864 0.929 . S
H846 C876 0.931 . S
H847 C868 0.917 1_455 S
H848 C877 0.930 . S
H849 C869 0.931 . S
O850 Co826 2.097 . S
O850 C878 1.214 . S
H851 C879 0.929 . S
H852 C880 0.929 . S
H853 C881 0.930 . S
H854 C882 0.929 . S
H855 C884 0.930 . S
H856 C861 0.930 . S
H857 C865 0.930 . S
O858 Co827 2.037 . S
O858 C878 1.234 . S
C859 O833 1.269 . S
C859 O834 1.257 . S
C860 H835 0.930 . S
C860 C863 1.388 . S
C860 C865 1.418 . S
C861 H856 0.930 . S
C861 C864 1.404 . S
C861 C865 1.353 . S
N862 Co827 2.145 . S
N862 C863 1.397 . S
N862 C864 1.334 . S
C863 H844 0.929 . S
C863 C860 1.388 . S
C863 N862 1.397 . S
C864 H845 0.929 . S
C864 C861 1.404 . S
C864 N862 1.334 . S
C865 H857 0.930 . S
C865 C860 1.418 . S
C865 C861 1.353 . S
C866 H836 0.930 . S
C866 N867 1.330 . S
C866 C868 1.464 . S
N867 Co826 2.151 . S
N867 C866 1.330 . S
N867 C871 1.418 . S
C868 H847 0.917 1_655 S
C868 C866 1.464 . S
C868 C869 1.328 1_655 S
C869 H849 0.931 . S
C869 C868 1.328 1_455 S
C869 C870 1.267 1_455 S
C870 H838 0.929 . S
C870 C869 1.267 1_655 S
C870 C871 1.251 . S
C871 H841 0.929 . S
C871 N867 1.418 . S
C871 C870 1.251 . S
C872 H839 0.930 . S
C872 C874 1.406 . S
C872 C877 1.261 . S
C873 H840 0.930 . S
C873 N875 1.325 . S
C873 C876 1.357 . S
C874 H842 0.928 . S
C874 C872 1.406 . S
C874 N875 1.261 . S
N875 Co826 2.214 . S
N875 C873 1.325 . S
N875 C874 1.261 . S
C876 H846 0.931 . S
C876 C873 1.357 . S
C876 C877 1.312 . S
C877 H848 0.930 . S
C877 C872 1.261 . S
C877 C876 1.312 . S
C878 O850 1.214 . S
C878 O858 1.234 . S
C879 H851 0.929 . S
C879 C882 1.391 . S
C879 C884 1.391 . S
C880 H852 0.929 . S
C880 C881 1.390 . S
C880 N883 1.391 . S
C881 H853 0.930 . S
C881 C880 1.390 . S
C881 C882 1.392 . S
C882 H854 0.929 . S
C882 C879 1.391 . S
C882 C881 1.392 . S
N883 Co827 2.257 . S
N883 C880 1.391 . S
N883 C884 1.388 . S
C884 H855 0.930 . S
C884 C879 1.391 . S
C884 N883 1.388 . S
Co885 O887 2.143 . S
Co885 O893 2.074 . S
Co885 O896 2.093 . S
Co885 O909 2.097 . S
Co885 N926 2.151 . S
Co885 N934 2.214 . S
Co886 O887 2.160 . S
Co886 O892 2.058 . S
Co886 O902 2.057 . S
Co886 O917 2.037 . S
Co886 N921 2.145 . S
Co886 N942 2.257 . S
O887 Co885 2.143 . S
O887 Co886 2.160 . S
C888 O889 1.278 . S
C888 O896 1.224 . S
O889 C888 1.278 . S
C890 O891 1.245 . S
C890 O902 1.232 . S
O891 C890 1.245 . S
O892 Co886 2.058 . S
O892 C918 1.269 . S
O893 Co885 2.074 . S
O893 C918 1.257 . S
H894 C919 0.930 1_455 S
H895 C925 0.930 . S
O896 Co885 2.093 . S
O896 C888 1.224 . S
H897 C929 0.929 . S
H898 C931 0.930 . S
H899 C932 0.930 . S
H900 C930 0.929 . S
H901 C933 0.928 . S
O902 Co886 2.057 . S
O902 C890 1.232 . S
H903 C922 0.929 . S
H904 C923 0.929 . S
H905 C935 0.931 . S
H906 C927 0.929 . S
H907 C936 0.930 . S
H908 C928 0.931 . S
O909 Co885 2.097 . S
O909 C937 1.214 . S
H910 C938 0.929 . S
H911 C939 0.929 . S
H912 C940 0.930 1_455 S
H913 C941 0.929 . S
H914 C943 0.930 . S
H915 C920 0.930 . S
H916 C924 0.930 1_455 S
O917 Co886 2.037 . S
O917 C937 1.234 . S
C918 O892 1.269 . S
C918 O893 1.257 . S
C919 H894 0.930 1_655 S
C919 C922 1.388 . S
C919 C924 1.418 . S
C920 H915 0.930 . S
C920 C923 1.404 . S
C920 C924 1.353 . S
N921 Co886 2.145 . S
N921 C922 1.397 . S
N921 C923 1.334 . S
C922 H903 0.929 . S
C922 C919 1.388 . S
C922 N921 1.397 . S
C923 H904 0.929 . S
C923 C920 1.404 . S
C923 N921 1.334 . S
C924 H916 0.930 1_655 S
C924 C919 1.418 . S
C924 C920 1.353 . S
C925 H895 0.930 . S
C925 N926 1.330 . S
C925 C927 1.446 . S
N926 Co885 2.151 . S
N926 C925 1.330 . S
N926 C930 1.418 . S
C927 H906 0.929 . S
C927 C925 1.446 . S
C927 C928 1.332 . S
C928 H908 0.931 . S
C928 C927 1.332 . S
C928 C929 1.267 . S
C929 H897 0.929 . S
C929 C928 1.267 . S
C929 C930 1.251 . S
C930 H900 0.929 . S
C930 N926 1.418 . S
C930 C929 1.251 . S
C931 H898 0.930 . S
C931 C933 1.406 . S
C931 C936 1.261 . S
C932 H899 0.930 . S
C932 N934 1.325 . S
C932 C935 1.357 . S
C933 H901 0.928 . S
C933 C931 1.406 . S
C933 N934 1.261 . S
N934 Co885 2.214 . S
N934 C932 1.325 . S
N934 C933 1.261 . S
C935 H905 0.931 . S
C935 C932 1.357 . S
C935 C936 1.312 . S
C936 H907 0.930 . S
C936 C931 1.261 . S
C936 C935 1.312 . S
C937 O909 1.214 . S
C937 O917 1.234 . S
C938 H910 0.929 . S
C938 C941 1.391 . S
C938 C943 1.391 . S
C939 H911 0.929 . S
C939 C940 1.390 . S
C939 N942 1.391 . S
C940 H912 0.930 1_655 S
C940 C939 1.390 . S
C940 C941 1.392 . S
C941 H913 0.929 . S
C941 C938 1.391 . S
C941 C940 1.392 . S
N942 Co886 2.257 . S
N942 C939 1.391 . S
N942 C943 1.388 . S
C943 H914 0.930 . S
C943 C938 1.391 . S
C943 N942 1.388 . S
Co944 O946 2.143 . S
Co944 O952 2.074 . S
Co944 O955 2.093 . S
Co944 O968 2.097 . S
Co944 N985 2.151 . S
Co944 N993 2.214 . S
Co945 O946 2.160 . S
Co945 O951 2.058 . S
Co945 O961 2.057 . S
Co945 O976 2.037 . S
Co945 N980 2.145 . S
Co945 N1001 2.257 . S
O946 Co944 2.143 . S
O946 Co945 2.160 . S
C947 O948 1.278 . S
C947 O955 1.224 . S
O948 C947 1.278 . S
C949 O950 1.245 . S
C949 O961 1.232 . S
O950 C949 1.245 . S
O951 Co945 2.058 . S
O951 C977 1.269 . S
O952 Co944 2.074 . S
O952 C977 1.257 . S
H953 C978 0.930 . S
H954 C984 0.930 . S
O955 Co944 2.093 . S
O955 C947 1.224 . S
H956 C988 0.929 . S
H957 C990 0.930 . S
H958 C991 0.930 . S
H959 C989 0.929 . S
H960 C992 0.928 . S
O961 Co945 2.057 . S
O961 C949 1.232 . S
H962 C981 0.929 . S
H963 C982 0.929 . S
H964 C994 0.931 . S
H965 C986 0.929 . S
H966 C995 0.930 . S
H967 C987 0.931 . S
O968 Co944 2.097 . S
O968 C996 1.214 . S
H969 C997 0.929 . S
H970 C998 0.929 . S
H971 C999 0.930 . S
H972 C1000 0.929 . S
H973 C1002 0.930 . S
H974 C979 0.930 . S
H975 C983 0.930 . S
O976 Co945 2.037 . S
O976 C996 1.234 . S
C977 O951 1.269 . S
C977 O952 1.257 . S
C978 H953 0.930 . S
C978 C981 1.388 . S
C978 C983 1.418 . S
C979 H974 0.930 . S
C979 C982 1.404 . S
C979 C983 1.353 . S
N980 Co945 2.145 . S
N980 C981 1.397 . S
N980 C982 1.334 . S
C981 H962 0.929 . S
C981 C978 1.388 . S
C981 N980 1.397 . S
C982 H963 0.929 . S
C982 C979 1.404 . S
C982 N980 1.334 . S
C983 H975 0.930 . S
C983 C978 1.418 . S
C983 C979 1.353 . S
C984 H954 0.930 . S
C984 N985 1.330 . S
C984 C986 1.446 . S
N985 Co944 2.151 . S
N985 C984 1.330 . S
N985 C989 1.418 . S
C986 H965 0.929 . S
C986 C984 1.446 . S
C986 C987 1.332 . S
C987 H967 0.931 . S
C987 C986 1.332 . S
C987 C988 1.267 . S
C988 H956 0.929 . S
C988 C987 1.267 . S
C988 C989 1.251 . S
C989 H959 0.929 . S
C989 N985 1.418 . S
C989 C988 1.251 . S
C990 H957 0.930 . S
C990 C992 1.406 . S
C990 C995 1.261 . S
C991 H958 0.930 . S
C991 N993 1.325 . S
C991 C994 1.357 . S
C992 H960 0.928 . S
C992 C990 1.406 . S
C992 N993 1.261 . S
N993 Co944 2.214 . S
N993 C991 1.325 . S
N993 C992 1.261 . S
C994 H964 0.931 . S
C994 C991 1.357 . S
C994 C995 1.312 . S
C995 H966 0.930 . S
C995 C990 1.261 . S
C995 C994 1.312 . S
C996 O968 1.214 . S
C996 O976 1.234 . S
C997 H969 0.929 . S
C997 C1000 1.391 . S
C997 C1002 1.391 . S
C998 H970 0.929 . S
C998 C999 1.390 . S
C998 N1001 1.391 . S
C999 H971 0.930 . S
C999 C998 1.390 . S
C999 C1000 1.392 . S
C1000 H972 0.929 . S
C1000 C997 1.391 . S
C1000 C999 1.392 . S
N1001 Co945 2.257 . S
N1001 C998 1.391 . S
N1001 C1002 1.388 . S
C1002 H973 0.930 . S
C1002 C997 1.391 . S
C1002 N1001 1.388 . S
Co1003 O1005 2.143 . S
Co1003 O1011 2.074 . S
Co1003 O1014 2.093 . S
Co1003 O1027 2.097 . S
Co1003 N1044 2.151 . S
Co1003 N1052 2.214 . S
Co1004 O1005 2.160 . S
Co1004 O1010 2.058 . S
Co1004 O1020 2.057 . S
Co1004 O1035 2.037 . S
Co1004 N1039 2.145 . S
Co1004 N1060 2.257 . S
O1005 Co1003 2.143 . S
O1005 Co1004 2.160 . S
C1006 O1007 1.278 . S
C1006 O1014 1.224 . S
O1007 C1006 1.278 . S
C1008 O1009 1.245 . S
C1008 O1020 1.232 . S
O1009 C1008 1.245 . S
O1010 Co1004 2.058 . S
O1010 C1036 1.269 . S
O1011 Co1003 2.074 . S
O1011 C1036 1.257 . S
H1012 C1037 0.930 . S
H1013 C1043 0.930 . S
O1014 Co1003 2.093 . S
O1014 C1006 1.224 . S
H1015 C1047 0.929 . S
H1016 C1049 0.930 . S
H1017 C1050 0.930 . S
H1018 C1048 0.929 . S
H1019 C1051 0.928 . S
O1020 Co1004 2.057 . S
O1020 C1008 1.232 . S
H1021 C1040 0.929 . S
H1022 C1041 0.929 . S
H1023 C1053 0.931 . S
H1024 C1045 0.929 . S
H1025 C1054 0.930 . S
H1026 C1046 0.931 . S
O1027 Co1003 2.097 . S
O1027 C1055 1.214 . S
H1028 C1056 0.929 . S
H1029 C1057 0.929 . S
H1030 C1058 0.930 . S
H1031 C1059 0.929 . S
H1032 C1061 0.930 . S
H1033 C1038 0.930 . S
H1034 C1042 0.930 . S
O1035 Co1004 2.037 . S
O1035 C1055 1.234 . S
C1036 O1010 1.269 . S
C1036 O1011 1.257 . S
C1037 H1012 0.930 . S
C1037 C1040 1.388 . S
C1037 C1042 1.418 . S
C1038 H1033 0.930 . S
C1038 C1041 1.404 . S
C1038 C1042 1.353 . S
N1039 Co1004 2.145 . S
N1039 C1040 1.397 . S
N1039 C1041 1.334 . S
C1040 H1021 0.929 . S
C1040 C1037 1.388 . S
C1040 N1039 1.397 . S
C1041 H1022 0.929 . S
C1041 C1038 1.404 . S
C1041 N1039 1.334 . S
C1042 H1034 0.930 . S
C1042 C1037 1.418 . S
C1042 C1038 1.353 . S
C1043 H1013 0.930 . S
C1043 N1044 1.330 . S
C1043 C1045 1.446 . S
N1044 Co1003 2.151 . S
N1044 C1043 1.330 . S
N1044 C1048 1.418 . S
C1045 H1024 0.929 . S
C1045 C1043 1.446 . S
C1045 C1046 1.332 . S
C1046 H1026 0.931 . S
C1046 C1045 1.332 . S
C1046 C1047 1.267 . S
C1047 H1015 0.929 . S
C1047 C1046 1.267 . S
C1047 C1048 1.251 . S
C1048 H1018 0.929 . S
C1048 N1044 1.418 . S
C1048 C1047 1.251 . S
C1049 H1016 0.930 . S
C1049 C1051 1.406 . S
C1049 C1054 1.261 . S
C1050 H1017 0.930 . S
C1050 N1052 1.325 . S
C1050 C1053 1.357 . S
C1051 H1019 0.928 . S
C1051 C1049 1.406 . S
C1051 N1052 1.261 . S
N1052 Co1003 2.214 . S
N1052 C1050 1.325 . S
N1052 C1051 1.261 . S
C1053 H1023 0.931 . S
C1053 C1050 1.357 . S
C1053 C1054 1.312 . S
C1054 H1025 0.930 . S
C1054 C1049 1.261 . S
C1054 C1053 1.312 . S
C1055 O1027 1.214 . S
C1055 O1035 1.234 . S
C1056 H1028 0.929 . S
C1056 C1059 1.391 . S
C1056 C1061 1.391 . S
C1057 H1029 0.929 . S
C1057 C1058 1.390 . S
C1057 N1060 1.391 . S
C1058 H1030 0.930 . S
C1058 C1057 1.390 . S
C1058 C1059 1.392 . S
C1059 H1031 0.929 . S
C1059 C1056 1.391 . S
C1059 C1058 1.392 . S
N1060 Co1004 2.257 . S
N1060 C1057 1.391 . S
N1060 C1061 1.388 . S
C1061 H1032 0.930 . S
C1061 C1056 1.391 . S
C1061 N1060 1.388 . S
Co1062 O1064 2.143 . S
Co1062 O1070 2.074 . S
Co1062 O1073 2.093 . S
Co1062 O1086 2.097 . S
Co1062 N1103 2.151 . S
Co1062 N1111 2.214 . S
Co1063 O1064 2.160 . S
Co1063 O1069 2.058 . S
Co1063 O1079 2.057 . S
Co1063 O1094 2.037 . S
Co1063 N1098 2.145 . S
Co1063 N1119 2.257 . S
O1064 Co1062 2.143 . S
O1064 Co1063 2.160 . S
C1065 O1066 1.278 . S
C1065 O1073 1.224 . S
O1066 C1065 1.278 . S
C1067 O1068 1.245 . S
C1067 O1079 1.232 . S
O1068 C1067 1.245 . S
O1069 Co1063 2.058 . S
O1069 C1095 1.269 . S
O1070 Co1062 2.074 . S
O1070 C1095 1.257 . S
H1071 C1096 0.930 . S
H1072 C1102 0.930 . S
O1073 Co1062 2.093 . S
O1073 C1065 1.224 . S
H1074 C1106 0.929 . S
H1075 C1108 0.930 . S
H1076 C1109 0.930 . S
H1077 C1107 0.929 . S
H1078 C1110 0.928 . S
O1079 Co1063 2.057 . S
O1079 C1067 1.232 . S
H1080 C1099 0.929 . S
H1081 C1100 0.929 . S
H1082 C1112 0.931 . S
H1083 C1104 0.929 . S
H1084 C1113 0.930 . S
H1085 C1105 0.931 . S
O1086 Co1062 2.097 . S
O1086 C1114 1.214 . S
H1087 C1115 0.929 . S
H1088 C1116 0.929 . S
H1089 C1117 0.930 . S
H1090 C1118 0.929 . S
H1091 C1120 0.930 . S
H1092 C1097 0.930 . S
H1093 C1101 0.930 . S
O1094 Co1063 2.037 . S
O1094 C1114 1.234 . S
C1095 O1069 1.269 . S
C1095 O1070 1.257 . S
C1096 H1071 0.930 . S
C1096 C1099 1.388 . S
C1096 C1101 1.418 . S
C1097 H1092 0.930 . S
C1097 C1100 1.404 . S
C1097 C1101 1.353 . S
N1098 Co1063 2.145 . S
N1098 C1099 1.397 . S
N1098 C1100 1.334 . S
C1099 H1080 0.929 . S
C1099 C1096 1.388 . S
C1099 N1098 1.397 . S
C1100 H1081 0.929 . S
C1100 C1097 1.404 . S
C1100 N1098 1.334 . S
C1101 H1093 0.930 . S
C1101 C1096 1.418 . S
C1101 C1097 1.353 . S
C1102 H1072 0.930 . S
C1102 N1103 1.330 . S
C1102 C1104 1.446 . S
N1103 Co1062 2.151 . S
N1103 C1102 1.330 . S
N1103 C1107 1.418 . S
C1104 H1083 0.929 . S
C1104 C1102 1.446 . S
C1104 C1105 1.332 . S
C1105 H1085 0.931 . S
C1105 C1104 1.332 . S
C1105 C1106 1.267 . S
C1106 H1074 0.929 . S
C1106 C1105 1.267 . S
C1106 C1107 1.251 . S
C1107 H1077 0.929 . S
C1107 N1103 1.418 . S
C1107 C1106 1.251 . S
C1108 H1075 0.930 . S
C1108 C1110 1.406 . S
C1108 C1113 1.261 . S
C1109 H1076 0.930 . S
C1109 N1111 1.325 . S
C1109 C1112 1.357 . S
C1110 H1078 0.928 . S
C1110 C1108 1.406 . S
C1110 N1111 1.261 . S
N1111 Co1062 2.214 . S
N1111 C1109 1.325 . S
N1111 C1110 1.261 . S
C1112 H1082 0.931 . S
C1112 C1109 1.357 . S
C1112 C1113 1.312 . S
C1113 H1084 0.930 . S
C1113 C1108 1.261 . S
C1113 C1112 1.312 . S
C1114 O1086 1.214 . S
C1114 O1094 1.234 . S
C1115 H1087 0.929 . S
C1115 C1118 1.391 . S
C1115 C1120 1.391 . S
C1116 H1088 0.929 . S
C1116 C1117 1.390 . S
C1116 N1119 1.391 . S
C1117 H1089 0.930 . S
C1117 C1116 1.390 . S
C1117 C1118 1.392 . S
C1118 H1090 0.929 . S
C1118 C1115 1.391 . S
C1118 C1117 1.392 . S
N1119 Co1063 2.257 . S
N1119 C1116 1.391 . S
N1119 C1120 1.388 . S
C1120 H1091 0.930 . S
C1120 C1115 1.391 . S
C1120 N1119 1.388 . S
Co1121 O1123 2.143 . S
Co1121 O1129 2.074 . S
Co1121 O1132 2.093 . S
Co1121 O1145 2.097 . S
Co1121 N1162 2.151 . S
Co1121 N1170 2.214 . S
Co1122 O1123 2.160 . S
Co1122 O1128 2.058 . S
Co1122 O1138 2.057 . S
Co1122 O1153 2.037 . S
Co1122 N1157 2.145 . S
Co1122 N1178 2.257 . S
O1123 Co1121 2.143 . S
O1123 Co1122 2.160 . S
C1124 O1125 1.278 . S
C1124 O1132 1.224 . S
O1125 C1124 1.278 . S
C1126 O1127 1.245 . S
C1126 O1138 1.232 . S
O1127 C1126 1.245 . S
O1128 Co1122 2.058 . S
O1128 C1154 1.269 . S
O1129 Co1121 2.074 . S
O1129 C1154 1.257 . S
H1130 C1155 0.930 . S
H1131 C1161 0.930 . S
O1132 Co1121 2.093 . S
O1132 C1124 1.224 . S
H1133 C1165 0.929 . S
H1134 C1167 0.930 . S
H1135 C1168 0.930 . S
H1136 C1166 0.929 . S
H1137 C1169 0.928 . S
O1138 Co1122 2.057 . S
O1138 C1126 1.232 . S
H1139 C1158 0.929 . S
H1140 C1159 0.929 . S
H1141 C1171 0.931 . S
H1142 C1163 0.929 . S
H1143 C1172 0.930 . S
H1144 C1164 0.931 . S
O1145 Co1121 2.097 . S
O1145 C1173 1.214 . S
H1146 C1174 0.929 . S
H1147 C1175 0.929 . S
H1148 C1176 0.930 . S
H1149 C1177 0.929 . S
H1150 C1179 0.930 . S
H1151 C1156 0.930 . S
H1152 C1160 0.930 . S
O1153 Co1122 2.037 . S
O1153 C1173 1.234 . S
C1154 O1128 1.269 . S
C1154 O1129 1.257 . S
C1155 H1130 0.930 . S
C1155 C1158 1.388 . S
C1155 C1160 1.418 . S
C1156 H1151 0.930 . S
C1156 C1159 1.404 . S
C1156 C1160 1.353 . S
N1157 Co1122 2.145 . S
N1157 C1158 1.397 . S
N1157 C1159 1.334 . S
C1158 H1139 0.929 . S
C1158 C1155 1.388 . S
C1158 N1157 1.397 . S
C1159 H1140 0.929 . S
C1159 C1156 1.404 . S
C1159 N1157 1.334 . S
C1160 H1152 0.930 . S
C1160 C1155 1.418 . S
C1160 C1156 1.353 . S
C1161 H1131 0.930 . S
C1161 N1162 1.330 . S
C1161 C1163 1.446 . S
N1162 Co1121 2.151 . S
N1162 C1161 1.330 . S
N1162 C1166 1.418 . S
C1163 H1142 0.929 . S
C1163 C1161 1.446 . S
C1163 C1164 1.332 . S
C1164 H1144 0.931 . S
C1164 C1163 1.332 . S
C1164 C1165 1.267 . S
C1165 H1133 0.929 . S
C1165 C1164 1.267 . S
C1165 C1166 1.251 . S
C1166 H1136 0.929 . S
C1166 N1162 1.418 . S
C1166 C1165 1.251 . S
C1167 H1134 0.930 . S
C1167 C1169 1.406 . S
C1167 C1172 1.261 . S
C1168 H1135 0.930 . S
C1168 N1170 1.325 . S
C1168 C1171 1.357 . S
C1169 H1137 0.928 . S
C1169 C1167 1.406 . S
C1169 N1170 1.261 . S
N1170 Co1121 2.214 . S
N1170 C1168 1.325 . S
N1170 C1169 1.261 . S
C1171 H1141 0.931 . S
C1171 C1168 1.357 . S
C1171 C1172 1.312 . S
C1172 H1143 0.930 . S
C1172 C1167 1.261 . S
C1172 C1171 1.312 . S
C1173 O1145 1.214 . S
C1173 O1153 1.234 . S
C1174 H1146 0.929 . S
C1174 C1177 1.391 . S
C1174 C1179 1.391 . S
C1175 H1147 0.929 . S
C1175 C1176 1.390 . S
C1175 N1178 1.391 . S
C1176 H1148 0.930 . S
C1176 C1175 1.390 . S
C1176 C1177 1.392 . S
C1177 H1149 0.929 . S
C1177 C1174 1.391 . S
C1177 C1176 1.392 . S
N1178 Co1122 2.257 . S
N1178 C1175 1.391 . S
N1178 C1179 1.388 . S
C1179 H1150 0.930 . S
C1179 C1174 1.391 . S
C1179 N1178 1.388 . S
Co1180 O1182 2.143 . S
Co1180 O1188 2.074 . S
Co1180 O1191 2.093 . S
Co1180 O1204 2.097 . S
Co1180 N1221 2.151 . S
Co1180 N1229 2.214 . S
Co1181 O1182 2.160 . S
Co1181 O1187 2.058 . S
Co1181 O1197 2.057 . S
Co1181 O1212 2.037 . S
Co1181 N1216 2.145 . S
Co1181 N1237 2.257 . S
O1182 Co1180 2.143 . S
O1182 Co1181 2.160 . S
C1183 O1184 1.278 . S
C1183 O1191 1.224 . S
O1184 C1183 1.278 . S
C1185 O1186 1.245 . S
C1185 O1197 1.232 . S
O1186 C1185 1.245 . S
O1187 Co1181 2.058 . S
O1187 C1213 1.269 . S
O1188 Co1180 2.074 . S
O1188 C1213 1.257 . S
H1189 C1214 0.930 . S
H1190 C1220 0.930 . S
O1191 Co1180 2.093 . S
O1191 C1183 1.224 . S
H1192 C1224 0.929 . S
H1193 C1226 0.930 . S
H1194 C1227 0.930 . S
H1195 C1225 0.929 . S
H1196 C1228 0.928 . S
O1197 Co1181 2.057 . S
O1197 C1185 1.232 . S
H1198 C1217 0.929 . S
H1199 C1218 0.929 . S
H1200 C1230 0.931 . S
H1201 C1222 0.929 . S
H1202 C1231 0.930 . S
H1203 C1223 0.931 . S
O1204 Co1180 2.097 . S
O1204 C1232 1.214 . S
H1205 C1233 0.929 . S
H1206 C1234 0.929 . S
H1207 C1235 0.930 . S
H1208 C1236 0.929 . S
H1209 C1238 0.930 . S
H1210 C1215 0.930 . S
H1211 C1219 0.930 . S
O1212 Co1181 2.037 . S
O1212 C1232 1.234 . S
C1213 O1187 1.269 . S
C1213 O1188 1.257 . S
C1214 H1189 0.930 . S
C1214 C1217 1.388 . S
C1214 C1219 1.418 . S
C1215 H1210 0.930 . S
C1215 C1218 1.404 . S
C1215 C1219 1.353 . S
N1216 Co1181 2.145 . S
N1216 C1217 1.397 . S
N1216 C1218 1.334 . S
C1217 H1198 0.929 . S
C1217 C1214 1.388 . S
C1217 N1216 1.397 . S
C1218 H1199 0.929 . S
C1218 C1215 1.404 . S
C1218 N1216 1.334 . S
C1219 H1211 0.930 . S
C1219 C1214 1.418 . S
C1219 C1215 1.353 . S
C1220 H1190 0.930 . S
C1220 N1221 1.330 . S
C1220 C1222 1.446 . S
N1221 Co1180 2.151 . S
N1221 C1220 1.330 . S
N1221 C1225 1.418 . S
C1222 H1201 0.929 . S
C1222 C1220 1.446 . S
C1222 C1223 1.332 . S
C1223 H1203 0.931 . S
C1223 C1222 1.332 . S
C1223 C1224 1.267 . S
C1224 H1192 0.929 . S
C1224 C1223 1.267 . S
C1224 C1225 1.251 . S
C1225 H1195 0.929 . S
C1225 N1221 1.418 . S
C1225 C1224 1.251 . S
C1226 H1193 0.930 . S
C1226 C1228 1.406 . S
C1226 C1231 1.261 . S
C1227 H1194 0.930 . S
C1227 N1229 1.325 . S
C1227 C1230 1.357 . S
C1228 H1196 0.928 . S
C1228 C1226 1.406 . S
C1228 N1229 1.261 . S
N1229 Co1180 2.214 . S
N1229 C1227 1.325 . S
N1229 C1228 1.261 . S
C1230 H1200 0.931 . S
C1230 C1227 1.357 . S
C1230 C1231 1.312 . S
C1231 H1202 0.930 . S
C1231 C1226 1.261 . S
C1231 C1230 1.312 . S
C1232 O1204 1.214 . S
C1232 O1212 1.234 . S
C1233 H1205 0.929 . S
C1233 C1236 1.391 . S
C1233 C1238 1.391 . S
C1234 H1206 0.929 . S
C1234 C1235 1.390 . S
C1234 N1237 1.391 . S
C1235 H1207 0.930 . S
C1235 C1234 1.390 . S
C1235 C1236 1.392 . S
C1236 H1208 0.929 . S
C1236 C1233 1.391 . S
C1236 C1235 1.392 . S
N1237 Co1181 2.257 . S
N1237 C1234 1.391 . S
N1237 C1238 1.388 . S
C1238 H1209 0.930 . S
C1238 C1233 1.391 . S
C1238 N1237 1.388 . S
Co1239 O1241 2.143 . S
Co1239 O1247 2.074 . S
Co1239 O1250 2.093 . S
Co1239 O1263 2.097 . S
Co1239 N1280 2.151 . S
Co1239 N1288 2.214 . S
Co1240 O1241 2.160 . S
Co1240 O1246 2.058 . S
Co1240 O1256 2.057 . S
Co1240 O1271 2.037 . S
Co1240 N1275 2.145 . S
Co1240 N1296 2.257 . S
O1241 Co1239 2.143 . S
O1241 Co1240 2.160 . S
C1242 O1243 1.278 . S
C1242 O1250 1.224 . S
O1243 C1242 1.278 . S
C1244 O1245 1.245 . S
C1244 O1256 1.232 . S
O1245 C1244 1.245 . S
O1246 Co1240 2.058 . S
O1246 C1272 1.269 . S
O1247 Co1239 2.074 . S
O1247 C1272 1.257 . S
H1248 C1273 0.930 . S
H1249 C1279 0.930 . S
O1250 Co1239 2.093 . S
O1250 C1242 1.224 . S
H1251 C1283 0.929 . S
H1252 C1285 0.930 . S
H1253 C1286 0.930 . S
H1254 C1284 0.929 . S
H1255 C1287 0.928 . S
O1256 Co1240 2.057 . S
O1256 C1244 1.232 . S
H1257 C1276 0.929 . S
H1258 C1277 0.929 . S
H1259 C1289 0.931 . S
H1260 C1281 0.929 . S
H1261 C1290 0.930 . S
H1262 C1282 0.931 . S
O1263 Co1239 2.097 . S
O1263 C1291 1.214 . S
H1264 C1292 0.929 . S
H1265 C1293 0.929 . S
H1266 C1294 0.930 . S
H1267 C1295 0.929 . S
H1268 C1297 0.930 . S
H1269 C1274 0.930 . S
H1270 C1278 0.930 . S
O1271 Co1240 2.037 . S
O1271 C1291 1.234 . S
C1272 O1246 1.269 . S
C1272 O1247 1.257 . S
C1273 H1248 0.930 . S
C1273 C1276 1.388 . S
C1273 C1278 1.418 . S
C1274 H1269 0.930 . S
C1274 C1277 1.404 . S
C1274 C1278 1.353 . S
N1275 Co1240 2.145 . S
N1275 C1276 1.397 . S
N1275 C1277 1.334 . S
C1276 H1257 0.929 . S
C1276 C1273 1.388 . S
C1276 N1275 1.397 . S
C1277 H1258 0.929 . S
C1277 C1274 1.404 . S
C1277 N1275 1.334 . S
C1278 H1270 0.930 . S
C1278 C1273 1.418 . S
C1278 C1274 1.353 . S
C1279 H1249 0.930 . S
C1279 N1280 1.330 . S
C1279 C1281 1.446 . S
N1280 Co1239 2.151 . S
N1280 C1279 1.330 . S
N1280 C1284 1.418 . S
C1281 H1260 0.929 . S
C1281 C1279 1.446 . S
C1281 C1282 1.332 . S
C1282 H1262 0.931 . S
C1282 C1281 1.332 . S
C1282 C1283 1.267 . S
C1283 H1251 0.929 . S
C1283 C1282 1.267 . S
C1283 C1284 1.251 . S
C1284 H1254 0.929 . S
C1284 N1280 1.418 . S
C1284 C1283 1.251 . S
C1285 H1252 0.930 . S
C1285 C1287 1.406 . S
C1285 C1290 1.261 . S
C1286 H1253 0.930 . S
C1286 N1288 1.325 . S
C1286 C1289 1.357 . S
C1287 H1255 0.928 . S
C1287 C1285 1.406 . S
C1287 N1288 1.261 . S
N1288 Co1239 2.214 . S
N1288 C1286 1.325 . S
N1288 C1287 1.261 . S
C1289 H1259 0.931 . S
C1289 C1286 1.357 . S
C1289 C1290 1.312 . S
C1290 H1261 0.930 . S
C1290 C1285 1.261 . S
C1290 C1289 1.312 . S
C1291 O1263 1.214 . S
C1291 O1271 1.234 . S
C1292 H1264 0.929 . S
C1292 C1295 1.391 . S
C1292 C1297 1.391 . S
C1293 H1265 0.929 . S
C1293 C1294 1.390 . S
C1293 N1296 1.391 . S
C1294 H1266 0.930 . S
C1294 C1293 1.390 . S
C1294 C1295 1.392 . S
C1295 H1267 0.929 . S
C1295 C1292 1.391 . S
C1295 C1294 1.392 . S
N1296 Co1240 2.257 . S
N1296 C1293 1.391 . S
N1296 C1297 1.388 . S
C1297 H1268 0.930 . S
C1297 C1292 1.391 . S
C1297 N1296 1.388 . S
Co1298 O1300 2.143 . S
Co1298 O1306 2.074 . S
Co1298 O1309 2.093 . S
Co1298 O1322 2.097 . S
Co1298 N1339 2.151 . S
Co1298 N1347 2.214 . S
Co1299 O1300 2.160 . S
Co1299 O1305 2.058 . S
Co1299 O1315 2.057 . S
Co1299 O1330 2.037 . S
Co1299 N1334 2.145 . S
Co1299 N1355 2.257 . S
O1300 Co1298 2.143 . S
O1300 Co1299 2.160 . S
C1301 O1302 1.278 . S
C1301 O1309 1.224 . S
O1302 C1301 1.278 . S
C1303 O1304 1.245 . S
C1303 O1315 1.232 . S
O1304 C1303 1.245 . S
O1305 Co1299 2.058 . S
O1305 C1331 1.269 . S
O1306 Co1298 2.074 . S
O1306 C1331 1.257 . S
H1307 C1332 0.930 . S
H1308 C1338 0.930 . S
O1309 Co1298 2.093 . S
O1309 C1301 1.224 . S
H1310 C1342 0.929 . S
H1311 C1344 0.930 . S
H1312 C1345 0.930 . S
H1313 C1343 0.929 . S
H1314 C1346 0.928 . S
O1315 Co1299 2.057 . S
O1315 C1303 1.232 . S
H1316 C1335 0.929 . S
H1317 C1336 0.929 . S
H1318 C1348 0.931 . S
H1319 C1340 0.929 . S
H1320 C1349 0.930 . S
H1321 C1341 0.931 . S
O1322 Co1298 2.097 . S
O1322 C1350 1.214 . S
H1323 C1351 0.929 . S
H1324 C1352 0.929 . S
H1325 C1353 0.930 . S
H1326 C1354 0.929 . S
H1327 C1356 0.930 . S
H1328 C1333 0.930 . S
H1329 C1337 0.930 . S
O1330 Co1299 2.037 . S
O1330 C1350 1.234 . S
C1331 O1305 1.269 . S
C1331 O1306 1.257 . S
C1332 H1307 0.930 . S
C1332 C1335 1.388 . S
C1332 C1337 1.418 . S
C1333 H1328 0.930 . S
C1333 C1336 1.404 . S
C1333 C1337 1.353 . S
N1334 Co1299 2.145 . S
N1334 C1335 1.397 . S
N1334 C1336 1.334 . S
C1335 H1316 0.929 . S
C1335 C1332 1.388 . S
C1335 N1334 1.397 . S
C1336 H1317 0.929 . S
C1336 C1333 1.404 . S
C1336 N1334 1.334 . S
C1337 H1329 0.930 . S
C1337 C1332 1.418 . S
C1337 C1333 1.353 . S
C1338 H1308 0.930 . S
C1338 N1339 1.330 . S
C1338 C1340 1.446 . S
N1339 Co1298 2.151 . S
N1339 C1338 1.330 . S
N1339 C1343 1.418 . S
C1340 H1319 0.929 . S
C1340 C1338 1.446 . S
C1340 C1341 1.332 . S
C1341 H1321 0.931 . S
C1341 C1340 1.332 . S
C1341 C1342 1.267 . S
C1342 H1310 0.929 . S
C1342 C1341 1.267 . S
C1342 C1343 1.251 . S
C1343 H1313 0.929 . S
C1343 N1339 1.418 . S
C1343 C1342 1.251 . S
C1344 H1311 0.930 . S
C1344 C1346 1.406 . S
C1344 C1349 1.261 . S
C1345 H1312 0.930 . S
C1345 N1347 1.325 . S
C1345 C1348 1.357 . S
C1346 H1314 0.928 . S
C1346 C1344 1.406 . S
C1346 N1347 1.261 . S
N1347 Co1298 2.214 . S
N1347 C1345 1.325 . S
N1347 C1346 1.261 . S
C1348 H1318 0.931 . S
C1348 C1345 1.357 . S
C1348 C1349 1.312 . S
C1349 H1320 0.930 . S
C1349 C1344 1.261 . S
C1349 C1348 1.312 . S
C1350 O1322 1.214 . S
C1350 O1330 1.234 . S
C1351 H1323 0.929 . S
C1351 C1354 1.391 . S
C1351 C1356 1.391 . S
C1352 H1324 0.929 . S
C1352 C1353 1.390 . S
C1352 N1355 1.391 . S
C1353 H1325 0.930 . S
C1353 C1352 1.390 . S
C1353 C1354 1.392 . S
C1354 H1326 0.929 . S
C1354 C1351 1.391 . S
C1354 C1353 1.392 . S
N1355 Co1299 2.257 . S
N1355 C1352 1.391 . S
N1355 C1356 1.388 . S
C1356 H1327 0.930 . S
C1356 C1351 1.391 . S
C1356 N1355 1.388 . S
Co1357 O1359 2.143 . S
Co1357 O1365 2.074 . S
Co1357 O1368 2.093 . S
Co1357 O1381 2.097 . S
Co1357 N1398 2.151 . S
Co1357 N1406 2.214 . S
Co1358 O1359 2.160 . S
Co1358 O1364 2.058 . S
Co1358 O1374 2.057 . S
Co1358 O1389 2.037 . S
Co1358 N1393 2.145 . S
Co1358 N1414 2.257 . S
O1359 Co1357 2.143 . S
O1359 Co1358 2.160 . S
C1360 O1361 1.278 . S
C1360 O1368 1.224 . S
O1361 C1360 1.278 . S
C1362 O1363 1.245 . S
C1362 O1374 1.232 . S
O1363 C1362 1.245 . S
O1364 Co1358 2.058 . S
O1364 C1390 1.269 . S
O1365 Co1357 2.074 . S
O1365 C1390 1.257 . S
H1366 C1391 0.930 . S
H1367 C1397 0.930 . S
O1368 Co1357 2.093 . S
O1368 C1360 1.224 . S
H1369 C1401 0.929 . S
H1370 C1403 0.930 . S
H1371 C1404 0.930 . S
H1372 C1402 0.929 . S
H1373 C1405 0.928 . S
O1374 Co1358 2.057 . S
O1374 C1362 1.232 . S
H1375 C1394 0.929 . S
H1376 C1395 0.929 . S
H1377 C1407 0.931 . S
H1378 C1399 0.929 . S
H1379 C1408 0.930 . S
H1380 C1400 0.931 . S
O1381 Co1357 2.097 . S
O1381 C1409 1.214 . S
H1382 C1410 0.929 . S
H1383 C1411 0.929 . S
H1384 C1412 0.930 . S
H1385 C1413 0.929 . S
H1386 C1415 0.930 . S
H1387 C1392 0.930 . S
H1388 C1396 0.930 . S
O1389 Co1358 2.037 . S
O1389 C1409 1.234 . S
C1390 O1364 1.269 . S
C1390 O1365 1.257 . S
C1391 H1366 0.930 . S
C1391 C1394 1.388 . S
C1391 C1396 1.418 . S
C1392 H1387 0.930 . S
C1392 C1395 1.404 . S
C1392 C1396 1.353 . S
N1393 Co1358 2.145 . S
N1393 C1394 1.397 . S
N1393 C1395 1.334 . S
C1394 H1375 0.929 . S
C1394 C1391 1.388 . S
C1394 N1393 1.397 . S
C1395 H1376 0.929 . S
C1395 C1392 1.404 . S
C1395 N1393 1.334 . S
C1396 H1388 0.930 . S
C1396 C1391 1.418 . S
C1396 C1392 1.353 . S
C1397 H1367 0.930 . S
C1397 N1398 1.330 . S
C1397 C1399 1.446 . S
N1398 Co1357 2.151 . S
N1398 C1397 1.330 . S
N1398 C1402 1.418 . S
C1399 H1378 0.929 . S
C1399 C1397 1.446 . S
C1399 C1400 1.332 . S
C1400 H1380 0.931 . S
C1400 C1399 1.332 . S
C1400 C1401 1.267 . S
C1401 H1369 0.929 . S
C1401 C1400 1.267 . S
C1401 C1402 1.251 . S
C1402 H1372 0.929 . S
C1402 N1398 1.418 . S
C1402 C1401 1.251 . S
C1403 H1370 0.930 . S
C1403 C1405 1.406 . S
C1403 C1408 1.261 . S
C1404 H1371 0.930 . S
C1404 N1406 1.325 . S
C1404 C1407 1.357 . S
C1405 H1373 0.928 . S
C1405 C1403 1.406 . S
C1405 N1406 1.261 . S
N1406 Co1357 2.214 . S
N1406 C1404 1.325 . S
N1406 C1405 1.261 . S
C1407 H1377 0.931 . S
C1407 C1404 1.357 . S
C1407 C1408 1.312 . S
C1408 H1379 0.930 . S
C1408 C1403 1.261 . S
C1408 C1407 1.312 . S
C1409 O1381 1.214 . S
C1409 O1389 1.234 . S
C1410 H1382 0.929 . S
C1410 C1413 1.391 . S
C1410 C1415 1.391 . S
C1411 H1383 0.929 . S
C1411 C1412 1.390 . S
C1411 N1414 1.391 . S
C1412 H1384 0.930 . S
C1412 C1411 1.390 . S
C1412 C1413 1.392 . S
C1413 H1385 0.929 . S
C1413 C1410 1.391 . S
C1413 C1412 1.392 . S
N1414 Co1358 2.257 . S
N1414 C1411 1.391 . S
N1414 C1415 1.388 . S
C1415 H1386 0.930 . S
C1415 C1410 1.391 . S
C1415 N1414 1.388 . S
Co1416 O1418 2.143 . S
Co1416 O1424 2.074 . S
Co1416 O1427 2.093 . S
Co1416 O1440 2.097 . S
Co1416 N1457 2.151 . S
Co1416 N1465 2.214 . S
Co1417 O1418 2.160 . S
Co1417 O1423 2.058 . S
Co1417 O1433 2.057 . S
Co1417 O1448 2.037 . S
Co1417 N1452 2.145 . S
Co1417 N1473 2.257 . S
O1418 Co1416 2.143 . S
O1418 Co1417 2.160 . S
C1419 O1420 1.278 . S
C1419 O1427 1.224 . S
O1420 C1419 1.278 . S
C1421 O1422 1.245 . S
C1421 O1433 1.232 . S
O1422 C1421 1.245 . S
O1423 Co1417 2.058 . S
O1423 C1449 1.269 . S
O1424 Co1416 2.074 . S
O1424 C1449 1.257 . S
H1425 C1450 0.930 . S
H1426 C1456 0.930 . S
O1427 Co1416 2.093 . S
O1427 C1419 1.224 . S
H1428 C1460 0.929 . S
H1429 C1462 0.930 . S
H1430 C1463 0.930 . S
H1431 C1461 0.929 . S
H1432 C1464 0.928 . S
O1433 Co1417 2.057 . S
O1433 C1421 1.232 . S
H1434 C1453 0.929 . S
H1435 C1454 0.929 . S
H1436 C1466 0.931 . S
H1437 C1458 0.929 . S
H1438 C1467 0.930 . S
H1439 C1459 0.931 . S
O1440 Co1416 2.097 . S
O1440 C1468 1.214 . S
H1441 C1469 0.929 . S
H1442 C1470 0.929 . S
H1443 C1471 0.930 . S
H1444 C1472 0.929 . S
H1445 C1474 0.930 . S
H1446 C1451 0.930 . S
H1447 C1455 0.930 . S
O1448 Co1417 2.037 . S
O1448 C1468 1.234 . S
C1449 O1423 1.269 . S
C1449 O1424 1.257 . S
C1450 H1425 0.930 . S
C1450 C1453 1.388 . S
C1450 C1455 1.418 . S
C1451 H1446 0.930 . S
C1451 C1454 1.404 . S
C1451 C1455 1.353 . S
N1452 Co1417 2.145 . S
N1452 C1453 1.397 . S
N1452 C1454 1.334 . S
C1453 H1434 0.929 . S
C1453 C1450 1.388 . S
C1453 N1452 1.397 . S
C1454 H1435 0.929 . S
C1454 C1451 1.404 . S
C1454 N1452 1.334 . S
C1455 H1447 0.930 . S
C1455 C1450 1.418 . S
C1455 C1451 1.353 . S
C1456 H1426 0.930 . S
C1456 N1457 1.330 . S
C1456 C1458 1.446 . S
N1457 Co1416 2.151 . S
N1457 C1456 1.330 . S
N1457 C1461 1.418 . S
C1458 H1437 0.929 . S
C1458 C1456 1.446 . S
C1458 C1459 1.332 . S
C1459 H1439 0.931 . S
C1459 C1458 1.332 . S
C1459 C1460 1.267 . S
C1460 H1428 0.929 . S
C1460 C1459 1.267 . S
C1460 C1461 1.251 . S
C1461 H1431 0.929 . S
C1461 N1457 1.418 . S
C1461 C1460 1.251 . S
C1462 H1429 0.930 . S
C1462 C1464 1.406 . S
C1462 C1467 1.261 . S
C1463 H1430 0.930 . S
C1463 N1465 1.325 . S
C1463 C1466 1.357 . S
C1464 H1432 0.928 . S
C1464 C1462 1.406 . S
C1464 N1465 1.261 . S
N1465 Co1416 2.214 . S
N1465 C1463 1.325 . S
N1465 C1464 1.261 . S
C1466 H1436 0.931 . S
C1466 C1463 1.357 . S
C1466 C1467 1.312 . S
C1467 H1438 0.930 . S
C1467 C1462 1.261 . S
C1467 C1466 1.312 . S
C1468 O1440 1.214 . S
C1468 O1448 1.234 . S
C1469 H1441 0.929 . S
C1469 C1472 1.391 . S
C1469 C1474 1.391 . S
C1470 H1442 0.929 . S
C1470 C1471 1.390 . S
C1470 N1473 1.391 . S
C1471 H1443 0.930 . S
C1471 C1470 1.390 . S
C1471 C1472 1.392 . S
C1472 H1444 0.929 . S
C1472 C1469 1.391 . S
C1472 C1471 1.392 . S
N1473 Co1417 2.257 . S
N1473 C1470 1.391 . S
N1473 C1474 1.388 . S
C1474 H1445 0.930 . S
C1474 C1469 1.391 . S
C1474 N1473 1.388 . S
Co1475 O1477 2.143 . S
Co1475 O1483 2.074 . S
Co1475 O1486 2.093 . S
Co1475 O1499 2.097 . S
Co1475 N1516 2.151 . S
Co1475 N1524 2.214 . S
Co1476 O1477 2.160 . S
Co1476 O1482 2.058 . S
Co1476 O1492 2.057 . S
Co1476 O1507 2.037 . S
Co1476 N1511 2.145 . S
Co1476 N1532 2.257 . S
O1477 Co1475 2.143 . S
O1477 Co1476 2.160 . S
C1478 O1479 1.278 . S
C1478 O1486 1.224 . S
O1479 C1478 1.278 . S
C1480 O1481 1.245 . S
C1480 O1492 1.232 . S
O1481 C1480 1.245 . S
O1482 Co1476 2.058 . S
O1482 C1508 1.269 . S
O1483 Co1475 2.074 . S
O1483 C1508 1.257 . S
H1484 C1509 0.930 . S
H1485 C1515 0.930 . S
O1486 Co1475 2.093 . S
O1486 C1478 1.224 . S
H1487 C1519 0.929 . S
H1488 C1521 0.930 . S
H1489 C1522 0.930 . S
H1490 C1520 0.929 . S
H1491 C1523 0.928 . S
O1492 Co1476 2.057 . S
O1492 C1480 1.232 . S
H1493 C1512 0.929 . S
H1494 C1513 0.929 . S
H1495 C1525 0.931 . S
H1496 C1517 0.929 . S
H1497 C1526 0.930 . S
H1498 C1518 0.931 . S
O1499 Co1475 2.097 . S
O1499 C1527 1.214 . S
H1500 C1528 0.929 . S
H1501 C1529 0.929 . S
H1502 C1530 0.930 . S
H1503 C1531 0.929 . S
H1504 C1533 0.930 . S
H1505 C1510 0.930 . S
H1506 C1514 0.930 . S
O1507 Co1476 2.037 . S
O1507 C1527 1.234 . S
C1508 O1482 1.269 . S
C1508 O1483 1.257 . S
C1509 H1484 0.930 . S
C1509 C1512 1.388 . S
C1509 C1514 1.418 . S
C1510 H1505 0.930 . S
C1510 C1513 1.404 . S
C1510 C1514 1.353 . S
N1511 Co1476 2.145 . S
N1511 C1512 1.397 . S
N1511 C1513 1.334 . S
C1512 H1493 0.929 . S
C1512 C1509 1.388 . S
C1512 N1511 1.397 . S
C1513 H1494 0.929 . S
C1513 C1510 1.404 . S
C1513 N1511 1.334 . S
C1514 H1506 0.930 . S
C1514 C1509 1.418 . S
C1514 C1510 1.353 . S
C1515 H1485 0.930 . S
C1515 N1516 1.330 . S
C1515 C1517 1.446 . S
N1516 Co1475 2.151 . S
N1516 C1515 1.330 . S
N1516 C1520 1.418 . S
C1517 H1496 0.929 . S
C1517 C1515 1.446 . S
C1517 C1518 1.332 . S
C1518 H1498 0.931 . S
C1518 C1517 1.332 . S
C1518 C1519 1.267 . S
C1519 H1487 0.929 . S
C1519 C1518 1.267 . S
C1519 C1520 1.251 . S
C1520 H1490 0.929 . S
C1520 N1516 1.418 . S
C1520 C1519 1.251 . S
C1521 H1488 0.930 . S
C1521 C1523 1.406 . S
C1521 C1526 1.261 . S
C1522 H1489 0.930 . S
C1522 N1524 1.325 . S
C1522 C1525 1.357 . S
C1523 H1491 0.928 . S
C1523 C1521 1.406 . S
C1523 N1524 1.261 . S
N1524 Co1475 2.214 . S
N1524 C1522 1.325 . S
N1524 C1523 1.261 . S
C1525 H1495 0.931 . S
C1525 C1522 1.357 . S
C1525 C1526 1.312 . S
C1526 H1497 0.930 . S
C1526 C1521 1.261 . S
C1526 C1525 1.312 . S
C1527 O1499 1.214 . S
C1527 O1507 1.234 . S
C1528 H1500 0.929 . S
C1528 C1531 1.391 . S
C1528 C1533 1.391 . S
C1529 H1501 0.929 . S
C1529 C1530 1.390 . S
C1529 N1532 1.391 . S
C1530 H1502 0.930 . S
C1530 C1529 1.390 . S
C1530 C1531 1.392 . S
C1531 H1503 0.929 . S
C1531 C1528 1.391 . S
C1531 C1530 1.392 . S
N1532 Co1476 2.257 . S
N1532 C1529 1.391 . S
N1532 C1533 1.388 . S
C1533 H1504 0.930 . S
C1533 C1528 1.391 . S
C1533 N1532 1.388 . S
Co1534 O1536 2.143 . S
Co1534 O1542 2.074 1_554 S
Co1534 O1545 2.093 . S
Co1534 O1558 2.097 . S
Co1534 N1575 2.151 . S
Co1534 N1583 2.214 . S
Co1535 O1536 2.160 1_556 S
Co1535 O1541 2.058 . S
Co1535 O1551 2.057 . S
Co1535 O1566 2.037 . S
Co1535 N1570 2.145 . S
Co1535 N1591 2.257 1_556 S
O1536 Co1534 2.143 . S
O1536 Co1535 2.160 1_554 S
C1537 O1538 1.278 . S
C1537 O1545 1.224 . S
O1538 C1537 1.278 . S
C1539 O1540 1.259 . S
C1539 O1551 1.232 . S
O1540 C1539 1.259 . S
O1541 Co1535 2.058 . S
O1541 C1567 1.269 . S
O1542 Co1534 2.074 1_556 S
O1542 C1567 1.257 . S
H1543 C1568 0.930 . S
H1544 C1574 0.930 . S
O1545 Co1534 2.093 . S
O1545 C1537 1.224 . S
H1546 C1578 0.929 . S
H1547 C1580 0.930 . S
H1548 C1581 0.930 . S
H1549 C1579 0.929 . S
H1550 C1582 0.928 . S
O1551 Co1535 2.057 . S
O1551 C1539 1.232 . S
H1552 C1571 0.929 . S
H1553 C1572 0.929 . S
H1554 C1584 0.931 . S
H1555 C1576 0.929 . S
H1556 C1585 0.933 . S
H1557 C1577 0.931 . S
O1558 Co1534 2.097 . S
O1558 C1586 1.214 1_554 S
H1559 C1587 0.929 . S
H1560 C1588 0.898 1_556 S
H1561 C1589 0.930 . S
H1562 C1590 0.929 . S
H1563 C1592 0.930 . S
H1564 C1569 0.930 . S
H1565 C1573 0.930 . S
O1566 Co1535 2.037 . S
O1566 C1586 1.234 . S
C1567 O1541 1.269 . S
C1567 O1542 1.257 . S
C1568 H1543 0.930 . S
C1568 C1571 1.388 . S
C1568 C1573 1.418 . S
C1569 H1564 0.930 . S
C1569 C1572 1.404 . S
C1569 C1573 1.353 . S
N1570 Co1535 2.145 . S
N1570 C1571 1.397 . S
N1570 C1572 1.334 . S
C1571 H1552 0.929 . S
C1571 C1568 1.388 . S
C1571 N1570 1.397 . S
C1572 H1553 0.929 . S
C1572 C1569 1.404 . S
C1572 N1570 1.334 . S
C1573 H1565 0.930 . S
C1573 C1568 1.418 . S
C1573 C1569 1.353 . S
C1574 H1544 0.930 . S
C1574 N1575 1.330 . S
C1574 C1576 1.446 . S
N1575 Co1534 2.151 . S
N1575 C1574 1.330 . S
N1575 C1579 1.418 1_554 S
C1576 H1555 0.929 . S
C1576 C1574 1.446 . S
C1576 C1577 1.332 . S
C1577 H1557 0.931 . S
C1577 C1576 1.332 . S
C1577 C1578 1.267 1_554 S
C1578 H1546 0.929 . S
C1578 C1577 1.267 1_556 S
C1578 C1579 1.251 . S
C1579 H1549 0.929 . S
C1579 N1575 1.418 1_556 S
C1579 C1578 1.251 . S
C1580 H1547 0.930 . S
C1580 C1582 1.406 . S
C1580 C1585 1.244 1_554 S
C1581 H1548 0.930 . S
C1581 N1583 1.325 1_556 S
C1581 C1584 1.357 . S
C1582 H1550 0.928 . S
C1582 C1580 1.406 . S
C1582 N1583 1.261 . S
N1583 Co1534 2.214 . S
N1583 C1581 1.325 1_554 S
N1583 C1582 1.261 . S
C1584 H1554 0.931 . S
C1584 C1581 1.357 . S
C1584 C1585 1.326 . S
C1585 H1556 0.933 . S
C1585 C1580 1.244 1_556 S
C1585 C1584 1.326 . S
C1586 O1558 1.214 1_556 S
C1586 O1566 1.234 . S
C1587 H1559 0.929 . S
C1587 C1590 1.391 . S
C1587 C1592 1.391 . S
C1588 H1560 0.898 1_554 S
C1588 C1589 1.390 . S
C1588 N1591 1.391 . S
C1589 H1561 0.930 . S
C1589 C1588 1.390 . S
C1589 C1590 1.392 . S
C1590 H1562 0.929 . S
C1590 C1587 1.391 . S
C1590 C1589 1.392 . S
N1591 Co1535 2.257 1_554 S
N1591 C1588 1.391 . S
N1591 C1592 1.388 . S
C1592 H1563 0.930 . S
C1592 C1587 1.391 . S
C1592 N1591 1.388 . S
Co1593 O1595 2.143 . S
Co1593 O1601 2.074 1_554 S
Co1593 O1604 2.093 . S
Co1593 O1617 2.097 . S
Co1593 N1634 2.151 . S
Co1593 N1642 2.214 . S
Co1594 O1595 2.160 1_556 S
Co1594 O1600 2.058 . S
Co1594 O1610 2.057 . S
Co1594 O1625 2.037 . S
Co1594 N1629 2.145 . S
Co1594 N1650 2.257 1_556 S
O1595 Co1593 2.143 . S
O1595 Co1594 2.160 1_554 S
C1596 O1597 1.278 . S
C1596 O1604 1.224 . S
O1597 C1596 1.278 . S
C1598 O1599 1.259 . S
C1598 O1610 1.232 . S
O1599 C1598 1.259 . S
O1600 Co1594 2.058 . S
O1600 C1626 1.269 . S
O1601 Co1593 2.074 1_556 S
O1601 C1626 1.257 . S
H1602 C1627 0.930 . S
H1603 C1633 0.930 . S
O1604 Co1593 2.093 . S
O1604 C1596 1.224 . S
H1605 C1637 0.929 . S
H1606 C1639 0.930 . S
H1607 C1640 0.930 . S
H1608 C1638 0.929 . S
H1609 C1641 0.928 . S
O1610 Co1594 2.057 . S
O1610 C1598 1.232 . S
H1611 C1630 0.929 . S
H1612 C1631 0.929 . S
H1613 C1643 0.931 . S
H1614 C1635 0.929 . S
H1615 C1644 0.933 . S
H1616 C1636 0.931 . S
O1617 Co1593 2.097 . S
O1617 C1645 1.214 1_554 S
H1618 C1646 0.929 . S
H1619 C1647 0.898 1_556 S
H1620 C1648 0.930 . S
H1621 C1649 0.929 . S
H1622 C1651 0.930 . S
H1623 C1628 0.930 . S
H1624 C1632 0.930 . S
O1625 Co1594 2.037 . S
O1625 C1645 1.234 . S
C1626 O1600 1.269 . S
C1626 O1601 1.257 . S
C1627 H1602 0.930 . S
C1627 C1630 1.388 . S
C1627 C1632 1.418 . S
C1628 H1623 0.930 . S
C1628 C1631 1.404 . S
C1628 C1632 1.353 . S
N1629 Co1594 2.145 . S
N1629 C1630 1.397 . S
N1629 C1631 1.334 . S
C1630 H1611 0.929 . S
C1630 C1627 1.388 . S
C1630 N1629 1.397 . S
C1631 H1612 0.929 . S
C1631 C1628 1.404 . S
C1631 N1629 1.334 . S
C1632 H1624 0.930 . S
C1632 C1627 1.418 . S
C1632 C1628 1.353 . S
C1633 H1603 0.930 . S
C1633 N1634 1.330 . S
C1633 C1635 1.446 . S
N1634 Co1593 2.151 . S
N1634 C1633 1.330 . S
N1634 C1638 1.418 1_554 S
C1635 H1614 0.929 . S
C1635 C1633 1.446 . S
C1635 C1636 1.332 . S
C1636 H1616 0.931 . S
C1636 C1635 1.332 . S
C1636 C1637 1.267 1_554 S
C1637 H1605 0.929 . S
C1637 C1636 1.267 1_556 S
C1637 C1638 1.251 . S
C1638 H1608 0.929 . S
C1638 N1634 1.418 1_556 S
C1638 C1637 1.251 . S
C1639 H1606 0.930 . S
C1639 C1641 1.406 . S
C1639 C1644 1.244 1_554 S
C1640 H1607 0.930 . S
C1640 N1642 1.325 1_556 S
C1640 C1643 1.357 . S
C1641 H1609 0.928 . S
C1641 C1639 1.406 . S
C1641 N1642 1.261 . S
N1642 Co1593 2.214 . S
N1642 C1640 1.325 1_554 S
N1642 C1641 1.261 . S
C1643 H1613 0.931 . S
C1643 C1640 1.357 . S
C1643 C1644 1.326 . S
C1644 H1615 0.933 . S
C1644 C1639 1.244 1_556 S
C1644 C1643 1.326 . S
C1645 O1617 1.214 1_556 S
C1645 O1625 1.234 . S
C1646 H1618 0.929 . S
C1646 C1649 1.391 . S
C1646 C1651 1.391 . S
C1647 H1619 0.898 1_554 S
C1647 C1648 1.390 . S
C1647 N1650 1.391 . S
C1648 H1620 0.930 . S
C1648 C1647 1.390 . S
C1648 C1649 1.392 . S
C1649 H1621 0.929 . S
C1649 C1646 1.391 . S
C1649 C1648 1.392 . S
N1650 Co1594 2.257 1_554 S
N1650 C1647 1.391 . S
N1650 C1651 1.388 . S
C1651 H1622 0.930 . S
C1651 C1646 1.391 . S
C1651 N1650 1.388 . S
Co1652 O1654 2.143 . S
Co1652 O1660 2.074 . S
Co1652 O1663 2.093 . S
Co1652 O1676 2.097 . S
Co1652 N1693 2.151 . S
Co1652 N1701 2.214 . S
Co1653 O1654 2.160 . S
Co1653 O1659 2.058 . S
Co1653 O1669 2.057 . S
Co1653 O1684 2.037 . S
Co1653 N1688 2.145 . S
Co1653 N1709 2.257 . S
O1654 Co1652 2.143 . S
O1654 Co1653 2.160 . S
C1655 O1656 1.278 . S
C1655 O1663 1.224 . S
O1656 C1655 1.278 . S
C1657 O1658 1.245 . S
C1657 O1669 1.232 . S
O1658 C1657 1.245 . S
O1659 Co1653 2.058 . S
O1659 C1685 1.269 . S
O1660 Co1652 2.074 . S
O1660 C1685 1.257 . S
H1661 C1686 0.930 . S
H1662 C1692 0.930 . S
O1663 Co1652 2.093 . S
O1663 C1655 1.224 . S
H1664 C1696 0.929 . S
H1665 C1698 0.930 . S
H1666 C1699 0.930 . S
H1667 C1697 0.929 . S
H1668 C1700 0.928 . S
O1669 Co1653 2.057 . S
O1669 C1657 1.232 . S
H1670 C1689 0.929 . S
H1671 C1690 0.929 . S
H1672 C1702 0.931 . S
H1673 C1694 0.929 . S
H1674 C1703 0.930 . S
H1675 C1695 0.931 . S
O1676 Co1652 2.097 . S
O1676 C1704 1.214 . S
H1677 C1705 0.929 . S
H1678 C1706 0.929 . S
H1679 C1707 0.930 . S
H1680 C1708 0.929 . S
H1681 C1710 0.930 . S
H1682 C1687 0.930 . S
H1683 C1691 0.930 . S
O1684 Co1653 2.037 . S
O1684 C1704 1.234 . S
C1685 O1659 1.269 . S
C1685 O1660 1.257 . S
C1686 H1661 0.930 . S
C1686 C1689 1.388 . S
C1686 C1691 1.418 . S
C1687 H1682 0.930 . S
C1687 C1690 1.404 . S
C1687 C1691 1.353 . S
N1688 Co1653 2.145 . S
N1688 C1689 1.397 . S
N1688 C1690 1.334 . S
C1689 H1670 0.929 . S
C1689 C1686 1.388 . S
C1689 N1688 1.397 . S
C1690 H1671 0.929 . S
C1690 C1687 1.404 . S
C1690 N1688 1.334 . S
C1691 H1683 0.930 . S
C1691 C1686 1.418 . S
C1691 C1687 1.353 . S
C1692 H1662 0.930 . S
C1692 N1693 1.330 . S
C1692 C1694 1.446 . S
N1693 Co1652 2.151 . S
N1693 C1692 1.330 . S
N1693 C1697 1.418 . S
C1694 H1673 0.929 . S
C1694 C1692 1.446 . S
C1694 C1695 1.332 . S
C1695 H1675 0.931 . S
C1695 C1694 1.332 . S
C1695 C1696 1.267 . S
C1696 H1664 0.929 . S
C1696 C1695 1.267 . S
C1696 C1697 1.251 . S
C1697 H1667 0.929 . S
C1697 N1693 1.418 . S
C1697 C1696 1.251 . S
C1698 H1665 0.930 . S
C1698 C1700 1.406 . S
C1698 C1703 1.261 . S
C1699 H1666 0.930 . S
C1699 N1701 1.325 . S
C1699 C1702 1.357 . S
C1700 H1668 0.928 . S
C1700 C1698 1.406 . S
C1700 N1701 1.261 . S
N1701 Co1652 2.214 . S
N1701 C1699 1.325 . S
N1701 C1700 1.261 . S
C1702 H1672 0.931 . S
C1702 C1699 1.357 . S
C1702 C1703 1.312 . S
C1703 H1674 0.930 . S
C1703 C1698 1.261 . S
C1703 C1702 1.312 . S
C1704 O1676 1.214 . S
C1704 O1684 1.234 . S
C1705 H1677 0.929 . S
C1705 C1708 1.391 . S
C1705 C1710 1.391 . S
C1706 H1678 0.929 . S
C1706 C1707 1.390 . S
C1706 N1709 1.391 . S
C1707 H1679 0.930 . S
C1707 C1706 1.390 . S
C1707 C1708 1.392 . S
C1708 H1680 0.929 . S
C1708 C1705 1.391 . S
C1708 C1707 1.392 . S
N1709 Co1653 2.257 . S
N1709 C1706 1.391 . S
N1709 C1710 1.388 . S
C1710 H1681 0.930 . S
C1710 C1705 1.391 . S
C1710 N1709 1.388 . S
Co1711 O1713 2.143 . S
Co1711 O1719 2.074 . S
Co1711 O1722 2.093 . S
Co1711 O1735 2.097 . S
Co1711 N1752 2.151 . S
Co1711 N1760 2.214 . S
Co1712 O1713 2.160 . S
Co1712 O1718 2.058 . S
Co1712 O1728 2.057 . S
Co1712 O1743 2.037 . S
Co1712 N1747 2.145 . S
Co1712 N1768 2.257 . S
O1713 Co1711 2.143 . S
O1713 Co1712 2.160 . S
C1714 O1715 1.278 . S
C1714 O1722 1.224 . S
O1715 C1714 1.278 . S
C1716 O1717 1.245 . S
C1716 O1728 1.232 . S
O1717 C1716 1.245 . S
O1718 Co1712 2.058 . S
O1718 C1744 1.269 . S
O1719 Co1711 2.074 . S
O1719 C1744 1.257 . S
H1720 C1745 0.930 . S
H1721 C1751 0.930 . S
O1722 Co1711 2.093 . S
O1722 C1714 1.224 . S
H1723 C1755 0.929 . S
H1724 C1757 0.930 . S
H1725 C1758 0.930 . S
H1726 C1756 0.929 . S
H1727 C1759 0.928 . S
O1728 Co1712 2.057 . S
O1728 C1716 1.232 . S
H1729 C1748 0.929 . S
H1730 C1749 0.929 . S
H1731 C1761 0.931 . S
H1732 C1753 0.929 . S
H1733 C1762 0.930 . S
H1734 C1754 0.931 . S
O1735 Co1711 2.097 . S
O1735 C1763 1.214 . S
H1736 C1764 0.929 . S
H1737 C1765 0.929 . S
H1738 C1766 0.930 . S
H1739 C1767 0.929 . S
H1740 C1769 0.930 . S
H1741 C1746 0.930 . S
H1742 C1750 0.930 . S
O1743 Co1712 2.037 . S
O1743 C1763 1.234 . S
C1744 O1718 1.269 . S
C1744 O1719 1.257 . S
C1745 H1720 0.930 . S
C1745 C1748 1.388 . S
C1745 C1750 1.418 . S
C1746 H1741 0.930 . S
C1746 C1749 1.404 . S
C1746 C1750 1.353 . S
N1747 Co1712 2.145 . S
N1747 C1748 1.397 . S
N1747 C1749 1.334 . S
C1748 H1729 0.929 . S
C1748 C1745 1.388 . S
C1748 N1747 1.397 . S
C1749 H1730 0.929 . S
C1749 C1746 1.404 . S
C1749 N1747 1.334 . S
C1750 H1742 0.930 . S
C1750 C1745 1.418 . S
C1750 C1746 1.353 . S
C1751 H1721 0.930 . S
C1751 N1752 1.330 . S
C1751 C1753 1.446 . S
N1752 Co1711 2.151 . S
N1752 C1751 1.330 . S
N1752 C1756 1.418 . S
C1753 H1732 0.929 . S
C1753 C1751 1.446 . S
C1753 C1754 1.332 . S
C1754 H1734 0.931 . S
C1754 C1753 1.332 . S
C1754 C1755 1.267 . S
C1755 H1723 0.929 . S
C1755 C1754 1.267 . S
C1755 C1756 1.251 . S
C1756 H1726 0.929 . S
C1756 N1752 1.418 . S
C1756 C1755 1.251 . S
C1757 H1724 0.930 . S
C1757 C1759 1.406 . S
C1757 C1762 1.261 . S
C1758 H1725 0.930 . S
C1758 N1760 1.325 . S
C1758 C1761 1.357 . S
C1759 H1727 0.928 . S
C1759 C1757 1.406 . S
C1759 N1760 1.261 . S
N1760 Co1711 2.214 . S
N1760 C1758 1.325 . S
N1760 C1759 1.261 . S
C1761 H1731 0.931 . S
C1761 C1758 1.357 . S
C1761 C1762 1.312 . S
C1762 H1733 0.930 . S
C1762 C1757 1.261 . S
C1762 C1761 1.312 . S
C1763 O1735 1.214 . S
C1763 O1743 1.234 . S
C1764 H1736 0.929 . S
C1764 C1767 1.391 . S
C1764 C1769 1.391 . S
C1765 H1737 0.929 . S
C1765 C1766 1.390 . S
C1765 N1768 1.391 . S
C1766 H1738 0.930 . S
C1766 C1765 1.390 . S
C1766 C1767 1.392 . S
C1767 H1739 0.929 . S
C1767 C1764 1.391 . S
C1767 C1766 1.392 . S
N1768 Co1712 2.257 . S
N1768 C1765 1.391 . S
N1768 C1769 1.388 . S
C1769 H1740 0.930 . S
C1769 C1764 1.391 . S
C1769 N1768 1.388 . S
Co1770 O1772 2.143 . S
Co1770 O1778 2.074 1_556 S
Co1770 O1781 2.093 . S
Co1770 O1794 2.097 . S
Co1770 N1811 2.151 . S
Co1770 N1819 2.214 . S
Co1771 O1772 2.160 1_554 S
Co1771 O1777 2.058 . S
Co1771 O1787 2.057 . S
Co1771 O1802 2.037 . S
Co1771 N1806 2.145 . S
Co1771 N1827 2.257 1_554 S
O1772 Co1770 2.143 . S
O1772 Co1771 2.160 1_556 S
C1773 O1774 1.278 . S
C1773 O1781 1.224 . S
O1774 C1773 1.278 . S
C1775 O1776 1.259 . S
C1775 O1787 1.232 . S
O1776 C1775 1.259 . S
O1777 Co1771 2.058 . S
O1777 C1803 1.269 . S
O1778 Co1770 2.074 1_554 S
O1778 C1803 1.257 . S
H1779 C1804 0.930 . S
H1780 C1810 0.930 . S
O1781 Co1770 2.093 . S
O1781 C1773 1.224 . S
H1782 C1814 0.929 . S
H1783 C1816 0.930 . S
H1784 C1817 0.930 . S
H1785 C1815 0.929 . S
H1786 C1818 0.928 . S
O1787 Co1771 2.057 . S
O1787 C1775 1.232 . S
H1788 C1807 0.929 . S
H1789 C1808 0.929 . S
H1790 C1820 0.931 . S
H1791 C1812 0.929 . S
H1792 C1821 0.933 . S
H1793 C1813 0.931 . S
O1794 Co1770 2.097 . S
O1794 C1822 1.214 1_556 S
H1795 C1823 0.929 . S
H1796 C1824 0.898 1_554 S
H1797 C1825 0.930 . S
H1798 C1826 0.929 . S
H1799 C1828 0.930 . S
H1800 C1805 0.930 . S
H1801 C1809 0.930 . S
O1802 Co1771 2.037 . S
O1802 C1822 1.234 . S
C1803 O1777 1.269 . S
C1803 O1778 1.257 . S
C1804 H1779 0.930 . S
C1804 C1807 1.388 . S
C1804 C1809 1.418 . S
C1805 H1800 0.930 . S
C1805 C1808 1.404 . S
C1805 C1809 1.353 . S
N1806 Co1771 2.145 . S
N1806 C1807 1.397 . S
N1806 C1808 1.334 . S
C1807 H1788 0.929 . S
C1807 C1804 1.388 . S
C1807 N1806 1.397 . S
C1808 H1789 0.929 . S
C1808 C1805 1.404 . S
C1808 N1806 1.334 . S
C1809 H1801 0.930 . S
C1809 C1804 1.418 . S
C1809 C1805 1.353 . S
C1810 H1780 0.930 . S
C1810 N1811 1.330 . S
C1810 C1812 1.446 . S
N1811 Co1770 2.151 . S
N1811 C1810 1.330 . S
N1811 C1815 1.418 1_556 S
C1812 H1791 0.929 . S
C1812 C1810 1.446 . S
C1812 C1813 1.332 . S
C1813 H1793 0.931 . S
C1813 C1812 1.332 . S
C1813 C1814 1.267 1_556 S
C1814 H1782 0.929 . S
C1814 C1813 1.267 1_554 S
C1814 C1815 1.251 . S
C1815 H1785 0.929 . S
C1815 N1811 1.418 1_554 S
C1815 C1814 1.251 . S
C1816 H1783 0.930 . S
C1816 C1818 1.406 . S
C1816 C1821 1.244 1_556 S
C1817 H1784 0.930 . S
C1817 N1819 1.325 1_554 S
C1817 C1820 1.357 . S
C1818 H1786 0.928 . S
C1818 C1816 1.406 . S
C1818 N1819 1.261 . S
N1819 Co1770 2.214 . S
N1819 C1817 1.325 1_556 S
N1819 C1818 1.261 . S
C1820 H1790 0.931 . S
C1820 C1817 1.357 . S
C1820 C1821 1.326 . S
C1821 H1792 0.933 . S
C1821 C1816 1.244 1_554 S
C1821 C1820 1.326 . S
C1822 O1794 1.214 1_554 S
C1822 O1802 1.234 . S
C1823 H1795 0.929 . S
C1823 C1826 1.391 . S
C1823 C1828 1.391 . S
C1824 H1796 0.898 1_556 S
C1824 C1825 1.390 . S
C1824 N1827 1.391 . S
C1825 H1797 0.930 . S
C1825 C1824 1.390 . S
C1825 C1826 1.392 . S
C1826 H1798 0.929 . S
C1826 C1823 1.391 . S
C1826 C1825 1.392 . S
N1827 Co1771 2.257 1_556 S
N1827 C1824 1.391 . S
N1827 C1828 1.388 . S
C1828 H1799 0.930 . S
C1828 C1823 1.391 . S
C1828 N1827 1.388 . S
Co1829 O1831 2.143 . S
Co1829 O1837 2.074 1_556 S
Co1829 O1840 2.093 . S
Co1829 O1853 2.097 . S
Co1829 N1870 2.151 . S
Co1829 N1878 2.214 . S
Co1830 O1831 2.160 1_554 S
Co1830 O1836 2.058 . S
Co1830 O1846 2.057 . S
Co1830 O1861 2.037 . S
Co1830 N1865 2.145 . S
Co1830 N1886 2.257 1_554 S
O1831 Co1829 2.143 . S
O1831 Co1830 2.160 1_556 S
C1832 O1833 1.278 . S
C1832 O1840 1.224 . S
O1833 C1832 1.278 . S
C1834 O1835 1.259 . S
C1834 O1846 1.232 . S
O1835 C1834 1.259 . S
O1836 Co1830 2.058 . S
O1836 C1862 1.269 . S
O1837 Co1829 2.074 1_554 S
O1837 C1862 1.257 . S
H1838 C1863 0.930 . S
H1839 C1869 0.930 . S
O1840 Co1829 2.093 . S
O1840 C1832 1.224 . S
H1841 C1873 0.929 . S
H1842 C1875 0.930 . S
H1843 C1876 0.930 . S
H1844 C1874 0.929 . S
H1845 C1877 0.928 . S
O1846 Co1830 2.057 . S
O1846 C1834 1.232 . S
H1847 C1866 0.929 . S
H1848 C1867 0.929 . S
H1849 C1879 0.931 . S
H1850 C1871 0.929 . S
H1851 C1880 0.933 . S
H1852 C1872 0.931 . S
O1853 Co1829 2.097 . S
O1853 C1881 1.214 1_556 S
H1854 C1882 0.929 . S
H1855 C1883 0.898 1_554 S
H1856 C1884 0.930 . S
H1857 C1885 0.929 . S
H1858 C1887 0.930 . S
H1859 C1864 0.930 . S
H1860 C1868 0.930 . S
O1861 Co1830 2.037 . S
O1861 C1881 1.234 . S
C1862 O1836 1.269 . S
C1862 O1837 1.257 . S
C1863 H1838 0.930 . S
C1863 C1866 1.388 . S
C1863 C1868 1.418 . S
C1864 H1859 0.930 . S
C1864 C1867 1.404 . S
C1864 C1868 1.353 . S
N1865 Co1830 2.145 . S
N1865 C1866 1.397 . S
N1865 C1867 1.334 . S
C1866 H1847 0.929 . S
C1866 C1863 1.388 . S
C1866 N1865 1.397 . S
C1867 H1848 0.929 . S
C1867 C1864 1.404 . S
C1867 N1865 1.334 . S
C1868 H1860 0.930 . S
C1868 C1863 1.418 . S
C1868 C1864 1.353 . S
C1869 H1839 0.930 . S
C1869 N1870 1.330 . S
C1869 C1871 1.446 . S
N1870 Co1829 2.151 . S
N1870 C1869 1.330 . S
N1870 C1874 1.418 1_556 S
C1871 H1850 0.929 . S
C1871 C1869 1.446 . S
C1871 C1872 1.332 . S
C1872 H1852 0.931 . S
C1872 C1871 1.332 . S
C1872 C1873 1.267 1_556 S
C1873 H1841 0.929 . S
C1873 C1872 1.267 1_554 S
C1873 C1874 1.251 . S
C1874 H1844 0.929 . S
C1874 N1870 1.418 1_554 S
C1874 C1873 1.251 . S
C1875 H1842 0.930 . S
C1875 C1877 1.406 . S
C1875 C1880 1.244 1_556 S
C1876 H1843 0.930 . S
C1876 N1878 1.325 1_554 S
C1876 C1879 1.357 . S
C1877 H1845 0.928 . S
C1877 C1875 1.406 . S
C1877 N1878 1.261 . S
N1878 Co1829 2.214 . S
N1878 C1876 1.325 1_556 S
N1878 C1877 1.261 . S
C1879 H1849 0.931 . S
C1879 C1876 1.357 . S
C1879 C1880 1.326 . S
C1880 H1851 0.933 . S
C1880 C1875 1.244 1_554 S
C1880 C1879 1.326 . S
C1881 O1853 1.214 1_554 S
C1881 O1861 1.234 . S
C1882 H1854 0.929 . S
C1882 C1885 1.391 . S
C1882 C1887 1.391 . S
C1883 H1855 0.898 1_556 S
C1883 C1884 1.390 . S
C1883 N1886 1.391 . S
C1884 H1856 0.930 . S
C1884 C1883 1.390 . S
C1884 C1885 1.392 . S
C1885 H1857 0.929 . S
C1885 C1882 1.391 . S
C1885 C1884 1.392 . S
N1886 Co1830 2.257 1_556 S
N1886 C1883 1.391 . S
N1886 C1887 1.388 . S
C1887 H1858 0.930 . S
C1887 C1882 1.391 . S
C1887 N1886 1.388 . S
H1888 C1894 0.930 . S
H1889 C1898 0.930 . S
H1890 C1903 0.929 . S
H1891 C1901 0.929 . S
H1892 C1896 0.929 . S
H1893 C1902 0.929 . S
C1894 H1888 0.930 . S
C1894 C1895 1.367 . S
C1894 C1902 1.378 . S
C1895 C1894 1.367 . S
C1895 C1903 1.433 . S
C1896 H1892 0.929 . S
C1896 C1898 1.378 . S
C1896 C1900 1.350 . S
C1897 C1900 1.463 . S
C1897 C1902 1.350 . S
C1897 N1905 1.427 . S
C1898 H1889 0.930 . S
C1898 C1896 1.378 . S
C1898 C1899 1.367 . S
C1899 C1898 1.367 . S
C1899 C1901 1.433 . S
C1900 C1896 1.350 . S
C1900 C1897 1.463 . S
C1900 N1904 1.427 . S
C1901 H1891 0.929 . S
C1901 C1899 1.433 . S
C1901 N1904 1.384 . S
C1902 H1893 0.929 . S
C1902 C1894 1.378 . S
C1902 C1897 1.350 . S
C1903 H1890 0.929 . S
C1903 C1895 1.433 . S
C1903 N1905 1.384 . S
N1904 C1900 1.427 . S
N1904 C1901 1.384 . S
N1905 C1897 1.427 . S
N1905 C1903 1.384 . S
H1906 C1912 0.930 . S
H1907 C1916 0.930 . S
H1908 C1921 0.929 . S
H1909 C1919 0.929 . S
H1910 C1914 0.929 . S
H1911 C1920 0.929 . S
C1912 H1906 0.930 . S
C1912 C1913 1.367 . S
C1912 C1920 1.378 . S
C1913 C1912 1.367 . S
C1913 C1921 1.433 . S
C1914 H1910 0.929 . S
C1914 C1916 1.378 . S
C1914 C1918 1.350 . S
C1915 C1918 1.463 . S
C1915 C1920 1.350 . S
C1915 N1923 1.427 . S
C1916 H1907 0.930 . S
C1916 C1914 1.378 . S
C1916 C1917 1.367 . S
C1917 C1916 1.367 . S
C1917 C1919 1.433 . S
C1918 C1914 1.350 . S
C1918 C1915 1.463 . S
C1918 N1922 1.427 . S
C1919 H1909 0.929 . S
C1919 C1917 1.433 . S
C1919 N1922 1.384 . S
C1920 H1911 0.929 . S
C1920 C1912 1.378 . S
C1920 C1915 1.350 . S
C1921 H1908 0.929 . S
C1921 C1913 1.433 . S
C1921 N1923 1.384 . S
N1922 C1918 1.427 . S
N1922 C1919 1.384 . S
N1923 C1915 1.427 . S
N1923 C1921 1.384 . S
H1924 C1930 0.930 . S
H1925 C1934 0.930 . S
H1926 C1939 0.929 . S
H1927 C1937 0.929 . S
H1928 C1932 0.929 . S
H1929 C1938 0.929 . S
C1930 H1924 0.930 . S
C1930 C1931 1.367 . S
C1930 C1938 1.378 . S
C1931 C1930 1.367 . S
C1931 C1939 1.433 . S
C1932 H1928 0.929 . S
C1932 C1934 1.378 . S
C1932 C1936 1.350 . S
C1933 C1936 1.463 . S
C1933 C1938 1.350 . S
C1933 N1941 1.427 . S
C1934 H1925 0.930 . S
C1934 C1932 1.378 . S
C1934 C1935 1.367 . S
C1935 C1934 1.367 . S
C1935 C1937 1.433 . S
C1936 C1932 1.350 . S
C1936 C1933 1.463 . S
C1936 N1940 1.427 . S
C1937 H1927 0.929 . S
C1937 C1935 1.433 . S
C1937 N1940 1.384 . S
C1938 H1929 0.929 . S
C1938 C1930 1.378 . S
C1938 C1933 1.350 . S
C1939 H1926 0.929 . S
C1939 C1931 1.433 . S
C1939 N1941 1.384 . S
N1940 C1936 1.427 . S
N1940 C1937 1.384 . S
N1941 C1933 1.427 . S
N1941 C1939 1.384 . S
H1942 C1948 0.930 . S
H1943 C1952 0.930 . S
H1944 C1957 0.929 . S
H1945 C1955 0.929 . S
H1946 C1950 0.929 . S
H1947 C1956 0.929 . S
C1948 H1942 0.930 . S
C1948 C1949 1.367 . S
C1948 C1956 1.378 . S
C1949 C1948 1.367 . S
C1949 C1957 1.433 . S
C1950 H1946 0.929 . S
C1950 C1952 1.378 . S
C1950 C1954 1.350 . S
C1951 C1954 1.463 . S
C1951 C1956 1.350 . S
C1951 N1959 1.427 . S
C1952 H1943 0.930 . S
C1952 C1950 1.378 . S
C1952 C1953 1.367 . S
C1953 C1952 1.367 . S
C1953 C1955 1.433 . S
C1954 C1950 1.350 . S
C1954 C1951 1.463 . S
C1954 N1958 1.427 . S
C1955 H1945 0.929 . S
C1955 C1953 1.433 . S
C1955 N1958 1.384 . S
C1956 H1947 0.929 . S
C1956 C1948 1.378 . S
C1956 C1951 1.350 . S
C1957 H1944 0.929 . S
C1957 C1949 1.433 . S
C1957 N1959 1.384 . S
N1958 C1954 1.427 . S
N1958 C1955 1.384 . S
N1959 C1951 1.427 . S
N1959 C1957 1.384 . S
H1960 C1966 0.930 . S
H1961 C1970 0.930 . S
H1962 C1975 0.929 . S
H1963 C1973 0.929 . S
H1964 C1968 0.929 . S
H1965 C1974 0.929 . S
C1966 H1960 0.930 . S
C1966 C1967 1.367 . S
C1966 C1974 1.378 . S
C1967 C1966 1.367 . S
C1967 C1975 1.433 . S
C1968 H1964 0.929 . S
C1968 C1970 1.378 . S
C1968 C1972 1.350 . S
C1969 C1972 1.463 . S
C1969 C1974 1.350 . S
C1969 N1977 1.427 . S
C1970 H1961 0.930 . S
C1970 C1968 1.378 . S
C1970 C1971 1.367 . S
C1971 C1970 1.367 . S
C1971 C1973 1.433 . S
C1972 C1968 1.350 . S
C1972 C1969 1.463 . S
C1972 N1976 1.427 . S
C1973 H1963 0.929 . S
C1973 C1971 1.433 . S
C1973 N1976 1.384 . S
C1974 H1965 0.929 . S
C1974 C1966 1.378 . S
C1974 C1969 1.350 . S
C1975 H1962 0.929 . S
C1975 C1967 1.433 . S
C1975 N1977 1.384 . S
N1976 C1972 1.427 . S
N1976 C1973 1.384 . S
N1977 C1969 1.427 . S
N1977 C1975 1.384 . S
H1978 C1984 0.930 . S
H1979 C1988 0.930 . S
H1980 C1993 0.929 . S
H1981 C1991 0.929 . S
H1982 C1986 0.929 . S
H1983 C1992 0.929 . S
C1984 H1978 0.930 . S
C1984 C1985 1.367 . S
C1984 C1992 1.378 . S
C1985 C1984 1.367 . S
C1985 C1993 1.433 . S
C1986 H1982 0.929 . S
C1986 C1988 1.378 . S
C1986 C1990 1.350 . S
C1987 C1990 1.463 . S
C1987 C1992 1.350 . S
C1987 N1995 1.427 . S
C1988 H1979 0.930 . S
C1988 C1986 1.378 . S
C1988 C1989 1.367 . S
C1989 C1988 1.367 . S
C1989 C1991 1.433 . S
C1990 C1986 1.350 . S
C1990 C1987 1.463 . S
C1990 N1994 1.427 . S
C1991 H1981 0.929 . S
C1991 C1989 1.433 . S
C1991 N1994 1.384 . S
C1992 H1983 0.929 . S
C1992 C1984 1.378 . S
C1992 C1987 1.350 . S
C1993 H1980 0.929 . S
C1993 C1985 1.433 . S
C1993 N1995 1.384 . S
N1994 C1990 1.427 . S
N1994 C1991 1.384 . S
N1995 C1987 1.427 . S
N1995 C1993 1.384 . S
H1996 C2002 0.930 . S
H1997 C2006 0.930 . S
H1998 C2011 0.929 . S
H1999 C2009 0.929 . S
H2000 C2004 0.929 . S
H2001 C2010 0.929 . S
C2002 H1996 0.930 . S
C2002 C2003 1.367 . S
C2002 C2010 1.378 . S
C2003 C2002 1.367 . S
C2003 C2011 1.433 . S
C2004 H2000 0.929 . S
C2004 C2006 1.378 . S
C2004 C2008 1.350 . S
C2005 C2008 1.463 . S
C2005 C2010 1.350 . S
C2005 N2013 1.427 . S
C2006 H1997 0.930 . S
C2006 C2004 1.378 . S
C2006 C2007 1.367 . S
C2007 C2006 1.367 . S
C2007 C2009 1.433 . S
C2008 C2004 1.350 . S
C2008 C2005 1.463 . S
C2008 N2012 1.427 . S
C2009 H1999 0.929 . S
C2009 C2007 1.433 . S
C2009 N2012 1.384 . S
C2010 H2001 0.929 . S
C2010 C2002 1.378 . S
C2010 C2005 1.350 . S
C2011 H1998 0.929 . S
C2011 C2003 1.433 . S
C2011 N2013 1.384 . S
N2012 C2008 1.427 . S
N2012 C2009 1.384 . S
N2013 C2005 1.427 . S
N2013 C2011 1.384 . S
H2014 C2020 0.930 . S
H2015 C2024 0.930 . S
H2016 C2029 0.929 . S
H2017 C2027 0.929 . S
H2018 C2022 0.929 . S
H2019 C2028 0.929 . S
C2020 H2014 0.930 . S
C2020 C2021 1.367 . S
C2020 C2028 1.378 . S
C2021 C2020 1.367 . S
C2021 C2029 1.433 . S
C2022 H2018 0.929 . S
C2022 C2024 1.378 . S
C2022 C2026 1.350 . S
C2023 C2026 1.463 . S
C2023 C2028 1.350 . S
C2023 N2031 1.427 . S
C2024 H2015 0.930 . S
C2024 C2022 1.378 . S
C2024 C2025 1.367 . S
C2025 C2024 1.367 . S
C2025 C2027 1.433 . S
C2026 C2022 1.350 . S
C2026 C2023 1.463 . S
C2026 N2030 1.427 . S
C2027 H2017 0.929 . S
C2027 C2025 1.433 . S
C2027 N2030 1.384 . S
C2028 H2019 0.929 . S
C2028 C2020 1.378 . S
C2028 C2023 1.350 . S
C2029 H2016 0.929 . S
C2029 C2021 1.433 . S
C2029 N2031 1.384 . S
N2030 C2026 1.427 . S
N2030 C2027 1.384 . S
N2031 C2023 1.427 . S
N2031 C2029 1.384 . S
H2032 C2038 0.930 . S
H2033 C2042 0.930 . S
H2034 C2047 0.929 . S
H2035 C2045 0.929 . S
H2036 C2040 0.929 . S
H2037 C2046 0.929 . S
C2038 H2032 0.930 . S
C2038 C2039 1.367 . S
C2038 C2046 1.378 . S
C2039 C2038 1.367 . S
C2039 C2047 1.433 . S
C2040 H2036 0.929 . S
C2040 C2042 1.378 . S
C2040 C2044 1.350 . S
C2041 C2044 1.463 . S
C2041 C2046 1.350 . S
C2041 N2049 1.427 . S
C2042 H2033 0.930 . S
C2042 C2040 1.378 . S
C2042 C2043 1.367 . S
C2043 C2042 1.367 . S
C2043 C2045 1.433 . S
C2044 C2040 1.350 . S
C2044 C2041 1.463 . S
C2044 N2048 1.427 . S
C2045 H2035 0.929 . S
C2045 C2043 1.433 . S
C2045 N2048 1.384 . S
C2046 H2037 0.929 . S
C2046 C2038 1.378 . S
C2046 C2041 1.350 . S
C2047 H2034 0.929 . S
C2047 C2039 1.433 . S
C2047 N2049 1.384 . S
N2048 C2044 1.427 . S
N2048 C2045 1.384 . S
N2049 C2041 1.427 . S
N2049 C2047 1.384 . S
H2050 C2056 0.930 . S
H2051 C2060 0.930 . S
H2052 C2065 0.929 . S
H2053 C2063 0.929 . S
H2054 C2058 0.929 . S
H2055 C2064 0.929 . S
C2056 H2050 0.930 . S
C2056 C2057 1.367 . S
C2056 C2064 1.378 . S
C2057 C2056 1.367 . S
C2057 C2065 1.433 . S
C2058 H2054 0.929 . S
C2058 C2060 1.378 . S
C2058 C2062 1.350 . S
C2059 C2062 1.463 . S
C2059 C2064 1.350 . S
C2059 N2067 1.427 . S
C2060 H2051 0.930 . S
C2060 C2058 1.378 . S
C2060 C2061 1.367 . S
C2061 C2060 1.367 . S
C2061 C2063 1.433 . S
C2062 C2058 1.350 . S
C2062 C2059 1.463 . S
C2062 N2066 1.427 . S
C2063 H2053 0.929 . S
C2063 C2061 1.433 . S
C2063 N2066 1.384 . S
C2064 H2055 0.929 . S
C2064 C2056 1.378 . S
C2064 C2059 1.350 . S
C2065 H2052 0.929 . S
C2065 C2057 1.433 . S
C2065 N2067 1.384 . S
N2066 C2062 1.427 . S
N2066 C2063 1.384 . S
N2067 C2059 1.427 . S
N2067 C2065 1.384 . S
H2068 C2074 0.930 . S
H2069 C2078 0.930 . S
H2070 C2083 0.929 . S
H2071 C2081 0.929 . S
H2072 C2076 0.929 . S
H2073 C2082 0.929 . S
C2074 H2068 0.930 . S
C2074 C2075 1.367 . S
C2074 C2082 1.378 . S
C2075 C2074 1.367 . S
C2075 C2083 1.433 . S
C2076 H2072 0.929 . S
C2076 C2078 1.378 . S
C2076 C2080 1.350 . S
C2077 C2080 1.463 . S
C2077 C2082 1.350 . S
C2077 N2085 1.427 . S
C2078 H2069 0.930 . S
C2078 C2076 1.378 . S
C2078 C2079 1.367 . S
C2079 C2078 1.367 . S
C2079 C2081 1.433 . S
C2080 C2076 1.350 . S
C2080 C2077 1.463 . S
C2080 N2084 1.427 . S
C2081 H2071 0.929 . S
C2081 C2079 1.433 . S
C2081 N2084 1.384 . S
C2082 H2073 0.929 . S
C2082 C2074 1.378 . S
C2082 C2077 1.350 . S
C2083 H2070 0.929 . S
C2083 C2075 1.433 . S
C2083 N2085 1.384 . S
N2084 C2080 1.427 . S
N2084 C2081 1.384 . S
N2085 C2077 1.427 . S
N2085 C2083 1.384 . S
H2086 C2092 0.930 . S
H2087 C2096 0.930 . S
H2088 C2101 0.929 . S
H2089 C2099 0.929 . S
H2090 C2094 0.929 . S
H2091 C2100 0.929 . S
C2092 H2086 0.930 . S
C2092 C2093 1.367 . S
C2092 C2100 1.378 . S
C2093 C2092 1.367 . S
C2093 C2101 1.433 . S
C2094 H2090 0.929 . S
C2094 C2096 1.378 . S
C2094 C2098 1.350 . S
C2095 C2098 1.463 . S
C2095 C2100 1.350 . S
C2095 N2103 1.427 . S
C2096 H2087 0.930 . S
C2096 C2094 1.378 . S
C2096 C2097 1.367 . S
C2097 C2096 1.367 . S
C2097 C2099 1.433 . S
C2098 C2094 1.350 . S
C2098 C2095 1.463 . S
C2098 N2102 1.427 . S
C2099 H2089 0.929 . S
C2099 C2097 1.433 . S
C2099 N2102 1.384 . S
C2100 H2091 0.929 . S
C2100 C2092 1.378 . S
C2100 C2095 1.350 . S
C2101 H2088 0.929 . S
C2101 C2093 1.433 . S
C2101 N2103 1.384 . S
N2102 C2098 1.427 . S
N2102 C2099 1.384 . S
N2103 C2095 1.427 . S
N2103 C2101 1.384 . S
H2104 C2110 0.930 . S
H2105 C2114 0.930 . S
H2106 C2119 0.929 . S
H2107 C2117 0.929 . S
H2108 C2112 0.929 . S
H2109 C2118 0.929 . S
C2110 H2104 0.930 . S
C2110 C2111 1.367 . S
C2110 C2118 1.378 . S
C2111 C2110 1.367 . S
C2111 C2119 1.433 . S
C2112 H2108 0.929 . S
C2112 C2114 1.378 . S
C2112 C2116 1.350 . S
C2113 C2116 1.463 . S
C2113 C2118 1.350 . S
C2113 N2121 1.427 . S
C2114 H2105 0.930 . S
C2114 C2112 1.378 . S
C2114 C2115 1.367 . S
C2115 C2114 1.367 . S
C2115 C2117 1.433 . S
C2116 C2112 1.350 . S
C2116 C2113 1.463 . S
C2116 N2120 1.427 . S
C2117 H2107 0.929 . S
C2117 C2115 1.433 . S
C2117 N2120 1.384 . S
C2118 H2109 0.929 . S
C2118 C2110 1.378 . S
C2118 C2113 1.350 . S
C2119 H2106 0.929 . S
C2119 C2111 1.433 . S
C2119 N2121 1.384 . S
N2120 C2116 1.427 . S
N2120 C2117 1.384 . S
N2121 C2113 1.427 . S
N2121 C2119 1.384 . S
H2122 C2128 0.930 . S
H2123 C2132 0.930 . S
H2124 C2137 0.929 . S
H2125 C2135 0.929 . S
H2126 C2130 0.929 . S
H2127 C2136 0.929 . S
C2128 H2122 0.930 . S
C2128 C2129 1.367 . S
C2128 C2136 1.378 . S
C2129 C2128 1.367 . S
C2129 C2137 1.433 . S
C2130 H2126 0.929 . S
C2130 C2132 1.378 . S
C2130 C2134 1.350 . S
C2131 C2134 1.463 . S
C2131 C2136 1.350 . S
C2131 N2139 1.427 . S
C2132 H2123 0.930 . S
C2132 C2130 1.378 . S
C2132 C2133 1.367 . S
C2133 C2132 1.367 . S
C2133 C2135 1.433 . S
C2134 C2130 1.350 . S
C2134 C2131 1.463 . S
C2134 N2138 1.427 . S
C2135 H2125 0.929 . S
C2135 C2133 1.433 . S
C2135 N2138 1.384 . S
C2136 H2127 0.929 . S
C2136 C2128 1.378 . S
C2136 C2131 1.350 . S
C2137 H2124 0.929 . S
C2137 C2129 1.433 . S
C2137 N2139 1.384 . S
N2138 C2134 1.427 . S
N2138 C2135 1.384 . S
N2139 C2131 1.427 . S
N2139 C2137 1.384 . S
H2140 C2146 0.930 . S
H2141 C2150 0.930 . S
H2142 C2155 0.929 . S
H2143 C2153 0.929 . S
H2144 C2148 0.929 . S
H2145 C2154 0.929 . S
C2146 H2140 0.930 . S
C2146 C2147 1.367 . S
C2146 C2154 1.378 . S
C2147 C2146 1.367 . S
C2147 C2155 1.433 . S
C2148 H2144 0.929 . S
C2148 C2150 1.378 . S
C2148 C2152 1.350 . S
C2149 C2152 1.463 . S
C2149 C2154 1.350 . S
C2149 N2157 1.427 . S
C2150 H2141 0.930 . S
C2150 C2148 1.378 . S
C2150 C2151 1.367 . S
C2151 C2150 1.367 . S
C2151 C2153 1.433 . S
C2152 C2148 1.350 . S
C2152 C2149 1.463 . S
C2152 N2156 1.427 . S
C2153 H2143 0.929 . S
C2153 C2151 1.433 . S
C2153 N2156 1.384 . S
C2154 H2145 0.929 . S
C2154 C2146 1.378 . S
C2154 C2149 1.350 . S
C2155 H2142 0.929 . S
C2155 C2147 1.433 . S
C2155 N2157 1.384 . S
N2156 C2152 1.427 . S
N2156 C2153 1.384 . S
N2157 C2149 1.427 . S
N2157 C2155 1.384 . S
H2158 C2164 0.930 . S
H2159 C2168 0.930 . S
H2160 C2173 0.929 . S
H2161 C2171 0.929 . S
H2162 C2166 0.929 . S
H2163 C2172 0.929 . S
C2164 H2158 0.930 . S
C2164 C2165 1.367 . S
C2164 C2172 1.378 . S
C2165 C2164 1.367 . S
C2165 C2173 1.433 . S
C2166 H2162 0.929 . S
C2166 C2168 1.378 . S
C2166 C2170 1.350 . S
C2167 C2170 1.463 . S
C2167 C2172 1.350 . S
C2167 N2175 1.427 . S
C2168 H2159 0.930 . S
C2168 C2166 1.378 . S
C2168 C2169 1.367 . S
C2169 C2168 1.367 . S
C2169 C2171 1.433 . S
C2170 C2166 1.350 . S
C2170 C2167 1.463 . S
C2170 N2174 1.427 . S
C2171 H2161 0.929 . S
C2171 C2169 1.433 . S
C2171 N2174 1.384 . S
C2172 H2163 0.929 . S
C2172 C2164 1.378 . S
C2172 C2167 1.350 . S
C2173 H2160 0.929 . S
C2173 C2165 1.433 . S
C2173 N2175 1.384 . S
N2174 C2170 1.427 . S
N2174 C2171 1.384 . S
N2175 C2167 1.427 . S
N2175 C2173 1.384 . S
H2176 C2182 0.930 . S
H2177 C2186 0.930 . S
H2178 C2191 0.929 . S
H2179 C2189 0.929 . S
H2180 C2184 0.929 . S
H2181 C2190 0.929 . S
C2182 H2176 0.930 . S
C2182 C2183 1.367 . S
C2182 C2190 1.378 . S
C2183 C2182 1.367 . S
C2183 C2191 1.433 . S
C2184 H2180 0.929 . S
C2184 C2186 1.378 . S
C2184 C2188 1.350 . S
C2185 C2188 1.463 1_655 S
C2185 C2190 1.350 . S
C2185 N2193 1.427 . S
C2186 H2177 0.930 . S
C2186 C2184 1.378 . S
C2186 C2187 1.367 . S
C2187 C2186 1.367 . S
C2187 C2189 1.433 . S
C2188 C2184 1.350 . S
C2188 C2185 1.463 1_455 S
C2188 N2192 1.427 . S
C2189 H2179 0.929 . S
C2189 C2187 1.433 . S
C2189 N2192 1.384 . S
C2190 H2181 0.929 . S
C2190 C2182 1.378 . S
C2190 C2185 1.350 . S
C2191 H2178 0.929 . S
C2191 C2183 1.433 . S
C2191 N2193 1.384 . S
N2192 C2188 1.427 . S
N2192 C2189 1.384 . S
N2193 C2185 1.427 . S
N2193 C2191 1.384 . S
H2194 C2200 0.930 . S
H2195 C2204 0.930 . S
H2196 C2209 0.929 . S
H2197 C2207 0.929 . S
H2198 C2202 0.929 . S
H2199 C2208 0.929 . S
C2200 H2194 0.930 . S
C2200 C2201 1.367 . S
C2200 C2208 1.378 . S
C2201 C2200 1.367 . S
C2201 C2209 1.433 . S
C2202 H2198 0.929 . S
C2202 C2204 1.378 . S
C2202 C2206 1.350 . S
C2203 C2206 1.463 1_565 S
C2203 C2208 1.350 . S
C2203 N2211 1.427 . S
C2204 H2195 0.930 . S
C2204 C2202 1.378 . S
C2204 C2205 1.367 . S
C2205 C2204 1.367 . S
C2205 C2207 1.433 . S
C2206 C2202 1.350 . S
C2206 C2203 1.463 1_545 S
C2206 N2210 1.427 . S
C2207 H2197 0.929 . S
C2207 C2205 1.433 . S
C2207 N2210 1.384 . S
C2208 H2199 0.929 . S
C2208 C2200 1.378 . S
C2208 C2203 1.350 . S
C2209 H2196 0.929 . S
C2209 C2201 1.433 . S
C2209 N2211 1.384 . S
N2210 C2206 1.427 . S
N2210 C2207 1.384 . S
N2211 C2203 1.427 . S
N2211 C2209 1.384 . S
H2212 C2218 0.930 . S
H2213 C2222 0.930 . S
H2214 C2227 0.929 . S
H2215 C2225 0.929 . S
H2216 C2220 0.930 . S
H2217 C2226 0.930 . S
C2218 H2212 0.930 . S
C2218 C2219 1.367 . S
C2218 C2226 1.377 1_455 S
C2219 C2218 1.367 . S
C2219 C2227 1.433 1_556 S
C2220 H2216 0.930 . S
C2220 C2222 1.377 1_455 S
C2220 C2224 1.350 1_455 S
C2221 C2224 1.463 1_466 S
C2221 C2226 1.350 1_455 S
C2221 N2229 1.427 1_556 S
C2222 H2213 0.930 . S
C2222 C2220 1.377 1_655 S
C2222 C2223 1.367 . S
C2223 C2222 1.367 . S
C2223 C2225 1.433 1_554 S
C2224 C2220 1.350 1_655 S
C2224 C2221 1.463 1_644 S
C2224 N2228 1.427 1_554 S
C2225 H2215 0.929 . S
C2225 C2223 1.433 1_556 S
C2225 N2228 1.384 . S
C2226 H2217 0.930 . S
C2226 C2218 1.377 1_655 S
C2226 C2221 1.350 1_655 S
C2227 H2214 0.929 . S
C2227 C2219 1.433 1_554 S
C2227 N2229 1.384 . S
N2228 C2224 1.427 1_556 S
N2228 C2225 1.384 . S
N2229 C2221 1.427 1_554 S
N2229 C2227 1.384 . S
H2230 C2236 0.930 . S
H2231 C2240 0.930 . S
H2232 C2245 0.929 . S
H2233 C2243 0.929 . S
H2234 C2238 0.929 . S
H2235 C2244 0.929 . S
C2236 H2230 0.930 . S
C2236 C2237 1.367 . S
C2236 C2244 1.378 . S
C2237 C2236 1.367 . S
C2237 C2245 1.433 1_554 S
C2238 H2234 0.929 . S
C2238 C2240 1.378 . S
C2238 C2242 1.350 . S
C2239 C2242 1.463 1_554 S
C2239 C2244 1.350 . S
C2239 N2247 1.427 1_554 S
C2240 H2231 0.930 . S
C2240 C2238 1.378 . S
C2240 C2241 1.367 . S
C2241 C2240 1.367 . S
C2241 C2243 1.433 1_556 S
C2242 C2238 1.350 . S
C2242 C2239 1.463 1_556 S
C2242 N2246 1.427 1_556 S
C2243 H2233 0.929 . S
C2243 C2241 1.433 1_554 S
C2243 N2246 1.384 . S
C2244 H2235 0.929 . S
C2244 C2236 1.378 . S
C2244 C2239 1.350 . S
C2245 H2232 0.929 . S
C2245 C2237 1.433 1_556 S
C2245 N2247 1.384 . S
N2246 C2242 1.427 1_554 S
N2246 C2243 1.384 . S
N2247 C2239 1.427 1_556 S
N2247 C2245 1.384 . S
H2248 C2254 0.939 . S
H2249 C2258 0.939 . S
H2250 C2263 0.929 . S
H2251 C2261 0.929 . S
H2252 C2256 0.929 . S
H2253 C2262 0.929 . S
C2254 H2248 0.939 . S
C2254 C2255 1.367 . S
C2254 C2262 1.378 1_655 S
C2255 C2254 1.367 . S
C2255 C2263 1.433 . S
C2256 H2252 0.929 . S
C2256 C2258 1.378 1_655 S
C2256 C2260 1.350 1_655 S
C2257 C2260 1.463 1_655 S
C2257 C2262 1.350 1_655 S
C2257 N2265 1.427 . S
C2258 H2249 0.939 . S
C2258 C2256 1.378 1_455 S
C2258 C2259 1.367 . S
C2259 C2258 1.367 . S
C2259 C2261 1.433 . S
C2260 C2256 1.350 1_455 S
C2260 C2257 1.463 1_455 S
C2260 N2264 1.427 . S
C2261 H2251 0.929 . S
C2261 C2259 1.433 . S
C2261 N2264 1.384 . S
C2262 H2253 0.929 . S
C2262 C2254 1.378 1_455 S
C2262 C2257 1.350 1_455 S
C2263 H2250 0.929 . S
C2263 C2255 1.433 . S
C2263 N2265 1.384 . S
N2264 C2260 1.427 . S
N2264 C2261 1.384 . S
N2265 C2257 1.427 . S
N2265 C2263 1.384 . S
H2266 C2272 0.930 . S
H2267 C2276 0.930 . S
H2268 C2281 0.929 . S
H2269 C2279 0.929 . S
H2270 C2274 0.929 . S
H2271 C2280 0.929 . S
C2272 H2266 0.930 . S
C2272 C2273 1.367 . S
C2272 C2280 1.378 . S
C2273 C2272 1.367 . S
C2273 C2281 1.433 . S
C2274 H2270 0.929 . S
C2274 C2276 1.378 . S
C2274 C2278 1.350 . S
C2275 C2278 1.463 1_565 S
C2275 C2280 1.350 . S
C2275 N2283 1.427 . S
C2276 H2267 0.930 . S
C2276 C2274 1.378 . S
C2276 C2277 1.367 . S
C2277 C2276 1.367 . S
C2277 C2279 1.433 . S
C2278 C2274 1.350 . S
C2278 C2275 1.463 1_545 S
C2278 N2282 1.427 . S
C2279 H2269 0.929 . S
C2279 C2277 1.433 . S
C2279 N2282 1.384 . S
C2280 H2271 0.929 . S
C2280 C2272 1.378 . S
C2280 C2275 1.350 . S
C2281 H2268 0.929 . S
C2281 C2273 1.433 . S
C2281 N2283 1.384 . S
N2282 C2278 1.427 . S
N2282 C2279 1.384 . S
N2283 C2275 1.427 . S
N2283 C2281 1.384 . S
H2284 C2290 0.930 . S
H2285 C2294 0.930 . S
H2286 C2299 0.929 . S
H2287 C2297 0.929 . S
H2288 C2292 0.929 . S
H2289 C2298 0.929 . S
C2290 H2284 0.930 . S
C2290 C2291 1.367 1_554 S
C2290 C2298 1.378 . S
C2291 C2290 1.367 1_556 S
C2291 C2299 1.433 . S
C2292 H2288 0.929 . S
C2292 C2294 1.378 . S
C2292 C2296 1.309 1_556 S
C2293 C2296 1.458 1_556 S
C2293 C2298 1.309 1_556 S
C2293 N2301 1.476 . S
C2294 H2285 0.930 . S
C2294 C2292 1.378 . S
C2294 C2295 1.367 1_556 S
C2295 C2294 1.367 1_554 S
C2295 C2297 1.433 . S
C2296 C2292 1.309 1_554 S
C2296 C2293 1.458 1_554 S
C2296 N2300 1.476 . S
C2297 H2287 0.929 . S
C2297 C2295 1.433 . S
C2297 N2300 1.384 . S
C2298 H2289 0.929 . S
C2298 C2290 1.378 . S
C2298 C2293 1.309 1_554 S
C2299 H2286 0.929 . S
C2299 C2291 1.433 . S
C2299 N2301 1.384 . S
N2300 C2296 1.476 . S
N2300 C2297 1.384 . S
N2301 C2293 1.476 . S
N2301 C2299 1.384 . S
H2302 C2308 0.930 . S
H2303 C2312 0.930 . S
H2304 C2317 0.929 . S
H2305 C2315 0.929 . S
H2306 C2310 0.929 . S
H2307 C2316 0.929 . S
C2308 H2302 0.930 . S
C2308 C2309 1.367 . S
C2308 C2316 1.378 . S
C2309 C2308 1.367 . S
C2309 C2317 1.433 . S
C2310 H2306 0.929 . S
C2310 C2312 1.378 . S
C2310 C2314 1.350 . S
C2311 C2314 1.463 . S
C2311 C2316 1.350 . S
C2311 N2319 1.427 . S
C2312 H2303 0.930 . S
C2312 C2310 1.378 . S
C2312 C2313 1.367 . S
C2313 C2312 1.367 . S
C2313 C2315 1.433 . S
C2314 C2310 1.350 . S
C2314 C2311 1.463 . S
C2314 N2318 1.427 . S
C2315 H2305 0.929 . S
C2315 C2313 1.433 . S
C2315 N2318 1.384 . S
C2316 H2307 0.929 . S
C2316 C2308 1.378 . S
C2316 C2311 1.350 . S
C2317 H2304 0.929 . S
C2317 C2309 1.433 . S
C2317 N2319 1.384 . S
N2318 C2314 1.427 . S
N2318 C2315 1.384 . S
N2319 C2311 1.427 . S
N2319 C2317 1.384 . S
H2320 C2326 0.930 . S
H2321 C2330 0.930 . S
H2322 C2335 0.929 . S
H2323 C2333 0.929 . S
H2324 C2328 0.929 . S
H2325 C2334 0.929 . S
C2326 H2320 0.930 . S
C2326 C2327 1.367 . S
C2326 C2334 1.378 1_655 S
C2327 C2326 1.367 . S
C2327 C2335 1.433 . S
C2328 H2324 0.929 . S
C2328 C2330 1.378 1_655 S
C2328 C2332 1.350 1_655 S
C2329 C2332 1.463 1_655 S
C2329 C2334 1.350 1_655 S
C2329 N2337 1.427 . S
C2330 H2321 0.930 . S
C2330 C2328 1.378 1_455 S
C2330 C2331 1.367 . S
C2331 C2330 1.367 . S
C2331 C2333 1.433 . S
C2332 C2328 1.350 1_455 S
C2332 C2329 1.463 1_455 S
C2332 N2336 1.427 . S
C2333 H2323 0.929 . S
C2333 C2331 1.433 . S
C2333 N2336 1.384 . S
C2334 H2325 0.929 . S
C2334 C2326 1.378 1_455 S
C2334 C2329 1.350 1_455 S
C2335 H2322 0.929 . S
C2335 C2327 1.433 . S
C2335 N2337 1.384 . S
N2336 C2332 1.427 . S
N2336 C2333 1.384 . S
N2337 C2329 1.427 . S
N2337 C2335 1.384 . S
H2338 C2344 0.930 . S
H2339 C2348 0.930 . S
H2340 C2353 0.929 . S
H2341 C2351 0.929 . S
H2342 C2346 0.929 . S
H2343 C2352 0.929 . S
C2344 H2338 0.930 . S
C2344 C2345 1.367 . S
C2344 C2352 1.378 . S
C2345 C2344 1.367 . S
C2345 C2353 1.433 . S
C2346 H2342 0.929 . S
C2346 C2348 1.378 . S
C2346 C2350 1.350 . S
C2347 C2350 1.463 . S
C2347 C2352 1.350 . S
C2347 N2355 1.427 . S
C2348 H2339 0.930 . S
C2348 C2346 1.378 . S
C2348 C2349 1.367 . S
C2349 C2348 1.367 . S
C2349 C2351 1.433 . S
C2350 C2346 1.350 . S
C2350 C2347 1.463 . S
C2350 N2354 1.427 . S
C2351 H2341 0.929 . S
C2351 C2349 1.433 . S
C2351 N2354 1.384 . S
C2352 H2343 0.929 . S
C2352 C2344 1.378 . S
C2352 C2347 1.350 . S
C2353 H2340 0.929 . S
C2353 C2345 1.433 . S
C2353 N2355 1.384 . S
N2354 C2350 1.427 . S
N2354 C2351 1.384 . S
N2355 C2347 1.427 . S
N2355 C2353 1.384 . S
H2356 C2362 0.930 . S
H2357 C2366 0.930 . S
H2358 C2371 0.929 . S
H2359 C2369 0.929 . S
H2360 C2364 0.929 . S
H2361 C2370 0.929 . S
C2362 H2356 0.930 . S
C2362 C2363 1.367 . S
C2362 C2370 1.378 . S
C2363 C2362 1.367 . S
C2363 C2371 1.433 . S
C2364 H2360 0.929 . S
C2364 C2366 1.378 . S
C2364 C2368 1.350 . S
C2365 C2368 1.463 . S
C2365 C2370 1.350 . S
C2365 N2373 1.427 . S
C2366 H2357 0.930 . S
C2366 C2364 1.378 . S
C2366 C2367 1.367 . S
C2367 C2366 1.367 . S
C2367 C2369 1.433 . S
C2368 C2364 1.350 . S
C2368 C2365 1.463 . S
C2368 N2372 1.427 . S
C2369 H2359 0.929 . S
C2369 C2367 1.433 . S
C2369 N2372 1.384 . S
C2370 H2361 0.929 . S
C2370 C2362 1.378 . S
C2370 C2365 1.350 . S
C2371 H2358 0.929 . S
C2371 C2363 1.433 . S
C2371 N2373 1.384 . S
N2372 C2368 1.427 . S
N2372 C2369 1.384 . S
N2373 C2365 1.427 . S
N2373 C2371 1.384 . S
H2374 C2380 0.930 . S
H2375 C2384 0.930 . S
H2376 C2389 0.929 . S
H2377 C2387 0.929 . S
H2378 C2382 0.929 . S
H2379 C2388 0.929 . S
C2380 H2374 0.930 . S
C2380 C2381 1.367 . S
C2380 C2388 1.378 . S
C2381 C2380 1.367 . S
C2381 C2389 1.433 . S
C2382 H2378 0.929 . S
C2382 C2384 1.378 . S
C2382 C2386 1.350 . S
C2383 C2386 1.463 . S
C2383 C2388 1.350 . S
C2383 N2391 1.427 . S
C2384 H2375 0.930 . S
C2384 C2382 1.378 . S
C2384 C2385 1.367 . S
C2385 C2384 1.367 . S
C2385 C2387 1.433 . S
C2386 C2382 1.350 . S
C2386 C2383 1.463 . S
C2386 N2390 1.427 . S
C2387 H2377 0.929 . S
C2387 C2385 1.433 . S
C2387 N2390 1.384 . S
C2388 H2379 0.929 . S
C2388 C2380 1.378 . S
C2388 C2383 1.350 . S
C2389 H2376 0.929 . S
C2389 C2381 1.433 . S
C2389 N2391 1.384 . S
N2390 C2386 1.427 . S
N2390 C2387 1.384 . S
N2391 C2383 1.427 . S
N2391 C2389 1.384 . S
H2392 C2398 0.930 . S
H2393 C2402 0.930 . S
H2394 C2407 0.929 . S
H2395 C2405 0.929 . S
H2396 C2400 0.929 . S
H2397 C2406 0.929 . S
C2398 H2392 0.930 . S
C2398 C2399 1.367 . S
C2398 C2406 1.378 . S
C2399 C2398 1.367 . S
C2399 C2407 1.433 . S
C2400 H2396 0.929 . S
C2400 C2402 1.378 . S
C2400 C2404 1.350 . S
C2401 C2404 1.463 . S
C2401 C2406 1.350 . S
C2401 N2409 1.427 . S
C2402 H2393 0.930 . S
C2402 C2400 1.378 . S
C2402 C2403 1.367 . S
C2403 C2402 1.367 . S
C2403 C2405 1.433 . S
C2404 C2400 1.350 . S
C2404 C2401 1.463 . S
C2404 N2408 1.427 . S
C2405 H2395 0.929 . S
C2405 C2403 1.433 . S
C2405 N2408 1.384 . S
C2406 H2397 0.929 . S
C2406 C2398 1.378 . S
C2406 C2401 1.350 . S
C2407 H2394 0.929 . S
C2407 C2399 1.433 . S
C2407 N2409 1.384 . S
N2408 C2404 1.427 . S
N2408 C2405 1.384 . S
N2409 C2401 1.427 . S
N2409 C2407 1.384 . S
H2410 C2416 0.930 . S
H2411 C2420 0.930 . S
H2412 C2425 0.929 . S
H2413 C2423 0.929 . S
H2414 C2418 0.929 . S
H2415 C2424 0.929 . S
C2416 H2410 0.930 . S
C2416 C2417 1.367 . S
C2416 C2424 1.378 . S
C2417 C2416 1.367 . S
C2417 C2425 1.433 . S
C2418 H2414 0.929 . S
C2418 C2420 1.378 . S
C2418 C2422 1.350 . S
C2419 C2422 1.463 1_545 S
C2419 C2424 1.350 . S
C2419 N2427 1.427 . S
C2420 H2411 0.930 . S
C2420 C2418 1.378 . S
C2420 C2421 1.367 . S
C2421 C2420 1.367 . S
C2421 C2423 1.433 . S
C2422 C2418 1.350 . S
C2422 C2419 1.463 1_565 S
C2422 N2426 1.427 . S
C2423 H2413 0.929 . S
C2423 C2421 1.433 . S
C2423 N2426 1.384 . S
C2424 H2415 0.929 . S
C2424 C2416 1.378 . S
C2424 C2419 1.350 . S
C2425 H2412 0.929 . S
C2425 C2417 1.433 . S
C2425 N2427 1.384 . S
N2426 C2422 1.427 . S
N2426 C2423 1.384 . S
N2427 C2419 1.427 . S
N2427 C2425 1.384 . S
H2428 C2434 0.930 . S
H2429 C2438 0.930 . S
H2430 C2443 0.929 . S
H2431 C2441 0.929 . S
H2432 C2436 0.929 . S
H2433 C2442 0.929 . S
C2434 H2428 0.930 . S
C2434 C2435 1.367 . S
C2434 C2442 1.378 . S
C2435 C2434 1.367 . S
C2435 C2443 1.433 . S
C2436 H2432 0.929 . S
C2436 C2438 1.378 . S
C2436 C2440 1.350 . S
C2437 C2440 1.463 . S
C2437 C2442 1.350 . S
C2437 N2445 1.427 . S
C2438 H2429 0.930 . S
C2438 C2436 1.378 . S
C2438 C2439 1.367 . S
C2439 C2438 1.367 . S
C2439 C2441 1.433 . S
C2440 C2436 1.350 . S
C2440 C2437 1.463 . S
C2440 N2444 1.427 . S
C2441 H2431 0.929 . S
C2441 C2439 1.433 . S
C2441 N2444 1.384 . S
C2442 H2433 0.929 . S
C2442 C2434 1.378 . S
C2442 C2437 1.350 . S
C2443 H2430 0.929 . S
C2443 C2435 1.433 . S
C2443 N2445 1.384 . S
N2444 C2440 1.427 . S
N2444 C2441 1.384 . S
N2445 C2437 1.427 . S
N2445 C2443 1.384 . S
H2446 C2452 0.930 . S
H2447 C2456 0.930 . S
H2448 C2461 0.929 . S
H2449 C2459 0.929 . S
H2450 C2454 0.929 . S
H2451 C2460 0.929 . S
C2452 H2446 0.930 . S
C2452 C2453 1.367 1_554 S
C2452 C2460 1.378 . S
C2453 C2452 1.367 1_556 S
C2453 C2461 1.433 . S
C2454 H2450 0.929 . S
C2454 C2456 1.378 . S
C2454 C2458 1.309 1_556 S
C2455 C2458 1.458 1_556 S
C2455 C2460 1.309 1_556 S
C2455 N2463 1.476 . S
C2456 H2447 0.930 . S
C2456 C2454 1.378 . S
C2456 C2457 1.367 1_556 S
C2457 C2456 1.367 1_554 S
C2457 C2459 1.433 . S
C2458 C2454 1.309 1_554 S
C2458 C2455 1.458 1_554 S
C2458 N2462 1.476 . S
C2459 H2449 0.929 . S
C2459 C2457 1.433 . S
C2459 N2462 1.384 . S
C2460 H2451 0.929 . S
C2460 C2452 1.378 . S
C2460 C2455 1.309 1_554 S
C2461 H2448 0.929 . S
C2461 C2453 1.433 . S
C2461 N2463 1.384 . S
N2462 C2458 1.476 . S
N2462 C2459 1.384 . S
N2463 C2455 1.476 . S
N2463 C2461 1.384 . S
H2464 C2470 0.930 . S
H2465 C2474 0.930 . S
H2466 C2479 0.929 . S
H2467 C2477 0.929 . S
H2468 C2472 0.929 . S
H2469 C2478 0.929 . S
C2470 H2464 0.930 . S
C2470 C2471 1.367 . S
C2470 C2478 1.378 . S
C2471 C2470 1.367 . S
C2471 C2479 1.433 . S
C2472 H2468 0.929 . S
C2472 C2474 1.378 . S
C2472 C2476 1.350 . S
C2473 C2476 1.463 . S
C2473 C2478 1.350 . S
C2473 N2481 1.427 . S
C2474 H2465 0.930 . S
C2474 C2472 1.378 . S
C2474 C2475 1.367 . S
C2475 C2474 1.367 . S
C2475 C2477 1.433 . S
C2476 C2472 1.350 . S
C2476 C2473 1.463 . S
C2476 N2480 1.427 . S
C2477 H2467 0.929 . S
C2477 C2475 1.433 . S
C2477 N2480 1.384 . S
C2478 H2469 0.929 . S
C2478 C2470 1.378 . S
C2478 C2473 1.350 . S
C2479 H2466 0.929 . S
C2479 C2471 1.433 . S
C2479 N2481 1.384 . S
N2480 C2476 1.427 . S
N2480 C2477 1.384 . S
N2481 C2473 1.427 . S
N2481 C2479 1.384 . S
H2482 C2488 0.930 . S
H2483 C2492 0.930 . S
H2484 C2497 0.929 . S
H2485 C2495 0.929 . S
H2486 C2490 0.929 . S
H2487 C2496 0.929 . S
C2488 H2482 0.930 . S
C2488 C2489 1.367 . S
C2488 C2496 1.378 . S
C2489 C2488 1.367 . S
C2489 C2497 1.433 . S
C2490 H2486 0.929 . S
C2490 C2492 1.378 . S
C2490 C2494 1.350 . S
C2491 C2494 1.463 . S
C2491 C2496 1.350 . S
C2491 N2499 1.427 . S
C2492 H2483 0.930 . S
C2492 C2490 1.378 . S
C2492 C2493 1.367 . S
C2493 C2492 1.367 . S
C2493 C2495 1.433 . S
C2494 C2490 1.350 . S
C2494 C2491 1.463 . S
C2494 N2498 1.427 . S
C2495 H2485 0.929 . S
C2495 C2493 1.433 . S
C2495 N2498 1.384 . S
C2496 H2487 0.929 . S
C2496 C2488 1.378 . S
C2496 C2491 1.350 . S
C2497 H2484 0.929 . S
C2497 C2489 1.433 . S
C2497 N2499 1.384 . S
N2498 C2494 1.427 . S
N2498 C2495 1.384 . S
N2499 C2491 1.427 . S
N2499 C2497 1.384 . S
H2500 C2506 0.930 . S
H2501 C2510 0.930 . S
H2502 C2515 0.929 . S
H2503 C2513 0.929 . S
H2504 C2508 0.929 . S
H2505 C2514 0.929 . S
C2506 H2500 0.930 . S
C2506 C2507 1.367 . S
C2506 C2514 1.378 . S
C2507 C2506 1.367 . S
C2507 C2515 1.433 . S
C2508 H2504 0.929 . S
C2508 C2510 1.378 . S
C2508 C2512 1.350 . S
C2509 C2512 1.463 . S
C2509 C2514 1.350 . S
C2509 N2517 1.427 . S
C2510 H2501 0.930 . S
C2510 C2508 1.378 . S
C2510 C2511 1.367 . S
C2511 C2510 1.367 . S
C2511 C2513 1.433 . S
C2512 C2508 1.350 . S
C2512 C2509 1.463 . S
C2512 N2516 1.427 . S
C2513 H2503 0.929 . S
C2513 C2511 1.433 . S
C2513 N2516 1.384 . S
C2514 H2505 0.929 . S
C2514 C2506 1.378 . S
C2514 C2509 1.350 . S
C2515 H2502 0.929 . S
C2515 C2507 1.433 . S
C2515 N2517 1.384 . S
N2516 C2512 1.427 . S
N2516 C2513 1.384 . S
N2517 C2509 1.427 . S
N2517 C2515 1.384 . S
H2518 C2524 0.930 . S
H2519 C2528 0.930 . S
H2520 C2533 0.929 . S
H2521 C2531 0.929 . S
H2522 C2526 0.929 . S
H2523 C2532 0.929 . S
C2524 H2518 0.930 . S
C2524 C2525 1.367 . S
C2524 C2532 1.378 . S
C2525 C2524 1.367 . S
C2525 C2533 1.433 . S
C2526 H2522 0.929 . S
C2526 C2528 1.378 . S
C2526 C2530 1.350 . S
C2527 C2530 1.463 . S
C2527 C2532 1.350 . S
C2527 N2535 1.427 . S
C2528 H2519 0.930 . S
C2528 C2526 1.378 . S
C2528 C2529 1.367 . S
C2529 C2528 1.367 . S
C2529 C2531 1.433 . S
C2530 C2526 1.350 . S
C2530 C2527 1.463 . S
C2530 N2534 1.427 . S
C2531 H2521 0.929 . S
C2531 C2529 1.433 . S
C2531 N2534 1.384 . S
C2532 H2523 0.929 . S
C2532 C2524 1.378 . S
C2532 C2527 1.350 . S
C2533 H2520 0.929 . S
C2533 C2525 1.433 . S
C2533 N2535 1.384 . S
N2534 C2530 1.427 . S
N2534 C2531 1.384 . S
N2535 C2527 1.427 . S
N2535 C2533 1.384 . S
H2536 C2542 0.930 . S
H2537 C2546 0.930 . S
H2538 C2551 0.929 . S
H2539 C2549 0.929 . S
H2540 C2544 0.929 . S
H2541 C2550 0.929 . S
C2542 H2536 0.930 . S
C2542 C2543 1.367 . S
C2542 C2550 1.378 . S
C2543 C2542 1.367 . S
C2543 C2551 1.433 . S
C2544 H2540 0.929 . S
C2544 C2546 1.378 . S
C2544 C2548 1.350 . S
C2545 C2548 1.463 . S
C2545 C2550 1.350 . S
C2545 N2553 1.427 . S
C2546 H2537 0.930 . S
C2546 C2544 1.378 . S
C2546 C2547 1.367 . S
C2547 C2546 1.367 . S
C2547 C2549 1.433 . S
C2548 C2544 1.350 . S
C2548 C2545 1.463 . S
C2548 N2552 1.427 . S
C2549 H2539 0.929 . S
C2549 C2547 1.433 . S
C2549 N2552 1.384 . S
C2550 H2541 0.929 . S
C2550 C2542 1.378 . S
C2550 C2545 1.350 . S
C2551 H2538 0.929 . S
C2551 C2543 1.433 . S
C2551 N2553 1.384 . S
N2552 C2548 1.427 . S
N2552 C2549 1.384 . S
N2553 C2545 1.427 . S
N2553 C2551 1.384 . S
H2554 C2560 0.930 . S
H2555 C2564 0.930 . S
H2556 C2569 0.929 . S
H2557 C2567 0.929 . S
H2558 C2562 0.929 . S
H2559 C2568 0.929 . S
C2560 H2554 0.930 . S
C2560 C2561 1.367 . S
C2560 C2568 1.378 . S
C2561 C2560 1.367 . S
C2561 C2569 1.433 . S
C2562 H2558 0.929 . S
C2562 C2564 1.378 . S
C2562 C2566 1.350 . S
C2563 C2566 1.463 . S
C2563 C2568 1.350 . S
C2563 N2571 1.427 . S
C2564 H2555 0.930 . S
C2564 C2562 1.378 . S
C2564 C2565 1.367 . S
C2565 C2564 1.367 . S
C2565 C2567 1.433 . S
C2566 C2562 1.350 . S
C2566 C2563 1.463 . S
C2566 N2570 1.427 . S
C2567 H2557 0.929 . S
C2567 C2565 1.433 . S
C2567 N2570 1.384 . S
C2568 H2559 0.929 . S
C2568 C2560 1.378 . S
C2568 C2563 1.350 . S
C2569 H2556 0.929 . S
C2569 C2561 1.433 . S
C2569 N2571 1.384 . S
N2570 C2566 1.427 . S
N2570 C2567 1.384 . S
N2571 C2563 1.427 . S
N2571 C2569 1.384 . S
H2572 C2578 0.930 . S
H2573 C2582 0.930 . S
H2574 C2587 0.929 . S
H2575 C2585 0.929 . S
H2576 C2580 0.929 . S
H2577 C2586 0.929 . S
C2578 H2572 0.930 . S
C2578 C2579 1.367 . S
C2578 C2586 1.378 . S
C2579 C2578 1.367 . S
C2579 C2587 1.433 . S
C2580 H2576 0.929 . S
C2580 C2582 1.378 . S
C2580 C2584 1.350 . S
C2581 C2584 1.463 . S
C2581 C2586 1.350 . S
C2581 N2589 1.427 . S
C2582 H2573 0.930 . S
C2582 C2580 1.378 . S
C2582 C2583 1.367 . S
C2583 C2582 1.367 . S
C2583 C2585 1.433 . S
C2584 C2580 1.350 . S
C2584 C2581 1.463 . S
C2584 N2588 1.427 . S
C2585 H2575 0.929 . S
C2585 C2583 1.433 . S
C2585 N2588 1.384 . S
C2586 H2577 0.929 . S
C2586 C2578 1.378 . S
C2586 C2581 1.350 . S
C2587 H2574 0.929 . S
C2587 C2579 1.433 . S
C2587 N2589 1.384 . S
N2588 C2584 1.427 . S
N2588 C2585 1.384 . S
N2589 C2581 1.427 . S
N2589 C2587 1.384 . S
H2590 C2596 0.930 . S
H2591 C2600 0.930 . S
H2592 C2605 0.929 . S
H2593 C2603 0.929 . S
H2594 C2598 0.929 . S
H2595 C2604 0.929 . S
C2596 H2590 0.930 . S
C2596 C2597 1.367 . S
C2596 C2604 1.378 . S
C2597 C2596 1.367 . S
C2597 C2605 1.433 . S
C2598 H2594 0.929 . S
C2598 C2600 1.378 . S
C2598 C2602 1.350 . S
C2599 C2602 1.463 . S
C2599 C2604 1.350 . S
C2599 N2607 1.427 . S
C2600 H2591 0.930 . S
C2600 C2598 1.378 . S
C2600 C2601 1.367 . S
C2601 C2600 1.367 . S
C2601 C2603 1.433 . S
C2602 C2598 1.350 . S
C2602 C2599 1.463 . S
C2602 N2606 1.427 . S
C2603 H2593 0.929 . S
C2603 C2601 1.433 . S
C2603 N2606 1.384 . S
C2604 H2595 0.929 . S
C2604 C2596 1.378 . S
C2604 C2599 1.350 . S
C2605 H2592 0.929 . S
C2605 C2597 1.433 . S
C2605 N2607 1.384 . S
N2606 C2602 1.427 . S
N2606 C2603 1.384 . S
N2607 C2599 1.427 . S
N2607 C2605 1.384 . S
H2608 C2614 0.930 . S
H2609 C2618 0.930 . S
H2610 C2623 0.929 . S
H2611 C2621 0.929 . S
H2612 C2616 0.929 . S
H2613 C2622 0.929 . S
C2614 H2608 0.930 . S
C2614 C2615 1.367 . S
C2614 C2622 1.378 . S
C2615 C2614 1.367 . S
C2615 C2623 1.433 . S
C2616 H2612 0.929 . S
C2616 C2618 1.378 . S
C2616 C2620 1.350 . S
C2617 C2620 1.463 . S
C2617 C2622 1.350 . S
C2617 N2625 1.427 . S
C2618 H2609 0.930 . S
C2618 C2616 1.378 . S
C2618 C2619 1.367 . S
C2619 C2618 1.367 . S
C2619 C2621 1.433 . S
C2620 C2616 1.350 . S
C2620 C2617 1.463 . S
C2620 N2624 1.427 . S
C2621 H2611 0.929 . S
C2621 C2619 1.433 . S
C2621 N2624 1.384 . S
C2622 H2613 0.929 . S
C2622 C2614 1.378 . S
C2622 C2617 1.350 . S
C2623 H2610 0.929 . S
C2623 C2615 1.433 . S
C2623 N2625 1.384 . S
N2624 C2620 1.427 . S
N2624 C2621 1.384 . S
N2625 C2617 1.427 . S
N2625 C2623 1.384 . S
H2626 C2632 0.930 . S
H2627 C2636 0.930 . S
H2628 C2641 0.929 . S
H2629 C2639 0.929 . S
H2630 C2634 0.929 . S
H2631 C2640 0.929 . S
C2632 H2626 0.930 . S
C2632 C2633 1.367 . S
C2632 C2640 1.378 . S
C2633 C2632 1.367 . S
C2633 C2641 1.433 . S
C2634 H2630 0.929 . S
C2634 C2636 1.378 . S
C2634 C2638 1.350 . S
C2635 C2638 1.463 . S
C2635 C2640 1.350 . S
C2635 N2643 1.427 . S
C2636 H2627 0.930 . S
C2636 C2634 1.378 . S
C2636 C2637 1.367 . S
C2637 C2636 1.367 . S
C2637 C2639 1.433 . S
C2638 C2634 1.350 . S
C2638 C2635 1.463 . S
C2638 N2642 1.427 . S
C2639 H2629 0.929 . S
C2639 C2637 1.433 . S
C2639 N2642 1.384 . S
C2640 H2631 0.929 . S
C2640 C2632 1.378 . S
C2640 C2635 1.350 . S
C2641 H2628 0.929 . S
C2641 C2633 1.433 . S
C2641 N2643 1.384 . S
N2642 C2638 1.427 . S
N2642 C2639 1.384 . S
N2643 C2635 1.427 . S
N2643 C2641 1.384 . S
H2644 C2650 0.930 . S
H2645 C2654 0.930 . S
H2646 C2659 0.929 . S
H2647 C2657 0.929 . S
H2648 C2652 0.929 . S
H2649 C2658 0.929 . S
C2650 H2644 0.930 . S
C2650 C2651 1.367 . S
C2650 C2658 1.378 . S
C2651 C2650 1.367 . S
C2651 C2659 1.433 . S
C2652 H2648 0.929 . S
C2652 C2654 1.378 . S
C2652 C2656 1.350 . S
C2653 C2656 1.463 . S
C2653 C2658 1.350 . S
C2653 N2661 1.427 . S
C2654 H2645 0.930 . S
C2654 C2652 1.378 . S
C2654 C2655 1.367 . S
C2655 C2654 1.367 . S
C2655 C2657 1.433 . S
C2656 C2652 1.350 . S
C2656 C2653 1.463 . S
C2656 N2660 1.427 . S
C2657 H2647 0.929 . S
C2657 C2655 1.433 . S
C2657 N2660 1.384 . S
C2658 H2649 0.929 . S
C2658 C2650 1.378 . S
C2658 C2653 1.350 . S
C2659 H2646 0.929 . S
C2659 C2651 1.433 . S
C2659 N2661 1.384 . S
N2660 C2656 1.427 . S
N2660 C2657 1.384 . S
N2661 C2653 1.427 . S
N2661 C2659 1.384 . S
H2662 C2668 0.930 . S
H2663 C2672 0.930 . S
H2664 C2677 0.929 . S
H2665 C2675 0.929 . S
H2666 C2670 0.929 . S
H2667 C2676 0.929 . S
C2668 H2662 0.930 . S
C2668 C2669 1.367 . S
C2668 C2676 1.378 . S
C2669 C2668 1.367 . S
C2669 C2677 1.433 . S
C2670 H2666 0.929 . S
C2670 C2672 1.378 . S
C2670 C2674 1.350 . S
C2671 C2674 1.463 . S
C2671 C2676 1.350 . S
C2671 N2679 1.427 . S
C2672 H2663 0.930 . S
C2672 C2670 1.378 . S
C2672 C2673 1.367 . S
C2673 C2672 1.367 . S
C2673 C2675 1.433 . S
C2674 C2670 1.350 . S
C2674 C2671 1.463 . S
C2674 N2678 1.427 . S
C2675 H2665 0.929 . S
C2675 C2673 1.433 . S
C2675 N2678 1.384 . S
C2676 H2667 0.929 . S
C2676 C2668 1.378 . S
C2676 C2671 1.350 . S
C2677 H2664 0.929 . S
C2677 C2669 1.433 . S
C2677 N2679 1.384 . S
N2678 C2674 1.427 . S
N2678 C2675 1.384 . S
N2679 C2671 1.427 . S
N2679 C2677 1.384 . S
H2680 C2686 0.930 . S
H2681 C2690 0.930 . S
H2682 C2695 0.929 . S
H2683 C2693 0.929 . S
H2684 C2688 0.929 . S
H2685 C2694 0.929 . S
C2686 H2680 0.930 . S
C2686 C2687 1.367 . S
C2686 C2694 1.378 . S
C2687 C2686 1.367 . S
C2687 C2695 1.433 . S
C2688 H2684 0.929 . S
C2688 C2690 1.378 . S
C2688 C2692 1.350 . S
C2689 C2692 1.463 . S
C2689 C2694 1.350 . S
C2689 N2697 1.427 . S
C2690 H2681 0.930 . S
C2690 C2688 1.378 . S
C2690 C2691 1.367 . S
C2691 C2690 1.367 . S
C2691 C2693 1.433 . S
C2692 C2688 1.350 . S
C2692 C2689 1.463 . S
C2692 N2696 1.427 . S
C2693 H2683 0.929 . S
C2693 C2691 1.433 . S
C2693 N2696 1.384 . S
C2694 H2685 0.929 . S
C2694 C2686 1.378 . S
C2694 C2689 1.350 . S
C2695 H2682 0.929 . S
C2695 C2687 1.433 . S
C2695 N2697 1.384 . S
N2696 C2692 1.427 . S
N2696 C2693 1.384 . S
N2697 C2689 1.427 . S
N2697 C2695 1.384 . S
H2698 C2704 0.930 . S
H2699 C2708 0.930 . S
H2700 C2713 0.929 . S
H2701 C2711 0.929 . S
H2702 C2706 0.929 . S
H2703 C2712 0.929 . S
C2704 H2698 0.930 . S
C2704 C2705 1.367 . S
C2704 C2712 1.378 . S
C2705 C2704 1.367 . S
C2705 C2713 1.433 . S
C2706 H2702 0.929 . S
C2706 C2708 1.378 . S
C2706 C2710 1.350 . S
C2707 C2710 1.463 . S
C2707 C2712 1.350 . S
C2707 N2715 1.427 . S
C2708 H2699 0.930 . S
C2708 C2706 1.378 . S
C2708 C2709 1.367 . S
C2709 C2708 1.367 . S
C2709 C2711 1.433 . S
C2710 C2706 1.350 . S
C2710 C2707 1.463 . S
C2710 N2714 1.427 . S
C2711 H2701 0.929 . S
C2711 C2709 1.433 . S
C2711 N2714 1.384 . S
C2712 H2703 0.929 . S
C2712 C2704 1.378 . S
C2712 C2707 1.350 . S
C2713 H2700 0.929 . S
C2713 C2705 1.433 . S
C2713 N2715 1.384 . S
N2714 C2710 1.427 . S
N2714 C2711 1.384 . S
N2715 C2707 1.427 . S
N2715 C2713 1.384 . S
H2716 C2722 0.930 . S
H2717 C2726 0.930 . S
H2718 C2731 0.929 . S
H2719 C2729 0.929 . S
H2720 C2724 0.929 . S
H2721 C2730 0.929 . S
C2722 H2716 0.930 . S
C2722 C2723 1.367 . S
C2722 C2730 1.378 . S
C2723 C2722 1.367 . S
C2723 C2731 1.433 . S
C2724 H2720 0.929 . S
C2724 C2726 1.378 . S
C2724 C2728 1.350 . S
C2725 C2728 1.463 . S
C2725 C2730 1.350 . S
C2725 N2733 1.427 . S
C2726 H2717 0.930 . S
C2726 C2724 1.378 . S
C2726 C2727 1.367 . S
C2727 C2726 1.367 . S
C2727 C2729 1.433 . S
C2728 C2724 1.350 . S
C2728 C2725 1.463 . S
C2728 N2732 1.427 . S
C2729 H2719 0.929 . S
C2729 C2727 1.433 . S
C2729 N2732 1.384 . S
C2730 H2721 0.929 . S
C2730 C2722 1.378 . S
C2730 C2725 1.350 . S
C2731 H2718 0.929 . S
C2731 C2723 1.433 . S
C2731 N2733 1.384 . S
N2732 C2728 1.427 . S
N2732 C2729 1.384 . S
N2733 C2725 1.427 . S
N2733 C2731 1.384 . S
H2734 C2740 0.930 . S
H2735 C2744 0.930 . S
H2736 C2749 0.929 . S
H2737 C2747 0.929 . S
H2738 C2742 0.929 . S
H2739 C2748 0.929 . S
C2740 H2734 0.930 . S
C2740 C2741 1.367 . S
C2740 C2748 1.378 . S
C2741 C2740 1.367 . S
C2741 C2749 1.433 . S
C2742 H2738 0.929 . S
C2742 C2744 1.378 . S
C2742 C2746 1.350 . S
C2743 C2746 1.463 . S
C2743 C2748 1.350 . S
C2743 N2751 1.427 . S
C2744 H2735 0.930 . S
C2744 C2742 1.378 . S
C2744 C2745 1.367 . S
C2745 C2744 1.367 . S
C2745 C2747 1.433 . S
C2746 C2742 1.350 . S
C2746 C2743 1.463 . S
C2746 N2750 1.427 . S
C2747 H2737 0.929 . S
C2747 C2745 1.433 . S
C2747 N2750 1.384 . S
C2748 H2739 0.929 . S
C2748 C2740 1.378 . S
C2748 C2743 1.350 . S
C2749 H2736 0.929 . S
C2749 C2741 1.433 . S
C2749 N2751 1.384 . S
N2750 C2746 1.427 . S
N2750 C2747 1.384 . S
N2751 C2743 1.427 . S
N2751 C2749 1.384 . S
H2752 C2758 0.930 . S
H2753 C2762 0.930 . S
H2754 C2767 0.929 . S
H2755 C2765 0.929 . S
H2756 C2760 0.929 . S
H2757 C2766 0.929 . S
C2758 H2752 0.930 . S
C2758 C2759 1.367 . S
C2758 C2766 1.378 . S
C2759 C2758 1.367 . S
C2759 C2767 1.433 . S
C2760 H2756 0.929 . S
C2760 C2762 1.378 . S
C2760 C2764 1.350 . S
C2761 C2764 1.463 . S
C2761 C2766 1.350 . S
C2761 N2769 1.427 . S
C2762 H2753 0.930 . S
C2762 C2760 1.378 . S
C2762 C2763 1.367 . S
C2763 C2762 1.367 . S
C2763 C2765 1.433 . S
C2764 C2760 1.350 . S
C2764 C2761 1.463 . S
C2764 N2768 1.427 . S
C2765 H2755 0.929 . S
C2765 C2763 1.433 . S
C2765 N2768 1.384 . S
C2766 H2757 0.929 . S
C2766 C2758 1.378 . S
C2766 C2761 1.350 . S
C2767 H2754 0.929 . S
C2767 C2759 1.433 . S
C2767 N2769 1.384 . S
N2768 C2764 1.427 . S
N2768 C2765 1.384 . S
N2769 C2761 1.427 . S
N2769 C2767 1.384 . S
H2770 C2776 0.930 . S
H2771 C2780 0.930 . S
H2772 C2785 0.929 . S
H2773 C2783 0.929 . S
H2774 C2778 0.929 . S
H2775 C2784 0.929 . S
C2776 H2770 0.930 . S
C2776 C2777 1.367 . S
C2776 C2784 1.378 . S
C2777 C2776 1.367 . S
C2777 C2785 1.433 . S
C2778 H2774 0.929 . S
C2778 C2780 1.378 . S
C2778 C2782 1.350 . S
C2779 C2782 1.463 . S
C2779 C2784 1.350 . S
C2779 N2787 1.427 . S
C2780 H2771 0.930 . S
C2780 C2778 1.378 . S
C2780 C2781 1.367 . S
C2781 C2780 1.367 . S
C2781 C2783 1.433 . S
C2782 C2778 1.350 . S
C2782 C2779 1.463 . S
C2782 N2786 1.427 . S
C2783 H2773 0.929 . S
C2783 C2781 1.433 . S
C2783 N2786 1.384 . S
C2784 H2775 0.929 . S
C2784 C2776 1.378 . S
C2784 C2779 1.350 . S
C2785 H2772 0.929 . S
C2785 C2777 1.433 . S
C2785 N2787 1.384 . S
N2786 C2782 1.427 . S
N2786 C2783 1.384 . S
N2787 C2779 1.427 . S
N2787 C2785 1.384 . S
H2788 C2794 0.930 . S
H2789 C2798 0.930 . S
H2790 C2803 0.929 . S
H2791 C2801 0.929 . S
H2792 C2796 0.929 . S
H2793 C2802 0.929 . S
C2794 H2788 0.930 . S
C2794 C2795 1.367 . S
C2794 C2802 1.378 . S
C2795 C2794 1.367 . S
C2795 C2803 1.433 1_556 S
C2796 H2792 0.929 . S
C2796 C2798 1.378 . S
C2796 C2800 1.350 1_554 S
C2797 C2800 1.463 . S
C2797 C2802 1.350 . S
C2797 N2805 1.427 1_556 S
C2798 H2789 0.930 . S
C2798 C2796 1.378 . S
C2798 C2799 1.367 1_554 S
C2799 C2798 1.367 1_556 S
C2799 C2801 1.433 . S
C2800 C2796 1.350 1_556 S
C2800 C2797 1.463 . S
C2800 N2804 1.427 . S
C2801 H2791 0.929 . S
C2801 C2799 1.433 . S
C2801 N2804 1.384 . S
C2802 H2793 0.929 . S
C2802 C2794 1.378 . S
C2802 C2797 1.350 . S
C2803 H2790 0.929 . S
C2803 C2795 1.433 1_554 S
C2803 N2805 1.384 . S
N2804 C2800 1.427 . S
N2804 C2801 1.384 . S
N2805 C2797 1.427 1_554 S
N2805 C2803 1.384 . S
H2806 C2812 0.930 . S
H2807 C2816 0.930 . S
H2808 C2821 0.929 . S
H2809 C2819 0.929 . S
H2810 C2814 0.929 . S
H2811 C2820 0.929 . S
C2812 H2806 0.930 . S
C2812 C2813 1.367 . S
C2812 C2820 1.378 . S
C2813 C2812 1.367 . S
C2813 C2821 1.433 1_556 S
C2814 H2810 0.929 . S
C2814 C2816 1.378 . S
C2814 C2818 1.350 1_554 S
C2815 C2818 1.463 . S
C2815 C2820 1.350 . S
C2815 N2823 1.427 1_556 S
C2816 H2807 0.930 . S
C2816 C2814 1.378 . S
C2816 C2817 1.367 1_554 S
C2817 C2816 1.367 1_556 S
C2817 C2819 1.433 . S
C2818 C2814 1.350 1_556 S
C2818 C2815 1.463 . S
C2818 N2822 1.427 . S
C2819 H2809 0.929 . S
C2819 C2817 1.433 . S
C2819 N2822 1.384 . S
C2820 H2811 0.929 . S
C2820 C2812 1.378 . S
C2820 C2815 1.350 . S
C2821 H2808 0.929 . S
C2821 C2813 1.433 1_554 S
C2821 N2823 1.384 . S
N2822 C2818 1.427 . S
N2822 C2819 1.384 . S
N2823 C2815 1.427 1_554 S
N2823 C2821 1.384 . S
H2824 C2830 0.930 . S
H2825 C2834 0.930 . S
H2826 C2839 0.929 . S
H2827 C2837 0.929 . S
H2828 C2832 0.929 . S
H2829 C2838 0.929 . S
C2830 H2824 0.930 . S
C2830 C2831 1.367 . S
C2830 C2838 1.378 . S
C2831 C2830 1.367 . S
C2831 C2839 1.433 . S
C2832 H2828 0.929 . S
C2832 C2834 1.378 . S
C2832 C2836 1.350 . S
C2833 C2836 1.463 . S
C2833 C2838 1.350 . S
C2833 N2841 1.427 . S
C2834 H2825 0.930 . S
C2834 C2832 1.378 . S
C2834 C2835 1.367 . S
C2835 C2834 1.367 . S
C2835 C2837 1.433 . S
C2836 C2832 1.350 . S
C2836 C2833 1.463 . S
C2836 N2840 1.427 . S
C2837 H2827 0.929 . S
C2837 C2835 1.433 . S
C2837 N2840 1.384 . S
C2838 H2829 0.929 . S
C2838 C2830 1.378 . S
C2838 C2833 1.350 . S
C2839 H2826 0.929 . S
C2839 C2831 1.433 . S
C2839 N2841 1.384 . S
N2840 C2836 1.427 . S
N2840 C2837 1.384 . S
N2841 C2833 1.427 . S
N2841 C2839 1.384 . S
H2842 C2848 0.930 . S
H2843 C2852 0.930 . S
H2844 C2857 0.929 . S
H2845 C2855 0.929 . S
H2846 C2850 0.929 . S
H2847 C2856 0.929 . S
C2848 H2842 0.930 . S
C2848 C2849 1.367 . S
C2848 C2856 1.378 . S
C2849 C2848 1.367 . S
C2849 C2857 1.433 . S
C2850 H2846 0.929 . S
C2850 C2852 1.378 . S
C2850 C2854 1.350 . S
C2851 C2854 1.463 . S
C2851 C2856 1.350 . S
C2851 N2859 1.427 . S
C2852 H2843 0.930 . S
C2852 C2850 1.378 . S
C2852 C2853 1.367 . S
C2853 C2852 1.367 . S
C2853 C2855 1.433 . S
C2854 C2850 1.350 . S
C2854 C2851 1.463 . S
C2854 N2858 1.427 . S
C2855 H2845 0.929 . S
C2855 C2853 1.433 . S
C2855 N2858 1.384 . S
C2856 H2847 0.929 . S
C2856 C2848 1.378 . S
C2856 C2851 1.350 . S
C2857 H2844 0.929 . S
C2857 C2849 1.433 . S
C2857 N2859 1.384 . S
N2858 C2854 1.427 . S
N2858 C2855 1.384 . S
N2859 C2851 1.427 . S
N2859 C2857 1.384 . S
H2860 C2866 0.930 . S
H2861 C2870 0.930 . S
H2862 C2875 0.929 . S
H2863 C2873 0.929 . S
H2864 C2868 0.929 . S
H2865 C2874 0.929 . S
C2866 H2860 0.930 . S
C2866 C2867 1.367 1_556 S
C2866 C2874 1.378 . S
C2867 C2866 1.367 1_554 S
C2867 C2875 1.433 . S
C2868 H2864 0.929 . S
C2868 C2870 1.378 . S
C2868 C2872 1.350 . S
C2869 C2872 1.463 . S
C2869 C2874 1.350 1_554 S
C2869 N2877 1.427 . S
C2870 H2861 0.930 . S
C2870 C2868 1.378 . S
C2870 C2871 1.367 . S
C2871 C2870 1.367 . S
C2871 C2873 1.433 1_554 S
C2872 C2868 1.350 . S
C2872 C2869 1.463 . S
C2872 N2876 1.427 1_554 S
C2873 H2863 0.929 . S
C2873 C2871 1.433 1_556 S
C2873 N2876 1.384 . S
C2874 H2865 0.929 . S
C2874 C2866 1.378 . S
C2874 C2869 1.350 1_556 S
C2875 H2862 0.929 . S
C2875 C2867 1.433 . S
C2875 N2877 1.384 . S
N2876 C2872 1.427 1_556 S
N2876 C2873 1.384 . S
N2877 C2869 1.427 . S
N2877 C2875 1.384 . S
H2878 C2884 0.930 . S
H2879 C2888 0.930 . S
H2880 C2893 0.929 . S
H2881 C2891 0.929 . S
H2882 C2886 0.929 . S
H2883 C2892 0.929 . S
C2884 H2878 0.930 . S
C2884 C2885 1.367 1_556 S
C2884 C2892 1.378 . S
C2885 C2884 1.367 1_554 S
C2885 C2893 1.433 . S
C2886 H2882 0.929 . S
C2886 C2888 1.378 . S
C2886 C2890 1.350 . S
C2887 C2890 1.463 . S
C2887 C2892 1.350 1_554 S
C2887 N2895 1.427 . S
C2888 H2879 0.930 . S
C2888 C2886 1.378 . S
C2888 C2889 1.367 . S
C2889 C2888 1.367 . S
C2889 C2891 1.433 1_554 S
C2890 C2886 1.350 . S
C2890 C2887 1.463 . S
C2890 N2894 1.427 1_554 S
C2891 H2881 0.929 . S
C2891 C2889 1.433 1_556 S
C2891 N2894 1.384 . S
C2892 H2883 0.929 . S
C2892 C2884 1.378 . S
C2892 C2887 1.350 1_556 S
C2893 H2880 0.929 . S
C2893 C2885 1.433 . S
C2893 N2895 1.384 . S
N2894 C2890 1.427 1_556 S
N2894 C2891 1.384 . S
N2895 C2887 1.427 . S
N2895 C2893 1.384 . S
H2896 C2902 0.930 . S
H2897 C2906 0.930 . S
H2898 C2911 0.929 . S
H2899 C2909 0.929 . S
H2900 C2904 0.929 . S
H2901 C2910 0.929 . S
C2902 H2896 0.930 . S
C2902 C2903 1.367 . S
C2902 C2910 1.378 . S
C2903 C2902 1.367 . S
C2903 C2911 1.433 . S
C2904 H2900 0.929 . S
C2904 C2906 1.378 . S
C2904 C2908 1.350 . S
C2905 C2908 1.463 . S
C2905 C2910 1.350 . S
C2905 N2913 1.427 . S
C2906 H2897 0.930 . S
C2906 C2904 1.378 . S
C2906 C2907 1.367 . S
C2907 C2906 1.367 . S
C2907 C2909 1.433 . S
C2908 C2904 1.350 . S
C2908 C2905 1.463 . S
C2908 N2912 1.427 . S
C2909 H2899 0.929 . S
C2909 C2907 1.433 . S
C2909 N2912 1.384 . S
C2910 H2901 0.929 . S
C2910 C2902 1.378 . S
C2910 C2905 1.350 . S
C2911 H2898 0.929 . S
C2911 C2903 1.433 . S
C2911 N2913 1.384 . S
N2912 C2908 1.427 . S
N2912 C2909 1.384 . S
N2913 C2905 1.427 . S
N2913 C2911 1.384 . S
H2914 C2920 0.930 . S
H2915 C2924 0.930 . S
H2916 C2929 0.929 . S
H2917 C2927 0.929 . S
H2918 C2922 0.929 . S
H2919 C2928 0.929 . S
C2920 H2914 0.930 . S
C2920 C2921 1.367 . S
C2920 C2928 1.378 . S
C2921 C2920 1.367 . S
C2921 C2929 1.433 . S
C2922 H2918 0.929 . S
C2922 C2924 1.378 . S
C2922 C2926 1.350 . S
C2923 C2926 1.463 . S
C2923 C2928 1.350 . S
C2923 N2931 1.427 . S
C2924 H2915 0.930 . S
C2924 C2922 1.378 . S
C2924 C2925 1.367 . S
C2925 C2924 1.367 . S
C2925 C2927 1.433 . S
C2926 C2922 1.350 . S
C2926 C2923 1.463 . S
C2926 N2930 1.427 . S
C2927 H2917 0.929 . S
C2927 C2925 1.433 . S
C2927 N2930 1.384 . S
C2928 H2919 0.929 . S
C2928 C2920 1.378 . S
C2928 C2923 1.350 . S
C2929 H2916 0.929 . S
C2929 C2921 1.433 . S
C2929 N2931 1.384 . S
N2930 C2926 1.427 . S
N2930 C2927 1.384 . S
N2931 C2923 1.427 . S
N2931 C2929 1.384 . S
H2932 C2938 0.930 . S
H2933 C2942 0.930 . S
H2934 C2947 0.929 . S
H2935 C2945 0.929 . S
H2936 C2940 0.929 . S
H2937 C2946 0.929 . S
C2938 H2932 0.930 . S
C2938 C2939 1.367 . S
C2938 C2946 1.378 . S
C2939 C2938 1.367 . S
C2939 C2947 1.433 . S
C2940 H2936 0.929 . S
C2940 C2942 1.378 . S
C2940 C2944 1.350 . S
C2941 C2944 1.463 . S
C2941 C2946 1.350 . S
C2941 N2949 1.427 . S
C2942 H2933 0.930 . S
C2942 C2940 1.378 . S
C2942 C2943 1.367 . S
C2943 C2942 1.367 . S
C2943 C2945 1.433 . S
C2944 C2940 1.350 . S
C2944 C2941 1.463 . S
C2944 N2948 1.427 . S
C2945 H2935 0.929 . S
C2945 C2943 1.433 . S
C2945 N2948 1.384 . S
C2946 H2937 0.929 . S
C2946 C2938 1.378 . S
C2946 C2941 1.350 . S
C2947 H2934 0.929 . S
C2947 C2939 1.433 . S
C2947 N2949 1.384 . S
N2948 C2944 1.427 . S
N2948 C2945 1.384 . S
N2949 C2941 1.427 . S
N2949 C2947 1.384 . S
H2950 C2956 0.930 . S
H2951 C2960 0.930 . S
H2952 C2965 0.929 . S
H2953 C2963 0.929 . S
H2954 C2958 0.929 . S
H2955 C2964 0.929 . S
C2956 H2950 0.930 . S
C2956 C2957 1.367 . S
C2956 C2964 1.378 . S
C2957 C2956 1.367 . S
C2957 C2965 1.433 . S
C2958 H2954 0.929 . S
C2958 C2960 1.378 . S
C2958 C2962 1.350 . S
C2959 C2962 1.463 . S
C2959 C2964 1.350 . S
C2959 N2967 1.427 . S
C2960 H2951 0.930 . S
C2960 C2958 1.378 . S
C2960 C2961 1.367 . S
C2961 C2960 1.367 . S
C2961 C2963 1.433 . S
C2962 C2958 1.350 . S
C2962 C2959 1.463 . S
C2962 N2966 1.427 . S
C2963 H2953 0.929 . S
C2963 C2961 1.433 . S
C2963 N2966 1.384 . S
C2964 H2955 0.929 . S
C2964 C2956 1.378 . S
C2964 C2959 1.350 . S
C2965 H2952 0.929 . S
C2965 C2957 1.433 . S
C2965 N2967 1.384 . S
N2966 C2962 1.427 . S
N2966 C2963 1.384 . S
N2967 C2959 1.427 . S
N2967 C2965 1.384 . S
H2968 C2974 0.930 . S
H2969 C2978 0.930 . S
H2970 C2983 0.929 . S
H2971 C2981 0.929 . S
H2972 C2976 0.929 . S
H2973 C2982 0.929 . S
C2974 H2968 0.930 . S
C2974 C2975 1.367 . S
C2974 C2982 1.378 . S
C2975 C2974 1.367 . S
C2975 C2983 1.433 . S
C2976 H2972 0.929 . S
C2976 C2978 1.378 . S
C2976 C2980 1.350 . S
C2977 C2980 1.463 . S
C2977 C2982 1.350 . S
C2977 N2985 1.427 . S
C2978 H2969 0.930 . S
C2978 C2976 1.378 . S
C2978 C2979 1.367 . S
C2979 C2978 1.367 . S
C2979 C2981 1.433 . S
C2980 C2976 1.350 . S
C2980 C2977 1.463 . S
C2980 N2984 1.427 . S
C2981 H2971 0.929 . S
C2981 C2979 1.433 . S
C2981 N2984 1.384 . S
C2982 H2973 0.929 . S
C2982 C2974 1.378 . S
C2982 C2977 1.350 . S
C2983 H2970 0.929 . S
C2983 C2975 1.433 . S
C2983 N2985 1.384 . S
N2984 C2980 1.427 . S
N2984 C2981 1.384 . S
N2985 C2977 1.427 . S
N2985 C2983 1.384 . S
H2986 C2992 0.930 . S
H2987 C2996 0.930 . S
H2988 C3001 0.929 . S
H2989 C2999 0.929 . S
H2990 C2994 0.929 . S
H2991 C3000 0.929 . S
C2992 H2986 0.930 . S
C2992 C2993 1.367 . S
C2992 C3000 1.378 . S
C2993 C2992 1.367 . S
C2993 C3001 1.433 . S
C2994 H2990 0.929 . S
C2994 C2996 1.378 . S
C2994 C2998 1.350 . S
C2995 C2998 1.463 . S
C2995 C3000 1.350 . S
C2995 N3003 1.427 . S
C2996 H2987 0.930 . S
C2996 C2994 1.378 . S
C2996 C2997 1.367 . S
C2997 C2996 1.367 . S
C2997 C2999 1.433 . S
C2998 C2994 1.350 . S
C2998 C2995 1.463 . S
C2998 N3002 1.427 . S
C2999 H2989 0.929 . S
C2999 C2997 1.433 . S
C2999 N3002 1.384 . S
C3000 H2991 0.929 . S
C3000 C2992 1.378 . S
C3000 C2995 1.350 . S
C3001 H2988 0.929 . S
C3001 C2993 1.433 . S
C3001 N3003 1.384 . S
N3002 C2998 1.427 . S
N3002 C2999 1.384 . S
N3003 C2995 1.427 . S
N3003 C3001 1.384 . S
H3004 C3010 0.930 . S
H3005 C3014 0.930 . S
H3006 C3019 0.929 . S
H3007 C3017 0.929 . S
H3008 C3012 0.929 . S
H3009 C3018 0.929 . S
C3010 H3004 0.930 . S
C3010 C3011 1.367 . S
C3010 C3018 1.378 . S
C3011 C3010 1.367 . S
C3011 C3019 1.433 . S
C3012 H3008 0.929 . S
C3012 C3014 1.378 . S
C3012 C3016 1.350 . S
C3013 C3016 1.463 . S
C3013 C3018 1.350 . S
C3013 N3021 1.427 . S
C3014 H3005 0.930 . S
C3014 C3012 1.378 . S
C3014 C3015 1.367 . S
C3015 C3014 1.367 . S
C3015 C3017 1.433 . S
C3016 C3012 1.350 . S
C3016 C3013 1.463 . S
C3016 N3020 1.427 . S
C3017 H3007 0.929 . S
C3017 C3015 1.433 . S
C3017 N3020 1.384 . S
C3018 H3009 0.929 . S
C3018 C3010 1.378 . S
C3018 C3013 1.350 . S
C3019 H3006 0.929 . S
C3019 C3011 1.433 . S
C3019 N3021 1.384 . S
N3020 C3016 1.427 . S
N3020 C3017 1.384 . S
N3021 C3013 1.427 . S
N3021 C3019 1.384 . S
H3022 C3028 0.930 . S
H3023 C3032 0.930 . S
H3024 C3037 0.929 . S
H3025 C3035 0.929 . S
H3026 C3030 0.929 . S
H3027 C3036 0.929 . S
C3028 H3022 0.930 . S
C3028 C3029 1.367 . S
C3028 C3036 1.378 . S
C3029 C3028 1.367 . S
C3029 C3037 1.433 . S
C3030 H3026 0.929 . S
C3030 C3032 1.378 . S
C3030 C3034 1.350 . S
C3031 C3034 1.463 . S
C3031 C3036 1.350 . S
C3031 N3039 1.427 . S
C3032 H3023 0.930 . S
C3032 C3030 1.378 . S
C3032 C3033 1.367 . S
C3033 C3032 1.367 . S
C3033 C3035 1.433 . S
C3034 C3030 1.350 . S
C3034 C3031 1.463 . S
C3034 N3038 1.427 . S
C3035 H3025 0.929 . S
C3035 C3033 1.433 . S
C3035 N3038 1.384 . S
C3036 H3027 0.929 . S
C3036 C3028 1.378 . S
C3036 C3031 1.350 . S
C3037 H3024 0.929 . S
C3037 C3029 1.433 . S
C3037 N3039 1.384 . S
N3038 C3034 1.427 . S
N3038 C3035 1.384 . S
N3039 C3031 1.427 . S
N3039 C3037 1.384 . S
C1895 C3 1.023 . S
C1899 C180 1.018 . S
C1913 C121 1.027 . S
C1917 C62 1.031 . S
C1931 C239 1.017 . S
C1935 C416 1.020 . S
C1949 C357 1.030 . S
C1953 C298 1.025 . S
C1967 C475 1.016 . S
C1971 C652 1.017 . S
C1985 C593 1.019 . S
C1989 C534 1.016 . S
C2003 C711 1.020 . S
C2007 C888 1.025 . S
C2021 C770 1.017 . S
C2025 C829 1.021 . S
C2039 C1124 1.021 . S
C2043 C947 1.027 . S
C2057 C1006 1.025 . S
C2061 C1065 1.020 . S
C2075 C1183 1.017 . S
C2079 C1360 1.016 . S
C2093 C1301 1.033 . S
C2097 C1242 1.030 . S
C2111 C1419 1.022 . S
C2115 C1596 1.018 . S
C2129 C1537 1.026 . S
C2133 C1478 1.030 . S
C2147 C1655 1.017 . S
C2151 C1832 1.016 . S
C2165 C1714 1.033 . S
C2169 C1773 1.030 . S
C2183 C713 1.577 . S
C2187 C5 1.577 . S
C2201 C64 1.573 . S
C2205 C1244 1.573 . S
C2219 C123 1.578 . S
C2223 C359 1.578 . S
C2237 C1834 1.575 . S
C2241 C182 1.575 . S
C2255 C241 1.575 . S
C2259 C477 1.575 . S
C2273 C1008 1.578 . S
C2277 C300 1.578 . S
C2291 C1598 1.573 . S
C2295 C418 1.573 . S
C2309 C1716 1.576 . S
C2313 C536 1.576 . S
C2327 C831 1.574 . S
C2331 C595 1.574 . S
C2345 C1362 1.578 . S
C2349 C654 1.578 . S
C2363 C772 1.573 . S
C2367 C1480 1.573 . S
C2381 C1126 1.577 . S
C2385 C890 1.577 . S
C2399 C1657 1.574 . S
C2403 C949 1.574 . S
C2417 C1303 1.573 . S
C2421 C1067 1.573 . S
C2435 C1421 1.578 . S
C2439 C1185 1.578 . S
C2453 C1539 1.573 . S
C2457 C1775 1.573 . S
C2471 C623 1.654 . S
C2475 C33 1.651 . S
C2489 C92 1.644 . S
C2493 C682 1.647 . S
C2507 C505 1.653 . S
C2511 C151 1.650 . S
C2525 C564 1.644 . S
C2529 C210 1.647 . S
C2543 C269 1.651 . S
C2547 C859 1.654 . S
C2561 C328 1.652 . S
C2565 C918 1.654 . S
C2579 C741 1.644 . S
C2583 C387 1.647 . S
C2597 C446 1.646 . S
C2601 C800 1.644 . S
C2615 C1567 1.644 . S
C2619 C977 1.647 . S
C2633 C1626 1.654 . S
C2637 C1036 1.651 . S
C2651 C1095 1.654 . S
C2655 C1449 1.651 . S
C2669 C1154 1.654 . S
C2673 C1508 1.652 . S
C2687 C1213 1.647 . S
C2691 C1803 1.644 . S
C2705 C1272 1.651 . S
C2709 C1862 1.654 . S
C2723 C1685 1.651 . S
C2727 C1331 1.654 . S
C2741 C1744 1.652 . S
C2745 C1390 1.654 . S
C2759 C52 1.645 . S
C2763 C1527 1.642 . S
C2777 C1468 1.646 . S
C2781 C111 1.642 1_655 S
C2795 C170 1.646 . S
C2799 C1645 1.642 . S
C2813 C229 1.644 1_655 S
C2817 C1586 1.642 . S
C2831 C288 1.646 . S
C2835 C1763 1.643 . S
C2849 C347 1.646 1_455 S
C2853 C1704 1.645 . S
C2867 C1881 1.642 . S
C2871 C406 1.644 . S
C2885 C1822 1.642 . S
C2889 C465 1.645 1_455 S
C2903 C1055 1.644 . S
C2907 C524 1.642 . S
C2921 C996 1.645 . S
C2925 C583 1.642 1_655 S
C2939 C642 1.642 . S
C2943 C1173 1.644 . S
C2957 C701 1.642 1_655 S
C2961 C1114 1.644 . S
C2975 C1291 1.646 . S
C2979 C760 1.646 . S
C2993 C819 1.646 1_455 S
C2997 C1232 1.645 . S
C3011 C878 1.646 . S
C3015 C1409 1.644 . S
C3029 C937 1.642 1_455 S
C3033 C1350 1.646 . S
