# Generated by pormake.
# Topology umz, (4)-cn, num edge types: 1
# Building blocks:
#     Node 0, Type 0, BuildingBlock: ICAMEG_clean_sbu_1, # of connection points: 4
#     Node 1, Type 0, BuildingBlock: ICAMEG_clean_sbu_1, # of connection points: 4
#     Node 2, Type 0, BuildingBlock: ICAMEG_clean_sbu_1, # of connection points: 4
#     Node 3, Type 0, BuildingBlock: ICAMEG_clean_sbu_1, # of connection points: 4
#     Node 4, Type 0, BuildingBlock: ICAMEG_clean_sbu_1, # of connection points: 4
#     Node 5, Type 0, BuildingBlock: ICAMEG_clean_sbu_1, # of connection points: 4
#     Node 6, Type 0, BuildingBlock: ICAMEG_clean_sbu_1, # of connection points: 4
#     Node 7, Type 0, BuildingBlock: ICAMEG_clean_sbu_1, # of connection points: 4
#     Node 8, Type 0, BuildingBlock: ICAMEG_clean_sbu_1, # of connection points: 4
#     Node 9, Type 0, BuildingBlock: ICAMEG_clean_sbu_1, # of connection points: 4
#     Node 10, Type 0, BuildingBlock: ICAMEG_clean_sbu_1, # of connection points: 4
#     Node 11, Type 0, BuildingBlock: ICAMEG_clean_sbu_1, # of connection points: 4
#     Node 12, Type 0, BuildingBlock: ICAMEG_clean_sbu_1, # of connection points: 4
#     Node 13, Type 0, BuildingBlock: ICAMEG_clean_sbu_1, # of connection points: 4
#     Node 14, Type 0, BuildingBlock: ICAMEG_clean_sbu_1, # of connection points: 4
#     Node 15, Type 0, BuildingBlock: ICAMEG_clean_sbu_1, # of connection points: 4
#     Edge 16, Type (0, 0), BuildingBlock: AJUNOK_clean_linker_0, # of connection points: 2
#     Edge 17, Type (0, 0), BuildingBlock: AJUNOK_clean_linker_0, # of connection points: 2
#     Edge 18, Type (0, 0), BuildingBlock: AJUNOK_clean_linker_0, # of connection points: 2
#     Edge 19, Type (0, 0), BuildingBlock: AJUNOK_clean_linker_0, # of connection points: 2
#     Edge 20, Type (0, 0), BuildingBlock: AJUNOK_clean_linker_0, # of connection points: 2
#     Edge 21, Type (0, 0), BuildingBlock: AJUNOK_clean_linker_0, # of connection points: 2
#     Edge 22, Type (0, 0), BuildingBlock: AJUNOK_clean_linker_0, # of connection points: 2
#     Edge 23, Type (0, 0), BuildingBlock: AJUNOK_clean_linker_0, # of connection points: 2
#     Edge 24, Type (0, 0), BuildingBlock: AJUNOK_clean_linker_0, # of connection points: 2
#     Edge 25, Type (0, 0), BuildingBlock: AJUNOK_clean_linker_0, # of connection points: 2
#     Edge 26, Type (0, 0), BuildingBlock: AJUNOK_clean_linker_0, # of connection points: 2
#     Edge 27, Type (0, 0), BuildingBlock: AJUNOK_clean_linker_0, # of connection points: 2
#     Edge 28, Type (0, 0), BuildingBlock: AJUNOK_clean_linker_0, # of connection points: 2
#     Edge 29, Type (0, 0), BuildingBlock: AJUNOK_clean_linker_0, # of connection points: 2
#     Edge 30, Type (0, 0), BuildingBlock: AJUNOK_clean_linker_0, # of connection points: 2
#     Edge 31, Type (0, 0), BuildingBlock: AJUNOK_clean_linker_0, # of connection points: 2
#     Edge 32, Type (0, 0), BuildingBlock: AJUNOK_clean_linker_0, # of connection points: 2
#     Edge 33, Type (0, 0), BuildingBlock: AJUNOK_clean_linker_0, # of connection points: 2
#     Edge 34, Type (0, 0), BuildingBlock: AJUNOK_clean_linker_0, # of connection points: 2
#     Edge 35, Type (0, 0), BuildingBlock: AJUNOK_clean_linker_0, # of connection points: 2
#     Edge 36, Type (0, 0), BuildingBlock: AJUNOK_clean_linker_0, # of connection points: 2
#     Edge 37, Type (0, 0), BuildingBlock: AJUNOK_clean_linker_0, # of connection points: 2
#     Edge 38, Type (0, 0), BuildingBlock: AJUNOK_clean_linker_0, # of connection points: 2
#     Edge 39, Type (0, 0), BuildingBlock: AJUNOK_clean_linker_0, # of connection points: 2
#     Edge 40, Type (0, 0), BuildingBlock: AJUNOK_clean_linker_0, # of connection points: 2
#     Edge 41, Type (0, 0), BuildingBlock: AJUNOK_clean_linker_0, # of connection points: 2
#     Edge 42, Type (0, 0), BuildingBlock: AJUNOK_clean_linker_0, # of connection points: 2
#     Edge 43, Type (0, 0), BuildingBlock: AJUNOK_clean_linker_0, # of connection points: 2
#     Edge 44, Type (0, 0), BuildingBlock: AJUNOK_clean_linker_0, # of connection points: 2
#     Edge 45, Type (0, 0), BuildingBlock: AJUNOK_clean_linker_0, # of connection points: 2
#     Edge 46, Type (0, 0), BuildingBlock: AJUNOK_clean_linker_0, # of connection points: 2
#     Edge 47, Type (0, 0), BuildingBlock: AJUNOK_clean_linker_0, # of connection points: 2
# Relax obj value: 0.207
# Max RMSD: 0.192
# Mean RMSD: 0.170
data_MOF--net-umz--node1-ICAMEG_clean_sbu_1--edge1-AJUNOK_clean_linker_0
_symmetry_space_group_name_H-M    P1
_symmetry_Int_Tables_number       1
_symmetry_cell_setting            triclinic
loop_
_symmetry_equiv_pos_as_xyz
'x, y, z'
_cell_length_a     45.485217
_cell_length_b     45.652849
_cell_length_c     18.118319
_cell_angle_alpha  89.555913
_cell_angle_beta   90.403131
_cell_angle_gamma 89.650454
loop_
_atom_site_label
_atom_site_type_symbol
_atom_site_fract_x
_atom_site_fract_y
_atom_site_fract_z
_atom_type_partial_charge
Co0 Co 0.98692 0.57904 0.99432 0.0
Co1 Co 0.01083 0.6349 0.10762 0.0
O2 O 0.00446 0.6177 0.00983 0.0
C3 C 0.04014 0.57808 0.89615 0.0
O4 O 0.05501 0.59163 0.9479 0.0
C5 C 0.97578 0.68164 0.03011 0.0
O6 O 0.956 0.66241 0.00988 0.0
O7 O 0.96996 0.62562 0.13973 0.0
O8 O 0.95904 0.58503 0.07729 0.0
H9 H 0.00895 0.63487 0.38491 0.0
H10 H 0.99286 0.62144 0.87118 0.0
O11 O 0.01347 0.57103 0.90757 0.0
H12 H 0.88645 0.60313 0.88802 0.0
H13 H 0.93304 0.50262 0.84882 0.0
H14 H 0.97104 0.52993 0.09379 0.0
H15 H 0.92139 0.57733 0.97047 0.0
H16 H 0.96344 0.54676 0.86354 0.0
O17 O 0.99754 0.67385 0.07018 0.0
H18 H 0.00095 0.61442 0.26107 0.0
H19 H 0.03536 0.69151 0.16262 0.0
H20 H 0.94271 0.4845 0.08018 0.0
H21 H 0.95886 0.64734 0.78645 0.0
H22 H 0.92349 0.47049 0.95701 0.0
H23 H 0.90519 0.6386 0.7952 0.0
O24 O 0.01609 0.5603 0.06599 0.0
H25 H 0.08719 0.67353 0.93372 0.0
H26 H 0.07013 0.62864 0.17799 0.0
H27 H 0.12072 0.6406 0.1405 0.0
H28 H 0.12951 0.66314 0.01749 0.0
H29 H 0.03698 0.66128 0.97347 0.0
H30 H 0.04335 0.71302 0.28538 0.0
H31 H 0.03024 0.68458 0.39774 0.0
O32 O 0.02497 0.59672 0.14655 0.0
C33 C 0.95343 0.60376 0.12693 0.0
C34 C 0.01471 0.64753 0.3364 0.0
C35 C 0.03394 0.6914 0.28052 0.0
N36 N 0.01744 0.65185 0.20439 0.0
C37 C 0.01024 0.63605 0.26602 0.0
C38 C 0.02916 0.6792 0.21103 0.0
C39 C 0.02663 0.67541 0.34355 0.0
C40 C 0.96958 0.61719 0.87493 0.0
N41 N 0.95913 0.59796 0.92656 0.0
C42 C 0.95041 0.63204 0.82688 0.0
C43 C 0.9203 0.62712 0.8318 0.0
C44 C 0.90978 0.60735 0.88409 0.0
C45 C 0.92962 0.59298 0.93134 0.0
C46 C 0.94211 0.50796 0.90234 0.0
C47 C 0.96362 0.52356 0.03947 0.0
C48 C 0.95922 0.53301 0.9111 0.0
N49 N 0.96892 0.54105 0.97947 0.0
C50 C 0.94744 0.49784 0.03226 0.0
C51 C 0.93651 0.49009 0.9632 0.0
C52 C 0.02732 0.57027 0.12602 0.0
C53 C 0.08366 0.66367 0.98742 0.0
C54 C 0.07379 0.63838 0.12429 0.0
C55 C 0.10248 0.64515 0.10342 0.0
C56 C 0.10739 0.65783 0.03443 0.0
N57 N 0.05063 0.6442 0.07793 0.0
C58 C 0.05528 0.6567 0.01027 0.0
Co59 Co 0.90371 0.99107 0.52841 0.0
Co60 Co 0.84233 0.01053 0.63183 0.0
O61 O 0.86216 0.00294 0.53692 0.0
C62 C 0.89628 0.03448 0.39737 0.0
O63 O 0.86771 0.03725 0.40427 0.0
C64 C 0.80482 0.96316 0.56705 0.0
O65 O 0.82776 0.95049 0.53714 0.0
O66 O 0.86044 0.97494 0.68033 0.0
O67 O 0.89883 0.96253 0.6103 0.0
H68 H 0.83848 0.02471 0.90654 0.0
H69 H 0.85968 0.98611 0.4033 0.0
O70 O 0.91148 0.0193 0.44354 0.0
H71 H 0.90616 0.88891 0.42517 0.0
H72 H 0.99601 0.96257 0.39457 0.0
H73 H 0.95055 0.9777 0.6376 0.0
H74 H 0.91999 0.92828 0.51014 0.0
H75 H 0.94445 0.97858 0.40346 0.0
O76 O 0.80745 0.98684 0.6027 0.0
H77 H 0.86241 0.015 0.78759 0.0
H78 H 0.78032 0.02369 0.67586 0.0
H79 H 0.0019 0.96155 0.63131 0.0
H80 H 0.84578 0.94775 0.31643 0.0
H81 H 0.02522 0.9537 0.50915 0.0
H82 H 0.86902 0.89854 0.32672 0.0
O83 O 0.91653 0.02202 0.6016 0.0
H84 H 0.78901 0.06495 0.42889 0.0
H85 H 0.83275 0.07252 0.67755 0.0
H86 H 0.81037 0.11633 0.61916 0.0
H87 H 0.78814 0.11265 0.49393 0.0
H88 H 0.81215 0.02188 0.48904 0.0
H89 H 0.75548 0.03305 0.79379 0.0
H90 H 0.7846 0.03373 0.91026 0.0
O91 O 0.87602 0.03469 0.66462 0.0
C92 C 0.88234 0.9584 0.66564 0.0
C93 C 0.82554 0.02448 0.85618 0.0
C94 C 0.77896 0.0291 0.79292 0.0
N95 N 0.82283 0.01861 0.72469 0.0
C96 C 0.83898 0.01904 0.78855 0.0
C97 C 0.79315 0.02361 0.7263 0.0
C98 C 0.79531 0.02951 0.85823 0.0
C99 C 0.87084 0.96541 0.40702 0.0
N100 N 0.8919 0.96033 0.45984 0.0
C101 C 0.86244 0.94343 0.35813 0.0
C102 C 0.87538 0.9158 0.36411 0.0
C103 C 0.89619 0.91039 0.4193 0.0
C104 C 0.90399 0.9329 0.46725 0.0
C105 C 0.98614 0.96544 0.44818 0.0
C106 C 0.96035 0.97416 0.58422 0.0
C107 C 0.95702 0.97489 0.45355 0.0
N108 N 0.94445 0.97896 0.52107 0.0
C109 C 0.98949 0.96479 0.58095 0.0
C110 C 0.00246 0.96041 0.51245 0.0
C111 C 0.90336 0.03687 0.6515 0.0
C112 C 0.79876 0.06688 0.4833 0.0
C113 C 0.82373 0.07096 0.62254 0.0
C114 C 0.8108 0.09574 0.58999 0.0
C115 C 0.79828 0.09364 0.51981 0.0
N116 N 0.82429 0.04485 0.58624 0.0
C117 C 0.8119 0.04258 0.51762 0.0
Co118 Co 0.5094 0.91366 0.03049 0.0
Co119 Co 0.49247 0.84809 0.11981 0.0
O120 O 0.49836 0.87208 0.03024 0.0
C121 C 0.464 0.90927 0.90623 0.0
O122 O 0.45667 0.88285 0.9278 0.0
C123 C 0.53836 0.81291 0.04133 0.0
O124 O 0.55272 0.83668 0.02281 0.0
O125 O 0.52961 0.86271 0.16755 0.0
O126 O 0.53762 0.90578 0.11177 0.0
H127 H 0.48427 0.83092 0.39326 0.0
H128 H 0.5131 0.87661 0.8953 0.0
O129 O 0.48226 0.92403 0.94448 0.0
H130 H 0.61313 0.9144 0.93449 0.0
H131 H 0.54455 0.00797 0.91706 0.0
H132 H 0.5231 0.95575 0.14926 0.0
H133 H 0.57281 0.92927 0.0161 0.0
H134 H 0.52259 0.95888 0.91491 0.0
O135 O 0.51461 0.8145 0.07753 0.0
H136 H 0.49246 0.86015 0.28052 0.0
H137 H 0.47816 0.78509 0.14812 0.0
H138 H 0.54772 0.00335 0.15322 0.0
H139 H 0.55261 0.86165 0.81168 0.0
H140 H 0.55816 0.03024 0.03658 0.0
H141 H 0.60328 0.87988 0.83235 0.0
O142 O 0.47777 0.92332 0.10609 0.0
H143 H 0.43371 0.80612 0.9105 0.0
H144 H 0.43061 0.83753 0.16949 0.0
H145 H 0.3854 0.81954 0.11019 0.0
H146 H 0.38679 0.80354 0.97951 0.0
H147 H 0.47815 0.82499 0.97192 0.0
H148 H 0.47016 0.75498 0.25956 0.0
H149 H 0.47306 0.7779 0.38328 0.0
O150 O 0.47 0.8806 0.16548 0.0
C151 C 0.54429 0.88625 0.15929 0.0
C152 C 0.48296 0.82066 0.33969 0.0
C153 C 0.47509 0.77805 0.26466 0.0
N154 N 0.48592 0.82438 0.20767 0.0
C155 C 0.48756 0.83711 0.27557 0.0
C156 C 0.47981 0.7952 0.20172 0.0
C157 C 0.47669 0.79092 0.33405 0.0
C158 C 0.53474 0.88553 0.90346 0.0
N159 N 0.54035 0.90415 0.96054 0.0
C160 C 0.55717 0.87671 0.85611 0.0
C161 C 0.58558 0.88699 0.86754 0.0
C162 C 0.59115 0.90621 0.92517 0.0
C163 C 0.56819 0.91451 0.97142 0.0
C164 C 0.5395 0.99683 0.96816 0.0
C165 C 0.52747 0.96719 0.09809 0.0
C166 C 0.52663 0.96916 0.96737 0.0
N167 N 0.52137 0.95441 0.03185 0.0
C168 C 0.5411 0.99442 0.10081 0.0
C169 C 0.54715 0.00932 0.03537 0.0
C170 C 0.46577 0.90807 0.15787 0.0
C171 C 0.43273 0.81324 0.96727 0.0
C172 C 0.43117 0.83153 0.11238 0.0
C173 C 0.40561 0.82091 0.07917 0.0
C174 C 0.40642 0.81183 1.00598 0.0
N175 N 0.4568 0.83328 0.0739 0.0
C176 C 0.45785 0.82396 1.00243 0.0
Co177 Co 0.58785 0.51035 0.52768 0.0
Co178 Co 0.65118 0.48974 0.62389 0.0
O179 O 0.62852 0.49519 0.53129 0.0
C180 C 0.5902 0.46348 0.40912 0.0
O181 O 0.61705 0.45609 0.42868 0.0
C182 C 0.69009 0.52881 0.53591 0.0
O183 O 0.66751 0.54566 0.51903 0.0
O184 O 0.64025 0.52955 0.66061 0.0
O185 O 0.59691 0.53857 0.60661 0.0
H186 H 0.68464 0.43491 0.85222 0.0
H187 H 0.6261 0.50964 0.39369 0.0
O188 O 0.57613 0.48321 0.44423 0.0
H189 H 0.59597 0.61261 0.42316 0.0
H190 H 0.49785 0.55671 0.41138 0.0
H191 H 0.5463 0.52751 0.64397 0.0
H192 H 0.57739 0.57459 0.50724 0.0
H193 H 0.54443 0.52823 0.40981 0.0
O194 O 0.68682 0.50596 0.5755 0.0
H195 H 0.65716 0.44152 0.73546 0.0
H196 H 0.69396 0.52597 0.70638 0.0
H197 H 0.49925 0.5539 0.64733 0.0
H198 H 0.64453 0.54678 0.3073 0.0
H199 H 0.47475 0.56897 0.52985 0.0
H200 H 0.63028 0.59892 0.32318 0.0
O201 O 0.57544 0.48043 0.60473 0.0
H202 H 0.72338 0.40905 0.56735 0.0
H203 H 0.61878 0.43764 0.56639 0.0
H204 H 0.63292 0.38847 0.52479 0.0
H205 H 0.6856 0.37384 0.52467 0.0
H206 H 0.70824 0.45792 0.60982 0.0
H207 H 0.72219 0.5202 0.8223 0.0
H208 H 0.71753 0.47445 0.8963 0.0
O209 O 0.61619 0.47324 0.67463 0.0
C210 C 0.61722 0.54516 0.65154 0.0
C211 C 0.68679 0.455 0.82063 0.0
C212 C 0.70791 0.50282 0.80374 0.0
N213 N 0.67372 0.48417 0.71439 0.0
C214 C 0.67111 0.45891 0.7547 0.0
C215 C 0.69191 0.50594 0.73805 0.0
C216 C 0.70526 0.47717 0.84527 0.0
C217 C 0.61879 0.53194 0.39966 0.0
N218 N 0.60027 0.53963 0.4555 0.0
C219 C 0.62961 0.55303 0.3508 0.0
C220 C 0.62157 0.58226 0.35956 0.0
C221 C 0.60248 0.58998 0.41595 0.0
C222 C 0.59208 0.5683 0.46366 0.0
C223 C 0.50775 0.54899 0.46222 0.0
C224 C 0.53523 0.53267 0.59257 0.0
C225 C 0.53412 0.53309 0.46187 0.0
N226 N 0.54798 0.52592 0.5267 0.0
C227 C 0.50857 0.54785 0.59488 0.0
C228 C 0.4949 0.55628 0.52912 0.0
C229 C 0.5888 0.46971 0.66185 0.0
C230 C 0.70036 0.41518 0.56693 0.0
C231 C 0.64169 0.43153 0.56737 0.0
C232 C 0.6496 0.4036 0.54333 0.0
C233 C 0.67915 0.39542 0.54314 0.0
N234 N 0.66257 0.45089 0.59039 0.0
C235 C 0.69162 0.44294 0.59049 0.0
Co236 Co 0.98986 0.91838 0.99664 0.0
Co237 Co 0.00523 0.85668 0.89454 0.0
O238 O 0.00203 0.8775 0.98863 0.0
C239 C 0.03411 0.90965 0.12342 0.0
O240 O 0.03535 0.88118 0.11533 0.0
C241 C 0.97081 0.8027 0.92478 0.0
O242 O 0.95377 0.80919 0.86808 0.0
O243 O 0.96419 0.86847 0.86465 0.0
O244 O 0.95999 0.91277 0.91657 0.0
H245 H 0.99722 0.84448 0.61944 0.0
H246 H 0.98451 0.8715 0.11518 0.0
O247 O 0.01911 0.92594 0.07925 0.0
H248 H 0.89044 0.92496 0.11885 0.0
H249 H 0.95889 0.01024 0.12821 0.0
H250 H 0.97243 0.9635 0.88636 0.0
H251 H 0.92832 0.93831 0.02955 0.0
H252 H 0.98086 0.96096 0.12013 0.0
O253 O 0.99062 0.82057 0.94544 0.0
H254 H 0.99307 0.87081 0.73715 0.0
H255 H 0.02702 0.79698 0.85363 0.0
H256 H 0.94821 0.01159 0.89283 0.0
H257 H 0.94763 0.85807 0.20631 0.0
H258 H 0.94175 0.03569 0.01357 0.0
H259 H 0.9 0.88481 0.2092 0.0
O260 O 0.0207 0.93013 0.92161 0.0
H261 H 0.08466 0.82119 0.06853 0.0
H262 H 0.06304 0.85817 0.81747 0.0
H263 H 0.11417 0.84621 0.85265 0.0
H264 H 0.12526 0.82745 0.97892 0.0
H265 H 0.03384 0.83356 0.03108 0.0
H266 H 0.03154 0.76972 0.7374 0.0
H267 H 0.01653 0.79346 0.61908 0.0
O268 O 0.02032 0.89204 0.84367 0.0
C269 C 0.95073 0.89286 0.87343 0.0
C270 C 0.00356 0.83377 0.67067 0.0
C271 C 0.02283 0.79184 0.73686 0.0
N272 N 0.00896 0.83525 0.80254 0.0
C273 C 0.00106 0.84855 0.73756 0.0
C274 C 0.02004 0.80733 0.80263 0.0
C275 C 0.01443 0.80518 0.6705 0.0
C276 C 0.96459 0.88412 0.11661 0.0
N277 N 0.95974 0.90689 0.06836 0.0
C278 C 0.94338 0.87599 0.16818 0.0
C279 C 0.91664 0.8909 0.16962 0.0
C280 C 0.91128 0.91339 0.11901 0.0
C281 C 0.93302 0.92088 0.06829 0.0
C282 C 0.96172 0.00011 0.07492 0.0
C283 C 0.96949 0.97359 0.93958 0.0
C284 C 0.97463 0.97238 0.06988 0.0
N285 N 0.97769 0.95915 1.00281 0.0
C286 C 0.95605 0.00106 0.94272 0.0
C287 C 0.95216 0.01439 0.01078 0.0
C288 C 0.02811 0.9178 0.86097 0.0
C289 C 0.08011 0.82923 0.01325 0.0
C290 C 0.06764 0.85002 0.87255 0.0
C291 C 0.09666 0.84327 0.89213 0.0
C292 C 0.10287 0.83277 0.96297 0.0
N293 N 0.04535 0.84624 0.92197 0.0
C294 C 0.05136 0.83622 0.99169 0.0
Co295 Co 0.58132 0.98174 0.50006 0.0
Co296 Co 0.6458 0.00134 0.40916 0.0
O297 O 0.62271 0.99444 0.49966 0.0
C298 C 0.5822 0.0323 0.60839 0.0
O299 O 0.60487 0.04382 0.57475 0.0
C300 C 0.68371 0.9578 0.49149 0.0
O301 O 0.66071 0.94436 0.51852 0.0
O302 O 0.63201 0.96395 0.36329 0.0
O303 O 0.59011 0.95293 0.42159 0.0
H304 H 0.66059 0.00932 0.13503 0.0
H305 H 0.61802 0.98201 0.6362 0.0
O306 O 0.57043 0.00923 0.58275 0.0
H307 H 0.58377 0.8803 0.61156 0.0
H308 H 0.48595 0.94965 0.6142 0.0
H309 H 0.53953 0.96459 0.38211 0.0
H310 H 0.56725 0.91853 0.52363 0.0
H311 H 0.53617 0.96924 0.61594 0.0
O312 O 0.68084 0.9804 0.45077 0.0
H313 H 0.63246 0.00026 0.24861 0.0
H314 H 0.70795 0.01856 0.37934 0.0
H315 H 0.48943 0.94476 0.37833 0.0
H316 H 0.63476 0.94463 0.72616 0.0
H317 H 0.46219 0.93708 0.49534 0.0
H318 H 0.61832 0.89317 0.71267 0.0
O319 O 0.57019 0.01214 0.42225 0.0
H320 H 0.68842 0.06243 0.61245 0.0
H321 H 0.65002 0.06347 0.35732 0.0
H322 H 0.6667 0.1096 0.41333 0.0
H323 H 0.68617 0.10924 0.54177 0.0
H324 H 0.67105 0.01691 0.5546 0.0
H325 H 0.73694 0.02759 0.26714 0.0
H326 H 0.71325 0.02307 0.14383 0.0
O327 O 0.61224 0.0226 0.36338 0.0
C328 C 0.60963 0.94768 0.37354 0.0
C329 C 0.67117 0.01135 0.18842 0.0
C330 C 0.71402 0.02157 0.26256 0.0
N331 N 0.66851 0.00879 0.32063 0.0
C332 C 0.65534 0.00625 0.25298 0.0
C333 C 0.6975 0.01631 0.32594 0.0
C334 C 0.70071 0.01905 0.19341 0.0
C335 C 0.61028 0.95981 0.6308 0.0
N336 N 0.59201 0.95238 0.57383 0.0
C337 C 0.61992 0.9387 0.68184 0.0
C338 C 0.6106 0.90986 0.67448 0.0
C339 C 0.59139 0.90258 0.61739 0.0
C340 C 0.58227 0.92426 0.56738 0.0
C341 C 0.49732 0.95343 0.56305 0.0
C342 C 0.52774 0.96179 0.43319 0.0
C343 C 0.52578 0.9647 0.56355 0.0
N344 N 0.54076 0.96852 0.49909 0.0
C345 C 0.4993 0.95055 0.43064 0.0
C346 C 0.48405 0.94628 0.49617 0.0
C347 C 0.58462 0.02527 0.37109 0.0
C348 C 0.67998 0.06288 0.55644 0.0
C349 C 0.65813 0.06321 0.41345 0.0
C350 C 0.66771 0.08936 0.44477 0.0
C351 C 0.67868 0.08914 0.51679 0.0
N352 N 0.65943 0.03755 0.4527 0.0
C353 C 0.67021 0.03716 0.5233 0.0
Co354 Co 0.51927 0.58058 0.97782 0.0
Co355 Co 0.50433 0.64902 0.89959 0.0
O356 O 0.50918 0.62235 0.98496 0.0
C357 C 0.47006 0.58347 0.0904 0.0
O358 O 0.46002 0.60814 0.06223 0.0
C359 C 0.54715 0.6963 0.92626 0.0
O360 O 0.55791 0.69041 0.86094 0.0
O361 O 0.54153 0.63465 0.85301 0.0
O362 O 0.54921 0.59014 0.9026 0.0
H363 H 0.50235 0.67625 0.63014 0.0
H364 H 0.52151 0.61326 0.11944 0.0
O365 O 0.49069 0.56947 0.0584 0.0
H366 H 0.61946 0.56778 0.09477 0.0
H367 H 0.54859 0.48035 0.07248 0.0
H368 H 0.53601 0.54308 0.85216 0.0
H369 H 0.58119 0.55996 1.00045 0.0
H370 H 0.5264 0.52934 0.08256 0.0
O371 O 0.52699 0.6801 0.95321 0.0
H372 H 0.50906 0.64317 0.73721 0.0
H373 H 0.48717 0.71222 0.88302 0.0
H374 H 0.56202 0.49616 0.84199 0.0
H375 H 0.55898 0.62124 0.21579 0.0
H376 H 0.56827 0.46415 0.95262 0.0
H377 H 0.60852 0.59875 0.20311 0.0
O378 O 0.48856 0.57448 0.89758 0.0
H379 H 0.44371 0.6888 0.10735 0.0
H380 H 0.44221 0.6577 0.84761 0.0
H381 H 0.39643 0.67513 0.90476 0.0
H382 H 0.39702 0.69104 0.03556 0.0
H383 H 0.48883 0.67054 0.04835 0.0
H384 H 0.48025 0.74606 0.77758 0.0
H385 H 0.48784 0.72812 0.64998 0.0
O386 O 0.48202 0.61869 0.84435 0.0
C387 C 0.55641 0.61101 0.85985 0.0
C388 C 0.49905 0.68435 0.68547 0.0
C389 C 0.48659 0.72351 0.76819 0.0
N390 N 0.49865 0.67571 0.81635 0.0
C391 C 0.5029 0.66573 0.74633 0.0
C392 C 0.49054 0.70423 0.82769 0.0
C393 C 0.49087 0.71344 0.69663 0.0
C394 C 0.54287 0.60312 0.11377 0.0
N395 N 0.54908 0.58619 0.05388 0.0
C396 C 0.56404 0.60778 0.16856 0.0
C397 C 0.59181 0.59511 0.16161 0.0
C398 C 0.598 0.57783 0.10064 0.0
C399 C 0.57627 0.57362 0.04708 0.0
C400 C 0.54576 0.494 0.02401 0.0
C401 C 0.53872 0.52954 0.90095 0.0
C402 C 0.53267 0.52164 0.02916 0.0
N403 N 0.53014 0.53947 0.96849 0.0
C404 C 0.55306 0.50264 0.8944 0.0
C405 C 0.55669 0.48482 0.95649 0.0
C406 C 0.4773 0.59121 0.84727 0.0
C407 C 0.44316 0.68196 0.05029 0.0
C408 C 0.44258 0.66408 0.90469 0.0
C409 C 0.41662 0.67418 0.93671 0.0
C410 C 0.41697 0.68316 0.01003 0.0
N411 N 0.4682 0.66297 0.94445 0.0
C412 C 0.46869 0.67173 0.01642 0.0
Co413 Co 0.92244 0.52039 0.48961 0.0
Co414 Co 0.85961 0.49246 0.40701 0.0
O415 O 0.88292 0.50409 0.49307 0.0
C416 C 0.92561 0.47132 0.60308 0.0
O417 O 0.90482 0.45737 0.56749 0.0
C418 C 0.80735 0.5316 0.41634 0.0
O419 O 0.81276 0.54017 0.34844 0.0
O420 O 0.87102 0.52834 0.34912 0.0
O421 O 0.91056 0.54636 0.40697 0.0
H422 H 0.84185 0.47009 0.13899 0.0
H423 H 0.88985 0.51907 0.63142 0.0
O424 O 0.93593 0.49508 0.57611 0.0
H425 H 0.90897 0.62352 0.58212 0.0
H426 H 0.00986 0.57318 0.59424 0.0
H427 H 0.96266 0.53646 0.36814 0.0
H428 H 0.92608 0.58578 0.49568 0.0
H429 H 0.96487 0.54356 0.60153 0.0
O430 O 0.82489 0.51371 0.44892 0.0
H431 H 0.87093 0.48567 0.24673 0.0
H432 H 0.79802 0.47097 0.38708 0.0
H433 H 0.00758 0.56606 0.35887 0.0
H434 H 0.87292 0.55604 0.71998 0.0
H435 H 0.03199 0.58392 0.47246 0.0
H436 H 0.88218 0.60871 0.69524 0.0
O437 O 0.93569 0.48998 0.41538 0.0
H438 H 0.82386 0.43751 0.63025 0.0
H439 H 0.85689 0.42871 0.37296 0.0
H440 H 0.8438 0.38416 0.44282 0.0
H441 H 0.827 0.38843 0.57248 0.0
H442 H 0.83785 0.48135 0.5587 0.0
H443 H 0.76806 0.45537 0.28071 0.0
H444 H 0.78994 0.4549 0.15549 0.0
O445 O 0.89417 0.4716 0.36533 0.0
C446 C 0.89138 0.54732 0.35581 0.0
C447 C 0.83197 0.47042 0.19315 0.0
C448 C 0.79057 0.46218 0.27268 0.0
N449 N 0.83603 0.48 0.32297 0.0
C450 C 0.84832 0.47936 0.2544 0.0
C451 C 0.80761 0.47121 0.33265 0.0
C452 C 0.80287 0.46188 0.20247 0.0
C453 C 0.89447 0.54186 0.62072 0.0
N454 N 0.90935 0.55011 0.55872 0.0
C455 C 0.88464 0.56274 0.67094 0.0
C456 C 0.88985 0.5923 0.65707 0.0
C457 C 0.9048 0.60062 0.59348 0.0
C458 C 0.91432 0.57912 0.54452 0.0
C459 C 1.00029 0.56418 0.54469 0.0
C460 C 0.97342 0.5436 0.41815 0.0
C461 C 0.97483 0.54729 0.54846 0.0
N462 N 0.96134 0.53775 0.48553 0.0
C463 C 0.99892 0.56033 0.41242 0.0
C464 C 0.01247 0.57056 0.4762 0.0
C465 C 0.92214 0.47328 0.3696 0.0
C466 C 0.83122 0.43534 0.57386 0.0
C467 C 0.85022 0.43064 0.42965 0.0
C468 C 0.84253 0.40539 0.4688 0.0
C469 C 0.83303 0.40781 0.54147 0.0
N470 N 0.84858 0.45754 0.46187 0.0
C471 C 0.83908 0.4601 0.53296 0.0
Co472 Co 0.02395 0.42094 0.99381 0.0
Co473 Co 0.99645 0.3572 0.91651 0.0
O474 O 0.0078 0.38142 1.00089 0.0
C475 C 0.9741 0.42604 0.10076 0.0
O476 O 0.95934 0.40738 0.06035 0.0
C477 C 0.03468 0.30512 0.9351 0.0
O478 O 0.04373 0.30991 0.8674 0.0
O479 O 0.03344 0.36686 0.8623 0.0
O480 O 0.05012 0.4083 0.91278 0.0
H481 H 0.98031 0.33494 0.64798 0.0
H482 H 0.0243 0.38714 0.13495 0.0
O483 O 0.99911 0.43486 0.07899 0.0
H484 H 0.12802 0.41122 0.08721 0.0
H485 H 0.07105 0.51162 0.0933 0.0
H486 H 0.04254 0.45873 0.86912 0.0
H487 H 0.08874 0.42949 1.00455 0.0
H488 H 0.04314 0.46593 0.10265 0.0
O489 O 0.01647 0.32279 0.96472 0.0
H490 H 0.99502 0.36525 0.75387 0.0
H491 H 0.97195 0.29686 0.90237 0.0
H492 H 0.06828 0.50564 0.85746 0.0
H493 H 0.0629 0.36866 0.21992 0.0
H494 H 0.08303 0.53252 0.97079 0.0
H495 H 0.11535 0.38004 0.19465 0.0
O496 O 0.99272 0.43297 0.91861 0.0
H497 H 0.93737 0.32647 0.13703 0.0
H498 H 0.93266 0.35788 0.8762 0.0
H499 H 0.88671 0.34768 0.94284 0.0
H500 H 0.8889 0.33179 0.07422 0.0
H501 H 0.98271 0.33739 0.06865 0.0
H502 H 0.95706 0.26575 0.79805 0.0
H503 H 0.9612 0.28477 0.66974 0.0
O504 O 0.97674 0.39106 0.8675 0.0
C505 C 0.05218 0.38745 0.86708 0.0
C506 C 0.97847 0.32637 0.70361 0.0
C507 C 0.96541 0.28755 0.78783 0.0
N508 N 0.98457 0.33279 0.83421 0.0
C509 C 0.98681 0.34343 0.7638 0.0
C510 C 0.97393 0.30525 0.84667 0.0
C511 C 0.96774 0.29823 0.71586 0.0
C512 C 0.04698 0.39259 0.12447 0.0
N513 N 0.05428 0.40906 0.06411 0.0
C514 C 0.06876 0.382 0.17268 0.0
C515 C 0.09813 0.38847 0.15879 0.0
C516 C 0.10532 0.40582 0.09816 0.0
C517 C 0.08299 0.41596 0.05123 0.0
C518 C 0.06361 0.50097 0.04387 0.0
C519 C 0.0476 0.47088 0.91841 0.0
C520 C 0.04788 0.47491 0.0487 0.0
N521 N 0.04061 0.45987 0.98636 0.0
C522 C 0.06249 0.49737 0.91149 0.0
C523 C 0.07071 0.5124 0.97488 0.0
C524 C 0.97707 0.41889 0.87129 0.0
C525 C 0.93613 0.33327 0.07972 0.0
C526 C 0.93379 0.35114 0.93342 0.0
C527 C 0.9077 0.34528 0.97082 0.0
C528 C 0.90894 0.33632 0.04449 0.0
N529 N 0.96038 0.3481 0.96834 0.0
C530 C 0.96175 0.33932 0.04058 0.0
Co531 Co 0.08873 0.0127 0.49431 0.0
Co532 Co 0.15121 0.00255 0.38878 0.0
O533 O 0.13102 0.0041 0.48531 0.0
C534 C 0.09832 0.96979 0.62608 0.0
O535 O 0.12713 0.96905 0.62268 0.0
C536 C 0.19059 0.04315 0.4729 0.0
O537 O 0.16815 0.05607 0.50434 0.0
O538 O 0.13487 0.04176 0.35693 0.0
O539 O 0.09115 0.04172 0.41256 0.0
H540 H 0.1587 0.0102 0.11249 0.0
H541 H 0.13242 0.02052 0.61856 0.0
O542 O 0.08293 0.98393 0.57843 0.0
H543 H 0.07851 0.11398 0.60127 0.0
H544 H 0.99563 0.03889 0.62785 0.0
H545 H 0.04084 0.02188 0.3853 0.0
H546 H 0.06745 0.07412 0.51537 0.0
H547 H 0.0472 0.02268 0.61936 0.0
O548 O 0.18692 0.0217 0.42979 0.0
H549 H 0.1337 0.01271 0.2326 0.0
H550 H 0.21259 0.98782 0.34336 0.0
H551 H 0.98929 0.03736 0.3913 0.0
H552 H 0.1435 0.05928 0.70683 0.0
H553 H 0.96619 0.04666 0.51359 0.0
H554 H 0.11651 0.10663 0.69881 0.0
O555 O 0.07884 0.98071 0.42133 0.0
H556 H 0.2016 0.93175 0.56234 0.0
H557 H 0.15431 0.94372 0.31807 0.0
H558 H 0.17384 0.89531 0.35569 0.0
H559 H 0.19781 0.88913 0.47848 0.0
H560 H 0.18148 0.97971 0.52282 0.0
H561 H 0.23863 0.98556 0.22477 0.0
H562 H 0.21164 0.99665 0.10809 0.0
O563 O 0.11683 0.98309 0.34316 0.0
C564 C 0.10921 0.05253 0.36678 0.0
C565 C 0.1707 0.00522 0.16289 0.0
C566 C 0.21555 0.99145 0.2259 0.0
N567 N 0.17151 0.0003 0.29492 0.0
C568 C 0.15659 0.00648 0.23101 0.0
C569 C 0.20068 0.99288 0.29297 0.0
C570 C 0.2004 0.99766 0.16047 0.0
C571 C 0.11968 0.04032 0.61584 0.0
N572 N 0.09819 0.04409 0.56344 0.0
C573 C 0.12647 0.06258 0.66551 0.0
C574 C 0.11144 0.08918 0.66078 0.0
C575 C 0.09016 0.09331 0.60607 0.0
C576 C 0.08401 0.07055 0.55736 0.0
C577 C 0.00534 0.03517 0.57443 0.0
C578 C 0.03102 0.02556 0.43861 0.0
C579 C 0.03448 0.02572 0.56924 0.0
N580 N 0.04715 0.0217 0.50177 0.0
C581 C 0.00177 0.03465 0.44175 0.0
C582 C 0.9889 0.03969 0.51016 0.0
C583 C 0.09143 0.97397 0.36055 0.0
C584 C 0.19126 0.93418 0.50864 0.0
C585 C 0.16453 0.94117 0.37181 0.0
C586 C 0.17564 0.91372 0.3927 0.0
C587 C 0.1891 0.91027 0.46159 0.0
N588 N 0.16685 0.96455 0.41815 0.0
C589 C 0.1799 0.9613 0.48589 0.0
Co590 Co 0.48276 0.07881 0.99443 0.0
Co591 Co 0.50061 0.1449 0.90928 0.0
O592 O 0.49438 0.12007 0.99743 0.0
C593 C 0.53208 0.0805 0.1086 0.0
O594 O 0.54304 0.10426 0.0786 0.0
C595 C 0.45722 0.19312 0.92439 0.0
O596 O 0.44756 0.18638 0.85824 0.0
O597 O 0.46415 0.13008 0.85855 0.0
O598 O 0.45385 0.08823 0.91686 0.0
H599 H 0.5094 0.16528 0.63729 0.0
H600 H 0.48212 0.11239 0.13437 0.0
O601 O 0.51056 0.06744 0.07766 0.0
H602 H 0.3807 0.0772 0.10164 0.0
H603 H 0.44422 0.98299 0.09371 0.0
H604 H 0.46815 0.03995 0.87082 0.0
H605 H 0.41894 0.06459 0.01167 0.0
H606 H 0.46792 0.03116 0.10384 0.0
O607 O 0.47703 0.17722 0.9555 0.0
H608 H 0.50073 0.13485 0.74786 0.0
H609 H 0.51645 0.20798 0.8859 0.0
H610 H 0.44112 0.99407 0.85929 0.0
H611 H 0.4447 0.12502 0.22643 0.0
H612 H 0.4304 0.96412 0.97079 0.0
H613 H 0.39345 0.10789 0.20949 0.0
O614 O 0.5135 0.06988 0.91683 0.0
H615 H 0.55766 0.18571 0.12319 0.0
H616 H 0.56262 0.15571 0.86313 0.0
H617 H 0.6074 0.17349 0.9252 0.0
H618 H 0.60503 0.18883 0.0563 0.0
H619 H 0.51369 0.167 0.05922 0.0
H620 H 0.5251 0.23924 0.77677 0.0
H621 H 0.5216 0.21792 0.65131 0.0
O622 O 0.52405 0.11307 0.8622 0.0
C623 C 0.44816 0.10756 0.86845 0.0
C624 C 0.5109 0.17486 0.69164 0.0
C625 C 0.51971 0.21636 0.7699 0.0
N626 N 0.50774 0.16964 0.82332 0.0
C627 C 0.50599 0.15773 0.75449 0.0
C628 C 0.5147 0.19856 0.8315 0.0
C629 C 0.51775 0.20438 0.69955 0.0
C630 C 0.46006 0.10428 0.12726 0.0
N631 N 0.4529 0.08753 0.06762 0.0
C632 C 0.43889 0.11167 0.17948 0.0
C633 C 0.41015 0.10199 0.17012 0.0
C634 C 0.40296 0.08491 0.10936 0.0
C635 C 0.42471 0.07795 0.05832 0.0
C636 C 0.45009 0.9951 0.04474 0.0
C637 C 0.46344 0.02742 0.92015 0.0
C638 C 0.46399 0.02221 0.05015 0.0
N639 N 0.47004 0.0383 0.98832 0.0
C640 C 0.44852 0.00104 0.91295 0.0
C641 C 0.4421 0.98459 0.97562 0.0
C642 C 0.52692 0.08529 0.8679 0.0
C643 C 0.55903 0.17893 0.0662 0.0
C644 C 0.56167 0.16149 0.92049 0.0
C645 C 0.58697 0.17195 0.95523 0.0
C646 C 0.58561 0.18064 0.02868 0.0
N647 N 0.53575 0.1596 0.95774 0.0
C648 C 0.53419 0.16836 0.02959 0.0
Co649 Co 0.42133 0.4868 0.48391 0.0
Co650 Co 0.35685 0.50595 0.39052 0.0
O651 O 0.3801 0.5002 0.48214 0.0
C652 C 0.42213 0.53914 0.58508 0.0
O653 O 0.40272 0.55257 0.54265 0.0
C654 C 0.31901 0.46329 0.47145 0.0
O655 O 0.34227 0.44824 0.49293 0.0
O656 O 0.36945 0.46702 0.3496 0.0
O657 O 0.41245 0.45811 0.40612 0.0
H658 H 0.34096 0.50827 0.11573 0.0
H659 H 0.38606 0.4887 0.62062 0.0
O660 O 0.43211 0.51412 0.56678 0.0
H661 H 0.41685 0.38552 0.59676 0.0
H662 H 0.5142 0.44508 0.59756 0.0
H663 H 0.46264 0.47062 0.36638 0.0
H664 H 0.43298 0.42262 0.50661 0.0
H665 H 0.4662 0.47101 0.60052 0.0
O666 O 0.32166 0.48698 0.43487 0.0
H667 H 0.3694 0.50076 0.23068 0.0
H668 H 0.29522 0.52537 0.35769 0.0
H669 H 0.51067 0.44611 0.36169 0.0
H670 H 0.36979 0.45242 0.71286 0.0
H671 H 0.53694 0.43318 0.47825 0.0
H672 H 0.38472 0.4003 0.70029 0.0
O673 O 0.43258 0.5169 0.40595 0.0
H674 H 0.31783 0.57262 0.58655 0.0
H675 H 0.35306 0.56706 0.33041 0.0
H676 H 0.33829 0.6149 0.3809 0.0
H677 H 0.32044 0.61787 0.50991 0.0
H678 H 0.33328 0.52532 0.53399 0.0
H679 H 0.26591 0.53295 0.24409 0.0
H680 H 0.28878 0.52442 0.12196 0.0
O681 O 0.39071 0.52517 0.34232 0.0
C682 C 0.39253 0.45143 0.36009 0.0
C683 C 0.33073 0.51204 0.16859 0.0
C684 C 0.28861 0.52585 0.24063 0.0
N685 N 0.33396 0.51241 0.30092 0.0
C686 C 0.34673 0.50782 0.23392 0.0
C687 C 0.30529 0.52141 0.3048 0.0
C688 C 0.30146 0.52108 0.17213 0.0
C689 C 0.39304 0.46615 0.61537 0.0
N690 N 0.41033 0.4578 0.55774 0.0
C691 C 0.38366 0.44569 0.66769 0.0
C692 C 0.3921 0.41646 0.66076 0.0
C693 C 0.40999 0.40813 0.60241 0.0
C694 C 0.4189 0.4292 0.55112 0.0
C695 C 0.50346 0.45181 0.54696 0.0
C696 C 0.47422 0.46604 0.41745 0.0
C697 C 0.47629 0.46632 0.5481 0.0
N698 N 0.46167 0.47255 0.48371 0.0
C699 C 0.5015 0.45205 0.41434 0.0
C700 C 0.51612 0.44475 0.47966 0.0
C701 C 0.4182 0.52859 0.35177 0.0
C702 C 0.32561 0.57163 0.5303 0.0
C703 C 0.34571 0.56825 0.38676 0.0
C704 C 0.33717 0.59536 0.41497 0.0
C705 C 0.32711 0.59701 0.4873 0.0
N706 N 0.34429 0.54347 0.42932 0.0
C707 C 0.33431 0.5449 0.50018 0.0
Co708 Co 0.00472 0.08771 0.02729 0.0
Co709 Co 0.98318 0.14967 0.12354 0.0
O710 O 0.99058 0.12831 0.03151 0.0
C711 C 0.95699 0.09158 0.90854 0.0
O712 O 0.94608 0.11526 0.93867 0.0
C713 C 0.02593 0.18806 0.04775 0.0
O714 O 0.04139 0.16491 0.02936 0.0
O715 O 0.02184 0.1374 0.1675 0.0
O716 O 0.03241 0.09504 0.11113 0.0
H717 H 0.97767 0.16306 0.39846 0.0
H718 H 0.00559 0.12692 0.89519 0.0
O719 O 0.97848 0.07823 0.93971 0.0
H720 H 0.10785 0.09268 0.92807 0.0
H721 H 0.04096 0.99686 0.90125 0.0
H722 H 0.02016 0.04308 0.14045 0.0
H723 H 0.06911 0.07618 0.01293 0.0
H724 H 0.02085 0.04679 0.90612 0.0
O725 O 0.00183 0.18545 0.08217 0.0
H726 H 0.98715 0.13596 0.28384 0.0
H727 H 0.96189 0.21014 0.15547 0.0
H728 H 0.0413 0.99361 0.13837 0.0
H729 H 0.0435 0.14359 0.80836 0.0
H730 H 0.05214 0.96998 0.01773 0.0
H731 H 0.0951 0.12653 0.82457 0.0
O732 O 0.97327 0.07449 0.0995 0.0
H733 H 0.91647 0.19237 0.92771 0.0
H734 H 0.92119 0.14766 0.17619 0.0
H735 H 0.87308 0.16198 0.12327 0.0
H736 H 0.87051 0.18458 0.99822 0.0
H737 H 0.96409 0.17729 0.98222 0.0
H738 H 0.95236 0.23823 0.26851 0.0
H739 H 0.96018 0.21467 0.3912 0.0
O740 O 0.96487 0.11457 0.16831 0.0
C741 C 0.03789 0.11469 0.15867 0.0
C742 C 0.97418 0.17359 0.34536 0.0
C743 C 0.95999 0.21577 0.27245 0.0
N744 N 0.9752 0.17137 0.21305 0.0
C745 C 0.97952 0.1583 0.2803 0.0
C746 C 0.96552 0.19976 0.2086 0.0
C747 C 0.96438 0.20254 0.34125 0.0
C748 C 0.02788 0.11912 0.90235 0.0
N749 N 0.03503 0.10047 0.95915 0.0
C750 C 0.04931 0.12877 0.85311 0.0
C751 C 0.07827 0.11923 0.86229 0.0
C752 C 0.08544 0.10028 0.9204 0.0
C753 C 0.06344 0.09115 0.96859 0.0
C754 C 0.03674 0.00685 0.95406 0.0
C755 C 0.025 0.03313 0.08794 0.0
C756 C 0.02485 0.03501 0.95713 0.0
N757 N 0.01927 0.04784 0.02354 0.0
C758 C 0.03712 0.00505 0.08701 0.0
C759 C 0.04306 0.99186 0.01952 0.0
C760 C 0.96144 0.08751 0.15466 0.0
C761 C 0.91731 0.1826 0.98231 0.0
C762 C 0.92025 0.15726 0.1215 0.0
C763 C 0.89295 0.16545 0.09196 0.0
C764 C 0.89153 0.17817 0.02184 0.0
N765 N 0.94544 0.16161 0.08229 0.0
C766 C 0.94423 0.17416 0.01363 0.0
Co767 Co 0.41245 0.01307 0.52319 0.0
Co768 Co 0.35026 0.99019 0.61846 0.0
O769 O 0.37168 -0.00118 0.52659 0.0
C770 C 0.41231 0.96209 0.41853 0.0
O771 O 0.39273 0.94898 0.45992 0.0
C772 C 0.31196 0.03609 0.54845 0.0
O773 O 0.33513 0.0504 0.52542 0.0
O774 O 0.3645 0.0268 0.66704 0.0
O775 O 0.40392 0.04111 0.60324 0.0
H776 H 0.34105 0.97728 0.89297 0.0
H777 H 0.37398 0.01178 0.39053 0.0
O778 O 0.42283 0.9866 0.43847 0.0
H779 H 0.40241 0.11519 0.41718 0.0
H780 H 0.50199 0.05826 0.40709 0.0
H781 H 0.45577 0.02696 0.63911 0.0
H782 H 0.42316 0.07722 0.50011 0.0
H783 H 0.4545 0.03201 0.4051 0.0
O784 O 0.31463 0.01187 0.58286 0.0
H785 H 0.36682 0.98837 0.77694 0.0
H786 H 0.28854 0.97298 0.65424 0.0
H787 H 0.50337 0.05196 0.64277 0.0
H788 H 0.35311 0.04885 0.3053 0.0
H789 H 0.52725 0.06724 0.52604 0.0
H790 H 0.36645 0.10114 0.32014 0.0
O791 O 0.42587 0.98242 0.59843 0.0
H792 H 0.30701 0.93235 0.40995 0.0
H793 H 0.34356 0.92791 0.66649 0.0
H794 H 0.32663 0.88264 0.60652 0.0
H795 H 0.30812 0.88473 0.47722 0.0
H796 H 0.32471 0.97691 0.47185 0.0
H797 H 0.26186 0.96208 0.76908 0.0
H798 H 0.28816 0.96405 0.88953 0.0
O799 O 0.38485 0.96802 0.65722 0.0
C800 C 0.38538 0.04464 0.65444 0.0
C801 C 0.32935 0.97629 0.84082 0.0
C802 C 0.2849 0.96781 0.7713 0.0
N803 N 0.32927 0.98121 0.70878 0.0
C804 C 0.34385 0.98247 0.77488 0.0
C805 C 0.30011 0.97413 0.70645 0.0
C806 C 0.29968 0.9689 0.83886 0.0
C807 C 0.38043 0.03438 0.3964 0.0
N808 N 0.39932 0.04242 0.4516 0.0
C809 C 0.36845 0.0553 0.34805 0.0
C810 C 0.37603 0.08461 0.35618 0.0
C811 C 0.396 0.09254 0.41101 0.0
C812 C 0.40749 0.07101 0.45836 0.0
C813 C 0.49248 0.05032 0.4578 0.0
C814 C 0.46618 0.03293 0.58776 0.0
C815 C 0.46558 0.03564 0.45714 0.0
N816 N 0.45238 0.02791 0.52184 0.0
C817 C 0.49327 0.04703 0.59029 0.0
C818 C 0.50649 0.05578 0.52481 0.0
C819 C 0.41252 0.96689 0.64714 0.0
C820 C 0.31518 0.93111 0.46614 0.0
C821 C 0.33613 0.92881 0.60986 0.0
C822 C 0.32627 0.9032 0.57637 0.0
C823 C 0.31583 0.9044 0.5039 0.0
N824 N 0.33577 0.95484 0.57224 0.0
C825 C 0.32523 0.95627 0.50148 0.0
Co826 Co 0.48653 0.41363 0.03119 0.0
Co827 Co 0.50595 0.34746 0.11537 0.0
O828 O 0.49896 0.37231 0.02742 0.0
C829 C 0.53456 0.41207 0.91538 0.0
O830 O 0.54594 0.38822 0.9449 0.0
C831 C 0.46228 0.3112 0.03164 0.0
O832 O 0.44678 0.33445 0.01272 0.0
O833 O 0.46794 0.35996 0.16152 0.0
O834 O 0.45841 0.40398 0.11068 0.0
H835 H 0.51206 0.326 0.38763 0.0
H836 H 0.48456 0.37891 0.89279 0.0
O837 O 0.51322 0.42514 0.94692 0.0
H838 H 0.38343 0.41538 0.92735 0.0
H839 H 0.44964 0.51022 0.92869 0.0
H840 H 0.47282 0.45346 0.15434 0.0
H841 H 0.42296 0.42919 0.01372 0.0
H842 H 0.47052 0.46053 0.92103 0.0
O843 O 0.48582 0.31354 0.06919 0.0
H844 H 0.50303 0.35663 0.27707 0.0
H845 H 0.52487 0.28519 0.13865 0.0
H846 H 0.44897 0.50159 0.16444 0.0
H847 H 0.44587 0.36495 0.80436 0.0
H848 H 0.43751 0.53065 0.05111 0.0
H849 H 0.39471 0.38263 0.82245 0.0
O850 O 0.51799 0.42297 0.10771 0.0
H851 H 0.56789 0.30943 0.90821 0.0
H852 H 0.56846 0.34128 0.16714 0.0
H853 H 0.61489 0.32587 0.10979 0.0
H854 H 0.6148 0.30962 0.97926 0.0
H855 H 0.52211 0.32574 0.96761 0.0
H856 H 0.53397 0.25373 0.24767 0.0
H857 H 0.52769 0.27413 0.37333 0.0
O858 O 0.52647 0.38011 0.16572 0.0
C859 C 0.45227 0.38313 0.15462 0.0
C860 C 0.51486 0.31684 0.33319 0.0
C861 C 0.52716 0.27629 0.25465 0.0
N862 N 0.5134 0.32278 0.20142 0.0
C863 C 0.50973 0.33408 0.27036 0.0
C864 C 0.52188 0.29421 0.19308 0.0
C865 C 0.52363 0.28775 0.32513 0.0
C866 C 0.46252 0.3872 0.90037 0.0
N867 N 0.45605 0.40471 0.95901 0.0
C868 C 0.44065 0.3791 0.85016 0.0
C869 C 0.41197 0.38908 0.86016 0.0
C870 C 0.40559 0.40731 0.91928 0.0
C871 C 0.42803 0.41491 0.96836 0.0
C872 C 0.45498 0.49804 0.97846 0.0
C873 C 0.468 0.46586 0.1046 0.0
C874 C 0.46744 0.47009 0.97431 0.0
N875 N 0.47344 0.45418 0.03681 0.0
C876 C 0.45476 0.49335 0.11081 0.0
C877 C 0.44823 0.50953 0.04725 0.0
C878 C 0.53009 0.40764 0.15959 0.0
C879 C 0.56826 0.31654 0.96506 0.0
C880 C 0.56832 0.33492 0.1102 0.0
C881 C 0.59465 0.32588 0.07805 0.0
C882 C 0.59457 0.31669 1.0049 0.0
N883 N 0.54264 0.33491 0.07075 0.0
C884 C 0.54237 0.32572 0.99911 0.0
Co885 Co 0.08284 0.47862 0.51376 0.0
Co886 Co 0.15127 0.49348 0.59164 0.0
O887 O 0.12479 0.48802 0.50643 0.0
C888 C 0.08635 0.52045 0.38227 0.0
O889 O 0.11423 0.52536 0.39577 0.0
C890 C 0.19981 0.45122 0.56936 0.0
O891 O 0.19409 0.44095 0.63563 0.0
O892 O 0.13726 0.45657 0.64118 0.0
O893 O 0.09177 0.45128 0.59597 0.0
H894 H 0.17777 0.49752 0.86122 0.0
H895 H 0.11791 0.47025 0.37521 0.0
O896 O 0.07143 0.50504 0.4274 0.0
H897 H 0.07355 0.37433 0.42847 0.0
H898 H 0.98517 0.44558 0.41499 0.0
H899 H 0.04331 0.46532 0.63942 0.0
H900 H 0.06296 0.41654 0.50703 0.0
H901 H 0.03389 0.46803 0.40588 0.0
O902 O 0.18301 0.47075 0.54041 0.0
H903 H 0.14491 0.49037 0.75416 0.0
H904 H 0.21438 0.51108 0.60781 0.0
H905 H 0.99689 0.43851 0.64928 0.0
H906 H 0.12861 0.42867 0.29437 0.0
H907 H 0.96673 0.42947 0.53701 0.0
H908 H 0.10698 0.37994 0.3223 0.0
O909 O 0.07639 0.5116 0.58737 0.0
H910 H 0.19034 0.55269 0.37929 0.0
H911 H 0.15878 0.55579 0.63867 0.0
H912 H 0.17544 0.60111 0.57786 0.0
H913 H 0.19155 0.59973 0.44722 0.0
H914 H 0.17291 0.50804 0.44193 0.0
H915 H 0.24795 0.51871 0.7132 0.0
H916 H 0.22972 0.51185 0.84108 0.0
O917 O 0.12033 0.51601 0.64403 0.0
C918 C 0.11262 0.44339 0.63865 0.0
C919 C 0.18604 0.50043 0.80579 0.0
C920 C 0.22539 0.51239 0.72274 0.0
N921 N 0.17774 0.4999 0.67478 0.0
C922 C 0.16756 0.49624 0.74495 0.0
C923 C 0.20625 0.50803 0.66326 0.0
C924 C 0.21516 0.50851 0.79445 0.0
C925 C 0.10757 0.44958 0.38657 0.0
N926 N 0.08936 0.44628 0.44576 0.0
C927 C 0.11398 0.42593 0.34074 0.0
C928 C 0.10182 0.39864 0.35611 0.0
C929 C 0.08317 0.39541 0.41603 0.0
C930 C 0.07727 0.4195 0.46052 0.0
C931 C 0.99762 0.4502 0.4645 0.0
C932 C 0.03063 0.46125 0.58992 0.0
C933 C 0.02505 0.46359 0.45988 0.0
N934 N 0.04158 0.46825 0.52206 0.0
C935 C 0.004 0.44649 0.59613 0.0
C936 C 0.98732 0.4411 0.53301 0.0
C937 C 0.09308 0.52234 0.63821 0.0
C938 C 0.18343 0.55359 0.43627 0.0
C939 C 0.16531 0.55505 0.5817 0.0
C940 C 0.17495 0.58077 0.5476 0.0
C941 C 0.18404 0.57997 0.47436 0.0
N942 N 0.16476 0.52923 0.54406 0.0
C943 C 0.17367 0.52832 0.47222 0.0
C944 C 0.94855 0.72419 0.97086 0.0
C945 C 0.97415 0.71263 1.00454 0.0
C946 C 0.94725 0.75354 0.94638 0.0
C947 C 0.9714 0.7724 0.95533 0.0
H948 H 0.92942 0.71051 0.96314 0.0
H949 H 0.92724 0.76146 0.92009 0.0
S950 S 0.04444 0.75224 0.03499 0.0
N951 N 0.02483 0.72216 0.04124 0.0
N952 N 0.0221 0.77673 0.9975 0.0
C953 C 0.9971 0.76095 0.98869 0.0
C954 C 0.99855 0.73124 0.01261 0.0
C955 C 0.73565 0.94697 0.46018 0.0
C956 C 0.71384 0.94991 0.5145 0.0
C957 C 0.76566 0.94808 0.47861 0.0
C958 C 0.77467 0.95304 0.55167 0.0
H959 H 0.72942 0.94569 0.40246 0.0
H960 H 0.78168 0.94767 0.43465 0.0
S961 S 0.72629 0.95979 0.71474 0.0
N962 N 0.70332 0.95547 0.64467 0.0
N963 N 0.75966 0.95844 0.67939 0.0
C964 C 0.75312 0.9541 0.60701 0.0
C965 C 0.72265 0.95231 0.5884 0.0
C966 C 0.53964 0.75898 0.05937 0.0
C967 C 0.54764 0.7835 0.0166 0.0
C968 C 0.54189 0.73056 0.03173 0.0
C969 C 0.55215 0.72543 0.95994 0.0
H970 H 0.53019 0.76184 0.11359 0.0
H971 H 0.53397 0.71264 0.06557 0.0
S972 S 0.57932 0.78206 0.82891 0.0
N973 N 0.56896 0.80079 0.90197 0.0
N974 N 0.57328 0.74729 0.84923 0.0
C975 C 0.5625 0.7496 0.91871 0.0
C976 C 0.56023 0.77868 0.94725 0.0
C977 C 0.74427 0.5249 0.54973 0.0
C978 C 0.71995 0.53514 0.50853 0.0
C979 C 0.7727 0.52592 0.52129 0.0
C980 C 0.77808 0.53691 0.44988 0.0
H981 H 0.74123 0.51501 0.6037 0.0
H982 H 0.79038 0.51668 0.55456 0.0
S983 S 0.72213 0.5696 0.32282 0.0
N984 N 0.70318 0.55926 0.39583 0.0
N985 N 0.75674 0.56095 0.34125 0.0
C986 C 0.75416 0.54911 0.40992 0.0
C987 C 0.72507 0.54828 0.43951 0.0
C988 C 0.04732 0.2518 0.92606 0.0
C989 C 0.03937 0.27599 0.96979 0.0
C990 C 0.04514 0.22304 0.95337 0.0
C991 C 0.03484 0.21769 0.02502 0.0
H992 H 0.05338 0.25489 0.86883 0.0
H993 H 0.04953 0.20495 0.91659 0.0
S994 S 0.01729 0.27326 0.16654 0.0
N995 N 0.02549 0.29256 0.09214 0.0
N996 N 0.02105 0.23861 0.14279 0.0
C997 C 0.02944 0.24164 0.07127 0.0
C998 C 0.03184 0.27081 0.04385 0.0
C999 C 0.26024 0.04544 0.58518 0.0
C1000 C 0.28194 0.04608 0.53009 0.0
C1001 C 0.23026 0.04786 0.5671 0.0
C1002 C 0.22113 0.05018 0.49315 0.0
H1003 H 0.26643 0.04141 0.64226 0.0
H1004 H 0.21417 0.04534 0.61047 0.0
S1005 S 0.26928 0.05476 0.32915 0.0
N1006 N 0.29236 0.0515 0.3996 0.0
N1007 N 0.23599 0.05499 0.36506 0.0
C1008 C 0.24268 0.05255 0.43809 0.0
C1009 C 0.27316 0.05078 0.4567 0.0
C1010 C 0.46085 0.22875 0.0274 0.0
C1011 C 0.45138 0.22267 0.95512 0.0
C1012 C 0.46225 0.25749 0.05307 0.0
C1013 C 0.45409 0.28142 0.00782 0.0
H1014 H 0.46879 0.21131 0.06338 0.0
H1015 H 0.47112 0.26107 0.10791 0.0
S1016 S 0.42425 0.27751 0.81751 0.0
N1017 N 0.43086 0.24303 0.84091 0.0
N1018 N 0.43351 0.29719 0.89005 0.0
C1019 C 0.4423 0.27569 0.9377 0.0
C1020 C 0.44094 0.24626 0.91113 0.0
C1021 C 0.28277 0.44326 0.56212 0.0
C1022 C 0.289 0.45393 0.49107 0.0
C1023 C 0.25355 0.44006 0.58553 0.0
C1024 C 0.22969 0.44734 0.53848 0.0
H1025 H 0.30046 0.43925 0.60135 0.0
H1026 H 0.24976 0.43375 0.6424 0.0
S1027 S 0.23477 0.47024 0.34213 0.0
N1028 N 0.26926 0.46732 0.37037 0.0
N1029 N 0.21455 0.46136 0.41413 0.0
C1030 C 0.23583 0.45544 0.46526 0.0
C1031 C 0.26544 0.45875 0.44165 0.0
C1032 C 0.0375 0.56052 0.76445 0.0
C1033 C 0.05461 0.56881 0.82591 0.0
C1034 C 0.05006 0.54651 0.70287 0.0
C1035 C 0.08046 0.5413 0.69837 0.0
H1036 H 0.01393 0.5639 0.7652 0.0
H1037 H 0.03567 0.53845 0.66002 0.0
S1038 S 0.13598 0.56574 0.8373 0.0
N1039 N 0.10413 0.57509 0.87333 0.0
N1040 N 0.12793 0.55059 0.75742 0.0
C1041 C 0.09814 0.55254 0.75644 0.0
C1042 C 0.08524 0.56609 0.81977 0.0
C1043 C 0.95429 0.07446 0.28662 0.0
C1044 C 0.94534 0.07094 0.21262 0.0
C1045 C 0.93779 0.06332 0.34548 0.0
C1046 C 0.91168 0.04788 0.33334 0.0
H1047 H 0.97422 0.0863 0.29936 0.0
H1048 H 0.94537 0.06716 0.40127 0.0
S1049 S 0.87805 0.03272 0.15045 0.0
N1050 N 0.90798 0.05149 0.13059 0.0
N1051 N 0.87742 0.02946 0.2414 0.0
C1052 C 0.90231 0.04406 0.2597 0.0
C1053 C 0.91911 0.05568 0.19934 0.0
C1054 C 0.46593 0.94651 0.80207 0.0
C1055 C 0.45278 0.92154 0.83419 0.0
C1056 C 0.45425 0.96004 0.73796 0.0
C1057 C 0.42943 0.94867 0.70183 0.0
H1058 H 0.48464 0.95663 0.82836 0.0
H1059 H 0.4638 0.98043 0.7191 0.0
S1060 S 0.39071 0.8801 0.75255 0.0
N1061 N 0.41581 0.88384 0.81799 0.0
N1062 N 0.39514 0.90823 0.69603 0.0
C1063 C 0.41785 0.92221 0.72925 0.0
C1064 C 0.42927 0.90881 0.79535 0.0
C1065 C 0.54731 0.45274 0.22919 0.0
C1066 C 0.54773 0.42207 0.21997 0.0
C1067 C 0.56155 0.46606 0.28973 0.0
C1068 C 0.57641 0.44935 0.34401 0.0
H1069 H 0.53515 0.46653 0.19086 0.0
H1070 H 0.561 0.48963 0.29452 0.0
S1071 S 0.58488 0.36875 0.34787 0.0
N1072 N 0.56543 0.37568 0.27253 0.0
N1073 N 0.59141 0.40097 0.38476 0.0
C1074 C 0.57764 0.41899 0.33522 0.0
C1075 C 0.56336 0.40534 0.27397 0.0
C1076 C 0.08429 0.96017 0.2285 0.0
C1077 C 0.07627 0.95611 0.30308 0.0
C1078 C 0.07144 0.94412 0.17147 0.0
C1079 C 0.04963 0.92349 0.1859 0.0
H1080 H 0.10044 0.97628 0.21319 0.0
H1081 H 0.07841 0.94824 0.11538 0.0
S1082 S 0.02293 0.90111 0.37066 0.0
N1083 N 0.04704 0.92717 0.38815 0.0
N1084 N 0.0219 0.89769 0.27991 0.0
C1085 C 0.04196 0.91812 0.25988 0.0
C1086 C 0.05534 0.93439 0.31861 0.0
C1087 C 0.53676 0.0422 0.78432 0.0
C1088 C 0.54434 0.07042 0.80855 0.0
C1089 C 0.54966 0.02982 0.72112 0.0
C1090 C 0.57035 0.04528 0.67813 0.0
H1091 H 0.51974 0.03001 0.8123 0.0
H1092 H 0.54253 0.00826 0.70466 0.0
S1093 S 0.59985 0.11886 0.72104 0.0
N1094 N 0.57595 0.11235 0.78712 0.0
N1095 N 0.5992 0.08968 0.66795 0.0
C1096 C 0.57896 0.073 0.70332 0.0
C1097 C 0.56612 0.08543 0.76815 0.0
C1098 C 0.41696 0.56472 0.24575 0.0
C1099 C 0.43343 0.54556 0.29215 0.0
C1100 C 0.42907 0.57766 0.18221 0.0
C1101 C 0.45826 0.572 0.16178 0.0
H1102 H 0.39408 0.56917 0.25703 0.0
H1103 H 0.4151 0.59134 0.14747 0.0
S1104 S 0.5115 0.52525 0.26499 0.0
N1105 N 0.48078 0.52208 0.31203 0.0
N1106 N 0.5042 0.54836 0.19702 0.0
C1107 C 0.47547 0.55437 0.20969 0.0
C1108 C 0.46296 0.54069 0.27362 0.0
C1109 C 0.93834 0.42083 0.77054 0.0
C1110 C 0.96097 0.43483 0.81054 0.0
C1111 C 0.92655 0.43298 0.70487 0.0
C1112 C 0.93688 0.4597 0.67581 0.0
H1113 H 0.93022 0.39976 0.78876 0.0
H1114 H 0.90973 0.42087 0.67579 0.0
S1115 S 0.99567 0.50473 0.75872 0.0
N1116 N 0.99298 0.47671 0.81555 0.0
N1117 N 0.9706 0.49999 0.69418 0.0
C1118 C 0.95862 0.47438 0.71686 0.0
C1119 C 0.97077 0.46181 0.78325 0.0
C1120 C 0.9748 0.46055 0.20965 0.0
C1121 C 0.96236 0.43623 0.17336 0.0
C1122 C 0.96314 0.47126 0.27629 0.0
C1123 C 0.93873 0.45794 0.30995 0.0
H1124 H 0.99307 0.4721 0.18512 0.0
H1125 H 0.97249 0.4909 0.29959 0.0
S1126 S 0.90099 0.39095 0.24411 0.0
N1127 N 0.92608 0.39748 0.18086 0.0
N1128 N 0.90488 0.41702 0.30589 0.0
C1129 C 0.92738 0.43256 0.27657 0.0
C1130 C 0.93896 0.42188 0.20852 0.0
C1131 C 0.03907 0.92891 0.72941 0.0
C1132 C 0.0461 0.93317 0.80442 0.0
C1133 C 0.0568 0.93988 0.67279 0.0
C1134 C 0.08247 0.95559 0.68815 0.0
H1135 H 0.01955 0.91686 0.71404 0.0
H1136 H 0.05036 0.93593 0.61616 0.0
S1137 S 0.11223 0.97127 0.87482 0.0
N1138 N 0.08186 0.95266 0.89095 0.0
N1139 N 0.11478 0.97428 0.78407 0.0
C1140 C 0.09028 0.95965 0.76276 0.0
C1141 C 0.07213 0.94833 0.82092 0.0
C1142 C 0.58491 0.06284 0.26816 0.0
C1143 C 0.56914 0.0425 0.3117 0.0
C1144 C 0.57265 0.07575 0.20404 0.0
C1145 C 0.544 0.06898 0.1805 0.0
H1146 H 0.60739 0.06818 0.28215 0.0
H1147 H 0.58613 0.09035 0.17144 0.0
S1148 S 0.49298 0.01844 0.27536 0.0
N1149 N 0.52329 0.01648 0.32542 0.0
N1150 N 0.49936 0.04272 0.20994 0.0
C1151 C 0.52745 0.05018 0.22595 0.0
C1152 C 0.54021 0.0364 0.28996 0.0
C1153 C 0.44515 0.53529 0.71196 0.0
C1154 C 0.43321 0.55286 0.65462 0.0
C1155 C 0.45824 0.54765 0.77527 0.0
C1156 C 0.45981 0.57823 0.78454 0.0
H1157 H 0.44476 0.51169 0.70723 0.0
H1158 H 0.46804 0.53308 0.81602 0.0
S1159 S 0.42934 0.63397 0.65257 0.0
N1160 N 0.42222 0.60234 0.61317 0.0
N1161 N 0.44608 0.62569 0.73108 0.0
C1162 C 0.44659 0.59597 0.72866 0.0
C1163 C 0.43341 0.58331 0.66431 0.0
C1164 C 0.9466 0.04394 0.73687 0.0
C1165 C 0.92044 0.0549 0.70506 0.0
C1166 C 0.95887 0.0567 0.80058 0.0
C1167 C 0.94511 0.08045 0.83654 0.0
H1168 H 0.95673 0.02431 0.71521 0.0
H1169 H 0.97868 0.04694 0.8235 0.0
S1170 S 0.87893 0.12038 0.76742 0.0
N1171 N 0.88369 0.09364 0.70785 0.0
N1172 N 0.9057 0.11663 0.8288 0.0
C1173 C 0.92006 0.0928 0.80211 0.0
C1174 C 0.90797 0.0802 0.73647 0.0
C1175 C 0.43876 0.96523 0.29671 0.0
C1176 C 0.42299 0.94848 0.34861 0.0
C1177 C 0.45168 0.95249 0.23387 0.0
C1178 C 0.44835 0.92253 0.21827 0.0
H1179 H 0.44163 0.98837 0.30585 0.0
H1180 H 0.46544 0.96596 0.19927 0.0
S1181 S 0.40611 0.86945 0.33311 0.0
N1182 N 0.40334 0.90059 0.37799 0.0
N1183 N 0.42574 0.87698 0.25931 0.0
C1184 C 0.43106 0.90594 0.26811 0.0
C1185 C 0.41867 0.9188 0.33288 0.0
C1186 C 0.57512 0.41696 0.82204 0.0
C1187 C 0.54651 0.42418 0.84471 0.0
C1188 C 0.5878 0.43054 0.76011 0.0
C1189 C 0.57261 0.45214 0.71826 0.0
H1190 H 0.58827 0.40143 0.8537 0.0
H1191 H 0.61005 0.42449 0.74603 0.0
S1192 S 0.49611 0.4768 0.75025 0.0
N1193 N 0.50214 0.45172 0.81452 0.0
N1194 N 0.52683 0.47897 0.70289 0.0
C1195 C 0.54349 0.45835 0.73798 0.0
C1196 C 0.53032 0.44402 0.80005 0.0
C1197 C 0.04288 0.52356 0.2944 0.0
C1198 C 0.07246 0.53046 0.31097 0.0
C1199 C 0.02883 0.53401 0.22972 0.0
C1200 C 0.04395 0.55129 0.17825 0.0
H1201 H 0.0299 0.51109 0.33314 0.0
H1202 H 0.00552 0.5301 0.22238 0.0
S1203 S 0.12261 0.57168 0.18745 0.0
N1204 N 0.11708 0.55318 0.2647 0.0
N1205 N 0.09072 0.57216 0.14341 0.0
C1206 C 0.0739 0.55669 0.19136 0.0
C1207 C 0.08818 0.54634 0.25729 0.0
C1208 C 0.91578 0.59268 0.30969 0.0
C1209 C 0.89732 0.56862 0.29535 0.0
C1210 C 0.93144 0.60651 0.25303 0.0
C1211 C 0.92959 0.59652 0.17993 0.0
H1212 H 0.92019 0.5993 0.36592 0.0
H1213 H 0.94703 0.62329 0.26807 0.0
S1214 S 0.87757 0.5404 0.11043 0.0
N1215 N 0.87269 0.5404 0.20054 0.0
N1216 N 0.9027 0.56552 0.09446 0.0
C1217 C 0.90809 0.57531 0.16372 0.0
C1218 C 0.89173 0.56163 0.22134 0.0
C1219 C 0.91216 0.91346 0.69592 0.0
C1220 C 0.89217 0.93527 0.71909 0.0
C1221 C 0.92856 0.89666 0.74693 0.0
C1222 C 0.92605 0.90137 0.82313 0.0
H1223 H 0.9167 0.91063 0.63784 0.0
H1224 H 0.94499 0.88181 0.72601 0.0
S1225 S 0.87108 0.9495 0.91296 0.0
N1226 N 0.86639 0.95588 0.82385 0.0
N1227 N 0.89738 0.92451 0.9192 0.0
C1228 C 0.90349 0.92026 0.8469 0.0
C1229 C 0.8865 0.93715 0.79504 0.0
C1230 C 0.58839 0.91616 0.19094 0.0
C1231 C 0.56839 0.89403 0.21148 0.0
C1232 C 0.60502 0.93121 0.24361 0.0
C1233 C 0.60225 0.92477 0.319 0.0
H1234 H 0.58957 0.92364 0.13436 0.0
H1235 H 0.61776 0.94985 0.22553 0.0
S1236 S 0.56019 0.86312 0.3999 0.0
N1237 N 0.552 0.86225 0.31101 0.0
N1238 N 0.58353 0.89039 0.40996 0.0
C1239 C 0.58568 0.90003 0.33919 0.0
C1240 C 0.56872 0.88463 0.28543 0.0
C1241 C 0.58961 0.59108 0.67967 0.0
C1242 C 0.61071 0.56988 0.70169 0.0
C1243 C 0.57457 0.60801 0.73149 0.0
C1244 C 0.58015 0.60433 0.80716 0.0
H1245 H 0.58264 0.59279 0.62271 0.0
H1246 H 0.55636 0.62152 0.71251 0.0
S1247 S 0.63934 0.55877 0.89188 0.0
N1248 N 0.64073 0.55102 0.8031 0.0
N1249 N 0.61305 0.58361 0.9002 0.0
C1250 C 0.60426 0.58671 0.82881 0.0
C1251 C 0.61949 0.56929 0.7761 0.0
C1252 C 0.08081 0.40192 0.67812 0.0
C1253 C 0.10517 0.42005 0.69298 0.0
C1254 C 0.06567 0.38771 0.73482 0.0
C1255 C 0.07439 0.39108 0.80855 0.0
H1256 H 0.07161 0.40077 0.62318 0.0
H1257 H 0.04532 0.37676 0.72126 0.0
S1258 S 0.14265 0.42682 0.87424 0.0
N1259 N 0.14174 0.43376 0.78466 0.0
N1260 N 0.11326 0.40691 0.89148 0.0
C1261 C 0.10135 0.40501 0.82282 0.0
C1262 C 0.11686 0.41946 0.76487 0.0
C1263 C 0.05351 0.10622 0.2885 0.0
C1264 C 0.06111 0.10769 0.21378 0.0
C1265 C 0.0711 0.09082 0.3394 0.0
C1266 C 0.09718 0.07633 0.31797 0.0
H1267 H 0.03255 0.11462 0.30679 0.0
H1268 H 0.06281 0.08844 0.39482 0.0
S1269 S 0.13079 0.08111 0.1323 0.0
N1270 N 0.09908 0.09865 0.12322 0.0
N1271 N 0.13275 0.07037 0.21948 0.0
C1272 C 0.10695 0.08108 0.24536 0.0
C1273 C 0.08868 0.09644 0.19304 0.0
C1274 C 0.38838 0.06209 0.78387 0.0
C1275 C 0.39203 0.06793 0.70847 0.0
C1276 C 0.404 0.07797 0.83675 0.0
C1277 C 0.42408 0.10006 0.81625 0.0
H1278 H 0.37579 0.04334 0.80205 0.0
H1279 H 0.40228 0.07095 0.8936 0.0
S1280 S 0.43325 0.13022 0.62756 0.0
N1281 N 0.41054 0.10244 0.61735 0.0
N1282 N 0.44077 0.13163 0.71672 0.0
C1283 C 0.42428 0.10905 0.74213 0.0
C1284 C 0.4081 0.09302 0.68819 0.0
C1285 C 0.43642 0.38842 0.284 0.0
C1286 C 0.42908 0.38967 0.2089 0.0
C1287 C 0.42183 0.40621 0.33467 0.0
C1288 C 0.39936 0.42595 0.31222 0.0
H1289 H 0.45562 0.37628 0.30267 0.0
H1290 H 0.43019 0.40631 0.39053 0.0
S1291 S 0.3656 0.42954 0.12563 0.0
N1292 N 0.39307 0.40597 0.11766 0.0
N1293 N 0.36587 0.43993 0.21274 0.0
C1294 C 0.38883 0.42383 0.23947 0.0
C1295 C 0.40371 0.40556 0.18781 0.0
loop_
_geom_bond_atom_site_label_1
_geom_bond_atom_site_label_2
_geom_bond_distance
_geom_bond_site_symmetry_2
_ccdc_geom_bond_type
Co0 O2 2.143 1_655 S
Co0 O8 2.074 . S
Co0 O11 2.093 1_654 S
Co0 O24 2.097 1_655 S
Co0 N41 2.151 1_554 S
Co0 N49 2.214 . S
Co1 O2 2.160 . S
Co1 O7 2.058 1_455 S
Co1 O17 2.057 1_455 S
Co1 O32 2.037 . S
Co1 N36 2.145 . S
Co1 N57 2.257 . S
O2 Co0 2.143 1_455 S
O2 Co1 2.160 . S
C3 O4 1.278 . S
C3 O11 1.224 . S
O4 C3 1.278 . S
C5 O6 1.245 . S
C5 O17 1.232 1_556 S
O6 C5 1.245 . S
O7 Co1 2.058 1_655 S
O7 C33 1.269 . S
O8 Co0 2.074 . S
O8 C33 1.257 . S
H9 C34 0.930 . S
H10 C40 0.930 . S
O11 Co0 2.093 1_456 S
O11 C3 1.224 . S
H12 C44 0.929 . S
H13 C46 0.930 . S
H14 C47 0.930 . S
H15 C45 0.929 . S
H16 C48 0.928 . S
O17 Co1 2.057 1_655 S
O17 C5 1.232 1_554 S
H18 C37 0.929 . S
H19 C38 0.929 . S
H20 C50 0.931 . S
H21 C42 0.929 . S
H22 C51 0.930 . S
H23 C43 0.931 . S
O24 Co0 2.097 1_455 S
O24 C52 1.214 . S
H25 C53 0.929 . S
H26 C54 0.929 . S
H27 C55 0.930 . S
H28 C56 0.929 . S
H29 C58 0.930 1_556 S
H30 C35 0.930 . S
H31 C39 0.930 . S
O32 Co1 2.037 . S
O32 C52 1.234 . S
C33 O7 1.269 . S
C33 O8 1.257 . S
C34 H9 0.930 . S
C34 C37 1.388 . S
C34 C39 1.418 . S
C35 H30 0.930 . S
C35 C38 1.404 . S
C35 C39 1.353 . S
N36 Co1 2.145 . S
N36 C37 1.397 . S
N36 C38 1.334 . S
C37 H18 0.929 . S
C37 C34 1.388 . S
C37 N36 1.397 . S
C38 H19 0.929 . S
C38 C35 1.404 . S
C38 N36 1.334 . S
C39 H31 0.930 . S
C39 C34 1.418 . S
C39 C35 1.353 . S
C40 H10 0.930 . S
C40 N41 1.330 . S
C40 C42 1.446 . S
N41 Co0 2.151 1_556 S
N41 C40 1.330 . S
N41 C45 1.418 . S
C42 H21 0.929 . S
C42 C40 1.446 . S
C42 C43 1.332 . S
C43 H23 0.931 . S
C43 C42 1.332 . S
C43 C44 1.267 . S
C44 H12 0.929 . S
C44 C43 1.267 . S
C44 C45 1.251 . S
C45 H15 0.929 . S
C45 N41 1.418 . S
C45 C44 1.251 . S
C46 H13 0.930 . S
C46 C48 1.406 . S
C46 C51 1.261 1_556 S
C47 H14 0.930 . S
C47 N49 1.325 . S
C47 C50 1.357 . S
C48 H16 0.928 . S
C48 C46 1.406 . S
C48 N49 1.261 1_556 S
N49 Co0 2.214 . S
N49 C47 1.325 . S
N49 C48 1.261 1_554 S
C50 H20 0.931 . S
C50 C47 1.357 . S
C50 C51 1.312 . S
C51 H22 0.930 . S
C51 C46 1.261 1_554 S
C51 C50 1.312 . S
C52 O24 1.214 . S
C52 O32 1.234 . S
C53 H25 0.929 . S
C53 C56 1.391 1_556 S
C53 C58 1.391 1_556 S
C54 H26 0.929 . S
C54 C55 1.390 . S
C54 N57 1.391 . S
C55 H27 0.930 . S
C55 C54 1.390 . S
C55 C56 1.392 . S
C56 H28 0.929 . S
C56 C53 1.391 1_554 S
C56 C55 1.392 . S
N57 Co1 2.257 . S
N57 C54 1.391 . S
N57 C58 1.388 . S
C58 H29 0.930 1_554 S
C58 C53 1.391 1_554 S
C58 N57 1.388 . S
Co59 O61 2.143 1_565 S
Co59 O67 2.074 . S
Co59 O70 2.093 1_565 S
Co59 O83 2.097 1_565 S
Co59 N100 2.151 . S
Co59 N108 2.214 . S
Co60 O61 2.160 . S
Co60 O66 2.058 1_545 S
Co60 O76 2.057 1_545 S
Co60 O91 2.037 . S
Co60 N95 2.145 . S
Co60 N116 2.257 . S
O61 Co59 2.143 1_545 S
O61 Co60 2.160 . S
C62 O63 1.278 . S
C62 O70 1.224 . S
O63 C62 1.278 . S
C64 O65 1.245 . S
C64 O76 1.232 . S
O65 C64 1.245 . S
O66 Co60 2.058 1_565 S
O66 C92 1.269 . S
O67 Co59 2.074 . S
O67 C92 1.257 . S
H68 C93 0.930 . S
H69 C99 0.930 . S
O70 Co59 2.093 1_545 S
O70 C62 1.224 . S
H71 C103 0.929 . S
H72 C105 0.930 . S
H73 C106 0.930 . S
H74 C104 0.929 . S
H75 C107 0.928 . S
O76 Co60 2.057 1_565 S
O76 C64 1.232 . S
H77 C96 0.929 . S
H78 C97 0.929 . S
H79 C109 0.931 . S
H80 C101 0.929 . S
H81 C110 0.930 . S
H82 C102 0.931 . S
O83 Co59 2.097 1_545 S
O83 C111 1.214 . S
H84 C112 0.929 . S
H85 C113 0.929 . S
H86 C114 0.930 . S
H87 C115 0.929 . S
H88 C117 0.930 . S
H89 C94 0.930 . S
H90 C98 0.930 . S
O91 Co60 2.037 . S
O91 C111 1.234 . S
C92 O66 1.269 . S
C92 O67 1.257 . S
C93 H68 0.930 . S
C93 C96 1.388 . S
C93 C98 1.418 . S
C94 H89 0.930 . S
C94 C97 1.404 . S
C94 C98 1.353 . S
N95 Co60 2.145 . S
N95 C96 1.397 . S
N95 C97 1.334 . S
C96 H77 0.929 . S
C96 C93 1.388 . S
C96 N95 1.397 . S
C97 H78 0.929 . S
C97 C94 1.404 . S
C97 N95 1.334 . S
C98 H90 0.930 . S
C98 C93 1.418 . S
C98 C94 1.353 . S
C99 H69 0.930 . S
C99 N100 1.330 . S
C99 C101 1.446 . S
N100 Co59 2.151 . S
N100 C99 1.330 . S
N100 C104 1.418 . S
C101 H80 0.929 . S
C101 C99 1.446 . S
C101 C102 1.332 . S
C102 H82 0.931 . S
C102 C101 1.332 . S
C102 C103 1.267 . S
C103 H71 0.929 . S
C103 C102 1.267 . S
C103 C104 1.251 . S
C104 H74 0.929 . S
C104 N100 1.418 . S
C104 C103 1.251 . S
C105 H72 0.930 . S
C105 C107 1.406 1_455 S
C105 C110 1.261 . S
C106 H73 0.930 . S
C106 N108 1.325 . S
C106 C109 1.357 1_655 S
C107 H75 0.928 . S
C107 C105 1.406 1_655 S
C107 N108 1.261 . S
N108 Co59 2.214 . S
N108 C106 1.325 . S
N108 C107 1.261 . S
C109 H79 0.931 . S
C109 C106 1.357 1_455 S
C109 C110 1.312 . S
C110 H81 0.930 . S
C110 C105 1.261 . S
C110 C109 1.312 . S
C111 O83 1.214 . S
C111 O91 1.234 . S
C112 H84 0.929 . S
C112 C115 1.391 . S
C112 C117 1.391 . S
C113 H85 0.929 . S
C113 C114 1.390 . S
C113 N116 1.391 . S
C114 H86 0.930 . S
C114 C113 1.390 . S
C114 C115 1.392 . S
C115 H87 0.929 . S
C115 C112 1.391 . S
C115 C114 1.392 . S
N116 Co60 2.257 . S
N116 C113 1.391 . S
N116 C117 1.388 . S
C117 H88 0.930 . S
C117 C112 1.391 . S
C117 N116 1.388 . S
Co118 O120 2.143 . S
Co118 O126 2.074 . S
Co118 O129 2.093 1_554 S
Co118 O142 2.097 . S
Co118 N159 2.151 1_554 S
Co118 N167 2.214 . S
Co119 O120 2.160 . S
Co119 O125 2.058 . S
Co119 O135 2.057 . S
Co119 O150 2.037 . S
Co119 N154 2.145 . S
Co119 N175 2.257 . S
O120 Co118 2.143 . S
O120 Co119 2.160 . S
C121 O122 1.278 . S
C121 O129 1.224 . S
O122 C121 1.278 . S
C123 O124 1.245 1_554 S
C123 O135 1.232 . S
O124 C123 1.245 1_556 S
O125 Co119 2.058 . S
O125 C151 1.269 . S
O126 Co118 2.074 . S
O126 C151 1.257 . S
H127 C152 0.930 . S
H128 C158 0.930 . S
O129 Co118 2.093 1_556 S
O129 C121 1.224 . S
H130 C162 0.929 . S
H131 C164 0.930 . S
H132 C165 0.930 . S
H133 C163 0.929 1_554 S
H134 C166 0.928 . S
O135 Co119 2.057 . S
O135 C123 1.232 . S
H136 C155 0.929 . S
H137 C156 0.929 . S
H138 C168 0.931 . S
H139 C160 0.929 . S
H140 C169 0.930 . S
H141 C161 0.931 . S
O142 Co118 2.097 . S
O142 C170 1.214 . S
H143 C171 0.940 . S
H144 C172 0.929 . S
H145 C173 0.930 . S
H146 C174 0.929 . S
H147 C176 0.930 1_556 S
H148 C153 0.930 . S
H149 C157 0.930 . S
O150 Co119 2.037 . S
O150 C170 1.234 . S
C151 O125 1.269 . S
C151 O126 1.257 . S
C152 H127 0.930 . S
C152 C155 1.388 . S
C152 C157 1.418 . S
C153 H148 0.930 . S
C153 C156 1.404 . S
C153 C157 1.353 . S
N154 Co119 2.145 . S
N154 C155 1.397 . S
N154 C156 1.334 . S
C155 H136 0.929 . S
C155 C152 1.388 . S
C155 N154 1.397 . S
C156 H137 0.929 . S
C156 C153 1.404 . S
C156 N154 1.334 . S
C157 H149 0.930 . S
C157 C152 1.418 . S
C157 C153 1.353 . S
C158 H128 0.930 . S
C158 N159 1.330 . S
C158 C160 1.446 . S
N159 Co118 2.151 1_556 S
N159 C158 1.330 . S
N159 C163 1.418 . S
C160 H139 0.929 . S
C160 C158 1.446 . S
C160 C161 1.332 . S
C161 H141 0.931 . S
C161 C160 1.332 . S
C161 C162 1.267 . S
C162 H130 0.929 . S
C162 C161 1.267 . S
C162 C163 1.251 . S
C163 H133 0.929 1_556 S
C163 N159 1.418 . S
C163 C162 1.251 . S
C164 H131 0.930 . S
C164 C166 1.406 1_545 S
C164 C169 1.261 1_556 S
C165 H132 0.930 . S
C165 N167 1.325 . S
C165 C168 1.357 1_565 S
C166 H134 0.928 . S
C166 C164 1.406 1_565 S
C166 N167 1.261 1_556 S
N167 Co118 2.214 . S
N167 C165 1.325 . S
N167 C166 1.261 1_554 S
C168 H138 0.931 . S
C168 C165 1.357 1_545 S
C168 C169 1.312 . S
C169 H140 0.930 . S
C169 C164 1.261 1_554 S
C169 C168 1.312 . S
C170 O142 1.214 . S
C170 O150 1.234 . S
C171 H143 0.940 . S
C171 C174 1.384 1_556 S
C171 C176 1.388 1_556 S
C172 H144 0.929 . S
C172 C173 1.390 . S
C172 N175 1.391 . S
C173 H145 0.930 . S
C173 C172 1.390 . S
C173 C174 1.392 . S
C174 H146 0.929 . S
C174 C171 1.384 1_554 S
C174 C173 1.392 . S
N175 Co119 2.257 . S
N175 C172 1.391 . S
N175 C176 1.388 . S
C176 H147 0.930 1_554 S
C176 C171 1.388 1_554 S
C176 N175 1.388 . S
Co177 O179 2.143 . S
Co177 O185 2.074 . S
Co177 O188 2.093 . S
Co177 O201 2.097 . S
Co177 N218 2.151 . S
Co177 N226 2.214 . S
Co178 O179 2.160 . S
Co178 O184 2.058 . S
Co178 O194 2.057 . S
Co178 O209 2.037 . S
Co178 N213 2.145 . S
Co178 N234 2.257 . S
O179 Co177 2.143 . S
O179 Co178 2.160 . S
C180 O181 1.278 . S
C180 O188 1.224 . S
O181 C180 1.278 . S
C182 O183 1.245 . S
C182 O194 1.232 . S
O183 C182 1.245 . S
O184 Co178 2.058 . S
O184 C210 1.269 . S
O185 Co177 2.074 . S
O185 C210 1.257 . S
H186 C211 0.930 . S
H187 C217 0.930 . S
O188 Co177 2.093 . S
O188 C180 1.224 . S
H189 C221 0.929 . S
H190 C223 0.930 . S
H191 C224 0.930 . S
H192 C222 0.929 . S
H193 C225 0.928 . S
O194 Co178 2.057 . S
O194 C182 1.232 . S
H195 C214 0.929 . S
H196 C215 0.929 . S
H197 C227 0.931 . S
H198 C219 0.929 . S
H199 C228 0.930 . S
H200 C220 0.931 . S
O201 Co177 2.097 . S
O201 C229 1.214 . S
H202 C230 0.929 . S
H203 C231 0.929 . S
H204 C232 0.930 . S
H205 C233 0.929 . S
H206 C235 0.930 . S
H207 C212 0.930 . S
H208 C216 0.930 . S
O209 Co178 2.037 . S
O209 C229 1.234 . S
C210 O184 1.269 . S
C210 O185 1.257 . S
C211 H186 0.930 . S
C211 C214 1.388 . S
C211 C216 1.418 . S
C212 H207 0.930 . S
C212 C215 1.404 . S
C212 C216 1.353 . S
N213 Co178 2.145 . S
N213 C214 1.397 . S
N213 C215 1.334 . S
C214 H195 0.929 . S
C214 C211 1.388 . S
C214 N213 1.397 . S
C215 H196 0.929 . S
C215 C212 1.404 . S
C215 N213 1.334 . S
C216 H208 0.930 . S
C216 C211 1.418 . S
C216 C212 1.353 . S
C217 H187 0.930 . S
C217 N218 1.330 . S
C217 C219 1.446 . S
N218 Co177 2.151 . S
N218 C217 1.330 . S
N218 C222 1.418 . S
C219 H198 0.929 . S
C219 C217 1.446 . S
C219 C220 1.332 . S
C220 H200 0.931 . S
C220 C219 1.332 . S
C220 C221 1.267 . S
C221 H189 0.929 . S
C221 C220 1.267 . S
C221 C222 1.251 . S
C222 H192 0.929 . S
C222 N218 1.418 . S
C222 C221 1.251 . S
C223 H190 0.930 . S
C223 C225 1.406 . S
C223 C228 1.261 . S
C224 H191 0.930 . S
C224 N226 1.325 . S
C224 C227 1.357 . S
C225 H193 0.928 . S
C225 C223 1.406 . S
C225 N226 1.261 . S
N226 Co177 2.214 . S
N226 C224 1.325 . S
N226 C225 1.261 . S
C227 H197 0.931 . S
C227 C224 1.357 . S
C227 C228 1.312 . S
C228 H199 0.930 . S
C228 C223 1.261 . S
C228 C227 1.312 . S
C229 O201 1.214 . S
C229 O209 1.234 . S
C230 H202 0.929 . S
C230 C233 1.391 . S
C230 C235 1.391 . S
C231 H203 0.929 . S
C231 C232 1.390 . S
C231 N234 1.391 . S
C232 H204 0.930 . S
C232 C231 1.390 . S
C232 C233 1.392 . S
C233 H205 0.929 . S
C233 C230 1.391 . S
C233 C232 1.392 . S
N234 Co178 2.257 . S
N234 C231 1.391 . S
N234 C235 1.388 . S
C235 H206 0.930 . S
C235 C230 1.391 . S
C235 N234 1.388 . S
Co236 O238 2.143 1_655 S
Co236 O244 2.074 . S
Co236 O247 2.093 1_656 S
Co236 O260 2.097 1_655 S
Co236 N277 2.151 1_556 S
Co236 N285 2.214 . S
Co237 O238 2.160 . S
Co237 O243 2.058 1_455 S
Co237 O253 2.057 1_455 S
Co237 O268 2.037 . S
Co237 N272 2.145 . S
Co237 N293 2.257 . S
O238 Co236 2.143 1_455 S
O238 Co237 2.160 . S
C239 O240 1.278 . S
C239 O247 1.224 . S
O240 C239 1.278 . S
C241 O242 1.245 1_556 S
C241 O253 1.232 . S
O242 C241 1.245 1_554 S
O243 Co237 2.058 1_655 S
O243 C269 1.269 . S
O244 Co236 2.074 . S
O244 C269 1.257 . S
H245 C270 0.930 . S
H246 C276 0.930 . S
O247 Co236 2.093 1_454 S
O247 C239 1.224 . S
H248 C280 0.929 . S
H249 C282 0.930 1_554 S
H250 C283 0.930 . S
H251 C281 0.929 1_556 S
H252 C284 0.928 . S
O253 Co237 2.057 1_655 S
O253 C241 1.232 . S
H254 C273 0.929 . S
H255 C274 0.929 . S
H256 C286 0.931 . S
H257 C278 0.929 . S
H258 C287 0.930 . S
H259 C279 0.931 . S
O260 Co236 2.097 1_455 S
O260 C288 1.214 . S
H261 C289 0.929 1_554 S
H262 C290 0.929 . S
H263 C291 0.930 . S
H264 C292 0.929 . S
H265 C294 0.920 1_554 S
H266 C271 0.930 . S
H267 C275 0.930 . S
O268 Co237 2.037 . S
O268 C288 1.234 . S
C269 O243 1.269 . S
C269 O244 1.257 . S
C270 H245 0.930 . S
C270 C273 1.388 . S
C270 C275 1.418 . S
C271 H266 0.930 . S
C271 C274 1.404 . S
C271 C275 1.353 . S
N272 Co237 2.145 . S
N272 C273 1.397 . S
N272 C274 1.334 . S
C273 H254 0.929 . S
C273 C270 1.388 . S
C273 N272 1.397 . S
C274 H255 0.929 . S
C274 C271 1.404 . S
C274 N272 1.334 . S
C275 H267 0.930 . S
C275 C270 1.418 . S
C275 C271 1.353 . S
C276 H246 0.930 . S
C276 N277 1.330 . S
C276 C278 1.446 . S
N277 Co236 2.151 1_554 S
N277 C276 1.330 . S
N277 C281 1.418 . S
C278 H257 0.929 . S
C278 C276 1.446 . S
C278 C279 1.332 . S
C279 H259 0.931 . S
C279 C278 1.332 . S
C279 C280 1.267 . S
C280 H248 0.929 . S
C280 C279 1.267 . S
C280 C281 1.251 . S
C281 H251 0.929 1_554 S
C281 N277 1.418 . S
C281 C280 1.251 . S
C282 H249 0.930 1_556 S
C282 C284 1.406 1_546 S
C282 C287 1.261 . S
C283 H250 0.930 . S
C283 N285 1.325 . S
C283 C286 1.357 1_565 S
C284 H252 0.928 . S
C284 C282 1.406 1_564 S
C284 N285 1.261 1_554 S
N285 Co236 2.214 . S
N285 C283 1.325 . S
N285 C284 1.261 1_556 S
C286 H256 0.931 . S
C286 C283 1.357 1_545 S
C286 C287 1.312 . S
C287 H258 0.930 . S
C287 C282 1.261 . S
C287 C286 1.312 . S
C288 O260 1.214 . S
C288 O268 1.234 . S
C289 H261 0.929 1_556 S
C289 C292 1.391 . S
C289 C294 1.391 . S
C290 H262 0.929 . S
C290 C291 1.390 . S
C290 N293 1.391 . S
C291 H263 0.930 . S
C291 C290 1.390 . S
C291 C292 1.392 . S
C292 H264 0.929 . S
C292 C289 1.391 . S
C292 C291 1.392 . S
N293 Co237 2.257 . S
N293 C290 1.391 . S
N293 C294 1.388 . S
C294 H265 0.920 1_556 S
C294 C289 1.391 . S
C294 N293 1.388 . S
Co295 O297 2.143 1_565 S
Co295 O303 2.074 . S
Co295 O306 2.093 1_565 S
Co295 O319 2.097 1_565 S
Co295 N336 2.151 . S
Co295 N344 2.214 . S
Co296 O297 2.160 . S
Co296 O302 2.058 1_545 S
Co296 O312 2.057 1_545 S
Co296 O327 2.037 . S
Co296 N331 2.145 . S
Co296 N352 2.257 . S
O297 Co295 2.143 1_545 S
O297 Co296 2.160 . S
C298 O299 1.278 . S
C298 O306 1.224 . S
O299 C298 1.278 . S
C300 O301 1.245 . S
C300 O312 1.232 . S
O301 C300 1.245 . S
O302 Co296 2.058 1_565 S
O302 C328 1.269 . S
O303 Co295 2.074 . S
O303 C328 1.257 . S
H304 C329 0.930 . S
H305 C335 0.930 . S
O306 Co295 2.093 1_545 S
O306 C298 1.224 . S
H307 C339 0.929 . S
H308 C341 0.930 . S
H309 C342 0.930 . S
H310 C340 0.929 . S
H311 C343 0.928 . S
O312 Co296 2.057 1_565 S
O312 C300 1.232 . S
H313 C332 0.929 . S
H314 C333 0.929 . S
H315 C345 0.931 . S
H316 C337 0.929 . S
H317 C346 0.930 . S
H318 C338 0.931 . S
O319 Co295 2.097 1_545 S
O319 C347 1.214 . S
H320 C348 0.929 . S
H321 C349 0.929 . S
H322 C350 0.930 . S
H323 C351 0.929 . S
H324 C353 0.930 . S
H325 C330 0.930 . S
H326 C334 0.930 . S
O327 Co296 2.037 . S
O327 C347 1.234 . S
C328 O302 1.269 . S
C328 O303 1.257 . S
C329 H304 0.930 . S
C329 C332 1.388 . S
C329 C334 1.418 . S
C330 H325 0.930 . S
C330 C333 1.404 . S
C330 C334 1.353 . S
N331 Co296 2.145 . S
N331 C332 1.397 . S
N331 C333 1.334 . S
C332 H313 0.929 . S
C332 C329 1.388 . S
C332 N331 1.397 . S
C333 H314 0.929 . S
C333 C330 1.404 . S
C333 N331 1.334 . S
C334 H326 0.930 . S
C334 C329 1.418 . S
C334 C330 1.353 . S
C335 H305 0.930 . S
C335 N336 1.330 . S
C335 C337 1.446 . S
N336 Co295 2.151 . S
N336 C335 1.330 . S
N336 C340 1.418 . S
C337 H316 0.929 . S
C337 C335 1.446 . S
C337 C338 1.332 . S
C338 H318 0.931 . S
C338 C337 1.332 . S
C338 C339 1.267 . S
C339 H307 0.929 . S
C339 C338 1.267 . S
C339 C340 1.251 . S
C340 H310 0.929 . S
C340 N336 1.418 . S
C340 C339 1.251 . S
C341 H308 0.930 . S
C341 C343 1.406 . S
C341 C346 1.261 . S
C342 H309 0.930 . S
C342 N344 1.325 . S
C342 C345 1.357 . S
C343 H311 0.928 . S
C343 C341 1.406 . S
C343 N344 1.261 . S
N344 Co295 2.214 . S
N344 C342 1.325 . S
N344 C343 1.261 . S
C345 H315 0.931 . S
C345 C342 1.357 . S
C345 C346 1.312 . S
C346 H317 0.930 . S
C346 C341 1.261 . S
C346 C345 1.312 . S
C347 O319 1.214 . S
C347 O327 1.234 . S
C348 H320 0.929 . S
C348 C351 1.391 . S
C348 C353 1.391 . S
C349 H321 0.929 . S
C349 C350 1.390 . S
C349 N352 1.391 . S
C350 H322 0.930 . S
C350 C349 1.390 . S
C350 C351 1.392 . S
C351 H323 0.929 . S
C351 C348 1.391 . S
C351 C350 1.392 . S
N352 Co296 2.257 . S
N352 C349 1.391 . S
N352 C353 1.388 . S
C353 H324 0.930 . S
C353 C348 1.391 . S
C353 N352 1.388 . S
Co354 O356 2.143 . S
Co354 O362 2.074 1_554 S
Co354 O365 2.093 . S
Co354 O378 2.097 1_554 S
Co354 N395 2.151 . S
Co354 N403 2.214 1_554 S
Co355 O356 2.160 1_556 S
Co355 O361 2.058 . S
Co355 O371 2.057 . S
Co355 O386 2.037 . S
Co355 N390 2.145 . S
Co355 N411 2.257 . S
O356 Co354 2.143 . S
O356 Co355 2.160 1_554 S
C357 O358 1.278 . S
C357 O365 1.224 . S
O358 C357 1.278 . S
C359 O360 1.245 . S
C359 O371 1.232 1_554 S
O360 C359 1.245 . S
O361 Co355 2.058 . S
O361 C387 1.269 . S
O362 Co354 2.074 1_556 S
O362 C387 1.257 . S
H363 C388 0.930 . S
H364 C394 0.930 . S
O365 Co354 2.093 . S
O365 C357 1.224 . S
H366 C398 0.929 . S
H367 C400 0.930 . S
H368 C401 0.930 . S
H369 C399 0.929 . S
H370 C402 0.928 . S
O371 Co355 2.057 . S
O371 C359 1.232 1_556 S
H372 C391 0.929 . S
H373 C392 0.929 . S
H374 C404 0.931 . S
H375 C396 0.929 . S
H376 C405 0.930 . S
H377 C397 0.931 . S
O378 Co354 2.097 1_556 S
O378 C406 1.214 . S
H379 C407 0.929 . S
H380 C408 0.929 . S
H381 C409 0.930 . S
H382 C410 0.929 1_554 S
H383 C412 0.930 . S
H384 C389 0.930 . S
H385 C393 0.930 . S
O386 Co355 2.037 . S
O386 C406 1.234 . S
C387 O361 1.269 . S
C387 O362 1.257 . S
C388 H363 0.930 . S
C388 C391 1.388 . S
C388 C393 1.418 . S
C389 H384 0.930 . S
C389 C392 1.404 . S
C389 C393 1.353 . S
N390 Co355 2.145 . S
N390 C391 1.397 . S
N390 C392 1.334 . S
C391 H372 0.929 . S
C391 C388 1.388 . S
C391 N390 1.397 . S
C392 H373 0.929 . S
C392 C389 1.404 . S
C392 N390 1.334 . S
C393 H385 0.930 . S
C393 C388 1.418 . S
C393 C389 1.353 . S
C394 H364 0.930 . S
C394 N395 1.330 . S
C394 C396 1.446 . S
N395 Co354 2.151 . S
N395 C394 1.330 . S
N395 C399 1.418 . S
C396 H375 0.929 . S
C396 C394 1.446 . S
C396 C397 1.332 . S
C397 H377 0.931 . S
C397 C396 1.332 . S
C397 C398 1.267 . S
C398 H366 0.929 . S
C398 C397 1.267 . S
C398 C399 1.251 . S
C399 H369 0.929 . S
C399 N395 1.418 . S
C399 C398 1.251 . S
C400 H367 0.930 . S
C400 C402 1.406 . S
C400 C405 1.261 1_554 S
C401 H368 0.930 . S
C401 N403 1.325 . S
C401 C404 1.357 . S
C402 H370 0.928 . S
C402 C400 1.406 . S
C402 N403 1.261 1_554 S
N403 Co354 2.214 1_556 S
N403 C401 1.325 . S
N403 C402 1.261 1_556 S
C404 H374 0.931 . S
C404 C401 1.357 . S
C404 C405 1.312 . S
C405 H376 0.930 . S
C405 C400 1.261 1_556 S
C405 C404 1.312 . S
C406 O378 1.214 . S
C406 O386 1.234 . S
C407 H379 0.929 . S
C407 C410 1.391 1_554 S
C407 C412 1.391 . S
C408 H380 0.929 . S
C408 C409 1.390 . S
C408 N411 1.391 . S
C409 H381 0.930 . S
C409 C408 1.390 . S
C409 C410 1.392 . S
C410 H382 0.929 1_556 S
C410 C407 1.391 1_556 S
C410 C409 1.392 . S
N411 Co355 2.257 . S
N411 C408 1.391 . S
N411 C412 1.388 1_556 S
C412 H383 0.930 . S
C412 C407 1.391 . S
C412 N411 1.388 1_554 S
Co413 O415 2.143 . S
Co413 O421 2.074 . S
Co413 O424 2.093 . S
Co413 O437 2.097 . S
Co413 N454 2.151 . S
Co413 N462 2.214 . S
Co414 O415 2.160 . S
Co414 O420 2.058 . S
Co414 O430 2.057 . S
Co414 O445 2.037 . S
Co414 N449 2.145 . S
Co414 N470 2.257 . S
O415 Co413 2.143 . S
O415 Co414 2.160 . S
C416 O417 1.278 . S
C416 O424 1.224 . S
O417 C416 1.278 . S
C418 O419 1.245 . S
C418 O430 1.232 . S
O419 C418 1.245 . S
O420 Co414 2.058 . S
O420 C446 1.269 . S
O421 Co413 2.074 . S
O421 C446 1.257 . S
H422 C447 0.930 . S
H423 C453 0.930 . S
O424 Co413 2.093 . S
O424 C416 1.224 . S
H425 C457 0.929 . S
H426 C459 0.930 . S
H427 C460 0.930 . S
H428 C458 0.929 . S
H429 C461 0.928 . S
O430 Co414 2.057 . S
O430 C418 1.232 . S
H431 C450 0.929 . S
H432 C451 0.929 . S
H433 C463 0.931 . S
H434 C455 0.929 . S
H435 C464 0.930 . S
H436 C456 0.931 . S
O437 Co413 2.097 . S
O437 C465 1.214 . S
H438 C466 0.929 . S
H439 C467 0.929 . S
H440 C468 0.930 . S
H441 C469 0.929 . S
H442 C471 0.930 . S
H443 C448 0.930 . S
H444 C452 0.930 . S
O445 Co414 2.037 . S
O445 C465 1.234 . S
C446 O420 1.269 . S
C446 O421 1.257 . S
C447 H422 0.930 . S
C447 C450 1.388 . S
C447 C452 1.418 . S
C448 H443 0.930 . S
C448 C451 1.404 . S
C448 C452 1.353 . S
N449 Co414 2.145 . S
N449 C450 1.397 . S
N449 C451 1.334 . S
C450 H431 0.929 . S
C450 C447 1.388 . S
C450 N449 1.397 . S
C451 H432 0.929 . S
C451 C448 1.404 . S
C451 N449 1.334 . S
C452 H444 0.930 . S
C452 C447 1.418 . S
C452 C448 1.353 . S
C453 H423 0.930 . S
C453 N454 1.330 . S
C453 C455 1.446 . S
N454 Co413 2.151 . S
N454 C453 1.330 . S
N454 C458 1.418 . S
C455 H434 0.929 . S
C455 C453 1.446 . S
C455 C456 1.332 . S
C456 H436 0.931 . S
C456 C455 1.332 . S
C456 C457 1.267 . S
C457 H425 0.929 . S
C457 C456 1.267 . S
C457 C458 1.251 . S
C458 H428 0.929 . S
C458 N454 1.418 . S
C458 C457 1.251 . S
C459 H426 0.930 . S
C459 C461 1.406 1_455 S
C459 C464 1.261 . S
C460 H427 0.930 . S
C460 N462 1.325 . S
C460 C463 1.357 1_655 S
C461 H429 0.928 . S
C461 C459 1.406 1_655 S
C461 N462 1.261 . S
N462 Co413 2.214 . S
N462 C460 1.325 . S
N462 C461 1.261 . S
C463 H433 0.931 . S
C463 C460 1.357 1_455 S
C463 C464 1.312 . S
C464 H435 0.930 . S
C464 C459 1.261 . S
C464 C463 1.312 . S
C465 O437 1.214 . S
C465 O445 1.234 . S
C466 H438 0.929 . S
C466 C469 1.391 . S
C466 C471 1.391 . S
C467 H439 0.929 . S
C467 C468 1.390 . S
C467 N470 1.391 . S
C468 H440 0.930 . S
C468 C467 1.390 . S
C468 C469 1.392 . S
C469 H441 0.929 . S
C469 C466 1.391 . S
C469 C468 1.392 . S
N470 Co414 2.257 . S
N470 C467 1.391 . S
N470 C471 1.388 . S
C471 H442 0.930 . S
C471 C466 1.391 . S
C471 N470 1.388 . S
Co472 O474 2.143 1_455 S
Co472 O480 2.074 . S
Co472 O483 2.093 1_456 S
Co472 O496 2.097 1_455 S
Co472 N513 2.151 1_556 S
Co472 N521 2.214 . S
Co473 O474 2.160 . S
Co473 O479 2.058 1_655 S
Co473 O489 2.057 1_655 S
Co473 O504 2.037 . S
Co473 N508 2.145 . S
Co473 N529 2.257 . S
O474 Co472 2.143 1_655 S
O474 Co473 2.160 . S
C475 O476 1.278 . S
C475 O483 1.224 . S
O476 C475 1.278 . S
C477 O478 1.245 . S
C477 O489 1.232 1_554 S
O478 C477 1.245 . S
O479 Co473 2.058 1_455 S
O479 C505 1.269 . S
O480 Co472 2.074 . S
O480 C505 1.257 . S
H481 C506 0.930 . S
H482 C512 0.930 . S
O483 Co472 2.093 1_654 S
O483 C475 1.224 . S
H484 C516 0.929 . S
H485 C518 0.930 . S
H486 C519 0.930 . S
H487 C517 0.929 . S
H488 C520 0.928 . S
O489 Co473 2.057 1_455 S
O489 C477 1.232 1_556 S
H490 C509 0.929 . S
H491 C510 0.929 . S
H492 C522 0.931 . S
H493 C514 0.929 . S
H494 C523 0.930 . S
H495 C515 0.931 . S
O496 Co472 2.097 1_655 S
O496 C524 1.214 . S
H497 C525 0.929 . S
H498 C526 0.929 . S
H499 C527 0.930 . S
H500 C528 0.929 . S
H501 C530 0.930 1_554 S
H502 C507 0.930 . S
H503 C511 0.930 . S
O504 Co473 2.037 . S
O504 C524 1.234 . S
C505 O479 1.269 . S
C505 O480 1.257 . S
C506 H481 0.930 . S
C506 C509 1.388 . S
C506 C511 1.418 . S
C507 H502 0.930 . S
C507 C510 1.404 . S
C507 C511 1.353 . S
N508 Co473 2.145 . S
N508 C509 1.397 . S
N508 C510 1.334 . S
C509 H490 0.929 . S
C509 C506 1.388 . S
C509 N508 1.397 . S
C510 H491 0.929 . S
C510 C507 1.404 . S
C510 N508 1.334 . S
C511 H503 0.930 . S
C511 C506 1.418 . S
C511 C507 1.353 . S
C512 H482 0.930 . S
C512 N513 1.330 . S
C512 C514 1.446 . S
N513 Co472 2.151 1_554 S
N513 C512 1.330 . S
N513 C517 1.418 . S
C514 H493 0.929 . S
C514 C512 1.446 . S
C514 C515 1.332 . S
C515 H495 0.931 . S
C515 C514 1.332 . S
C515 C516 1.267 . S
C516 H484 0.929 . S
C516 C515 1.267 . S
C516 C517 1.251 . S
C517 H487 0.929 . S
C517 N513 1.418 . S
C517 C516 1.251 . S
C518 H485 0.930 . S
C518 C520 1.406 . S
C518 C523 1.261 1_554 S
C519 H486 0.930 . S
C519 N521 1.325 . S
C519 C522 1.357 . S
C520 H488 0.928 . S
C520 C518 1.406 . S
C520 N521 1.261 1_554 S
N521 Co472 2.214 . S
N521 C519 1.325 . S
N521 C520 1.261 1_556 S
C522 H492 0.931 . S
C522 C519 1.357 . S
C522 C523 1.312 . S
C523 H494 0.930 . S
C523 C518 1.261 1_556 S
C523 C522 1.312 . S
C524 O496 1.214 . S
C524 O504 1.234 . S
C525 H497 0.929 . S
C525 C528 1.391 1_554 S
C525 C530 1.391 1_554 S
C526 H498 0.929 . S
C526 C527 1.390 . S
C526 N529 1.391 . S
C527 H499 0.930 . S
C527 C526 1.390 . S
C527 C528 1.392 . S
C528 H500 0.929 . S
C528 C525 1.391 1_556 S
C528 C527 1.392 . S
N529 Co473 2.257 . S
N529 C526 1.391 . S
N529 C530 1.388 . S
C530 H501 0.930 1_556 S
C530 C525 1.391 1_556 S
C530 N529 1.388 . S
Co531 O533 2.143 1_545 S
Co531 O539 2.074 . S
Co531 O542 2.093 1_545 S
Co531 O555 2.097 1_545 S
Co531 N572 2.151 . S
Co531 N580 2.214 . S
Co532 O533 2.160 . S
Co532 O538 2.058 1_565 S
Co532 O548 2.057 1_565 S
Co532 O563 2.037 . S
Co532 N567 2.145 . S
Co532 N588 2.257 . S
O533 Co531 2.143 1_565 S
O533 Co532 2.160 . S
C534 O535 1.278 . S
C534 O542 1.224 . S
O535 C534 1.278 . S
C536 O537 1.245 . S
C536 O548 1.232 . S
O537 C536 1.245 . S
O538 Co532 2.058 1_545 S
O538 C564 1.269 . S
O539 Co531 2.074 . S
O539 C564 1.257 . S
H540 C565 0.930 . S
H541 C571 0.930 . S
O542 Co531 2.093 1_565 S
O542 C534 1.224 . S
H543 C575 0.929 . S
H544 C577 0.930 . S
H545 C578 0.930 . S
H546 C576 0.929 . S
H547 C579 0.928 . S
O548 Co532 2.057 1_545 S
O548 C536 1.232 . S
H549 C568 0.929 . S
H550 C569 0.929 . S
H551 C581 0.931 . S
H552 C573 0.929 . S
H553 C582 0.930 . S
H554 C574 0.931 . S
O555 Co531 2.097 1_565 S
O555 C583 1.214 . S
H556 C584 0.929 . S
H557 C585 0.929 . S
H558 C586 0.930 . S
H559 C587 0.929 . S
H560 C589 0.930 . S
H561 C566 0.930 . S
H562 C570 0.930 . S
O563 Co532 2.037 . S
O563 C583 1.234 . S
C564 O538 1.269 . S
C564 O539 1.257 . S
C565 H540 0.930 . S
C565 C568 1.388 . S
C565 C570 1.418 . S
C566 H561 0.930 . S
C566 C569 1.404 . S
C566 C570 1.353 . S
N567 Co532 2.145 . S
N567 C568 1.397 . S
N567 C569 1.334 . S
C568 H549 0.929 . S
C568 C565 1.388 . S
C568 N567 1.397 . S
C569 H550 0.929 . S
C569 C566 1.404 . S
C569 N567 1.334 . S
C570 H562 0.930 . S
C570 C565 1.418 . S
C570 C566 1.353 . S
C571 H541 0.930 . S
C571 N572 1.330 . S
C571 C573 1.446 . S
N572 Co531 2.151 . S
N572 C571 1.330 . S
N572 C576 1.418 . S
C573 H552 0.929 . S
C573 C571 1.446 . S
C573 C574 1.332 . S
C574 H554 0.931 . S
C574 C573 1.332 . S
C574 C575 1.267 . S
C575 H543 0.929 . S
C575 C574 1.267 . S
C575 C576 1.251 . S
C576 H546 0.929 . S
C576 N572 1.418 . S
C576 C575 1.251 . S
C577 H544 0.930 . S
C577 C579 1.406 1_655 S
C577 C582 1.261 . S
C578 H545 0.930 . S
C578 N580 1.325 . S
C578 C581 1.357 1_455 S
C579 H547 0.928 . S
C579 C577 1.406 1_455 S
C579 N580 1.261 . S
N580 Co531 2.214 . S
N580 C578 1.325 . S
N580 C579 1.261 . S
C581 H551 0.931 . S
C581 C578 1.357 1_655 S
C581 C582 1.312 . S
C582 H553 0.930 . S
C582 C577 1.261 . S
C582 C581 1.312 . S
C583 O555 1.214 . S
C583 O563 1.234 . S
C584 H556 0.929 . S
C584 C587 1.391 . S
C584 C589 1.391 . S
C585 H557 0.929 . S
C585 C586 1.390 . S
C585 N588 1.391 . S
C586 H558 0.930 . S
C586 C585 1.390 . S
C586 C587 1.392 . S
C587 H559 0.929 . S
C587 C584 1.391 . S
C587 C586 1.392 . S
N588 Co532 2.257 . S
N588 C585 1.391 . S
N588 C589 1.388 . S
C589 H560 0.930 . S
C589 C584 1.391 . S
C589 N588 1.388 . S
Co590 O592 2.143 . S
Co590 O598 2.074 . S
Co590 O601 2.093 1_556 S
Co590 O614 2.097 . S
Co590 N631 2.151 1_556 S
Co590 N639 2.214 . S
Co591 O592 2.160 . S
Co591 O597 2.058 . S
Co591 O607 2.057 . S
Co591 O622 2.037 . S
Co591 N626 2.145 . S
Co591 N647 2.257 . S
O592 Co590 2.143 . S
O592 Co591 2.160 . S
C593 O594 1.278 . S
C593 O601 1.224 . S
O594 C593 1.278 . S
C595 O596 1.245 1_556 S
C595 O607 1.232 . S
O596 C595 1.245 1_554 S
O597 Co591 2.058 . S
O597 C623 1.269 . S
O598 Co590 2.074 . S
O598 C623 1.257 . S
H599 C624 0.930 . S
H600 C630 0.930 . S
O601 Co590 2.093 1_554 S
O601 C593 1.224 . S
H602 C634 0.929 . S
H603 C636 0.930 . S
H604 C637 0.930 . S
H605 C635 0.929 1_556 S
H606 C638 0.928 . S
O607 Co591 2.057 . S
O607 C595 1.232 . S
H608 C627 0.929 . S
H609 C628 0.929 . S
H610 C640 0.931 . S
H611 C632 0.929 . S
H612 C641 0.930 . S
H613 C633 0.931 . S
O614 Co590 2.097 . S
O614 C642 1.214 . S
H615 C643 0.940 . S
H616 C644 0.929 . S
H617 C645 0.930 . S
H618 C646 0.929 . S
H619 C648 0.930 1_554 S
H620 C625 0.930 . S
H621 C629 0.930 . S
O622 Co591 2.037 . S
O622 C642 1.234 . S
C623 O597 1.269 . S
C623 O598 1.257 . S
C624 H599 0.930 . S
C624 C627 1.388 . S
C624 C629 1.418 . S
C625 H620 0.930 . S
C625 C628 1.404 . S
C625 C629 1.353 . S
N626 Co591 2.145 . S
N626 C627 1.397 . S
N626 C628 1.334 . S
C627 H608 0.929 . S
C627 C624 1.388 . S
C627 N626 1.397 . S
C628 H609 0.929 . S
C628 C625 1.404 . S
C628 N626 1.334 . S
C629 H621 0.930 . S
C629 C624 1.418 . S
C629 C625 1.353 . S
C630 H600 0.930 . S
C630 N631 1.330 . S
C630 C632 1.446 . S
N631 Co590 2.151 1_554 S
N631 C630 1.330 . S
N631 C635 1.418 . S
C632 H611 0.929 . S
C632 C630 1.446 . S
C632 C633 1.332 . S
C633 H613 0.931 . S
C633 C632 1.332 . S
C633 C634 1.267 . S
C634 H602 0.929 . S
C634 C633 1.267 . S
C634 C635 1.251 . S
C635 H605 0.929 1_554 S
C635 N631 1.418 . S
C635 C634 1.251 . S
C636 H603 0.930 . S
C636 C638 1.406 1_565 S
C636 C641 1.261 1_554 S
C637 H604 0.930 . S
C637 N639 1.325 . S
C637 C640 1.357 1_545 S
C638 H606 0.928 . S
C638 C636 1.406 1_545 S
C638 N639 1.261 1_554 S
N639 Co590 2.214 . S
N639 C637 1.325 . S
N639 C638 1.261 1_556 S
C640 H610 0.931 . S
C640 C637 1.357 1_565 S
C640 C641 1.312 . S
C641 H612 0.930 . S
C641 C636 1.261 1_556 S
C641 C640 1.312 . S
C642 O614 1.214 . S
C642 O622 1.234 . S
C643 H615 0.940 . S
C643 C646 1.384 1_554 S
C643 C648 1.388 1_554 S
C644 H616 0.929 . S
C644 C645 1.390 . S
C644 N647 1.391 . S
C645 H617 0.930 . S
C645 C644 1.390 . S
C645 C646 1.392 . S
C646 H618 0.929 . S
C646 C643 1.384 1_556 S
C646 C645 1.392 . S
N647 Co591 2.257 . S
N647 C644 1.391 . S
N647 C648 1.388 . S
C648 H619 0.930 1_556 S
C648 C643 1.388 1_556 S
C648 N647 1.388 . S
Co649 O651 2.143 . S
Co649 O657 2.074 . S
Co649 O660 2.093 . S
Co649 O673 2.097 . S
Co649 N690 2.151 . S
Co649 N698 2.214 . S
Co650 O651 2.160 . S
Co650 O656 2.058 . S
Co650 O666 2.057 . S
Co650 O681 2.037 . S
Co650 N685 2.145 . S
Co650 N706 2.257 . S
O651 Co649 2.143 . S
O651 Co650 2.160 . S
C652 O653 1.278 . S
C652 O660 1.224 . S
O653 C652 1.278 . S
C654 O655 1.245 . S
C654 O666 1.232 . S
O655 C654 1.245 . S
O656 Co650 2.058 . S
O656 C682 1.269 . S
O657 Co649 2.074 . S
O657 C682 1.257 . S
H658 C683 0.930 . S
H659 C689 0.930 . S
O660 Co649 2.093 . S
O660 C652 1.224 . S
H661 C693 0.929 . S
H662 C695 0.930 . S
H663 C696 0.930 . S
H664 C694 0.929 . S
H665 C697 0.928 . S
O666 Co650 2.057 . S
O666 C654 1.232 . S
H667 C686 0.929 . S
H668 C687 0.929 . S
H669 C699 0.931 . S
H670 C691 0.929 . S
H671 C700 0.930 . S
H672 C692 0.931 . S
O673 Co649 2.097 . S
O673 C701 1.214 . S
H674 C702 0.929 . S
H675 C703 0.929 . S
H676 C704 0.930 . S
H677 C705 0.929 . S
H678 C707 0.930 . S
H679 C684 0.930 . S
H680 C688 0.930 . S
O681 Co650 2.037 . S
O681 C701 1.234 . S
C682 O656 1.269 . S
C682 O657 1.257 . S
C683 H658 0.930 . S
C683 C686 1.388 . S
C683 C688 1.418 . S
C684 H679 0.930 . S
C684 C687 1.404 . S
C684 C688 1.353 . S
N685 Co650 2.145 . S
N685 C686 1.397 . S
N685 C687 1.334 . S
C686 H667 0.929 . S
C686 C683 1.388 . S
C686 N685 1.397 . S
C687 H668 0.929 . S
C687 C684 1.404 . S
C687 N685 1.334 . S
C688 H680 0.930 . S
C688 C683 1.418 . S
C688 C684 1.353 . S
C689 H659 0.930 . S
C689 N690 1.330 . S
C689 C691 1.446 . S
N690 Co649 2.151 . S
N690 C689 1.330 . S
N690 C694 1.418 . S
C691 H670 0.929 . S
C691 C689 1.446 . S
C691 C692 1.332 . S
C692 H672 0.931 . S
C692 C691 1.332 . S
C692 C693 1.267 . S
C693 H661 0.929 . S
C693 C692 1.267 . S
C693 C694 1.251 . S
C694 H664 0.929 . S
C694 N690 1.418 . S
C694 C693 1.251 . S
C695 H662 0.930 . S
C695 C697 1.406 . S
C695 C700 1.261 . S
C696 H663 0.930 . S
C696 N698 1.325 . S
C696 C699 1.357 . S
C697 H665 0.928 . S
C697 C695 1.406 . S
C697 N698 1.261 . S
N698 Co649 2.214 . S
N698 C696 1.325 . S
N698 C697 1.261 . S
C699 H669 0.931 . S
C699 C696 1.357 . S
C699 C700 1.312 . S
C700 H671 0.930 . S
C700 C695 1.261 . S
C700 C699 1.312 . S
C701 O673 1.214 . S
C701 O681 1.234 . S
C702 H674 0.929 . S
C702 C705 1.391 . S
C702 C707 1.391 . S
C703 H675 0.929 . S
C703 C704 1.390 . S
C703 N706 1.391 . S
C704 H676 0.930 . S
C704 C703 1.390 . S
C704 C705 1.392 . S
C705 H677 0.929 . S
C705 C702 1.391 . S
C705 C704 1.392 . S
N706 Co650 2.257 . S
N706 C703 1.391 . S
N706 C707 1.388 . S
C707 H678 0.930 . S
C707 C702 1.391 . S
C707 N706 1.388 . S
Co708 O710 2.143 1_455 S
Co708 O716 2.074 . S
Co708 O719 2.093 1_454 S
Co708 O732 2.097 1_455 S
Co708 N749 2.151 1_554 S
Co708 N757 2.214 . S
Co709 O710 2.160 . S
Co709 O715 2.058 1_655 S
Co709 O725 2.057 1_655 S
Co709 O740 2.037 . S
Co709 N744 2.145 . S
Co709 N765 2.257 . S
O710 Co708 2.143 1_655 S
O710 Co709 2.160 . S
C711 O712 1.278 . S
C711 O719 1.224 . S
O712 C711 1.278 . S
C713 O714 1.245 1_554 S
C713 O725 1.232 . S
O714 C713 1.245 1_556 S
O715 Co709 2.058 1_455 S
O715 C741 1.269 . S
O716 Co708 2.074 . S
O716 C741 1.257 . S
H717 C742 0.930 . S
H718 C748 0.930 . S
O719 Co708 2.093 1_656 S
O719 C711 1.224 . S
H720 C752 0.929 . S
H721 C754 0.930 1_556 S
H722 C755 0.930 . S
H723 C753 0.929 1_554 S
H724 C756 0.928 . S
O725 Co709 2.057 1_455 S
O725 C713 1.232 . S
H726 C745 0.929 . S
H727 C746 0.929 . S
H728 C758 0.931 . S
H729 C750 0.929 . S
H730 C759 0.930 . S
H731 C751 0.931 . S
O732 Co708 2.097 1_655 S
O732 C760 1.214 . S
H733 C761 0.929 1_556 S
H734 C762 0.929 . S
H735 C763 0.930 . S
H736 C764 0.929 . S
H737 C766 0.920 1_556 S
H738 C743 0.930 . S
H739 C747 0.930 . S
O740 Co709 2.037 . S
O740 C760 1.234 . S
C741 O715 1.269 . S
C741 O716 1.257 . S
C742 H717 0.930 . S
C742 C745 1.388 . S
C742 C747 1.418 . S
C743 H738 0.930 . S
C743 C746 1.404 . S
C743 C747 1.353 . S
N744 Co709 2.145 . S
N744 C745 1.397 . S
N744 C746 1.334 . S
C745 H726 0.929 . S
C745 C742 1.388 . S
C745 N744 1.397 . S
C746 H727 0.929 . S
C746 C743 1.404 . S
C746 N744 1.334 . S
C747 H739 0.930 . S
C747 C742 1.418 . S
C747 C743 1.353 . S
C748 H718 0.930 . S
C748 N749 1.330 . S
C748 C750 1.446 . S
N749 Co708 2.151 1_556 S
N749 C748 1.330 . S
N749 C753 1.418 . S
C750 H729 0.929 . S
C750 C748 1.446 . S
C750 C751 1.332 . S
C751 H731 0.931 . S
C751 C750 1.332 . S
C751 C752 1.267 . S
C752 H720 0.929 . S
C752 C751 1.267 . S
C752 C753 1.251 . S
C753 H723 0.929 1_556 S
C753 N749 1.418 . S
C753 C752 1.251 . S
C754 H721 0.930 1_554 S
C754 C756 1.406 1_564 S
C754 C759 1.261 . S
C755 H722 0.930 . S
C755 N757 1.325 . S
C755 C758 1.357 1_545 S
C756 H724 0.928 . S
C756 C754 1.406 1_546 S
C756 N757 1.261 1_556 S
N757 Co708 2.214 . S
N757 C755 1.325 . S
N757 C756 1.261 1_554 S
C758 H728 0.931 . S
C758 C755 1.357 1_565 S
C758 C759 1.312 . S
C759 H730 0.930 . S
C759 C754 1.261 . S
C759 C758 1.312 . S
C760 O732 1.214 . S
C760 O740 1.234 . S
C761 H733 0.929 1_554 S
C761 C764 1.391 . S
C761 C766 1.391 . S
C762 H734 0.929 . S
C762 C763 1.390 . S
C762 N765 1.391 . S
C763 H735 0.930 . S
C763 C762 1.390 . S
C763 C764 1.392 . S
C764 H736 0.929 . S
C764 C761 1.391 . S
C764 C763 1.392 . S
N765 Co709 2.257 . S
N765 C762 1.391 . S
N765 C766 1.388 . S
C766 H737 0.920 1_554 S
C766 C761 1.391 . S
C766 N765 1.388 . S
Co767 O769 2.143 1_545 S
Co767 O775 2.074 . S
Co767 O778 2.093 1_545 S
Co767 O791 2.097 1_545 S
Co767 N808 2.151 . S
Co767 N816 2.214 . S
Co768 O769 2.160 . S
Co768 O774 2.058 1_565 S
Co768 O784 2.057 1_565 S
Co768 O799 2.037 . S
Co768 N803 2.145 . S
Co768 N824 2.257 . S
O769 Co767 2.143 1_565 S
O769 Co768 2.160 . S
C770 O771 1.278 . S
C770 O778 1.224 . S
O771 C770 1.278 . S
C772 O773 1.245 . S
C772 O784 1.232 . S
O773 C772 1.245 . S
O774 Co768 2.058 1_545 S
O774 C800 1.269 . S
O775 Co767 2.074 . S
O775 C800 1.257 . S
H776 C801 0.930 . S
H777 C807 0.930 . S
O778 Co767 2.093 1_565 S
O778 C770 1.224 . S
H779 C811 0.929 . S
H780 C813 0.930 . S
H781 C814 0.930 . S
H782 C812 0.929 . S
H783 C815 0.928 . S
O784 Co768 2.057 1_545 S
O784 C772 1.232 . S
H785 C804 0.929 . S
H786 C805 0.929 . S
H787 C817 0.931 . S
H788 C809 0.929 . S
H789 C818 0.930 . S
H790 C810 0.931 . S
O791 Co767 2.097 1_565 S
O791 C819 1.214 . S
H792 C820 0.929 . S
H793 C821 0.929 . S
H794 C822 0.930 . S
H795 C823 0.929 . S
H796 C825 0.930 . S
H797 C802 0.930 . S
H798 C806 0.930 . S
O799 Co768 2.037 . S
O799 C819 1.234 . S
C800 O774 1.269 . S
C800 O775 1.257 . S
C801 H776 0.930 . S
C801 C804 1.388 . S
C801 C806 1.418 . S
C802 H797 0.930 . S
C802 C805 1.404 . S
C802 C806 1.353 . S
N803 Co768 2.145 . S
N803 C804 1.397 . S
N803 C805 1.334 . S
C804 H785 0.929 . S
C804 C801 1.388 . S
C804 N803 1.397 . S
C805 H786 0.929 . S
C805 C802 1.404 . S
C805 N803 1.334 . S
C806 H798 0.930 . S
C806 C801 1.418 . S
C806 C802 1.353 . S
C807 H777 0.930 . S
C807 N808 1.330 . S
C807 C809 1.446 . S
N808 Co767 2.151 . S
N808 C807 1.330 . S
N808 C812 1.418 . S
C809 H788 0.929 . S
C809 C807 1.446 . S
C809 C810 1.332 . S
C810 H790 0.931 . S
C810 C809 1.332 . S
C810 C811 1.267 . S
C811 H779 0.929 . S
C811 C810 1.267 . S
C811 C812 1.251 . S
C812 H782 0.929 . S
C812 N808 1.418 . S
C812 C811 1.251 . S
C813 H780 0.930 . S
C813 C815 1.406 . S
C813 C818 1.261 . S
C814 H781 0.930 . S
C814 N816 1.325 . S
C814 C817 1.357 . S
C815 H783 0.928 . S
C815 C813 1.406 . S
C815 N816 1.261 . S
N816 Co767 2.214 . S
N816 C814 1.325 . S
N816 C815 1.261 . S
C817 H787 0.931 . S
C817 C814 1.357 . S
C817 C818 1.312 . S
C818 H789 0.930 . S
C818 C813 1.261 . S
C818 C817 1.312 . S
C819 O791 1.214 . S
C819 O799 1.234 . S
C820 H792 0.929 . S
C820 C823 1.391 . S
C820 C825 1.391 . S
C821 H793 0.929 . S
C821 C822 1.390 . S
C821 N824 1.391 . S
C822 H794 0.930 . S
C822 C821 1.390 . S
C822 C823 1.392 . S
C823 H795 0.929 . S
C823 C820 1.391 . S
C823 C822 1.392 . S
N824 Co768 2.257 . S
N824 C821 1.391 . S
N824 C825 1.388 . S
C825 H796 0.930 . S
C825 C820 1.391 . S
C825 N824 1.388 . S
Co826 O828 2.143 . S
Co826 O834 2.074 1_556 S
Co826 O837 2.093 . S
Co826 O850 2.097 1_556 S
Co826 N867 2.151 . S
Co826 N875 2.214 1_556 S
Co827 O828 2.160 1_554 S
Co827 O833 2.058 . S
Co827 O843 2.057 . S
Co827 O858 2.037 . S
Co827 N862 2.145 . S
Co827 N883 2.257 . S
O828 Co826 2.143 . S
O828 Co827 2.160 1_556 S
C829 O830 1.278 . S
C829 O837 1.224 . S
O830 C829 1.278 . S
C831 O832 1.245 . S
C831 O843 1.232 1_556 S
O832 C831 1.245 . S
O833 Co827 2.058 . S
O833 C859 1.269 . S
O834 Co826 2.074 1_554 S
O834 C859 1.257 . S
H835 C860 0.930 . S
H836 C866 0.930 . S
O837 Co826 2.093 . S
O837 C829 1.224 . S
H838 C870 0.929 . S
H839 C872 0.930 . S
H840 C873 0.930 . S
H841 C871 0.929 . S
H842 C874 0.928 . S
O843 Co827 2.057 . S
O843 C831 1.232 1_554 S
H844 C863 0.929 . S
H845 C864 0.929 . S
H846 C876 0.931 . S
H847 C868 0.929 . S
H848 C877 0.930 . S
H849 C869 0.931 . S
O850 Co826 2.097 1_554 S
O850 C878 1.214 . S
H851 C879 0.929 . S
H852 C880 0.929 . S
H853 C881 0.930 . S
H854 C882 0.929 1_556 S
H855 C884 0.930 . S
H856 C861 0.930 . S
H857 C865 0.930 . S
O858 Co827 2.037 . S
O858 C878 1.234 . S
C859 O833 1.269 . S
C859 O834 1.257 . S
C860 H835 0.930 . S
C860 C863 1.388 . S
C860 C865 1.418 . S
C861 H856 0.930 . S
C861 C864 1.404 . S
C861 C865 1.353 . S
N862 Co827 2.145 . S
N862 C863 1.397 . S
N862 C864 1.334 . S
C863 H844 0.929 . S
C863 C860 1.388 . S
C863 N862 1.397 . S
C864 H845 0.929 . S
C864 C861 1.404 . S
C864 N862 1.334 . S
C865 H857 0.930 . S
C865 C860 1.418 . S
C865 C861 1.353 . S
C866 H836 0.930 . S
C866 N867 1.330 . S
C866 C868 1.446 . S
N867 Co826 2.151 . S
N867 C866 1.330 . S
N867 C871 1.418 . S
C868 H847 0.929 . S
C868 C866 1.446 . S
C868 C869 1.332 . S
C869 H849 0.931 . S
C869 C868 1.332 . S
C869 C870 1.267 . S
C870 H838 0.929 . S
C870 C869 1.267 . S
C870 C871 1.251 . S
C871 H841 0.929 . S
C871 N867 1.418 . S
C871 C870 1.251 . S
C872 H839 0.930 . S
C872 C874 1.406 . S
C872 C877 1.261 1_556 S
C873 H840 0.930 . S
C873 N875 1.325 . S
C873 C876 1.357 . S
C874 H842 0.928 . S
C874 C872 1.406 . S
C874 N875 1.261 1_556 S
N875 Co826 2.214 1_554 S
N875 C873 1.325 . S
N875 C874 1.261 1_554 S
C876 H846 0.931 . S
C876 C873 1.357 . S
C876 C877 1.312 . S
C877 H848 0.930 . S
C877 C872 1.261 1_554 S
C877 C876 1.312 . S
C878 O850 1.214 . S
C878 O858 1.234 . S
C879 H851 0.929 . S
C879 C882 1.391 1_556 S
C879 C884 1.391 . S
C880 H852 0.929 . S
C880 C881 1.390 . S
C880 N883 1.391 . S
C881 H853 0.930 . S
C881 C880 1.390 . S
C881 C882 1.392 . S
C882 H854 0.929 1_554 S
C882 C879 1.391 1_554 S
C882 C881 1.392 . S
N883 Co827 2.257 . S
N883 C880 1.391 . S
N883 C884 1.388 1_554 S
C884 H855 0.930 . S
C884 C879 1.391 . S
C884 N883 1.388 1_556 S
Co885 O887 2.143 . S
Co885 O893 2.074 . S
Co885 O896 2.093 . S
Co885 O909 2.097 . S
Co885 N926 2.151 . S
Co885 N934 2.214 . S
Co886 O887 2.160 . S
Co886 O892 2.058 . S
Co886 O902 2.057 . S
Co886 O917 2.037 . S
Co886 N921 2.145 . S
Co886 N942 2.257 . S
O887 Co885 2.143 . S
O887 Co886 2.160 . S
C888 O889 1.278 . S
C888 O896 1.224 . S
O889 C888 1.278 . S
C890 O891 1.245 . S
C890 O902 1.232 . S
O891 C890 1.245 . S
O892 Co886 2.058 . S
O892 C918 1.269 . S
O893 Co885 2.074 . S
O893 C918 1.257 . S
H894 C919 0.930 . S
H895 C925 0.930 . S
O896 Co885 2.093 . S
O896 C888 1.224 . S
H897 C929 0.929 . S
H898 C931 0.930 . S
H899 C932 0.930 . S
H900 C930 0.929 . S
H901 C933 0.928 . S
O902 Co886 2.057 . S
O902 C890 1.232 . S
H903 C922 0.929 . S
H904 C923 0.929 . S
H905 C935 0.931 . S
H906 C927 0.929 . S
H907 C936 0.930 . S
H908 C928 0.931 . S
O909 Co885 2.097 . S
O909 C937 1.214 . S
H910 C938 0.929 . S
H911 C939 0.929 . S
H912 C940 0.930 . S
H913 C941 0.929 . S
H914 C943 0.930 . S
H915 C920 0.930 . S
H916 C924 0.930 . S
O917 Co886 2.037 . S
O917 C937 1.234 . S
C918 O892 1.269 . S
C918 O893 1.257 . S
C919 H894 0.930 . S
C919 C922 1.388 . S
C919 C924 1.418 . S
C920 H915 0.930 . S
C920 C923 1.404 . S
C920 C924 1.353 . S
N921 Co886 2.145 . S
N921 C922 1.397 . S
N921 C923 1.334 . S
C922 H903 0.929 . S
C922 C919 1.388 . S
C922 N921 1.397 . S
C923 H904 0.929 . S
C923 C920 1.404 . S
C923 N921 1.334 . S
C924 H916 0.930 . S
C924 C919 1.418 . S
C924 C920 1.353 . S
C925 H895 0.930 . S
C925 N926 1.330 . S
C925 C927 1.446 . S
N926 Co885 2.151 . S
N926 C925 1.330 . S
N926 C930 1.418 . S
C927 H906 0.929 . S
C927 C925 1.446 . S
C927 C928 1.332 . S
C928 H908 0.931 . S
C928 C927 1.332 . S
C928 C929 1.267 . S
C929 H897 0.929 . S
C929 C928 1.267 . S
C929 C930 1.251 . S
C930 H900 0.929 . S
C930 N926 1.418 . S
C930 C929 1.251 . S
C931 H898 0.930 . S
C931 C933 1.406 1_655 S
C931 C936 1.261 . S
C932 H899 0.930 . S
C932 N934 1.325 . S
C932 C935 1.357 1_455 S
C933 H901 0.928 . S
C933 C931 1.406 1_455 S
C933 N934 1.261 . S
N934 Co885 2.214 . S
N934 C932 1.325 . S
N934 C933 1.261 . S
C935 H905 0.931 . S
C935 C932 1.357 1_655 S
C935 C936 1.312 . S
C936 H907 0.930 . S
C936 C931 1.261 . S
C936 C935 1.312 . S
C937 O909 1.214 . S
C937 O917 1.234 . S
C938 H910 0.929 . S
C938 C941 1.391 . S
C938 C943 1.391 . S
C939 H911 0.929 . S
C939 C940 1.390 . S
C939 N942 1.391 . S
C940 H912 0.930 . S
C940 C939 1.390 . S
C940 C941 1.392 . S
C941 H913 0.929 . S
C941 C938 1.391 . S
C941 C940 1.392 . S
N942 Co886 2.257 . S
N942 C939 1.391 . S
N942 C943 1.388 . S
C943 H914 0.930 . S
C943 C938 1.391 . S
C943 N942 1.388 . S
C944 C945 1.369 . S
C944 C946 1.419 . S
C944 H948 0.930 . S
C945 C944 1.369 . S
C945 C954 1.421 1_656 S
C946 C944 1.419 . S
C946 C947 1.363 . S
C946 H949 0.929 . S
C947 C946 1.363 . S
C947 C953 1.452 1_556 S
H948 C944 0.930 . S
H949 C946 0.929 . S
S950 N951 1.613 . S
S950 N952 1.610 . S
N951 S950 1.613 . S
N951 C954 1.358 . S
N952 S950 1.610 . S
N952 C953 1.329 1_455 S
C953 C947 1.452 1_554 S
C953 N952 1.329 1_655 S
C953 C954 1.433 1_655 S
C954 C945 1.421 1_454 S
C954 N951 1.358 . S
C954 C953 1.433 1_455 S
C955 C956 1.369 . S
C955 C957 1.419 . S
C955 H959 0.930 . S
C956 C955 1.369 . S
C956 C965 1.429 . S
C957 C955 1.419 . S
C957 C958 1.363 . S
C957 H960 0.929 . S
C958 C957 1.363 . S
C958 C964 1.428 . S
H959 C955 0.930 . S
H960 C957 0.929 . S
S961 N962 1.613 . S
S961 N963 1.610 . S
N962 S961 1.613 . S
N962 C965 1.350 . S
N963 S961 1.610 . S
N963 C964 1.351 . S
C964 C958 1.428 . S
C964 N963 1.351 . S
C964 C965 1.434 . S
C965 C956 1.429 . S
C965 N962 1.350 . S
C965 C964 1.434 . S
C966 C967 1.369 . S
C966 C968 1.419 . S
C966 H970 0.930 . S
C967 C966 1.369 . S
C967 C976 1.429 1_554 S
C968 C966 1.419 . S
C968 C969 1.363 . S
C968 H971 0.929 . S
C969 C968 1.363 . S
C969 C975 1.428 1_554 S
H970 C966 0.930 . S
H971 C968 0.929 . S
S972 N973 1.613 . S
S972 N974 1.610 . S
N973 S972 1.613 . S
N973 C976 1.350 . S
N974 S972 1.610 . S
N974 C975 1.351 . S
C975 C969 1.428 1_556 S
C975 N974 1.351 . S
C975 C976 1.434 . S
C976 C967 1.429 1_556 S
C976 N973 1.350 . S
C976 C975 1.434 . S
C977 C978 1.369 . S
C977 C979 1.419 . S
C977 H981 0.930 . S
C978 C977 1.369 . S
C978 C987 1.429 . S
C979 C977 1.419 . S
C979 C980 1.363 . S
C979 H982 0.929 . S
C980 C979 1.363 . S
C980 C986 1.428 . S
H981 C977 0.930 . S
H982 C979 0.929 . S
S983 N984 1.613 . S
S983 N985 1.610 . S
N984 S983 1.613 . S
N984 C987 1.350 . S
N985 S983 1.610 . S
N985 C986 1.351 . S
C986 C980 1.428 . S
C986 N985 1.351 . S
C986 C987 1.434 . S
C987 C978 1.429 . S
C987 N984 1.350 . S
C987 C986 1.434 . S
C988 C989 1.369 1_556 S
C988 C990 1.419 . S
C988 H992 0.930 . S
C989 C988 1.369 1_554 S
C989 C998 1.429 . S
C990 C988 1.419 . S
C990 C991 1.363 1_556 S
C990 H993 0.929 . S
C991 C990 1.363 1_554 S
C991 C997 1.428 . S
H992 C988 0.930 . S
H993 C990 0.929 . S
S994 N995 1.613 . S
S994 N996 1.610 . S
N995 S994 1.613 . S
N995 C998 1.350 1_655 S
N996 S994 1.610 . S
N996 C997 1.351 1_655 S
C997 C991 1.428 . S
C997 N996 1.351 1_455 S
C997 C998 1.434 . S
C998 C989 1.429 . S
C998 N995 1.350 1_455 S
C998 C997 1.434 . S
C999 C1000 1.369 . S
C999 C1001 1.419 . S
C999 H1003 0.930 . S
C1000 C999 1.369 . S
C1000 C1009 1.429 . S
C1001 C999 1.419 . S
C1001 C1002 1.363 . S
C1001 H1004 0.929 . S
C1002 C1001 1.363 . S
C1002 C1008 1.428 . S
H1003 C999 0.930 . S
H1004 C1001 0.929 . S
S1005 N1006 1.613 . S
S1005 N1007 1.610 . S
N1006 S1005 1.613 . S
N1006 C1009 1.350 . S
N1007 S1005 1.610 . S
N1007 C1008 1.351 . S
C1008 C1002 1.428 . S
C1008 N1007 1.351 . S
C1008 C1009 1.434 . S
C1009 C1000 1.429 . S
C1009 N1006 1.350 . S
C1009 C1008 1.434 . S
C1010 C1011 1.369 1_554 S
C1010 C1012 1.419 . S
C1010 H1014 0.930 . S
C1011 C1010 1.369 1_556 S
C1011 C1020 1.429 . S
C1012 C1010 1.419 . S
C1012 C1013 1.363 1_554 S
C1012 H1015 0.929 . S
C1013 C1012 1.363 1_556 S
C1013 C1019 1.428 . S
H1014 C1010 0.930 . S
H1015 C1012 0.929 . S
S1016 N1017 1.613 . S
S1016 N1018 1.610 . S
N1017 S1016 1.613 . S
N1017 C1020 1.350 . S
N1018 S1016 1.610 . S
N1018 C1019 1.351 . S
C1019 C1013 1.428 . S
C1019 N1018 1.351 . S
C1019 C1020 1.434 . S
C1020 C1011 1.429 . S
C1020 N1017 1.350 . S
C1020 C1019 1.434 . S
C1021 C1022 1.369 . S
C1021 C1023 1.419 . S
C1021 H1025 0.930 . S
C1022 C1021 1.369 . S
C1022 C1031 1.429 . S
C1023 C1021 1.419 . S
C1023 C1024 1.363 . S
C1023 H1026 0.929 . S
C1024 C1023 1.363 . S
C1024 C1030 1.428 . S
H1025 C1021 0.930 . S
H1026 C1023 0.929 . S
S1027 N1028 1.613 . S
S1027 N1029 1.610 . S
N1028 S1027 1.613 . S
N1028 C1031 1.350 . S
N1029 S1027 1.610 . S
N1029 C1030 1.351 . S
C1030 C1024 1.428 . S
C1030 N1029 1.351 . S
C1030 C1031 1.434 . S
C1031 C1022 1.429 . S
C1031 N1028 1.350 . S
C1031 C1030 1.434 . S
C1032 C1033 1.369 . S
C1032 C1034 1.419 . S
C1032 H1036 0.930 . S
C1033 C1032 1.369 . S
C1033 C1042 1.429 . S
C1034 C1032 1.419 . S
C1034 C1035 1.363 . S
C1034 H1037 0.929 . S
C1035 C1034 1.363 . S
C1035 C1041 1.428 . S
H1036 C1032 0.930 . S
H1037 C1034 0.929 . S
S1038 N1039 1.613 . S
S1038 N1040 1.610 . S
N1039 S1038 1.613 . S
N1039 C1042 1.350 . S
N1040 S1038 1.610 . S
N1040 C1041 1.351 . S
C1041 C1035 1.428 . S
C1041 N1040 1.351 . S
C1041 C1042 1.434 . S
C1042 C1033 1.429 . S
C1042 N1039 1.350 . S
C1042 C1041 1.434 . S
C1043 C1044 1.369 . S
C1043 C1045 1.419 . S
C1043 H1047 0.930 . S
C1044 C1043 1.369 . S
C1044 C1053 1.429 . S
C1045 C1043 1.419 . S
C1045 C1046 1.363 . S
C1045 H1048 0.929 . S
C1046 C1045 1.363 . S
C1046 C1052 1.428 . S
H1047 C1043 0.930 . S
H1048 C1045 0.929 . S
S1049 N1050 1.613 . S
S1049 N1051 1.610 . S
N1050 S1049 1.613 . S
N1050 C1053 1.350 . S
N1051 S1049 1.610 . S
N1051 C1052 1.351 . S
C1052 C1046 1.428 . S
C1052 N1051 1.351 . S
C1052 C1053 1.434 . S
C1053 C1044 1.429 . S
C1053 N1050 1.350 . S
C1053 C1052 1.434 . S
C1054 C1055 1.369 . S
C1054 C1056 1.419 . S
C1054 H1058 0.930 . S
C1055 C1054 1.369 . S
C1055 C1064 1.429 . S
C1056 C1054 1.419 . S
C1056 C1057 1.363 . S
C1056 H1059 0.929 . S
C1057 C1056 1.363 . S
C1057 C1063 1.428 . S
H1058 C1054 0.930 . S
H1059 C1056 0.929 . S
S1060 N1061 1.613 . S
S1060 N1062 1.610 . S
N1061 S1060 1.613 . S
N1061 C1064 1.350 . S
N1062 S1060 1.610 . S
N1062 C1063 1.351 . S
C1063 C1057 1.428 . S
C1063 N1062 1.351 . S
C1063 C1064 1.434 . S
C1064 C1055 1.429 . S
C1064 N1061 1.350 . S
C1064 C1063 1.434 . S
C1065 C1066 1.369 . S
C1065 C1067 1.419 . S
C1065 H1069 0.930 . S
C1066 C1065 1.369 . S
C1066 C1075 1.429 . S
C1067 C1065 1.419 . S
C1067 C1068 1.363 . S
C1067 H1070 0.929 . S
C1068 C1067 1.363 . S
C1068 C1074 1.428 . S
H1069 C1065 0.930 . S
H1070 C1067 0.929 . S
S1071 N1072 1.613 . S
S1071 N1073 1.610 . S
N1072 S1071 1.613 . S
N1072 C1075 1.350 . S
N1073 S1071 1.610 . S
N1073 C1074 1.351 . S
C1074 C1068 1.428 . S
C1074 N1073 1.351 . S
C1074 C1075 1.434 . S
C1075 C1066 1.429 . S
C1075 N1072 1.350 . S
C1075 C1074 1.434 . S
C1076 C1077 1.369 . S
C1076 C1078 1.419 . S
C1076 H1080 0.930 . S
C1077 C1076 1.369 . S
C1077 C1086 1.429 . S
C1078 C1076 1.419 . S
C1078 C1079 1.363 . S
C1078 H1081 0.929 . S
C1079 C1078 1.363 . S
C1079 C1085 1.428 . S
H1080 C1076 0.930 . S
H1081 C1078 0.929 . S
S1082 N1083 1.613 . S
S1082 N1084 1.610 . S
N1083 S1082 1.613 . S
N1083 C1086 1.350 . S
N1084 S1082 1.610 . S
N1084 C1085 1.351 . S
C1085 C1079 1.428 . S
C1085 N1084 1.351 . S
C1085 C1086 1.434 . S
C1086 C1077 1.429 . S
C1086 N1083 1.350 . S
C1086 C1085 1.434 . S
C1087 C1088 1.369 . S
C1087 C1089 1.419 . S
C1087 H1091 0.930 . S
C1088 C1087 1.369 . S
C1088 C1097 1.429 . S
C1089 C1087 1.419 . S
C1089 C1090 1.363 . S
C1089 H1092 0.929 . S
C1090 C1089 1.363 . S
C1090 C1096 1.428 . S
H1091 C1087 0.930 . S
H1092 C1089 0.929 . S
S1093 N1094 1.613 . S
S1093 N1095 1.610 . S
N1094 S1093 1.613 . S
N1094 C1097 1.350 . S
N1095 S1093 1.610 . S
N1095 C1096 1.351 . S
C1096 C1090 1.428 . S
C1096 N1095 1.351 . S
C1096 C1097 1.434 . S
C1097 C1088 1.429 . S
C1097 N1094 1.350 . S
C1097 C1096 1.434 . S
C1098 C1099 1.369 . S
C1098 C1100 1.419 . S
C1098 H1102 0.930 . S
C1099 C1098 1.369 . S
C1099 C1108 1.429 . S
C1100 C1098 1.419 . S
C1100 C1101 1.363 . S
C1100 H1103 0.929 . S
C1101 C1100 1.363 . S
C1101 C1107 1.428 . S
H1102 C1098 0.930 . S
H1103 C1100 0.929 . S
S1104 N1105 1.613 . S
S1104 N1106 1.610 . S
N1105 S1104 1.613 . S
N1105 C1108 1.350 . S
N1106 S1104 1.610 . S
N1106 C1107 1.351 . S
C1107 C1101 1.428 . S
C1107 N1106 1.351 . S
C1107 C1108 1.434 . S
C1108 C1099 1.429 . S
C1108 N1105 1.350 . S
C1108 C1107 1.434 . S
C1109 C1110 1.369 . S
C1109 C1111 1.419 . S
C1109 H1113 0.930 . S
C1110 C1109 1.369 . S
C1110 C1119 1.429 . S
C1111 C1109 1.419 . S
C1111 C1112 1.363 . S
C1111 H1114 0.929 . S
C1112 C1111 1.363 . S
C1112 C1118 1.428 . S
H1113 C1109 0.930 . S
H1114 C1111 0.929 . S
S1115 N1116 1.613 . S
S1115 N1117 1.610 . S
N1116 S1115 1.613 . S
N1116 C1119 1.350 . S
N1117 S1115 1.610 . S
N1117 C1118 1.351 . S
C1118 C1112 1.428 . S
C1118 N1117 1.351 . S
C1118 C1119 1.434 . S
C1119 C1110 1.429 . S
C1119 N1116 1.350 . S
C1119 C1118 1.434 . S
C1120 C1121 1.369 . S
C1120 C1122 1.419 . S
C1120 H1124 0.930 . S
C1121 C1120 1.369 . S
C1121 C1130 1.429 . S
C1122 C1120 1.419 . S
C1122 C1123 1.363 . S
C1122 H1125 0.929 . S
C1123 C1122 1.363 . S
C1123 C1129 1.428 . S
H1124 C1120 0.930 . S
H1125 C1122 0.929 . S
S1126 N1127 1.613 . S
S1126 N1128 1.610 . S
N1127 S1126 1.613 . S
N1127 C1130 1.350 . S
N1128 S1126 1.610 . S
N1128 C1129 1.351 . S
C1129 C1123 1.428 . S
C1129 N1128 1.351 . S
C1129 C1130 1.434 . S
C1130 C1121 1.429 . S
C1130 N1127 1.350 . S
C1130 C1129 1.434 . S
C1131 C1132 1.369 . S
C1131 C1133 1.419 . S
C1131 H1135 0.930 . S
C1132 C1131 1.369 . S
C1132 C1141 1.429 . S
C1133 C1131 1.419 . S
C1133 C1134 1.363 . S
C1133 H1136 0.929 . S
C1134 C1133 1.363 . S
C1134 C1140 1.428 . S
H1135 C1131 0.930 . S
H1136 C1133 0.929 . S
S1137 N1138 1.613 . S
S1137 N1139 1.610 . S
N1138 S1137 1.613 . S
N1138 C1141 1.350 . S
N1139 S1137 1.610 . S
N1139 C1140 1.351 . S
C1140 C1134 1.428 . S
C1140 N1139 1.351 . S
C1140 C1141 1.434 . S
C1141 C1132 1.429 . S
C1141 N1138 1.350 . S
C1141 C1140 1.434 . S
C1142 C1143 1.369 . S
C1142 C1144 1.419 . S
C1142 H1146 0.930 . S
C1143 C1142 1.369 . S
C1143 C1152 1.429 . S
C1144 C1142 1.419 . S
C1144 C1145 1.363 . S
C1144 H1147 0.929 . S
C1145 C1144 1.363 . S
C1145 C1151 1.428 . S
H1146 C1142 0.930 . S
H1147 C1144 0.929 . S
S1148 N1149 1.613 . S
S1148 N1150 1.610 . S
N1149 S1148 1.613 . S
N1149 C1152 1.350 . S
N1150 S1148 1.610 . S
N1150 C1151 1.351 . S
C1151 C1145 1.428 . S
C1151 N1150 1.351 . S
C1151 C1152 1.434 . S
C1152 C1143 1.429 . S
C1152 N1149 1.350 . S
C1152 C1151 1.434 . S
C1153 C1154 1.369 . S
C1153 C1155 1.419 . S
C1153 H1157 0.930 . S
C1154 C1153 1.369 . S
C1154 C1163 1.429 . S
C1155 C1153 1.419 . S
C1155 C1156 1.363 . S
C1155 H1158 0.929 . S
C1156 C1155 1.363 . S
C1156 C1162 1.428 . S
H1157 C1153 0.930 . S
H1158 C1155 0.929 . S
S1159 N1160 1.613 . S
S1159 N1161 1.610 . S
N1160 S1159 1.613 . S
N1160 C1163 1.350 . S
N1161 S1159 1.610 . S
N1161 C1162 1.351 . S
C1162 C1156 1.428 . S
C1162 N1161 1.351 . S
C1162 C1163 1.434 . S
C1163 C1154 1.429 . S
C1163 N1160 1.350 . S
C1163 C1162 1.434 . S
C1164 C1165 1.369 . S
C1164 C1166 1.419 . S
C1164 H1168 0.930 . S
C1165 C1164 1.369 . S
C1165 C1174 1.429 . S
C1166 C1164 1.419 . S
C1166 C1167 1.363 . S
C1166 H1169 0.929 . S
C1167 C1166 1.363 . S
C1167 C1173 1.428 . S
H1168 C1164 0.930 . S
H1169 C1166 0.929 . S
S1170 N1171 1.613 . S
S1170 N1172 1.610 . S
N1171 S1170 1.613 . S
N1171 C1174 1.350 . S
N1172 S1170 1.610 . S
N1172 C1173 1.351 . S
C1173 C1167 1.428 . S
C1173 N1172 1.351 . S
C1173 C1174 1.434 . S
C1174 C1165 1.429 . S
C1174 N1171 1.350 . S
C1174 C1173 1.434 . S
C1175 C1176 1.369 . S
C1175 C1177 1.419 . S
C1175 H1179 0.930 . S
C1176 C1175 1.369 . S
C1176 C1185 1.429 . S
C1177 C1175 1.419 . S
C1177 C1178 1.363 . S
C1177 H1180 0.929 . S
C1178 C1177 1.363 . S
C1178 C1184 1.428 . S
H1179 C1175 0.930 . S
H1180 C1177 0.929 . S
S1181 N1182 1.613 . S
S1181 N1183 1.610 . S
N1182 S1181 1.613 . S
N1182 C1185 1.350 . S
N1183 S1181 1.610 . S
N1183 C1184 1.351 . S
C1184 C1178 1.428 . S
C1184 N1183 1.351 . S
C1184 C1185 1.434 . S
C1185 C1176 1.429 . S
C1185 N1182 1.350 . S
C1185 C1184 1.434 . S
C1186 C1187 1.369 . S
C1186 C1188 1.419 . S
C1186 H1190 0.930 . S
C1187 C1186 1.369 . S
C1187 C1196 1.429 . S
C1188 C1186 1.419 . S
C1188 C1189 1.363 . S
C1188 H1191 0.929 . S
C1189 C1188 1.363 . S
C1189 C1195 1.428 . S
H1190 C1186 0.930 . S
H1191 C1188 0.929 . S
S1192 N1193 1.613 . S
S1192 N1194 1.610 . S
N1193 S1192 1.613 . S
N1193 C1196 1.350 . S
N1194 S1192 1.610 . S
N1194 C1195 1.351 . S
C1195 C1189 1.428 . S
C1195 N1194 1.351 . S
C1195 C1196 1.434 . S
C1196 C1187 1.429 . S
C1196 N1193 1.350 . S
C1196 C1195 1.434 . S
C1197 C1198 1.369 . S
C1197 C1199 1.419 . S
C1197 H1201 0.930 . S
C1198 C1197 1.369 . S
C1198 C1207 1.429 . S
C1199 C1197 1.419 . S
C1199 C1200 1.363 . S
C1199 H1202 0.929 . S
C1200 C1199 1.363 . S
C1200 C1206 1.428 . S
H1201 C1197 0.930 . S
H1202 C1199 0.929 . S
S1203 N1204 1.613 . S
S1203 N1205 1.610 . S
N1204 S1203 1.613 . S
N1204 C1207 1.350 . S
N1205 S1203 1.610 . S
N1205 C1206 1.351 . S
C1206 C1200 1.428 . S
C1206 N1205 1.351 . S
C1206 C1207 1.434 . S
C1207 C1198 1.429 . S
C1207 N1204 1.350 . S
C1207 C1206 1.434 . S
C1208 C1209 1.369 . S
C1208 C1210 1.419 . S
C1208 H1212 0.930 . S
C1209 C1208 1.369 . S
C1209 C1218 1.429 . S
C1210 C1208 1.419 . S
C1210 C1211 1.363 . S
C1210 H1213 0.929 . S
C1211 C1210 1.363 . S
C1211 C1217 1.428 . S
H1212 C1208 0.930 . S
H1213 C1210 0.929 . S
S1214 N1215 1.613 . S
S1214 N1216 1.610 . S
N1215 S1214 1.613 . S
N1215 C1218 1.350 . S
N1216 S1214 1.610 . S
N1216 C1217 1.351 . S
C1217 C1211 1.428 . S
C1217 N1216 1.351 . S
C1217 C1218 1.434 . S
C1218 C1209 1.429 . S
C1218 N1215 1.350 . S
C1218 C1217 1.434 . S
C1219 C1220 1.369 . S
C1219 C1221 1.419 . S
C1219 H1223 0.930 . S
C1220 C1219 1.369 . S
C1220 C1229 1.429 . S
C1221 C1219 1.419 . S
C1221 C1222 1.363 . S
C1221 H1224 0.929 . S
C1222 C1221 1.363 . S
C1222 C1228 1.428 . S
H1223 C1219 0.930 . S
H1224 C1221 0.929 . S
S1225 N1226 1.613 . S
S1225 N1227 1.610 . S
N1226 S1225 1.613 . S
N1226 C1229 1.350 . S
N1227 S1225 1.610 . S
N1227 C1228 1.351 . S
C1228 C1222 1.428 . S
C1228 N1227 1.351 . S
C1228 C1229 1.434 . S
C1229 C1220 1.429 . S
C1229 N1226 1.350 . S
C1229 C1228 1.434 . S
C1230 C1231 1.369 . S
C1230 C1232 1.419 . S
C1230 H1234 0.930 . S
C1231 C1230 1.369 . S
C1231 C1240 1.429 . S
C1232 C1230 1.419 . S
C1232 C1233 1.363 . S
C1232 H1235 0.929 . S
C1233 C1232 1.363 . S
C1233 C1239 1.428 . S
H1234 C1230 0.930 . S
H1235 C1232 0.929 . S
S1236 N1237 1.613 . S
S1236 N1238 1.610 . S
N1237 S1236 1.613 . S
N1237 C1240 1.350 . S
N1238 S1236 1.610 . S
N1238 C1239 1.351 . S
C1239 C1233 1.428 . S
C1239 N1238 1.351 . S
C1239 C1240 1.434 . S
C1240 C1231 1.429 . S
C1240 N1237 1.350 . S
C1240 C1239 1.434 . S
C1241 C1242 1.369 . S
C1241 C1243 1.419 . S
C1241 H1245 0.930 . S
C1242 C1241 1.369 . S
C1242 C1251 1.429 . S
C1243 C1241 1.419 . S
C1243 C1244 1.363 . S
C1243 H1246 0.929 . S
C1244 C1243 1.363 . S
C1244 C1250 1.428 . S
H1245 C1241 0.930 . S
H1246 C1243 0.929 . S
S1247 N1248 1.613 . S
S1247 N1249 1.610 . S
N1248 S1247 1.613 . S
N1248 C1251 1.350 . S
N1249 S1247 1.610 . S
N1249 C1250 1.351 . S
C1250 C1244 1.428 . S
C1250 N1249 1.351 . S
C1250 C1251 1.434 . S
C1251 C1242 1.429 . S
C1251 N1248 1.350 . S
C1251 C1250 1.434 . S
C1252 C1253 1.369 . S
C1252 C1254 1.419 . S
C1252 H1256 0.930 . S
C1253 C1252 1.369 . S
C1253 C1262 1.429 . S
C1254 C1252 1.419 . S
C1254 C1255 1.363 . S
C1254 H1257 0.929 . S
C1255 C1254 1.363 . S
C1255 C1261 1.428 . S
H1256 C1252 0.930 . S
H1257 C1254 0.929 . S
S1258 N1259 1.613 . S
S1258 N1260 1.610 . S
N1259 S1258 1.613 . S
N1259 C1262 1.350 . S
N1260 S1258 1.610 . S
N1260 C1261 1.351 . S
C1261 C1255 1.428 . S
C1261 N1260 1.351 . S
C1261 C1262 1.434 . S
C1262 C1253 1.429 . S
C1262 N1259 1.350 . S
C1262 C1261 1.434 . S
C1263 C1264 1.369 . S
C1263 C1265 1.419 . S
C1263 H1267 0.930 . S
C1264 C1263 1.369 . S
C1264 C1273 1.429 . S
C1265 C1263 1.419 . S
C1265 C1266 1.363 . S
C1265 H1268 0.929 . S
C1266 C1265 1.363 . S
C1266 C1272 1.428 . S
H1267 C1263 0.930 . S
H1268 C1265 0.929 . S
S1269 N1270 1.613 . S
S1269 N1271 1.610 . S
N1270 S1269 1.613 . S
N1270 C1273 1.350 . S
N1271 S1269 1.610 . S
N1271 C1272 1.351 . S
C1272 C1266 1.428 . S
C1272 N1271 1.351 . S
C1272 C1273 1.434 . S
C1273 C1264 1.429 . S
C1273 N1270 1.350 . S
C1273 C1272 1.434 . S
C1274 C1275 1.369 . S
C1274 C1276 1.419 . S
C1274 H1278 0.930 . S
C1275 C1274 1.369 . S
C1275 C1284 1.429 . S
C1276 C1274 1.419 . S
C1276 C1277 1.363 . S
C1276 H1279 0.929 . S
C1277 C1276 1.363 . S
C1277 C1283 1.428 . S
H1278 C1274 0.930 . S
H1279 C1276 0.929 . S
S1280 N1281 1.613 . S
S1280 N1282 1.610 . S
N1281 S1280 1.613 . S
N1281 C1284 1.350 . S
N1282 S1280 1.610 . S
N1282 C1283 1.351 . S
C1283 C1277 1.428 . S
C1283 N1282 1.351 . S
C1283 C1284 1.434 . S
C1284 C1275 1.429 . S
C1284 N1281 1.350 . S
C1284 C1283 1.434 . S
C1285 C1286 1.369 . S
C1285 C1287 1.419 . S
C1285 H1289 0.930 . S
C1286 C1285 1.369 . S
C1286 C1295 1.429 . S
C1287 C1285 1.419 . S
C1287 C1288 1.363 . S
C1287 H1290 0.929 . S
C1288 C1287 1.363 . S
C1288 C1294 1.428 . S
H1289 C1285 0.930 . S
H1290 C1287 0.929 . S
S1291 N1292 1.613 . S
S1291 N1293 1.610 . S
N1292 S1291 1.613 . S
N1292 C1295 1.350 . S
N1293 S1291 1.610 . S
N1293 C1294 1.351 . S
C1294 C1288 1.428 . S
C1294 N1293 1.351 . S
C1294 C1295 1.434 . S
C1295 C1286 1.429 . S
C1295 N1292 1.350 . S
C1295 C1294 1.434 . S
C945 C5 1.427 . S
C947 C241 1.427 . S
C956 C300 1.432 . S
C958 C64 1.423 . S
C967 C123 1.602 . S
C969 C359 1.601 . S
C978 C182 1.606 . S
C980 C418 1.598 . S
C989 C477 1.432 . S
C991 C713 1.423 . S
C1000 C772 1.432 . S
C1002 C536 1.424 . S
C1011 C595 1.596 . S
C1013 C831 1.605 . S
C1022 C654 1.603 . S
C1024 C890 1.597 . S
C1033 C3 1.509 . S
C1035 C937 1.534 . S
C1044 C760 1.513 . S
C1046 C62 1.484 . S
C1055 C121 1.574 . S
C1057 C819 1.608 . S
C1066 C878 1.659 . S
C1068 C180 1.613 . S
C1077 C583 1.513 . S
C1079 C239 1.484 . S
C1088 C642 1.536 . S
C1090 C298 1.504 . S
C1099 C701 1.660 . S
C1101 C357 1.618 . S
C1110 C524 1.610 . S
C1112 C416 1.572 . S
C1121 C475 1.505 . S
C1123 C465 1.534 . S
C1132 C288 1.514 . S
C1134 C534 1.484 . S
C1143 C347 1.611 . S
C1145 C593 1.570 . S
C1154 C652 1.612 . S
C1156 C406 1.659 . S
C1165 C111 1.512 . S
C1167 C711 1.483 . S
C1176 C770 1.506 . S
C1178 C170 1.534 . S
C1187 C829 1.619 . S
C1189 C229 1.660 . S
C1198 C888 1.571 . S
C1200 C52 1.607 . S
C1209 C446 1.177 . S
C1211 C33 1.223 . S
C1220 C92 1.239 . S
C1222 C269 1.246 . S
C1231 C151 1.181 . S
C1233 C328 1.224 . S
C1242 C210 1.175 . S
C1244 C387 1.184 . S
C1253 C918 1.185 . S
C1255 C505 1.224 . S
C1264 C741 1.240 . S
C1266 C564 1.245 . S
C1275 C800 1.213 . S
C1277 C623 1.178 . S
C1286 C859 1.180 . S
C1288 C682 1.178 . S
