# Generated by pormake.
# Topology wjw, (5)-cn, num edge types: 1
# Building blocks:
#     Node 0, Type 0, BuildingBlock: XOMCOT_clean_sbu_0, # of connection points: 5
#     Node 1, Type 0, BuildingBlock: XOMCOT_clean_sbu_0, # of connection points: 5
#     Node 2, Type 0, BuildingBlock: XOMCOT_clean_sbu_0, # of connection points: 5
#     Node 3, Type 0, BuildingBlock: XOMCOT_clean_sbu_0, # of connection points: 5
#     Node 4, Type 0, BuildingBlock: XOMCOT_clean_sbu_0, # of connection points: 5
#     Node 5, Type 0, BuildingBlock: XOMCOT_clean_sbu_0, # of connection points: 5
#     Node 6, Type 0, BuildingBlock: XOMCOT_clean_sbu_0, # of connection points: 5
#     Node 7, Type 0, BuildingBlock: XOMCOT_clean_sbu_0, # of connection points: 5
#     Node 8, Type 0, BuildingBlock: XOMCOT_clean_sbu_0, # of connection points: 5
#     Node 9, Type 0, BuildingBlock: XOMCOT_clean_sbu_0, # of connection points: 5
#     Node 10, Type 0, BuildingBlock: XOMCOT_clean_sbu_0, # of connection points: 5
#     Node 11, Type 0, BuildingBlock: XOMCOT_clean_sbu_0, # of connection points: 5
#     Edge 12, Type (0, 0), BuildingBlock: UVAHIK_clean_linker_0, # of connection points: 2
#     Edge 13, Type (0, 0), BuildingBlock: UVAHIK_clean_linker_0, # of connection points: 2
#     Edge 14, Type (0, 0), BuildingBlock: UVAHIK_clean_linker_0, # of connection points: 2
#     Edge 15, Type (0, 0), BuildingBlock: UVAHIK_clean_linker_0, # of connection points: 2
#     Edge 16, Type (0, 0), BuildingBlock: UVAHIK_clean_linker_0, # of connection points: 2
#     Edge 17, Type (0, 0), BuildingBlock: UVAHIK_clean_linker_0, # of connection points: 2
#     Edge 18, Type (0, 0), BuildingBlock: UVAHIK_clean_linker_0, # of connection points: 2
#     Edge 19, Type (0, 0), BuildingBlock: UVAHIK_clean_linker_0, # of connection points: 2
#     Edge 20, Type (0, 0), BuildingBlock: UVAHIK_clean_linker_0, # of connection points: 2
#     Edge 21, Type (0, 0), BuildingBlock: UVAHIK_clean_linker_0, # of connection points: 2
#     Edge 22, Type (0, 0), BuildingBlock: UVAHIK_clean_linker_0, # of connection points: 2
#     Edge 23, Type (0, 0), BuildingBlock: UVAHIK_clean_linker_0, # of connection points: 2
#     Edge 24, Type (0, 0), BuildingBlock: UVAHIK_clean_linker_0, # of connection points: 2
#     Edge 25, Type (0, 0), BuildingBlock: UVAHIK_clean_linker_0, # of connection points: 2
#     Edge 26, Type (0, 0), BuildingBlock: UVAHIK_clean_linker_0, # of connection points: 2
#     Edge 27, Type (0, 0), BuildingBlock: UVAHIK_clean_linker_0, # of connection points: 2
#     Edge 28, Type (0, 0), BuildingBlock: UVAHIK_clean_linker_0, # of connection points: 2
#     Edge 29, Type (0, 0), BuildingBlock: UVAHIK_clean_linker_0, # of connection points: 2
#     Edge 30, Type (0, 0), BuildingBlock: UVAHIK_clean_linker_0, # of connection points: 2
#     Edge 31, Type (0, 0), BuildingBlock: UVAHIK_clean_linker_0, # of connection points: 2
#     Edge 32, Type (0, 0), BuildingBlock: UVAHIK_clean_linker_0, # of connection points: 2
#     Edge 33, Type (0, 0), BuildingBlock: UVAHIK_clean_linker_0, # of connection points: 2
#     Edge 34, Type (0, 0), BuildingBlock: UVAHIK_clean_linker_0, # of connection points: 2
#     Edge 35, Type (0, 0), BuildingBlock: UVAHIK_clean_linker_0, # of connection points: 2
#     Edge 36, Type (0, 0), BuildingBlock: UVAHIK_clean_linker_0, # of connection points: 2
#     Edge 37, Type (0, 0), BuildingBlock: UVAHIK_clean_linker_0, # of connection points: 2
#     Edge 38, Type (0, 0), BuildingBlock: UVAHIK_clean_linker_0, # of connection points: 2
#     Edge 39, Type (0, 0), BuildingBlock: UVAHIK_clean_linker_0, # of connection points: 2
#     Edge 40, Type (0, 0), BuildingBlock: UVAHIK_clean_linker_0, # of connection points: 2
#     Edge 41, Type (0, 0), BuildingBlock: UVAHIK_clean_linker_0, # of connection points: 2
# Relax obj value: 0.222
# Max RMSD: 0.192
# Mean RMSD: 0.189
data_MOF--net-wjw--node1-XOMCOT_clean_sbu_0--edge1-UVAHIK_clean_linker_0
_symmetry_space_group_name_H-M    P1
_symmetry_Int_Tables_number       1
_symmetry_cell_setting            triclinic
loop_
_symmetry_equiv_pos_as_xyz
'x, y, z'
_cell_length_a     50.321118
_cell_length_b     50.24665
_cell_length_c     48.168854
_cell_angle_alpha  90.037927
_cell_angle_beta   89.971419
_cell_angle_gamma 120.08677
loop_
_atom_site_label
_atom_site_type_symbol
_atom_site_fract_x
_atom_site_fract_y
_atom_site_fract_z
_atom_type_partial_charge
Co0 Co 0.15185 0.39581 0.28932 0.0
C1 C 0.10994 0.41983 0.29973 0.0
C2 C 0.10058 0.38194 0.32654 0.0
C3 C 0.07928 0.39085 0.33177 0.0
N4 N 0.1197 0.40013 0.3065 0.0
N5 N 0.08521 0.41463 0.31489 0.0
H6 H 0.12013 0.4369 0.28347 0.0
H7 H 0.10169 0.36311 0.33624 0.0
C8 C 0.18964 0.39518 0.33656 0.0
O9 O 0.21423 0.41372 0.32211 0.0
N10 N 0.18353 0.38992 0.27213 0.0
C11 C 0.20431 0.4061 0.25218 0.0
C12 C 0.22279 0.3935 0.24801 0.0
C13 C 0.18883 0.36686 0.27868 0.0
N14 N 0.21309 0.36894 0.26483 0.0
C15 C 0.18926 0.45839 0.27109 0.0
C16 C 0.20717 0.48446 0.32314 0.0
C17 C 0.22058 0.50289 0.29969 0.0
C18 C 0.2105 0.48972 0.2734 0.0
C19 C 0.18611 0.45313 0.3198 0.0
N20 N 0.17941 0.43997 0.294 0.0
H21 H 0.18083 0.44896 0.25075 0.0
H22 H 0.17541 0.43952 0.33808 0.0
H23 H 0.20641 0.42565 0.24114 0.0
H24 H 0.1761 0.34979 0.29444 0.0
O25 O 0.13549 0.39605 0.25328 0.0
O26 O 0.12191 0.35436 0.27876 0.0
O27 O 0.16291 0.38636 0.32675 0.0
C28 C 0.11851 0.3664 0.25607 0.0
H29 H 0.06082 0.38058 0.34679 0.0
H30 H 0.24208 0.40193 0.23388 0.0
H31 H 0.21351 0.49389 0.34389 0.0
H32 H 0.21903 0.50351 0.25475 0.0
Co33 Co 0.7536 0.14598 0.6302 0.0
C34 C 0.68657 0.10597 0.63751 0.0
C35 C 0.7123 0.09706 0.66802 0.0
C36 C 0.68152 0.07803 0.6732 0.0
N37 N 0.71538 0.11474 0.64589 0.0
N38 N 0.66546 0.08365 0.654 0.0
H39 H 0.68121 0.11601 0.62006 0.0
H40 H 0.73112 0.09782 0.6795 0.0
C41 C 0.78991 0.18153 0.68008 0.0
O42 O 0.80014 0.20736 0.66621 0.0
N43 N 0.79268 0.17683 0.6145 0.0
C44 C 0.79838 0.19635 0.59312 0.0
C45 C 0.82963 0.21431 0.58968 0.0
C46 C 0.82063 0.18222 0.62271 0.0
N47 N 0.84355 0.20549 0.60841 0.0
C48 C 0.73188 0.18564 0.60989 0.0
C49 C 0.72328 0.20475 0.66118 0.0
C50 C 0.71981 0.21862 0.63729 0.0
C51 C 0.72313 0.20795 0.61134 0.0
C52 C 0.73204 0.18252 0.65871 0.0
N53 N 0.73878 0.17512 0.63335 0.0
H54 H 0.73295 0.17675 0.58981 0.0
H55 H 0.73332 0.17132 0.67734 0.0
H56 H 0.78152 0.19758 0.58035 0.0
H57 H 0.82415 0.1701 0.63958 0.0
O58 O 0.73869 0.13009 0.59356 0.0
O59 O 0.7638 0.11483 0.62119 0.0
O60 O 0.7716 0.15579 0.66864 0.0
C61 C 0.74985 0.11199 0.59771 0.0
H62 H 0.67166 0.06104 0.68956 0.0
H63 H 0.84125 0.23243 0.5745 0.0
H64 H 0.71999 0.21146 0.6817 0.0
H65 H 0.71894 0.21671 0.5923 0.0
Co66 Co 0.60933 0.7526 0.96997 0.0
C67 C 0.58237 0.68443 0.97831 0.0
C68 C 0.63086 0.71044 0.98547 0.0
C69 C 0.62133 0.67978 0.98868 0.0
N70 N 0.60647 0.71348 0.97898 0.0
N71 N 0.59075 0.66331 0.98419 0.0
H72 H 0.5592 0.67864 0.97382 0.0
H73 H 0.65417 0.72931 0.98744 0.0
C74 C 0.6199 0.75434 0.03103 0.0
O75 O 0.59937 0.72491 0.03206 0.0
N76 N 0.61332 0.79176 0.96083 0.0
C77 C 0.59389 0.79694 0.94566 0.0
C78 C 0.60361 0.82791 0.94671 0.0
C79 C 0.63478 0.81946 0.97051 0.0
N80 N 0.6293 0.84195 0.96236 0.0
C81 C 0.54356 0.71906 0.96519 0.0
C82 C 0.53225 0.74776 0.00878 0.0
C83 C 0.5077 0.72741 0.99197 0.0
C84 C 0.51354 0.71256 0.97021 0.0
C85 C 0.56184 0.75347 0.00315 0.0
N86 N 0.5673 0.73876 0.9819 0.0
H87 H 0.54785 0.70906 0.94711 0.0
H88 H 0.58044 0.77143 0.01482 0.0
H89 H 0.57359 0.77933 0.93529 0.0
H90 H 0.65331 0.82291 0.98417 0.0
O91 O 0.60169 0.74038 0.93153 0.0
O92 O 0.64769 0.76485 0.95129 0.0
O93 O 0.62634 0.76879 0.00797 0.0
C94 C 0.63124 0.75216 0.92922 0.0
H95 H 0.63613 0.67053 -0.00665 0.0
H96 H 0.59245 0.83917 0.93704 0.0
H97 H 0.52885 0.76017 0.0255 0.0
H98 H 0.49539 0.69743 0.95617 0.0
Co99 Co 0.85138 0.59855 0.30233 0.0
C100 C 0.89344 0.57192 0.30598 0.0
C101 C 0.91175 0.61645 0.32463 0.0
C102 C 0.93348 0.60764 0.32649 0.0
N103 N 0.88651 0.59406 0.31191 0.0
N104 N 0.92192 0.57967 0.31478 0.0
H105 H 0.87881 0.55101 0.29487 0.0
H106 H 0.91427 0.63797 0.33186 0.0
C107 C 0.85271 0.59609 0.36341 0.0
O108 O 0.85677 0.5724 0.36015 0.0
N109 N 0.81758 0.60444 0.29267 0.0
C110 C 0.79618 0.58909 0.27309 0.0
C111 C 0.77632 0.60042 0.27245 0.0
C112 C 0.81071 0.62493 0.30361 0.0
N113 N 0.78549 0.62296 0.29164 0.0
C114 C 0.82038 0.53381 0.28961 0.0
C115 C 0.77444 0.51657 0.32871 0.0
C116 C 0.7733 0.49434 0.31049 0.0
C117 C 0.79681 0.50312 0.29092 0.0
C118 C 0.79855 0.54682 0.32692 0.0
N119 N 0.82177 0.55509 0.30811 0.0
H120 H 0.83662 0.5407 0.27274 0.0
H121 H 0.79742 0.56385 0.33971 0.0
H122 H 0.79504 0.57086 0.26029 0.0
H123 H 0.82417 0.64119 0.31968 0.0
O124 O 0.85998 0.59734 0.26353 0.0
O125 O 0.87979 0.6395 0.2895 0.0
O126 O 0.84865 0.60898 0.34225 0.0
C127 C 0.87836 0.6269 0.26552 0.0
H128 H 0.95599 0.62075 0.33583 0.0
H129 H 0.75641 0.59232 0.25916 0.0
H130 H 0.75626 0.51085 0.34366 0.0
H131 H 0.79602 0.48682 0.27574 0.0
Co132 Co 0.2473 0.8627 0.63765 0.0
C133 C 0.31614 0.90358 0.64069 0.0
C134 C 0.29121 0.92362 0.65862 0.0
C135 C 0.32205 0.9442 0.66135 0.0
N136 N 0.28738 0.89782 0.64622 0.0
N137 N 0.3376 0.93156 0.65003 0.0
H138 H 0.32171 0.88796 0.63043 0.0
H139 H 0.27269 0.92706 0.6655 0.0
C140 C 0.25044 0.86784 0.69911 0.0
O141 O 0.27902 0.87396 0.69758 0.0
N142 N 0.20714 0.82877 0.62903 0.0
C143 C 0.20041 0.80508 0.61182 0.0
C144 C 0.16943 0.78426 0.61372 0.0
C145 C 0.18032 0.82242 0.64085 0.0
N146 N 0.15692 0.79525 0.63198 0.0
C147 C 0.27937 0.82951 0.62725 0.0
C148 C 0.25175 0.78738 0.66963 0.0
C149 C 0.27169 0.78402 0.65161 0.0
C150 C 0.28587 0.80564 0.63032 0.0
C151 C 0.24601 0.81151 0.6659 0.0
N152 N 0.26042 0.8329 0.64545 0.0
H153 H 0.28851 0.84442 0.60943 0.0
H154 H 0.22844 0.81164 0.6786 0.0
H155 H 0.21702 0.80271 0.5994 0.0
H156 H 0.17817 0.83676 0.65643 0.0
O157 O 0.25697 0.86939 0.59863 0.0
O158 O 0.23544 0.89092 0.62329 0.0
O159 O 0.23409 0.8619 0.67723 0.0
C160 C 0.24636 0.88828 0.59963 0.0
H161 H 0.33229 0.96683 0.67067 0.0
H162 H 0.1571 0.76258 0.60277 0.0
H163 H 0.23987 0.7709 0.68606 0.0
H164 H 0.30059 0.80324 0.61535 0.0
Co165 Co 0.38556 0.24624 0.96383 0.0
C166 C 0.41199 0.31415 0.97413 0.0
C167 C 0.36459 0.28686 0.98548 0.0
C168 C 0.37364 0.31729 0.98984 0.0
N169 N 0.3886 0.28475 0.97566 0.0
N170 N 0.40345 0.33433 0.98274 0.0
H171 H 0.43456 0.3212 0.96628 0.0
H172 H 0.34185 0.26748 0.98901 0.0
C173 C 0.37873 0.242 0.02528 0.0
O174 O 0.39994 0.27118 0.02679 0.0
N175 N 0.38125 0.20764 0.95203 0.0
C176 C 0.39995 0.20327 0.93498 0.0
C177 C 0.3905 0.17233 0.93459 0.0
C178 C 0.36049 0.17951 0.96142 0.0
N179 N 0.36571 0.15752 0.95124 0.0
C180 C 0.45116 0.28132 0.9571 0.0
C181 C 0.46486 0.25067 -0.00288 0.0
C182 C 0.48871 0.2736 0.98143 0.0
C183 C 0.48172 0.28922 0.96134 0.0
C184 C 0.43475 0.24398 0.99265 0.0
N185 N 0.42816 0.25988 0.97341 0.0
H186 H 0.44592 0.29184 0.94003 0.0
H187 H 0.41668 0.2247 0.00363 0.0
H188 H 0.41965 0.2214 0.92435 0.0
H189 H 0.34273 0.17539 0.97633 0.0
O190 O 0.39104 0.26001 0.92582 0.0
O191 O 0.34624 0.23466 0.94759 0.0
O192 O 0.37066 0.22846 0.00181 0.0
C193 C 0.36138 0.24831 0.92518 0.0
H194 H 0.35945 0.32618 -0.00234 0.0
H195 H 0.40127 0.16163 0.92327 0.0
H196 H 0.46937 0.23742 0.01219 0.0
H197 H 0.49951 0.30625 0.94808 0.0
Co198 Co 0.60841 0.85449 0.35784 0.0
C199 C 0.58241 0.89659 0.35344 0.0
C200 C 0.63094 0.91955 0.34601 0.0
C201 C 0.62154 0.9409 0.34444 0.0
N202 N 0.60643 0.89169 0.35161 0.0
N203 N 0.59105 0.92639 0.34905 0.0
H204 H 0.55919 0.87918 0.35821 0.0
H205 H 0.65415 0.92404 0.34314 0.0
C206 C 0.61723 0.86679 0.29668 0.0
O207 O 0.59913 0.87857 0.29765 0.0
N208 N 0.61112 0.81817 0.36449 0.0
C209 C 0.59307 0.79457 0.38135 0.0
C210 C 0.60237 0.77309 0.37996 0.0
C211 C 0.63126 0.81102 0.35325 0.0
N212 N 0.62638 0.78347 0.36228 0.0
C213 C 0.54323 0.82267 0.36756 0.0
C214 C 0.52658 0.78832 0.31935 0.0
C215 C 0.50371 0.78258 0.33897 0.0
C216 C 0.51242 0.80039 0.36329 0.0
C217 C 0.55708 0.81019 0.32472 0.0
N218 N 0.56519 0.82778 0.34824 0.0
H219 H 0.54952 0.83537 0.38682 0.0
H220 H 0.57403 0.81145 0.31036 0.0
H221 H 0.57449 0.79309 0.39379 0.0
H222 H 0.64883 0.82552 0.33851 0.0
O223 O 0.60464 0.85899 0.39732 0.0
O224 O 0.64847 0.87918 0.37397 0.0
O225 O 0.62239 0.85558 0.31845 0.0
C226 C 0.63446 0.87594 0.39746 0.0
H227 H 0.63595 0.96514 0.33989 0.0
H228 H 0.59247 0.75169 0.39139 0.0
H229 H 0.52126 0.77543 0.30015 0.0
H230 H 0.4959 0.79642 0.37946 0.0
Co231 Co 0.75572 0.60832 0.69131 0.0
C232 C 0.69011 0.58471 0.68004 0.0
C233 C 0.71866 0.61665 0.64865 0.0
C234 C 0.68841 0.60663 0.64227 0.0
N235 N 0.7196 0.60271 0.6722 0.0
N236 N 0.6706 0.58671 0.6621 0.0
H237 H 0.6831 0.57038 0.69841 0.0
H238 H 0.73851 0.63325 0.63709 0.0
C239 C 0.79814 0.61286 0.64599 0.0
O240 O 0.80416 0.59434 0.66049 0.0
N241 N 0.79271 0.61532 0.71055 0.0
C242 C 0.79678 0.59919 0.73087 0.0
C243 C 0.82774 0.61231 0.73621 0.0
C244 C 0.82116 0.63896 0.70509 0.0
N245 N 0.84299 0.63718 0.71981 0.0
C246 C 0.73274 0.54489 0.70673 0.0
C247 C 0.72833 0.52296 0.65336 0.0
C248 C 0.7231 0.50301 0.67567 0.0
C249 C 0.72429 0.51407 0.70267 0.0
C250 C 0.73685 0.55355 0.65844 0.0
N251 N 0.74155 0.56485 0.68491 0.0
H252 H 0.73207 0.55262 0.72745 0.0
H253 H 0.73975 0.56813 0.64091 0.0
H254 H 0.77907 0.57927 0.74131 0.0
H255 H 0.82594 0.65614 0.68933 0.0
O256 O 0.73584 0.60519 0.7263 0.0
O257 O 0.76446 0.64859 0.703 0.0
O258 O 0.77911 0.62053 0.65519 0.0
C259 C 0.74727 0.6348 0.72444 0.0
H260 H 0.68018 0.614 0.62479 0.0
H261 H 0.83827 0.60388 0.7507 0.0
H262 H 0.72583 0.51504 0.6321 0.0
H263 H 0.71935 0.49932 0.72059 0.0
Co264 Co 0.14464 0.75292 0.02716 0.0
C265 C 0.10324 0.68445 0.02049 0.0
C266 C 0.08579 0.71109 0.00133 0.0
C267 C 0.06496 0.6805 -0.00284 0.0
N268 N 0.11021 0.71371 0.01536 0.0
N269 N 0.07595 0.66386 0.00927 0.0
H270 H 0.11734 0.67793 0.03211 0.0
H271 H 0.08333 0.73027 -0.00542 0.0
C272 C 0.14389 0.75613 0.96553 0.0
O273 O 0.13814 0.72759 0.96469 0.0
N274 N 0.1779 0.79227 0.0389 0.0
C275 C 0.20082 0.79766 0.05654 0.0
C276 C 0.2216 0.8288 0.05669 0.0
C277 C 0.18463 0.81998 0.0289 0.0
N278 N 0.21132 0.84271 0.03929 0.0
C279 C 0.17707 0.7198 0.03554 0.0
C280 C 0.22194 0.75164 -0.00382 0.0
C281 C 0.22414 0.72996 0.01275 0.0
C282 C 0.20113 0.71365 0.03247 0.0
C283 C 0.19757 0.75699 -0.00013 0.0
N284 N 0.17487 0.74056 0.01879 0.0
H285 H 0.16118 0.70906 0.05248 0.0
H286 H 0.19826 0.77582 0.98855 0.0
H287 H 0.2028 0.78009 0.06775 0.0
H288 H 0.17096 0.8233 0.01344 0.0
O289 O 0.13592 0.73974 0.06528 0.0
O290 O 0.1156 0.76339 0.04207 0.0
O291 O 0.1477 0.76986 0.98873 0.0
C292 C 0.11721 0.75055 0.06496 0.0
H293 H 0.04312 0.67116 0.98655 0.0
H294 H 0.24281 0.84026 0.06837 0.0
H295 H 0.2395 0.76517 0.98103 0.0
H296 H 0.2026 0.69753 0.04641 0.0
Co297 Co 0.38488 0.13765 0.34964 0.0
C298 C 0.41113 0.0955 0.34575 0.0
C299 C 0.36278 0.07282 0.33776 0.0
C300 C 0.37205 0.05138 0.33638 0.0
N301 N 0.38725 0.10058 0.34358 0.0
N302 N 0.40251 0.06564 0.34139 0.0
H303 H 0.43437 0.11303 0.35006 0.0
H304 H 0.3396 0.0684 0.33485 0.0
C305 C 0.37608 0.12506 0.2888 0.0
O306 O 0.39575 0.11516 0.28978 0.0
N307 N 0.38155 0.1737 0.35596 0.0
C308 C 0.40053 0.19851 0.37124 0.0
C309 C 0.39162 0.2202 0.36847 0.0
C310 C 0.36115 0.18031 0.34443 0.0
N311 N 0.36689 0.20867 0.35162 0.0
C312 C 0.45045 0.16953 0.3569 0.0
C313 C 0.46429 0.2065 0.31055 0.0
C314 C 0.48802 0.21143 0.32873 0.0
C315 C 0.48091 0.1923 0.35198 0.0
C316 C 0.43427 0.18353 0.31619 0.0
N317 N 0.42757 0.16478 0.3388 0.0
H318 H 0.44514 0.15628 0.37581 0.0
H319 H 0.4164 0.18246 0.30314 0.0
H320 H 0.41989 0.20091 0.38304 0.0
H321 H 0.34313 0.1651 0.33034 0.0
O322 O 0.3903 0.13452 0.38893 0.0
O323 O 0.34552 0.11277 0.36697 0.0
O324 O 0.36975 0.13529 0.31058 0.0
C325 C 0.36057 0.11698 0.39001 0.0
H326 H 0.35724 0.02706 0.33252 0.0
H327 H 0.40257 0.24275 0.378 0.0
H328 H 0.46867 0.22104 0.29254 0.0
H329 H 0.49843 0.19589 0.36699 0.0
Co330 Co 0.25172 0.39736 0.68071 0.0
C331 C 0.32106 0.42723 0.67788 0.0
C332 C 0.29666 0.38274 0.65878 0.0
C333 C 0.32754 0.39379 0.65552 0.0
N334 N 0.29241 0.40384 0.67233 0.0
N335 N 0.34278 0.4217 0.66752 0.0
H336 H 0.32639 0.4481 0.68864 0.0
H337 H 0.27836 0.36086 0.65134 0.0
C338 C 0.25741 0.40066 0.61966 0.0
O339 O 0.28462 0.42503 0.6235 0.0
N340 N 0.2109 0.38935 0.68894 0.0
C341 C 0.20302 0.40529 0.70628 0.0
C342 C 0.17174 0.39335 0.70461 0.0
C343 C 0.18449 0.36768 0.67732 0.0
N344 N 0.16022 0.36972 0.68644 0.0
C345 C 0.28293 0.46216 0.69349 0.0
C346 C 0.25409 0.47776 0.65318 0.0
C347 C 0.2743 0.5005 0.67155 0.0
C348 C 0.28905 0.49252 0.69179 0.0
C349 C 0.24888 0.44788 0.65543 0.0
N350 N 0.26396 0.44045 0.67481 0.0
H351 H 0.29239 0.45585 0.71067 0.0
H352 H 0.23135 0.43042 0.64243 0.0
H353 H 0.21899 0.42465 0.71877 0.0
H354 H 0.18319 0.35142 0.66186 0.0
O355 O 0.2603 0.39881 0.71981 0.0
O356 O 0.24054 0.35678 0.69366 0.0
O357 O 0.24014 0.38692 0.64046 0.0
C358 C 0.25042 0.36948 0.71786 0.0
H359 H 0.33802 0.38218 0.64523 0.0
H360 H 0.15848 0.40146 0.71577 0.0
H361 H 0.24166 0.48281 0.63766 0.0
H362 H 0.3039 0.50918 0.70707 0.0
Co363 Co 0.84609 0.24746 0.02558 0.0
C364 C 0.88852 0.31428 0.01896 0.0
C365 C 0.89711 0.28769 0.98908 0.0
C366 C 0.9172 0.31836 0.98418 0.0
N367 N 0.87899 0.28523 0.01066 0.0
N368 N 0.91179 0.33497 0.00298 0.0
H369 H 0.8783 0.32015 0.03595 0.0
H370 H 0.89585 0.26853 0.97772 0.0
C371 C 0.81247 0.21096 0.97528 0.0
O372 O 0.78629 0.20141 0.98834 0.0
N373 N 0.81359 0.20876 0.04052 0.0
C374 C 0.79193 0.20328 0.05979 0.0
C375 C 0.77343 0.17198 0.06295 0.0
C376 C 0.80879 0.18069 0.03338 0.0
N377 N 0.78397 0.15785 0.04617 0.0
C378 C 0.80675 0.27113 0.04227 0.0
C379 C 0.79063 0.27863 0.98927 0.0
C380 C 0.77544 0.28245 0.01192 0.0
C381 C 0.78472 0.28005 0.03876 0.0
C382 C 0.81271 0.27011 -0.0062 0.0
N383 N 0.81836 0.26358 0.01994 0.0
H384 H 0.81413 0.26991 0.06302 0.0
H385 H 0.82501 0.26859 0.9761 0.0
H386 H 0.78939 0.2203 0.07114 0.0
H387 H 0.82239 0.17706 0.01804 0.0
O388 O 0.85995 0.26216 0.06273 0.0
O389 O 0.87553 0.23587 0.03698 0.0
O390 O 0.83792 0.22919 0.98716 0.0
C391 C 0.87728 0.24987 0.06023 0.0
H392 H 0.93473 0.32775 0.96824 0.0
H393 H 0.75367 0.16051 0.07649 0.0
H394 H 0.78529 0.28193 0.96822 0.0
H395 H 0.77434 0.28396 0.05685 0.0
C396 C 0.92012 0.2428 0.07755 0.0
C397 C 0.8992 0.25315 0.08209 0.0
C398 C 0.94276 0.24846 0.09717 0.0
C399 C 0.96602 0.2715 0.17003 0.0
H400 H 0.04883 0.30919 0.14057 0.0
C401 C 0.09443 0.36077 0.20965 0.0
C402 C 0.09521 0.34768 0.23515 0.0
C403 C 0.07092 0.34406 0.19069 0.0
C404 C 0.02582 0.29853 0.14907 0.0
H405 H 0.88469 0.27632 0.1112 0.0
H406 H 0.92429 0.28627 0.14543 0.0
H407 H 0.00526 0.28855 0.10876 0.0
H408 H 0.07255 0.30657 0.26055 0.0
H409 H 0.03116 0.27735 0.22734 0.0
H410 H 0.98672 0.28263 0.21033 0.0
C411 C 0.92309 0.27364 0.12679 0.0
C412 C 0.00087 0.28647 0.1309 0.0
C413 C 0.90054 0.26813 0.10711 0.0
C414 C 0.07251 0.31722 0.24103 0.0
C415 C 0.04878 0.30057 0.22212 0.0
C416 C 0.99098 0.2834 0.18822 0.0
C417 C 0.94479 0.26439 0.12178 0.0
C418 C 0.97077 0.2735 0.14118 0.0
C419 C 0.04758 0.31399 0.19692 0.0
C420 C 0.02114 0.2977 0.17787 0.0
H421 H 0.91955 0.23107 0.05849 0.0
H422 H 0.95901 0.24081 0.09291 0.0
H423 H 0.94303 0.26137 0.17851 0.0
H424 H 0.11165 0.38419 0.20456 0.0
H425 H 0.07038 0.35512 0.17157 0.0
C426 C 0.68333 0.91374 0.42057 0.0
C427 C 0.6514 0.89391 0.42205 0.0
C428 C 0.69881 0.93484 0.44177 0.0
C429 C 0.71644 0.99245 0.47498 0.0
H430 H 0.69852 0.97816 0.55364 0.0
C431 C 0.73273 0.08733 0.55121 0.0
C432 C 0.74504 0.08794 0.5775 0.0
C433 C 0.7259 0.06327 0.53284 0.0
C434 C 0.70407 0.98242 0.53177 0.0
H435 H 0.61098 0.87907 0.44773 0.0
H436 H 0.63804 0.91607 0.48478 0.0
H437 H 0.67818 0.93444 0.52166 0.0
H438 H 0.76044 0.06425 0.60504 0.0
H439 H 0.74822 0.02195 0.57288 0.0
H440 H 0.74162 0.04041 0.48492 0.0
C441 C 0.65112 0.91522 0.46727 0.0
C442 C 0.69225 0.95746 0.51349 0.0
C443 C 0.63559 0.89411 0.44601 0.0
C444 C 0.75102 0.06439 0.58487 0.0
C445 C 0.74388 0.04011 0.56657 0.0
C446 C 0.72803 0.01737 0.49319 0.0
C447 C 0.68269 0.93649 0.46489 0.0
C448 C 0.69793 0.96229 0.48485 0.0
C449 C 0.731 0.03921 0.54049 0.0
C450 C 0.7215 0.01264 0.52168 0.0
H451 H 0.6962 0.91395 0.40246 0.0
H452 H 0.72324 0.95064 0.43962 0.0
H453 H 0.72093 0.99695 0.45298 0.0
H454 H 0.72787 0.10517 0.54499 0.0
H455 H 0.71569 0.06297 0.51297 0.0
C456 C 0.62677 0.7255 0.88446 0.0
C457 C 0.6451 0.74835 0.9037 0.0
C458 C 0.6402 0.71877 0.86223 0.0
C459 C 0.71468 0.72641 0.84175 0.0
H460 H 0.67009 0.6895 0.77372 0.0
C461 C 0.75755 0.68344 0.74789 0.0
C462 C 0.7389 0.6515 0.74442 0.0
C463 C 0.74852 0.69934 0.76585 0.0
C464 C 0.68282 0.7 0.79257 0.0
H465 H 0.69158 0.78351 0.91394 0.0
H466 H 0.71505 0.77284 0.87435 0.0
H467 H 0.65018 0.71247 0.80631 0.0
H468 H 0.6962 0.61113 0.75656 0.0
H469 H 0.68007 0.63917 0.78733 0.0
H470 H 0.7475 0.71411 0.82743 0.0
C471 C 0.69039 0.75924 0.87693 0.0
C472 C 0.67137 0.71294 0.81136 0.0
C473 C 0.67696 0.76557 0.89949 0.0
C474 C 0.71113 0.63571 0.7591 0.0
C475 C 0.70179 0.65169 0.77648 0.0
C476 C 0.72644 0.71405 0.82263 0.0
C477 C 0.67226 0.73516 0.85843 0.0
C478 C 0.68666 0.72549 0.83662 0.0
C479 C 0.72038 0.68357 0.77991 0.0
C480 C 0.71014 0.70007 0.79831 0.0
H481 H 0.60214 0.7117 0.88733 0.0
H482 H 0.62543 0.69972 0.84884 0.0
H483 H 0.72693 0.73539 0.86108 0.0
H484 H 0.77906 0.69608 0.73675 0.0
H485 H 0.76314 0.72396 0.76834 0.0
C486 C 0.09664 0.72926 0.1119 0.0
C487 C 0.09639 0.74559 0.08837 0.0
C488 C 0.07403 0.72061 0.13222 0.0
C489 C 0.01204 0.73299 0.15864 0.0
H490 H 0.97498 0.64716 0.17969 0.0
C491 C 0.8984 0.62989 0.21764 0.0
C492 C 0.89937 0.64454 0.24275 0.0
C493 C 0.92139 0.64493 0.19782 0.0
C494 C 0.98487 0.67109 0.17381 0.0
H495 H 0.07348 0.7673 0.06839 0.0
H496 H 0.03383 0.75195 0.10382 0.0
H497 H 0.01913 0.66955 0.14885 0.0
H498 H 0.92394 0.68706 0.2661 0.0
H499 H 0.96426 0.71326 0.23148 0.0
H500 H 0.97727 0.73421 0.18347 0.0
C501 C 0.05156 0.74598 0.10663 0.0
C502 C 0.01048 0.68405 0.1565 0.0
C503 C 0.07419 0.75464 0.08629 0.0
C504 C 0.92265 0.67518 0.24693 0.0
C505 C 0.94569 0.69023 0.22708 0.0
C506 C 0.98639 0.72 0.17612 0.0
C507 C 0.05074 0.7281 0.12937 0.0
C508 C 0.02434 0.71511 0.14873 0.0
C509 C 0.94579 0.67486 0.20275 0.0
C510 C 0.97248 0.68886 0.18374 0.0
H511 H 0.11361 0.72216 0.11415 0.0
H512 H 0.07426 0.7073 0.1498 0.0
H513 H 0.02234 0.75702 0.15302 0.0
H514 H 0.88059 0.60637 0.21374 0.0
H515 H 0.92058 0.63276 0.17898 0.0
C516 C 0.36217 0.10136 0.43887 0.0
C517 C 0.34507 0.09917 0.4151 0.0
C518 C 0.34858 0.08045 0.4606 0.0
C519 C 0.32236 0.01855 0.48823 0.0
H520 H 0.23861 0.98463 0.51436 0.0
C521 C 0.26497 0.90776 0.55181 0.0
C522 C 0.25023 0.90875 0.5762 0.0
C523 C 0.27326 0.9304 0.53155 0.0
C524 C 0.26207 0.99397 0.5073 0.0
H525 H 0.29984 0.07492 0.39624 0.0
H526 H 0.27626 0.03825 0.43401 0.0
H527 H 0.26047 0.02879 0.48287 0.0
H528 H 0.23087 0.93303 0.59781 0.0
H529 H 0.24556 0.97269 0.5625 0.0
H530 H 0.32423 0.98416 0.51276 0.0
C531 C 0.30007 0.05616 0.43599 0.0
C532 C 0.27451 0.01912 0.48922 0.0
C533 C 0.31364 0.07711 0.41428 0.0
C534 C 0.24227 0.9317 0.57921 0.0
C535 C 0.25059 0.95438 0.55895 0.0
C536 C 0.30994 0.99347 0.5062 0.0
C537 C 0.31769 0.05694 0.45891 0.0
C538 C 0.30479 0.03162 0.47947 0.0
C539 C 0.267 0.95448 0.53533 0.0
C540 C 0.27962 0.98077 0.5158 0.0
H541 H 0.38639 0.11829 0.44016 0.0
H542 H 0.36257 0.08198 0.47829 0.0
H543 H 0.34557 0.0273 0.48074 0.0
H544 H 0.27122 0.89022 0.54884 0.0
H545 H 0.28534 0.92956 0.51325 0.0
C546 C 0.26605 0.3671 0.76648 0.0
C547 C 0.25361 0.35226 0.74114 0.0
C548 C 0.27358 0.35248 0.78705 0.0
C549 C 0.31058 0.32738 0.81381 0.0
H550 H 0.26249 0.24121 0.83398 0.0
C551 C 0.36337 0.27022 0.87828 0.0
C552 C 0.34609 0.25331 0.90132 0.0
C553 C 0.34988 0.2789 0.85755 0.0
C554 C 0.2761 0.26532 0.82856 0.0
H555 H 0.23752 0.30982 0.71804 0.0
H556 H 0.25088 0.28434 0.75397 0.0
H557 H 0.24097 0.2634 0.80202 0.0
H558 H 0.30075 0.23069 0.92002 0.0
H559 H 0.27722 0.24602 0.88382 0.0
H560 H 0.34554 0.32957 0.84041 0.0
C561 C 0.25468 0.30721 0.75798 0.0
C562 C 0.26387 0.27796 0.8102 0.0
C563 C 0.24714 0.32185 0.73738 0.0
C564 C 0.31465 0.24377 0.90249 0.0
C565 C 0.30114 0.25244 0.88173 0.0
C566 C 0.32281 0.31476 0.83198 0.0
C567 C 0.26885 0.32275 0.78267 0.0
C568 C 0.28099 0.30916 0.80273 0.0
C569 C 0.31886 0.27084 0.85947 0.0
C570 C 0.30577 0.28361 0.83951 0.0
H571 H 0.27108 0.39046 0.77007 0.0
H572 H 0.28393 0.36479 0.80612 0.0
H573 H 0.32453 0.35137 0.80811 0.0
H574 H 0.3876 0.27773 0.87672 0.0
H575 H 0.36394 0.29261 0.84035 0.0
C576 C 0.22212 0.39625 0.37623 0.0
C577 C 0.19286 0.38598 0.36489 0.0
C578 C 0.22526 0.38907 0.40355 0.0
C579 C 0.18488 0.37057 0.47005 0.0
H580 H 0.25162 0.35795 0.49294 0.0
C581 C 0.21546 0.36974 0.58551 0.0
C582 C 0.24665 0.39016 0.59115 0.0
C583 C 0.20543 0.36147 0.55812 0.0
C584 C 0.23278 0.36129 0.48682 0.0
H585 H 0.14387 0.35908 0.37296 0.0
H586 H 0.14942 0.34643 0.4207 0.0
H587 H 0.24007 0.35724 0.44364 0.0
H588 H 0.29194 0.41686 0.57279 0.0
H589 H 0.27449 0.40253 0.52526 0.0
H590 H 0.17829 0.37567 0.51319 0.0
C591 C 0.16991 0.36035 0.40852 0.0
C592 C 0.22623 0.36097 0.45865 0.0
C593 C 0.16676 0.36754 0.38116 0.0
C594 C 0.26772 0.40126 0.56909 0.0
C595 C 0.25777 0.39279 0.54187 0.0
C596 C 0.19138 0.3708 0.49824 0.0
C597 C 0.19921 0.3714 0.42012 0.0
C598 C 0.20288 0.36665 0.44993 0.0
C599 C 0.22651 0.37316 0.53604 0.0
C600 C 0.21606 0.3672 0.50683 0.0
H601 H 0.24268 0.41042 0.36422 0.0
H602 H 0.24817 0.39833 0.41198 0.0
H603 H 0.1669 0.37527 0.464 0.0
H604 H 0.19872 0.36078 0.60214 0.0
H605 H 0.1812 0.34622 0.55417 0.0
C606 C 0.81894 0.20902 0.723 0.0
C607 C 0.79604 0.18217 0.71011 0.0
C608 C 0.82295 0.20991 0.75179 0.0
C609 C 0.77922 0.17695 0.81448 0.0
H610 H 0.85762 0.20617 0.85107 0.0
C611 C 0.78713 0.17859 0.93348 0.0
C612 C 0.81246 0.20409 0.94554 0.0
C613 C 0.78648 0.17336 0.90493 0.0
C614 C 0.83559 0.19829 0.84119 0.0
H615 H 0.75988 0.13501 0.71723 0.0
H616 H 0.76662 0.13687 0.76732 0.0
H617 H 0.85473 0.2031 0.80043 0.0
H618 H 0.85709 0.244 0.93737 0.0
H619 H 0.85548 0.23568 0.88764 0.0
H620 H 0.76007 0.17335 0.85474 0.0
C621 C 0.78148 0.1571 0.75516 0.0
C622 C 0.834 0.19644 0.81223 0.0
C623 C 0.77776 0.15606 0.72645 0.0
C624 C 0.83736 0.22395 0.92868 0.0
C625 C 0.83649 0.21905 0.90012 0.0
C626 C 0.78086 0.17926 0.84334 0.0
C627 C 0.8038 0.18412 0.7681 0.0
C628 C 0.80579 0.18577 0.79869 0.0
C629 C 0.8109 0.19388 0.8878 0.0
C630 C 0.80907 0.19002 0.85711 0.0
H631 H 0.83343 0.22944 0.71092 0.0
H632 H 0.84025 0.23105 0.76141 0.0
H633 H 0.75724 0.16899 0.80443 0.0
H634 H 0.76777 0.16275 0.94608 0.0
H635 H 0.76668 0.15334 0.8963 0.0
C636 C 0.63099 0.88154 0.24707 0.0
C637 C 0.62821 0.86261 0.26958 0.0
C638 C 0.63893 0.87597 0.22081 0.0
C639 C 0.66549 0.82823 0.18292 0.0
H640 H 0.61927 0.83659 0.12253 0.0
C641 C 0.62936 0.75642 0.08209 0.0
C642 C 0.63161 0.77179 0.0571 0.0
C643 C 0.63692 0.77237 0.10726 0.0
C644 C 0.63275 0.83461 0.13909 0.0
H645 H 0.63233 0.82354 0.28259 0.0
H646 H 0.64464 0.8128 0.23668 0.0
H647 H 0.6173 0.85577 0.16826 0.0
H648 H 0.64484 0.81617 0.03867 0.0
H649 H 0.65738 0.8438 0.08279 0.0
H650 H 0.67908 0.80504 0.15368 0.0
C651 C 0.64176 0.83261 0.23924 0.0
C652 C 0.63177 0.84574 0.16536 0.0
C653 C 0.63445 0.83861 0.2656 0.0
C654 C 0.64288 0.80367 0.05759 0.0
C655 C 0.64998 0.8195 0.0828 0.0
C656 C 0.66601 0.8166 0.15669 0.0
C657 C 0.64355 0.85088 0.21637 0.0
C658 C 0.64767 0.84222 0.18779 0.0
C659 C 0.64643 0.80384 0.10787 0.0
C660 C 0.64925 0.8193 0.13469 0.0
H661 H 0.62672 0.90049 0.2497 0.0
H662 H 0.64086 0.89102 0.2039 0.0
H663 H 0.67857 0.82569 0.1995 0.0
H664 H 0.6209 0.7319 0.0823 0.0
H665 H 0.63377 0.75975 0.12637 0.0
C666 C 0.80318 0.64051 0.60135 0.0
C667 C 0.81103 0.62238 0.61782 0.0
C668 C 0.81302 0.64703 0.57381 0.0
C669 C 0.86673 0.64402 0.52265 0.0
H670 H 0.80158 0.62615 0.46997 0.0
C671 C 0.8631 0.59726 0.41401 0.0
C672 C 0.85255 0.60734 0.39164 0.0
C673 C 0.86249 0.60707 0.44092 0.0
C674 C 0.82024 0.63189 0.48436 0.0
H675 H 0.83664 0.5982 0.61876 0.0
H676 H 0.85339 0.60917 0.57072 0.0
H677 H 0.79292 0.62954 0.51927 0.0
H678 H 0.83358 0.63609 0.37977 0.0
H679 H 0.8321 0.65298 0.4272 0.0
H680 H 0.89349 0.64487 0.48775 0.0
C681 C 0.83991 0.61864 0.57909 0.0
C682 C 0.8153 0.63385 0.51262 0.0
C683 C 0.83007 0.61212 0.6066 0.0
C684 C 0.84181 0.6279 0.39666 0.0
C685 C 0.84092 0.63752 0.42373 0.0
C686 C 0.87162 0.64196 0.49441 0.0
C687 C 0.83097 0.63563 0.56223 0.0
C688 C 0.83815 0.63892 0.53214 0.0
C689 C 0.85114 0.62705 0.44612 0.0
C690 C 0.84806 0.63485 0.47512 0.0
H691 H 0.78878 0.64904 0.60947 0.0
H692 H 0.8061 0.66051 0.56142 0.0
H693 H 0.88498 0.64858 0.53716 0.0
H694 H 0.87169 0.58157 0.41081 0.0
H695 H 0.87005 0.59822 0.45779 0.0
C696 C 0.13705 0.75799 0.91446 0.0
C697 C 0.14949 0.7735 0.93954 0.0
C698 C 0.14451 0.7742 0.88948 0.0
C699 C 0.20834 0.83673 0.85719 0.0
H700 H 0.15182 0.83029 0.79939 0.0
C701 C 0.25399 0.88279 0.74873 0.0
C702 C 0.23631 0.86457 0.72647 0.0
C703 C 0.24141 0.87789 0.77532 0.0
C704 C 0.16793 0.83213 0.8152 0.0
H705 H 0.17867 0.81814 0.95844 0.0
H706 H 0.19256 0.8463 0.91448 0.0
H707 H 0.13215 0.80899 0.84539 0.0
H708 H 0.19154 0.82763 0.71399 0.0
H709 H 0.17006 0.8176 0.76057 0.0
H710 H 0.24386 0.85739 0.82704 0.0
C711 C 0.17665 0.82173 0.91433 0.0
C712 C 0.15663 0.82018 0.84155 0.0
C713 C 0.1687 0.80562 0.93938 0.0
C714 C 0.20557 0.84205 0.73092 0.0
C715 C 0.19322 0.83653 0.75765 0.0
C716 C 0.21957 0.84802 0.83077 0.0
C717 C 0.16496 0.80605 0.8892 0.0
C718 C 0.17675 0.82202 0.86255 0.0
C719 C 0.21119 0.85397 0.78033 0.0
C720 C 0.19947 0.84538 0.80923 0.0
H721 H 0.12203 0.73326 0.91409 0.0
H722 H 0.1355 0.76165 0.87025 0.0
H723 H 0.22421 0.838 0.87305 0.0
H724 H 0.27766 0.90064 0.74561 0.0
H725 H 0.2557 0.89244 0.79203 0.0
C726 C 0.36931 0.23844 0.07636 0.0
C727 C 0.36711 0.22382 0.05093 0.0
C728 C 0.3609 0.22158 0.10101 0.0
C729 C 0.36305 0.1581 0.13157 0.0
H730 H 0.31426 0.16448 0.19072 0.0
C731 C 0.36284 0.10999 0.23921 0.0
C732 C 0.36473 0.12858 0.2617 0.0
C733 C 0.35496 0.11535 0.21286 0.0
C734 C 0.32814 0.16262 0.1745 0.0
H735 H 0.35349 0.17999 0.03112 0.0
H736 H 0.33964 0.15072 0.07443 0.0
H737 H 0.31559 0.1866 0.14523 0.0
H738 H 0.35895 0.1667 0.27469 0.0
H739 H 0.34684 0.17716 0.22866 0.0
H740 H 0.37764 0.13636 0.16088 0.0
C741 C 0.34749 0.17511 0.07515 0.0
C742 C 0.32866 0.17508 0.14845 0.0
C743 C 0.35537 0.19186 0.05044 0.0
C744 C 0.35751 0.1519 0.25768 0.0
C745 C 0.35032 0.15773 0.23125 0.0
C746 C 0.36304 0.1462 0.1577 0.0
C747 C 0.35066 0.18994 0.10063 0.0
C748 C 0.34656 0.17337 0.12697 0.0
C749 C 0.34957 0.13993 0.20835 0.0
C750 C 0.3461 0.14886 0.17971 0.0
H751 H 0.37813 0.26301 0.07728 0.0
H752 H 0.3638 0.23352 0.12049 0.0
H753 H 0.37734 0.15686 0.11537 0.0
H754 H 0.36788 0.09156 0.24191 0.0
H755 H 0.35381 0.10064 0.19592 0.0
C756 C 0.96922 0.57703 0.30865 0.0
C757 C 0.93719 0.56207 0.31202 0.0
C758 C 0.98429 0.56013 0.30698 0.0
C759 C 0.97705 0.48708 0.32828 0.0
H760 H 0.0408 0.50637 0.27362 0.0
C761 C 0.03635 0.41477 0.31834 0.0
C762 C 0.06805 0.43043 0.31294 0.0
C763 C 0.01968 0.4301 0.31681 0.0
C764 C 0.02333 0.50093 0.28924 0.0
H765 H 0.8958 0.51771 0.31614 0.0
H766 H 0.92221 0.48803 0.31336 0.0
H767 H 0.01282 0.53439 0.27329 0.0
H768 H 0.1072 0.47443 0.30188 0.0
H769 H 0.07832 0.50149 0.29976 0.0
H770 H 0.98796 0.45424 0.34477 0.0
C771 C 0.9356 0.51287 0.312 0.0
C772 C 0.00723 0.5169 0.28895 0.0
C773 C 0.92047 0.5298 0.31336 0.0
C774 C 0.08273 0.46172 0.30583 0.0
C775 C 0.06612 0.47716 0.30455 0.0
C776 C 0.99332 0.47129 0.32874 0.0
C777 C 0.96768 0.5279 0.30892 0.0
C778 C 0.98399 0.51019 0.30852 0.0
C779 C 0.03438 0.46155 0.31009 0.0
C780 C 0.01673 0.47806 0.30927 0.0
H781 H 0.98263 0.60185 0.30725 0.0
H782 H 0.00905 0.57233 0.30479 0.0
H783 H 0.95955 0.48174 0.34386 0.0
H784 H 0.02432 0.39052 0.32339 0.0
H785 H 0.99519 0.41716 0.32065 0.0
C786 C 0.61798 0.06104 0.62598 0.0
C787 C 0.63259 0.06875 0.65194 0.0
C788 C 0.58588 0.04494 0.62425 0.0
C789 C 0.51634 0.99741 0.66772 0.0
H790 H 0.47398 0.01286 0.60818 0.0
C791 C 0.38847 0.96211 0.67161 0.0
C792 C 0.3704 0.94508 0.64895 0.0
C793 C 0.42035 0.97556 0.67069 0.0
C794 C 0.4856 0.00817 0.62476 0.0
H795 H 0.62543 0.06706 0.69632 0.0
H796 H 0.56968 0.04029 0.6935 0.0
H797 H 0.5301 0.04062 0.60916 0.0
H798 H 0.3713 0.92896 0.60747 0.0
H799 H 0.42757 0.95335 0.60553 0.0
H800 H 0.47168 0.966 0.68389 0.0
C801 C 0.58267 0.04535 0.67439 0.0
C802 C 0.51774 0.02395 0.62531 0.0
C803 C 0.61464 0.0609 0.67608 0.0
C804 C 0.3848 0.94184 0.62524 0.0
C805 C 0.41685 0.95588 0.62408 0.0
C806 C 0.4843 0.98211 0.6674 0.0
C807 C 0.56777 0.03668 0.64848 0.0
C808 C 0.53356 0.01902 0.647 0.0
C809 C 0.43483 0.97272 0.64688 0.0
C810 C 0.46868 0.98754 0.64606 0.0
H811 H 0.6314 0.06666 0.60709 0.0
H812 H 0.57534 0.0384 0.60394 0.0
H813 H 0.52755 0.99225 0.68432 0.0
H814 H 0.37783 0.96472 0.69017 0.0
H815 H 0.43378 0.98856 0.68847 0.0
C816 C 0.45355 0.38158 0.98952 0.0
C817 C 0.42206 0.36734 0.98334 0.0
C818 C 0.4716 0.41364 0.99016 0.0
C819 C 0.47633 0.48356 0.96251 0.0
H820 H 0.53014 0.52421 0.02504 0.0
C821 C 0.54141 0.61566 0.9738 0.0
C822 C 0.57138 0.63014 0.9848 0.0
C823 C 0.52292 0.58364 0.97414 0.0
C824 C 0.51561 0.51327 0.0072 0.0
H825 H 0.38489 0.3754 0.97259 0.0
H826 H 0.41653 0.4315 0.9734 0.0
H827 H 0.49893 0.46824 0.02425 0.0
H828 H 0.60484 0.62144 0.00517 0.0
H829 H 0.57329 0.56601 0.00458 0.0
H830 H 0.49344 0.52828 0.94499 0.0
C831 C 0.42716 0.41782 0.97789 0.0
C832 C 0.49765 0.4812 0.00684 0.0
C833 C 0.40903 0.38578 0.97765 0.0
C834 C 0.58217 0.6115 -0.00382 0.0
C835 C 0.5638 0.57948 -0.00378 0.0
C836 C 0.49458 0.5156 0.96266 0.0
C837 C 0.4586 0.43206 0.98423 0.0
C838 C 0.47778 0.46605 0.98454 0.0
C839 C 0.53391 0.56509 0.9852 0.0
C840 C 0.51442 0.53092 0.98505 0.0
H841 H 0.4641 0.3679 -0.00581 0.0
H842 H 0.49582 0.42405 -0.00505 0.0
H843 H 0.46146 0.47241 0.94489 0.0
H844 H 0.53207 0.62882 0.9646 0.0
H845 H 0.49986 0.57348 0.96586 0.0
C846 C 0.54117 0.92308 0.33995 0.0
C847 C 0.57175 0.93996 0.34912 0.0
C848 C 0.52271 0.93656 0.33934 0.0
C849 C 0.51383 0.99846 0.37001 0.0
H850 H 0.467 0.99057 0.30354 0.0
C851 C 0.45035 0.06653 0.35564 0.0
C852 C 0.42165 0.05174 0.34222 0.0
C853 C 0.46873 0.05296 0.3565 0.0
C854 C 0.47954 0.99265 0.32243 0.0
H855 H 0.60675 0.98389 0.36544 0.0
H856 H 0.57443 0.00743 0.36454 0.0
H857 H 0.49831 0.96613 0.30553 0.0
H858 H 0.39015 0.01092 0.31891 0.0
H859 H 0.42148 0.98686 0.32139 0.0
H860 H 0.49473 0.02446 0.3872 0.0
C861 C 0.5648 0.98382 0.35774 0.0
C862 C 0.49755 0.97869 0.32351 0.0
C863 C 0.58336 0.97045 0.35803 0.0
C864 C 0.41186 0.02296 0.32973 0.0
C865 C 0.4301 0.00928 0.33081 0.0
C866 C 0.49557 0.01216 0.36906 0.0
C867 C 0.53436 0.96707 0.34822 0.0
C868 C 0.51493 0.98153 0.34728 0.0
C869 C 0.4588 0.0241 0.34416 0.0
C870 C 0.47824 0.00949 0.34523 0.0
H871 H 0.53171 0.89964 0.33275 0.0
H872 H 0.49925 0.92306 0.33208 0.0
H873 H 0.52674 0.00072 0.38872 0.0
H874 H 0.45866 0.08849 0.3658 0.0
H875 H 0.49086 0.06527 0.36666 0.0
C876 C 0.61966 0.56192 0.63987 0.0
C877 C 0.63767 0.57151 0.664 0.0
C878 C 0.58771 0.54756 0.64155 0.0
C879 C 0.5225 0.50776 0.69102 0.0
H880 H 0.47804 0.52111 0.63201 0.0
C881 C 0.3903 0.45884 0.69191 0.0
C882 C 0.37553 0.44162 0.66809 0.0
C883 C 0.42238 0.47688 0.69273 0.0
C884 C 0.49021 0.51724 0.64864 0.0
H885 H 0.63656 0.57408 0.7088 0.0
H886 H 0.58076 0.54984 0.71186 0.0
H887 H 0.53399 0.54865 0.63128 0.0
H888 H 0.38233 0.43052 0.62622 0.0
H889 H 0.43826 0.46251 0.62739 0.0
H890 H 0.47836 0.47663 0.70847 0.0
C891 C 0.59115 0.55257 0.69161 0.0
C892 C 0.52227 0.5328 0.64815 0.0
C893 C 0.62313 0.56652 0.68991 0.0
C894 C 0.39324 0.44338 0.64489 0.0
C895 C 0.42515 0.46182 0.6455 0.0
C896 C 0.4904 0.49256 0.69171 0.0
C897 C 0.57299 0.54291 0.66743 0.0
C898 C 0.53887 0.52784 0.66904 0.0
C899 C 0.44004 0.47849 0.66951 0.0
C900 C 0.47399 0.49677 0.67026 0.0
H901 H 0.63032 0.56512 0.61968 0.0
H902 H 0.57458 0.53978 0.62251 0.0
H903 H 0.53437 0.50301 0.70729 0.0
H904 H 0.37708 0.45767 0.71008 0.0
H905 H 0.43338 0.48963 0.71145 0.0
C906 C 0.93484 0.3825 0.03111 0.0
C907 C 0.92768 0.36795 0.0051 0.0
C908 C 0.95193 0.41462 0.03296 0.0
C909 C 0.00321 0.48377 0.99033 0.0
H910 H 0.98808 0.52768 0.04874 0.0
C911 C 0.0453 0.61355 0.98654 0.0
C912 C 0.06126 0.63087 0.00993 0.0
C913 C 0.03049 0.58149 0.98713 0.0
C914 C 0.99268 0.51562 0.03248 0.0
H915 H 0.93138 0.37532 0.9607 0.0
H916 H 0.9599 0.43116 0.96369 0.0
H917 H 0.95822 0.47154 0.04735 0.0
H918 H 0.07408 0.62843 0.05234 0.0
H919 H 0.04737 0.57193 0.05363 0.0
H920 H 0.03674 0.52807 0.97488 0.0
C921 C 0.95363 0.41805 0.98279 0.0
C922 C 0.97569 0.48345 0.0317 0.0
C923 C 0.93708 0.38603 0.981 0.0
C924 C 0.0621 0.61553 0.034 0.0
C925 C 0.0467 0.58335 0.03479 0.0
C926 C 0.01975 0.51586 0.99086 0.0
C927 C 0.96175 0.43285 0.00878 0.0
C928 C 0.98053 0.46707 0.01044 0.0
C929 C 0.03087 0.56609 0.0113 0.0
C930 C 0.0145 0.53207 0.01181 0.0
H931 H 0.92803 0.36898 0.04998 0.0
H932 H 0.95799 0.42506 0.05334 0.0
H933 H 0.00829 0.47209 0.97408 0.0
H934 H 0.04452 0.62489 0.96771 0.0
H935 H 0.01829 0.56867 0.9688 0.0
C936 C 0.21078 0.32036 0.27821 0.0
C937 C 0.22797 0.35132 0.27003 0.0
C938 C 0.2255 0.304 0.28542 0.0
C939 C 0.2978 0.31592 0.31361 0.0
H940 H 0.27232 0.23418 0.28574 0.0
C941 C 0.36713 0.25603 0.33769 0.0
C942 C 0.35105 0.2241 0.34201 0.0
C943 C 0.35191 0.27104 0.3281 0.0
C944 C 0.27946 0.2568 0.29407 0.0
H945 H 0.27397 0.38934 0.26279 0.0
H946 H 0.29969 0.36083 0.27555 0.0
H947 H 0.24578 0.26097 0.27012 0.0
H948 H 0.30638 0.18287 0.34001 0.0
H949 H 0.27945 0.20909 0.32405 0.0
H950 H 0.3308 0.3117 0.33816 0.0
C951 C 0.27484 0.34922 0.27628 0.0
C952 C 0.26432 0.27216 0.28499 0.0
C953 C 0.26012 0.36543 0.26871 0.0
C954 C 0.31938 0.20747 0.33659 0.0
C955 C 0.30402 0.22252 0.32733 0.0
C956 C 0.31265 0.30045 0.32297 0.0
C957 C 0.2577 0.31846 0.28497 0.0
C958 C 0.2735 0.30194 0.29455 0.0
C959 C 0.32009 0.25454 0.32294 0.0
C960 C 0.30383 0.27075 0.3132 0.0
H961 H 0.18597 0.30891 0.27925 0.0
H962 H 0.21175 0.28033 0.29216 0.0
H963 H 0.30499 0.33868 0.32166 0.0
H964 H 0.39166 0.26934 0.34122 0.0
H965 H 0.36523 0.29557 0.32438 0.0
C966 C 0.88928 0.20294 0.62321 0.0
C967 C 0.87598 0.22011 0.61393 0.0
C968 C 0.92069 0.21749 0.62928 0.0
C969 C 0.99405 0.29201 0.61942 0.0
H970 H 0.02159 0.26322 0.68172 0.0
C971 C 0.11069 0.36541 0.67403 0.0
C972 C 0.12883 0.35165 0.67747 0.0
C973 C 0.08036 0.34806 0.66487 0.0
C974 C 0.0142 0.2713 0.66413 0.0
H975 H 0.88487 0.26594 0.60434 0.0
H976 H 0.93915 0.29148 0.61573 0.0
H977 H 0.96751 0.23531 0.66836 0.0
H978 H 0.12948 0.30899 0.67449 0.0
H979 H 0.07588 0.27828 0.6591 0.0
H980 H 0.04064 0.32881 0.61616 0.0
C981 C 0.92584 0.26667 0.61739 0.0
C982 C 0.98324 0.25526 0.65633 0.0
C983 C 0.89463 0.25206 0.61092 0.0
C984 C 0.11597 0.32011 0.67184 0.0
C985 C 0.08538 0.30259 0.66321 0.0
C986 C 0.02482 0.3083 0.62754 0.0
C987 C 0.93939 0.24963 0.62663 0.0
C988 C 0.97267 0.26557 0.63402 0.0
C989 C 0.06739 0.31648 0.65948 0.0
C990 C 0.03511 0.29824 0.65009 0.0
H991 H 0.87541 0.17823 0.62549 0.0
H992 H 0.9303 0.20349 0.6359 0.0
H993 H 0.98706 0.30027 0.6017 0.0
H994 H 0.12016 0.38972 0.67798 0.0
H995 H 0.06688 0.35925 0.6623 0.0
C996 C 0.78732 0.11218 0.0325 0.0
C997 C 0.76964 0.1254 0.04048 0.0
C998 C 0.77317 0.08099 0.02549 0.0
C999 C 0.69851 0.0073 0.03048 0.0
H1000 H 0.73155 0.98309 0.96896 0.0
C1001 C 0.6304 0.89009 0.97511 0.0
C1002 C 0.64592 0.87373 0.97072 0.0
C1003 C 0.64629 0.92054 0.98438 0.0
C1004 C 0.72224 0.98951 0.98632 0.0
H1005 H 0.72327 0.11638 0.04711 0.0
H1006 H 0.69852 0.06236 0.03437 0.0
H1007 H 0.75786 0.03661 0.98421 0.0
H1008 H 0.69029 0.87657 0.97202 0.0
H1009 H 0.71824 0.93007 0.98789 0.0
H1010 H 0.66236 0.96026 0.0319 0.0
C1011 C 0.72337 0.07569 0.03425 0.0
C1012 C 0.73737 0.02014 -0.00481 0.0
C1013 C 0.73755 0.10674 0.04154 0.0
C1014 C 0.67775 0.88859 0.9754 0.0
C1015 C 0.69374 0.91921 0.9843 0.0
C1016 C 0.68321 0.97679 0.02138 0.0
C1017 C 0.74095 0.06239 0.026 0.0
C1018 C 0.72561 0.0295 0.0173 0.0
C1019 C 0.67811 0.93538 0.9891 0.0
C1020 C 0.69483 0.96762 -0.00087 0.0
H1021 H 0.81212 0.12596 0.03177 0.0
H1022 H 0.78751 0.07147 0.01974 0.0
H1023 H 0.68909 0.01343 0.04793 0.0
H1024 H 0.60584 0.87913 0.97196 0.0
H1025 H 0.63372 0.93256 0.98772 0.0
C1026 C 0.75317 0.64505 0.27808 0.0
C1027 C 0.77106 0.64082 0.29808 0.0
C1028 C 0.73844 0.66156 0.28449 0.0
C1029 C 0.73904 0.71818 0.33383 0.0
H1030 H 0.65508 0.68559 0.30886 0.0
C1031 C 0.67378 0.78514 0.34573 0.0
C1032 C 0.64305 0.76816 0.35455 0.0
C1033 C 0.68994 0.77023 0.33843 0.0
C1034 C 0.67846 0.69491 0.31611 0.0
H1035 H 0.78747 0.65076 0.34056 0.0
H1036 H 0.76177 0.67963 0.35174 0.0
H1037 H 0.68243 0.65848 0.29733 0.0
H1038 H 0.6051 0.72212 0.36215 0.0
H1039 H 0.63335 0.69619 0.34984 0.0
H1040 H 0.7348 0.75431 0.35308 0.0
C1041 C 0.75947 0.67045 0.33096 0.0
C1042 C 0.69425 0.67956 0.30924 0.0
C1043 C 0.77421 0.6539 0.32455 0.0
C1044 C 0.62882 0.73593 0.35576 0.0
C1045 C 0.64492 0.72103 0.34839 0.0
C1046 C 0.72325 0.73359 0.34064 0.0
C1047 C 0.74123 0.67428 0.31106 0.0
C1048 C 0.72469 0.69095 0.31808 0.0
C1049 C 0.67567 0.738 0.33967 0.0
C1050 C 0.69273 0.72205 0.33196 0.0
H1051 H 0.75072 0.63581 0.25735 0.0
H1052 H 0.725 0.66456 0.26853 0.0
H1053 H 0.76256 0.7277 0.34074 0.0
H1054 H 0.68553 0.80999 0.3448 0.0
H1055 H 0.71352 0.78394 0.33156 0.0
C1056 C 0.1115 0.79725 0.64853 0.0
C1057 C 0.12562 0.78013 0.64155 0.0
C1058 C 0.0811 0.78251 0.65791 0.0
C1059 C 0.01029 0.70524 0.66054 0.0
H1060 H 0.98484 0.74403 0.71592 0.0
C1061 C 0.89345 0.64049 0.71612 0.0
C1062 C 0.8756 0.65481 0.71511 0.0
C1063 C 0.92439 0.65658 0.7085 0.0
C1064 C 0.99167 0.73304 0.70036 0.0
H1065 H 0.11941 0.73431 0.63965 0.0
H1066 H 0.06685 0.70858 0.65682 0.0
H1067 H 0.03806 0.77031 0.69986 0.0
H1068 H 0.8764 0.69748 0.70647 0.0
H1069 H 0.93089 0.72594 0.69363 0.0
H1070 H 0.964 0.66763 0.66172 0.0
C1071 C 0.07869 0.7333 0.65419 0.0
C1072 C 0.0221 0.74813 0.691 0.0
C1073 C 0.10889 0.74802 0.64441 0.0
C1074 C 0.88963 0.68591 0.70732 0.0
C1075 C 0.92076 0.70218 0.70012 0.0
C1076 C 0.98006 0.69001 0.67022 0.0
C1077 C 0.06427 0.7503 0.66093 0.0
C1078 C 0.03184 0.73442 0.67094 0.0
C1079 C 0.93825 0.68746 0.70012 0.0
C1080 C 0.97046 0.70375 0.69021 0.0
H1081 H 0.12384 0.82203 0.64627 0.0
H1082 H 0.0707 0.79639 0.6624 0.0
H1083 H 0.0166 0.6942 0.64463 0.0
H1084 H 0.88317 0.61647 0.72171 0.0
H1085 H 0.93744 0.64478 0.70885 0.0
C1086 C 0.36558 0.10913 0.9606 0.0
C1087 C 0.34974 0.12545 0.9587 0.0
C1088 C 0.3504 0.07842 0.96919 0.0
C1089 C 0.2798 0.02048 0.0059 0.0
H1090 H 0.30203 0.96309 0.9748 0.0
C1091 C 0.20979 0.88889 0.02427 0.0
C1092 C 0.22676 0.87465 0.03144 0.0
C1093 C 0.22472 0.91963 0.01577 0.0
C1094 C 0.29576 0.97894 0.9838 0.0
H1095 H 0.30545 0.12223 0.96349 0.0
H1096 H 0.27863 0.0684 0.97767 0.0
H1097 H 0.32769 0.01608 0.95829 0.0
H1098 H 0.27261 0.8813 0.03511 0.0
H1099 H 0.29874 0.935 0.02004 0.0
H1100 H 0.24733 0.98292 0.03093 0.0
C1101 C 0.30299 0.07948 0.97336 0.0
C1102 C 0.31052 0.00936 0.97443 0.0
C1103 C 0.31829 0.11029 0.9651 0.0
C1104 C 0.25897 0.89178 0.02999 0.0
C1105 C 0.27389 0.92238 0.02112 0.0
C1106 C 0.26479 0.98996 0.01501 0.0
C1107 C 0.3189 0.06318 0.97577 0.0
C1108 C 0.30283 0.0306 0.98542 0.0
C1109 C 0.25691 0.9366 0.01389 0.0
C1110 C 0.27271 0.96894 0.00413 0.0
H1111 H 0.38993 0.12037 0.95622 0.0
H1112 H 0.36359 0.06689 0.97126 0.0
H1113 H 0.27364 0.03624 0.01527 0.0
H1114 H 0.18496 0.87627 0.02535 0.0
H1115 H 0.21106 0.92997 0.01017 0.0
C1116 C 0.46606 0.73006 0.32062 0.0
C1117 C 0.47157 0.75694 0.33469 0.0
C1118 C 0.4362 0.70604 0.3162 0.0
C1119 C 0.36041 0.66644 0.34435 0.0
H1120 H 0.3355 0.63487 0.26964 0.0
C1121 C 0.24479 0.5551 0.32233 0.0
C1122 C 0.24591 0.53517 0.30248 0.0
C1123 C 0.26961 0.58503 0.32553 0.0
C1124 C 0.34212 0.64319 0.29067 0.0
H1125 H 0.4494 0.77904 0.35551 0.0
H1126 H 0.39704 0.73605 0.34882 0.0
H1127 H 0.38439 0.68193 0.2771 0.0
H1128 H 0.27399 0.53081 0.2707 0.0
H1129 H 0.31731 0.58234 0.27662 0.0
H1130 H 0.31915 0.62679 0.35822 0.0
C1131 C 0.4162 0.73422 0.34087 0.0
C1132 C 0.37 0.67027 0.29486 0.0
C1133 C 0.44619 0.75869 0.34481 0.0
C1134 C 0.2722 0.54581 0.28581 0.0
C1135 C 0.29703 0.57549 0.28917 0.0
C1136 C 0.33266 0.63899 0.34022 0.0
C1137 C 0.41104 0.70786 0.32628 0.0
C1138 C 0.37967 0.68175 0.32176 0.0
C1139 C 0.29617 0.59553 0.30911 0.0
C1140 C 0.32355 0.6266 0.31336 0.0
H1141 H 0.48481 0.72718 0.3133 0.0
H1142 H 0.43277 0.68566 0.30533 0.0
H1143 H 0.36755 0.67482 0.36531 0.0
H1144 H 0.2247 0.54757 0.33533 0.0
H1145 H 0.26797 0.59991 0.34086 0.0
C1146 C 0.69631 0.44638 0.68715 0.0
C1147 C 0.71718 0.47125 0.67066 0.0
C1148 C 0.69191 0.41688 0.68284 0.0
C1149 C 0.70337 0.36919 0.63092 0.0
H1150 H 0.70473 0.32301 0.69482 0.0
C1151 C 0.72904 0.27016 0.62172 0.0
C1152 C 0.71371 0.24461 0.6394 0.0
C1153 C 0.7252 0.29566 0.62478 0.0
C1154 C 0.70375 0.33532 0.67676 0.0
H1155 H 0.74998 0.48447 0.63687 0.0
H1156 H 0.74207 0.4332 0.62925 0.0
H1157 H 0.70556 0.37152 0.70167 0.0
H1158 H 0.68137 0.22542 0.67352 0.0
H1159 H 0.67464 0.27003 0.67885 0.0
H1160 H 0.70203 0.33329 0.60598 0.0
C1161 C 0.72875 0.43637 0.64523 0.0
C1162 C 0.70426 0.36315 0.6807 0.0
C1163 C 0.73325 0.4658 0.6496 0.0
C1164 C 0.69388 0.24491 0.65983 0.0
C1165 C 0.69002 0.27047 0.66289 0.0
C1166 C 0.70279 0.34136 0.62698 0.0
C1167 C 0.70816 0.41159 0.66187 0.0
C1168 C 0.70466 0.38067 0.65781 0.0
C1169 C 0.7059 0.29628 0.64558 0.0
C1170 C 0.70355 0.32436 0.64983 0.0
H1171 H 0.68323 0.44964 0.7033 0.0
H1172 H 0.67567 0.39817 0.69583 0.0
H1173 H 0.70311 0.3819 0.61287 0.0
H1174 H 0.74488 0.27092 0.60608 0.0
H1175 H 0.73821 0.31534 0.6114 0.0
C1176 C 0.45 0.69548 -0.00641 0.0
C1177 C 0.47697 0.72434 -0.00475 0.0
C1178 C 0.42113 0.69319 -0.00465 0.0
C1179 C 0.38382 0.73862 0.9828 0.0
H1180 H 0.31945 0.68138 0.03199 0.0
C1181 C 0.28098 0.7528 0.00913 0.0
C1182 C 0.2517 0.72652 0.01092 0.0
C1183 C 0.3071 0.75007 0.00673 0.0
C1184 C 0.33702 0.69716 0.01783 0.0
H1185 H 0.49484 0.77337 -0.00015 0.0
H1186 H 0.44468 0.76935 0.00298 0.0
H1187 H 0.36771 0.68076 0.02859 0.0
H1188 H 0.22684 0.67671 0.01217 0.0
H1189 H 0.27275 0.67184 0.00764 0.0
H1190 H 0.35349 0.75507 0.97186 0.0
C1191 C 0.44579 0.74851 0.00035 0.0
C1192 C 0.36463 0.69683 0.01594 0.0
C1193 C 0.47451 0.75077 -0.00112 0.0
C1194 C 0.24916 0.69735 0.01086 0.0
C1195 C 0.27542 0.69459 0.00831 0.0
C1196 C 0.35628 0.73882 0.98452 0.0
C1197 C 0.41881 0.71977 -0.00164 0.0
C1198 C 0.38852 0.71803 -0.00116 0.0
C1199 C 0.30468 0.72097 0.00593 0.0
C1200 C 0.33278 0.71859 0.00251 0.0
H1201 H 0.45125 0.67473 0.99088 0.0
H1202 H 0.40067 0.67076 -0.00631 0.0
H1203 H 0.40161 0.75478 0.96899 0.0
H1204 H 0.28377 0.77562 0.00984 0.0
H1205 H 0.32931 0.77089 0.00573 0.0
C1206 C 0.5456 0.23537 0.32831 0.0
C1207 C 0.51935 0.2381 0.32464 0.0
C1208 C 0.57497 0.26087 0.32442 0.0
C1209 C 0.61448 0.33851 0.29208 0.0
H1210 H 0.67976 0.35555 0.34432 0.0
C1211 C 0.71658 0.4593 0.30955 0.0
C1212 C 0.74614 0.46302 0.3102 0.0
C1213 C 0.6907 0.43 0.30903 0.0
C1214 C 0.66185 0.35081 0.32936 0.0
H1215 H 0.50334 0.26988 0.31507 0.0
H1216 H 0.55418 0.31413 0.30863 0.0
H1217 H 0.63079 0.30728 0.3478 0.0
H1218 H 0.77196 0.43914 0.31085 0.0
H1219 H 0.72628 0.38741 0.31051 0.0
H1220 H 0.64506 0.38258 0.27442 0.0
C1221 C 0.55227 0.29222 0.31363 0.0
C1222 C 0.63384 0.32319 0.33129 0.0
C1223 C 0.52307 0.26683 0.31737 0.0
C1224 C 0.74937 0.43681 0.31033 0.0
C1225 C 0.72334 0.40734 0.31025 0.0
C1226 C 0.64227 0.36615 0.29034 0.0
C1227 C 0.57861 0.28958 0.31692 0.0
C1228 C 0.60957 0.31708 0.31308 0.0
C1229 C 0.6938 0.40374 0.30943 0.0
C1230 C 0.66595 0.37287 0.30933 0.0
H1231 H 0.54339 0.21346 0.33384 0.0
H1232 H 0.59478 0.25802 0.32698 0.0
H1233 H 0.59658 0.33421 0.27726 0.0
H1234 H 0.71347 0.47913 0.30915 0.0
H1235 H 0.66818 0.42786 0.30867 0.0
C1236 C 0.30464 0.75934 0.65217 0.0
C1237 C 0.27551 0.75668 0.65389 0.0
C1238 C 0.30784 0.73337 0.65546 0.0
C1239 C 0.26625 0.65423 0.68425 0.0
H1240 H 0.32015 0.63963 0.63709 0.0
C1241 C 0.25146 0.53455 0.66969 0.0
C1242 C 0.27771 0.53155 0.67104 0.0
C1243 C 0.25419 0.56356 0.66929 0.0
C1244 C 0.30532 0.64365 0.65065 0.0
H1245 H 0.22682 0.72458 0.65889 0.0
H1246 H 0.23227 0.67953 0.66422 0.0
H1247 H 0.31938 0.6878 0.63271 0.0
H1248 H 0.32741 0.55647 0.67298 0.0
H1249 H 0.33225 0.60763 0.67191 0.0
H1250 H 0.25147 0.60975 0.70154 0.0
C1251 C 0.25281 0.70167 0.66129 0.0
C1252 C 0.30489 0.67121 0.64818 0.0
C1253 C 0.24965 0.72751 0.65816 0.0
C1254 C 0.30683 0.55821 0.672 0.0
C1255 C 0.30959 0.58737 0.67122 0.0
C1256 C 0.26652 0.6267 0.68655 0.0
C1257 C 0.28194 0.70428 0.66038 0.0
C1258 C 0.28483 0.6765 0.66455 0.0
C1259 C 0.28324 0.59026 0.67003 0.0
C1260 C 0.28557 0.62085 0.6694 0.0
H1261 H 0.32496 0.78158 0.64894 0.0
H1262 H 0.33062 0.73618 0.65473 0.0
H1263 H 0.25113 0.65788 0.69772 0.0
H1264 H 0.22871 0.5144 0.66923 0.0
H1265 H 0.2335 0.5651 0.66809 0.0
C1266 C 0.52593 0.25472 0.97989 0.0
C1267 C 0.52027 0.27906 0.98418 0.0
C1268 C 0.55573 0.25967 0.9818 0.0
C1269 C 0.6275 0.30227 0.01601 0.0
H1270 H 0.66257 0.2837 0.95233 0.0
C1271 C 0.74621 0.30994 0.02179 0.0
C1272 C 0.74898 0.28715 0.00737 0.0
C1273 C 0.72047 0.31328 0.01779 0.0
C1274 C 0.65305 0.28866 0.97045 0.0
H1275 H 0.54086 0.32746 -0.00591 0.0
H1276 H 0.59332 0.33591 -0.00152 0.0
H1277 H 0.61288 0.28072 0.94811 0.0
H1278 H 0.7269 0.24963 0.97799 0.0
H1279 H 0.68173 0.25454 0.97175 0.0
H1280 H 0.66653 0.30836 0.03896 0.0
C1281 C 0.57463 0.3132 0.99326 0.0
C1282 C 0.62474 0.28721 0.96788 0.0
C1283 C 0.54482 0.30841 0.9907 0.0
C1284 C 0.7256 0.26777 0.98899 0.0
C1285 C 0.69975 0.27075 0.98532 0.0
C1286 C 0.6556 0.30313 0.01878 0.0
C1287 C 0.58026 0.28888 0.98858 0.0
C1288 C 0.61156 0.29356 0.99073 0.0
C1289 C 0.69677 0.29356 -0.00039 0.0
C1290 C 0.66848 0.29575 -0.00386 0.0
H1291 H 0.50732 0.23196 0.97467 0.0
H1292 H 0.55962 0.24059 0.97824 0.0
H1293 H 0.61756 0.30709 0.03393 0.0
H1294 H 0.76404 0.32528 0.03599 0.0
H1295 H 0.71923 0.33137 0.02889 0.0
loop_
_geom_bond_atom_site_label_1
_geom_bond_atom_site_label_2
_geom_bond_distance
_geom_bond_site_symmetry_2
_ccdc_geom_bond_type
Co0 N4 2.148 . S
Co0 N10 2.128 . S
Co0 N20 2.194 . S
Co0 O25 2.351 . S
Co0 O26 2.155 . S
Co0 O27 2.096 . S
C1 N4 1.301 . S
C1 N5 1.328 . S
C1 H6 0.930 . S
C2 C3 1.333 . S
C2 N4 1.317 . S
C2 H7 0.930 . S
C3 C2 1.333 . S
C3 N5 1.350 . S
C3 H29 0.931 . S
N4 Co0 2.148 . S
N4 C1 1.301 . S
N4 C2 1.317 . S
N5 C1 1.328 . S
N5 C3 1.350 . S
H6 C1 0.930 . S
H7 C2 0.930 . S
C8 O9 1.224 . S
C8 O27 1.247 . S
O9 C8 1.224 . S
N10 Co0 2.128 . S
N10 C11 1.355 . S
N10 C13 1.311 . S
C11 N10 1.355 . S
C11 C12 1.363 . S
C11 H23 0.929 . S
C12 C11 1.363 . S
C12 N14 1.375 . S
C12 H30 0.931 . S
C13 N10 1.311 . S
C13 N14 1.347 . S
C13 H24 0.929 . S
N14 C12 1.375 . S
N14 C13 1.347 . S
C15 C18 1.365 . S
C15 N20 1.328 . S
C15 H21 0.929 . S
C16 C17 1.362 . S
C16 C19 1.378 . S
C16 H31 0.929 . S
C17 C16 1.362 . S
C17 C18 1.366 . S
C18 C15 1.365 . S
C18 C17 1.366 . S
C18 H32 0.930 . S
C19 C16 1.378 . S
C19 N20 1.315 . S
C19 H22 0.930 . S
N20 Co0 2.194 . S
N20 C15 1.328 . S
N20 C19 1.315 . S
H21 C15 0.929 . S
H22 C19 0.930 . S
H23 C11 0.929 . S
H24 C13 0.929 . S
O25 Co0 2.351 . S
O25 C28 1.244 . S
O26 Co0 2.155 . S
O26 C28 1.240 . S
O27 Co0 2.096 . S
O27 C8 1.247 . S
C28 O25 1.244 . S
C28 O26 1.240 . S
H29 C3 0.931 . S
H30 C12 0.931 . S
H31 C16 0.929 . S
H32 C18 0.930 . S
Co33 N37 2.148 . S
Co33 N43 2.128 . S
Co33 N53 2.194 . S
Co33 O58 2.351 . S
Co33 O59 2.155 . S
Co33 O60 2.096 . S
C34 N37 1.301 . S
C34 N38 1.328 . S
C34 H39 0.930 . S
C35 C36 1.333 . S
C35 N37 1.317 . S
C35 H40 0.930 . S
C36 C35 1.333 . S
C36 N38 1.350 . S
C36 H62 0.931 . S
N37 Co33 2.148 . S
N37 C34 1.301 . S
N37 C35 1.317 . S
N38 C34 1.328 . S
N38 C36 1.350 . S
H39 C34 0.930 . S
H40 C35 0.930 . S
C41 O42 1.224 . S
C41 O60 1.247 . S
O42 C41 1.224 . S
N43 Co33 2.128 . S
N43 C44 1.355 . S
N43 C46 1.311 . S
C44 N43 1.355 . S
C44 C45 1.363 . S
C44 H56 0.929 . S
C45 C44 1.363 . S
C45 N47 1.375 . S
C45 H63 0.931 . S
C46 N43 1.311 . S
C46 N47 1.347 . S
C46 H57 0.929 . S
N47 C45 1.375 . S
N47 C46 1.347 . S
C48 C51 1.365 . S
C48 N53 1.328 . S
C48 H54 0.929 . S
C49 C50 1.362 . S
C49 C52 1.378 . S
C49 H64 0.929 . S
C50 C49 1.362 . S
C50 C51 1.366 . S
C51 C48 1.365 . S
C51 C50 1.366 . S
C51 H65 0.930 . S
C52 C49 1.378 . S
C52 N53 1.315 . S
C52 H55 0.930 . S
N53 Co33 2.194 . S
N53 C48 1.328 . S
N53 C52 1.315 . S
H54 C48 0.929 . S
H55 C52 0.930 . S
H56 C44 0.929 . S
H57 C46 0.929 . S
O58 Co33 2.351 . S
O58 C61 1.244 . S
O59 Co33 2.155 . S
O59 C61 1.240 . S
O60 Co33 2.096 . S
O60 C41 1.247 . S
C61 O58 1.244 . S
C61 O59 1.240 . S
H62 C36 0.931 . S
H63 C45 0.931 . S
H64 C49 0.929 . S
H65 C51 0.930 . S
Co66 N70 2.157 . S
Co66 N76 2.121 1_554 S
Co66 N86 2.188 1_554 S
Co66 O91 2.320 1_554 S
Co66 O92 2.140 1_554 S
Co66 O93 2.122 . S
C67 N70 1.301 1_556 S
C67 N71 1.328 1_556 S
C67 H72 0.930 . S
C68 C69 1.333 . S
C68 N70 1.317 . S
C68 H73 0.930 . S
C69 C68 1.333 . S
C69 N71 1.350 . S
C69 H95 0.931 . S
N70 Co66 2.157 . S
N70 C67 1.301 1_554 S
N70 C68 1.317 . S
N71 C67 1.328 1_554 S
N71 C69 1.350 . S
H72 C67 0.930 . S
H73 C68 0.930 . S
C74 O75 1.224 . S
C74 O93 1.247 . S
O75 C74 1.224 . S
N76 Co66 2.121 1_556 S
N76 C77 1.355 . S
N76 C79 1.311 1_556 S
C77 N76 1.355 . S
C77 C78 1.363 . S
C77 H89 0.929 . S
C78 C77 1.363 . S
C78 N80 1.375 . S
C78 H96 0.931 . S
C79 N76 1.311 1_554 S
C79 N80 1.347 1_554 S
C79 H90 0.929 . S
N80 C78 1.375 . S
N80 C79 1.347 1_556 S
C81 C84 1.365 . S
C81 N86 1.328 . S
C81 H87 0.929 . S
C82 C83 1.362 1_554 S
C82 C85 1.378 . S
C82 H97 0.929 . S
C83 C82 1.362 1_556 S
C83 C84 1.366 . S
C84 C81 1.365 . S
C84 C83 1.366 . S
C84 H98 0.930 . S
C85 C82 1.378 . S
C85 N86 1.315 1_554 S
C85 H88 0.930 . S
N86 Co66 2.188 1_556 S
N86 C81 1.328 . S
N86 C85 1.315 1_556 S
H87 C81 0.929 . S
H88 C85 0.930 . S
H89 C77 0.929 . S
H90 C79 0.929 . S
O91 Co66 2.320 1_556 S
O91 C94 1.244 . S
O92 Co66 2.140 1_556 S
O92 C94 1.240 . S
O93 Co66 2.122 . S
O93 C74 1.247 . S
C94 O91 1.244 . S
C94 O92 1.240 . S
H95 C69 0.931 . S
H96 C78 0.931 . S
H97 C82 0.929 . S
H98 C84 0.930 . S
Co99 N103 2.148 . S
Co99 N109 2.128 . S
Co99 N119 2.194 . S
Co99 O124 2.351 . S
Co99 O125 2.155 . S
Co99 O126 2.096 . S
C100 N103 1.301 . S
C100 N104 1.328 . S
C100 H105 0.930 . S
C101 C102 1.333 . S
C101 N103 1.317 . S
C101 H106 0.930 . S
C102 C101 1.333 . S
C102 N104 1.350 . S
C102 H128 0.931 . S
N103 Co99 2.148 . S
N103 C100 1.301 . S
N103 C101 1.317 . S
N104 C100 1.328 . S
N104 C102 1.350 . S
H105 C100 0.930 . S
H106 C101 0.930 . S
C107 O108 1.224 . S
C107 O126 1.247 . S
O108 C107 1.224 . S
N109 Co99 2.128 . S
N109 C110 1.355 . S
N109 C112 1.311 . S
C110 N109 1.355 . S
C110 C111 1.363 . S
C110 H122 0.929 . S
C111 C110 1.363 . S
C111 N113 1.375 . S
C111 H129 0.931 . S
C112 N109 1.311 . S
C112 N113 1.347 . S
C112 H123 0.929 . S
N113 C111 1.375 . S
N113 C112 1.347 . S
C114 C117 1.365 . S
C114 N119 1.328 . S
C114 H120 0.929 . S
C115 C116 1.362 . S
C115 C118 1.378 . S
C115 H130 0.929 . S
C116 C115 1.362 . S
C116 C117 1.366 . S
C117 C114 1.365 . S
C117 C116 1.366 . S
C117 H131 0.930 . S
C118 C115 1.378 . S
C118 N119 1.315 . S
C118 H121 0.930 . S
N119 Co99 2.194 . S
N119 C114 1.328 . S
N119 C118 1.315 . S
H120 C114 0.929 . S
H121 C118 0.930 . S
H122 C110 0.929 . S
H123 C112 0.929 . S
O124 Co99 2.351 . S
O124 C127 1.244 . S
O125 Co99 2.155 . S
O125 C127 1.240 . S
O126 Co99 2.096 . S
O126 C107 1.247 . S
C127 O124 1.244 . S
C127 O125 1.240 . S
H128 C102 0.931 . S
H129 C111 0.931 . S
H130 C115 0.929 . S
H131 C117 0.930 . S
Co132 N136 2.148 . S
Co132 N142 2.128 . S
Co132 N152 2.194 . S
Co132 O157 2.351 . S
Co132 O158 2.155 . S
Co132 O159 2.096 . S
C133 N136 1.301 . S
C133 N137 1.328 . S
C133 H138 0.930 . S
C134 C135 1.333 . S
C134 N136 1.317 . S
C134 H139 0.930 . S
C135 C134 1.333 . S
C135 N137 1.350 . S
C135 H161 0.931 . S
N136 Co132 2.148 . S
N136 C133 1.301 . S
N136 C134 1.317 . S
N137 C133 1.328 . S
N137 C135 1.350 . S
H138 C133 0.930 . S
H139 C134 0.930 . S
C140 O141 1.224 . S
C140 O159 1.247 . S
O141 C140 1.224 . S
N142 Co132 2.128 . S
N142 C143 1.355 . S
N142 C145 1.311 . S
C143 N142 1.355 . S
C143 C144 1.363 . S
C143 H155 0.929 . S
C144 C143 1.363 . S
C144 N146 1.375 . S
C144 H162 0.931 . S
C145 N142 1.311 . S
C145 N146 1.347 . S
C145 H156 0.929 . S
N146 C144 1.375 . S
N146 C145 1.347 . S
C147 C150 1.365 . S
C147 N152 1.328 . S
C147 H153 0.929 . S
C148 C149 1.362 . S
C148 C151 1.378 . S
C148 H163 0.929 . S
C149 C148 1.362 . S
C149 C150 1.366 . S
C150 C147 1.365 . S
C150 C149 1.366 . S
C150 H164 0.930 . S
C151 C148 1.378 . S
C151 N152 1.315 . S
C151 H154 0.930 . S
N152 Co132 2.194 . S
N152 C147 1.328 . S
N152 C151 1.315 . S
H153 C147 0.929 . S
H154 C151 0.930 . S
H155 C143 0.929 . S
H156 C145 0.929 . S
O157 Co132 2.351 . S
O157 C160 1.244 . S
O158 Co132 2.155 . S
O158 C160 1.240 . S
O159 Co132 2.096 . S
O159 C140 1.247 . S
C160 O157 1.244 . S
C160 O158 1.240 . S
H161 C135 0.931 . S
H162 C144 0.931 . S
H163 C148 0.929 . S
H164 C150 0.930 . S
Co165 N169 2.157 . S
Co165 N175 2.121 1_554 S
Co165 N185 2.188 1_554 S
Co165 O190 2.320 1_554 S
Co165 O191 2.140 1_554 S
Co165 O192 2.122 . S
C166 N169 1.301 1_556 S
C166 N170 1.328 1_556 S
C166 H171 0.930 . S
C167 C168 1.333 . S
C167 N169 1.317 . S
C167 H172 0.930 . S
C168 C167 1.333 . S
C168 N170 1.350 . S
C168 H194 0.931 . S
N169 Co165 2.157 . S
N169 C166 1.301 1_554 S
N169 C167 1.317 . S
N170 C166 1.328 1_554 S
N170 C168 1.350 . S
H171 C166 0.930 . S
H172 C167 0.930 . S
C173 O174 1.224 . S
C173 O192 1.247 . S
O174 C173 1.224 . S
N175 Co165 2.121 1_556 S
N175 C176 1.355 . S
N175 C178 1.311 1_556 S
C176 N175 1.355 . S
C176 C177 1.363 . S
C176 H188 0.929 . S
C177 C176 1.363 . S
C177 N179 1.375 . S
C177 H195 0.931 . S
C178 N175 1.311 1_554 S
C178 N179 1.347 1_554 S
C178 H189 0.929 . S
N179 C177 1.375 . S
N179 C178 1.347 1_556 S
C180 C183 1.365 . S
C180 N185 1.328 . S
C180 H186 0.929 . S
C181 C182 1.362 1_554 S
C181 C184 1.378 . S
C181 H196 0.929 . S
C182 C181 1.362 1_556 S
C182 C183 1.366 . S
C183 C180 1.365 . S
C183 C182 1.366 . S
C183 H197 0.930 . S
C184 C181 1.378 . S
C184 N185 1.315 1_554 S
C184 H187 0.930 . S
N185 Co165 2.188 1_556 S
N185 C180 1.328 . S
N185 C184 1.315 1_556 S
H186 C180 0.929 . S
H187 C184 0.930 . S
H188 C176 0.929 . S
H189 C178 0.929 . S
O190 Co165 2.320 1_556 S
O190 C193 1.244 . S
O191 Co165 2.140 1_556 S
O191 C193 1.240 . S
O192 Co165 2.122 . S
O192 C173 1.247 . S
C193 O190 1.244 . S
C193 O191 1.240 . S
H194 C168 0.931 . S
H195 C177 0.931 . S
H196 C181 0.929 . S
H197 C183 0.930 . S
Co198 N202 2.148 . S
Co198 N208 2.128 . S
Co198 N218 2.194 . S
Co198 O223 2.351 . S
Co198 O224 2.155 . S
Co198 O225 2.096 . S
C199 N202 1.301 . S
C199 N203 1.328 . S
C199 H204 0.930 . S
C200 C201 1.333 . S
C200 N202 1.317 . S
C200 H205 0.930 . S
C201 C200 1.333 . S
C201 N203 1.350 . S
C201 H227 0.931 . S
N202 Co198 2.148 . S
N202 C199 1.301 . S
N202 C200 1.317 . S
N203 C199 1.328 . S
N203 C201 1.350 . S
H204 C199 0.930 . S
H205 C200 0.930 . S
C206 O207 1.224 . S
C206 O225 1.247 . S
O207 C206 1.224 . S
N208 Co198 2.128 . S
N208 C209 1.355 . S
N208 C211 1.311 . S
C209 N208 1.355 . S
C209 C210 1.363 . S
C209 H221 0.929 . S
C210 C209 1.363 . S
C210 N212 1.375 . S
C210 H228 0.931 . S
C211 N208 1.311 . S
C211 N212 1.347 . S
C211 H222 0.929 . S
N212 C210 1.375 . S
N212 C211 1.347 . S
C213 C216 1.365 . S
C213 N218 1.328 . S
C213 H219 0.929 . S
C214 C215 1.362 . S
C214 C217 1.378 . S
C214 H229 0.929 . S
C215 C214 1.362 . S
C215 C216 1.366 . S
C216 C213 1.365 . S
C216 C215 1.366 . S
C216 H230 0.930 . S
C217 C214 1.378 . S
C217 N218 1.315 . S
C217 H220 0.930 . S
N218 Co198 2.194 . S
N218 C213 1.328 . S
N218 C217 1.315 . S
H219 C213 0.929 . S
H220 C217 0.930 . S
H221 C209 0.929 . S
H222 C211 0.929 . S
O223 Co198 2.351 . S
O223 C226 1.244 . S
O224 Co198 2.155 . S
O224 C226 1.240 . S
O225 Co198 2.096 . S
O225 C206 1.247 . S
C226 O223 1.244 . S
C226 O224 1.240 . S
H227 C201 0.931 . S
H228 C210 0.931 . S
H229 C214 0.929 . S
H230 C216 0.930 . S
Co231 N235 2.148 . S
Co231 N241 2.128 . S
Co231 N251 2.194 . S
Co231 O256 2.351 . S
Co231 O257 2.155 . S
Co231 O258 2.096 . S
C232 N235 1.301 . S
C232 N236 1.328 . S
C232 H237 0.930 . S
C233 C234 1.333 . S
C233 N235 1.317 . S
C233 H238 0.930 . S
C234 C233 1.333 . S
C234 N236 1.350 . S
C234 H260 0.931 . S
N235 Co231 2.148 . S
N235 C232 1.301 . S
N235 C233 1.317 . S
N236 C232 1.328 . S
N236 C234 1.350 . S
H237 C232 0.930 . S
H238 C233 0.930 . S
C239 O240 1.224 . S
C239 O258 1.247 . S
O240 C239 1.224 . S
N241 Co231 2.128 . S
N241 C242 1.355 . S
N241 C244 1.311 . S
C242 N241 1.355 . S
C242 C243 1.363 . S
C242 H254 0.929 . S
C243 C242 1.363 . S
C243 N245 1.375 . S
C243 H261 0.931 . S
C244 N241 1.311 . S
C244 N245 1.347 . S
C244 H255 0.929 . S
N245 C243 1.375 . S
N245 C244 1.347 . S
C246 C249 1.365 . S
C246 N251 1.328 . S
C246 H252 0.929 . S
C247 C248 1.362 . S
C247 C250 1.378 . S
C247 H262 0.929 . S
C248 C247 1.362 . S
C248 C249 1.366 . S
C249 C246 1.365 . S
C249 C248 1.366 . S
C249 H263 0.930 . S
C250 C247 1.378 . S
C250 N251 1.315 . S
C250 H253 0.930 . S
N251 Co231 2.194 . S
N251 C246 1.328 . S
N251 C250 1.315 . S
H252 C246 0.929 . S
H253 C250 0.930 . S
H254 C242 0.929 . S
H255 C244 0.929 . S
O256 Co231 2.351 . S
O256 C259 1.244 . S
O257 Co231 2.155 . S
O257 C259 1.240 . S
O258 Co231 2.096 . S
O258 C239 1.247 . S
C259 O256 1.244 . S
C259 O257 1.240 . S
H260 C234 0.931 . S
H261 C243 0.931 . S
H262 C247 0.929 . S
H263 C249 0.930 . S
Co264 N268 2.157 . S
Co264 N274 2.121 1_556 S
Co264 N284 2.188 1_556 S
Co264 O289 2.320 1_556 S
Co264 O290 2.140 1_556 S
Co264 O291 2.122 . S
C265 N268 1.301 1_554 S
C265 N269 1.328 1_554 S
C265 H270 0.930 . S
C266 C267 1.333 . S
C266 N268 1.317 . S
C266 H271 0.930 . S
C267 C266 1.333 . S
C267 N269 1.350 . S
C267 H293 0.931 . S
N268 Co264 2.157 . S
N268 C265 1.301 1_556 S
N268 C266 1.317 . S
N269 C265 1.328 1_556 S
N269 C267 1.350 . S
H270 C265 0.930 . S
H271 C266 0.930 . S
C272 O273 1.224 . S
C272 O291 1.247 . S
O273 C272 1.224 . S
N274 Co264 2.121 1_554 S
N274 C275 1.355 . S
N274 C277 1.311 1_554 S
C275 N274 1.355 . S
C275 C276 1.363 . S
C275 H287 0.929 . S
C276 C275 1.363 . S
C276 N278 1.375 . S
C276 H294 0.931 . S
C277 N274 1.311 1_556 S
C277 N278 1.347 1_556 S
C277 H288 0.929 . S
N278 C276 1.375 . S
N278 C277 1.347 1_554 S
C279 C282 1.365 . S
C279 N284 1.328 . S
C279 H285 0.929 . S
C280 C281 1.362 1_556 S
C280 C283 1.378 . S
C280 H295 0.929 . S
C281 C280 1.362 1_554 S
C281 C282 1.366 . S
C282 C279 1.365 . S
C282 C281 1.366 . S
C282 H296 0.930 . S
C283 C280 1.378 . S
C283 N284 1.315 1_556 S
C283 H286 0.930 . S
N284 Co264 2.188 1_554 S
N284 C279 1.328 . S
N284 C283 1.315 1_554 S
H285 C279 0.929 . S
H286 C283 0.930 . S
H287 C275 0.929 . S
H288 C277 0.929 . S
O289 Co264 2.320 1_554 S
O289 C292 1.244 . S
O290 Co264 2.140 1_554 S
O290 C292 1.240 . S
O291 Co264 2.122 . S
O291 C272 1.247 . S
C292 O289 1.244 . S
C292 O290 1.240 . S
H293 C267 0.931 . S
H294 C276 0.931 . S
H295 C280 0.929 . S
H296 C282 0.930 . S
Co297 N301 2.148 . S
Co297 N307 2.128 . S
Co297 N317 2.194 . S
Co297 O322 2.351 . S
Co297 O323 2.155 . S
Co297 O324 2.096 . S
C298 N301 1.301 . S
C298 N302 1.328 . S
C298 H303 0.930 . S
C299 C300 1.333 . S
C299 N301 1.317 . S
C299 H304 0.930 . S
C300 C299 1.333 . S
C300 N302 1.350 . S
C300 H326 0.931 . S
N301 Co297 2.148 . S
N301 C298 1.301 . S
N301 C299 1.317 . S
N302 C298 1.328 . S
N302 C300 1.350 . S
H303 C298 0.930 . S
H304 C299 0.930 . S
C305 O306 1.224 . S
C305 O324 1.247 . S
O306 C305 1.224 . S
N307 Co297 2.128 . S
N307 C308 1.355 . S
N307 C310 1.311 . S
C308 N307 1.355 . S
C308 C309 1.363 . S
C308 H320 0.929 . S
C309 C308 1.363 . S
C309 N311 1.375 . S
C309 H327 0.931 . S
C310 N307 1.311 . S
C310 N311 1.347 . S
C310 H321 0.929 . S
N311 C309 1.375 . S
N311 C310 1.347 . S
C312 C315 1.365 . S
C312 N317 1.328 . S
C312 H318 0.929 . S
C313 C314 1.362 . S
C313 C316 1.378 . S
C313 H328 0.929 . S
C314 C313 1.362 . S
C314 C315 1.366 . S
C315 C312 1.365 . S
C315 C314 1.366 . S
C315 H329 0.930 . S
C316 C313 1.378 . S
C316 N317 1.315 . S
C316 H319 0.930 . S
N317 Co297 2.194 . S
N317 C312 1.328 . S
N317 C316 1.315 . S
H318 C312 0.929 . S
H319 C316 0.930 . S
H320 C308 0.929 . S
H321 C310 0.929 . S
O322 Co297 2.351 . S
O322 C325 1.244 . S
O323 Co297 2.155 . S
O323 C325 1.240 . S
O324 Co297 2.096 . S
O324 C305 1.247 . S
C325 O322 1.244 . S
C325 O323 1.240 . S
H326 C300 0.931 . S
H327 C309 0.931 . S
H328 C313 0.929 . S
H329 C315 0.930 . S
Co330 N334 2.148 . S
Co330 N340 2.128 . S
Co330 N350 2.194 . S
Co330 O355 2.351 . S
Co330 O356 2.155 . S
Co330 O357 2.096 . S
C331 N334 1.301 . S
C331 N335 1.328 . S
C331 H336 0.930 . S
C332 C333 1.333 . S
C332 N334 1.317 . S
C332 H337 0.930 . S
C333 C332 1.333 . S
C333 N335 1.350 . S
C333 H359 0.931 . S
N334 Co330 2.148 . S
N334 C331 1.301 . S
N334 C332 1.317 . S
N335 C331 1.328 . S
N335 C333 1.350 . S
H336 C331 0.930 . S
H337 C332 0.930 . S
C338 O339 1.224 . S
C338 O357 1.247 . S
O339 C338 1.224 . S
N340 Co330 2.128 . S
N340 C341 1.355 . S
N340 C343 1.311 . S
C341 N340 1.355 . S
C341 C342 1.363 . S
C341 H353 0.929 . S
C342 C341 1.363 . S
C342 N344 1.375 . S
C342 H360 0.931 . S
C343 N340 1.311 . S
C343 N344 1.347 . S
C343 H354 0.929 . S
N344 C342 1.375 . S
N344 C343 1.347 . S
C345 C348 1.365 . S
C345 N350 1.328 . S
C345 H351 0.929 . S
C346 C347 1.362 . S
C346 C349 1.378 . S
C346 H361 0.929 . S
C347 C346 1.362 . S
C347 C348 1.366 . S
C348 C345 1.365 . S
C348 C347 1.366 . S
C348 H362 0.930 . S
C349 C346 1.378 . S
C349 N350 1.315 . S
C349 H352 0.930 . S
N350 Co330 2.194 . S
N350 C345 1.328 . S
N350 C349 1.315 . S
H351 C345 0.929 . S
H352 C349 0.930 . S
H353 C341 0.929 . S
H354 C343 0.929 . S
O355 Co330 2.351 . S
O355 C358 1.244 . S
O356 Co330 2.155 . S
O356 C358 1.240 . S
O357 Co330 2.096 . S
O357 C338 1.247 . S
C358 O355 1.244 . S
C358 O356 1.240 . S
H359 C333 0.931 . S
H360 C342 0.931 . S
H361 C346 0.929 . S
H362 C348 0.930 . S
Co363 N367 2.157 . S
Co363 N373 2.121 1_556 S
Co363 N383 2.188 1_556 S
Co363 O388 2.320 1_556 S
Co363 O389 2.140 1_556 S
Co363 O390 2.122 . S
C364 N367 1.301 1_554 S
C364 N368 1.328 1_554 S
C364 H369 0.930 . S
C365 C366 1.333 . S
C365 N367 1.317 . S
C365 H370 0.930 . S
C366 C365 1.333 . S
C366 N368 1.350 . S
C366 H392 0.931 . S
N367 Co363 2.157 . S
N367 C364 1.301 1_556 S
N367 C365 1.317 . S
N368 C364 1.328 1_556 S
N368 C366 1.350 . S
H369 C364 0.930 . S
H370 C365 0.930 . S
C371 O372 1.224 . S
C371 O390 1.247 . S
O372 C371 1.224 . S
N373 Co363 2.121 1_554 S
N373 C374 1.355 . S
N373 C376 1.311 1_554 S
C374 N373 1.355 . S
C374 C375 1.363 . S
C374 H386 0.929 . S
C375 C374 1.363 . S
C375 N377 1.375 . S
C375 H393 0.931 . S
C376 N373 1.311 1_556 S
C376 N377 1.347 1_556 S
C376 H387 0.929 . S
N377 C375 1.375 . S
N377 C376 1.347 1_554 S
C378 C381 1.365 . S
C378 N383 1.328 . S
C378 H384 0.929 . S
C379 C380 1.362 1_556 S
C379 C382 1.378 . S
C379 H394 0.929 . S
C380 C379 1.362 1_554 S
C380 C381 1.366 . S
C381 C378 1.365 . S
C381 C380 1.366 . S
C381 H395 0.930 . S
C382 C379 1.378 . S
C382 N383 1.315 1_556 S
C382 H385 0.930 . S
N383 Co363 2.188 1_554 S
N383 C378 1.328 . S
N383 C382 1.315 1_554 S
H384 C378 0.929 . S
H385 C382 0.930 . S
H386 C374 0.929 . S
H387 C376 0.929 . S
O388 Co363 2.320 1_554 S
O388 C391 1.244 . S
O389 Co363 2.140 1_554 S
O389 C391 1.240 . S
O390 Co363 2.122 . S
O390 C371 1.247 . S
C391 O388 1.244 . S
C391 O389 1.240 . S
H392 C366 0.931 . S
H393 C375 0.931 . S
H394 C379 0.929 . S
H395 C381 0.930 . S
C396 C397 1.349 . S
C396 C398 1.327 . S
C396 H421 0.950 . S
C397 C396 1.349 . S
C397 C413 1.349 . S
C398 C396 1.327 . S
C398 C417 1.429 . S
C398 H422 0.950 . S
C399 C416 1.574 1_655 S
C399 C418 1.368 . S
C399 H423 0.949 . S
H400 C404 0.949 . S
C401 C402 1.349 . S
C401 C403 1.327 . S
C401 H424 0.950 . S
C402 C401 1.349 . S
C402 C414 1.349 . S
C403 C401 1.327 . S
C403 C419 1.429 . S
C403 H425 0.950 . S
C404 H400 0.949 . S
C404 C412 1.574 1_455 S
C404 C420 1.368 . S
H405 C413 0.950 . S
H406 C411 0.950 . S
H407 C412 0.949 . S
H408 C414 0.950 . S
H409 C415 0.950 . S
H410 C416 0.949 . S
C411 H406 0.950 . S
C411 C413 1.327 . S
C411 C417 1.429 . S
C412 C404 1.574 1_655 S
C412 H407 0.949 . S
C412 C418 1.368 . S
C413 C397 1.349 . S
C413 H405 0.950 . S
C413 C411 1.327 . S
C414 C402 1.349 . S
C414 H408 0.950 . S
C414 C415 1.327 . S
C415 H409 0.950 . S
C415 C414 1.327 . S
C415 C419 1.429 . S
C416 C399 1.574 1_455 S
C416 H410 0.949 . S
C416 C420 1.368 . S
C417 C398 1.429 . S
C417 C411 1.429 . S
C417 C418 1.523 . S
C418 C399 1.368 . S
C418 C412 1.368 . S
C418 C417 1.523 . S
C419 C403 1.429 . S
C419 C415 1.429 . S
C419 C420 1.523 . S
C420 C404 1.368 . S
C420 C416 1.368 . S
C420 C419 1.523 . S
H421 C396 0.950 . S
H422 C398 0.950 . S
H423 C399 0.949 . S
H424 C401 0.950 . S
H425 C403 0.950 . S
C426 C427 1.349 . S
C426 C428 1.327 . S
C426 H451 0.950 . S
C427 C426 1.349 . S
C427 C443 1.349 . S
C428 C426 1.327 . S
C428 C447 1.429 . S
C428 H452 0.950 . S
C429 C446 1.574 1_565 S
C429 C448 1.368 . S
C429 H453 0.949 . S
H430 C434 0.949 . S
C431 C432 1.349 . S
C431 C433 1.327 . S
C431 H454 0.950 . S
C432 C431 1.349 . S
C432 C444 1.349 . S
C433 C431 1.327 . S
C433 C449 1.429 . S
C433 H455 0.950 . S
C434 H430 0.949 . S
C434 C442 1.574 1_545 S
C434 C450 1.368 . S
H435 C443 0.950 . S
H436 C441 0.950 . S
H437 C442 0.949 . S
H438 C444 0.950 . S
H439 C445 0.950 . S
H440 C446 0.949 . S
C441 H436 0.950 . S
C441 C443 1.327 . S
C441 C447 1.429 . S
C442 C434 1.574 1_565 S
C442 H437 0.949 . S
C442 C448 1.368 . S
C443 C427 1.349 . S
C443 H435 0.950 . S
C443 C441 1.327 . S
C444 C432 1.349 . S
C444 H438 0.950 . S
C444 C445 1.327 . S
C445 H439 0.950 . S
C445 C444 1.327 . S
C445 C449 1.429 . S
C446 C429 1.574 1_545 S
C446 H440 0.949 . S
C446 C450 1.368 . S
C447 C428 1.429 . S
C447 C441 1.429 . S
C447 C448 1.523 . S
C448 C429 1.368 . S
C448 C442 1.368 . S
C448 C447 1.523 . S
C449 C433 1.429 . S
C449 C445 1.429 . S
C449 C450 1.523 . S
C450 C434 1.368 . S
C450 C446 1.368 . S
C450 C449 1.523 . S
H451 C426 0.950 . S
H452 C428 0.950 . S
H453 C429 0.949 . S
H454 C431 0.950 . S
H455 C433 0.950 . S
C456 C457 1.349 . S
C456 C458 1.327 . S
C456 H481 0.950 . S
C457 C456 1.349 . S
C457 C473 1.349 . S
C458 C456 1.327 . S
C458 C477 1.429 . S
C458 H482 0.950 . S
C459 C476 1.574 . S
C459 C478 1.368 . S
C459 H483 0.949 . S
H460 C464 0.949 . S
C461 C462 1.349 . S
C461 C463 1.327 . S
C461 H484 0.950 . S
C462 C461 1.349 . S
C462 C474 1.349 . S
C463 C461 1.327 . S
C463 C479 1.429 . S
C463 H485 0.950 . S
C464 H460 0.949 . S
C464 C472 1.574 . S
C464 C480 1.368 . S
H465 C473 0.950 . S
H466 C471 0.950 . S
H467 C472 0.949 . S
H468 C474 0.950 . S
H469 C475 0.950 . S
H470 C476 0.949 . S
C471 H466 0.950 . S
C471 C473 1.327 . S
C471 C477 1.429 . S
C472 C464 1.574 . S
C472 H467 0.949 . S
C472 C478 1.368 . S
C473 C457 1.349 . S
C473 H465 0.950 . S
C473 C471 1.327 . S
C474 C462 1.349 . S
C474 H468 0.950 . S
C474 C475 1.327 . S
C475 H469 0.950 . S
C475 C474 1.327 . S
C475 C479 1.429 . S
C476 C459 1.574 . S
C476 H470 0.949 . S
C476 C480 1.368 . S
C477 C458 1.429 . S
C477 C471 1.429 . S
C477 C478 1.523 . S
C478 C459 1.368 . S
C478 C472 1.368 . S
C478 C477 1.523 . S
C479 C463 1.429 . S
C479 C475 1.429 . S
C479 C480 1.523 . S
C480 C464 1.368 . S
C480 C476 1.368 . S
C480 C479 1.523 . S
H481 C456 0.950 . S
H482 C458 0.950 . S
H483 C459 0.949 . S
H484 C461 0.950 . S
H485 C463 0.950 . S
C486 C487 1.349 . S
C486 C488 1.327 . S
C486 H511 0.950 . S
C487 C486 1.349 . S
C487 C503 1.349 . S
C488 C486 1.327 . S
C488 C507 1.429 . S
C488 H512 0.950 . S
C489 C506 1.574 . S
C489 C508 1.368 1_655 S
C489 H513 0.949 . S
H490 C494 0.949 . S
C491 C492 1.349 . S
C491 C493 1.327 . S
C491 H514 0.950 . S
C492 C491 1.349 . S
C492 C504 1.349 . S
C493 C491 1.327 . S
C493 C509 1.429 . S
C493 H515 0.950 . S
C494 H490 0.949 . S
C494 C502 1.574 . S
C494 C510 1.368 1_455 S
H495 C503 0.950 . S
H496 C501 0.950 . S
H497 C502 0.949 . S
H498 C504 0.950 . S
H499 C505 0.950 . S
H500 C506 0.949 . S
C501 H496 0.950 . S
C501 C503 1.327 . S
C501 C507 1.429 . S
C502 C494 1.574 . S
C502 H497 0.949 . S
C502 C508 1.368 . S
C503 C487 1.349 . S
C503 H495 0.950 . S
C503 C501 1.327 . S
C504 C492 1.349 . S
C504 H498 0.950 . S
C504 C505 1.327 . S
C505 H499 0.950 . S
C505 C504 1.327 . S
C505 C509 1.429 . S
C506 C489 1.574 . S
C506 H500 0.949 . S
C506 C510 1.368 . S
C507 C488 1.429 . S
C507 C501 1.429 . S
C507 C508 1.523 . S
C508 C489 1.368 1_455 S
C508 C502 1.368 . S
C508 C507 1.523 . S
C509 C493 1.429 . S
C509 C505 1.429 . S
C509 C510 1.523 . S
C510 C494 1.368 1_655 S
C510 C506 1.368 . S
C510 C509 1.523 . S
H511 C486 0.950 . S
H512 C488 0.950 . S
H513 C489 0.949 . S
H514 C491 0.950 . S
H515 C493 0.950 . S
C516 C517 1.349 . S
C516 C518 1.327 . S
C516 H541 0.950 . S
C517 C516 1.349 . S
C517 C533 1.349 . S
C518 C516 1.327 . S
C518 C537 1.429 . S
C518 H542 0.950 . S
C519 C536 1.574 . S
C519 C538 1.368 1_565 S
C519 H543 0.949 . S
H520 C524 0.949 . S
C521 C522 1.349 . S
C521 C523 1.327 . S
C521 H544 0.950 . S
C522 C521 1.349 . S
C522 C534 1.349 . S
C523 C521 1.327 . S
C523 C539 1.429 . S
C523 H545 0.950 . S
C524 H520 0.949 . S
C524 C532 1.574 . S
C524 C540 1.368 1_545 S
H525 C533 0.950 . S
H526 C531 0.950 . S
H527 C532 0.949 . S
H528 C534 0.950 . S
H529 C535 0.950 . S
H530 C536 0.949 . S
C531 H526 0.950 . S
C531 C533 1.327 . S
C531 C537 1.429 . S
C532 C524 1.574 . S
C532 H527 0.949 . S
C532 C538 1.368 . S
C533 C517 1.349 . S
C533 H525 0.950 . S
C533 C531 1.327 . S
C534 C522 1.349 . S
C534 H528 0.950 . S
C534 C535 1.327 . S
C535 H529 0.950 . S
C535 C534 1.327 . S
C535 C539 1.429 . S
C536 C519 1.574 . S
C536 H530 0.949 . S
C536 C540 1.368 . S
C537 C518 1.429 . S
C537 C531 1.429 . S
C537 C538 1.523 . S
C538 C519 1.368 1_545 S
C538 C532 1.368 . S
C538 C537 1.523 . S
C539 C523 1.429 . S
C539 C535 1.429 . S
C539 C540 1.523 . S
C540 C524 1.368 1_565 S
C540 C536 1.368 . S
C540 C539 1.523 . S
H541 C516 0.950 . S
H542 C518 0.950 . S
H543 C519 0.949 . S
H544 C521 0.950 . S
H545 C523 0.950 . S
C546 C547 1.349 . S
C546 C548 1.327 . S
C546 H571 0.950 . S
C547 C546 1.349 . S
C547 C563 1.349 . S
C548 C546 1.327 . S
C548 C567 1.429 . S
C548 H572 0.950 . S
C549 C566 1.574 . S
C549 C568 1.368 . S
C549 H573 0.949 . S
H550 C554 0.949 . S
C551 C552 1.349 . S
C551 C553 1.327 . S
C551 H574 0.950 . S
C552 C551 1.349 . S
C552 C564 1.349 . S
C553 C551 1.327 . S
C553 C569 1.429 . S
C553 H575 0.950 . S
C554 H550 0.949 . S
C554 C562 1.574 . S
C554 C570 1.368 . S
H555 C563 0.950 . S
H556 C561 0.950 . S
H557 C562 0.949 . S
H558 C564 0.950 . S
H559 C565 0.950 . S
H560 C566 0.949 . S
C561 H556 0.950 . S
C561 C563 1.327 . S
C561 C567 1.429 . S
C562 C554 1.574 . S
C562 H557 0.949 . S
C562 C568 1.368 . S
C563 C547 1.349 . S
C563 H555 0.950 . S
C563 C561 1.327 . S
C564 C552 1.349 . S
C564 H558 0.950 . S
C564 C565 1.327 . S
C565 H559 0.950 . S
C565 C564 1.327 . S
C565 C569 1.429 . S
C566 C549 1.574 . S
C566 H560 0.949 . S
C566 C570 1.368 . S
C567 C548 1.429 . S
C567 C561 1.429 . S
C567 C568 1.523 . S
C568 C549 1.368 . S
C568 C562 1.368 . S
C568 C567 1.523 . S
C569 C553 1.429 . S
C569 C565 1.429 . S
C569 C570 1.523 . S
C570 C554 1.368 . S
C570 C566 1.368 . S
C570 C569 1.523 . S
H571 C546 0.950 . S
H572 C548 0.950 . S
H573 C549 0.949 . S
H574 C551 0.950 . S
H575 C553 0.950 . S
C576 C577 1.349 . S
C576 C578 1.327 . S
C576 H601 0.950 . S
C577 C576 1.349 . S
C577 C593 1.349 . S
C578 C576 1.327 . S
C578 C597 1.429 . S
C578 H602 0.950 . S
C579 C596 1.574 . S
C579 C598 1.368 . S
C579 H603 0.949 . S
H580 C584 0.949 . S
C581 C582 1.349 . S
C581 C583 1.327 . S
C581 H604 0.950 . S
C582 C581 1.349 . S
C582 C594 1.349 . S
C583 C581 1.327 . S
C583 C599 1.429 . S
C583 H605 0.950 . S
C584 H580 0.949 . S
C584 C592 1.574 . S
C584 C600 1.368 . S
H585 C593 0.950 . S
H586 C591 0.950 . S
H587 C592 0.949 . S
H588 C594 0.950 . S
H589 C595 0.950 . S
H590 C596 0.949 . S
C591 H586 0.950 . S
C591 C593 1.327 . S
C591 C597 1.429 . S
C592 C584 1.574 . S
C592 H587 0.949 . S
C592 C598 1.368 . S
C593 C577 1.349 . S
C593 H585 0.950 . S
C593 C591 1.327 . S
C594 C582 1.349 . S
C594 H588 0.950 . S
C594 C595 1.327 . S
C595 H589 0.950 . S
C595 C594 1.327 . S
C595 C599 1.429 . S
C596 C579 1.574 . S
C596 H590 0.949 . S
C596 C600 1.368 . S
C597 C578 1.429 . S
C597 C591 1.429 . S
C597 C598 1.523 . S
C598 C579 1.368 . S
C598 C592 1.368 . S
C598 C597 1.523 . S
C599 C583 1.429 . S
C599 C595 1.429 . S
C599 C600 1.523 . S
C600 C584 1.368 . S
C600 C596 1.368 . S
C600 C599 1.523 . S
H601 C576 0.950 . S
H602 C578 0.950 . S
H603 C579 0.949 . S
H604 C581 0.950 . S
H605 C583 0.950 . S
C606 C607 1.349 . S
C606 C608 1.327 . S
C606 H631 0.950 . S
C607 C606 1.349 . S
C607 C623 1.349 . S
C608 C606 1.327 . S
C608 C627 1.429 . S
C608 H632 0.950 . S
C609 C626 1.574 . S
C609 C628 1.368 . S
C609 H633 0.949 . S
H610 C614 0.949 . S
C611 C612 1.349 . S
C611 C613 1.327 . S
C611 H634 0.950 . S
C612 C611 1.349 . S
C612 C624 1.349 . S
C613 C611 1.327 . S
C613 C629 1.429 . S
C613 H635 0.950 . S
C614 H610 0.949 . S
C614 C622 1.574 . S
C614 C630 1.368 . S
H615 C623 0.950 . S
H616 C621 0.950 . S
H617 C622 0.949 . S
H618 C624 0.950 . S
H619 C625 0.950 . S
H620 C626 0.949 . S
C621 H616 0.950 . S
C621 C623 1.327 . S
C621 C627 1.429 . S
C622 C614 1.574 . S
C622 H617 0.949 . S
C622 C628 1.368 . S
C623 C607 1.349 . S
C623 H615 0.950 . S
C623 C621 1.327 . S
C624 C612 1.349 . S
C624 H618 0.950 . S
C624 C625 1.327 . S
C625 H619 0.950 . S
C625 C624 1.327 . S
C625 C629 1.429 . S
C626 C609 1.574 . S
C626 H620 0.949 . S
C626 C630 1.368 . S
C627 C608 1.429 . S
C627 C621 1.429 . S
C627 C628 1.523 . S
C628 C609 1.368 . S
C628 C622 1.368 . S
C628 C627 1.523 . S
C629 C613 1.429 . S
C629 C625 1.429 . S
C629 C630 1.523 . S
C630 C614 1.368 . S
C630 C626 1.368 . S
C630 C629 1.523 . S
H631 C606 0.950 . S
H632 C608 0.950 . S
H633 C609 0.949 . S
H634 C611 0.950 . S
H635 C613 0.950 . S
C636 C637 1.349 . S
C636 C638 1.327 . S
C636 H661 0.950 . S
C637 C636 1.349 . S
C637 C653 1.349 . S
C638 C636 1.327 . S
C638 C657 1.429 . S
C638 H662 0.950 . S
C639 C656 1.574 . S
C639 C658 1.368 . S
C639 H663 0.949 . S
H640 C644 0.949 . S
C641 C642 1.349 . S
C641 C643 1.327 . S
C641 H664 0.950 . S
C642 C641 1.349 . S
C642 C654 1.349 . S
C643 C641 1.327 . S
C643 C659 1.429 . S
C643 H665 0.950 . S
C644 H640 0.949 . S
C644 C652 1.574 . S
C644 C660 1.368 . S
H645 C653 0.950 . S
H646 C651 0.950 . S
H647 C652 0.949 . S
H648 C654 0.950 . S
H649 C655 0.950 . S
H650 C656 0.949 . S
C651 H646 0.950 . S
C651 C653 1.327 . S
C651 C657 1.429 . S
C652 C644 1.574 . S
C652 H647 0.949 . S
C652 C658 1.368 . S
C653 C637 1.349 . S
C653 H645 0.950 . S
C653 C651 1.327 . S
C654 C642 1.349 . S
C654 H648 0.950 . S
C654 C655 1.327 . S
C655 H649 0.950 . S
C655 C654 1.327 . S
C655 C659 1.429 . S
C656 C639 1.574 . S
C656 H650 0.949 . S
C656 C660 1.368 . S
C657 C638 1.429 . S
C657 C651 1.429 . S
C657 C658 1.523 . S
C658 C639 1.368 . S
C658 C652 1.368 . S
C658 C657 1.523 . S
C659 C643 1.429 . S
C659 C655 1.429 . S
C659 C660 1.523 . S
C660 C644 1.368 . S
C660 C656 1.368 . S
C660 C659 1.523 . S
H661 C636 0.950 . S
H662 C638 0.950 . S
H663 C639 0.949 . S
H664 C641 0.950 . S
H665 C643 0.950 . S
C666 C667 1.349 . S
C666 C668 1.327 . S
C666 H691 0.950 . S
C667 C666 1.349 . S
C667 C683 1.349 . S
C668 C666 1.327 . S
C668 C687 1.429 . S
C668 H692 0.950 . S
C669 C686 1.574 . S
C669 C688 1.368 . S
C669 H693 0.949 . S
H670 C674 0.949 . S
C671 C672 1.349 . S
C671 C673 1.327 . S
C671 H694 0.950 . S
C672 C671 1.349 . S
C672 C684 1.349 . S
C673 C671 1.327 . S
C673 C689 1.429 . S
C673 H695 0.950 . S
C674 H670 0.949 . S
C674 C682 1.574 . S
C674 C690 1.368 . S
H675 C683 0.950 . S
H676 C681 0.950 . S
H677 C682 0.949 . S
H678 C684 0.950 . S
H679 C685 0.950 . S
H680 C686 0.949 . S
C681 H676 0.950 . S
C681 C683 1.327 . S
C681 C687 1.429 . S
C682 C674 1.574 . S
C682 H677 0.949 . S
C682 C688 1.368 . S
C683 C667 1.349 . S
C683 H675 0.950 . S
C683 C681 1.327 . S
C684 C672 1.349 . S
C684 H678 0.950 . S
C684 C685 1.327 . S
C685 H679 0.950 . S
C685 C684 1.327 . S
C685 C689 1.429 . S
C686 C669 1.574 . S
C686 H680 0.949 . S
C686 C690 1.368 . S
C687 C668 1.429 . S
C687 C681 1.429 . S
C687 C688 1.523 . S
C688 C669 1.368 . S
C688 C682 1.368 . S
C688 C687 1.523 . S
C689 C673 1.429 . S
C689 C685 1.429 . S
C689 C690 1.523 . S
C690 C674 1.368 . S
C690 C686 1.368 . S
C690 C689 1.523 . S
H691 C666 0.950 . S
H692 C668 0.950 . S
H693 C669 0.949 . S
H694 C671 0.950 . S
H695 C673 0.950 . S
C696 C697 1.349 . S
C696 C698 1.327 . S
C696 H721 0.950 . S
C697 C696 1.349 . S
C697 C713 1.349 . S
C698 C696 1.327 . S
C698 C717 1.429 . S
C698 H722 0.950 . S
C699 C716 1.574 . S
C699 C718 1.368 . S
C699 H723 0.949 . S
H700 C704 0.949 . S
C701 C702 1.349 . S
C701 C703 1.327 . S
C701 H724 0.950 . S
C702 C701 1.349 . S
C702 C714 1.349 . S
C703 C701 1.327 . S
C703 C719 1.429 . S
C703 H725 0.950 . S
C704 H700 0.949 . S
C704 C712 1.574 . S
C704 C720 1.368 . S
H705 C713 0.950 . S
H706 C711 0.950 . S
H707 C712 0.949 . S
H708 C714 0.950 . S
H709 C715 0.950 . S
H710 C716 0.949 . S
C711 H706 0.950 . S
C711 C713 1.327 . S
C711 C717 1.429 . S
C712 C704 1.574 . S
C712 H707 0.949 . S
C712 C718 1.368 . S
C713 C697 1.349 . S
C713 H705 0.950 . S
C713 C711 1.327 . S
C714 C702 1.349 . S
C714 H708 0.950 . S
C714 C715 1.327 . S
C715 H709 0.950 . S
C715 C714 1.327 . S
C715 C719 1.429 . S
C716 C699 1.574 . S
C716 H710 0.949 . S
C716 C720 1.368 . S
C717 C698 1.429 . S
C717 C711 1.429 . S
C717 C718 1.523 . S
C718 C699 1.368 . S
C718 C712 1.368 . S
C718 C717 1.523 . S
C719 C703 1.429 . S
C719 C715 1.429 . S
C719 C720 1.523 . S
C720 C704 1.368 . S
C720 C716 1.368 . S
C720 C719 1.523 . S
H721 C696 0.950 . S
H722 C698 0.950 . S
H723 C699 0.949 . S
H724 C701 0.950 . S
H725 C703 0.950 . S
C726 C727 1.349 . S
C726 C728 1.327 . S
C726 H751 0.950 . S
C727 C726 1.349 . S
C727 C743 1.349 . S
C728 C726 1.327 . S
C728 C747 1.429 . S
C728 H752 0.950 . S
C729 C746 1.574 . S
C729 C748 1.368 . S
C729 H753 0.949 . S
H730 C734 0.949 . S
C731 C732 1.349 . S
C731 C733 1.327 . S
C731 H754 0.950 . S
C732 C731 1.349 . S
C732 C744 1.349 . S
C733 C731 1.327 . S
C733 C749 1.429 . S
C733 H755 0.950 . S
C734 H730 0.949 . S
C734 C742 1.574 . S
C734 C750 1.368 . S
H735 C743 0.950 . S
H736 C741 0.950 . S
H737 C742 0.949 . S
H738 C744 0.950 . S
H739 C745 0.950 . S
H740 C746 0.949 . S
C741 H736 0.950 . S
C741 C743 1.327 . S
C741 C747 1.429 . S
C742 C734 1.574 . S
C742 H737 0.949 . S
C742 C748 1.368 . S
C743 C727 1.349 . S
C743 H735 0.950 . S
C743 C741 1.327 . S
C744 C732 1.349 . S
C744 H738 0.950 . S
C744 C745 1.327 . S
C745 H739 0.950 . S
C745 C744 1.327 . S
C745 C749 1.429 . S
C746 C729 1.574 . S
C746 H740 0.949 . S
C746 C750 1.368 . S
C747 C728 1.429 . S
C747 C741 1.429 . S
C747 C748 1.523 . S
C748 C729 1.368 . S
C748 C742 1.368 . S
C748 C747 1.523 . S
C749 C733 1.429 . S
C749 C745 1.429 . S
C749 C750 1.523 . S
C750 C734 1.368 . S
C750 C746 1.368 . S
C750 C749 1.523 . S
H751 C726 0.950 . S
H752 C728 0.950 . S
H753 C729 0.949 . S
H754 C731 0.950 . S
H755 C733 0.950 . S
C756 C757 1.349 . S
C756 C758 1.327 . S
C756 H781 0.950 . S
C757 C756 1.349 . S
C757 C773 1.349 . S
C758 C756 1.327 . S
C758 C777 1.429 . S
C758 H782 0.950 . S
C759 C776 1.574 . S
C759 C778 1.368 . S
C759 H783 0.949 . S
H760 C764 0.949 . S
C761 C762 1.349 . S
C761 C763 1.327 . S
C761 H784 0.950 . S
C762 C761 1.349 . S
C762 C774 1.349 . S
C763 C761 1.327 . S
C763 C779 1.429 . S
C763 H785 0.950 . S
C764 H760 0.949 . S
C764 C772 1.574 . S
C764 C780 1.368 . S
H765 C773 0.950 . S
H766 C771 0.950 . S
H767 C772 0.949 . S
H768 C774 0.950 . S
H769 C775 0.950 . S
H770 C776 0.949 . S
C771 H766 0.950 . S
C771 C773 1.327 . S
C771 C777 1.429 . S
C772 C764 1.574 . S
C772 H767 0.949 . S
C772 C778 1.368 1_455 S
C773 C757 1.349 . S
C773 H765 0.950 . S
C773 C771 1.327 . S
C774 C762 1.349 . S
C774 H768 0.950 . S
C774 C775 1.327 . S
C775 H769 0.950 . S
C775 C774 1.327 . S
C775 C779 1.429 . S
C776 C759 1.574 . S
C776 H770 0.949 . S
C776 C780 1.368 1_655 S
C777 C758 1.429 . S
C777 C771 1.429 . S
C777 C778 1.523 . S
C778 C759 1.368 . S
C778 C772 1.368 1_655 S
C778 C777 1.523 . S
C779 C763 1.429 . S
C779 C775 1.429 . S
C779 C780 1.523 . S
C780 C764 1.368 . S
C780 C776 1.368 1_455 S
C780 C779 1.523 . S
H781 C756 0.950 . S
H782 C758 0.950 . S
H783 C759 0.949 . S
H784 C761 0.950 . S
H785 C763 0.950 . S
C786 C787 1.349 . S
C786 C788 1.327 . S
C786 H811 0.950 . S
C787 C786 1.349 . S
C787 C803 1.349 . S
C788 C786 1.327 . S
C788 C807 1.429 . S
C788 H812 0.950 . S
C789 C806 1.574 . S
C789 C808 1.368 . S
C789 H813 0.949 . S
H790 C794 0.949 . S
C791 C792 1.349 . S
C791 C793 1.327 . S
C791 H814 0.950 . S
C792 C791 1.349 . S
C792 C804 1.349 . S
C793 C791 1.327 . S
C793 C809 1.429 . S
C793 H815 0.950 . S
C794 H790 0.949 . S
C794 C802 1.574 . S
C794 C810 1.368 . S
H795 C803 0.950 . S
H796 C801 0.950 . S
H797 C802 0.949 . S
H798 C804 0.950 . S
H799 C805 0.950 . S
H800 C806 0.949 . S
C801 H796 0.950 . S
C801 C803 1.327 . S
C801 C807 1.429 . S
C802 C794 1.574 . S
C802 H797 0.949 . S
C802 C808 1.368 1_565 S
C803 C787 1.349 . S
C803 H795 0.950 . S
C803 C801 1.327 . S
C804 C792 1.349 . S
C804 H798 0.950 . S
C804 C805 1.327 . S
C805 H799 0.950 . S
C805 C804 1.327 . S
C805 C809 1.429 . S
C806 C789 1.574 . S
C806 H800 0.949 . S
C806 C810 1.368 1_545 S
C807 C788 1.429 . S
C807 C801 1.429 . S
C807 C808 1.523 . S
C808 C789 1.368 . S
C808 C802 1.368 1_545 S
C808 C807 1.523 . S
C809 C793 1.429 . S
C809 C805 1.429 . S
C809 C810 1.523 . S
C810 C794 1.368 . S
C810 C806 1.368 1_565 S
C810 C809 1.523 . S
H811 C786 0.950 . S
H812 C788 0.950 . S
H813 C789 0.949 . S
H814 C791 0.950 . S
H815 C793 0.950 . S
C816 C817 1.349 . S
C816 C818 1.327 . S
C816 H841 0.950 . S
C817 C816 1.349 . S
C817 C833 1.349 1_554 S
C818 C816 1.327 . S
C818 C837 1.429 . S
C818 H842 0.950 . S
C819 C836 1.574 . S
C819 C838 1.368 1_556 S
C819 H843 0.949 . S
H820 C824 0.949 . S
C821 C822 1.349 1_556 S
C821 C823 1.327 . S
C821 H844 0.950 . S
C822 C821 1.349 1_554 S
C822 C834 1.349 . S
C823 C821 1.327 . S
C823 C839 1.429 1_556 S
C823 H845 0.950 . S
C824 H820 0.949 . S
C824 C832 1.574 . S
C824 C840 1.368 . S
H825 C833 0.950 . S
H826 C831 0.950 . S
H827 C832 0.949 . S
H828 C834 0.950 . S
H829 C835 0.950 . S
H830 C836 0.949 . S
C831 H826 0.950 . S
C831 C833 1.327 . S
C831 C837 1.429 1_556 S
C832 C824 1.574 . S
C832 H827 0.949 . S
C832 C838 1.368 . S
C833 C817 1.349 1_556 S
C833 H825 0.950 . S
C833 C831 1.327 . S
C834 C822 1.349 . S
C834 H828 0.950 . S
C834 C835 1.327 . S
C835 H829 0.950 . S
C835 C834 1.327 . S
C835 C839 1.429 . S
C836 C819 1.574 . S
C836 H830 0.949 . S
C836 C840 1.368 1_556 S
C837 C818 1.429 . S
C837 C831 1.429 1_554 S
C837 C838 1.523 . S
C838 C819 1.368 1_554 S
C838 C832 1.368 . S
C838 C837 1.523 . S
C839 C823 1.429 1_554 S
C839 C835 1.429 . S
C839 C840 1.523 . S
C840 C824 1.368 . S
C840 C836 1.368 1_554 S
C840 C839 1.523 . S
H841 C816 0.950 . S
H842 C818 0.950 . S
H843 C819 0.949 . S
H844 C821 0.950 . S
H845 C823 0.950 . S
C846 C847 1.349 . S
C846 C848 1.327 . S
C846 H871 0.950 . S
C847 C846 1.349 . S
C847 C863 1.349 . S
C848 C846 1.327 . S
C848 C867 1.429 . S
C848 H872 0.950 . S
C849 C866 1.574 . S
C849 C868 1.368 1_545 S
C849 H873 0.949 . S
H850 C854 0.949 . S
C851 C852 1.349 . S
C851 C853 1.327 . S
C851 H874 0.950 . S
C852 C851 1.349 . S
C852 C864 1.349 . S
C853 C851 1.327 . S
C853 C869 1.429 . S
C853 H875 0.950 . S
C854 H850 0.949 . S
C854 C862 1.574 . S
C854 C870 1.368 1_565 S
H855 C863 0.950 . S
H856 C861 0.950 . S
H857 C862 0.949 . S
H858 C864 0.950 . S
H859 C865 0.950 . S
H860 C866 0.949 . S
C861 H856 0.950 . S
C861 C863 1.327 . S
C861 C867 1.429 . S
C862 C854 1.574 . S
C862 H857 0.949 . S
C862 C868 1.368 . S
C863 C847 1.349 . S
C863 H855 0.950 . S
C863 C861 1.327 . S
C864 C852 1.349 . S
C864 H858 0.950 . S
C864 C865 1.327 . S
C865 H859 0.950 . S
C865 C864 1.327 . S
C865 C869 1.429 . S
C866 C849 1.574 . S
C866 H860 0.949 . S
C866 C870 1.368 . S
C867 C848 1.429 . S
C867 C861 1.429 . S
C867 C868 1.523 . S
C868 C849 1.368 1_565 S
C868 C862 1.368 . S
C868 C867 1.523 . S
C869 C853 1.429 . S
C869 C865 1.429 . S
C869 C870 1.523 . S
C870 C854 1.368 1_545 S
C870 C866 1.368 . S
C870 C869 1.523 . S
H871 C846 0.950 . S
H872 C848 0.950 . S
H873 C849 0.949 . S
H874 C851 0.950 . S
H875 C853 0.950 . S
C876 C877 1.349 . S
C876 C878 1.327 . S
C876 H901 0.950 . S
C877 C876 1.349 . S
C877 C893 1.349 . S
C878 C876 1.327 . S
C878 C897 1.429 . S
C878 H902 0.950 . S
C879 C896 1.574 . S
C879 C898 1.368 . S
C879 H903 0.949 . S
H880 C884 0.949 . S
C881 C882 1.349 . S
C881 C883 1.327 . S
C881 H904 0.950 . S
C882 C881 1.349 . S
C882 C894 1.349 . S
C883 C881 1.327 . S
C883 C899 1.429 . S
C883 H905 0.950 . S
C884 H880 0.949 . S
C884 C892 1.574 . S
C884 C900 1.368 . S
H885 C893 0.950 . S
H886 C891 0.950 . S
H887 C892 0.949 . S
H888 C894 0.950 . S
H889 C895 0.950 . S
H890 C896 0.949 . S
C891 H886 0.950 . S
C891 C893 1.327 . S
C891 C897 1.429 . S
C892 C884 1.574 . S
C892 H887 0.949 . S
C892 C898 1.368 . S
C893 C877 1.349 . S
C893 H885 0.950 . S
C893 C891 1.327 . S
C894 C882 1.349 . S
C894 H888 0.950 . S
C894 C895 1.327 . S
C895 H889 0.950 . S
C895 C894 1.327 . S
C895 C899 1.429 . S
C896 C879 1.574 . S
C896 H890 0.949 . S
C896 C900 1.368 . S
C897 C878 1.429 . S
C897 C891 1.429 . S
C897 C898 1.523 . S
C898 C879 1.368 . S
C898 C892 1.368 . S
C898 C897 1.523 . S
C899 C883 1.429 . S
C899 C895 1.429 . S
C899 C900 1.523 . S
C900 C884 1.368 . S
C900 C896 1.368 . S
C900 C899 1.523 . S
H901 C876 0.950 . S
H902 C878 0.950 . S
H903 C879 0.949 . S
H904 C881 0.950 . S
H905 C883 0.950 . S
C906 C907 1.349 1_554 S
C906 C908 1.327 . S
C906 H931 0.950 . S
C907 C906 1.349 1_556 S
C907 C923 1.349 . S
C908 C906 1.327 . S
C908 C927 1.429 1_554 S
C908 H932 0.950 . S
C909 C926 1.574 . S
C909 C928 1.368 . S
C909 H933 0.949 . S
H910 C914 0.949 . S
C911 C912 1.349 . S
C911 C913 1.327 . S
C911 H934 0.950 . S
C912 C911 1.349 . S
C912 C924 1.349 1_556 S
C913 C911 1.327 . S
C913 C929 1.429 . S
C913 H935 0.950 . S
C914 H910 0.949 . S
C914 C922 1.574 . S
C914 C930 1.368 1_554 S
H915 C923 0.950 . S
H916 C921 0.950 . S
H917 C922 0.949 . S
H918 C924 0.950 . S
H919 C925 0.950 . S
H920 C926 0.949 . S
C921 H916 0.950 . S
C921 C923 1.327 . S
C921 C927 1.429 . S
C922 C914 1.574 . S
C922 H917 0.949 . S
C922 C928 1.368 1_454 S
C923 C907 1.349 . S
C923 H915 0.950 . S
C923 C921 1.327 . S
C924 C912 1.349 1_554 S
C924 H918 0.950 . S
C924 C925 1.327 . S
C925 H919 0.950 . S
C925 C924 1.327 . S
C925 C929 1.429 1_554 S
C926 C909 1.574 . S
C926 H920 0.949 . S
C926 C930 1.368 1_655 S
C927 C908 1.429 1_556 S
C927 C921 1.429 . S
C927 C928 1.523 . S
C928 C909 1.368 . S
C928 C922 1.368 1_656 S
C928 C927 1.523 . S
C929 C913 1.429 . S
C929 C925 1.429 1_556 S
C929 C930 1.523 . S
C930 C914 1.368 1_556 S
C930 C926 1.368 1_455 S
C930 C929 1.523 . S
H931 C906 0.950 . S
H932 C908 0.950 . S
H933 C909 0.949 . S
H934 C911 0.950 . S
H935 C913 0.950 . S
C936 C937 1.349 . S
C936 C938 1.327 . S
C936 H961 0.950 . S
C937 C936 1.349 . S
C937 C953 1.349 . S
C938 C936 1.327 . S
C938 C957 1.429 . S
C938 H962 0.950 . S
C939 C956 1.574 . S
C939 C958 1.368 . S
C939 H963 0.949 . S
H940 C944 0.949 . S
C941 C942 1.349 . S
C941 C943 1.327 . S
C941 H964 0.950 . S
C942 C941 1.349 . S
C942 C954 1.349 . S
C943 C941 1.327 . S
C943 C959 1.429 . S
C943 H965 0.950 . S
C944 H940 0.949 . S
C944 C952 1.574 . S
C944 C960 1.368 . S
H945 C953 0.950 . S
H946 C951 0.950 . S
H947 C952 0.949 . S
H948 C954 0.950 . S
H949 C955 0.950 . S
H950 C956 0.949 . S
C951 H946 0.950 . S
C951 C953 1.327 . S
C951 C957 1.429 . S
C952 C944 1.574 . S
C952 H947 0.949 . S
C952 C958 1.368 . S
C953 C937 1.349 . S
C953 H945 0.950 . S
C953 C951 1.327 . S
C954 C942 1.349 . S
C954 H948 0.950 . S
C954 C955 1.327 . S
C955 H949 0.950 . S
C955 C954 1.327 . S
C955 C959 1.429 . S
C956 C939 1.574 . S
C956 H950 0.949 . S
C956 C960 1.368 . S
C957 C938 1.429 . S
C957 C951 1.429 . S
C957 C958 1.523 . S
C958 C939 1.368 . S
C958 C952 1.368 . S
C958 C957 1.523 . S
C959 C943 1.429 . S
C959 C955 1.429 . S
C959 C960 1.523 . S
C960 C944 1.368 . S
C960 C956 1.368 . S
C960 C959 1.523 . S
H961 C936 0.950 . S
H962 C938 0.950 . S
H963 C939 0.949 . S
H964 C941 0.950 . S
H965 C943 0.950 . S
C966 C967 1.349 . S
C966 C968 1.327 . S
C966 H991 0.950 . S
C967 C966 1.349 . S
C967 C983 1.349 . S
C968 C966 1.327 . S
C968 C987 1.429 . S
C968 H992 0.950 . S
C969 C986 1.574 1_655 S
C969 C988 1.368 . S
C969 H993 0.949 . S
H970 C974 0.949 . S
C971 C972 1.349 . S
C971 C973 1.327 . S
C971 H994 0.950 . S
C972 C971 1.349 . S
C972 C984 1.349 . S
C973 C971 1.327 . S
C973 C989 1.429 . S
C973 H995 0.950 . S
C974 H970 0.949 . S
C974 C982 1.574 1_455 S
C974 C990 1.368 . S
H975 C983 0.950 . S
H976 C981 0.950 . S
H977 C982 0.949 . S
H978 C984 0.950 . S
H979 C985 0.950 . S
H980 C986 0.949 . S
C981 H976 0.950 . S
C981 C983 1.327 . S
C981 C987 1.429 . S
C982 C974 1.574 1_655 S
C982 H977 0.949 . S
C982 C988 1.368 . S
C983 C967 1.349 . S
C983 H975 0.950 . S
C983 C981 1.327 . S
C984 C972 1.349 . S
C984 H978 0.950 . S
C984 C985 1.327 . S
C985 H979 0.950 . S
C985 C984 1.327 . S
C985 C989 1.429 . S
C986 C969 1.574 1_455 S
C986 H980 0.949 . S
C986 C990 1.368 . S
C987 C968 1.429 . S
C987 C981 1.429 . S
C987 C988 1.523 . S
C988 C969 1.368 . S
C988 C982 1.368 . S
C988 C987 1.523 . S
C989 C973 1.429 . S
C989 C985 1.429 . S
C989 C990 1.523 . S
C990 C974 1.368 . S
C990 C986 1.368 . S
C990 C989 1.523 . S
H991 C966 0.950 . S
H992 C968 0.950 . S
H993 C969 0.949 . S
H994 C971 0.950 . S
H995 C973 0.950 . S
C996 C997 1.349 1_556 S
C996 C998 1.327 . S
C996 H1021 0.950 . S
C997 C996 1.349 1_554 S
C997 C1013 1.349 . S
C998 C996 1.327 . S
C998 C1017 1.410 1_556 S
C998 H1022 0.950 . S
C999 C1016 1.574 1_545 S
C999 C1018 1.378 . S
C999 H1023 0.949 . S
H1000 C1004 0.949 . S
C1001 C1002 1.349 1_554 S
C1001 C1003 1.327 . S
C1001 H1024 0.950 . S
C1002 C1001 1.349 1_556 S
C1002 C1014 1.349 . S
C1003 C1001 1.327 . S
C1003 C1019 1.416 1_554 S
C1003 H1025 0.950 . S
C1004 H1000 0.949 . S
C1004 C1012 1.574 1_565 S
C1004 C1020 1.371 . S
H1005 C1013 0.950 . S
H1006 C1011 0.950 . S
H1007 C1012 0.949 . S
H1008 C1014 0.950 . S
H1009 C1015 0.950 . S
H1010 C1016 0.949 . S
C1011 H1006 0.950 . S
C1011 C1013 1.327 . S
C1011 C1017 1.448 . S
C1012 C1004 1.574 1_545 S
C1012 H1007 0.949 . S
C1012 C1018 1.359 1_556 S
C1013 C997 1.349 . S
C1013 H1005 0.950 . S
C1013 C1011 1.327 . S
C1014 C1002 1.349 . S
C1014 H1008 0.950 . S
C1014 C1015 1.327 . S
C1015 H1009 0.950 . S
C1015 C1014 1.327 . S
C1015 C1019 1.441 . S
C1016 C999 1.574 1_565 S
C1016 H1010 0.949 . S
C1016 C1020 1.366 1_554 S
C1017 C998 1.410 1_554 S
C1017 C1011 1.448 . S
C1017 C1018 1.523 . S
C1018 C999 1.378 . S
C1018 C1012 1.359 1_554 S
C1018 C1017 1.523 . S
C1019 C1003 1.416 1_556 S
C1019 C1015 1.441 . S
C1019 C1020 1.523 . S
C1020 C1004 1.371 . S
C1020 C1016 1.366 1_556 S
C1020 C1019 1.523 . S
H1021 C996 0.950 . S
H1022 C998 0.950 . S
H1023 C999 0.949 . S
H1024 C1001 0.950 . S
H1025 C1003 0.950 . S
C1026 C1027 1.349 . S
C1026 C1028 1.327 . S
C1026 H1051 0.950 . S
C1027 C1026 1.349 . S
C1027 C1043 1.349 . S
C1028 C1026 1.327 . S
C1028 C1047 1.429 . S
C1028 H1052 0.950 . S
C1029 C1046 1.574 . S
C1029 C1048 1.368 . S
C1029 H1053 0.949 . S
H1030 C1034 0.949 . S
C1031 C1032 1.349 . S
C1031 C1033 1.327 . S
C1031 H1054 0.950 . S
C1032 C1031 1.349 . S
C1032 C1044 1.349 . S
C1033 C1031 1.327 . S
C1033 C1049 1.429 . S
C1033 H1055 0.950 . S
C1034 H1030 0.949 . S
C1034 C1042 1.574 . S
C1034 C1050 1.368 . S
H1035 C1043 0.950 . S
H1036 C1041 0.950 . S
H1037 C1042 0.949 . S
H1038 C1044 0.950 . S
H1039 C1045 0.950 . S
H1040 C1046 0.949 . S
C1041 H1036 0.950 . S
C1041 C1043 1.327 . S
C1041 C1047 1.429 . S
C1042 C1034 1.574 . S
C1042 H1037 0.949 . S
C1042 C1048 1.368 . S
C1043 C1027 1.349 . S
C1043 H1035 0.950 . S
C1043 C1041 1.327 . S
C1044 C1032 1.349 . S
C1044 H1038 0.950 . S
C1044 C1045 1.327 . S
C1045 H1039 0.950 . S
C1045 C1044 1.327 . S
C1045 C1049 1.429 . S
C1046 C1029 1.574 . S
C1046 H1040 0.949 . S
C1046 C1050 1.368 . S
C1047 C1028 1.429 . S
C1047 C1041 1.429 . S
C1047 C1048 1.523 . S
C1048 C1029 1.368 . S
C1048 C1042 1.368 . S
C1048 C1047 1.523 . S
C1049 C1033 1.429 . S
C1049 C1045 1.429 . S
C1049 C1050 1.523 . S
C1050 C1034 1.368 . S
C1050 C1046 1.368 . S
C1050 C1049 1.523 . S
H1051 C1026 0.950 . S
H1052 C1028 0.950 . S
H1053 C1029 0.949 . S
H1054 C1031 0.950 . S
H1055 C1033 0.950 . S
C1056 C1057 1.349 . S
C1056 C1058 1.327 . S
C1056 H1081 0.950 . S
C1057 C1056 1.349 . S
C1057 C1073 1.349 . S
C1058 C1056 1.327 . S
C1058 C1077 1.429 . S
C1058 H1082 0.950 . S
C1059 C1076 1.574 1_455 S
C1059 C1078 1.368 . S
C1059 H1083 0.949 . S
H1060 C1064 0.949 . S
C1061 C1062 1.349 . S
C1061 C1063 1.327 . S
C1061 H1084 0.950 . S
C1062 C1061 1.349 . S
C1062 C1074 1.349 . S
C1063 C1061 1.327 . S
C1063 C1079 1.429 . S
C1063 H1085 0.950 . S
C1064 H1060 0.949 . S
C1064 C1072 1.574 1_655 S
C1064 C1080 1.368 . S
H1065 C1073 0.950 . S
H1066 C1071 0.950 . S
H1067 C1072 0.949 . S
H1068 C1074 0.950 . S
H1069 C1075 0.950 . S
H1070 C1076 0.949 . S
C1071 H1066 0.950 . S
C1071 C1073 1.327 . S
C1071 C1077 1.429 . S
C1072 C1064 1.574 1_455 S
C1072 H1067 0.949 . S
C1072 C1078 1.368 . S
C1073 C1057 1.349 . S
C1073 H1065 0.950 . S
C1073 C1071 1.327 . S
C1074 C1062 1.349 . S
C1074 H1068 0.950 . S
C1074 C1075 1.327 . S
C1075 H1069 0.950 . S
C1075 C1074 1.327 . S
C1075 C1079 1.429 . S
C1076 C1059 1.574 1_655 S
C1076 H1070 0.949 . S
C1076 C1080 1.368 . S
C1077 C1058 1.429 . S
C1077 C1071 1.429 . S
C1077 C1078 1.523 . S
C1078 C1059 1.368 . S
C1078 C1072 1.368 . S
C1078 C1077 1.523 . S
C1079 C1063 1.429 . S
C1079 C1075 1.429 . S
C1079 C1080 1.523 . S
C1080 C1064 1.368 . S
C1080 C1076 1.368 . S
C1080 C1079 1.523 . S
H1081 C1056 0.950 . S
H1082 C1058 0.950 . S
H1083 C1059 0.949 . S
H1084 C1061 0.950 . S
H1085 C1063 0.950 . S
C1086 C1087 1.349 . S
C1086 C1088 1.327 . S
C1086 H1111 0.950 . S
C1087 C1086 1.349 . S
C1087 C1103 1.349 1_556 S
C1088 C1086 1.327 . S
C1088 C1107 1.448 . S
C1088 H1112 0.950 . S
C1089 C1106 1.574 1_545 S
C1089 C1108 1.359 1_554 S
C1089 H1113 0.949 . S
H1090 C1094 0.949 . S
C1091 C1092 1.349 . S
C1091 C1093 1.327 . S
C1091 H1114 0.950 . S
C1092 C1091 1.349 . S
C1092 C1104 1.349 1_554 S
C1093 C1091 1.327 . S
C1093 C1109 1.441 . S
C1093 H1115 0.950 . S
C1094 H1090 0.949 . S
C1094 C1102 1.574 1_565 S
C1094 C1110 1.366 1_556 S
H1095 C1103 0.950 . S
H1096 C1101 0.950 . S
H1097 C1102 0.949 . S
H1098 C1104 0.950 . S
H1099 C1105 0.950 . S
H1100 C1106 0.949 . S
C1101 H1096 0.950 . S
C1101 C1103 1.327 . S
C1101 C1107 1.410 1_554 S
C1102 C1094 1.574 1_545 S
C1102 H1097 0.949 . S
C1102 C1108 1.378 . S
C1103 C1087 1.349 1_554 S
C1103 H1095 0.950 . S
C1103 C1101 1.327 . S
C1104 C1092 1.349 1_556 S
C1104 H1098 0.950 . S
C1104 C1105 1.327 . S
C1105 H1099 0.950 . S
C1105 C1104 1.327 . S
C1105 C1109 1.416 1_556 S
C1106 C1089 1.574 1_565 S
C1106 H1100 0.949 . S
C1106 C1110 1.371 . S
C1107 C1088 1.448 . S
C1107 C1101 1.410 1_556 S
C1107 C1108 1.523 . S
C1108 C1089 1.359 1_556 S
C1108 C1102 1.378 . S
C1108 C1107 1.523 . S
C1109 C1093 1.441 . S
C1109 C1105 1.416 1_554 S
C1109 C1110 1.523 . S
C1110 C1094 1.366 1_554 S
C1110 C1106 1.371 . S
C1110 C1109 1.523 . S
H1111 C1086 0.950 . S
H1112 C1088 0.950 . S
H1113 C1089 0.949 . S
H1114 C1091 0.950 . S
H1115 C1093 0.950 . S
C1116 C1117 1.349 . S
C1116 C1118 1.327 . S
C1116 H1141 0.950 . S
C1117 C1116 1.349 . S
C1117 C1133 1.349 . S
C1118 C1116 1.327 . S
C1118 C1137 1.429 . S
C1118 H1142 0.950 . S
C1119 C1136 1.574 . S
C1119 C1138 1.368 . S
C1119 H1143 0.949 . S
H1120 C1124 0.949 . S
C1121 C1122 1.349 . S
C1121 C1123 1.327 . S
C1121 H1144 0.950 . S
C1122 C1121 1.349 . S
C1122 C1134 1.349 . S
C1123 C1121 1.327 . S
C1123 C1139 1.429 . S
C1123 H1145 0.950 . S
C1124 H1120 0.949 . S
C1124 C1132 1.574 . S
C1124 C1140 1.368 . S
H1125 C1133 0.950 . S
H1126 C1131 0.950 . S
H1127 C1132 0.949 . S
H1128 C1134 0.950 . S
H1129 C1135 0.950 . S
H1130 C1136 0.949 . S
C1131 H1126 0.950 . S
C1131 C1133 1.327 . S
C1131 C1137 1.429 . S
C1132 C1124 1.574 . S
C1132 H1127 0.949 . S
C1132 C1138 1.368 . S
C1133 C1117 1.349 . S
C1133 H1125 0.950 . S
C1133 C1131 1.327 . S
C1134 C1122 1.349 . S
C1134 H1128 0.950 . S
C1134 C1135 1.327 . S
C1135 H1129 0.950 . S
C1135 C1134 1.327 . S
C1135 C1139 1.429 . S
C1136 C1119 1.574 . S
C1136 H1130 0.949 . S
C1136 C1140 1.368 . S
C1137 C1118 1.429 . S
C1137 C1131 1.429 . S
C1137 C1138 1.523 . S
C1138 C1119 1.368 . S
C1138 C1132 1.368 . S
C1138 C1137 1.523 . S
C1139 C1123 1.429 . S
C1139 C1135 1.429 . S
C1139 C1140 1.523 . S
C1140 C1124 1.368 . S
C1140 C1136 1.368 . S
C1140 C1139 1.523 . S
H1141 C1116 0.950 . S
H1142 C1118 0.950 . S
H1143 C1119 0.949 . S
H1144 C1121 0.950 . S
H1145 C1123 0.950 . S
C1146 C1147 1.349 . S
C1146 C1148 1.327 . S
C1146 H1171 0.950 . S
C1147 C1146 1.349 . S
C1147 C1163 1.349 . S
C1148 C1146 1.327 . S
C1148 C1167 1.429 . S
C1148 H1172 0.950 . S
C1149 C1166 1.574 . S
C1149 C1168 1.368 . S
C1149 H1173 0.949 . S
H1150 C1154 0.949 . S
C1151 C1152 1.349 . S
C1151 C1153 1.327 . S
C1151 H1174 0.950 . S
C1152 C1151 1.349 . S
C1152 C1164 1.349 . S
C1153 C1151 1.327 . S
C1153 C1169 1.429 . S
C1153 H1175 0.950 . S
C1154 H1150 0.949 . S
C1154 C1162 1.574 . S
C1154 C1170 1.368 . S
H1155 C1163 0.950 . S
H1156 C1161 0.950 . S
H1157 C1162 0.949 . S
H1158 C1164 0.950 . S
H1159 C1165 0.950 . S
H1160 C1166 0.949 . S
C1161 H1156 0.950 . S
C1161 C1163 1.327 . S
C1161 C1167 1.429 . S
C1162 C1154 1.574 . S
C1162 H1157 0.949 . S
C1162 C1168 1.368 . S
C1163 C1147 1.349 . S
C1163 H1155 0.950 . S
C1163 C1161 1.327 . S
C1164 C1152 1.349 . S
C1164 H1158 0.950 . S
C1164 C1165 1.327 . S
C1165 H1159 0.950 . S
C1165 C1164 1.327 . S
C1165 C1169 1.429 . S
C1166 C1149 1.574 . S
C1166 H1160 0.949 . S
C1166 C1170 1.368 . S
C1167 C1148 1.429 . S
C1167 C1161 1.429 . S
C1167 C1168 1.523 . S
C1168 C1149 1.368 . S
C1168 C1162 1.368 . S
C1168 C1167 1.523 . S
C1169 C1153 1.429 . S
C1169 C1165 1.429 . S
C1169 C1170 1.523 . S
C1170 C1154 1.368 . S
C1170 C1166 1.368 . S
C1170 C1169 1.523 . S
H1171 C1146 0.950 . S
H1172 C1148 0.950 . S
H1173 C1149 0.949 . S
H1174 C1151 0.950 . S
H1175 C1153 0.950 . S
C1176 C1177 1.349 . S
C1176 C1178 1.327 1_556 S
C1176 H1201 0.950 1_556 S
C1177 C1176 1.349 . S
C1177 C1193 1.349 . S
C1178 C1176 1.327 1_554 S
C1178 C1197 1.429 1_554 S
C1178 H1202 0.950 . S
C1179 C1196 1.574 . S
C1179 C1198 1.368 . S
C1179 H1203 0.949 . S
H1180 C1184 0.949 . S
C1181 C1182 1.349 . S
C1181 C1183 1.327 1_554 S
C1181 H1204 0.950 1_554 S
C1182 C1181 1.349 . S
C1182 C1194 1.349 . S
C1183 C1181 1.327 1_556 S
C1183 C1199 1.429 1_556 S
C1183 H1205 0.950 . S
C1184 H1180 0.949 . S
C1184 C1192 1.574 . S
C1184 C1200 1.368 . S
H1185 C1193 0.950 . S
H1186 C1191 0.950 . S
H1187 C1192 0.949 . S
H1188 C1194 0.950 . S
H1189 C1195 0.950 . S
H1190 C1196 0.949 . S
C1191 H1186 0.950 . S
C1191 C1193 1.327 . S
C1191 C1197 1.429 . S
C1192 C1184 1.574 . S
C1192 H1187 0.949 . S
C1192 C1198 1.368 1_554 S
C1193 C1177 1.349 . S
C1193 H1185 0.950 . S
C1193 C1191 1.327 . S
C1194 C1182 1.349 . S
C1194 H1188 0.950 . S
C1194 C1195 1.327 . S
C1195 H1189 0.950 . S
C1195 C1194 1.327 . S
C1195 C1199 1.429 . S
C1196 C1179 1.574 . S
C1196 H1190 0.949 . S
C1196 C1200 1.368 1_556 S
C1197 C1178 1.429 1_556 S
C1197 C1191 1.429 . S
C1197 C1198 1.523 . S
C1198 C1179 1.368 . S
C1198 C1192 1.368 1_556 S
C1198 C1197 1.523 . S
C1199 C1183 1.429 1_554 S
C1199 C1195 1.429 . S
C1199 C1200 1.523 . S
C1200 C1184 1.368 . S
C1200 C1196 1.368 1_554 S
C1200 C1199 1.523 . S
H1201 C1176 0.950 1_554 S
H1202 C1178 0.950 . S
H1203 C1179 0.949 . S
H1204 C1181 0.950 1_556 S
H1205 C1183 0.950 . S
C1206 C1207 1.349 . S
C1206 C1208 1.327 . S
C1206 H1231 0.950 . S
C1207 C1206 1.349 . S
C1207 C1223 1.349 . S
C1208 C1206 1.327 . S
C1208 C1227 1.429 . S
C1208 H1232 0.950 . S
C1209 C1226 1.574 . S
C1209 C1228 1.368 . S
C1209 H1233 0.949 . S
H1210 C1214 0.949 . S
C1211 C1212 1.349 . S
C1211 C1213 1.327 . S
C1211 H1234 0.950 . S
C1212 C1211 1.349 . S
C1212 C1224 1.349 . S
C1213 C1211 1.327 . S
C1213 C1229 1.429 . S
C1213 H1235 0.950 . S
C1214 H1210 0.949 . S
C1214 C1222 1.574 . S
C1214 C1230 1.368 . S
H1215 C1223 0.950 . S
H1216 C1221 0.950 . S
H1217 C1222 0.949 . S
H1218 C1224 0.950 . S
H1219 C1225 0.950 . S
H1220 C1226 0.949 . S
C1221 H1216 0.950 . S
C1221 C1223 1.327 . S
C1221 C1227 1.429 . S
C1222 C1214 1.574 . S
C1222 H1217 0.949 . S
C1222 C1228 1.368 . S
C1223 C1207 1.349 . S
C1223 H1215 0.950 . S
C1223 C1221 1.327 . S
C1224 C1212 1.349 . S
C1224 H1218 0.950 . S
C1224 C1225 1.327 . S
C1225 H1219 0.950 . S
C1225 C1224 1.327 . S
C1225 C1229 1.429 . S
C1226 C1209 1.574 . S
C1226 H1220 0.949 . S
C1226 C1230 1.368 . S
C1227 C1208 1.429 . S
C1227 C1221 1.429 . S
C1227 C1228 1.523 . S
C1228 C1209 1.368 . S
C1228 C1222 1.368 . S
C1228 C1227 1.523 . S
C1229 C1213 1.429 . S
C1229 C1225 1.429 . S
C1229 C1230 1.523 . S
C1230 C1214 1.368 . S
C1230 C1226 1.368 . S
C1230 C1229 1.523 . S
H1231 C1206 0.950 . S
H1232 C1208 0.950 . S
H1233 C1209 0.949 . S
H1234 C1211 0.950 . S
H1235 C1213 0.950 . S
C1236 C1237 1.349 . S
C1236 C1238 1.327 . S
C1236 H1261 0.950 . S
C1237 C1236 1.349 . S
C1237 C1253 1.349 . S
C1238 C1236 1.327 . S
C1238 C1257 1.429 . S
C1238 H1262 0.950 . S
C1239 C1256 1.574 . S
C1239 C1258 1.368 . S
C1239 H1263 0.949 . S
H1240 C1244 0.949 . S
C1241 C1242 1.349 . S
C1241 C1243 1.327 . S
C1241 H1264 0.950 . S
C1242 C1241 1.349 . S
C1242 C1254 1.349 . S
C1243 C1241 1.327 . S
C1243 C1259 1.429 . S
C1243 H1265 0.950 . S
C1244 H1240 0.949 . S
C1244 C1252 1.574 . S
C1244 C1260 1.368 . S
H1245 C1253 0.950 . S
H1246 C1251 0.950 . S
H1247 C1252 0.949 . S
H1248 C1254 0.950 . S
H1249 C1255 0.950 . S
H1250 C1256 0.949 . S
C1251 H1246 0.950 . S
C1251 C1253 1.327 . S
C1251 C1257 1.429 . S
C1252 C1244 1.574 . S
C1252 H1247 0.949 . S
C1252 C1258 1.368 . S
C1253 C1237 1.349 . S
C1253 H1245 0.950 . S
C1253 C1251 1.327 . S
C1254 C1242 1.349 . S
C1254 H1248 0.950 . S
C1254 C1255 1.327 . S
C1255 H1249 0.950 . S
C1255 C1254 1.327 . S
C1255 C1259 1.429 . S
C1256 C1239 1.574 . S
C1256 H1250 0.949 . S
C1256 C1260 1.368 . S
C1257 C1238 1.429 . S
C1257 C1251 1.429 . S
C1257 C1258 1.523 . S
C1258 C1239 1.368 . S
C1258 C1252 1.368 . S
C1258 C1257 1.523 . S
C1259 C1243 1.429 . S
C1259 C1255 1.429 . S
C1259 C1260 1.523 . S
C1260 C1244 1.368 . S
C1260 C1256 1.368 . S
C1260 C1259 1.523 . S
H1261 C1236 0.950 . S
H1262 C1238 0.950 . S
H1263 C1239 0.949 . S
H1264 C1241 0.950 . S
H1265 C1243 0.950 . S
C1266 C1267 1.349 . S
C1266 C1268 1.327 . S
C1266 H1291 0.950 . S
C1267 C1266 1.349 . S
C1267 C1283 1.349 . S
C1268 C1266 1.327 . S
C1268 C1287 1.429 . S
C1268 H1292 0.950 . S
C1269 C1286 1.574 . S
C1269 C1288 1.368 1_554 S
C1269 H1293 0.949 . S
H1270 C1274 0.949 . S
C1271 C1272 1.349 . S
C1271 C1273 1.327 . S
C1271 H1294 0.950 . S
C1272 C1271 1.349 . S
C1272 C1284 1.349 . S
C1273 C1271 1.327 . S
C1273 C1289 1.429 . S
C1273 H1295 0.950 . S
C1274 H1270 0.949 . S
C1274 C1282 1.574 . S
C1274 C1290 1.368 1_556 S
H1275 C1283 0.950 1_554 S
H1276 C1281 0.950 . S
H1277 C1282 0.949 . S
H1278 C1284 0.950 1_556 S
H1279 C1285 0.950 . S
H1280 C1286 0.949 . S
C1281 H1276 0.950 . S
C1281 C1283 1.327 1_554 S
C1281 C1287 1.429 1_554 S
C1282 C1274 1.574 . S
C1282 H1277 0.949 . S
C1282 C1288 1.368 . S
C1283 C1267 1.349 . S
C1283 H1275 0.950 1_556 S
C1283 C1281 1.327 1_556 S
C1284 C1272 1.349 . S
C1284 H1278 0.950 1_554 S
C1284 C1285 1.327 1_554 S
C1285 H1279 0.950 . S
C1285 C1284 1.327 1_556 S
C1285 C1289 1.429 1_556 S
C1286 C1269 1.574 . S
C1286 H1280 0.949 . S
C1286 C1290 1.368 . S
C1287 C1268 1.429 . S
C1287 C1281 1.429 1_556 S
C1287 C1288 1.523 . S
C1288 C1269 1.368 1_556 S
C1288 C1282 1.368 . S
C1288 C1287 1.523 . S
C1289 C1273 1.429 . S
C1289 C1285 1.429 1_554 S
C1289 C1290 1.523 . S
C1290 C1274 1.368 1_554 S
C1290 C1286 1.368 . S
C1290 C1289 1.523 . S
H1291 C1266 0.950 . S
H1292 C1268 0.950 . S
H1293 C1269 0.949 . S
H1294 C1271 0.950 . S
H1295 C1273 0.950 . S
C397 C391 1.781 . S
C402 C28 1.777 . S
C427 C226 1.883 . S
C432 C61 1.883 . S
C457 C94 1.781 . S
C462 C259 1.777 . S
C487 C292 1.781 . S
C492 C127 1.777 . S
C517 C325 1.883 . S
C522 C160 1.883 . S
C547 C358 1.781 . S
C552 C193 1.777 . S
C577 C8 0.457 . S
C582 C338 0.457 . S
C607 C41 0.420 . S
C612 C371 0.424 . S
C637 C206 0.420 . S
C642 C74 0.424 . S
C667 C239 0.457 . S
C672 C107 0.457 . S
C697 C272 0.423 . S
C702 C140 0.421 . S
C727 C173 0.423 . S
C732 C305 0.421 . S
C757 N104 1.215 . S
C762 N5 1.215 . S
C787 N38 1.224 . S
C792 N137 1.224 . S
C817 N170 1.226 . S
C822 N71 1.226 . S
C847 N203 1.224 . S
C852 N302 1.224 . S
C877 N236 1.215 . S
C882 N335 1.215 . S
C907 N368 1.226 . S
C912 N269 1.226 . S
C937 N14 0.903 . S
C942 N311 0.902 . S
C967 N47 0.902 . S
C972 N344 0.902 . S
C997 N377 0.875 . S
C1002 N80 0.878 . S
C1027 N113 0.903 . S
C1032 N212 0.902 . S
C1057 N146 0.902 . S
C1062 N245 0.902 . S
C1087 N179 0.875 . S
C1092 N278 0.878 . S
C1117 C215 1.806 . S
C1122 C17 1.805 . S
C1147 C248 1.805 . S
C1152 C50 1.806 . S
C1177 C83 1.793 . S
C1182 C281 1.793 . S
C1207 C314 1.806 . S
C1212 C116 1.805 . S
C1237 C149 1.806 . S
C1242 C347 1.805 . S
C1267 C182 1.793 . S
C1272 C380 1.793 . S
