# Generated by pormake.
# Topology rob, (6)-cn, num edge types: 1
# Building blocks:
#     Node 0, Type 0, BuildingBlock: KUMJIN_clean_sbu_1, # of connection points: 6
#     Node 1, Type 0, BuildingBlock: KUMJIN_clean_sbu_1, # of connection points: 6
#     Node 2, Type 0, BuildingBlock: KUMJIN_clean_sbu_1, # of connection points: 6
#     Node 3, Type 0, BuildingBlock: KUMJIN_clean_sbu_1, # of connection points: 6
#     Edge 4, Type (0, 0), BuildingBlock: MIFKUJ_clean_linker_0, # of connection points: 2
#     Edge 5, Type (0, 0), BuildingBlock: MIFKUJ_clean_linker_0, # of connection points: 2
#     Edge 6, Type (0, 0), BuildingBlock: MIFKUJ_clean_linker_0, # of connection points: 2
#     Edge 7, Type (0, 0), BuildingBlock: MIFKUJ_clean_linker_0, # of connection points: 2
#     Edge 8, Type (0, 0), BuildingBlock: MIFKUJ_clean_linker_0, # of connection points: 2
#     Edge 9, Type (0, 0), BuildingBlock: MIFKUJ_clean_linker_0, # of connection points: 2
#     Edge 10, Type (0, 0), BuildingBlock: MIFKUJ_clean_linker_0, # of connection points: 2
#     Edge 11, Type (0, 0), BuildingBlock: MIFKUJ_clean_linker_0, # of connection points: 2
#     Edge 12, Type (0, 0), BuildingBlock: MIFKUJ_clean_linker_0, # of connection points: 2
#     Edge 13, Type (0, 0), BuildingBlock: MIFKUJ_clean_linker_0, # of connection points: 2
#     Edge 14, Type (0, 0), BuildingBlock: MIFKUJ_clean_linker_0, # of connection points: 2
#     Edge 15, Type (0, 0), BuildingBlock: MIFKUJ_clean_linker_0, # of connection points: 2
# Relax obj value: 0.016
# Max RMSD: 0.098
# Mean RMSD: 0.098
data_MOF--net-rob--node1-KUMJIN_clean_sbu_1--edge1-MIFKUJ_clean_linker_0
_symmetry_space_group_name_H-M    P1
_symmetry_Int_Tables_number       1
_symmetry_cell_setting            triclinic
loop_
_symmetry_equiv_pos_as_xyz
'x, y, z'
_cell_length_a     23.351291
_cell_length_b     31.073796
_cell_length_c     42.077042
_cell_angle_alpha  108.78516
_cell_angle_beta   89.873921
_cell_angle_gamma 90.022425
loop_
_atom_site_label
_atom_site_type_symbol
_atom_site_fract_x
_atom_site_fract_y
_atom_site_fract_z
_atom_type_partial_charge
Eu0 Eu 0.30877 0.21675 0.97522 0.0
C1 C 0.10992 0.34871 1.00505 0.0
N2 N 0.16228 0.35661 0.01993 0.0
C3 C 0.1675 0.42898 0.01132 0.0
C4 C 0.0849 0.38066 0.99191 0.0
C5 C 0.19098 0.39616 0.02367 0.0
C6 C 0.11437 0.42116 0.99526 0.0
C7 C 0.0285 0.29846 0.98589 0.0
C8 C 0.08226 0.30777 1.00191 0.0
C9 C 0.00389 0.32997 0.97237 0.0
C10 C 0.03192 0.37097 0.97543 0.0
Eu11 Eu 0.19711 0.30017 0.04093 0.0
N12 N 0.10734 0.27745 0.01486 0.0
C13 C 1.00045 0.2581 0.9845 0.0
C14 C 0.07777 0.24019 0.01614 0.0
C15 C 0.02474 0.22927 1.00024 0.0
H16 H 0.23188 0.40237 0.03628 0.0
H17 H 1.00205 0.19913 1.0008 0.0
H18 H 0.25028 0.11375 0.94055 0.0
H19 H 0.51944 0.26357 0.03195 0.0
H20 H 0.09356 0.21976 0.03051 0.0
H21 H 0.95911 0.24973 0.97243 0.0
H22 H 0.42554 0.27685 0.00953 0.0
H23 H 0.1903 0.4603 0.01422 0.0
H24 H 0.96283 0.32317 0.9598 0.0
H25 H 0.01225 0.39497 0.96497 0.0
H26 H 0.27024 0.03415 0.93661 0.0
H27 H 0.09653 0.44656 0.98551 0.0
H28 H 0.54592 0.1861 0.0312 0.0
N29 N 0.32482 0.13969 0.96904 0.0
C30 C 0.37491 0.12998 0.98165 0.0
C31 C 0.29968 0.06079 0.94974 0.0
C32 C 0.38876 0.08491 0.97938 0.0
C33 C 0.28802 0.10593 0.95241 0.0
C34 C 0.34997 0.05024 0.9636 0.0
N35 N 0.39875 0.20816 0.99783 0.0
C36 C 0.43669 0.24313 0.0095 0.0
C37 C 0.46651 0.15584 0.00821 0.0
C38 C 0.41338 0.16502 0.99589 0.0
C39 C 0.50465 0.19189 0.02163 0.0
C40 C 0.48984 0.23566 0.02208 0.0
H41 H 0.35903 0.01517 0.96131 0.0
H42 H 0.45241 0.04141 0.99092 0.0
H43 H 0.52039 0.1035 0.01619 0.0
O44 O 0.34106 0.2472 0.93849 0.0
O45 O 0.32836 0.22638 0.02996 0.0
O46 O 0.27294 0.28279 0.06749 0.0
O47 O 0.3428 0.17426 0.92706 0.0
O48 O 0.32269 0.29287 0.99008 0.0
O49 O 0.28505 0.33158 0.04285 0.0
O50 O 0.13803 0.301 0.082 0.0
O51 O 0.20908 0.29904 0.9866 0.0
O52 O 0.21869 0.2237 0.95857 0.0
O53 O 0.18526 0.36242 0.08346 0.0
O54 O 0.19904 0.22514 0.03686 0.0
O55 O 0.22109 0.18958 0.98127 0.0
C56 C 0.31456 0.25263 0.06041 0.0
C57 C 0.33251 0.20202 0.88164 0.0
C58 C 0.35446 0.19797 0.82411 0.0
C59 C 0.29763 0.18474 0.81504 0.0
C60 C 0.27594 0.18894 0.87223 0.0
C61 C 0.25852 0.18069 0.83908 0.0
C62 C 0.37149 0.20714 0.85766 0.0
C63 C 0.32141 0.32765 0.01807 0.0
C64 C 0.35215 0.20813 0.91591 0.0
C65 C 0.44114 0.07579 0.9923 0.0
C66 C 0.47992 0.11114 0.00664 0.0
C67 C 0.19852 0.26359 0.96018 0.0
C68 C 0.12118 0.36884 0.13055 0.0
C69 C 0.0699 0.37068 0.18183 0.0
C70 C 0.06802 0.41838 0.19122 0.0
C71 C 0.11902 0.4165 0.14071 0.0
C72 C 0.09675 0.34597 0.15133 0.0
C73 C 0.09252 0.44101 0.17083 0.0
C74 C 0.19955 0.18878 0.00995 0.0
C75 C 0.14852 0.34358 0.09819 0.0
H76 H 0.28348 0.17781 0.78937 0.0
H77 H 0.24569 0.18433 0.89037 0.0
H78 H 0.21479 0.1706 0.83193 0.0
H79 H 0.41543 0.21677 0.86483 0.0
H80 H 0.04828 0.43828 0.21467 0.0
H81 H 0.13741 0.43488 0.12522 0.0
H82 H 0.09827 0.30918 0.14375 0.0
H83 H 0.09102 0.47776 0.17843 0.0
Eu84 Eu 0.81043 0.71338 0.97296 0.0
C85 C 0.6094 0.84995 0.01227 0.0
N86 N 0.66407 0.85666 0.02394 0.0
C87 C 0.66707 0.92909 0.01528 0.0
C88 C 0.58169 0.88268 1.00104 0.0
C89 C 0.69294 0.89562 0.02602 0.0
C90 C 0.61129 0.92255 1.00264 0.0
C91 C 0.52489 0.80202 0.99898 0.0
C92 C 0.58179 0.80957 0.0107 0.0
C93 C 0.49734 0.83442 0.98752 0.0
C94 C 0.52572 0.87452 0.98842 0.0
Eu95 Eu 0.704 0.79859 0.04154 0.0
N96 N 0.60973 0.77846 0.02162 0.0
C97 C 0.49676 0.76273 1.00005 0.0
C98 C 0.58081 0.74214 0.02518 0.0
C99 C 0.52459 0.73303 0.01366 0.0
H100 H 0.73587 0.90085 0.03604 0.0
H101 H 0.50225 0.70373 0.01612 0.0
H102 H 0.7685 0.61052 0.97481 0.0
H103 H 0.02146 0.79402 0.99604 0.0
H104 H 0.59971 0.72119 0.03824 0.0
H105 H 0.45283 0.75596 0.99175 0.0
H106 H 0.92024 0.7871 0.97966 0.0
H107 H 0.6901 0.9599 0.01677 0.0
H108 H 0.45375 0.82909 0.97833 0.0
H109 H 0.5038 0.8992 0.97957 0.0
H110 H 0.80916 0.54587 0.98908 0.0
H111 H 0.59145 0.9485 0.99424 0.0
H112 H 0.0687 0.73226 0.01132 0.0
N113 N 0.84503 0.64943 0.98552 0.0
C114 C 0.90148 0.6504 0.99362 0.0
C115 C 0.83545 0.57521 0.99075 0.0
C116 C 0.92681 0.61377 1.00135 0.0
C117 C 0.81223 0.61221 0.9832 0.0
C118 C 0.89291 0.57606 1.00003 0.0
N119 N 0.90761 0.72463 0.98912 0.0
C120 C 0.93897 0.76119 0.9881 0.0
C121 C 0.99223 0.69078 1.00388 0.0
C122 C 0.93367 0.68886 0.99523 0.0
C123 C 0.02367 0.72951 1.00482 0.0
C124 C 0.99704 0.76461 0.99651 0.0
H125 H 0.91079 0.5473 0.00584 0.0
H126 H 0.00496 0.58819 0.01642 0.0
H127 H 0.06231 0.65532 0.01831 0.0
O128 O 0.84811 0.71949 0.92597 0.0
O129 O 0.82372 0.7176 0.02785 0.0
O130 O 0.79239 0.78899 0.05986 0.0
O131 O 0.82016 0.65382 0.92906 0.0
O132 O 0.81605 0.78954 0.9807 0.0
O133 O 0.79132 0.82683 0.03624 0.0
O134 O 0.66134 0.79652 0.08799 0.0
O135 O 0.70236 0.79775 0.98696 0.0
O136 O 0.71957 0.72308 0.95794 0.0
O137 O 0.69446 0.86051 0.08431 0.0
O138 O 0.7046 0.72346 0.03678 0.0
O139 O 0.72328 0.68644 0.98075 0.0
C140 C 0.81988 0.751 0.05661 0.0
C141 C 0.86234 0.65149 0.87595 0.0
C142 C 0.90275 0.64982 0.82161 0.0
C143 C 0.9007 0.60198 0.81117 0.0
C144 C 0.86027 0.60373 0.86434 0.0
C145 C 0.87941 0.57931 0.83229 0.0
C146 C 0.88386 0.67457 0.85443 0.0
C147 C 0.81869 0.82489 0.00841 0.0
C148 C 0.84388 0.67577 0.91091 0.0
C149 C 0.98487 0.61596 0.01032 0.0
C150 C 0.01751 0.65424 0.01144 0.0
C151 C 0.69725 0.76243 0.9597 0.0
C152 C 0.64907 0.86474 0.13738 0.0
C153 C 0.61028 0.86608 0.19188 0.0
C154 C 0.6187 0.91336 0.20396 0.0
C155 C 0.65663 0.91209 0.1502 0.0
C156 C 0.62502 0.84181 0.15831 0.0
C157 C 0.64137 0.93613 0.18319 0.0
C158 C 0.70152 0.68731 0.00982 0.0
C159 C 0.66859 0.83997 0.10275 0.0
H160 H 0.91633 0.58178 0.78666 0.0
H161 H 0.84447 0.58494 0.88023 0.0
H162 H 0.87816 0.54253 0.82384 0.0
H163 H 0.88543 0.71138 0.86304 0.0
H164 H 0.60716 0.93284 0.22951 0.0
H165 H 0.67479 0.93068 0.1348 0.0
H166 H 0.61911 0.80529 0.14888 0.0
H167 H 0.64745 0.97259 0.19278 0.0
Eu168 Eu 0.31206 0.79108 0.53992 0.0
C169 C 0.11934 0.64254 0.49346 0.0
N170 N 0.17437 0.64098 0.48246 0.0
C171 C 0.1841 0.56455 0.48307 0.0
C172 C 0.09488 0.60491 0.50027 0.0
C173 C 0.20677 0.60276 0.47695 0.0
C174 C 0.12798 0.56561 0.49483 0.0
C175 C 0.03186 0.68565 0.51212 0.0
C176 C 0.08823 0.6827 0.49941 0.0
C177 C 0.00742 0.64814 0.51879 0.0
C178 C 0.03876 0.6079 0.51283 0.0
Eu179 Eu 0.20742 0.70602 0.47106 0.0
N180 N 0.1133 0.71896 0.49334 0.0
C181 C 1.00154 0.72625 0.51771 0.0
C182 C 0.08249 0.7575 0.49681 0.0
C183 C 0.02683 0.76216 0.50976 0.0
H184 H 0.24969 0.60139 0.46712 0.0
H185 H 0.00311 0.79323 0.51311 0.0
H186 H 0.28056 0.89489 0.53748 0.0
H187 H 0.5164 0.69924 0.51564 0.0
H188 H 0.09949 0.78434 0.48877 0.0
H189 H 0.95825 0.7299 0.52754 0.0
H190 H 0.41858 0.71567 0.53772 0.0
H191 H 0.20981 0.53425 0.47854 0.0
H192 H 0.96422 0.64992 0.5286 0.0
H193 H 0.01934 0.57935 0.51825 0.0
H194 H 0.32605 0.95547 0.51978 0.0
H195 H 0.11067 0.53597 0.4997 0.0
H196 H 0.56521 0.75229 0.49159 0.0
N197 N 0.35287 0.85123 0.52489 0.0
C198 C 0.40773 0.84533 0.51337 0.0
C199 C 0.34939 0.9246 0.51775 0.0
C200 C 0.43525 0.87887 0.50289 0.0
C201 C 0.32367 0.89026 0.52762 0.0
C202 C 0.40532 0.91882 0.5052 0.0
N203 N 0.4079 0.77322 0.52152 0.0
C204 C 0.43734 0.73707 0.52494 0.0
C205 C 0.49275 0.79807 0.49953 0.0
C206 C 0.4357 0.80497 0.51121 0.0
C207 C 0.52125 0.75871 0.50008 0.0
C208 C 0.49375 0.72854 0.51345 0.0
H209 H 0.425 0.94539 0.4974 0.0
H210 H 0.51308 0.89659 0.48185 0.0
H211 H 0.56368 0.82619 0.47933 0.0
O212 O 0.3478 0.78642 0.58742 0.0
O213 O 0.31738 0.79166 0.48591 0.0
O214 O 0.29686 0.71811 0.45433 0.0
O215 O 0.32024 0.85173 0.58361 0.0
O216 O 0.31503 0.71494 0.53276 0.0
O217 O 0.29575 0.67995 0.47656 0.0
O218 O 0.16155 0.71135 0.42625 0.0
O219 O 0.19986 0.7075 0.52576 0.0
O220 O 0.2209 0.78164 0.55429 0.0
O221 O 0.19981 0.64724 0.42636 0.0
O222 O 0.20275 0.78138 0.47673 0.0
O223 O 0.22563 0.81941 0.53231 0.0
C224 C 0.32027 0.75773 0.45763 0.0
C225 C 0.35774 0.85368 0.63788 0.0
C226 C 0.39492 0.85385 0.69236 0.0
C227 C 0.38294 0.90062 0.70544 0.0
C228 C 0.34646 0.90046 0.65177 0.0
C229 C 0.35909 0.92365 0.68525 0.0
C230 C 0.38257 0.83043 0.6583 0.0
C231 C 0.31935 0.68004 0.50491 0.0
C232 C 0.34176 0.82994 0.60247 0.0
C233 C 0.49134 0.87134 0.49022 0.0
C234 C 0.52005 0.83112 0.48861 0.0
C235 C 0.19819 0.74277 0.55334 0.0
C236 C 0.15066 0.64457 0.37523 0.0
C237 C 0.10773 0.64376 0.32199 0.0
C238 C 0.11628 0.59647 0.30945 0.0
C239 C 0.15856 0.59726 0.36187 0.0
C240 C 0.12446 0.66779 0.35523 0.0
C241 C 0.14133 0.57349 0.32929 0.0
C242 C 0.20263 0.81815 0.50343 0.0
C243 C 0.17052 0.66849 0.40983 0.0
H244 H 0.39276 0.91961 0.73132 0.0
H245 H 0.32749 0.91928 0.6368 0.0
H246 H 0.35025 0.95969 0.69563 0.0
H247 H 0.39134 0.79434 0.64801 0.0
H248 H 0.10305 0.57708 0.28422 0.0
H249 H 0.17812 0.57838 0.37662 0.0
H250 H 0.1182 0.70425 0.36513 0.0
H251 H 0.14752 0.53707 0.31935 0.0
Eu252 Eu 0.80808 0.28509 0.53647 0.0
C253 C 0.60202 0.15533 0.49375 0.0
N254 N 0.65844 0.14876 0.48549 0.0
C255 C 0.6565 0.07627 0.49416 0.0
C256 C 0.5706 0.12216 0.50269 0.0
C257 C 0.68578 0.10972 0.48498 0.0
C258 C 0.59868 0.08252 0.50308 0.0
C259 C 0.51669 0.20205 0.50056 0.0
C260 C 0.57566 0.19541 0.49328 0.0
C261 C 0.48518 0.16861 0.5087 0.0
C262 C 0.51212 0.12914 0.5103 0.0
Eu263 Eu 0.70191 0.205 0.46728 0.0
N264 N 0.6066 0.2266 0.48394 0.0
C265 C 0.49036 0.24125 0.49805 0.0
C266 C 0.57976 0.26264 0.47857 0.0
C267 C 0.52195 0.27143 0.48664 0.0
H268 H 0.73003 0.10431 0.47722 0.0
H269 H 0.5013 0.30059 0.48286 0.0
H270 H 0.7588 0.39237 0.56243 0.0
H271 H 0.01336 0.21723 0.47966 0.0
H272 H 0.60165 0.28346 0.46643 0.0
H273 H 0.44518 0.24756 0.50354 0.0
H274 H 0.91721 0.21383 0.50289 0.0
H275 H 0.67832 0.04547 0.49398 0.0
H276 H 0.43953 0.17257 0.51291 0.0
H277 H 0.48705 0.10377 0.51674 0.0
H278 H 0.79029 0.46825 0.56258 0.0
H279 H 0.57598 0.05632 0.50987 0.0
H280 H 0.05189 0.29072 0.47839 0.0
N281 N 0.83373 0.35897 0.53784 0.0
C282 C 0.8864 0.36336 0.52537 0.0
C283 C 0.81743 0.439 0.55168 0.0
C284 C 0.90633 0.40614 0.52521 0.0
C285 C 0.79945 0.39593 0.55127 0.0
C286 C 0.87093 0.44414 0.53842 0.0
N287 N 0.89958 0.2838 0.51222 0.0
C288 C 0.93259 0.24567 0.50133 0.0
C289 C 0.97557 0.32851 0.49983 0.0
C290 C 0.92059 0.32489 0.51265 0.0
C291 C 0.00904 0.28922 0.48779 0.0
C292 C 0.98747 0.24766 0.48855 0.0
H293 H 0.88473 0.47761 0.53884 0.0
H294 H 0.97684 0.4423 0.51176 0.0
H295 H 0.03749 0.37445 0.48971 0.0
O296 O 0.85142 0.26131 0.57381 0.0
O297 O 0.82158 0.28424 0.48237 0.0
O298 O 0.78983 0.21447 0.44807 0.0
O299 O 0.83013 0.33236 0.58577 0.0
O300 O 0.81258 0.20846 0.52554 0.0
O301 O 0.78787 0.17341 0.47002 0.0
O302 O 0.66086 0.20633 0.42025 0.0
O303 O 0.69838 0.20444 0.52151 0.0
O304 O 0.71707 0.27809 0.55296 0.0
O305 O 0.69042 0.14237 0.42574 0.0
O306 O 0.70387 0.28129 0.47474 0.0
O307 O 0.72144 0.31431 0.5313 0.0
C308 C 0.81906 0.25211 0.45299 0.0
C309 C 0.83216 0.30234 0.63063 0.0
C310 C 0.8553 0.30063 0.68669 0.0
C311 C 0.79707 0.30632 0.69535 0.0
C312 C 0.77415 0.30819 0.63972 0.0
C313 C 0.75669 0.3099 0.67188 0.0
C314 C 0.87271 0.29833 0.65418 0.0
C315 C 0.81592 0.17438 0.49727 0.0
C316 C 0.85087 0.30108 0.59692 0.0
C317 C 0.96086 0.40972 0.51212 0.0
C318 C 0.99542 0.37106 0.49955 0.0
C319 C 0.6907 0.23935 0.5488 0.0
C320 C 0.64458 0.13634 0.3729 0.0
C321 C 0.60339 0.133 0.31866 0.0
C322 C 0.60184 0.08526 0.30973 0.0
C323 C 0.64305 0.08865 0.36306 0.0
C324 C 0.62477 0.15842 0.35056 0.0
C325 C 0.62177 0.06339 0.33171 0.0
C326 C 0.69995 0.31588 0.50283 0.0
C327 C 0.6651 0.16235 0.40685 0.0
H328 H 0.78295 0.30802 0.72028 0.0
H329 H 0.74265 0.31185 0.62201 0.0
H330 H 0.71182 0.31433 0.6787 0.0
H331 H 0.91767 0.29396 0.64739 0.0
H332 H 0.58432 0.06462 0.28588 0.0
H333 H 0.65764 0.07075 0.37978 0.0
H334 H 0.62644 0.19517 0.35791 0.0
H335 H 0.6202 0.02668 0.32452 0.0
H336 H 0.67138 0.66647 0.06592 0.0
H337 H 0.60865 0.60509 0.06928 0.0
H338 H 0.59251 0.55767 0.96139 0.0
H339 H 0.65411 0.61963 0.95791 0.0
H340 H 0.49068 0.5625 0.99005 0.0
H341 H 0.67304 0.5008 1.00245 0.0
H342 H 0.76886 0.49866 0.02641 0.0
H343 H 0.69326 0.51109 0.12205 0.0
H344 H 0.59696 0.5141 0.09885 0.0
H345 H 0.37488 0.34501 0.96596 0.0
H346 H 0.43988 0.407 0.96797 0.0
H347 H 0.42205 0.4595 0.07562 0.0
H348 H 0.35601 0.39708 0.07393 0.0
H349 H 0.53941 0.45342 0.04988 0.0
H350 H 0.35601 0.51617 0.03529 0.0
H351 H 0.26176 0.51524 0.00879 0.0
H352 H 0.34314 0.49544 0.91353 0.0
H353 H 0.43801 0.49648 0.93953 0.0
C354 C 0.65474 0.64279 0.0429 0.0
C355 C 0.66755 0.64795 0.01165 0.0
C356 C 0.61913 0.60759 0.04484 0.0
C357 C 0.59611 0.57662 0.01557 0.0
C358 C 0.60973 0.58122 0.9843 0.0
C359 C 0.64523 0.61647 0.98234 0.0
C360 C 0.55593 0.54057 0.01761 0.0
C361 C 0.50171 0.53838 1.00283 0.0
C362 C 0.56979 0.50964 0.03489 0.0
C363 C 0.62773 0.50811 0.04898 0.0
C364 C 0.67682 0.50353 0.02868 0.0
C365 C 0.73124 0.50207 0.04211 0.0
C366 C 0.73711 0.50474 0.07572 0.0
C367 C 0.68861 0.50901 0.09601 0.0
C368 C 0.6341 0.51058 0.08273 0.0
C369 C 0.38464 0.36958 0.99018 0.0
C370 C 0.36017 0.36608 0.01985 0.0
C371 C 0.42174 0.40511 0.99121 0.0
C372 C 0.43551 0.43786 0.02189 0.0
C373 C 0.41179 0.43446 0.05169 0.0
C374 C 0.37392 0.399 0.05066 0.0
C375 C 0.47461 0.47557 0.02232 0.0
C376 C 0.52854 0.47792 0.03741 0.0
C377 C 0.46092 0.50633 1.00498 0.0
C378 C 0.40403 0.50606 0.98931 0.0
C379 C 0.35377 0.51135 0.00865 0.0
C380 C 0.30025 0.51085 0.99373 0.0
C381 C 0.29641 0.50497 0.95945 0.0
C382 C 0.34616 0.49993 0.94007 0.0
C383 C 0.39983 0.50065 0.95491 0.0
H384 H 0.2549 0.50448 0.94794 0.0
H385 H 0.77923 0.50341 0.08604 0.0
H386 H 0.36604 0.61552 0.45075 0.0
H387 H 0.43003 0.55345 0.45073 0.0
H388 H 0.41785 0.59314 0.55866 0.0
H389 H 0.35384 0.65567 0.5589 0.0
H390 H 0.52719 0.57944 0.5383 0.0
H391 H 0.35208 0.49436 0.50958 0.0
H392 H 0.26321 0.46665 0.47805 0.0
H393 H 0.35981 0.41516 0.38667 0.0
H394 H 0.4494 0.44205 0.41777 0.0
H395 H 0.6512 0.37932 0.55688 0.0
H396 H 0.58936 0.44265 0.55687 0.0
H397 H 0.60845 0.40653 0.44947 0.0
H398 H 0.67115 0.34326 0.44932 0.0
H399 H 0.49626 0.41849 0.46934 0.0
H400 H 0.67209 0.50106 0.49901 0.0
H401 H 0.76075 0.5272 0.53115 0.0
H402 H 0.66239 0.58369 0.62136 0.0
H403 H 0.57307 0.55769 0.58975 0.0
C404 C 0.37635 0.61074 0.47448 0.0
C405 C 0.35499 0.6406 0.50486 0.0
C406 C 0.41289 0.57514 0.47441 0.0
C407 C 0.42844 0.56841 0.50467 0.0
C408 C 0.40646 0.59773 0.53501 0.0
C409 C 0.36985 0.63338 0.53511 0.0
C410 C 0.46963 0.53203 0.50468 0.0
C411 C 0.52 0.54413 0.52364 0.0
C412 C 0.46108 0.48617 0.48481 0.0
C413 C 0.40731 0.47062 0.46593 0.0
C414 C 0.35429 0.47745 0.48272 0.0
C415 C 0.30382 0.4618 0.46494 0.0
C416 C 0.30578 0.43954 0.43033 0.0
C417 C 0.35832 0.43254 0.41346 0.0
C418 C 0.40898 0.44778 0.43117 0.0
C419 C 0.64318 0.38531 0.53331 0.0
C420 C 0.66609 0.35627 0.50307 0.0
C421 C 0.60773 0.42152 0.53336 0.0
C422 C 0.5945 0.42942 0.50319 0.0
C423 C 0.6181 0.40098 0.47302 0.0
C424 C 0.65393 0.36492 0.47299 0.0
C425 C 0.55372 0.46591 0.503 0.0
C426 C 0.50344 0.45382 0.48399 0.0
C427 C 0.56232 0.51173 0.5229 0.0
C428 C 0.61594 0.52704 0.54206 0.0
C429 C 0.66938 0.51873 0.52575 0.0
C430 C 0.71974 0.53368 0.54385 0.0
C431 C 0.71722 0.55697 0.5783 0.0
C432 C 0.66428 0.56557 0.59468 0.0
C433 C 0.61377 0.55085 0.57667 0.0
H434 H 0.75628 0.56841 0.59227 0.0
H435 H 0.26663 0.42753 0.41661 0.0
H436 H 0.16636 0.16543 0.06456 0.0
H437 H 0.10299 0.10287 0.06536 0.0
H438 H 0.09063 0.06061 0.95742 0.0
H439 H 0.15247 0.12342 0.95645 0.0
H440 H 0.99136 0.08774 0.04241 0.0
H441 H 0.08115 0.94363 0.92835 0.0
H442 H 0.17356 0.91832 0.89995 0.0
H443 H 0.26306 0.98488 0.99168 0.0
H444 H 0.17124 0.01005 0.02073 0.0
H445 H 0.8612 0.84587 0.9545 0.0
H446 H 0.9253 0.90856 0.95539 0.0
H447 H 0.92334 0.95437 0.06369 0.0
H448 H 0.85884 0.8923 0.06302 0.0
H449 H 0.03105 0.92571 0.97965 0.0
H450 H 0.94104 0.07031 0.09361 0.0
H451 H 0.84871 0.09597 0.12197 0.0
H452 H 0.75911 0.02911 0.03032 0.0
H453 H 0.85086 0.00365 1.00129 0.0
C454 C 0.15054 0.14253 0.04099 0.0
C455 C 0.16524 0.14893 0.0104 0.0
C456 C 0.11427 0.10694 0.0415 0.0
C457 C 0.09262 0.0769 0.01144 0.0
C458 C 0.1077 0.08294 0.98087 0.0
C459 C 0.1435 0.11867 0.98035 0.0
C460 C 0.05247 0.04021 0.01195 0.0
C461 C 1.00032 0.0522 0.02915 0.0
C462 C 0.0637 0.99408 0.99386 0.0
C463 C 0.11925 0.97909 0.97662 0.0
C464 C 0.12054 0.95275 0.94248 0.0
C465 C 0.17282 0.9384 0.92628 0.0
C466 C 0.22413 0.94998 0.944 0.0
C467 C 0.22328 0.97596 0.97798 0.0
C468 C 0.17113 0.99039 0.9943 0.0
C469 C 0.87414 0.86948 0.9785 0.0
C470 C 0.85504 0.86404 0.00868 0.0
C471 C 0.91084 0.90522 0.97897 0.0
C472 C 0.92884 0.93634 0.0096 0.0
C473 C 0.90932 0.93124 0.03975 0.0
C474 C 0.8725 0.89563 0.03931 0.0
C475 C 0.96963 0.97316 0.01002 0.0
C476 C 0.02198 0.96121 0.99296 0.0
C477 C 0.95848 0.01935 0.02822 0.0
C478 C 0.90291 0.0346 0.04539 0.0
C479 C 0.90165 0.06116 0.07949 0.0
C480 C 0.84939 0.07566 0.09568 0.0
C481 C 0.79806 0.06396 0.078 0.0
C482 C 0.79888 0.03789 0.04404 0.0
C483 C 0.85102 0.02338 0.02771 0.0
H484 H 0.75765 0.07521 0.09058 0.0
H485 H 0.26457 0.93891 0.93141 0.0
H486 H 0.85338 0.14926 0.55004 0.0
H487 H 0.92022 0.08832 0.54862 0.0
H488 H 0.93217 0.05229 0.44082 0.0
H489 H 0.86346 0.11226 0.44199 0.0
H490 H 0.93052 0.97821 0.45785 0.0
H491 H 0.03677 0.11731 0.49389 0.0
H492 H 0.05621 0.19639 0.5289 0.0
H493 H 0.06508 0.15491 0.6167 0.0
H494 H 0.04512 0.07562 0.58231 0.0
H495 H 0.17607 0.84048 0.44765 0.0
H496 H 0.11439 0.9024 0.44426 0.0
H497 H 0.09048 0.94584 0.5517 0.0
H498 H 0.15382 0.88501 0.55535 0.0
H499 H 0.10157 0.017 0.53138 0.0
H500 H 0.99071 0.87725 0.49382 0.0
H501 H 0.97222 0.7986 0.45744 0.0
H502 H 0.97444 0.84203 0.37048 0.0
H503 H 0.99349 0.92092 0.40618 0.0
C504 C 0.87 0.1282 0.52601 0.0
C505 C 0.85354 0.13572 0.49614 0.0
C506 C 0.90842 0.0935 0.52523 0.0
C507 C 0.93231 0.06639 0.49468 0.0
C508 C 0.91453 0.07291 0.4647 0.0
C509 C 0.8753 0.10719 0.46541 0.0
C510 C 0.97661 0.0319 0.49419 0.0
C511 C 0.96832 0.98681 0.47358 0.0
C512 C 0.02577 0.04302 0.51491 0.0
C513 C 0.03907 0.09054 0.53554 0.0
C514 C 0.04264 0.12506 0.52068 0.0
C515 C 0.05372 0.16993 0.54041 0.0
C516 C 0.06169 0.18067 0.57499 0.0
C517 C 0.05886 0.14653 0.58991 0.0
C518 C 0.04777 0.10161 0.57031 0.0
C519 C 0.15799 0.86349 0.47056 0.0
C520 C 0.16932 0.85773 0.50174 0.0
C521 C 0.12253 0.89871 0.46858 0.0
C522 C 0.09669 0.92814 0.49763 0.0
C523 C 0.10971 0.92342 0.52892 0.0
C524 C 0.14591 0.88865 0.53098 0.0
C525 C 0.05495 0.96316 0.49552 0.0
C526 C 0.06386 0.00843 0.51557 0.0
C527 C 0.00664 0.95223 0.47407 0.0
C528 C 0.99401 0.90495 0.45267 0.0
C529 C 0.98751 0.87002 0.46693 0.0
C530 C 0.97699 0.82541 0.44643 0.0
C531 C 0.97248 0.81535 0.41169 0.0
C532 C 0.97813 0.84992 0.39737 0.0
C533 C 0.98868 0.89459 0.41772 0.0
H534 H 0.96445 0.78078 0.39588 0.0
H535 H 0.07016 0.21544 0.59022 0.0
H536 H 0.54177 0.2126 0.33251 0.0
H537 H 0.49999 0.24553 0.29232 0.0
H538 H 0.57096 0.13596 0.21048 0.0
H539 H 0.61596 0.10479 0.25035 0.0
H540 H 0.57778 0.20926 0.19521 0.0
H541 H 0.42688 0.13864 0.2404 0.0
H542 H 0.3662 0.12724 0.28509 0.0
H543 H 0.31044 0.26617 0.31321 0.0
H544 H 0.37138 0.27852 0.26892 0.0
H545 H 0.38257 0.18151 0.06162 0.0
H546 H 0.4391 0.17422 0.10821 0.0
H547 H 0.37669 0.30421 0.17149 0.0
H548 H 0.32172 0.31274 0.12436 0.0
H549 H 0.36767 0.23415 0.2002 0.0
H550 H 0.50877 0.29896 0.14729 0.0
H551 H 0.56736 0.30687 0.10069 0.0
H552 H 0.63962 0.17454 0.0848 0.0
H553 H 0.58062 0.16541 0.13089 0.0
C554 C 0.54955 0.19605 0.306 0.0
C555 C 0.58158 0.15557 0.29472 0.0
C556 C 0.52498 0.21463 0.28299 0.0
C557 C 0.5311 0.19268 0.24827 0.0
C558 C 0.56514 0.15345 0.23708 0.0
C559 C 0.59032 0.13528 0.25999 0.0
C560 C 0.50054 0.209 0.2233 0.0
C561 C 0.53178 0.21441 0.19624 0.0
C562 C 0.44066 0.21703 0.22499 0.0
C563 C 0.40422 0.20965 0.25166 0.0
C564 C 0.40202 0.16684 0.2563 0.0
C565 C 0.36753 0.16019 0.28152 0.0
C566 C 0.33464 0.196 0.30205 0.0
C567 C 0.33605 0.2385 0.29734 0.0
C568 C 0.37054 0.24534 0.27219 0.0
C569 C 0.3821 0.20921 0.08504 0.0
C570 C 0.34861 0.24815 0.08889 0.0
C571 C 0.41408 0.20479 0.1118 0.0
C572 C 0.41261 0.23894 0.14317 0.0
C573 C 0.37861 0.2776 0.14739 0.0
C574 C 0.34715 0.28232 0.12044 0.0
C575 C 0.44474 0.23299 0.1718 0.0
C576 C 0.41378 0.2296 0.19949 0.0
C577 C 0.50469 0.22622 0.17045 0.0
C578 C 0.53996 0.23141 0.14248 0.0
C579 C 0.53675 0.27136 0.13368 0.0
C580 C 0.57016 0.27611 0.10741 0.0
C581 C 0.60734 0.24131 0.08989 0.0
C582 C 0.61097 0.20156 0.09849 0.0
C583 C 0.57753 0.19657 0.12469 0.0
H584 H 0.63316 0.24506 0.06955 0.0
H585 H 0.30793 0.19078 0.32155 0.0
H586 H 0.51591 0.81094 0.18243 0.0
H587 H 0.46782 0.78415 0.22466 0.0
H588 H 0.60148 0.84408 0.29572 0.0
H589 H 0.64919 0.87099 0.25381 0.0
H590 H 0.56614 0.76115 0.30025 0.0
H591 H 0.48418 0.90223 0.29766 0.0
H592 H 0.43766 0.9531 0.27105 0.0
H593 H 0.29357 0.86277 0.24426 0.0
H594 H 0.33974 0.81095 0.27027 0.0
H595 H 0.34943 0.83812 0.44849 0.0
H596 H 0.40096 0.84957 0.40128 0.0
H597 H 0.4101 0.70443 0.35316 0.0
H598 H 0.35968 0.69269 0.40083 0.0
H599 H 0.37361 0.82695 0.33571 0.0
H600 H 0.53631 0.68017 0.30933 0.0
H601 H 0.58647 0.6355 0.33978 0.0
H602 H 0.57546 0.7481 0.43116 0.0
H603 H 0.52541 0.79347 0.40131 0.0
C604 C 0.53555 0.81742 0.20682 0.0
C605 C 0.58605 0.84321 0.21495 0.0
C606 C 0.50796 0.80235 0.23097 0.0
C607 C 0.53078 0.81248 0.26348 0.0
C608 C 0.58305 0.83584 0.27086 0.0
C609 C 0.61016 0.85134 0.24695 0.0
C610 C 0.49831 0.8023 0.29072 0.0
C611 C 0.52379 0.77512 0.30776 0.0
C612 C 0.44357 0.82133 0.3011 0.0
C613 C 0.41572 0.85244 0.28552 0.0
C614 C 0.44282 0.893 0.28582 0.0
C615 C 0.41648 0.92204 0.27089 0.0
C616 C 0.36278 0.9111 0.25587 0.0
C617 C 0.33524 0.87114 0.25583 0.0
C618 C 0.36147 0.84192 0.27065 0.0
C619 C 0.36306 0.80858 0.42812 0.0
C620 C 0.35111 0.76448 0.4287 0.0
C621 C 0.39201 0.8152 0.40093 0.0
C622 C 0.40977 0.77789 0.3737 0.0
C623 C 0.39741 0.73376 0.37403 0.0
C624 C 0.36835 0.72711 0.40124 0.0
C625 C 0.44112 0.78537 0.34505 0.0
C626 C 0.41551 0.81225 0.32783 0.0
C627 C 0.49613 0.76674 0.33493 0.0
C628 C 0.52666 0.73999 0.35311 0.0
C629 C 0.5447 0.69539 0.33591 0.0
C630 C 0.57299 0.66994 0.3531 0.0
C631 C 0.58385 0.68889 0.38744 0.0
C632 C 0.5666 0.73337 0.40465 0.0
C633 C 0.53819 0.75894 0.38762 0.0
H634 H 0.60578 0.66915 0.4007 0.0
H635 H 0.34243 0.93365 0.24436 0.0
H636 H 0.66786 0.84048 0.94674 0.0
H637 H 0.61513 0.84745 0.89846 0.0
H638 H 0.604 0.70142 0.85723 0.0
H639 H 0.65553 0.69423 0.90585 0.0
H640 H 0.64171 0.81765 0.83186 0.0
H641 H 0.48042 0.67356 0.8147 0.0
H642 H 0.42925 0.63305 0.84796 0.0
H643 H 0.43504 0.7528 0.93455 0.0
H644 H 0.48701 0.79383 0.90204 0.0
H645 H 0.48997 0.79889 0.68098 0.0
H646 H 0.54137 0.7727 0.7223 0.0
H647 H 0.41081 0.8324 0.796 0.0
H648 H 0.35935 0.85793 0.75487 0.0
H649 H 0.44696 0.75357 0.80219 0.0
H650 H 0.53453 0.89024 0.79111 0.0
H651 H 0.58225 0.93483 0.75966 0.0
H652 H 0.71891 0.83725 0.73274 0.0
H653 H 0.67166 0.79182 0.76377 0.0
C654 C 0.65353 0.80986 0.92765 0.0
C655 C 0.66536 0.76683 0.9304 0.0
C656 C 0.62386 0.81387 0.89986 0.0
C657 C 0.60522 0.77498 0.87425 0.0
C658 C 0.61731 0.73195 0.87682 0.0
C659 C 0.64705 0.72791 0.90459 0.0
C660 C 0.57355 0.77958 0.8448 0.0
C661 C 0.59926 0.80339 0.82528 0.0
C662 C 0.51823 0.76095 0.83602 0.0
C663 C 0.48796 0.73653 0.85602 0.0
C664 C 0.47092 0.69115 0.8409 0.0
C665 C 0.442 0.66808 0.85965 0.0
C666 C 0.42936 0.69025 0.89346 0.0
C667 C 0.44561 0.73553 0.90855 0.0
C668 C 0.47496 0.75865 0.89001 0.0
C669 C 0.47168 0.80539 0.70576 0.0
C670 C 0.42101 0.83087 0.71484 0.0
C671 C 0.50126 0.79076 0.72943 0.0
C672 C 0.48052 0.80129 0.7625 0.0
C673 C 0.42792 0.82403 0.77078 0.0
C674 C 0.39864 0.8388 0.74728 0.0
C675 C 0.51491 0.79193 0.78936 0.0
C676 C 0.48979 0.76719 0.80841 0.0
C677 C 0.57065 0.80999 0.79784 0.0
C678 C 0.59928 0.83744 0.77945 0.0
C679 C 0.57458 0.87818 0.77832 0.0
C680 C 0.60157 0.90361 0.7606 0.0
C681 C 0.65352 0.88882 0.74415 0.0
C682 C 0.67866 0.84863 0.74547 0.0
C683 C 0.65182 0.82304 0.76313 0.0
H684 H 0.67434 0.90856 0.73045 0.0
H685 H 0.40674 0.67243 0.90792 0.0
H686 H 0.65438 0.16086 0.55901 0.0
H687 H 0.59672 0.1535 0.60564 0.0
H688 H 0.59005 0.29939 0.64897 0.0
H689 H 0.64445 0.3071 0.60129 0.0
H690 H 0.62868 0.24881 0.69364 0.0
H691 H 0.47027 0.25684 0.62145 0.0
H692 H 0.40417 0.23707 0.57322 0.0
H693 H 0.39317 0.10009 0.57539 0.0
H694 H 0.45904 0.11913 0.6237 0.0
H695 H 0.42082 0.27041 0.82394 0.0
H696 H 0.48374 0.27622 0.77868 0.0
H697 H 0.44598 0.13664 0.72162 0.0
H698 H 0.38145 0.13166 0.76612 0.0
H699 H 0.43292 0.18422 0.68387 0.0
H700 H 0.58158 0.17602 0.75921 0.0
H701 H 0.63649 0.19671 0.81196 0.0
H702 H 0.66778 0.32959 0.80512 0.0
H703 H 0.6123 0.30999 0.75256 0.0
C704 C 0.63948 0.19139 0.57797 0.0
C705 C 0.65415 0.23456 0.57638 0.0
C706 C 0.60688 0.18712 0.60475 0.0
C707 C 0.5893 0.22592 0.63078 0.0
C708 C 0.6034 0.26904 0.62917 0.0
C709 C 0.63479 0.27333 0.602 0.0
C710 C 0.55824 0.22145 0.66034 0.0
C711 C 0.58562 0.23508 0.69172 0.0
C712 C 0.50297 0.20224 0.65755 0.0
C713 C 0.46994 0.18929 0.62592 0.0
C714 C 0.45458 0.22231 0.61123 0.0
C715 C 0.41658 0.21139 0.58418 0.0
C716 C 0.39398 0.16749 0.57154 0.0
C717 C 0.41034 0.13415 0.58539 0.0
C718 C 0.44797 0.14499 0.61259 0.0
C719 C 0.42665 0.24095 0.80182 0.0
C720 C 0.3961 0.20072 0.79826 0.0
C721 C 0.4629 0.24413 0.77607 0.0
C722 C 0.47012 0.20675 0.74669 0.0
C723 C 0.44105 0.16605 0.74388 0.0
C724 C 0.40412 0.16319 0.76925 0.0
C725 C 0.50325 0.21096 0.7175 0.0
C726 C 0.47628 0.19743 0.68606 0.0
C727 C 0.55919 0.2296 0.72031 0.0
C728 C 0.59205 0.24171 0.75214 0.0
C729 C 0.59958 0.20985 0.76913 0.0
C730 C 0.6309 0.22135 0.79898 0.0
C731 C 0.65527 0.26453 0.81199 0.0
C732 C 0.64862 0.29623 0.79509 0.0
C733 C 0.61727 0.28493 0.76526 0.0
H734 H 0.67957 0.27333 0.83507 0.0
H735 H 0.36412 0.15921 0.55081 0.0
H736 H 0.91752 0.7038 0.05943 0.0
H737 H 0.96403 0.69501 0.10829 0.0
H738 H 0.83296 0.77736 0.17179 0.0
H739 H 0.78805 0.78855 0.12234 0.0
H740 H 0.93185 0.79522 0.20303 0.0
H741 H 0.83111 0.65821 0.14713 0.0
H742 H 0.80215 0.59467 0.09742 0.0
H743 H 0.9759 0.54705 0.08287 0.0
H744 H 0.00615 0.61087 0.13216 0.0
H745 H 0.01655 0.70297 0.33502 0.0
H746 H 0.96417 0.72939 0.2941 0.0
H747 H 0.08721 0.6619 0.21766 0.0
H748 H 0.13895 0.63539 0.25813 0.0
H749 H 0.98018 0.63734 0.19702 0.0
H750 H 0.0798 0.77894 0.2523 0.0
H751 H 0.10653 0.84483 0.301 0.0
H752 H 0.92966 0.88323 0.31799 0.0
H753 H 0.90178 0.81719 0.26963 0.0
C754 C 0.89861 0.72019 0.08354 0.0
C755 C 0.84884 0.74643 0.08669 0.0
C756 C 0.92518 0.71504 0.11172 0.0
C757 C 0.90122 0.73441 0.14381 0.0
C758 C 0.85219 0.76178 0.14732 0.0
C759 C 0.82646 0.768 0.11902 0.0
C760 C 0.92665 0.7245 0.17317 0.0
C761 C 0.94158 0.76065 0.20196 0.0
C762 C 0.93943 0.67938 0.17188 0.0
C763 C 0.92092 0.63946 0.14332 0.0
C764 C 0.86316 0.63417 0.13336 0.0
C765 C 0.84653 0.59815 0.10521 0.0
C766 C 0.88715 0.5668 0.08702 0.0
C767 C 0.94447 0.57132 0.09703 0.0
C768 C 0.96137 0.60739 0.12511 0.0
C769 C 0.03296 0.69473 0.30966 0.0
C770 C 0.08144 0.66675 0.29963 0.0
C771 C 0.00298 0.7097 0.28628 0.0
C772 C 0.02148 0.6973 0.25267 0.0
C773 C 0.07169 0.67148 0.24329 0.0
C774 C 0.10131 0.65643 0.26645 0.0
C775 C 0.9872 0.70815 0.22644 0.0
C776 C 0.97007 0.67193 0.19826 0.0
C777 C 0.97182 0.75308 0.22859 0.0
C778 C 0.98866 0.79285 0.25756 0.0
C779 C 0.04656 0.80123 0.26658 0.0
C780 C 0.06193 0.83865 0.29408 0.0
C781 C 0.01981 0.86816 0.3126 0.0
C782 C 0.96223 0.86036 0.30361 0.0
C783 C 0.94663 0.82294 0.27616 0.0
H784 H 0.03177 0.89707 0.33393 0.0
H785 H 0.8742 0.53902 0.06518 0.0
H786 H 0.83809 0.1888 0.39139 0.0
H787 H 0.88695 0.19932 0.34309 0.0
H788 H 0.92115 0.33921 0.40047 0.0
H789 H 0.8726 0.32893 0.44896 0.0
H790 H 0.86104 0.25084 0.3071 0.0
H791 H 0.04052 0.37569 0.37454 0.0
H792 H 0.10436 0.38968 0.42351 0.0
H793 H 0.08983 0.2497 0.41803 0.0
H794 H 0.02581 0.23497 0.36917 0.0
H795 H 0.96456 0.38499 0.21147 0.0
H796 H 0.92652 0.35383 0.25366 0.0
H797 H 0.07975 0.2737 0.24623 0.0
H798 H 0.1182 0.30504 0.20388 0.0
H799 H 0.05323 0.32047 0.3112 0.0
H800 H 0.95718 0.22073 0.21688 0.0
H801 H 0.89879 0.19726 0.16539 0.0
H802 H 0.75536 0.27197 0.2201 0.0
H803 H 0.8131 0.29635 0.27186 0.0
C804 C 0.85637 0.22177 0.3939 0.0
C805 C 0.85154 0.25797 0.42424 0.0
C806 C 0.88428 0.22773 0.36616 0.0
C807 C 0.90821 0.26994 0.36808 0.0
C808 C 0.90403 0.30604 0.39845 0.0
C809 C 0.87613 0.30011 0.42624 0.0
C810 C 0.93496 0.27684 0.33787 0.0
C811 C 0.90313 0.26596 0.30802 0.0
C812 C 0.99044 0.29554 0.33863 0.0
C813 C 0.02815 0.30433 0.36834 0.0
C814 C 0.051 0.34792 0.3838 0.0
C815 C 0.08713 0.356 0.41157 0.0
C816 C 0.10113 0.32061 0.42387 0.0
C817 C 0.07885 0.27712 0.40853 0.0
C818 C 0.04241 0.26894 0.38092 0.0
C819 C 0.9899 0.36037 0.21857 0.0
C820 C 0.04444 0.34756 0.20445 0.0
C821 C 0.96799 0.34239 0.24256 0.0
C822 C 1.00017 0.31132 0.25308 0.0
C823 C 0.05414 0.2976 0.23847 0.0
C824 C 0.07589 0.31526 0.21413 0.0
C825 C 0.97863 0.29562 0.28081 0.0
C826 C 0.0113 0.30505 0.31024 0.0
C827 C 0.92442 0.27467 0.2794 0.0
C828 C 0.88969 0.26072 0.24821 0.0
C829 C 0.91337 0.23255 0.21788 0.0
C830 C 0.88034 0.21898 0.18865 0.0
C831 C 0.82346 0.23322 0.18945 0.0
C832 C 0.79946 0.26101 0.2195 0.0
C833 C 0.83231 0.27467 0.24881 0.0
H834 H 0.79793 0.22263 0.16681 0.0
H835 H 0.1292 0.3269 0.44532 0.0
H836 H 0.90024 0.22406 0.69447 0.0
H837 H 0.96308 0.21875 0.73989 0.0
H838 H 0.96687 0.36508 0.78121 0.0
H839 H 0.9036 0.37026 0.73591 0.0
H840 H 0.0756 0.32282 0.78179 0.0
H841 H 0.8799 0.31243 0.81462 0.0
H842 H 0.78214 0.28106 0.80621 0.0
H843 H 0.84729 0.14942 0.80014 0.0
H844 H 0.94577 0.17989 0.80781 0.0
H845 H 0.17993 0.3407 0.94365 0.0
H846 H 0.12248 0.34851 0.89732 0.0
H847 H 0.08756 0.20444 0.86454 0.0
H848 H 0.14132 0.19725 0.91232 0.0
H849 H 0.99491 0.24681 0.85912 0.0
H850 H 0.1905 0.25549 0.82553 0.0
H851 H 0.28911 0.28575 0.83299 0.0
H852 H 0.22596 0.41799 0.83939 0.0
H853 H 0.12693 0.38871 0.83248 0.0
C854 C 0.91524 0.25495 0.71307 0.0
C855 C 0.89748 0.29753 0.71192 0.0
C856 C 0.95092 0.25196 0.73896 0.0
C857 C 0.96939 0.29154 0.76402 0.0
C858 C 0.95328 0.33417 0.76209 0.0
C859 C 0.91716 0.33712 0.73636 0.0
C860 C 1.0024 0.28837 0.79333 0.0
C861 C 0.05788 0.3066 0.79892 0.0
C862 C 0.97954 0.26654 0.81531 0.0
C863 C 0.92027 0.24835 0.81145 0.0
C864 C 0.87345 0.27672 0.81125 0.0
C865 C 0.81788 0.25911 0.80664 0.0
C866 C 0.80847 0.21324 0.80259 0.0
C867 C 0.85465 0.18494 0.80324 0.0
C868 C 0.91036 0.20236 0.80772 0.0
C869 C 0.15927 0.31085 0.92684 0.0
C870 C 0.16493 0.26842 0.93172 0.0
C871 C 0.12706 0.3152 0.90005 0.0
C872 C 0.10139 0.27691 0.87693 0.0
C873 C 0.10693 0.23452 0.88191 0.0
C874 C 0.13813 0.23036 0.90908 0.0
C875 C 0.06872 0.28082 0.84758 0.0
C876 C 0.01302 0.26286 0.84199 0.0
C877 C 0.09165 0.30258 0.82547 0.0
C878 C 0.15129 0.31997 0.82875 0.0
C879 C 0.19766 0.29105 0.82867 0.0
C880 C 0.2536 0.30801 0.83279 0.0
C881 C 0.26375 0.35373 0.8367 0.0
C882 C 0.21801 0.38257 0.83637 0.0
C883 C 0.16198 0.36581 0.83231 0.0
H884 H 0.30707 0.36681 0.83995 0.0
H885 H 0.76541 0.19964 0.799 0.0
H886 H 0.18608 0.80911 0.61436 0.0
H887 H 0.13327 0.80492 0.66361 0.0
H888 H 0.08457 0.66696 0.60968 0.0
H889 H 0.1397 0.66991 0.56105 0.0
H890 H 0.99121 0.73572 0.64753 0.0
H891 H 0.18185 0.67436 0.65902 0.0
H892 H 0.28689 0.68276 0.6628 0.0
H893 H 0.26922 0.80189 0.74929 0.0
H894 H 0.16396 0.79461 0.74565 0.0
H895 H 0.8831 0.62616 0.75425 0.0
H896 H 0.93084 0.65393 0.71354 0.0
H897 H 0.01958 0.75461 0.79341 0.0
H898 H 0.97442 0.72435 0.83456 0.0
H899 H 0.09229 0.72089 0.74712 0.0
H900 H 0.91029 0.78259 0.74436 0.0
H901 H 0.80507 0.78752 0.74273 0.0
H902 H 0.80334 0.68728 0.64474 0.0
H903 H 0.90855 0.68115 0.64596 0.0
C904 C 0.16416 0.7778 0.61287 0.0
C905 C 0.16627 0.74005 0.58328 0.0
C906 C 0.13393 0.77558 0.64108 0.0
C907 C 0.1046 0.73581 0.64014 0.0
C908 C 0.10641 0.69816 0.61075 0.0
C909 C 0.13769 0.70001 0.58282 0.0
C910 C 0.07304 0.73284 0.67001 0.0
C911 C 0.01305 0.73207 0.66926 0.0
C912 C 0.10175 0.73087 0.69905 0.0
C913 C 0.16503 0.7342 0.70186 0.0
C914 C 0.20035 0.70252 0.6787 0.0
C915 C 0.25994 0.70707 0.68083 0.0
C916 C 0.28474 0.74294 0.7062 0.0
C917 C 0.24998 0.77418 0.72961 0.0
C918 C 0.19036 0.76983 0.72755 0.0
C919 C 0.91278 0.65422 0.76334 0.0
C920 C 0.92542 0.67251 0.79778 0.0
C921 C 0.93956 0.67065 0.73991 0.0
C922 C 0.97852 0.70694 0.75017 0.0
C923 C 0.98971 0.72661 0.78471 0.0
C924 C 0.96336 0.70962 0.80831 0.0
C925 C 0.00966 0.72175 0.72434 0.0
C926 C 0.0698 0.72502 0.72576 0.0
C927 C 0.98089 0.72779 0.69638 0.0
C928 C 0.91745 0.73122 0.69536 0.0
C929 C 0.8875 0.76134 0.72254 0.0
C930 C 0.82783 0.7644 0.72168 0.0
C931 C 0.79753 0.73773 0.69366 0.0
C932 C 0.82688 0.70795 0.66643 0.0
C933 C 0.88657 0.70472 0.66717 0.0
H934 H 0.75133 0.74017 0.69305 0.0
H935 H 0.33086 0.74647 0.70776 0.0
loop_
_geom_bond_atom_site_label_1
_geom_bond_atom_site_label_2
_geom_bond_distance
_geom_bond_site_symmetry_2
_ccdc_geom_bond_type
Eu0 N29 2.600 . S
Eu0 N35 2.562 . S
Eu0 O44 2.462 . S
Eu0 O45 2.373 1_556 S
Eu0 O47 2.432 . S
Eu0 O48 2.291 . S
Eu0 O52 2.335 . S
Eu0 O55 2.372 . S
Eu0 C64 2.787 . S
C1 N2 1.365 . S
C1 C4 1.405 . S
C1 C8 1.448 . S
N2 C1 1.365 . S
N2 C5 1.319 . S
N2 Eu11 2.600 . S
C3 C5 1.397 . S
C3 C6 1.367 . S
C3 H23 0.931 . S
C4 C1 1.405 . S
C4 C6 1.403 . S
C4 C10 1.439 . S
C5 N2 1.319 . S
C5 C3 1.397 . S
C5 H16 0.930 . S
C6 C3 1.367 . S
C6 C4 1.403 . S
C6 H27 0.929 . S
C7 C8 1.430 . S
C7 C9 1.387 1_454 S
C7 C13 1.404 1_454 S
C8 C1 1.448 . S
C8 C7 1.430 . S
C8 N12 1.351 . S
C9 C7 1.387 1_656 S
C9 C10 1.374 1_656 S
C9 H24 0.931 . S
C10 C4 1.439 . S
C10 C9 1.374 1_454 S
C10 H25 0.931 1_455 S
Eu11 N2 2.600 . S
Eu11 N12 2.562 . S
Eu11 O46 2.335 . S
Eu11 O49 2.372 . S
Eu11 O50 2.462 . S
Eu11 O51 2.373 1_554 S
Eu11 O53 2.432 . S
Eu11 O54 2.291 . S
Eu11 C75 2.787 . S
N12 C8 1.351 . S
N12 Eu11 2.562 . S
N12 C14 1.325 . S
C13 C7 1.404 1_656 S
C13 C15 1.366 . S
C13 H21 0.930 . S
C14 N12 1.325 . S
C14 C15 1.416 1_454 S
C14 H20 0.929 . S
C15 C13 1.366 . S
C15 C14 1.416 1_656 S
C15 H17 0.930 . S
H16 C5 0.930 . S
H17 C15 0.930 . S
H18 C33 0.930 . S
H19 C40 0.930 . S
H20 C14 0.929 . S
H21 C13 0.930 . S
H22 C36 0.929 . S
H23 C3 0.931 . S
H24 C9 0.931 . S
H25 C10 0.931 1_655 S
H26 C31 0.931 . S
H27 C6 0.929 . S
H28 C39 0.930 . S
N29 Eu0 2.600 . S
N29 C30 1.365 . S
N29 C33 1.319 . S
C30 N29 1.365 . S
C30 C32 1.405 . S
C30 C38 1.448 . S
C31 H26 0.931 . S
C31 C33 1.397 . S
C31 C34 1.367 . S
C32 C30 1.405 . S
C32 C34 1.403 . S
C32 C65 1.439 . S
C33 H18 0.930 . S
C33 N29 1.319 . S
C33 C31 1.397 . S
C34 C31 1.367 . S
C34 C32 1.403 . S
C34 H41 0.929 . S
N35 Eu0 2.562 . S
N35 C36 1.325 . S
N35 C38 1.351 . S
C36 H22 0.929 . S
C36 N35 1.325 . S
C36 C40 1.416 1_556 S
C37 C38 1.430 . S
C37 C39 1.404 1_556 S
C37 C66 1.387 1_556 S
C38 C30 1.448 . S
C38 N35 1.351 . S
C38 C37 1.430 . S
C39 H28 0.930 . S
C39 C37 1.404 1_554 S
C39 C40 1.366 . S
C40 H19 0.930 . S
C40 C36 1.416 1_554 S
C40 C39 1.366 . S
H41 C34 0.929 . S
H42 C65 0.931 . S
H43 C66 0.931 . S
O44 Eu0 2.462 . S
O44 C64 1.252 . S
O45 Eu0 2.373 1_554 S
O45 C56 1.249 . S
O46 Eu11 2.335 . S
O46 C56 1.264 . S
O47 Eu0 2.432 . S
O47 C64 1.268 . S
O48 Eu0 2.291 . S
O48 C63 1.255 1_556 S
O49 Eu11 2.372 . S
O49 C63 1.257 . S
O50 Eu11 2.462 . S
O50 C75 1.252 . S
O51 Eu11 2.373 1_556 S
O51 C67 1.249 . S
O52 Eu0 2.335 . S
O52 C67 1.264 . S
O53 Eu11 2.432 . S
O53 C75 1.268 . S
O54 Eu11 2.291 . S
O54 C74 1.255 1_554 S
O55 Eu0 2.372 . S
O55 C74 1.257 . S
C56 O45 1.249 . S
C56 O46 1.264 . S
C57 C60 1.382 . S
C57 C62 1.390 . S
C57 C64 1.506 . S
C58 C59 1.398 . S
C58 C62 1.392 . S
C59 C58 1.398 . S
C59 C61 1.372 . S
C59 H76 0.931 . S
C60 C57 1.382 . S
C60 C61 1.390 . S
C60 H77 0.931 . S
C61 C59 1.372 . S
C61 C60 1.390 . S
C61 H78 0.929 . S
C62 C57 1.390 . S
C62 C58 1.392 . S
C62 H79 0.930 . S
C63 O48 1.255 1_554 S
C63 O49 1.257 . S
C64 Eu0 2.787 . S
C64 O44 1.252 . S
C64 O47 1.268 . S
C64 C57 1.506 . S
C65 C32 1.439 . S
C65 H42 0.931 . S
C65 C66 1.374 1_556 S
C66 C37 1.387 1_554 S
C66 H43 0.931 . S
C66 C65 1.374 1_554 S
C67 O51 1.249 . S
C67 O52 1.264 . S
C68 C71 1.382 . S
C68 C72 1.390 . S
C68 C75 1.506 . S
C69 C70 1.398 . S
C69 C72 1.392 . S
C70 C69 1.398 . S
C70 C73 1.372 . S
C70 H80 0.931 . S
C71 C68 1.382 . S
C71 C73 1.390 . S
C71 H81 0.931 . S
C72 C68 1.390 . S
C72 C69 1.392 . S
C72 H82 0.930 . S
C73 C70 1.372 . S
C73 C71 1.390 . S
C73 H83 0.929 . S
C74 O54 1.255 1_556 S
C74 O55 1.257 . S
C75 Eu11 2.787 . S
C75 O50 1.252 . S
C75 O53 1.268 . S
C75 C68 1.506 . S
H76 C59 0.931 . S
H77 C60 0.931 . S
H78 C61 0.929 . S
H79 C62 0.930 . S
H80 C70 0.931 . S
H81 C71 0.931 . S
H82 C72 0.930 . S
H83 C73 0.929 . S
Eu84 N113 2.600 . S
Eu84 N119 2.562 . S
Eu84 O128 2.462 . S
Eu84 O129 2.373 1_556 S
Eu84 O131 2.432 . S
Eu84 O132 2.291 . S
Eu84 O136 2.335 . S
Eu84 O139 2.372 . S
Eu84 C148 2.787 . S
C85 N86 1.365 . S
C85 C88 1.405 . S
C85 C92 1.448 . S
N86 C85 1.365 . S
N86 C89 1.319 . S
N86 Eu95 2.600 . S
C87 C89 1.397 . S
C87 C90 1.367 . S
C87 H107 0.931 . S
C88 C85 1.405 . S
C88 C90 1.403 . S
C88 C94 1.439 . S
C89 N86 1.319 . S
C89 C87 1.397 . S
C89 H100 0.930 . S
C90 C87 1.367 . S
C90 C88 1.403 . S
C90 H111 0.929 . S
C91 C92 1.430 . S
C91 C93 1.387 1_554 S
C91 C97 1.404 1_554 S
C92 C85 1.448 . S
C92 C91 1.430 . S
C92 N96 1.351 . S
C93 C91 1.387 1_556 S
C93 C94 1.374 1_556 S
C93 H108 0.931 . S
C94 C88 1.439 . S
C94 C93 1.374 1_554 S
C94 H109 0.931 . S
Eu95 N86 2.600 . S
Eu95 N96 2.562 . S
Eu95 O130 2.335 . S
Eu95 O133 2.372 . S
Eu95 O134 2.462 . S
Eu95 O135 2.373 1_554 S
Eu95 O137 2.432 . S
Eu95 O138 2.291 . S
Eu95 C159 2.787 . S
N96 C92 1.351 . S
N96 Eu95 2.562 . S
N96 C98 1.325 . S
C97 C91 1.404 1_556 S
C97 C99 1.366 . S
C97 H105 0.930 . S
C98 N96 1.325 . S
C98 C99 1.416 1_554 S
C98 H104 0.929 . S
C99 C97 1.366 . S
C99 C98 1.416 1_556 S
C99 H101 0.930 . S
H100 C89 0.930 . S
H101 C99 0.930 . S
H102 C117 0.930 . S
H103 C124 0.930 . S
H104 C98 0.929 . S
H105 C97 0.930 . S
H106 C120 0.929 . S
H107 C87 0.931 . S
H108 C93 0.931 . S
H109 C94 0.931 . S
H110 C115 0.931 . S
H111 C90 0.929 . S
H112 C123 0.930 . S
N113 Eu84 2.600 . S
N113 C114 1.365 . S
N113 C117 1.319 . S
C114 N113 1.365 . S
C114 C116 1.405 . S
C114 C122 1.448 . S
C115 H110 0.931 . S
C115 C117 1.397 . S
C115 C118 1.367 . S
C116 C114 1.405 . S
C116 C118 1.403 . S
C116 C149 1.439 . S
C117 H102 0.930 . S
C117 N113 1.319 . S
C117 C115 1.397 . S
C118 C115 1.367 . S
C118 C116 1.403 . S
C118 H125 0.929 . S
N119 Eu84 2.562 . S
N119 C120 1.325 . S
N119 C122 1.351 . S
C120 H106 0.929 . S
C120 N119 1.325 . S
C120 C124 1.416 1_656 S
C121 C122 1.430 . S
C121 C123 1.404 1_656 S
C121 C150 1.387 1_656 S
C122 C114 1.448 . S
C122 N119 1.351 . S
C122 C121 1.430 . S
C123 H112 0.930 . S
C123 C121 1.404 1_454 S
C123 C124 1.366 . S
C124 H103 0.930 . S
C124 C120 1.416 1_454 S
C124 C123 1.366 . S
H125 C118 0.929 . S
H126 C149 0.931 1_455 S
H127 C150 0.931 . S
O128 Eu84 2.462 . S
O128 C148 1.252 . S
O129 Eu84 2.373 1_554 S
O129 C140 1.249 . S
O130 Eu95 2.335 . S
O130 C140 1.264 . S
O131 Eu84 2.432 . S
O131 C148 1.268 . S
O132 Eu84 2.291 . S
O132 C147 1.255 1_556 S
O133 Eu95 2.372 . S
O133 C147 1.257 . S
O134 Eu95 2.462 . S
O134 C159 1.252 . S
O135 Eu95 2.373 1_556 S
O135 C151 1.249 . S
O136 Eu84 2.335 . S
O136 C151 1.264 . S
O137 Eu95 2.432 . S
O137 C159 1.268 . S
O138 Eu95 2.291 . S
O138 C158 1.255 1_554 S
O139 Eu84 2.372 . S
O139 C158 1.257 . S
C140 O129 1.249 . S
C140 O130 1.264 . S
C141 C144 1.382 . S
C141 C146 1.390 . S
C141 C148 1.506 . S
C142 C143 1.398 . S
C142 C146 1.392 . S
C143 C142 1.398 . S
C143 C145 1.372 . S
C143 H160 0.931 . S
C144 C141 1.382 . S
C144 C145 1.390 . S
C144 H161 0.931 . S
C145 C143 1.372 . S
C145 C144 1.390 . S
C145 H162 0.929 . S
C146 C141 1.390 . S
C146 C142 1.392 . S
C146 H163 0.930 . S
C147 O132 1.255 1_554 S
C147 O133 1.257 . S
C148 Eu84 2.787 . S
C148 O128 1.252 . S
C148 O131 1.268 . S
C148 C141 1.506 . S
C149 C116 1.439 . S
C149 H126 0.931 1_655 S
C149 C150 1.374 1_656 S
C150 C121 1.387 1_454 S
C150 H127 0.931 . S
C150 C149 1.374 1_454 S
C151 O135 1.249 . S
C151 O136 1.264 . S
C152 C155 1.382 . S
C152 C156 1.390 . S
C152 C159 1.506 . S
C153 C154 1.398 . S
C153 C156 1.392 . S
C154 C153 1.398 . S
C154 C157 1.372 . S
C154 H164 0.931 . S
C155 C152 1.382 . S
C155 C157 1.390 . S
C155 H165 0.931 . S
C156 C152 1.390 . S
C156 C153 1.392 . S
C156 H166 0.930 . S
C157 C154 1.372 . S
C157 C155 1.390 . S
C157 H167 0.929 . S
C158 O138 1.255 1_556 S
C158 O139 1.257 . S
C159 Eu95 2.787 . S
C159 O134 1.252 . S
C159 O137 1.268 . S
C159 C152 1.506 . S
H160 C143 0.931 . S
H161 C144 0.931 . S
H162 C145 0.929 . S
H163 C146 0.930 . S
H164 C154 0.931 . S
H165 C155 0.931 . S
H166 C156 0.930 . S
H167 C157 0.929 . S
Eu168 N197 2.600 . S
Eu168 N203 2.562 . S
Eu168 O212 2.462 . S
Eu168 O213 2.373 . S
Eu168 O215 2.432 . S
Eu168 O216 2.291 . S
Eu168 O220 2.335 . S
Eu168 O223 2.372 . S
Eu168 C232 2.787 . S
C169 N170 1.365 . S
C169 C172 1.405 . S
C169 C176 1.448 . S
N170 C169 1.365 . S
N170 C173 1.319 . S
N170 Eu179 2.600 . S
C171 C173 1.397 . S
C171 C174 1.367 . S
C171 H191 0.931 . S
C172 C169 1.405 . S
C172 C174 1.403 . S
C172 C178 1.439 . S
C173 N170 1.319 . S
C173 C171 1.397 . S
C173 H184 0.930 . S
C174 C171 1.367 . S
C174 C172 1.403 . S
C174 H195 0.929 . S
C175 C176 1.430 . S
C175 C177 1.387 1_455 S
C175 C181 1.404 1_455 S
C176 C169 1.448 . S
C176 C175 1.430 . S
C176 N180 1.351 . S
C177 C175 1.387 1_655 S
C177 C178 1.374 1_655 S
C177 H192 0.931 . S
C178 C172 1.439 . S
C178 C177 1.374 1_455 S
C178 H193 0.931 1_455 S
Eu179 N170 2.600 . S
Eu179 N180 2.562 . S
Eu179 O214 2.335 . S
Eu179 O217 2.372 . S
Eu179 O218 2.462 . S
Eu179 O219 2.373 . S
Eu179 O221 2.432 . S
Eu179 O222 2.291 . S
Eu179 C243 2.787 . S
N180 C176 1.351 . S
N180 Eu179 2.562 . S
N180 C182 1.325 . S
C181 C175 1.404 1_655 S
C181 C183 1.366 . S
C181 H189 0.930 . S
C182 N180 1.325 . S
C182 C183 1.416 1_455 S
C182 H188 0.929 . S
C183 C181 1.366 . S
C183 C182 1.416 1_655 S
C183 H185 0.930 . S
H184 C173 0.930 . S
H185 C183 0.930 . S
H186 C201 0.930 . S
H187 C208 0.930 . S
H188 C182 0.929 . S
H189 C181 0.930 . S
H190 C204 0.929 . S
H191 C171 0.931 . S
H192 C177 0.931 . S
H193 C178 0.931 1_655 S
H194 C199 0.931 . S
H195 C174 0.929 . S
H196 C207 0.930 . S
N197 Eu168 2.600 . S
N197 C198 1.365 . S
N197 C201 1.319 . S
C198 N197 1.365 . S
C198 C200 1.405 . S
C198 C206 1.448 . S
C199 H194 0.931 . S
C199 C201 1.397 . S
C199 C202 1.367 . S
C200 C198 1.405 . S
C200 C202 1.403 . S
C200 C233 1.439 . S
C201 H186 0.930 . S
C201 N197 1.319 . S
C201 C199 1.397 . S
C202 C199 1.367 . S
C202 C200 1.403 . S
C202 H209 0.929 . S
N203 Eu168 2.562 . S
N203 C204 1.325 . S
N203 C206 1.351 . S
C204 H190 0.929 . S
C204 N203 1.325 . S
C204 C208 1.416 . S
C205 C206 1.430 . S
C205 C207 1.404 . S
C205 C234 1.387 . S
C206 C198 1.448 . S
C206 N203 1.351 . S
C206 C205 1.430 . S
C207 H196 0.930 . S
C207 C205 1.404 . S
C207 C208 1.366 . S
C208 H187 0.930 . S
C208 C204 1.416 . S
C208 C207 1.366 . S
H209 C202 0.929 . S
H210 C233 0.931 . S
H211 C234 0.931 . S
O212 Eu168 2.462 . S
O212 C232 1.252 . S
O213 Eu168 2.373 . S
O213 C224 1.249 . S
O214 Eu179 2.335 . S
O214 C224 1.264 . S
O215 Eu168 2.432 . S
O215 C232 1.268 . S
O216 Eu168 2.291 . S
O216 C231 1.255 . S
O217 Eu179 2.372 . S
O217 C231 1.257 . S
O218 Eu179 2.462 . S
O218 C243 1.252 . S
O219 Eu179 2.373 . S
O219 C235 1.249 . S
O220 Eu168 2.335 . S
O220 C235 1.264 . S
O221 Eu179 2.432 . S
O221 C243 1.268 . S
O222 Eu179 2.291 . S
O222 C242 1.255 . S
O223 Eu168 2.372 . S
O223 C242 1.257 . S
C224 O213 1.249 . S
C224 O214 1.264 . S
C225 C228 1.382 . S
C225 C230 1.390 . S
C225 C232 1.506 . S
C226 C227 1.398 . S
C226 C230 1.392 . S
C227 C226 1.398 . S
C227 C229 1.372 . S
C227 H244 0.931 . S
C228 C225 1.382 . S
C228 C229 1.390 . S
C228 H245 0.931 . S
C229 C227 1.372 . S
C229 C228 1.390 . S
C229 H246 0.929 . S
C230 C225 1.390 . S
C230 C226 1.392 . S
C230 H247 0.930 . S
C231 O216 1.255 . S
C231 O217 1.257 . S
C232 Eu168 2.787 . S
C232 O212 1.252 . S
C232 O215 1.268 . S
C232 C225 1.506 . S
C233 C200 1.439 . S
C233 H210 0.931 . S
C233 C234 1.374 . S
C234 C205 1.387 . S
C234 H211 0.931 . S
C234 C233 1.374 . S
C235 O219 1.249 . S
C235 O220 1.264 . S
C236 C239 1.382 . S
C236 C240 1.390 . S
C236 C243 1.506 . S
C237 C238 1.398 . S
C237 C240 1.392 . S
C238 C237 1.398 . S
C238 C241 1.372 . S
C238 H248 0.931 . S
C239 C236 1.382 . S
C239 C241 1.390 . S
C239 H249 0.931 . S
C240 C236 1.390 . S
C240 C237 1.392 . S
C240 H250 0.930 . S
C241 C238 1.372 . S
C241 C239 1.390 . S
C241 H251 0.929 . S
C242 O222 1.255 . S
C242 O223 1.257 . S
C243 Eu179 2.787 . S
C243 O218 1.252 . S
C243 O221 1.268 . S
C243 C236 1.506 . S
H244 C227 0.931 . S
H245 C228 0.931 . S
H246 C229 0.929 . S
H247 C230 0.930 . S
H248 C238 0.931 . S
H249 C239 0.931 . S
H250 C240 0.930 . S
H251 C241 0.929 . S
Eu252 N281 2.600 . S
Eu252 N287 2.562 . S
Eu252 O296 2.462 . S
Eu252 O297 2.373 . S
Eu252 O299 2.432 . S
Eu252 O300 2.291 . S
Eu252 O304 2.335 . S
Eu252 O307 2.372 . S
Eu252 C316 2.787 . S
C253 N254 1.365 . S
C253 C256 1.405 . S
C253 C260 1.448 . S
N254 C253 1.365 . S
N254 C257 1.319 . S
N254 Eu263 2.600 . S
C255 C257 1.397 . S
C255 C258 1.367 . S
C255 H275 0.931 . S
C256 C253 1.405 . S
C256 C258 1.403 . S
C256 C262 1.439 . S
C257 N254 1.319 . S
C257 C255 1.397 . S
C257 H268 0.930 . S
C258 C255 1.367 . S
C258 C256 1.403 . S
C258 H279 0.929 . S
C259 C260 1.430 . S
C259 C261 1.387 . S
C259 C265 1.404 . S
C260 C253 1.448 . S
C260 C259 1.430 . S
C260 N264 1.351 . S
C261 C259 1.387 . S
C261 C262 1.374 . S
C261 H276 0.931 . S
C262 C256 1.439 . S
C262 C261 1.374 . S
C262 H277 0.931 . S
Eu263 N254 2.600 . S
Eu263 N264 2.562 . S
Eu263 O298 2.335 . S
Eu263 O301 2.372 . S
Eu263 O302 2.462 . S
Eu263 O303 2.373 . S
Eu263 O305 2.432 . S
Eu263 O306 2.291 . S
Eu263 C327 2.787 . S
N264 C260 1.351 . S
N264 Eu263 2.562 . S
N264 C266 1.325 . S
C265 C259 1.404 . S
C265 C267 1.366 . S
C265 H273 0.930 . S
C266 N264 1.325 . S
C266 C267 1.416 . S
C266 H272 0.929 . S
C267 C265 1.366 . S
C267 C266 1.416 . S
C267 H269 0.930 . S
H268 C257 0.930 . S
H269 C267 0.930 . S
H270 C285 0.930 . S
H271 C292 0.930 . S
H272 C266 0.929 . S
H273 C265 0.930 . S
H274 C288 0.929 . S
H275 C255 0.931 . S
H276 C261 0.931 . S
H277 C262 0.931 . S
H278 C283 0.931 . S
H279 C258 0.929 . S
H280 C291 0.930 . S
N281 Eu252 2.600 . S
N281 C282 1.365 . S
N281 C285 1.319 . S
C282 N281 1.365 . S
C282 C284 1.405 . S
C282 C290 1.448 . S
C283 H278 0.931 . S
C283 C285 1.397 . S
C283 C286 1.367 . S
C284 C282 1.405 . S
C284 C286 1.403 . S
C284 C317 1.439 . S
C285 H270 0.930 . S
C285 N281 1.319 . S
C285 C283 1.397 . S
C286 C283 1.367 . S
C286 C284 1.403 . S
C286 H293 0.929 . S
N287 Eu252 2.562 . S
N287 C288 1.325 . S
N287 C290 1.351 . S
C288 H274 0.929 . S
C288 N287 1.325 . S
C288 C292 1.416 1_655 S
C289 C290 1.430 . S
C289 C291 1.404 1_655 S
C289 C318 1.387 1_655 S
C290 C282 1.448 . S
C290 N287 1.351 . S
C290 C289 1.430 . S
C291 H280 0.930 . S
C291 C289 1.404 1_455 S
C291 C292 1.366 . S
C292 H271 0.930 . S
C292 C288 1.416 1_455 S
C292 C291 1.366 . S
H293 C286 0.929 . S
H294 C317 0.931 1_455 S
H295 C318 0.931 . S
O296 Eu252 2.462 . S
O296 C316 1.252 . S
O297 Eu252 2.373 . S
O297 C308 1.249 . S
O298 Eu263 2.335 . S
O298 C308 1.264 . S
O299 Eu252 2.432 . S
O299 C316 1.268 . S
O300 Eu252 2.291 . S
O300 C315 1.255 . S
O301 Eu263 2.372 . S
O301 C315 1.257 . S
O302 Eu263 2.462 . S
O302 C327 1.252 . S
O303 Eu263 2.373 . S
O303 C319 1.249 . S
O304 Eu252 2.335 . S
O304 C319 1.264 . S
O305 Eu263 2.432 . S
O305 C327 1.268 . S
O306 Eu263 2.291 . S
O306 C326 1.255 . S
O307 Eu252 2.372 . S
O307 C326 1.257 . S
C308 O297 1.249 . S
C308 O298 1.264 . S
C309 C312 1.382 . S
C309 C314 1.390 . S
C309 C316 1.506 . S
C310 C311 1.398 . S
C310 C314 1.392 . S
C311 C310 1.398 . S
C311 C313 1.372 . S
C311 H328 0.931 . S
C312 C309 1.382 . S
C312 C313 1.390 . S
C312 H329 0.931 . S
C313 C311 1.372 . S
C313 C312 1.390 . S
C313 H330 0.929 . S
C314 C309 1.390 . S
C314 C310 1.392 . S
C314 H331 0.930 . S
C315 O300 1.255 . S
C315 O301 1.257 . S
C316 Eu252 2.787 . S
C316 O296 1.252 . S
C316 O299 1.268 . S
C316 C309 1.506 . S
C317 C284 1.439 . S
C317 H294 0.931 1_655 S
C317 C318 1.374 1_655 S
C318 C289 1.387 1_455 S
C318 H295 0.931 . S
C318 C317 1.374 1_455 S
C319 O303 1.249 . S
C319 O304 1.264 . S
C320 C323 1.382 . S
C320 C324 1.390 . S
C320 C327 1.506 . S
C321 C322 1.398 . S
C321 C324 1.392 . S
C322 C321 1.398 . S
C322 C325 1.372 . S
C322 H332 0.931 . S
C323 C320 1.382 . S
C323 C325 1.390 . S
C323 H333 0.931 . S
C324 C320 1.390 . S
C324 C321 1.392 . S
C324 H334 0.930 . S
C325 C322 1.372 . S
C325 C323 1.390 . S
C325 H335 0.929 . S
C326 O306 1.255 . S
C326 O307 1.257 . S
C327 Eu263 2.787 . S
C327 O302 1.252 . S
C327 O305 1.268 . S
C327 C320 1.506 . S
H328 C311 0.931 . S
H329 C312 0.931 . S
H330 C313 0.929 . S
H331 C314 0.930 . S
H332 C322 0.931 . S
H333 C323 0.931 . S
H334 C324 0.930 . S
H335 C325 0.929 . S
H336 C354 0.951 . S
H337 C356 0.951 . S
H338 C358 0.950 . S
H339 C359 0.950 . S
H340 C361 0.960 . S
H341 C364 0.950 . S
H342 C365 0.950 . S
H343 C367 0.950 . S
H344 C368 0.950 . S
H345 C369 0.951 . S
H346 C371 0.951 . S
H347 C373 0.950 . S
H348 C374 0.950 . S
H349 C376 0.950 . S
H350 C379 0.950 . S
H351 C380 0.950 . S
H352 C382 0.950 . S
H353 C383 0.950 . S
C354 H336 0.951 . S
C354 C355 1.344 1_554 S
C354 C356 1.388 . S
C355 C354 1.344 1_556 S
C355 C359 1.400 . S
C356 H337 0.951 . S
C356 C354 1.388 . S
C356 C357 1.366 1_554 S
C357 C356 1.366 1_556 S
C357 C358 1.414 . S
C357 C360 1.499 . S
C358 H338 0.950 . S
C358 C357 1.414 . S
C358 C359 1.374 . S
C359 H339 0.950 . S
C359 C355 1.400 . S
C359 C358 1.374 . S
C360 C357 1.499 . S
C360 C361 1.373 . S
C360 C362 1.389 . S
C361 H340 0.960 . S
C361 C360 1.373 . S
C361 C377 1.368 1_556 S
C362 C360 1.389 . S
C362 C363 1.524 . S
C362 C376 1.377 1_556 S
C363 C362 1.524 . S
C363 C364 1.397 . S
C363 C368 1.363 1_556 S
C364 H341 0.950 . S
C364 C363 1.397 . S
C364 C365 1.334 . S
C365 H342 0.950 . S
C365 C364 1.334 . S
C365 C366 1.287 . S
C366 C365 1.287 . S
C366 C367 1.524 1_556 S
C366 H385 0.913 . S
C367 H343 0.950 . S
C367 C366 1.524 1_554 S
C367 C368 1.415 . S
C368 H344 0.950 . S
C368 C363 1.363 1_554 S
C368 C367 1.415 . S
C369 H345 0.951 . S
C369 C370 1.366 1_556 S
C369 C371 1.388 . S
C370 C369 1.366 1_554 S
C370 C374 1.385 . S
C371 H346 0.951 . S
C371 C369 1.388 . S
C371 C372 1.366 1_556 S
C372 C371 1.366 1_554 S
C372 C373 1.414 . S
C372 C375 1.499 . S
C373 H347 0.950 . S
C373 C372 1.414 . S
C373 C374 1.374 . S
C374 H348 0.950 . S
C374 C370 1.385 . S
C374 C373 1.374 . S
C375 C372 1.499 . S
C375 C376 1.373 . S
C375 C377 1.389 . S
C376 H349 0.950 . S
C376 C362 1.377 1_554 S
C376 C375 1.373 . S
C377 C361 1.368 1_554 S
C377 C375 1.389 . S
C377 C378 1.524 . S
C378 C377 1.524 . S
C378 C379 1.397 . S
C378 C383 1.363 1_554 S
C379 H350 0.950 . S
C379 C378 1.397 . S
C379 C380 1.334 . S
C380 H351 0.950 . S
C380 C379 1.334 . S
C380 C381 1.287 . S
C381 C380 1.287 . S
C381 C382 1.524 1_554 S
C381 H384 0.999 . S
C382 H352 0.950 . S
C382 C381 1.524 1_556 S
C382 C383 1.415 . S
C383 H353 0.950 . S
C383 C378 1.363 1_556 S
C383 C382 1.415 . S
H384 C381 0.999 . S
H385 C366 0.913 . S
H386 C404 0.951 . S
H387 C406 0.951 . S
H388 C408 0.950 . S
H389 C409 0.950 . S
H390 C411 0.950 . S
H391 C414 0.950 . S
H392 C415 0.950 . S
H393 C417 0.950 . S
H394 C418 0.950 . S
H395 C419 0.951 . S
H396 C421 0.951 . S
H397 C423 0.950 . S
H398 C424 0.950 . S
H399 C426 0.950 . S
H400 C429 0.950 . S
H401 C430 0.950 . S
H402 C432 0.950 . S
H403 C433 0.950 . S
C404 H386 0.951 . S
C404 C405 1.366 . S
C404 C406 1.388 . S
C405 C404 1.366 . S
C405 C409 1.385 . S
C406 H387 0.951 . S
C406 C404 1.388 . S
C406 C407 1.366 . S
C407 C406 1.366 . S
C407 C408 1.414 . S
C407 C410 1.499 . S
C408 H388 0.950 . S
C408 C407 1.414 . S
C408 C409 1.374 . S
C409 H389 0.950 . S
C409 C405 1.385 . S
C409 C408 1.374 . S
C410 C407 1.499 . S
C410 C411 1.373 . S
C410 C412 1.389 . S
C411 H390 0.950 . S
C411 C410 1.373 . S
C411 C427 1.377 . S
C412 C410 1.389 . S
C412 C413 1.524 . S
C412 C426 1.377 . S
C413 C412 1.524 . S
C413 C414 1.397 . S
C413 C418 1.363 . S
C414 H391 0.950 . S
C414 C413 1.397 . S
C414 C415 1.334 . S
C415 H392 0.950 . S
C415 C414 1.334 . S
C415 C416 1.287 . S
C416 C415 1.287 . S
C416 C417 1.524 . S
C416 H435 0.913 . S
C417 H393 0.950 . S
C417 C416 1.524 . S
C417 C418 1.415 . S
C418 H394 0.950 . S
C418 C413 1.363 . S
C418 C417 1.415 . S
C419 H395 0.951 . S
C419 C420 1.366 . S
C419 C421 1.388 . S
C420 C419 1.366 . S
C420 C424 1.385 . S
C421 H396 0.951 . S
C421 C419 1.388 . S
C421 C422 1.366 . S
C422 C421 1.366 . S
C422 C423 1.414 . S
C422 C425 1.499 . S
C423 H397 0.950 . S
C423 C422 1.414 . S
C423 C424 1.374 . S
C424 H398 0.950 . S
C424 C420 1.385 . S
C424 C423 1.374 . S
C425 C422 1.499 . S
C425 C426 1.373 . S
C425 C427 1.389 . S
C426 H399 0.950 . S
C426 C412 1.377 . S
C426 C425 1.373 . S
C427 C411 1.377 . S
C427 C425 1.389 . S
C427 C428 1.524 . S
C428 C427 1.524 . S
C428 C429 1.397 . S
C428 C433 1.363 . S
C429 H400 0.950 . S
C429 C428 1.397 . S
C429 C430 1.334 . S
C430 H401 0.950 . S
C430 C429 1.334 . S
C430 C431 1.287 . S
C431 C430 1.287 . S
C431 C432 1.524 . S
C431 H434 0.999 . S
C432 H402 0.950 . S
C432 C431 1.524 . S
C432 C433 1.415 . S
C433 H403 0.950 . S
C433 C428 1.363 . S
C433 C432 1.415 . S
H434 C431 0.999 . S
H435 C416 0.913 . S
H436 C454 0.951 . S
H437 C456 0.951 . S
H438 C458 0.950 . S
H439 C459 0.950 . S
H440 C461 0.950 . S
H441 C464 0.950 . S
H442 C465 0.950 1_545 S
H443 C467 0.950 . S
H444 C468 0.950 . S
H445 C469 0.951 . S
H446 C471 0.951 . S
H447 C473 0.950 . S
H448 C474 0.950 . S
H449 C476 0.950 . S
H450 C479 0.950 . S
H451 C480 0.950 1_565 S
H452 C482 0.950 . S
H453 C483 0.950 . S
C454 H436 0.951 . S
C454 C455 1.361 . S
C454 C456 1.388 . S
C455 C454 1.361 . S
C455 C459 1.384 1_556 S
C456 H437 0.951 . S
C456 C454 1.388 . S
C456 C457 1.366 . S
C457 C456 1.366 . S
C457 C458 1.414 1_556 S
C457 C460 1.499 . S
C458 H438 0.950 . S
C458 C457 1.414 1_554 S
C458 C459 1.374 . S
C459 H439 0.950 . S
C459 C455 1.384 1_554 S
C459 C458 1.374 . S
C460 C457 1.499 . S
C460 C461 1.373 1_456 S
C460 C462 1.389 1_545 S
C461 H440 0.950 . S
C461 C460 1.373 1_654 S
C461 C477 1.377 . S
C462 C460 1.389 1_565 S
C462 C463 1.524 . S
C462 C476 1.377 . S
C463 C462 1.524 . S
C463 C464 1.397 1_565 S
C463 C468 1.363 . S
C464 H441 0.950 . S
C464 C463 1.397 1_545 S
C464 C465 1.334 1_545 S
C465 H442 0.950 1_565 S
C465 C464 1.334 1_565 S
C465 C466 1.287 . S
C466 C465 1.287 . S
C466 C467 1.524 . S
C466 H485 0.913 . S
C467 H443 0.950 . S
C467 C466 1.524 . S
C467 C468 1.415 . S
C468 H444 0.950 . S
C468 C463 1.363 . S
C468 C467 1.415 . S
C469 H445 0.951 . S
C469 C470 1.366 . S
C469 C471 1.388 . S
C470 C469 1.366 . S
C470 C474 1.385 1_554 S
C471 H446 0.951 . S
C471 C469 1.388 . S
C471 C472 1.366 . S
C472 C471 1.366 . S
C472 C473 1.414 1_554 S
C472 C475 1.499 . S
C473 H447 0.950 . S
C473 C472 1.414 1_556 S
C473 C474 1.374 . S
C474 H448 0.950 . S
C474 C470 1.385 1_556 S
C474 C473 1.374 . S
C475 C472 1.499 . S
C475 C476 1.373 1_654 S
C475 C477 1.389 1_565 S
C476 H449 0.950 . S
C476 C462 1.377 . S
C476 C475 1.373 1_456 S
C477 C461 1.377 . S
C477 C475 1.389 1_545 S
C477 C478 1.524 . S
C478 C477 1.524 . S
C478 C479 1.397 1_545 S
C478 C483 1.363 . S
C479 H450 0.950 . S
C479 C478 1.397 1_565 S
C479 C480 1.334 1_565 S
C480 H451 0.950 1_545 S
C480 C479 1.334 1_545 S
C480 C481 1.287 . S
C481 C480 1.287 . S
C481 C482 1.524 . S
C481 H484 0.999 . S
C482 H452 0.950 . S
C482 C481 1.524 . S
C482 C483 1.415 . S
C483 H453 0.950 . S
C483 C478 1.363 . S
C483 C482 1.415 . S
H484 C481 0.999 . S
H485 C466 0.913 . S
H486 C504 0.951 . S
H487 C506 0.951 . S
H488 C508 0.950 . S
H489 C509 0.950 . S
H490 C511 0.950 . S
H491 C514 0.950 . S
H492 C515 0.950 . S
H493 C517 0.950 . S
H494 C518 0.950 . S
H495 C519 0.951 . S
H496 C521 0.951 . S
H497 C523 0.950 . S
H498 C524 0.950 . S
H499 C526 0.950 . S
H500 C529 0.950 . S
H501 C530 0.950 . S
H502 C532 0.950 . S
H503 C533 0.950 . S
C504 H486 0.951 . S
C504 C505 1.366 . S
C504 C506 1.388 . S
C505 C504 1.366 . S
C505 C509 1.385 . S
C506 H487 0.951 . S
C506 C504 1.388 . S
C506 C507 1.366 . S
C507 C506 1.366 . S
C507 C508 1.414 . S
C507 C510 1.499 . S
C508 H488 0.950 . S
C508 C507 1.414 . S
C508 C509 1.374 . S
C509 H489 0.950 . S
C509 C505 1.385 . S
C509 C508 1.374 . S
C510 C507 1.499 . S
C510 C511 1.373 1_545 S
C510 C512 1.389 1_655 S
C511 H490 0.950 . S
C511 C510 1.373 1_565 S
C511 C527 1.377 . S
C512 C510 1.389 1_455 S
C512 C513 1.524 . S
C512 C526 1.377 . S
C513 C512 1.524 . S
C513 C514 1.397 . S
C513 C518 1.363 . S
C514 H491 0.950 . S
C514 C513 1.397 . S
C514 C515 1.334 . S
C515 H492 0.950 . S
C515 C514 1.334 . S
C515 C516 1.287 . S
C516 C515 1.287 . S
C516 C517 1.524 . S
C516 H535 0.913 . S
C517 H493 0.950 . S
C517 C516 1.524 . S
C517 C518 1.415 . S
C518 H494 0.950 . S
C518 C513 1.363 . S
C518 C517 1.415 . S
C519 H495 0.951 . S
C519 C520 1.366 . S
C519 C521 1.388 . S
C520 C519 1.366 . S
C520 C524 1.385 . S
C521 H496 0.951 . S
C521 C519 1.388 . S
C521 C522 1.366 . S
C522 C521 1.366 . S
C522 C523 1.414 . S
C522 C525 1.499 . S
C523 H497 0.950 . S
C523 C522 1.414 . S
C523 C524 1.374 . S
C524 H498 0.950 . S
C524 C520 1.385 . S
C524 C523 1.374 . S
C525 C522 1.499 . S
C525 C526 1.373 1_565 S
C525 C527 1.389 1_455 S
C526 H499 0.950 . S
C526 C512 1.377 . S
C526 C525 1.373 1_545 S
C527 C511 1.377 . S
C527 C525 1.389 1_655 S
C527 C528 1.524 . S
C528 C527 1.524 . S
C528 C529 1.397 . S
C528 C533 1.363 . S
C529 H500 0.950 . S
C529 C528 1.397 . S
C529 C530 1.334 . S
C530 H501 0.950 . S
C530 C529 1.334 . S
C530 C531 1.287 . S
C531 C530 1.287 . S
C531 C532 1.524 . S
C531 H534 0.999 . S
C532 H502 0.950 . S
C532 C531 1.524 . S
C532 C533 1.415 . S
C533 H503 0.950 . S
C533 C528 1.363 . S
C533 C532 1.415 . S
H534 C531 0.999 . S
H535 C516 0.913 . S
H536 C554 0.951 . S
H537 C556 0.951 . S
H538 C558 0.950 . S
H539 C559 0.950 . S
H540 C561 0.950 . S
H541 C564 0.950 . S
H542 C565 0.950 . S
H543 C567 0.950 . S
H544 C568 0.950 . S
H545 C569 0.951 . S
H546 C571 0.951 . S
H547 C573 0.950 . S
H548 C574 0.950 . S
H549 C576 0.950 . S
H550 C579 0.950 . S
H551 C580 0.950 . S
H552 C582 0.950 . S
H553 C583 0.950 . S
C554 H536 0.951 . S
C554 C555 1.366 . S
C554 C556 1.388 . S
C555 C554 1.366 . S
C555 C559 1.385 . S
C556 H537 0.951 . S
C556 C554 1.388 . S
C556 C557 1.366 . S
C557 C556 1.366 . S
C557 C558 1.414 . S
C557 C560 1.499 . S
C558 H538 0.950 . S
C558 C557 1.414 . S
C558 C559 1.374 . S
C559 H539 0.950 . S
C559 C555 1.385 . S
C559 C558 1.374 . S
C560 C557 1.499 . S
C560 C561 1.373 . S
C560 C562 1.389 . S
C561 H540 0.950 . S
C561 C560 1.373 . S
C561 C577 1.377 . S
C562 C560 1.389 . S
C562 C563 1.524 . S
C562 C576 1.377 . S
C563 C562 1.524 . S
C563 C564 1.397 . S
C563 C568 1.363 . S
C564 H541 0.950 . S
C564 C563 1.397 . S
C564 C565 1.334 . S
C565 H542 0.950 . S
C565 C564 1.334 . S
C565 C566 1.287 . S
C566 C565 1.287 . S
C566 C567 1.524 . S
C566 H585 0.913 . S
C567 H543 0.950 . S
C567 C566 1.524 . S
C567 C568 1.415 . S
C568 H544 0.950 . S
C568 C563 1.363 . S
C568 C567 1.415 . S
C569 H545 0.951 . S
C569 C570 1.366 . S
C569 C571 1.388 . S
C570 C569 1.366 . S
C570 C574 1.385 . S
C571 H546 0.951 . S
C571 C569 1.388 . S
C571 C572 1.366 . S
C572 C571 1.366 . S
C572 C573 1.414 . S
C572 C575 1.499 . S
C573 H547 0.950 . S
C573 C572 1.414 . S
C573 C574 1.374 . S
C574 H548 0.950 . S
C574 C570 1.385 . S
C574 C573 1.374 . S
C575 C572 1.499 . S
C575 C576 1.373 . S
C575 C577 1.389 . S
C576 H549 0.950 . S
C576 C562 1.377 . S
C576 C575 1.373 . S
C577 C561 1.377 . S
C577 C575 1.389 . S
C577 C578 1.524 . S
C578 C577 1.524 . S
C578 C579 1.397 . S
C578 C583 1.363 . S
C579 H550 0.950 . S
C579 C578 1.397 . S
C579 C580 1.334 . S
C580 H551 0.950 . S
C580 C579 1.334 . S
C580 C581 1.287 . S
C581 C580 1.287 . S
C581 C582 1.524 . S
C581 H584 0.999 . S
C582 H552 0.950 . S
C582 C581 1.524 . S
C582 C583 1.415 . S
C583 H553 0.950 . S
C583 C578 1.363 . S
C583 C582 1.415 . S
H584 C581 0.999 . S
H585 C566 0.913 . S
H586 C604 0.951 . S
H587 C606 0.951 . S
H588 C608 0.950 . S
H589 C609 0.950 . S
H590 C611 0.950 . S
H591 C614 0.950 . S
H592 C615 0.950 . S
H593 C617 0.950 . S
H594 C618 0.950 . S
H595 C619 0.951 . S
H596 C621 0.951 . S
H597 C623 0.950 . S
H598 C624 0.950 . S
H599 C626 0.950 . S
H600 C629 0.950 . S
H601 C630 0.950 . S
H602 C632 0.950 . S
H603 C633 0.950 . S
C604 H586 0.951 . S
C604 C605 1.366 . S
C604 C606 1.388 . S
C605 C604 1.366 . S
C605 C609 1.385 . S
C606 H587 0.951 . S
C606 C604 1.388 . S
C606 C607 1.366 . S
C607 C606 1.366 . S
C607 C608 1.414 . S
C607 C610 1.499 . S
C608 H588 0.950 . S
C608 C607 1.414 . S
C608 C609 1.374 . S
C609 H589 0.950 . S
C609 C605 1.385 . S
C609 C608 1.374 . S
C610 C607 1.499 . S
C610 C611 1.373 . S
C610 C612 1.389 . S
C611 H590 0.950 . S
C611 C610 1.373 . S
C611 C627 1.377 . S
C612 C610 1.389 . S
C612 C613 1.524 . S
C612 C626 1.377 . S
C613 C612 1.524 . S
C613 C614 1.397 . S
C613 C618 1.363 . S
C614 H591 0.950 . S
C614 C613 1.397 . S
C614 C615 1.334 . S
C615 H592 0.950 . S
C615 C614 1.334 . S
C615 C616 1.287 . S
C616 C615 1.287 . S
C616 C617 1.524 . S
C616 H635 0.913 . S
C617 H593 0.950 . S
C617 C616 1.524 . S
C617 C618 1.415 . S
C618 H594 0.950 . S
C618 C613 1.363 . S
C618 C617 1.415 . S
C619 H595 0.951 . S
C619 C620 1.366 . S
C619 C621 1.388 . S
C620 C619 1.366 . S
C620 C624 1.385 . S
C621 H596 0.951 . S
C621 C619 1.388 . S
C621 C622 1.366 . S
C622 C621 1.366 . S
C622 C623 1.414 . S
C622 C625 1.499 . S
C623 H597 0.950 . S
C623 C622 1.414 . S
C623 C624 1.374 . S
C624 H598 0.950 . S
C624 C620 1.385 . S
C624 C623 1.374 . S
C625 C622 1.499 . S
C625 C626 1.373 . S
C625 C627 1.389 . S
C626 H599 0.950 . S
C626 C612 1.377 . S
C626 C625 1.373 . S
C627 C611 1.377 . S
C627 C625 1.389 . S
C627 C628 1.524 . S
C628 C627 1.524 . S
C628 C629 1.397 . S
C628 C633 1.363 . S
C629 H600 0.950 . S
C629 C628 1.397 . S
C629 C630 1.334 . S
C630 H601 0.950 . S
C630 C629 1.334 . S
C630 C631 1.287 . S
C631 C630 1.287 . S
C631 C632 1.524 . S
C631 H634 0.999 . S
C632 H602 0.950 . S
C632 C631 1.524 . S
C632 C633 1.415 . S
C633 H603 0.950 . S
C633 C628 1.363 . S
C633 C632 1.415 . S
H634 C631 0.999 . S
H635 C616 0.913 . S
H636 C654 0.951 . S
H637 C656 0.951 . S
H638 C658 0.950 . S
H639 C659 0.950 . S
H640 C661 0.950 . S
H641 C664 0.950 . S
H642 C665 0.950 . S
H643 C667 0.950 . S
H644 C668 0.950 . S
H645 C669 0.951 . S
H646 C671 0.951 . S
H647 C673 0.950 . S
H648 C674 0.950 . S
H649 C676 0.950 . S
H650 C679 0.950 . S
H651 C680 0.950 . S
H652 C682 0.950 . S
H653 C683 0.950 . S
C654 H636 0.951 . S
C654 C655 1.366 . S
C654 C656 1.388 . S
C655 C654 1.366 . S
C655 C659 1.385 . S
C656 H637 0.951 . S
C656 C654 1.388 . S
C656 C657 1.366 . S
C657 C656 1.366 . S
C657 C658 1.414 . S
C657 C660 1.499 . S
C658 H638 0.950 . S
C658 C657 1.414 . S
C658 C659 1.374 . S
C659 H639 0.950 . S
C659 C655 1.385 . S
C659 C658 1.374 . S
C660 C657 1.499 . S
C660 C661 1.373 . S
C660 C662 1.389 . S
C661 H640 0.950 . S
C661 C660 1.373 . S
C661 C677 1.377 . S
C662 C660 1.389 . S
C662 C663 1.524 . S
C662 C676 1.377 . S
C663 C662 1.524 . S
C663 C664 1.397 . S
C663 C668 1.363 . S
C664 H641 0.950 . S
C664 C663 1.397 . S
C664 C665 1.334 . S
C665 H642 0.950 . S
C665 C664 1.334 . S
C665 C666 1.287 . S
C666 C665 1.287 . S
C666 C667 1.524 . S
C666 H685 0.913 . S
C667 H643 0.950 . S
C667 C666 1.524 . S
C667 C668 1.415 . S
C668 H644 0.950 . S
C668 C663 1.363 . S
C668 C667 1.415 . S
C669 H645 0.951 . S
C669 C670 1.366 . S
C669 C671 1.388 . S
C670 C669 1.366 . S
C670 C674 1.385 . S
C671 H646 0.951 . S
C671 C669 1.388 . S
C671 C672 1.366 . S
C672 C671 1.366 . S
C672 C673 1.414 . S
C672 C675 1.499 . S
C673 H647 0.950 . S
C673 C672 1.414 . S
C673 C674 1.374 . S
C674 H648 0.950 . S
C674 C670 1.385 . S
C674 C673 1.374 . S
C675 C672 1.499 . S
C675 C676 1.373 . S
C675 C677 1.389 . S
C676 H649 0.950 . S
C676 C662 1.377 . S
C676 C675 1.373 . S
C677 C661 1.377 . S
C677 C675 1.389 . S
C677 C678 1.524 . S
C678 C677 1.524 . S
C678 C679 1.397 . S
C678 C683 1.363 . S
C679 H650 0.950 . S
C679 C678 1.397 . S
C679 C680 1.334 . S
C680 H651 0.950 . S
C680 C679 1.334 . S
C680 C681 1.287 . S
C681 C680 1.287 . S
C681 C682 1.524 . S
C681 H684 0.999 . S
C682 H652 0.950 . S
C682 C681 1.524 . S
C682 C683 1.415 . S
C683 H653 0.950 . S
C683 C678 1.363 . S
C683 C682 1.415 . S
H684 C681 0.999 . S
H685 C666 0.913 . S
H686 C704 0.951 . S
H687 C706 0.951 . S
H688 C708 0.950 . S
H689 C709 0.950 . S
H690 C711 0.950 . S
H691 C714 0.950 . S
H692 C715 0.950 . S
H693 C717 0.950 . S
H694 C718 0.950 . S
H695 C719 0.951 . S
H696 C721 0.951 . S
H697 C723 0.950 . S
H698 C724 0.950 . S
H699 C726 0.950 . S
H700 C729 0.950 . S
H701 C730 0.950 . S
H702 C732 0.950 . S
H703 C733 0.950 . S
C704 H686 0.951 . S
C704 C705 1.366 . S
C704 C706 1.388 . S
C705 C704 1.366 . S
C705 C709 1.385 . S
C706 H687 0.951 . S
C706 C704 1.388 . S
C706 C707 1.366 . S
C707 C706 1.366 . S
C707 C708 1.414 . S
C707 C710 1.499 . S
C708 H688 0.950 . S
C708 C707 1.414 . S
C708 C709 1.374 . S
C709 H689 0.950 . S
C709 C705 1.385 . S
C709 C708 1.374 . S
C710 C707 1.499 . S
C710 C711 1.373 . S
C710 C712 1.389 . S
C711 H690 0.950 . S
C711 C710 1.373 . S
C711 C727 1.377 . S
C712 C710 1.389 . S
C712 C713 1.524 . S
C712 C726 1.377 . S
C713 C712 1.524 . S
C713 C714 1.397 . S
C713 C718 1.363 . S
C714 H691 0.950 . S
C714 C713 1.397 . S
C714 C715 1.334 . S
C715 H692 0.950 . S
C715 C714 1.334 . S
C715 C716 1.287 . S
C716 C715 1.287 . S
C716 C717 1.524 . S
C716 H735 0.913 . S
C717 H693 0.950 . S
C717 C716 1.524 . S
C717 C718 1.415 . S
C718 H694 0.950 . S
C718 C713 1.363 . S
C718 C717 1.415 . S
C719 H695 0.951 . S
C719 C720 1.366 . S
C719 C721 1.388 . S
C720 C719 1.366 . S
C720 C724 1.385 . S
C721 H696 0.951 . S
C721 C719 1.388 . S
C721 C722 1.366 . S
C722 C721 1.366 . S
C722 C723 1.414 . S
C722 C725 1.499 . S
C723 H697 0.950 . S
C723 C722 1.414 . S
C723 C724 1.374 . S
C724 H698 0.950 . S
C724 C720 1.385 . S
C724 C723 1.374 . S
C725 C722 1.499 . S
C725 C726 1.373 . S
C725 C727 1.389 . S
C726 H699 0.950 . S
C726 C712 1.377 . S
C726 C725 1.373 . S
C727 C711 1.377 . S
C727 C725 1.389 . S
C727 C728 1.524 . S
C728 C727 1.524 . S
C728 C729 1.397 . S
C728 C733 1.363 . S
C729 H700 0.950 . S
C729 C728 1.397 . S
C729 C730 1.334 . S
C730 H701 0.950 . S
C730 C729 1.334 . S
C730 C731 1.287 . S
C731 C730 1.287 . S
C731 C732 1.524 . S
C731 H734 0.999 . S
C732 H702 0.950 . S
C732 C731 1.524 . S
C732 C733 1.415 . S
C733 H703 0.950 . S
C733 C728 1.363 . S
C733 C732 1.415 . S
H734 C731 0.999 . S
H735 C716 0.913 . S
H736 C754 0.951 . S
H737 C756 0.951 . S
H738 C758 0.950 . S
H739 C759 0.950 . S
H740 C761 0.950 . S
H741 C764 0.950 . S
H742 C765 0.950 . S
H743 C767 0.950 . S
H744 C768 0.950 . S
H745 C769 0.951 . S
H746 C771 0.951 . S
H747 C773 0.950 . S
H748 C774 0.950 . S
H749 C776 0.950 1_455 S
H750 C779 0.936 1_455 S
H751 C780 0.950 . S
H752 C782 0.950 . S
H753 C783 0.950 . S
C754 H736 0.951 . S
C754 C755 1.366 . S
C754 C756 1.388 . S
C755 C754 1.366 . S
C755 C759 1.385 . S
C756 H737 0.951 . S
C756 C754 1.388 . S
C756 C757 1.366 . S
C757 C756 1.366 . S
C757 C758 1.414 . S
C757 C760 1.499 . S
C758 H738 0.950 . S
C758 C757 1.414 . S
C758 C759 1.374 . S
C759 H739 0.950 . S
C759 C755 1.385 . S
C759 C758 1.374 . S
C760 C757 1.499 . S
C760 C761 1.373 . S
C760 C762 1.389 . S
C761 H740 0.950 . S
C761 C760 1.373 . S
C761 C777 1.377 . S
C762 C760 1.389 . S
C762 C763 1.524 . S
C762 C776 1.377 . S
C763 C762 1.524 . S
C763 C764 1.397 . S
C763 C768 1.363 1_655 S
C764 H741 0.950 . S
C764 C763 1.397 . S
C764 C765 1.334 . S
C765 H742 0.950 . S
C765 C764 1.334 . S
C765 C766 1.287 . S
C766 C765 1.287 . S
C766 C767 1.524 1_655 S
C766 H785 0.913 . S
C767 H743 0.950 . S
C767 C766 1.524 1_455 S
C767 C768 1.415 . S
C768 H744 0.950 . S
C768 C763 1.363 1_455 S
C768 C767 1.415 . S
C769 H745 0.951 . S
C769 C770 1.366 1_655 S
C769 C771 1.388 . S
C770 C769 1.366 1_455 S
C770 C774 1.385 . S
C771 H746 0.951 . S
C771 C769 1.388 . S
C771 C772 1.366 . S
C772 C771 1.366 . S
C772 C773 1.414 1_655 S
C772 C775 1.499 . S
C773 H747 0.950 . S
C773 C772 1.414 1_455 S
C773 C774 1.374 . S
C774 H748 0.950 . S
C774 C770 1.385 . S
C774 C773 1.374 . S
C775 C772 1.499 . S
C775 C776 1.373 . S
C775 C777 1.389 . S
C776 H749 0.950 1_655 S
C776 C762 1.377 . S
C776 C775 1.373 . S
C777 C761 1.377 . S
C777 C775 1.389 . S
C777 C778 1.524 . S
C778 C777 1.524 . S
C778 C779 1.397 . S
C778 C783 1.363 . S
C779 H750 0.936 1_655 S
C779 C778 1.397 . S
C779 C780 1.334 . S
C780 H751 0.950 . S
C780 C779 1.334 . S
C780 C781 1.287 . S
C781 C780 1.287 . S
C781 C782 1.524 . S
C781 H784 0.999 . S
C782 H752 0.950 . S
C782 C781 1.524 . S
C782 C783 1.415 . S
C783 H753 0.950 . S
C783 C778 1.363 . S
C783 C782 1.415 . S
H784 C781 0.999 . S
H785 C766 0.913 . S
H786 C804 0.951 . S
H787 C806 0.951 . S
H788 C808 0.950 . S
H789 C809 0.950 . S
H790 C811 0.950 . S
H791 C814 0.950 1_655 S
H792 C815 0.950 . S
H793 C817 0.950 . S
H794 C818 0.950 . S
H795 C819 0.951 1_655 S
H796 C821 0.951 . S
H797 C823 0.950 . S
H798 C824 0.950 . S
H799 C826 0.950 1_455 S
H800 C829 0.950 . S
H801 C830 0.950 . S
H802 C832 0.950 . S
H803 C833 0.950 . S
C804 H786 0.951 . S
C804 C805 1.366 . S
C804 C806 1.388 . S
C805 C804 1.366 . S
C805 C809 1.385 . S
C806 H787 0.951 . S
C806 C804 1.388 . S
C806 C807 1.366 . S
C807 C806 1.366 . S
C807 C808 1.414 . S
C807 C810 1.499 . S
C808 H788 0.950 . S
C808 C807 1.414 . S
C808 C809 1.374 . S
C809 H789 0.950 . S
C809 C805 1.385 . S
C809 C808 1.374 . S
C810 C807 1.499 . S
C810 C811 1.373 . S
C810 C812 1.389 . S
C811 H790 0.950 . S
C811 C810 1.373 . S
C811 C827 1.377 . S
C812 C810 1.389 . S
C812 C813 1.524 1_655 S
C812 C826 1.377 . S
C813 C812 1.524 1_455 S
C813 C814 1.397 . S
C813 C818 1.363 . S
C814 H791 0.950 1_455 S
C814 C813 1.397 . S
C814 C815 1.334 . S
C815 H792 0.950 . S
C815 C814 1.334 . S
C815 C816 1.287 . S
C816 C815 1.287 . S
C816 C817 1.524 . S
C816 H835 0.913 . S
C817 H793 0.950 . S
C817 C816 1.524 . S
C817 C818 1.415 . S
C818 H794 0.950 . S
C818 C813 1.363 . S
C818 C817 1.415 . S
C819 H795 0.951 1_455 S
C819 C820 1.366 . S
C819 C821 1.388 1_455 S
C820 C819 1.366 . S
C820 C824 1.385 . S
C821 H796 0.951 . S
C821 C819 1.388 1_655 S
C821 C822 1.366 . S
C822 C821 1.366 . S
C822 C823 1.414 1_655 S
C822 C825 1.499 . S
C823 H797 0.950 . S
C823 C822 1.414 1_455 S
C823 C824 1.374 . S
C824 H798 0.950 . S
C824 C820 1.385 . S
C824 C823 1.374 . S
C825 C822 1.499 . S
C825 C826 1.373 . S
C825 C827 1.389 . S
C826 H799 0.950 1_655 S
C826 C812 1.377 . S
C826 C825 1.373 . S
C827 C811 1.377 . S
C827 C825 1.389 . S
C827 C828 1.524 . S
C828 C827 1.524 . S
C828 C829 1.397 . S
C828 C833 1.363 . S
C829 H800 0.950 . S
C829 C828 1.397 . S
C829 C830 1.334 . S
C830 H801 0.950 . S
C830 C829 1.334 . S
C830 C831 1.287 . S
C831 C830 1.287 . S
C831 C832 1.524 . S
C831 H834 0.999 . S
C832 H802 0.950 . S
C832 C831 1.524 . S
C832 C833 1.415 . S
C833 H803 0.950 . S
C833 C828 1.363 . S
C833 C832 1.415 . S
H834 C831 0.999 . S
H835 C816 0.913 . S
H836 C854 0.951 . S
H837 C856 0.951 . S
H838 C858 0.950 1_455 S
H839 C859 0.950 . S
H840 C861 0.950 . S
H841 C864 0.950 . S
H842 C865 0.950 . S
H843 C867 0.950 . S
H844 C868 0.950 . S
H845 C869 0.951 . S
H846 C871 0.951 . S
H847 C873 0.950 . S
H848 C874 0.950 . S
H849 C876 0.950 . S
H850 C879 0.950 . S
H851 C880 0.950 . S
H852 C882 0.950 . S
H853 C883 0.950 . S
C854 H836 0.951 . S
C854 C855 1.366 . S
C854 C856 1.388 . S
C855 C854 1.366 . S
C855 C859 1.385 . S
C856 H837 0.951 . S
C856 C854 1.388 . S
C856 C857 1.366 1_655 S
C857 C856 1.366 1_455 S
C857 C858 1.414 1_455 S
C857 C860 1.499 . S
C858 H838 0.950 1_655 S
C858 C857 1.414 1_655 S
C858 C859 1.374 . S
C859 H839 0.950 . S
C859 C855 1.385 . S
C859 C858 1.374 . S
C860 C857 1.499 . S
C860 C861 1.373 . S
C860 C862 1.389 . S
C861 H840 0.950 . S
C861 C860 1.373 . S
C861 C877 1.377 . S
C862 C860 1.389 . S
C862 C863 1.524 1_455 S
C862 C876 1.377 . S
C863 C862 1.524 1_655 S
C863 C864 1.397 . S
C863 C868 1.363 . S
C864 H841 0.950 . S
C864 C863 1.397 . S
C864 C865 1.334 . S
C865 H842 0.950 . S
C865 C864 1.334 . S
C865 C866 1.287 . S
C866 C865 1.287 . S
C866 C867 1.524 . S
C866 H885 0.913 . S
C867 H843 0.950 . S
C867 C866 1.524 . S
C867 C868 1.415 . S
C868 H844 0.950 . S
C868 C863 1.363 . S
C868 C867 1.415 . S
C869 H845 0.951 . S
C869 C870 1.366 . S
C869 C871 1.388 . S
C870 C869 1.366 . S
C870 C874 1.385 . S
C871 H846 0.951 . S
C871 C869 1.388 . S
C871 C872 1.366 . S
C872 C871 1.366 . S
C872 C873 1.414 . S
C872 C875 1.499 . S
C873 H847 0.950 . S
C873 C872 1.414 . S
C873 C874 1.374 . S
C874 H848 0.950 . S
C874 C870 1.385 . S
C874 C873 1.374 . S
C875 C872 1.499 . S
C875 C876 1.373 . S
C875 C877 1.389 . S
C876 H849 0.950 . S
C876 C862 1.377 . S
C876 C875 1.373 . S
C877 C861 1.377 . S
C877 C875 1.389 . S
C877 C878 1.524 . S
C878 C877 1.524 . S
C878 C879 1.397 . S
C878 C883 1.363 . S
C879 H850 0.950 . S
C879 C878 1.397 . S
C879 C880 1.334 . S
C880 H851 0.950 . S
C880 C879 1.334 . S
C880 C881 1.287 . S
C881 C880 1.287 . S
C881 C882 1.524 . S
C881 H884 0.999 . S
C882 H852 0.950 . S
C882 C881 1.524 . S
C882 C883 1.415 . S
C883 H853 0.950 . S
C883 C878 1.363 . S
C883 C882 1.415 . S
H884 C881 0.999 . S
H885 C866 0.913 . S
H886 C904 0.951 . S
H887 C906 0.951 . S
H888 C908 0.950 . S
H889 C909 0.950 . S
H890 C911 0.950 . S
H891 C914 0.950 . S
H892 C915 0.950 . S
H893 C917 0.950 . S
H894 C918 0.950 . S
H895 C919 0.951 . S
H896 C921 0.951 . S
H897 C923 0.950 . S
H898 C924 0.950 . S
H899 C926 0.950 . S
H900 C929 0.950 . S
H901 C930 0.950 . S
H902 C932 0.950 . S
H903 C933 0.950 . S
C904 H886 0.951 . S
C904 C905 1.366 . S
C904 C906 1.388 . S
C905 C904 1.366 . S
C905 C909 1.385 . S
C906 H887 0.951 . S
C906 C904 1.388 . S
C906 C907 1.366 . S
C907 C906 1.366 . S
C907 C908 1.414 . S
C907 C910 1.499 . S
C908 H888 0.950 . S
C908 C907 1.414 . S
C908 C909 1.374 . S
C909 H889 0.950 . S
C909 C905 1.385 . S
C909 C908 1.374 . S
C910 C907 1.499 . S
C910 C911 1.373 . S
C910 C912 1.389 . S
C911 H890 0.950 . S
C911 C910 1.373 . S
C911 C927 1.377 . S
C912 C910 1.389 . S
C912 C913 1.524 . S
C912 C926 1.377 . S
C913 C912 1.524 . S
C913 C914 1.397 . S
C913 C918 1.363 . S
C914 H891 0.950 . S
C914 C913 1.397 . S
C914 C915 1.334 . S
C915 H892 0.950 . S
C915 C914 1.334 . S
C915 C916 1.287 . S
C916 C915 1.287 . S
C916 C917 1.524 . S
C916 H935 0.913 . S
C917 H893 0.950 . S
C917 C916 1.524 . S
C917 C918 1.415 . S
C918 H894 0.950 . S
C918 C913 1.363 . S
C918 C917 1.415 . S
C919 H895 0.951 . S
C919 C920 1.366 . S
C919 C921 1.388 . S
C920 C919 1.366 . S
C920 C924 1.385 1_655 S
C921 H896 0.951 . S
C921 C919 1.388 . S
C921 C922 1.366 1_655 S
C922 C921 1.366 1_455 S
C922 C923 1.414 . S
C922 C925 1.499 . S
C923 H897 0.950 . S
C923 C922 1.414 . S
C923 C924 1.374 . S
C924 H898 0.950 . S
C924 C920 1.385 1_455 S
C924 C923 1.374 . S
C925 C922 1.499 . S
C925 C926 1.373 . S
C925 C927 1.389 . S
C926 H899 0.950 . S
C926 C912 1.377 . S
C926 C925 1.373 . S
C927 C911 1.377 . S
C927 C925 1.389 . S
C927 C928 1.524 1_455 S
C928 C927 1.524 1_655 S
C928 C929 1.397 . S
C928 C933 1.363 . S
C929 H900 0.950 . S
C929 C928 1.397 . S
C929 C930 1.334 . S
C930 H901 0.950 . S
C930 C929 1.334 . S
C930 C931 1.287 . S
C931 C930 1.287 . S
C931 C932 1.524 . S
C931 H934 0.999 . S
C932 H902 0.950 . S
C932 C931 1.524 . S
C932 C933 1.415 . S
C933 H903 0.950 . S
C933 C928 1.363 . S
C933 C932 1.415 . S
H934 C931 0.999 . S
H935 C916 0.913 . S
C355 C158 1.511 . S
C370 C63 1.501 . S
C405 C231 1.501 . S
C420 C326 1.501 . S
C455 C74 1.511 . S
C470 C147 1.501 . S
C505 C315 1.501 . S
C520 C242 1.501 . S
C555 C321 1.183 . S
C570 C56 1.265 . S
C605 C153 1.184 . S
C620 C224 1.265 . S
C655 C151 1.265 . S
C670 C226 1.184 . S
C705 C319 1.265 . S
C720 C58 1.182 . S
C755 C140 1.265 . S
C770 C237 1.182 . S
C805 C308 1.265 . S
C820 C69 1.182 . S
C855 C310 1.183 . S
C870 C67 1.265 . S
C905 C235 1.265 . S
C920 C142 1.182 . S
