# Generated by pormake.
# Topology ulj, (4)-cn, num edge types: 1
# Building blocks:
#     Node 0, Type 0, BuildingBlock: KOZSID_clean_sbu_0, # of connection points: 4
#     Node 1, Type 0, BuildingBlock: KOZSID_clean_sbu_0, # of connection points: 4
#     Node 2, Type 0, BuildingBlock: KOZSID_clean_sbu_0, # of connection points: 4
#     Node 3, Type 0, BuildingBlock: KOZSID_clean_sbu_0, # of connection points: 4
#     Node 4, Type 0, BuildingBlock: KOZSID_clean_sbu_0, # of connection points: 4
#     Node 5, Type 0, BuildingBlock: KOZSID_clean_sbu_0, # of connection points: 4
#     Node 6, Type 0, BuildingBlock: KOZSID_clean_sbu_0, # of connection points: 4
#     Node 7, Type 0, BuildingBlock: KOZSID_clean_sbu_0, # of connection points: 4
#     Node 8, Type 0, BuildingBlock: KOZSID_clean_sbu_0, # of connection points: 4
#     Node 9, Type 0, BuildingBlock: KOZSID_clean_sbu_0, # of connection points: 4
#     Node 10, Type 0, BuildingBlock: KOZSID_clean_sbu_0, # of connection points: 4
#     Node 11, Type 0, BuildingBlock: KOZSID_clean_sbu_0, # of connection points: 4
#     Node 12, Type 0, BuildingBlock: KOZSID_clean_sbu_0, # of connection points: 4
#     Node 13, Type 0, BuildingBlock: KOZSID_clean_sbu_0, # of connection points: 4
#     Node 14, Type 0, BuildingBlock: KOZSID_clean_sbu_0, # of connection points: 4
#     Node 15, Type 0, BuildingBlock: KOZSID_clean_sbu_0, # of connection points: 4
#     Node 16, Type 0, BuildingBlock: KOZSID_clean_sbu_0, # of connection points: 4
#     Node 17, Type 0, BuildingBlock: KOZSID_clean_sbu_0, # of connection points: 4
#     Node 18, Type 0, BuildingBlock: KOZSID_clean_sbu_0, # of connection points: 4
#     Node 19, Type 0, BuildingBlock: KOZSID_clean_sbu_0, # of connection points: 4
#     Node 20, Type 0, BuildingBlock: KOZSID_clean_sbu_0, # of connection points: 4
#     Node 21, Type 0, BuildingBlock: KOZSID_clean_sbu_0, # of connection points: 4
#     Node 22, Type 0, BuildingBlock: KOZSID_clean_sbu_0, # of connection points: 4
#     Node 23, Type 0, BuildingBlock: KOZSID_clean_sbu_0, # of connection points: 4
#     Node 24, Type 0, BuildingBlock: KOZSID_clean_sbu_0, # of connection points: 4
#     Node 25, Type 0, BuildingBlock: KOZSID_clean_sbu_0, # of connection points: 4
#     Node 26, Type 0, BuildingBlock: KOZSID_clean_sbu_0, # of connection points: 4
#     Node 27, Type 0, BuildingBlock: KOZSID_clean_sbu_0, # of connection points: 4
#     Node 28, Type 0, BuildingBlock: KOZSID_clean_sbu_0, # of connection points: 4
#     Node 29, Type 0, BuildingBlock: KOZSID_clean_sbu_0, # of connection points: 4
#     Node 30, Type 0, BuildingBlock: KOZSID_clean_sbu_0, # of connection points: 4
#     Node 31, Type 0, BuildingBlock: KOZSID_clean_sbu_0, # of connection points: 4
#     Node 32, Type 0, BuildingBlock: KOZSID_clean_sbu_0, # of connection points: 4
#     Node 33, Type 0, BuildingBlock: KOZSID_clean_sbu_0, # of connection points: 4
#     Node 34, Type 0, BuildingBlock: KOZSID_clean_sbu_0, # of connection points: 4
#     Node 35, Type 0, BuildingBlock: KOZSID_clean_sbu_0, # of connection points: 4
#     Node 36, Type 0, BuildingBlock: KOZSID_clean_sbu_0, # of connection points: 4
#     Node 37, Type 0, BuildingBlock: KOZSID_clean_sbu_0, # of connection points: 4
#     Node 38, Type 0, BuildingBlock: KOZSID_clean_sbu_0, # of connection points: 4
#     Node 39, Type 0, BuildingBlock: KOZSID_clean_sbu_0, # of connection points: 4
#     Node 40, Type 0, BuildingBlock: KOZSID_clean_sbu_0, # of connection points: 4
#     Node 41, Type 0, BuildingBlock: KOZSID_clean_sbu_0, # of connection points: 4
#     Node 42, Type 0, BuildingBlock: KOZSID_clean_sbu_0, # of connection points: 4
#     Node 43, Type 0, BuildingBlock: KOZSID_clean_sbu_0, # of connection points: 4
#     Node 44, Type 0, BuildingBlock: KOZSID_clean_sbu_0, # of connection points: 4
#     Node 45, Type 0, BuildingBlock: KOZSID_clean_sbu_0, # of connection points: 4
#     Node 46, Type 0, BuildingBlock: KOZSID_clean_sbu_0, # of connection points: 4
#     Node 47, Type 0, BuildingBlock: KOZSID_clean_sbu_0, # of connection points: 4
#     Edge 48, Type (0, 0), BuildingBlock: OJICUG_clean_linker_0, # of connection points: 2
#     Edge 49, Type (0, 0), BuildingBlock: OJICUG_clean_linker_0, # of connection points: 2
#     Edge 50, Type (0, 0), BuildingBlock: OJICUG_clean_linker_0, # of connection points: 2
#     Edge 51, Type (0, 0), BuildingBlock: OJICUG_clean_linker_0, # of connection points: 2
#     Edge 52, Type (0, 0), BuildingBlock: OJICUG_clean_linker_0, # of connection points: 2
#     Edge 53, Type (0, 0), BuildingBlock: OJICUG_clean_linker_0, # of connection points: 2
#     Edge 54, Type (0, 0), BuildingBlock: OJICUG_clean_linker_0, # of connection points: 2
#     Edge 55, Type (0, 0), BuildingBlock: OJICUG_clean_linker_0, # of connection points: 2
#     Edge 56, Type (0, 0), BuildingBlock: OJICUG_clean_linker_0, # of connection points: 2
#     Edge 57, Type (0, 0), BuildingBlock: OJICUG_clean_linker_0, # of connection points: 2
#     Edge 58, Type (0, 0), BuildingBlock: OJICUG_clean_linker_0, # of connection points: 2
#     Edge 59, Type (0, 0), BuildingBlock: OJICUG_clean_linker_0, # of connection points: 2
#     Edge 60, Type (0, 0), BuildingBlock: OJICUG_clean_linker_0, # of connection points: 2
#     Edge 61, Type (0, 0), BuildingBlock: OJICUG_clean_linker_0, # of connection points: 2
#     Edge 62, Type (0, 0), BuildingBlock: OJICUG_clean_linker_0, # of connection points: 2
#     Edge 63, Type (0, 0), BuildingBlock: OJICUG_clean_linker_0, # of connection points: 2
#     Edge 64, Type (0, 0), BuildingBlock: OJICUG_clean_linker_0, # of connection points: 2
#     Edge 65, Type (0, 0), BuildingBlock: OJICUG_clean_linker_0, # of connection points: 2
#     Edge 66, Type (0, 0), BuildingBlock: OJICUG_clean_linker_0, # of connection points: 2
#     Edge 67, Type (0, 0), BuildingBlock: OJICUG_clean_linker_0, # of connection points: 2
#     Edge 68, Type (0, 0), BuildingBlock: OJICUG_clean_linker_0, # of connection points: 2
#     Edge 69, Type (0, 0), BuildingBlock: OJICUG_clean_linker_0, # of connection points: 2
#     Edge 70, Type (0, 0), BuildingBlock: OJICUG_clean_linker_0, # of connection points: 2
#     Edge 71, Type (0, 0), BuildingBlock: OJICUG_clean_linker_0, # of connection points: 2
#     Edge 72, Type (0, 0), BuildingBlock: OJICUG_clean_linker_0, # of connection points: 2
#     Edge 73, Type (0, 0), BuildingBlock: OJICUG_clean_linker_0, # of connection points: 2
#     Edge 74, Type (0, 0), BuildingBlock: OJICUG_clean_linker_0, # of connection points: 2
#     Edge 75, Type (0, 0), BuildingBlock: OJICUG_clean_linker_0, # of connection points: 2
#     Edge 76, Type (0, 0), BuildingBlock: OJICUG_clean_linker_0, # of connection points: 2
#     Edge 77, Type (0, 0), BuildingBlock: OJICUG_clean_linker_0, # of connection points: 2
#     Edge 78, Type (0, 0), BuildingBlock: OJICUG_clean_linker_0, # of connection points: 2
#     Edge 79, Type (0, 0), BuildingBlock: OJICUG_clean_linker_0, # of connection points: 2
#     Edge 80, Type (0, 0), BuildingBlock: OJICUG_clean_linker_0, # of connection points: 2
#     Edge 81, Type (0, 0), BuildingBlock: OJICUG_clean_linker_0, # of connection points: 2
#     Edge 82, Type (0, 0), BuildingBlock: OJICUG_clean_linker_0, # of connection points: 2
#     Edge 83, Type (0, 0), BuildingBlock: OJICUG_clean_linker_0, # of connection points: 2
#     Edge 84, Type (0, 0), BuildingBlock: OJICUG_clean_linker_0, # of connection points: 2
#     Edge 85, Type (0, 0), BuildingBlock: OJICUG_clean_linker_0, # of connection points: 2
#     Edge 86, Type (0, 0), BuildingBlock: OJICUG_clean_linker_0, # of connection points: 2
#     Edge 87, Type (0, 0), BuildingBlock: OJICUG_clean_linker_0, # of connection points: 2
#     Edge 88, Type (0, 0), BuildingBlock: OJICUG_clean_linker_0, # of connection points: 2
#     Edge 89, Type (0, 0), BuildingBlock: OJICUG_clean_linker_0, # of connection points: 2
#     Edge 90, Type (0, 0), BuildingBlock: OJICUG_clean_linker_0, # of connection points: 2
#     Edge 91, Type (0, 0), BuildingBlock: OJICUG_clean_linker_0, # of connection points: 2
#     Edge 92, Type (0, 0), BuildingBlock: OJICUG_clean_linker_0, # of connection points: 2
#     Edge 93, Type (0, 0), BuildingBlock: OJICUG_clean_linker_0, # of connection points: 2
#     Edge 94, Type (0, 0), BuildingBlock: OJICUG_clean_linker_0, # of connection points: 2
#     Edge 95, Type (0, 0), BuildingBlock: OJICUG_clean_linker_0, # of connection points: 2
#     Edge 96, Type (0, 0), BuildingBlock: OJICUG_clean_linker_0, # of connection points: 2
#     Edge 97, Type (0, 0), BuildingBlock: OJICUG_clean_linker_0, # of connection points: 2
#     Edge 98, Type (0, 0), BuildingBlock: OJICUG_clean_linker_0, # of connection points: 2
#     Edge 99, Type (0, 0), BuildingBlock: OJICUG_clean_linker_0, # of connection points: 2
#     Edge 100, Type (0, 0), BuildingBlock: OJICUG_clean_linker_0, # of connection points: 2
#     Edge 101, Type (0, 0), BuildingBlock: OJICUG_clean_linker_0, # of connection points: 2
#     Edge 102, Type (0, 0), BuildingBlock: OJICUG_clean_linker_0, # of connection points: 2
#     Edge 103, Type (0, 0), BuildingBlock: OJICUG_clean_linker_0, # of connection points: 2
#     Edge 104, Type (0, 0), BuildingBlock: OJICUG_clean_linker_0, # of connection points: 2
#     Edge 105, Type (0, 0), BuildingBlock: OJICUG_clean_linker_0, # of connection points: 2
#     Edge 106, Type (0, 0), BuildingBlock: OJICUG_clean_linker_0, # of connection points: 2
#     Edge 107, Type (0, 0), BuildingBlock: OJICUG_clean_linker_0, # of connection points: 2
#     Edge 108, Type (0, 0), BuildingBlock: OJICUG_clean_linker_0, # of connection points: 2
#     Edge 109, Type (0, 0), BuildingBlock: OJICUG_clean_linker_0, # of connection points: 2
#     Edge 110, Type (0, 0), BuildingBlock: OJICUG_clean_linker_0, # of connection points: 2
#     Edge 111, Type (0, 0), BuildingBlock: OJICUG_clean_linker_0, # of connection points: 2
#     Edge 112, Type (0, 0), BuildingBlock: OJICUG_clean_linker_0, # of connection points: 2
#     Edge 113, Type (0, 0), BuildingBlock: OJICUG_clean_linker_0, # of connection points: 2
#     Edge 114, Type (0, 0), BuildingBlock: OJICUG_clean_linker_0, # of connection points: 2
#     Edge 115, Type (0, 0), BuildingBlock: OJICUG_clean_linker_0, # of connection points: 2
#     Edge 116, Type (0, 0), BuildingBlock: OJICUG_clean_linker_0, # of connection points: 2
#     Edge 117, Type (0, 0), BuildingBlock: OJICUG_clean_linker_0, # of connection points: 2
#     Edge 118, Type (0, 0), BuildingBlock: OJICUG_clean_linker_0, # of connection points: 2
#     Edge 119, Type (0, 0), BuildingBlock: OJICUG_clean_linker_0, # of connection points: 2
#     Edge 120, Type (0, 0), BuildingBlock: OJICUG_clean_linker_0, # of connection points: 2
#     Edge 121, Type (0, 0), BuildingBlock: OJICUG_clean_linker_0, # of connection points: 2
#     Edge 122, Type (0, 0), BuildingBlock: OJICUG_clean_linker_0, # of connection points: 2
#     Edge 123, Type (0, 0), BuildingBlock: OJICUG_clean_linker_0, # of connection points: 2
#     Edge 124, Type (0, 0), BuildingBlock: OJICUG_clean_linker_0, # of connection points: 2
#     Edge 125, Type (0, 0), BuildingBlock: OJICUG_clean_linker_0, # of connection points: 2
#     Edge 126, Type (0, 0), BuildingBlock: OJICUG_clean_linker_0, # of connection points: 2
#     Edge 127, Type (0, 0), BuildingBlock: OJICUG_clean_linker_0, # of connection points: 2
#     Edge 128, Type (0, 0), BuildingBlock: OJICUG_clean_linker_0, # of connection points: 2
#     Edge 129, Type (0, 0), BuildingBlock: OJICUG_clean_linker_0, # of connection points: 2
#     Edge 130, Type (0, 0), BuildingBlock: OJICUG_clean_linker_0, # of connection points: 2
#     Edge 131, Type (0, 0), BuildingBlock: OJICUG_clean_linker_0, # of connection points: 2
#     Edge 132, Type (0, 0), BuildingBlock: OJICUG_clean_linker_0, # of connection points: 2
#     Edge 133, Type (0, 0), BuildingBlock: OJICUG_clean_linker_0, # of connection points: 2
#     Edge 134, Type (0, 0), BuildingBlock: OJICUG_clean_linker_0, # of connection points: 2
#     Edge 135, Type (0, 0), BuildingBlock: OJICUG_clean_linker_0, # of connection points: 2
#     Edge 136, Type (0, 0), BuildingBlock: OJICUG_clean_linker_0, # of connection points: 2
#     Edge 137, Type (0, 0), BuildingBlock: OJICUG_clean_linker_0, # of connection points: 2
#     Edge 138, Type (0, 0), BuildingBlock: OJICUG_clean_linker_0, # of connection points: 2
#     Edge 139, Type (0, 0), BuildingBlock: OJICUG_clean_linker_0, # of connection points: 2
#     Edge 140, Type (0, 0), BuildingBlock: OJICUG_clean_linker_0, # of connection points: 2
#     Edge 141, Type (0, 0), BuildingBlock: OJICUG_clean_linker_0, # of connection points: 2
#     Edge 142, Type (0, 0), BuildingBlock: OJICUG_clean_linker_0, # of connection points: 2
#     Edge 143, Type (0, 0), BuildingBlock: OJICUG_clean_linker_0, # of connection points: 2
# Relax obj value: 0.027
# Max RMSD: 0.196
# Mean RMSD: 0.196
data_MOF--net-ulj--node1-KOZSID_clean_sbu_0--edge1-OJICUG_clean_linker_0
_symmetry_space_group_name_H-M    P1
_symmetry_Int_Tables_number       1
_symmetry_cell_setting            triclinic
loop_
_symmetry_equiv_pos_as_xyz
'x, y, z'
_cell_length_a     61.628433
_cell_length_b     61.639166
_cell_length_c     61.629121
_cell_angle_alpha  89.980229
_cell_angle_beta   90.046082
_cell_angle_gamma 89.998171
loop_
_atom_site_label
_atom_site_type_symbol
_atom_site_fract_x
_atom_site_fract_y
_atom_site_fract_z
_atom_type_partial_charge
C0 C 0.15002 0.27426 0.27569 0.0
C1 C 0.14074 0.2732 0.25519 0.0
C2 C 0.12151 0.26231 0.25746 0.0
C3 C 0.12007 0.25748 0.27915 0.0
N4 N 0.13711 0.26474 0.29071 0.0
Co5 Co 0.14114 0.26161 0.32255 0.0
N6 N 0.1198 0.23735 0.32401 0.0
C7 C 0.10554 0.23198 0.30831 0.0
C8 C 0.0926 0.21471 0.31366 0.0
C9 C 0.09873 0.20904 0.33421 0.0
C10 C 0.11506 0.22335 0.34037 0.0
N11 N 0.14473 0.25885 0.35457 0.0
C12 C 0.13681 0.24383 0.3687 0.0
C13 C 0.14179 0.24939 0.38994 0.0
C14 C 0.15281 0.26871 0.38909 0.0
C15 C 0.15396 0.27391 0.36746 0.0
N16 N 0.16274 0.28553 0.32042 0.0
C17 C 0.17023 0.29745 0.33708 0.0
C18 C 0.1861 0.31183 0.33085 0.0
C19 C 0.18871 0.30872 0.30891 0.0
C20 C 0.17414 0.29268 0.30287 0.0
N21 N 0.11765 0.28296 0.32795 0.0
C22 C 0.08907 0.31565 0.34307 0.0
C23 C 0.10426 0.31992 0.32656 0.0
C24 C 0.11816 0.30334 0.31906 0.0
C25 C 0.08783 0.29429 0.35079 0.0
C26 C 0.10204 0.2784 0.34309 0.0
N27 N 0.16496 0.24071 0.31793 0.0
C28 C 0.20141 0.22916 0.32673 0.0
C29 C 0.2009 0.21314 0.31063 0.0
C30 C 0.18166 0.21107 0.29842 0.0
C31 C 0.1639 0.22491 0.30238 0.0
C32 C 0.18347 0.24263 0.33008 0.0
H33 H 0.14942 0.22302 0.2927 0.0
H34 H 0.1849 0.25495 0.34232 0.0
H35 H 0.12991 0.30727 0.30668 0.0
H36 H 0.10094 0.26266 0.35041 0.0
C37 C 0.10577 0.24249 0.28824 0.0
C38 C 0.17071 0.28503 0.28038 0.0
C39 C 0.12262 0.22547 0.3629 0.0
C40 C 0.16509 0.29166 0.35849 0.0
H41 H 0.14727 0.27943 0.24013 0.0
H42 H 0.11052 0.25746 0.24464 0.0
H43 H 0.08014 0.20717 0.30383 0.0
H44 H 0.09128 0.19646 0.34394 0.0
H45 H 0.1374 0.24067 0.40453 0.0
H46 H 0.15927 0.27782 0.40265 0.0
H47 H 0.19552 0.32245 0.34119 0.0
H48 H 0.20023 0.31713 0.2987 0.0
H49 H 0.10568 0.33603 0.31971 0.0
H50 H 0.07669 0.28996 0.36366 0.0
H51 H 0.21586 0.23179 0.33638 0.0
H52 H 0.18025 0.19881 0.28593 0.0
C53 C 0.54277 0.60088 0.97014 0.0
C54 C 0.55327 0.58125 0.96678 0.0
C55 C 0.54641 0.57359 0.94706 0.0
C56 C 0.53211 0.58886 0.93945 0.0
N57 N 0.52987 0.60599 0.95287 0.0
Co58 Co 0.50848 0.63005 0.94874 0.0
N59 N 0.50251 0.62192 0.91796 0.0
C60 C 0.50795 0.60303 0.90851 0.0
C61 C 0.50214 0.60214 0.88699 0.0
C62 C 0.49237 0.6217 0.88264 0.0
C63 C 0.49271 0.63345 0.90182 0.0
N64 N 0.48671 0.65367 0.94497 0.0
C65 C 0.47785 0.66214 0.92669 0.0
C66 C 0.46288 0.67826 0.9316 0.0
C67 C 0.46258 0.68014 0.95368 0.0
C68 C 0.47722 0.66507 0.96101 0.0
N69 N 0.51461 0.63894 0.97933 0.0
C70 C 0.50326 0.65355 0.99097 0.0
C71 C 0.5117 0.65731 1.0112 0.0
C72 C 0.52924 0.64386 1.01272 0.0
C73 C 0.53032 0.63237 0.99336 0.0
N74 N 0.53187 0.64934 0.93844 0.0
C75 C 0.56498 0.6761 0.92132 0.0
C76 C 0.54976 0.68423 0.9363 0.0
C77 C 0.53342 0.67059 0.94469 0.0
C78 C 0.56316 0.65424 0.91538 0.0
C79 C 0.54672 0.6413 0.92404 0.0
N80 N 0.48539 0.60986 0.9585 0.0
C81 C 0.47622 0.57926 0.98123 0.0
C82 C 0.45931 0.57311 0.96735 0.0
C83 C 0.45479 0.58677 0.94961 0.0
C84 C 0.4678 0.6052 0.94568 0.0
C85 C 0.48876 0.59754 0.97665 0.0
H86 H 0.46414 0.6151 0.9317 0.0
H87 H 0.502 0.6008 0.98728 0.0
H88 H 0.52194 0.67732 0.95604 0.0
H89 H 0.54589 0.62478 0.91861 0.0
C90 C 0.52121 0.58817 0.91947 0.0
C91 C 0.54321 0.61245 0.9911 0.0
C92 C 0.48261 0.65495 0.90453 0.0
C93 C 0.48553 0.66431 0.982 0.0
H94 H 0.5641 0.5729 0.97779 0.0
H95 H 0.55109 0.55853 0.93935 0.0
H96 H 0.50532 0.58917 0.8756 0.0
H97 H 0.48576 0.62672 0.86717 0.0
H98 H 0.45332 0.68786 0.92041 0.0
H99 H 0.45362 0.69189 0.96317 0.0
H100 H 0.5057 0.66836 0.02346 0.0
H101 H 0.5393 0.64173 0.02697 0.0
H102 H 0.55043 0.70098 0.94153 0.0
H103 H 0.57399 0.64715 0.90352 0.0
H104 H 0.48059 0.56944 0.99514 0.0
H105 H 0.44152 0.58314 0.93869 0.0
C106 C 0.87767 0.24914 0.27583 0.0
C107 C 0.88686 0.24994 0.25528 0.0
C108 C 0.90599 0.26107 0.25734 0.0
C109 C 0.90745 0.26629 0.27895 0.0
N110 N 0.89053 0.25901 0.29064 0.0
Co111 Co 0.88627 0.26278 0.32233 0.0
N112 N 0.90708 0.2875 0.3233 0.0
C113 C 0.9212 0.29289 0.30748 0.0
C114 C 0.93379 0.31051 0.31251 0.0
C115 C 0.92762 0.31638 0.33298 0.0
C116 C 0.91163 0.30182 0.33941 0.0
N117 N 0.88256 0.2661 0.35428 0.0
C118 C 0.89031 0.28145 0.36814 0.0
C119 C 0.88544 0.27618 0.38948 0.0
C120 C 0.87471 0.25669 0.38899 0.0
C121 C 0.8736 0.25111 0.36746 0.0
N122 N 0.86514 0.23845 0.3207 0.0
C123 C 0.8578 0.2267 0.33753 0.0
C124 C 0.8421 0.21205 0.3315 0.0
C125 C 0.83941 0.21484 0.30951 0.0
C126 C 0.85376 0.23101 0.30329 0.0
N127 N 0.91013 0.24202 0.32825 0.0
C128 C 0.93903 0.20997 0.34402 0.0
C129 C 0.92404 0.20526 0.32744 0.0
C130 C 0.90996 0.22153 0.31963 0.0
C131 C 0.93999 0.23145 0.35142 0.0
C132 C 0.92562 0.24705 0.34337 0.0
N133 N 0.86195 0.28297 0.31701 0.0
C134 C 0.82496 0.2933 0.32498 0.0
C135 C 0.8245 0.30764 0.30738 0.0
C136 C 0.84354 0.30974 0.29495 0.0
C137 C 0.86213 0.29745 0.30016 0.0
C138 C 0.84361 0.28118 0.32942 0.0
H139 H 0.87645 0.29932 0.29028 0.0
H140 H 0.84281 0.2698 0.3426 0.0
H141 H 0.89833 0.21725 0.30723 0.0
H142 H 0.92649 0.26293 0.35039 0.0
C143 C 0.92133 0.28187 0.28768 0.0
C144 C 0.85698 0.23861 0.2808 0.0
C145 C 0.90436 0.29979 0.36205 0.0
C146 C 0.8628 0.23298 0.35884 0.0
H147 H 0.88024 0.24351 0.24034 0.0
H148 H 0.91681 0.26593 0.24439 0.0
H149 H 0.94611 0.31809 0.30256 0.0
H150 H 0.93488 0.32923 0.3425 0.0
H151 H 0.88978 0.28519 0.40392 0.0
H152 H 0.86845 0.2477 0.40272 0.0
H153 H 0.83279 0.20148 0.34199 0.0
H154 H 0.82798 0.2062 0.29939 0.0
H155 H 0.92287 0.18904 0.3208 0.0
H156 H 0.95101 0.23611 0.36429 0.0
H157 H 0.8107 0.29085 0.33494 0.0
H158 H 0.84412 0.32082 0.28133 0.0
C159 C 0.47772 0.92491 0.9662 0.0
C160 C 0.46447 0.94254 0.96156 0.0
C161 C 0.47058 0.95014 0.9416 0.0
C162 C 0.48703 0.93668 0.93501 0.0
N163 N 0.49131 0.92066 0.94932 0.0
Co164 Co 0.51472 0.89854 0.94605 0.0
N165 N 0.51944 0.90576 0.91486 0.0
C166 C 0.51234 0.92366 0.90462 0.0
C167 C 0.51756 0.92384 0.88293 0.0
C168 C 0.52862 0.90483 0.87931 0.0
C169 C 0.52953 0.89411 0.89906 0.0
N170 N 0.53845 0.87686 0.94292 0.0
C171 C 0.54719 0.86799 0.92483 0.0
C172 C 0.56356 0.85339 0.92999 0.0
C173 C 0.56495 0.853 0.95214 0.0
C174 C 0.54947 0.86735 0.95919 0.0
N175 N 0.50999 0.89071 0.97719 0.0
C176 C 0.52344 0.87841 0.98933 0.0
C177 C 0.51675 0.87596 1.01034 0.0
C178 C 0.49815 0.88785 1.01186 0.0
C179 C 0.49446 0.89706 0.99156 0.0
N180 N 0.4931 0.87664 0.93698 0.0
C181 C 0.4636 0.84566 0.92032 0.0
C182 C 0.47987 0.83967 0.9352 0.0
C183 C 0.49428 0.85542 0.9435 0.0
C184 C 0.46239 0.86754 0.91434 0.0
C185 C 0.47717 0.88257 0.92268 0.0
N186 N 0.53611 0.92101 0.95458 0.0
C187 C 0.54462 0.95227 0.97667 0.0
C188 C 0.56219 0.95777 0.96337 0.0
C189 C 0.56693 0.94386 0.94592 0.0
C190 C 0.55387 0.92549 0.94197 0.0
C191 C 0.53202 0.93402 0.9721 0.0
H192 H 0.55786 0.91524 0.92835 0.0
H193 H 0.51849 0.93106 0.98252 0.0
H194 H 0.50661 0.85034 0.95485 0.0
H195 H 0.47593 0.89897 0.91693 0.0
C196 C 0.49771 0.93761 0.91494 0.0
C197 C 0.47891 0.91492 0.98797 0.0
C198 C 0.54081 0.8734 0.9026 0.0
C199 C 0.54185 0.86882 0.98037 0.0
H200 H 0.4523 0.94972 0.97197 0.0
H201 H 0.46387 0.96389 0.93297 0.0
H202 H 0.51298 0.93584 0.87094 0.0
H203 H 0.53514 0.89941 0.86395 0.0
H204 H 0.57327 0.84381 0.91894 0.0
H205 H 0.57518 0.84258 0.96192 0.0
H206 H 0.52466 0.86692 0.02316 0.0
H207 H 0.48918 0.89027 0.0267 0.0
H208 H 0.48148 0.82297 0.9404 0.0
H209 H 0.45051 0.87303 0.9026 0.0
H210 H 0.54005 0.96242 0.99026 0.0
H211 H 0.58059 0.94713 0.93538 0.0
C212 C 0.1491 0.75066 0.25029 0.0
C213 C 0.13977 0.75165 0.27077 0.0
C214 C 0.12069 0.76281 0.26849 0.0
C215 C 0.11939 0.76786 0.24683 0.0
N216 N 0.13636 0.76044 0.23531 0.0
Co217 Co 0.14081 0.76396 0.20359 0.0
N218 N 0.11989 0.7886 0.20223 0.0
C219 C 0.10573 0.79416 0.21794 0.0
C220 C 0.09309 0.81167 0.21265 0.0
C221 C 0.09926 0.81728 0.19211 0.0
C222 C 0.1153 0.80269 0.1859 0.0
N223 N 0.14472 0.76704 0.17162 0.0
C224 C 0.13694 0.78219 0.15753 0.0
C225 C 0.142 0.77676 0.13629 0.0
C226 C 0.15289 0.75738 0.13705 0.0
C227 C 0.15388 0.752 0.15864 0.0
N228 N 0.16202 0.73971 0.20558 0.0
C229 C 0.16954 0.72789 0.18889 0.0
C230 C 0.18521 0.71329 0.19514 0.0
C231 C 0.18767 0.71618 0.21713 0.0
C232 C 0.17323 0.73234 0.22314 0.0
N233 N 0.11707 0.74304 0.19774 0.0
C234 C 0.08829 0.7107 0.18235 0.0
C235 C 0.10321 0.70628 0.19907 0.0
C236 C 0.11723 0.72268 0.20669 0.0
C237 C 0.08735 0.73206 0.17459 0.0
C238 C 0.10166 0.74781 0.18246 0.0
N239 N 0.16503 0.78428 0.20891 0.0
C240 C 0.20213 0.79454 0.20128 0.0
C241 C 0.20248 0.80883 0.21892 0.0
C242 C 0.18331 0.811 0.23114 0.0
C243 C 0.16474 0.79878 0.22573 0.0
C244 C 0.18348 0.78247 0.19666 0.0
H245 H 0.15032 0.80069 0.23548 0.0
H246 H 0.18438 0.77109 0.1835 0.0
H247 H 0.12879 0.71861 0.21922 0.0
H248 H 0.1008 0.76358 0.17519 0.0
C249 C 0.10555 0.78335 0.23786 0.0
C250 C 0.16978 0.73999 0.24557 0.0
C251 C 0.12263 0.80043 0.16331 0.0
C252 C 0.1647 0.734 0.1675 0.0
H253 H 0.14626 0.7453 0.28581 0.0
H254 H 0.10978 0.76779 0.28132 0.0
H255 H 0.08072 0.81933 0.22247 0.0
H256 H 0.09199 0.82999 0.1824 0.0
H257 H 0.13768 0.78559 0.12172 0.0
H258 H 0.1593 0.7483 0.12346 0.0
H259 H 0.19462 0.70267 0.1848 0.0
H260 H 0.19901 0.70758 0.22741 0.0
H261 H 0.10437 0.69017 0.20598 0.0
H262 H 0.07639 0.7365 0.16159 0.0
H263 H 0.21648 0.79205 0.19146 0.0
H264 H 0.18263 0.82206 0.24477 0.0
C265 C 0.9845 0.59802 0.05881 0.0
C266 C 0.97343 0.57862 0.06176 0.0
C267 C 0.97948 0.57072 0.08163 0.0
C268 C 0.9939 0.58561 0.08974 0.0
N269 N 0.99698 0.60274 0.07646 0.0
Co270 Co 0.01882 0.62619 0.08125 0.0
N271 N 0.02348 0.61786 0.11222 0.0
C272 C 0.01722 0.59915 0.12152 0.0
C273 C 0.02227 0.59817 0.14324 0.0
C274 C 0.03237 0.61749 0.14787 0.0
C275 C 0.03293 0.62918 0.12867 0.0
N276 N 0.04118 0.64909 0.0857 0.0
C277 C 0.04964 0.65725 0.10428 0.0
C278 C 0.06514 0.67303 0.09995 0.0
C279 C 0.06625 0.67495 0.07789 0.0
C280 C 0.05149 0.66027 0.07001 0.0
N281 N 0.01381 0.63543 0.05057 0.0
C282 C 0.02594 0.64971 0.03929 0.0
C283 C 0.0182 0.65374 0.01883 0.0
C284 C 1.00031 0.64082 0.01678 0.0
C285 C 0.99832 0.62935 0.03609 0.0
N286 N 0.99573 0.64617 0.09091 0.0
C287 C 0.96337 0.67415 0.10752 0.0
C288 C 0.97931 0.68177 0.09303 0.0
C289 C 0.99525 0.66755 0.08489 0.0
C290 C 0.96403 0.65213 0.11315 0.0
C291 C 0.98012 0.63859 0.10474 0.0
N292 N 0.04161 0.60536 0.07208 0.0
C293 C 0.05152 0.57575 0.04837 0.0
C294 C 0.06624 0.56741 0.06364 0.0
C295 C 0.0699 0.58004 0.08235 0.0
C296 C 0.05784 0.59913 0.08596 0.0
C297 C 0.03935 0.5943 0.05297 0.0
H298 H 0.06098 0.60816 0.10061 0.0
H299 H 0.02738 0.59889 0.04131 0.0
H300 H 1.00731 0.67393 0.07395 0.0
H301 H 0.98009 0.62196 0.10995 0.0
C302 C 1.00403 0.5846 0.11011 0.0
C303 C 0.98474 0.60986 0.03802 0.0
C304 C 0.04367 0.65033 0.12619 0.0
C305 C 0.04375 0.65988 0.04879 0.0
H306 H 0.96269 0.5706 0.05043 0.0
H307 H 0.97417 0.55577 0.08916 0.0
H308 H 0.0184 0.58529 0.15453 0.0
H309 H 0.03868 0.6224 0.16351 0.0
H310 H 0.0744 0.68245 0.11153 0.0
H311 H 0.07576 0.68655 0.06875 0.0
H312 H 0.02488 0.66461 1.00676 0.0
H313 H 0.9906 0.63901 1.00224 0.0
H314 H 0.97952 0.6986 0.088 0.0
H315 H 0.95258 0.64537 0.12462 0.0
H316 H 0.04878 0.56779 0.03297 0.0
H317 H 0.08131 0.57495 0.09467 0.0
C318 C 0.88118 0.77374 0.24942 0.0
C319 C 0.89003 0.77041 0.26992 0.0
C320 C 0.90846 0.75843 0.26708 0.0
C321 C 0.90972 0.75481 0.24519 0.0
N322 N 0.89325 0.76378 0.23395 0.0
Co323 Co 0.88829 0.76114 0.20209 0.0
N324 N 0.90877 0.73615 0.19977 0.0
C325 C 0.92285 0.72965 0.2152 0.0
C326 C 0.93494 0.71194 0.20935 0.0
C327 C 0.92846 0.70714 0.18872 0.0
C328 C 0.9128 0.72237 0.18306 0.0
N329 N 0.8838 0.75886 0.17008 0.0
C330 C 0.89112 0.74393 0.15553 0.0
C331 C 0.88573 0.74986 0.13449 0.0
C332 C 0.87511 0.76935 0.13584 0.0
C333 C 0.87458 0.77426 0.15756 0.0
N334 N 0.86758 0.78577 0.20486 0.0
C335 C 0.86011 0.79811 0.18849 0.0
C336 C 0.84564 0.81365 0.19529 0.0
C337 C 0.84392 0.81089 0.21734 0.0
C338 C 0.85743 0.79374 0.22277 0.0
N339 N 0.9123 0.78182 0.19641 0.0
C340 C 0.94121 0.81416 0.1812 0.0
C341 C 0.92674 0.81835 0.19835 0.0
C342 C 0.91267 0.80194 0.20586 0.0
C343 C 0.94167 0.79298 0.17292 0.0
C344 C 0.92731 0.77723 0.1807 0.0
N345 N 0.86386 0.74094 0.20717 0.0
C346 C 0.82674 0.73062 0.19947 0.0
C347 C 0.82715 0.7146 0.21561 0.0
C348 C 0.84666 0.71188 0.22722 0.0
C349 C 0.86479 0.72507 0.22268 0.0
C350 C 0.84505 0.7435 0.19558 0.0
H351 H 0.87944 0.7226 0.23193 0.0
H352 H 0.84371 0.75591 0.18339 0.0
H353 H 0.90148 0.80586 0.21874 0.0
H354 H 0.92778 0.76162 0.17305 0.0
C355 C 0.92309 0.73941 0.23555 0.0
C356 C 0.86154 0.78658 0.24519 0.0
C357 C 0.90522 0.72536 0.16066 0.0
C358 C 0.86435 0.7923 0.16693 0.0
H359 H 0.88374 0.77552 0.28545 0.0
H360 H 0.91885 0.7519 0.27966 0.0
H361 H 0.94703 0.70353 0.21893 0.0
H362 H 0.93522 0.69446 0.17864 0.0
H363 H 0.88968 0.7413 0.11968 0.0
H364 H 0.8686 0.77883 0.12256 0.0
H365 H 0.83678 0.8251 0.18533 0.0
H366 H 0.83398 0.82045 0.2282 0.0
H367 H 0.92598 0.83428 0.20569 0.0
H368 H 0.95228 0.78871 0.15959 0.0
H369 H 0.81212 0.73369 0.19022 0.0
H370 H 0.848 0.69958 0.23969 0.0
C371 C 0.04574 0.92878 0.06024 0.0
C372 C 0.05774 0.94745 0.06414 0.0
C373 C 0.05139 0.95518 0.08397 0.0
C374 C 0.03606 0.94078 0.09123 0.0
N375 N 0.03274 0.92406 0.07748 0.0
Co376 Co 1.01084 0.90062 0.08166 0.0
N377 N 1.00586 0.90846 0.1127 0.0
C378 C 1.01205 0.927 0.12237 0.0
C379 C 1.00687 0.92759 0.14406 0.0
C380 C 0.99677 0.90818 0.1483 0.0
C381 C 0.99635 0.89683 0.12891 0.0
N382 N 0.98842 0.87769 0.0856 0.0
C383 C 0.97995 0.8691 0.10397 0.0
C384 C 0.96441 0.85347 0.09927 0.0
C385 C 0.96327 0.8521 0.07716 0.0
C386 C 0.97806 0.86694 0.06966 0.0
N387 N 0.01607 0.89194 0.0508 0.0
C388 C 1.00352 0.87829 0.03917 0.0
C389 C 1.01043 0.87538 0.0183 0.0
C390 C 0.02821 0.88839 0.01629 0.0
C391 C 0.03122 0.89867 0.03618 0.0
N392 N 0.03382 0.88045 0.09138 0.0
C393 C 0.06542 0.85213 0.109 0.0
C394 C 0.0497 0.84462 0.09418 0.0
C395 C 0.03416 0.85904 0.08548 0.0
C396 C 0.06499 0.8742 0.11436 0.0
C397 C 0.04927 0.8879 0.10549 0.0
N398 N 0.98816 0.92162 0.0725 0.0
C399 C 0.97808 0.95148 0.04912 0.0
C400 C 0.96283 0.95919 0.06419 0.0
C401 C 0.95918 0.94616 0.08264 0.0
C402 C 0.97158 0.92728 0.08617 0.0
C403 C 0.99062 0.93314 0.05367 0.0
H404 H 0.96837 0.91791 0.1006 0.0
H405 H 1.00292 0.92911 0.04213 0.0
H406 H 0.02223 0.85278 0.0743 0.0
H407 H 0.0494 0.9045 0.11069 0.0
C408 C 0.02563 0.94156 0.11143 0.0
C409 C 0.04535 0.91779 0.03895 0.0
C410 C 0.98584 0.87559 0.12604 0.0
C411 C 0.98569 0.86799 0.04848 0.0
H412 H 0.06929 0.95513 0.05338 0.0
H413 H 0.05722 0.96962 0.09208 0.0
H414 H 1.01075 0.94022 0.15563 0.0
H415 H 0.99046 0.90296 0.16383 0.0
H416 H 0.95508 0.84384 0.11061 0.0
H417 H 0.95368 0.8408 0.06774 0.0
H418 H 1.00315 0.86534 1.00587 0.0
H419 H 0.03701 0.8908 1.00134 0.0
H420 H 0.04934 0.82774 0.08934 0.0
H421 H 0.07628 0.88089 0.12604 0.0
H422 H 0.98093 0.95972 0.0339 0.0
H423 H 0.94745 0.95075 0.09483 0.0
C424 C 0.27645 0.14146 0.28086 0.0
C425 C 0.25663 0.13088 0.27907 0.0
C426 C 0.25844 0.11676 0.26211 0.0
C427 C 0.27926 0.11927 0.25472 0.0
N428 N 0.29101 0.13368 0.26622 0.0
Co429 Co 0.32222 0.14126 0.26122 0.0
N430 N 0.32561 0.11783 0.23914 0.0
C431 C 0.30937 0.10707 0.22922 0.0
C432 C 0.3164 0.09213 0.21434 0.0
C433 C 0.33851 0.09336 0.21494 0.0
C434 C 0.34373 0.10898 0.23034 0.0
N435 N 0.35366 0.14788 0.25672 0.0
C436 C 0.36953 0.13587 0.24708 0.0
C437 C 0.38937 0.14644 0.24808 0.0
C438 C 0.38577 0.16576 0.25851 0.0
C439 C 0.36403 0.16589 0.26338 0.0
N440 N 0.31839 0.16541 0.28261 0.0
C441 C 0.33274 0.18162 0.28591 0.0
C442 C 0.3252 0.19746 0.29956 0.0
C443 C 0.30455 0.19128 0.30482 0.0
C444 C 0.3006 0.17188 0.29409 0.0
N445 N 0.33089 0.12103 0.28467 0.0
C446 C 0.348 0.0922 0.31615 0.0
C447 C 0.35292 0.11438 0.31649 0.0
C448 C 0.34437 0.12833 0.30076 0.0
C449 C 0.33376 0.08486 0.29987 0.0
C450 C 0.32524 0.09952 0.28447 0.0
N451 N 0.31427 0.16223 0.23801 0.0
C452 C 0.32619 0.18683 0.20975 0.0
C453 C 0.30797 0.20028 0.2129 0.0
C454 C 0.29211 0.19283 0.22738 0.0
C455 C 0.29559 0.17411 0.23968 0.0
C456 C 0.32874 0.16773 0.22205 0.0
H457 H 0.28336 0.17 0.25114 0.0
H458 H 0.34302 0.15804 0.21923 0.0
H459 H 0.34941 0.14497 0.30136 0.0
H460 H 0.31448 0.09331 0.27216 0.0
C461 C 0.2883 0.1083 0.2372 0.0
C462 C 0.27898 0.16171 0.29312 0.0
C463 C 0.36606 0.11512 0.23576 0.0
C464 C 0.35333 0.18112 0.27632 0.0
H465 H 0.24196 0.13413 0.28815 0.0
H466 H 0.24592 0.1063 0.25561 0.0
H467 H 0.30667 0.08087 0.205 0.0
H468 H 0.34949 0.08362 0.20532 0.0
H469 H 0.40478 0.14081 0.24184 0.0
H470 H 0.39773 0.17795 0.26262 0.0
H471 H 0.33356 0.21201 0.30474 0.0
H472 H 0.2934 0.2005 0.31474 0.0
H473 H 0.3641 0.12093 0.32837 0.0
H474 H 0.32929 0.0679 0.29894 0.0
H475 H 0.33888 0.19126 0.19848 0.0
H476 H 0.27705 0.20156 0.22971 0.0
C477 C 0.42758 0.46998 0.98451 0.0
C478 C 0.44715 0.46759 0.97364 0.0
C479 C 0.45511 0.44756 0.97905 0.0
C480 C 0.44009 0.43881 0.99293 0.0
N481 N 0.4228 0.45183 0.99624 0.0
Co482 Co 0.39924 0.44613 0.01778 0.0
N483 N 0.40787 0.41515 0.02169 0.0
C484 C 0.42666 0.40619 0.0152 0.0
C485 C 0.42781 0.38436 0.01963 0.0
C486 C 0.4085 0.37927 0.02954 0.0
C487 C 0.39665 0.39834 0.03063 0.0
N488 N 0.37629 0.44087 0.03991 0.0
C489 C 0.36834 0.42202 0.04793 0.0
C490 C 0.3525 0.4258 0.0635 0.0
C491 C 0.35028 0.44779 0.06508 0.0
C492 C 0.36486 0.45617 0.05052 0.0
N493 N 0.38965 0.47682 0.01347 0.0
C494 C 0.37497 0.48753 0.02562 0.0
C495 C 0.37067 0.50809 0.01833 0.0
C496 C 0.38384 0.51083 1.00073 0.0
C497 C 0.39573 0.49181 0.99849 0.0
N498 N 0.37947 0.43665 0.99432 0.0
C499 C 0.35167 0.41862 0.96246 0.0
C500 C 0.34365 0.43262 0.97865 0.0
C501 C 0.35779 0.44153 0.99431 0.0
C502 C 0.37401 0.41441 0.96247 0.0
C503 C 0.38745 0.42349 0.97832 0.0
N504 N 0.41988 0.45493 0.04095 0.0
C505 C 0.44952 0.47834 0.05159 0.0
C506 C 0.45786 0.46264 0.06589 0.0
C507 C 0.44518 0.44387 0.06899 0.0
C508 C 0.42608 0.44062 0.05682 0.0
C509 C 0.43092 0.4741 0.03928 0.0
H510 H 0.41704 0.42589 0.05954 0.0
H511 H 0.42627 0.48611 0.02769 0.0
H512 H 0.35109 0.45198 1.00662 0.0
H513 H 0.4043 0.41913 0.97791 0.0
C514 C 0.44117 0.41814 1.00244 0.0
C515 C 0.41556 0.49067 0.98532 0.0
C516 C 0.37543 0.40034 0.04136 0.0
C517 C 0.36488 0.47751 0.04317 0.0
H518 H 0.45524 0.47939 0.96348 0.0
H519 H 0.47022 0.44037 0.97372 0.0
H520 H 0.44079 0.37329 0.01548 0.0
H521 H 0.4037 0.36341 0.03537 0.0
H522 H 0.34321 0.41391 0.07248 0.0
H523 H 0.33852 0.45656 0.07473 0.0
H524 H 0.35951 0.5198 0.02515 0.0
H525 H 0.38554 0.52564 0.99144 0.0
H526 H 0.32656 0.43662 0.97932 0.0
H527 H 0.38115 0.40343 0.95078 0.0
H528 H 0.4575 0.49379 0.0493 0.0
H529 H 0.45022 0.43121 0.08004 0.0
C530 C 0.75103 0.37759 0.2754 0.0
C531 C 0.77153 0.38678 0.27385 0.0
C532 C 0.76915 0.40564 0.26232 0.0
C533 C 0.7474 0.40694 0.25762 0.0
N534 N 0.73594 0.39018 0.26561 0.0
Co535 Co 0.70415 0.38579 0.26274 0.0
N536 N 0.70246 0.4061 0.23761 0.0
C537 C 0.71813 0.42007 0.23147 0.0
C538 C 0.71259 0.43234 0.21376 0.0
C539 C 0.69193 0.42611 0.20864 0.0
C540 C 0.68591 0.41041 0.22368 0.0
N541 N 0.67212 0.38195 0.26032 0.0
C542 C 0.6578 0.38947 0.24526 0.0
C543 C 0.63662 0.38462 0.25117 0.0
C544 C 0.63768 0.37417 0.27078 0.0
C545 C 0.65937 0.37319 0.27579 0.0
N546 N 0.70646 0.36516 0.28746 0.0
C547 C 0.68995 0.35798 0.29974 0.0
C548 C 0.69639 0.34259 0.31456 0.0
C549 C 0.7183 0.33993 0.31131 0.0
C550 C 0.72409 0.354 0.29473 0.0
N551 N 0.69877 0.41005 0.28313 0.0
C552 C 0.68384 0.43959 0.31493 0.0
C553 C 0.70055 0.42473 0.31955 0.0
C554 C 0.70793 0.41031 0.3034 0.0
C555 C 0.67589 0.4401 0.29362 0.0
C556 C 0.68354 0.42543 0.27814 0.0
N557 N 0.70899 0.36111 0.24291 0.0
C558 C 0.70098 0.32388 0.23353 0.0
C559 C 0.71824 0.32325 0.2188 0.0
C560 C 0.73048 0.34233 0.216 0.0
C561 C 0.72546 0.36111 0.22801 0.0
C562 C 0.69673 0.34275 0.24537 0.0
H563 H 0.73519 0.37545 0.2256 0.0
H564 H 0.68383 0.34211 0.25707 0.0
H565 H 0.72044 0.39879 0.30761 0.0
H566 H 0.67612 0.42599 0.26244 0.0
C567 C 0.73823 0.42045 0.24195 0.0
C568 C 0.74639 0.35715 0.28657 0.0
C569 C 0.66332 0.40331 0.22658 0.0
C570 C 0.66849 0.36276 0.29389 0.0
H571 H 0.78665 0.38036 0.28007 0.0
H572 H 0.78194 0.41636 0.25687 0.0
H573 H 0.72231 0.44452 0.20567 0.0
H574 H 0.68202 0.43318 0.19597 0.0
H575 H 0.62193 0.38881 0.2425 0.0
H576 H 0.62423 0.36804 0.28025 0.0
H577 H 0.68619 0.33345 0.32554 0.0
H578 H 0.72865 0.32869 0.31994 0.0
H579 H 0.7076 0.4239 0.33562 0.0
H580 H 0.66288 0.45099 0.28904 0.0
H581 H 0.69117 0.30961 0.23649 0.0
H582 H 0.74381 0.34277 0.20458 0.0
C583 C 0.59703 0.05896 0.98333 0.0
C584 C 0.57741 0.06195 0.97265 0.0
C585 C 0.56967 0.08182 0.97886 0.0
C586 C 0.58487 0.08989 0.99297 0.0
N587 N 0.60207 0.07661 0.99571 0.0
Co588 Co 0.62598 0.08137 0.01713 0.0
N589 N 0.61754 0.11223 0.02225 0.0
C590 C 0.59869 0.12149 0.01635 0.0
C591 C 0.59763 0.14313 0.02165 0.0
C592 C 0.61706 0.14777 0.03155 0.0
C593 C 0.62888 0.12865 0.03174 0.0
N594 N 0.64935 0.08575 0.03905 0.0
C595 C 0.6575 0.10428 0.04762 0.0
C596 C 0.67366 0.09988 0.06273 0.0
C597 C 0.67583 0.07783 0.06346 0.0
C598 C 0.66092 0.07003 0.0489 0.0
N599 N 0.63524 0.05075 1.01166 0.0
C600 C 0.64993 0.03949 0.02332 0.0
C601 C 0.65374 0.01904 0.01548 0.0
C602 C 0.64022 0.01695 0.99804 0.0
C603 C 0.62866 0.03624 0.9964 0.0
N604 N 0.64547 0.09147 0.99374 0.0
C605 C 0.67317 0.1099 0.96205 0.0
C606 C 0.68106 0.095 0.97749 0.0
C607 C 0.66698 0.08595 0.99308 0.0
C608 C 0.65097 0.11483 0.9627 0.0
C609 C 0.63757 0.10551 0.97845 0.0
N610 N 0.60575 0.07189 0.04033 0.0
C611 C 0.57648 0.04811 0.05102 0.0
C612 C 0.56898 0.06302 0.06651 0.0
C613 C 0.58185 0.08159 0.06999 0.0
C614 C 0.60034 0.08544 0.05712 0.0
C615 C 0.59448 0.05292 0.03812 0.0
H616 H 0.60957 0.09999 0.06014 0.0
H617 H 0.59849 0.04154 0.02572 0.0
H618 H 0.67362 0.07481 1.00483 0.0
H619 H 0.62082 0.11032 0.97854 0.0
C620 C 0.58399 0.11015 1.00327 0.0
C621 C 0.60876 0.03811 0.9834 0.0
C622 C 0.65021 0.12621 0.04215 0.0
C623 C 0.6605 0.04891 0.04094 0.0
H624 H 0.56913 0.05062 0.96211 0.0
H625 H 0.55459 0.08934 0.97389 0.0
H626 H 0.58462 0.15438 0.01809 0.0
H627 H 0.62195 0.16337 0.03796 0.0
H628 H 0.68313 0.11141 0.07199 0.0
H629 H 0.68771 0.06868 0.07262 0.0
H630 H 0.66481 1.00698 0.02186 0.0
H631 H 0.6381 1.00241 0.98843 0.0
H632 H 0.698 0.09039 0.97764 0.0
H633 H 0.64395 0.12649 0.9516 0.0
H634 H 0.56825 0.03285 0.04828 0.0
H635 H 0.57735 0.09363 0.08193 0.0
C636 C 0.27618 0.87805 0.25223 0.0
C637 C 0.25572 0.88734 0.25378 0.0
C638 C 0.25815 0.90611 0.2654 0.0
C639 C 0.27989 0.90729 0.27016 0.0
N640 N 0.29131 0.89053 0.26212 0.0
Co641 Co 0.32309 0.88603 0.26503 0.0
N642 N 0.32483 0.90631 0.29018 0.0
C643 C 0.30919 0.92031 0.29633 0.0
C644 C 0.31477 0.93256 0.31403 0.0
C645 C 0.33542 0.92629 0.31915 0.0
C646 C 0.3414 0.91059 0.3041 0.0
N647 N 0.35512 0.88208 0.2675 0.0
C648 C 0.36945 0.88953 0.28259 0.0
C649 C 0.39061 0.88461 0.2767 0.0
C650 C 0.38954 0.87418 0.25709 0.0
C651 C 0.36786 0.87329 0.25205 0.0
N652 N 0.32074 0.86545 0.24028 0.0
C653 C 0.33725 0.85822 0.22803 0.0
C654 C 0.3308 0.84291 0.21315 0.0
C655 C 0.30886 0.84036 0.2163 0.0
C656 C 0.30308 0.85441 0.23289 0.0
N657 N 0.32856 0.91028 0.24466 0.0
C658 C 0.34362 0.93971 0.21281 0.0
C659 C 0.32679 0.92497 0.20824 0.0
C660 C 0.31934 0.91061 0.22442 0.0
C661 C 0.35161 0.94018 0.2341 0.0
C662 C 0.34389 0.92557 0.24961 0.0
N663 N 0.31814 0.86134 0.28483 0.0
C664 C 0.32593 0.82403 0.29408 0.0
C665 C 0.3086 0.82342 0.30872 0.0
C666 C 0.29646 0.84254 0.31157 0.0
C667 C 0.30163 0.86135 0.29967 0.0
C668 C 0.33033 0.84293 0.28235 0.0
H669 H 0.29195 0.87573 0.30209 0.0
H670 H 0.34327 0.84228 0.27069 0.0
H671 H 0.30675 0.89917 0.22024 0.0
H672 H 0.35134 0.92608 0.26531 0.0
C673 C 0.2891 0.92073 0.28585 0.0
C674 C 0.28074 0.85767 0.24092 0.0
C675 C 0.36397 0.90339 0.30126 0.0
C676 C 0.35872 0.86292 0.23393 0.0
H677 H 0.24058 0.88103 0.24748 0.0
H678 H 0.2454 0.91688 0.27085 0.0
H679 H 0.30507 0.94475 0.32212 0.0
H680 H 0.34535 0.93332 0.33182 0.0
H681 H 0.40531 0.88873 0.28539 0.0
H682 H 0.40298 0.868 0.24764 0.0
H683 H 0.34099 0.83377 0.20217 0.0
H684 H 0.29849 0.82921 0.20759 0.0
H685 H 0.31969 0.92418 0.19219 0.0
H686 H 0.3647 0.95098 0.23864 0.0
H687 H 0.33568 0.80972 0.29109 0.0
H688 H 0.28307 0.843 0.32293 0.0
C689 C 0.09857 0.4639 0.04433 0.0
C690 C 0.08009 0.4601 0.05662 0.0
C691 C 0.0722 0.44027 0.05045 0.0
C692 C 0.08633 0.43293 0.03493 0.0
N693 N 0.103 0.44664 0.03128 0.0
Co694 Co 0.12608 0.44235 1.00903 0.0
N695 N 0.11819 0.41126 1.00439 0.0
C696 C 0.09974 0.40164 1.01091 0.0
C697 C 0.09899 0.37995 1.00576 0.0
C698 C 0.11819 0.37566 0.9953 0.0
C699 C 0.12959 0.39502 0.99466 0.0
N700 N 0.14867 0.43829 0.98628 0.0
C701 C 0.15709 0.41987 0.97772 0.0
C702 C 0.17252 0.42451 0.96197 0.0
C703 C 0.17388 0.44661 0.96072 0.0
C704 C 0.15925 0.45417 0.97568 0.0
N705 N 0.13476 0.47327 0.01385 0.0
C706 C 0.1481 0.48486 1.00096 0.0
C707 C 0.15112 0.50577 1.00773 0.0
C708 C 0.13854 0.50782 0.0258 0.0
C709 C 0.12838 0.48791 0.02911 0.0
N710 N 0.14662 0.43296 0.03179 0.0
C711 C 0.17521 0.41682 0.06393 0.0
C712 C 0.18244 0.43144 0.04791 0.0
C713 C 0.16789 0.43938 0.03209 0.0
C714 C 0.15331 0.41075 0.06341 0.0
C715 C 0.13948 0.4189 0.04743 0.0
N716 N 0.10467 0.45127 0.98663 0.0
C717 C 0.07443 0.47436 0.97707 0.0
C718 C 0.06656 0.45919 0.96199 0.0
C719 C 0.07966 0.44085 0.95812 0.0
C720 C 0.09881 0.4375 0.97019 0.0
C721 C 0.09304 0.47 0.98927 0.0
H722 H 0.10822 0.42313 0.96686 0.0
H723 H 0.09722 0.48159 1.0015 0.0
H724 H 0.1739 0.45049 0.01998 0.0
H725 H 0.123 0.41331 0.04758 0.0
C726 C 0.08538 0.41266 0.02462 0.0
C727 C 0.10971 0.48512 0.04379 0.0
C728 C 0.15056 0.39783 0.98364 0.0
C729 C 0.1582 0.47543 0.9831 0.0
H730 H 0.07265 0.47091 0.06829 0.0
H731 H 0.05786 0.4322 0.05656 0.0
H732 H 0.08638 0.36843 1.00983 0.0
H733 H 0.12323 0.36013 0.98885 0.0
H734 H 0.18201 0.41314 0.95255 0.0
H735 H 0.18502 0.45599 0.95091 0.0
H736 H 0.16102 0.51818 1.00022 0.0
H737 H 0.13632 0.52277 0.03464 0.0
H738 H 0.19918 0.43674 0.04757 0.0
H739 H 0.14687 0.39914 0.07491 0.0
H740 H 0.0661 0.48951 0.98004 0.0
H741 H 0.07494 0.4286 0.94648 0.0
C742 C 0.75158 0.64393 0.2477 0.0
C743 C 0.77154 0.63366 0.24966 0.0
C744 C 0.76967 0.61919 0.26632 0.0
C745 C 0.74869 0.6212 0.27338 0.0
N746 N 0.73689 0.63563 0.26194 0.0
Co747 Co 0.70547 0.64258 0.26661 0.0
N748 N 0.70207 0.61859 0.28811 0.0
C749 C 0.71834 0.60784 0.29802 0.0
C750 C 0.71133 0.59249 0.3125 0.0
C751 C 0.68922 0.59346 0.31166 0.0
C752 C 0.68396 0.60934 0.29653 0.0
N753 N 0.67387 0.64867 0.2708 0.0
C754 C 0.65803 0.63629 0.28002 0.0
C755 C 0.63808 0.64664 0.27894 0.0
C756 C 0.64157 0.6662 0.26892 0.0
C757 C 0.66337 0.66669 0.26435 0.0
N758 N 0.70928 0.66725 0.24578 0.0
C759 C 0.69476 0.68333 0.24264 0.0
C760 C 0.70222 0.69952 0.22933 0.0
C761 C 0.72299 0.69369 0.22413 0.0
C762 C 0.72708 0.67413 0.23454 0.0
N763 N 0.69741 0.62273 0.24261 0.0
C764 C 0.68042 0.59408 0.21088 0.0
C765 C 0.67547 0.61626 0.21066 0.0
C766 C 0.68397 0.63013 0.22651 0.0
C767 C 0.69474 0.58669 0.22707 0.0
C768 C 0.70321 0.60126 0.24258 0.0
N769 N 0.71275 0.66305 0.29045 0.0
C770 C 0.70014 0.68606 0.31973 0.0
C771 C 0.71806 0.70003 0.31735 0.0
C772 C 0.73421 0.69354 0.30265 0.0
C773 C 0.73116 0.67541 0.28938 0.0
C774 C 0.69809 0.66749 0.30657 0.0
H775 H 0.74351 0.67217 0.2777 0.0
H776 H 0.68403 0.65737 0.30887 0.0
H777 H 0.67886 0.64676 0.22606 0.0
H778 H 0.71398 0.59498 0.25484 0.0
C779 C 0.73951 0.60965 0.29045 0.0
C780 C 0.74881 0.66416 0.2354 0.0
C781 C 0.6616 0.61543 0.29112 0.0
C782 C 0.67405 0.68234 0.2519 0.0
H783 H 0.7863 0.63724 0.24084 0.0
H784 H 0.78225 0.60878 0.27282 0.0
H785 H 0.7211 0.5812 0.32176 0.0
H786 H 0.67826 0.58341 0.321 0.0
H787 H 0.62266 0.64073 0.28488 0.0
H788 H 0.62952 0.67833 0.26489 0.0
H789 H 0.69371 0.71404 0.22431 0.0
H790 H 0.7341 0.70321 0.21445 0.0
H791 H 0.66427 0.62287 0.19884 0.0
H792 H 0.69928 0.56974 0.22789 0.0
H793 H 0.68724 0.68968 0.33104 0.0
H794 H 0.74912 0.70261 0.30083 0.0
C795 C 0.92832 0.06204 0.04565 0.0
C796 C 0.94691 0.06594 0.05778 0.0
C797 C 0.95468 0.08576 0.05147 0.0
C798 C 0.94037 0.09301 0.03603 0.0
N799 N 0.92369 0.07925 0.0326 0.0
Co800 Co 0.90032 0.08344 1.01059 0.0
N801 N 0.90819 0.11449 1.00568 0.0
C802 C 0.92672 0.12415 1.01195 0.0
C803 C 0.92739 0.14582 1.0067 0.0
C804 C 0.90805 0.15007 0.99647 0.0
C805 C 0.89665 0.1307 0.99604 0.0
N806 N 0.87743 0.08741 0.98809 0.0
C807 C 0.8689 0.1058 0.97956 0.0
C808 C 0.85327 0.10111 0.96401 0.0
C809 C 0.85187 0.07901 0.96289 0.0
C810 C 0.86668 0.07149 0.97771 0.0
N811 N 0.89165 0.05256 0.01573 0.0
C812 C 0.87807 0.04093 1.00311 0.0
C813 C 0.87517 0.02005 1.01 0.0
C814 C 0.8881 0.01803 0.02785 0.0
C815 C 0.89833 0.03794 0.03092 0.0
N816 N 0.88008 0.09301 0.0335 0.0
C817 C 0.85166 0.10994 0.06529 0.0
C818 C 0.8443 0.09508 0.04955 0.0
C819 C 0.85876 0.08675 0.0339 0.0
C820 C 0.87362 0.11575 0.06475 0.0
C821 C 0.88737 0.1072 0.04894 0.0
N822 N 0.92136 0.07436 0.98799 0.0
C823 C 0.95114 0.05097 0.97787 0.0
C824 C 0.95883 0.06604 0.9626 0.0
C825 C 0.94584 0.08452 0.95898 0.0
C826 C 0.92699 0.08805 0.9714 0.0
C827 C 0.93287 0.05554 0.99046 0.0
H828 H 0.91762 0.10247 0.96818 0.0
H829 H 0.92886 0.044 1.00278 0.0
H830 H 0.85263 0.07552 0.02196 0.0
H831 H 0.90391 0.11265 0.04901 0.0
C832 C 0.94122 0.11322 0.0256 0.0
C833 C 0.91735 0.04074 0.04517 0.0
C834 C 0.87551 0.12785 0.98535 0.0
C835 C 0.86776 0.05028 0.9853 0.0
H836 H 0.95452 0.05518 0.0694 0.0
H837 H 0.96908 0.09389 0.0574 0.0
H838 H 0.94004 0.15736 1.01061 0.0
H839 H 0.9029 0.16558 0.99005 0.0
H840 H 0.84368 0.11246 0.95464 0.0
H841 H 0.84058 0.0696 0.95327 0.0
H842 H 0.86516 1.00761 1.00268 0.0
H843 H 0.89049 1.00309 0.03668 0.0
H844 H 0.82751 0.08992 0.04928 0.0
H845 H 0.88017 0.12749 0.07605 0.0
H846 H 0.95933 0.03571 0.98069 0.0
H847 H 0.9504 0.09672 0.94725 0.0
C848 C 0.27593 0.27537 0.14538 0.0
C849 C 0.2727 0.25493 0.13641 0.0
C850 C 0.26025 0.25778 0.11829 0.0
C851 C 0.25632 0.27963 0.11731 0.0
N852 N 0.26556 0.29083 0.13364 0.0
Co853 Co 0.26282 0.32262 0.13886 0.0
N854 N 0.23734 0.32491 0.11894 0.0
C855 C 0.23047 0.30944 0.1051 0.0
C856 C 0.21252 0.31528 0.09335 0.0
C857 C 0.20793 0.33596 0.09978 0.0
C858 C 0.22354 0.34166 0.11505 0.0
N859 N 0.2605 0.35463 0.14346 0.0
C860 C 0.24552 0.36921 0.13623 0.0
C861 C 0.25152 0.39024 0.14151 0.0
C862 C 0.27112 0.38888 0.15195 0.0
C863 C 0.27601 0.36716 0.15248 0.0
N864 N 0.28789 0.31989 0.15906 0.0
C865 C 0.30023 0.33627 0.16647 0.0
C866 C 0.31599 0.32945 0.18073 0.0
C867 C 0.31336 0.30737 0.18238 0.0
C868 C 0.29607 0.30197 0.16903 0.0
N869 N 0.28298 0.32848 0.11447 0.0
C870 C 0.31491 0.34393 0.08525 0.0
C871 C 0.31932 0.32669 0.09956 0.0
C872 C 0.30312 0.31906 0.11377 0.0
C873 C 0.29368 0.35214 0.08504 0.0
C874 C 0.27812 0.34421 0.09955 0.0
N875 N 0.24329 0.3172 0.16381 0.0
C876 C 0.23431 0.32437 0.20139 0.0
C877 C 0.21945 0.30718 0.20183 0.0
C878 C 0.21643 0.29542 0.18248 0.0
C879 C 0.22829 0.30081 0.16366 0.0
C880 C 0.24602 0.32899 0.18246 0.0
H881 H 0.22563 0.29141 0.14915 0.0
H882 H 0.25779 0.34183 0.18326 0.0
H883 H 0.30723 0.30613 0.12484 0.0
H884 H 0.26247 0.35176 0.09927 0.0
C885 C 0.24041 0.28919 0.10447 0.0
C886 C 0.28891 0.27958 0.1649 0.0
C887 C 0.22683 0.36412 0.12226 0.0
C888 C 0.29424 0.35782 0.16242 0.0
H889 H 0.27815 0.23941 0.14247 0.0
H890 H 0.25361 0.24522 0.10796 0.0
H891 H 0.20388 0.3057 0.08143 0.0
H892 H 0.19517 0.34607 0.09317 0.0
H893 H 0.24294 0.40505 0.13759 0.0
H894 H 0.28069 0.40216 0.15829 0.0
H895 H 0.32749 0.3394 0.18952 0.0
H896 H 0.32306 0.29648 0.19216 0.0
H897 H 0.33529 0.31939 0.1001 0.0
H898 H 0.28925 0.3655 0.07453 0.0
H899 H 0.23747 0.33385 0.21584 0.0
H900 H 0.20492 0.28217 0.18182 0.0
C901 C 0.27659 0.74978 0.3778 0.0
C902 C 0.27566 0.77027 0.3871 0.0
C903 C 0.26433 0.7681 0.40609 0.0
C904 C 0.25913 0.74647 0.40736 0.0
N905 N 0.26661 0.73488 0.39046 0.0
Co906 Co 0.26301 0.7032 0.38602 0.0
N907 N 0.23817 0.70201 0.40668 0.0
C908 C 0.23256 0.71777 0.42076 0.0
C909 C 0.21487 0.71261 0.4332 0.0
C910 C 0.20919 0.69211 0.42696 0.0
C911 C 0.22393 0.68579 0.4111 0.0
N912 N 0.25985 0.67124 0.38214 0.0
C913 C 0.24455 0.65726 0.38979 0.0
C914 C 0.24993 0.63597 0.38483 0.0
C915 C 0.26944 0.63661 0.37416 0.0
C916 C 0.27492 0.65817 0.37317 0.0
N917 N 0.28747 0.70501 0.36506 0.0
C918 C 0.2993 0.68825 0.35769 0.0
C919 C 0.31405 0.69441 0.34213 0.0
C920 C 0.31123 0.7164 0.33957 0.0
C921 C 0.29497 0.7225 0.35386 0.0
N922 N 0.28368 0.69732 0.40996 0.0
C923 C 0.31576 0.68174 0.43894 0.0
C924 C 0.32037 0.69843 0.42407 0.0
C925 C 0.3041 0.70615 0.40995 0.0
C926 C 0.29433 0.67414 0.43977 0.0
C927 C 0.27871 0.6821 0.42536 0.0
N928 N 0.24293 0.70854 0.36159 0.0
C929 C 0.233 0.70084 0.32441 0.0
C930 C 0.21865 0.71843 0.32393 0.0
C931 C 0.21631 0.73068 0.34307 0.0
C932 C 0.22841 0.72534 0.36174 0.0
C933 C 0.24492 0.69626 0.34318 0.0
H934 H 0.22639 0.73511 0.37612 0.0
H935 H 0.25632 0.6831 0.34239 0.0
H936 H 0.30831 0.71864 0.39842 0.0
H937 H 0.26289 0.67495 0.42611 0.0
C938 C 0.24347 0.73763 0.42106 0.0
C939 C 0.28733 0.74495 0.3572 0.0
C940 C 0.22619 0.66317 0.40388 0.0
C941 C 0.29307 0.66691 0.36252 0.0
H942 H 0.28215 0.78526 0.38065 0.0
H943 H 0.25934 0.78097 0.41693 0.0
H944 H 0.20713 0.7225 0.44547 0.0
H945 H 0.19636 0.68249 0.43409 0.0
H946 H 0.241 0.62147 0.38909 0.0
H947 H 0.27852 0.62296 0.36788 0.0
H948 H 0.3247 0.68401 0.33284 0.0
H949 H 0.31994 0.72661 0.32828 0.0
H950 H 0.33654 0.70522 0.42301 0.0
H951 H 0.28975 0.66117 0.4507 0.0
H952 H 0.23564 0.691 0.3101 0.0
H953 H 0.2052 0.74427 0.34365 0.0
C954 C 0.96342 0.47873 0.92822 0.0
C955 C 0.95916 0.46641 0.9466 0.0
C956 C 0.93969 0.47343 0.95469 0.0
C957 C 0.93299 0.48945 0.94076 0.0
N958 N 0.94674 0.49262 0.92403 0.0
Co959 Co 0.94315 0.51504 0.90095 0.0
N960 N 0.91239 0.52099 0.90915 0.0
C961 C 0.90277 0.51506 0.92781 0.0
C962 C 0.88131 0.52109 0.92875 0.0
C963 C 0.87718 0.5315 0.90947 0.0
C964 C 0.8964 0.53122 0.89782 0.0
N965 N 0.9397 0.53774 0.8782 0.0
C966 C 0.92149 0.54673 0.86974 0.0
C967 C 0.9265 0.56217 0.8541 0.0
C968 C 0.94863 0.56275 0.85266 0.0
C969 C 0.95583 0.54774 0.86744 0.0
N970 N 0.97385 0.50914 0.89221 0.0
C971 C 0.98581 0.52167 0.87884 0.0
C972 C 1.00653 0.51431 0.8759 0.0
C973 C 1.00807 0.49624 0.88857 0.0
C974 C 0.98806 0.4935 0.89869 0.0
N975 N 0.9328 0.49258 0.88061 0.0
C976 C 0.91565 0.46086 0.85223 0.0
C977 C 0.93111 0.47607 0.84503 0.0
C978 C 0.93952 0.49171 0.85947 0.0
C979 C 0.90922 0.46199 0.874 0.0
C980 C 0.9179 0.47776 0.88774 0.0
N981 N 0.95305 0.53719 0.92201 0.0
C982 C 0.97606 0.54596 0.9525 0.0
C983 C 0.96314 0.56383 0.95795 0.0
C984 C 0.94554 0.5687 0.94425 0.0
C985 C 0.94095 0.55536 0.92625 0.0
C986 C 0.97087 0.5331 0.93462 0.0
H987 H 0.92717 0.55938 0.91622 0.0
H988 H 0.98095 0.51929 0.93177 0.0
H989 H 0.95128 0.5032 0.85347 0.0
H990 H 0.91209 0.47808 0.90415 0.0
C991 C 0.91328 0.50077 0.942 0.0
C992 C 0.98477 0.47881 0.91731 0.0
C993 C 0.89933 0.54166 0.87658 0.0
C994 C 0.97688 0.53972 0.86858 0.0
H995 H 0.96952 0.45426 0.95391 0.0
H996 H 0.93147 0.46759 0.96906 0.0
H997 H 0.86978 0.51754 0.9415 0.0
H998 H 0.86183 0.53843 0.9045 0.0
H999 H 0.91534 0.57185 0.84459 0.0
H1000 H 0.95824 0.57218 0.84139 0.0
H1001 H 0.01915 0.52143 0.86598 0.0
H1002 H 0.02277 0.48698 0.89078 0.0
H1003 H 0.93674 0.47591 0.82839 0.0
H1004 H 0.89699 0.45114 0.8804 0.0
H1005 H 0.98975 0.54129 0.96248 0.0
H1006 H 0.93531 0.58262 0.94746 0.0
C1007 C 0.74611 0.77749 0.3851 0.0
C1008 C 0.74954 0.7574 0.39486 0.0
C1009 C 0.76768 0.75928 0.4074 0.0
C1010 C 0.77434 0.78027 0.40478 0.0
N1011 N 0.76129 0.7921 0.39179 0.0
Co1012 Co 0.76586 0.82325 0.38383 0.0
N1013 N 0.78911 0.82678 0.40602 0.0
C1014 C 0.80005 0.81065 0.41587 0.0
C1015 C 0.81541 0.81786 0.43027 0.0
C1016 C 0.81404 0.83997 0.42959 0.0
C1017 C 0.79776 0.84499 0.4148 0.0
N1018 N 0.77017 0.85457 0.37674 0.0
C1019 C 0.77998 0.87053 0.38847 0.0
C1020 C 0.77874 0.89028 0.37777 0.0
C1021 C 0.76786 0.88651 0.35869 0.0
C1022 C 0.76302 0.86474 0.35881 0.0
N1023 N 0.74312 0.81948 0.36106 0.0
C1024 C 0.73894 0.83371 0.34494 0.0
C1025 C 0.72325 0.82664 0.33083 0.0
C1026 C 0.71757 0.80644 0.33809 0.0
C1027 C 0.73028 0.80218 0.3562 0.0
N1028 N 0.74357 0.83206 0.40518 0.0
C1029 C 0.71301 0.84849 0.4352 0.0
C1030 C 0.71194 0.85382 0.41315 0.0
C1031 C 0.72727 0.84565 0.39862 0.0
C1032 C 0.72968 0.83438 0.44188 0.0
C1033 C 0.74461 0.82615 0.42659 0.0
N1034 N 0.78783 0.815 0.36175 0.0
C1035 C 0.81657 0.82575 0.33719 0.0
C1036 C 0.81272 0.80768 0.32371 0.0
C1037 C 0.79725 0.79261 0.33092 0.0
C1038 C 0.78505 0.79661 0.3496 0.0
C1039 C 0.80431 0.82885 0.35623 0.0
H1040 H 0.77285 0.78495 0.35354 0.0
H1041 H 0.80766 0.843 0.36596 0.0
H1042 H 0.72612 0.85099 0.38209 0.0
H1043 H 0.7572 0.81536 0.43219 0.0
C1044 C 0.79249 0.78945 0.41462 0.0
C1045 C 0.73163 0.78049 0.36627 0.0
C1046 C 0.79144 0.8672 0.40918 0.0
C1047 C 0.74902 0.85409 0.34445 0.0
H1048 H 0.74078 0.74245 0.39236 0.0
H1049 H 0.77537 0.74667 0.41692 0.0
H1050 H 0.82556 0.80821 0.44089 0.0
H1051 H 0.82374 0.8511 0.43911 0.0
H1052 H 0.78497 0.90576 0.38321 0.0
H1053 H 0.76324 0.89841 0.34662 0.0
H1054 H 0.71678 0.8351 0.31685 0.0
H1055 H 0.70603 0.79564 0.33041 0.0
H1056 H 0.69974 0.86497 0.40716 0.0
H1057 H 0.73119 0.82974 0.45876 0.0
H1058 H 0.82843 0.83793 0.33287 0.0
H1059 H 0.79418 0.77776 0.32209 0.0
C1060 C 0.55996 0.54556 0.42409 0.0
C1061 C 0.5635 0.55904 0.44179 0.0
C1062 C 0.58368 0.55414 0.4497 0.0
C1063 C 0.59146 0.53814 0.43634 0.0
N1064 N 0.57768 0.533 0.4201 0.0
Co1065 Co 0.58256 0.50964 0.39825 0.0
N1066 N 0.61387 0.50665 0.40603 0.0
C1067 C 0.62348 0.51461 0.42392 0.0
C1068 C 0.64538 0.51043 0.42459 0.0
C1069 C 0.64983 0.49911 0.40592 0.0
C1070 C 0.63034 0.49704 0.3949 0.0
N1071 N 0.58722 0.48578 0.37698 0.0
C1072 C 0.60587 0.47755 0.36877 0.0
C1073 C 0.60171 0.46082 0.35426 0.0
C1074 C 0.57966 0.4586 0.35328 0.0
C1075 C 0.57165 0.47401 0.36719 0.0
N1076 N 0.55139 0.51284 0.38968 0.0
C1077 C 0.54016 0.49886 0.37713 0.0
C1078 C 0.51895 0.50466 0.37407 0.0
C1079 C 0.51632 0.52323 0.3858 0.0
C1080 C 0.53619 0.52779 0.39553 0.0
N1081 N 0.59097 0.53143 0.37623 0.0
C1082 C 0.6073 0.56104 0.34514 0.0
C1083 C 0.5934 0.54396 0.33904 0.0
C1084 C 0.58526 0.5295 0.35483 0.0
C1085 C 0.61236 0.56304 0.36721 0.0
C1086 C 0.6042 0.54821 0.38228 0.0
N1087 N 0.57472 0.48812 0.42091 0.0
C1088 C 0.55199 0.47842 0.45137 0.0
C1089 C 0.56742 0.46358 0.45925 0.0
C1090 C 0.5859 0.46016 0.44621 0.0
C1091 C 0.58896 0.47216 0.427 0.0
C1092 C 0.55604 0.49057 0.43265 0.0
H1093 H 0.60337 0.46906 0.41759 0.0
H1094 H 0.54416 0.50247 0.42833 0.0
H1095 H 0.57474 0.51653 0.34963 0.0
H1096 H 0.60929 0.55009 0.39883 0.0
C1097 C 0.61213 0.52871 0.43761 0.0
C1098 C 0.53859 0.54343 0.41347 0.0
C1099 C 0.62769 0.48487 0.37458 0.0
C1100 C 0.55014 0.48078 0.36798 0.0
H1101 H 0.5523 0.57062 0.44876 0.0
H1102 H 0.59169 0.56136 0.46356 0.0
H1103 H 0.65691 0.51572 0.43675 0.0
H1104 H 0.66556 0.49308 0.40096 0.0
H1105 H 0.61335 0.45142 0.34509 0.0
H1106 H 0.57056 0.44788 0.34275 0.0
H1107 H 0.50672 0.49616 0.36475 0.0
H1108 H 0.50106 0.53159 0.38782 0.0
H1109 H 0.58889 0.54173 0.32221 0.0
H1110 H 0.62333 0.57556 0.37284 0.0
H1111 H 0.53678 0.48113 0.45967 0.0
H1112 H 0.59842 0.44882 0.45097 0.0
C1113 C 0.25441 0.75021 0.64546 0.0
C1114 C 0.25812 0.77066 0.63668 0.0
C1115 C 0.27037 0.76768 0.61847 0.0
C1116 C 0.27374 0.74575 0.61725 0.0
N1117 N 0.26437 0.7346 0.63355 0.0
Co1118 Co 0.2664 0.70267 0.63837 0.0
N1119 N 0.29154 0.69997 0.61812 0.0
C1120 C 0.2985 0.71537 0.60424 0.0
C1121 C 0.31619 0.70924 0.59226 0.0
C1122 C 0.3205 0.68847 0.5986 0.0
C1123 C 0.30502 0.68301 0.61407 0.0
N1124 N 0.26806 0.67059 0.64268 0.0
C1125 C 0.28274 0.65579 0.63535 0.0
C1126 C 0.27637 0.63484 0.64056 0.0
C1127 C 0.25685 0.63652 0.65108 0.0
C1128 C 0.25238 0.65833 0.65173 0.0
N1129 N 0.24163 0.70582 0.65889 0.0
C1130 C 0.22899 0.68963 0.66621 0.0
C1131 C 0.21341 0.69664 0.68053 0.0
C1132 C 0.21644 0.71864 0.68229 0.0
C1133 C 0.23378 0.72384 0.66895 0.0
N1134 N 0.24581 0.69747 0.61416 0.0
C1135 C 0.21329 0.68253 0.5853 0.0
C1136 C 0.20928 0.69973 0.59975 0.0
C1137 C 0.22578 0.70713 0.61378 0.0
C1138 C 0.23443 0.67412 0.58475 0.0
C1139 C 0.25027 0.68178 0.59909 0.0
N1140 N 0.28646 0.70724 0.66303 0.0
C1141 C 0.2963 0.69909 0.70019 0.0
C1142 C 0.31254 0.71499 0.70009 0.0
C1143 C 0.31564 0.7267 0.6807 0.0
C1144 C 0.30258 0.72251 0.6624 0.0
C1145 C 0.28354 0.69555 0.68171 0.0
H1146 H 0.30534 0.73182 0.64784 0.0
H1147 H 0.27094 0.68355 0.68283 0.0
H1148 H 0.22198 0.72004 0.62497 0.0
H1149 H 0.26581 0.67399 0.59859 0.0
C1150 C 0.28912 0.73589 0.60403 0.0
C1151 C 0.24119 0.74619 0.66487 0.0
C1152 C 0.30153 0.66062 0.62143 0.0
C1153 C 0.23446 0.66799 0.6619 0.0
H1154 H 0.25304 0.78624 0.6429 0.0
H1155 H 0.27719 0.78017 0.60818 0.0
H1156 H 0.32489 0.71873 0.58033 0.0
H1157 H 0.33303 0.67818 0.59186 0.0
H1158 H 0.28466 0.61989 0.63657 0.0
H1159 H 0.24708 0.62339 0.65744 0.0
H1160 H 0.20173 0.68684 0.68924 0.0
H1161 H 0.20692 0.72964 0.69212 0.0
H1162 H 0.19338 0.70717 0.60055 0.0
H1163 H 0.23856 0.66076 0.57412 0.0
H1164 H 0.29293 0.68978 0.7147 0.0
H1165 H 0.32813 0.739 0.67961 0.0
C1166 C 0.96506 0.54469 0.59678 0.0
C1167 C 0.96124 0.55692 0.57825 0.0
C1168 C 0.94143 0.5507 0.57035 0.0
C1169 C 0.9341 0.53519 0.58452 0.0
N1170 N 0.9478 0.53162 0.60123 0.0
Co1171 Co 0.94357 0.50933 0.62431 0.0
N1172 N 0.9125 0.50458 0.61638 0.0
C1173 C 0.90286 0.51108 0.59792 0.0
C1174 C 0.88116 0.50593 0.59721 0.0
C1175 C 0.8769 0.49551 0.61646 0.0
C1176 C 0.89628 0.49489 0.62784 0.0
N1177 N 0.93958 0.48654 0.64687 0.0
C1178 C 0.92119 0.47798 0.65532 0.0
C1179 C 0.92586 0.46218 0.67071 0.0
C1180 C 0.94796 0.46094 0.67204 0.0
C1181 C 0.9555 0.47594 0.65743 0.0
N1182 N 0.97445 0.51429 0.63307 0.0
C1183 C 0.98608 0.50144 0.64644 0.0
C1184 C 1.00696 0.50829 0.6495 0.0
C1185 C 1.00897 0.52636 0.6369 0.0
C1186 C 0.98907 0.52959 0.62669 0.0
N1187 N 0.93399 0.532 0.64485 0.0
C1188 C 0.91678 0.56339 0.67359 0.0
C1189 C 0.93151 0.54748 0.68087 0.0
C1190 C 0.94 0.53204 0.66624 0.0
C1191 C 0.91125 0.56322 0.65155 0.0
C1192 C 0.91992 0.54761 0.63764 0.0
N1193 N 0.9526 0.487 0.60292 0.0
C1194 C 0.97573 0.47752 0.57271 0.0
C1195 C 0.96061 0.46239 0.56483 0.0
C1196 C 0.94227 0.45847 0.57792 0.0
C1197 C 0.93888 0.47052 0.59705 0.0
C1198 C 0.97133 0.4897 0.59132 0.0
H1199 H 0.92452 0.46714 0.60645 0.0
H1200 H 0.9829 0.50195 0.59551 0.0
H1201 H 0.95114 0.51997 0.67231 0.0
H1202 H 0.91463 0.54796 0.62106 0.0
C1203 C 0.91385 0.52482 0.58355 0.0
C1204 C 0.98627 0.54421 0.60795 0.0
C1205 C 0.89914 0.48399 0.64888 0.0
C1206 C 0.97672 0.48348 0.65646 0.0
H1207 H 0.97205 0.56859 0.57079 0.0
H1208 H 0.93336 0.55675 0.55597 0.0
H1209 H 0.86961 0.51 0.58461 0.0
H1210 H 0.86136 0.4891 0.62155 0.0
H1211 H 0.9145 0.45274 0.6802 0.0
H1212 H 0.95737 0.45113 0.68318 0.0
H1213 H 0.01939 0.50081 0.65942 0.0
H1214 H 0.0239 0.53524 0.6347 0.0
H1215 H 0.93645 0.5469 0.69772 0.0
H1216 H 0.89962 0.57467 0.64504 0.0
H1217 H 0.99088 0.48054 0.5644 0.0
H1218 H 0.93005 0.4468 0.57321 0.0
C1219 C 0.05637 0.97997 0.60184 0.0
C1220 C 0.0601 0.96678 0.58397 0.0
C1221 C 0.08039 0.97174 0.57644 0.0
C1222 C 0.08805 0.98749 0.59016 0.0
N1223 N 0.07409 0.99241 0.60629 0.0
Co1224 Co 0.07875 0.01551 0.6285 0.0
N1225 N 0.11014 0.01866 0.62114 0.0
C1226 C 0.11995 1.01086 0.6033 0.0
C1227 C 0.14185 0.01506 0.60294 0.0
C1228 C 0.1461 0.02622 0.62176 0.0
C1229 C 0.12649 0.0282 0.63255 0.0
N1230 N 0.08317 0.03914 0.6501 0.0
C1231 C 0.10171 0.04737 0.65859 0.0
C1232 C 0.09736 0.06397 0.67318 0.0
C1233 C 0.07529 0.06607 0.67397 0.0
C1234 C 0.06747 0.05074 0.65986 0.0
N1235 N 0.04749 1.0121 0.6367 0.0
C1236 C 0.03615 0.02587 0.64936 0.0
C1237 C 0.01492 0.02002 0.65211 0.0
C1238 C 1.01239 1.00165 0.64004 0.0
C1239 C 0.03235 0.99725 0.63044 0.0
N1240 N 0.08705 0.99346 0.65035 0.0
C1241 C 0.10355 0.96371 0.68125 0.0
C1242 C 0.08968 0.98074 0.68748 0.0
C1243 C 0.08143 0.99526 0.67179 0.0
C1244 C 0.10846 0.96178 0.65915 0.0
C1245 C 0.10023 0.97669 0.64418 0.0
N1246 N 0.07106 0.03726 0.60598 0.0
C1247 C 0.04864 0.04704 0.57527 0.0
C1248 C 0.06423 0.06176 0.56752 0.0
C1249 C 0.08257 0.06518 0.58077 0.0
C1250 C 0.0854 0.05318 0.60004 0.0
C1251 C 0.05246 0.03492 0.59406 0.0
H1252 H 0.09974 0.05623 0.6096 0.0
H1253 H 0.04047 0.0231 0.59826 0.0
H1254 H 0.07092 1.00821 0.67709 0.0
H1255 H 0.10527 0.9749 0.62762 0.0
C1256 C 0.10874 0.99692 0.58931 0.0
C1257 C 0.03488 0.98193 0.61225 0.0
C1258 C 0.12363 0.04019 0.65297 0.0
C1259 C 0.046 0.04387 0.65881 0.0
H1260 H 0.04896 0.95534 0.57666 0.0
H1261 H 0.08855 0.96473 0.56256 0.0
H1262 H 0.15351 1.00989 0.59087 0.0
H1263 H 0.16177 0.0322 0.62696 0.0
H1264 H 0.10889 0.07336 0.68252 0.0
H1265 H 0.06606 0.07666 0.6845 0.0
H1266 H 1.0026 0.02838 0.66142 0.0
H1267 H 0.99714 0.99334 0.63771 0.0
H1268 H 0.08529 0.98291 0.70435 0.0
H1269 H 0.1194 0.94928 0.65343 0.0
H1270 H 0.03352 0.04438 0.56677 0.0
H1271 H 0.09516 0.07647 0.57612 0.0
C1272 C 0.64559 0.77419 0.77821 0.0
C1273 C 0.63633 0.77086 0.7579 0.0
C1274 C 0.61845 0.75816 0.76103 0.0
C1275 C 0.61789 0.75419 0.78289 0.0
N1276 N 0.63428 0.76364 0.79384 0.0
Co1277 Co 0.64007 0.76097 0.82556 0.0
N1278 N 0.62052 0.73526 0.82817 0.0
C1279 C 0.60653 0.7282 0.8129 0.0
C1280 C 0.59508 0.71014 0.81896 0.0
C1281 C 0.60186 0.70569 0.83957 0.0
C1282 C 0.61705 0.72146 0.84501 0.0
N1283 N 0.64526 0.75873 0.85749 0.0
C1284 C 0.6384 0.74373 0.87221 0.0
C1285 C 0.64401 0.74977 0.89315 0.0
C1286 C 0.65426 0.76943 0.8916 0.0
C1287 C 0.65436 0.77431 0.86987 0.0
N1288 N 0.6599 0.78628 0.82252 0.0
C1289 C 0.66745 0.79871 0.83878 0.0
C1290 C 0.68135 0.81465 0.83173 0.0
C1291 C 0.68262 0.81206 0.80963 0.0
C1292 C 0.66942 0.79461 0.80445 0.0
N1293 N 0.61554 0.78082 0.83176 0.0
C1294 C 0.58603 0.8123 0.84748 0.0
C1295 C 0.59997 0.81688 0.83001 0.0
C1296 C 0.61437 0.8009 0.82226 0.0
C1297 C 0.58632 0.79112 0.85579 0.0
C1298 C 0.60095 0.77578 0.84771 0.0
N1299 N 0.66513 0.74172 0.81974 0.0
C1300 C 0.7029 0.73299 0.82629 0.0
C1301 C 0.70309 0.71802 0.80919 0.0
C1302 C 0.68354 0.71484 0.79778 0.0
C1303 C 0.66478 0.72664 0.80343 0.0
C1304 C 0.68399 0.74463 0.83117 0.0
H1305 H 0.65011 0.72383 0.79431 0.0
H1306 H 0.68494 0.75647 0.84393 0.0
H1307 H 0.62516 0.80513 0.80915 0.0
H1308 H 0.60102 0.76015 0.85528 0.0
C1309 C 0.60544 0.73811 0.79265 0.0
C1310 C 0.665 0.78741 0.78214 0.0
C1311 C 0.62442 0.72499 0.86739 0.0
C1312 C 0.6639 0.79265 0.86038 0.0
H1313 H 0.64204 0.77642 0.7423 0.0
H1314 H 0.608 0.7514 0.74863 0.0
H1315 H 0.5831 0.70137 0.80958 0.0
H1316 H 0.5955 0.69293 0.84981 0.0
H1317 H 0.6404 0.74118 0.90804 0.0
H1318 H 0.66073 0.77907 0.90478 0.0
H1319 H 0.69017 0.82625 0.84154 0.0
H1320 H 0.69207 0.8219 0.79858 0.0
H1321 H 0.60011 0.8328 0.82261 0.0
H1322 H 0.57611 0.78656 0.86933 0.0
H1323 H 0.71751 0.73625 0.8355 0.0
H1324 H 0.6827 0.70324 0.78461 0.0
C1325 C 0.04615 0.09673 0.46446 0.0
C1326 C 0.0581 0.07812 0.46019 0.0
C1327 C 0.05111 0.07035 0.44058 0.0
C1328 C 0.03548 0.08467 0.43382 0.0
N1329 N 0.03253 0.10137 0.44766 0.0
Co1330 Co 1.01064 0.12495 0.444 0.0
N1331 N 1.0047 0.117 0.41317 0.0
C1332 C 1.01034 0.09829 0.40349 0.0
C1333 C 1.00442 0.09754 0.38199 0.0
C1334 C 0.99438 0.11701 0.37789 0.0
C1335 C 0.99476 0.12856 0.39717 0.0
N1336 N 0.98847 0.14822 0.44049 0.0
C1337 C 0.97973 0.15692 0.42226 0.0
C1338 C 0.96461 0.17286 0.42725 0.0
C1339 C 0.96398 0.17428 0.44938 0.0
C1340 C 0.97864 0.15916 0.45661 0.0
N1341 N 0.01654 0.13342 0.4748 0.0
C1342 C 1.00426 0.14705 0.48672 0.0
C1343 C 1.01148 0.14967 0.50754 0.0
C1344 C 0.02918 0.13649 0.5092 0.0
C1345 C 0.03184 0.12641 0.48916 0.0
N1346 N 0.0336 0.14488 0.43386 0.0
C1347 C 0.06539 0.17301 0.41633 0.0
C1348 C 0.05034 0.18037 0.43187 0.0
C1349 C 0.03468 0.16606 0.44047 0.0
C1350 C 0.06415 0.15118 0.41012 0.0
C1351 C 0.04836 0.13756 0.41899 0.0
N1352 N 0.9879 0.10439 0.45364 0.0
C1353 C 0.97798 0.0741 0.47645 0.0
C1354 C 0.95987 0.06944 0.46353 0.0
C1355 C 0.95554 0.08339 0.446 0.0
C1356 C 0.96959 0.10087 0.44149 0.0
C1357 C 0.99154 0.0915 0.47135 0.0
H1358 H 0.96594 0.11112 0.42777 0.0
H1359 H 1.00545 0.0938 0.48146 0.0
H1360 H 0.02328 0.17222 0.45222 0.0
H1361 H 0.04789 0.12112 0.41328 0.0
C1362 C 0.02429 0.08378 0.41402 0.0
C1363 C 0.04609 0.10745 0.48591 0.0
C1364 C 0.9847 0.14999 0.4001 0.0
C1365 C 0.98653 0.15777 0.4777 0.0
H1366 H 0.06997 0.07046 0.47063 0.0
H1367 H 0.0567 0.05591 0.43231 0.0
H1368 H 1.00781 0.08477 0.37042 0.0
H1369 H 0.98765 0.12215 0.3625 0.0
H1370 H 0.95515 0.18257 0.41608 0.0
H1371 H 0.95475 0.18571 0.45898 0.0
H1372 H 1.0045 0.15969 0.52015 0.0
H1373 H 0.03821 0.13393 0.52399 0.0
H1374 H 0.05061 0.19704 0.43737 0.0
H1375 H 0.07489 0.14463 0.39788 0.0
H1376 H 0.98227 0.06388 0.49009 0.0
H1377 H 0.9415 0.0808 0.43576 0.0
C1378 C 0.3825 0.74634 0.77633 0.0
C1379 C 0.39295 0.74808 0.75645 0.0
C1380 C 0.40721 0.76493 0.7582 0.0
C1381 C 0.40491 0.77231 0.77905 0.0
N1382 N 0.39049 0.7609 0.79088 0.0
Co1383 Co 0.3832 0.766 0.82213 0.0
N1384 N 0.40711 0.78758 0.8255 0.0
C1385 C 0.41803 0.79729 0.80924 0.0
C1386 C 0.43339 0.81176 0.81626 0.0
C1387 C 0.43223 0.81116 0.83837 0.0
C1388 C 0.41622 0.79616 0.84362 0.0
N1389 N 0.37658 0.77085 0.85349 0.0
C1390 C 0.38869 0.7804 0.86935 0.0
C1391 C 0.37795 0.77985 0.8891 0.0
C1392 C 0.35842 0.76981 0.88546 0.0
C1393 C 0.35834 0.76472 0.86376 0.0
N1394 N 0.35874 0.74489 0.81837 0.0
C1395 C 0.34247 0.74193 0.8327 0.0
C1396 C 0.32662 0.72815 0.82535 0.0
C1397 C 0.33288 0.72244 0.80483 0.0
C1398 C 0.35234 0.73303 0.80077 0.0
N1399 N 0.40303 0.74223 0.83084 0.0
C1400 C 0.43162 0.71071 0.84833 0.0
C1401 C 0.40947 0.71077 0.85346 0.0
C1402 C 0.39564 0.72652 0.84471 0.0
C1403 C 0.439 0.72654 0.83363 0.0
C1404 C 0.42446 0.74195 0.82493 0.0
N1405 N 0.36282 0.78963 0.81419 0.0
C1406 C 0.34182 0.82117 0.82477 0.0
C1407 C 0.32735 0.81799 0.80743 0.0
C1408 C 0.33187 0.80105 0.79298 0.0
C1409 C 0.34953 0.78733 0.79655 0.0
C1410 C 0.35958 0.80705 0.82766 0.0
H1411 H 0.35167 0.77432 0.78537 0.0
H1412 H 0.37024 0.80987 0.84125 0.0
H1413 H 0.37903 0.72631 0.84993 0.0
H1414 H 0.43073 0.75394 0.81386 0.0
C1415 C 0.41636 0.78951 0.78813 0.0
C1416 C 0.36242 0.73378 0.77908 0.0
C1417 C 0.40974 0.79118 0.86595 0.0
C1418 C 0.34299 0.75183 0.85313 0.0
H1419 H 0.38965 0.73895 0.74182 0.0
H1420 H 0.41772 0.77129 0.74566 0.0
H1421 H 0.44479 0.82088 0.8065 0.0
H1422 H 0.4422 0.82057 0.84934 0.0
H1423 H 0.38361 0.78611 0.9045 0.0
H1424 H 0.34608 0.76606 0.89736 0.0
H1425 H 0.31203 0.72316 0.83374 0.0
H1426 H 0.32367 0.71235 0.79382 0.0
H1427 H 0.40288 0.69924 0.86496 0.0
H1428 H 0.45593 0.72714 0.82895 0.0
H1429 H 0.33941 0.83437 0.8361 0.0
H1430 H 0.32131 0.79775 0.77932 0.0
C1431 C 0.98034 0.42844 0.46179 0.0
C1432 C 0.96808 0.44683 0.45741 0.0
C1433 C 0.97514 0.45482 0.43792 0.0
C1434 C 0.99113 0.44083 0.43131 0.0
N1435 N 0.99424 0.42416 0.44516 0.0
Co1436 Co 0.01668 0.40108 0.44176 0.0
N1437 N 0.02272 0.40913 0.41098 0.0
C1438 C 0.01681 0.42772 0.40123 0.0
C1439 C 0.02286 0.42855 0.37977 0.0
C1440 C 0.03326 0.40924 0.37579 0.0
C1441 C 0.03296 0.39771 0.39508 0.0
N1442 N 0.03941 0.37833 0.43851 0.0
C1443 C 0.04845 0.36979 0.42039 0.0
C1444 C 0.06389 0.3542 0.42555 0.0
C1445 C 0.06442 0.35287 0.44768 0.0
C1446 C 0.04938 0.36767 0.45475 0.0
N1447 N 1.01067 0.39243 0.47248 0.0
C1448 C 0.02316 0.37911 0.48455 0.0
C1449 C 0.01571 0.3762 0.50524 0.0
C1450 C 0.99763 0.38886 0.50665 0.0
C1451 C 0.99497 0.39895 0.4866 0.0
N1452 N 0.99424 0.38068 0.43142 0.0
C1453 C 0.96244 0.35231 0.41437 0.0
C1454 C 0.97766 0.34512 0.42985 0.0
C1455 C 0.99334 0.35955 0.43821 0.0
C1456 C 0.96363 0.37405 0.40784 0.0
C1457 C 0.97943 0.38778 0.41647 0.0
N1458 N 0.03878 0.42222 0.45166 0.0
C1459 C 0.04735 0.45282 0.4746 0.0
C1460 C 0.0651 0.45847 0.46162 0.0
C1461 C 0.07005 0.44481 0.44403 0.0
C1462 C 0.05688 0.42665 0.43951 0.0
C1463 C 0.03465 0.43481 0.46947 0.0
H1464 H 0.06096 0.41664 0.42574 0.0
H1465 H 0.0209 0.43184 0.4796 0.0
H1466 H 1.00482 0.35357 0.45 0.0
H1467 H 0.97978 0.40417 0.41059 0.0
C1468 C 1.0025 0.44197 0.41163 0.0
C1469 C 0.98034 0.41759 0.48319 0.0
C1470 C 0.04338 0.37647 0.39816 0.0
C1471 C 0.04126 0.36885 0.47575 0.0
H1472 H 0.95593 0.45421 0.46771 0.0
H1473 H 0.96934 0.46916 0.4296 0.0
H1474 H 0.01931 0.44123 0.36815 0.0
H1475 H 0.0402 0.40419 0.36048 0.0
H1476 H 0.0736 0.34464 0.41448 0.0
H1477 H 0.07383 0.34164 0.4574 0.0
H1478 H 0.02278 0.36631 0.51793 0.0
H1479 H 0.98832 0.39111 0.5213 0.0
H1480 H 0.97746 0.3285 0.43553 0.0
H1481 H 0.95277 0.38044 0.39558 0.0
H1482 H 0.04262 0.46276 0.48829 0.0
H1483 H 0.0839 0.44816 0.43376 0.0
C1484 C 0.64822 0.2508 0.75077 0.0
C1485 C 0.63885 0.25243 0.77118 0.0
C1486 C 0.62009 0.26409 0.76861 0.0
C1487 C 0.61903 0.26878 0.74685 0.0
N1488 N 0.63584 0.26067 0.73556 0.0
Co1489 Co 0.64054 0.26346 0.70382 0.0
N1490 N 0.6205 0.28876 0.70194 0.0
C1491 C 0.60639 0.295 0.71744 0.0
C1492 C 0.59437 0.31283 0.71178 0.0
C1493 C 0.60091 0.31793 0.69122 0.0
C1494 C 0.61654 0.30276 0.68537 0.0
N1495 N 0.6447 0.26579 0.67184 0.0
C1496 C 0.63752 0.28095 0.65746 0.0
C1497 C 0.64248 0.27498 0.63633 0.0
C1498 C 0.65266 0.25523 0.63748 0.0
C1499 C 0.65337 0.25021 0.65918 0.0
N1500 N 0.66091 0.23855 0.70634 0.0
C1501 C 0.66809 0.22616 0.68992 0.0
C1502 C 0.6833 0.21123 0.69651 0.0
C1503 C 0.68583 0.21451 0.71844 0.0
C1504 C 0.67187 0.23123 0.72407 0.0
N1505 N 0.61615 0.2433 0.69822 0.0
C1506 C 0.58658 0.21175 0.68282 0.0
C1507 C 0.60121 0.20699 0.69971 0.0
C1508 C 0.61563 0.22302 0.70733 0.0
C1509 C 0.58627 0.23309 0.67496 0.0
C1510 C 0.60095 0.24844 0.68283 0.0
N1511 N 0.66535 0.28306 0.70887 0.0
C1512 C 0.70268 0.29219 0.70107 0.0
C1513 C 0.70324 0.30707 0.7182 0.0
C1514 C 0.68411 0.31004 0.7303 0.0
C1515 C 0.66531 0.29806 0.72524 0.0
C1516 C 0.68379 0.2804 0.69677 0.0
H1517 H 0.65091 0.3006 0.73485 0.0
H1518 H 0.68445 0.2686 0.68396 0.0
H1519 H 0.62699 0.21871 0.71996 0.0
H1520 H 0.6006 0.26417 0.67544 0.0
C1521 C 0.60572 0.28453 0.73754 0.0
C1522 C 0.66862 0.23949 0.74632 0.0
C1523 C 0.62391 0.29982 0.66287 0.0
C1524 C 0.66353 0.23201 0.6684 0.0
H1525 H 0.64509 0.24618 0.78636 0.0
H1526 H 0.60929 0.26962 0.78129 0.0
H1527 H 0.58216 0.32103 0.72137 0.0
H1528 H 0.59409 0.33069 0.68125 0.0
H1529 H 0.63855 0.28371 0.6216 0.0
H1530 H 0.65881 0.24569 0.62409 0.0
H1531 H 0.69241 0.20013 0.68641 0.0
H1532 H 0.69691 0.20581 0.7289 0.0
H1533 H 0.60186 0.19089 0.7067 0.0
H1534 H 0.57556 0.23776 0.66183 0.0
H1535 H 0.717 0.28909 0.69138 0.0
H1536 H 0.68363 0.32156 0.74354 0.0
C1537 C 0.48122 0.10233 0.55833 0.0
C1538 C 0.46785 0.08457 0.56199 0.0
C1539 C 0.47294 0.07671 0.58213 0.0
C1540 C 0.48892 0.09017 0.58979 0.0
N1541 N 0.49387 0.10643 0.57599 0.0
Co1542 Co 0.51696 0.1286 0.58081 0.0
N1543 N 0.52021 0.12078 0.61209 0.0
C1544 C 0.51255 0.10276 0.62168 0.0
C1545 C 0.51686 0.10207 0.64356 0.0
C1546 C 0.52795 0.12088 0.64802 0.0
C1547 C 0.52977 0.13198 0.62855 0.0
N1548 N 0.5405 0.15024 0.58545 0.0
C1549 C 0.54868 0.15854 0.6041 0.0
C1550 C 0.56516 0.17332 0.59993 0.0
C1551 C 0.56726 0.1744 0.57787 0.0
C1552 C 0.55205 0.16026 0.56987 0.0
N1553 N 0.51352 0.13712 0.54965 0.0
C1554 C 0.52729 0.14988 0.53841 0.0
C1555 C 0.52146 0.15277 0.51719 0.0
C1556 C 0.50311 0.14069 0.51455 0.0
C1557 C 0.49869 0.13095 0.53444 0.0
N1558 N 0.49488 0.15029 0.58934 0.0
C1559 C 0.46509 0.18109 0.60588 0.0
C1560 C 0.48195 0.18734 0.59182 0.0
C1561 C 0.4965 0.1717 0.58357 0.0
C1562 C 0.46336 0.159 0.61097 0.0
C1563 C 0.47828 0.14407 0.6027 0.0
N1564 N 0.53884 0.10635 0.57286 0.0
C1565 C 0.54919 0.0762 0.55002 0.0
C1566 C 0.56471 0.06903 0.56513 0.0
C1567 C 0.56799 0.0822 0.58353 0.0
C1568 C 0.55526 0.1009 0.58683 0.0
C1569 C 0.5364 0.09443 0.55429 0.0
H1570 H 0.55825 0.11044 0.60119 0.0
H1571 H 0.52411 0.09827 0.54264 0.0
H1572 H 0.50931 0.17703 0.57292 0.0
H1573 H 0.47663 0.12751 0.60782 0.0
C1574 C 0.4985 0.08896 0.61039 0.0
C1575 C 0.4833 0.1128 0.53689 0.0
C1576 C 0.54159 0.1525 0.62594 0.0
C1577 C 0.54523 0.15936 0.54838 0.0
H1578 H 0.45624 0.07751 0.55085 0.0
H1579 H 0.46585 0.06281 0.59019 0.0
H1580 H 0.51178 0.08983 0.65507 0.0
H1581 H 0.53398 0.12587 0.66374 0.0
H1582 H 0.57448 0.18259 0.61158 0.0
H1583 H 0.57779 0.18511 0.56877 0.0
H1584 H 0.52981 0.16219 0.50494 0.0
H1585 H 0.49481 0.13847 0.49928 0.0
H1586 H 0.48397 0.20418 0.58726 0.0
H1587 H 0.45099 0.15326 0.62205 0.0
H1588 H 0.54648 0.06769 0.53492 0.0
H1589 H 0.57979 0.07791 0.5958 0.0
C1590 C 0.38462 0.28052 0.74987 0.0
C1591 C 0.39521 0.27876 0.76969 0.0
C1592 C 0.40929 0.26175 0.76793 0.0
C1593 C 0.40673 0.25429 0.74714 0.0
N1594 N 0.39235 0.2658 0.73535 0.0
Co1595 Co 0.38473 0.2607 0.70416 0.0
N1596 N 0.40814 0.23859 0.70081 0.0
C1597 C 0.41891 0.2287 0.71708 0.0
C1598 C 0.43385 0.2138 0.71009 0.0
C1599 C 0.4326 0.21434 0.68798 0.0
C1600 C 0.41697 0.22973 0.68271 0.0
N1601 N 0.37805 0.25608 0.67274 0.0
C1602 C 0.39004 0.24638 0.65689 0.0
C1603 C 0.37943 0.2473 0.63706 0.0
C1604 C 0.36011 0.25776 0.64065 0.0
C1605 C 0.36002 0.2627 0.66238 0.0
N1606 N 0.36062 0.28216 0.70793 0.0
C1607 C 0.34438 0.28541 0.69359 0.0
C1608 C 0.32858 0.29915 0.70108 0.0
C1609 C 0.33482 0.30451 0.7217 0.0
C1610 C 0.35422 0.29376 0.72567 0.0
N1611 N 0.40498 0.28409 0.69541 0.0
C1612 C 0.43382 0.31552 0.67828 0.0
C1613 C 0.41165 0.31582 0.67328 0.0
C1614 C 0.39769 0.30012 0.68184 0.0
C1615 C 0.44115 0.29929 0.69258 0.0
C1616 C 0.42648 0.28391 0.70111 0.0
N1617 N 0.36374 0.23756 0.7122 0.0
C1618 C 0.33922 0.20916 0.70046 0.0
C1619 C 0.32574 0.21244 0.71861 0.0
C1620 C 0.33312 0.22708 0.73437 0.0
C1621 C 0.35182 0.23937 0.73083 0.0
C1622 C 0.35829 0.22148 0.69784 0.0
H1623 H 0.35587 0.25096 0.74298 0.0
H1624 H 0.368 0.21858 0.6836 0.0
H1625 H 0.38105 0.30068 0.67677 0.0
H1626 H 0.43268 0.27165 0.71192 0.0
C1627 C 0.41768 0.23674 0.73813 0.0
C1628 C 0.36442 0.29288 0.74729 0.0
C1629 C 0.41081 0.23507 0.66037 0.0
C1630 C 0.34483 0.27572 0.67304 0.0
H1631 H 0.39201 0.28791 0.78434 0.0
H1632 H 0.41974 0.25527 0.78047 0.0
H1633 H 0.44511 0.20449 0.71984 0.0
H1634 H 0.44233 0.20469 0.67701 0.0
H1635 H 0.38502 0.241 0.62167 0.0
H1636 H 0.3479 0.26183 0.62869 0.0
H1637 H 0.31402 0.30432 0.69271 0.0
H1638 H 0.32565 0.31452 0.73281 0.0
H1639 H 0.40511 0.32766 0.66206 0.0
H1640 H 0.4581 0.29839 0.69711 0.0
H1641 H 0.33483 0.19778 0.68784 0.0
H1642 H 0.32434 0.22952 0.74938 0.0
C1643 C 0.54734 0.42753 0.56156 0.0
C1644 C 0.55894 0.44623 0.56638 0.0
C1645 C 0.55138 0.45366 0.5859 0.0
C1646 C 0.53576 0.43906 0.59207 0.0
N1647 N 0.53338 0.42252 0.57794 0.0
Co1648 Co 0.51163 0.3987 0.58068 0.0
N1649 N 0.50492 0.40603 0.6115 0.0
C1650 C 0.51019 0.42462 0.62163 0.0
C1651 C 0.50397 0.42486 0.64303 0.0
C1652 C 0.49413 0.4052 0.64659 0.0
C1653 C 0.49484 0.39403 0.62708 0.0
N1654 N 0.48956 0.37523 0.58325 0.0
C1655 C 0.48051 0.36609 0.6011 0.0
C1656 C 0.46545 0.35032 0.5954 0.0
C1657 C 0.46527 0.3494 0.57324 0.0
C1658 C 0.48008 0.36465 0.56668 0.0
N1659 N 0.51835 0.39074 0.54993 0.0
C1660 C 0.50643 0.37726 0.53747 0.0
C1661 C 0.51425 0.37492 0.51686 0.0
C1662 C 0.53197 0.38812 0.5159 0.0
C1663 C 0.53403 0.39796 0.53614 0.0
N1664 N 0.53451 0.37884 0.59106 0.0
C1665 C 0.56652 0.35106 0.60865 0.0
C1666 C 0.55176 0.34361 0.59285 0.0
C1667 C 0.53598 0.35777 0.5842 0.0
C1668 C 0.56483 0.37276 0.61515 0.0
C1669 C 0.54893 0.3862 0.60626 0.0
N1670 N 0.48903 0.41935 0.57079 0.0
C1671 C 0.47997 0.45011 0.54823 0.0
C1672 C 0.46208 0.45524 0.56123 0.0
C1673 C 0.45728 0.4412 0.57856 0.0
C1674 C 0.47076 0.42321 0.58287 0.0
C1675 C 0.493 0.43227 0.55316 0.0
H1676 H 0.4668 0.41291 0.59646 0.0
H1677 H 0.50687 0.42974 0.54308 0.0
H1678 H 0.52482 0.3516 0.5722 0.0
H1679 H 0.54813 0.40254 0.61219 0.0
C1680 C 0.52415 0.43949 0.61163 0.0
C1681 C 0.54799 0.41703 0.54001 0.0
C1682 C 0.485 0.37252 0.62355 0.0
C1683 C 0.48847 0.36641 0.54583 0.0
H1684 H 0.57099 0.45416 0.55637 0.0
H1685 H 0.55661 0.46805 0.59451 0.0
H1686 H 0.50709 0.43741 0.65492 0.0
H1687 H 0.48733 0.39968 0.6618 0.0
H1688 H 0.45569 0.34039 0.6061 0.0
H1689 H 0.45623 0.33819 0.56318 0.0
H1690 H 0.50764 0.36505 0.50391 0.0
H1691 H 0.5414 0.3909 0.50142 0.0
H1692 H 0.55238 0.327 0.58717 0.0
H1693 H 0.57532 0.37932 0.62763 0.0
H1694 H 0.48457 0.46035 0.53471 0.0
H1695 H 0.44334 0.44414 0.58882 0.0
C1696 C 0.77642 0.6485 0.77528 0.0
C1697 C 0.75589 0.63926 0.77443 0.0
C1698 C 0.75802 0.62002 0.76353 0.0
C1699 C 0.77966 0.61853 0.75849 0.0
N1700 N 0.79132 0.63554 0.76563 0.0
Co1701 Co 0.82313 0.63951 0.76218 0.0
N1702 N 0.82434 0.61804 0.73801 0.0
C1703 C 0.80853 0.60387 0.73277 0.0
C1704 C 0.81369 0.59086 0.71549 0.0
C1705 C 0.83424 0.59684 0.7097 0.0
C1706 C 0.84059 0.61312 0.72396 0.0
N1707 N 0.85514 0.64304 0.7591 0.0
C1708 C 0.86913 0.63496 0.74404 0.0
C1709 C 0.89042 0.63999 0.74937 0.0
C1710 C 0.88977 0.65119 0.76858 0.0
C1711 C 0.86819 0.6524 0.77396 0.0
N1712 N 0.82129 0.66124 0.78601 0.0
C1713 C 0.83808 0.66881 0.7977 0.0
C1714 C 0.83202 0.68474 0.81206 0.0
C1715 C 0.81005 0.68733 0.8092 0.0
C1716 C 0.80382 0.67266 0.79331 0.0
N1717 N 0.82871 0.61613 0.7836 0.0
C1718 C 0.84388 0.58751 0.81624 0.0
C1719 C 0.82748 0.6028 0.82059 0.0
C1720 C 0.81996 0.61673 0.80403 0.0
C1721 C 0.85148 0.58621 0.79485 0.0
C1722 C 0.84376 0.60045 0.77898 0.0
N1723 N 0.81829 0.6632 0.74118 0.0
C1724 C 0.82691 0.69958 0.72929 0.0
C1725 C 0.81052 0.69899 0.71354 0.0
C1726 C 0.79829 0.67977 0.71175 0.0
C1727 C 0.80249 0.66208 0.72562 0.0
C1728 C 0.83047 0.68171 0.74281 0.0
H1729 H 0.79278 0.64761 0.72393 0.0
H1730 H 0.8429 0.68319 0.75496 0.0
H1731 H 0.80765 0.62854 0.808 0.0
H1732 H 0.85098 0.59928 0.76322 0.0
C1733 C 0.78856 0.6042 0.74344 0.0
C1734 C 0.78124 0.6692 0.78597 0.0
C1735 C 0.86319 0.6205 0.72596 0.0
C1736 C 0.85942 0.66364 0.79171 0.0
H1737 H 0.74091 0.64583 0.7808 0.0
H1738 H 0.74513 0.60906 0.75882 0.0
H1739 H 0.80374 0.57845 0.70804 0.0
H1740 H 0.84385 0.58932 0.69708 0.0
H1741 H 0.90494 0.63547 0.74058 0.0
H1742 H 0.90342 0.6577 0.77752 0.0
H1743 H 0.84249 0.69422 0.82251 0.0
H1744 H 0.79994 0.69889 0.81767 0.0
H1745 H 0.82074 0.60427 0.83674 0.0
H1746 H 0.86427 0.575 0.79048 0.0
H1747 H 0.8366 0.71403 0.73168 0.0
H1748 H 0.78558 0.67833 0.69971 0.0
C1749 C 0.92187 0.96988 0.48363 0.0
C1750 C 0.94083 0.96654 0.47195 0.0
C1751 C 0.94831 0.94636 0.47743 0.0
C1752 C 0.93362 0.93846 0.49214 0.0
N1753 N 0.91698 0.95217 0.49595 0.0
Co1754 Co 0.89402 0.94763 0.51838 0.0
N1755 N 0.90163 0.91642 0.52231 0.0
C1756 C 0.91983 0.90669 0.51528 0.0
C1757 C 0.92029 0.88486 0.51977 0.0
C1758 C 0.90114 0.88057 0.53031 0.0
C1759 C 0.89008 0.90011 0.53172 0.0
N1760 N 0.87169 0.94344 0.54133 0.0
C1761 C 0.8632 0.92495 0.54966 0.0
C1762 C 0.84816 0.92948 0.56582 0.0
C1763 C 0.84698 0.95157 0.56741 0.0
C1764 C 0.86138 0.95927 0.55229 0.0
N1765 N 0.88552 0.97863 0.51412 0.0
C1766 C 0.87191 0.99007 0.52683 0.0
C1767 C 0.86832 1.0108 0.51962 0.0
C1768 C 0.88085 1.01284 0.50147 0.0
C1769 C 0.89168 0.99326 0.4988 0.0
N1770 N 0.87301 0.93879 0.49577 0.0
C1771 C 0.84323 0.92204 0.46508 0.0
C1772 C 0.83637 0.936 0.48178 0.0
C1773 C 0.85151 0.94437 0.49677 0.0
C1774 C 0.86539 0.91713 0.46397 0.0
C1775 C 0.87983 0.92549 0.47935 0.0
N1776 N 0.91572 0.95589 0.54078 0.0
C1777 C 0.94595 0.97876 0.55095 0.0
C1778 C 0.95345 0.96352 0.56616 0.0
C1779 C 0.94028 0.94515 0.56962 0.0
C1780 C 0.92137 0.94189 0.55713 0.0
C1781 C 0.92749 0.97456 0.53844 0.0
H1782 H 0.9119 0.9275 0.56015 0.0
H1783 H 0.92342 0.98621 0.52629 0.0
H1784 H 0.84571 0.95497 0.50941 0.0
H1785 H 0.89649 0.92052 0.4782 0.0
C1786 C 0.9343 0.91791 0.50186 0.0
C1787 C 0.91074 0.99103 0.48466 0.0
C1788 C 0.86925 0.90295 0.54305 0.0
C1789 C 0.86209 0.98058 0.54484 0.0
H1790 H 0.9489 0.97781 0.46118 0.0
H1791 H 0.96286 0.93849 0.47155 0.0
H1792 H 0.93265 0.87326 0.5152 0.0
H1793 H 0.89592 0.8649 0.53626 0.0
H1794 H 0.83875 0.91805 0.57526 0.0
H1795 H 0.83602 0.96087 0.57748 0.0
H1796 H 0.85804 0.02306 0.52686 0.0
H1797 H 0.88288 0.02752 0.49204 0.0
H1798 H 0.81943 0.9404 0.48331 0.0
H1799 H 0.87155 0.90614 0.45172 0.0
H1800 H 0.95446 0.99386 0.54819 0.0
H1801 H 0.9448 0.93284 0.58129 0.0
C1802 C 0.24955 0.88749 0.77927 0.0
C1803 C 0.26894 0.89878 0.77715 0.0
C1804 C 0.26682 0.91182 0.75936 0.0
C1805 C 0.24623 0.90805 0.75184 0.0
N1806 N 0.23492 0.89386 0.76403 0.0
Co1807 Co 0.20396 0.88522 0.75949 0.0
N1808 N 0.19975 0.90782 0.73674 0.0
C1809 C 0.2156 0.9185 0.72614 0.0
C1810 C 0.20797 0.93286 0.71095 0.0
C1811 C 0.18589 0.9313 0.71208 0.0
C1812 C 0.18129 0.9161 0.72808 0.0
N1813 N 0.17275 0.87754 0.75534 0.0
C1814 C 0.15644 0.88898 0.74573 0.0
C1815 C 0.13694 0.87784 0.74705 0.0
C1816 C 0.14124 0.85875 0.75772 0.0
C1817 C 0.16304 0.85932 0.76237 0.0
N1818 N 0.20862 0.86196 0.78168 0.0
C1819 C 0.19488 0.84533 0.78539 0.0
C1820 C 0.20293 0.8303 0.7997 0.0
C1821 C 0.22326 0.83751 0.80496 0.0
C1822 C 0.22653 0.85668 0.7936 0.0
N1823 N 0.19494 0.90588 0.78235 0.0
C1824 C 0.17838 0.93495 0.81383 0.0
C1825 C 0.17346 0.91277 0.81444 0.0
C1826 C 0.18172 0.89871 0.7987 0.0
C1827 C 0.19216 0.94221 0.79714 0.0
C1828 C 0.20041 0.92742 0.78174 0.0
N1829 N 0.21238 0.86375 0.73693 0.0
C1830 C 0.2015 0.83872 0.70858 0.0
C1831 C 0.21988 0.8256 0.71222 0.0
C1832 C 0.23519 0.83331 0.72719 0.0
C1833 C 0.2311 0.85207 0.73927 0.0
C1834 C 0.19829 0.85783 0.72074 0.0
H1835 H 0.24286 0.8564 0.75116 0.0
H1836 H 0.18386 0.86723 0.71764 0.0
H1837 H 0.17679 0.88203 0.79956 0.0
H1838 H 0.21089 0.93353 0.76915 0.0
C1839 C 0.23679 0.91805 0.73391 0.0
C1840 C 0.24777 0.86768 0.79242 0.0
C1841 C 0.15922 0.90976 0.73423 0.0
C1842 C 0.17429 0.8448 0.77573 0.0
H1843 H 0.2836 0.89665 0.78661 0.0
H1844 H 0.27897 0.92248 0.7525 0.0
H1845 H 0.21729 0.94401 0.7011 0.0
H1846 H 0.17452 0.94058 0.70243 0.0
H1847 H 0.12129 0.88295 0.74094 0.0
H1848 H 0.12968 0.84632 0.7622 0.0
H1849 H 0.19509 0.81563 0.80535 0.0
H1850 H 0.23466 0.82912 0.81535 0.0
H1851 H 0.16257 0.9063 0.82662 0.0
H1852 H 0.19654 0.95918 0.79596 0.0
H1853 H 0.18916 0.83402 0.69701 0.0
H1854 H 0.25027 0.82478 0.73004 0.0
C1855 C 0.09876 0.55971 0.48293 0.0
C1856 C 0.07923 0.56266 0.47207 0.0
C1857 C 0.07138 0.58251 0.47821 0.0
C1858 C 0.08642 0.59061 0.49248 0.0
N1859 N 0.10361 0.57735 0.49536 0.0
Co1860 Co 0.12723 0.5821 0.51705 0.0
N1861 N 0.11891 0.61302 0.52189 0.0
C1862 C 0.10016 0.62234 0.51578 0.0
C1863 C 0.09927 0.64405 0.52082 0.0
C1864 C 0.11871 0.64867 0.53074 0.0
C1865 C 0.13037 0.62946 0.53121 0.0
N1866 N 0.15027 0.58647 0.5393 0.0
C1867 C 0.15852 0.60502 0.54772 0.0
C1868 C 0.17437 0.60065 0.56315 0.0
C1869 C 0.17626 0.57858 0.56423 0.0
C1870 C 0.16149 0.57074 0.54952 0.0
N1871 N 0.1365 0.55147 0.51185 0.0
C1872 C 0.15091 0.54017 0.52383 0.0
C1873 C 0.15491 0.51976 0.516 0.0
C1874 C 0.14183 0.51775 0.49821 0.0
C1875 C 0.1303 0.53704 0.49637 0.0
N1876 N 0.14703 0.59198 0.49389 0.0
C1877 C 0.17484 0.60951 0.46186 0.0
C1878 C 0.18265 0.59493 0.47764 0.0
C1879 C 0.16851 0.58631 0.49342 0.0
C1880 C 0.15271 0.61468 0.46244 0.0
C1881 C 0.13925 0.60582 0.47836 0.0
N1882 N 0.10655 0.57276 0.53994 0.0
C1883 C 0.07702 0.54894 0.54989 0.0
C1884 C 0.06862 0.56419 0.56458 0.0
C1885 C 0.08121 0.58293 0.56822 0.0
C1886 C 0.10029 0.58661 0.55617 0.0
C1887 C 0.09557 0.5536 0.53772 0.0
H1888 H 0.10927 0.60129 0.55929 0.0
H1889 H 0.1002 0.54195 0.52579 0.0
H1890 H 0.17504 0.57536 0.5054 0.0
H1891 H 0.12255 0.61077 0.47833 0.0
C1892 C 0.0855 0.61095 0.50267 0.0
C1893 C 0.11064 0.53894 0.48301 0.0
C1894 C 0.15168 0.62694 0.54168 0.0
C1895 C 0.16113 0.54958 0.54167 0.0
H1896 H 0.07111 0.55133 0.4614 0.0
H1897 H 0.05635 0.59002 0.47307 0.0
H1898 H 0.08638 0.65537 0.51704 0.0
H1899 H 0.12372 0.66431 0.53695 0.0
H1900 H 0.18386 0.61219 0.57237 0.0
H1901 H 0.18793 0.56942 0.57365 0.0
H1902 H 0.16584 0.50768 0.52257 0.0
H1903 H 0.13995 0.50324 0.48849 0.0
H1904 H 0.19957 0.59022 0.47789 0.0
H1905 H 0.14578 0.62617 0.45108 0.0
H1906 H 0.06911 0.53352 0.54717 0.0
H1907 H 0.07608 0.59524 0.57961 0.0
C1908 C 0.77663 0.37689 0.7491 0.0
C1909 C 0.75612 0.38618 0.74986 0.0
C1910 C 0.75827 0.40533 0.76092 0.0
C1911 C 0.77989 0.4067 0.76614 0.0
N1912 N 0.79149 0.3897 0.75892 0.0
Co1913 Co 0.82317 0.38529 0.76266 0.0
N1914 N 0.82428 0.4062 0.78728 0.0
C1915 C 0.80855 0.42044 0.79261 0.0
C1916 C 0.81367 0.43308 0.81017 0.0
C1917 C 0.83411 0.42681 0.81606 0.0
C1918 C 0.84044 0.41071 0.80157 0.0
N1919 N 0.85511 0.38142 0.76598 0.0
C1920 C 0.86902 0.3891 0.78132 0.0
C1921 C 0.89033 0.38408 0.77609 0.0
C1922 C 0.88977 0.37332 0.75662 0.0
C1923 C 0.86823 0.37235 0.75102 0.0
N1924 N 0.82143 0.36412 0.73839 0.0
C1925 C 0.83821 0.35668 0.72665 0.0
C1926 C 0.83209 0.34096 0.71205 0.0
C1927 C 0.8101 0.33838 0.71488 0.0
C1928 C 0.80397 0.35281 0.731 0.0
N1929 N 0.82909 0.40906 0.74179 0.0
C1930 C 0.84421 0.43816 0.70958 0.0
C1931 C 0.82753 0.42321 0.70512 0.0
C1932 C 0.82007 0.40902 0.72145 0.0
C1933 C 0.85212 0.4389 0.73091 0.0
C1934 C 0.84438 0.42444 0.7466 0.0
N1935 N 0.81777 0.36105 0.78296 0.0
C1936 C 0.82542 0.32396 0.79331 0.0
C1937 C 0.80782 0.32365 0.80766 0.0
C1938 C 0.7956 0.34284 0.80976 0.0
C1939 C 0.80096 0.36137 0.79746 0.0
C1940 C 0.83002 0.34259 0.78119 0.0
H1941 H 0.7912 0.37579 0.79932 0.0
H1942 H 0.84319 0.34168 0.76981 0.0
H1943 H 0.80757 0.39745 0.71735 0.0
H1944 H 0.8517 0.42519 0.76237 0.0
C1945 C 0.78871 0.42062 0.78163 0.0
C1946 C 0.78152 0.35616 0.73863 0.0
C1947 C 0.86301 0.40323 0.79962 0.0
C1948 C 0.85955 0.36156 0.73291 0.0
H1949 H 0.74115 0.37962 0.74343 0.0
H1950 H 0.74537 0.41624 0.76573 0.0
H1951 H 0.8038 0.44549 0.81771 0.0
H1952 H 0.84369 0.43405 0.82888 0.0
H1953 H 0.90479 0.38833 0.7851 0.0
H1954 H 0.90346 0.36695 0.74766 0.0
H1955 H 0.84252 0.33157 0.70151 0.0
H1956 H 0.79993 0.32696 0.70628 0.0
H1957 H 0.82051 0.42218 0.68905 0.0
H1958 H 0.8651 0.44986 0.73538 0.0
H1959 H 0.83525 0.30961 0.79084 0.0
H1960 H 0.782 0.34357 0.82085 0.0
C1961 C 0.60311 0.96761 0.54722 0.0
C1962 C 0.58511 0.96319 0.56003 0.0
C1963 C 0.57787 0.94301 0.55423 0.0
C1964 C 0.59189 0.93611 0.53841 0.0
N1965 N 0.60793 0.95041 0.53424 0.0
Co1966 Co 0.63059 0.94683 0.51143 0.0
N1967 N 0.62371 0.91549 0.50715 0.0
C1968 C 0.60586 0.90519 0.51428 0.0
C1969 C 0.60598 0.88339 0.50958 0.0
C1970 C 0.62514 0.87974 0.49881 0.0
C1971 C 0.63564 0.89959 0.4975 0.0
N1972 N 0.65265 0.94346 0.4881 0.0
C1973 C 0.66168 0.9253 0.47962 0.0
C1974 C 0.67634 0.93039 0.46328 0.0
C1975 C 0.6767 0.95251 0.46172 0.0
C1976 C 0.66224 0.95965 0.47704 0.0
N1977 N 0.63837 0.97802 0.516 0.0
C1978 C 0.65105 0.98998 0.50278 0.0
C1979 C 0.65347 1.01103 0.50938 0.0
C1980 C 0.64112 1.01277 0.52766 0.0
C1981 C 0.63171 0.99256 0.53125 0.0
N1982 N 0.65215 0.9381 0.53359 0.0
C1983 C 0.68269 0.92118 0.56343 0.0
C1984 C 0.68907 0.93558 0.5469 0.0
C1985 C 0.67353 0.94405 0.53234 0.0
C1986 C 0.66063 0.91593 0.56481 0.0
C1987 C 0.64583 0.92436 0.54986 0.0
N1988 N 0.60833 0.955 0.48952 0.0
C1989 C 0.57793 0.97781 0.47967 0.0
C1990 C 0.57029 0.96262 0.46447 0.0
C1991 C 0.58348 0.94424 0.46095 0.0
C1992 C 0.60255 0.94104 0.4732 0.0
C1993 C 0.59645 0.97358 0.49207 0.0
H1994 H 0.61208 0.92673 0.46998 0.0
H1995 H 0.60046 0.98528 0.50424 0.0
H1996 H 0.67893 0.955 0.5198 0.0
H1997 H 0.62931 0.91905 0.55119 0.0
C1998 C 0.59147 0.91574 0.5283 0.0
C1999 C 0.61321 0.9893 0.54607 0.0
C2000 C 0.65639 0.90308 0.48619 0.0
C2001 C 0.66081 0.98087 0.48455 0.0
H2002 H 0.57752 0.97382 0.57175 0.0
H2003 H 0.56401 0.93444 0.56076 0.0
H2004 H 0.59405 0.87139 0.51426 0.0
H2005 H 0.63078 0.86427 0.49275 0.0
H2006 H 0.68601 0.91931 0.45369 0.0
H2007 H 0.68718 0.96222 0.45151 0.0
H2008 H 0.6627 0.02375 0.50155 0.0
H2009 H 0.63848 0.02771 0.53642 0.0
H2010 H 0.70592 0.94023 0.54518 0.0
H2011 H 0.65483 0.90458 0.57692 0.0
H2012 H 0.56957 0.99296 0.48251 0.0
H2013 H 0.57897 0.93191 0.44933 0.0
C2014 C 0.24994 0.14527 0.7506 0.0
C2015 C 0.27019 0.13591 0.75396 0.0
C2016 C 0.26695 0.11802 0.76663 0.0
C2017 C 0.24507 0.11755 0.77055 0.0
N2018 N 0.23423 0.13399 0.76108 0.0
Co2019 Co 0.20255 0.13994 0.7637 0.0
N2020 N 0.19984 0.12051 0.7895 0.0
C2021 C 0.21502 0.10645 0.79661 0.0
C2022 C 0.20892 0.09511 0.81472 0.0
C2023 C 0.18836 0.10204 0.81916 0.0
C2024 C 0.18299 0.11718 0.80331 0.0
N2025 N 0.17064 0.14527 0.76588 0.0
C2026 C 0.15589 0.13852 0.78088 0.0
C2027 C 0.13498 0.14416 0.77476 0.0
C2028 C 0.13659 0.15432 0.75505 0.0
C2029 C 0.15832 0.15433 0.75022 0.0
N2030 N 0.20573 0.15968 0.73834 0.0
C2031 C 0.18953 0.16725 0.72585 0.0
C2032 C 0.19667 0.18117 0.70994 0.0
C2033 C 0.21876 0.18242 0.71265 0.0
C2034 C 0.22386 0.1692 0.73012 0.0
N2035 N 0.19615 0.11533 0.74394 0.0
C2036 C 0.18006 0.08563 0.71275 0.0
C2037 C 0.19745 0.09961 0.70792 0.0
C2038 C 0.20539 0.11409 0.72375 0.0
C2039 C 0.17199 0.08604 0.73402 0.0
C2040 C 0.18024 0.10076 0.74919 0.0
N2041 N 0.20849 0.16504 0.78288 0.0
C2042 C 0.20191 0.20278 0.79164 0.0
C2043 C 0.21897 0.20296 0.80668 0.0
C2044 C 0.2304 0.18344 0.80984 0.0
C2045 C 0.22479 0.16468 0.798 0.0
C2046 C 0.19707 0.18389 0.77995 0.0
H2047 H 0.2339 0.15002 0.80082 0.0
H2048 H 0.18433 0.18485 0.76806 0.0
H2049 H 0.21845 0.12488 0.71934 0.0
H2050 H 0.1728 0.10089 0.76488 0.0
C2051 C 0.23525 0.1052 0.78667 0.0
C2052 C 0.24614 0.16478 0.73747 0.0
C2053 C 0.16064 0.12465 0.79974 0.0
C2054 C 0.16789 0.16378 0.73186 0.0
H2055 H 0.28584 0.14157 0.74847 0.0
H2056 H 0.27929 0.10752 0.77344 0.0
H2057 H 0.21823 0.08311 0.82355 0.0
H2058 H 0.17809 0.09579 0.83195 0.0
H2059 H 0.12006 0.14064 0.78333 0.0
H2060 H 0.12345 0.16079 0.74534 0.0
H2061 H 0.18692 0.19003 0.69832 0.0
H2062 H 0.22987 0.19188 0.70288 0.0
H2063 H 0.20466 0.09968 0.6919 0.0
H2064 H 0.15851 0.07584 0.73878 0.0
H2065 H 0.19269 0.21738 0.78838 0.0
H2066 H 0.24355 0.18261 0.82147 0.0
C2067 C 0.42792 0.55649 0.54155 0.0
C2068 C 0.44745 0.55921 0.55244 0.0
C2069 C 0.4554 0.57909 0.54652 0.0
C2070 C 0.4404 0.58743 0.53234 0.0
N2071 N 0.42315 0.5743 0.5293 0.0
Co2072 Co 0.39944 0.5795 0.50778 0.0
N2073 N 0.40799 0.61042 0.50329 0.0
C2074 C 0.42685 0.6195 0.50942 0.0
C2075 C 0.428 0.64123 0.50452 0.0
C2076 C 0.40862 0.64612 0.49463 0.0
C2077 C 0.39673 0.62705 0.49406 0.0
N2078 N 0.37627 0.58434 0.48575 0.0
C2079 C 0.36818 0.60306 0.47753 0.0
C2080 C 0.35215 0.599 0.4622 0.0
C2081 C 0.35 0.57697 0.46095 0.0
C2082 C 0.36481 0.56885 0.47546 0.0
N2083 N 0.39008 0.54882 0.51257 0.0
C2084 C 0.37555 0.53778 0.50051 0.0
C2085 C 0.37156 0.51723 0.508 0.0
C2086 C 0.38477 0.51486 0.52565 0.0
C2087 C 0.39635 0.53408 0.52775 0.0
N2088 N 0.37981 0.58914 0.5312 0.0
C2089 C 0.35214 0.60638 0.56354 0.0
C2090 C 0.34427 0.59194 0.54767 0.0
C2091 C 0.35833 0.58347 0.53175 0.0
C2092 C 0.37428 0.61154 0.5629 0.0
C2093 C 0.38767 0.60282 0.54682 0.0
N2094 N 0.41986 0.57042 0.4846 0.0
C2095 C 0.4494 0.54693 0.47397 0.0
C2096 C 0.45703 0.56212 0.4588 0.0
C2097 C 0.4441 0.58067 0.4554 0.0
C2098 C 0.42543 0.58424 0.46809 0.0
C2099 C 0.43119 0.55145 0.48669 0.0
H2100 H 0.41618 0.59881 0.46519 0.0
H2101 H 0.42708 0.53987 0.49889 0.0
H2102 H 0.35174 0.57264 0.5197 0.0
H2103 H 0.40438 0.60776 0.54681 0.0
C2104 C 0.44144 0.60786 0.52238 0.0
C2105 C 0.41601 0.53575 0.54115 0.0
C2106 C 0.37544 0.62486 0.48351 0.0
C2107 C 0.36517 0.54755 0.48297 0.0
H2108 H 0.45553 0.54771 0.56297 0.0
H2109 H 0.47047 0.58646 0.55175 0.0
H2110 H 0.44103 0.65237 0.50833 0.0
H2111 H 0.4038 0.66185 0.48849 0.0
H2112 H 0.34273 0.61072 0.45312 0.0
H2113 H 0.33821 0.56801 0.4515 0.0
H2114 H 0.36053 0.50531 0.50131 0.0
H2115 H 0.38666 0.50018 0.53512 0.0
H2116 H 0.32735 0.58723 0.54745 0.0
H2117 H 0.38127 0.62292 0.57431 0.0
H2118 H 0.4577 0.53169 0.47662 0.0
H2119 H 0.44871 0.59291 0.4437 0.0
C2120 C 0.77898 0.77481 0.64267 0.0
C2121 C 0.77657 0.75507 0.63209 0.0
C2122 C 0.75922 0.75722 0.61845 0.0
C2123 C 0.75223 0.77814 0.62124 0.0
N2124 N 0.76434 0.78963 0.63536 0.0
Co2125 Co 0.75998 0.82084 0.64324 0.0
N2126 N 0.73755 0.82479 0.62023 0.0
C2127 C 0.72705 0.80881 0.60963 0.0
C2128 C 0.71216 0.81626 0.59487 0.0
C2129 C 0.71338 0.83835 0.59606 0.0
C2130 C 0.72913 0.84314 0.61148 0.0
N2131 N 0.75607 0.85226 0.65018 0.0
C2132 C 0.74668 0.8684 0.63832 0.0
C2133 C 0.74811 0.88813 0.64904 0.0
C2134 C 0.7586 0.88418 0.66828 0.0
C2135 C 0.76306 0.86234 0.66823 0.0
N2136 N 0.78177 0.81651 0.66696 0.0
C2137 C 0.78547 0.83063 0.68328 0.0
C2138 C 0.79944 0.82281 0.69874 0.0
C2139 C 0.80448 0.80222 0.69217 0.0
C2140 C 0.79331 0.79859 0.67294 0.0
N2141 N 0.78313 0.82926 0.62268 0.0
C2142 C 0.81402 0.84632 0.59336 0.0
C2143 C 0.81501 0.85096 0.61558 0.0
C2144 C 0.79953 0.84245 0.62978 0.0
C2145 C 0.79746 0.83234 0.58622 0.0
C2146 C 0.78237 0.82381 0.60114 0.0
N2147 N 0.73707 0.81307 0.6645 0.0
C2148 C 0.70901 0.82503 0.68925 0.0
C2149 C 0.71224 0.80678 0.70263 0.0
C2150 C 0.72667 0.7909 0.69512 0.0
C2151 C 0.73884 0.79439 0.67636 0.0
C2152 C 0.72121 0.8276 0.6701 0.0
H2153 H 0.75031 0.78216 0.67222 0.0
H2154 H 0.71841 0.84192 0.66046 0.0
H2155 H 0.80055 0.84732 0.64647 0.0
H2156 H 0.7698 0.81325 0.59511 0.0
C2157 C 0.73461 0.78757 0.61068 0.0
C2158 C 0.79194 0.77709 0.66255 0.0
C2159 C 0.73525 0.8653 0.61757 0.0
C2160 C 0.7761 0.85132 0.68317 0.0
H2161 H 0.78553 0.74025 0.63501 0.0
H2162 H 0.75225 0.74485 0.60811 0.0
H2163 H 0.70243 0.80679 0.58371 0.0
H2164 H 0.70396 0.84961 0.58642 0.0
H2165 H 0.74216 0.90371 0.64354 0.0
H2166 H 0.76307 0.89597 0.68051 0.0
H2167 H 0.805 0.83095 0.71328 0.0
H2168 H 0.81455 0.79091 0.70104 0.0
H2169 H 0.82717 0.86194 0.62196 0.0
H2170 H 0.79606 0.82813 0.56922 0.0
H2171 H 0.69779 0.83773 0.69378 0.0
H2172 H 0.72904 0.77585 0.70385 0.0
C2173 C 0.77542 0.2509 0.87814 0.0
C2174 C 0.77443 0.27147 0.88724 0.0
C2175 C 0.76324 0.26943 0.90632 0.0
C2176 C 0.75817 0.24779 0.90785 0.0
N2177 N 0.7656 0.23607 0.89102 0.0
Co2178 Co 0.76204 0.20432 0.88693 0.0
N2179 N 0.7373 0.20325 0.90772 0.0
C2180 C 0.73179 0.2191 0.92174 0.0
C2181 C 0.71421 0.21401 0.93436 0.0
C2182 C 0.70849 0.19346 0.92829 0.0
C2183 C 0.72309 0.18705 0.91234 0.0
N2184 N 0.75891 0.17233 0.88337 0.0
C2185 C 0.74361 0.1584 0.89111 0.0
C2186 C 0.74902 0.13708 0.88632 0.0
C2187 C 0.76853 0.13765 0.87565 0.0
C2188 C 0.774 0.15921 0.8745 0.0
N2189 N 0.78641 0.20602 0.86585 0.0
C2190 C 0.79825 0.18922 0.85862 0.0
C2191 C 0.81292 0.19525 0.84294 0.0
C2192 C 0.81005 0.2172 0.84016 0.0
C2193 C 0.79382 0.22342 0.85444 0.0
N2194 N 0.78283 0.19869 0.91085 0.0
C2195 C 0.81504 0.18343 0.93989 0.0
C2196 C 0.81955 0.20004 0.92488 0.0
C2197 C 0.80321 0.20758 0.91073 0.0
C2198 C 0.79364 0.17574 0.94079 0.0
C2199 C 0.77796 0.18354 0.92635 0.0
N2200 N 0.74185 0.20938 0.86255 0.0
C2201 C 0.73174 0.20123 0.82553 0.0
C2202 C 0.71739 0.21881 0.82492 0.0
C2203 C 0.71514 0.23129 0.84391 0.0
C2204 C 0.72732 0.22617 0.86259 0.0
C2205 C 0.74376 0.19689 0.84428 0.0
H2206 H 0.72535 0.2361 0.87687 0.0
H2207 H 0.75518 0.18374 0.84358 0.0
H2208 H 0.80735 0.22 0.89908 0.0
H2209 H 0.76216 0.17632 0.92719 0.0
C2210 C 0.74264 0.239 0.92175 0.0
C2211 C 0.78617 0.24592 0.85755 0.0
C2212 C 0.72518 0.16442 0.90509 0.0
C2213 C 0.79209 0.1679 0.8637 0.0
H2214 H 0.78082 0.28643 0.88061 0.0
H2215 H 0.75826 0.28238 0.91708 0.0
H2216 H 0.70655 0.22397 0.94661 0.0
H2217 H 0.6957 0.18388 0.93557 0.0
H2218 H 0.74008 0.1226 0.89066 0.0
H2219 H 0.77761 0.12396 0.86945 0.0
H2220 H 0.82357 0.18477 0.83372 0.0
H2221 H 0.8187 0.2273 0.82872 0.0
H2222 H 0.83568 0.2069 0.92375 0.0
H2223 H 0.78913 0.16283 0.95181 0.0
H2224 H 0.7343 0.19122 0.81131 0.0
H2225 H 0.70403 0.24489 0.84436 0.0
C2226 C 0.46779 0.98178 0.42848 0.0
C2227 C 0.4635 0.97043 0.44746 0.0
C2228 C 0.44371 0.97735 0.45477 0.0
C2229 C 0.43686 0.99235 0.43982 0.0
N2230 N 0.45083 0.99493 0.42316 0.0
Co2231 Co 0.44721 0.01614 0.39896 0.0
N2232 N 0.4162 0.02198 0.40637 0.0
C2233 C 0.40628 0.01648 0.425 0.0
C2234 C 0.38469 0.02205 0.42529 0.0
C2235 C 0.38077 0.0317 0.40559 0.0
C2236 C 0.40026 0.03153 0.39437 0.0
N2237 N 0.44384 0.03785 0.37524 0.0
C2238 C 0.4257 0.04649 0.36624 0.0
C2239 C 0.4309 0.06152 0.35026 0.0
C2240 C 0.45302 0.06209 0.34903 0.0
C2241 C 0.46007 0.04754 0.36432 0.0
N2242 N 0.47806 1.01006 0.39077 0.0
C2243 C 0.49001 0.02194 0.37682 0.0
C2244 C 0.51081 0.01461 0.37439 0.0
C2245 C 0.51243 0.99727 0.38804 0.0
C2246 C 0.49239 0.99493 0.3982 0.0
N2247 N 0.43724 0.99271 0.37947 0.0
C2248 C 0.41913 0.96071 0.35193 0.0
C2249 C 0.43439 0.97582 0.3441 0.0
C2250 C 0.44332 0.99158 0.35813 0.0
C2251 C 0.41361 0.96191 0.37394 0.0
C2252 C 0.42274 0.9778 0.38725 0.0
N2253 N 0.4566 0.03933 0.41928 0.0
C2254 C 0.47978 0.04989 0.44914 0.0
C2255 C 0.46498 0.06578 0.45604 0.0
C2256 C 0.44683 0.06945 0.4426 0.0
C2257 C 0.44325 0.05644 0.42413 0.0
C2258 C 0.4752 0.03684 0.43118 0.0
H2259 H 0.42902 0.05964 0.41445 0.0
H2260 H 0.4865 0.02413 0.42776 0.0
H2261 H 0.45482 1.00305 0.35162 0.0
H2262 H 0.41741 0.97829 0.4038 0.0
C2263 C 0.41685 1.00316 0.44006 0.0
C2264 C 0.48921 0.98148 0.41774 0.0
C2265 C 0.40342 0.04152 0.37287 0.0
C2266 C 0.4811 0.03955 0.36584 0.0
H2267 H 0.47399 0.95892 0.45561 0.0
H2268 H 0.43535 0.9721 0.46929 0.0
H2269 H 0.37297 0.0187 0.43792 0.0
H2270 H 0.36535 0.03806 0.4001 0.0
H2271 H 0.41988 0.07096 0.34037 0.0
H2272 H 0.46275 0.0712 0.3376 0.0
H2273 H 0.52346 0.02135 0.36425 0.0
H2274 H 0.52722 0.98834 0.39093 0.0
H2275 H 0.43938 0.97557 0.32727 0.0
H2276 H 0.40161 0.95111 0.38086 0.0
H2277 H 0.49477 0.04695 0.45779 0.0
H2278 H 0.43489 0.08166 0.44659 0.0
C2279 C 0.25268 0.27635 0.87638 0.0
C2280 C 0.25384 0.2558 0.88554 0.0
C2281 C 0.26486 0.25799 0.90471 0.0
C2282 C 0.26967 0.27967 0.90625 0.0
N2283 N 0.26226 0.29132 0.88933 0.0
Co2284 Co 0.26532 0.3232 0.88549 0.0
N2285 N 0.28959 0.32463 0.90687 0.0
C2286 C 0.29515 0.30879 0.92091 0.0
C2287 C 0.31242 0.31412 0.93388 0.0
C2288 C 0.31787 0.3348 0.92804 0.0
C2289 C 0.30342 0.34105 0.91187 0.0
N2290 N 0.268 0.35526 0.88208 0.0
C2291 C 0.28289 0.36942 0.89023 0.0
C2292 C 0.27727 0.39066 0.8853 0.0
C2293 C 0.25806 0.3898 0.8741 0.0
C2294 C 0.25296 0.36815 0.8728 0.0
N2295 N 0.24138 0.32114 0.86385 0.0
C2296 C 0.22948 0.33782 0.85637 0.0
C2297 C 0.21511 0.33166 0.84046 0.0
C2298 C 0.21819 0.30973 0.83779 0.0
C2299 C 0.23421 0.30363 0.85239 0.0
N2300 N 0.24394 0.32839 0.90899 0.0
C2301 C 0.21122 0.34295 0.93782 0.0
C2302 C 0.20703 0.32656 0.92247 0.0
C2303 C 0.22362 0.31935 0.90844 0.0
C2304 C 0.23251 0.35085 0.93906 0.0
C2305 C 0.24842 0.34342 0.92473 0.0
N2306 N 0.28623 0.31871 0.86165 0.0
C2307 C 0.29765 0.32744 0.82514 0.0
C2308 C 0.31353 0.31119 0.82555 0.0
C2309 C 0.31565 0.29901 0.84478 0.0
C2310 C 0.30195 0.30307 0.86262 0.0
C2311 C 0.28431 0.3309 0.84317 0.0
H2312 H 0.30388 0.29336 0.87707 0.0
H2313 H 0.27205 0.34321 0.84181 0.0
H2314 H 0.21975 0.30704 0.89659 0.0
H2315 H 0.26409 0.35085 0.92587 0.0
C2316 C 0.28472 0.28869 0.92053 0.0
C2317 C 0.2418 0.28112 0.85575 0.0
C2318 C 0.30104 0.36369 0.90472 0.0
C2319 C 0.23526 0.3592 0.86158 0.0
H2320 H 0.24759 0.24077 0.87896 0.0
H2321 H 0.26981 0.24511 0.91559 0.0
H2322 H 0.32007 0.30419 0.9462 0.0
H2323 H 0.33039 0.34454 0.93558 0.0
H2324 H 0.28586 0.40527 0.8899 0.0
H2325 H 0.24892 0.40334 0.86767 0.0
H2326 H 0.20451 0.34204 0.83105 0.0
H2327 H 0.20978 0.29958 0.82622 0.0
H2328 H 0.19097 0.31959 0.92104 0.0
H2329 H 0.23678 0.36365 0.95032 0.0
H2330 H 0.29499 0.33711 0.81071 0.0
H2331 H 0.32783 0.28641 0.84612 0.0
C2332 C 0.06103 0.04597 0.92701 0.0
C2333 C 0.06556 0.05772 0.94569 0.0
C2334 C 0.08535 0.05078 0.95306 0.0
C2335 C 0.09195 0.03538 0.93843 0.0
N2336 N 0.07782 0.03255 0.92195 0.0
Co2337 Co 0.08104 1.01084 0.89822 0.0
N2338 N 0.11215 1.00521 0.9053 0.0
C2339 C 0.12234 1.01097 0.92372 0.0
C2340 C 0.14396 1.0055 0.92374 0.0
C2341 C 0.1476 0.99565 0.90409 0.0
C2342 C 0.12793 0.99561 0.89316 0.0
N2343 N 0.08405 0.98863 0.87497 0.0
C2344 C 0.10207 0.98 0.86579 0.0
C2345 C 0.09668 0.96455 0.85029 0.0
C2346 C 0.07454 0.9637 0.84956 0.0
C2347 C 0.06767 0.97853 0.86465 0.0
N2348 N 0.05011 0.01669 0.89026 0.0
C2349 C 0.0379 1.00437 0.87691 0.0
C2350 C 0.01712 1.01176 0.87446 0.0
C2351 C 0.01582 0.02962 0.88746 0.0
C2352 C 0.03602 0.03218 0.89728 0.0
N2353 N 0.0906 0.03388 0.87812 0.0
C2354 C 0.10698 0.06639 0.85017 0.0
C2355 C 0.09187 0.05092 0.84274 0.0
C2356 C 0.0838 0.0349 0.85699 0.0
C2357 C 0.11343 0.06512 0.87192 0.0
C2358 C 0.10516 0.04897 0.88544 0.0
N2359 N 0.07194 0.98814 0.91925 0.0
C2360 C 0.04892 0.9784 0.94949 0.0
C2361 C 0.06393 0.963 0.95707 0.0
C2362 C 0.08213 0.95909 0.94376 0.0
C2363 C 0.08551 0.9714 0.92477 0.0
C2364 C 0.05334 0.99085 0.93107 0.0
H2365 H 0.09975 0.96799 0.9152 0.0
H2366 H 0.04189 1.00332 0.92722 0.0
H2367 H 0.0723 0.02322 0.85084 0.0
H2368 H 0.11107 0.04854 0.90181 0.0
C2369 C 0.11197 0.02454 0.93869 0.0
C2370 C 0.03957 0.04622 0.91633 0.0
C2371 C 0.12442 0.98542 0.87181 0.0
C2372 C 0.04662 0.98643 0.86633 0.0
H2373 H 0.05525 0.06952 0.9536 0.0
H2374 H 0.09389 0.05633 0.96737 0.0
H2375 H 0.15588 1.00908 0.93614 0.0
H2376 H 0.16296 0.98931 0.89843 0.0
H2377 H 0.10758 0.95501 0.84037 0.0
H2378 H 0.06466 0.95425 0.83853 0.0
H2379 H 1.0043 1.00478 0.86469 0.0
H2380 H 1.00114 0.03876 0.89017 0.0
H2381 H 0.08628 0.05117 0.82609 0.0
H2382 H 0.12543 0.07615 0.87848 0.0
H2383 H 0.03385 0.98146 0.95792 0.0
H2384 H 0.09426 0.94723 0.9482 0.0
C2385 C 0.7495 0.2498 0.14912 0.0
C2386 C 0.75055 0.27033 0.13991 0.0
C2387 C 0.76182 0.26817 0.12088 0.0
C2388 C 0.76687 0.24652 0.11951 0.0
N2389 N 0.75935 0.2349 0.13639 0.0
Co2390 Co 0.76277 0.20318 0.14071 0.0
N2391 N 0.7876 0.20194 0.12005 0.0
C2392 C 0.79326 0.21771 0.10598 0.0
C2393 C 0.81091 0.2125 0.09351 0.0
C2394 C 0.81651 0.19196 0.09972 0.0
C2395 C 0.80177 0.18567 0.11559 0.0
N2396 N 0.76575 0.1712 0.14448 0.0
C2397 C 0.781 0.15717 0.13683 0.0
C2398 C 0.7755 0.13589 0.1417 0.0
C2399 C 0.75597 0.13659 0.15233 0.0
C2400 C 0.75059 0.15817 0.15337 0.0
N2401 N 0.73833 0.20505 0.16167 0.0
C2402 C 0.72639 0.18833 0.16897 0.0
C2403 C 0.7117 0.19451 0.18457 0.0
C2404 C 0.71467 0.21646 0.18724 0.0
C2405 C 0.73096 0.22253 0.17296 0.0
N2406 N 0.74208 0.19752 0.11673 0.0
C2407 C 0.71 0.1823 0.08758 0.0
C2408 C 0.70543 0.1989 0.10256 0.0
C2409 C 0.72171 0.20644 0.11676 0.0
C2410 C 0.73138 0.17458 0.08677 0.0
C2411 C 0.747 0.18235 0.10127 0.0
N2412 N 0.78288 0.20829 0.16515 0.0
C2413 C 0.79283 0.20036 0.20227 0.0
C2414 C 0.80735 0.21781 0.20278 0.0
C2415 C 0.80975 0.23011 0.18368 0.0
C2416 C 0.79755 0.22497 0.16502 0.0
C2417 C 0.78083 0.19596 0.18352 0.0
H2418 H 0.79963 0.23478 0.15066 0.0
H2419 H 0.76931 0.1829 0.18428 0.0
H2420 H 0.71753 0.21888 0.12835 0.0
H2421 H 0.76279 0.1751 0.10052 0.0
C2422 C 0.78246 0.23763 0.10575 0.0
C2423 C 0.73876 0.24495 0.16973 0.0
C2424 C 0.79944 0.16306 0.12284 0.0
C2425 C 0.73249 0.16697 0.16405 0.0
H2426 H 0.74416 0.28533 0.14643 0.0
H2427 H 0.76686 0.28105 0.11007 0.0
H2428 H 0.81869 0.22238 0.08125 0.0
H2429 H 0.82931 0.1823 0.09257 0.0
H2430 H 0.78438 0.12136 0.13742 0.0
H2431 H 0.74681 0.12296 0.15856 0.0
H2432 H 0.70099 0.18413 0.19382 0.0
H2433 H 0.70605 0.22667 0.1986 0.0
H2434 H 0.68929 0.20576 0.10361 0.0
H2435 H 0.73592 0.16166 0.07577 0.0
H2436 H 0.79015 0.19048 0.21656 0.0
H2437 H 0.82098 0.2436 0.18311 0.0
C2438 C 0.46667 0.04528 0.10231 0.0
C2439 C 0.46286 0.0587 0.08461 0.0
C2440 C 0.44269 0.05358 0.07684 0.0
C2441 C 0.43517 0.03751 0.09027 0.0
N2442 N 0.4491 0.03254 0.10643 0.0
Co2443 Co 0.44454 1.00927 0.12847 0.0
N2444 N 0.4132 1.00606 0.12094 0.0
C2445 C 0.40343 0.0138 0.10303 0.0
C2446 C 0.38154 1.00949 0.10255 0.0
C2447 C 0.37728 0.99833 0.12137 0.0
C2448 C 0.39686 0.99647 0.13228 0.0
N2449 N 0.44016 0.98556 0.14997 0.0
C2450 C 0.42162 0.97737 0.15843 0.0
C2451 C 0.42596 0.96076 0.17304 0.0
C2452 C 0.44802 0.95859 0.17381 0.0
C2453 C 0.45586 0.9739 0.15968 0.0
N2454 N 0.47577 1.01266 0.13672 0.0
C2455 C 0.48718 0.99875 0.14918 0.0
C2456 C 0.50841 1.00461 0.15195 0.0
C2457 C 0.51085 0.02315 0.14012 0.0
C2458 C 0.49084 0.02764 0.13063 0.0
N2459 N 0.43622 0.03117 0.15039 0.0
C2460 C 0.42012 0.06088 0.18147 0.0
C2461 C 0.4342 0.04394 0.18751 0.0
C2462 C 0.44223 0.02943 0.17173 0.0
C2463 C 0.41474 0.0627 0.15946 0.0
C2464 C 0.4228 0.04782 0.14438 0.0
N2465 N 0.4523 0.98762 0.10595 0.0
C2466 C 0.47471 0.97781 0.07531 0.0
C2467 C 0.45954 0.96239 0.06813 0.0
C2468 C 0.44137 0.95881 0.08152 0.0
C2469 C 0.4383 0.97124 0.10046 0.0
C2470 C 0.47069 0.99028 0.09382 0.0
H2471 H 0.42408 0.96809 0.11015 0.0
H2472 H 0.48235 1.00255 0.09767 0.0
H2473 H 0.45291 0.01657 0.17689 0.0
H2474 H 0.41748 0.04954 0.12788 0.0
C2475 C 0.41457 0.02791 0.08918 0.0
C2476 C 0.48815 0.04331 0.11275 0.0
C2477 C 0.39972 0.98456 0.15272 0.0
C2478 C 0.47735 0.98069 0.15858 0.0
H2479 H 0.47389 0.0704 0.07755 0.0
H2480 H 0.43451 0.06071 0.06302 0.0
H2481 H 0.3699 0.01462 0.09044 0.0
H2482 H 0.36162 0.99228 0.1265 0.0
H2483 H 0.41442 0.9514 0.18239 0.0
H2484 H 0.45725 0.94796 0.18432 0.0
H2485 H 0.52078 0.99618 0.16116 0.0
H2486 H 0.52605 0.03156 0.13789 0.0
H2487 H 0.43895 0.04185 0.2043 0.0
H2488 H 0.40362 0.07512 0.15388 0.0
H2489 H 0.48966 0.98071 0.06659 0.0
H2490 H 0.4291 0.94703 0.07721 0.0
C2491 C 0.56122 0.48164 0.09995 0.0
C2492 C 0.56554 0.47012 0.08109 0.0
C2493 C 0.58516 0.47726 0.07352 0.0
C2494 C 0.59189 0.49258 0.0882 0.0
N2495 N 0.578 0.49517 0.10491 0.0
Co2496 Co 0.58143 0.51686 0.1287 0.0
N2497 N 0.6123 0.52303 0.12107 0.0
C2498 C 0.62214 0.51752 0.10241 0.0
C2499 C 0.64364 0.52344 0.1019 0.0
C2500 C 0.64756 0.53333 0.12148 0.0
C2501 C 0.62817 0.53295 0.13286 0.0
N2502 N 0.58464 0.53892 0.15212 0.0
C2503 C 0.60272 0.5478 0.161 0.0
C2504 C 0.59742 0.56296 0.17681 0.0
C2505 C 0.57529 0.5634 0.17802 0.0
C2506 C 0.56834 0.54863 0.1629 0.0
N2507 N 0.55065 0.51065 0.13702 0.0
C2508 C 0.53858 0.5227 0.1507 0.0
C2509 C 0.51788 0.51518 0.15334 0.0
C2510 C 0.51645 0.49752 0.14011 0.0
C2511 C 0.53651 0.49519 0.12997 0.0
N2512 N 0.59165 0.49381 0.14848 0.0
C2513 C 0.60922 0.46159 0.17607 0.0
C2514 C 0.59384 0.47665 0.18376 0.0
C2515 C 0.58519 0.49253 0.1697 0.0
C2516 C 0.61529 0.46308 0.15424 0.0
C2517 C 0.60642 0.47909 0.1409 0.0
N2518 N 0.57174 0.5396 0.10808 0.0
C2519 C 0.54918 0.54877 0.07733 0.0
C2520 C 0.56271 0.56613 0.07172 0.0
C2521 C 0.58027 0.5707 0.08556 0.0
C2522 C 0.5843 0.55746 0.1038 0.0
C2523 C 0.55385 0.53596 0.09541 0.0
H2524 H 0.59807 0.56124 0.11393 0.0
H2525 H 0.54336 0.52246 0.09829 0.0
H2526 H 0.57352 0.50392 0.17605 0.0
H2527 H 0.61206 0.47972 0.12445 0.0
C2528 C 0.61169 0.50379 0.08762 0.0
C2529 C 0.53983 0.48126 0.1108 0.0
C2530 C 0.62503 0.54302 0.15432 0.0
C2531 C 0.54736 0.54053 0.16143 0.0
H2532 H 0.55513 0.45839 0.07317 0.0
H2533 H 0.59348 0.47197 0.059 0.0
H2534 H 0.65532 0.52014 0.08922 0.0
H2535 H 0.66292 0.53999 0.12679 0.0
H2536 H 0.60838 0.57261 0.18657 0.0
H2537 H 0.5655 0.57259 0.18934 0.0
H2538 H 0.50518 0.52196 0.1634 0.0
H2539 H 0.50179 0.4883 0.13752 0.0
H2540 H 0.58849 0.4762 0.20048 0.0
H2541 H 0.62744 0.45235 0.14747 0.0
H2542 H 0.53543 0.5444 0.06729 0.0
H2543 H 0.59092 0.58428 0.08227 0.0
C2544 C 0.19922 0.31795 0.23607 0.0
C2545 C 0.20757 0.30157 0.22244 0.0
H2546 H 0.18091 0.32572 0.26474 0.0
C2547 C 0.20472 0.27982 0.22888 0.0
H2548 H 0.20079 0.33486 0.23158 0.0
C2549 C 0.19375 0.27466 0.24821 0.0
C2550 C 0.18522 0.29103 0.26166 0.0
H2551 H 0.21106 0.26675 0.219 0.0
H2552 H 0.19148 0.25775 0.25246 0.0
C2553 C 0.18802 0.31275 0.25527 0.0
C2554 C 0.5751 0.58541 0.03733 0.0
C2555 C 0.55828 0.57887 0.05142 0.0
H2556 H 0.58359 0.60088 1.00706 0.0
C2557 C 0.53676 0.58352 0.04535 0.0
H2558 H 0.59185 0.58195 0.04134 0.0
C2559 C 0.53212 0.59399 0.02577 0.0
C2560 C 0.5488 0.60031 1.01155 0.0
H2561 H 0.52337 0.57915 0.05584 0.0
H2562 H 0.51534 0.59737 0.02192 0.0
C2563 C 0.57039 0.596 0.01758 0.0
C2564 C 0.83955 0.21134 0.25555 0.0
C2565 C 0.84216 0.23293 0.26234 0.0
H2566 H 0.82681 0.18966 0.23149 0.0
C2567 C 0.8333 0.24955 0.24942 0.0
H2568 H 0.84692 0.19825 0.26466 0.0
C2569 C 0.82213 0.24472 0.23013 0.0
C2570 C 0.8195 0.2231 0.22325 0.0
H2571 H 0.83546 0.26637 0.25404 0.0
H2572 H 0.81547 0.25794 0.22065 0.0
C2573 C 0.82822 0.20648 0.23637 0.0
C2574 C 0.45787 0.91883 0.0233 0.0
C2575 C 0.47155 0.92782 1.0074 0.0
H2576 H 0.44413 0.92181 0.05505 0.0
C2577 C 0.47991 0.94871 1.01096 0.0
H2578 H 0.45106 0.9028 0.02097 0.0
C2579 C 0.47533 0.96004 0.0301 0.0
C2580 C 0.4628 0.95061 0.04683 0.0
H2581 H 0.49044 0.95621 0.99905 0.0
H2582 H 0.4819 0.97623 0.03169 0.0
C2583 C 0.4538 0.9299 0.04286 0.0
C2584 C 0.20424 0.7456 0.29659 0.0
C2585 C 0.20663 0.72393 0.30343 0.0
H2586 H 0.1913 0.76747 0.27265 0.0
C2587 C 0.19781 0.70745 0.29021 0.0
H2588 H 0.21098 0.75872 0.30615 0.0
C2589 C 0.18666 0.71249 0.27097 0.0
C2590 C 0.18432 0.73413 0.26421 0.0
H2591 H 0.19902 0.6906 0.29504 0.0
H2592 H 0.17923 0.6995 0.26176 0.0
C2593 C 0.19325 0.75061 0.27725 0.0
C2594 C 0.99501 0.59109 1.00333 0.0
C2595 C 0.97863 0.59821 0.01749 0.0
H2596 H 1.00306 0.57558 0.97342 0.0
C2597 C 0.95686 0.59476 1.01157 0.0
H2598 H 1.01193 0.59372 1.00722 0.0
C2599 C 0.95167 0.58414 0.99199 0.0
C2600 C 0.96817 0.57674 0.97796 0.0
H2601 H 0.94392 0.60022 0.02211 0.0
H2602 H 0.93478 0.58127 0.98811 0.0
C2603 C 0.98989 0.58063 0.98388 0.0
C2604 C 0.85691 0.80825 0.27975 0.0
C2605 C 0.84802 0.79459 0.26378 0.0
H2606 H 0.85363 0.82221 0.31131 0.0
C2607 C 0.82675 0.78707 0.26656 0.0
H2608 H 0.87318 0.81461 0.27783 0.0
C2609 C 0.8151 0.79199 0.28551 0.0
C2610 C 0.82455 0.80426 0.30249 0.0
H2611 H 0.81935 0.77681 0.25435 0.0
H2612 H 0.79871 0.78586 0.28683 0.0
C2613 C 0.84552 0.81273 0.29897 0.0
C2614 C 0.07042 0.93163 0.98369 0.0
C2615 C 0.06056 0.95174 0.9787 0.0
H2616 H 0.07416 0.90566 1.0068 0.0
C2617 C 0.04725 0.96116 0.99485 0.0
H2618 H 0.08071 0.9235 0.97206 0.0
C2619 C 0.04283 0.95037 0.01435 0.0
C2620 C 0.0522 0.93013 0.01896 0.0
H2621 H 0.03999 0.97696 0.99262 0.0
H2622 H 0.03169 0.95778 0.02575 0.0
C2623 C 0.06657 0.9212 1.00366 0.0
C2624 C 0.25312 0.18029 0.31923 0.0
C2625 C 0.25899 0.17496 0.29788 0.0
H2626 H 0.23016 0.19604 0.34009 0.0
C2627 C 0.24533 0.18177 0.28085 0.0
H2628 H 0.26314 0.17505 0.33269 0.0
C2629 C 0.22645 0.19376 0.28499 0.0
C2630 C 0.22058 0.19936 0.30632 0.0
H2631 H 0.24921 0.17782 0.26421 0.0
H2632 H 0.21667 0.19903 0.27136 0.0
C2633 C 0.2342 0.19236 0.3234 0.0
C2634 C 0.44085 0.53845 0.95436 0.0
C2635 C 0.44713 0.55236 0.97145 0.0
H2636 H 0.42619 0.50797 0.94527 0.0
C2637 C 0.44284 0.54564 0.99285 0.0
H2638 H 0.44406 0.5429 0.93767 0.0
C2639 C 0.43306 0.52562 0.99711 0.0
C2640 C 0.42698 0.51164 0.98014 0.0
H2641 H 0.44698 0.55592 1.00648 0.0
H2642 H 0.43005 0.52118 0.01383 0.0
C2643 C 0.43088 0.51831 0.95868 0.0
C2644 C 0.79697 0.32216 0.28049 0.0
C2645 C 0.80411 0.3199 0.30207 0.0
H2646 H 0.7728 0.33514 0.25887 0.0
C2647 C 0.7913 0.32905 0.31868 0.0
H2648 H 0.80623 0.31518 0.26729 0.0
C2649 C 0.77213 0.34038 0.31383 0.0
C2650 C 0.76502 0.34256 0.29228 0.0
H2651 H 0.7964 0.32793 0.33546 0.0
H2652 H 0.76324 0.34805 0.32689 0.0
C2653 C 0.77767 0.33332 0.27568 0.0
C2654 C 0.57949 0.984 0.98955 0.0
C2655 C 0.57508 0.97795 0.96797 0.0
H2656 H 0.59323 1.00738 1.01114 0.0
C2657 C 0.5821 0.9919 0.95123 0.0
H2658 H 0.57475 0.97361 1.00291 0.0
C2659 C 0.59285 1.01151 0.95605 0.0
C2660 C 0.59687 0.01755 0.97769 0.0
H2661 H 0.57885 0.98791 0.93443 0.0
H2662 H 0.59801 0.02197 0.94291 0.0
C2663 C 0.59014 1.00345 0.99431 0.0
C2664 C 0.2298 0.82302 0.2462 0.0
C2665 C 0.22288 0.82094 0.22452 0.0
H2666 H 0.25381 0.83568 0.26817 0.0
C2667 C 0.23595 0.83011 0.20812 0.0
H2668 H 0.22035 0.81602 0.25925 0.0
C2669 C 0.25514 0.8413 0.21326 0.0
C2670 C 0.26203 0.84328 0.2349 0.0
H2671 H 0.23104 0.82912 0.19127 0.0
H2672 H 0.26423 0.84899 0.20034 0.0
C2673 C 0.24912 0.83402 0.2513 0.0
C2674 C 0.07749 0.51017 0.04196 0.0
C2675 C 0.09773 0.50512 0.0511 0.0
H2676 H 0.05134 0.53254 0.03949 0.0
C2677 C 0.10712 0.52011 0.06552 0.0
H2678 H 0.06977 0.49901 0.03077 0.0
C2679 C 0.09709 0.5402 0.06969 0.0
C2680 C 0.07701 0.54563 0.06003 0.0
H2681 H 0.12272 0.51664 0.07286 0.0
H2682 H 0.1055 0.55161 0.08003 0.0
C2683 C 0.06714 0.52984 0.04663 0.0
C2684 C 0.79312 0.69435 0.20384 0.0
C2685 C 0.80718 0.70138 0.22054 0.0
H2686 H 0.76388 0.67711 0.19536 0.0
C2687 C 0.80159 0.69621 0.24207 0.0
H2688 H 0.79689 0.69778 0.18703 0.0
C2689 C 0.78263 0.68449 0.24676 0.0
C2690 C 0.76867 0.67743 0.23008 0.0
H2691 H 0.8117 0.70155 0.25542 0.0
H2692 H 0.77889 0.68088 0.26354 0.0
C2693 C 0.77418 0.68248 0.20855 0.0
C2694 C 0.92081 1.00551 0.06646 0.0
C2695 C 0.92972 0.0208 0.05206 0.0
H2696 H 0.92324 0.97399 0.08078 0.0
C2697 C 0.94998 0.01625 0.04272 0.0
H2698 H 0.90525 1.00861 0.07401 0.0
C2699 C 0.96083 0.99681 0.04725 0.0
C2700 C 0.95147 0.98071 0.06065 0.0
H2701 H 0.95735 0.02765 0.03156 0.0
H2702 H 0.97665 0.99459 0.04002 0.0
C2703 C 0.93132 0.98562 0.07044 0.0
C2704 C 0.31058 0.24511 0.16973 0.0
C2705 C 0.2967 0.26097 0.17846 0.0
H2706 H 0.32421 0.21338 0.1729 0.0
C2707 C 0.28842 0.25783 0.19938 0.0
H2708 H 0.31743 0.24729 0.15369 0.0
C2709 C 0.29279 0.23862 0.21079 0.0
C2710 C 0.30524 0.22176 0.20142 0.0
H2711 H 0.27791 0.26993 0.2066 0.0
H2712 H 0.28604 0.23696 0.22691 0.0
C2713 C 0.31454 0.22564 0.18088 0.0
C2714 C 0.31977 0.78956 0.32916 0.0
C2715 C 0.30321 0.8028 0.32051 0.0
H2716 H 0.32782 0.76107 0.34761 0.0
C2717 C 0.28156 0.79593 0.32287 0.0
H2718 H 0.3366 0.79443 0.32792 0.0
C2719 C 0.27662 0.77653 0.33375 0.0
C2720 C 0.29316 0.7635 0.3426 0.0
H2721 H 0.26841 0.80553 0.31624 0.0
H2722 H 0.25977 0.77191 0.33573 0.0
C2723 C 0.31479 0.77028 0.34023 0.0
C2724 C 1.00922 0.48037 0.95006 0.0
C2725 C 1.00453 0.47135 0.92968 0.0
H2726 H 0.03115 0.48282 0.97657 0.0
C2727 C 0.01971 0.45698 0.92052 0.0
H2728 H 0.99791 0.49146 0.95766 0.0
C2729 C 0.0397 0.45292 0.93082 0.0
C2730 C 0.04482 0.46257 0.95099 0.0
H2731 H 0.0165 0.44965 0.90488 0.0
H2732 H 0.05129 0.4427 0.92253 0.0
C2733 C 0.02876 0.47575 0.96069 0.0
C2734 C 0.73566 0.75771 0.33259 0.0
C2735 C 0.72588 0.76084 0.35292 0.0
H2736 H 0.74011 0.73723 0.30519 0.0
C2737 C 0.71223 0.74443 0.36096 0.0
H2738 H 0.74617 0.77005 0.3258 0.0
C2739 C 0.70958 0.72479 0.34961 0.0
C2740 C 0.72 0.72126 0.3295 0.0
H2741 H 0.70428 0.74645 0.3765 0.0
H2742 H 0.69983 0.71224 0.35702 0.0
C2743 C 0.73251 0.73847 0.32095 0.0
C2744 C 0.48284 0.56765 0.42674 0.0
C2745 C 0.47845 0.55865 0.44736 0.0
H2746 H 0.50541 0.57054 0.40021 0.0
C2747 C 0.49496 0.54609 0.45716 0.0
H2748 H 0.4708 0.57732 0.41841 0.0
C2749 C 0.51444 0.54169 0.44636 0.0
C2750 C 0.51852 0.55022 0.42563 0.0
H2751 H 0.49297 0.53947 0.47329 0.0
H2752 H 0.52626 0.53126 0.45415 0.0
C2753 C 0.5027 0.56369 0.41617 0.0
C2754 C 0.21936 0.78076 0.66887 0.0
C2755 C 0.23306 0.76498 0.67808 0.0
H2756 H 0.20522 0.81234 0.67162 0.0
C2757 C 0.24065 0.76824 0.69926 0.0
H2758 H 0.21303 0.77852 0.65262 0.0
C2759 C 0.23572 0.78744 0.71052 0.0
C2760 C 0.22334 0.80416 0.70077 0.0
H2761 H 0.25099 0.75623 0.70687 0.0
H2762 H 0.24194 0.78916 0.72684 0.0
C2763 C 0.21479 0.80018 0.6799 0.0
C2764 C 0.04134 0.57021 0.59536 0.0
C2765 C 0.04683 0.56052 0.57532 0.0
H2766 H 0.01773 0.57338 0.62092 0.0
C2767 C 0.03108 0.54705 0.56547 0.0
H2768 H 0.05272 0.5806 0.60375 0.0
C2769 C 1.01139 0.54236 0.57579 0.0
C2770 C 1.00629 0.55153 0.59599 0.0
H2771 H 0.03382 0.53988 0.5497 0.0
H2772 H 1.00027 0.53113 0.56808 0.0
C2773 C 0.02124 0.56601 0.60536 0.0
C2774 C 0.99147 0.97948 0.56814 0.0
C2775 C 0.9749 0.96685 0.57772 0.0
H2776 H 0.02275 0.99435 0.57151 0.0
C2777 C 0.97922 0.95771 0.59831 0.0
H2778 H 0.98958 0.98623 0.55205 0.0
C2779 C 0.99902 0.96161 0.60906 0.0
C2780 C 0.01488 0.97519 0.59983 0.0
H2781 H 0.96715 0.94797 0.60651 0.0
H2782 H 1.00164 0.95463 0.62498 0.0
C2783 C 1.0109 0.98384 0.57913 0.0
C2784 C 0.71057 0.79177 0.741 0.0
C2785 C 0.70092 0.80402 0.72414 0.0
H2786 H 0.70675 0.77693 0.77237 0.0
C2787 C 0.68027 0.81304 0.72803 0.0
H2788 H 0.72678 0.78525 0.7393 0.0
C2789 C 0.66925 0.80896 0.74754 0.0
C2790 C 0.67827 0.79525 0.7634 0.0
H2791 H 0.67211 0.82257 0.71575 0.0
H2792 H 0.65313 0.81559 0.74976 0.0
C2793 C 0.69931 0.78728 0.76025 0.0
C2794 C 0.04361 0.07457 0.51012 0.0
C2795 C 0.0531 0.09479 0.50565 0.0
H2796 H 0.04046 0.04796 0.53184 0.0
C2797 C 0.06758 0.10351 0.521 0.0
H2798 H 0.03243 0.06729 0.49867 0.0
C2799 C 0.07132 0.09296 0.54093 0.0
C2800 C 0.06123 0.07296 0.54583 0.0
H2801 H 0.07527 0.11902 0.51797 0.0
H2802 H 0.08166 0.10095 0.55264 0.0
C2803 C 0.04789 0.06368 0.52961 0.0
C2804 C 0.34395 0.70725 0.75343 0.0
C2805 C 0.34915 0.72869 0.75913 0.0
H2806 H 0.32868 0.68603 0.73039 0.0
C2807 C 0.34239 0.74551 0.7452 0.0
H2808 H 0.3491 0.69393 0.76368 0.0
C2809 C 0.33085 0.74107 0.72607 0.0
C2810 C 0.32555 0.71963 0.72027 0.0
H2811 H 0.34616 0.76223 0.74903 0.0
H2812 H 0.32577 0.75453 0.71598 0.0
C2813 C 0.33224 0.70277 0.73431 0.0
C2814 C 0.95842 0.4209 0.51804 0.0
C2815 C 0.97285 0.43001 0.50289 0.0
H2816 H 0.94408 0.42294 0.54956 0.0
C2817 C 0.98191 0.45037 0.50757 0.0
H2818 H 0.95106 0.40527 0.51483 0.0
C2819 C 0.97728 0.46103 0.52708 0.0
C2820 C 0.96403 0.45137 0.54312 0.0
H2821 H 0.99304 0.45794 0.49627 0.0
H2822 H 0.98437 0.47689 0.52946 0.0
C2823 C 0.95434 0.43122 0.538 0.0
C2824 C 0.68506 0.21226 0.77229 0.0
C2825 C 0.68305 0.23378 0.76508 0.0
H2826 H 0.69722 0.19068 0.79675 0.0
C2827 C 0.69225 0.2504 0.77775 0.0
H2828 H 0.6774 0.19919 0.76338 0.0
C2829 C 0.70322 0.24562 0.79717 0.0
C2830 C 0.70531 0.22406 0.80441 0.0
H2831 H 0.69055 0.26719 0.77281 0.0
H2832 H 0.71018 0.25883 0.80645 0.0
C2833 C 0.69622 0.20744 0.79158 0.0
C2834 C 0.45956 0.0985 0.48111 0.0
C2835 C 0.46844 0.07772 0.47723 0.0
H2836 H 0.45655 0.12548 0.50313 0.0
C2837 C 0.48084 0.06825 0.49405 0.0
H2838 H 0.45001 0.10665 0.46885 0.0
C2839 C 0.48522 0.07948 0.5133 0.0
C2840 C 0.47675 0.10031 0.5169 0.0
H2841 H 0.48734 0.05203 0.49255 0.0
H2842 H 0.49554 0.07189 0.52536 0.0
C2843 C 0.46341 0.10947 0.50079 0.0
C2844 C 0.34609 0.31927 0.77306 0.0
C2845 C 0.35124 0.29785 0.76727 0.0
H2846 H 0.33064 0.34037 0.79601 0.0
C2847 C 0.34434 0.28095 0.78102 0.0
H2848 H 0.3514 0.33263 0.76297 0.0
C2849 C 0.33248 0.28528 0.79994 0.0
C2850 C 0.32711 0.30668 0.80576 0.0
H2851 H 0.34813 0.26425 0.77718 0.0
H2852 H 0.32716 0.27174 0.80979 0.0
C2853 C 0.33416 0.32363 0.79202 0.0
C2854 C 0.55036 0.46124 0.49681 0.0
C2855 C 0.5641 0.45222 0.48081 0.0
H2856 H 0.53426 0.4572 0.52734 0.0
C2857 C 0.5743 0.43228 0.48579 0.0
H2858 H 0.54282 0.47691 0.49456 0.0
C2859 C 0.57027 0.42155 0.50555 0.0
C2860 C 0.55536 0.42998 0.52061 0.0
H2861 H 0.58495 0.42446 0.47426 0.0
H2862 H 0.57806 0.4061 0.50863 0.0
C2863 C 0.54577 0.45014 0.5161 0.0
C2864 C 0.72969 0.70326 0.78146 0.0
C2865 C 0.72361 0.70615 0.80329 0.0
H2866 H 0.75291 0.68996 0.75906 0.0
C2867 C 0.73749 0.69781 0.8195 0.0
H2868 H 0.71961 0.7096 0.76853 0.0
C2869 C 0.75657 0.68654 0.81403 0.0
C2870 C 0.76261 0.6837 0.79221 0.0
H2871 H 0.73326 0.69942 0.83647 0.0
H2872 H 0.76624 0.67944 0.82687 0.0
C2873 C 0.74892 0.69225 0.77602 0.0
C2874 C 0.93079 0.02499 0.49516 0.0
C2875 C 0.92295 1.0113 0.47869 0.0
H2876 H 0.94769 0.0541 0.50341 0.0
C2877 C 0.92649 0.01731 0.45696 0.0
H2878 H 0.92815 0.02103 0.51206 0.0
C2879 C 0.93793 0.03644 0.4519 0.0
C2880 C 0.94611 0.04996 0.46848 0.0
H2881 H 0.9205 1.00714 0.44394 0.0
H2882 H 0.94085 0.04035 0.43502 0.0
C2883 C 0.94208 0.04401 0.49016 0.0
C2884 C 0.28179 0.84906 0.77952 0.0
C2885 C 0.26826 0.85511 0.79688 0.0
H2886 H 0.31096 0.83348 0.7692 0.0
C2887 C 0.27482 0.84971 0.81807 0.0
H2888 H 0.2776 0.85327 0.76301 0.0
C2889 C 0.29425 0.83817 0.8217 0.0
C2890 C 0.30753 0.83178 0.80418 0.0
H2891 H 0.26489 0.85436 0.8318 0.0
H2892 H 0.2986 0.83382 0.83816 0.0
C2893 C 0.30106 0.83766 0.7831 0.0
C2894 C 0.09205 0.50414 0.49336 0.0
C2895 C 0.09899 0.51838 0.47695 0.0
H2896 H 0.07685 0.47409 0.50149 0.0
C2897 C 0.09548 0.51244 0.45521 0.0
H2898 H 0.09474 0.50803 0.51027 0.0
C2899 C 0.08502 0.49276 0.45006 0.0
C2900 C 0.07782 0.47864 0.46659 0.0
H2901 H 0.1008 0.52302 0.44223 0.0
H2902 H 0.08212 0.48885 0.43318 0.0
C2903 C 0.08174 0.4846 0.48829 0.0
C2904 C 0.75009 0.33275 0.74974 0.0
C2905 C 0.76303 0.34141 0.73305 0.0
H2906 H 0.72119 0.31523 0.75825 0.0
C2907 C 0.7562 0.33871 0.71147 0.0
H2908 H 0.75474 0.33499 0.76655 0.0
C2909 C 0.73695 0.32749 0.70669 0.0
C2910 C 0.72381 0.31901 0.72339 0.0
H2911 H 0.76533 0.34595 0.69833 0.0
H2912 H 0.73204 0.32599 0.68989 0.0
C2913 C 0.73072 0.32171 0.74499 0.0
C2914 C 0.60878 0.02467 0.56691 0.0
C2915 C 0.6002 1.00884 0.5529 0.0
H2916 H 0.60523 0.05619 0.58099 0.0
C2917 C 0.57953 1.01238 0.54399 0.0
H2918 H 0.62464 0.02234 0.57413 0.0
C2919 C 0.56792 0.03137 0.54856 0.0
C2920 C 0.57687 0.04798 0.5616 0.0
H2921 H 0.57239 1.00053 0.53315 0.0
H2922 H 0.55187 0.03287 0.54164 0.0
C2923 C 0.59746 0.04409 0.57096 0.0
C2924 C 0.28732 0.21048 0.7336 0.0
C2925 C 0.30426 0.20096 0.72138 0.0
H2926 H 0.25588 0.2065 0.74824 0.0
C2927 C 0.30045 0.18031 0.7123 0.0
H2928 H 0.28894 0.22667 0.74018 0.0
C2929 C 0.28094 0.16922 0.71623 0.0
C2930 C 0.26497 0.17813 0.72986 0.0
H2931 H 0.31278 0.17222 0.7028 0.0
H2932 H 0.27878 0.15312 0.70951 0.0
C2933 C 0.26807 0.19913 0.73794 0.0
C2934 C 0.44508 0.48158 0.53499 0.0
C2935 C 0.44911 0.47532 0.55658 0.0
H2936 H 0.43187 0.50528 0.51339 0.0
C2937 C 0.44183 0.48912 0.57334 0.0
H2938 H 0.45004 0.47133 0.52162 0.0
C2939 C 0.43123 0.50881 0.56852 0.0
C2940 C 0.42765 0.51508 0.54687 0.0
H2941 H 0.44481 0.48497 0.59015 0.0
H2942 H 0.4259 0.51917 0.58166 0.0
C2943 C 0.43461 0.50113 0.53023 0.0
C2944 C 0.82288 0.73209 0.69225 0.0
C2945 C 0.80593 0.71861 0.69977 0.0
H2946 H 0.83181 0.76094 0.67462 0.0
C2947 C 0.78447 0.72458 0.69475 0.0
H2948 H 0.83964 0.72796 0.69551 0.0
C2949 C 0.78009 0.74347 0.68283 0.0
C2950 C 0.79699 0.75699 0.67551 0.0
H2951 H 0.77096 0.71491 0.70043 0.0
H2952 H 0.76335 0.7475 0.67939 0.0
C2953 C 0.81846 0.751 0.68024 0.0
C2954 C 0.78062 0.29656 0.82246 0.0
C2955 C 0.80231 0.3033 0.81993 0.0
H2956 H 0.75872 0.27286 0.83576 0.0
C2957 C 0.81878 0.29013 0.82888 0.0
H2958 H 0.7675 0.30607 0.81565 0.0
C2959 C 0.81371 0.27105 0.8403 0.0
C2960 C 0.79206 0.26438 0.84278 0.0
H2961 H 0.83564 0.29489 0.82757 0.0
H2962 H 0.8267 0.26191 0.84781 0.0
C2963 C 0.77559 0.27737 0.83372 0.0
C2964 C 0.53278 0.9799 0.46175 0.0
C2965 C 0.54881 0.96606 0.4529 0.0
H2966 H 0.5022 0.99595 0.45755 0.0
C2967 C 0.54388 0.9558 0.43296 0.0
H2968 H 0.53493 0.98752 0.47739 0.0
C2969 C 0.52411 0.95975 0.42217 0.0
C2970 C 0.50896 0.97463 0.43052 0.0
H2971 H 0.55541 0.9451 0.42523 0.0
H2972 H 0.52102 0.95181 0.4068 0.0
C2973 C 0.51349 0.98442 0.45058 0.0
C2974 C 0.21386 0.25626 0.83839 0.0
C2975 C 0.23564 0.26246 0.84122 0.0
H2976 H 0.19154 0.23284 0.82544 0.0
C2977 C 0.2519 0.24892 0.83261 0.0
H2978 H 0.20096 0.2658 0.84555 0.0
C2979 C 0.24656 0.22969 0.82154 0.0
C2980 C 0.22476 0.22346 0.81864 0.0
H2981 H 0.26885 0.25302 0.83489 0.0
H2982 H 0.25955 0.21972 0.81515 0.0
C2983 C 0.20849 0.23718 0.82706 0.0
C2984 C 0.01553 0.04405 0.94925 0.0
C2985 C 0.02003 0.0535 0.92903 0.0
H2986 H 0.99409 0.04142 0.97607 0.0
C2987 C 1.00493 0.06826 0.92039 0.0
H2988 H 0.0268 0.0326 0.95641 0.0
C2989 C 0.98517 0.07239 0.93106 0.0
C2990 C 0.98027 0.06244 0.95114 0.0
H2991 H 1.00801 0.0759 0.90486 0.0
H2992 H 0.97363 0.08295 0.92313 0.0
C2993 C 0.99627 0.04877 0.9603 0.0
C2994 C 0.71156 0.27036 0.18698 0.0
C2995 C 0.73313 0.26346 0.18445 0.0
H2996 H 0.68996 0.29457 0.19957 0.0
C2997 C 0.74979 0.27633 0.19329 0.0
H2998 H 0.69843 0.2613 0.17961 0.0
C2999 C 0.74503 0.29569 0.20432 0.0
C3000 C 0.72344 0.30268 0.20685 0.0
H3001 H 0.7666 0.27162 0.1912 0.0
H3002 H 0.75828 0.30516 0.21094 0.0
C3003 C 0.70676 0.2896 0.1982 0.0
C3004 C 0.54354 0.06804 0.09896 0.0
C3005 C 0.54775 0.05924 0.07822 0.0
H3006 H 0.52129 0.07056 0.12579 0.0
C3007 C 0.53123 0.04661 0.06855 0.0
H3008 H 0.5556 0.07776 0.10722 0.0
C3009 C 0.51194 0.04195 0.07958 0.0
C3010 C 0.50804 0.0503 0.1004 0.0
H3011 H 0.53305 0.04013 0.05235 0.0
H3012 H 0.50011 0.03146 0.07187 0.0
C3013 C 0.52386 0.06384 0.10976 0.0
C3014 C 0.51508 0.48406 0.07832 0.0
C3015 C 0.52007 0.47415 0.09821 0.0
H3016 H 0.49277 0.48756 0.05219 0.0
C3017 C 0.50512 0.45923 0.10685 0.0
H3018 H 0.52621 0.4956 0.07113 0.0
C3019 C 0.48507 0.45541 0.09655 0.0
C3020 C 0.47963 0.46591 0.07689 0.0
H3021 H 0.50854 0.45125 0.12214 0.0
H3022 H 0.4737 0.44468 0.10448 0.0
C3023 C 0.49544 0.47975 0.06768 0.0
C3024 C 0.08443 0.3538 0.35804 0.0
C3025 C 0.07558 0.33319 0.35347 0.0
H3026 H 0.08099 0.38385 0.37555 0.0
C3027 C 0.05448 0.32868 0.36115 0.0
H3028 H 0.10065 0.35788 0.3527 0.0
C3029 C 0.04332 0.34357 0.37427 0.0
C3030 C 0.05273 0.36354 0.37982 0.0
H3031 H 0.04686 0.31322 0.35774 0.0
H3032 H 0.02774 0.339 0.38103 0.0
C3033 C 0.07316 0.36876 0.37111 0.0
C3034 C 0.59184 0.72358 0.89188 0.0
C3035 C 0.61158 0.71439 0.88509 0.0
H3036 H 0.56163 0.71884 0.90846 0.0
C3037 C 0.61697 0.69351 0.8923 0.0
H3038 H 0.58717 0.73958 0.8863 0.0
C3039 C 0.60241 0.68161 0.90516 0.0
C3040 C 0.58194 0.69018 0.91086 0.0
H3041 H 0.63199 0.686 0.88713 0.0
H3042 H 0.60694 0.66534 0.91 0.0
C3043 C 0.57719 0.71165 0.90462 0.0
C3044 C 0.97353 0.19747 0.36269 0.0
C3045 C 0.95255 0.1927 0.35481 0.0
H3046 H 1.00017 0.18752 0.38293 0.0
C3047 C 0.94382 0.17206 0.35948 0.0
H3048 H 0.98104 0.21296 0.35921 0.0
C3049 C 0.95508 0.15732 0.3728 0.0
C3050 C 0.97538 0.16278 0.38166 0.0
H3051 H 0.92768 0.1678 0.354 0.0
H3052 H 0.94733 0.1422 0.37728 0.0
C3053 C 0.98468 0.18279 0.37606 0.0
C3054 C 0.45644 0.80957 0.90193 0.0
C3055 C 0.44859 0.82946 0.90998 0.0
H3056 H 0.45011 0.78172 0.88181 0.0
C3057 C 0.42669 0.8348 0.90597 0.0
H3058 H 0.47321 0.80498 0.90445 0.0
C3059 C 0.41348 0.82141 0.89313 0.0
C3060 C 0.42175 0.80225 0.88402 0.0
H3061 H 0.41996 0.84983 0.91208 0.0
H3062 H 0.39716 0.82669 0.88925 0.0
C3063 C 0.4432 0.79619 0.88899 0.0
C3064 C 0.08369 0.67256 0.16746 0.0
C3065 C 0.07487 0.69324 0.17177 0.0
H3066 H 0.08049 0.64255 0.14987 0.0
C3067 C 0.05394 0.69784 0.16367 0.0
H3068 H 0.09979 0.66841 0.17313 0.0
C3069 C 0.04298 0.683 0.15033 0.0
C3070 C 0.05243 0.663 0.14499 0.0
H3071 H 0.04635 0.71336 0.16689 0.0
H3072 H 0.02759 0.68766 0.14319 0.0
C3073 C 0.07262 0.65766 0.15417 0.0
C3074 C 0.91167 0.69374 0.13568 0.0
C3075 C 0.91788 0.7143 0.14314 0.0
H3076 H 0.92072 0.66526 0.11798 0.0
C3077 C 0.93818 0.7226 0.13684 0.0
H3078 H 0.89621 0.68691 0.1405 0.0
C3079 C 0.95251 0.71008 0.12433 0.0
C3080 C 0.94688 0.6889 0.11781 0.0
H3081 H 0.94347 0.7383 0.14269 0.0
H3082 H 0.96847 0.71655 0.12088 0.0
C3083 C 0.92592 0.68126 0.12304 0.0
C3084 C 0.97537 0.82703 0.16218 0.0
C3085 C 0.95468 0.83171 0.1708 0.0
H3086 H 1.00152 0.83746 0.1416 0.0
C3087 C 0.94611 0.85265 0.16723 0.0
H3088 H 0.98277 0.81132 0.1648 0.0
C3089 C 0.95719 0.86779 0.15421 0.0
C3090 C 0.97714 0.86245 0.14455 0.0
H3091 H 0.93019 0.85688 0.17331 0.0
H3092 H 0.94948 0.88315 0.15051 0.0
C3093 C 0.98634 0.84212 0.14913 0.0
C3094 C 0.07536 0.81641 0.12688 0.0
C3095 C 0.08147 0.83729 0.1199 0.0
H3096 H 0.08375 0.78836 0.14589 0.0
C3097 C 0.10252 0.84466 0.12524 0.0
H3098 H 0.05931 0.81018 0.12336 0.0
C3099 C 0.11644 0.83216 0.13828 0.0
C3100 C 0.10979 0.81187 0.1461 0.0
H3101 H 0.10807 0.86043 0.11987 0.0
H3102 H 0.13205 0.83873 0.14298 0.0
C3103 C 0.08934 0.80388 0.13984 0.0
C3104 C 0.36252 0.08348 0.35365 0.0
C3105 C 0.35881 0.07706 0.33198 0.0
H3106 H 0.37918 0.0771 0.38366 0.0
C3107 C 0.36748 0.05706 0.32512 0.0
H3108 H 0.35595 0.09862 0.35966 0.0
C3109 C 0.38064 0.04463 0.33905 0.0
C3110 C 0.38521 0.0517 0.36027 0.0
H3111 H 0.36524 0.05164 0.30856 0.0
H3112 H 0.38824 0.03004 0.33285 0.0
C3113 C 0.37558 0.07101 0.36757 0.0
C3114 C 0.34437 0.40268 0.92514 0.0
C3115 C 0.3371 0.40736 0.94638 0.0
H3116 H 0.33862 0.3854 0.89532 0.0
C3117 C 0.31655 0.3995 0.9526 0.0
H3118 H 0.35986 0.40873 0.9195 0.0
C3119 C 0.30428 0.38643 0.93851 0.0
C3120 C 0.31219 0.38089 0.91783 0.0
H3121 H 0.3104 0.40246 0.96878 0.0
H3122 H 0.28903 0.37976 0.94415 0.0
C3123 C 0.33212 0.38952 0.91112 0.0
C3124 C 0.66506 0.47408 0.32717 0.0
C3125 C 0.67335 0.45332 0.33218 0.0
H3126 H 0.64434 0.5004 0.33687 0.0
C3127 C 0.66922 0.44488 0.35305 0.0
H3128 H 0.66815 0.48139 0.31149 0.0
C3129 C 0.6559 0.45612 0.36776 0.0
C3130 C 0.64647 0.47608 0.362 0.0
H3131 H 0.67504 0.42892 0.35752 0.0
H3132 H 0.65175 0.44854 0.38306 0.0
C3133 C 0.65165 0.48519 0.34181 0.0
C3134 C 0.68026 0.12714 0.92525 0.0
C3135 C 0.68782 0.12122 0.94608 0.0
H3136 H 0.68618 0.14524 0.89595 0.0
C3137 C 0.70892 0.12775 0.95205 0.0
H3138 H 0.66433 0.12215 0.91978 0.0
C3139 C 0.72153 0.14066 0.93812 0.0
C3140 C 0.71343 0.14737 0.91786 0.0
H3141 H 0.71534 0.12384 0.96793 0.0
H3142 H 0.73727 0.14627 0.9436 0.0
C3143 C 0.69285 0.14016 0.9114 0.0
C3144 C 0.36264 0.97401 0.20044 0.0
C3145 C 0.35417 0.95331 0.19551 0.0
H3146 H 0.38348 1.00019 0.19057 0.0
C3147 C 0.35816 0.9448 0.17465 0.0
H3148 H 0.35966 0.98137 0.21611 0.0
C3149 C 0.37148 0.95592 0.15984 0.0
C3150 C 0.38106 0.97582 0.16551 0.0
H3151 H 0.35221 0.92888 0.17024 0.0
H3152 H 0.3755 0.94829 0.14453 0.0
C3153 C 0.37605 0.98501 0.18571 0.0
C3154 C 0.19527 0.38922 0.11579 0.0
C3155 C 0.21575 0.38162 0.10951 0.0
H3156 H 0.16674 0.40689 0.10676 0.0
C3157 C 0.22391 0.38776 0.08909 0.0
H3158 H 0.18854 0.38454 0.13134 0.0
C3159 C 0.2113 0.40023 0.07474 0.0
C3160 C 0.19018 0.40682 0.08044 0.0
H3161 H 0.23956 0.38183 0.08374 0.0
H3162 H 0.21764 0.40355 0.0587 0.0
C3163 C 0.1827 0.40178 0.10152 0.0
C3164 C 0.66559 0.58541 0.17344 0.0
C3165 C 0.66954 0.57895 0.19506 0.0
H3166 H 0.64882 0.57894 0.14351 0.0
C3167 C 0.66107 0.55885 0.20192 0.0
H3168 H 0.67197 0.60064 0.16743 0.0
C3169 C 0.64795 0.54633 0.18804 0.0
C3170 C 0.64319 0.55339 0.16686 0.0
H3171 H 0.66348 0.55338 0.21845 0.0
H3172 H 0.64054 0.53165 0.19426 0.0
C3173 C 0.65257 0.57284 0.15956 0.0
C3174 C 0.80295 0.13957 0.08966 0.0
C3175 C 0.81101 0.14596 0.11003 0.0
H3176 H 0.80933 0.12333 0.05955 0.0
C3177 C 0.83152 0.13858 0.11651 0.0
H3178 H 0.78726 0.14531 0.08419 0.0
C3179 C 0.84416 0.12585 0.10249 0.0
C3180 C 0.83672 0.12042 0.08149 0.0
H3181 H 0.83814 0.14343 0.13206 0.0
H3182 H 0.8601 0.12082 0.10791 0.0
C3183 C 0.81563 0.12693 0.07556 0.0
C3184 C 0.36829 0.37137 0.06933 0.0
C3185 C 0.36276 0.38128 0.04954 0.0
H3186 H 0.35765 0.35186 0.09614 0.0
C3187 C 0.34244 0.37663 0.04033 0.0
H3188 H 0.38362 0.37514 0.07706 0.0
C3189 C 0.3275 0.36333 0.0512 0.0
C3190 C 0.33233 0.35452 0.07178 0.0
H3191 H 0.33762 0.38437 0.02529 0.0
H3192 H 0.31175 0.36072 0.04385 0.0
C3193 C 0.3533 0.35809 0.08029 0.0
C3194 C 0.35373 0.66646 0.44359 0.0
C3195 C 0.3331 0.67099 0.45239 0.0
H3196 H 0.38355 0.64853 0.44679 0.0
C3197 C 0.32837 0.66291 0.47329 0.0
H3198 H 0.35796 0.67211 0.42751 0.0
C3199 C 0.34306 0.64939 0.48425 0.0
C3200 C 0.36301 0.64383 0.47481 0.0
H3201 H 0.31289 0.66628 0.48085 0.0
H3202 H 0.33832 0.64227 0.49961 0.0
C3203 C 0.36848 0.65299 0.45465 0.0
C3204 C 0.89922 0.42384 0.84503 0.0
C3205 C 0.90529 0.44456 0.83732 0.0
H3206 H 0.88127 0.39448 0.83908 0.0
C3207 C 0.89957 0.45013 0.8159 0.0
H3208 H 0.90364 0.4187 0.86124 0.0
C3209 C 0.88709 0.43598 0.80311 0.0
C3210 C 0.88005 0.41592 0.8114 0.0
H3211 H 0.90369 0.46591 0.80938 0.0
H3212 H 0.88194 0.44119 0.78713 0.0
C3213 C 0.88664 0.40978 0.83228 0.0
C3214 C 0.66147 0.87425 0.45777 0.0
C3215 C 0.66921 0.88492 0.47634 0.0
H3216 H 0.66905 0.85405 0.43049 0.0
C3217 C 0.69087 0.88147 0.4827 0.0
H3218 H 0.64501 0.87699 0.45223 0.0
C3219 C 0.70478 0.8684 0.47018 0.0
C3220 C 0.69741 0.85878 0.45081 0.0
H3221 H 0.69737 0.88989 0.49669 0.0
H3222 H 0.72165 0.86702 0.47491 0.0
C3223 C 0.67536 0.86133 0.44519 0.0
C3224 C 0.62642 0.56812 0.3094 0.0
C3225 C 0.61762 0.57607 0.32893 0.0
H3226 H 0.64706 0.57451 0.28197 0.0
C3227 C 0.62084 0.59818 0.33394 0.0
H3228 H 0.62452 0.5512 0.30505 0.0
C3229 C 0.63369 0.6115 0.32066 0.0
C3230 C 0.64355 0.60315 0.30191 0.0
H3231 H 0.61412 0.60501 0.34866 0.0
H3232 H 0.63697 0.628 0.32575 0.0
C3233 C 0.63932 0.58147 0.29612 0.0
C3234 C 0.15955 0.65543 0.56998 0.0
C3235 C 0.16472 0.64567 0.55002 0.0
H3236 H 0.17071 0.67469 0.59677 0.0
C3237 C 0.1849 0.65031 0.54056 0.0
H3238 H 0.14431 0.65168 0.57788 0.0
C3239 C 0.20006 0.66347 0.55131 0.0
C3240 C 0.19559 0.67214 0.57201 0.0
H3241 H 0.18944 0.6427 0.52537 0.0
H3242 H 0.2157 0.6661 0.54374 0.0
C3243 C 0.17477 0.66857 0.58082 0.0
C3244 C 0.88641 0.58711 0.72219 0.0
C3245 C 0.88029 0.60767 0.7144 0.0
H3246 H 0.90259 0.55701 0.71557 0.0
C3247 C 0.8881 0.61445 0.69416 0.0
H3248 H 0.88036 0.58142 0.73768 0.0
C3249 C 0.90096 0.60056 0.68149 0.0
C3250 C 0.90614 0.57939 0.68864 0.0
H3251 H 0.88351 0.63016 0.68774 0.0
H3252 H 0.90632 0.60621 0.66575 0.0
C3253 C 0.89919 0.57314 0.7095 0.0
C3254 C 0.13041 0.91332 0.70544 0.0
C3255 C 0.14067 0.92176 0.72396 0.0
H3256 H 0.11029 0.9197 0.67777 0.0
C3257 C 0.13651 0.94345 0.72975 0.0
H3258 H 0.13367 0.89683 0.70032 0.0
C3259 C 0.12328 0.95673 0.7167 0.0
C3260 C 0.1141 0.9487 0.69736 0.0
H3261 H 0.14458 0.9505 0.74368 0.0
H3262 H 0.12145 0.97366 0.72101 0.0
C3263 C 0.11726 0.92658 0.69236 0.0
C3264 C 0.58043 0.85074 0.86118 0.0
C3265 C 0.57238 0.82952 0.85815 0.0
H3266 H 0.57653 0.88142 0.87742 0.0
C3267 C 0.5521 0.82433 0.86742 0.0
H3268 H 0.59604 0.85537 0.85461 0.0
C3269 C 0.54104 0.83929 0.88053 0.0
C3270 C 0.54971 0.85996 0.88446 0.0
H3271 H 0.5451 0.80838 0.86521 0.0
H3272 H 0.52617 0.83432 0.88849 0.0
C3273 C 0.56924 0.86575 0.87423 0.0
C3274 C 0.07606 0.2093 0.40001 0.0
C3275 C 0.08161 0.18784 0.40566 0.0
H3276 H 0.08489 0.23805 0.38229 0.0
C3277 C 0.10222 0.18007 0.3993 0.0
H3278 H 0.06035 0.21588 0.40432 0.0
C3279 C 0.11618 0.19279 0.38656 0.0
C3280 C 0.11006 0.21372 0.38008 0.0
H3281 H 0.10736 0.16385 0.40364 0.0
H3282 H 0.13137 0.18594 0.381 0.0
C3283 C 0.09011 0.22205 0.38736 0.0
C3284 C 0.47947 0.68814 0.88087 0.0
C3285 C 0.47227 0.66713 0.88611 0.0
H3286 H 0.47252 0.71828 0.8648 0.0
C3287 C 0.45271 0.65979 0.877 0.0
H3288 H 0.49425 0.69439 0.88807 0.0
C3289 C 0.44014 0.6735 0.86379 0.0
C3290 C 0.44672 0.69499 0.85939 0.0
H3291 H 0.44652 0.64387 0.88111 0.0
H3292 H 0.42481 0.66749 0.85763 0.0
C3293 C 0.46696 0.70185 0.86756 0.0
C3294 C 0.92532 0.3452 0.39805 0.0
C3295 C 0.94604 0.33743 0.40409 0.0
H3296 H 0.89587 0.33932 0.38021 0.0
C3297 C 0.9515 0.31597 0.39843 0.0
H3298 H 0.92026 0.36144 0.40243 0.0
C3299 C 0.93724 0.30322 0.38601 0.0
C3300 C 0.91718 0.31156 0.37901 0.0
H3301 H 0.96727 0.30941 0.40252 0.0
H3302 H 0.94238 0.28721 0.38091 0.0
C3303 C 0.91116 0.33248 0.38555 0.0
C3304 C 0.58137 0.17378 0.66786 0.0
C3305 C 0.57291 0.19462 0.67207 0.0
H3306 H 0.57782 0.1439 0.65014 0.0
C3307 C 0.55225 0.19973 0.66361 0.0
H3308 H 0.59727 0.16925 0.67381 0.0
C3309 C 0.54123 0.18521 0.64998 0.0
C3310 C 0.55036 0.16504 0.64475 0.0
H3311 H 0.54495 0.2154 0.66675 0.0
H3312 H 0.52608 0.19021 0.64258 0.0
C3313 C 0.57023 0.15918 0.65432 0.0
C3314 C 0.41468 0.20535 0.63261 0.0
C3315 C 0.42299 0.22422 0.6423 0.0
H3316 H 0.42118 0.17726 0.61317 0.0
C3317 C 0.44461 0.23008 0.63792 0.0
H3318 H 0.39822 0.2002 0.63602 0.0
C3319 C 0.45795 0.21681 0.625 0.0
C3320 C 0.45004 0.1972 0.61634 0.0
H3321 H 0.45156 0.24431 0.64556 0.0
H3322 H 0.47482 0.22126 0.62296 0.0
C3323 C 0.42799 0.19206 0.61976 0.0
C3324 C 0.48156 0.33851 0.64598 0.0
C3325 C 0.47452 0.35974 0.64144 0.0
H3326 H 0.47447 0.30798 0.66123 0.0
C3327 C 0.45509 0.36698 0.65088 0.0
H3328 H 0.49623 0.33236 0.63852 0.0
C3329 C 0.44253 0.35302 0.66379 0.0
C3330 C 0.44897 0.33136 0.66752 0.0
H3331 H 0.44901 0.38308 0.6473 0.0
H3332 H 0.42733 0.359 0.67025 0.0
C3333 C 0.46904 0.32453 0.65898 0.0
C3334 C 0.57755 0.31499 0.62509 0.0
C3335 C 0.58288 0.33646 0.61935 0.0
H3336 H 0.58657 0.28653 0.64316 0.0
C3337 C 0.60334 0.34455 0.6258 0.0
H3338 H 0.56196 0.30819 0.62067 0.0
C3339 C 0.61733 0.33214 0.63881 0.0
C3340 C 0.61139 0.31123 0.64544 0.0
H3341 H 0.60829 0.36082 0.62139 0.0
H3342 H 0.63239 0.33924 0.64447 0.0
C3343 C 0.59163 0.30255 0.638 0.0
C3344 C 0.87503 0.54162 0.84397 0.0
C3345 C 0.88088 0.55106 0.86384 0.0
H3346 H 0.85816 0.54519 0.81379 0.0
C3347 C 0.87235 0.57155 0.8691 0.0
H3348 H 0.88163 0.52599 0.83939 0.0
C3349 C 0.85917 0.58286 0.85425 0.0
C3350 C 0.85432 0.57398 0.83372 0.0
H3351 H 0.87702 0.57939 0.88412 0.0
H3352 H 0.85398 0.59914 0.85833 0.0
C3353 C 0.86179 0.55282 0.8292 0.0
C3354 C 0.8332 0.90853 0.42759 0.0
C3355 C 0.82762 0.91149 0.44959 0.0
H3356 H 0.82586 0.89258 0.39744 0.0
C3357 C 0.80808 0.90228 0.45704 0.0
H3358 H 0.84799 0.91552 0.42118 0.0
C3359 C 0.79533 0.88926 0.4433 0.0
C3360 C 0.8016 0.88541 0.4217 0.0
H3361 H 0.80334 0.90397 0.47387 0.0
H3362 H 0.78119 0.88117 0.4499 0.0
C3363 C 0.82038 0.89564 0.41385 0.0
C3364 C 0.16516 0.94384 0.85172 0.0
C3365 C 0.16806 0.95014 0.82989 0.0
H3366 H 0.14945 0.95026 0.88219 0.0
C3367 C 0.15902 0.97002 0.82317 0.0
H3368 H 0.17204 0.92877 0.8576 0.0
C3369 C 0.14624 0.98244 0.83742 0.0
C3370 C 0.14243 0.97546 0.85882 0.0
H3371 H 0.16065 0.97534 0.8065 0.0
H3372 H 0.13828 0.9969 0.83136 0.0
C3373 C 0.15248 0.9563 0.86596 0.0
C3374 C 0.18187 0.62564 0.42462 0.0
C3375 C 0.18948 0.62032 0.44559 0.0
H3376 H 0.18759 0.64318 0.39495 0.0
C3377 C 0.21051 0.62714 0.45142 0.0
H3378 H 0.16598 0.62038 0.41927 0.0
C3379 C 0.22298 0.63986 0.43722 0.0
C3380 C 0.21478 0.64609 0.41685 0.0
H3381 H 0.21694 0.62365 0.4674 0.0
H3382 H 0.23864 0.64577 0.4426 0.0
C3383 C 0.19431 0.63848 0.41049 0.0
C3384 C 0.86264 0.47275 0.69695 0.0
C3385 C 0.85453 0.45187 0.69216 0.0
H3386 H 0.88279 0.49935 0.68681 0.0
C3387 C 0.8585 0.44342 0.67126 0.0
H3388 H 0.85968 0.48007 0.71264 0.0
C3389 C 0.87143 0.45481 0.65627 0.0
C3390 C 0.88062 0.47495 0.66176 0.0
H3391 H 0.85282 0.42738 0.66693 0.0
H3392 H 0.87546 0.44721 0.64095 0.0
C3393 C 0.87563 0.48402 0.68203 0.0
C3394 C 0.71804 0.9014 0.57057 0.0
C3395 C 0.69862 0.91048 0.57848 0.0
H3396 H 0.74499 0.8801 0.57692 0.0
C3397 C 0.69335 0.90707 0.60049 0.0
H3398 H 0.72254 0.90344 0.55371 0.0
C3399 C 0.70629 0.89383 0.61377 0.0
C3400 C 0.72491 0.88371 0.60545 0.0
H3401 H 0.67866 0.91394 0.60725 0.0
H3402 H 0.70102 0.89044 0.63019 0.0
C3403 C 0.73094 0.88806 0.58386 0.0
C3404 C 0.15247 0.06841 0.65979 0.0
C3405 C 0.14226 0.04895 0.6659 0.0
H3406 H 0.17232 0.09526 0.66965 0.0
C3407 C 0.14659 0.0404 0.68656 0.0
H3408 H 0.14898 0.07561 0.64414 0.0
C3409 C 0.16 0.05156 0.70121 0.0
C3410 C 0.16919 0.07181 0.69574 0.0
H3411 H 0.13866 0.02561 0.69179 0.0
H3412 H 0.16246 0.04467 0.71718 0.0
C3413 C 0.16581 0.07969 0.6745 0.0
C3414 C 0.31646 0.6239 0.57425 0.0
C3415 C 0.33754 0.61708 0.57993 0.0
H3416 H 0.28847 0.6427 0.58315 0.0
C3417 C 0.34524 0.62235 0.60088 0.0
H3418 H 0.30995 0.62045 0.5583 0.0
C3419 C 0.33291 0.63524 0.61505 0.0
C3420 C 0.31244 0.64294 0.60879 0.0
H3421 H 0.36116 0.61709 0.60614 0.0
H3422 H 0.33979 0.64003 0.6305 0.0
C3423 C 0.30409 0.63667 0.5885 0.0
C3424 C 0.86493 0.87382 0.57131 0.0
C3425 C 0.85696 0.88436 0.55275 0.0
H3426 H 0.85783 0.8532 0.59842 0.0
C3427 C 0.83546 0.88031 0.54626 0.0
H3428 H 0.88128 0.877 0.57694 0.0
C3429 C 0.82188 0.86681 0.55864 0.0
C3430 C 0.82943 0.85727 0.578 0.0
H3431 H 0.82878 0.88863 0.53227 0.0
H3432 H 0.80508 0.86499 0.5538 0.0
C3433 C 0.85136 0.86042 0.58375 0.0
C3434 C 0.8681 0.15547 0.95608 0.0
C3435 C 0.86268 0.1464 0.97629 0.0
H3436 H 0.85744 0.17421 0.92872 0.0
C3437 C 0.84257 0.15169 0.98555 0.0
H3438 H 0.88329 0.15122 0.94835 0.0
C3439 C 0.82773 0.1649 0.9744 0.0
C3440 C 0.83244 0.17291 0.95347 0.0
H3441 H 0.83786 0.14464 1.00095 0.0
H3442 H 0.81216 0.1681 0.98187 0.0
C3443 C 0.85319 0.16862 0.94482 0.0
C3444 C 0.38825 0.93614 0.30401 0.0
C3445 C 0.38136 0.91613 0.31254 0.0
H3446 H 0.40543 0.96589 0.3096 0.0
C3447 C 0.38871 0.90993 0.33316 0.0
H3448 H 0.38256 0.9414 0.28823 0.0
C3449 C 0.40195 0.92386 0.3454 0.0
C3450 C 0.40796 0.94451 0.33745 0.0
H3451 H 0.3835 0.89467 0.34014 0.0
H3452 H 0.40697 0.91866 0.36142 0.0
C3453 C 0.40141 0.95015 0.31628 0.0
C3454 C 0.17297 0.35757 0.94269 0.0
C3455 C 0.19364 0.35308 0.95146 0.0
H3456 H 0.14289 0.37501 0.94624 0.0
C3457 C 0.19817 0.36066 0.9726 0.0
H3458 H 0.16886 0.35229 0.92645 0.0
C3459 C 0.18328 0.3737 0.98384 0.0
C3460 C 0.16328 0.37926 0.97447 0.0
H3461 H 0.21368 0.35729 0.98015 0.0
H3462 H 0.18789 0.38047 0.9994 0.0
C3463 C 0.158 0.37055 0.95405 0.0
C3464 C 0.12274 0.10379 0.84352 0.0
C3465 C 0.11714 0.08304 0.83552 0.0
H3466 H 0.14069 0.13328 0.83835 0.0
C3467 C 0.12341 0.07772 0.81421 0.0
H3468 H 0.11789 0.10873 0.85965 0.0
C3469 C 0.13614 0.09207 0.8019 0.0
C3470 C 0.14288 0.11209 0.81057 0.0
H3471 H 0.11963 0.06194 0.80749 0.0
H3472 H 0.1418 0.08698 0.78608 0.0
C3473 C 0.13557 0.11805 0.83125 0.0
C3474 C 0.6827 0.15061 0.04183 0.0
C3475 C 0.66272 0.14498 0.05116 0.0
H3476 H 0.71293 0.16735 0.04552 0.0
C3477 C 0.65723 0.1539 0.07142 0.0
H3478 H 0.68746 0.14368 0.0264 0.0
C3479 C 0.672 0.16719 0.08267 0.0
C3480 C 0.69266 0.17176 0.07397 0.0
H3481 H 0.64213 0.14939 0.07919 0.0
H3482 H 0.66775 0.17265 0.09882 0.0
C3483 C 0.69741 0.16393 0.05299 0.0
C3484 C 0.40131 0.06798 0.21735 0.0
C3485 C 0.4099 0.07592 0.19772 0.0
H3486 H 0.38087 0.07435 0.24493 0.0
C3487 C 0.40656 0.098 0.19267 0.0
H3488 H 0.40331 0.05108 0.22172 0.0
C3489 C 0.3938 0.11131 0.20604 0.0
C3490 C 0.38414 0.10297 0.22491 0.0
H3491 H 0.4131 0.10482 0.17786 0.0
H3492 H 0.39041 0.12779 0.20095 0.0
C3493 C 0.38849 0.08131 0.23071 0.0
C3494 C 0.6391 0.43611 0.22412 0.0
C3495 C 0.646 0.41619 0.21538 0.0
H3496 H 0.62219 0.46606 0.2187 0.0
C3497 C 0.63886 0.41032 0.19461 0.0
H3498 H 0.64464 0.44111 0.24003 0.0
C3499 C 0.62588 0.4245 0.18239 0.0
C3500 C 0.61994 0.44509 0.19053 0.0
H3501 H 0.64409 0.39514 0.18747 0.0
H3502 H 0.62106 0.41958 0.16623 0.0
C3503 C 0.6262 0.45038 0.21187 0.0
loop_
_geom_bond_atom_site_label_1
_geom_bond_atom_site_label_2
_geom_bond_distance
_geom_bond_site_symmetry_2
_ccdc_geom_bond_type
C0 C1 1.443 . S
C0 N4 1.376 . S
C0 C38 1.389 . S
C1 C0 1.443 . S
C1 C2 1.340 . S
C1 H41 0.951 . S
C2 C1 1.340 . S
C2 C3 1.439 . S
C2 H42 0.950 . S
C3 C2 1.439 . S
C3 N4 1.374 . S
C3 C37 1.395 . S
N4 C0 1.376 . S
N4 C3 1.374 . S
N4 Co5 2.008 . S
Co5 N4 2.008 . S
Co5 N6 1.995 . S
Co5 N11 2.008 . S
Co5 N16 1.995 . S
Co5 N21 2.282 . S
Co5 N27 2.282 . S
N6 Co5 1.995 . S
N6 C7 1.376 . S
N6 C10 1.383 . S
C7 N6 1.376 . S
C7 C8 1.446 . S
C7 C37 1.391 . S
C8 C7 1.446 . S
C8 C9 1.339 . S
C8 H43 0.949 . S
C9 C8 1.339 . S
C9 C10 1.439 . S
C9 H44 0.950 . S
C10 N6 1.383 . S
C10 C9 1.439 . S
C10 C39 1.392 . S
N11 Co5 2.008 . S
N11 C12 1.376 . S
N11 C15 1.374 . S
C12 N11 1.376 . S
C12 C13 1.443 . S
C12 C39 1.389 . S
C13 C12 1.443 . S
C13 C14 1.340 . S
C13 H45 0.951 . S
C14 C13 1.340 . S
C14 C15 1.439 . S
C14 H46 0.950 . S
C15 N11 1.374 . S
C15 C14 1.439 . S
C15 C40 1.395 . S
N16 Co5 1.995 . S
N16 C17 1.376 . S
N16 C20 1.383 . S
C17 N16 1.376 . S
C17 C18 1.446 . S
C17 C40 1.391 . S
C18 C17 1.446 . S
C18 C19 1.339 . S
C18 H47 0.949 . S
C19 C18 1.339 . S
C19 C20 1.439 . S
C19 H48 0.950 . S
C20 N16 1.383 . S
C20 C19 1.439 . S
C20 C38 1.392 . S
N21 Co5 2.282 . S
N21 C24 1.332 . S
N21 C26 1.332 . S
C22 C23 1.386 . S
C22 C25 1.388 . S
C23 C22 1.386 . S
C23 C24 1.382 . S
C23 H49 0.950 . S
C24 N21 1.332 . S
C24 C23 1.382 . S
C24 H35 0.952 . S
C25 C22 1.388 . S
C25 C26 1.382 . S
C25 H50 0.950 . S
C26 N21 1.332 . S
C26 C25 1.382 . S
C26 H36 0.948 . S
N27 Co5 2.282 . S
N27 C31 1.332 . S
N27 C32 1.332 . S
C28 C29 1.388 . S
C28 C32 1.382 . S
C28 H51 0.950 . S
C29 C28 1.388 . S
C29 C30 1.386 . S
C30 C29 1.386 . S
C30 C31 1.382 . S
C30 H52 0.950 . S
C31 N27 1.332 . S
C31 C30 1.382 . S
C31 H33 0.952 . S
C32 N27 1.332 . S
C32 C28 1.382 . S
C32 H34 0.948 . S
H33 C31 0.952 . S
H34 C32 0.948 . S
H35 C24 0.952 . S
H36 C26 0.948 . S
C37 C3 1.395 . S
C37 C7 1.391 . S
C38 C0 1.389 . S
C38 C20 1.392 . S
C39 C10 1.392 . S
C39 C12 1.389 . S
C40 C15 1.395 . S
C40 C17 1.391 . S
H41 C1 0.951 . S
H42 C2 0.950 . S
H43 C8 0.949 . S
H44 C9 0.950 . S
H45 C13 0.951 . S
H46 C14 0.950 . S
H47 C18 0.949 . S
H48 C19 0.950 . S
H49 C23 0.950 . S
H50 C25 0.950 . S
H51 C28 0.950 . S
H52 C30 0.950 . S
C53 C54 1.443 . S
C53 N57 1.376 . S
C53 C91 1.389 . S
C54 C53 1.443 . S
C54 C55 1.340 . S
C54 H94 0.951 . S
C55 C54 1.340 . S
C55 C56 1.439 . S
C55 H95 0.950 . S
C56 C55 1.439 . S
C56 N57 1.374 . S
C56 C90 1.395 . S
N57 C53 1.376 . S
N57 C56 1.374 . S
N57 Co58 2.008 . S
Co58 N57 2.008 . S
Co58 N59 1.995 . S
Co58 N64 2.008 . S
Co58 N69 1.995 . S
Co58 N74 2.282 . S
Co58 N80 2.282 . S
N59 Co58 1.995 . S
N59 C60 1.376 . S
N59 C63 1.383 . S
C60 N59 1.376 . S
C60 C61 1.446 . S
C60 C90 1.391 . S
C61 C60 1.446 . S
C61 C62 1.339 . S
C61 H96 0.949 . S
C62 C61 1.339 . S
C62 C63 1.439 . S
C62 H97 0.950 . S
C63 N59 1.383 . S
C63 C62 1.439 . S
C63 C92 1.392 . S
N64 Co58 2.008 . S
N64 C65 1.376 . S
N64 C68 1.374 . S
C65 N64 1.376 . S
C65 C66 1.443 . S
C65 C92 1.389 . S
C66 C65 1.443 . S
C66 C67 1.340 . S
C66 H98 0.951 . S
C67 C66 1.340 . S
C67 C68 1.439 . S
C67 H99 0.950 . S
C68 N64 1.374 . S
C68 C67 1.439 . S
C68 C93 1.395 . S
N69 Co58 1.995 . S
N69 C70 1.376 . S
N69 C73 1.383 . S
C70 N69 1.376 . S
C70 C71 1.446 . S
C70 C93 1.391 . S
C71 C70 1.446 . S
C71 C72 1.339 . S
C71 H100 0.949 1_556 S
C72 C71 1.339 . S
C72 C73 1.439 . S
C72 H101 0.918 1_556 S
C73 N69 1.383 . S
C73 C72 1.439 . S
C73 C91 1.392 . S
N74 Co58 2.282 . S
N74 C77 1.332 . S
N74 C79 1.332 . S
C75 C76 1.386 . S
C75 C78 1.388 . S
C76 C75 1.386 . S
C76 C77 1.382 . S
C76 H102 0.950 . S
C77 N74 1.332 . S
C77 C76 1.382 . S
C77 H88 0.952 . S
C78 C75 1.388 . S
C78 C79 1.382 . S
C78 H103 0.950 . S
C79 N74 1.332 . S
C79 C78 1.382 . S
C79 H89 0.948 . S
N80 Co58 2.282 . S
N80 C84 1.332 . S
N80 C85 1.332 . S
C81 C82 1.388 . S
C81 C85 1.382 . S
C81 H104 0.950 . S
C82 C81 1.388 . S
C82 C83 1.386 . S
C83 C82 1.386 . S
C83 C84 1.382 . S
C83 H105 0.950 . S
C84 N80 1.332 . S
C84 C83 1.382 . S
C84 H86 0.952 . S
C85 N80 1.332 . S
C85 C81 1.382 . S
C85 H87 0.948 . S
H86 C84 0.952 . S
H87 C85 0.948 . S
H88 C77 0.952 . S
H89 C79 0.948 . S
C90 C56 1.395 . S
C90 C60 1.391 . S
C91 C53 1.389 . S
C91 C73 1.392 . S
C92 C63 1.392 . S
C92 C65 1.389 . S
C93 C68 1.395 . S
C93 C70 1.391 . S
H94 C54 0.951 . S
H95 C55 0.950 . S
H96 C61 0.949 . S
H97 C62 0.950 . S
H98 C66 0.951 . S
H99 C67 0.950 . S
H100 C71 0.949 1_554 S
H101 C72 0.918 1_554 S
H102 C76 0.950 . S
H103 C78 0.950 . S
H104 C81 0.950 . S
H105 C83 0.950 . S
C106 C107 1.443 . S
C106 N110 1.376 . S
C106 C144 1.389 . S
C107 C106 1.443 . S
C107 C108 1.340 . S
C107 H147 0.951 . S
C108 C107 1.340 . S
C108 C109 1.439 . S
C108 H148 0.950 . S
C109 C108 1.439 . S
C109 N110 1.374 . S
C109 C143 1.395 . S
N110 C106 1.376 . S
N110 C109 1.374 . S
N110 Co111 2.008 . S
Co111 N110 2.008 . S
Co111 N112 1.995 . S
Co111 N117 2.008 . S
Co111 N122 1.995 . S
Co111 N127 2.282 . S
Co111 N133 2.282 . S
N112 Co111 1.995 . S
N112 C113 1.376 . S
N112 C116 1.383 . S
C113 N112 1.376 . S
C113 C114 1.446 . S
C113 C143 1.391 . S
C114 C113 1.446 . S
C114 C115 1.339 . S
C114 H149 0.949 . S
C115 C114 1.339 . S
C115 C116 1.439 . S
C115 H150 0.950 . S
C116 N112 1.383 . S
C116 C115 1.439 . S
C116 C145 1.392 . S
N117 Co111 2.008 . S
N117 C118 1.376 . S
N117 C121 1.374 . S
C118 N117 1.376 . S
C118 C119 1.443 . S
C118 C145 1.389 . S
C119 C118 1.443 . S
C119 C120 1.340 . S
C119 H151 0.951 . S
C120 C119 1.340 . S
C120 C121 1.439 . S
C120 H152 0.950 . S
C121 N117 1.374 . S
C121 C120 1.439 . S
C121 C146 1.395 . S
N122 Co111 1.995 . S
N122 C123 1.376 . S
N122 C126 1.383 . S
C123 N122 1.376 . S
C123 C124 1.446 . S
C123 C146 1.391 . S
C124 C123 1.446 . S
C124 C125 1.339 . S
C124 H153 0.949 . S
C125 C124 1.339 . S
C125 C126 1.439 . S
C125 H154 0.950 . S
C126 N122 1.383 . S
C126 C125 1.439 . S
C126 C144 1.392 . S
N127 Co111 2.282 . S
N127 C130 1.332 . S
N127 C132 1.332 . S
C128 C129 1.386 . S
C128 C131 1.388 . S
C129 C128 1.386 . S
C129 C130 1.382 . S
C129 H155 0.950 . S
C130 N127 1.332 . S
C130 C129 1.382 . S
C130 H141 0.952 . S
C131 C128 1.388 . S
C131 C132 1.382 . S
C131 H156 0.950 . S
C132 N127 1.332 . S
C132 C131 1.382 . S
C132 H142 0.948 . S
N133 Co111 2.282 . S
N133 C137 1.332 . S
N133 C138 1.332 . S
C134 C135 1.388 . S
C134 C138 1.382 . S
C134 H157 0.950 . S
C135 C134 1.388 . S
C135 C136 1.386 . S
C136 C135 1.386 . S
C136 C137 1.382 . S
C136 H158 0.950 . S
C137 N133 1.332 . S
C137 C136 1.382 . S
C137 H139 0.952 . S
C138 N133 1.332 . S
C138 C134 1.382 . S
C138 H140 0.948 . S
H139 C137 0.952 . S
H140 C138 0.948 . S
H141 C130 0.952 . S
H142 C132 0.948 . S
C143 C109 1.395 . S
C143 C113 1.391 . S
C144 C106 1.389 . S
C144 C126 1.392 . S
C145 C116 1.392 . S
C145 C118 1.389 . S
C146 C121 1.395 . S
C146 C123 1.391 . S
H147 C107 0.951 . S
H148 C108 0.950 . S
H149 C114 0.949 . S
H150 C115 0.950 . S
H151 C119 0.951 . S
H152 C120 0.950 . S
H153 C124 0.949 . S
H154 C125 0.950 . S
H155 C129 0.950 . S
H156 C131 0.950 . S
H157 C134 0.950 . S
H158 C136 0.950 . S
C159 C160 1.443 . S
C159 N163 1.376 . S
C159 C197 1.389 . S
C160 C159 1.443 . S
C160 C161 1.340 . S
C160 H200 0.951 . S
C161 C160 1.340 . S
C161 C162 1.439 . S
C161 H201 0.950 . S
C162 C161 1.439 . S
C162 N163 1.374 . S
C162 C196 1.395 . S
N163 C159 1.376 . S
N163 C162 1.374 . S
N163 Co164 2.008 . S
Co164 N163 2.008 . S
Co164 N165 1.995 . S
Co164 N170 2.008 . S
Co164 N175 1.995 . S
Co164 N180 2.282 . S
Co164 N186 2.282 . S
N165 Co164 1.995 . S
N165 C166 1.376 . S
N165 C169 1.383 . S
C166 N165 1.376 . S
C166 C167 1.446 . S
C166 C196 1.391 . S
C167 C166 1.446 . S
C167 C168 1.339 . S
C167 H202 0.949 . S
C168 C167 1.339 . S
C168 C169 1.439 . S
C168 H203 0.950 . S
C169 N165 1.383 . S
C169 C168 1.439 . S
C169 C198 1.392 . S
N170 Co164 2.008 . S
N170 C171 1.376 . S
N170 C174 1.374 . S
C171 N170 1.376 . S
C171 C172 1.443 . S
C171 C198 1.389 . S
C172 C171 1.443 . S
C172 C173 1.340 . S
C172 H204 0.951 . S
C173 C172 1.340 . S
C173 C174 1.439 . S
C173 H205 0.950 . S
C174 N170 1.374 . S
C174 C173 1.439 . S
C174 C199 1.395 . S
N175 Co164 1.995 . S
N175 C176 1.376 . S
N175 C179 1.383 . S
C176 N175 1.376 . S
C176 C177 1.446 . S
C176 C199 1.391 . S
C177 C176 1.446 . S
C177 C178 1.339 . S
C177 H206 0.949 1_556 S
C178 C177 1.339 . S
C178 C179 1.439 . S
C178 H207 0.918 1_556 S
C179 N175 1.383 . S
C179 C178 1.439 . S
C179 C197 1.392 . S
N180 Co164 2.282 . S
N180 C183 1.332 . S
N180 C185 1.332 . S
C181 C182 1.386 . S
C181 C184 1.388 . S
C182 C181 1.386 . S
C182 C183 1.382 . S
C182 H208 0.950 . S
C183 N180 1.332 . S
C183 C182 1.382 . S
C183 H194 0.952 . S
C184 C181 1.388 . S
C184 C185 1.382 . S
C184 H209 0.950 . S
C185 N180 1.332 . S
C185 C184 1.382 . S
C185 H195 0.948 . S
N186 Co164 2.282 . S
N186 C190 1.332 . S
N186 C191 1.332 . S
C187 C188 1.388 . S
C187 C191 1.382 . S
C187 H210 0.950 . S
C188 C187 1.388 . S
C188 C189 1.386 . S
C189 C188 1.386 . S
C189 C190 1.382 . S
C189 H211 0.950 . S
C190 N186 1.332 . S
C190 C189 1.382 . S
C190 H192 0.952 . S
C191 N186 1.332 . S
C191 C187 1.382 . S
C191 H193 0.948 . S
H192 C190 0.952 . S
H193 C191 0.948 . S
H194 C183 0.952 . S
H195 C185 0.948 . S
C196 C162 1.395 . S
C196 C166 1.391 . S
C197 C159 1.389 . S
C197 C179 1.392 . S
C198 C169 1.392 . S
C198 C171 1.389 . S
C199 C174 1.395 . S
C199 C176 1.391 . S
H200 C160 0.951 . S
H201 C161 0.950 . S
H202 C167 0.949 . S
H203 C168 0.950 . S
H204 C172 0.951 . S
H205 C173 0.950 . S
H206 C177 0.949 1_554 S
H207 C178 0.918 1_554 S
H208 C182 0.950 . S
H209 C184 0.950 . S
H210 C187 0.950 . S
H211 C189 0.950 . S
C212 C213 1.443 . S
C212 N216 1.376 . S
C212 C250 1.389 . S
C213 C212 1.443 . S
C213 C214 1.340 . S
C213 H253 0.951 . S
C214 C213 1.340 . S
C214 C215 1.439 . S
C214 H254 0.950 . S
C215 C214 1.439 . S
C215 N216 1.374 . S
C215 C249 1.395 . S
N216 C212 1.376 . S
N216 C215 1.374 . S
N216 Co217 2.008 . S
Co217 N216 2.008 . S
Co217 N218 1.995 . S
Co217 N223 2.008 . S
Co217 N228 1.995 . S
Co217 N233 2.282 . S
Co217 N239 2.282 . S
N218 Co217 1.995 . S
N218 C219 1.376 . S
N218 C222 1.383 . S
C219 N218 1.376 . S
C219 C220 1.446 . S
C219 C249 1.391 . S
C220 C219 1.446 . S
C220 C221 1.339 . S
C220 H255 0.949 . S
C221 C220 1.339 . S
C221 C222 1.439 . S
C221 H256 0.950 . S
C222 N218 1.383 . S
C222 C221 1.439 . S
C222 C251 1.392 . S
N223 Co217 2.008 . S
N223 C224 1.376 . S
N223 C227 1.374 . S
C224 N223 1.376 . S
C224 C225 1.443 . S
C224 C251 1.389 . S
C225 C224 1.443 . S
C225 C226 1.340 . S
C225 H257 0.951 . S
C226 C225 1.340 . S
C226 C227 1.439 . S
C226 H258 0.950 . S
C227 N223 1.374 . S
C227 C226 1.439 . S
C227 C252 1.395 . S
N228 Co217 1.995 . S
N228 C229 1.376 . S
N228 C232 1.383 . S
C229 N228 1.376 . S
C229 C230 1.446 . S
C229 C252 1.391 . S
C230 C229 1.446 . S
C230 C231 1.339 . S
C230 H259 0.949 . S
C231 C230 1.339 . S
C231 C232 1.439 . S
C231 H260 0.950 . S
C232 N228 1.383 . S
C232 C231 1.439 . S
C232 C250 1.392 . S
N233 Co217 2.282 . S
N233 C236 1.332 . S
N233 C238 1.332 . S
C234 C235 1.386 . S
C234 C237 1.388 . S
C235 C234 1.386 . S
C235 C236 1.382 . S
C235 H261 0.950 . S
C236 N233 1.332 . S
C236 C235 1.382 . S
C236 H247 0.952 . S
C237 C234 1.388 . S
C237 C238 1.382 . S
C237 H262 0.950 . S
C238 N233 1.332 . S
C238 C237 1.382 . S
C238 H248 0.948 . S
N239 Co217 2.282 . S
N239 C243 1.332 . S
N239 C244 1.332 . S
C240 C241 1.388 . S
C240 C244 1.382 . S
C240 H263 0.950 . S
C241 C240 1.388 . S
C241 C242 1.386 . S
C242 C241 1.386 . S
C242 C243 1.382 . S
C242 H264 0.950 . S
C243 N239 1.332 . S
C243 C242 1.382 . S
C243 H245 0.952 . S
C244 N239 1.332 . S
C244 C240 1.382 . S
C244 H246 0.948 . S
H245 C243 0.952 . S
H246 C244 0.948 . S
H247 C236 0.952 . S
H248 C238 0.948 . S
C249 C215 1.395 . S
C249 C219 1.391 . S
C250 C212 1.389 . S
C250 C232 1.392 . S
C251 C222 1.392 . S
C251 C224 1.389 . S
C252 C227 1.395 . S
C252 C229 1.391 . S
H253 C213 0.951 . S
H254 C214 0.950 . S
H255 C220 0.949 . S
H256 C221 0.950 . S
H257 C225 0.951 . S
H258 C226 0.950 . S
H259 C230 0.949 . S
H260 C231 0.950 . S
H261 C235 0.950 . S
H262 C237 0.950 . S
H263 C240 0.950 . S
H264 C242 0.950 . S
C265 C266 1.443 . S
C265 N269 1.376 . S
C265 C303 1.389 . S
C266 C265 1.443 . S
C266 C267 1.340 . S
C266 H306 0.951 . S
C267 C266 1.340 . S
C267 C268 1.439 . S
C267 H307 0.950 . S
C268 C267 1.439 . S
C268 N269 1.374 . S
C268 C302 1.395 . S
N269 C265 1.376 . S
N269 C268 1.374 . S
N269 Co270 2.008 1_655 S
Co270 N269 2.008 1_455 S
Co270 N271 1.995 . S
Co270 N276 2.008 . S
Co270 N281 1.995 1_455 S
Co270 N286 2.282 1_455 S
Co270 N292 2.282 . S
N271 Co270 1.995 . S
N271 C272 1.376 . S
N271 C275 1.383 . S
C272 N271 1.376 . S
C272 C273 1.446 . S
C272 C302 1.391 1_455 S
C273 C272 1.446 . S
C273 C274 1.339 . S
C273 H308 0.949 . S
C274 C273 1.339 . S
C274 C275 1.439 . S
C274 H309 0.950 . S
C275 N271 1.383 . S
C275 C274 1.439 . S
C275 C304 1.392 . S
N276 Co270 2.008 . S
N276 C277 1.376 . S
N276 C280 1.374 . S
C277 N276 1.376 . S
C277 C278 1.443 . S
C277 C304 1.389 . S
C278 C277 1.443 . S
C278 C279 1.340 . S
C278 H310 0.951 . S
C279 C278 1.340 . S
C279 C280 1.439 . S
C279 H311 0.950 . S
C280 N276 1.374 . S
C280 C279 1.439 . S
C280 C305 1.395 . S
N281 Co270 1.995 1_655 S
N281 C282 1.376 1_655 S
N281 C285 1.383 . S
C282 N281 1.376 1_455 S
C282 C283 1.446 1_455 S
C282 C305 1.391 . S
C283 C282 1.446 1_655 S
C283 C284 1.339 . S
C283 H312 0.949 1_554 S
C284 C283 1.339 . S
C284 C285 1.439 . S
C284 H313 0.920 1_554 S
C285 N281 1.383 . S
C285 C284 1.439 . S
C285 C303 1.392 . S
N286 Co270 2.282 1_655 S
N286 C289 1.332 . S
N286 C291 1.332 . S
C287 C288 1.386 . S
C287 C290 1.388 . S
C288 C287 1.386 . S
C288 C289 1.382 . S
C288 H314 0.950 . S
C289 N286 1.332 . S
C289 C288 1.382 . S
C289 H300 0.952 . S
C290 C287 1.388 . S
C290 C291 1.382 . S
C290 H315 0.950 . S
C291 N286 1.332 . S
C291 C290 1.382 . S
C291 H301 0.948 . S
N292 Co270 2.282 . S
N292 C296 1.332 . S
N292 C297 1.332 . S
C293 C294 1.388 . S
C293 C297 1.382 . S
C293 H316 0.950 . S
C294 C293 1.388 . S
C294 C295 1.386 . S
C295 C294 1.386 . S
C295 C296 1.382 . S
C295 H317 0.950 . S
C296 N292 1.332 . S
C296 C295 1.382 . S
C296 H298 0.952 . S
C297 N292 1.332 . S
C297 C293 1.382 . S
C297 H299 0.948 . S
H298 C296 0.952 . S
H299 C297 0.948 . S
H300 C289 0.952 . S
H301 C291 0.948 . S
C302 C268 1.395 . S
C302 C272 1.391 1_655 S
C303 C265 1.389 . S
C303 C285 1.392 . S
C304 C275 1.392 . S
C304 C277 1.389 . S
C305 C280 1.395 . S
C305 C282 1.391 . S
H306 C266 0.951 . S
H307 C267 0.950 . S
H308 C273 0.949 . S
H309 C274 0.950 . S
H310 C278 0.951 . S
H311 C279 0.950 . S
H312 C283 0.949 1_556 S
H313 C284 0.920 1_556 S
H314 C288 0.950 . S
H315 C290 0.950 . S
H316 C293 0.950 . S
H317 C295 0.950 . S
C318 C319 1.443 . S
C318 N322 1.376 . S
C318 C356 1.389 . S
C319 C318 1.443 . S
C319 C320 1.340 . S
C319 H359 0.951 . S
C320 C319 1.340 . S
C320 C321 1.439 . S
C320 H360 0.950 . S
C321 C320 1.439 . S
C321 N322 1.374 . S
C321 C355 1.395 . S
N322 C318 1.376 . S
N322 C321 1.374 . S
N322 Co323 2.008 . S
Co323 N322 2.008 . S
Co323 N324 1.995 . S
Co323 N329 2.008 . S
Co323 N334 1.995 . S
Co323 N339 2.282 . S
Co323 N345 2.282 . S
N324 Co323 1.995 . S
N324 C325 1.376 . S
N324 C328 1.383 . S
C325 N324 1.376 . S
C325 C326 1.446 . S
C325 C355 1.391 . S
C326 C325 1.446 . S
C326 C327 1.339 . S
C326 H361 0.949 . S
C327 C326 1.339 . S
C327 C328 1.439 . S
C327 H362 0.950 . S
C328 N324 1.383 . S
C328 C327 1.439 . S
C328 C357 1.392 . S
N329 Co323 2.008 . S
N329 C330 1.376 . S
N329 C333 1.374 . S
C330 N329 1.376 . S
C330 C331 1.443 . S
C330 C357 1.389 . S
C331 C330 1.443 . S
C331 C332 1.340 . S
C331 H363 0.951 . S
C332 C331 1.340 . S
C332 C333 1.439 . S
C332 H364 0.950 . S
C333 N329 1.374 . S
C333 C332 1.439 . S
C333 C358 1.395 . S
N334 Co323 1.995 . S
N334 C335 1.376 . S
N334 C338 1.383 . S
C335 N334 1.376 . S
C335 C336 1.446 . S
C335 C358 1.391 . S
C336 C335 1.446 . S
C336 C337 1.339 . S
C336 H365 0.949 . S
C337 C336 1.339 . S
C337 C338 1.439 . S
C337 H366 0.950 . S
C338 N334 1.383 . S
C338 C337 1.439 . S
C338 C356 1.392 . S
N339 Co323 2.282 . S
N339 C342 1.332 . S
N339 C344 1.332 . S
C340 C341 1.386 . S
C340 C343 1.388 . S
C341 C340 1.386 . S
C341 C342 1.382 . S
C341 H367 0.950 . S
C342 N339 1.332 . S
C342 C341 1.382 . S
C342 H353 0.952 . S
C343 C340 1.388 . S
C343 C344 1.382 . S
C343 H368 0.950 . S
C344 N339 1.332 . S
C344 C343 1.382 . S
C344 H354 0.948 . S
N345 Co323 2.282 . S
N345 C349 1.332 . S
N345 C350 1.332 . S
C346 C347 1.388 . S
C346 C350 1.382 . S
C346 H369 0.950 . S
C347 C346 1.388 . S
C347 C348 1.386 . S
C348 C347 1.386 . S
C348 C349 1.382 . S
C348 H370 0.950 . S
C349 N345 1.332 . S
C349 C348 1.382 . S
C349 H351 0.952 . S
C350 N345 1.332 . S
C350 C346 1.382 . S
C350 H352 0.948 . S
H351 C349 0.952 . S
H352 C350 0.948 . S
H353 C342 0.952 . S
H354 C344 0.948 . S
C355 C321 1.395 . S
C355 C325 1.391 . S
C356 C318 1.389 . S
C356 C338 1.392 . S
C357 C328 1.392 . S
C357 C330 1.389 . S
C358 C333 1.395 . S
C358 C335 1.391 . S
H359 C319 0.951 . S
H360 C320 0.950 . S
H361 C326 0.949 . S
H362 C327 0.950 . S
H363 C331 0.951 . S
H364 C332 0.950 . S
H365 C336 0.949 . S
H366 C337 0.950 . S
H367 C341 0.950 . S
H368 C343 0.950 . S
H369 C346 0.950 . S
H370 C348 0.950 . S
C371 C372 1.443 . S
C371 N375 1.376 . S
C371 C409 1.389 . S
C372 C371 1.443 . S
C372 C373 1.340 . S
C372 H412 0.951 . S
C373 C372 1.340 . S
C373 C374 1.439 . S
C373 H413 0.950 . S
C374 C373 1.439 . S
C374 N375 1.374 . S
C374 C408 1.395 . S
N375 C371 1.376 . S
N375 C374 1.374 . S
N375 Co376 2.008 1_455 S
Co376 N375 2.008 1_655 S
Co376 N377 1.995 . S
Co376 N382 2.008 . S
Co376 N387 1.995 1_655 S
Co376 N392 2.282 1_655 S
Co376 N398 2.282 . S
N377 Co376 1.995 . S
N377 C378 1.376 . S
N377 C381 1.383 . S
C378 N377 1.376 . S
C378 C379 1.446 . S
C378 C408 1.391 1_655 S
C379 C378 1.446 . S
C379 C380 1.339 . S
C379 H414 0.949 . S
C380 C379 1.339 . S
C380 C381 1.439 . S
C380 H415 0.950 . S
C381 N377 1.383 . S
C381 C380 1.439 . S
C381 C410 1.392 . S
N382 Co376 2.008 . S
N382 C383 1.376 . S
N382 C386 1.374 . S
C383 N382 1.376 . S
C383 C384 1.443 . S
C383 C410 1.389 . S
C384 C383 1.443 . S
C384 C385 1.340 . S
C384 H416 0.951 . S
C385 C384 1.340 . S
C385 C386 1.439 . S
C385 H417 0.950 . S
C386 N382 1.374 . S
C386 C385 1.439 . S
C386 C411 1.395 . S
N387 Co376 1.995 1_455 S
N387 C388 1.376 1_455 S
N387 C391 1.383 . S
C388 N387 1.376 1_655 S
C388 C389 1.446 1_655 S
C388 C411 1.391 . S
C389 C388 1.446 1_455 S
C389 C390 1.339 . S
C389 H418 0.949 1_554 S
C390 C389 1.339 . S
C390 C391 1.439 . S
C390 H419 0.920 1_554 S
C391 N387 1.383 . S
C391 C390 1.439 . S
C391 C409 1.392 . S
N392 Co376 2.282 1_455 S
N392 C395 1.332 . S
N392 C397 1.332 . S
C393 C394 1.386 . S
C393 C396 1.388 . S
C394 C393 1.386 . S
C394 C395 1.382 . S
C394 H420 0.950 . S
C395 N392 1.332 . S
C395 C394 1.382 . S
C395 H406 0.952 . S
C396 C393 1.388 . S
C396 C397 1.382 . S
C396 H421 0.950 . S
C397 N392 1.332 . S
C397 C396 1.382 . S
C397 H407 0.948 . S
N398 Co376 2.282 . S
N398 C402 1.332 . S
N398 C403 1.332 . S
C399 C400 1.388 . S
C399 C403 1.382 . S
C399 H422 0.950 . S
C400 C399 1.388 . S
C400 C401 1.386 . S
C401 C400 1.386 . S
C401 C402 1.382 . S
C401 H423 0.950 . S
C402 N398 1.332 . S
C402 C401 1.382 . S
C402 H404 0.952 . S
C403 N398 1.332 . S
C403 C399 1.382 . S
C403 H405 0.948 . S
H404 C402 0.952 . S
H405 C403 0.948 . S
H406 C395 0.952 . S
H407 C397 0.948 . S
C408 C374 1.395 . S
C408 C378 1.391 1_455 S
C409 C371 1.389 . S
C409 C391 1.392 . S
C410 C381 1.392 . S
C410 C383 1.389 . S
C411 C386 1.395 . S
C411 C388 1.391 . S
H412 C372 0.951 . S
H413 C373 0.950 . S
H414 C379 0.949 . S
H415 C380 0.950 . S
H416 C384 0.951 . S
H417 C385 0.950 . S
H418 C389 0.949 1_556 S
H419 C390 0.920 1_556 S
H420 C394 0.950 . S
H421 C396 0.950 . S
H422 C399 0.950 . S
H423 C401 0.950 . S
C424 C425 1.443 . S
C424 N428 1.376 . S
C424 C462 1.389 . S
C425 C424 1.443 . S
C425 C426 1.340 . S
C425 H465 0.951 . S
C426 C425 1.340 . S
C426 C427 1.439 . S
C426 H466 0.950 . S
C427 C426 1.439 . S
C427 N428 1.374 . S
C427 C461 1.395 . S
N428 C424 1.376 . S
N428 C427 1.374 . S
N428 Co429 2.008 . S
Co429 N428 2.008 . S
Co429 N430 1.995 . S
Co429 N435 2.008 . S
Co429 N440 1.995 . S
Co429 N445 2.282 . S
Co429 N451 2.282 . S
N430 Co429 1.995 . S
N430 C431 1.376 . S
N430 C434 1.383 . S
C431 N430 1.376 . S
C431 C432 1.446 . S
C431 C461 1.391 . S
C432 C431 1.446 . S
C432 C433 1.339 . S
C432 H467 0.949 . S
C433 C432 1.339 . S
C433 C434 1.439 . S
C433 H468 0.950 . S
C434 N430 1.383 . S
C434 C433 1.439 . S
C434 C463 1.392 . S
N435 Co429 2.008 . S
N435 C436 1.376 . S
N435 C439 1.374 . S
C436 N435 1.376 . S
C436 C437 1.443 . S
C436 C463 1.389 . S
C437 C436 1.443 . S
C437 C438 1.340 . S
C437 H469 0.951 . S
C438 C437 1.340 . S
C438 C439 1.439 . S
C438 H470 0.950 . S
C439 N435 1.374 . S
C439 C438 1.439 . S
C439 C464 1.395 . S
N440 Co429 1.995 . S
N440 C441 1.376 . S
N440 C444 1.383 . S
C441 N440 1.376 . S
C441 C442 1.446 . S
C441 C464 1.391 . S
C442 C441 1.446 . S
C442 C443 1.339 . S
C442 H471 0.949 . S
C443 C442 1.339 . S
C443 C444 1.439 . S
C443 H472 0.950 . S
C444 N440 1.383 . S
C444 C443 1.439 . S
C444 C462 1.392 . S
N445 Co429 2.282 . S
N445 C448 1.332 . S
N445 C450 1.332 . S
C446 C447 1.386 . S
C446 C449 1.388 . S
C447 C446 1.386 . S
C447 C448 1.382 . S
C447 H473 0.950 . S
C448 N445 1.332 . S
C448 C447 1.382 . S
C448 H459 0.952 . S
C449 C446 1.388 . S
C449 C450 1.382 . S
C449 H474 0.950 . S
C450 N445 1.332 . S
C450 C449 1.382 . S
C450 H460 0.948 . S
N451 Co429 2.282 . S
N451 C455 1.332 . S
N451 C456 1.332 . S
C452 C453 1.388 . S
C452 C456 1.382 . S
C452 H475 0.950 . S
C453 C452 1.388 . S
C453 C454 1.386 . S
C454 C453 1.386 . S
C454 C455 1.382 . S
C454 H476 0.950 . S
C455 N451 1.332 . S
C455 C454 1.382 . S
C455 H457 0.952 . S
C456 N451 1.332 . S
C456 C452 1.382 . S
C456 H458 0.948 . S
H457 C455 0.952 . S
H458 C456 0.948 . S
H459 C448 0.952 . S
H460 C450 0.948 . S
C461 C427 1.395 . S
C461 C431 1.391 . S
C462 C424 1.389 . S
C462 C444 1.392 . S
C463 C434 1.392 . S
C463 C436 1.389 . S
C464 C439 1.395 . S
C464 C441 1.391 . S
H465 C425 0.951 . S
H466 C426 0.950 . S
H467 C432 0.949 . S
H468 C433 0.950 . S
H469 C437 0.951 . S
H470 C438 0.950 . S
H471 C442 0.949 . S
H472 C443 0.950 . S
H473 C447 0.950 . S
H474 C449 0.950 . S
H475 C452 0.950 . S
H476 C454 0.950 . S
C477 C478 1.443 . S
C477 N481 1.376 . S
C477 C515 1.389 . S
C478 C477 1.443 . S
C478 C479 1.340 . S
C478 H518 0.951 . S
C479 C478 1.340 . S
C479 C480 1.439 . S
C479 H519 0.950 . S
C480 C479 1.439 . S
C480 N481 1.374 . S
C480 C514 1.395 . S
N481 C477 1.376 . S
N481 C480 1.374 . S
N481 Co482 2.008 1_556 S
Co482 N481 2.008 1_554 S
Co482 N483 1.995 . S
Co482 N488 2.008 . S
Co482 N493 1.995 1_554 S
Co482 N498 2.282 1_554 S
Co482 N504 2.282 . S
N483 Co482 1.995 . S
N483 C484 1.376 . S
N483 C487 1.383 . S
C484 N483 1.376 . S
C484 C485 1.446 . S
C484 C514 1.391 1_554 S
C485 C484 1.446 . S
C485 C486 1.339 . S
C485 H520 0.949 . S
C486 C485 1.339 . S
C486 C487 1.439 . S
C486 H521 0.950 . S
C487 N483 1.383 . S
C487 C486 1.439 . S
C487 C516 1.392 . S
N488 Co482 2.008 . S
N488 C489 1.376 . S
N488 C492 1.374 . S
C489 N488 1.376 . S
C489 C490 1.443 . S
C489 C516 1.389 . S
C490 C489 1.443 . S
C490 C491 1.340 . S
C490 H522 0.951 . S
C491 C490 1.340 . S
C491 C492 1.439 . S
C491 H523 0.950 . S
C492 N488 1.374 . S
C492 C491 1.439 . S
C492 C517 1.395 . S
N493 Co482 1.995 1_556 S
N493 C494 1.376 1_556 S
N493 C497 1.383 . S
C494 N493 1.376 1_554 S
C494 C495 1.446 1_554 S
C494 C517 1.391 . S
C495 C494 1.446 1_556 S
C495 C496 1.339 . S
C495 H524 0.949 . S
C496 C495 1.339 . S
C496 C497 1.439 . S
C496 H525 0.950 . S
C497 N493 1.383 . S
C497 C496 1.439 . S
C497 C515 1.392 . S
N498 Co482 2.282 1_556 S
N498 C501 1.332 . S
N498 C503 1.332 . S
C499 C500 1.386 . S
C499 C502 1.388 . S
C500 C499 1.386 . S
C500 C501 1.382 . S
C500 H526 0.950 . S
C501 N498 1.332 . S
C501 C500 1.382 . S
C501 H512 0.952 . S
C502 C499 1.388 . S
C502 C503 1.382 . S
C502 H527 0.950 . S
C503 N498 1.332 . S
C503 C502 1.382 . S
C503 H513 0.948 . S
N504 Co482 2.282 . S
N504 C508 1.332 . S
N504 C509 1.332 . S
C505 C506 1.388 . S
C505 C509 1.382 . S
C505 H528 0.950 . S
C506 C505 1.388 . S
C506 C507 1.386 . S
C507 C506 1.386 . S
C507 C508 1.382 . S
C507 H529 0.950 . S
C508 N504 1.332 . S
C508 C507 1.382 . S
C508 H510 0.952 . S
C509 N504 1.332 . S
C509 C505 1.382 . S
C509 H511 0.948 . S
H510 C508 0.952 . S
H511 C509 0.948 . S
H512 C501 0.952 . S
H513 C503 0.948 . S
C514 C480 1.395 . S
C514 C484 1.391 1_556 S
C515 C477 1.389 . S
C515 C497 1.392 . S
C516 C487 1.392 . S
C516 C489 1.389 . S
C517 C492 1.395 . S
C517 C494 1.391 . S
H518 C478 0.951 . S
H519 C479 0.950 . S
H520 C485 0.949 . S
H521 C486 0.950 . S
H522 C490 0.951 . S
H523 C491 0.950 . S
H524 C495 0.949 . S
H525 C496 0.950 . S
H526 C500 0.950 . S
H527 C502 0.950 . S
H528 C505 0.950 . S
H529 C507 0.950 . S
C530 C531 1.443 . S
C530 N534 1.376 . S
C530 C568 1.389 . S
C531 C530 1.443 . S
C531 C532 1.340 . S
C531 H571 0.951 . S
C532 C531 1.340 . S
C532 C533 1.439 . S
C532 H572 0.950 . S
C533 C532 1.439 . S
C533 N534 1.374 . S
C533 C567 1.395 . S
N534 C530 1.376 . S
N534 C533 1.374 . S
N534 Co535 2.008 . S
Co535 N534 2.008 . S
Co535 N536 1.995 . S
Co535 N541 2.008 . S
Co535 N546 1.995 . S
Co535 N551 2.282 . S
Co535 N557 2.282 . S
N536 Co535 1.995 . S
N536 C537 1.376 . S
N536 C540 1.383 . S
C537 N536 1.376 . S
C537 C538 1.446 . S
C537 C567 1.391 . S
C538 C537 1.446 . S
C538 C539 1.339 . S
C538 H573 0.949 . S
C539 C538 1.339 . S
C539 C540 1.439 . S
C539 H574 0.950 . S
C540 N536 1.383 . S
C540 C539 1.439 . S
C540 C569 1.392 . S
N541 Co535 2.008 . S
N541 C542 1.376 . S
N541 C545 1.374 . S
C542 N541 1.376 . S
C542 C543 1.443 . S
C542 C569 1.389 . S
C543 C542 1.443 . S
C543 C544 1.340 . S
C543 H575 0.951 . S
C544 C543 1.340 . S
C544 C545 1.439 . S
C544 H576 0.950 . S
C545 N541 1.374 . S
C545 C544 1.439 . S
C545 C570 1.395 . S
N546 Co535 1.995 . S
N546 C547 1.376 . S
N546 C550 1.383 . S
C547 N546 1.376 . S
C547 C548 1.446 . S
C547 C570 1.391 . S
C548 C547 1.446 . S
C548 C549 1.339 . S
C548 H577 0.949 . S
C549 C548 1.339 . S
C549 C550 1.439 . S
C549 H578 0.950 . S
C550 N546 1.383 . S
C550 C549 1.439 . S
C550 C568 1.392 . S
N551 Co535 2.282 . S
N551 C554 1.332 . S
N551 C556 1.332 . S
C552 C553 1.386 . S
C552 C555 1.388 . S
C553 C552 1.386 . S
C553 C554 1.382 . S
C553 H579 0.950 . S
C554 N551 1.332 . S
C554 C553 1.382 . S
C554 H565 0.952 . S
C555 C552 1.388 . S
C555 C556 1.382 . S
C555 H580 0.950 . S
C556 N551 1.332 . S
C556 C555 1.382 . S
C556 H566 0.948 . S
N557 Co535 2.282 . S
N557 C561 1.332 . S
N557 C562 1.332 . S
C558 C559 1.388 . S
C558 C562 1.382 . S
C558 H581 0.950 . S
C559 C558 1.388 . S
C559 C560 1.386 . S
C560 C559 1.386 . S
C560 C561 1.382 . S
C560 H582 0.950 . S
C561 N557 1.332 . S
C561 C560 1.382 . S
C561 H563 0.952 . S
C562 N557 1.332 . S
C562 C558 1.382 . S
C562 H564 0.948 . S
H563 C561 0.952 . S
H564 C562 0.948 . S
H565 C554 0.952 . S
H566 C556 0.948 . S
C567 C533 1.395 . S
C567 C537 1.391 . S
C568 C530 1.389 . S
C568 C550 1.392 . S
C569 C540 1.392 . S
C569 C542 1.389 . S
C570 C545 1.395 . S
C570 C547 1.391 . S
H571 C531 0.951 . S
H572 C532 0.950 . S
H573 C538 0.949 . S
H574 C539 0.950 . S
H575 C543 0.951 . S
H576 C544 0.950 . S
H577 C548 0.949 . S
H578 C549 0.950 . S
H579 C553 0.950 . S
H580 C555 0.950 . S
H581 C558 0.950 . S
H582 C560 0.950 . S
C583 C584 1.443 . S
C583 N587 1.376 . S
C583 C621 1.389 . S
C584 C583 1.443 . S
C584 C585 1.340 . S
C584 H624 0.951 . S
C585 C584 1.340 . S
C585 C586 1.439 . S
C585 H625 0.950 . S
C586 C585 1.439 . S
C586 N587 1.374 . S
C586 C620 1.395 . S
N587 C583 1.376 . S
N587 C586 1.374 . S
N587 Co588 2.008 1_556 S
Co588 N587 2.008 1_554 S
Co588 N589 1.995 . S
Co588 N594 2.008 . S
Co588 N599 1.995 1_554 S
Co588 N604 2.282 1_554 S
Co588 N610 2.282 . S
N589 Co588 1.995 . S
N589 C590 1.376 . S
N589 C593 1.383 . S
C590 N589 1.376 . S
C590 C591 1.446 . S
C590 C620 1.391 1_554 S
C591 C590 1.446 . S
C591 C592 1.339 . S
C591 H626 0.949 . S
C592 C591 1.339 . S
C592 C593 1.439 . S
C592 H627 0.950 . S
C593 N589 1.383 . S
C593 C592 1.439 . S
C593 C622 1.392 . S
N594 Co588 2.008 . S
N594 C595 1.376 . S
N594 C598 1.374 . S
C595 N594 1.376 . S
C595 C596 1.443 . S
C595 C622 1.389 . S
C596 C595 1.443 . S
C596 C597 1.340 . S
C596 H628 0.951 . S
C597 C596 1.340 . S
C597 C598 1.439 . S
C597 H629 0.950 . S
C598 N594 1.374 . S
C598 C597 1.439 . S
C598 C623 1.395 . S
N599 Co588 1.995 1_556 S
N599 C600 1.376 1_556 S
N599 C603 1.383 . S
C600 N599 1.376 1_554 S
C600 C601 1.446 1_554 S
C600 C623 1.391 . S
C601 C600 1.446 1_556 S
C601 C602 1.339 . S
C601 H630 0.949 1_545 S
C602 C601 1.339 . S
C602 C603 1.439 . S
C602 H631 0.920 1_545 S
C603 N599 1.383 . S
C603 C602 1.439 . S
C603 C621 1.392 . S
N604 Co588 2.282 1_556 S
N604 C607 1.332 . S
N604 C609 1.332 . S
C605 C606 1.386 . S
C605 C608 1.388 . S
C606 C605 1.386 . S
C606 C607 1.382 . S
C606 H632 0.950 . S
C607 N604 1.332 . S
C607 C606 1.382 . S
C607 H618 0.952 . S
C608 C605 1.388 . S
C608 C609 1.382 . S
C608 H633 0.950 . S
C609 N604 1.332 . S
C609 C608 1.382 . S
C609 H619 0.948 . S
N610 Co588 2.282 . S
N610 C614 1.332 . S
N610 C615 1.332 . S
C611 C612 1.388 . S
C611 C615 1.382 . S
C611 H634 0.950 . S
C612 C611 1.388 . S
C612 C613 1.386 . S
C613 C612 1.386 . S
C613 C614 1.382 . S
C613 H635 0.950 . S
C614 N610 1.332 . S
C614 C613 1.382 . S
C614 H616 0.952 . S
C615 N610 1.332 . S
C615 C611 1.382 . S
C615 H617 0.948 . S
H616 C614 0.952 . S
H617 C615 0.948 . S
H618 C607 0.952 . S
H619 C609 0.948 . S
C620 C586 1.395 . S
C620 C590 1.391 1_556 S
C621 C583 1.389 . S
C621 C603 1.392 . S
C622 C593 1.392 . S
C622 C595 1.389 . S
C623 C598 1.395 . S
C623 C600 1.391 . S
H624 C584 0.951 . S
H625 C585 0.950 . S
H626 C591 0.949 . S
H627 C592 0.950 . S
H628 C596 0.951 . S
H629 C597 0.950 . S
H630 C601 0.949 1_565 S
H631 C602 0.920 1_565 S
H632 C606 0.950 . S
H633 C608 0.950 . S
H634 C611 0.950 . S
H635 C613 0.950 . S
C636 C637 1.443 . S
C636 N640 1.376 . S
C636 C674 1.389 . S
C637 C636 1.443 . S
C637 C638 1.340 . S
C637 H677 0.951 . S
C638 C637 1.340 . S
C638 C639 1.439 . S
C638 H678 0.950 . S
C639 C638 1.439 . S
C639 N640 1.374 . S
C639 C673 1.395 . S
N640 C636 1.376 . S
N640 C639 1.374 . S
N640 Co641 2.008 . S
Co641 N640 2.008 . S
Co641 N642 1.995 . S
Co641 N647 2.008 . S
Co641 N652 1.995 . S
Co641 N657 2.282 . S
Co641 N663 2.282 . S
N642 Co641 1.995 . S
N642 C643 1.376 . S
N642 C646 1.383 . S
C643 N642 1.376 . S
C643 C644 1.446 . S
C643 C673 1.391 . S
C644 C643 1.446 . S
C644 C645 1.339 . S
C644 H679 0.949 . S
C645 C644 1.339 . S
C645 C646 1.439 . S
C645 H680 0.950 . S
C646 N642 1.383 . S
C646 C645 1.439 . S
C646 C675 1.392 . S
N647 Co641 2.008 . S
N647 C648 1.376 . S
N647 C651 1.374 . S
C648 N647 1.376 . S
C648 C649 1.443 . S
C648 C675 1.389 . S
C649 C648 1.443 . S
C649 C650 1.340 . S
C649 H681 0.951 . S
C650 C649 1.340 . S
C650 C651 1.439 . S
C650 H682 0.950 . S
C651 N647 1.374 . S
C651 C650 1.439 . S
C651 C676 1.395 . S
N652 Co641 1.995 . S
N652 C653 1.376 . S
N652 C656 1.383 . S
C653 N652 1.376 . S
C653 C654 1.446 . S
C653 C676 1.391 . S
C654 C653 1.446 . S
C654 C655 1.339 . S
C654 H683 0.949 . S
C655 C654 1.339 . S
C655 C656 1.439 . S
C655 H684 0.950 . S
C656 N652 1.383 . S
C656 C655 1.439 . S
C656 C674 1.392 . S
N657 Co641 2.282 . S
N657 C660 1.332 . S
N657 C662 1.332 . S
C658 C659 1.386 . S
C658 C661 1.388 . S
C659 C658 1.386 . S
C659 C660 1.382 . S
C659 H685 0.950 . S
C660 N657 1.332 . S
C660 C659 1.382 . S
C660 H671 0.952 . S
C661 C658 1.388 . S
C661 C662 1.382 . S
C661 H686 0.950 . S
C662 N657 1.332 . S
C662 C661 1.382 . S
C662 H672 0.948 . S
N663 Co641 2.282 . S
N663 C667 1.332 . S
N663 C668 1.332 . S
C664 C665 1.388 . S
C664 C668 1.382 . S
C664 H687 0.950 . S
C665 C664 1.388 . S
C665 C666 1.386 . S
C666 C665 1.386 . S
C666 C667 1.382 . S
C666 H688 0.950 . S
C667 N663 1.332 . S
C667 C666 1.382 . S
C667 H669 0.952 . S
C668 N663 1.332 . S
C668 C664 1.382 . S
C668 H670 0.948 . S
H669 C667 0.952 . S
H670 C668 0.948 . S
H671 C660 0.952 . S
H672 C662 0.948 . S
C673 C639 1.395 . S
C673 C643 1.391 . S
C674 C636 1.389 . S
C674 C656 1.392 . S
C675 C646 1.392 . S
C675 C648 1.389 . S
C676 C651 1.395 . S
C676 C653 1.391 . S
H677 C637 0.951 . S
H678 C638 0.950 . S
H679 C644 0.949 . S
H680 C645 0.950 . S
H681 C649 0.951 . S
H682 C650 0.950 . S
H683 C654 0.949 . S
H684 C655 0.950 . S
H685 C659 0.950 . S
H686 C661 0.950 . S
H687 C664 0.950 . S
H688 C666 0.950 . S
C689 C690 1.443 . S
C689 N693 1.376 . S
C689 C727 1.389 . S
C690 C689 1.443 . S
C690 C691 1.340 . S
C690 H730 0.951 . S
C691 C690 1.340 . S
C691 C692 1.439 . S
C691 H731 0.950 . S
C692 C691 1.439 . S
C692 N693 1.374 . S
C692 C726 1.395 . S
N693 C689 1.376 . S
N693 C692 1.374 . S
N693 Co694 2.008 1_554 S
Co694 N693 2.008 1_556 S
Co694 N695 1.995 . S
Co694 N700 2.008 . S
Co694 N705 1.995 1_556 S
Co694 N710 2.282 1_556 S
Co694 N716 2.282 . S
N695 Co694 1.995 . S
N695 C696 1.376 . S
N695 C699 1.383 . S
C696 N695 1.376 . S
C696 C697 1.446 . S
C696 C726 1.391 1_556 S
C697 C696 1.446 . S
C697 C698 1.339 . S
C697 H732 0.949 . S
C698 C697 1.339 . S
C698 C699 1.439 . S
C698 H733 0.950 . S
C699 N695 1.383 . S
C699 C698 1.439 . S
C699 C728 1.392 . S
N700 Co694 2.008 . S
N700 C701 1.376 . S
N700 C704 1.374 . S
C701 N700 1.376 . S
C701 C702 1.443 . S
C701 C728 1.389 . S
C702 C701 1.443 . S
C702 C703 1.340 . S
C702 H734 0.951 . S
C703 C702 1.340 . S
C703 C704 1.439 . S
C703 H735 0.950 . S
C704 N700 1.374 . S
C704 C703 1.439 . S
C704 C729 1.395 . S
N705 Co694 1.995 1_554 S
N705 C706 1.376 1_554 S
N705 C709 1.383 . S
C706 N705 1.376 1_556 S
C706 C707 1.446 1_556 S
C706 C729 1.391 . S
C707 C706 1.446 1_554 S
C707 C708 1.339 . S
C707 H736 0.949 . S
C708 C707 1.339 . S
C708 C709 1.439 . S
C708 H737 0.950 . S
C709 N705 1.383 . S
C709 C708 1.439 . S
C709 C727 1.392 . S
N710 Co694 2.282 1_554 S
N710 C713 1.332 . S
N710 C715 1.332 . S
C711 C712 1.386 . S
C711 C714 1.388 . S
C712 C711 1.386 . S
C712 C713 1.382 . S
C712 H738 0.950 . S
C713 N710 1.332 . S
C713 C712 1.382 . S
C713 H724 0.952 . S
C714 C711 1.388 . S
C714 C715 1.382 . S
C714 H739 0.950 . S
C715 N710 1.332 . S
C715 C714 1.382 . S
C715 H725 0.948 . S
N716 Co694 2.282 . S
N716 C720 1.332 . S
N716 C721 1.332 . S
C717 C718 1.388 . S
C717 C721 1.382 . S
C717 H740 0.950 . S
C718 C717 1.388 . S
C718 C719 1.386 . S
C719 C718 1.386 . S
C719 C720 1.382 . S
C719 H741 0.950 . S
C720 N716 1.332 . S
C720 C719 1.382 . S
C720 H722 0.952 . S
C721 N716 1.332 . S
C721 C717 1.382 . S
C721 H723 0.948 . S
H722 C720 0.952 . S
H723 C721 0.948 . S
H724 C713 0.952 . S
H725 C715 0.948 . S
C726 C692 1.395 . S
C726 C696 1.391 1_554 S
C727 C689 1.389 . S
C727 C709 1.392 . S
C728 C699 1.392 . S
C728 C701 1.389 . S
C729 C704 1.395 . S
C729 C706 1.391 . S
H730 C690 0.951 . S
H731 C691 0.950 . S
H732 C697 0.949 . S
H733 C698 0.950 . S
H734 C702 0.951 . S
H735 C703 0.950 . S
H736 C707 0.949 . S
H737 C708 0.950 . S
H738 C712 0.950 . S
H739 C714 0.950 . S
H740 C717 0.950 . S
H741 C719 0.950 . S
C742 C743 1.443 . S
C742 N746 1.376 . S
C742 C780 1.389 . S
C743 C742 1.443 . S
C743 C744 1.340 . S
C743 H783 0.951 . S
C744 C743 1.340 . S
C744 C745 1.439 . S
C744 H784 0.950 . S
C745 C744 1.439 . S
C745 N746 1.374 . S
C745 C779 1.395 . S
N746 C742 1.376 . S
N746 C745 1.374 . S
N746 Co747 2.008 . S
Co747 N746 2.008 . S
Co747 N748 1.995 . S
Co747 N753 2.008 . S
Co747 N758 1.995 . S
Co747 N763 2.282 . S
Co747 N769 2.282 . S
N748 Co747 1.995 . S
N748 C749 1.376 . S
N748 C752 1.383 . S
C749 N748 1.376 . S
C749 C750 1.446 . S
C749 C779 1.391 . S
C750 C749 1.446 . S
C750 C751 1.339 . S
C750 H785 0.949 . S
C751 C750 1.339 . S
C751 C752 1.439 . S
C751 H786 0.950 . S
C752 N748 1.383 . S
C752 C751 1.439 . S
C752 C781 1.392 . S
N753 Co747 2.008 . S
N753 C754 1.376 . S
N753 C757 1.374 . S
C754 N753 1.376 . S
C754 C755 1.443 . S
C754 C781 1.389 . S
C755 C754 1.443 . S
C755 C756 1.340 . S
C755 H787 0.951 . S
C756 C755 1.340 . S
C756 C757 1.439 . S
C756 H788 0.950 . S
C757 N753 1.374 . S
C757 C756 1.439 . S
C757 C782 1.395 . S
N758 Co747 1.995 . S
N758 C759 1.376 . S
N758 C762 1.383 . S
C759 N758 1.376 . S
C759 C760 1.446 . S
C759 C782 1.391 . S
C760 C759 1.446 . S
C760 C761 1.339 . S
C760 H789 0.949 . S
C761 C760 1.339 . S
C761 C762 1.439 . S
C761 H790 0.950 . S
C762 N758 1.383 . S
C762 C761 1.439 . S
C762 C780 1.392 . S
N763 Co747 2.282 . S
N763 C766 1.332 . S
N763 C768 1.332 . S
C764 C765 1.386 . S
C764 C767 1.388 . S
C765 C764 1.386 . S
C765 C766 1.382 . S
C765 H791 0.950 . S
C766 N763 1.332 . S
C766 C765 1.382 . S
C766 H777 0.952 . S
C767 C764 1.388 . S
C767 C768 1.382 . S
C767 H792 0.950 . S
C768 N763 1.332 . S
C768 C767 1.382 . S
C768 H778 0.948 . S
N769 Co747 2.282 . S
N769 C773 1.332 . S
N769 C774 1.332 . S
C770 C771 1.388 . S
C770 C774 1.382 . S
C770 H793 0.950 . S
C771 C770 1.388 . S
C771 C772 1.386 . S
C772 C771 1.386 . S
C772 C773 1.382 . S
C772 H794 0.950 . S
C773 N769 1.332 . S
C773 C772 1.382 . S
C773 H775 0.952 . S
C774 N769 1.332 . S
C774 C770 1.382 . S
C774 H776 0.948 . S
H775 C773 0.952 . S
H776 C774 0.948 . S
H777 C766 0.952 . S
H778 C768 0.948 . S
C779 C745 1.395 . S
C779 C749 1.391 . S
C780 C742 1.389 . S
C780 C762 1.392 . S
C781 C752 1.392 . S
C781 C754 1.389 . S
C782 C757 1.395 . S
C782 C759 1.391 . S
H783 C743 0.951 . S
H784 C744 0.950 . S
H785 C750 0.949 . S
H786 C751 0.950 . S
H787 C755 0.951 . S
H788 C756 0.950 . S
H789 C760 0.949 . S
H790 C761 0.950 . S
H791 C765 0.950 . S
H792 C767 0.950 . S
H793 C770 0.950 . S
H794 C772 0.950 . S
C795 C796 1.443 . S
C795 N799 1.376 . S
C795 C833 1.389 . S
C796 C795 1.443 . S
C796 C797 1.340 . S
C796 H836 0.951 . S
C797 C796 1.340 . S
C797 C798 1.439 . S
C797 H837 0.950 . S
C798 C797 1.439 . S
C798 N799 1.374 . S
C798 C832 1.395 . S
N799 C795 1.376 . S
N799 C798 1.374 . S
N799 Co800 2.008 1_554 S
Co800 N799 2.008 1_556 S
Co800 N801 1.995 . S
Co800 N806 2.008 . S
Co800 N811 1.995 1_556 S
Co800 N816 2.282 1_556 S
Co800 N822 2.282 . S
N801 Co800 1.995 . S
N801 C802 1.376 . S
N801 C805 1.383 . S
C802 N801 1.376 . S
C802 C803 1.446 . S
C802 C832 1.391 1_556 S
C803 C802 1.446 . S
C803 C804 1.339 . S
C803 H838 0.949 . S
C804 C803 1.339 . S
C804 C805 1.439 . S
C804 H839 0.950 . S
C805 N801 1.383 . S
C805 C804 1.439 . S
C805 C834 1.392 . S
N806 Co800 2.008 . S
N806 C807 1.376 . S
N806 C810 1.374 . S
C807 N806 1.376 . S
C807 C808 1.443 . S
C807 C834 1.389 . S
C808 C807 1.443 . S
C808 C809 1.340 . S
C808 H840 0.951 . S
C809 C808 1.340 . S
C809 C810 1.439 . S
C809 H841 0.950 . S
C810 N806 1.374 . S
C810 C809 1.439 . S
C810 C835 1.395 . S
N811 Co800 1.995 1_554 S
N811 C812 1.376 1_554 S
N811 C815 1.383 . S
C812 N811 1.376 1_556 S
C812 C813 1.446 1_556 S
C812 C835 1.391 . S
C813 C812 1.446 1_554 S
C813 C814 1.339 . S
C813 H842 0.949 1_545 S
C814 C813 1.339 . S
C814 C815 1.439 . S
C814 H843 0.920 1_545 S
C815 N811 1.383 . S
C815 C814 1.439 . S
C815 C833 1.392 . S
N816 Co800 2.282 1_554 S
N816 C819 1.332 . S
N816 C821 1.332 . S
C817 C818 1.386 . S
C817 C820 1.388 . S
C818 C817 1.386 . S
C818 C819 1.382 . S
C818 H844 0.950 . S
C819 N816 1.332 . S
C819 C818 1.382 . S
C819 H830 0.952 . S
C820 C817 1.388 . S
C820 C821 1.382 . S
C820 H845 0.950 . S
C821 N816 1.332 . S
C821 C820 1.382 . S
C821 H831 0.948 . S
N822 Co800 2.282 . S
N822 C826 1.332 . S
N822 C827 1.332 . S
C823 C824 1.388 . S
C823 C827 1.382 . S
C823 H846 0.950 . S
C824 C823 1.388 . S
C824 C825 1.386 . S
C825 C824 1.386 . S
C825 C826 1.382 . S
C825 H847 0.950 . S
C826 N822 1.332 . S
C826 C825 1.382 . S
C826 H828 0.952 . S
C827 N822 1.332 . S
C827 C823 1.382 . S
C827 H829 0.948 . S
H828 C826 0.952 . S
H829 C827 0.948 . S
H830 C819 0.952 . S
H831 C821 0.948 . S
C832 C798 1.395 . S
C832 C802 1.391 1_554 S
C833 C795 1.389 . S
C833 C815 1.392 . S
C834 C805 1.392 . S
C834 C807 1.389 . S
C835 C810 1.395 . S
C835 C812 1.391 . S
H836 C796 0.951 . S
H837 C797 0.950 . S
H838 C803 0.949 . S
H839 C804 0.950 . S
H840 C808 0.951 . S
H841 C809 0.950 . S
H842 C813 0.949 1_565 S
H843 C814 0.920 1_565 S
H844 C818 0.950 . S
H845 C820 0.950 . S
H846 C823 0.950 . S
H847 C825 0.950 . S
C848 C849 1.443 . S
C848 N852 1.376 . S
C848 C886 1.389 . S
C849 C848 1.443 . S
C849 C850 1.340 . S
C849 H889 0.951 . S
C850 C849 1.340 . S
C850 C851 1.439 . S
C850 H890 0.950 . S
C851 C850 1.439 . S
C851 N852 1.374 . S
C851 C885 1.395 . S
N852 C848 1.376 . S
N852 C851 1.374 . S
N852 Co853 2.008 . S
Co853 N852 2.008 . S
Co853 N854 1.995 . S
Co853 N859 2.008 . S
Co853 N864 1.995 . S
Co853 N869 2.282 . S
Co853 N875 2.282 . S
N854 Co853 1.995 . S
N854 C855 1.376 . S
N854 C858 1.383 . S
C855 N854 1.376 . S
C855 C856 1.446 . S
C855 C885 1.391 . S
C856 C855 1.446 . S
C856 C857 1.339 . S
C856 H891 0.949 . S
C857 C856 1.339 . S
C857 C858 1.439 . S
C857 H892 0.950 . S
C858 N854 1.383 . S
C858 C857 1.439 . S
C858 C887 1.392 . S
N859 Co853 2.008 . S
N859 C860 1.376 . S
N859 C863 1.374 . S
C860 N859 1.376 . S
C860 C861 1.443 . S
C860 C887 1.389 . S
C861 C860 1.443 . S
C861 C862 1.340 . S
C861 H893 0.951 . S
C862 C861 1.340 . S
C862 C863 1.439 . S
C862 H894 0.950 . S
C863 N859 1.374 . S
C863 C862 1.439 . S
C863 C888 1.395 . S
N864 Co853 1.995 . S
N864 C865 1.376 . S
N864 C868 1.383 . S
C865 N864 1.376 . S
C865 C866 1.446 . S
C865 C888 1.391 . S
C866 C865 1.446 . S
C866 C867 1.339 . S
C866 H895 0.949 . S
C867 C866 1.339 . S
C867 C868 1.439 . S
C867 H896 0.950 . S
C868 N864 1.383 . S
C868 C867 1.439 . S
C868 C886 1.392 . S
N869 Co853 2.282 . S
N869 C872 1.332 . S
N869 C874 1.332 . S
C870 C871 1.386 . S
C870 C873 1.388 . S
C871 C870 1.386 . S
C871 C872 1.382 . S
C871 H897 0.950 . S
C872 N869 1.332 . S
C872 C871 1.382 . S
C872 H883 0.952 . S
C873 C870 1.388 . S
C873 C874 1.382 . S
C873 H898 0.950 . S
C874 N869 1.332 . S
C874 C873 1.382 . S
C874 H884 0.948 . S
N875 Co853 2.282 . S
N875 C879 1.332 . S
N875 C880 1.332 . S
C876 C877 1.388 . S
C876 C880 1.382 . S
C876 H899 0.950 . S
C877 C876 1.388 . S
C877 C878 1.386 . S
C878 C877 1.386 . S
C878 C879 1.382 . S
C878 H900 0.950 . S
C879 N875 1.332 . S
C879 C878 1.382 . S
C879 H881 0.952 . S
C880 N875 1.332 . S
C880 C876 1.382 . S
C880 H882 0.948 . S
H881 C879 0.952 . S
H882 C880 0.948 . S
H883 C872 0.952 . S
H884 C874 0.948 . S
C885 C851 1.395 . S
C885 C855 1.391 . S
C886 C848 1.389 . S
C886 C868 1.392 . S
C887 C858 1.392 . S
C887 C860 1.389 . S
C888 C863 1.395 . S
C888 C865 1.391 . S
H889 C849 0.951 . S
H890 C850 0.950 . S
H891 C856 0.949 . S
H892 C857 0.950 . S
H893 C861 0.951 . S
H894 C862 0.950 . S
H895 C866 0.949 . S
H896 C867 0.950 . S
H897 C871 0.950 . S
H898 C873 0.950 . S
H899 C876 0.950 . S
H900 C878 0.950 . S
C901 C902 1.443 . S
C901 N905 1.376 . S
C901 C939 1.389 . S
C902 C901 1.443 . S
C902 C903 1.340 . S
C902 H942 0.951 . S
C903 C902 1.340 . S
C903 C904 1.439 . S
C903 H943 0.950 . S
C904 C903 1.439 . S
C904 N905 1.374 . S
C904 C938 1.395 . S
N905 C901 1.376 . S
N905 C904 1.374 . S
N905 Co906 2.008 . S
Co906 N905 2.008 . S
Co906 N907 1.995 . S
Co906 N912 2.008 . S
Co906 N917 1.995 . S
Co906 N922 2.282 . S
Co906 N928 2.282 . S
N907 Co906 1.995 . S
N907 C908 1.376 . S
N907 C911 1.383 . S
C908 N907 1.376 . S
C908 C909 1.446 . S
C908 C938 1.391 . S
C909 C908 1.446 . S
C909 C910 1.339 . S
C909 H944 0.949 . S
C910 C909 1.339 . S
C910 C911 1.439 . S
C910 H945 0.950 . S
C911 N907 1.383 . S
C911 C910 1.439 . S
C911 C940 1.392 . S
N912 Co906 2.008 . S
N912 C913 1.376 . S
N912 C916 1.374 . S
C913 N912 1.376 . S
C913 C914 1.443 . S
C913 C940 1.389 . S
C914 C913 1.443 . S
C914 C915 1.340 . S
C914 H946 0.951 . S
C915 C914 1.340 . S
C915 C916 1.439 . S
C915 H947 0.950 . S
C916 N912 1.374 . S
C916 C915 1.439 . S
C916 C941 1.395 . S
N917 Co906 1.995 . S
N917 C918 1.376 . S
N917 C921 1.383 . S
C918 N917 1.376 . S
C918 C919 1.446 . S
C918 C941 1.391 . S
C919 C918 1.446 . S
C919 C920 1.339 . S
C919 H948 0.949 . S
C920 C919 1.339 . S
C920 C921 1.439 . S
C920 H949 0.950 . S
C921 N917 1.383 . S
C921 C920 1.439 . S
C921 C939 1.392 . S
N922 Co906 2.282 . S
N922 C925 1.332 . S
N922 C927 1.332 . S
C923 C924 1.386 . S
C923 C926 1.388 . S
C924 C923 1.386 . S
C924 C925 1.382 . S
C924 H950 0.950 . S
C925 N922 1.332 . S
C925 C924 1.382 . S
C925 H936 0.952 . S
C926 C923 1.388 . S
C926 C927 1.382 . S
C926 H951 0.950 . S
C927 N922 1.332 . S
C927 C926 1.382 . S
C927 H937 0.948 . S
N928 Co906 2.282 . S
N928 C932 1.332 . S
N928 C933 1.332 . S
C929 C930 1.388 . S
C929 C933 1.382 . S
C929 H952 0.950 . S
C930 C929 1.388 . S
C930 C931 1.386 . S
C931 C930 1.386 . S
C931 C932 1.382 . S
C931 H953 0.950 . S
C932 N928 1.332 . S
C932 C931 1.382 . S
C932 H934 0.952 . S
C933 N928 1.332 . S
C933 C929 1.382 . S
C933 H935 0.948 . S
H934 C932 0.952 . S
H935 C933 0.948 . S
H936 C925 0.952 . S
H937 C927 0.948 . S
C938 C904 1.395 . S
C938 C908 1.391 . S
C939 C901 1.389 . S
C939 C921 1.392 . S
C940 C911 1.392 . S
C940 C913 1.389 . S
C941 C916 1.395 . S
C941 C918 1.391 . S
H942 C902 0.951 . S
H943 C903 0.950 . S
H944 C909 0.949 . S
H945 C910 0.950 . S
H946 C914 0.951 . S
H947 C915 0.950 . S
H948 C919 0.949 . S
H949 C920 0.950 . S
H950 C924 0.950 . S
H951 C926 0.950 . S
H952 C929 0.950 . S
H953 C931 0.950 . S
C954 C955 1.443 . S
C954 N958 1.376 . S
C954 C992 1.389 . S
C955 C954 1.443 . S
C955 C956 1.340 . S
C955 H995 0.951 . S
C956 C955 1.340 . S
C956 C957 1.439 . S
C956 H996 0.950 . S
C957 C956 1.439 . S
C957 N958 1.374 . S
C957 C991 1.395 . S
N958 C954 1.376 . S
N958 C957 1.374 . S
N958 Co959 2.008 . S
Co959 N958 2.008 . S
Co959 N960 1.995 . S
Co959 N965 2.008 . S
Co959 N970 1.995 . S
Co959 N975 2.282 . S
Co959 N981 2.282 . S
N960 Co959 1.995 . S
N960 C961 1.376 . S
N960 C964 1.383 . S
C961 N960 1.376 . S
C961 C962 1.446 . S
C961 C991 1.391 . S
C962 C961 1.446 . S
C962 C963 1.339 . S
C962 H997 0.949 . S
C963 C962 1.339 . S
C963 C964 1.439 . S
C963 H998 0.950 . S
C964 N960 1.383 . S
C964 C963 1.439 . S
C964 C993 1.392 . S
N965 Co959 2.008 . S
N965 C966 1.376 . S
N965 C969 1.374 . S
C966 N965 1.376 . S
C966 C967 1.443 . S
C966 C993 1.389 . S
C967 C966 1.443 . S
C967 C968 1.340 . S
C967 H999 0.951 . S
C968 C967 1.340 . S
C968 C969 1.439 . S
C968 H1000 0.950 . S
C969 N965 1.374 . S
C969 C968 1.439 . S
C969 C994 1.395 . S
N970 Co959 1.995 . S
N970 C971 1.376 . S
N970 C974 1.383 . S
C971 N970 1.376 . S
C971 C972 1.446 . S
C971 C994 1.391 . S
C972 C971 1.446 . S
C972 C973 1.339 . S
C972 H1001 0.949 1_655 S
C973 C972 1.339 . S
C973 C974 1.439 . S
C973 H1002 0.918 1_655 S
C974 N970 1.383 . S
C974 C973 1.439 . S
C974 C992 1.392 . S
N975 Co959 2.282 . S
N975 C978 1.332 . S
N975 C980 1.332 . S
C976 C977 1.386 . S
C976 C979 1.388 . S
C977 C976 1.386 . S
C977 C978 1.382 . S
C977 H1003 0.950 . S
C978 N975 1.332 . S
C978 C977 1.382 . S
C978 H989 0.952 . S
C979 C976 1.388 . S
C979 C980 1.382 . S
C979 H1004 0.950 . S
C980 N975 1.332 . S
C980 C979 1.382 . S
C980 H990 0.948 . S
N981 Co959 2.282 . S
N981 C985 1.332 . S
N981 C986 1.332 . S
C982 C983 1.388 . S
C982 C986 1.382 . S
C982 H1005 0.950 . S
C983 C982 1.388 . S
C983 C984 1.386 . S
C984 C983 1.386 . S
C984 C985 1.382 . S
C984 H1006 0.950 . S
C985 N981 1.332 . S
C985 C984 1.382 . S
C985 H987 0.952 . S
C986 N981 1.332 . S
C986 C982 1.382 . S
C986 H988 0.948 . S
H987 C985 0.952 . S
H988 C986 0.948 . S
H989 C978 0.952 . S
H990 C980 0.948 . S
C991 C957 1.395 . S
C991 C961 1.391 . S
C992 C954 1.389 . S
C992 C974 1.392 . S
C993 C964 1.392 . S
C993 C966 1.389 . S
C994 C969 1.395 . S
C994 C971 1.391 . S
H995 C955 0.951 . S
H996 C956 0.950 . S
H997 C962 0.949 . S
H998 C963 0.950 . S
H999 C967 0.951 . S
H1000 C968 0.950 . S
H1001 C972 0.949 1_455 S
H1002 C973 0.918 1_455 S
H1003 C977 0.950 . S
H1004 C979 0.950 . S
H1005 C982 0.950 . S
H1006 C984 0.950 . S
C1007 C1008 1.443 . S
C1007 N1011 1.376 . S
C1007 C1045 1.389 . S
C1008 C1007 1.443 . S
C1008 C1009 1.340 . S
C1008 H1048 0.951 . S
C1009 C1008 1.340 . S
C1009 C1010 1.439 . S
C1009 H1049 0.950 . S
C1010 C1009 1.439 . S
C1010 N1011 1.374 . S
C1010 C1044 1.395 . S
N1011 C1007 1.376 . S
N1011 C1010 1.374 . S
N1011 Co1012 2.008 . S
Co1012 N1011 2.008 . S
Co1012 N1013 1.995 . S
Co1012 N1018 2.008 . S
Co1012 N1023 1.995 . S
Co1012 N1028 2.282 . S
Co1012 N1034 2.282 . S
N1013 Co1012 1.995 . S
N1013 C1014 1.376 . S
N1013 C1017 1.383 . S
C1014 N1013 1.376 . S
C1014 C1015 1.446 . S
C1014 C1044 1.391 . S
C1015 C1014 1.446 . S
C1015 C1016 1.339 . S
C1015 H1050 0.949 . S
C1016 C1015 1.339 . S
C1016 C1017 1.439 . S
C1016 H1051 0.950 . S
C1017 N1013 1.383 . S
C1017 C1016 1.439 . S
C1017 C1046 1.392 . S
N1018 Co1012 2.008 . S
N1018 C1019 1.376 . S
N1018 C1022 1.374 . S
C1019 N1018 1.376 . S
C1019 C1020 1.443 . S
C1019 C1046 1.389 . S
C1020 C1019 1.443 . S
C1020 C1021 1.340 . S
C1020 H1052 0.951 . S
C1021 C1020 1.340 . S
C1021 C1022 1.439 . S
C1021 H1053 0.950 . S
C1022 N1018 1.374 . S
C1022 C1021 1.439 . S
C1022 C1047 1.395 . S
N1023 Co1012 1.995 . S
N1023 C1024 1.376 . S
N1023 C1027 1.383 . S
C1024 N1023 1.376 . S
C1024 C1025 1.446 . S
C1024 C1047 1.391 . S
C1025 C1024 1.446 . S
C1025 C1026 1.339 . S
C1025 H1054 0.949 . S
C1026 C1025 1.339 . S
C1026 C1027 1.439 . S
C1026 H1055 0.950 . S
C1027 N1023 1.383 . S
C1027 C1026 1.439 . S
C1027 C1045 1.392 . S
N1028 Co1012 2.282 . S
N1028 C1031 1.332 . S
N1028 C1033 1.332 . S
C1029 C1030 1.386 . S
C1029 C1032 1.388 . S
C1030 C1029 1.386 . S
C1030 C1031 1.382 . S
C1030 H1056 0.950 . S
C1031 N1028 1.332 . S
C1031 C1030 1.382 . S
C1031 H1042 0.952 . S
C1032 C1029 1.388 . S
C1032 C1033 1.382 . S
C1032 H1057 0.950 . S
C1033 N1028 1.332 . S
C1033 C1032 1.382 . S
C1033 H1043 0.948 . S
N1034 Co1012 2.282 . S
N1034 C1038 1.332 . S
N1034 C1039 1.332 . S
C1035 C1036 1.388 . S
C1035 C1039 1.382 . S
C1035 H1058 0.950 . S
C1036 C1035 1.388 . S
C1036 C1037 1.386 . S
C1037 C1036 1.386 . S
C1037 C1038 1.382 . S
C1037 H1059 0.950 . S
C1038 N1034 1.332 . S
C1038 C1037 1.382 . S
C1038 H1040 0.952 . S
C1039 N1034 1.332 . S
C1039 C1035 1.382 . S
C1039 H1041 0.948 . S
H1040 C1038 0.952 . S
H1041 C1039 0.948 . S
H1042 C1031 0.952 . S
H1043 C1033 0.948 . S
C1044 C1010 1.395 . S
C1044 C1014 1.391 . S
C1045 C1007 1.389 . S
C1045 C1027 1.392 . S
C1046 C1017 1.392 . S
C1046 C1019 1.389 . S
C1047 C1022 1.395 . S
C1047 C1024 1.391 . S
H1048 C1008 0.951 . S
H1049 C1009 0.950 . S
H1050 C1015 0.949 . S
H1051 C1016 0.950 . S
H1052 C1020 0.951 . S
H1053 C1021 0.950 . S
H1054 C1025 0.949 . S
H1055 C1026 0.950 . S
H1056 C1030 0.950 . S
H1057 C1032 0.950 . S
H1058 C1035 0.950 . S
H1059 C1037 0.950 . S
C1060 C1061 1.443 . S
C1060 N1064 1.376 . S
C1060 C1098 1.389 . S
C1061 C1060 1.443 . S
C1061 C1062 1.340 . S
C1061 H1101 0.951 . S
C1062 C1061 1.340 . S
C1062 C1063 1.439 . S
C1062 H1102 0.950 . S
C1063 C1062 1.439 . S
C1063 N1064 1.374 . S
C1063 C1097 1.395 . S
N1064 C1060 1.376 . S
N1064 C1063 1.374 . S
N1064 Co1065 2.008 . S
Co1065 N1064 2.008 . S
Co1065 N1066 1.995 . S
Co1065 N1071 2.008 . S
Co1065 N1076 1.995 . S
Co1065 N1081 2.282 . S
Co1065 N1087 2.282 . S
N1066 Co1065 1.995 . S
N1066 C1067 1.376 . S
N1066 C1070 1.383 . S
C1067 N1066 1.376 . S
C1067 C1068 1.446 . S
C1067 C1097 1.391 . S
C1068 C1067 1.446 . S
C1068 C1069 1.339 . S
C1068 H1103 0.949 . S
C1069 C1068 1.339 . S
C1069 C1070 1.439 . S
C1069 H1104 0.950 . S
C1070 N1066 1.383 . S
C1070 C1069 1.439 . S
C1070 C1099 1.392 . S
N1071 Co1065 2.008 . S
N1071 C1072 1.376 . S
N1071 C1075 1.374 . S
C1072 N1071 1.376 . S
C1072 C1073 1.443 . S
C1072 C1099 1.389 . S
C1073 C1072 1.443 . S
C1073 C1074 1.340 . S
C1073 H1105 0.951 . S
C1074 C1073 1.340 . S
C1074 C1075 1.439 . S
C1074 H1106 0.950 . S
C1075 N1071 1.374 . S
C1075 C1074 1.439 . S
C1075 C1100 1.395 . S
N1076 Co1065 1.995 . S
N1076 C1077 1.376 . S
N1076 C1080 1.383 . S
C1077 N1076 1.376 . S
C1077 C1078 1.446 . S
C1077 C1100 1.391 . S
C1078 C1077 1.446 . S
C1078 C1079 1.339 . S
C1078 H1107 0.949 . S
C1079 C1078 1.339 . S
C1079 C1080 1.439 . S
C1079 H1108 0.950 . S
C1080 N1076 1.383 . S
C1080 C1079 1.439 . S
C1080 C1098 1.392 . S
N1081 Co1065 2.282 . S
N1081 C1084 1.332 . S
N1081 C1086 1.332 . S
C1082 C1083 1.386 . S
C1082 C1085 1.388 . S
C1083 C1082 1.386 . S
C1083 C1084 1.382 . S
C1083 H1109 0.950 . S
C1084 N1081 1.332 . S
C1084 C1083 1.382 . S
C1084 H1095 0.952 . S
C1085 C1082 1.388 . S
C1085 C1086 1.382 . S
C1085 H1110 0.950 . S
C1086 N1081 1.332 . S
C1086 C1085 1.382 . S
C1086 H1096 0.948 . S
N1087 Co1065 2.282 . S
N1087 C1091 1.332 . S
N1087 C1092 1.332 . S
C1088 C1089 1.388 . S
C1088 C1092 1.382 . S
C1088 H1111 0.950 . S
C1089 C1088 1.388 . S
C1089 C1090 1.386 . S
C1090 C1089 1.386 . S
C1090 C1091 1.382 . S
C1090 H1112 0.950 . S
C1091 N1087 1.332 . S
C1091 C1090 1.382 . S
C1091 H1093 0.952 . S
C1092 N1087 1.332 . S
C1092 C1088 1.382 . S
C1092 H1094 0.948 . S
H1093 C1091 0.952 . S
H1094 C1092 0.948 . S
H1095 C1084 0.952 . S
H1096 C1086 0.948 . S
C1097 C1063 1.395 . S
C1097 C1067 1.391 . S
C1098 C1060 1.389 . S
C1098 C1080 1.392 . S
C1099 C1070 1.392 . S
C1099 C1072 1.389 . S
C1100 C1075 1.395 . S
C1100 C1077 1.391 . S
H1101 C1061 0.951 . S
H1102 C1062 0.950 . S
H1103 C1068 0.949 . S
H1104 C1069 0.950 . S
H1105 C1073 0.951 . S
H1106 C1074 0.950 . S
H1107 C1078 0.949 . S
H1108 C1079 0.950 . S
H1109 C1083 0.950 . S
H1110 C1085 0.950 . S
H1111 C1088 0.950 . S
H1112 C1090 0.950 . S
C1113 C1114 1.443 . S
C1113 N1117 1.376 . S
C1113 C1151 1.389 . S
C1114 C1113 1.443 . S
C1114 C1115 1.340 . S
C1114 H1154 0.951 . S
C1115 C1114 1.340 . S
C1115 C1116 1.439 . S
C1115 H1155 0.950 . S
C1116 C1115 1.439 . S
C1116 N1117 1.374 . S
C1116 C1150 1.395 . S
N1117 C1113 1.376 . S
N1117 C1116 1.374 . S
N1117 Co1118 2.008 . S
Co1118 N1117 2.008 . S
Co1118 N1119 1.995 . S
Co1118 N1124 2.008 . S
Co1118 N1129 1.995 . S
Co1118 N1134 2.282 . S
Co1118 N1140 2.282 . S
N1119 Co1118 1.995 . S
N1119 C1120 1.376 . S
N1119 C1123 1.383 . S
C1120 N1119 1.376 . S
C1120 C1121 1.446 . S
C1120 C1150 1.391 . S
C1121 C1120 1.446 . S
C1121 C1122 1.339 . S
C1121 H1156 0.949 . S
C1122 C1121 1.339 . S
C1122 C1123 1.439 . S
C1122 H1157 0.950 . S
C1123 N1119 1.383 . S
C1123 C1122 1.439 . S
C1123 C1152 1.392 . S
N1124 Co1118 2.008 . S
N1124 C1125 1.376 . S
N1124 C1128 1.374 . S
C1125 N1124 1.376 . S
C1125 C1126 1.443 . S
C1125 C1152 1.389 . S
C1126 C1125 1.443 . S
C1126 C1127 1.340 . S
C1126 H1158 0.951 . S
C1127 C1126 1.340 . S
C1127 C1128 1.439 . S
C1127 H1159 0.950 . S
C1128 N1124 1.374 . S
C1128 C1127 1.439 . S
C1128 C1153 1.395 . S
N1129 Co1118 1.995 . S
N1129 C1130 1.376 . S
N1129 C1133 1.383 . S
C1130 N1129 1.376 . S
C1130 C1131 1.446 . S
C1130 C1153 1.391 . S
C1131 C1130 1.446 . S
C1131 C1132 1.339 . S
C1131 H1160 0.949 . S
C1132 C1131 1.339 . S
C1132 C1133 1.439 . S
C1132 H1161 0.950 . S
C1133 N1129 1.383 . S
C1133 C1132 1.439 . S
C1133 C1151 1.392 . S
N1134 Co1118 2.282 . S
N1134 C1137 1.332 . S
N1134 C1139 1.332 . S
C1135 C1136 1.386 . S
C1135 C1138 1.388 . S
C1136 C1135 1.386 . S
C1136 C1137 1.382 . S
C1136 H1162 0.950 . S
C1137 N1134 1.332 . S
C1137 C1136 1.382 . S
C1137 H1148 0.952 . S
C1138 C1135 1.388 . S
C1138 C1139 1.382 . S
C1138 H1163 0.950 . S
C1139 N1134 1.332 . S
C1139 C1138 1.382 . S
C1139 H1149 0.948 . S
N1140 Co1118 2.282 . S
N1140 C1144 1.332 . S
N1140 C1145 1.332 . S
C1141 C1142 1.388 . S
C1141 C1145 1.382 . S
C1141 H1164 0.950 . S
C1142 C1141 1.388 . S
C1142 C1143 1.386 . S
C1143 C1142 1.386 . S
C1143 C1144 1.382 . S
C1143 H1165 0.950 . S
C1144 N1140 1.332 . S
C1144 C1143 1.382 . S
C1144 H1146 0.952 . S
C1145 N1140 1.332 . S
C1145 C1141 1.382 . S
C1145 H1147 0.948 . S
H1146 C1144 0.952 . S
H1147 C1145 0.948 . S
H1148 C1137 0.952 . S
H1149 C1139 0.948 . S
C1150 C1116 1.395 . S
C1150 C1120 1.391 . S
C1151 C1113 1.389 . S
C1151 C1133 1.392 . S
C1152 C1123 1.392 . S
C1152 C1125 1.389 . S
C1153 C1128 1.395 . S
C1153 C1130 1.391 . S
H1154 C1114 0.951 . S
H1155 C1115 0.950 . S
H1156 C1121 0.949 . S
H1157 C1122 0.950 . S
H1158 C1126 0.951 . S
H1159 C1127 0.950 . S
H1160 C1131 0.949 . S
H1161 C1132 0.950 . S
H1162 C1136 0.950 . S
H1163 C1138 0.950 . S
H1164 C1141 0.950 . S
H1165 C1143 0.950 . S
C1166 C1167 1.443 . S
C1166 N1170 1.376 . S
C1166 C1204 1.389 . S
C1167 C1166 1.443 . S
C1167 C1168 1.340 . S
C1167 H1207 0.951 . S
C1168 C1167 1.340 . S
C1168 C1169 1.439 . S
C1168 H1208 0.950 . S
C1169 C1168 1.439 . S
C1169 N1170 1.374 . S
C1169 C1203 1.395 . S
N1170 C1166 1.376 . S
N1170 C1169 1.374 . S
N1170 Co1171 2.008 . S
Co1171 N1170 2.008 . S
Co1171 N1172 1.995 . S
Co1171 N1177 2.008 . S
Co1171 N1182 1.995 . S
Co1171 N1187 2.282 . S
Co1171 N1193 2.282 . S
N1172 Co1171 1.995 . S
N1172 C1173 1.376 . S
N1172 C1176 1.383 . S
C1173 N1172 1.376 . S
C1173 C1174 1.446 . S
C1173 C1203 1.391 . S
C1174 C1173 1.446 . S
C1174 C1175 1.339 . S
C1174 H1209 0.949 . S
C1175 C1174 1.339 . S
C1175 C1176 1.439 . S
C1175 H1210 0.950 . S
C1176 N1172 1.383 . S
C1176 C1175 1.439 . S
C1176 C1205 1.392 . S
N1177 Co1171 2.008 . S
N1177 C1178 1.376 . S
N1177 C1181 1.374 . S
C1178 N1177 1.376 . S
C1178 C1179 1.443 . S
C1178 C1205 1.389 . S
C1179 C1178 1.443 . S
C1179 C1180 1.340 . S
C1179 H1211 0.951 . S
C1180 C1179 1.340 . S
C1180 C1181 1.439 . S
C1180 H1212 0.950 . S
C1181 N1177 1.374 . S
C1181 C1180 1.439 . S
C1181 C1206 1.395 . S
N1182 Co1171 1.995 . S
N1182 C1183 1.376 . S
N1182 C1186 1.383 . S
C1183 N1182 1.376 . S
C1183 C1184 1.446 . S
C1183 C1206 1.391 . S
C1184 C1183 1.446 . S
C1184 C1185 1.339 . S
C1184 H1213 0.949 1_655 S
C1185 C1184 1.339 . S
C1185 C1186 1.439 . S
C1185 H1214 0.918 1_655 S
C1186 N1182 1.383 . S
C1186 C1185 1.439 . S
C1186 C1204 1.392 . S
N1187 Co1171 2.282 . S
N1187 C1190 1.332 . S
N1187 C1192 1.332 . S
C1188 C1189 1.386 . S
C1188 C1191 1.388 . S
C1189 C1188 1.386 . S
C1189 C1190 1.382 . S
C1189 H1215 0.950 . S
C1190 N1187 1.332 . S
C1190 C1189 1.382 . S
C1190 H1201 0.952 . S
C1191 C1188 1.388 . S
C1191 C1192 1.382 . S
C1191 H1216 0.950 . S
C1192 N1187 1.332 . S
C1192 C1191 1.382 . S
C1192 H1202 0.948 . S
N1193 Co1171 2.282 . S
N1193 C1197 1.332 . S
N1193 C1198 1.332 . S
C1194 C1195 1.388 . S
C1194 C1198 1.382 . S
C1194 H1217 0.950 . S
C1195 C1194 1.388 . S
C1195 C1196 1.386 . S
C1196 C1195 1.386 . S
C1196 C1197 1.382 . S
C1196 H1218 0.950 . S
C1197 N1193 1.332 . S
C1197 C1196 1.382 . S
C1197 H1199 0.952 . S
C1198 N1193 1.332 . S
C1198 C1194 1.382 . S
C1198 H1200 0.948 . S
H1199 C1197 0.952 . S
H1200 C1198 0.948 . S
H1201 C1190 0.952 . S
H1202 C1192 0.948 . S
C1203 C1169 1.395 . S
C1203 C1173 1.391 . S
C1204 C1166 1.389 . S
C1204 C1186 1.392 . S
C1205 C1176 1.392 . S
C1205 C1178 1.389 . S
C1206 C1181 1.395 . S
C1206 C1183 1.391 . S
H1207 C1167 0.951 . S
H1208 C1168 0.950 . S
H1209 C1174 0.949 . S
H1210 C1175 0.950 . S
H1211 C1179 0.951 . S
H1212 C1180 0.950 . S
H1213 C1184 0.949 1_455 S
H1214 C1185 0.918 1_455 S
H1215 C1189 0.950 . S
H1216 C1191 0.950 . S
H1217 C1194 0.950 . S
H1218 C1196 0.950 . S
C1219 C1220 1.443 . S
C1219 N1223 1.376 . S
C1219 C1257 1.389 . S
C1220 C1219 1.443 . S
C1220 C1221 1.340 . S
C1220 H1260 0.951 . S
C1221 C1220 1.340 . S
C1221 C1222 1.439 . S
C1221 H1261 0.950 . S
C1222 C1221 1.439 . S
C1222 N1223 1.374 . S
C1222 C1256 1.395 . S
N1223 C1219 1.376 . S
N1223 C1222 1.374 . S
N1223 Co1224 2.008 1_565 S
Co1224 N1223 2.008 1_545 S
Co1224 N1225 1.995 . S
Co1224 N1230 2.008 . S
Co1224 N1235 1.995 1_545 S
Co1224 N1240 2.282 1_545 S
Co1224 N1246 2.282 . S
N1225 Co1224 1.995 . S
N1225 C1226 1.376 . S
N1225 C1229 1.383 . S
C1226 N1225 1.376 . S
C1226 C1227 1.446 . S
C1226 C1256 1.391 1_545 S
C1227 C1226 1.446 . S
C1227 C1228 1.339 . S
C1227 H1262 0.949 . S
C1228 C1227 1.339 . S
C1228 C1229 1.439 . S
C1228 H1263 0.950 . S
C1229 N1225 1.383 . S
C1229 C1228 1.439 . S
C1229 C1258 1.392 . S
N1230 Co1224 2.008 . S
N1230 C1231 1.376 . S
N1230 C1234 1.374 . S
C1231 N1230 1.376 . S
C1231 C1232 1.443 . S
C1231 C1258 1.389 . S
C1232 C1231 1.443 . S
C1232 C1233 1.340 . S
C1232 H1264 0.951 . S
C1233 C1232 1.340 . S
C1233 C1234 1.439 . S
C1233 H1265 0.950 . S
C1234 N1230 1.374 . S
C1234 C1233 1.439 . S
C1234 C1259 1.395 . S
N1235 Co1224 1.995 1_565 S
N1235 C1236 1.376 1_565 S
N1235 C1239 1.383 . S
C1236 N1235 1.376 1_545 S
C1236 C1237 1.446 1_545 S
C1236 C1259 1.391 . S
C1237 C1236 1.446 1_565 S
C1237 C1238 1.339 . S
C1237 H1266 0.949 1_455 S
C1238 C1237 1.339 . S
C1238 C1239 1.439 . S
C1238 H1267 0.920 1_455 S
C1239 N1235 1.383 . S
C1239 C1238 1.439 . S
C1239 C1257 1.392 . S
N1240 Co1224 2.282 1_565 S
N1240 C1243 1.332 . S
N1240 C1245 1.332 . S
C1241 C1242 1.386 . S
C1241 C1244 1.388 . S
C1242 C1241 1.386 . S
C1242 C1243 1.382 . S
C1242 H1268 0.950 . S
C1243 N1240 1.332 . S
C1243 C1242 1.382 . S
C1243 H1254 0.952 . S
C1244 C1241 1.388 . S
C1244 C1245 1.382 . S
C1244 H1269 0.950 . S
C1245 N1240 1.332 . S
C1245 C1244 1.382 . S
C1245 H1255 0.948 . S
N1246 Co1224 2.282 . S
N1246 C1250 1.332 . S
N1246 C1251 1.332 . S
C1247 C1248 1.388 . S
C1247 C1251 1.382 . S
C1247 H1270 0.950 . S
C1248 C1247 1.388 . S
C1248 C1249 1.386 . S
C1249 C1248 1.386 . S
C1249 C1250 1.382 . S
C1249 H1271 0.950 . S
C1250 N1246 1.332 . S
C1250 C1249 1.382 . S
C1250 H1252 0.952 . S
C1251 N1246 1.332 . S
C1251 C1247 1.382 . S
C1251 H1253 0.948 . S
H1252 C1250 0.952 . S
H1253 C1251 0.948 . S
H1254 C1243 0.952 . S
H1255 C1245 0.948 . S
C1256 C1222 1.395 . S
C1256 C1226 1.391 1_565 S
C1257 C1219 1.389 . S
C1257 C1239 1.392 . S
C1258 C1229 1.392 . S
C1258 C1231 1.389 . S
C1259 C1234 1.395 . S
C1259 C1236 1.391 . S
H1260 C1220 0.951 . S
H1261 C1221 0.950 . S
H1262 C1227 0.949 . S
H1263 C1228 0.950 . S
H1264 C1232 0.951 . S
H1265 C1233 0.950 . S
H1266 C1237 0.949 1_655 S
H1267 C1238 0.920 1_655 S
H1268 C1242 0.950 . S
H1269 C1244 0.950 . S
H1270 C1247 0.950 . S
H1271 C1249 0.950 . S
C1272 C1273 1.443 . S
C1272 N1276 1.376 . S
C1272 C1310 1.389 . S
C1273 C1272 1.443 . S
C1273 C1274 1.340 . S
C1273 H1313 0.951 . S
C1274 C1273 1.340 . S
C1274 C1275 1.439 . S
C1274 H1314 0.950 . S
C1275 C1274 1.439 . S
C1275 N1276 1.374 . S
C1275 C1309 1.395 . S
N1276 C1272 1.376 . S
N1276 C1275 1.374 . S
N1276 Co1277 2.008 . S
Co1277 N1276 2.008 . S
Co1277 N1278 1.995 . S
Co1277 N1283 2.008 . S
Co1277 N1288 1.995 . S
Co1277 N1293 2.282 . S
Co1277 N1299 2.282 . S
N1278 Co1277 1.995 . S
N1278 C1279 1.376 . S
N1278 C1282 1.383 . S
C1279 N1278 1.376 . S
C1279 C1280 1.446 . S
C1279 C1309 1.391 . S
C1280 C1279 1.446 . S
C1280 C1281 1.339 . S
C1280 H1315 0.949 . S
C1281 C1280 1.339 . S
C1281 C1282 1.439 . S
C1281 H1316 0.950 . S
C1282 N1278 1.383 . S
C1282 C1281 1.439 . S
C1282 C1311 1.392 . S
N1283 Co1277 2.008 . S
N1283 C1284 1.376 . S
N1283 C1287 1.374 . S
C1284 N1283 1.376 . S
C1284 C1285 1.443 . S
C1284 C1311 1.389 . S
C1285 C1284 1.443 . S
C1285 C1286 1.340 . S
C1285 H1317 0.951 . S
C1286 C1285 1.340 . S
C1286 C1287 1.439 . S
C1286 H1318 0.950 . S
C1287 N1283 1.374 . S
C1287 C1286 1.439 . S
C1287 C1312 1.395 . S
N1288 Co1277 1.995 . S
N1288 C1289 1.376 . S
N1288 C1292 1.383 . S
C1289 N1288 1.376 . S
C1289 C1290 1.446 . S
C1289 C1312 1.391 . S
C1290 C1289 1.446 . S
C1290 C1291 1.339 . S
C1290 H1319 0.949 . S
C1291 C1290 1.339 . S
C1291 C1292 1.439 . S
C1291 H1320 0.950 . S
C1292 N1288 1.383 . S
C1292 C1291 1.439 . S
C1292 C1310 1.392 . S
N1293 Co1277 2.282 . S
N1293 C1296 1.332 . S
N1293 C1298 1.332 . S
C1294 C1295 1.386 . S
C1294 C1297 1.388 . S
C1295 C1294 1.386 . S
C1295 C1296 1.382 . S
C1295 H1321 0.950 . S
C1296 N1293 1.332 . S
C1296 C1295 1.382 . S
C1296 H1307 0.952 . S
C1297 C1294 1.388 . S
C1297 C1298 1.382 . S
C1297 H1322 0.950 . S
C1298 N1293 1.332 . S
C1298 C1297 1.382 . S
C1298 H1308 0.948 . S
N1299 Co1277 2.282 . S
N1299 C1303 1.332 . S
N1299 C1304 1.332 . S
C1300 C1301 1.388 . S
C1300 C1304 1.382 . S
C1300 H1323 0.950 . S
C1301 C1300 1.388 . S
C1301 C1302 1.386 . S
C1302 C1301 1.386 . S
C1302 C1303 1.382 . S
C1302 H1324 0.950 . S
C1303 N1299 1.332 . S
C1303 C1302 1.382 . S
C1303 H1305 0.952 . S
C1304 N1299 1.332 . S
C1304 C1300 1.382 . S
C1304 H1306 0.948 . S
H1305 C1303 0.952 . S
H1306 C1304 0.948 . S
H1307 C1296 0.952 . S
H1308 C1298 0.948 . S
C1309 C1275 1.395 . S
C1309 C1279 1.391 . S
C1310 C1272 1.389 . S
C1310 C1292 1.392 . S
C1311 C1282 1.392 . S
C1311 C1284 1.389 . S
C1312 C1287 1.395 . S
C1312 C1289 1.391 . S
H1313 C1273 0.951 . S
H1314 C1274 0.950 . S
H1315 C1280 0.949 . S
H1316 C1281 0.950 . S
H1317 C1285 0.951 . S
H1318 C1286 0.950 . S
H1319 C1290 0.949 . S
H1320 C1291 0.950 . S
H1321 C1295 0.950 . S
H1322 C1297 0.950 . S
H1323 C1300 0.950 . S
H1324 C1302 0.950 . S
C1325 C1326 1.443 . S
C1325 N1329 1.376 . S
C1325 C1363 1.389 . S
C1326 C1325 1.443 . S
C1326 C1327 1.340 . S
C1326 H1366 0.951 . S
C1327 C1326 1.340 . S
C1327 C1328 1.439 . S
C1327 H1367 0.950 . S
C1328 C1327 1.439 . S
C1328 N1329 1.374 . S
C1328 C1362 1.395 . S
N1329 C1325 1.376 . S
N1329 C1328 1.374 . S
N1329 Co1330 2.008 1_455 S
Co1330 N1329 2.008 1_655 S
Co1330 N1331 1.995 . S
Co1330 N1336 2.008 . S
Co1330 N1341 1.995 1_655 S
Co1330 N1346 2.282 1_655 S
Co1330 N1352 2.282 . S
N1331 Co1330 1.995 . S
N1331 C1332 1.376 . S
N1331 C1335 1.383 . S
C1332 N1331 1.376 . S
C1332 C1333 1.446 . S
C1332 C1362 1.391 1_655 S
C1333 C1332 1.446 . S
C1333 C1334 1.339 . S
C1333 H1368 0.949 . S
C1334 C1333 1.339 . S
C1334 C1335 1.439 . S
C1334 H1369 0.950 . S
C1335 N1331 1.383 . S
C1335 C1334 1.439 . S
C1335 C1364 1.392 . S
N1336 Co1330 2.008 . S
N1336 C1337 1.376 . S
N1336 C1340 1.374 . S
C1337 N1336 1.376 . S
C1337 C1338 1.443 . S
C1337 C1364 1.389 . S
C1338 C1337 1.443 . S
C1338 C1339 1.340 . S
C1338 H1370 0.951 . S
C1339 C1338 1.340 . S
C1339 C1340 1.439 . S
C1339 H1371 0.950 . S
C1340 N1336 1.374 . S
C1340 C1339 1.439 . S
C1340 C1365 1.395 . S
N1341 Co1330 1.995 1_455 S
N1341 C1342 1.376 1_455 S
N1341 C1345 1.383 . S
C1342 N1341 1.376 1_655 S
C1342 C1343 1.446 1_655 S
C1342 C1365 1.391 . S
C1343 C1342 1.446 1_455 S
C1343 C1344 1.339 . S
C1343 H1372 0.949 . S
C1344 C1343 1.339 . S
C1344 C1345 1.439 . S
C1344 H1373 0.950 . S
C1345 N1341 1.383 . S
C1345 C1344 1.439 . S
C1345 C1363 1.392 . S
N1346 Co1330 2.282 1_455 S
N1346 C1349 1.332 . S
N1346 C1351 1.332 . S
C1347 C1348 1.386 . S
C1347 C1350 1.388 . S
C1348 C1347 1.386 . S
C1348 C1349 1.382 . S
C1348 H1374 0.950 . S
C1349 N1346 1.332 . S
C1349 C1348 1.382 . S
C1349 H1360 0.952 . S
C1350 C1347 1.388 . S
C1350 C1351 1.382 . S
C1350 H1375 0.950 . S
C1351 N1346 1.332 . S
C1351 C1350 1.382 . S
C1351 H1361 0.948 . S
N1352 Co1330 2.282 . S
N1352 C1356 1.332 . S
N1352 C1357 1.332 . S
C1353 C1354 1.388 . S
C1353 C1357 1.382 . S
C1353 H1376 0.950 . S
C1354 C1353 1.388 . S
C1354 C1355 1.386 . S
C1355 C1354 1.386 . S
C1355 C1356 1.382 . S
C1355 H1377 0.950 . S
C1356 N1352 1.332 . S
C1356 C1355 1.382 . S
C1356 H1358 0.952 . S
C1357 N1352 1.332 . S
C1357 C1353 1.382 . S
C1357 H1359 0.948 . S
H1358 C1356 0.952 . S
H1359 C1357 0.948 . S
H1360 C1349 0.952 . S
H1361 C1351 0.948 . S
C1362 C1328 1.395 . S
C1362 C1332 1.391 1_455 S
C1363 C1325 1.389 . S
C1363 C1345 1.392 . S
C1364 C1335 1.392 . S
C1364 C1337 1.389 . S
C1365 C1340 1.395 . S
C1365 C1342 1.391 . S
H1366 C1326 0.951 . S
H1367 C1327 0.950 . S
H1368 C1333 0.949 . S
H1369 C1334 0.950 . S
H1370 C1338 0.951 . S
H1371 C1339 0.950 . S
H1372 C1343 0.949 . S
H1373 C1344 0.950 . S
H1374 C1348 0.950 . S
H1375 C1350 0.950 . S
H1376 C1353 0.950 . S
H1377 C1355 0.950 . S
C1378 C1379 1.443 . S
C1378 N1382 1.376 . S
C1378 C1416 1.389 . S
C1379 C1378 1.443 . S
C1379 C1380 1.340 . S
C1379 H1419 0.951 . S
C1380 C1379 1.340 . S
C1380 C1381 1.439 . S
C1380 H1420 0.950 . S
C1381 C1380 1.439 . S
C1381 N1382 1.374 . S
C1381 C1415 1.395 . S
N1382 C1378 1.376 . S
N1382 C1381 1.374 . S
N1382 Co1383 2.008 . S
Co1383 N1382 2.008 . S
Co1383 N1384 1.995 . S
Co1383 N1389 2.008 . S
Co1383 N1394 1.995 . S
Co1383 N1399 2.282 . S
Co1383 N1405 2.282 . S
N1384 Co1383 1.995 . S
N1384 C1385 1.376 . S
N1384 C1388 1.383 . S
C1385 N1384 1.376 . S
C1385 C1386 1.446 . S
C1385 C1415 1.391 . S
C1386 C1385 1.446 . S
C1386 C1387 1.339 . S
C1386 H1421 0.949 . S
C1387 C1386 1.339 . S
C1387 C1388 1.439 . S
C1387 H1422 0.950 . S
C1388 N1384 1.383 . S
C1388 C1387 1.439 . S
C1388 C1417 1.392 . S
N1389 Co1383 2.008 . S
N1389 C1390 1.376 . S
N1389 C1393 1.374 . S
C1390 N1389 1.376 . S
C1390 C1391 1.443 . S
C1390 C1417 1.389 . S
C1391 C1390 1.443 . S
C1391 C1392 1.340 . S
C1391 H1423 0.951 . S
C1392 C1391 1.340 . S
C1392 C1393 1.439 . S
C1392 H1424 0.950 . S
C1393 N1389 1.374 . S
C1393 C1392 1.439 . S
C1393 C1418 1.395 . S
N1394 Co1383 1.995 . S
N1394 C1395 1.376 . S
N1394 C1398 1.383 . S
C1395 N1394 1.376 . S
C1395 C1396 1.446 . S
C1395 C1418 1.391 . S
C1396 C1395 1.446 . S
C1396 C1397 1.339 . S
C1396 H1425 0.949 . S
C1397 C1396 1.339 . S
C1397 C1398 1.439 . S
C1397 H1426 0.950 . S
C1398 N1394 1.383 . S
C1398 C1397 1.439 . S
C1398 C1416 1.392 . S
N1399 Co1383 2.282 . S
N1399 C1402 1.332 . S
N1399 C1404 1.332 . S
C1400 C1401 1.386 . S
C1400 C1403 1.388 . S
C1401 C1400 1.386 . S
C1401 C1402 1.382 . S
C1401 H1427 0.950 . S
C1402 N1399 1.332 . S
C1402 C1401 1.382 . S
C1402 H1413 0.952 . S
C1403 C1400 1.388 . S
C1403 C1404 1.382 . S
C1403 H1428 0.950 . S
C1404 N1399 1.332 . S
C1404 C1403 1.382 . S
C1404 H1414 0.948 . S
N1405 Co1383 2.282 . S
N1405 C1409 1.332 . S
N1405 C1410 1.332 . S
C1406 C1407 1.388 . S
C1406 C1410 1.382 . S
C1406 H1429 0.950 . S
C1407 C1406 1.388 . S
C1407 C1408 1.386 . S
C1408 C1407 1.386 . S
C1408 C1409 1.382 . S
C1408 H1430 0.950 . S
C1409 N1405 1.332 . S
C1409 C1408 1.382 . S
C1409 H1411 0.952 . S
C1410 N1405 1.332 . S
C1410 C1406 1.382 . S
C1410 H1412 0.948 . S
H1411 C1409 0.952 . S
H1412 C1410 0.948 . S
H1413 C1402 0.952 . S
H1414 C1404 0.948 . S
C1415 C1381 1.395 . S
C1415 C1385 1.391 . S
C1416 C1378 1.389 . S
C1416 C1398 1.392 . S
C1417 C1388 1.392 . S
C1417 C1390 1.389 . S
C1418 C1393 1.395 . S
C1418 C1395 1.391 . S
H1419 C1379 0.951 . S
H1420 C1380 0.950 . S
H1421 C1386 0.949 . S
H1422 C1387 0.950 . S
H1423 C1391 0.951 . S
H1424 C1392 0.950 . S
H1425 C1396 0.949 . S
H1426 C1397 0.950 . S
H1427 C1401 0.950 . S
H1428 C1403 0.950 . S
H1429 C1406 0.950 . S
H1430 C1408 0.950 . S
C1431 C1432 1.443 . S
C1431 N1435 1.376 . S
C1431 C1469 1.389 . S
C1432 C1431 1.443 . S
C1432 C1433 1.340 . S
C1432 H1472 0.951 . S
C1433 C1432 1.340 . S
C1433 C1434 1.439 . S
C1433 H1473 0.950 . S
C1434 C1433 1.439 . S
C1434 N1435 1.374 . S
C1434 C1468 1.395 . S
N1435 C1431 1.376 . S
N1435 C1434 1.374 . S
N1435 Co1436 2.008 1_655 S
Co1436 N1435 2.008 1_455 S
Co1436 N1437 1.995 . S
Co1436 N1442 2.008 . S
Co1436 N1447 1.995 1_455 S
Co1436 N1452 2.282 1_455 S
Co1436 N1458 2.282 . S
N1437 Co1436 1.995 . S
N1437 C1438 1.376 . S
N1437 C1441 1.383 . S
C1438 N1437 1.376 . S
C1438 C1439 1.446 . S
C1438 C1468 1.391 1_455 S
C1439 C1438 1.446 . S
C1439 C1440 1.339 . S
C1439 H1474 0.949 . S
C1440 C1439 1.339 . S
C1440 C1441 1.439 . S
C1440 H1475 0.950 . S
C1441 N1437 1.383 . S
C1441 C1440 1.439 . S
C1441 C1470 1.392 . S
N1442 Co1436 2.008 . S
N1442 C1443 1.376 . S
N1442 C1446 1.374 . S
C1443 N1442 1.376 . S
C1443 C1444 1.443 . S
C1443 C1470 1.389 . S
C1444 C1443 1.443 . S
C1444 C1445 1.340 . S
C1444 H1476 0.951 . S
C1445 C1444 1.340 . S
C1445 C1446 1.439 . S
C1445 H1477 0.950 . S
C1446 N1442 1.374 . S
C1446 C1445 1.439 . S
C1446 C1471 1.395 . S
N1447 Co1436 1.995 1_655 S
N1447 C1448 1.376 1_655 S
N1447 C1451 1.383 . S
C1448 N1447 1.376 1_455 S
C1448 C1449 1.446 1_455 S
C1448 C1471 1.391 . S
C1449 C1448 1.446 1_655 S
C1449 C1450 1.339 . S
C1449 H1478 0.949 . S
C1450 C1449 1.339 . S
C1450 C1451 1.439 . S
C1450 H1479 0.950 . S
C1451 N1447 1.383 . S
C1451 C1450 1.439 . S
C1451 C1469 1.392 . S
N1452 Co1436 2.282 1_655 S
N1452 C1455 1.332 . S
N1452 C1457 1.332 . S
C1453 C1454 1.386 . S
C1453 C1456 1.388 . S
C1454 C1453 1.386 . S
C1454 C1455 1.382 . S
C1454 H1480 0.950 . S
C1455 N1452 1.332 . S
C1455 C1454 1.382 . S
C1455 H1466 0.952 . S
C1456 C1453 1.388 . S
C1456 C1457 1.382 . S
C1456 H1481 0.950 . S
C1457 N1452 1.332 . S
C1457 C1456 1.382 . S
C1457 H1467 0.948 . S
N1458 Co1436 2.282 . S
N1458 C1462 1.332 . S
N1458 C1463 1.332 . S
C1459 C1460 1.388 . S
C1459 C1463 1.382 . S
C1459 H1482 0.950 . S
C1460 C1459 1.388 . S
C1460 C1461 1.386 . S
C1461 C1460 1.386 . S
C1461 C1462 1.382 . S
C1461 H1483 0.950 . S
C1462 N1458 1.332 . S
C1462 C1461 1.382 . S
C1462 H1464 0.952 . S
C1463 N1458 1.332 . S
C1463 C1459 1.382 . S
C1463 H1465 0.948 . S
H1464 C1462 0.952 . S
H1465 C1463 0.948 . S
H1466 C1455 0.952 . S
H1467 C1457 0.948 . S
C1468 C1434 1.395 . S
C1468 C1438 1.391 1_655 S
C1469 C1431 1.389 . S
C1469 C1451 1.392 . S
C1470 C1441 1.392 . S
C1470 C1443 1.389 . S
C1471 C1446 1.395 . S
C1471 C1448 1.391 . S
H1472 C1432 0.951 . S
H1473 C1433 0.950 . S
H1474 C1439 0.949 . S
H1475 C1440 0.950 . S
H1476 C1444 0.951 . S
H1477 C1445 0.950 . S
H1478 C1449 0.949 . S
H1479 C1450 0.950 . S
H1480 C1454 0.950 . S
H1481 C1456 0.950 . S
H1482 C1459 0.950 . S
H1483 C1461 0.950 . S
C1484 C1485 1.443 . S
C1484 N1488 1.376 . S
C1484 C1522 1.389 . S
C1485 C1484 1.443 . S
C1485 C1486 1.340 . S
C1485 H1525 0.951 . S
C1486 C1485 1.340 . S
C1486 C1487 1.439 . S
C1486 H1526 0.950 . S
C1487 C1486 1.439 . S
C1487 N1488 1.374 . S
C1487 C1521 1.395 . S
N1488 C1484 1.376 . S
N1488 C1487 1.374 . S
N1488 Co1489 2.008 . S
Co1489 N1488 2.008 . S
Co1489 N1490 1.995 . S
Co1489 N1495 2.008 . S
Co1489 N1500 1.995 . S
Co1489 N1505 2.282 . S
Co1489 N1511 2.282 . S
N1490 Co1489 1.995 . S
N1490 C1491 1.376 . S
N1490 C1494 1.383 . S
C1491 N1490 1.376 . S
C1491 C1492 1.446 . S
C1491 C1521 1.391 . S
C1492 C1491 1.446 . S
C1492 C1493 1.339 . S
C1492 H1527 0.949 . S
C1493 C1492 1.339 . S
C1493 C1494 1.439 . S
C1493 H1528 0.950 . S
C1494 N1490 1.383 . S
C1494 C1493 1.439 . S
C1494 C1523 1.392 . S
N1495 Co1489 2.008 . S
N1495 C1496 1.376 . S
N1495 C1499 1.374 . S
C1496 N1495 1.376 . S
C1496 C1497 1.443 . S
C1496 C1523 1.389 . S
C1497 C1496 1.443 . S
C1497 C1498 1.340 . S
C1497 H1529 0.951 . S
C1498 C1497 1.340 . S
C1498 C1499 1.439 . S
C1498 H1530 0.950 . S
C1499 N1495 1.374 . S
C1499 C1498 1.439 . S
C1499 C1524 1.395 . S
N1500 Co1489 1.995 . S
N1500 C1501 1.376 . S
N1500 C1504 1.383 . S
C1501 N1500 1.376 . S
C1501 C1502 1.446 . S
C1501 C1524 1.391 . S
C1502 C1501 1.446 . S
C1502 C1503 1.339 . S
C1502 H1531 0.949 . S
C1503 C1502 1.339 . S
C1503 C1504 1.439 . S
C1503 H1532 0.950 . S
C1504 N1500 1.383 . S
C1504 C1503 1.439 . S
C1504 C1522 1.392 . S
N1505 Co1489 2.282 . S
N1505 C1508 1.332 . S
N1505 C1510 1.332 . S
C1506 C1507 1.386 . S
C1506 C1509 1.388 . S
C1507 C1506 1.386 . S
C1507 C1508 1.382 . S
C1507 H1533 0.950 . S
C1508 N1505 1.332 . S
C1508 C1507 1.382 . S
C1508 H1519 0.952 . S
C1509 C1506 1.388 . S
C1509 C1510 1.382 . S
C1509 H1534 0.950 . S
C1510 N1505 1.332 . S
C1510 C1509 1.382 . S
C1510 H1520 0.948 . S
N1511 Co1489 2.282 . S
N1511 C1515 1.332 . S
N1511 C1516 1.332 . S
C1512 C1513 1.388 . S
C1512 C1516 1.382 . S
C1512 H1535 0.950 . S
C1513 C1512 1.388 . S
C1513 C1514 1.386 . S
C1514 C1513 1.386 . S
C1514 C1515 1.382 . S
C1514 H1536 0.950 . S
C1515 N1511 1.332 . S
C1515 C1514 1.382 . S
C1515 H1517 0.952 . S
C1516 N1511 1.332 . S
C1516 C1512 1.382 . S
C1516 H1518 0.948 . S
H1517 C1515 0.952 . S
H1518 C1516 0.948 . S
H1519 C1508 0.952 . S
H1520 C1510 0.948 . S
C1521 C1487 1.395 . S
C1521 C1491 1.391 . S
C1522 C1484 1.389 . S
C1522 C1504 1.392 . S
C1523 C1494 1.392 . S
C1523 C1496 1.389 . S
C1524 C1499 1.395 . S
C1524 C1501 1.391 . S
H1525 C1485 0.951 . S
H1526 C1486 0.950 . S
H1527 C1492 0.949 . S
H1528 C1493 0.950 . S
H1529 C1497 0.951 . S
H1530 C1498 0.950 . S
H1531 C1502 0.949 . S
H1532 C1503 0.950 . S
H1533 C1507 0.950 . S
H1534 C1509 0.950 . S
H1535 C1512 0.950 . S
H1536 C1514 0.950 . S
C1537 C1538 1.443 . S
C1537 N1541 1.376 . S
C1537 C1575 1.389 . S
C1538 C1537 1.443 . S
C1538 C1539 1.340 . S
C1538 H1578 0.951 . S
C1539 C1538 1.340 . S
C1539 C1540 1.439 . S
C1539 H1579 0.950 . S
C1540 C1539 1.439 . S
C1540 N1541 1.374 . S
C1540 C1574 1.395 . S
N1541 C1537 1.376 . S
N1541 C1540 1.374 . S
N1541 Co1542 2.008 . S
Co1542 N1541 2.008 . S
Co1542 N1543 1.995 . S
Co1542 N1548 2.008 . S
Co1542 N1553 1.995 . S
Co1542 N1558 2.282 . S
Co1542 N1564 2.282 . S
N1543 Co1542 1.995 . S
N1543 C1544 1.376 . S
N1543 C1547 1.383 . S
C1544 N1543 1.376 . S
C1544 C1545 1.446 . S
C1544 C1574 1.391 . S
C1545 C1544 1.446 . S
C1545 C1546 1.339 . S
C1545 H1580 0.949 . S
C1546 C1545 1.339 . S
C1546 C1547 1.439 . S
C1546 H1581 0.950 . S
C1547 N1543 1.383 . S
C1547 C1546 1.439 . S
C1547 C1576 1.392 . S
N1548 Co1542 2.008 . S
N1548 C1549 1.376 . S
N1548 C1552 1.374 . S
C1549 N1548 1.376 . S
C1549 C1550 1.443 . S
C1549 C1576 1.389 . S
C1550 C1549 1.443 . S
C1550 C1551 1.340 . S
C1550 H1582 0.951 . S
C1551 C1550 1.340 . S
C1551 C1552 1.439 . S
C1551 H1583 0.950 . S
C1552 N1548 1.374 . S
C1552 C1551 1.439 . S
C1552 C1577 1.395 . S
N1553 Co1542 1.995 . S
N1553 C1554 1.376 . S
N1553 C1557 1.383 . S
C1554 N1553 1.376 . S
C1554 C1555 1.446 . S
C1554 C1577 1.391 . S
C1555 C1554 1.446 . S
C1555 C1556 1.339 . S
C1555 H1584 0.949 . S
C1556 C1555 1.339 . S
C1556 C1557 1.439 . S
C1556 H1585 0.950 . S
C1557 N1553 1.383 . S
C1557 C1556 1.439 . S
C1557 C1575 1.392 . S
N1558 Co1542 2.282 . S
N1558 C1561 1.332 . S
N1558 C1563 1.332 . S
C1559 C1560 1.386 . S
C1559 C1562 1.388 . S
C1560 C1559 1.386 . S
C1560 C1561 1.382 . S
C1560 H1586 0.950 . S
C1561 N1558 1.332 . S
C1561 C1560 1.382 . S
C1561 H1572 0.952 . S
C1562 C1559 1.388 . S
C1562 C1563 1.382 . S
C1562 H1587 0.950 . S
C1563 N1558 1.332 . S
C1563 C1562 1.382 . S
C1563 H1573 0.948 . S
N1564 Co1542 2.282 . S
N1564 C1568 1.332 . S
N1564 C1569 1.332 . S
C1565 C1566 1.388 . S
C1565 C1569 1.382 . S
C1565 H1588 0.950 . S
C1566 C1565 1.388 . S
C1566 C1567 1.386 . S
C1567 C1566 1.386 . S
C1567 C1568 1.382 . S
C1567 H1589 0.950 . S
C1568 N1564 1.332 . S
C1568 C1567 1.382 . S
C1568 H1570 0.952 . S
C1569 N1564 1.332 . S
C1569 C1565 1.382 . S
C1569 H1571 0.948 . S
H1570 C1568 0.952 . S
H1571 C1569 0.948 . S
H1572 C1561 0.952 . S
H1573 C1563 0.948 . S
C1574 C1540 1.395 . S
C1574 C1544 1.391 . S
C1575 C1537 1.389 . S
C1575 C1557 1.392 . S
C1576 C1547 1.392 . S
C1576 C1549 1.389 . S
C1577 C1552 1.395 . S
C1577 C1554 1.391 . S
H1578 C1538 0.951 . S
H1579 C1539 0.950 . S
H1580 C1545 0.949 . S
H1581 C1546 0.950 . S
H1582 C1550 0.951 . S
H1583 C1551 0.950 . S
H1584 C1555 0.949 . S
H1585 C1556 0.950 . S
H1586 C1560 0.950 . S
H1587 C1562 0.950 . S
H1588 C1565 0.950 . S
H1589 C1567 0.950 . S
C1590 C1591 1.443 . S
C1590 N1594 1.376 . S
C1590 C1628 1.389 . S
C1591 C1590 1.443 . S
C1591 C1592 1.340 . S
C1591 H1631 0.951 . S
C1592 C1591 1.340 . S
C1592 C1593 1.439 . S
C1592 H1632 0.950 . S
C1593 C1592 1.439 . S
C1593 N1594 1.374 . S
C1593 C1627 1.395 . S
N1594 C1590 1.376 . S
N1594 C1593 1.374 . S
N1594 Co1595 2.008 . S
Co1595 N1594 2.008 . S
Co1595 N1596 1.995 . S
Co1595 N1601 2.008 . S
Co1595 N1606 1.995 . S
Co1595 N1611 2.282 . S
Co1595 N1617 2.282 . S
N1596 Co1595 1.995 . S
N1596 C1597 1.376 . S
N1596 C1600 1.383 . S
C1597 N1596 1.376 . S
C1597 C1598 1.446 . S
C1597 C1627 1.391 . S
C1598 C1597 1.446 . S
C1598 C1599 1.339 . S
C1598 H1633 0.949 . S
C1599 C1598 1.339 . S
C1599 C1600 1.439 . S
C1599 H1634 0.950 . S
C1600 N1596 1.383 . S
C1600 C1599 1.439 . S
C1600 C1629 1.392 . S
N1601 Co1595 2.008 . S
N1601 C1602 1.376 . S
N1601 C1605 1.374 . S
C1602 N1601 1.376 . S
C1602 C1603 1.443 . S
C1602 C1629 1.389 . S
C1603 C1602 1.443 . S
C1603 C1604 1.340 . S
C1603 H1635 0.951 . S
C1604 C1603 1.340 . S
C1604 C1605 1.439 . S
C1604 H1636 0.950 . S
C1605 N1601 1.374 . S
C1605 C1604 1.439 . S
C1605 C1630 1.395 . S
N1606 Co1595 1.995 . S
N1606 C1607 1.376 . S
N1606 C1610 1.383 . S
C1607 N1606 1.376 . S
C1607 C1608 1.446 . S
C1607 C1630 1.391 . S
C1608 C1607 1.446 . S
C1608 C1609 1.339 . S
C1608 H1637 0.949 . S
C1609 C1608 1.339 . S
C1609 C1610 1.439 . S
C1609 H1638 0.950 . S
C1610 N1606 1.383 . S
C1610 C1609 1.439 . S
C1610 C1628 1.392 . S
N1611 Co1595 2.282 . S
N1611 C1614 1.332 . S
N1611 C1616 1.332 . S
C1612 C1613 1.386 . S
C1612 C1615 1.388 . S
C1613 C1612 1.386 . S
C1613 C1614 1.382 . S
C1613 H1639 0.950 . S
C1614 N1611 1.332 . S
C1614 C1613 1.382 . S
C1614 H1625 0.952 . S
C1615 C1612 1.388 . S
C1615 C1616 1.382 . S
C1615 H1640 0.950 . S
C1616 N1611 1.332 . S
C1616 C1615 1.382 . S
C1616 H1626 0.948 . S
N1617 Co1595 2.282 . S
N1617 C1621 1.332 . S
N1617 C1622 1.332 . S
C1618 C1619 1.388 . S
C1618 C1622 1.382 . S
C1618 H1641 0.950 . S
C1619 C1618 1.388 . S
C1619 C1620 1.386 . S
C1620 C1619 1.386 . S
C1620 C1621 1.382 . S
C1620 H1642 0.950 . S
C1621 N1617 1.332 . S
C1621 C1620 1.382 . S
C1621 H1623 0.952 . S
C1622 N1617 1.332 . S
C1622 C1618 1.382 . S
C1622 H1624 0.948 . S
H1623 C1621 0.952 . S
H1624 C1622 0.948 . S
H1625 C1614 0.952 . S
H1626 C1616 0.948 . S
C1627 C1593 1.395 . S
C1627 C1597 1.391 . S
C1628 C1590 1.389 . S
C1628 C1610 1.392 . S
C1629 C1600 1.392 . S
C1629 C1602 1.389 . S
C1630 C1605 1.395 . S
C1630 C1607 1.391 . S
H1631 C1591 0.951 . S
H1632 C1592 0.950 . S
H1633 C1598 0.949 . S
H1634 C1599 0.950 . S
H1635 C1603 0.951 . S
H1636 C1604 0.950 . S
H1637 C1608 0.949 . S
H1638 C1609 0.950 . S
H1639 C1613 0.950 . S
H1640 C1615 0.950 . S
H1641 C1618 0.950 . S
H1642 C1620 0.950 . S
C1643 C1644 1.443 . S
C1643 N1647 1.376 . S
C1643 C1681 1.389 . S
C1644 C1643 1.443 . S
C1644 C1645 1.340 . S
C1644 H1684 0.951 . S
C1645 C1644 1.340 . S
C1645 C1646 1.439 . S
C1645 H1685 0.950 . S
C1646 C1645 1.439 . S
C1646 N1647 1.374 . S
C1646 C1680 1.395 . S
N1647 C1643 1.376 . S
N1647 C1646 1.374 . S
N1647 Co1648 2.008 . S
Co1648 N1647 2.008 . S
Co1648 N1649 1.995 . S
Co1648 N1654 2.008 . S
Co1648 N1659 1.995 . S
Co1648 N1664 2.282 . S
Co1648 N1670 2.282 . S
N1649 Co1648 1.995 . S
N1649 C1650 1.376 . S
N1649 C1653 1.383 . S
C1650 N1649 1.376 . S
C1650 C1651 1.446 . S
C1650 C1680 1.391 . S
C1651 C1650 1.446 . S
C1651 C1652 1.339 . S
C1651 H1686 0.949 . S
C1652 C1651 1.339 . S
C1652 C1653 1.439 . S
C1652 H1687 0.950 . S
C1653 N1649 1.383 . S
C1653 C1652 1.439 . S
C1653 C1682 1.392 . S
N1654 Co1648 2.008 . S
N1654 C1655 1.376 . S
N1654 C1658 1.374 . S
C1655 N1654 1.376 . S
C1655 C1656 1.443 . S
C1655 C1682 1.389 . S
C1656 C1655 1.443 . S
C1656 C1657 1.340 . S
C1656 H1688 0.951 . S
C1657 C1656 1.340 . S
C1657 C1658 1.439 . S
C1657 H1689 0.950 . S
C1658 N1654 1.374 . S
C1658 C1657 1.439 . S
C1658 C1683 1.395 . S
N1659 Co1648 1.995 . S
N1659 C1660 1.376 . S
N1659 C1663 1.383 . S
C1660 N1659 1.376 . S
C1660 C1661 1.446 . S
C1660 C1683 1.391 . S
C1661 C1660 1.446 . S
C1661 C1662 1.339 . S
C1661 H1690 0.949 . S
C1662 C1661 1.339 . S
C1662 C1663 1.439 . S
C1662 H1691 0.950 . S
C1663 N1659 1.383 . S
C1663 C1662 1.439 . S
C1663 C1681 1.392 . S
N1664 Co1648 2.282 . S
N1664 C1667 1.332 . S
N1664 C1669 1.332 . S
C1665 C1666 1.386 . S
C1665 C1668 1.388 . S
C1666 C1665 1.386 . S
C1666 C1667 1.382 . S
C1666 H1692 0.950 . S
C1667 N1664 1.332 . S
C1667 C1666 1.382 . S
C1667 H1678 0.952 . S
C1668 C1665 1.388 . S
C1668 C1669 1.382 . S
C1668 H1693 0.950 . S
C1669 N1664 1.332 . S
C1669 C1668 1.382 . S
C1669 H1679 0.948 . S
N1670 Co1648 2.282 . S
N1670 C1674 1.332 . S
N1670 C1675 1.332 . S
C1671 C1672 1.388 . S
C1671 C1675 1.382 . S
C1671 H1694 0.950 . S
C1672 C1671 1.388 . S
C1672 C1673 1.386 . S
C1673 C1672 1.386 . S
C1673 C1674 1.382 . S
C1673 H1695 0.950 . S
C1674 N1670 1.332 . S
C1674 C1673 1.382 . S
C1674 H1676 0.952 . S
C1675 N1670 1.332 . S
C1675 C1671 1.382 . S
C1675 H1677 0.948 . S
H1676 C1674 0.952 . S
H1677 C1675 0.948 . S
H1678 C1667 0.952 . S
H1679 C1669 0.948 . S
C1680 C1646 1.395 . S
C1680 C1650 1.391 . S
C1681 C1643 1.389 . S
C1681 C1663 1.392 . S
C1682 C1653 1.392 . S
C1682 C1655 1.389 . S
C1683 C1658 1.395 . S
C1683 C1660 1.391 . S
H1684 C1644 0.951 . S
H1685 C1645 0.950 . S
H1686 C1651 0.949 . S
H1687 C1652 0.950 . S
H1688 C1656 0.951 . S
H1689 C1657 0.950 . S
H1690 C1661 0.949 . S
H1691 C1662 0.950 . S
H1692 C1666 0.950 . S
H1693 C1668 0.950 . S
H1694 C1671 0.950 . S
H1695 C1673 0.950 . S
C1696 C1697 1.443 . S
C1696 N1700 1.376 . S
C1696 C1734 1.389 . S
C1697 C1696 1.443 . S
C1697 C1698 1.340 . S
C1697 H1737 0.951 . S
C1698 C1697 1.340 . S
C1698 C1699 1.439 . S
C1698 H1738 0.950 . S
C1699 C1698 1.439 . S
C1699 N1700 1.374 . S
C1699 C1733 1.395 . S
N1700 C1696 1.376 . S
N1700 C1699 1.374 . S
N1700 Co1701 2.008 . S
Co1701 N1700 2.008 . S
Co1701 N1702 1.995 . S
Co1701 N1707 2.008 . S
Co1701 N1712 1.995 . S
Co1701 N1717 2.282 . S
Co1701 N1723 2.282 . S
N1702 Co1701 1.995 . S
N1702 C1703 1.376 . S
N1702 C1706 1.383 . S
C1703 N1702 1.376 . S
C1703 C1704 1.446 . S
C1703 C1733 1.391 . S
C1704 C1703 1.446 . S
C1704 C1705 1.339 . S
C1704 H1739 0.949 . S
C1705 C1704 1.339 . S
C1705 C1706 1.439 . S
C1705 H1740 0.950 . S
C1706 N1702 1.383 . S
C1706 C1705 1.439 . S
C1706 C1735 1.392 . S
N1707 Co1701 2.008 . S
N1707 C1708 1.376 . S
N1707 C1711 1.374 . S
C1708 N1707 1.376 . S
C1708 C1709 1.443 . S
C1708 C1735 1.389 . S
C1709 C1708 1.443 . S
C1709 C1710 1.340 . S
C1709 H1741 0.951 . S
C1710 C1709 1.340 . S
C1710 C1711 1.439 . S
C1710 H1742 0.950 . S
C1711 N1707 1.374 . S
C1711 C1710 1.439 . S
C1711 C1736 1.395 . S
N1712 Co1701 1.995 . S
N1712 C1713 1.376 . S
N1712 C1716 1.383 . S
C1713 N1712 1.376 . S
C1713 C1714 1.446 . S
C1713 C1736 1.391 . S
C1714 C1713 1.446 . S
C1714 C1715 1.339 . S
C1714 H1743 0.949 . S
C1715 C1714 1.339 . S
C1715 C1716 1.439 . S
C1715 H1744 0.950 . S
C1716 N1712 1.383 . S
C1716 C1715 1.439 . S
C1716 C1734 1.392 . S
N1717 Co1701 2.282 . S
N1717 C1720 1.332 . S
N1717 C1722 1.332 . S
C1718 C1719 1.386 . S
C1718 C1721 1.388 . S
C1719 C1718 1.386 . S
C1719 C1720 1.382 . S
C1719 H1745 0.950 . S
C1720 N1717 1.332 . S
C1720 C1719 1.382 . S
C1720 H1731 0.952 . S
C1721 C1718 1.388 . S
C1721 C1722 1.382 . S
C1721 H1746 0.950 . S
C1722 N1717 1.332 . S
C1722 C1721 1.382 . S
C1722 H1732 0.948 . S
N1723 Co1701 2.282 . S
N1723 C1727 1.332 . S
N1723 C1728 1.332 . S
C1724 C1725 1.388 . S
C1724 C1728 1.382 . S
C1724 H1747 0.950 . S
C1725 C1724 1.388 . S
C1725 C1726 1.386 . S
C1726 C1725 1.386 . S
C1726 C1727 1.382 . S
C1726 H1748 0.950 . S
C1727 N1723 1.332 . S
C1727 C1726 1.382 . S
C1727 H1729 0.952 . S
C1728 N1723 1.332 . S
C1728 C1724 1.382 . S
C1728 H1730 0.948 . S
H1729 C1727 0.952 . S
H1730 C1728 0.948 . S
H1731 C1720 0.952 . S
H1732 C1722 0.948 . S
C1733 C1699 1.395 . S
C1733 C1703 1.391 . S
C1734 C1696 1.389 . S
C1734 C1716 1.392 . S
C1735 C1706 1.392 . S
C1735 C1708 1.389 . S
C1736 C1711 1.395 . S
C1736 C1713 1.391 . S
H1737 C1697 0.951 . S
H1738 C1698 0.950 . S
H1739 C1704 0.949 . S
H1740 C1705 0.950 . S
H1741 C1709 0.951 . S
H1742 C1710 0.950 . S
H1743 C1714 0.949 . S
H1744 C1715 0.950 . S
H1745 C1719 0.950 . S
H1746 C1721 0.950 . S
H1747 C1724 0.950 . S
H1748 C1726 0.950 . S
C1749 C1750 1.443 . S
C1749 N1753 1.376 . S
C1749 C1787 1.389 . S
C1750 C1749 1.443 . S
C1750 C1751 1.340 . S
C1750 H1790 0.951 . S
C1751 C1750 1.340 . S
C1751 C1752 1.439 . S
C1751 H1791 0.950 . S
C1752 C1751 1.439 . S
C1752 N1753 1.374 . S
C1752 C1786 1.395 . S
N1753 C1749 1.376 . S
N1753 C1752 1.374 . S
N1753 Co1754 2.008 . S
Co1754 N1753 2.008 . S
Co1754 N1755 1.995 . S
Co1754 N1760 2.008 . S
Co1754 N1765 1.995 . S
Co1754 N1770 2.282 . S
Co1754 N1776 2.282 . S
N1755 Co1754 1.995 . S
N1755 C1756 1.376 . S
N1755 C1759 1.383 . S
C1756 N1755 1.376 . S
C1756 C1757 1.446 . S
C1756 C1786 1.391 . S
C1757 C1756 1.446 . S
C1757 C1758 1.339 . S
C1757 H1792 0.949 . S
C1758 C1757 1.339 . S
C1758 C1759 1.439 . S
C1758 H1793 0.950 . S
C1759 N1755 1.383 . S
C1759 C1758 1.439 . S
C1759 C1788 1.392 . S
N1760 Co1754 2.008 . S
N1760 C1761 1.376 . S
N1760 C1764 1.374 . S
C1761 N1760 1.376 . S
C1761 C1762 1.443 . S
C1761 C1788 1.389 . S
C1762 C1761 1.443 . S
C1762 C1763 1.340 . S
C1762 H1794 0.951 . S
C1763 C1762 1.340 . S
C1763 C1764 1.439 . S
C1763 H1795 0.950 . S
C1764 N1760 1.374 . S
C1764 C1763 1.439 . S
C1764 C1789 1.395 . S
N1765 Co1754 1.995 . S
N1765 C1766 1.376 . S
N1765 C1769 1.383 . S
C1766 N1765 1.376 . S
C1766 C1767 1.446 . S
C1766 C1789 1.391 . S
C1767 C1766 1.446 . S
C1767 C1768 1.339 . S
C1767 H1796 0.949 1_565 S
C1768 C1767 1.339 . S
C1768 C1769 1.439 . S
C1768 H1797 0.918 1_565 S
C1769 N1765 1.383 . S
C1769 C1768 1.439 . S
C1769 C1787 1.392 . S
N1770 Co1754 2.282 . S
N1770 C1773 1.332 . S
N1770 C1775 1.332 . S
C1771 C1772 1.386 . S
C1771 C1774 1.388 . S
C1772 C1771 1.386 . S
C1772 C1773 1.382 . S
C1772 H1798 0.950 . S
C1773 N1770 1.332 . S
C1773 C1772 1.382 . S
C1773 H1784 0.952 . S
C1774 C1771 1.388 . S
C1774 C1775 1.382 . S
C1774 H1799 0.950 . S
C1775 N1770 1.332 . S
C1775 C1774 1.382 . S
C1775 H1785 0.948 . S
N1776 Co1754 2.282 . S
N1776 C1780 1.332 . S
N1776 C1781 1.332 . S
C1777 C1778 1.388 . S
C1777 C1781 1.382 . S
C1777 H1800 0.950 . S
C1778 C1777 1.388 . S
C1778 C1779 1.386 . S
C1779 C1778 1.386 . S
C1779 C1780 1.382 . S
C1779 H1801 0.950 . S
C1780 N1776 1.332 . S
C1780 C1779 1.382 . S
C1780 H1782 0.952 . S
C1781 N1776 1.332 . S
C1781 C1777 1.382 . S
C1781 H1783 0.948 . S
H1782 C1780 0.952 . S
H1783 C1781 0.948 . S
H1784 C1773 0.952 . S
H1785 C1775 0.948 . S
C1786 C1752 1.395 . S
C1786 C1756 1.391 . S
C1787 C1749 1.389 . S
C1787 C1769 1.392 . S
C1788 C1759 1.392 . S
C1788 C1761 1.389 . S
C1789 C1764 1.395 . S
C1789 C1766 1.391 . S
H1790 C1750 0.951 . S
H1791 C1751 0.950 . S
H1792 C1757 0.949 . S
H1793 C1758 0.950 . S
H1794 C1762 0.951 . S
H1795 C1763 0.950 . S
H1796 C1767 0.949 1_545 S
H1797 C1768 0.918 1_545 S
H1798 C1772 0.950 . S
H1799 C1774 0.950 . S
H1800 C1777 0.950 . S
H1801 C1779 0.950 . S
C1802 C1803 1.443 . S
C1802 N1806 1.376 . S
C1802 C1840 1.389 . S
C1803 C1802 1.443 . S
C1803 C1804 1.340 . S
C1803 H1843 0.951 . S
C1804 C1803 1.340 . S
C1804 C1805 1.439 . S
C1804 H1844 0.950 . S
C1805 C1804 1.439 . S
C1805 N1806 1.374 . S
C1805 C1839 1.395 . S
N1806 C1802 1.376 . S
N1806 C1805 1.374 . S
N1806 Co1807 2.008 . S
Co1807 N1806 2.008 . S
Co1807 N1808 1.995 . S
Co1807 N1813 2.008 . S
Co1807 N1818 1.995 . S
Co1807 N1823 2.282 . S
Co1807 N1829 2.282 . S
N1808 Co1807 1.995 . S
N1808 C1809 1.376 . S
N1808 C1812 1.383 . S
C1809 N1808 1.376 . S
C1809 C1810 1.446 . S
C1809 C1839 1.391 . S
C1810 C1809 1.446 . S
C1810 C1811 1.339 . S
C1810 H1845 0.949 . S
C1811 C1810 1.339 . S
C1811 C1812 1.439 . S
C1811 H1846 0.950 . S
C1812 N1808 1.383 . S
C1812 C1811 1.439 . S
C1812 C1841 1.392 . S
N1813 Co1807 2.008 . S
N1813 C1814 1.376 . S
N1813 C1817 1.374 . S
C1814 N1813 1.376 . S
C1814 C1815 1.443 . S
C1814 C1841 1.389 . S
C1815 C1814 1.443 . S
C1815 C1816 1.340 . S
C1815 H1847 0.951 . S
C1816 C1815 1.340 . S
C1816 C1817 1.439 . S
C1816 H1848 0.950 . S
C1817 N1813 1.374 . S
C1817 C1816 1.439 . S
C1817 C1842 1.395 . S
N1818 Co1807 1.995 . S
N1818 C1819 1.376 . S
N1818 C1822 1.383 . S
C1819 N1818 1.376 . S
C1819 C1820 1.446 . S
C1819 C1842 1.391 . S
C1820 C1819 1.446 . S
C1820 C1821 1.339 . S
C1820 H1849 0.949 . S
C1821 C1820 1.339 . S
C1821 C1822 1.439 . S
C1821 H1850 0.950 . S
C1822 N1818 1.383 . S
C1822 C1821 1.439 . S
C1822 C1840 1.392 . S
N1823 Co1807 2.282 . S
N1823 C1826 1.332 . S
N1823 C1828 1.332 . S
C1824 C1825 1.386 . S
C1824 C1827 1.388 . S
C1825 C1824 1.386 . S
C1825 C1826 1.382 . S
C1825 H1851 0.950 . S
C1826 N1823 1.332 . S
C1826 C1825 1.382 . S
C1826 H1837 0.952 . S
C1827 C1824 1.388 . S
C1827 C1828 1.382 . S
C1827 H1852 0.950 . S
C1828 N1823 1.332 . S
C1828 C1827 1.382 . S
C1828 H1838 0.948 . S
N1829 Co1807 2.282 . S
N1829 C1833 1.332 . S
N1829 C1834 1.332 . S
C1830 C1831 1.388 . S
C1830 C1834 1.382 . S
C1830 H1853 0.950 . S
C1831 C1830 1.388 . S
C1831 C1832 1.386 . S
C1832 C1831 1.386 . S
C1832 C1833 1.382 . S
C1832 H1854 0.950 . S
C1833 N1829 1.332 . S
C1833 C1832 1.382 . S
C1833 H1835 0.952 . S
C1834 N1829 1.332 . S
C1834 C1830 1.382 . S
C1834 H1836 0.948 . S
H1835 C1833 0.952 . S
H1836 C1834 0.948 . S
H1837 C1826 0.952 . S
H1838 C1828 0.948 . S
C1839 C1805 1.395 . S
C1839 C1809 1.391 . S
C1840 C1802 1.389 . S
C1840 C1822 1.392 . S
C1841 C1812 1.392 . S
C1841 C1814 1.389 . S
C1842 C1817 1.395 . S
C1842 C1819 1.391 . S
H1843 C1803 0.951 . S
H1844 C1804 0.950 . S
H1845 C1810 0.949 . S
H1846 C1811 0.950 . S
H1847 C1815 0.951 . S
H1848 C1816 0.950 . S
H1849 C1820 0.949 . S
H1850 C1821 0.950 . S
H1851 C1825 0.950 . S
H1852 C1827 0.950 . S
H1853 C1830 0.950 . S
H1854 C1832 0.950 . S
C1855 C1856 1.443 . S
C1855 N1859 1.376 . S
C1855 C1893 1.389 . S
C1856 C1855 1.443 . S
C1856 C1857 1.340 . S
C1856 H1896 0.951 . S
C1857 C1856 1.340 . S
C1857 C1858 1.439 . S
C1857 H1897 0.950 . S
C1858 C1857 1.439 . S
C1858 N1859 1.374 . S
C1858 C1892 1.395 . S
N1859 C1855 1.376 . S
N1859 C1858 1.374 . S
N1859 Co1860 2.008 . S
Co1860 N1859 2.008 . S
Co1860 N1861 1.995 . S
Co1860 N1866 2.008 . S
Co1860 N1871 1.995 . S
Co1860 N1876 2.282 . S
Co1860 N1882 2.282 . S
N1861 Co1860 1.995 . S
N1861 C1862 1.376 . S
N1861 C1865 1.383 . S
C1862 N1861 1.376 . S
C1862 C1863 1.446 . S
C1862 C1892 1.391 . S
C1863 C1862 1.446 . S
C1863 C1864 1.339 . S
C1863 H1898 0.949 . S
C1864 C1863 1.339 . S
C1864 C1865 1.439 . S
C1864 H1899 0.950 . S
C1865 N1861 1.383 . S
C1865 C1864 1.439 . S
C1865 C1894 1.392 . S
N1866 Co1860 2.008 . S
N1866 C1867 1.376 . S
N1866 C1870 1.374 . S
C1867 N1866 1.376 . S
C1867 C1868 1.443 . S
C1867 C1894 1.389 . S
C1868 C1867 1.443 . S
C1868 C1869 1.340 . S
C1868 H1900 0.951 . S
C1869 C1868 1.340 . S
C1869 C1870 1.439 . S
C1869 H1901 0.950 . S
C1870 N1866 1.374 . S
C1870 C1869 1.439 . S
C1870 C1895 1.395 . S
N1871 Co1860 1.995 . S
N1871 C1872 1.376 . S
N1871 C1875 1.383 . S
C1872 N1871 1.376 . S
C1872 C1873 1.446 . S
C1872 C1895 1.391 . S
C1873 C1872 1.446 . S
C1873 C1874 1.339 . S
C1873 H1902 0.949 . S
C1874 C1873 1.339 . S
C1874 C1875 1.439 . S
C1874 H1903 0.950 . S
C1875 N1871 1.383 . S
C1875 C1874 1.439 . S
C1875 C1893 1.392 . S
N1876 Co1860 2.282 . S
N1876 C1879 1.332 . S
N1876 C1881 1.332 . S
C1877 C1878 1.386 . S
C1877 C1880 1.388 . S
C1878 C1877 1.386 . S
C1878 C1879 1.382 . S
C1878 H1904 0.950 . S
C1879 N1876 1.332 . S
C1879 C1878 1.382 . S
C1879 H1890 0.952 . S
C1880 C1877 1.388 . S
C1880 C1881 1.382 . S
C1880 H1905 0.950 . S
C1881 N1876 1.332 . S
C1881 C1880 1.382 . S
C1881 H1891 0.948 . S
N1882 Co1860 2.282 . S
N1882 C1886 1.332 . S
N1882 C1887 1.332 . S
C1883 C1884 1.388 . S
C1883 C1887 1.382 . S
C1883 H1906 0.950 . S
C1884 C1883 1.388 . S
C1884 C1885 1.386 . S
C1885 C1884 1.386 . S
C1885 C1886 1.382 . S
C1885 H1907 0.950 . S
C1886 N1882 1.332 . S
C1886 C1885 1.382 . S
C1886 H1888 0.952 . S
C1887 N1882 1.332 . S
C1887 C1883 1.382 . S
C1887 H1889 0.948 . S
H1888 C1886 0.952 . S
H1889 C1887 0.948 . S
H1890 C1879 0.952 . S
H1891 C1881 0.948 . S
C1892 C1858 1.395 . S
C1892 C1862 1.391 . S
C1893 C1855 1.389 . S
C1893 C1875 1.392 . S
C1894 C1865 1.392 . S
C1894 C1867 1.389 . S
C1895 C1870 1.395 . S
C1895 C1872 1.391 . S
H1896 C1856 0.951 . S
H1897 C1857 0.950 . S
H1898 C1863 0.949 . S
H1899 C1864 0.950 . S
H1900 C1868 0.951 . S
H1901 C1869 0.950 . S
H1902 C1873 0.949 . S
H1903 C1874 0.950 . S
H1904 C1878 0.950 . S
H1905 C1880 0.950 . S
H1906 C1883 0.950 . S
H1907 C1885 0.950 . S
C1908 C1909 1.443 . S
C1908 N1912 1.376 . S
C1908 C1946 1.389 . S
C1909 C1908 1.443 . S
C1909 C1910 1.340 . S
C1909 H1949 0.951 . S
C1910 C1909 1.340 . S
C1910 C1911 1.439 . S
C1910 H1950 0.950 . S
C1911 C1910 1.439 . S
C1911 N1912 1.374 . S
C1911 C1945 1.395 . S
N1912 C1908 1.376 . S
N1912 C1911 1.374 . S
N1912 Co1913 2.008 . S
Co1913 N1912 2.008 . S
Co1913 N1914 1.995 . S
Co1913 N1919 2.008 . S
Co1913 N1924 1.995 . S
Co1913 N1929 2.282 . S
Co1913 N1935 2.282 . S
N1914 Co1913 1.995 . S
N1914 C1915 1.376 . S
N1914 C1918 1.383 . S
C1915 N1914 1.376 . S
C1915 C1916 1.446 . S
C1915 C1945 1.391 . S
C1916 C1915 1.446 . S
C1916 C1917 1.339 . S
C1916 H1951 0.949 . S
C1917 C1916 1.339 . S
C1917 C1918 1.439 . S
C1917 H1952 0.950 . S
C1918 N1914 1.383 . S
C1918 C1917 1.439 . S
C1918 C1947 1.392 . S
N1919 Co1913 2.008 . S
N1919 C1920 1.376 . S
N1919 C1923 1.374 . S
C1920 N1919 1.376 . S
C1920 C1921 1.443 . S
C1920 C1947 1.389 . S
C1921 C1920 1.443 . S
C1921 C1922 1.340 . S
C1921 H1953 0.951 . S
C1922 C1921 1.340 . S
C1922 C1923 1.439 . S
C1922 H1954 0.950 . S
C1923 N1919 1.374 . S
C1923 C1922 1.439 . S
C1923 C1948 1.395 . S
N1924 Co1913 1.995 . S
N1924 C1925 1.376 . S
N1924 C1928 1.383 . S
C1925 N1924 1.376 . S
C1925 C1926 1.446 . S
C1925 C1948 1.391 . S
C1926 C1925 1.446 . S
C1926 C1927 1.339 . S
C1926 H1955 0.949 . S
C1927 C1926 1.339 . S
C1927 C1928 1.439 . S
C1927 H1956 0.950 . S
C1928 N1924 1.383 . S
C1928 C1927 1.439 . S
C1928 C1946 1.392 . S
N1929 Co1913 2.282 . S
N1929 C1932 1.332 . S
N1929 C1934 1.332 . S
C1930 C1931 1.386 . S
C1930 C1933 1.388 . S
C1931 C1930 1.386 . S
C1931 C1932 1.382 . S
C1931 H1957 0.950 . S
C1932 N1929 1.332 . S
C1932 C1931 1.382 . S
C1932 H1943 0.952 . S
C1933 C1930 1.388 . S
C1933 C1934 1.382 . S
C1933 H1958 0.950 . S
C1934 N1929 1.332 . S
C1934 C1933 1.382 . S
C1934 H1944 0.948 . S
N1935 Co1913 2.282 . S
N1935 C1939 1.332 . S
N1935 C1940 1.332 . S
C1936 C1937 1.388 . S
C1936 C1940 1.382 . S
C1936 H1959 0.950 . S
C1937 C1936 1.388 . S
C1937 C1938 1.386 . S
C1938 C1937 1.386 . S
C1938 C1939 1.382 . S
C1938 H1960 0.950 . S
C1939 N1935 1.332 . S
C1939 C1938 1.382 . S
C1939 H1941 0.952 . S
C1940 N1935 1.332 . S
C1940 C1936 1.382 . S
C1940 H1942 0.948 . S
H1941 C1939 0.952 . S
H1942 C1940 0.948 . S
H1943 C1932 0.952 . S
H1944 C1934 0.948 . S
C1945 C1911 1.395 . S
C1945 C1915 1.391 . S
C1946 C1908 1.389 . S
C1946 C1928 1.392 . S
C1947 C1918 1.392 . S
C1947 C1920 1.389 . S
C1948 C1923 1.395 . S
C1948 C1925 1.391 . S
H1949 C1909 0.951 . S
H1950 C1910 0.950 . S
H1951 C1916 0.949 . S
H1952 C1917 0.950 . S
H1953 C1921 0.951 . S
H1954 C1922 0.950 . S
H1955 C1926 0.949 . S
H1956 C1927 0.950 . S
H1957 C1931 0.950 . S
H1958 C1933 0.950 . S
H1959 C1936 0.950 . S
H1960 C1938 0.950 . S
C1961 C1962 1.443 . S
C1961 N1965 1.376 . S
C1961 C1999 1.389 . S
C1962 C1961 1.443 . S
C1962 C1963 1.340 . S
C1962 H2002 0.951 . S
C1963 C1962 1.340 . S
C1963 C1964 1.439 . S
C1963 H2003 0.950 . S
C1964 C1963 1.439 . S
C1964 N1965 1.374 . S
C1964 C1998 1.395 . S
N1965 C1961 1.376 . S
N1965 C1964 1.374 . S
N1965 Co1966 2.008 . S
Co1966 N1965 2.008 . S
Co1966 N1967 1.995 . S
Co1966 N1972 2.008 . S
Co1966 N1977 1.995 . S
Co1966 N1982 2.282 . S
Co1966 N1988 2.282 . S
N1967 Co1966 1.995 . S
N1967 C1968 1.376 . S
N1967 C1971 1.383 . S
C1968 N1967 1.376 . S
C1968 C1969 1.446 . S
C1968 C1998 1.391 . S
C1969 C1968 1.446 . S
C1969 C1970 1.339 . S
C1969 H2004 0.949 . S
C1970 C1969 1.339 . S
C1970 C1971 1.439 . S
C1970 H2005 0.950 . S
C1971 N1967 1.383 . S
C1971 C1970 1.439 . S
C1971 C2000 1.392 . S
N1972 Co1966 2.008 . S
N1972 C1973 1.376 . S
N1972 C1976 1.374 . S
C1973 N1972 1.376 . S
C1973 C1974 1.443 . S
C1973 C2000 1.389 . S
C1974 C1973 1.443 . S
C1974 C1975 1.340 . S
C1974 H2006 0.951 . S
C1975 C1974 1.340 . S
C1975 C1976 1.439 . S
C1975 H2007 0.950 . S
C1976 N1972 1.374 . S
C1976 C1975 1.439 . S
C1976 C2001 1.395 . S
N1977 Co1966 1.995 . S
N1977 C1978 1.376 . S
N1977 C1981 1.383 . S
C1978 N1977 1.376 . S
C1978 C1979 1.446 . S
C1978 C2001 1.391 . S
C1979 C1978 1.446 . S
C1979 C1980 1.339 . S
C1979 H2008 0.949 1_565 S
C1980 C1979 1.339 . S
C1980 C1981 1.439 . S
C1980 H2009 0.918 1_565 S
C1981 N1977 1.383 . S
C1981 C1980 1.439 . S
C1981 C1999 1.392 . S
N1982 Co1966 2.282 . S
N1982 C1985 1.332 . S
N1982 C1987 1.332 . S
C1983 C1984 1.386 . S
C1983 C1986 1.388 . S
C1984 C1983 1.386 . S
C1984 C1985 1.382 . S
C1984 H2010 0.950 . S
C1985 N1982 1.332 . S
C1985 C1984 1.382 . S
C1985 H1996 0.952 . S
C1986 C1983 1.388 . S
C1986 C1987 1.382 . S
C1986 H2011 0.950 . S
C1987 N1982 1.332 . S
C1987 C1986 1.382 . S
C1987 H1997 0.948 . S
N1988 Co1966 2.282 . S
N1988 C1992 1.332 . S
N1988 C1993 1.332 . S
C1989 C1990 1.388 . S
C1989 C1993 1.382 . S
C1989 H2012 0.950 . S
C1990 C1989 1.388 . S
C1990 C1991 1.386 . S
C1991 C1990 1.386 . S
C1991 C1992 1.382 . S
C1991 H2013 0.950 . S
C1992 N1988 1.332 . S
C1992 C1991 1.382 . S
C1992 H1994 0.952 . S
C1993 N1988 1.332 . S
C1993 C1989 1.382 . S
C1993 H1995 0.948 . S
H1994 C1992 0.952 . S
H1995 C1993 0.948 . S
H1996 C1985 0.952 . S
H1997 C1987 0.948 . S
C1998 C1964 1.395 . S
C1998 C1968 1.391 . S
C1999 C1961 1.389 . S
C1999 C1981 1.392 . S
C2000 C1971 1.392 . S
C2000 C1973 1.389 . S
C2001 C1976 1.395 . S
C2001 C1978 1.391 . S
H2002 C1962 0.951 . S
H2003 C1963 0.950 . S
H2004 C1969 0.949 . S
H2005 C1970 0.950 . S
H2006 C1974 0.951 . S
H2007 C1975 0.950 . S
H2008 C1979 0.949 1_545 S
H2009 C1980 0.918 1_545 S
H2010 C1984 0.950 . S
H2011 C1986 0.950 . S
H2012 C1989 0.950 . S
H2013 C1991 0.950 . S
C2014 C2015 1.443 . S
C2014 N2018 1.376 . S
C2014 C2052 1.389 . S
C2015 C2014 1.443 . S
C2015 C2016 1.340 . S
C2015 H2055 0.951 . S
C2016 C2015 1.340 . S
C2016 C2017 1.439 . S
C2016 H2056 0.950 . S
C2017 C2016 1.439 . S
C2017 N2018 1.374 . S
C2017 C2051 1.395 . S
N2018 C2014 1.376 . S
N2018 C2017 1.374 . S
N2018 Co2019 2.008 . S
Co2019 N2018 2.008 . S
Co2019 N2020 1.995 . S
Co2019 N2025 2.008 . S
Co2019 N2030 1.995 . S
Co2019 N2035 2.282 . S
Co2019 N2041 2.282 . S
N2020 Co2019 1.995 . S
N2020 C2021 1.376 . S
N2020 C2024 1.383 . S
C2021 N2020 1.376 . S
C2021 C2022 1.446 . S
C2021 C2051 1.391 . S
C2022 C2021 1.446 . S
C2022 C2023 1.339 . S
C2022 H2057 0.949 . S
C2023 C2022 1.339 . S
C2023 C2024 1.439 . S
C2023 H2058 0.950 . S
C2024 N2020 1.383 . S
C2024 C2023 1.439 . S
C2024 C2053 1.392 . S
N2025 Co2019 2.008 . S
N2025 C2026 1.376 . S
N2025 C2029 1.374 . S
C2026 N2025 1.376 . S
C2026 C2027 1.443 . S
C2026 C2053 1.389 . S
C2027 C2026 1.443 . S
C2027 C2028 1.340 . S
C2027 H2059 0.951 . S
C2028 C2027 1.340 . S
C2028 C2029 1.439 . S
C2028 H2060 0.950 . S
C2029 N2025 1.374 . S
C2029 C2028 1.439 . S
C2029 C2054 1.395 . S
N2030 Co2019 1.995 . S
N2030 C2031 1.376 . S
N2030 C2034 1.383 . S
C2031 N2030 1.376 . S
C2031 C2032 1.446 . S
C2031 C2054 1.391 . S
C2032 C2031 1.446 . S
C2032 C2033 1.339 . S
C2032 H2061 0.949 . S
C2033 C2032 1.339 . S
C2033 C2034 1.439 . S
C2033 H2062 0.950 . S
C2034 N2030 1.383 . S
C2034 C2033 1.439 . S
C2034 C2052 1.392 . S
N2035 Co2019 2.282 . S
N2035 C2038 1.332 . S
N2035 C2040 1.332 . S
C2036 C2037 1.386 . S
C2036 C2039 1.388 . S
C2037 C2036 1.386 . S
C2037 C2038 1.382 . S
C2037 H2063 0.950 . S
C2038 N2035 1.332 . S
C2038 C2037 1.382 . S
C2038 H2049 0.952 . S
C2039 C2036 1.388 . S
C2039 C2040 1.382 . S
C2039 H2064 0.950 . S
C2040 N2035 1.332 . S
C2040 C2039 1.382 . S
C2040 H2050 0.948 . S
N2041 Co2019 2.282 . S
N2041 C2045 1.332 . S
N2041 C2046 1.332 . S
C2042 C2043 1.388 . S
C2042 C2046 1.382 . S
C2042 H2065 0.950 . S
C2043 C2042 1.388 . S
C2043 C2044 1.386 . S
C2044 C2043 1.386 . S
C2044 C2045 1.382 . S
C2044 H2066 0.950 . S
C2045 N2041 1.332 . S
C2045 C2044 1.382 . S
C2045 H2047 0.952 . S
C2046 N2041 1.332 . S
C2046 C2042 1.382 . S
C2046 H2048 0.948 . S
H2047 C2045 0.952 . S
H2048 C2046 0.948 . S
H2049 C2038 0.952 . S
H2050 C2040 0.948 . S
C2051 C2017 1.395 . S
C2051 C2021 1.391 . S
C2052 C2014 1.389 . S
C2052 C2034 1.392 . S
C2053 C2024 1.392 . S
C2053 C2026 1.389 . S
C2054 C2029 1.395 . S
C2054 C2031 1.391 . S
H2055 C2015 0.951 . S
H2056 C2016 0.950 . S
H2057 C2022 0.949 . S
H2058 C2023 0.950 . S
H2059 C2027 0.951 . S
H2060 C2028 0.950 . S
H2061 C2032 0.949 . S
H2062 C2033 0.950 . S
H2063 C2037 0.950 . S
H2064 C2039 0.950 . S
H2065 C2042 0.950 . S
H2066 C2044 0.950 . S
C2067 C2068 1.443 . S
C2067 N2071 1.376 . S
C2067 C2105 1.389 . S
C2068 C2067 1.443 . S
C2068 C2069 1.340 . S
C2068 H2108 0.951 . S
C2069 C2068 1.340 . S
C2069 C2070 1.439 . S
C2069 H2109 0.950 . S
C2070 C2069 1.439 . S
C2070 N2071 1.374 . S
C2070 C2104 1.395 . S
N2071 C2067 1.376 . S
N2071 C2070 1.374 . S
N2071 Co2072 2.008 . S
Co2072 N2071 2.008 . S
Co2072 N2073 1.995 . S
Co2072 N2078 2.008 . S
Co2072 N2083 1.995 . S
Co2072 N2088 2.282 . S
Co2072 N2094 2.282 . S
N2073 Co2072 1.995 . S
N2073 C2074 1.376 . S
N2073 C2077 1.383 . S
C2074 N2073 1.376 . S
C2074 C2075 1.446 . S
C2074 C2104 1.391 . S
C2075 C2074 1.446 . S
C2075 C2076 1.339 . S
C2075 H2110 0.949 . S
C2076 C2075 1.339 . S
C2076 C2077 1.439 . S
C2076 H2111 0.950 . S
C2077 N2073 1.383 . S
C2077 C2076 1.439 . S
C2077 C2106 1.392 . S
N2078 Co2072 2.008 . S
N2078 C2079 1.376 . S
N2078 C2082 1.374 . S
C2079 N2078 1.376 . S
C2079 C2080 1.443 . S
C2079 C2106 1.389 . S
C2080 C2079 1.443 . S
C2080 C2081 1.340 . S
C2080 H2112 0.951 . S
C2081 C2080 1.340 . S
C2081 C2082 1.439 . S
C2081 H2113 0.950 . S
C2082 N2078 1.374 . S
C2082 C2081 1.439 . S
C2082 C2107 1.395 . S
N2083 Co2072 1.995 . S
N2083 C2084 1.376 . S
N2083 C2087 1.383 . S
C2084 N2083 1.376 . S
C2084 C2085 1.446 . S
C2084 C2107 1.391 . S
C2085 C2084 1.446 . S
C2085 C2086 1.339 . S
C2085 H2114 0.949 . S
C2086 C2085 1.339 . S
C2086 C2087 1.439 . S
C2086 H2115 0.950 . S
C2087 N2083 1.383 . S
C2087 C2086 1.439 . S
C2087 C2105 1.392 . S
N2088 Co2072 2.282 . S
N2088 C2091 1.332 . S
N2088 C2093 1.332 . S
C2089 C2090 1.386 . S
C2089 C2092 1.388 . S
C2090 C2089 1.386 . S
C2090 C2091 1.382 . S
C2090 H2116 0.950 . S
C2091 N2088 1.332 . S
C2091 C2090 1.382 . S
C2091 H2102 0.952 . S
C2092 C2089 1.388 . S
C2092 C2093 1.382 . S
C2092 H2117 0.950 . S
C2093 N2088 1.332 . S
C2093 C2092 1.382 . S
C2093 H2103 0.948 . S
N2094 Co2072 2.282 . S
N2094 C2098 1.332 . S
N2094 C2099 1.332 . S
C2095 C2096 1.388 . S
C2095 C2099 1.382 . S
C2095 H2118 0.950 . S
C2096 C2095 1.388 . S
C2096 C2097 1.386 . S
C2097 C2096 1.386 . S
C2097 C2098 1.382 . S
C2097 H2119 0.950 . S
C2098 N2094 1.332 . S
C2098 C2097 1.382 . S
C2098 H2100 0.952 . S
C2099 N2094 1.332 . S
C2099 C2095 1.382 . S
C2099 H2101 0.948 . S
H2100 C2098 0.952 . S
H2101 C2099 0.948 . S
H2102 C2091 0.952 . S
H2103 C2093 0.948 . S
C2104 C2070 1.395 . S
C2104 C2074 1.391 . S
C2105 C2067 1.389 . S
C2105 C2087 1.392 . S
C2106 C2077 1.392 . S
C2106 C2079 1.389 . S
C2107 C2082 1.395 . S
C2107 C2084 1.391 . S
H2108 C2068 0.951 . S
H2109 C2069 0.950 . S
H2110 C2075 0.949 . S
H2111 C2076 0.950 . S
H2112 C2080 0.951 . S
H2113 C2081 0.950 . S
H2114 C2085 0.949 . S
H2115 C2086 0.950 . S
H2116 C2090 0.950 . S
H2117 C2092 0.950 . S
H2118 C2095 0.950 . S
H2119 C2097 0.950 . S
C2120 C2121 1.443 . S
C2120 N2124 1.376 . S
C2120 C2158 1.389 . S
C2121 C2120 1.443 . S
C2121 C2122 1.340 . S
C2121 H2161 0.951 . S
C2122 C2121 1.340 . S
C2122 C2123 1.439 . S
C2122 H2162 0.950 . S
C2123 C2122 1.439 . S
C2123 N2124 1.374 . S
C2123 C2157 1.395 . S
N2124 C2120 1.376 . S
N2124 C2123 1.374 . S
N2124 Co2125 2.008 . S
Co2125 N2124 2.008 . S
Co2125 N2126 1.995 . S
Co2125 N2131 2.008 . S
Co2125 N2136 1.995 . S
Co2125 N2141 2.282 . S
Co2125 N2147 2.282 . S
N2126 Co2125 1.995 . S
N2126 C2127 1.376 . S
N2126 C2130 1.383 . S
C2127 N2126 1.376 . S
C2127 C2128 1.446 . S
C2127 C2157 1.391 . S
C2128 C2127 1.446 . S
C2128 C2129 1.339 . S
C2128 H2163 0.949 . S
C2129 C2128 1.339 . S
C2129 C2130 1.439 . S
C2129 H2164 0.950 . S
C2130 N2126 1.383 . S
C2130 C2129 1.439 . S
C2130 C2159 1.392 . S
N2131 Co2125 2.008 . S
N2131 C2132 1.376 . S
N2131 C2135 1.374 . S
C2132 N2131 1.376 . S
C2132 C2133 1.443 . S
C2132 C2159 1.389 . S
C2133 C2132 1.443 . S
C2133 C2134 1.340 . S
C2133 H2165 0.951 . S
C2134 C2133 1.340 . S
C2134 C2135 1.439 . S
C2134 H2166 0.950 . S
C2135 N2131 1.374 . S
C2135 C2134 1.439 . S
C2135 C2160 1.395 . S
N2136 Co2125 1.995 . S
N2136 C2137 1.376 . S
N2136 C2140 1.383 . S
C2137 N2136 1.376 . S
C2137 C2138 1.446 . S
C2137 C2160 1.391 . S
C2138 C2137 1.446 . S
C2138 C2139 1.339 . S
C2138 H2167 0.949 . S
C2139 C2138 1.339 . S
C2139 C2140 1.439 . S
C2139 H2168 0.950 . S
C2140 N2136 1.383 . S
C2140 C2139 1.439 . S
C2140 C2158 1.392 . S
N2141 Co2125 2.282 . S
N2141 C2144 1.332 . S
N2141 C2146 1.332 . S
C2142 C2143 1.386 . S
C2142 C2145 1.388 . S
C2143 C2142 1.386 . S
C2143 C2144 1.382 . S
C2143 H2169 0.950 . S
C2144 N2141 1.332 . S
C2144 C2143 1.382 . S
C2144 H2155 0.952 . S
C2145 C2142 1.388 . S
C2145 C2146 1.382 . S
C2145 H2170 0.950 . S
C2146 N2141 1.332 . S
C2146 C2145 1.382 . S
C2146 H2156 0.948 . S
N2147 Co2125 2.282 . S
N2147 C2151 1.332 . S
N2147 C2152 1.332 . S
C2148 C2149 1.388 . S
C2148 C2152 1.382 . S
C2148 H2171 0.950 . S
C2149 C2148 1.388 . S
C2149 C2150 1.386 . S
C2150 C2149 1.386 . S
C2150 C2151 1.382 . S
C2150 H2172 0.950 . S
C2151 N2147 1.332 . S
C2151 C2150 1.382 . S
C2151 H2153 0.952 . S
C2152 N2147 1.332 . S
C2152 C2148 1.382 . S
C2152 H2154 0.948 . S
H2153 C2151 0.952 . S
H2154 C2152 0.948 . S
H2155 C2144 0.952 . S
H2156 C2146 0.948 . S
C2157 C2123 1.395 . S
C2157 C2127 1.391 . S
C2158 C2120 1.389 . S
C2158 C2140 1.392 . S
C2159 C2130 1.392 . S
C2159 C2132 1.389 . S
C2160 C2135 1.395 . S
C2160 C2137 1.391 . S
H2161 C2121 0.951 . S
H2162 C2122 0.950 . S
H2163 C2128 0.949 . S
H2164 C2129 0.950 . S
H2165 C2133 0.951 . S
H2166 C2134 0.950 . S
H2167 C2138 0.949 . S
H2168 C2139 0.950 . S
H2169 C2143 0.950 . S
H2170 C2145 0.950 . S
H2171 C2148 0.950 . S
H2172 C2150 0.950 . S
C2173 C2174 1.443 . S
C2173 N2177 1.376 . S
C2173 C2211 1.389 . S
C2174 C2173 1.443 . S
C2174 C2175 1.340 . S
C2174 H2214 0.951 . S
C2175 C2174 1.340 . S
C2175 C2176 1.439 . S
C2175 H2215 0.950 . S
C2176 C2175 1.439 . S
C2176 N2177 1.374 . S
C2176 C2210 1.395 . S
N2177 C2173 1.376 . S
N2177 C2176 1.374 . S
N2177 Co2178 2.008 . S
Co2178 N2177 2.008 . S
Co2178 N2179 1.995 . S
Co2178 N2184 2.008 . S
Co2178 N2189 1.995 . S
Co2178 N2194 2.282 . S
Co2178 N2200 2.282 . S
N2179 Co2178 1.995 . S
N2179 C2180 1.376 . S
N2179 C2183 1.383 . S
C2180 N2179 1.376 . S
C2180 C2181 1.446 . S
C2180 C2210 1.391 . S
C2181 C2180 1.446 . S
C2181 C2182 1.339 . S
C2181 H2216 0.949 . S
C2182 C2181 1.339 . S
C2182 C2183 1.439 . S
C2182 H2217 0.950 . S
C2183 N2179 1.383 . S
C2183 C2182 1.439 . S
C2183 C2212 1.392 . S
N2184 Co2178 2.008 . S
N2184 C2185 1.376 . S
N2184 C2188 1.374 . S
C2185 N2184 1.376 . S
C2185 C2186 1.443 . S
C2185 C2212 1.389 . S
C2186 C2185 1.443 . S
C2186 C2187 1.340 . S
C2186 H2218 0.951 . S
C2187 C2186 1.340 . S
C2187 C2188 1.439 . S
C2187 H2219 0.950 . S
C2188 N2184 1.374 . S
C2188 C2187 1.439 . S
C2188 C2213 1.395 . S
N2189 Co2178 1.995 . S
N2189 C2190 1.376 . S
N2189 C2193 1.383 . S
C2190 N2189 1.376 . S
C2190 C2191 1.446 . S
C2190 C2213 1.391 . S
C2191 C2190 1.446 . S
C2191 C2192 1.339 . S
C2191 H2220 0.949 . S
C2192 C2191 1.339 . S
C2192 C2193 1.439 . S
C2192 H2221 0.950 . S
C2193 N2189 1.383 . S
C2193 C2192 1.439 . S
C2193 C2211 1.392 . S
N2194 Co2178 2.282 . S
N2194 C2197 1.332 . S
N2194 C2199 1.332 . S
C2195 C2196 1.386 . S
C2195 C2198 1.388 . S
C2196 C2195 1.386 . S
C2196 C2197 1.382 . S
C2196 H2222 0.950 . S
C2197 N2194 1.332 . S
C2197 C2196 1.382 . S
C2197 H2208 0.952 . S
C2198 C2195 1.388 . S
C2198 C2199 1.382 . S
C2198 H2223 0.950 . S
C2199 N2194 1.332 . S
C2199 C2198 1.382 . S
C2199 H2209 0.948 . S
N2200 Co2178 2.282 . S
N2200 C2204 1.332 . S
N2200 C2205 1.332 . S
C2201 C2202 1.388 . S
C2201 C2205 1.382 . S
C2201 H2224 0.950 . S
C2202 C2201 1.388 . S
C2202 C2203 1.386 . S
C2203 C2202 1.386 . S
C2203 C2204 1.382 . S
C2203 H2225 0.950 . S
C2204 N2200 1.332 . S
C2204 C2203 1.382 . S
C2204 H2206 0.952 . S
C2205 N2200 1.332 . S
C2205 C2201 1.382 . S
C2205 H2207 0.948 . S
H2206 C2204 0.952 . S
H2207 C2205 0.948 . S
H2208 C2197 0.952 . S
H2209 C2199 0.948 . S
C2210 C2176 1.395 . S
C2210 C2180 1.391 . S
C2211 C2173 1.389 . S
C2211 C2193 1.392 . S
C2212 C2183 1.392 . S
C2212 C2185 1.389 . S
C2213 C2188 1.395 . S
C2213 C2190 1.391 . S
H2214 C2174 0.951 . S
H2215 C2175 0.950 . S
H2216 C2181 0.949 . S
H2217 C2182 0.950 . S
H2218 C2186 0.951 . S
H2219 C2187 0.950 . S
H2220 C2191 0.949 . S
H2221 C2192 0.950 . S
H2222 C2196 0.950 . S
H2223 C2198 0.950 . S
H2224 C2201 0.950 . S
H2225 C2203 0.950 . S
C2226 C2227 1.443 . S
C2226 N2230 1.376 . S
C2226 C2264 1.389 . S
C2227 C2226 1.443 . S
C2227 C2228 1.340 . S
C2227 H2267 0.951 . S
C2228 C2227 1.340 . S
C2228 C2229 1.439 . S
C2228 H2268 0.950 . S
C2229 C2228 1.439 . S
C2229 N2230 1.374 . S
C2229 C2263 1.395 . S
N2230 C2226 1.376 . S
N2230 C2229 1.374 . S
N2230 Co2231 2.008 1_565 S
Co2231 N2230 2.008 1_545 S
Co2231 N2232 1.995 . S
Co2231 N2237 2.008 . S
Co2231 N2242 1.995 1_545 S
Co2231 N2247 2.282 1_545 S
Co2231 N2253 2.282 . S
N2232 Co2231 1.995 . S
N2232 C2233 1.376 . S
N2232 C2236 1.383 . S
C2233 N2232 1.376 . S
C2233 C2234 1.446 . S
C2233 C2263 1.391 1_545 S
C2234 C2233 1.446 . S
C2234 C2235 1.339 . S
C2234 H2269 0.949 . S
C2235 C2234 1.339 . S
C2235 C2236 1.439 . S
C2235 H2270 0.950 . S
C2236 N2232 1.383 . S
C2236 C2235 1.439 . S
C2236 C2265 1.392 . S
N2237 Co2231 2.008 . S
N2237 C2238 1.376 . S
N2237 C2241 1.374 . S
C2238 N2237 1.376 . S
C2238 C2239 1.443 . S
C2238 C2265 1.389 . S
C2239 C2238 1.443 . S
C2239 C2240 1.340 . S
C2239 H2271 0.951 . S
C2240 C2239 1.340 . S
C2240 C2241 1.439 . S
C2240 H2272 0.950 . S
C2241 N2237 1.374 . S
C2241 C2240 1.439 . S
C2241 C2266 1.395 . S
N2242 Co2231 1.995 1_565 S
N2242 C2243 1.376 1_565 S
N2242 C2246 1.383 . S
C2243 N2242 1.376 1_545 S
C2243 C2244 1.446 1_545 S
C2243 C2266 1.391 . S
C2244 C2243 1.446 1_565 S
C2244 C2245 1.339 . S
C2244 H2273 0.949 . S
C2245 C2244 1.339 . S
C2245 C2246 1.439 . S
C2245 H2274 0.950 . S
C2246 N2242 1.383 . S
C2246 C2245 1.439 . S
C2246 C2264 1.392 . S
N2247 Co2231 2.282 1_565 S
N2247 C2250 1.332 . S
N2247 C2252 1.332 . S
C2248 C2249 1.386 . S
C2248 C2251 1.388 . S
C2249 C2248 1.386 . S
C2249 C2250 1.382 . S
C2249 H2275 0.950 . S
C2250 N2247 1.332 . S
C2250 C2249 1.382 . S
C2250 H2261 0.952 . S
C2251 C2248 1.388 . S
C2251 C2252 1.382 . S
C2251 H2276 0.950 . S
C2252 N2247 1.332 . S
C2252 C2251 1.382 . S
C2252 H2262 0.948 . S
N2253 Co2231 2.282 . S
N2253 C2257 1.332 . S
N2253 C2258 1.332 . S
C2254 C2255 1.388 . S
C2254 C2258 1.382 . S
C2254 H2277 0.950 . S
C2255 C2254 1.388 . S
C2255 C2256 1.386 . S
C2256 C2255 1.386 . S
C2256 C2257 1.382 . S
C2256 H2278 0.950 . S
C2257 N2253 1.332 . S
C2257 C2256 1.382 . S
C2257 H2259 0.952 . S
C2258 N2253 1.332 . S
C2258 C2254 1.382 . S
C2258 H2260 0.948 . S
H2259 C2257 0.952 . S
H2260 C2258 0.948 . S
H2261 C2250 0.952 . S
H2262 C2252 0.948 . S
C2263 C2229 1.395 . S
C2263 C2233 1.391 1_565 S
C2264 C2226 1.389 . S
C2264 C2246 1.392 . S
C2265 C2236 1.392 . S
C2265 C2238 1.389 . S
C2266 C2241 1.395 . S
C2266 C2243 1.391 . S
H2267 C2227 0.951 . S
H2268 C2228 0.950 . S
H2269 C2234 0.949 . S
H2270 C2235 0.950 . S
H2271 C2239 0.951 . S
H2272 C2240 0.950 . S
H2273 C2244 0.949 . S
H2274 C2245 0.950 . S
H2275 C2249 0.950 . S
H2276 C2251 0.950 . S
H2277 C2254 0.950 . S
H2278 C2256 0.950 . S
C2279 C2280 1.443 . S
C2279 N2283 1.376 . S
C2279 C2317 1.389 . S
C2280 C2279 1.443 . S
C2280 C2281 1.340 . S
C2280 H2320 0.951 . S
C2281 C2280 1.340 . S
C2281 C2282 1.439 . S
C2281 H2321 0.950 . S
C2282 C2281 1.439 . S
C2282 N2283 1.374 . S
C2282 C2316 1.395 . S
N2283 C2279 1.376 . S
N2283 C2282 1.374 . S
N2283 Co2284 2.008 . S
Co2284 N2283 2.008 . S
Co2284 N2285 1.995 . S
Co2284 N2290 2.008 . S
Co2284 N2295 1.995 . S
Co2284 N2300 2.282 . S
Co2284 N2306 2.282 . S
N2285 Co2284 1.995 . S
N2285 C2286 1.376 . S
N2285 C2289 1.383 . S
C2286 N2285 1.376 . S
C2286 C2287 1.446 . S
C2286 C2316 1.391 . S
C2287 C2286 1.446 . S
C2287 C2288 1.339 . S
C2287 H2322 0.949 . S
C2288 C2287 1.339 . S
C2288 C2289 1.439 . S
C2288 H2323 0.950 . S
C2289 N2285 1.383 . S
C2289 C2288 1.439 . S
C2289 C2318 1.392 . S
N2290 Co2284 2.008 . S
N2290 C2291 1.376 . S
N2290 C2294 1.374 . S
C2291 N2290 1.376 . S
C2291 C2292 1.443 . S
C2291 C2318 1.389 . S
C2292 C2291 1.443 . S
C2292 C2293 1.340 . S
C2292 H2324 0.951 . S
C2293 C2292 1.340 . S
C2293 C2294 1.439 . S
C2293 H2325 0.950 . S
C2294 N2290 1.374 . S
C2294 C2293 1.439 . S
C2294 C2319 1.395 . S
N2295 Co2284 1.995 . S
N2295 C2296 1.376 . S
N2295 C2299 1.383 . S
C2296 N2295 1.376 . S
C2296 C2297 1.446 . S
C2296 C2319 1.391 . S
C2297 C2296 1.446 . S
C2297 C2298 1.339 . S
C2297 H2326 0.949 . S
C2298 C2297 1.339 . S
C2298 C2299 1.439 . S
C2298 H2327 0.950 . S
C2299 N2295 1.383 . S
C2299 C2298 1.439 . S
C2299 C2317 1.392 . S
N2300 Co2284 2.282 . S
N2300 C2303 1.332 . S
N2300 C2305 1.332 . S
C2301 C2302 1.386 . S
C2301 C2304 1.388 . S
C2302 C2301 1.386 . S
C2302 C2303 1.382 . S
C2302 H2328 0.950 . S
C2303 N2300 1.332 . S
C2303 C2302 1.382 . S
C2303 H2314 0.952 . S
C2304 C2301 1.388 . S
C2304 C2305 1.382 . S
C2304 H2329 0.950 . S
C2305 N2300 1.332 . S
C2305 C2304 1.382 . S
C2305 H2315 0.948 . S
N2306 Co2284 2.282 . S
N2306 C2310 1.332 . S
N2306 C2311 1.332 . S
C2307 C2308 1.388 . S
C2307 C2311 1.382 . S
C2307 H2330 0.950 . S
C2308 C2307 1.388 . S
C2308 C2309 1.386 . S
C2309 C2308 1.386 . S
C2309 C2310 1.382 . S
C2309 H2331 0.950 . S
C2310 N2306 1.332 . S
C2310 C2309 1.382 . S
C2310 H2312 0.952 . S
C2311 N2306 1.332 . S
C2311 C2307 1.382 . S
C2311 H2313 0.948 . S
H2312 C2310 0.952 . S
H2313 C2311 0.948 . S
H2314 C2303 0.952 . S
H2315 C2305 0.948 . S
C2316 C2282 1.395 . S
C2316 C2286 1.391 . S
C2317 C2279 1.389 . S
C2317 C2299 1.392 . S
C2318 C2289 1.392 . S
C2318 C2291 1.389 . S
C2319 C2294 1.395 . S
C2319 C2296 1.391 . S
H2320 C2280 0.951 . S
H2321 C2281 0.950 . S
H2322 C2287 0.949 . S
H2323 C2288 0.950 . S
H2324 C2292 0.951 . S
H2325 C2293 0.950 . S
H2326 C2297 0.949 . S
H2327 C2298 0.950 . S
H2328 C2302 0.950 . S
H2329 C2304 0.950 . S
H2330 C2307 0.950 . S
H2331 C2309 0.950 . S
C2332 C2333 1.443 . S
C2332 N2336 1.376 . S
C2332 C2370 1.389 . S
C2333 C2332 1.443 . S
C2333 C2334 1.340 . S
C2333 H2373 0.951 . S
C2334 C2333 1.340 . S
C2334 C2335 1.439 . S
C2334 H2374 0.950 . S
C2335 C2334 1.439 . S
C2335 N2336 1.374 . S
C2335 C2369 1.395 . S
N2336 C2332 1.376 . S
N2336 C2335 1.374 . S
N2336 Co2337 2.008 1_545 S
Co2337 N2336 2.008 1_565 S
Co2337 N2338 1.995 . S
Co2337 N2343 2.008 . S
Co2337 N2348 1.995 1_565 S
Co2337 N2353 2.282 1_565 S
Co2337 N2359 2.282 . S
N2338 Co2337 1.995 . S
N2338 C2339 1.376 . S
N2338 C2342 1.383 . S
C2339 N2338 1.376 . S
C2339 C2340 1.446 . S
C2339 C2369 1.391 1_565 S
C2340 C2339 1.446 . S
C2340 C2341 1.339 . S
C2340 H2375 0.949 . S
C2341 C2340 1.339 . S
C2341 C2342 1.439 . S
C2341 H2376 0.950 . S
C2342 N2338 1.383 . S
C2342 C2341 1.439 . S
C2342 C2371 1.392 . S
N2343 Co2337 2.008 . S
N2343 C2344 1.376 . S
N2343 C2347 1.374 . S
C2344 N2343 1.376 . S
C2344 C2345 1.443 . S
C2344 C2371 1.389 . S
C2345 C2344 1.443 . S
C2345 C2346 1.340 . S
C2345 H2377 0.951 . S
C2346 C2345 1.340 . S
C2346 C2347 1.439 . S
C2346 H2378 0.950 . S
C2347 N2343 1.374 . S
C2347 C2346 1.439 . S
C2347 C2372 1.395 . S
N2348 Co2337 1.995 1_545 S
N2348 C2349 1.376 1_545 S
N2348 C2352 1.383 . S
C2349 N2348 1.376 1_565 S
C2349 C2350 1.446 1_565 S
C2349 C2372 1.391 . S
C2350 C2349 1.446 1_545 S
C2350 C2351 1.339 . S
C2350 H2379 0.949 1_455 S
C2351 C2350 1.339 . S
C2351 C2352 1.439 . S
C2351 H2380 0.920 1_455 S
C2352 N2348 1.383 . S
C2352 C2351 1.439 . S
C2352 C2370 1.392 . S
N2353 Co2337 2.282 1_545 S
N2353 C2356 1.332 . S
N2353 C2358 1.332 . S
C2354 C2355 1.386 . S
C2354 C2357 1.388 . S
C2355 C2354 1.386 . S
C2355 C2356 1.382 . S
C2355 H2381 0.950 . S
C2356 N2353 1.332 . S
C2356 C2355 1.382 . S
C2356 H2367 0.952 . S
C2357 C2354 1.388 . S
C2357 C2358 1.382 . S
C2357 H2382 0.950 . S
C2358 N2353 1.332 . S
C2358 C2357 1.382 . S
C2358 H2368 0.948 . S
N2359 Co2337 2.282 . S
N2359 C2363 1.332 . S
N2359 C2364 1.332 . S
C2360 C2361 1.388 . S
C2360 C2364 1.382 . S
C2360 H2383 0.950 . S
C2361 C2360 1.388 . S
C2361 C2362 1.386 . S
C2362 C2361 1.386 . S
C2362 C2363 1.382 . S
C2362 H2384 0.950 . S
C2363 N2359 1.332 . S
C2363 C2362 1.382 . S
C2363 H2365 0.952 . S
C2364 N2359 1.332 . S
C2364 C2360 1.382 . S
C2364 H2366 0.948 . S
H2365 C2363 0.952 . S
H2366 C2364 0.948 . S
H2367 C2356 0.952 . S
H2368 C2358 0.948 . S
C2369 C2335 1.395 . S
C2369 C2339 1.391 1_545 S
C2370 C2332 1.389 . S
C2370 C2352 1.392 . S
C2371 C2342 1.392 . S
C2371 C2344 1.389 . S
C2372 C2347 1.395 . S
C2372 C2349 1.391 . S
H2373 C2333 0.951 . S
H2374 C2334 0.950 . S
H2375 C2340 0.949 . S
H2376 C2341 0.950 . S
H2377 C2345 0.951 . S
H2378 C2346 0.950 . S
H2379 C2350 0.949 1_655 S
H2380 C2351 0.920 1_655 S
H2381 C2355 0.950 . S
H2382 C2357 0.950 . S
H2383 C2360 0.950 . S
H2384 C2362 0.950 . S
C2385 C2386 1.443 . S
C2385 N2389 1.376 . S
C2385 C2423 1.389 . S
C2386 C2385 1.443 . S
C2386 C2387 1.340 . S
C2386 H2426 0.951 . S
C2387 C2386 1.340 . S
C2387 C2388 1.439 . S
C2387 H2427 0.950 . S
C2388 C2387 1.439 . S
C2388 N2389 1.374 . S
C2388 C2422 1.395 . S
N2389 C2385 1.376 . S
N2389 C2388 1.374 . S
N2389 Co2390 2.008 . S
Co2390 N2389 2.008 . S
Co2390 N2391 1.995 . S
Co2390 N2396 2.008 . S
Co2390 N2401 1.995 . S
Co2390 N2406 2.282 . S
Co2390 N2412 2.282 . S
N2391 Co2390 1.995 . S
N2391 C2392 1.376 . S
N2391 C2395 1.383 . S
C2392 N2391 1.376 . S
C2392 C2393 1.446 . S
C2392 C2422 1.391 . S
C2393 C2392 1.446 . S
C2393 C2394 1.339 . S
C2393 H2428 0.949 . S
C2394 C2393 1.339 . S
C2394 C2395 1.439 . S
C2394 H2429 0.950 . S
C2395 N2391 1.383 . S
C2395 C2394 1.439 . S
C2395 C2424 1.392 . S
N2396 Co2390 2.008 . S
N2396 C2397 1.376 . S
N2396 C2400 1.374 . S
C2397 N2396 1.376 . S
C2397 C2398 1.443 . S
C2397 C2424 1.389 . S
C2398 C2397 1.443 . S
C2398 C2399 1.340 . S
C2398 H2430 0.951 . S
C2399 C2398 1.340 . S
C2399 C2400 1.439 . S
C2399 H2431 0.950 . S
C2400 N2396 1.374 . S
C2400 C2399 1.439 . S
C2400 C2425 1.395 . S
N2401 Co2390 1.995 . S
N2401 C2402 1.376 . S
N2401 C2405 1.383 . S
C2402 N2401 1.376 . S
C2402 C2403 1.446 . S
C2402 C2425 1.391 . S
C2403 C2402 1.446 . S
C2403 C2404 1.339 . S
C2403 H2432 0.949 . S
C2404 C2403 1.339 . S
C2404 C2405 1.439 . S
C2404 H2433 0.950 . S
C2405 N2401 1.383 . S
C2405 C2404 1.439 . S
C2405 C2423 1.392 . S
N2406 Co2390 2.282 . S
N2406 C2409 1.332 . S
N2406 C2411 1.332 . S
C2407 C2408 1.386 . S
C2407 C2410 1.388 . S
C2408 C2407 1.386 . S
C2408 C2409 1.382 . S
C2408 H2434 0.950 . S
C2409 N2406 1.332 . S
C2409 C2408 1.382 . S
C2409 H2420 0.952 . S
C2410 C2407 1.388 . S
C2410 C2411 1.382 . S
C2410 H2435 0.950 . S
C2411 N2406 1.332 . S
C2411 C2410 1.382 . S
C2411 H2421 0.948 . S
N2412 Co2390 2.282 . S
N2412 C2416 1.332 . S
N2412 C2417 1.332 . S
C2413 C2414 1.388 . S
C2413 C2417 1.382 . S
C2413 H2436 0.950 . S
C2414 C2413 1.388 . S
C2414 C2415 1.386 . S
C2415 C2414 1.386 . S
C2415 C2416 1.382 . S
C2415 H2437 0.950 . S
C2416 N2412 1.332 . S
C2416 C2415 1.382 . S
C2416 H2418 0.952 . S
C2417 N2412 1.332 . S
C2417 C2413 1.382 . S
C2417 H2419 0.948 . S
H2418 C2416 0.952 . S
H2419 C2417 0.948 . S
H2420 C2409 0.952 . S
H2421 C2411 0.948 . S
C2422 C2388 1.395 . S
C2422 C2392 1.391 . S
C2423 C2385 1.389 . S
C2423 C2405 1.392 . S
C2424 C2395 1.392 . S
C2424 C2397 1.389 . S
C2425 C2400 1.395 . S
C2425 C2402 1.391 . S
H2426 C2386 0.951 . S
H2427 C2387 0.950 . S
H2428 C2393 0.949 . S
H2429 C2394 0.950 . S
H2430 C2398 0.951 . S
H2431 C2399 0.950 . S
H2432 C2403 0.949 . S
H2433 C2404 0.950 . S
H2434 C2408 0.950 . S
H2435 C2410 0.950 . S
H2436 C2413 0.950 . S
H2437 C2415 0.950 . S
C2438 C2439 1.443 . S
C2438 N2442 1.376 . S
C2438 C2476 1.389 . S
C2439 C2438 1.443 . S
C2439 C2440 1.340 . S
C2439 H2479 0.951 . S
C2440 C2439 1.340 . S
C2440 C2441 1.439 . S
C2440 H2480 0.950 . S
C2441 C2440 1.439 . S
C2441 N2442 1.374 . S
C2441 C2475 1.395 . S
N2442 C2438 1.376 . S
N2442 C2441 1.374 . S
N2442 Co2443 2.008 1_545 S
Co2443 N2442 2.008 1_565 S
Co2443 N2444 1.995 . S
Co2443 N2449 2.008 . S
Co2443 N2454 1.995 1_565 S
Co2443 N2459 2.282 1_565 S
Co2443 N2465 2.282 . S
N2444 Co2443 1.995 . S
N2444 C2445 1.376 . S
N2444 C2448 1.383 . S
C2445 N2444 1.376 . S
C2445 C2446 1.446 . S
C2445 C2475 1.391 1_565 S
C2446 C2445 1.446 . S
C2446 C2447 1.339 . S
C2446 H2481 0.949 . S
C2447 C2446 1.339 . S
C2447 C2448 1.439 . S
C2447 H2482 0.950 . S
C2448 N2444 1.383 . S
C2448 C2447 1.439 . S
C2448 C2477 1.392 . S
N2449 Co2443 2.008 . S
N2449 C2450 1.376 . S
N2449 C2453 1.374 . S
C2450 N2449 1.376 . S
C2450 C2451 1.443 . S
C2450 C2477 1.389 . S
C2451 C2450 1.443 . S
C2451 C2452 1.340 . S
C2451 H2483 0.951 . S
C2452 C2451 1.340 . S
C2452 C2453 1.439 . S
C2452 H2484 0.950 . S
C2453 N2449 1.374 . S
C2453 C2452 1.439 . S
C2453 C2478 1.395 . S
N2454 Co2443 1.995 1_545 S
N2454 C2455 1.376 1_545 S
N2454 C2458 1.383 . S
C2455 N2454 1.376 1_565 S
C2455 C2456 1.446 1_565 S
C2455 C2478 1.391 . S
C2456 C2455 1.446 1_545 S
C2456 C2457 1.339 . S
C2456 H2485 0.949 . S
C2457 C2456 1.339 . S
C2457 C2458 1.439 . S
C2457 H2486 0.950 . S
C2458 N2454 1.383 . S
C2458 C2457 1.439 . S
C2458 C2476 1.392 . S
N2459 Co2443 2.282 1_545 S
N2459 C2462 1.332 . S
N2459 C2464 1.332 . S
C2460 C2461 1.386 . S
C2460 C2463 1.388 . S
C2461 C2460 1.386 . S
C2461 C2462 1.382 . S
C2461 H2487 0.950 . S
C2462 N2459 1.332 . S
C2462 C2461 1.382 . S
C2462 H2473 0.952 . S
C2463 C2460 1.388 . S
C2463 C2464 1.382 . S
C2463 H2488 0.950 . S
C2464 N2459 1.332 . S
C2464 C2463 1.382 . S
C2464 H2474 0.948 . S
N2465 Co2443 2.282 . S
N2465 C2469 1.332 . S
N2465 C2470 1.332 . S
C2466 C2467 1.388 . S
C2466 C2470 1.382 . S
C2466 H2489 0.950 . S
C2467 C2466 1.388 . S
C2467 C2468 1.386 . S
C2468 C2467 1.386 . S
C2468 C2469 1.382 . S
C2468 H2490 0.950 . S
C2469 N2465 1.332 . S
C2469 C2468 1.382 . S
C2469 H2471 0.952 . S
C2470 N2465 1.332 . S
C2470 C2466 1.382 . S
C2470 H2472 0.948 . S
H2471 C2469 0.952 . S
H2472 C2470 0.948 . S
H2473 C2462 0.952 . S
H2474 C2464 0.948 . S
C2475 C2441 1.395 . S
C2475 C2445 1.391 1_545 S
C2476 C2438 1.389 . S
C2476 C2458 1.392 . S
C2477 C2448 1.392 . S
C2477 C2450 1.389 . S
C2478 C2453 1.395 . S
C2478 C2455 1.391 . S
H2479 C2439 0.951 . S
H2480 C2440 0.950 . S
H2481 C2446 0.949 . S
H2482 C2447 0.950 . S
H2483 C2451 0.951 . S
H2484 C2452 0.950 . S
H2485 C2456 0.949 . S
H2486 C2457 0.950 . S
H2487 C2461 0.950 . S
H2488 C2463 0.950 . S
H2489 C2466 0.950 . S
H2490 C2468 0.950 . S
C2491 C2492 1.443 . S
C2491 N2495 1.376 . S
C2491 C2529 1.389 . S
C2492 C2491 1.443 . S
C2492 C2493 1.340 . S
C2492 H2532 0.951 . S
C2493 C2492 1.340 . S
C2493 C2494 1.439 . S
C2493 H2533 0.950 . S
C2494 C2493 1.439 . S
C2494 N2495 1.374 . S
C2494 C2528 1.395 . S
N2495 C2491 1.376 . S
N2495 C2494 1.374 . S
N2495 Co2496 2.008 . S
Co2496 N2495 2.008 . S
Co2496 N2497 1.995 . S
Co2496 N2502 2.008 . S
Co2496 N2507 1.995 . S
Co2496 N2512 2.282 . S
Co2496 N2518 2.282 . S
N2497 Co2496 1.995 . S
N2497 C2498 1.376 . S
N2497 C2501 1.383 . S
C2498 N2497 1.376 . S
C2498 C2499 1.446 . S
C2498 C2528 1.391 . S
C2499 C2498 1.446 . S
C2499 C2500 1.339 . S
C2499 H2534 0.949 . S
C2500 C2499 1.339 . S
C2500 C2501 1.439 . S
C2500 H2535 0.950 . S
C2501 N2497 1.383 . S
C2501 C2500 1.439 . S
C2501 C2530 1.392 . S
N2502 Co2496 2.008 . S
N2502 C2503 1.376 . S
N2502 C2506 1.374 . S
C2503 N2502 1.376 . S
C2503 C2504 1.443 . S
C2503 C2530 1.389 . S
C2504 C2503 1.443 . S
C2504 C2505 1.340 . S
C2504 H2536 0.951 . S
C2505 C2504 1.340 . S
C2505 C2506 1.439 . S
C2505 H2537 0.950 . S
C2506 N2502 1.374 . S
C2506 C2505 1.439 . S
C2506 C2531 1.395 . S
N2507 Co2496 1.995 . S
N2507 C2508 1.376 . S
N2507 C2511 1.383 . S
C2508 N2507 1.376 . S
C2508 C2509 1.446 . S
C2508 C2531 1.391 . S
C2509 C2508 1.446 . S
C2509 C2510 1.339 . S
C2509 H2538 0.949 . S
C2510 C2509 1.339 . S
C2510 C2511 1.439 . S
C2510 H2539 0.950 . S
C2511 N2507 1.383 . S
C2511 C2510 1.439 . S
C2511 C2529 1.392 . S
N2512 Co2496 2.282 . S
N2512 C2515 1.332 . S
N2512 C2517 1.332 . S
C2513 C2514 1.386 . S
C2513 C2516 1.388 . S
C2514 C2513 1.386 . S
C2514 C2515 1.382 . S
C2514 H2540 0.950 . S
C2515 N2512 1.332 . S
C2515 C2514 1.382 . S
C2515 H2526 0.952 . S
C2516 C2513 1.388 . S
C2516 C2517 1.382 . S
C2516 H2541 0.950 . S
C2517 N2512 1.332 . S
C2517 C2516 1.382 . S
C2517 H2527 0.948 . S
N2518 Co2496 2.282 . S
N2518 C2522 1.332 . S
N2518 C2523 1.332 . S
C2519 C2520 1.388 . S
C2519 C2523 1.382 . S
C2519 H2542 0.950 . S
C2520 C2519 1.388 . S
C2520 C2521 1.386 . S
C2521 C2520 1.386 . S
C2521 C2522 1.382 . S
C2521 H2543 0.950 . S
C2522 N2518 1.332 . S
C2522 C2521 1.382 . S
C2522 H2524 0.952 . S
C2523 N2518 1.332 . S
C2523 C2519 1.382 . S
C2523 H2525 0.948 . S
H2524 C2522 0.952 . S
H2525 C2523 0.948 . S
H2526 C2515 0.952 . S
H2527 C2517 0.948 . S
C2528 C2494 1.395 . S
C2528 C2498 1.391 . S
C2529 C2491 1.389 . S
C2529 C2511 1.392 . S
C2530 C2501 1.392 . S
C2530 C2503 1.389 . S
C2531 C2506 1.395 . S
C2531 C2508 1.391 . S
H2532 C2492 0.951 . S
H2533 C2493 0.950 . S
H2534 C2499 0.949 . S
H2535 C2500 0.950 . S
H2536 C2504 0.951 . S
H2537 C2505 0.950 . S
H2538 C2509 0.949 . S
H2539 C2510 0.950 . S
H2540 C2514 0.950 . S
H2541 C2516 0.950 . S
H2542 C2519 0.950 . S
H2543 C2521 0.950 . S
C2544 C2545 1.387 . S
C2544 H2548 0.950 . S
C2544 C2553 1.390 . S
C2545 C2544 1.387 . S
C2545 C2547 1.387 . S
H2546 C2553 0.950 . S
C2547 C2545 1.387 . S
C2547 C2549 1.390 . S
C2547 H2551 0.950 . S
H2548 C2544 0.950 . S
C2549 C2547 1.390 . S
C2549 C2550 1.387 . S
C2549 H2552 0.950 . S
C2550 C2549 1.387 . S
C2550 C2553 1.387 . S
H2551 C2547 0.950 . S
H2552 C2549 0.950 . S
C2553 C2544 1.390 . S
C2553 H2546 0.950 . S
C2553 C2550 1.387 . S
C2554 C2555 1.387 . S
C2554 H2558 0.950 . S
C2554 C2563 1.390 1_554 S
C2555 C2554 1.387 . S
C2555 C2557 1.387 . S
H2556 C2563 0.950 . S
C2557 C2555 1.387 . S
C2557 C2559 1.390 1_554 S
C2557 H2561 0.950 . S
H2558 C2554 0.950 . S
C2559 C2557 1.390 1_556 S
C2559 C2560 1.387 . S
C2559 H2562 0.950 . S
C2560 C2559 1.387 . S
C2560 C2563 1.387 . S
H2561 C2557 0.950 . S
H2562 C2559 0.950 . S
C2563 C2554 1.390 1_556 S
C2563 H2556 0.950 . S
C2563 C2560 1.387 . S
C2564 C2565 1.387 . S
C2564 H2568 0.950 . S
C2564 C2573 1.390 . S
C2565 C2564 1.387 . S
C2565 C2567 1.387 . S
H2566 C2573 0.950 . S
C2567 C2565 1.387 . S
C2567 C2569 1.390 . S
C2567 H2571 0.950 . S
H2568 C2564 0.950 . S
C2569 C2567 1.390 . S
C2569 C2570 1.387 . S
C2569 H2572 0.950 . S
C2570 C2569 1.387 . S
C2570 C2573 1.387 . S
H2571 C2567 0.950 . S
H2572 C2569 0.950 . S
C2573 C2564 1.390 . S
C2573 H2566 0.950 . S
C2573 C2570 1.387 . S
C2574 C2575 1.387 . S
C2574 H2578 0.950 . S
C2574 C2583 1.390 1_556 S
C2575 C2574 1.387 . S
C2575 C2577 1.387 . S
H2576 C2583 0.950 . S
C2577 C2575 1.387 . S
C2577 C2579 1.390 1_556 S
C2577 H2581 0.950 . S
H2578 C2574 0.950 . S
C2579 C2577 1.390 1_554 S
C2579 C2580 1.387 . S
C2579 H2582 0.950 . S
C2580 C2579 1.387 . S
C2580 C2583 1.387 . S
H2581 C2577 0.950 . S
H2582 C2579 0.950 . S
C2583 C2574 1.390 1_554 S
C2583 H2576 0.950 . S
C2583 C2580 1.387 . S
C2584 C2585 1.387 . S
C2584 H2588 0.950 . S
C2584 C2593 1.390 . S
C2585 C2584 1.387 . S
C2585 C2587 1.387 . S
H2586 C2593 0.950 . S
C2587 C2585 1.387 . S
C2587 C2589 1.390 . S
C2587 H2591 0.950 . S
H2588 C2584 0.950 . S
C2589 C2587 1.390 . S
C2589 C2590 1.387 . S
C2589 H2592 0.950 . S
C2590 C2589 1.387 . S
C2590 C2593 1.387 . S
H2591 C2587 0.950 . S
H2592 C2589 0.950 . S
C2593 C2584 1.390 . S
C2593 H2586 0.950 . S
C2593 C2590 1.387 . S
C2594 C2595 1.387 . S
C2594 H2598 0.950 . S
C2594 C2603 1.390 1_554 S
C2595 C2594 1.387 . S
C2595 C2597 1.387 . S
H2596 C2603 0.950 . S
C2597 C2595 1.387 . S
C2597 C2599 1.390 1_554 S
C2597 H2601 0.950 . S
H2598 C2594 0.950 . S
C2599 C2597 1.390 1_556 S
C2599 C2600 1.387 . S
C2599 H2602 0.950 . S
C2600 C2599 1.387 . S
C2600 C2603 1.387 . S
H2601 C2597 0.950 . S
H2602 C2599 0.950 . S
C2603 C2594 1.390 1_556 S
C2603 H2596 0.950 . S
C2603 C2600 1.387 . S
C2604 C2605 1.387 . S
C2604 H2608 0.950 . S
C2604 C2613 1.390 . S
C2605 C2604 1.387 . S
C2605 C2607 1.387 . S
H2606 C2613 0.950 . S
C2607 C2605 1.387 . S
C2607 C2609 1.390 . S
C2607 H2611 0.950 . S
H2608 C2604 0.950 . S
C2609 C2607 1.390 . S
C2609 C2610 1.387 . S
C2609 H2612 0.950 . S
C2610 C2609 1.387 . S
C2610 C2613 1.387 . S
H2611 C2607 0.950 . S
H2612 C2609 0.950 . S
C2613 C2604 1.390 . S
C2613 H2606 0.950 . S
C2613 C2610 1.387 . S
C2614 C2615 1.387 . S
C2614 H2618 0.950 . S
C2614 C2623 1.390 1_556 S
C2615 C2614 1.387 . S
C2615 C2617 1.387 . S
H2616 C2623 0.950 . S
C2617 C2615 1.387 . S
C2617 C2619 1.390 1_556 S
C2617 H2621 0.950 . S
H2618 C2614 0.950 . S
C2619 C2617 1.390 1_554 S
C2619 C2620 1.387 . S
C2619 H2622 0.950 . S
C2620 C2619 1.387 . S
C2620 C2623 1.387 . S
H2621 C2617 0.950 . S
H2622 C2619 0.950 . S
C2623 C2614 1.390 1_554 S
C2623 H2616 0.950 . S
C2623 C2620 1.387 . S
C2624 C2625 1.387 . S
C2624 H2628 0.950 . S
C2624 C2633 1.390 . S
C2625 C2624 1.387 . S
C2625 C2627 1.387 . S
H2626 C2633 0.950 . S
C2627 C2625 1.387 . S
C2627 C2629 1.390 . S
C2627 H2631 0.950 . S
H2628 C2624 0.950 . S
C2629 C2627 1.390 . S
C2629 C2630 1.387 . S
C2629 H2632 0.950 . S
C2630 C2629 1.387 . S
C2630 C2633 1.387 . S
H2631 C2627 0.950 . S
H2632 C2629 0.950 . S
C2633 C2624 1.390 . S
C2633 H2626 0.950 . S
C2633 C2630 1.387 . S
C2634 C2635 1.387 . S
C2634 H2638 0.950 . S
C2634 C2643 1.390 . S
C2635 C2634 1.387 . S
C2635 C2637 1.387 . S
H2636 C2643 0.950 . S
C2637 C2635 1.387 . S
C2637 C2639 1.390 . S
C2637 H2641 0.950 . S
H2638 C2634 0.950 . S
C2639 C2637 1.390 . S
C2639 C2640 1.387 . S
C2639 H2642 0.950 . S
C2640 C2639 1.387 . S
C2640 C2643 1.387 . S
H2641 C2637 0.950 . S
H2642 C2639 0.950 . S
C2643 C2634 1.390 . S
C2643 H2636 0.950 . S
C2643 C2640 1.387 . S
C2644 C2645 1.387 . S
C2644 H2648 0.950 . S
C2644 C2653 1.390 . S
C2645 C2644 1.387 . S
C2645 C2647 1.387 . S
H2646 C2653 0.950 . S
C2647 C2645 1.387 . S
C2647 C2649 1.390 . S
C2647 H2651 0.950 . S
H2648 C2644 0.950 . S
C2649 C2647 1.390 . S
C2649 C2650 1.387 . S
C2649 H2652 0.950 . S
C2650 C2649 1.387 . S
C2650 C2653 1.387 . S
H2651 C2647 0.950 . S
H2652 C2649 0.950 . S
C2653 C2644 1.390 . S
C2653 H2646 0.950 . S
C2653 C2650 1.387 . S
C2654 C2655 1.387 . S
C2654 H2658 0.950 . S
C2654 C2663 1.390 1_565 S
C2655 C2654 1.387 . S
C2655 C2657 1.387 . S
H2656 C2663 0.950 . S
C2657 C2655 1.387 . S
C2657 C2659 1.390 1_565 S
C2657 H2661 0.950 . S
H2658 C2654 0.950 . S
C2659 C2657 1.390 1_545 S
C2659 C2660 1.387 . S
C2659 H2662 0.950 . S
C2660 C2659 1.387 . S
C2660 C2663 1.387 . S
H2661 C2657 0.950 . S
H2662 C2659 0.950 . S
C2663 C2654 1.390 1_545 S
C2663 H2656 0.950 . S
C2663 C2660 1.387 . S
C2664 C2665 1.387 . S
C2664 H2668 0.950 . S
C2664 C2673 1.390 . S
C2665 C2664 1.387 . S
C2665 C2667 1.387 . S
H2666 C2673 0.950 . S
C2667 C2665 1.387 . S
C2667 C2669 1.390 . S
C2667 H2671 0.950 . S
H2668 C2664 0.950 . S
C2669 C2667 1.390 . S
C2669 C2670 1.387 . S
C2669 H2672 0.950 . S
C2670 C2669 1.387 . S
C2670 C2673 1.387 . S
H2671 C2667 0.950 . S
H2672 C2669 0.950 . S
C2673 C2664 1.390 . S
C2673 H2666 0.950 . S
C2673 C2670 1.387 . S
C2674 C2675 1.387 . S
C2674 H2678 0.950 . S
C2674 C2683 1.390 . S
C2675 C2674 1.387 . S
C2675 C2677 1.387 . S
H2676 C2683 0.950 . S
C2677 C2675 1.387 . S
C2677 C2679 1.390 . S
C2677 H2681 0.950 . S
H2678 C2674 0.950 . S
C2679 C2677 1.390 . S
C2679 C2680 1.387 . S
C2679 H2682 0.950 . S
C2680 C2679 1.387 . S
C2680 C2683 1.387 . S
H2681 C2677 0.950 . S
H2682 C2679 0.950 . S
C2683 C2674 1.390 . S
C2683 H2676 0.950 . S
C2683 C2680 1.387 . S
C2684 C2685 1.387 . S
C2684 H2688 0.950 . S
C2684 C2693 1.390 . S
C2685 C2684 1.387 . S
C2685 C2687 1.387 . S
H2686 C2693 0.950 . S
C2687 C2685 1.387 . S
C2687 C2689 1.390 . S
C2687 H2691 0.950 . S
H2688 C2684 0.950 . S
C2689 C2687 1.390 . S
C2689 C2690 1.387 . S
C2689 H2692 0.950 . S
C2690 C2689 1.387 . S
C2690 C2693 1.387 . S
H2691 C2687 0.950 . S
H2692 C2689 0.950 . S
C2693 C2684 1.390 . S
C2693 H2686 0.950 . S
C2693 C2690 1.387 . S
C2694 C2695 1.387 . S
C2694 H2698 0.950 . S
C2694 C2703 1.390 1_545 S
C2695 C2694 1.387 . S
C2695 C2697 1.387 . S
H2696 C2703 0.950 . S
C2697 C2695 1.387 . S
C2697 C2699 1.390 1_545 S
C2697 H2701 0.950 . S
H2698 C2694 0.950 . S
C2699 C2697 1.390 1_565 S
C2699 C2700 1.387 . S
C2699 H2702 0.950 . S
C2700 C2699 1.387 . S
C2700 C2703 1.387 . S
H2701 C2697 0.950 . S
H2702 C2699 0.950 . S
C2703 C2694 1.390 1_565 S
C2703 H2696 0.950 . S
C2703 C2700 1.387 . S
C2704 C2705 1.387 . S
C2704 H2708 0.950 . S
C2704 C2713 1.390 . S
C2705 C2704 1.387 . S
C2705 C2707 1.387 . S
H2706 C2713 0.950 . S
C2707 C2705 1.387 . S
C2707 C2709 1.390 . S
C2707 H2711 0.950 . S
H2708 C2704 0.950 . S
C2709 C2707 1.390 . S
C2709 C2710 1.387 . S
C2709 H2712 0.950 . S
C2710 C2709 1.387 . S
C2710 C2713 1.387 . S
H2711 C2707 0.950 . S
H2712 C2709 0.950 . S
C2713 C2704 1.390 . S
C2713 H2706 0.950 . S
C2713 C2710 1.387 . S
C2714 C2715 1.387 . S
C2714 H2718 0.950 . S
C2714 C2723 1.390 . S
C2715 C2714 1.387 . S
C2715 C2717 1.387 . S
H2716 C2723 0.950 . S
C2717 C2715 1.387 . S
C2717 C2719 1.390 . S
C2717 H2721 0.950 . S
H2718 C2714 0.950 . S
C2719 C2717 1.390 . S
C2719 C2720 1.387 . S
C2719 H2722 0.950 . S
C2720 C2719 1.387 . S
C2720 C2723 1.387 . S
H2721 C2717 0.950 . S
H2722 C2719 0.950 . S
C2723 C2714 1.390 . S
C2723 H2716 0.950 . S
C2723 C2720 1.387 . S
C2724 C2725 1.387 . S
C2724 H2728 0.950 . S
C2724 C2733 1.390 1_655 S
C2725 C2724 1.387 . S
C2725 C2727 1.387 . S
H2726 C2733 0.950 . S
C2727 C2725 1.387 . S
C2727 C2729 1.390 1_655 S
C2727 H2731 0.950 . S
H2728 C2724 0.950 . S
C2729 C2727 1.390 1_455 S
C2729 C2730 1.387 . S
C2729 H2732 0.950 . S
C2730 C2729 1.387 . S
C2730 C2733 1.387 . S
H2731 C2727 0.950 . S
H2732 C2729 0.950 . S
C2733 C2724 1.390 1_455 S
C2733 H2726 0.950 . S
C2733 C2730 1.387 . S
C2734 C2735 1.387 . S
C2734 H2738 0.950 . S
C2734 C2743 1.390 . S
C2735 C2734 1.387 . S
C2735 C2737 1.387 . S
H2736 C2743 0.950 . S
C2737 C2735 1.387 . S
C2737 C2739 1.390 . S
C2737 H2741 0.950 . S
H2738 C2734 0.950 . S
C2739 C2737 1.390 . S
C2739 C2740 1.387 . S
C2739 H2742 0.950 . S
C2740 C2739 1.387 . S
C2740 C2743 1.387 . S
H2741 C2737 0.950 . S
H2742 C2739 0.950 . S
C2743 C2734 1.390 . S
C2743 H2736 0.950 . S
C2743 C2740 1.387 . S
C2744 C2745 1.387 . S
C2744 H2748 0.950 . S
C2744 C2753 1.390 . S
C2745 C2744 1.387 . S
C2745 C2747 1.387 . S
H2746 C2753 0.950 . S
C2747 C2745 1.387 . S
C2747 C2749 1.390 . S
C2747 H2751 0.950 . S
H2748 C2744 0.950 . S
C2749 C2747 1.390 . S
C2749 C2750 1.387 . S
C2749 H2752 0.950 . S
C2750 C2749 1.387 . S
C2750 C2753 1.387 . S
H2751 C2747 0.950 . S
H2752 C2749 0.950 . S
C2753 C2744 1.390 . S
C2753 H2746 0.950 . S
C2753 C2750 1.387 . S
C2754 C2755 1.387 . S
C2754 H2758 0.950 . S
C2754 C2763 1.390 . S
C2755 C2754 1.387 . S
C2755 C2757 1.387 . S
H2756 C2763 0.950 . S
C2757 C2755 1.387 . S
C2757 C2759 1.390 . S
C2757 H2761 0.950 . S
H2758 C2754 0.950 . S
C2759 C2757 1.390 . S
C2759 C2760 1.387 . S
C2759 H2762 0.950 . S
C2760 C2759 1.387 . S
C2760 C2763 1.387 . S
H2761 C2757 0.950 . S
H2762 C2759 0.950 . S
C2763 C2754 1.390 . S
C2763 H2756 0.950 . S
C2763 C2760 1.387 . S
C2764 C2765 1.387 . S
C2764 H2768 0.950 . S
C2764 C2773 1.390 1_455 S
C2765 C2764 1.387 . S
C2765 C2767 1.387 . S
H2766 C2773 0.950 . S
C2767 C2765 1.387 . S
C2767 C2769 1.390 1_455 S
C2767 H2771 0.950 . S
H2768 C2764 0.950 . S
C2769 C2767 1.390 1_655 S
C2769 C2770 1.387 . S
C2769 H2772 0.950 . S
C2770 C2769 1.387 . S
C2770 C2773 1.387 . S
H2771 C2767 0.950 . S
H2772 C2769 0.950 . S
C2773 C2764 1.390 1_655 S
C2773 H2766 0.950 . S
C2773 C2770 1.387 . S
C2774 C2775 1.387 . S
C2774 H2778 0.950 . S
C2774 C2783 1.390 1_655 S
C2775 C2774 1.387 . S
C2775 C2777 1.387 . S
H2776 C2783 0.950 . S
C2777 C2775 1.387 . S
C2777 C2779 1.390 1_655 S
C2777 H2781 0.950 . S
H2778 C2774 0.950 . S
C2779 C2777 1.390 1_455 S
C2779 C2780 1.387 . S
C2779 H2782 0.950 . S
C2780 C2779 1.387 . S
C2780 C2783 1.387 . S
H2781 C2777 0.950 . S
H2782 C2779 0.950 . S
C2783 C2774 1.390 1_455 S
C2783 H2776 0.950 . S
C2783 C2780 1.387 . S
C2784 C2785 1.387 . S
C2784 H2788 0.950 . S
C2784 C2793 1.390 . S
C2785 C2784 1.387 . S
C2785 C2787 1.387 . S
H2786 C2793 0.950 . S
C2787 C2785 1.387 . S
C2787 C2789 1.390 . S
C2787 H2791 0.950 . S
H2788 C2784 0.950 . S
C2789 C2787 1.390 . S
C2789 C2790 1.387 . S
C2789 H2792 0.950 . S
C2790 C2789 1.387 . S
C2790 C2793 1.387 . S
H2791 C2787 0.950 . S
H2792 C2789 0.950 . S
C2793 C2784 1.390 . S
C2793 H2786 0.950 . S
C2793 C2790 1.387 . S
C2794 C2795 1.387 . S
C2794 H2798 0.950 . S
C2794 C2803 1.390 . S
C2795 C2794 1.387 . S
C2795 C2797 1.387 . S
H2796 C2803 0.950 . S
C2797 C2795 1.387 . S
C2797 C2799 1.390 . S
C2797 H2801 0.950 . S
H2798 C2794 0.950 . S
C2799 C2797 1.390 . S
C2799 C2800 1.387 . S
C2799 H2802 0.950 . S
C2800 C2799 1.387 . S
C2800 C2803 1.387 . S
H2801 C2797 0.950 . S
H2802 C2799 0.950 . S
C2803 C2794 1.390 . S
C2803 H2796 0.950 . S
C2803 C2800 1.387 . S
C2804 C2805 1.387 . S
C2804 H2808 0.950 . S
C2804 C2813 1.390 . S
C2805 C2804 1.387 . S
C2805 C2807 1.387 . S
H2806 C2813 0.950 . S
C2807 C2805 1.387 . S
C2807 C2809 1.390 . S
C2807 H2811 0.950 . S
H2808 C2804 0.950 . S
C2809 C2807 1.390 . S
C2809 C2810 1.387 . S
C2809 H2812 0.950 . S
C2810 C2809 1.387 . S
C2810 C2813 1.387 . S
H2811 C2807 0.950 . S
H2812 C2809 0.950 . S
C2813 C2804 1.390 . S
C2813 H2806 0.950 . S
C2813 C2810 1.387 . S
C2814 C2815 1.387 . S
C2814 H2818 0.950 . S
C2814 C2823 1.390 . S
C2815 C2814 1.387 . S
C2815 C2817 1.387 . S
H2816 C2823 0.950 . S
C2817 C2815 1.387 . S
C2817 C2819 1.390 . S
C2817 H2821 0.950 . S
H2818 C2814 0.950 . S
C2819 C2817 1.390 . S
C2819 C2820 1.387 . S
C2819 H2822 0.950 . S
C2820 C2819 1.387 . S
C2820 C2823 1.387 . S
H2821 C2817 0.950 . S
H2822 C2819 0.950 . S
C2823 C2814 1.390 . S
C2823 H2816 0.950 . S
C2823 C2820 1.387 . S
C2824 C2825 1.387 . S
C2824 H2828 0.950 . S
C2824 C2833 1.390 . S
C2825 C2824 1.387 . S
C2825 C2827 1.387 . S
H2826 C2833 0.950 . S
C2827 C2825 1.387 . S
C2827 C2829 1.390 . S
C2827 H2831 0.950 . S
H2828 C2824 0.950 . S
C2829 C2827 1.390 . S
C2829 C2830 1.387 . S
C2829 H2832 0.950 . S
C2830 C2829 1.387 . S
C2830 C2833 1.387 . S
H2831 C2827 0.950 . S
H2832 C2829 0.950 . S
C2833 C2824 1.390 . S
C2833 H2826 0.950 . S
C2833 C2830 1.387 . S
C2834 C2835 1.387 . S
C2834 H2838 0.950 . S
C2834 C2843 1.390 . S
C2835 C2834 1.387 . S
C2835 C2837 1.387 . S
H2836 C2843 0.950 . S
C2837 C2835 1.387 . S
C2837 C2839 1.390 . S
C2837 H2841 0.950 . S
H2838 C2834 0.950 . S
C2839 C2837 1.390 . S
C2839 C2840 1.387 . S
C2839 H2842 0.950 . S
C2840 C2839 1.387 . S
C2840 C2843 1.387 . S
H2841 C2837 0.950 . S
H2842 C2839 0.950 . S
C2843 C2834 1.390 . S
C2843 H2836 0.950 . S
C2843 C2840 1.387 . S
C2844 C2845 1.387 . S
C2844 H2848 0.950 . S
C2844 C2853 1.390 . S
C2845 C2844 1.387 . S
C2845 C2847 1.387 . S
H2846 C2853 0.950 . S
C2847 C2845 1.387 . S
C2847 C2849 1.390 . S
C2847 H2851 0.950 . S
H2848 C2844 0.950 . S
C2849 C2847 1.390 . S
C2849 C2850 1.387 . S
C2849 H2852 0.950 . S
C2850 C2849 1.387 . S
C2850 C2853 1.387 . S
H2851 C2847 0.950 . S
H2852 C2849 0.950 . S
C2853 C2844 1.390 . S
C2853 H2846 0.950 . S
C2853 C2850 1.387 . S
C2854 C2855 1.387 . S
C2854 H2858 0.950 . S
C2854 C2863 1.390 . S
C2855 C2854 1.387 . S
C2855 C2857 1.387 . S
H2856 C2863 0.950 . S
C2857 C2855 1.387 . S
C2857 C2859 1.390 . S
C2857 H2861 0.950 . S
H2858 C2854 0.950 . S
C2859 C2857 1.390 . S
C2859 C2860 1.387 . S
C2859 H2862 0.950 . S
C2860 C2859 1.387 . S
C2860 C2863 1.387 . S
H2861 C2857 0.950 . S
H2862 C2859 0.950 . S
C2863 C2854 1.390 . S
C2863 H2856 0.950 . S
C2863 C2860 1.387 . S
C2864 C2865 1.387 . S
C2864 H2868 0.950 . S
C2864 C2873 1.390 . S
C2865 C2864 1.387 . S
C2865 C2867 1.387 . S
H2866 C2873 0.950 . S
C2867 C2865 1.387 . S
C2867 C2869 1.390 . S
C2867 H2871 0.950 . S
H2868 C2864 0.950 . S
C2869 C2867 1.390 . S
C2869 C2870 1.387 . S
C2869 H2872 0.950 . S
C2870 C2869 1.387 . S
C2870 C2873 1.387 . S
H2871 C2867 0.950 . S
H2872 C2869 0.950 . S
C2873 C2864 1.390 . S
C2873 H2866 0.950 . S
C2873 C2870 1.387 . S
C2874 C2875 1.387 . S
C2874 H2878 0.950 . S
C2874 C2883 1.390 1_565 S
C2875 C2874 1.387 . S
C2875 C2877 1.387 . S
H2876 C2883 0.950 . S
C2877 C2875 1.387 . S
C2877 C2879 1.390 1_565 S
C2877 H2881 0.950 . S
H2878 C2874 0.950 . S
C2879 C2877 1.390 1_545 S
C2879 C2880 1.387 . S
C2879 H2882 0.950 . S
C2880 C2879 1.387 . S
C2880 C2883 1.387 . S
H2881 C2877 0.950 . S
H2882 C2879 0.950 . S
C2883 C2874 1.390 1_545 S
C2883 H2876 0.950 . S
C2883 C2880 1.387 . S
C2884 C2885 1.387 . S
C2884 H2888 0.950 . S
C2884 C2893 1.390 . S
C2885 C2884 1.387 . S
C2885 C2887 1.387 . S
H2886 C2893 0.950 . S
C2887 C2885 1.387 . S
C2887 C2889 1.390 . S
C2887 H2891 0.950 . S
H2888 C2884 0.950 . S
C2889 C2887 1.390 . S
C2889 C2890 1.387 . S
C2889 H2892 0.950 . S
C2890 C2889 1.387 . S
C2890 C2893 1.387 . S
H2891 C2887 0.950 . S
H2892 C2889 0.950 . S
C2893 C2884 1.390 . S
C2893 H2886 0.950 . S
C2893 C2890 1.387 . S
C2894 C2895 1.387 . S
C2894 H2898 0.950 . S
C2894 C2903 1.390 . S
C2895 C2894 1.387 . S
C2895 C2897 1.387 . S
H2896 C2903 0.950 . S
C2897 C2895 1.387 . S
C2897 C2899 1.390 . S
C2897 H2901 0.950 . S
H2898 C2894 0.950 . S
C2899 C2897 1.390 . S
C2899 C2900 1.387 . S
C2899 H2902 0.950 . S
C2900 C2899 1.387 . S
C2900 C2903 1.387 . S
H2901 C2897 0.950 . S
H2902 C2899 0.950 . S
C2903 C2894 1.390 . S
C2903 H2896 0.950 . S
C2903 C2900 1.387 . S
C2904 C2905 1.387 . S
C2904 H2908 0.950 . S
C2904 C2913 1.390 . S
C2905 C2904 1.387 . S
C2905 C2907 1.387 . S
H2906 C2913 0.950 . S
C2907 C2905 1.387 . S
C2907 C2909 1.390 . S
C2907 H2911 0.950 . S
H2908 C2904 0.950 . S
C2909 C2907 1.390 . S
C2909 C2910 1.387 . S
C2909 H2912 0.950 . S
C2910 C2909 1.387 . S
C2910 C2913 1.387 . S
H2911 C2907 0.950 . S
H2912 C2909 0.950 . S
C2913 C2904 1.390 . S
C2913 H2906 0.950 . S
C2913 C2910 1.387 . S
C2914 C2915 1.387 . S
C2914 H2918 0.950 . S
C2914 C2923 1.390 1_565 S
C2915 C2914 1.387 . S
C2915 C2917 1.387 . S
H2916 C2923 0.950 . S
C2917 C2915 1.387 . S
C2917 C2919 1.390 1_565 S
C2917 H2921 0.950 . S
H2918 C2914 0.950 . S
C2919 C2917 1.390 1_545 S
C2919 C2920 1.387 . S
C2919 H2922 0.950 . S
C2920 C2919 1.387 . S
C2920 C2923 1.387 . S
H2921 C2917 0.950 . S
H2922 C2919 0.950 . S
C2923 C2914 1.390 1_545 S
C2923 H2916 0.950 . S
C2923 C2920 1.387 . S
C2924 C2925 1.387 . S
C2924 H2928 0.950 . S
C2924 C2933 1.390 . S
C2925 C2924 1.387 . S
C2925 C2927 1.387 . S
H2926 C2933 0.950 . S
C2927 C2925 1.387 . S
C2927 C2929 1.390 . S
C2927 H2931 0.950 . S
H2928 C2924 0.950 . S
C2929 C2927 1.390 . S
C2929 C2930 1.387 . S
C2929 H2932 0.950 . S
C2930 C2929 1.387 . S
C2930 C2933 1.387 . S
H2931 C2927 0.950 . S
H2932 C2929 0.950 . S
C2933 C2924 1.390 . S
C2933 H2926 0.950 . S
C2933 C2930 1.387 . S
C2934 C2935 1.387 . S
C2934 H2938 0.950 . S
C2934 C2943 1.390 . S
C2935 C2934 1.387 . S
C2935 C2937 1.387 . S
H2936 C2943 0.950 . S
C2937 C2935 1.387 . S
C2937 C2939 1.390 . S
C2937 H2941 0.950 . S
H2938 C2934 0.950 . S
C2939 C2937 1.390 . S
C2939 C2940 1.387 . S
C2939 H2942 0.950 . S
C2940 C2939 1.387 . S
C2940 C2943 1.387 . S
H2941 C2937 0.950 . S
H2942 C2939 0.950 . S
C2943 C2934 1.390 . S
C2943 H2936 0.950 . S
C2943 C2940 1.387 . S
C2944 C2945 1.387 . S
C2944 H2948 0.950 . S
C2944 C2953 1.390 . S
C2945 C2944 1.387 . S
C2945 C2947 1.387 . S
H2946 C2953 0.950 . S
C2947 C2945 1.387 . S
C2947 C2949 1.390 . S
C2947 H2951 0.950 . S
H2948 C2944 0.950 . S
C2949 C2947 1.390 . S
C2949 C2950 1.387 . S
C2949 H2952 0.950 . S
C2950 C2949 1.387 . S
C2950 C2953 1.387 . S
H2951 C2947 0.950 . S
H2952 C2949 0.950 . S
C2953 C2944 1.390 . S
C2953 H2946 0.950 . S
C2953 C2950 1.387 . S
C2954 C2955 1.387 . S
C2954 H2958 0.950 . S
C2954 C2963 1.390 . S
C2955 C2954 1.387 . S
C2955 C2957 1.387 . S
H2956 C2963 0.950 . S
C2957 C2955 1.387 . S
C2957 C2959 1.390 . S
C2957 H2961 0.950 . S
H2958 C2954 0.950 . S
C2959 C2957 1.390 . S
C2959 C2960 1.387 . S
C2959 H2962 0.950 . S
C2960 C2959 1.387 . S
C2960 C2963 1.387 . S
H2961 C2957 0.950 . S
H2962 C2959 0.950 . S
C2963 C2954 1.390 . S
C2963 H2956 0.950 . S
C2963 C2960 1.387 . S
C2964 C2965 1.387 . S
C2964 H2968 0.950 . S
C2964 C2973 1.390 . S
C2965 C2964 1.387 . S
C2965 C2967 1.387 . S
H2966 C2973 0.950 . S
C2967 C2965 1.387 . S
C2967 C2969 1.390 . S
C2967 H2971 0.950 . S
H2968 C2964 0.950 . S
C2969 C2967 1.390 . S
C2969 C2970 1.387 . S
C2969 H2972 0.950 . S
C2970 C2969 1.387 . S
C2970 C2973 1.387 . S
H2971 C2967 0.950 . S
H2972 C2969 0.950 . S
C2973 C2964 1.390 . S
C2973 H2966 0.950 . S
C2973 C2970 1.387 . S
C2974 C2975 1.387 . S
C2974 H2978 0.950 . S
C2974 C2983 1.390 . S
C2975 C2974 1.387 . S
C2975 C2977 1.387 . S
H2976 C2983 0.950 . S
C2977 C2975 1.387 . S
C2977 C2979 1.390 . S
C2977 H2981 0.950 . S
H2978 C2974 0.950 . S
C2979 C2977 1.390 . S
C2979 C2980 1.387 . S
C2979 H2982 0.950 . S
C2980 C2979 1.387 . S
C2980 C2983 1.387 . S
H2981 C2977 0.950 . S
H2982 C2979 0.950 . S
C2983 C2974 1.390 . S
C2983 H2976 0.950 . S
C2983 C2980 1.387 . S
C2984 C2985 1.387 . S
C2984 H2988 0.950 . S
C2984 C2993 1.390 1_455 S
C2985 C2984 1.387 . S
C2985 C2987 1.387 . S
H2986 C2993 0.950 . S
C2987 C2985 1.387 . S
C2987 C2989 1.390 1_455 S
C2987 H2991 0.950 . S
H2988 C2984 0.950 . S
C2989 C2987 1.390 1_655 S
C2989 C2990 1.387 . S
C2989 H2992 0.950 . S
C2990 C2989 1.387 . S
C2990 C2993 1.387 . S
H2991 C2987 0.950 . S
H2992 C2989 0.950 . S
C2993 C2984 1.390 1_655 S
C2993 H2986 0.950 . S
C2993 C2990 1.387 . S
C2994 C2995 1.387 . S
C2994 H2998 0.950 . S
C2994 C3003 1.390 . S
C2995 C2994 1.387 . S
C2995 C2997 1.387 . S
H2996 C3003 0.950 . S
C2997 C2995 1.387 . S
C2997 C2999 1.390 . S
C2997 H3001 0.950 . S
H2998 C2994 0.950 . S
C2999 C2997 1.390 . S
C2999 C3000 1.387 . S
C2999 H3002 0.950 . S
C3000 C2999 1.387 . S
C3000 C3003 1.387 . S
H3001 C2997 0.950 . S
H3002 C2999 0.950 . S
C3003 C2994 1.390 . S
C3003 H2996 0.950 . S
C3003 C3000 1.387 . S
C3004 C3005 1.387 . S
C3004 H3008 0.950 . S
C3004 C3013 1.390 . S
C3005 C3004 1.387 . S
C3005 C3007 1.387 . S
H3006 C3013 0.950 . S
C3007 C3005 1.387 . S
C3007 C3009 1.390 . S
C3007 H3011 0.950 . S
H3008 C3004 0.950 . S
C3009 C3007 1.390 . S
C3009 C3010 1.387 . S
C3009 H3012 0.950 . S
C3010 C3009 1.387 . S
C3010 C3013 1.387 . S
H3011 C3007 0.950 . S
H3012 C3009 0.950 . S
C3013 C3004 1.390 . S
C3013 H3006 0.950 . S
C3013 C3010 1.387 . S
C3014 C3015 1.387 . S
C3014 H3018 0.950 . S
C3014 C3023 1.390 . S
C3015 C3014 1.387 . S
C3015 C3017 1.387 . S
H3016 C3023 0.950 . S
C3017 C3015 1.387 . S
C3017 C3019 1.390 . S
C3017 H3021 0.950 . S
H3018 C3014 0.950 . S
C3019 C3017 1.390 . S
C3019 C3020 1.387 . S
C3019 H3022 0.950 . S
C3020 C3019 1.387 . S
C3020 C3023 1.387 . S
H3021 C3017 0.950 . S
H3022 C3019 0.950 . S
C3023 C3014 1.390 . S
C3023 H3016 0.950 . S
C3023 C3020 1.387 . S
C3024 C3025 1.387 . S
C3024 H3028 0.950 . S
C3024 C3033 1.390 . S
C3025 C3024 1.387 . S
C3025 C3027 1.387 . S
H3026 C3033 0.950 . S
C3027 C3025 1.387 . S
C3027 C3029 1.390 . S
C3027 H3031 0.950 . S
H3028 C3024 0.950 . S
C3029 C3027 1.390 . S
C3029 C3030 1.387 . S
C3029 H3032 0.950 . S
C3030 C3029 1.387 . S
C3030 C3033 1.387 . S
H3031 C3027 0.950 . S
H3032 C3029 0.950 . S
C3033 C3024 1.390 . S
C3033 H3026 0.950 . S
C3033 C3030 1.387 . S
C3034 C3035 1.387 . S
C3034 H3038 0.950 . S
C3034 C3043 1.390 . S
C3035 C3034 1.387 . S
C3035 C3037 1.387 . S
H3036 C3043 0.950 . S
C3037 C3035 1.387 . S
C3037 C3039 1.390 . S
C3037 H3041 0.950 . S
H3038 C3034 0.950 . S
C3039 C3037 1.390 . S
C3039 C3040 1.387 . S
C3039 H3042 0.950 . S
C3040 C3039 1.387 . S
C3040 C3043 1.387 . S
H3041 C3037 0.950 . S
H3042 C3039 0.950 . S
C3043 C3034 1.390 . S
C3043 H3036 0.950 . S
C3043 C3040 1.387 . S
C3044 C3045 1.387 . S
C3044 H3048 0.950 . S
C3044 C3053 1.390 . S
C3045 C3044 1.387 . S
C3045 C3047 1.387 . S
H3046 C3053 0.950 . S
C3047 C3045 1.387 . S
C3047 C3049 1.390 . S
C3047 H3051 0.950 . S
H3048 C3044 0.950 . S
C3049 C3047 1.390 . S
C3049 C3050 1.387 . S
C3049 H3052 0.950 . S
C3050 C3049 1.387 . S
C3050 C3053 1.387 . S
H3051 C3047 0.950 . S
H3052 C3049 0.950 . S
C3053 C3044 1.390 . S
C3053 H3046 0.950 . S
C3053 C3050 1.387 . S
C3054 C3055 1.387 . S
C3054 H3058 0.950 . S
C3054 C3063 1.390 . S
C3055 C3054 1.387 . S
C3055 C3057 1.387 . S
H3056 C3063 0.950 . S
C3057 C3055 1.387 . S
C3057 C3059 1.390 . S
C3057 H3061 0.950 . S
H3058 C3054 0.950 . S
C3059 C3057 1.390 . S
C3059 C3060 1.387 . S
C3059 H3062 0.950 . S
C3060 C3059 1.387 . S
C3060 C3063 1.387 . S
H3061 C3057 0.950 . S
H3062 C3059 0.950 . S
C3063 C3054 1.390 . S
C3063 H3056 0.950 . S
C3063 C3060 1.387 . S
C3064 C3065 1.387 . S
C3064 H3068 0.950 . S
C3064 C3073 1.390 . S
C3065 C3064 1.387 . S
C3065 C3067 1.387 . S
H3066 C3073 0.950 . S
C3067 C3065 1.387 . S
C3067 C3069 1.390 . S
C3067 H3071 0.950 . S
H3068 C3064 0.950 . S
C3069 C3067 1.390 . S
C3069 C3070 1.387 . S
C3069 H3072 0.950 . S
C3070 C3069 1.387 . S
C3070 C3073 1.387 . S
H3071 C3067 0.950 . S
H3072 C3069 0.950 . S
C3073 C3064 1.390 . S
C3073 H3066 0.950 . S
C3073 C3070 1.387 . S
C3074 C3075 1.387 . S
C3074 H3078 0.950 . S
C3074 C3083 1.390 . S
C3075 C3074 1.387 . S
C3075 C3077 1.387 . S
H3076 C3083 0.950 . S
C3077 C3075 1.387 . S
C3077 C3079 1.390 . S
C3077 H3081 0.950 . S
H3078 C3074 0.950 . S
C3079 C3077 1.390 . S
C3079 C3080 1.387 . S
C3079 H3082 0.950 . S
C3080 C3079 1.387 . S
C3080 C3083 1.387 . S
H3081 C3077 0.950 . S
H3082 C3079 0.950 . S
C3083 C3074 1.390 . S
C3083 H3076 0.950 . S
C3083 C3080 1.387 . S
C3084 C3085 1.387 . S
C3084 H3088 0.950 . S
C3084 C3093 1.390 . S
C3085 C3084 1.387 . S
C3085 C3087 1.387 . S
H3086 C3093 0.950 . S
C3087 C3085 1.387 . S
C3087 C3089 1.390 . S
C3087 H3091 0.950 . S
H3088 C3084 0.950 . S
C3089 C3087 1.390 . S
C3089 C3090 1.387 . S
C3089 H3092 0.950 . S
C3090 C3089 1.387 . S
C3090 C3093 1.387 . S
H3091 C3087 0.950 . S
H3092 C3089 0.950 . S
C3093 C3084 1.390 . S
C3093 H3086 0.950 . S
C3093 C3090 1.387 . S
C3094 C3095 1.387 . S
C3094 H3098 0.950 . S
C3094 C3103 1.390 . S
C3095 C3094 1.387 . S
C3095 C3097 1.387 . S
H3096 C3103 0.950 . S
C3097 C3095 1.387 . S
C3097 C3099 1.390 . S
C3097 H3101 0.950 . S
H3098 C3094 0.950 . S
C3099 C3097 1.390 . S
C3099 C3100 1.387 . S
C3099 H3102 0.950 . S
C3100 C3099 1.387 . S
C3100 C3103 1.387 . S
H3101 C3097 0.950 . S
H3102 C3099 0.950 . S
C3103 C3094 1.390 . S
C3103 H3096 0.950 . S
C3103 C3100 1.387 . S
C3104 C3105 1.387 . S
C3104 H3108 0.950 . S
C3104 C3113 1.390 . S
C3105 C3104 1.387 . S
C3105 C3107 1.387 . S
H3106 C3113 0.950 . S
C3107 C3105 1.387 . S
C3107 C3109 1.390 . S
C3107 H3111 0.950 . S
H3108 C3104 0.950 . S
C3109 C3107 1.390 . S
C3109 C3110 1.387 . S
C3109 H3112 0.950 . S
C3110 C3109 1.387 . S
C3110 C3113 1.387 . S
H3111 C3107 0.950 . S
H3112 C3109 0.950 . S
C3113 C3104 1.390 . S
C3113 H3106 0.950 . S
C3113 C3110 1.387 . S
C3114 C3115 1.387 . S
C3114 H3118 0.950 . S
C3114 C3123 1.390 . S
C3115 C3114 1.387 . S
C3115 C3117 1.387 . S
H3116 C3123 0.950 . S
C3117 C3115 1.387 . S
C3117 C3119 1.390 . S
C3117 H3121 0.950 . S
H3118 C3114 0.950 . S
C3119 C3117 1.390 . S
C3119 C3120 1.387 . S
C3119 H3122 0.950 . S
C3120 C3119 1.387 . S
C3120 C3123 1.387 . S
H3121 C3117 0.950 . S
H3122 C3119 0.950 . S
C3123 C3114 1.390 . S
C3123 H3116 0.950 . S
C3123 C3120 1.387 . S
C3124 C3125 1.387 . S
C3124 H3128 0.950 . S
C3124 C3133 1.390 . S
C3125 C3124 1.387 . S
C3125 C3127 1.387 . S
H3126 C3133 0.950 . S
C3127 C3125 1.387 . S
C3127 C3129 1.390 . S
C3127 H3131 0.950 . S
H3128 C3124 0.950 . S
C3129 C3127 1.390 . S
C3129 C3130 1.387 . S
C3129 H3132 0.950 . S
C3130 C3129 1.387 . S
C3130 C3133 1.387 . S
H3131 C3127 0.950 . S
H3132 C3129 0.950 . S
C3133 C3124 1.390 . S
C3133 H3126 0.950 . S
C3133 C3130 1.387 . S
C3134 C3135 1.387 . S
C3134 H3138 0.950 . S
C3134 C3143 1.390 . S
C3135 C3134 1.387 . S
C3135 C3137 1.387 . S
H3136 C3143 0.950 . S
C3137 C3135 1.387 . S
C3137 C3139 1.390 . S
C3137 H3141 0.950 . S
H3138 C3134 0.950 . S
C3139 C3137 1.390 . S
C3139 C3140 1.387 . S
C3139 H3142 0.950 . S
C3140 C3139 1.387 . S
C3140 C3143 1.387 . S
H3141 C3137 0.950 . S
H3142 C3139 0.950 . S
C3143 C3134 1.390 . S
C3143 H3136 0.950 . S
C3143 C3140 1.387 . S
C3144 C3145 1.387 . S
C3144 H3148 0.950 . S
C3144 C3153 1.390 . S
C3145 C3144 1.387 . S
C3145 C3147 1.387 . S
H3146 C3153 0.950 . S
C3147 C3145 1.387 . S
C3147 C3149 1.390 . S
C3147 H3151 0.950 . S
H3148 C3144 0.950 . S
C3149 C3147 1.390 . S
C3149 C3150 1.387 . S
C3149 H3152 0.950 . S
C3150 C3149 1.387 . S
C3150 C3153 1.387 . S
H3151 C3147 0.950 . S
H3152 C3149 0.950 . S
C3153 C3144 1.390 . S
C3153 H3146 0.950 . S
C3153 C3150 1.387 . S
C3154 C3155 1.387 . S
C3154 H3158 0.950 . S
C3154 C3163 1.390 . S
C3155 C3154 1.387 . S
C3155 C3157 1.387 . S
H3156 C3163 0.950 . S
C3157 C3155 1.387 . S
C3157 C3159 1.390 . S
C3157 H3161 0.950 . S
H3158 C3154 0.950 . S
C3159 C3157 1.390 . S
C3159 C3160 1.387 . S
C3159 H3162 0.950 . S
C3160 C3159 1.387 . S
C3160 C3163 1.387 . S
H3161 C3157 0.950 . S
H3162 C3159 0.950 . S
C3163 C3154 1.390 . S
C3163 H3156 0.950 . S
C3163 C3160 1.387 . S
C3164 C3165 1.387 . S
C3164 H3168 0.950 . S
C3164 C3173 1.390 . S
C3165 C3164 1.387 . S
C3165 C3167 1.387 . S
H3166 C3173 0.950 . S
C3167 C3165 1.387 . S
C3167 C3169 1.390 . S
C3167 H3171 0.950 . S
H3168 C3164 0.950 . S
C3169 C3167 1.390 . S
C3169 C3170 1.387 . S
C3169 H3172 0.950 . S
C3170 C3169 1.387 . S
C3170 C3173 1.387 . S
H3171 C3167 0.950 . S
H3172 C3169 0.950 . S
C3173 C3164 1.390 . S
C3173 H3166 0.950 . S
C3173 C3170 1.387 . S
C3174 C3175 1.387 . S
C3174 H3178 0.950 . S
C3174 C3183 1.390 . S
C3175 C3174 1.387 . S
C3175 C3177 1.387 . S
H3176 C3183 0.950 . S
C3177 C3175 1.387 . S
C3177 C3179 1.390 . S
C3177 H3181 0.950 . S
H3178 C3174 0.950 . S
C3179 C3177 1.390 . S
C3179 C3180 1.387 . S
C3179 H3182 0.950 . S
C3180 C3179 1.387 . S
C3180 C3183 1.387 . S
H3181 C3177 0.950 . S
H3182 C3179 0.950 . S
C3183 C3174 1.390 . S
C3183 H3176 0.950 . S
C3183 C3180 1.387 . S
C3184 C3185 1.387 . S
C3184 H3188 0.950 . S
C3184 C3193 1.390 . S
C3185 C3184 1.387 . S
C3185 C3187 1.387 . S
H3186 C3193 0.950 . S
C3187 C3185 1.387 . S
C3187 C3189 1.390 . S
C3187 H3191 0.950 . S
H3188 C3184 0.950 . S
C3189 C3187 1.390 . S
C3189 C3190 1.387 . S
C3189 H3192 0.950 . S
C3190 C3189 1.387 . S
C3190 C3193 1.387 . S
H3191 C3187 0.950 . S
H3192 C3189 0.950 . S
C3193 C3184 1.390 . S
C3193 H3186 0.950 . S
C3193 C3190 1.387 . S
C3194 C3195 1.387 . S
C3194 H3198 0.950 . S
C3194 C3203 1.390 . S
C3195 C3194 1.387 . S
C3195 C3197 1.387 . S
H3196 C3203 0.950 . S
C3197 C3195 1.387 . S
C3197 C3199 1.390 . S
C3197 H3201 0.950 . S
H3198 C3194 0.950 . S
C3199 C3197 1.390 . S
C3199 C3200 1.387 . S
C3199 H3202 0.950 . S
C3200 C3199 1.387 . S
C3200 C3203 1.387 . S
H3201 C3197 0.950 . S
H3202 C3199 0.950 . S
C3203 C3194 1.390 . S
C3203 H3196 0.950 . S
C3203 C3200 1.387 . S
C3204 C3205 1.387 . S
C3204 H3208 0.950 . S
C3204 C3213 1.390 . S
C3205 C3204 1.387 . S
C3205 C3207 1.387 . S
H3206 C3213 0.950 . S
C3207 C3205 1.387 . S
C3207 C3209 1.390 . S
C3207 H3211 0.950 . S
H3208 C3204 0.950 . S
C3209 C3207 1.390 . S
C3209 C3210 1.387 . S
C3209 H3212 0.950 . S
C3210 C3209 1.387 . S
C3210 C3213 1.387 . S
H3211 C3207 0.950 . S
H3212 C3209 0.950 . S
C3213 C3204 1.390 . S
C3213 H3206 0.950 . S
C3213 C3210 1.387 . S
C3214 C3215 1.387 . S
C3214 H3218 0.950 . S
C3214 C3223 1.390 . S
C3215 C3214 1.387 . S
C3215 C3217 1.387 . S
H3216 C3223 0.950 . S
C3217 C3215 1.387 . S
C3217 C3219 1.390 . S
C3217 H3221 0.950 . S
H3218 C3214 0.950 . S
C3219 C3217 1.390 . S
C3219 C3220 1.387 . S
C3219 H3222 0.950 . S
C3220 C3219 1.387 . S
C3220 C3223 1.387 . S
H3221 C3217 0.950 . S
H3222 C3219 0.950 . S
C3223 C3214 1.390 . S
C3223 H3216 0.950 . S
C3223 C3220 1.387 . S
C3224 C3225 1.387 . S
C3224 H3228 0.950 . S
C3224 C3233 1.390 . S
C3225 C3224 1.387 . S
C3225 C3227 1.387 . S
H3226 C3233 0.950 . S
C3227 C3225 1.387 . S
C3227 C3229 1.390 . S
C3227 H3231 0.950 . S
H3228 C3224 0.950 . S
C3229 C3227 1.390 . S
C3229 C3230 1.387 . S
C3229 H3232 0.950 . S
C3230 C3229 1.387 . S
C3230 C3233 1.387 . S
H3231 C3227 0.950 . S
H3232 C3229 0.950 . S
C3233 C3224 1.390 . S
C3233 H3226 0.950 . S
C3233 C3230 1.387 . S
C3234 C3235 1.387 . S
C3234 H3238 0.950 . S
C3234 C3243 1.390 . S
C3235 C3234 1.387 . S
C3235 C3237 1.387 . S
H3236 C3243 0.950 . S
C3237 C3235 1.387 . S
C3237 C3239 1.390 . S
C3237 H3241 0.950 . S
H3238 C3234 0.950 . S
C3239 C3237 1.390 . S
C3239 C3240 1.387 . S
C3239 H3242 0.950 . S
C3240 C3239 1.387 . S
C3240 C3243 1.387 . S
H3241 C3237 0.950 . S
H3242 C3239 0.950 . S
C3243 C3234 1.390 . S
C3243 H3236 0.950 . S
C3243 C3240 1.387 . S
C3244 C3245 1.387 . S
C3244 H3248 0.950 . S
C3244 C3253 1.390 . S
C3245 C3244 1.387 . S
C3245 C3247 1.387 . S
H3246 C3253 0.950 . S
C3247 C3245 1.387 . S
C3247 C3249 1.390 . S
C3247 H3251 0.950 . S
H3248 C3244 0.950 . S
C3249 C3247 1.390 . S
C3249 C3250 1.387 . S
C3249 H3252 0.950 . S
C3250 C3249 1.387 . S
C3250 C3253 1.387 . S
H3251 C3247 0.950 . S
H3252 C3249 0.950 . S
C3253 C3244 1.390 . S
C3253 H3246 0.950 . S
C3253 C3250 1.387 . S
C3254 C3255 1.387 . S
C3254 H3258 0.950 . S
C3254 C3263 1.390 . S
C3255 C3254 1.387 . S
C3255 C3257 1.387 . S
H3256 C3263 0.950 . S
C3257 C3255 1.387 . S
C3257 C3259 1.390 . S
C3257 H3261 0.950 . S
H3258 C3254 0.950 . S
C3259 C3257 1.390 . S
C3259 C3260 1.387 . S
C3259 H3262 0.950 . S
C3260 C3259 1.387 . S
C3260 C3263 1.387 . S
H3261 C3257 0.950 . S
H3262 C3259 0.950 . S
C3263 C3254 1.390 . S
C3263 H3256 0.950 . S
C3263 C3260 1.387 . S
C3264 C3265 1.387 . S
C3264 H3268 0.950 . S
C3264 C3273 1.390 . S
C3265 C3264 1.387 . S
C3265 C3267 1.387 . S
H3266 C3273 0.950 . S
C3267 C3265 1.387 . S
C3267 C3269 1.390 . S
C3267 H3271 0.950 . S
H3268 C3264 0.950 . S
C3269 C3267 1.390 . S
C3269 C3270 1.387 . S
C3269 H3272 0.950 . S
C3270 C3269 1.387 . S
C3270 C3273 1.387 . S
H3271 C3267 0.950 . S
H3272 C3269 0.950 . S
C3273 C3264 1.390 . S
C3273 H3266 0.950 . S
C3273 C3270 1.387 . S
C3274 C3275 1.387 . S
C3274 H3278 0.950 . S
C3274 C3283 1.390 . S
C3275 C3274 1.387 . S
C3275 C3277 1.387 . S
H3276 C3283 0.950 . S
C3277 C3275 1.387 . S
C3277 C3279 1.390 . S
C3277 H3281 0.950 . S
H3278 C3274 0.950 . S
C3279 C3277 1.390 . S
C3279 C3280 1.387 . S
C3279 H3282 0.950 . S
C3280 C3279 1.387 . S
C3280 C3283 1.387 . S
H3281 C3277 0.950 . S
H3282 C3279 0.950 . S
C3283 C3274 1.390 . S
C3283 H3276 0.950 . S
C3283 C3280 1.387 . S
C3284 C3285 1.387 . S
C3284 H3288 0.950 . S
C3284 C3293 1.390 . S
C3285 C3284 1.387 . S
C3285 C3287 1.387 . S
H3286 C3293 0.950 . S
C3287 C3285 1.387 . S
C3287 C3289 1.390 . S
C3287 H3291 0.950 . S
H3288 C3284 0.950 . S
C3289 C3287 1.390 . S
C3289 C3290 1.387 . S
C3289 H3292 0.950 . S
C3290 C3289 1.387 . S
C3290 C3293 1.387 . S
H3291 C3287 0.950 . S
H3292 C3289 0.950 . S
C3293 C3284 1.390 . S
C3293 H3286 0.950 . S
C3293 C3290 1.387 . S
C3294 C3295 1.387 . S
C3294 H3298 0.950 . S
C3294 C3303 1.390 . S
C3295 C3294 1.387 . S
C3295 C3297 1.387 . S
H3296 C3303 0.950 . S
C3297 C3295 1.387 . S
C3297 C3299 1.390 . S
C3297 H3301 0.950 . S
H3298 C3294 0.950 . S
C3299 C3297 1.390 . S
C3299 C3300 1.387 . S
C3299 H3302 0.950 . S
C3300 C3299 1.387 . S
C3300 C3303 1.387 . S
H3301 C3297 0.950 . S
H3302 C3299 0.950 . S
C3303 C3294 1.390 . S
C3303 H3296 0.950 . S
C3303 C3300 1.387 . S
C3304 C3305 1.387 . S
C3304 H3308 0.950 . S
C3304 C3313 1.390 . S
C3305 C3304 1.387 . S
C3305 C3307 1.387 . S
H3306 C3313 0.950 . S
C3307 C3305 1.387 . S
C3307 C3309 1.390 . S
C3307 H3311 0.950 . S
H3308 C3304 0.950 . S
C3309 C3307 1.390 . S
C3309 C3310 1.387 . S
C3309 H3312 0.950 . S
C3310 C3309 1.387 . S
C3310 C3313 1.387 . S
H3311 C3307 0.950 . S
H3312 C3309 0.950 . S
C3313 C3304 1.390 . S
C3313 H3306 0.950 . S
C3313 C3310 1.387 . S
C3314 C3315 1.387 . S
C3314 H3318 0.950 . S
C3314 C3323 1.390 . S
C3315 C3314 1.387 . S
C3315 C3317 1.387 . S
H3316 C3323 0.950 . S
C3317 C3315 1.387 . S
C3317 C3319 1.390 . S
C3317 H3321 0.950 . S
H3318 C3314 0.950 . S
C3319 C3317 1.390 . S
C3319 C3320 1.387 . S
C3319 H3322 0.950 . S
C3320 C3319 1.387 . S
C3320 C3323 1.387 . S
H3321 C3317 0.950 . S
H3322 C3319 0.950 . S
C3323 C3314 1.390 . S
C3323 H3316 0.950 . S
C3323 C3320 1.387 . S
C3324 C3325 1.387 . S
C3324 H3328 0.950 . S
C3324 C3333 1.390 . S
C3325 C3324 1.387 . S
C3325 C3327 1.387 . S
H3326 C3333 0.950 . S
C3327 C3325 1.387 . S
C3327 C3329 1.390 . S
C3327 H3331 0.950 . S
H3328 C3324 0.950 . S
C3329 C3327 1.390 . S
C3329 C3330 1.387 . S
C3329 H3332 0.950 . S
C3330 C3329 1.387 . S
C3330 C3333 1.387 . S
H3331 C3327 0.950 . S
H3332 C3329 0.950 . S
C3333 C3324 1.390 . S
C3333 H3326 0.950 . S
C3333 C3330 1.387 . S
C3334 C3335 1.387 . S
C3334 H3338 0.950 . S
C3334 C3343 1.390 . S
C3335 C3334 1.387 . S
C3335 C3337 1.387 . S
H3336 C3343 0.950 . S
C3337 C3335 1.387 . S
C3337 C3339 1.390 . S
C3337 H3341 0.950 . S
H3338 C3334 0.950 . S
C3339 C3337 1.390 . S
C3339 C3340 1.387 . S
C3339 H3342 0.950 . S
C3340 C3339 1.387 . S
C3340 C3343 1.387 . S
H3341 C3337 0.950 . S
H3342 C3339 0.950 . S
C3343 C3334 1.390 . S
C3343 H3336 0.950 . S
C3343 C3340 1.387 . S
C3344 C3345 1.387 . S
C3344 H3348 0.950 . S
C3344 C3353 1.390 . S
C3345 C3344 1.387 . S
C3345 C3347 1.387 . S
H3346 C3353 0.950 . S
C3347 C3345 1.387 . S
C3347 C3349 1.390 . S
C3347 H3351 0.950 . S
H3348 C3344 0.950 . S
C3349 C3347 1.390 . S
C3349 C3350 1.387 . S
C3349 H3352 0.950 . S
C3350 C3349 1.387 . S
C3350 C3353 1.387 . S
H3351 C3347 0.950 . S
H3352 C3349 0.950 . S
C3353 C3344 1.390 . S
C3353 H3346 0.950 . S
C3353 C3350 1.387 . S
C3354 C3355 1.387 . S
C3354 H3358 0.950 . S
C3354 C3363 1.390 . S
C3355 C3354 1.387 . S
C3355 C3357 1.387 . S
H3356 C3363 0.950 . S
C3357 C3355 1.387 . S
C3357 C3359 1.390 . S
C3357 H3361 0.950 . S
H3358 C3354 0.950 . S
C3359 C3357 1.390 . S
C3359 C3360 1.387 . S
C3359 H3362 0.950 . S
C3360 C3359 1.387 . S
C3360 C3363 1.387 . S
H3361 C3357 0.950 . S
H3362 C3359 0.950 . S
C3363 C3354 1.390 . S
C3363 H3356 0.950 . S
C3363 C3360 1.387 . S
C3364 C3365 1.387 . S
C3364 H3368 0.950 . S
C3364 C3373 1.390 . S
C3365 C3364 1.387 . S
C3365 C3367 1.387 . S
H3366 C3373 0.950 . S
C3367 C3365 1.387 . S
C3367 C3369 1.390 . S
C3367 H3371 0.950 . S
H3368 C3364 0.950 . S
C3369 C3367 1.390 . S
C3369 C3370 1.387 . S
C3369 H3372 0.950 . S
C3370 C3369 1.387 . S
C3370 C3373 1.387 . S
H3371 C3367 0.950 . S
H3372 C3369 0.950 . S
C3373 C3364 1.390 . S
C3373 H3366 0.950 . S
C3373 C3370 1.387 . S
C3374 C3375 1.387 . S
C3374 H3378 0.950 . S
C3374 C3383 1.390 . S
C3375 C3374 1.387 . S
C3375 C3377 1.387 . S
H3376 C3383 0.950 . S
C3377 C3375 1.387 . S
C3377 C3379 1.390 . S
C3377 H3381 0.950 . S
H3378 C3374 0.950 . S
C3379 C3377 1.390 . S
C3379 C3380 1.387 . S
C3379 H3382 0.950 . S
C3380 C3379 1.387 . S
C3380 C3383 1.387 . S
H3381 C3377 0.950 . S
H3382 C3379 0.950 . S
C3383 C3374 1.390 . S
C3383 H3376 0.950 . S
C3383 C3380 1.387 . S
C3384 C3385 1.387 . S
C3384 H3388 0.950 . S
C3384 C3393 1.390 . S
C3385 C3384 1.387 . S
C3385 C3387 1.387 . S
H3386 C3393 0.950 . S
C3387 C3385 1.387 . S
C3387 C3389 1.390 . S
C3387 H3391 0.950 . S
H3388 C3384 0.950 . S
C3389 C3387 1.390 . S
C3389 C3390 1.387 . S
C3389 H3392 0.950 . S
C3390 C3389 1.387 . S
C3390 C3393 1.387 . S
H3391 C3387 0.950 . S
H3392 C3389 0.950 . S
C3393 C3384 1.390 . S
C3393 H3386 0.950 . S
C3393 C3390 1.387 . S
C3394 C3395 1.387 . S
C3394 H3398 0.950 . S
C3394 C3403 1.390 . S
C3395 C3394 1.387 . S
C3395 C3397 1.387 . S
H3396 C3403 0.950 . S
C3397 C3395 1.387 . S
C3397 C3399 1.390 . S
C3397 H3401 0.950 . S
H3398 C3394 0.950 . S
C3399 C3397 1.390 . S
C3399 C3400 1.387 . S
C3399 H3402 0.950 . S
C3400 C3399 1.387 . S
C3400 C3403 1.387 . S
H3401 C3397 0.950 . S
H3402 C3399 0.950 . S
C3403 C3394 1.390 . S
C3403 H3396 0.950 . S
C3403 C3400 1.387 . S
C3404 C3405 1.387 . S
C3404 H3408 0.950 . S
C3404 C3413 1.390 . S
C3405 C3404 1.387 . S
C3405 C3407 1.387 . S
H3406 C3413 0.950 . S
C3407 C3405 1.387 . S
C3407 C3409 1.390 . S
C3407 H3411 0.950 . S
H3408 C3404 0.950 . S
C3409 C3407 1.390 . S
C3409 C3410 1.387 . S
C3409 H3412 0.950 . S
C3410 C3409 1.387 . S
C3410 C3413 1.387 . S
H3411 C3407 0.950 . S
H3412 C3409 0.950 . S
C3413 C3404 1.390 . S
C3413 H3406 0.950 . S
C3413 C3410 1.387 . S
C3414 C3415 1.387 . S
C3414 H3418 0.950 . S
C3414 C3423 1.390 . S
C3415 C3414 1.387 . S
C3415 C3417 1.387 . S
H3416 C3423 0.950 . S
C3417 C3415 1.387 . S
C3417 C3419 1.390 . S
C3417 H3421 0.950 . S
H3418 C3414 0.950 . S
C3419 C3417 1.390 . S
C3419 C3420 1.387 . S
C3419 H3422 0.950 . S
C3420 C3419 1.387 . S
C3420 C3423 1.387 . S
H3421 C3417 0.950 . S
H3422 C3419 0.950 . S
C3423 C3414 1.390 . S
C3423 H3416 0.950 . S
C3423 C3420 1.387 . S
C3424 C3425 1.387 . S
C3424 H3428 0.950 . S
C3424 C3433 1.390 . S
C3425 C3424 1.387 . S
C3425 C3427 1.387 . S
H3426 C3433 0.950 . S
C3427 C3425 1.387 . S
C3427 C3429 1.390 . S
C3427 H3431 0.950 . S
H3428 C3424 0.950 . S
C3429 C3427 1.390 . S
C3429 C3430 1.387 . S
C3429 H3432 0.950 . S
C3430 C3429 1.387 . S
C3430 C3433 1.387 . S
H3431 C3427 0.950 . S
H3432 C3429 0.950 . S
C3433 C3424 1.390 . S
C3433 H3426 0.950 . S
C3433 C3430 1.387 . S
C3434 C3435 1.387 . S
C3434 H3438 0.950 . S
C3434 C3443 1.390 . S
C3435 C3434 1.387 . S
C3435 C3437 1.387 . S
H3436 C3443 0.950 . S
C3437 C3435 1.387 . S
C3437 C3439 1.390 . S
C3437 H3441 0.950 . S
H3438 C3434 0.950 . S
C3439 C3437 1.390 . S
C3439 C3440 1.387 . S
C3439 H3442 0.950 . S
C3440 C3439 1.387 . S
C3440 C3443 1.387 . S
H3441 C3437 0.950 . S
H3442 C3439 0.950 . S
C3443 C3434 1.390 . S
C3443 H3436 0.950 . S
C3443 C3440 1.387 . S
C3444 C3445 1.387 . S
C3444 H3448 0.950 . S
C3444 C3453 1.390 . S
C3445 C3444 1.387 . S
C3445 C3447 1.387 . S
H3446 C3453 0.950 . S
C3447 C3445 1.387 . S
C3447 C3449 1.390 . S
C3447 H3451 0.950 . S
H3448 C3444 0.950 . S
C3449 C3447 1.390 . S
C3449 C3450 1.387 . S
C3449 H3452 0.950 . S
C3450 C3449 1.387 . S
C3450 C3453 1.387 . S
H3451 C3447 0.950 . S
H3452 C3449 0.950 . S
C3453 C3444 1.390 . S
C3453 H3446 0.950 . S
C3453 C3450 1.387 . S
C3454 C3455 1.387 . S
C3454 H3458 0.950 . S
C3454 C3463 1.390 . S
C3455 C3454 1.387 . S
C3455 C3457 1.387 . S
H3456 C3463 0.950 . S
C3457 C3455 1.387 . S
C3457 C3459 1.390 . S
C3457 H3461 0.950 . S
H3458 C3454 0.950 . S
C3459 C3457 1.390 . S
C3459 C3460 1.387 . S
C3459 H3462 0.950 . S
C3460 C3459 1.387 . S
C3460 C3463 1.387 . S
H3461 C3457 0.950 . S
H3462 C3459 0.950 . S
C3463 C3454 1.390 . S
C3463 H3456 0.950 . S
C3463 C3460 1.387 . S
C3464 C3465 1.387 . S
C3464 H3468 0.950 . S
C3464 C3473 1.390 . S
C3465 C3464 1.387 . S
C3465 C3467 1.387 . S
H3466 C3473 0.950 . S
C3467 C3465 1.387 . S
C3467 C3469 1.390 . S
C3467 H3471 0.950 . S
H3468 C3464 0.950 . S
C3469 C3467 1.390 . S
C3469 C3470 1.387 . S
C3469 H3472 0.950 . S
C3470 C3469 1.387 . S
C3470 C3473 1.387 . S
H3471 C3467 0.950 . S
H3472 C3469 0.950 . S
C3473 C3464 1.390 . S
C3473 H3466 0.950 . S
C3473 C3470 1.387 . S
C3474 C3475 1.387 . S
C3474 H3478 0.950 . S
C3474 C3483 1.390 . S
C3475 C3474 1.387 . S
C3475 C3477 1.387 . S
H3476 C3483 0.950 . S
C3477 C3475 1.387 . S
C3477 C3479 1.390 . S
C3477 H3481 0.950 . S
H3478 C3474 0.950 . S
C3479 C3477 1.390 . S
C3479 C3480 1.387 . S
C3479 H3482 0.950 . S
C3480 C3479 1.387 . S
C3480 C3483 1.387 . S
H3481 C3477 0.950 . S
H3482 C3479 0.950 . S
C3483 C3474 1.390 . S
C3483 H3476 0.950 . S
C3483 C3480 1.387 . S
C3484 C3485 1.387 . S
C3484 H3488 0.950 . S
C3484 C3493 1.390 . S
C3485 C3484 1.387 . S
C3485 C3487 1.387 . S
H3486 C3493 0.950 . S
C3487 C3485 1.387 . S
C3487 C3489 1.390 . S
C3487 H3491 0.950 . S
H3488 C3484 0.950 . S
C3489 C3487 1.390 . S
C3489 C3490 1.387 . S
C3489 H3492 0.950 . S
C3490 C3489 1.387 . S
C3490 C3493 1.387 . S
H3491 C3487 0.950 . S
H3492 C3489 0.950 . S
C3493 C3484 1.390 . S
C3493 H3486 0.950 . S
C3493 C3490 1.387 . S
C3494 C3495 1.387 . S
C3494 H3498 0.950 . S
C3494 C3503 1.390 . S
C3495 C3494 1.387 . S
C3495 C3497 1.387 . S
H3496 C3503 0.950 . S
C3497 C3495 1.387 . S
C3497 C3499 1.390 . S
C3497 H3501 0.950 . S
H3498 C3494 0.950 . S
C3499 C3497 1.390 . S
C3499 C3500 1.387 . S
C3499 H3502 0.950 . S
C3500 C3499 1.387 . S
C3500 C3503 1.387 . S
H3501 C3497 0.950 . S
H3502 C3499 0.950 . S
C3503 C3494 1.390 . S
C3503 H3496 0.950 . S
C3503 C3500 1.387 . S
C2545 C877 1.636 . S
C2550 C38 1.611 . S
C2555 C2520 1.645 . S
C2560 C91 1.624 . S
C2565 C144 1.611 . S
C2570 C2414 1.637 . S
C2575 C197 1.624 . S
C2580 C2467 1.645 . S
C2585 C930 1.638 . S
C2590 C250 1.613 . S
C2595 C303 1.623 . S
C2600 C983 1.644 . S
C2605 C356 1.611 . S
C2610 C1036 1.636 . S
C2615 C2361 1.646 . S
C2620 C409 1.625 . S
C2625 C462 1.610 . S
C2630 C29 1.636 . S
C2635 C82 1.646 . S
C2640 C515 1.625 . S
C2645 C135 1.638 . S
C2650 C568 1.612 . S
C2655 C188 1.645 . S
C2660 C621 1.624 . S
C2665 C241 1.639 . S
C2670 C674 1.614 . S
C2675 C727 1.622 . S
C2680 C294 1.644 . S
C2685 C347 1.636 . S
C2690 C780 1.610 . S
C2695 C833 1.625 . S
C2700 C400 1.646 . S
C2705 C886 1.611 . S
C2710 C453 1.637 . S
C2715 C665 1.636 . S
C2720 C939 1.611 . S
C2725 C992 1.622 . S
C2730 C718 1.644 . S
C2735 C1045 1.614 . S
C2740 C771 1.639 . S
C2745 C2096 1.646 . S
C2750 C1098 1.625 . S
C2755 C1151 1.610 . S
C2760 C1831 1.636 . S
C2765 C1884 1.646 . S
C2770 C1204 1.625 . S
C2775 C1778 1.644 . S
C2780 C1257 1.622 . S
C2785 C2149 1.639 . S
C2790 C1310 1.614 . S
C2795 C1363 1.622 . S
C2800 C1248 1.643 . S
C2805 C1416 1.611 . S
C2810 C1142 1.636 . S
C2815 C1469 1.625 . S
C2820 C1195 1.646 . S
C2825 C1522 1.611 . S
C2830 C2202 1.636 . S
C2835 C2255 1.646 . S
C2840 C1575 1.625 . S
C2845 C1628 1.611 . S
C2850 C2308 1.636 . S
C2855 C1089 1.644 . S
C2860 C1681 1.622 . S
C2865 C1301 1.638 . S
C2870 C1734 1.613 . S
C2875 C1787 1.623 . S
C2880 C1354 1.644 . S
C2885 C1840 1.612 . S
C2890 C1407 1.637 . S
C2895 C1893 1.623 . S
C2900 C1460 1.644 . S
C2905 C1946 1.614 . S
C2910 C1513 1.639 . S
C2915 C1999 1.625 . S
C2920 C1566 1.646 . S
C2925 C1619 1.639 . S
C2930 C2052 1.614 . S
C2935 C1672 1.644 . S
C2940 C2105 1.623 . S
C2945 C1725 1.637 . S
C2950 C2158 1.611 . S
C2955 C1937 1.638 . S
C2960 C2211 1.613 . S
C2965 C1990 1.643 . S
C2970 C2264 1.622 . S
C2975 C2317 1.610 . S
C2980 C2043 1.636 . S
C2985 C2370 1.622 . S
C2990 C824 1.644 . S
C2995 C2423 1.610 . S
C3000 C559 1.636 . S
C3005 C612 1.646 . S
C3010 C2476 1.625 . S
C3015 C2529 1.622 . S
C3020 C506 1.643 . S
C3025 C22 1.686 . S
C3030 C1470 1.670 . S
C3035 C1311 1.678 . S
C3040 C75 1.684 . S
C3045 C128 1.685 . S
C3050 C1364 1.669 . S
C3055 C181 1.684 . S
C3060 C1417 1.678 . S
C3065 C234 1.686 . S
C3070 C304 1.671 . S
C3075 C357 1.676 . S
C3080 C287 1.683 . S
C3085 C340 1.685 . S
C3090 C410 1.670 . S
C3095 C393 1.683 . S
C3100 C251 1.678 . S
C3105 C446 1.686 . S
C3110 C2265 1.671 . S
C3115 C499 1.684 . S
C3120 C2318 1.677 . S
C3125 C552 1.686 . S
C3130 C1099 1.669 . S
C3135 C605 1.684 . S
C3140 C2212 1.677 . S
C3145 C658 1.686 . S
C3150 C2477 1.670 . S
C3155 C887 1.676 . S
C3160 C711 1.683 . S
C3165 C764 1.686 . S
C3170 C2530 1.671 . S
C3175 C2424 1.678 . S
C3180 C817 1.683 . S
C3185 C516 1.671 . S
C3190 C870 1.686 . S
C3195 C923 1.686 . S
C3200 C2106 1.671 . S
C3205 C976 1.683 . S
C3210 C1947 1.676 . S
C3215 C2000 1.671 . S
C3220 C1029 1.686 . S
C3225 C1082 1.683 . S
C3230 C781 1.678 . S
C3235 C1894 1.671 . S
C3240 C1135 1.686 . S
C3245 C1735 1.678 . S
C3250 C1188 1.683 . S
C3255 C1841 1.676 . S
C3260 C1241 1.683 . S
C3265 C1294 1.685 . S
C3270 C198 1.671 . S
C3275 C1347 1.684 . S
C3280 C39 1.677 . S
C3285 C92 1.670 . S
C3290 C1400 1.686 . S
C3295 C1453 1.684 . S
C3300 C145 1.677 . S
C3305 C1506 1.685 . S
C3310 C1576 1.670 . S
C3315 C1629 1.677 . S
C3320 C1559 1.683 . S
C3325 C1682 1.669 . S
C3330 C1612 1.685 . S
C3335 C1665 1.684 . S
C3340 C1523 1.677 . S
C3345 C993 1.669 . S
C3350 C1718 1.686 . S
C3355 C1771 1.684 . S
C3360 C1046 1.677 . S
C3365 C1824 1.686 . S
C3370 C2371 1.671 . S
C3375 C1877 1.683 . S
C3380 C940 1.677 . S
C3385 C1930 1.685 . S
C3390 C1205 1.670 . S
C3395 C1983 1.684 . S
C3400 C2159 1.677 . S
C3405 C1258 1.671 . S
C3410 C2036 1.686 . S
C3415 C2089 1.683 . S
C3420 C1152 1.677 . S
C3425 C1788 1.671 . S
C3430 C2142 1.686 . S
C3435 C834 1.671 . S
C3440 C2195 1.685 . S
C3445 C675 1.678 . S
C3450 C2248 1.684 . S
C3455 C2301 1.686 . S
C3460 C728 1.671 . S
C3465 C2354 1.683 . S
C3470 C2053 1.676 . S
C3475 C622 1.670 . S
C3480 C2407 1.685 . S
C3485 C2460 1.684 . S
C3490 C463 1.678 . S
C3495 C569 1.677 . S
C3500 C2513 1.683 . S
