# Generated by pormake.
# Topology sml, (6)-cn, num edge types: 1
# Building blocks:
#     Node 0, Type 0, BuildingBlock: BETDIP_clean_sbu_0, # of connection points: 6
#     Node 1, Type 0, BuildingBlock: BETDIP_clean_sbu_0, # of connection points: 6
#     Node 2, Type 0, BuildingBlock: BETDIP_clean_sbu_0, # of connection points: 6
#     Node 3, Type 0, BuildingBlock: BETDIP_clean_sbu_0, # of connection points: 6
#     Node 4, Type 0, BuildingBlock: BETDIP_clean_sbu_0, # of connection points: 6
#     Node 5, Type 0, BuildingBlock: BETDIP_clean_sbu_0, # of connection points: 6
#     Edge 6, Type (0, 0), BuildingBlock: XUDNAN_clean_linker_2, # of connection points: 2
#     Edge 7, Type (0, 0), BuildingBlock: XUDNAN_clean_linker_2, # of connection points: 2
#     Edge 8, Type (0, 0), BuildingBlock: XUDNAN_clean_linker_2, # of connection points: 2
#     Edge 9, Type (0, 0), BuildingBlock: XUDNAN_clean_linker_2, # of connection points: 2
#     Edge 10, Type (0, 0), BuildingBlock: XUDNAN_clean_linker_2, # of connection points: 2
#     Edge 11, Type (0, 0), BuildingBlock: XUDNAN_clean_linker_2, # of connection points: 2
#     Edge 12, Type (0, 0), BuildingBlock: XUDNAN_clean_linker_2, # of connection points: 2
#     Edge 13, Type (0, 0), BuildingBlock: XUDNAN_clean_linker_2, # of connection points: 2
#     Edge 14, Type (0, 0), BuildingBlock: XUDNAN_clean_linker_2, # of connection points: 2
#     Edge 15, Type (0, 0), BuildingBlock: XUDNAN_clean_linker_2, # of connection points: 2
#     Edge 16, Type (0, 0), BuildingBlock: XUDNAN_clean_linker_2, # of connection points: 2
#     Edge 17, Type (0, 0), BuildingBlock: XUDNAN_clean_linker_2, # of connection points: 2
#     Edge 18, Type (0, 0), BuildingBlock: XUDNAN_clean_linker_2, # of connection points: 2
#     Edge 19, Type (0, 0), BuildingBlock: XUDNAN_clean_linker_2, # of connection points: 2
#     Edge 20, Type (0, 0), BuildingBlock: XUDNAN_clean_linker_2, # of connection points: 2
#     Edge 21, Type (0, 0), BuildingBlock: XUDNAN_clean_linker_2, # of connection points: 2
#     Edge 22, Type (0, 0), BuildingBlock: XUDNAN_clean_linker_2, # of connection points: 2
#     Edge 23, Type (0, 0), BuildingBlock: XUDNAN_clean_linker_2, # of connection points: 2
# Relax obj value: 0.254
# Max RMSD: 0.254
# Mean RMSD: 0.254
data_MOF--net-sml--node1-BETDIP_clean_sbu_0--edge1-XUDNAN_clean_linker_2
_symmetry_space_group_name_H-M    P1
_symmetry_Int_Tables_number       1
_symmetry_cell_setting            triclinic
loop_
_symmetry_equiv_pos_as_xyz
'x, y, z'
_cell_length_a     32.320048
_cell_length_b     32.35323
_cell_length_c     25.02777
_cell_angle_alpha  89.635234
_cell_angle_beta   90.253145
_cell_angle_gamma 119.86095
loop_
_atom_site_label
_atom_site_type_symbol
_atom_site_fract_x
_atom_site_fract_y
_atom_site_fract_z
_atom_type_partial_charge
Tb0 Tb 0.17324 0.42272 0.9612 0.0
Tb1 Tb 0.22794 0.42171 0.06057 0.0
C2 C 0.14182 0.42288 0.86883 0.0
C3 C 0.15836 0.4279 0.81326 0.0
C4 C 0.20523 0.43922 0.80118 0.0
C5 C 0.22058 0.44564 0.74798 0.0
C6 C 0.18908 0.44017 0.70602 0.0
C7 C 0.14186 0.42767 0.71844 0.0
C8 C 0.12675 0.42179 0.77159 0.0
C9 C 0.12 0.36977 0.04078 0.0
C10 C 0.22975 0.36575 0.96247 0.0
C11 C 0.25444 0.41458 0.15329 0.0
C12 C 0.24967 0.42489 0.20952 0.0
C13 C 0.20627 0.41709 0.23119 0.0
C14 C 0.20348 0.42636 0.28539 0.0
C15 C 0.24408 0.44388 0.31853 0.0
C16 C 0.28729 0.45172 0.29629 0.0
C17 C 0.28998 0.44231 0.24249 0.0
C18 C 0.2814 0.4791 0.98278 0.0
C19 C 0.18155 0.48796 0.05535 0.0
O20 O 0.16378 0.46082 0.89873 0.0
O21 O 0.13423 0.38421 0.89411 0.0
O22 O 0.15969 0.37479 0.02707 0.0
O23 O 0.10734 0.39148 1.00666 0.0
O24 O 0.21598 0.39154 0.93422 0.0
O25 O 0.23034 0.36621 0.01526 0.0
O26 O 0.21683 0.38038 0.12963 0.0
O27 O 0.2785 0.45152 0.12211 0.0
O28 O 0.24035 0.47018 0.99618 0.0
O29 O 0.29594 0.45833 0.01628 0.0
O30 O 0.19333 0.4618 0.08581 0.0
O31 O 0.17887 0.48416 1.00265 0.0
H32 H 0.22993 0.44332 0.83281 0.0
H33 H 0.25701 0.45469 0.73963 0.0
H34 H 0.1169 0.42359 0.68709 0.0
H35 H 0.0904 0.4129 0.78021 0.0
H36 H 0.17467 0.4038 0.20639 0.0
H37 H 0.16975 0.42027 0.30123 0.0
H38 H 0.31902 0.46439 0.32074 0.0
H39 H 0.32371 0.44834 0.22663 0.0
Tb40 Tb 0.76747 0.20576 0.31785 0.0
Tb41 Tb 0.8244 0.23964 0.42103 0.0
C42 C 0.73468 0.19703 0.22468 0.0
C43 C 0.74961 0.21582 0.17034 0.0
C44 C 0.796 0.25267 0.15898 0.0
C45 C 0.80903 0.26858 0.1062 0.0
C46 C 0.77592 0.24771 0.06419 0.0
C47 C 0.72931 0.21147 0.07634 0.0
C48 C 0.71637 0.19572 0.12885 0.0
C49 C 0.76376 0.13785 0.37969 0.0
C50 C 0.8788 0.24446 0.31885 0.0
C51 C 0.85527 0.24623 0.51495 0.0
C52 C 0.84647 0.25782 0.56922 0.0
C53 C 0.80065 0.235 0.59208 0.0
C54 C 0.79431 0.24376 0.64529 0.0
C55 C 0.83354 0.27574 0.67644 0.0
C56 C 0.879 0.29962 0.65283 0.0
C57 C 0.88537 0.29059 0.59985 0.0
C58 C 0.82936 0.30779 0.35858 0.0
C59 C 0.71191 0.204 0.42003 0.0
O60 O 0.73424 0.22648 0.26001 0.0
O61 O 0.75185 0.17091 0.24401 0.0
O62 O 0.79979 0.1783 0.37205 0.0
O63 O 0.72931 0.13304 0.34902 0.0
O64 O 0.84206 0.2422 0.29269 0.0
O65 O 0.87643 0.23457 0.3705 0.0
O66 O 0.82217 0.20643 0.49384 0.0
O67 O 0.87364 0.28128 0.48032 0.0
O68 O 0.79326 0.26739 0.36637 0.0
O69 O 0.86321 0.31263 0.39035 0.0
O70 O 0.75204 0.21958 0.44768 0.0
O71 O 0.70968 0.19832 0.36771 0.0
H72 H 0.82207 0.26884 0.19068 0.0
H73 H 0.84517 0.29647 0.09809 0.0
H74 H 0.70267 0.19527 0.04521 0.0
H75 H 0.6803 0.16748 0.13705 0.0
H76 H 0.76989 0.20976 0.56927 0.0
H77 H 0.75877 0.22525 0.66222 0.0
H78 H 0.90998 0.32406 0.67588 0.0
H79 H 0.92101 0.30845 0.58312 0.0
Tb80 Tb 0.57224 0.75636 0.62998 0.0
Tb81 Tb 0.60094 0.82083 0.72732 0.0
C82 C 0.54709 0.7174 0.53982 0.0
C83 C 0.55389 0.72708 0.48181 0.0
C84 C 0.54955 0.7639 0.457 0.0
C85 C 0.55166 0.76852 0.40108 0.0
C86 C 0.55772 0.73617 0.36922 0.0
C87 C 0.56373 0.70061 0.39456 0.0
C88 C 0.56176 0.69612 0.4501 0.0
C89 C 0.62618 0.74424 0.70049 0.0
C90 C 0.65481 0.8656 0.62192 0.0
C91 C 0.62226 0.85577 0.81971 0.0
C92 C 0.61327 0.8372 0.87498 0.0
C93 C 0.61 0.79338 0.88802 0.0
C94 C 0.60038 0.77612 0.94061 0.0
C95 C 0.59342 0.80211 0.98118 0.0
C96 C 0.59677 0.84598 0.96768 0.0
C97 C 0.60665 0.8633 0.91519 0.0
C98 C 0.54584 0.83149 0.65745 0.0
C99 C 0.5142 0.71394 0.73301 0.0
O100 O 0.52358 0.73395 0.56627 0.0
O101 O 0.58341 0.72071 0.56676 0.0
O102 O 0.62985 0.78345 0.68659 0.0
O103 O 0.59316 0.71028 0.67237 0.0
O104 O 0.62144 0.82704 0.59751 0.0
O105 O 0.65846 0.86893 0.67465 0.0
O106 O 0.65018 0.84657 0.79044 0.0
O107 O 0.58487 0.85019 0.79319 0.0
O108 O 0.54336 0.79303 0.6717 0.0
O109 O 0.57847 0.86616 0.68523 0.0
O110 O 0.54992 0.74951 0.75891 0.0
O111 O 0.51177 0.71251 0.68035 0.0
H112 H 0.54344 0.78832 0.4806 0.0
H113 H 0.54685 0.79625 0.38274 0.0
H114 H 0.56939 0.67572 0.37134 0.0
H115 H 0.56528 0.66754 0.46833 0.0
H116 H 0.61474 0.77242 0.85759 0.0
H117 H 0.59871 0.74252 0.94945 0.0
H118 H 0.59082 0.86662 0.99742 0.0
H119 H 0.60864 0.897 0.90586 0.0
Tb120 Tb 0.81928 0.56443 0.97295 0.0
Tb121 Tb 0.77097 0.57838 0.07066 0.0
C122 C 0.83959 0.54983 0.8806 0.0
C123 C 0.8315 0.56034 0.82498 0.0
C124 C 0.79063 0.52816 0.79615 0.0
C125 C 0.78401 0.53818 0.74326 0.0
C126 C 0.81806 0.58059 0.71823 0.0
C127 C 0.85897 0.61249 0.747 0.0
C128 C 0.86572 0.60241 0.79956 0.0
C129 C 0.87835 0.62486 0.04313 0.0
C130 C 0.76904 0.6283 0.96588 0.0
C131 C 0.74904 0.59399 0.16174 0.0
C132 C 0.76246 0.59502 0.21862 0.0
C133 C 0.80351 0.63429 0.23972 0.0
C134 C 0.81292 0.63736 0.29455 0.0
C135 C 0.78133 0.60146 0.32969 0.0
C136 C 0.74111 0.56146 0.30839 0.0
C137 C 0.7317 0.55838 0.25349 0.0
C138 C 0.71489 0.51271 1.00183 0.0
C139 C 0.81951 0.51321 0.07786 0.0
O140 O 0.80241 0.51836 0.90754 0.0
O141 O 0.86812 0.58657 0.90992 0.0
O142 O 0.83792 0.61974 0.03114 0.0
O143 O 0.88798 0.59911 0.01179 0.0
O144 O 0.7829 0.60127 0.94105 0.0
O145 O 0.76727 0.63012 0.01842 0.0
O146 O 0.78012 0.62739 0.1302 0.0
O147 O 0.72708 0.55235 0.13842 0.0
O148 O 0.75586 0.52275 0.01636 0.0
O149 O 0.70183 0.53855 0.02843 0.0
O150 O 0.80696 0.54127 0.10301 0.0
O151 O 0.82128 0.51143 0.02508 0.0
H152 H 0.76377 0.4952 0.81435 0.0
H153 H 0.75204 0.51299 0.72215 0.0
H154 H 0.88629 0.64504 0.72854 0.0
H155 H 0.898 0.6276 0.8202 0.0
H156 H 0.82779 0.66337 0.21419 0.0
H157 H 0.84461 0.66833 0.30955 0.0
H158 H 0.71581 0.53341 0.33437 0.0
H159 H 0.69948 0.52796 0.23855 0.0
Tb160 Tb 0.24578 0.81413 0.30916 0.0
Tb161 Tb 0.18949 0.75761 0.40659 0.0
C162 C 0.27574 0.84405 0.21606 0.0
C163 C 0.25961 0.8277 0.16111 0.0
C164 C 0.22223 0.78141 0.15095 0.0
C165 C 0.20721 0.76666 0.09847 0.0
C166 C 0.22857 0.79826 0.05512 0.0
C167 C 0.26598 0.8447 0.06578 0.0
C168 C 0.2814 0.85915 0.11822 0.0
C169 C 0.24529 0.867 0.38793 0.0
C170 C 0.13244 0.76055 0.30963 0.0
C171 C 0.15357 0.72572 0.49725 0.0
C172 C 0.16337 0.73122 0.55517 0.0
C173 C 0.19291 0.77574 0.57893 0.0
C174 C 0.19695 0.7797 0.63482 0.0
C175 C 0.17126 0.73927 0.66763 0.0
C176 C 0.14337 0.69466 0.64331 0.0
C177 C 0.1395 0.69074 0.58778 0.0
C178 C 0.19346 0.7061 0.32719 0.0
C179 C 0.30321 0.80851 0.40579 0.0
O180 O 0.28895 0.81855 0.2445 0.0
O181 O 0.2494 0.85654 0.24352 0.0
O182 O 0.21062 0.82702 0.37473 0.0
O183 O 0.27931 0.87999 0.3536 0.0
O184 O 0.17177 0.77372 0.28179 0.0
O185 O 0.13186 0.75805 0.36225 0.0
O186 O 0.15076 0.75988 0.47229 0.0
O187 O 0.17529 0.7084 0.46894 0.0
O188 O 0.22595 0.74624 0.34237 0.0
O189 O 0.15736 0.69172 0.35901 0.0
O190 O 0.26358 0.79192 0.43435 0.0
O191 O 0.3044 0.81569 0.35354 0.0
H192 H 0.20453 0.75673 0.18354 0.0
H193 H 0.17897 0.7304 0.09193 0.0
H194 H 0.28279 0.87034 0.03375 0.0
H195 H 0.31008 0.89516 0.12534 0.0
H196 H 0.21178 0.80749 0.55447 0.0
H197 H 0.21864 0.81457 0.65236 0.0
H198 H 0.12384 0.66272 0.66733 0.0
H199 H 0.11668 0.65605 0.57026 0.0
Tb200 Tb 0.43365 0.23485 0.64679 0.0
Tb201 Tb 0.40743 0.16802 0.74412 0.0
C202 C 0.45564 0.26719 0.55325 0.0
C203 C 0.44785 0.24669 0.4988 0.0
C204 C 0.46395 0.21515 0.48425 0.0
C205 C 0.45689 0.19702 0.43226 0.0
C206 C 0.43336 0.20976 0.39351 0.0
C207 C 0.41688 0.24093 0.40852 0.0
C208 C 0.42422 0.25926 0.4604 0.0
C209 C 0.38213 0.24696 0.71853 0.0
C210 C 0.3498 0.12573 0.64118 0.0
C211 C 0.38923 0.12729 0.83423 0.0
C212 C 0.39627 0.13722 0.89247 0.0
C213 C 0.37107 0.15495 0.92111 0.0
C214 C 0.37542 0.15968 0.97691 0.0
C215 C 0.4042 0.14575 1.00529 0.0
C216 C 0.42989 0.12878 0.97648 0.0
C217 C 0.42601 0.12464 0.92088 0.0
C218 C 0.4617 0.16086 0.67055 0.0
C219 C 0.4911 0.27657 0.75039 0.0
O220 O 0.48415 0.26051 0.58509 0.0
O221 O 0.41772 0.26199 0.57811 0.0
O222 O 0.37863 0.20749 0.70615 0.0
O223 O 0.41105 0.28017 0.6861 0.0
O224 O 0.38339 0.16403 0.61649 0.0
O225 O 0.34753 0.12184 0.6938 0.0
O226 O 0.35946 0.13656 0.80819 0.0
O227 O 0.42739 0.13785 0.80626 0.0
O228 O 0.46347 0.1981 0.68706 0.0
O229 O 0.4294 0.12475 0.69698 0.0
O230 O 0.45765 0.23876 0.77614 0.0
O231 O 0.49288 0.28061 0.69776 0.0
H232 H 0.48232 0.20469 0.51284 0.0
H233 H 0.4707 0.17365 0.42232 0.0
H234 H 0.39784 0.25093 0.38036 0.0
H235 H 0.41133 0.28337 0.47056 0.0
H236 H 0.347 0.16394 0.90074 0.0
H237 H 0.35482 0.17245 0.99805 0.0
H238 H 0.45267 0.11814 0.99709 0.0
H239 H 0.44547 0.11035 0.90013 0.0
H240 H 0.33969 0.3013 0.71345 0.0
H241 H 0.37059 0.21522 0.82112 0.0
H242 H 0.3299 0.23155 0.89454 0.0
H243 H 0.36226 0.39188 0.80758 0.0
H244 H 0.31574 0.40255 0.78348 0.0
H245 H 0.34378 0.38068 0.73862 0.0
H246 H 0.26107 0.30868 0.71494 0.0
H247 H 0.23292 0.33056 0.75974 0.0
H248 H 0.22299 0.27087 0.76772 0.0
H249 H 0.28981 0.26094 0.95692 0.0
H250 H 0.25376 0.30194 1.00444 0.0
H251 H 0.25011 0.37017 0.85581 0.0
C252 C 0.33699 0.28522 0.75232 0.0
C253 C 0.35602 0.25491 0.76143 0.0
C254 C 0.35334 0.23569 0.81287 0.0
C255 C 0.33109 0.24557 0.85487 0.0
C256 C 0.31195 0.27502 0.84453 0.0
C257 C 0.31472 0.29467 0.79453 0.0
C258 C 0.29335 0.32701 0.79463 0.0
C259 C 0.33104 0.37858 0.78025 0.0
C260 C 0.25 0.30813 0.75703 0.0
C261 C 0.27848 0.32271 0.85257 0.0
C262 C 0.28949 0.29256 0.88069 0.0
C263 C 0.28067 0.28436 0.93528 0.0
C264 C 0.26024 0.30784 0.96192 0.0
C265 C 0.24886 0.33905 0.93386 0.0
C266 C 0.25786 0.34614 0.87838 0.0
H267 H 0.05236 0.38504 0.08215 0.0
H268 H 0.12888 0.30895 0.11242 0.0
H269 H 0.08074 0.27381 0.19474 0.0
H270 H 0.03726 0.4078 0.22211 0.0
H271 H 0.97896 0.39995 0.20903 0.0
H272 H 0.0236 0.42273 0.15734 0.0
H273 H 0.9657 0.35503 0.09397 0.0
H274 H 0.92133 0.33295 0.14565 0.0
H275 H 0.93958 0.29391 0.11598 0.0
H276 H 0.01814 0.24283 0.27119 0.0
H277 H 0.94682 0.21694 0.32904 0.0
H278 H 0.91177 0.31157 0.24186 0.0
C279 C 0.05945 0.36134 0.1063 0.0
C280 C 0.09449 0.34991 0.09142 0.0
C281 C 0.10266 0.31874 0.12391 0.0
C282 C 0.07541 0.2986 0.17052 0.0
C283 C 0.04046 0.31026 0.18367 0.0
C284 C 0.03269 0.34104 0.1522 0.0
C285 C 0.99149 0.34607 0.1721 0.0
C286 C 0.00889 0.39719 0.1913 0.0
C287 C 0.95223 0.33104 0.12935 0.0
C288 C 0.97538 0.31146 0.21828 0.0
C289 C 0.00453 0.2919 0.22562 0.0
C290 C 0.99534 0.25819 0.2658 0.0
C291 C 0.95491 0.24371 0.29843 0.0
C292 C 0.9239 0.26214 0.28945 0.0
C293 C 0.93483 0.29679 0.24941 0.0
H294 H 0.68854 0.0485 0.39175 0.0
H295 H 0.83231 0.14189 0.44885 0.0
H296 H 0.82195 0.08145 0.51697 0.0
H297 H 0.6324 0.99831 0.51344 0.0
H298 H 0.59602 0.93937 0.48647 0.0
H299 H 0.61597 0.9906 0.44372 0.0
H300 H 0.65299 0.95426 0.38033 0.0
H301 H 0.63346 0.90367 0.42435 0.0
H302 H 0.69557 0.93879 0.40658 0.0
H303 H 0.79071 0.01317 0.58586 0.0
H304 H 0.74588 0.93972 0.64072 0.0
H305 H 0.62742 0.88887 0.52954 0.0
C306 C 0.71803 0.05615 0.4183 0.0
C307 C 0.76057 0.10054 0.41657 0.0
C308 C 0.79872 0.10879 0.45108 0.0
C309 C 0.7933 0.07449 0.48947 0.0
C310 C 0.75016 0.0315 0.49123 0.0
C311 C 0.71374 0.02185 0.45547 0.0
C312 C 0.67129 0.97278 0.46453 0.0
C313 C 0.6263 0.97553 0.47788 0.0
C314 C 0.66286 0.94047 0.41607 0.0
C315 C 0.68864 0.95688 0.51231 0.0
C316 C 0.73409 0.99115 0.52753 0.0
C317 C 0.75559 0.98563 0.5735 0.0
C318 C 0.72992 0.944 0.60449 0.0
C319 C 0.68374 0.9083 0.58869 0.0
C320 C 0.66327 0.9149 0.54178 0.0
H321 H 0.61536 0.65973 0.7365 0.0
H322 H 0.70031 0.81234 0.75955 0.0
H323 H 0.7425 0.7993 0.83481 0.0
H324 H 0.60583 0.62342 0.87392 0.0
H325 H 0.61288 0.57265 0.86046 0.0
H326 H 0.58657 0.59309 0.81079 0.0
H327 H 0.64955 0.60202 0.74119 0.0
H328 H 0.67538 0.5803 0.78987 0.0
H329 H 0.71208 0.63695 0.75744 0.0
H330 H 0.77388 0.7685 0.90959 0.0
H331 H 0.79929 0.72351 0.96925 0.0
H332 H 0.70066 0.59238 0.88915 0.0
C333 C 0.64273 0.69041 0.75753 0.0
C334 C 0.65339 0.73706 0.74364 0.0
C335 C 0.69014 0.7763 0.77121 0.0
C336 C 0.71458 0.76919 0.81364 0.0
C337 C 0.70266 0.72262 0.82695 0.0
C338 C 0.66824 0.68398 0.79893 0.0
C339 C 0.66416 0.63778 0.81875 0.0
C340 C 0.61439 0.6048 0.84236 0.0
C341 C 0.67602 0.61282 0.77416 0.0
C342 C 0.70206 0.65645 0.86188 0.0
C343 C 0.72315 0.70535 0.86693 0.0
C344 C 0.75796 0.73028 0.90559 0.0
C345 C 0.77207 0.70459 0.93932 0.0
C346 C 0.75221 0.65488 0.93307 0.0
C347 C 0.71673 0.63058 0.89406 0.0
H348 H 0.10516 0.70238 0.22476 0.0
H349 H 0.05891 0.77857 0.32786 0.0
H350 H 0.98645 0.75229 0.2714 0.0
H351 H 0.0696 0.72537 0.10252 0.0
H352 H 0.04886 0.66674 0.07555 0.0
H353 H 0.09512 0.68993 0.12538 0.0
H354 H 0.04544 0.61742 0.1883 0.0
H355 H 1.00105 0.59272 0.13621 0.0
H356 H 0.98442 0.60021 0.20257 0.0
H357 H 0.92183 0.72157 0.19626 0.0
H358 H 0.86919 0.68342 0.11762 0.0
H359 H 0.9579 0.62395 0.0719 0.0
C360 C 0.07965 0.7134 0.23554 0.0
C361 C 0.08747 0.7428 0.27995 0.0
C362 C 0.05318 0.75595 0.29369 0.0
C363 C 0.01218 0.74134 0.26181 0.0
C364 C 0.00588 0.7128 0.2174 0.0
C365 C 0.0384 0.69827 0.20524 0.0
C366 C 0.02361 0.66677 0.15673 0.0
C367 C 0.06153 0.68854 0.11243 0.0
C368 C 0.01295 0.61624 0.1718 0.0
C369 C 0.97866 0.66726 0.14179 0.0
C370 C 0.9685 0.69373 0.17695 0.0
C371 C 0.92908 0.70002 0.16917 0.0
C372 C 0.89921 0.67809 0.12469 0.0
C373 C 0.90887 0.64999 0.08939 0.0
C374 C 0.94921 0.64493 0.09831 0.0
H375 H 0.36462 0.11264 0.53777 0.0
H376 H 0.26769 0.04324 0.67024 0.0
H377 H 0.22353 0.97017 0.61563 0.0
H378 H 0.27961 0.05584 0.42758 0.0
H379 H 0.32359 0.05142 0.3878 0.0
H380 H 0.34189 0.09977 0.43428 0.0
H381 H 0.39963 0.07661 0.47916 0.0
H382 H 0.38145 0.02782 0.43367 0.0
H383 H 0.37697 0.01696 0.50473 0.0
H384 H 0.19356 0.90272 0.54683 0.0
H385 H 0.18488 0.84709 0.47428 0.0
H386 H 0.30675 0.96134 0.3933 0.0
C387 C 0.33327 0.0827 0.55507 0.0
C388 C 0.31912 0.08384 0.60803 0.0
C389 C 0.27881 0.04322 0.6295 0.0
C390 C 0.2535 0.00168 0.59875 0.0
C391 C 0.2693 0.00151 0.54695 0.0
C392 C 0.30843 0.04111 0.52554 0.0
C393 C 0.32199 0.03091 0.47165 0.0
C394 C 0.3164 0.06128 0.42774 0.0
C395 C 0.37299 0.03848 0.47241 0.0
C396 C 0.28494 0.97893 0.4663 0.0
C397 C 0.25412 0.96261 0.50935 0.0
C398 C 0.21752 0.91523 0.51296 0.0
C399 C 0.21291 0.88375 0.47181 0.0
C400 C 0.24554 0.89967 0.42883 0.0
C401 C 0.28138 0.94799 0.42591 0.0
H402 H 0.14348 0.3858 0.6179 0.0
H403 H 0.27179 0.51436 0.66662 0.0
H404 H 0.29821 0.53071 0.5725 0.0
H405 H 0.19937 0.35201 0.51617 0.0
H406 H 0.1489 0.32926 0.47153 0.0
H407 H 0.13995 0.32814 0.54261 0.0
H408 H 0.09516 0.37525 0.52939 0.0
H409 H 0.1043 0.37681 0.45827 0.0
H410 H 0.12413 0.43156 0.49439 0.0
H411 H 0.31015 0.53363 0.47322 0.0
H412 H 0.30954 0.52045 0.37618 0.0
H413 H 0.17415 0.38904 0.3917 0.0
C414 C 0.17703 0.4175 0.60868 0.0
C415 C 0.20559 0.44888 0.64958 0.0
C416 C 0.24959 0.48961 0.63602 0.0
C417 C 0.2647 0.49936 0.58265 0.0
C418 C 0.23555 0.4679 0.54329 0.0
C419 C 0.19283 0.42758 0.55564 0.0
C420 C 0.16889 0.39886 0.50591 0.0
C421 C 0.16401 0.34913 0.50927 0.0
C422 C 0.12024 0.39544 0.49644 0.0
C423 C 0.20472 0.42947 0.4636 0.0
C424 C 0.24278 0.46921 0.48606 0.0
C425 C 0.28064 0.50252 0.45523 0.0
C426 C 0.28004 0.49461 0.40015 0.0
C427 C 0.24195 0.45357 0.37626 0.0
C428 C 0.20351 0.42099 0.40856 0.0
H429 H 0.75189 0.19034 0.97611 0.0
H430 H 0.83144 0.33858 0.02433 0.0
H431 H 0.8534 0.36255 0.92994 0.0
H432 H 0.83214 0.19716 0.87448 0.0
H433 H 0.78548 0.15647 0.83044 0.0
H434 H 0.77618 0.15152 0.9016 0.0
H435 H 0.70033 0.1587 0.88908 0.0
H436 H 0.70952 0.16387 0.81786 0.0
H437 H 0.70449 0.20933 0.85367 0.0
H438 H 0.86712 0.36979 0.8296 0.0
H439 H 0.87255 0.35963 0.73241 0.0
H440 H 0.7825 0.20667 0.75096 0.0
C441 C 0.77349 0.22793 0.96689 0.0
C442 C 0.78978 0.26261 1.00768 0.0
C443 C 0.8189 0.31134 0.99386 0.0
C444 C 0.83127 0.3253 0.94033 0.0
C445 C 0.81425 0.29011 0.90113 0.0
C446 C 0.78605 0.24243 0.91386 0.0
C447 C 0.7729 0.21144 0.86461 0.0
C448 C 0.79288 0.17714 0.868 0.0
C449 C 0.71858 0.18424 0.8558 0.0
C450 C 0.79806 0.24909 0.82199 0.0
C451 C 0.82178 0.29427 0.84375 0.0
C452 C 0.84857 0.33458 0.81218 0.0
C453 C 0.85156 0.32846 0.75709 0.0
C454 C 0.82775 0.2824 0.73409 0.0
C455 C 0.80038 0.24239 0.76715 0.0
H456 H 0.60079 0.81456 0.30193 0.0
H457 H 0.50987 0.66073 0.30204 0.0
H458 H 0.50855 0.66111 0.20358 0.0
H459 H 0.54489 0.83759 0.18717 0.0
H460 H 0.60042 0.88516 0.16153 0.0
H461 H 0.5932 0.87317 0.23231 0.0
H462 H 0.66823 0.86378 0.2333 0.0
H463 H 0.67564 0.87561 0.16255 0.0
H464 H 0.67117 0.82158 0.18901 0.0
H465 H 0.51769 0.67753 0.10527 0.0
H466 H 0.53669 0.70911 0.01337 0.0
H467 H 0.62346 0.85222 0.07597 0.0
C468 C 0.58021 0.78106 0.28119 0.0
C469 C 0.55569 0.73756 0.30979 0.0
C470 C 0.52953 0.69442 0.28108 0.0
C471 C 0.52832 0.69427 0.22511 0.0
C472 C 0.55336 0.73756 0.19813 0.0
C473 C 0.57876 0.78021 0.22508 0.0
C474 C 0.60333 0.82158 0.18615 0.0
C475 C 0.58432 0.85643 0.19215 0.0
C476 C 0.65782 0.84712 0.19318 0.0
C477 C 0.58809 0.79539 0.13327 0.0
C478 C 0.55907 0.747 0.14117 0.0
C479 C 0.54053 0.71538 0.09855 0.0
C480 C 0.5519 0.73368 0.04638 0.0
C481 C 0.58186 0.7832 0.03701 0.0
C482 C 0.60006 0.81428 0.08141 0.0
H483 H 0.78863 0.52066 0.63142 0.0
H484 H 0.83346 0.66593 0.67831 0.0
H485 H 0.82814 0.68655 0.58438 0.0
H486 H 0.85279 0.54942 0.50916 0.0
H487 H 0.80716 0.49944 0.47281 0.0
H488 H 0.81239 0.49524 0.54404 0.0
H489 H 0.72406 0.47294 0.55583 0.0
H490 H 0.71846 0.47679 0.48456 0.0
H491 H 0.70391 0.5116 0.52855 0.0
H492 H 0.82078 0.69231 0.48556 0.0
H493 H 0.80941 0.68233 0.38807 0.0
H494 H 0.76952 0.53335 0.4045 0.0
C495 C 0.79659 0.5566 0.622 0.0
C496 C 0.81162 0.59176 0.66217 0.0
C497 C 0.82244 0.63859 0.6481 0.0
C498 C 0.81932 0.65059 0.59492 0.0
C499 C 0.80522 0.61535 0.5562 0.0
C500 C 0.79377 0.56925 0.569 0.0
C501 C 0.78063 0.53848 0.51941 0.0
C502 C 0.81532 0.51954 0.51087 0.0
C503 C 0.72867 0.49753 0.52227 0.0
C504 C 0.78679 0.57462 0.47678 0.0
C505 C 0.80097 0.6187 0.49896 0.0
C506 C 0.80966 0.65796 0.4677 0.0
C507 C 0.80349 0.65201 0.41228 0.0
C508 C 0.78884 0.60715 0.38849 0.0
C509 C 0.78037 0.568 0.42145 0.0
H510 H 0.24767 0.79054 0.73556 0.0
H511 H 0.09404 0.69735 0.73372 0.0
H512 H 0.09226 0.70177 0.83189 0.0
H513 H 0.26961 0.74232 0.85563 0.0
H514 H 0.31605 0.7991 0.87963 0.0
H515 H 0.30551 0.78919 0.80891 0.0
H516 H 0.2943 0.86294 0.80134 0.0
H517 H 0.30487 0.87309 0.87203 0.0
H518 H 0.25081 0.86652 0.84295 0.0
H519 H 0.10654 0.71662 0.93 0.0
H520 H 0.13609 0.74078 0.02179 0.0
H521 H 0.28097 0.82247 0.96141 0.0
C522 C 0.21366 0.77135 0.75585 0.0
C523 C 0.17101 0.74335 0.72688 0.0
C524 C 0.12726 0.71845 0.75502 0.0
C525 C 0.12583 0.72092 0.81081 0.0
C526 C 0.16845 0.7484 0.83818 0.0
C527 C 0.21159 0.77318 0.81179 0.0
C528 C 0.25219 0.79968 0.8511 0.0
C529 C 0.28794 0.78147 0.84867 0.0
C530 C 0.277 0.85377 0.84126 0.0
C531 C 0.22503 0.78603 0.90354 0.0
C532 C 0.17678 0.75649 0.89508 0.0
C533 C 0.14432 0.73951 0.93717 0.0
C534 C 0.16158 0.75315 0.98935 0.0
C535 C 0.21099 0.78335 0.99933 0.0
C536 C 0.24296 0.79978 0.95547 0.0
H537 H 0.43621 0.25582 0.2988 0.0
H538 H 0.41415 0.12066 0.36117 0.0
H539 H 0.40423 0.0901 0.26931 0.0
H540 H 0.34782 0.20491 0.19295 0.0
H541 H 0.38251 0.2524 0.14639 0.0
H542 H 0.38836 0.26398 0.21714 0.0
H543 H 0.47948 0.29698 0.21059 0.0
H544 H 0.47391 0.2854 0.13988 0.0
H545 H 0.50127 0.26038 0.18212 0.0
H546 H 0.39863 0.07466 0.1704 0.0
H547 H 0.395 0.07452 0.07183 0.0
H548 H 0.41687 0.21812 0.0733 0.0
C549 C 0.42867 0.21955 0.29343 0.0
C550 C 0.42624 0.19086 0.33775 0.0
C551 C 0.4171 0.14384 0.32825 0.0
C552 C 0.41104 0.12596 0.27609 0.0
C553 C 0.41387 0.15528 0.23355 0.0
C554 C 0.42215 0.20096 0.24162 0.0
C555 C 0.42335 0.22505 0.1889 0.0
C556 C 0.38311 0.2373 0.1862 0.0
C557 C 0.47242 0.26958 0.17986 0.0
C558 C 0.4147 0.18585 0.14987 0.0
C559 C 0.40953 0.14598 0.17653 0.0
C560 C 0.40246 0.10561 0.14916 0.0
C561 C 0.40068 0.10596 0.09314 0.0
C562 C 0.40569 0.14629 0.06482 0.0
C563 C 0.41247 0.18661 0.09382 0.0
H564 H 0.1231 0.48445 0.1358 0.0
H565 H 0.24082 0.58085 0.03467 0.0
H566 H 0.25399 0.64861 0.0915 0.0
H567 H 0.08009 0.57085 0.15998 0.0
H568 H 0.06271 0.55168 0.2282 0.0
H569 H 0.05914 0.50984 0.17867 0.0
H570 H 0.11284 0.48833 0.23465 0.0
H571 H 0.11594 0.52846 0.28599 0.0
H572 H 0.17003 0.53501 0.25747 0.0
H573 H 0.26721 0.69899 0.17121 0.0
H574 H 0.26556 0.73683 0.25544 0.0
H575 H 0.12907 0.61481 0.29539 0.0
C576 C 0.1504 0.52019 0.12475 0.0
C577 C 0.18079 0.52805 0.08092 0.0
C578 C 0.21681 0.57473 0.06768 0.0
C579 C 0.22475 0.61318 0.09992 0.0
C580 C 0.1953 0.60423 0.14406 0.0
C581 C 0.15766 0.55931 0.1554 0.0
C582 C 0.13171 0.55972 0.20558 0.0
C583 C 0.08035 0.54732 0.19237 0.0
C584 C 0.13271 0.52588 0.24843 0.0
C585 C 0.16207 0.61146 0.22191 0.0
C586 C 0.19917 0.63602 0.18637 0.0
C587 C 0.23671 0.68139 0.19751 0.0
C588 C 0.2353 0.70298 0.24514 0.0
C589 C 0.19556 0.6806 0.27956 0.0
C590 C 0.15873 0.63381 0.26823 0.0
H591 H 0.70136 0.24982 0.50582 0.0
H592 H 0.62295 0.13011 0.39954 0.0
H593 H 0.54917 0.10592 0.4513 0.0
H594 H 0.64387 0.19452 0.62634 0.0
H595 H 0.6424 0.24564 0.65221 0.0
H596 H 0.68861 0.25375 0.60631 0.0
H597 H 0.66507 0.30252 0.54291 0.0
H598 H 0.61899 0.29477 0.58891 0.0
H599 H 0.60418 0.27677 0.52027 0.0
H600 H 0.48575 0.09105 0.52001 0.0
H601 H 0.43562 0.0922 0.59427 0.0
H602 H 0.55371 0.22597 0.64934 0.0
C603 C 0.66854 0.2187 0.49338 0.0
C604 C 0.66762 0.19161 0.44901 0.0
C605 C 0.62411 0.15137 0.43339 0.0
C606 C 0.58217 0.1373 0.4626 0.0
C607 C 0.58426 0.16456 0.50651 0.0
C608 C 0.62612 0.20498 0.52114 0.0
C609 C 0.6186 0.22874 0.56906 0.0
C610 C 0.65024 0.23076 0.61626 0.0
C611 C 0.62722 0.27866 0.55439 0.0
C612 C 0.56637 0.19462 0.58012 0.0
C613 C 0.54718 0.15758 0.5439 0.0
C614 C 0.5002 0.12022 0.54814 0.0
C615 C 0.47213 0.12095 0.59044 0.0
C616 C 0.49104 0.15923 0.62693 0.0
C617 C 0.53848 0.1966 0.62139 0.0
H618 H 0.37901 0.52483 0.9683 0.0
H619 H 0.24877 0.511 0.90222 0.0
H620 H 0.29377 0.56489 0.8284 0.0
H621 H 0.4479 0.65129 0.94258 0.0
H622 H 0.50238 0.65131 0.9275 0.0
H623 H 0.45957 0.60729 0.97253 0.0
H624 H 0.45626 0.54002 0.91374 0.0
H625 H 0.49905 0.58395 0.86855 0.0
H626 H 0.44228 0.53802 0.84367 0.0
H627 H 0.35159 0.61804 0.76102 0.0
H628 H 0.42098 0.67753 0.70953 0.0
H629 H 0.51653 0.66751 0.82449 0.0
C630 C 0.36011 0.53286 0.93786 0.0
C631 C 0.30993 0.51236 0.9397 0.0
C632 C 0.28666 0.52495 0.90044 0.0
C633 C 0.31207 0.55576 0.85849 0.0
C634 C 0.36129 0.57516 0.85742 0.0
C635 C 0.38542 0.56522 0.89657 0.0
C636 C 0.43901 0.59456 0.88807 0.0
C637 C 0.46364 0.62809 0.93549 0.0
C638 C 0.4604 0.5622 0.8779 0.0
C639 C 0.44085 0.62228 0.8381 0.0
C640 C 0.39544 0.60957 0.82064 0.0
C641 C 0.38739 0.6287 0.77443 0.0
C642 C 0.42691 0.66225 0.74541 0.0
C643 C 0.47373 0.67706 0.76342 0.0
C644 C 0.4809 0.65694 0.81038 0.0
H645 H 0.76151 0.31323 0.29718 0.0
H646 H 0.91428 0.37551 0.31815 0.0
H647 H 0.92824 0.43006 0.24232 0.0
H648 H 0.76195 0.32265 0.14867 0.0
H649 H 0.71496 0.33716 0.14956 0.0
H650 H 0.71811 0.29979 0.2013 0.0
H651 H 0.71838 0.35868 0.27219 0.0
H652 H 0.71666 0.39625 0.21994 0.0
H653 H 0.76387 0.42066 0.26888 0.0
H654 H 0.92614 0.47932 0.16586 0.0
H655 H 0.90717 0.52549 0.1004 0.0
H656 H 0.75641 0.43349 0.13109 0.0
C657 C 0.79781 0.33758 0.28485 0.0
C658 C 0.83679 0.33972 0.31284 0.0
C659 C 0.88388 0.3732 0.29701 0.0
C660 C 0.89221 0.40394 0.25363 0.0
C661 C 0.85308 0.40078 0.22648 0.0
C662 C 0.80677 0.36873 0.24168 0.0
C663 C 0.77115 0.37558 0.20881 0.0
C664 C 0.73968 0.33113 0.17512 0.0
C665 C 0.74075 0.38858 0.2446 0.0
C666 C 0.80471 0.41718 0.17377 0.0
C667 C 0.85183 0.43053 0.18378 0.0
C668 C 0.88937 0.46891 0.15728 0.0
C669 C 0.87841 0.49477 0.12016 0.0
C670 C 0.8305 0.48229 0.11068 0.0
C671 C 0.79328 0.44297 0.13741 0.0
H672 H 0.31692 0.7505 0.47345 0.0
H673 H 0.38817 0.89164 0.40252 0.0
H674 H 0.45999 0.91281 0.45771 0.0
H675 H 0.36051 0.78088 0.60369 0.0
H676 H 0.36894 0.73046 0.61486 0.0
H677 H 0.32431 0.72597 0.5683 0.0
H678 H 0.36263 0.70097 0.49343 0.0
H679 H 0.40714 0.705 0.54007 0.0
H680 H 0.42513 0.73839 0.47843 0.0
H681 H 0.51952 0.92074 0.52862 0.0
H682 H 0.56778 0.91175 0.60014 0.0
H683 H 0.45998 0.76304 0.61863 0.0
C684 C 0.34798 0.78562 0.46919 0.0
C685 C 0.34743 0.81965 0.43416 0.0
C686 C 0.38841 0.86519 0.42909 0.0
C687 C 0.4291 0.87746 0.46034 0.0
C688 C 0.42837 0.84326 0.49521 0.0
C689 C 0.38928 0.79788 0.49879 0.0
C690 C 0.39774 0.76753 0.5388 0.0
C691 C 0.36068 0.75022 0.58409 0.0
C692 C 0.39818 0.72549 0.511 0.0
C693 C 0.44696 0.8034 0.55872 0.0
C694 C 0.46396 0.84695 0.53331 0.0
C695 C 0.50722 0.88651 0.54775 0.0
C696 C 0.53412 0.8812 0.58862 0.0
C697 C 0.51765 0.83662 0.61425 0.0
C698 C 0.47368 0.79728 0.59889 0.0
H699 H 0.62741 0.48952 0.95786 0.0
H700 H 0.7371 0.44943 0.96047 0.0
H701 H 0.69474 0.39016 0.89049 0.0
H702 H 0.53067 0.36768 0.94596 0.0
H703 H 0.49448 0.38275 0.90419 0.0
H704 H 0.53551 0.42548 0.95134 0.0
H705 H 0.57442 0.48652 0.8749 0.0
H706 H 0.53472 0.44406 0.82667 0.0
H707 H 0.5984 0.47196 0.81774 0.0
H708 H 0.64275 0.33677 0.82007 0.0
H709 H 0.57634 0.28244 0.76114 0.0
H710 H 0.4947 0.34887 0.80997 0.0
C711 C 0.6424 0.46831 0.94338 0.0
C712 C 0.68656 0.4754 0.9627 0.0
C713 C 0.70449 0.44611 0.94425 0.0
C714 C 0.68054 0.41209 0.90479 0.0
C715 C 0.6378 0.40668 0.88544 0.0
C716 C 0.61807 0.43295 0.90486 0.0
C717 C 0.56948 0.4167 0.88006 0.0
C718 C 0.53022 0.39697 0.92295 0.0
C719 C 0.56929 0.45723 0.84788 0.0
C720 C 0.56537 0.37746 0.84375 0.0
C721 C 0.60569 0.37302 0.84696 0.0
C722 C 0.61084 0.33962 0.81724 0.0
C723 C 0.57324 0.30915 0.78393 0.0
C724 C 0.53116 0.31204 0.78148 0.0
C725 C 0.527 0.34656 0.81139 0.0
loop_
_geom_bond_atom_site_label_1
_geom_bond_atom_site_label_2
_geom_bond_distance
_geom_bond_site_symmetry_2
_ccdc_geom_bond_type
Tb0 C2 2.809 . S
Tb0 O20 2.484 . S
Tb0 O21 2.440 . S
Tb0 O22 2.658 1_556 S
Tb0 O23 2.409 . S
Tb0 O24 2.378 . S
Tb0 O28 2.325 . S
Tb0 O31 2.341 1_556 S
Tb1 C11 2.809 . S
Tb1 O22 2.325 . S
Tb1 O25 2.341 1_554 S
Tb1 O26 2.484 . S
Tb1 O27 2.440 . S
Tb1 O28 2.658 1_554 S
Tb1 O29 2.409 . S
Tb1 O30 2.378 . S
C2 Tb0 2.809 . S
C2 C3 1.514 . S
C2 O20 1.248 . S
C2 O21 1.266 . S
C3 C2 1.514 . S
C3 C4 1.359 . S
C3 C8 1.348 . S
C4 C3 1.359 . S
C4 C5 1.380 . S
C4 H32 0.929 . S
C5 C4 1.380 . S
C5 C6 1.347 . S
C5 H33 0.931 . S
C6 C5 1.347 . S
C6 C7 1.369 . S
C7 C6 1.369 . S
C7 C8 1.408 . S
C7 H34 0.930 . S
C8 C3 1.348 . S
C8 C7 1.408 . S
C8 H35 0.930 . S
C9 O22 1.281 . S
C9 O23 1.254 1_554 S
C10 O24 1.236 . S
C10 O25 1.266 . S
C11 Tb1 2.809 . S
C11 C12 1.514 . S
C11 O26 1.248 . S
C11 O27 1.266 . S
C12 C11 1.514 . S
C12 C13 1.359 . S
C12 C17 1.348 . S
C13 C12 1.359 . S
C13 C14 1.380 . S
C13 H36 0.929 . S
C14 C13 1.380 . S
C14 C15 1.347 . S
C14 H37 0.931 . S
C15 C14 1.347 . S
C15 C16 1.369 . S
C16 C15 1.369 . S
C16 C17 1.408 . S
C16 H38 0.930 . S
C17 C12 1.348 . S
C17 C16 1.408 . S
C17 H39 0.930 . S
C18 O28 1.281 . S
C18 O29 1.254 1_556 S
C19 O30 1.236 . S
C19 O31 1.266 . S
O20 Tb0 2.484 . S
O20 C2 1.248 . S
O21 Tb0 2.440 . S
O21 C2 1.266 . S
O22 Tb0 2.658 1_554 S
O22 Tb1 2.325 . S
O22 C9 1.281 . S
O23 Tb0 2.409 . S
O23 C9 1.254 1_556 S
O24 Tb0 2.378 . S
O24 C10 1.236 . S
O25 Tb1 2.341 1_556 S
O25 C10 1.266 . S
O26 Tb1 2.484 . S
O26 C11 1.248 . S
O27 Tb1 2.440 . S
O27 C11 1.266 . S
O28 Tb0 2.325 . S
O28 Tb1 2.658 1_556 S
O28 C18 1.281 . S
O29 Tb1 2.409 . S
O29 C18 1.254 1_554 S
O30 Tb1 2.378 . S
O30 C19 1.236 . S
O31 Tb0 2.341 1_554 S
O31 C19 1.266 . S
H32 C4 0.929 . S
H33 C5 0.931 . S
H34 C7 0.930 . S
H35 C8 0.930 . S
H36 C13 0.929 . S
H37 C14 0.931 . S
H38 C16 0.930 . S
H39 C17 0.930 . S
Tb40 C42 2.809 . S
Tb40 O60 2.484 . S
Tb40 O61 2.440 . S
Tb40 O62 2.658 . S
Tb40 O63 2.409 . S
Tb40 O64 2.378 . S
Tb40 O68 2.325 . S
Tb40 O71 2.341 . S
Tb41 C51 2.809 . S
Tb41 O62 2.325 . S
Tb41 O65 2.341 . S
Tb41 O66 2.484 . S
Tb41 O67 2.440 . S
Tb41 O68 2.658 . S
Tb41 O69 2.409 . S
Tb41 O70 2.378 . S
C42 Tb40 2.809 . S
C42 C43 1.514 . S
C42 O60 1.248 . S
C42 O61 1.266 . S
C43 C42 1.514 . S
C43 C44 1.359 . S
C43 C48 1.348 . S
C44 C43 1.359 . S
C44 C45 1.380 . S
C44 H72 0.929 . S
C45 C44 1.380 . S
C45 C46 1.347 . S
C45 H73 0.931 . S
C46 C45 1.347 . S
C46 C47 1.369 . S
C47 C46 1.369 . S
C47 C48 1.408 . S
C47 H74 0.930 . S
C48 C43 1.348 . S
C48 C47 1.408 . S
C48 H75 0.930 . S
C49 O62 1.281 . S
C49 O63 1.254 . S
C50 O64 1.236 . S
C50 O65 1.266 . S
C51 Tb41 2.809 . S
C51 C52 1.514 . S
C51 O66 1.248 . S
C51 O67 1.266 . S
C52 C51 1.514 . S
C52 C53 1.359 . S
C52 C57 1.348 . S
C53 C52 1.359 . S
C53 C54 1.380 . S
C53 H76 0.929 . S
C54 C53 1.380 . S
C54 C55 1.347 . S
C54 H77 0.931 . S
C55 C54 1.347 . S
C55 C56 1.369 . S
C56 C55 1.369 . S
C56 C57 1.408 . S
C56 H78 0.930 . S
C57 C52 1.348 . S
C57 C56 1.408 . S
C57 H79 0.930 . S
C58 O68 1.281 . S
C58 O69 1.254 . S
C59 O70 1.236 . S
C59 O71 1.266 . S
O60 Tb40 2.484 . S
O60 C42 1.248 . S
O61 Tb40 2.440 . S
O61 C42 1.266 . S
O62 Tb40 2.658 . S
O62 Tb41 2.325 . S
O62 C49 1.281 . S
O63 Tb40 2.409 . S
O63 C49 1.254 . S
O64 Tb40 2.378 . S
O64 C50 1.236 . S
O65 Tb41 2.341 . S
O65 C50 1.266 . S
O66 Tb41 2.484 . S
O66 C51 1.248 . S
O67 Tb41 2.440 . S
O67 C51 1.266 . S
O68 Tb40 2.325 . S
O68 Tb41 2.658 . S
O68 C58 1.281 . S
O69 Tb41 2.409 . S
O69 C58 1.254 . S
O70 Tb41 2.378 . S
O70 C59 1.236 . S
O71 Tb40 2.341 . S
O71 C59 1.266 . S
H72 C44 0.929 . S
H73 C45 0.931 . S
H74 C47 0.930 . S
H75 C48 0.930 . S
H76 C53 0.929 . S
H77 C54 0.931 . S
H78 C56 0.930 . S
H79 C57 0.930 . S
Tb80 C82 2.809 . S
Tb80 O100 2.484 . S
Tb80 O101 2.440 . S
Tb80 O102 2.658 . S
Tb80 O103 2.409 . S
Tb80 O104 2.378 . S
Tb80 O108 2.325 . S
Tb80 O111 2.341 . S
Tb81 C91 2.809 . S
Tb81 O102 2.325 . S
Tb81 O105 2.341 . S
Tb81 O106 2.484 . S
Tb81 O107 2.440 . S
Tb81 O108 2.658 . S
Tb81 O109 2.409 . S
Tb81 O110 2.378 . S
C82 Tb80 2.809 . S
C82 C83 1.514 . S
C82 O100 1.248 . S
C82 O101 1.266 . S
C83 C82 1.514 . S
C83 C84 1.359 . S
C83 C88 1.348 . S
C84 C83 1.359 . S
C84 C85 1.380 . S
C84 H112 0.929 . S
C85 C84 1.380 . S
C85 C86 1.347 . S
C85 H113 0.931 . S
C86 C85 1.347 . S
C86 C87 1.369 . S
C87 C86 1.369 . S
C87 C88 1.408 . S
C87 H114 0.930 . S
C88 C83 1.348 . S
C88 C87 1.408 . S
C88 H115 0.930 . S
C89 O102 1.281 . S
C89 O103 1.254 . S
C90 O104 1.236 . S
C90 O105 1.266 . S
C91 Tb81 2.809 . S
C91 C92 1.514 . S
C91 O106 1.248 . S
C91 O107 1.266 . S
C92 C91 1.514 . S
C92 C93 1.359 . S
C92 C97 1.348 . S
C93 C92 1.359 . S
C93 C94 1.380 . S
C93 H116 0.929 . S
C94 C93 1.380 . S
C94 C95 1.347 1_556 S
C94 H117 0.931 1_556 S
C95 C94 1.347 1_554 S
C95 C96 1.369 1_554 S
C96 C95 1.369 1_556 S
C96 C97 1.408 . S
C96 H118 0.930 . S
C97 C92 1.348 . S
C97 C96 1.408 . S
C97 H119 0.930 . S
C98 O108 1.281 . S
C98 O109 1.254 . S
C99 O110 1.236 . S
C99 O111 1.266 . S
O100 Tb80 2.484 . S
O100 C82 1.248 . S
O101 Tb80 2.440 . S
O101 C82 1.266 . S
O102 Tb80 2.658 . S
O102 Tb81 2.325 . S
O102 C89 1.281 . S
O103 Tb80 2.409 . S
O103 C89 1.254 . S
O104 Tb80 2.378 . S
O104 C90 1.236 . S
O105 Tb81 2.341 . S
O105 C90 1.266 . S
O106 Tb81 2.484 . S
O106 C91 1.248 . S
O107 Tb81 2.440 . S
O107 C91 1.266 . S
O108 Tb80 2.325 . S
O108 Tb81 2.658 . S
O108 C98 1.281 . S
O109 Tb81 2.409 . S
O109 C98 1.254 . S
O110 Tb81 2.378 . S
O110 C99 1.236 . S
O111 Tb80 2.341 . S
O111 C99 1.266 . S
H112 C84 0.929 . S
H113 C85 0.931 . S
H114 C87 0.930 . S
H115 C88 0.930 . S
H116 C93 0.929 . S
H117 C94 0.931 1_554 S
H118 C96 0.930 . S
H119 C97 0.930 . S
Tb120 C122 2.809 . S
Tb120 O140 2.484 . S
Tb120 O141 2.440 . S
Tb120 O142 2.658 1_556 S
Tb120 O143 2.409 . S
Tb120 O144 2.378 . S
Tb120 O148 2.325 . S
Tb120 O151 2.341 1_556 S
Tb121 C131 2.809 . S
Tb121 O142 2.325 . S
Tb121 O145 2.341 1_554 S
Tb121 O146 2.484 . S
Tb121 O147 2.440 . S
Tb121 O148 2.658 1_554 S
Tb121 O149 2.409 . S
Tb121 O150 2.378 . S
C122 Tb120 2.809 . S
C122 C123 1.514 . S
C122 O140 1.248 . S
C122 O141 1.266 . S
C123 C122 1.514 . S
C123 C124 1.359 . S
C123 C128 1.348 . S
C124 C123 1.359 . S
C124 C125 1.380 . S
C124 H152 0.929 . S
C125 C124 1.380 . S
C125 C126 1.347 . S
C125 H153 0.931 . S
C126 C125 1.347 . S
C126 C127 1.369 . S
C127 C126 1.369 . S
C127 C128 1.408 . S
C127 H154 0.930 . S
C128 C123 1.348 . S
C128 C127 1.408 . S
C128 H155 0.930 . S
C129 O142 1.281 . S
C129 O143 1.254 1_554 S
C130 O144 1.236 . S
C130 O145 1.266 . S
C131 Tb121 2.809 . S
C131 C132 1.514 . S
C131 O146 1.248 . S
C131 O147 1.266 . S
C132 C131 1.514 . S
C132 C133 1.359 . S
C132 C137 1.348 . S
C133 C132 1.359 . S
C133 C134 1.380 . S
C133 H156 0.929 . S
C134 C133 1.380 . S
C134 C135 1.347 . S
C134 H157 0.931 . S
C135 C134 1.347 . S
C135 C136 1.369 . S
C136 C135 1.369 . S
C136 C137 1.408 . S
C136 H158 0.930 . S
C137 C132 1.348 . S
C137 C136 1.408 . S
C137 H159 0.930 . S
C138 O148 1.281 . S
C138 O149 1.254 1_556 S
C139 O150 1.236 . S
C139 O151 1.266 . S
O140 Tb120 2.484 . S
O140 C122 1.248 . S
O141 Tb120 2.440 . S
O141 C122 1.266 . S
O142 Tb120 2.658 1_554 S
O142 Tb121 2.325 . S
O142 C129 1.281 . S
O143 Tb120 2.409 . S
O143 C129 1.254 1_556 S
O144 Tb120 2.378 . S
O144 C130 1.236 . S
O145 Tb121 2.341 1_556 S
O145 C130 1.266 . S
O146 Tb121 2.484 . S
O146 C131 1.248 . S
O147 Tb121 2.440 . S
O147 C131 1.266 . S
O148 Tb120 2.325 . S
O148 Tb121 2.658 1_556 S
O148 C138 1.281 . S
O149 Tb121 2.409 . S
O149 C138 1.254 1_554 S
O150 Tb121 2.378 . S
O150 C139 1.236 . S
O151 Tb120 2.341 1_554 S
O151 C139 1.266 . S
H152 C124 0.929 . S
H153 C125 0.931 . S
H154 C127 0.930 . S
H155 C128 0.930 . S
H156 C133 0.929 . S
H157 C134 0.931 . S
H158 C136 0.930 . S
H159 C137 0.930 . S
Tb160 C162 2.809 . S
Tb160 O180 2.484 . S
Tb160 O181 2.440 . S
Tb160 O182 2.658 . S
Tb160 O183 2.409 . S
Tb160 O184 2.378 . S
Tb160 O188 2.325 . S
Tb160 O191 2.341 . S
Tb161 C171 2.809 . S
Tb161 O182 2.325 . S
Tb161 O185 2.341 . S
Tb161 O186 2.484 . S
Tb161 O187 2.440 . S
Tb161 O188 2.658 . S
Tb161 O189 2.409 . S
Tb161 O190 2.378 . S
C162 Tb160 2.809 . S
C162 C163 1.514 . S
C162 O180 1.248 . S
C162 O181 1.266 . S
C163 C162 1.514 . S
C163 C164 1.359 . S
C163 C168 1.348 . S
C164 C163 1.359 . S
C164 C165 1.380 . S
C164 H192 0.929 . S
C165 C164 1.380 . S
C165 C166 1.347 . S
C165 H193 0.931 . S
C166 C165 1.347 . S
C166 C167 1.369 . S
C167 C166 1.369 . S
C167 C168 1.408 . S
C167 H194 0.930 . S
C168 C163 1.348 . S
C168 C167 1.408 . S
C168 H195 0.930 . S
C169 O182 1.281 . S
C169 O183 1.254 . S
C170 O184 1.236 . S
C170 O185 1.266 . S
C171 Tb161 2.809 . S
C171 C172 1.514 . S
C171 O186 1.248 . S
C171 O187 1.266 . S
C172 C171 1.514 . S
C172 C173 1.359 . S
C172 C177 1.348 . S
C173 C172 1.359 . S
C173 C174 1.380 . S
C173 H196 0.929 . S
C174 C173 1.380 . S
C174 C175 1.347 . S
C174 H197 0.931 . S
C175 C174 1.347 . S
C175 C176 1.369 . S
C176 C175 1.369 . S
C176 C177 1.408 . S
C176 H198 0.930 . S
C177 C172 1.348 . S
C177 C176 1.408 . S
C177 H199 0.930 . S
C178 O188 1.281 . S
C178 O189 1.254 . S
C179 O190 1.236 . S
C179 O191 1.266 . S
O180 Tb160 2.484 . S
O180 C162 1.248 . S
O181 Tb160 2.440 . S
O181 C162 1.266 . S
O182 Tb160 2.658 . S
O182 Tb161 2.325 . S
O182 C169 1.281 . S
O183 Tb160 2.409 . S
O183 C169 1.254 . S
O184 Tb160 2.378 . S
O184 C170 1.236 . S
O185 Tb161 2.341 . S
O185 C170 1.266 . S
O186 Tb161 2.484 . S
O186 C171 1.248 . S
O187 Tb161 2.440 . S
O187 C171 1.266 . S
O188 Tb160 2.325 . S
O188 Tb161 2.658 . S
O188 C178 1.281 . S
O189 Tb161 2.409 . S
O189 C178 1.254 . S
O190 Tb161 2.378 . S
O190 C179 1.236 . S
O191 Tb160 2.341 . S
O191 C179 1.266 . S
H192 C164 0.929 . S
H193 C165 0.931 . S
H194 C167 0.930 . S
H195 C168 0.930 . S
H196 C173 0.929 . S
H197 C174 0.931 . S
H198 C176 0.930 . S
H199 C177 0.930 . S
Tb200 C202 2.809 . S
Tb200 O220 2.484 . S
Tb200 O221 2.440 . S
Tb200 O222 2.658 . S
Tb200 O223 2.409 . S
Tb200 O224 2.378 . S
Tb200 O228 2.325 . S
Tb200 O231 2.341 . S
Tb201 C211 2.809 . S
Tb201 O222 2.325 . S
Tb201 O225 2.341 . S
Tb201 O226 2.484 . S
Tb201 O227 2.440 . S
Tb201 O228 2.658 . S
Tb201 O229 2.409 . S
Tb201 O230 2.378 . S
C202 Tb200 2.809 . S
C202 C203 1.514 . S
C202 O220 1.248 . S
C202 O221 1.266 . S
C203 C202 1.514 . S
C203 C204 1.359 . S
C203 C208 1.348 . S
C204 C203 1.359 . S
C204 C205 1.380 . S
C204 H232 0.929 . S
C205 C204 1.380 . S
C205 C206 1.347 . S
C205 H233 0.931 . S
C206 C205 1.347 . S
C206 C207 1.369 . S
C207 C206 1.369 . S
C207 C208 1.408 . S
C207 H234 0.930 . S
C208 C203 1.348 . S
C208 C207 1.408 . S
C208 H235 0.930 . S
C209 O222 1.281 . S
C209 O223 1.254 . S
C210 O224 1.236 . S
C210 O225 1.266 . S
C211 Tb201 2.809 . S
C211 C212 1.514 . S
C211 O226 1.248 . S
C211 O227 1.266 . S
C212 C211 1.514 . S
C212 C213 1.359 . S
C212 C217 1.348 . S
C213 C212 1.359 . S
C213 C214 1.380 . S
C213 H236 0.929 . S
C214 C213 1.380 . S
C214 C215 1.347 1_556 S
C214 H237 0.931 1_556 S
C215 C214 1.347 1_554 S
C215 C216 1.369 1_554 S
C216 C215 1.369 1_556 S
C216 C217 1.408 . S
C216 H238 0.930 . S
C217 C212 1.348 . S
C217 C216 1.408 . S
C217 H239 0.930 . S
C218 O228 1.281 . S
C218 O229 1.254 . S
C219 O230 1.236 . S
C219 O231 1.266 . S
O220 Tb200 2.484 . S
O220 C202 1.248 . S
O221 Tb200 2.440 . S
O221 C202 1.266 . S
O222 Tb200 2.658 . S
O222 Tb201 2.325 . S
O222 C209 1.281 . S
O223 Tb200 2.409 . S
O223 C209 1.254 . S
O224 Tb200 2.378 . S
O224 C210 1.236 . S
O225 Tb201 2.341 . S
O225 C210 1.266 . S
O226 Tb201 2.484 . S
O226 C211 1.248 . S
O227 Tb201 2.440 . S
O227 C211 1.266 . S
O228 Tb200 2.325 . S
O228 Tb201 2.658 . S
O228 C218 1.281 . S
O229 Tb201 2.409 . S
O229 C218 1.254 . S
O230 Tb201 2.378 . S
O230 C219 1.236 . S
O231 Tb200 2.341 . S
O231 C219 1.266 . S
H232 C204 0.929 . S
H233 C205 0.931 . S
H234 C207 0.930 . S
H235 C208 0.930 . S
H236 C213 0.929 . S
H237 C214 0.931 1_554 S
H238 C216 0.930 . S
H239 C217 0.930 . S
H240 C252 0.930 . S
H241 C254 0.930 . S
H242 C255 0.930 . S
H243 C259 0.959 . S
H244 C259 0.959 . S
H245 C259 0.961 . S
H246 C260 0.960 . S
H247 C260 0.961 . S
H248 C260 0.959 . S
H249 C263 0.929 . S
H250 C264 0.931 . S
H251 C266 0.930 . S
C252 H240 0.930 . S
C252 C253 1.399 . S
C252 C257 1.399 . S
C253 C252 1.399 . S
C253 C254 1.376 . S
C254 H241 0.930 . S
C254 C253 1.376 . S
C254 C255 1.388 . S
C255 H242 0.930 . S
C255 C254 1.388 . S
C255 C256 1.390 . S
C256 C255 1.390 . S
C256 C257 1.394 . S
C256 C262 1.465 . S
C257 C252 1.399 . S
C257 C256 1.394 . S
C257 C258 1.516 . S
C258 C257 1.516 . S
C258 C259 1.502 . S
C258 C260 1.561 . S
C258 C261 1.526 . S
C259 H243 0.959 . S
C259 H244 0.959 . S
C259 H245 0.961 . S
C259 C258 1.502 . S
C260 H246 0.960 . S
C260 H247 0.961 . S
C260 H248 0.959 . S
C260 C258 1.561 . S
C261 C258 1.526 . S
C261 C262 1.396 . S
C261 C266 1.390 . S
C262 C256 1.465 . S
C262 C261 1.396 . S
C262 C263 1.399 . S
C263 H249 0.929 . S
C263 C262 1.399 . S
C263 C264 1.385 . S
C264 H250 0.931 . S
C264 C263 1.385 . S
C264 C265 1.389 . S
C265 C264 1.389 . S
C265 C266 1.387 . S
C266 H251 0.930 . S
C266 C261 1.390 . S
C266 C265 1.387 . S
H267 C279 0.930 . S
H268 C281 0.930 . S
H269 C282 0.930 1_655 S
H270 C286 0.959 . S
H271 C286 0.959 . S
H272 C286 0.961 . S
H273 C287 0.960 1_455 S
H274 C287 0.961 . S
H275 C287 0.959 . S
H276 C290 0.929 . S
H277 C291 0.931 . S
H278 C293 0.930 . S
C279 H267 0.930 . S
C279 C280 1.399 . S
C279 C284 1.399 . S
C280 C279 1.399 . S
C280 C281 1.376 . S
C281 H268 0.930 . S
C281 C280 1.376 . S
C281 C282 1.388 . S
C282 H269 0.930 1_455 S
C282 C281 1.388 . S
C282 C283 1.390 . S
C283 C282 1.390 . S
C283 C284 1.394 . S
C283 C289 1.465 1_455 S
C284 C279 1.399 . S
C284 C283 1.394 . S
C284 C285 1.516 . S
C285 C284 1.516 . S
C285 C286 1.502 . S
C285 C287 1.561 1_455 S
C285 C288 1.526 1_455 S
C286 H270 0.959 . S
C286 H271 0.959 . S
C286 H272 0.961 . S
C286 C285 1.502 . S
C287 H273 0.960 1_655 S
C287 H274 0.961 . S
C287 H275 0.959 . S
C287 C285 1.561 1_655 S
C288 C285 1.526 1_655 S
C288 C289 1.396 . S
C288 C293 1.390 . S
C289 C283 1.465 1_655 S
C289 C288 1.396 . S
C289 C290 1.399 . S
C290 H276 0.929 . S
C290 C289 1.399 . S
C290 C291 1.385 . S
C291 H277 0.931 . S
C291 C290 1.385 . S
C291 C292 1.389 . S
C292 C291 1.389 . S
C292 C293 1.387 . S
C293 H278 0.930 . S
C293 C288 1.390 . S
C293 C292 1.387 . S
H294 C306 0.930 . S
H295 C308 0.930 . S
H296 C309 0.930 . S
H297 C313 0.959 . S
H298 C313 0.959 . S
H299 C313 0.961 . S
H300 C314 0.960 1_545 S
H301 C314 0.961 . S
H302 C314 0.959 1_545 S
H303 C317 0.929 1_545 S
H304 C318 0.931 . S
H305 C320 0.930 . S
C306 H294 0.930 . S
C306 C307 1.399 . S
C306 C311 1.399 . S
C307 C306 1.399 . S
C307 C308 1.376 . S
C308 H295 0.930 . S
C308 C307 1.376 . S
C308 C309 1.388 . S
C309 H296 0.930 . S
C309 C308 1.388 . S
C309 C310 1.390 . S
C310 C309 1.390 . S
C310 C311 1.394 . S
C310 C316 1.465 1_545 S
C311 C306 1.399 . S
C311 C310 1.394 . S
C311 C312 1.516 1_545 S
C312 C311 1.516 1_565 S
C312 C313 1.502 . S
C312 C314 1.561 . S
C312 C315 1.526 . S
C313 H297 0.959 . S
C313 H298 0.959 . S
C313 H299 0.961 . S
C313 C312 1.502 . S
C314 H300 0.960 1_565 S
C314 H301 0.961 . S
C314 H302 0.959 1_565 S
C314 C312 1.561 . S
C315 C312 1.526 . S
C315 C316 1.396 . S
C315 C320 1.390 . S
C316 C310 1.465 1_565 S
C316 C315 1.396 . S
C316 C317 1.399 . S
C317 H303 0.929 1_565 S
C317 C316 1.399 . S
C317 C318 1.385 . S
C318 H304 0.931 . S
C318 C317 1.385 . S
C318 C319 1.389 . S
C319 C318 1.389 . S
C319 C320 1.387 . S
C320 H305 0.930 . S
C320 C315 1.390 . S
C320 C319 1.387 . S
H321 C333 0.930 . S
H322 C335 0.930 . S
H323 C336 0.930 . S
H324 C340 0.959 . S
H325 C340 0.959 . S
H326 C340 0.961 . S
H327 C341 0.960 . S
H328 C341 0.961 . S
H329 C341 0.959 . S
H330 C344 0.929 . S
H331 C345 0.931 . S
H332 C347 0.930 . S
C333 H321 0.930 . S
C333 C334 1.399 . S
C333 C338 1.399 . S
C334 C333 1.399 . S
C334 C335 1.376 . S
C335 H322 0.930 . S
C335 C334 1.376 . S
C335 C336 1.388 . S
C336 H323 0.930 . S
C336 C335 1.388 . S
C336 C337 1.390 . S
C337 C336 1.390 . S
C337 C338 1.394 . S
C337 C343 1.465 . S
C338 C333 1.399 . S
C338 C337 1.394 . S
C338 C339 1.516 . S
C339 C338 1.516 . S
C339 C340 1.502 . S
C339 C341 1.561 . S
C339 C342 1.526 . S
C340 H324 0.959 . S
C340 H325 0.959 . S
C340 H326 0.961 . S
C340 C339 1.502 . S
C341 H327 0.960 . S
C341 H328 0.961 . S
C341 H329 0.959 . S
C341 C339 1.561 . S
C342 C339 1.526 . S
C342 C343 1.396 . S
C342 C347 1.390 . S
C343 C337 1.465 . S
C343 C342 1.396 . S
C343 C344 1.399 . S
C344 H330 0.929 . S
C344 C343 1.399 . S
C344 C345 1.385 . S
C345 H331 0.931 . S
C345 C344 1.385 . S
C345 C346 1.389 . S
C346 C345 1.389 . S
C346 C347 1.387 . S
C347 H332 0.930 . S
C347 C342 1.390 . S
C347 C346 1.387 . S
H348 C360 0.930 . S
H349 C362 0.930 . S
H350 C363 0.930 . S
H351 C367 0.959 . S
H352 C367 0.959 . S
H353 C367 0.961 . S
H354 C368 0.960 1_455 S
H355 C368 0.961 . S
H356 C368 0.959 . S
H357 C371 0.929 . S
H358 C372 0.931 . S
H359 C374 0.930 . S
C360 H348 0.930 . S
C360 C361 1.399 . S
C360 C365 1.399 . S
C361 C360 1.399 . S
C361 C362 1.376 . S
C362 H349 0.930 . S
C362 C361 1.376 . S
C362 C363 1.388 . S
C363 H350 0.930 . S
C363 C362 1.388 . S
C363 C364 1.390 . S
C364 C363 1.390 . S
C364 C365 1.394 . S
C364 C370 1.465 1_455 S
C365 C360 1.399 . S
C365 C364 1.394 . S
C365 C366 1.516 . S
C366 C365 1.516 . S
C366 C367 1.502 . S
C366 C368 1.561 1_455 S
C366 C369 1.526 1_455 S
C367 H351 0.959 . S
C367 H352 0.959 . S
C367 H353 0.961 . S
C367 C366 1.502 . S
C368 H354 0.960 1_655 S
C368 H355 0.961 . S
C368 H356 0.959 . S
C368 C366 1.561 1_655 S
C369 C366 1.526 1_655 S
C369 C370 1.396 . S
C369 C374 1.390 . S
C370 C364 1.465 1_655 S
C370 C369 1.396 . S
C370 C371 1.399 . S
C371 H357 0.929 . S
C371 C370 1.399 . S
C371 C372 1.385 . S
C372 H358 0.931 . S
C372 C371 1.385 . S
C372 C373 1.389 . S
C373 C372 1.389 . S
C373 C374 1.387 . S
C374 H359 0.930 . S
C374 C369 1.390 . S
C374 C373 1.387 . S
H375 C387 0.930 . S
H376 C389 0.930 . S
H377 C390 0.930 1_565 S
H378 C394 0.959 . S
H379 C394 0.959 . S
H380 C394 0.961 . S
H381 C395 0.960 . S
H382 C395 0.961 . S
H383 C395 0.959 . S
H384 C398 0.929 . S
H385 C399 0.931 . S
H386 C401 0.930 . S
C387 H375 0.930 . S
C387 C388 1.399 . S
C387 C392 1.399 . S
C388 C387 1.399 . S
C388 C389 1.376 . S
C389 H376 0.930 . S
C389 C388 1.376 . S
C389 C390 1.388 . S
C390 H377 0.930 1_545 S
C390 C389 1.388 . S
C390 C391 1.390 . S
C391 C390 1.390 . S
C391 C392 1.394 . S
C391 C397 1.465 1_545 S
C392 C387 1.399 . S
C392 C391 1.394 . S
C392 C393 1.516 . S
C393 C392 1.516 . S
C393 C394 1.502 . S
C393 C395 1.561 . S
C393 C396 1.526 1_545 S
C394 H378 0.959 . S
C394 H379 0.959 . S
C394 H380 0.961 . S
C394 C393 1.502 . S
C395 H381 0.960 . S
C395 H382 0.961 . S
C395 H383 0.959 . S
C395 C393 1.561 . S
C396 C393 1.526 1_565 S
C396 C397 1.396 . S
C396 C401 1.390 . S
C397 C391 1.465 1_565 S
C397 C396 1.396 . S
C397 C398 1.399 . S
C398 H384 0.929 . S
C398 C397 1.399 . S
C398 C399 1.385 . S
C399 H385 0.931 . S
C399 C398 1.385 . S
C399 C400 1.389 . S
C400 C399 1.389 . S
C400 C401 1.387 . S
C401 H386 0.930 . S
C401 C396 1.390 . S
C401 C400 1.387 . S
H402 C414 0.930 . S
H403 C416 0.930 . S
H404 C417 0.930 . S
H405 C421 0.959 . S
H406 C421 0.959 . S
H407 C421 0.961 . S
H408 C422 0.960 . S
H409 C422 0.961 . S
H410 C422 0.959 . S
H411 C425 0.929 . S
H412 C426 0.931 . S
H413 C428 0.930 . S
C414 H402 0.930 . S
C414 C415 1.399 . S
C414 C419 1.399 . S
C415 C414 1.399 . S
C415 C416 1.376 . S
C416 H403 0.930 . S
C416 C415 1.376 . S
C416 C417 1.388 . S
C417 H404 0.930 . S
C417 C416 1.388 . S
C417 C418 1.390 . S
C418 C417 1.390 . S
C418 C419 1.394 . S
C418 C424 1.465 . S
C419 C414 1.399 . S
C419 C418 1.394 . S
C419 C420 1.516 . S
C420 C419 1.516 . S
C420 C421 1.502 . S
C420 C422 1.561 . S
C420 C423 1.526 . S
C421 H405 0.959 . S
C421 H406 0.959 . S
C421 H407 0.961 . S
C421 C420 1.502 . S
C422 H408 0.960 . S
C422 H409 0.961 . S
C422 H410 0.959 . S
C422 C420 1.561 . S
C423 C420 1.526 . S
C423 C424 1.396 . S
C423 C428 1.390 . S
C424 C418 1.465 . S
C424 C423 1.396 . S
C424 C425 1.399 . S
C425 H411 0.929 . S
C425 C424 1.399 . S
C425 C426 1.385 . S
C426 H412 0.931 . S
C426 C425 1.385 . S
C426 C427 1.389 . S
C427 C426 1.389 . S
C427 C428 1.387 . S
C428 H413 0.930 . S
C428 C423 1.390 . S
C428 C427 1.387 . S
H429 C441 0.930 . S
H430 C443 0.930 1_554 S
H431 C444 0.930 . S
H432 C448 0.959 . S
H433 C448 0.959 . S
H434 C448 0.961 . S
H435 C449 0.960 . S
H436 C449 0.961 . S
H437 C449 0.959 . S
H438 C452 0.929 . S
H439 C453 0.931 . S
H440 C455 0.930 . S
C441 H429 0.930 . S
C441 C442 1.399 . S
C441 C446 1.399 . S
C442 C441 1.399 . S
C442 C443 1.376 . S
C443 H430 0.930 1_556 S
C443 C442 1.376 . S
C443 C444 1.388 . S
C444 H431 0.930 . S
C444 C443 1.388 . S
C444 C445 1.390 . S
C445 C444 1.390 . S
C445 C446 1.394 . S
C445 C451 1.465 . S
C446 C441 1.399 . S
C446 C445 1.394 . S
C446 C447 1.516 . S
C447 C446 1.516 . S
C447 C448 1.502 . S
C447 C449 1.561 . S
C447 C450 1.526 . S
C448 H432 0.959 . S
C448 H433 0.959 . S
C448 H434 0.961 . S
C448 C447 1.502 . S
C449 H435 0.960 . S
C449 H436 0.961 . S
C449 H437 0.959 . S
C449 C447 1.561 . S
C450 C447 1.526 . S
C450 C451 1.396 . S
C450 C455 1.390 . S
C451 C445 1.465 . S
C451 C450 1.396 . S
C451 C452 1.399 . S
C452 H438 0.929 . S
C452 C451 1.399 . S
C452 C453 1.385 . S
C453 H439 0.931 . S
C453 C452 1.385 . S
C453 C454 1.389 . S
C454 C453 1.389 . S
C454 C455 1.387 . S
C455 H440 0.930 . S
C455 C450 1.390 . S
C455 C454 1.387 . S
H456 C468 0.930 . S
H457 C470 0.930 . S
H458 C471 0.930 . S
H459 C475 0.959 . S
H460 C475 0.959 . S
H461 C475 0.961 . S
H462 C476 0.960 . S
H463 C476 0.961 . S
H464 C476 0.959 . S
H465 C479 0.929 . S
H466 C480 0.931 . S
H467 C482 0.930 . S
C468 H456 0.930 . S
C468 C469 1.399 . S
C468 C473 1.399 . S
C469 C468 1.399 . S
C469 C470 1.376 . S
C470 H457 0.930 . S
C470 C469 1.376 . S
C470 C471 1.388 . S
C471 H458 0.930 . S
C471 C470 1.388 . S
C471 C472 1.390 . S
C472 C471 1.390 . S
C472 C473 1.394 . S
C472 C478 1.465 . S
C473 C468 1.399 . S
C473 C472 1.394 . S
C473 C474 1.516 . S
C474 C473 1.516 . S
C474 C475 1.502 . S
C474 C476 1.561 . S
C474 C477 1.526 . S
C475 H459 0.959 . S
C475 H460 0.959 . S
C475 H461 0.961 . S
C475 C474 1.502 . S
C476 H462 0.960 . S
C476 H463 0.961 . S
C476 H464 0.959 . S
C476 C474 1.561 . S
C477 C474 1.526 . S
C477 C478 1.396 . S
C477 C482 1.390 . S
C478 C472 1.465 . S
C478 C477 1.396 . S
C478 C479 1.399 . S
C479 H465 0.929 . S
C479 C478 1.399 . S
C479 C480 1.385 . S
C480 H466 0.931 . S
C480 C479 1.385 . S
C480 C481 1.389 . S
C481 C480 1.389 . S
C481 C482 1.387 . S
C482 H467 0.930 . S
C482 C477 1.390 . S
C482 C481 1.387 . S
H483 C495 0.930 . S
H484 C497 0.930 . S
H485 C498 0.930 . S
H486 C502 0.959 . S
H487 C502 0.959 . S
H488 C502 0.961 . S
H489 C503 0.960 . S
H490 C503 0.961 . S
H491 C503 0.959 . S
H492 C506 0.929 . S
H493 C507 0.931 . S
H494 C509 0.930 . S
C495 H483 0.930 . S
C495 C496 1.399 . S
C495 C500 1.399 . S
C496 C495 1.399 . S
C496 C497 1.376 . S
C497 H484 0.930 . S
C497 C496 1.376 . S
C497 C498 1.388 . S
C498 H485 0.930 . S
C498 C497 1.388 . S
C498 C499 1.390 . S
C499 C498 1.390 . S
C499 C500 1.394 . S
C499 C505 1.465 . S
C500 C495 1.399 . S
C500 C499 1.394 . S
C500 C501 1.516 . S
C501 C500 1.516 . S
C501 C502 1.502 . S
C501 C503 1.561 . S
C501 C504 1.526 . S
C502 H486 0.959 . S
C502 H487 0.959 . S
C502 H488 0.961 . S
C502 C501 1.502 . S
C503 H489 0.960 . S
C503 H490 0.961 . S
C503 H491 0.959 . S
C503 C501 1.561 . S
C504 C501 1.526 . S
C504 C505 1.396 . S
C504 C509 1.390 . S
C505 C499 1.465 . S
C505 C504 1.396 . S
C505 C506 1.399 . S
C506 H492 0.929 . S
C506 C505 1.399 . S
C506 C507 1.385 . S
C507 H493 0.931 . S
C507 C506 1.385 . S
C507 C508 1.389 . S
C508 C507 1.389 . S
C508 C509 1.387 . S
C509 H494 0.930 . S
C509 C504 1.390 . S
C509 C508 1.387 . S
H510 C522 0.930 . S
H511 C524 0.930 . S
H512 C525 0.930 . S
H513 C529 0.959 . S
H514 C529 0.959 . S
H515 C529 0.961 . S
H516 C530 0.960 . S
H517 C530 0.961 . S
H518 C530 0.959 . S
H519 C533 0.929 . S
H520 C534 0.931 . S
H521 C536 0.930 . S
C522 H510 0.930 . S
C522 C523 1.399 . S
C522 C527 1.399 . S
C523 C522 1.399 . S
C523 C524 1.376 . S
C524 H511 0.930 . S
C524 C523 1.376 . S
C524 C525 1.388 . S
C525 H512 0.930 . S
C525 C524 1.388 . S
C525 C526 1.390 . S
C526 C525 1.390 . S
C526 C527 1.394 . S
C526 C532 1.465 . S
C527 C522 1.399 . S
C527 C526 1.394 . S
C527 C528 1.516 . S
C528 C527 1.516 . S
C528 C529 1.502 . S
C528 C530 1.561 . S
C528 C531 1.526 . S
C529 H513 0.959 . S
C529 H514 0.959 . S
C529 H515 0.961 . S
C529 C528 1.502 . S
C530 H516 0.960 . S
C530 H517 0.961 . S
C530 H518 0.959 . S
C530 C528 1.561 . S
C531 C528 1.526 . S
C531 C532 1.396 . S
C531 C536 1.390 . S
C532 C526 1.465 . S
C532 C531 1.396 . S
C532 C533 1.399 . S
C533 H519 0.929 . S
C533 C532 1.399 . S
C533 C534 1.385 . S
C534 H520 0.931 . S
C534 C533 1.385 . S
C534 C535 1.389 . S
C535 C534 1.389 . S
C535 C536 1.387 . S
C536 H521 0.930 . S
C536 C531 1.390 . S
C536 C535 1.387 . S
H537 C549 0.930 . S
H538 C551 0.930 . S
H539 C552 0.930 . S
H540 C556 0.959 . S
H541 C556 0.959 . S
H542 C556 0.961 . S
H543 C557 0.960 . S
H544 C557 0.961 . S
H545 C557 0.959 . S
H546 C560 0.929 . S
H547 C561 0.931 . S
H548 C563 0.930 . S
C549 H537 0.930 . S
C549 C550 1.399 . S
C549 C554 1.399 . S
C550 C549 1.399 . S
C550 C551 1.376 . S
C551 H538 0.930 . S
C551 C550 1.376 . S
C551 C552 1.388 . S
C552 H539 0.930 . S
C552 C551 1.388 . S
C552 C553 1.390 . S
C553 C552 1.390 . S
C553 C554 1.394 . S
C553 C559 1.465 . S
C554 C549 1.399 . S
C554 C553 1.394 . S
C554 C555 1.516 . S
C555 C554 1.516 . S
C555 C556 1.502 . S
C555 C557 1.561 . S
C555 C558 1.526 . S
C556 H540 0.959 . S
C556 H541 0.959 . S
C556 H542 0.961 . S
C556 C555 1.502 . S
C557 H543 0.960 . S
C557 H544 0.961 . S
C557 H545 0.959 . S
C557 C555 1.561 . S
C558 C555 1.526 . S
C558 C559 1.396 . S
C558 C563 1.390 . S
C559 C553 1.465 . S
C559 C558 1.396 . S
C559 C560 1.399 . S
C560 H546 0.929 . S
C560 C559 1.399 . S
C560 C561 1.385 . S
C561 H547 0.931 . S
C561 C560 1.385 . S
C561 C562 1.389 . S
C562 C561 1.389 . S
C562 C563 1.387 . S
C563 H548 0.930 . S
C563 C558 1.390 . S
C563 C562 1.387 . S
H564 C576 0.930 . S
H565 C578 0.930 . S
H566 C579 0.930 . S
H567 C583 0.959 . S
H568 C583 0.959 . S
H569 C583 0.961 . S
H570 C584 0.960 . S
H571 C584 0.961 . S
H572 C584 0.959 . S
H573 C587 0.929 . S
H574 C588 0.931 . S
H575 C590 0.930 . S
C576 H564 0.930 . S
C576 C577 1.399 . S
C576 C581 1.399 . S
C577 C576 1.399 . S
C577 C578 1.376 . S
C578 H565 0.930 . S
C578 C577 1.376 . S
C578 C579 1.388 . S
C579 H566 0.930 . S
C579 C578 1.388 . S
C579 C580 1.390 . S
C580 C579 1.390 . S
C580 C581 1.394 . S
C580 C586 1.465 . S
C581 C576 1.399 . S
C581 C580 1.394 . S
C581 C582 1.516 . S
C582 C581 1.516 . S
C582 C583 1.502 . S
C582 C584 1.561 . S
C582 C585 1.526 . S
C583 H567 0.959 . S
C583 H568 0.959 . S
C583 H569 0.961 . S
C583 C582 1.502 . S
C584 H570 0.960 . S
C584 H571 0.961 . S
C584 H572 0.959 . S
C584 C582 1.561 . S
C585 C582 1.526 . S
C585 C586 1.396 . S
C585 C590 1.390 . S
C586 C580 1.465 . S
C586 C585 1.396 . S
C586 C587 1.399 . S
C587 H573 0.929 . S
C587 C586 1.399 . S
C587 C588 1.385 . S
C588 H574 0.931 . S
C588 C587 1.385 . S
C588 C589 1.389 . S
C589 C588 1.389 . S
C589 C590 1.387 . S
C590 H575 0.930 . S
C590 C585 1.390 . S
C590 C589 1.387 . S
H591 C603 0.930 . S
H592 C605 0.930 . S
H593 C606 0.930 . S
H594 C610 0.959 . S
H595 C610 0.959 . S
H596 C610 0.961 . S
H597 C611 0.960 . S
H598 C611 0.961 . S
H599 C611 0.959 . S
H600 C614 0.929 . S
H601 C615 0.931 . S
H602 C617 0.930 . S
C603 H591 0.930 . S
C603 C604 1.399 . S
C603 C608 1.399 . S
C604 C603 1.399 . S
C604 C605 1.376 . S
C605 H592 0.930 . S
C605 C604 1.376 . S
C605 C606 1.388 . S
C606 H593 0.930 . S
C606 C605 1.388 . S
C606 C607 1.390 . S
C607 C606 1.390 . S
C607 C608 1.394 . S
C607 C613 1.465 . S
C608 C603 1.399 . S
C608 C607 1.394 . S
C608 C609 1.516 . S
C609 C608 1.516 . S
C609 C610 1.502 . S
C609 C611 1.561 . S
C609 C612 1.526 . S
C610 H594 0.959 . S
C610 H595 0.959 . S
C610 H596 0.961 . S
C610 C609 1.502 . S
C611 H597 0.960 . S
C611 H598 0.961 . S
C611 H599 0.959 . S
C611 C609 1.561 . S
C612 C609 1.526 . S
C612 C613 1.396 . S
C612 C617 1.390 . S
C613 C607 1.465 . S
C613 C612 1.396 . S
C613 C614 1.399 . S
C614 H600 0.929 . S
C614 C613 1.399 . S
C614 C615 1.385 . S
C615 H601 0.931 . S
C615 C614 1.385 . S
C615 C616 1.389 . S
C616 C615 1.389 . S
C616 C617 1.387 . S
C617 H602 0.930 . S
C617 C612 1.390 . S
C617 C616 1.387 . S
H618 C630 0.930 . S
H619 C632 0.930 . S
H620 C633 0.930 . S
H621 C637 0.959 . S
H622 C637 0.959 . S
H623 C637 0.961 . S
H624 C638 0.960 . S
H625 C638 0.961 . S
H626 C638 0.959 . S
H627 C641 0.929 . S
H628 C642 0.931 . S
H629 C644 0.930 . S
C630 H618 0.930 . S
C630 C631 1.399 . S
C630 C635 1.399 . S
C631 C630 1.399 . S
C631 C632 1.376 . S
C632 H619 0.930 . S
C632 C631 1.376 . S
C632 C633 1.388 . S
C633 H620 0.930 . S
C633 C632 1.388 . S
C633 C634 1.390 . S
C634 C633 1.390 . S
C634 C635 1.394 . S
C634 C640 1.465 . S
C635 C630 1.399 . S
C635 C634 1.394 . S
C635 C636 1.516 . S
C636 C635 1.516 . S
C636 C637 1.502 . S
C636 C638 1.561 . S
C636 C639 1.526 . S
C637 H621 0.959 . S
C637 H622 0.959 . S
C637 H623 0.961 . S
C637 C636 1.502 . S
C638 H624 0.960 . S
C638 H625 0.961 . S
C638 H626 0.959 . S
C638 C636 1.561 . S
C639 C636 1.526 . S
C639 C640 1.396 . S
C639 C644 1.390 . S
C640 C634 1.465 . S
C640 C639 1.396 . S
C640 C641 1.399 . S
C641 H627 0.929 . S
C641 C640 1.399 . S
C641 C642 1.385 . S
C642 H628 0.931 . S
C642 C641 1.385 . S
C642 C643 1.389 . S
C643 C642 1.389 . S
C643 C644 1.387 . S
C644 H629 0.930 . S
C644 C639 1.390 . S
C644 C643 1.387 . S
H645 C657 0.930 . S
H646 C659 0.930 . S
H647 C660 0.930 . S
H648 C664 0.959 . S
H649 C664 0.959 . S
H650 C664 0.961 . S
H651 C665 0.960 . S
H652 C665 0.961 . S
H653 C665 0.959 . S
H654 C668 0.929 . S
H655 C669 0.931 . S
H656 C671 0.930 . S
C657 H645 0.930 . S
C657 C658 1.399 . S
C657 C662 1.399 . S
C658 C657 1.399 . S
C658 C659 1.376 . S
C659 H646 0.930 . S
C659 C658 1.376 . S
C659 C660 1.388 . S
C660 H647 0.930 . S
C660 C659 1.388 . S
C660 C661 1.390 . S
C661 C660 1.390 . S
C661 C662 1.394 . S
C661 C667 1.465 . S
C662 C657 1.399 . S
C662 C661 1.394 . S
C662 C663 1.516 . S
C663 C662 1.516 . S
C663 C664 1.502 . S
C663 C665 1.561 . S
C663 C666 1.526 . S
C664 H648 0.959 . S
C664 H649 0.959 . S
C664 H650 0.961 . S
C664 C663 1.502 . S
C665 H651 0.960 . S
C665 H652 0.961 . S
C665 H653 0.959 . S
C665 C663 1.561 . S
C666 C663 1.526 . S
C666 C667 1.396 . S
C666 C671 1.390 . S
C667 C661 1.465 . S
C667 C666 1.396 . S
C667 C668 1.399 . S
C668 H654 0.929 . S
C668 C667 1.399 . S
C668 C669 1.385 . S
C669 H655 0.931 . S
C669 C668 1.385 . S
C669 C670 1.389 . S
C670 C669 1.389 . S
C670 C671 1.387 . S
C671 H656 0.930 . S
C671 C666 1.390 . S
C671 C670 1.387 . S
H672 C684 0.930 . S
H673 C686 0.930 . S
H674 C687 0.930 . S
H675 C691 0.959 . S
H676 C691 0.959 . S
H677 C691 0.961 . S
H678 C692 0.960 . S
H679 C692 0.961 . S
H680 C692 0.959 . S
H681 C695 0.929 . S
H682 C696 0.931 . S
H683 C698 0.930 . S
C684 H672 0.930 . S
C684 C685 1.399 . S
C684 C689 1.399 . S
C685 C684 1.399 . S
C685 C686 1.376 . S
C686 H673 0.930 . S
C686 C685 1.376 . S
C686 C687 1.388 . S
C687 H674 0.930 . S
C687 C686 1.388 . S
C687 C688 1.390 . S
C688 C687 1.390 . S
C688 C689 1.394 . S
C688 C694 1.465 . S
C689 C684 1.399 . S
C689 C688 1.394 . S
C689 C690 1.516 . S
C690 C689 1.516 . S
C690 C691 1.502 . S
C690 C692 1.561 . S
C690 C693 1.526 . S
C691 H675 0.959 . S
C691 H676 0.959 . S
C691 H677 0.961 . S
C691 C690 1.502 . S
C692 H678 0.960 . S
C692 H679 0.961 . S
C692 H680 0.959 . S
C692 C690 1.561 . S
C693 C690 1.526 . S
C693 C694 1.396 . S
C693 C698 1.390 . S
C694 C688 1.465 . S
C694 C693 1.396 . S
C694 C695 1.399 . S
C695 H681 0.929 . S
C695 C694 1.399 . S
C695 C696 1.385 . S
C696 H682 0.931 . S
C696 C695 1.385 . S
C696 C697 1.389 . S
C697 C696 1.389 . S
C697 C698 1.387 . S
C698 H683 0.930 . S
C698 C693 1.390 . S
C698 C697 1.387 . S
H699 C711 0.930 . S
H700 C713 0.930 . S
H701 C714 0.930 . S
H702 C718 0.959 . S
H703 C718 0.959 . S
H704 C718 0.961 . S
H705 C719 0.960 . S
H706 C719 0.961 . S
H707 C719 0.959 . S
H708 C722 0.929 . S
H709 C723 0.931 . S
H710 C725 0.930 . S
C711 H699 0.930 . S
C711 C712 1.399 . S
C711 C716 1.399 . S
C712 C711 1.399 . S
C712 C713 1.376 . S
C713 H700 0.930 . S
C713 C712 1.376 . S
C713 C714 1.388 . S
C714 H701 0.930 . S
C714 C713 1.388 . S
C714 C715 1.390 . S
C715 C714 1.390 . S
C715 C716 1.394 . S
C715 C721 1.465 . S
C716 C711 1.399 . S
C716 C715 1.394 . S
C716 C717 1.516 . S
C717 C716 1.516 . S
C717 C718 1.502 . S
C717 C719 1.561 . S
C717 C720 1.526 . S
C718 H702 0.959 . S
C718 H703 0.959 . S
C718 H704 0.961 . S
C718 C717 1.502 . S
C719 H705 0.960 . S
C719 H706 0.961 . S
C719 H707 0.959 . S
C719 C717 1.561 . S
C720 C717 1.526 . S
C720 C721 1.396 . S
C720 C725 1.390 . S
C721 C715 1.465 . S
C721 C720 1.396 . S
C721 C722 1.399 . S
C722 H708 0.929 . S
C722 C721 1.399 . S
C722 C723 1.385 . S
C723 H709 0.931 . S
C723 C722 1.385 . S
C723 C724 1.389 . S
C724 C723 1.389 . S
C724 C725 1.387 . S
C725 H710 0.930 . S
C725 C720 1.390 . S
C725 C724 1.387 . S
C253 C209 1.286 . S
C265 C10 1.378 . S
C280 C9 1.342 . S
C292 C50 1.392 . S
C307 C49 1.311 . S
C319 C90 1.381 . S
C334 C89 1.315 . S
C346 C130 1.388 . S
C361 C170 1.393 . S
C373 C129 1.369 . S
C388 C210 1.379 . S
C400 C169 1.301 . S
C415 C6 1.489 . S
C427 C15 1.523 . S
C442 C46 1.449 1_556 S
C454 C55 1.547 . S
C469 C86 1.542 . S
C481 C95 1.466 . S
C496 C126 1.516 . S
C508 C135 1.470 . S
C523 C175 1.504 . S
C535 C166 1.479 1_556 S
C550 C206 1.457 . S
C562 C215 1.530 . S
C577 C19 1.688 . S
C589 C178 1.726 . S
C604 C59 1.712 . S
C616 C218 1.703 . S
C631 C18 1.726 . S
C643 C99 1.694 . S
C658 C58 1.718 . S
C670 C139 1.708 . S
C685 C179 1.721 . S
C697 C98 1.699 . S
C712 C138 1.726 . S
C724 C219 1.693 . S
