# Generated by pormake.
# Topology vbn, (6)-cn, num edge types: 1
# Building blocks:
#     Node 0, Type 0, BuildingBlock: VOLQOD_clean_sbu_1, # of connection points: 6
#     Node 1, Type 0, BuildingBlock: VOLQOD_clean_sbu_1, # of connection points: 6
#     Node 2, Type 0, BuildingBlock: VOLQOD_clean_sbu_1, # of connection points: 6
#     Node 3, Type 0, BuildingBlock: VOLQOD_clean_sbu_1, # of connection points: 6
#     Node 4, Type 0, BuildingBlock: VOLQOD_clean_sbu_1, # of connection points: 6
#     Node 5, Type 0, BuildingBlock: VOLQOD_clean_sbu_1, # of connection points: 6
#     Node 6, Type 0, BuildingBlock: VOLQOD_clean_sbu_1, # of connection points: 6
#     Node 7, Type 0, BuildingBlock: VOLQOD_clean_sbu_1, # of connection points: 6
#     Edge 8, Type (0, 0), BuildingBlock: CIFDUS_clean_linker_0, # of connection points: 2
#     Edge 9, Type (0, 0), BuildingBlock: CIFDUS_clean_linker_0, # of connection points: 2
#     Edge 10, Type (0, 0), BuildingBlock: CIFDUS_clean_linker_0, # of connection points: 2
#     Edge 11, Type (0, 0), BuildingBlock: CIFDUS_clean_linker_0, # of connection points: 2
#     Edge 12, Type (0, 0), BuildingBlock: CIFDUS_clean_linker_0, # of connection points: 2
#     Edge 13, Type (0, 0), BuildingBlock: CIFDUS_clean_linker_0, # of connection points: 2
#     Edge 14, Type (0, 0), BuildingBlock: CIFDUS_clean_linker_0, # of connection points: 2
#     Edge 15, Type (0, 0), BuildingBlock: CIFDUS_clean_linker_0, # of connection points: 2
#     Edge 16, Type (0, 0), BuildingBlock: CIFDUS_clean_linker_0, # of connection points: 2
#     Edge 17, Type (0, 0), BuildingBlock: CIFDUS_clean_linker_0, # of connection points: 2
#     Edge 18, Type (0, 0), BuildingBlock: CIFDUS_clean_linker_0, # of connection points: 2
#     Edge 19, Type (0, 0), BuildingBlock: CIFDUS_clean_linker_0, # of connection points: 2
#     Edge 20, Type (0, 0), BuildingBlock: CIFDUS_clean_linker_0, # of connection points: 2
#     Edge 21, Type (0, 0), BuildingBlock: CIFDUS_clean_linker_0, # of connection points: 2
#     Edge 22, Type (0, 0), BuildingBlock: CIFDUS_clean_linker_0, # of connection points: 2
#     Edge 23, Type (0, 0), BuildingBlock: CIFDUS_clean_linker_0, # of connection points: 2
#     Edge 24, Type (0, 0), BuildingBlock: CIFDUS_clean_linker_0, # of connection points: 2
#     Edge 25, Type (0, 0), BuildingBlock: CIFDUS_clean_linker_0, # of connection points: 2
#     Edge 26, Type (0, 0), BuildingBlock: CIFDUS_clean_linker_0, # of connection points: 2
#     Edge 27, Type (0, 0), BuildingBlock: CIFDUS_clean_linker_0, # of connection points: 2
#     Edge 28, Type (0, 0), BuildingBlock: CIFDUS_clean_linker_0, # of connection points: 2
#     Edge 29, Type (0, 0), BuildingBlock: CIFDUS_clean_linker_0, # of connection points: 2
#     Edge 30, Type (0, 0), BuildingBlock: CIFDUS_clean_linker_0, # of connection points: 2
#     Edge 31, Type (0, 0), BuildingBlock: CIFDUS_clean_linker_0, # of connection points: 2
# Relax obj value: 0.303
# Max RMSD: 0.245
# Mean RMSD: 0.245
data_MOF--net-vbn--node1-VOLQOD_clean_sbu_1--edge1-CIFDUS_clean_linker_0
_symmetry_space_group_name_H-M    P1
_symmetry_Int_Tables_number       1
_symmetry_cell_setting            triclinic
loop_
_symmetry_equiv_pos_as_xyz
'x, y, z'
_cell_length_a     24.030657
_cell_length_b     26.244189
_cell_length_c     44.102231
_cell_angle_alpha  90.796914
_cell_angle_beta   90.114858
_cell_angle_gamma 90.105063
loop_
_atom_site_label
_atom_site_type_symbol
_atom_site_fract_x
_atom_site_fract_y
_atom_site_fract_z
_atom_type_partial_charge
O0 O 0.40426 0.37715 0.44723 0.0
Zn1 Zn 0.37219 0.3085 0.43766 0.0
O2 O 0.36548 0.29987 0.39427 0.0
Zn3 Zn 0.28802 0.29351 0.38225 0.0
Zn4 Zn 0.3997 0.35718 0.37477 0.0
Zn5 Zn 0.40612 0.24007 0.38201 0.0
O6 O 0.27515 0.22413 0.36174 0.0
O7 O 0.35333 0.1832 0.3735 0.0
O8 O 0.2978 0.30208 0.45881 0.0
O9 O 0.23986 0.29487 0.41966 0.0
O10 O 0.26316 0.35557 0.35809 0.0
O11 O 0.34021 0.40249 0.35974 0.0
O12 O 0.44291 0.3352 0.33801 0.0
O13 O 0.4307 0.26153 0.45434 0.0
O14 O 0.44468 0.25124 0.34269 0.0
O15 O 0.46344 0.22205 0.41328 0.0
C16 C 0.43721 0.4058 0.43259 0.0
C17 C 0.304 0.18322 0.36285 0.0
C18 C 0.28901 0.39722 0.35307 0.0
C19 C 0.24855 0.29819 0.44814 0.0
C20 C 0.45607 0.29116 0.32796 0.0
C21 C 0.46657 0.23277 0.44149 0.0
O22 O 0.44539 0.39918 0.40426 0.0
O23 O 0.10261 0.11949 0.94722 0.0
Zn24 Zn 0.1338 0.18736 0.93443 0.0
O25 O 0.13217 0.19176 0.89061 0.0
Zn26 Zn 0.20566 0.20028 0.87399 0.0
Zn27 Zn 0.09852 0.13137 0.8743 0.0
Zn28 Zn 0.08543 0.2467 0.87825 0.0
O29 O 0.21038 0.26857 0.85228 0.0
O30 O 0.13347 0.30693 0.86919 0.0
O31 O 0.21272 0.19684 0.95146 0.0
O32 O 0.25958 0.20609 0.90849 0.0
O33 O 0.2308 0.13582 0.85077 0.0
O34 O 0.15803 0.08595 0.85988 0.0
O35 O 0.05224 0.14472 0.83776 0.0
O36 O 0.07783 0.23677 0.95229 0.0
O37 O 0.04804 0.22904 0.83836 0.0
O38 O 0.0297 0.2614 0.91179 0.0
C39 C 0.06776 0.08989 0.934 0.0
C40 C 0.18056 0.30863 0.85591 0.0
C41 C 0.20706 0.09214 0.84986 0.0
C42 C 0.25841 0.20378 0.9373 0.0
C43 C 0.03801 0.18624 0.82551 0.0
C44 C 0.0351 0.25769 0.94051 0.0
O45 O 0.05679 0.09389 0.90589 0.0
O46 O 0.88823 0.14088 0.52975 0.0
Zn47 Zn 0.86218 0.20916 0.54447 0.0
O48 O 0.86789 0.21246 0.58807 0.0
Zn49 Zn 0.79587 0.22025 0.60689 0.0
Zn50 Zn 0.90395 0.15194 0.60215 0.0
Zn51 Zn 0.91384 0.26909 0.59958 0.0
O52 O 0.79166 0.28803 0.62999 0.0
O53 O 0.86539 0.32828 0.61114 0.0
O54 O 0.78261 0.21954 0.53009 0.0
O55 O 0.73853 0.22592 0.57426 0.0
O56 O 0.77366 0.15582 0.62965 0.0
O57 O 0.8458 0.10619 0.61826 0.0
O58 O 0.95311 0.16805 0.6381 0.0
O59 O 0.91801 0.25693 0.52547 0.0
O60 O 0.95605 0.25253 0.6373 0.0
O61 O 0.96638 0.28508 0.56541 0.0
C62 C 0.92415 0.10998 0.54012 0.0
C63 C 0.81981 0.32885 0.62595 0.0
C64 C 0.79761 0.11234 0.62958 0.0
C65 C 0.73795 0.22498 0.54541 0.0
C66 C 0.96779 0.21059 0.64991 0.0
C67 C 0.96043 0.27964 0.53679 0.0
O68 O 0.94104 0.11324 0.56757 0.0
O69 O 0.59731 0.36104 0.03166 0.0
Zn70 Zn 0.62632 0.29269 0.04383 0.0
O71 O 0.63516 0.29058 0.08746 0.0
Zn72 Zn 0.71305 0.28293 0.09835 0.0
Zn73 Zn 0.60624 0.35264 0.10473 0.0
Zn74 Zn 0.5908 0.23576 0.1035 0.0
O75 O 0.72296 0.21538 0.12025 0.0
O76 O 0.64081 0.17716 0.11319 0.0
O77 O 0.69922 0.28057 0.02168 0.0
O78 O 0.759 0.27842 0.06013 0.0
O79 O 0.74307 0.34668 0.12062 0.0
O80 O 0.66844 0.39625 0.11831 0.0
O81 O 0.56073 0.34117 0.14139 0.0
O82 O 0.56443 0.24561 0.03037 0.0
O83 O 0.55603 0.25697 0.14331 0.0
O84 O 0.52979 0.21627 0.07347 0.0
C85 C 0.56903 0.39431 0.04615 0.0
C86 C 0.69151 0.17602 0.12182 0.0
C87 C 0.71941 0.3898 0.12482 0.0
C88 C 0.74894 0.27764 0.03173 0.0
C89 C 0.54615 0.30081 0.15477 0.0
C90 C 0.52665 0.22186 0.0448 0.0
O91 O 0.5638 0.39278 0.07479 0.0
O92 O 0.61318 0.63315 0.53409 0.0
Zn93 Zn 0.63984 0.70372 0.5454 0.0
O94 O 0.64124 0.71143 0.58927 0.0
Zn95 Zn 0.7155 0.71976 0.60509 0.0
Zn96 Zn 0.60801 0.65238 0.60672 0.0
Zn97 Zn 0.59797 0.76946 0.60152 0.0
O98 O 0.72313 0.78736 0.628 0.0
O99 O 0.64823 0.82839 0.61131 0.0
O100 O 0.71761 0.71592 0.5273 0.0
O101 O 0.76644 0.72589 0.56992 0.0
O102 O 0.74222 0.65599 0.62706 0.0
O103 O 0.66742 0.60688 0.62169 0.0
O104 O 0.56192 0.6709 0.64286 0.0
O105 O 0.57741 0.74735 0.52821 0.0
O106 O 0.5582 0.75513 0.64024 0.0
O107 O 0.54136 0.78462 0.56929 0.0
C108 C 0.57808 0.60486 0.54755 0.0
C109 C 0.69518 0.82843 0.62488 0.0
C110 C 0.71781 0.613 0.62978 0.0
C111 C 0.76378 0.72378 0.54113 0.0
C112 C 0.54715 0.7139 0.6538 0.0
C113 C 0.53919 0.7737 0.54104 0.0
O114 O 0.56592 0.6121 0.5754 0.0
O115 O 0.89296 0.8709 0.03712 0.0
Zn116 Zn 0.86275 0.80158 0.04702 0.0
O117 O 0.86528 0.79309 0.09049 0.0
Zn118 Zn 0.79188 0.78404 0.10712 0.0
Zn119 Zn 0.89947 0.85167 0.10884 0.0
Zn120 Zn 0.91183 0.73657 0.10039 0.0
O121 O 0.78805 0.71547 0.12855 0.0
O122 O 0.86317 0.67686 0.10945 0.0
O123 O 0.78371 0.79241 0.02997 0.0
O124 O 0.73778 0.77822 0.0727 0.0
O125 O 0.76622 0.84844 0.13038 0.0
O126 O 0.84034 0.89752 0.1233 0.0
O127 O 0.94361 0.83363 0.14567 0.0
O128 O 0.91912 0.75492 0.02686 0.0
O129 O 0.95292 0.75021 0.13943 0.0
O130 O 0.96556 0.72294 0.06595 0.0
C131 C 0.92969 0.89816 0.05062 0.0
C132 C 0.81718 0.67525 0.12384 0.0
C133 C 0.79053 0.8918 0.13222 0.0
C134 C 0.73847 0.78287 0.04401 0.0
C135 C 0.96073 0.79078 0.155 0.0
C136 C 0.96073 0.73083 0.03757 0.0
O137 O 0.94279 0.89077 0.07823 0.0
O138 O 0.1161 0.85976 0.455 0.0
Zn139 Zn 0.13946 0.79203 0.43755 0.0
O140 O 0.13762 0.79414 0.39378 0.0
Zn141 Zn 0.21085 0.78817 0.37618 0.0
Zn142 Zn 0.10101 0.85569 0.38196 0.0
Zn143 Zn 0.09315 0.73977 0.37799 0.0
O144 O 0.21745 0.72196 0.35133 0.0
O145 O 0.14151 0.68114 0.36673 0.0
O146 O 0.21819 0.77691 0.4532 0.0
O147 O 0.26571 0.77962 0.40994 0.0
O148 O 0.23279 0.85464 0.35534 0.0
O149 O 0.15899 0.90212 0.36696 0.0
O150 O 0.05036 0.84513 0.34596 0.0
O151 O 0.077 0.74575 0.45192 0.0
O152 O 0.05675 0.76146 0.3395 0.0
O153 O 0.03564 0.72133 0.40885 0.0
C154 C 0.08099 0.89202 0.44529 0.0
C155 C 0.18858 0.68111 0.35347 0.0
C156 C 0.20756 0.89754 0.35589 0.0
C157 C 0.26414 0.77502 0.43863 0.0
C158 C 0.0411 0.80487 0.33029 0.0
C159 C 0.03617 0.72501 0.43771 0.0
O160 O 0.06491 0.89127 0.41768 0.0
O161 O 0.40014 0.62224 0.94758 0.0
Zn162 Zn 0.37103 0.69087 0.93621 0.0
O163 O 0.36287 0.69404 0.89263 0.0
Zn164 Zn 0.28522 0.70139 0.88127 0.0
Zn165 Zn 0.39267 0.63277 0.87471 0.0
Zn166 Zn 0.40672 0.74981 0.8776 0.0
O167 O 0.27534 0.76864 0.8591 0.0
O168 O 0.35628 0.80792 0.86806 0.0
O169 O 0.29754 0.70247 0.95799 0.0
O170 O 0.23869 0.70643 0.91918 0.0
O171 O 0.25573 0.63722 0.85923 0.0
O172 O 0.3309 0.58831 0.86124 0.0
O173 O 0.43735 0.6461 0.83782 0.0
O174 O 0.43274 0.73775 0.95053 0.0
O175 O 0.44209 0.73043 0.83785 0.0
O176 O 0.46702 0.76934 0.90795 0.0
C177 C 0.42977 0.59009 0.93298 0.0
C178 C 0.30619 0.80848 0.85843 0.0
C179 C 0.27974 0.59428 0.85498 0.0
C180 C 0.2481 0.70644 0.94763 0.0
C181 C 0.45184 0.68738 0.82537 0.0
C182 C 0.47016 0.76266 0.93652 0.0
O183 O 0.43609 0.59278 0.90444 0.0
H184 H 0.15968 0.98684 0.34126 0.0
H185 H 0.31994 0.91542 0.35237 0.0
H186 H 0.36505 -0.00088 0.35174 0.0
H187 H 0.35686 0.09221 0.35611 0.0
H188 H 0.19543 0.16302 0.34792 0.0
H189 H 0.15279 0.07957 0.33932 0.0
C190 C 0.20465 0.98944 0.34299 0.0
C191 C 0.23637 0.94507 0.34742 0.0
C192 C 0.22988 0.03756 0.3437 0.0
C193 C 0.29458 0.94897 0.34902 0.0
C194 C 0.32029 0.99686 0.34899 0.0
C195 C 0.31239 0.08956 0.35212 0.0
C196 C 0.2792 0.13382 0.35331 0.0
C197 C 0.28803 0.04141 0.34769 0.0
C198 C 0.22188 0.12964 0.34748 0.0
C199 C 0.19745 0.08191 0.34259 0.0
H200 H 0.12814 0.40075 0.85907 0.0
H201 H 0.28297 0.33008 0.83216 0.0
H202 H 0.32408 0.41383 0.82426 0.0
H203 H 0.32014 0.50614 0.83165 0.0
H204 H 0.16748 0.57743 0.86108 0.0
H205 H 0.12092 0.49434 0.86041 0.0
C206 C 0.17068 0.40353 0.85109 0.0
C207 C 0.20271 0.35899 0.84678 0.0
C208 C 0.19443 0.45193 0.84704 0.0
C209 C 0.25747 0.36353 0.836 0.0
C210 C 0.28108 0.41148 0.83149 0.0
C211 C 0.27633 0.50373 0.83737 0.0
C212 C 0.24754 0.54784 0.84687 0.0
C213 C 0.25053 0.45582 0.83793 0.0
C214 C 0.19062 0.54414 0.85371 0.0
C215 C 0.16418 0.49652 0.85365 0.0
H216 H 0.67601 0.52417 0.65033 0.0
H217 H 0.8305 0.59748 0.62665 0.0
H218 H 0.87792 0.51507 0.62709 0.0
H219 H 0.87167 0.42141 0.62631 0.0
H220 H 0.71574 0.34858 0.64817 0.0
H221 H 0.67285 0.43172 0.65648 0.0
C222 C 0.72035 0.52232 0.64588 0.0
C223 C 0.74949 0.56681 0.63798 0.0
C224 C 0.74687 0.47477 0.64534 0.0
C225 C 0.80705 0.56387 0.63275 0.0
C226 C 0.83405 0.51664 0.63269 0.0
C227 C 0.8285 0.42363 0.63331 0.0
C228 C 0.79672 0.37868 0.63601 0.0
C229 C 0.8038 0.47166 0.63767 0.0
C230 C 0.74112 0.3824 0.64562 0.0
C231 C 0.71646 0.43 0.65032 0.0
H232 H 0.63872 0.08401 0.12534 0.0
H233 H 0.79739 0.15732 0.14161 0.0
H234 H 0.83929 0.07498 0.15227 0.0
H235 H 0.83397 0.9822 0.15018 0.0
H236 H 0.67751 0.90769 0.13061 0.0
H237 H 0.63118 0.99069 0.12916 0.0
C238 C 0.68233 0.08217 0.13159 0.0
C239 C 0.71506 0.12691 0.1321 0.0
C240 C 0.7065 0.03448 0.13719 0.0
C241 C 0.77131 0.12363 0.14062 0.0
C242 C 0.79535 0.0765 0.14676 0.0
C243 C 0.78944 0.98395 0.14621 0.0
C244 C 0.75939 0.93883 0.14004 0.0
C245 C 0.76377 0.03165 0.14414 0.0
C246 C 0.70164 0.94176 0.13543 0.0
C247 C 0.6753 0.98929 0.13422 0.0
H248 H 0.84199 0.023 0.6472 0.0
H249 H 0.68479 0.09694 0.63082 0.0
H250 H 0.63743 0.01432 0.6316 0.0
H251 H 0.64355 0.92072 0.62873 0.0
H252 H 0.80199 0.84741 0.64332 0.0
H253 H 0.84592 0.93027 0.65156 0.0
C254 C 0.79714 0.02118 0.64446 0.0
C255 C 0.76705 0.06591 0.63847 0.0
C256 C 0.77059 0.97358 0.64406 0.0
C257 C 0.70892 0.06309 0.63545 0.0
C258 C 0.68193 0.01577 0.63555 0.0
C259 C 0.68756 0.92277 0.63412 0.0
C260 C 0.71962 0.87785 0.63477 0.0
C261 C 0.71278 0.97066 0.63849 0.0
C262 C 0.77636 0.88126 0.64236 0.0
C263 C 0.80159 0.92869 0.64702 0.0
H264 H 0.87 0.58347 0.12017 0.0
H265 H 0.71571 0.65342 0.14864 0.0
H266 H 0.67537 0.56945 0.15695 0.0
H267 H 0.67953 0.47719 0.14925 0.0
H268 H 0.8315 0.40672 0.1181 0.0
H269 H 0.87775 0.48997 0.11867 0.0
C270 C 0.82774 0.58048 0.12856 0.0
C271 C 0.79558 0.62485 0.13318 0.0
C272 C 0.80444 0.53198 0.13283 0.0
C273 C 0.74126 0.62008 0.14455 0.0
C274 C 0.7181 0.57201 0.14928 0.0
C275 C 0.72316 0.47983 0.14316 0.0
C276 C 0.75181 0.43594 0.13316 0.0
C277 C 0.74868 0.52783 0.14249 0.0
C278 C 0.8085 0.43986 0.12586 0.0
C279 C 0.83473 0.48757 0.12584 0.0
H280 H 0.33299 0.4855 0.33272 0.0
H281 H 0.17618 0.41334 0.35325 0.0
H282 H 0.12935 0.49579 0.3507 0.0
H283 H 0.13612 0.58915 0.35103 0.0
H284 H 0.29432 0.66128 0.33345 0.0
H285 H 0.33731 0.57782 0.32623 0.0
C286 C 0.28833 0.48755 0.33607 0.0
C287 C 0.25832 0.44339 0.34377 0.0
C288 C 0.26211 0.53519 0.33557 0.0
C289 C 0.20037 0.44667 0.34746 0.0
C290 C 0.17366 0.49392 0.34628 0.0
C291 C 0.17986 0.58676 0.34516 0.0
C292 C 0.21219 0.63153 0.34342 0.0
C293 C 0.2046 0.53863 0.3417 0.0
C294 C 0.26853 0.62757 0.33525 0.0
C295 C 0.29322 0.5798 0.33122 0.0
H296 H 0.16338 0.00231 0.83133 0.0
H297 H 0.32007 0.07658 0.85062 0.0
H298 H 0.36655 0.9936 0.85124 0.0
H299 H 0.35902 0.90031 0.85472 0.0
H300 H 0.2002 0.82709 0.83875 0.0
H301 H 0.15814 0.90955 0.82853 0.0
C302 C 0.20799 0.00048 0.83505 0.0
C303 C 0.23811 0.04546 0.84143 0.0
C304 C 0.23374 0.95279 0.83663 0.0
C305 C 0.29594 0.04256 0.84566 0.0
C306 C 0.32235 0.99505 0.8464 0.0
C307 C 0.31534 0.90219 0.84863 0.0
C308 C 0.28258 0.85749 0.84813 0.0
C309 C 0.29111 0.94991 0.84331 0.0
C310 C 0.22628 0.86078 0.83973 0.0
C311 C 0.20216 0.90797 0.83386 0.0
H312 H 0.43549 0.42428 0.49314 0.0
H313 H 0.50768 0.47818 0.40986 0.0
H314 H 0.55869 0.54395 0.43826 0.0
H315 H 0.58218 0.58618 0.48669 0.0
H316 H 0.50915 0.53155 0.56963 0.0
H317 H 0.45915 0.4657 0.54118 0.0
C318 C 0.46223 0.45042 0.48107 0.0
C319 C 0.4676 0.44633 0.44938 0.0
C320 C 0.49143 0.48787 0.49747 0.0
C321 C 0.50271 0.48048 0.43424 0.0
C322 C 0.53193 0.51806 0.45046 0.0
C323 C 0.55555 0.55974 0.49859 0.0
C324 C 0.54948 0.56386 0.53027 0.0
C325 C 0.5266 0.52205 0.48209 0.0
C326 C 0.51457 0.52938 0.54527 0.0
C327 C 0.48589 0.49169 0.52903 0.0
H328 H 0.92255 0.91552 0.99032 0.0
H329 H 0.00324 0.96976 0.07225 0.0
H330 H 0.05356 0.03364 0.04329 0.0
H331 H 0.07485 0.07365 -0.00528 0.0
H332 H 0.99413 0.01841 0.91297 0.0
H333 H 0.94373 0.95517 0.94204 0.0
C334 C 0.95093 0.94141 0.00195 0.0
C335 C 0.95901 0.93788 0.03341 0.0
C336 C 0.97992 0.97773 0.98521 0.0
C337 C 0.99624 0.9716 0.04802 0.0
C338 C 0.02507 0.00813 0.03149 0.0
C339 C 0.04636 0.04771 0.98323 0.0
C340 C 0.03838 0.05083 0.95171 0.0
C341 C 0.01734 0.01139 6e-05 0.0
C342 C 0.00115 0.01695 0.93721 0.0
C343 C 0.9722 0.98075 0.9538 0.0
H344 H 0.00557 0.04016 0.55164 0.0
H345 H 0.89476 0.09182 0.48122 0.0
H346 H 0.93368 0.02966 0.44588 0.0
H347 H 0.99934 0.9611 0.43453 0.0
H348 H 0.1102 0.90859 0.50462 0.0
H349 H 0.07111 0.97061 0.5403 0.0
C350 C 0.98982 0.03774 0.5286 0.0
C351 C 0.94732 0.07078 0.51922 0.0
C352 C 0.01248 0.00182 0.50819 0.0
C353 C 0.9275 0.06703 0.48919 0.0
C354 C 0.94975 0.03146 0.46886 0.0
C355 C 0.01512 0.96323 0.45758 0.0
C356 C 0.05775 0.93025 0.46677 0.0
C357 C 0.99236 -0.00119 0.47806 0.0
C358 C 0.07742 0.93349 0.49683 0.0
C359 C 0.05507 0.96896 0.51732 0.0
H360 H 0.43505 0.57899 -0.00611 0.0
H361 H 0.4889 0.5101 0.90939 0.0
H362 H 0.53728 0.44368 0.93711 0.0
H363 H 0.56411 0.40538 0.98515 0.0
H364 H 0.51026 0.47453 0.06959 0.0
H365 H 0.46202 0.54089 0.04185 0.0
C366 C 0.4572 0.5494 0.98148 0.0
C367 C 0.45829 0.54947 0.94965 0.0
C368 C 0.48502 0.51151 -0.00251 0.0
C369 C 0.48744 0.51096 0.93394 0.0
C370 C 0.51513 0.47297 0.94974 0.0
C371 C 0.54197 0.43501 -0.00247 0.0
C372 C 0.54081 0.43497 0.02937 0.0
C373 C 0.51423 0.47296 0.9815 0.0
C374 C 0.51178 0.4736 0.04505 0.0
C375 C 0.48415 0.51157 0.02923 0.0
H376 H 0.5438 0.22866 0.19825 0.0
H377 H 0.49791 0.38447 0.18056 0.0
H378 H 0.46903 0.396 0.23317 0.0
H379 H 0.45805 0.36244 0.28416 0.0
H380 H 0.50375 0.20669 0.30218 0.0
H381 H 0.53242 0.19488 0.24947 0.0
C382 C 0.52677 0.2649 0.20581 0.0
C383 C 0.52278 0.30555 0.18554 0.0
C384 C 0.51114 0.2716 0.23621 0.0
C385 C 0.50135 0.35254 0.19576 0.0
C386 C 0.48509 0.35928 0.22585 0.0
C387 C 0.47491 0.32607 0.27669 0.0
C388 C 0.47903 0.28563 0.2971 0.0
C389 C 0.49039 0.31926 0.24633 0.0
C390 C 0.50029 0.23853 0.28692 0.0
C391 C 0.51641 0.23163 0.25676 0.0
H392 H 0.04552 0.26045 0.78351 0.0
H393 H 0.98689 0.10672 0.79636 0.0
H394 H 0.96447 0.0992 0.74245 0.0
H395 H 0.96217 0.13596 0.69174 0.0
H396 H 0.02089 0.28967 0.67873 0.0
H397 H 0.04399 0.297 0.73258 0.0
C398 C 0.02697 0.2256 0.77461 0.0
C399 C 0.01732 0.1844 0.79396 0.0
C400 C 0.01542 0.2211 0.74347 0.0
C401 C 0.99436 0.13911 0.78196 0.0
C402 C 0.98194 0.13464 0.7511 0.0
C403 C 0.98094 0.17077 0.70053 0.0
C404 C 0.99015 0.21207 0.68117 0.0
C405 C 0.99289 0.17517 0.73161 0.0
C406 C 0.01364 0.2572 0.69311 0.0
C407 C 0.02644 0.26159 0.72394 0.0
H408 H 0.45624 0.76367 0.7846 0.0
H409 H 0.49772 0.60516 0.79657 0.0
H410 H 0.52764 0.59876 0.74384 0.0
H411 H 0.5414 0.6378 0.69452 0.0
H412 H 0.50006 0.79631 0.68228 0.0
H413 H 0.46965 0.80274 0.73497 0.0
C414 C 0.47245 0.72789 0.77578 0.0
C415 C 0.47506 0.68505 0.79449 0.0
C416 C 0.48871 0.72422 0.74534 0.0
C417 C 0.49541 0.63875 0.78262 0.0
C418 C 0.51227 0.63496 0.75246 0.0
C419 C 0.52513 0.67365 0.70322 0.0
C420 C 0.52283 0.71644 0.68446 0.0
C421 C 0.50864 0.67733 0.73358 0.0
C422 C 0.50216 0.76272 0.69623 0.0
C423 C 0.48505 0.76653 0.72639 0.0
H424 H 0.957 0.86282 0.19981 0.0
H425 H 0.01273 0.70939 0.18054 0.0
H426 H 0.03911 0.69939 0.23359 0.0
H427 H 0.04501 0.73351 0.28535 0.0
H428 H 0.98996 0.88704 0.3048 0.0
H429 H 0.96353 0.89724 0.25169 0.0
C430 C 0.9756 0.82739 0.20708 0.0
C431 C 0.98311 0.787 0.18615 0.0
C432 C 0.98979 0.82156 0.23771 0.0
C433 C 0.00665 0.74116 0.19612 0.0
C434 C 0.02143 0.73528 0.22649 0.0
C435 C 0.02656 0.76904 0.27812 0.0
C436 C 0.01907 0.80933 0.29911 0.0
C437 C 0.01257 0.775 0.24751 0.0
C438 C 0.9959 0.85533 0.28917 0.0
C439 C 0.98111 0.8613 0.25877 0.0
H440 H 0.49239 0.25781 0.49983 0.0
H441 H 0.55665 0.17835 0.421 0.0
H442 H 0.64687 0.16959 0.44593 0.0
H443 H 0.70941 0.18925 0.48905 0.0
H444 H 0.64382 0.2685 0.56757 0.0
H445 H 0.55263 0.2732 0.54356 0.0
C446 C 0.52576 0.23786 0.48818 0.0
C447 C 0.5176 0.21903 0.45848 0.0
C448 C 0.57779 0.23376 0.50238 0.0
C449 C 0.56156 0.19326 0.44387 0.0
C450 C 0.61341 0.18857 0.45802 0.0
C451 C 0.67518 0.20777 0.50077 0.0
C452 C 0.68355 0.22894 0.5299 0.0
C453 C 0.62238 0.20972 0.487 0.0
C454 C 0.63856 0.25202 0.54508 0.0
C455 C 0.58631 0.25463 0.53142 0.0
H456 H 0.92536 0.26512 0.92535 0.0
H457 H 0.03826 0.2773 0.00136 0.0
H458 H 0.95969 0.285 0.03607 0.0
H459 H 0.85936 0.28309 0.04523 0.0
H460 H 0.74567 0.26888 0.96963 0.0
H461 H 0.82417 0.26677 0.93446 0.0
C462 C 0.93281 0.27047 0.94944 0.0
C463 C 0.98775 0.27077 0.96069 0.0
C464 C 0.88729 0.27359 0.96943 0.0
C465 C 0.9965 0.27696 -0.00794 0.0
C466 C 0.95155 0.28109 0.01197 0.0
C467 C 0.85154 0.27944 0.02107 0.0
C468 C 0.79648 0.27568 0.0102 0.0
C469 C 0.89681 0.27837 0.00097 0.0
C470 C 0.78749 0.27152 0.97873 0.0
C471 C 0.83241 0.27047 0.95856 0.0
H472 H 0.06861 0.2961 0.55251 0.0
H473 H 0.95825 0.28949 0.47518 0.0
H474 H 0.03774 0.29596 0.44105 0.0
H475 H 0.13858 0.2974 0.43307 0.0
H476 H 0.24935 0.30124 0.51032 0.0
H477 H 0.16955 0.30161 0.54452 0.0
C478 C 0.06177 0.29707 0.52821 0.0
C479 C 0.0074 0.29236 0.51647 0.0
C480 C 0.10781 0.29941 0.50866 0.0
C481 C 0.99955 0.29307 0.48487 0.0
C482 C 0.04504 0.29647 0.46531 0.0
C483 C 0.14545 0.29837 0.45738 0.0
C484 C 0.20011 0.29883 0.46902 0.0
C485 C 0.0994 0.29848 0.47694 0.0
C486 C 0.20789 0.30052 0.50064 0.0
C487 C 0.16223 0.30088 0.52026 0.0
H488 H 0.50325 0.23625 0.98533 0.0
H489 H 0.43173 0.17749 0.06749 0.0
H490 H 0.34194 0.16693 0.04182 0.0
H491 H 0.28229 0.17863 -0.00362 0.0
H492 H 0.3562 0.23911 0.91518 0.0
H493 H 0.44587 0.24528 0.94036 0.0
C494 C 0.46836 0.2205 -0.00233 0.0
C495 C 0.47455 0.20776 0.02838 0.0
C496 C 0.41672 0.21555 0.98303 0.0
C497 C 0.42847 0.1875 0.04381 0.0
C498 C 0.37689 0.18181 0.0292 0.0
C499 C 0.31798 0.19333 0.98428 0.0
C500 C 0.31212 0.20853 0.9539 0.0
C501 C 0.37021 0.1966 -0.00109 0.0
C502 C 0.35914 0.22703 0.93851 0.0
C503 C 0.4107 0.23054 0.95287 0.0
H504 H 0.50991 0.74043 0.48432 0.0
H505 H 0.4494 0.82949 0.56038 0.0
H506 H 0.35806 0.83541 0.53642 0.0
H507 H 0.29379 0.81275 0.49444 0.0
H508 H 0.35576 0.72558 0.41812 0.0
H509 H 0.4474 0.72074 0.44183 0.0
C510 C 0.47712 0.76186 0.49551 0.0
C511 C 0.4869 0.78448 0.52417 0.0
C512 C 0.42433 0.76461 0.4818 0.0
C513 C 0.44341 0.81175 0.53829 0.0
C514 C 0.39086 0.81485 0.52471 0.0
C515 C 0.32726 0.79225 0.48324 0.0
C516 C 0.31782 0.76906 0.45474 0.0
C517 C 0.38051 0.7907 0.49669 0.0
C518 C 0.3619 0.74355 0.44015 0.0
C519 C 0.41442 0.74096 0.45362 0.0
H520 H 0.06933 0.71589 0.05287 0.0
H521 H 0.9583 0.7206 0.97591 0.0
H522 H 0.03739 0.71306 0.94148 0.0
H523 H 0.13797 0.70976 0.93314 0.0
H524 H 0.24979 0.70765 0.0099 0.0
H525 H 0.1704 0.71001 0.04444 0.0
C526 C 0.06231 0.71433 0.02858 0.0
C527 C 0.00781 0.71857 0.01702 0.0
C528 C 0.10818 0.71132 0.00885 0.0
C529 C 0.99969 0.71731 0.98544 0.0
C530 C 0.04496 0.71327 0.96572 0.0
C531 C 0.14521 0.70986 0.95742 0.0
C532 C 0.20005 0.70886 0.96881 0.0
C533 C 0.09941 0.7112 0.97716 0.0
C534 C 0.20821 0.7087 0.00041 0.0
C535 C 0.16277 0.70987 0.02021 0.0
H536 H 0.00808 0.75752 0.4942 0.0
H537 H 0.94618 0.66889 0.41817 0.0
H538 H 0.85517 0.66221 0.44261 0.0
H539 H 0.79184 0.68445 0.48516 0.0
H540 H 0.8556 0.77461 0.56017 0.0
H541 H 0.94653 0.77848 0.53628 0.0
C542 C 0.97511 0.73589 0.48315 0.0
C543 C 0.98425 0.71346 0.45447 0.0
C544 C 0.9226 0.73336 0.4969 0.0
C545 C 0.94049 0.68633 0.44035 0.0
C546 C 0.88823 0.68284 0.4542 0.0
C547 C 0.82553 0.70535 0.49603 0.0
C548 C 0.81676 0.72933 0.52436 0.0
C549 C 0.87846 0.70698 0.48228 0.0
C550 C 0.86112 0.75571 0.53839 0.0
C551 C 0.91332 0.75783 0.52481 0.0
H552 H 0.71323 0.81048 0.98549 0.0
H553 H 0.64194 0.74385 0.06563 0.0
H554 H 0.5524 0.73626 0.04045 0.0
H555 H 0.49445 0.74567 -0.00433 0.0
H556 H 0.56346 0.81075 0.91461 0.0
H557 H 0.65294 0.82267 0.94036 0.0
C558 C 0.67814 0.79417 -0.00264 0.0
C559 C 0.68474 0.77761 0.02743 0.0
C560 C 0.62597 0.79004 0.98273 0.0
C561 C 0.63846 0.757 0.04253 0.0
C562 C 0.58696 0.75266 0.02817 0.0
C563 C 0.5287 0.76309 0.98361 0.0
C564 C 0.52191 0.7772 0.95316 0.0
C565 C 0.58023 0.7689 -0.0017 0.0
C566 C 0.56719 0.7996 0.93807 0.0
C567 C 0.61861 0.80611 0.95273 0.0
loop_
_geom_bond_atom_site_label_1
_geom_bond_atom_site_label_2
_geom_bond_distance
_geom_bond_site_symmetry_2
_ccdc_geom_bond_type
O0 Zn1 1.953 . S
O0 C16 1.225 . S
Zn1 O0 1.953 . S
Zn1 O2 1.949 . S
Zn1 O8 1.919 . S
Zn1 O13 1.924 . S
O2 Zn1 1.949 . S
O2 Zn3 1.923 . S
O2 Zn4 1.950 . S
O2 Zn5 1.945 . S
Zn3 O2 1.923 . S
Zn3 O6 1.933 . S
Zn3 O9 1.941 . S
Zn3 O10 1.965 . S
Zn4 O2 1.950 . S
Zn4 O11 1.938 . S
Zn4 O12 1.906 . S
Zn4 O22 1.953 . S
Zn5 O2 1.945 . S
Zn5 O7 1.932 . S
Zn5 O14 1.977 . S
Zn5 O15 1.910 . S
O6 Zn3 1.933 . S
O6 C17 1.226 . S
O7 Zn5 1.932 . S
O7 C17 1.307 . S
O8 Zn1 1.919 . S
O8 C19 1.253 . S
O9 Zn3 1.941 . S
O9 C19 1.283 . S
O10 Zn3 1.965 . S
O10 C18 1.303 . S
O11 Zn4 1.938 . S
O11 C18 1.247 . S
O12 Zn4 1.906 . S
O12 C20 1.304 . S
O13 Zn1 1.924 . S
O13 C21 1.311 . S
O14 Zn5 1.977 . S
O14 C20 1.272 . S
O15 Zn5 1.910 . S
O15 C21 1.231 . S
C16 O0 1.225 . S
C16 O22 1.298 . S
C17 O6 1.226 . S
C17 O7 1.307 . S
C18 O10 1.303 . S
C18 O11 1.247 . S
C19 O8 1.253 . S
C19 O9 1.283 . S
C20 O12 1.304 . S
C20 O14 1.272 . S
C21 O13 1.311 . S
C21 O15 1.231 . S
O22 Zn4 1.953 . S
O22 C16 1.298 . S
O23 Zn24 1.953 . S
O23 C39 1.225 . S
Zn24 O23 1.953 . S
Zn24 O25 1.949 . S
Zn24 O31 1.919 . S
Zn24 O36 1.924 . S
O25 Zn24 1.949 . S
O25 Zn26 1.923 . S
O25 Zn27 1.950 . S
O25 Zn28 1.945 . S
Zn26 O25 1.923 . S
Zn26 O29 1.933 . S
Zn26 O32 1.941 . S
Zn26 O33 1.965 . S
Zn27 O25 1.950 . S
Zn27 O34 1.938 . S
Zn27 O35 1.906 . S
Zn27 O45 1.953 . S
Zn28 O25 1.945 . S
Zn28 O30 1.932 . S
Zn28 O37 1.977 . S
Zn28 O38 1.910 . S
O29 Zn26 1.933 . S
O29 C40 1.226 . S
O30 Zn28 1.932 . S
O30 C40 1.307 . S
O31 Zn24 1.919 . S
O31 C42 1.253 . S
O32 Zn26 1.941 . S
O32 C42 1.283 . S
O33 Zn26 1.965 . S
O33 C41 1.303 . S
O34 Zn27 1.938 . S
O34 C41 1.247 . S
O35 Zn27 1.906 . S
O35 C43 1.304 . S
O36 Zn24 1.924 . S
O36 C44 1.311 . S
O37 Zn28 1.977 . S
O37 C43 1.272 . S
O38 Zn28 1.910 . S
O38 C44 1.231 . S
C39 O23 1.225 . S
C39 O45 1.298 . S
C40 O29 1.226 . S
C40 O30 1.307 . S
C41 O33 1.303 . S
C41 O34 1.247 . S
C42 O31 1.253 . S
C42 O32 1.283 . S
C43 O35 1.304 . S
C43 O37 1.272 . S
C44 O36 1.311 . S
C44 O38 1.231 . S
O45 Zn27 1.953 . S
O45 C39 1.298 . S
O46 Zn47 1.953 . S
O46 C62 1.225 . S
Zn47 O46 1.953 . S
Zn47 O48 1.949 . S
Zn47 O54 1.919 . S
Zn47 O59 1.924 . S
O48 Zn47 1.949 . S
O48 Zn49 1.923 . S
O48 Zn50 1.950 . S
O48 Zn51 1.945 . S
Zn49 O48 1.923 . S
Zn49 O52 1.933 . S
Zn49 O55 1.941 . S
Zn49 O56 1.965 . S
Zn50 O48 1.950 . S
Zn50 O57 1.938 . S
Zn50 O58 1.906 . S
Zn50 O68 1.953 . S
Zn51 O48 1.945 . S
Zn51 O53 1.932 . S
Zn51 O60 1.977 . S
Zn51 O61 1.910 . S
O52 Zn49 1.933 . S
O52 C63 1.226 . S
O53 Zn51 1.932 . S
O53 C63 1.307 . S
O54 Zn47 1.919 . S
O54 C65 1.253 . S
O55 Zn49 1.941 . S
O55 C65 1.283 . S
O56 Zn49 1.965 . S
O56 C64 1.303 . S
O57 Zn50 1.938 . S
O57 C64 1.247 . S
O58 Zn50 1.906 . S
O58 C66 1.304 . S
O59 Zn47 1.924 . S
O59 C67 1.311 . S
O60 Zn51 1.977 . S
O60 C66 1.272 . S
O61 Zn51 1.910 . S
O61 C67 1.231 . S
C62 O46 1.225 . S
C62 O68 1.298 . S
C63 O52 1.226 . S
C63 O53 1.307 . S
C64 O56 1.303 . S
C64 O57 1.247 . S
C65 O54 1.253 . S
C65 O55 1.283 . S
C66 O58 1.304 . S
C66 O60 1.272 . S
C67 O59 1.311 . S
C67 O61 1.231 . S
O68 Zn50 1.953 . S
O68 C62 1.298 . S
O69 Zn70 1.953 . S
O69 C85 1.225 . S
Zn70 O69 1.953 . S
Zn70 O71 1.949 . S
Zn70 O77 1.919 . S
Zn70 O82 1.924 . S
O71 Zn70 1.949 . S
O71 Zn72 1.923 . S
O71 Zn73 1.950 . S
O71 Zn74 1.945 . S
Zn72 O71 1.923 . S
Zn72 O75 1.933 . S
Zn72 O78 1.941 . S
Zn72 O79 1.965 . S
Zn73 O71 1.950 . S
Zn73 O80 1.938 . S
Zn73 O81 1.906 . S
Zn73 O91 1.953 . S
Zn74 O71 1.945 . S
Zn74 O76 1.932 . S
Zn74 O83 1.977 . S
Zn74 O84 1.910 . S
O75 Zn72 1.933 . S
O75 C86 1.226 . S
O76 Zn74 1.932 . S
O76 C86 1.307 . S
O77 Zn70 1.919 . S
O77 C88 1.253 . S
O78 Zn72 1.941 . S
O78 C88 1.283 . S
O79 Zn72 1.965 . S
O79 C87 1.303 . S
O80 Zn73 1.938 . S
O80 C87 1.247 . S
O81 Zn73 1.906 . S
O81 C89 1.304 . S
O82 Zn70 1.924 . S
O82 C90 1.311 . S
O83 Zn74 1.977 . S
O83 C89 1.272 . S
O84 Zn74 1.910 . S
O84 C90 1.231 . S
C85 O69 1.225 . S
C85 O91 1.298 . S
C86 O75 1.226 . S
C86 O76 1.307 . S
C87 O79 1.303 . S
C87 O80 1.247 . S
C88 O77 1.253 . S
C88 O78 1.283 . S
C89 O81 1.304 . S
C89 O83 1.272 . S
C90 O82 1.311 . S
C90 O84 1.231 . S
O91 Zn73 1.953 . S
O91 C85 1.298 . S
O92 Zn93 1.953 . S
O92 C108 1.225 . S
Zn93 O92 1.953 . S
Zn93 O94 1.949 . S
Zn93 O100 1.919 . S
Zn93 O105 1.924 . S
O94 Zn93 1.949 . S
O94 Zn95 1.923 . S
O94 Zn96 1.950 . S
O94 Zn97 1.945 . S
Zn95 O94 1.923 . S
Zn95 O98 1.933 . S
Zn95 O101 1.941 . S
Zn95 O102 1.965 . S
Zn96 O94 1.950 . S
Zn96 O103 1.938 . S
Zn96 O104 1.906 . S
Zn96 O114 1.953 . S
Zn97 O94 1.945 . S
Zn97 O99 1.932 . S
Zn97 O106 1.977 . S
Zn97 O107 1.910 . S
O98 Zn95 1.933 . S
O98 C109 1.226 . S
O99 Zn97 1.932 . S
O99 C109 1.307 . S
O100 Zn93 1.919 . S
O100 C111 1.253 . S
O101 Zn95 1.941 . S
O101 C111 1.283 . S
O102 Zn95 1.965 . S
O102 C110 1.303 . S
O103 Zn96 1.938 . S
O103 C110 1.247 . S
O104 Zn96 1.906 . S
O104 C112 1.304 . S
O105 Zn93 1.924 . S
O105 C113 1.311 . S
O106 Zn97 1.977 . S
O106 C112 1.272 . S
O107 Zn97 1.910 . S
O107 C113 1.231 . S
C108 O92 1.225 . S
C108 O114 1.298 . S
C109 O98 1.226 . S
C109 O99 1.307 . S
C110 O102 1.303 . S
C110 O103 1.247 . S
C111 O100 1.253 . S
C111 O101 1.283 . S
C112 O104 1.304 . S
C112 O106 1.272 . S
C113 O105 1.311 . S
C113 O107 1.231 . S
O114 Zn96 1.953 . S
O114 C108 1.298 . S
O115 Zn116 1.953 . S
O115 C131 1.225 . S
Zn116 O115 1.953 . S
Zn116 O117 1.949 . S
Zn116 O123 1.919 . S
Zn116 O128 1.924 . S
O117 Zn116 1.949 . S
O117 Zn118 1.923 . S
O117 Zn119 1.950 . S
O117 Zn120 1.945 . S
Zn118 O117 1.923 . S
Zn118 O121 1.933 . S
Zn118 O124 1.941 . S
Zn118 O125 1.965 . S
Zn119 O117 1.950 . S
Zn119 O126 1.938 . S
Zn119 O127 1.906 . S
Zn119 O137 1.953 . S
Zn120 O117 1.945 . S
Zn120 O122 1.932 . S
Zn120 O129 1.977 . S
Zn120 O130 1.910 . S
O121 Zn118 1.933 . S
O121 C132 1.226 . S
O122 Zn120 1.932 . S
O122 C132 1.307 . S
O123 Zn116 1.919 . S
O123 C134 1.253 . S
O124 Zn118 1.941 . S
O124 C134 1.283 . S
O125 Zn118 1.965 . S
O125 C133 1.303 . S
O126 Zn119 1.938 . S
O126 C133 1.247 . S
O127 Zn119 1.906 . S
O127 C135 1.304 . S
O128 Zn116 1.924 . S
O128 C136 1.311 . S
O129 Zn120 1.977 . S
O129 C135 1.272 . S
O130 Zn120 1.910 . S
O130 C136 1.231 . S
C131 O115 1.225 . S
C131 O137 1.298 . S
C132 O121 1.226 . S
C132 O122 1.307 . S
C133 O125 1.303 . S
C133 O126 1.247 . S
C134 O123 1.253 . S
C134 O124 1.283 . S
C135 O127 1.304 . S
C135 O129 1.272 . S
C136 O128 1.311 . S
C136 O130 1.231 . S
O137 Zn119 1.953 . S
O137 C131 1.298 . S
O138 Zn139 1.953 . S
O138 C154 1.225 . S
Zn139 O138 1.953 . S
Zn139 O140 1.949 . S
Zn139 O146 1.919 . S
Zn139 O151 1.924 . S
O140 Zn139 1.949 . S
O140 Zn141 1.923 . S
O140 Zn142 1.950 . S
O140 Zn143 1.945 . S
Zn141 O140 1.923 . S
Zn141 O144 1.933 . S
Zn141 O147 1.941 . S
Zn141 O148 1.965 . S
Zn142 O140 1.950 . S
Zn142 O149 1.938 . S
Zn142 O150 1.906 . S
Zn142 O160 1.953 . S
Zn143 O140 1.945 . S
Zn143 O145 1.932 . S
Zn143 O152 1.977 . S
Zn143 O153 1.910 . S
O144 Zn141 1.933 . S
O144 C155 1.226 . S
O145 Zn143 1.932 . S
O145 C155 1.307 . S
O146 Zn139 1.919 . S
O146 C157 1.253 . S
O147 Zn141 1.941 . S
O147 C157 1.283 . S
O148 Zn141 1.965 . S
O148 C156 1.303 . S
O149 Zn142 1.938 . S
O149 C156 1.247 . S
O150 Zn142 1.906 . S
O150 C158 1.304 . S
O151 Zn139 1.924 . S
O151 C159 1.311 . S
O152 Zn143 1.977 . S
O152 C158 1.272 . S
O153 Zn143 1.910 . S
O153 C159 1.231 . S
C154 O138 1.225 . S
C154 O160 1.298 . S
C155 O144 1.226 . S
C155 O145 1.307 . S
C156 O148 1.303 . S
C156 O149 1.247 . S
C157 O146 1.253 . S
C157 O147 1.283 . S
C158 O150 1.304 . S
C158 O152 1.272 . S
C159 O151 1.311 . S
C159 O153 1.231 . S
O160 Zn142 1.953 . S
O160 C154 1.298 . S
O161 Zn162 1.953 . S
O161 C177 1.225 . S
Zn162 O161 1.953 . S
Zn162 O163 1.949 . S
Zn162 O169 1.919 . S
Zn162 O174 1.924 . S
O163 Zn162 1.949 . S
O163 Zn164 1.923 . S
O163 Zn165 1.950 . S
O163 Zn166 1.945 . S
Zn164 O163 1.923 . S
Zn164 O167 1.933 . S
Zn164 O170 1.941 . S
Zn164 O171 1.965 . S
Zn165 O163 1.950 . S
Zn165 O172 1.938 . S
Zn165 O173 1.906 . S
Zn165 O183 1.953 . S
Zn166 O163 1.945 . S
Zn166 O168 1.932 . S
Zn166 O175 1.977 . S
Zn166 O176 1.910 . S
O167 Zn164 1.933 . S
O167 C178 1.226 . S
O168 Zn166 1.932 . S
O168 C178 1.307 . S
O169 Zn162 1.919 . S
O169 C180 1.253 . S
O170 Zn164 1.941 . S
O170 C180 1.283 . S
O171 Zn164 1.965 . S
O171 C179 1.303 . S
O172 Zn165 1.938 . S
O172 C179 1.247 . S
O173 Zn165 1.906 . S
O173 C181 1.304 . S
O174 Zn162 1.924 . S
O174 C182 1.311 . S
O175 Zn166 1.977 . S
O175 C181 1.272 . S
O176 Zn166 1.910 . S
O176 C182 1.231 . S
C177 O161 1.225 . S
C177 O183 1.298 . S
C178 O167 1.226 . S
C178 O168 1.307 . S
C179 O171 1.303 . S
C179 O172 1.247 . S
C180 O169 1.253 . S
C180 O170 1.283 . S
C181 O173 1.304 . S
C181 O175 1.272 . S
C182 O174 1.311 . S
C182 O176 1.231 . S
O183 Zn165 1.953 . S
O183 C177 1.298 . S
H184 C190 0.930 . S
H185 C193 0.930 . S
H186 C194 0.930 . S
H187 C195 0.930 . S
H188 C198 0.930 . S
H189 C199 0.930 . S
C190 H184 0.930 . S
C190 C191 1.355 1_545 S
C190 C192 1.415 . S
C191 C190 1.355 1_565 S
C191 C193 1.419 . S
C192 C190 1.415 . S
C192 C197 1.425 . S
C192 C199 1.409 . S
C193 H185 0.930 . S
C193 C191 1.419 . S
C193 C194 1.362 1_565 S
C194 H186 0.930 . S
C194 C193 1.362 1_545 S
C194 C197 1.409 . S
C195 H187 0.930 . S
C195 C196 1.355 . S
C195 C197 1.415 . S
C196 C195 1.355 . S
C196 C198 1.419 . S
C197 C192 1.425 . S
C197 C194 1.409 . S
C197 C195 1.415 . S
C198 H188 0.930 . S
C198 C196 1.419 . S
C198 C199 1.362 . S
C199 H189 0.930 . S
C199 C192 1.409 . S
C199 C198 1.362 . S
H200 C206 0.930 . S
H201 C209 0.930 . S
H202 C210 0.930 . S
H203 C211 0.930 . S
H204 C214 0.930 . S
H205 C215 0.930 . S
C206 H200 0.930 . S
C206 C207 1.355 . S
C206 C208 1.415 . S
C207 C206 1.355 . S
C207 C209 1.419 . S
C208 C206 1.415 . S
C208 C213 1.425 . S
C208 C215 1.409 . S
C209 H201 0.930 . S
C209 C207 1.419 . S
C209 C210 1.362 . S
C210 H202 0.930 . S
C210 C209 1.362 . S
C210 C213 1.409 . S
C211 H203 0.930 . S
C211 C212 1.355 . S
C211 C213 1.415 . S
C212 C211 1.355 . S
C212 C214 1.419 . S
C213 C208 1.425 . S
C213 C210 1.409 . S
C213 C211 1.415 . S
C214 H204 0.930 . S
C214 C212 1.419 . S
C214 C215 1.362 . S
C215 H205 0.930 . S
C215 C208 1.409 . S
C215 C214 1.362 . S
H216 C222 0.930 . S
H217 C225 0.930 . S
H218 C226 0.930 . S
H219 C227 0.930 . S
H220 C230 0.930 . S
H221 C231 0.930 . S
C222 H216 0.930 . S
C222 C223 1.355 . S
C222 C224 1.415 . S
C223 C222 1.355 . S
C223 C225 1.419 . S
C224 C222 1.415 . S
C224 C229 1.425 . S
C224 C231 1.409 . S
C225 H217 0.930 . S
C225 C223 1.419 . S
C225 C226 1.362 . S
C226 H218 0.930 . S
C226 C225 1.362 . S
C226 C229 1.409 . S
C227 H219 0.930 . S
C227 C228 1.355 . S
C227 C229 1.415 . S
C228 C227 1.355 . S
C228 C230 1.419 . S
C229 C224 1.425 . S
C229 C226 1.409 . S
C229 C227 1.415 . S
C230 H220 0.930 . S
C230 C228 1.419 . S
C230 C231 1.362 . S
C231 H221 0.930 . S
C231 C224 1.409 . S
C231 C230 1.362 . S
H232 C238 0.930 . S
H233 C241 0.930 . S
H234 C242 0.930 . S
H235 C243 0.930 . S
H236 C246 0.930 . S
H237 C247 0.930 . S
C238 H232 0.930 . S
C238 C239 1.355 . S
C238 C240 1.415 . S
C239 C238 1.355 . S
C239 C241 1.419 . S
C240 C238 1.415 . S
C240 C245 1.425 . S
C240 C247 1.409 . S
C241 H233 0.930 . S
C241 C239 1.419 . S
C241 C242 1.362 . S
C242 H234 0.930 . S
C242 C241 1.362 . S
C242 C245 1.409 . S
C243 H235 0.930 . S
C243 C244 1.355 1_545 S
C243 C245 1.415 . S
C244 C243 1.355 1_565 S
C244 C246 1.419 . S
C245 C240 1.425 . S
C245 C242 1.409 . S
C245 C243 1.415 . S
C246 H236 0.930 . S
C246 C244 1.419 . S
C246 C247 1.362 1_565 S
C247 H237 0.930 . S
C247 C240 1.409 . S
C247 C246 1.362 1_545 S
H248 C254 0.930 . S
H249 C257 0.930 . S
H250 C258 0.930 . S
H251 C259 0.930 . S
H252 C262 0.930 . S
H253 C263 0.930 . S
C254 H248 0.930 . S
C254 C255 1.355 1_565 S
C254 C256 1.415 . S
C255 C254 1.355 1_545 S
C255 C257 1.419 . S
C256 C254 1.415 . S
C256 C261 1.425 . S
C256 C263 1.409 . S
C257 H249 0.930 . S
C257 C255 1.419 . S
C257 C258 1.362 1_545 S
C258 H250 0.930 . S
C258 C257 1.362 1_565 S
C258 C261 1.409 . S
C259 H251 0.930 . S
C259 C260 1.355 . S
C259 C261 1.415 . S
C260 C259 1.355 . S
C260 C262 1.419 . S
C261 C256 1.425 . S
C261 C258 1.409 . S
C261 C259 1.415 . S
C262 H252 0.930 . S
C262 C260 1.419 . S
C262 C263 1.362 . S
C263 H253 0.930 . S
C263 C256 1.409 . S
C263 C262 1.362 . S
H264 C270 0.930 . S
H265 C273 0.930 . S
H266 C274 0.930 . S
H267 C275 0.930 . S
H268 C278 0.930 . S
H269 C279 0.930 . S
C270 H264 0.930 . S
C270 C271 1.355 . S
C270 C272 1.415 . S
C271 C270 1.355 . S
C271 C273 1.419 . S
C272 C270 1.415 . S
C272 C277 1.425 . S
C272 C279 1.409 . S
C273 H265 0.930 . S
C273 C271 1.419 . S
C273 C274 1.362 . S
C274 H266 0.930 . S
C274 C273 1.362 . S
C274 C277 1.409 . S
C275 H267 0.930 . S
C275 C276 1.355 . S
C275 C277 1.415 . S
C276 C275 1.355 . S
C276 C278 1.419 . S
C277 C272 1.425 . S
C277 C274 1.409 . S
C277 C275 1.415 . S
C278 H268 0.930 . S
C278 C276 1.419 . S
C278 C279 1.362 . S
C279 H269 0.930 . S
C279 C272 1.409 . S
C279 C278 1.362 . S
H280 C286 0.930 . S
H281 C289 0.930 . S
H282 C290 0.930 . S
H283 C291 0.930 . S
H284 C294 0.930 . S
H285 C295 0.930 . S
C286 H280 0.930 . S
C286 C287 1.355 . S
C286 C288 1.415 . S
C287 C286 1.355 . S
C287 C289 1.419 . S
C288 C286 1.415 . S
C288 C293 1.425 . S
C288 C295 1.409 . S
C289 H281 0.930 . S
C289 C287 1.419 . S
C289 C290 1.362 . S
C290 H282 0.930 . S
C290 C289 1.362 . S
C290 C293 1.409 . S
C291 H283 0.930 . S
C291 C292 1.355 . S
C291 C293 1.415 . S
C292 C291 1.355 . S
C292 C294 1.419 . S
C293 C288 1.425 . S
C293 C290 1.409 . S
C293 C291 1.415 . S
C294 H284 0.930 . S
C294 C292 1.419 . S
C294 C295 1.362 . S
C295 H285 0.930 . S
C295 C288 1.409 . S
C295 C294 1.362 . S
H296 C302 0.930 . S
H297 C305 0.930 . S
H298 C306 0.930 . S
H299 C307 0.930 . S
H300 C310 0.930 . S
H301 C311 0.930 . S
C302 H296 0.930 . S
C302 C303 1.355 . S
C302 C304 1.415 1_545 S
C303 C302 1.355 . S
C303 C305 1.419 . S
C304 C302 1.415 1_565 S
C304 C309 1.425 . S
C304 C311 1.409 . S
C305 H297 0.930 . S
C305 C303 1.419 . S
C305 C306 1.362 1_545 S
C306 H298 0.930 . S
C306 C305 1.362 1_565 S
C306 C309 1.409 . S
C307 H299 0.930 . S
C307 C308 1.355 . S
C307 C309 1.415 . S
C308 C307 1.355 . S
C308 C310 1.419 . S
C309 C304 1.425 . S
C309 C306 1.409 . S
C309 C307 1.415 . S
C310 H300 0.930 . S
C310 C308 1.419 . S
C310 C311 1.362 . S
C311 H301 0.930 . S
C311 C304 1.409 . S
C311 C310 1.362 . S
H312 C318 0.930 . S
H313 C321 0.930 . S
H314 C322 0.930 . S
H315 C323 0.930 . S
H316 C326 0.930 . S
H317 C327 0.930 . S
C318 H312 0.930 . S
C318 C319 1.355 . S
C318 C320 1.415 . S
C319 C318 1.355 . S
C319 C321 1.419 . S
C320 C318 1.415 . S
C320 C325 1.425 . S
C320 C327 1.409 . S
C321 H313 0.930 . S
C321 C319 1.419 . S
C321 C322 1.362 . S
C322 H314 0.930 . S
C322 C321 1.362 . S
C322 C325 1.409 . S
C323 H315 0.930 . S
C323 C324 1.355 . S
C323 C325 1.415 . S
C324 C323 1.355 . S
C324 C326 1.419 . S
C325 C320 1.425 . S
C325 C322 1.409 . S
C325 C323 1.415 . S
C326 H316 0.930 . S
C326 C324 1.419 . S
C326 C327 1.362 . S
C327 H317 0.930 . S
C327 C320 1.409 . S
C327 C326 1.362 . S
H328 C334 0.930 . S
H329 C337 0.931 1_545 S
H330 C338 0.930 . S
H331 C339 0.930 . S
H332 C342 0.931 1_565 S
H333 C343 0.930 . S
C334 H328 0.930 . S
C334 C335 1.355 . S
C334 C336 1.415 1_554 S
C335 C334 1.355 . S
C335 C337 1.422 . S
C336 C334 1.415 1_556 S
C336 C341 1.425 1_666 S
C336 C343 1.409 . S
C337 H329 0.931 1_565 S
C337 C335 1.422 . S
C337 C338 1.360 1_665 S
C338 H330 0.930 . S
C338 C337 1.360 1_445 S
C338 C341 1.409 . S
C339 H331 0.930 . S
C339 C340 1.355 . S
C339 C341 1.415 1_556 S
C340 C339 1.355 . S
C340 C342 1.422 . S
C341 C336 1.425 1_444 S
C341 C338 1.409 . S
C341 C339 1.415 1_554 S
C342 H332 0.931 1_545 S
C342 C340 1.422 . S
C342 C343 1.360 1_445 S
C343 H333 0.930 . S
C343 C336 1.409 . S
C343 C342 1.360 1_665 S
H344 C350 0.930 . S
H345 C353 0.930 . S
H346 C354 0.930 . S
H347 C355 0.930 . S
H348 C358 0.930 . S
H349 C359 0.930 . S
C350 H344 0.930 . S
C350 C351 1.355 1_455 S
C350 C352 1.415 . S
C351 C350 1.355 1_655 S
C351 C353 1.419 . S
C352 C350 1.415 . S
C352 C357 1.425 1_445 S
C352 C359 1.409 . S
C353 H345 0.930 . S
C353 C351 1.419 . S
C353 C354 1.362 1_545 S
C354 H346 0.930 . S
C354 C353 1.362 1_565 S
C354 C357 1.409 . S
C355 H347 0.930 . S
C355 C356 1.355 1_655 S
C355 C357 1.415 . S
C356 C355 1.355 1_455 S
C356 C358 1.419 . S
C357 C352 1.425 1_665 S
C357 C354 1.409 . S
C357 C355 1.415 . S
C358 H348 0.930 . S
C358 C356 1.419 . S
C358 C359 1.362 1_565 S
C359 H349 0.930 . S
C359 C352 1.409 . S
C359 C358 1.362 1_545 S
H360 C366 0.930 . S
H361 C369 0.930 . S
H362 C370 0.930 . S
H363 C371 0.930 . S
H364 C374 0.930 . S
H365 C375 0.930 . S
C366 H360 0.930 . S
C366 C367 1.355 . S
C366 C368 1.415 . S
C367 C366 1.355 . S
C367 C369 1.419 . S
C368 C366 1.415 . S
C368 C373 1.425 1_556 S
C368 C375 1.409 1_556 S
C369 H361 0.930 . S
C369 C367 1.419 . S
C369 C370 1.362 . S
C370 H362 0.930 . S
C370 C369 1.362 . S
C370 C373 1.409 1_556 S
C371 H363 0.930 . S
C371 C372 1.355 . S
C371 C373 1.415 . S
C372 C371 1.355 . S
C372 C374 1.419 . S
C373 C368 1.425 1_554 S
C373 C370 1.409 1_554 S
C373 C371 1.415 . S
C374 H364 0.930 . S
C374 C372 1.419 . S
C374 C375 1.362 . S
C375 H365 0.930 . S
C375 C368 1.409 1_554 S
C375 C374 1.362 . S
H376 C382 0.930 . S
H377 C385 0.930 . S
H378 C386 0.930 . S
H379 C387 0.930 . S
H380 C390 0.930 . S
H381 C391 0.930 . S
C382 H376 0.930 . S
C382 C383 1.355 . S
C382 C384 1.415 . S
C383 C382 1.355 . S
C383 C385 1.419 . S
C384 C382 1.415 . S
C384 C389 1.425 . S
C384 C391 1.409 . S
C385 H377 0.930 . S
C385 C383 1.419 . S
C385 C386 1.362 . S
C386 H378 0.930 . S
C386 C385 1.362 . S
C386 C389 1.409 . S
C387 H379 0.930 . S
C387 C388 1.355 . S
C387 C389 1.415 . S
C388 C387 1.355 . S
C388 C390 1.419 . S
C389 C384 1.425 . S
C389 C386 1.409 . S
C389 C387 1.415 . S
C390 H380 0.930 . S
C390 C388 1.419 . S
C390 C391 1.362 . S
C391 H381 0.930 . S
C391 C384 1.409 . S
C391 C390 1.362 . S
H392 C398 0.930 . S
H393 C401 0.930 . S
H394 C402 0.930 . S
H395 C403 0.930 . S
H396 C406 0.930 . S
H397 C407 0.930 . S
C398 H392 0.930 . S
C398 C399 1.355 1_655 S
C398 C400 1.415 . S
C399 C398 1.355 1_455 S
C399 C401 1.419 . S
C400 C398 1.415 . S
C400 C405 1.425 1_655 S
C400 C407 1.409 . S
C401 H393 0.930 . S
C401 C399 1.419 . S
C401 C402 1.362 . S
C402 H394 0.930 . S
C402 C401 1.362 . S
C402 C405 1.409 . S
C403 H395 0.930 . S
C403 C404 1.355 1_455 S
C403 C405 1.415 . S
C404 C403 1.355 1_655 S
C404 C406 1.419 . S
C405 C400 1.425 1_455 S
C405 C402 1.409 . S
C405 C403 1.415 . S
C406 H396 0.930 . S
C406 C404 1.419 . S
C406 C407 1.362 . S
C407 H397 0.930 . S
C407 C400 1.409 . S
C407 C406 1.362 . S
H408 C414 0.930 . S
H409 C417 0.930 . S
H410 C418 0.930 . S
H411 C419 0.930 . S
H412 C422 0.930 . S
H413 C423 0.930 . S
C414 H408 0.930 . S
C414 C415 1.355 . S
C414 C416 1.415 . S
C415 C414 1.355 . S
C415 C417 1.419 . S
C416 C414 1.415 . S
C416 C421 1.425 . S
C416 C423 1.409 . S
C417 H409 0.930 . S
C417 C415 1.419 . S
C417 C418 1.362 . S
C418 H410 0.930 . S
C418 C417 1.362 . S
C418 C421 1.409 . S
C419 H411 0.930 . S
C419 C420 1.355 . S
C419 C421 1.415 . S
C420 C419 1.355 . S
C420 C422 1.419 . S
C421 C416 1.425 . S
C421 C418 1.409 . S
C421 C419 1.415 . S
C422 H412 0.930 . S
C422 C420 1.419 . S
C422 C423 1.362 . S
C423 H413 0.930 . S
C423 C416 1.409 . S
C423 C422 1.362 . S
H424 C430 0.930 . S
H425 C433 0.930 . S
H426 C434 0.930 . S
H427 C435 0.930 . S
H428 C438 0.930 . S
H429 C439 0.930 . S
C430 H424 0.930 . S
C430 C431 1.355 . S
C430 C432 1.415 . S
C431 C430 1.355 . S
C431 C433 1.419 . S
C432 C430 1.415 . S
C432 C437 1.425 1_655 S
C432 C439 1.409 . S
C433 H425 0.930 . S
C433 C431 1.419 . S
C433 C434 1.362 1_655 S
C434 H426 0.930 . S
C434 C433 1.362 1_455 S
C434 C437 1.409 . S
C435 H427 0.930 . S
C435 C436 1.355 . S
C435 C437 1.415 . S
C436 C435 1.355 . S
C436 C438 1.419 . S
C437 C432 1.425 1_455 S
C437 C434 1.409 . S
C437 C435 1.415 . S
C438 H428 0.930 . S
C438 C436 1.419 . S
C438 C439 1.362 1_455 S
C439 H429 0.930 . S
C439 C432 1.409 . S
C439 C438 1.362 1_655 S
H440 C446 0.930 . S
H441 C449 0.930 . S
H442 C450 0.930 . S
H443 C451 0.930 . S
H444 C454 0.930 . S
H445 C455 0.930 . S
C446 H440 0.930 . S
C446 C447 1.355 . S
C446 C448 1.415 . S
C447 C446 1.355 . S
C447 C449 1.419 . S
C448 C446 1.415 . S
C448 C453 1.425 . S
C448 C455 1.409 . S
C449 H441 0.930 . S
C449 C447 1.419 . S
C449 C450 1.362 . S
C450 H442 0.930 . S
C450 C449 1.362 . S
C450 C453 1.409 . S
C451 H443 0.930 . S
C451 C452 1.355 . S
C451 C453 1.415 . S
C452 C451 1.355 . S
C452 C454 1.419 . S
C453 C448 1.425 . S
C453 C450 1.409 . S
C453 C451 1.415 . S
C454 H444 0.930 . S
C454 C452 1.419 . S
C454 C455 1.362 . S
C455 H445 0.930 . S
C455 C448 1.409 . S
C455 C454 1.362 . S
H456 C462 0.930 . S
H457 C465 0.930 . S
H458 C466 0.930 . S
H459 C467 0.930 . S
H460 C470 0.930 . S
H461 C471 0.930 . S
C462 H456 0.930 . S
C462 C463 1.355 . S
C462 C464 1.415 . S
C463 C462 1.355 . S
C463 C465 1.419 . S
C464 C462 1.415 . S
C464 C469 1.425 . S
C464 C471 1.409 . S
C465 H457 0.930 . S
C465 C463 1.419 . S
C465 C466 1.362 . S
C466 H458 0.930 . S
C466 C465 1.362 . S
C466 C469 1.409 . S
C467 H459 0.930 . S
C467 C468 1.355 . S
C467 C469 1.415 1_554 S
C468 C467 1.355 . S
C468 C470 1.419 . S
C469 C464 1.425 . S
C469 C466 1.409 . S
C469 C467 1.415 1_556 S
C470 H460 0.930 . S
C470 C468 1.419 . S
C470 C471 1.362 1_554 S
C471 H461 0.930 . S
C471 C464 1.409 . S
C471 C470 1.362 1_556 S
H472 C478 0.930 . S
H473 C481 0.930 . S
H474 C482 0.930 . S
H475 C483 0.930 . S
H476 C486 0.930 . S
H477 C487 0.930 . S
C478 H472 0.930 . S
C478 C479 1.355 . S
C478 C480 1.415 . S
C479 C478 1.355 . S
C479 C481 1.419 . S
C480 C478 1.415 . S
C480 C485 1.425 . S
C480 C487 1.409 . S
C481 H473 0.930 . S
C481 C479 1.419 . S
C481 C482 1.362 . S
C482 H474 0.930 . S
C482 C481 1.362 . S
C482 C485 1.409 . S
C483 H475 0.930 . S
C483 C484 1.355 . S
C483 C485 1.415 . S
C484 C483 1.355 . S
C484 C486 1.419 . S
C485 C480 1.425 . S
C485 C482 1.409 . S
C485 C483 1.415 . S
C486 H476 0.930 . S
C486 C484 1.419 . S
C486 C487 1.362 . S
C487 H477 0.930 . S
C487 C480 1.409 . S
C487 C486 1.362 . S
H488 C494 0.930 1_556 S
H489 C497 0.930 . S
H490 C498 0.930 . S
H491 C499 0.930 . S
H492 C502 0.930 . S
H493 C503 0.930 . S
C494 H488 0.930 1_554 S
C494 C495 1.355 . S
C494 C496 1.415 . S
C495 C494 1.355 . S
C495 C497 1.419 . S
C496 C494 1.415 . S
C496 C501 1.425 . S
C496 C503 1.409 1_554 S
C497 H489 0.930 . S
C497 C495 1.419 . S
C497 C498 1.362 . S
C498 H490 0.930 . S
C498 C497 1.362 . S
C498 C501 1.409 . S
C499 H491 0.930 . S
C499 C500 1.355 1_554 S
C499 C501 1.415 . S
C500 C499 1.355 1_556 S
C500 C502 1.419 . S
C501 C496 1.425 . S
C501 C498 1.409 . S
C501 C499 1.415 . S
C502 H492 0.930 . S
C502 C500 1.419 . S
C502 C503 1.362 . S
C503 H493 0.930 . S
C503 C496 1.409 1_556 S
C503 C502 1.362 . S
H504 C510 0.930 . S
H505 C513 0.930 . S
H506 C514 0.930 . S
H507 C515 0.930 . S
H508 C518 0.930 . S
H509 C519 0.930 . S
C510 H504 0.930 . S
C510 C511 1.355 . S
C510 C512 1.415 . S
C511 C510 1.355 . S
C511 C513 1.419 . S
C512 C510 1.415 . S
C512 C517 1.425 . S
C512 C519 1.409 . S
C513 H505 0.930 . S
C513 C511 1.419 . S
C513 C514 1.362 . S
C514 H506 0.930 . S
C514 C513 1.362 . S
C514 C517 1.409 . S
C515 H507 0.930 . S
C515 C516 1.355 . S
C515 C517 1.415 . S
C516 C515 1.355 . S
C516 C518 1.419 . S
C517 C512 1.425 . S
C517 C514 1.409 . S
C517 C515 1.415 . S
C518 H508 0.930 . S
C518 C516 1.419 . S
C518 C519 1.362 . S
C519 H509 0.930 . S
C519 C512 1.409 . S
C519 C518 1.362 . S
H520 C526 0.930 . S
H521 C529 0.930 1_556 S
H522 C530 0.930 . S
H523 C531 0.930 . S
H524 C534 0.930 . S
H525 C535 0.930 . S
C526 H520 0.930 . S
C526 C527 1.355 . S
C526 C528 1.415 . S
C527 C526 1.355 . S
C527 C529 1.419 . S
C528 C526 1.415 . S
C528 C533 1.425 1_554 S
C528 C535 1.409 . S
C529 H521 0.930 1_554 S
C529 C527 1.419 . S
C529 C530 1.362 1_554 S
C530 H522 0.930 . S
C530 C529 1.362 1_556 S
C530 C533 1.409 . S
C531 H523 0.930 . S
C531 C532 1.355 . S
C531 C533 1.415 . S
C532 C531 1.355 . S
C532 C534 1.419 1_556 S
C533 C528 1.425 1_556 S
C533 C530 1.409 . S
C533 C531 1.415 . S
C534 H524 0.930 . S
C534 C532 1.419 1_554 S
C534 C535 1.362 . S
C535 H525 0.930 . S
C535 C528 1.409 . S
C535 C534 1.362 . S
H536 C542 0.930 . S
H537 C545 0.930 . S
H538 C546 0.930 . S
H539 C547 0.930 . S
H540 C550 0.930 . S
H541 C551 0.930 . S
C542 H536 0.930 . S
C542 C543 1.355 . S
C542 C544 1.415 . S
C543 C542 1.355 . S
C543 C545 1.419 . S
C544 C542 1.415 . S
C544 C549 1.425 . S
C544 C551 1.409 . S
C545 H537 0.930 . S
C545 C543 1.419 . S
C545 C546 1.362 . S
C546 H538 0.930 . S
C546 C545 1.362 . S
C546 C549 1.409 . S
C547 H539 0.930 . S
C547 C548 1.355 . S
C547 C549 1.415 . S
C548 C547 1.355 . S
C548 C550 1.419 . S
C549 C544 1.425 . S
C549 C546 1.409 . S
C549 C547 1.415 . S
C550 H540 0.930 . S
C550 C548 1.419 . S
C550 C551 1.362 . S
C551 H541 0.930 . S
C551 C544 1.409 . S
C551 C550 1.362 . S
H552 C558 0.930 . S
H553 C561 0.930 . S
H554 C562 0.930 . S
H555 C563 0.930 1_554 S
H556 C566 0.930 . S
H557 C567 0.930 . S
C558 H552 0.930 . S
C558 C559 1.355 1_556 S
C558 C560 1.415 . S
C559 C558 1.355 1_554 S
C559 C561 1.419 . S
C560 C558 1.415 . S
C560 C565 1.425 . S
C560 C567 1.409 . S
C561 H553 0.930 . S
C561 C559 1.419 . S
C561 C562 1.362 . S
C562 H554 0.930 . S
C562 C561 1.362 . S
C562 C565 1.409 1_554 S
C563 H555 0.930 1_556 S
C563 C564 1.355 . S
C563 C565 1.415 . S
C564 C563 1.355 . S
C564 C566 1.419 . S
C565 C560 1.425 . S
C565 C562 1.409 1_556 S
C565 C563 1.415 . S
C566 H556 0.930 . S
C566 C564 1.419 . S
C566 C567 1.362 . S
C567 H557 0.930 . S
C567 C560 1.409 . S
C567 C566 1.362 . S
C191 C156 1.649 . S
C196 C17 1.625 . S
C207 C40 1.619 . S
C212 C179 1.647 . S
C223 C110 1.648 . S
C228 C63 1.620 . S
C239 C86 1.639 . S
C244 C133 1.645 . S
C255 C64 1.649 . S
C260 C109 1.626 . S
C271 C132 1.610 . S
C276 C87 1.643 . S
C287 C18 1.615 . S
C292 C155 1.620 . S
C303 C41 1.615 . S
C308 C178 1.621 . S
C319 C16 0.999 . S
C324 C108 0.999 . S
C335 C131 1.005 . S
C340 C39 1.005 . S
C351 C62 0.947 . S
C356 C154 0.947 . S
C367 C177 0.988 . S
C372 C85 0.988 . S
C383 C89 1.353 . S
C388 C20 1.352 . S
C399 C43 1.350 . S
C404 C66 1.358 . S
C415 C181 1.349 . S
C420 C112 1.358 . S
C431 C135 1.357 . S
C436 C158 1.349 . S
C447 C21 1.674 . S
C452 C65 1.600 . S
C463 C44 1.677 1_655 S
C468 C88 1.641 . S
C479 C67 1.663 1_455 S
C484 C19 1.595 . S
C495 C90 1.673 . S
C500 C42 1.597 . S
C511 C113 1.672 . S
C516 C157 1.596 . S
C527 C136 1.667 1_455 S
C532 C180 1.628 . S
C543 C159 1.677 1_655 S
C548 C111 1.641 . S
C559 C134 1.585 . S
C564 C182 1.669 . S
