# Generated by pormake.
# Topology bcg, (8)-cn, num edge types: 1
# Building blocks:
#     Node 0, Type 0, BuildingBlock: EBIMEJ_clean_sbu_0, # of connection points: 8
#     Node 1, Type 0, BuildingBlock: EBIMEJ_clean_sbu_0, # of connection points: 8
#     Node 2, Type 0, BuildingBlock: EBIMEJ_clean_sbu_0, # of connection points: 8
#     Node 3, Type 0, BuildingBlock: EBIMEJ_clean_sbu_0, # of connection points: 8
#     Edge 4, Type (0, 0), BuildingBlock: KIFKEQ_clean_linker_1, # of connection points: 2
#     Edge 5, Type (0, 0), BuildingBlock: KIFKEQ_clean_linker_1, # of connection points: 2
#     Edge 6, Type (0, 0), BuildingBlock: KIFKEQ_clean_linker_1, # of connection points: 2
#     Edge 7, Type (0, 0), BuildingBlock: KIFKEQ_clean_linker_1, # of connection points: 2
#     Edge 8, Type (0, 0), BuildingBlock: KIFKEQ_clean_linker_1, # of connection points: 2
#     Edge 9, Type (0, 0), BuildingBlock: KIFKEQ_clean_linker_1, # of connection points: 2
#     Edge 10, Type (0, 0), BuildingBlock: KIFKEQ_clean_linker_1, # of connection points: 2
#     Edge 11, Type (0, 0), BuildingBlock: KIFKEQ_clean_linker_1, # of connection points: 2
#     Edge 12, Type (0, 0), BuildingBlock: KIFKEQ_clean_linker_1, # of connection points: 2
#     Edge 13, Type (0, 0), BuildingBlock: KIFKEQ_clean_linker_1, # of connection points: 2
#     Edge 14, Type (0, 0), BuildingBlock: KIFKEQ_clean_linker_1, # of connection points: 2
#     Edge 15, Type (0, 0), BuildingBlock: KIFKEQ_clean_linker_1, # of connection points: 2
#     Edge 16, Type (0, 0), BuildingBlock: KIFKEQ_clean_linker_1, # of connection points: 2
#     Edge 17, Type (0, 0), BuildingBlock: KIFKEQ_clean_linker_1, # of connection points: 2
#     Edge 18, Type (0, 0), BuildingBlock: KIFKEQ_clean_linker_1, # of connection points: 2
#     Edge 19, Type (0, 0), BuildingBlock: KIFKEQ_clean_linker_1, # of connection points: 2
# Relax obj value: 0.041
# Max RMSD: 0.091
# Mean RMSD: 0.091
data_MOF--net-bcg--node1-EBIMEJ_clean_sbu_0--edge1-KIFKEQ_clean_linker_1
_symmetry_space_group_name_H-M    P1
_symmetry_Int_Tables_number       1
_symmetry_cell_setting            triclinic
loop_
_symmetry_equiv_pos_as_xyz
'x, y, z'
_cell_length_a     17.154694
_cell_length_b     28.590562
_cell_length_c     34.74236
_cell_angle_alpha  81.610125
_cell_angle_beta   89.957907
_cell_angle_gamma 89.946268
loop_
_atom_site_label
_atom_site_type_symbol
_atom_site_fract_x
_atom_site_fract_y
_atom_site_fract_z
_atom_type_partial_charge
Co0 Co 0.15932 0.24346 0.94551 0.0
Co1 Co 0.32024 0.25037 0.99626 0.0
Co2 Co 0.16587 0.2509 0.03633 0.0
H3 H 0.18097 0.25608 0.99065 0.0
O4 O 0.21619 0.27708 0.98355 0.0
H5 H 0.30426 0.24684 0.0418 0.0
O6 O 0.26985 0.22546 0.04898 0.0
Co7 Co 0.32225 0.26077 0.08691 0.0
O8 O 0.42737 0.2341 0.07379 0.0
O9 O 0.42233 0.22247 1.01132 0.0
O10 O 0.22655 0.26821 0.12013 0.0
O11 O 0.12888 0.23503 0.0913 0.0
O12 O 0.15306 0.21889 0.89268 0.0
O13 O 0.08237 0.27449 0.90323 0.0
O14 O 0.32506 0.32863 0.063 0.0
O15 O 0.36046 0.31543 1.00394 0.0
C16 C 0.01971 0.2618 0.99561 0.0
C17 C 0.32506 0.25649 0.91041 0.0
C18 C 0.37976 0.25895 0.15311 0.0
C19 C 0.13415 0.15887 1.00179 0.0
C20 C 0.45755 0.22012 0.04381 0.0
C21 C 0.15796 0.25091 0.1207 0.0
C22 C 0.10071 0.24736 0.87925 0.0
C23 C 0.35367 0.34297 0.02976 0.0
O24 O 0.04821 0.24557 0.96626 0.0
O25 O 0.062 0.27586 0.02169 0.0
O26 O 0.35842 0.26544 0.94142 0.0
O27 O 0.25325 0.24515 0.90944 0.0
O28 O 0.34077 0.29283 0.13573 0.0
O29 O 0.38563 0.22598 0.13298 0.0
O30 O 0.15751 0.17528 0.96792 0.0
O31 O 0.1306 0.18468 0.02896 0.0
Co32 Co 0.65982 0.74797 0.9445 0.0
Co33 Co 0.81894 0.7515 0.99608 0.0
Co34 Co 0.66405 0.75358 0.03607 0.0
H35 H 0.67999 0.75873 0.99042 0.0
O36 O 0.71598 0.77928 0.98371 0.0
H37 H 0.80325 0.7466 0.0416 0.0
O38 O 0.76751 0.72593 0.04865 0.0
Co39 Co 0.82489 0.7594 0.08661 0.0
O40 O 0.93589 0.75587 0.06609 0.0
O41 O 0.92173 0.72475 1.01106 0.0
O42 O 0.73294 0.75053 0.12396 0.0
O43 O 0.62524 0.73744 0.09075 0.0
O44 O 0.64247 0.71632 0.89542 0.0
O45 O 0.59444 0.78223 0.89905 0.0
O46 O 0.82626 0.82793 0.06401 0.0
O47 O 0.85745 0.81655 1.00397 0.0
C48 C 0.52591 0.78637 0.98924 0.0
C49 C 0.825 0.75942 0.90996 0.0
C50 C 0.88404 0.75672 0.15251 0.0
C51 C 0.62358 0.66364 0.99959 0.0
C52 C 0.96421 0.73863 0.03719 0.0
C53 C 0.66045 0.74115 0.12261 0.0
C54 C 0.60154 0.74965 0.87859 0.0
C55 C 0.85215 0.84327 0.03037 0.0
O56 O 0.55532 0.7741 0.95848 0.0
O57 O 0.56199 0.78235 0.02159 0.0
O58 O 0.85791 0.76758 0.94132 0.0
O59 O 0.75351 0.74768 0.9088 0.0
O60 O 0.84484 0.79072 0.13554 0.0
O61 O 0.88874 0.72376 0.13227 0.0
O62 O 0.64739 0.67995 0.96578 0.0
O63 O 0.6236 0.68875 0.02733 0.0
Co64 Co 0.16158 0.76274 0.58638 0.0
Co65 Co 0.31867 0.75396 0.53555 0.0
Co66 Co 0.16386 0.74951 0.49645 0.0
H67 H 0.18033 0.74755 0.54175 0.0
O68 O 0.21592 0.72703 0.54929 0.0
H69 H 0.3027 0.75666 0.49021 0.0
O70 O 0.2668 0.77704 0.4826 0.0
Co71 Co 0.32413 0.74141 0.44596 0.0
O72 O 0.43533 0.7454 0.46618 0.0
O73 O 0.42121 0.78002 0.51947 0.0
O74 O 0.23098 0.74439 0.40942 0.0
O75 O 0.12467 0.7626 0.4417 0.0
O76 O 0.14901 0.79286 0.63665 0.0
O77 O 0.0887 0.73165 0.6301 0.0
O78 O 0.32134 0.67381 0.47105 0.0
O79 O 0.35711 0.68813 0.52966 0.0
C80 C 0.02597 0.72161 0.54424 0.0
C81 C 0.32623 0.75302 0.62068 0.0
C82 C 0.38455 0.74351 0.38026 0.0
C83 C 0.13123 0.84322 0.52788 0.0
C84 C 0.46371 0.7643 0.4942 0.0
C85 C 0.15876 0.75482 0.41049 0.0
C86 C 0.1017 0.76211 0.65197 0.0
C87 C 0.34927 0.6599 0.50452 0.0
O88 O 0.05525 0.73794 0.57335 0.0
O89 O 0.06264 0.72091 0.51244 0.0
O90 O 0.35758 0.74048 0.59037 0.0
O91 O 0.25577 0.76719 0.62107 0.0
O92 O 0.33197 0.71527 0.3938 0.0
O93 O 0.40227 0.77119 0.40387 0.0
O94 O 0.16283 0.82996 0.5606 0.0
O95 O 0.12173 0.81456 0.50313 0.0
Co96 Co 0.65896 0.25997 0.58638 0.0
Co97 Co 0.82035 0.25381 0.53571 0.0
Co98 Co 0.66581 0.25394 0.49544 0.0
H99 H 0.68091 0.24806 0.54108 0.0
O100 O 0.71621 0.22702 0.54802 0.0
H101 H 0.80446 0.25874 0.49008 0.0
O102 O 0.76963 0.28002 0.48328 0.0
Co103 Co 0.82319 0.24683 0.44438 0.0
O104 O 0.92733 0.27409 0.45778 0.0
O105 O 0.92267 0.2818 0.52112 0.0
O106 O 0.72814 0.24102 0.41043 0.0
O107 O 0.62845 0.27071 0.44052 0.0
O108 O 0.63099 0.29342 0.63328 0.0
O109 O 0.60267 0.22276 0.63403 0.0
O110 O 0.83131 0.17875 0.46642 0.0
O111 O 0.86014 0.18869 0.52714 0.0
C112 C 0.51963 0.24216 0.53611 0.0
C113 C 0.82348 0.24192 0.62232 0.0
C114 C 0.88056 0.24849 0.37822 0.0
C115 C 0.63437 0.34528 0.53091 0.0
C116 C 0.95759 0.28622 0.48841 0.0
C117 C 0.65865 0.25688 0.41045 0.0
C118 C 0.59951 0.25766 0.65226 0.0
C119 C 0.85719 0.16286 0.4999 0.0
O120 O 0.54797 0.25818 0.56555 0.0
O121 O 0.5621 0.22849 0.50986 0.0
O122 O 0.8586 0.23769 0.59051 0.0
O123 O 0.75097 0.2514 0.62367 0.0
O124 O 0.84677 0.2133 0.39689 0.0
O125 O 0.88114 0.2829 0.39701 0.0
O126 O 0.65851 0.32847 0.56455 0.0
O127 O 0.62982 0.31971 0.50363 0.0
H128 H 0.53867 0.17423 0.99286 0.0
H129 H 0.56466 0.23971 0.09676 0.0
H130 H 0.67958 0.17536 0.98432 0.0
H131 H 0.70396 0.24321 0.08716 0.0
H132 H 0.95851 0.23699 0.06712 0.0
H133 H 0.82689 0.2107 0.08346 0.0
H134 H 0.76372 0.23884 0.96164 0.0
H135 H 0.89789 0.26211 0.94516 0.0
C136 C 0.5746 0.18803 1.01424 0.0
C137 C 0.54078 0.20811 0.04483 0.0
C138 C 0.65512 0.18915 1.00913 0.0
C139 C 0.70268 0.21095 0.03421 0.0
C140 C 0.66925 0.22627 0.06716 0.0
C141 C 0.58901 0.2244 0.07264 0.0
C142 C 0.91615 0.23817 0.04388 0.0
C143 C 0.93748 0.25263 1.00492 0.0
C144 C 0.84084 0.22276 0.05324 0.0
C145 C 0.78466 0.22265 0.02393 0.0
C146 C 0.80602 0.23748 0.98489 0.0
C147 C 0.8822 0.25175 0.97542 0.0
H148 H 0.02459 0.76797 0.96634 0.0
H149 H 0.08659 0.73375 0.0876 0.0
H150 H 0.15599 0.79554 0.95085 0.0
H151 H 0.22057 0.75824 0.07192 0.0
H152 H 0.44421 0.82641 0.04368 0.0
H153 H 0.30345 0.82315 0.05265 0.0
H154 H 0.27964 0.76545 0.94481 0.0
H155 H 0.41862 0.77126 0.93487 0.0
C156 C 0.06735 0.76492 0.98949 0.0
C157 C 0.04648 0.74762 0.028 0.0
C158 C 0.14251 0.7811 0.98067 0.0
C159 C 0.19896 0.77918 1.01008 0.0
C160 C 0.17809 0.76126 0.04865 0.0
C161 C 0.10205 0.74625 0.05761 0.0
C162 C 0.40842 0.81445 0.02135 0.0
C163 C 0.44242 0.79781 0.98916 0.0
C164 C 0.32797 0.81205 0.0267 0.0
C165 C 0.28065 0.79235 1.00023 0.0
C166 C 0.31412 0.78065 0.96594 0.0
C167 C 0.39423 0.78386 0.96025 0.0
H168 H 0.58576 0.76312 0.44404 0.0
H169 H 0.52464 0.74226 0.56595 0.0
H170 H 0.71991 0.7402 0.46103 0.0
H171 H 0.65618 0.71623 0.58293 0.0
H172 H 0.91837 0.74396 0.59609 0.0
H173 H 0.77934 0.74835 0.58602 0.0
H174 H 0.80358 0.67697 0.48504 0.0
H175 H 0.94436 0.67494 0.49399 0.0
C176 C 0.60138 0.75383 0.47441 0.0
C177 C 0.54598 0.75579 0.50373 0.0
C178 C 0.67753 0.73974 0.48419 0.0
C179 C 0.69871 0.72612 0.52341 0.0
C180 C 0.64241 0.72737 0.55256 0.0
C181 C 0.56715 0.74264 0.54284 0.0
C182 C 0.89409 0.72814 0.57225 0.0
C183 C 0.94237 0.71051 0.54506 0.0
C184 C 0.81396 0.7305 0.56652 0.0
C185 C 0.78058 0.71435 0.53395 0.0
C186 C 0.82804 0.6914 0.50952 0.0
C187 C 0.9085 0.68976 0.51488 0.0
H188 H 0.03866 0.32986 0.54073 0.0
H189 H 0.06468 0.26859 0.43475 0.0
H190 H 0.17956 0.32803 0.54931 0.0
H191 H 0.20387 0.26419 0.44437 0.0
H192 H 0.4585 0.26849 0.46484 0.0
H193 H 0.32699 0.29539 0.44891 0.0
H194 H 0.26356 0.26426 0.57061 0.0
H195 H 0.39766 0.24047 0.58668 0.0
C196 C 0.07461 0.31685 0.51891 0.0
C197 C 0.0408 0.29818 0.48767 0.0
C198 C 0.15513 0.31529 0.52405 0.0
C199 C 0.20266 0.29434 0.49835 0.0
C200 C 0.16924 0.28046 0.46486 0.0
C201 C 0.08904 0.28286 0.45935 0.0
C202 C 0.41608 0.26677 0.48811 0.0
C203 C 0.43736 0.25138 0.52691 0.0
C204 C 0.34081 0.28253 0.47901 0.0
C205 C 0.28458 0.28204 0.50841 0.0
C206 C 0.30586 0.26615 0.54729 0.0
C207 C 0.38202 0.25156 0.55652 0.0
H208 H 0.58372 0.61107 0.94309 0.0
H209 H 0.57916 0.60732 0.06781 0.0
H210 H 0.51655 0.5361 0.94956 0.0
H211 H 0.51444 0.53029 0.07458 0.0
H212 H 0.33093 0.41546 0.07224 0.0
H213 H 0.39664 0.49159 0.06557 0.0
H214 H 0.52599 0.45506 0.96734 0.0
H215 H 0.45768 0.37975 0.97313 0.0
C216 C 0.56973 0.59384 0.97214 0.0
C217 C 0.58762 0.61549 1.005 0.0
C218 C 0.53117 0.55035 0.97584 0.0
C219 C 0.5098 0.52643 1.0126 0.0
C220 C 0.52861 0.54772 0.04565 0.0
C221 C 0.56654 0.5918 0.04187 0.0
C222 C 0.3727 0.42389 0.04887 0.0
C223 C 0.38841 0.39136 0.02304 0.0
C224 C 0.41131 0.46752 0.04534 0.0
C225 C 0.46754 0.47991 0.01609 0.0
C226 C 0.48242 0.44751 0.98993 0.0
C227 C 0.44313 0.40406 0.99322 0.0
H228 H 0.57355 0.39705 0.46433 0.0
H229 H 0.61309 0.40271 0.58637 0.0
H230 H 0.50511 0.47271 0.45864 0.0
H231 H 0.54193 0.47631 0.58126 0.0
H232 H 0.4674 0.62985 0.55495 0.0
H233 H 0.54085 0.55649 0.55945 0.0
H234 H 0.38871 0.50857 0.47402 0.0
H235 H 0.3178 0.58316 0.46826 0.0
C236 C 0.56819 0.41448 0.48987 0.0
C237 C 0.5996 0.39367 0.5257 0.0
C238 C 0.52791 0.45769 0.48679 0.0
C239 C 0.51713 0.48098 0.51955 0.0
C240 C 0.54979 0.46033 0.55514 0.0
C241 C 0.5907 0.41765 0.55809 0.0
C242 C 0.44879 0.60333 0.5376 0.0
C243 C 0.38617 0.61231 0.5115 0.0
C244 C 0.49113 0.56105 0.5401 0.0
C245 C 0.47138 0.52613 0.517 0.0
C246 C 0.40716 0.53473 0.4917 0.0
C247 C 0.3656 0.57734 0.48877 0.0
H248 H 0.09981 0.10473 0.94566 0.0
H249 H 0.08518 0.10433 0.06986 0.0
H250 H 0.02936 0.03104 0.95191 0.0
H251 H 0.01756 0.02827 0.07654 0.0
H252 H 0.8292 0.91662 0.07193 0.0
H253 H 0.89908 0.99151 0.06588 0.0
H254 H 0.03367 0.95056 0.97089 0.0
H255 H 0.96113 0.877 0.97583 0.0
C256 C 0.08321 0.08837 0.9746 0.0
C257 C 0.09899 0.11065 1.00734 0.0
C258 C 0.04268 0.04562 0.9782 0.0
C259 C 0.01745 0.02304 1.01475 0.0
C260 C 0.03468 0.04475 0.04774 0.0
C261 C 0.07443 0.08818 0.04405 0.0
C262 C 0.87288 0.92402 0.04933 0.0
C263 C 0.88869 0.89097 0.02403 0.0
C264 C 0.9139 0.9668 0.04619 0.0
C265 C 0.97276 0.97751 0.018 0.0
C266 C 0.98797 0.94441 0.99252 0.0
C267 C 0.94617 0.90198 0.9953 0.0
H268 H 0.88225 0.10609 0.44431 0.0
H269 H 0.91479 0.10999 0.56709 0.0
H270 H 0.95003 0.03133 0.45003 0.0
H271 H 0.98012 0.03316 0.57332 0.0
H272 H 0.16247 0.91878 0.5657 0.0
H273 H 0.09513 0.99446 0.55968 0.0
H274 H 0.94619 0.95093 0.47107 0.0
H275 H 0.01611 0.87616 0.47599 0.0
C276 C 0.90256 0.09061 0.47286 0.0
C277 C 0.89245 0.11444 0.50531 0.0
C278 C 0.94148 0.04719 0.47617 0.0
C279 C 0.97105 0.02551 0.51215 0.0
C280 C 0.95961 0.04884 0.54489 0.0
C281 C 0.92125 0.09281 0.54147 0.0
C282 C 0.116 0.92561 0.54452 0.0
C283 C 0.09532 0.89131 0.5211 0.0
C284 C 0.07649 0.96898 0.54141 0.0
C285 C 0.01428 0.97928 0.51509 0.0
C286 C -0.00563 0.94506 0.4913 0.0
C287 C 0.03461 0.90192 0.49407 0.0
H288 H 0.70676 0.22883 0.34258 0.0
H289 H 0.50713 0.28776 0.39459 0.0
H290 H 0.63535 0.22937 0.28263 0.0
H291 H 0.43439 0.28747 0.33382 0.0
H292 H 0.36852 0.3261 0.20162 0.0
H293 H 0.43084 0.32566 0.26509 0.0
H294 H 0.52943 0.18837 0.25688 0.0
H295 H 0.4686 0.18936 0.19338 0.0
C296 C 0.64732 0.24176 0.34144 0.0
C297 C 0.61283 0.25809 0.37382 0.0
C298 C 0.60603 0.24171 0.30688 0.0
C299 C 0.5287 0.25793 0.30337 0.0
C300 C 0.49401 0.27486 0.33547 0.0
C301 C 0.53557 0.27483 0.37038 0.0
C302 C 0.40341 0.29582 0.21351 0.0
C303 C 0.4143 0.25795 0.19235 0.0
C304 C 0.43864 0.29541 0.25 0.0
C305 C 0.48575 0.25717 0.26605 0.0
C306 C 0.49474 0.21881 0.24517 0.0
C307 C 0.45956 0.21922 0.20881 0.0
H308 H 0.71979 0.74039 0.19555 0.0
H309 H 0.50114 0.73368 0.13475 0.0
H310 H 0.65024 0.74116 0.25609 0.0
H311 H 0.43097 0.73484 0.19613 0.0
H312 H 0.34405 0.69033 0.3241 0.0
H313 H 0.40699 0.68833 0.26114 0.0
H314 H 0.56885 0.79579 0.28566 0.0
H315 H 0.50645 0.79733 0.34866 0.0
C316 C 0.65672 0.73893 0.19497 0.0
C317 C 0.61624 0.7372 0.15993 0.0
C318 C 0.61675 0.73974 0.22987 0.0
C319 C 0.53494 0.73879 0.231 0.0
C320 C 0.49408 0.73553 0.1963 0.0
C321 C 0.5343 0.73486 0.16111 0.0
C322 C 0.39295 0.71362 0.31593 0.0
C323 C 0.42065 0.74381 0.34143 0.0
C324 C 0.4287 0.71266 0.27975 0.0
C325 C 0.49338 0.74161 0.26839 0.0
C326 C 0.51998 0.77243 0.2937 0.0
C327 C 0.484 0.77356 0.32974 0.0
H328 H 0.27603 0.77843 0.68916 0.0
H329 H 0.47907 0.72471 0.63602 0.0
H330 H 0.34675 0.77756 0.74926 0.0
H331 H 0.55115 0.72476 0.697 0.0
H332 H 0.61634 0.68382 0.82917 0.0
H333 H 0.55509 0.68475 0.76539 0.0
H334 H 0.45062 0.82 0.77541 0.0
H335 H 0.51035 0.8185 0.83919 0.0
C336 C 0.33607 0.76661 0.69007 0.0
C337 C 0.37174 0.75185 0.65734 0.0
C338 C 0.37694 0.76647 0.72473 0.0
C339 C 0.455 0.75165 0.72796 0.0
C340 C 0.49093 0.73628 0.69551 0.0
C341 C 0.44976 0.73647 0.66051 0.0
C342 C 0.58035 0.71374 0.81761 0.0
C343 C 0.56743 0.75088 0.83932 0.0
C344 C 0.54578 0.71445 0.78096 0.0
C345 C 0.49739 0.75225 0.76536 0.0
C346 C 0.48639 0.78992 0.78679 0.0
C347 C 0.52088 0.7892 0.82331 0.0
H348 H 0.47 0.29574 0.89129 0.0
H349 H 0.28337 0.21787 0.8463 0.0
H350 H 0.54212 0.29524 0.83022 0.0
H351 H 0.35435 0.21774 0.78615 0.0
H352 H 0.53048 0.1832 0.69785 0.0
H353 H 0.471 0.18233 0.76187 0.0
H354 H 0.53207 0.32921 0.75962 0.0
H355 H 0.59243 0.32985 0.69572 0.0
C356 C 0.44437 0.27856 0.86854 0.0
C357 C 0.3706 0.25707 0.87381 0.0
C358 C 0.48549 0.27842 0.83352 0.0
C359 C 0.45419 0.25618 0.80335 0.0
C360 C 0.38079 0.23459 0.80887 0.0
C361 C 0.33963 0.23514 0.84343 0.0
C362 C 0.53144 0.21523 0.71109 0.0
C363 C 0.56553 0.25666 0.69162 0.0
C364 C 0.49721 0.21481 0.74773 0.0
C365 C 0.49634 0.25581 0.76582 0.0
C366 C 0.53231 0.29694 0.74672 0.0
C367 C 0.56636 0.29738 0.70998 0.0
H368 H 0.00727 0.78503 0.39424 0.0
H369 H 0.20819 0.72669 0.34287 0.0
H370 H 0.93544 0.78444 0.33322 0.0
H371 H 0.13743 0.72652 0.2828 0.0
H372 H 0.96985 0.68594 0.19354 0.0
H373 H 0.02983 0.6848 0.25738 0.0
H374 H 0.93592 0.8236 0.2641 0.0
H375 H 0.87486 0.82435 0.20038 0.0
C376 C 0.03619 0.77219 0.3701 0.0
C377 C 0.11371 0.75597 0.37369 0.0
C378 C -0.00486 0.77199 0.33511 0.0
C379 C 0.03048 0.75504 0.30319 0.0
C380 C 0.10785 0.73905 0.30691 0.0
C381 C 0.14879 0.73959 0.34149 0.0
C382 C 0.96176 0.7161 0.20872 0.0
C383 C 0.91825 0.75537 0.19181 0.0
C384 C -0.00369 0.71556 0.24525 0.0
C385 C 0.98819 0.75429 0.26578 0.0
C386 C 0.94284 0.79306 0.24926 0.0
C387 C 0.90837 0.79363 0.21263 0.0
H388 H 0.95628 0.32151 0.3346 0.0
H389 H 0.88126 0.17775 0.33296 0.0
H390 H 0.01635 0.32266 0.27084 0.0
H391 H 0.9428 0.1785 0.26925 0.0
H392 H 0.01126 0.21349 0.13863 0.0
H393 H 0.9385 0.21354 0.19947 0.0
H394 H 0.12928 0.28621 0.24605 0.0
H395 H 0.20071 0.28688 0.18601 0.0
C396 C 0.95259 0.29015 0.32057 0.0
C397 C 0.91462 0.24944 0.33892 0.0
C398 C 0.98729 0.2907 0.28407 0.0
C399 C 0.98503 0.25051 0.26499 0.0
C400 C 0.94516 0.21015 0.28294 0.0
C401 C 0.91043 0.20961 0.31956 0.0
C402 C 0.03739 0.22962 0.16183 0.0
C403 C 0.11187 0.25031 0.15714 0.0
C404 C -0.00412 0.22944 0.19676 0.0
C405 C 0.02776 0.25024 0.22758 0.0
C406 C 0.10216 0.27069 0.22277 0.0
C407 C 0.14349 0.27073 0.1882 0.0
H408 H 0.14113 0.19404 0.82318 0.0
H409 H 0.97954 0.30189 0.84728 0.0
H410 H 0.07794 0.1916 0.76045 0.0
H411 H 0.91694 0.30001 0.78439 0.0
H412 H 0.76476 0.2437 0.69516 0.0
H413 H 0.83482 0.24578 0.75533 0.0
H414 H 0.05348 0.2364 0.69529 0.0
H415 H 0.9828 0.23386 0.63431 0.0
C416 C 0.09242 0.2175 0.81493 0.0
C417 C 0.06495 0.24796 0.8403 0.0
C418 C 0.05648 0.21628 0.77885 0.0
C419 C -0.00812 0.2453 0.7674 0.0
C420 C 0.96569 0.27655 0.79251 0.0
C421 C 0.00181 0.27789 0.82848 0.0
C422 C 0.82781 0.2418 0.6945 0.0
C423 C 0.86793 0.23876 0.65953 0.0
C424 C 0.8681 0.24342 0.72917 0.0
C425 C 0.94992 0.24198 0.7302 0.0
C426 C 0.99039 0.23749 0.69559 0.0
C427 C 0.94986 0.23601 0.66061 0.0
H428 H -0.00793 0.70126 0.68664 0.0
H429 H 0.1319 0.82128 0.70551 0.0
H430 H 0.93086 0.70088 0.75001 0.0
H431 H 0.06952 0.82147 0.76898 0.0
H432 H 0.98281 0.77619 0.89698 0.0
H433 H 0.05417 0.77654 0.83567 0.0
H434 H 0.83905 0.7506 0.77792 0.0
H435 H 0.76871 0.74954 0.83826 0.0
C436 C 0.00975 0.72757 0.70438 0.0
C437 C 0.06633 0.7615 0.69097 0.0
C438 C 0.97441 0.72754 0.74066 0.0
C439 C -0.00532 0.76145 0.76452 0.0
C440 C 0.05281 0.79472 0.75149 0.0
C441 C 0.0881 0.79483 0.71502 0.0
C442 C 0.95088 0.77066 0.87117 0.0
C443 C 0.86997 0.76241 0.87292 0.0
C444 C 0.99172 0.77101 0.83599 0.0
C445 C 0.95251 0.76294 0.80193 0.0
C446 C 0.87156 0.75582 0.80367 0.0
C447 C 0.83103 0.75553 0.83849 0.0
loop_
_geom_bond_atom_site_label_1
_geom_bond_atom_site_label_2
_geom_bond_distance
_geom_bond_site_symmetry_2
_ccdc_geom_bond_type
Co0 H3 2.400 . S
Co0 O4 2.009 . S
Co0 O12 2.115 . S
Co0 O13 2.315 . S
Co0 O24 2.053 . S
Co0 O27 2.094 . S
Co0 O30 2.122 . S
Co1 O4 2.126 . S
Co1 H5 2.388 1_556 S
Co1 O6 2.053 1_556 S
Co1 O9 2.047 . S
Co1 O15 2.113 . S
Co1 O26 2.063 . S
Co2 H3 2.388 1_554 S
Co2 O4 2.053 1_554 S
Co2 O6 2.126 . S
Co2 O11 2.063 . S
Co2 O25 2.047 . S
Co2 O31 2.113 . S
H3 Co0 2.400 . S
H3 Co2 2.388 1_556 S
H3 O4 0.760 . S
O4 Co0 2.009 . S
O4 Co1 2.126 . S
O4 Co2 2.053 1_556 S
O4 H3 0.760 . S
H5 Co1 2.388 1_554 S
H5 O6 0.760 . S
H5 Co7 2.400 . S
O6 Co1 2.053 1_554 S
O6 Co2 2.126 . S
O6 H5 0.760 . S
O6 Co7 2.009 . S
Co7 H5 2.400 . S
Co7 O6 2.009 . S
Co7 O8 2.053 . S
Co7 O10 2.094 . S
Co7 O14 2.122 . S
Co7 O28 2.115 . S
Co7 O29 2.315 . S
O8 Co7 2.053 . S
O8 C20 1.259 . S
O9 Co1 2.047 . S
O9 C20 1.257 1_556 S
O10 Co7 2.094 . S
O10 C21 1.253 . S
O11 Co2 2.063 . S
O11 C21 1.268 . S
O12 Co0 2.115 . S
O12 C22 1.281 . S
O13 Co0 2.315 . S
O13 C22 1.252 . S
O14 Co7 2.122 . S
O14 C23 1.272 . S
O15 Co1 2.113 . S
O15 C23 1.245 1_556 S
C16 O24 1.259 . S
C16 O25 1.257 1_556 S
C17 O26 1.268 . S
C17 O27 1.253 . S
C18 O28 1.281 . S
C18 O29 1.252 . S
C19 O30 1.272 . S
C19 O31 1.245 1_556 S
C20 O8 1.259 . S
C20 O9 1.257 1_554 S
C21 O10 1.253 . S
C21 O11 1.268 . S
C22 O12 1.281 . S
C22 O13 1.252 . S
C23 O14 1.272 . S
C23 O15 1.245 1_554 S
O24 Co0 2.053 . S
O24 C16 1.259 . S
O25 Co2 2.047 . S
O25 C16 1.257 1_554 S
O26 Co1 2.063 . S
O26 C17 1.268 . S
O27 Co0 2.094 . S
O27 C17 1.253 . S
O28 Co7 2.115 . S
O28 C18 1.281 . S
O29 Co7 2.315 . S
O29 C18 1.252 . S
O30 Co0 2.122 . S
O30 C19 1.272 . S
O31 Co2 2.113 . S
O31 C19 1.245 1_554 S
Co32 H35 2.400 . S
Co32 O36 2.009 . S
Co32 O44 2.115 . S
Co32 O45 2.315 . S
Co32 O56 2.053 . S
Co32 O59 2.094 . S
Co32 O62 2.122 . S
Co33 O36 2.126 . S
Co33 H37 2.388 1_556 S
Co33 O38 2.053 1_556 S
Co33 O41 2.047 . S
Co33 O47 2.113 . S
Co33 O58 2.063 . S
Co34 H35 2.388 1_554 S
Co34 O36 2.053 1_554 S
Co34 O38 2.126 . S
Co34 O43 2.063 . S
Co34 O57 2.047 . S
Co34 O63 2.113 . S
H35 Co32 2.400 . S
H35 Co34 2.388 1_556 S
H35 O36 0.760 . S
O36 Co32 2.009 . S
O36 Co33 2.126 . S
O36 Co34 2.053 1_556 S
O36 H35 0.760 . S
H37 Co33 2.388 1_554 S
H37 O38 0.760 . S
H37 Co39 2.400 . S
O38 Co33 2.053 1_554 S
O38 Co34 2.126 . S
O38 H37 0.760 . S
O38 Co39 2.009 . S
Co39 H37 2.400 . S
Co39 O38 2.009 . S
Co39 O40 2.053 . S
Co39 O42 2.094 . S
Co39 O46 2.122 . S
Co39 O60 2.115 . S
Co39 O61 2.315 . S
O40 Co39 2.053 . S
O40 C52 1.259 . S
O41 Co33 2.047 . S
O41 C52 1.257 1_556 S
O42 Co39 2.094 . S
O42 C53 1.253 . S
O43 Co34 2.063 . S
O43 C53 1.268 . S
O44 Co32 2.115 . S
O44 C54 1.281 . S
O45 Co32 2.315 . S
O45 C54 1.252 . S
O46 Co39 2.122 . S
O46 C55 1.272 . S
O47 Co33 2.113 . S
O47 C55 1.245 1_556 S
C48 O56 1.259 . S
C48 O57 1.257 1_556 S
C49 O58 1.268 . S
C49 O59 1.253 . S
C50 O60 1.281 . S
C50 O61 1.252 . S
C51 O62 1.272 . S
C51 O63 1.245 1_556 S
C52 O40 1.259 . S
C52 O41 1.257 1_554 S
C53 O42 1.253 . S
C53 O43 1.268 . S
C54 O44 1.281 . S
C54 O45 1.252 . S
C55 O46 1.272 . S
C55 O47 1.245 1_554 S
O56 Co32 2.053 . S
O56 C48 1.259 . S
O57 Co34 2.047 . S
O57 C48 1.257 1_554 S
O58 Co33 2.063 . S
O58 C49 1.268 . S
O59 Co32 2.094 . S
O59 C49 1.253 . S
O60 Co39 2.115 . S
O60 C50 1.281 . S
O61 Co39 2.315 . S
O61 C50 1.252 . S
O62 Co32 2.122 . S
O62 C51 1.272 . S
O63 Co34 2.113 . S
O63 C51 1.245 1_554 S
Co64 H67 2.400 . S
Co64 O68 2.009 . S
Co64 O76 2.115 . S
Co64 O77 2.315 . S
Co64 O88 2.053 . S
Co64 O91 2.094 . S
Co64 O94 2.122 . S
Co65 O68 2.126 . S
Co65 H69 2.388 . S
Co65 O70 2.053 . S
Co65 O73 2.047 . S
Co65 O79 2.113 . S
Co65 O90 2.063 . S
Co66 H67 2.388 . S
Co66 O68 2.053 . S
Co66 O70 2.126 . S
Co66 O75 2.063 . S
Co66 O89 2.047 . S
Co66 O95 2.113 . S
H67 Co64 2.400 . S
H67 Co66 2.388 . S
H67 O68 0.760 . S
O68 Co64 2.009 . S
O68 Co65 2.126 . S
O68 Co66 2.053 . S
O68 H67 0.760 . S
H69 Co65 2.388 . S
H69 O70 0.760 . S
H69 Co71 2.400 . S
O70 Co65 2.053 . S
O70 Co66 2.126 . S
O70 H69 0.760 . S
O70 Co71 2.009 . S
Co71 H69 2.400 . S
Co71 O70 2.009 . S
Co71 O72 2.053 . S
Co71 O74 2.094 . S
Co71 O78 2.122 . S
Co71 O92 2.115 . S
Co71 O93 2.315 . S
O72 Co71 2.053 . S
O72 C84 1.259 . S
O73 Co65 2.047 . S
O73 C84 1.257 . S
O74 Co71 2.094 . S
O74 C85 1.253 . S
O75 Co66 2.063 . S
O75 C85 1.268 . S
O76 Co64 2.115 . S
O76 C86 1.281 . S
O77 Co64 2.315 . S
O77 C86 1.252 . S
O78 Co71 2.122 . S
O78 C87 1.272 . S
O79 Co65 2.113 . S
O79 C87 1.245 . S
C80 O88 1.259 . S
C80 O89 1.257 . S
C81 O90 1.268 . S
C81 O91 1.253 . S
C82 O92 1.281 . S
C82 O93 1.252 . S
C83 O94 1.272 . S
C83 O95 1.245 . S
C84 O72 1.259 . S
C84 O73 1.257 . S
C85 O74 1.253 . S
C85 O75 1.268 . S
C86 O76 1.281 . S
C86 O77 1.252 . S
C87 O78 1.272 . S
C87 O79 1.245 . S
O88 Co64 2.053 . S
O88 C80 1.259 . S
O89 Co66 2.047 . S
O89 C80 1.257 . S
O90 Co65 2.063 . S
O90 C81 1.268 . S
O91 Co64 2.094 . S
O91 C81 1.253 . S
O92 Co71 2.115 . S
O92 C82 1.281 . S
O93 Co71 2.315 . S
O93 C82 1.252 . S
O94 Co64 2.122 . S
O94 C83 1.272 . S
O95 Co66 2.113 . S
O95 C83 1.245 . S
Co96 H99 2.400 . S
Co96 O100 2.009 . S
Co96 O108 2.115 . S
Co96 O109 2.315 . S
Co96 O120 2.053 . S
Co96 O123 2.094 . S
Co96 O126 2.122 . S
Co97 O100 2.126 . S
Co97 H101 2.388 . S
Co97 O102 2.053 . S
Co97 O105 2.047 . S
Co97 O111 2.113 . S
Co97 O122 2.063 . S
Co98 H99 2.388 . S
Co98 O100 2.053 . S
Co98 O102 2.126 . S
Co98 O107 2.063 . S
Co98 O121 2.047 . S
Co98 O127 2.113 . S
H99 Co96 2.400 . S
H99 Co98 2.388 . S
H99 O100 0.760 . S
O100 Co96 2.009 . S
O100 Co97 2.126 . S
O100 Co98 2.053 . S
O100 H99 0.760 . S
H101 Co97 2.388 . S
H101 O102 0.760 . S
H101 Co103 2.400 . S
O102 Co97 2.053 . S
O102 Co98 2.126 . S
O102 H101 0.760 . S
O102 Co103 2.009 . S
Co103 H101 2.400 . S
Co103 O102 2.009 . S
Co103 O104 2.053 . S
Co103 O106 2.094 . S
Co103 O110 2.122 . S
Co103 O124 2.115 . S
Co103 O125 2.315 . S
O104 Co103 2.053 . S
O104 C116 1.259 . S
O105 Co97 2.047 . S
O105 C116 1.257 . S
O106 Co103 2.094 . S
O106 C117 1.253 . S
O107 Co98 2.063 . S
O107 C117 1.268 . S
O108 Co96 2.115 . S
O108 C118 1.281 . S
O109 Co96 2.315 . S
O109 C118 1.252 . S
O110 Co103 2.122 . S
O110 C119 1.272 . S
O111 Co97 2.113 . S
O111 C119 1.245 . S
C112 O120 1.259 . S
C112 O121 1.257 . S
C113 O122 1.268 . S
C113 O123 1.253 . S
C114 O124 1.281 . S
C114 O125 1.252 . S
C115 O126 1.272 . S
C115 O127 1.245 . S
C116 O104 1.259 . S
C116 O105 1.257 . S
C117 O106 1.253 . S
C117 O107 1.268 . S
C118 O108 1.281 . S
C118 O109 1.252 . S
C119 O110 1.272 . S
C119 O111 1.245 . S
O120 Co96 2.053 . S
O120 C112 1.259 . S
O121 Co98 2.047 . S
O121 C112 1.257 . S
O122 Co97 2.063 . S
O122 C113 1.268 . S
O123 Co96 2.094 . S
O123 C113 1.253 . S
O124 Co103 2.115 . S
O124 C114 1.281 . S
O125 Co103 2.315 . S
O125 C114 1.252 . S
O126 Co96 2.122 . S
O126 C115 1.272 . S
O127 Co98 2.113 . S
O127 C115 1.245 . S
H128 C136 0.950 . S
H129 C141 0.950 . S
H130 C138 0.950 . S
H131 C140 0.950 . S
H132 C142 0.950 . S
H133 C144 0.950 . S
H134 C146 0.950 . S
H135 C147 0.950 . S
C136 H128 0.950 . S
C136 C137 1.386 1_556 S
C136 C138 1.391 . S
C137 C136 1.386 1_554 S
C137 C141 1.393 . S
C138 H130 0.950 . S
C138 C136 1.391 . S
C138 C139 1.400 1_556 S
C139 C138 1.400 1_554 S
C139 C140 1.398 . S
C139 C145 1.491 1_554 S
C140 H131 0.950 . S
C140 C139 1.398 . S
C140 C141 1.391 . S
C141 H129 0.950 . S
C141 C137 1.393 . S
C141 C140 1.391 . S
C142 H132 0.950 . S
C142 C143 1.386 1_554 S
C142 C144 1.391 . S
C143 C142 1.386 1_556 S
C143 C147 1.393 . S
C144 H133 0.950 . S
C144 C142 1.391 . S
C144 C145 1.400 1_554 S
C145 C139 1.491 1_556 S
C145 C144 1.400 1_556 S
C145 C146 1.398 . S
C146 H134 0.950 . S
C146 C145 1.398 . S
C146 C147 1.391 . S
C147 H135 0.950 . S
C147 C143 1.393 . S
C147 C146 1.391 . S
H148 C156 0.950 . S
H149 C161 0.950 . S
H150 C158 0.950 . S
H151 C160 0.950 . S
H152 C162 0.950 . S
H153 C164 0.950 . S
H154 C166 0.950 . S
H155 C167 0.950 . S
C156 H148 0.950 . S
C156 C157 1.386 1_556 S
C156 C158 1.391 . S
C157 C156 1.386 1_554 S
C157 C161 1.393 . S
C158 H150 0.950 . S
C158 C156 1.391 . S
C158 C159 1.400 1_556 S
C159 C158 1.400 1_554 S
C159 C160 1.398 . S
C159 C165 1.491 1_554 S
C160 H151 0.950 . S
C160 C159 1.398 . S
C160 C161 1.391 . S
C161 H149 0.950 . S
C161 C157 1.393 . S
C161 C160 1.391 . S
C162 H152 0.950 . S
C162 C163 1.386 1_554 S
C162 C164 1.391 . S
C163 C162 1.386 1_556 S
C163 C167 1.393 . S
C164 H153 0.950 . S
C164 C162 1.391 . S
C164 C165 1.400 1_554 S
C165 C159 1.491 1_556 S
C165 C164 1.400 1_556 S
C165 C166 1.398 . S
C166 H154 0.950 . S
C166 C165 1.398 . S
C166 C167 1.391 . S
C167 H155 0.950 . S
C167 C163 1.393 . S
C167 C166 1.391 . S
H168 C176 0.950 . S
H169 C181 0.950 . S
H170 C178 0.950 . S
H171 C180 0.950 . S
H172 C182 0.950 . S
H173 C184 0.950 . S
H174 C186 0.950 . S
H175 C187 0.950 . S
C176 H168 0.950 . S
C176 C177 1.386 . S
C176 C178 1.391 . S
C177 C176 1.386 . S
C177 C181 1.393 . S
C178 H170 0.950 . S
C178 C176 1.391 . S
C178 C179 1.400 . S
C179 C178 1.400 . S
C179 C180 1.398 . S
C179 C185 1.491 . S
C180 H171 0.950 . S
C180 C179 1.398 . S
C180 C181 1.391 . S
C181 H169 0.950 . S
C181 C177 1.393 . S
C181 C180 1.391 . S
C182 H172 0.950 . S
C182 C183 1.386 . S
C182 C184 1.391 . S
C183 C182 1.386 . S
C183 C187 1.393 . S
C184 H173 0.950 . S
C184 C182 1.391 . S
C184 C185 1.400 . S
C185 C179 1.491 . S
C185 C184 1.400 . S
C185 C186 1.398 . S
C186 H174 0.950 . S
C186 C185 1.398 . S
C186 C187 1.391 . S
C187 H175 0.950 . S
C187 C183 1.393 . S
C187 C186 1.391 . S
H188 C196 0.950 . S
H189 C201 0.950 . S
H190 C198 0.950 . S
H191 C200 0.950 . S
H192 C202 0.950 . S
H193 C204 0.950 . S
H194 C206 0.950 . S
H195 C207 0.950 . S
C196 H188 0.950 . S
C196 C197 1.386 . S
C196 C198 1.391 . S
C197 C196 1.386 . S
C197 C201 1.393 . S
C198 H190 0.950 . S
C198 C196 1.391 . S
C198 C199 1.400 . S
C199 C198 1.400 . S
C199 C200 1.398 . S
C199 C205 1.491 . S
C200 H191 0.950 . S
C200 C199 1.398 . S
C200 C201 1.391 . S
C201 H189 0.950 . S
C201 C197 1.393 . S
C201 C200 1.391 . S
C202 H192 0.950 . S
C202 C203 1.386 . S
C202 C204 1.391 . S
C203 C202 1.386 . S
C203 C207 1.393 . S
C204 H193 0.950 . S
C204 C202 1.391 . S
C204 C205 1.400 . S
C205 C199 1.491 . S
C205 C204 1.400 . S
C205 C206 1.398 . S
C206 H194 0.950 . S
C206 C205 1.398 . S
C206 C207 1.391 . S
C207 H195 0.950 . S
C207 C203 1.393 . S
C207 C206 1.391 . S
H208 C216 0.950 . S
H209 C221 0.950 . S
H210 C218 0.950 . S
H211 C220 0.950 . S
H212 C222 0.950 . S
H213 C224 0.950 . S
H214 C226 0.950 . S
H215 C227 0.950 . S
C216 H208 0.950 . S
C216 C217 1.386 1_556 S
C216 C218 1.391 . S
C217 C216 1.386 1_554 S
C217 C221 1.393 . S
C218 H210 0.950 . S
C218 C216 1.391 . S
C218 C219 1.390 1_556 S
C219 C218 1.390 1_554 S
C219 C220 1.410 . S
C219 C225 1.488 1_554 S
C220 H211 0.950 . S
C220 C219 1.410 . S
C220 C221 1.391 . S
C221 H209 0.950 . S
C221 C217 1.393 . S
C221 C220 1.391 . S
C222 H212 0.950 . S
C222 C223 1.386 1_554 S
C222 C224 1.391 . S
C223 C222 1.386 1_556 S
C223 C227 1.393 . S
C224 H213 0.950 . S
C224 C222 1.391 . S
C224 C225 1.396 1_554 S
C225 C219 1.488 1_556 S
C225 C224 1.396 1_556 S
C225 C226 1.404 . S
C226 H214 0.950 . S
C226 C225 1.404 . S
C226 C227 1.391 . S
C227 H215 0.950 . S
C227 C223 1.393 . S
C227 C226 1.391 . S
H228 C236 0.950 . S
H229 C241 0.950 . S
H230 C238 0.950 . S
H231 C240 0.950 . S
H232 C242 0.950 . S
H233 C244 0.950 . S
H234 C246 0.950 . S
H235 C247 0.950 . S
C236 H228 0.950 . S
C236 C237 1.386 . S
C236 C238 1.391 . S
C237 C236 1.386 . S
C237 C241 1.393 . S
C238 H230 0.950 . S
C238 C236 1.391 . S
C238 C239 1.400 . S
C239 C238 1.400 . S
C239 C240 1.398 . S
C239 C245 1.491 . S
C240 H231 0.950 . S
C240 C239 1.398 . S
C240 C241 1.391 . S
C241 H229 0.950 . S
C241 C237 1.393 . S
C241 C240 1.391 . S
C242 H232 0.950 . S
C242 C243 1.386 . S
C242 C244 1.391 . S
C243 C242 1.386 . S
C243 C247 1.393 . S
C244 H233 0.950 . S
C244 C242 1.391 . S
C244 C245 1.400 . S
C245 C239 1.491 . S
C245 C244 1.400 . S
C245 C246 1.398 . S
C246 H234 0.950 . S
C246 C245 1.398 . S
C246 C247 1.391 . S
C247 H235 0.950 . S
C247 C243 1.393 . S
C247 C246 1.391 . S
H248 C256 0.950 . S
H249 C261 0.950 . S
H250 C258 0.950 1_655 S
H251 C260 0.950 1_565 S
H252 C262 0.950 . S
H253 C264 0.950 1_455 S
H254 C266 0.950 1_545 S
H255 C267 0.950 . S
C256 H248 0.950 . S
C256 C257 1.386 1_556 S
C256 C258 1.391 . S
C257 C256 1.386 1_554 S
C257 C261 1.393 . S
C258 H250 0.950 1_455 S
C258 C256 1.391 . S
C258 C259 1.401 1_556 S
C259 C258 1.401 1_554 S
C259 C260 1.397 . S
C259 C265 1.491 1_445 S
C260 H251 0.950 1_545 S
C260 C259 1.397 . S
C260 C261 1.391 . S
C261 H249 0.950 . S
C261 C257 1.393 . S
C261 C260 1.391 . S
C262 H252 0.950 . S
C262 C263 1.367 1_554 S
C262 C264 1.391 . S
C263 C262 1.367 1_556 S
C263 C267 1.407 . S
C264 H253 0.950 1_655 S
C264 C262 1.391 . S
C264 C265 1.401 . S
C265 C259 1.491 1_665 S
C265 C264 1.401 . S
C265 C266 1.397 1_554 S
C266 H254 0.950 1_565 S
C266 C265 1.397 1_556 S
C266 C267 1.391 . S
C267 H255 0.950 . S
C267 C263 1.407 . S
C267 C266 1.391 . S
H268 C276 0.950 . S
H269 C281 0.950 . S
H270 C278 0.950 1_565 S
H271 C280 0.950 . S
H272 C282 0.950 . S
H273 C284 0.950 1_545 S
H274 C286 0.950 . S
H275 C287 0.950 . S
C276 H268 0.950 . S
C276 C277 1.386 . S
C276 C278 1.391 . S
C277 C276 1.386 . S
C277 C281 1.393 . S
C278 H270 0.950 1_545 S
C278 C276 1.391 . S
C278 C279 1.400 . S
C279 C278 1.400 . S
C279 C280 1.398 1_655 S
C279 C285 1.491 1_645 S
C280 H271 0.950 . S
C280 C279 1.398 1_455 S
C280 C281 1.391 1_455 S
C281 H269 0.950 . S
C281 C277 1.393 . S
C281 C280 1.391 1_655 S
C282 H272 0.950 . S
C282 C283 1.386 . S
C282 C284 1.391 . S
C283 C282 1.386 . S
C283 C287 1.393 . S
C284 H273 0.950 1_565 S
C284 C282 1.391 . S
C284 C285 1.400 . S
C285 C279 1.491 1_465 S
C285 C284 1.400 . S
C285 C286 1.398 1_455 S
C286 H274 0.950 . S
C286 C285 1.398 1_655 S
C286 C287 1.391 1_655 S
C287 H275 0.950 . S
C287 C283 1.393 . S
C287 C286 1.391 1_455 S
H288 C296 0.950 . S
H289 C301 0.950 . S
H290 C298 0.950 . S
H291 C300 0.950 . S
H292 C302 0.950 . S
H293 C304 0.950 . S
H294 C306 0.950 . S
H295 C307 0.950 . S
C296 H288 0.950 . S
C296 C297 1.386 . S
C296 C298 1.391 . S
C297 C296 1.386 . S
C297 C301 1.393 . S
C298 H290 0.950 . S
C298 C296 1.391 . S
C298 C299 1.400 . S
C299 C298 1.400 . S
C299 C300 1.398 . S
C299 C305 1.491 . S
C300 H291 0.950 . S
C300 C299 1.398 . S
C300 C301 1.391 . S
C301 H289 0.950 . S
C301 C297 1.393 . S
C301 C300 1.391 . S
C302 H292 0.950 . S
C302 C303 1.386 . S
C302 C304 1.391 . S
C303 C302 1.386 . S
C303 C307 1.393 . S
C304 H293 0.950 . S
C304 C302 1.391 . S
C304 C305 1.400 . S
C305 C299 1.491 . S
C305 C304 1.400 . S
C305 C306 1.398 . S
C306 H294 0.950 . S
C306 C305 1.398 . S
C306 C307 1.391 . S
C307 H295 0.950 . S
C307 C303 1.393 . S
C307 C306 1.391 . S
H308 C316 0.950 . S
H309 C321 0.950 . S
H310 C318 0.950 . S
H311 C320 0.950 . S
H312 C322 0.950 . S
H313 C324 0.950 . S
H314 C326 0.950 . S
H315 C327 0.950 . S
C316 H308 0.950 . S
C316 C317 1.386 . S
C316 C318 1.391 . S
C317 C316 1.386 . S
C317 C321 1.393 . S
C318 H310 0.950 . S
C318 C316 1.391 . S
C318 C319 1.400 . S
C319 C318 1.400 . S
C319 C320 1.398 . S
C319 C325 1.491 . S
C320 H311 0.950 . S
C320 C319 1.398 . S
C320 C321 1.391 . S
C321 H309 0.950 . S
C321 C317 1.393 . S
C321 C320 1.391 . S
C322 H312 0.950 . S
C322 C323 1.386 . S
C322 C324 1.391 . S
C323 C322 1.386 . S
C323 C327 1.393 . S
C324 H313 0.950 . S
C324 C322 1.391 . S
C324 C325 1.400 . S
C325 C319 1.491 . S
C325 C324 1.400 . S
C325 C326 1.398 . S
C326 H314 0.950 . S
C326 C325 1.398 . S
C326 C327 1.391 . S
C327 H315 0.950 . S
C327 C323 1.393 . S
C327 C326 1.391 . S
H328 C336 0.950 . S
H329 C341 0.950 . S
H330 C338 0.950 . S
H331 C340 0.950 . S
H332 C342 0.950 . S
H333 C344 0.950 . S
H334 C346 0.950 . S
H335 C347 0.950 . S
C336 H328 0.950 . S
C336 C337 1.386 . S
C336 C338 1.391 . S
C337 C336 1.386 . S
C337 C341 1.393 . S
C338 H330 0.950 . S
C338 C336 1.391 . S
C338 C339 1.400 . S
C339 C338 1.400 . S
C339 C340 1.398 . S
C339 C345 1.491 . S
C340 H331 0.950 . S
C340 C339 1.398 . S
C340 C341 1.391 . S
C341 H329 0.950 . S
C341 C337 1.393 . S
C341 C340 1.391 . S
C342 H332 0.950 . S
C342 C343 1.386 . S
C342 C344 1.391 . S
C343 C342 1.386 . S
C343 C347 1.393 . S
C344 H333 0.950 . S
C344 C342 1.391 . S
C344 C345 1.400 . S
C345 C339 1.491 . S
C345 C344 1.400 . S
C345 C346 1.398 . S
C346 H334 0.950 . S
C346 C345 1.398 . S
C346 C347 1.391 . S
C347 H335 0.950 . S
C347 C343 1.393 . S
C347 C346 1.391 . S
H348 C356 0.950 . S
H349 C361 0.950 . S
H350 C358 0.950 . S
H351 C360 0.950 . S
H352 C362 0.950 . S
H353 C364 0.950 . S
H354 C366 0.950 . S
H355 C367 0.950 . S
C356 H348 0.950 . S
C356 C357 1.386 . S
C356 C358 1.391 . S
C357 C356 1.386 . S
C357 C361 1.393 . S
C358 H350 0.950 . S
C358 C356 1.391 . S
C358 C359 1.400 . S
C359 C358 1.400 . S
C359 C360 1.398 . S
C359 C365 1.491 . S
C360 H351 0.950 . S
C360 C359 1.398 . S
C360 C361 1.391 . S
C361 H349 0.950 . S
C361 C357 1.393 . S
C361 C360 1.391 . S
C362 H352 0.950 . S
C362 C363 1.386 . S
C362 C364 1.391 . S
C363 C362 1.386 . S
C363 C367 1.393 . S
C364 H353 0.950 . S
C364 C362 1.391 . S
C364 C365 1.400 . S
C365 C359 1.491 . S
C365 C364 1.400 . S
C365 C366 1.398 . S
C366 H354 0.950 . S
C366 C365 1.398 . S
C366 C367 1.391 . S
C367 H355 0.950 . S
C367 C363 1.393 . S
C367 C366 1.391 . S
H368 C376 0.950 . S
H369 C381 0.950 . S
H370 C378 0.950 . S
H371 C380 0.950 . S
H372 C382 0.950 . S
H373 C384 0.950 . S
H374 C386 0.950 1_455 S
H375 C387 0.950 . S
C376 H368 0.950 . S
C376 C377 1.386 . S
C376 C378 1.391 . S
C377 C376 1.386 . S
C377 C381 1.393 . S
C378 H370 0.950 . S
C378 C376 1.391 . S
C378 C379 1.400 . S
C379 C378 1.400 . S
C379 C380 1.398 . S
C379 C385 1.491 . S
C380 H371 0.950 . S
C380 C379 1.398 . S
C380 C381 1.391 . S
C381 H369 0.950 . S
C381 C377 1.393 . S
C381 C380 1.391 . S
C382 H372 0.950 . S
C382 C383 1.386 . S
C382 C384 1.391 . S
C383 C382 1.386 . S
C383 C387 1.393 . S
C384 H373 0.950 . S
C384 C382 1.391 . S
C384 C385 1.400 1_655 S
C385 C379 1.491 . S
C385 C384 1.400 1_455 S
C385 C386 1.398 1_455 S
C386 H374 0.950 1_655 S
C386 C385 1.398 1_655 S
C386 C387 1.391 . S
C387 H375 0.950 . S
C387 C383 1.393 . S
C387 C386 1.391 . S
H388 C396 0.950 . S
H389 C401 0.950 . S
H390 C398 0.950 . S
H391 C400 0.946 1_455 S
H392 C402 0.950 . S
H393 C404 0.950 . S
H394 C406 0.950 . S
H395 C407 0.950 . S
C396 H388 0.950 . S
C396 C397 1.386 . S
C396 C398 1.391 . S
C397 C396 1.386 . S
C397 C401 1.393 . S
C398 H390 0.950 . S
C398 C396 1.391 . S
C398 C399 1.400 1_655 S
C399 C398 1.400 1_455 S
C399 C400 1.396 1_455 S
C399 C405 1.491 . S
C400 H391 0.946 1_655 S
C400 C399 1.396 1_655 S
C400 C401 1.397 . S
C401 H389 0.950 . S
C401 C397 1.393 . S
C401 C400 1.397 . S
C402 H392 0.950 . S
C402 C403 1.386 . S
C402 C404 1.391 . S
C403 C402 1.386 . S
C403 C407 1.393 . S
C404 H393 0.950 . S
C404 C402 1.391 . S
C404 C405 1.400 . S
C405 C399 1.491 . S
C405 C404 1.400 . S
C405 C406 1.398 . S
C406 H394 0.950 . S
C406 C405 1.398 . S
C406 C407 1.391 . S
C407 H395 0.950 . S
C407 C403 1.393 . S
C407 C406 1.391 . S
H408 C416 0.950 . S
H409 C421 0.950 1_655 S
H410 C418 0.950 . S
H411 C420 0.950 . S
H412 C422 0.950 . S
H413 C424 0.950 . S
H414 C426 0.950 1_455 S
H415 C427 0.950 . S
C416 H408 0.950 . S
C416 C417 1.386 . S
C416 C418 1.391 . S
C417 C416 1.386 . S
C417 C421 1.393 . S
C418 H410 0.950 . S
C418 C416 1.391 . S
C418 C419 1.400 1_455 S
C419 C418 1.400 1_655 S
C419 C420 1.398 . S
C419 C425 1.491 . S
C420 H411 0.950 . S
C420 C419 1.398 . S
C420 C421 1.391 1_655 S
C421 H409 0.950 1_455 S
C421 C417 1.393 . S
C421 C420 1.391 1_455 S
C422 H412 0.950 . S
C422 C423 1.386 . S
C422 C424 1.391 . S
C423 C422 1.386 . S
C423 C427 1.393 . S
C424 H413 0.950 . S
C424 C422 1.391 . S
C424 C425 1.400 . S
C425 C419 1.491 . S
C425 C424 1.400 . S
C425 C426 1.398 . S
C426 H414 0.950 1_655 S
C426 C425 1.398 . S
C426 C427 1.391 . S
C427 H415 0.950 . S
C427 C423 1.393 . S
C427 C426 1.391 . S
H428 C436 0.950 . S
H429 C441 0.950 . S
H430 C438 0.950 . S
H431 C440 0.950 . S
H432 C442 0.950 . S
H433 C444 0.950 1_455 S
H434 C446 0.950 . S
H435 C447 0.950 . S
C436 H428 0.950 . S
C436 C437 1.386 1_655 S
C436 C438 1.391 . S
C437 C436 1.386 1_455 S
C437 C441 1.393 . S
C438 H430 0.950 . S
C438 C436 1.391 . S
C438 C439 1.400 . S
C439 C438 1.400 . S
C439 C440 1.398 1_655 S
C439 C445 1.491 . S
C440 H431 0.950 . S
C440 C439 1.398 1_455 S
C440 C441 1.391 . S
C441 H429 0.950 . S
C441 C437 1.393 . S
C441 C440 1.391 . S
C442 H432 0.950 . S
C442 C443 1.386 . S
C442 C444 1.391 . S
C443 C442 1.386 . S
C443 C447 1.393 . S
C444 H433 0.950 1_655 S
C444 C442 1.391 . S
C444 C445 1.400 . S
C445 C439 1.491 . S
C445 C444 1.400 . S
C445 C446 1.398 . S
C446 H434 0.950 . S
C446 C445 1.398 . S
C446 C447 1.391 . S
C447 H435 0.950 . S
C447 C443 1.393 . S
C447 C446 1.391 . S
C137 C20 0.887 . S
C143 C16 0.887 1_655 S
C157 C52 0.888 1_455 S
C163 C48 0.888 . S
C177 C84 0.885 . S
C183 C80 0.885 1_655 S
C197 C116 0.886 1_455 S
C203 C112 0.886 . S
C217 C51 1.462 1_554 S
C223 C23 1.462 1_556 S
C237 C115 1.441 . S
C243 C87 1.441 . S
C257 C19 1.454 1_554 S
C263 C55 1.453 1_556 S
C277 C119 1.444 . S
C283 C83 1.444 . S
C297 C117 1.713 . S
C303 C18 1.678 . S
C317 C53 1.713 . S
C323 C82 1.678 . S
C337 C81 1.716 . S
C343 C54 1.699 . S
C357 C17 1.714 . S
C363 C118 1.686 . S
C377 C85 1.715 . S
C383 C50 1.691 . S
C397 C114 1.681 . S
C403 C21 1.710 . S
C417 C22 1.681 . S
C423 C113 1.716 . S
C437 C86 1.695 . S
C443 C49 1.719 . S
