# Generated by pormake.
# Topology utj, (3)-cn, num edge types: 1
# Building blocks:
#     Node 0, Type 0, BuildingBlock: WUSLED_clean_sbu_0, # of connection points: 3
#     Node 1, Type 0, BuildingBlock: WUSLED_clean_sbu_0, # of connection points: 3
#     Node 2, Type 0, BuildingBlock: WUSLED_clean_sbu_0, # of connection points: 3
#     Node 3, Type 0, BuildingBlock: WUSLED_clean_sbu_0, # of connection points: 3
#     Node 4, Type 0, BuildingBlock: WUSLED_clean_sbu_0, # of connection points: 3
#     Node 5, Type 0, BuildingBlock: WUSLED_clean_sbu_0, # of connection points: 3
#     Node 6, Type 0, BuildingBlock: WUSLED_clean_sbu_0, # of connection points: 3
#     Node 7, Type 0, BuildingBlock: WUSLED_clean_sbu_0, # of connection points: 3
#     Node 8, Type 0, BuildingBlock: WUSLED_clean_sbu_0, # of connection points: 3
#     Node 9, Type 0, BuildingBlock: WUSLED_clean_sbu_0, # of connection points: 3
#     Node 10, Type 0, BuildingBlock: WUSLED_clean_sbu_0, # of connection points: 3
#     Node 11, Type 0, BuildingBlock: WUSLED_clean_sbu_0, # of connection points: 3
#     Node 12, Type 0, BuildingBlock: WUSLED_clean_sbu_0, # of connection points: 3
#     Node 13, Type 0, BuildingBlock: WUSLED_clean_sbu_0, # of connection points: 3
#     Node 14, Type 0, BuildingBlock: WUSLED_clean_sbu_0, # of connection points: 3
#     Node 15, Type 0, BuildingBlock: WUSLED_clean_sbu_0, # of connection points: 3
#     Edge 16, Type (0, 0), BuildingBlock: UVAHIK_clean_linker_0, # of connection points: 2
#     Edge 17, Type (0, 0), BuildingBlock: UVAHIK_clean_linker_0, # of connection points: 2
#     Edge 18, Type (0, 0), BuildingBlock: UVAHIK_clean_linker_0, # of connection points: 2
#     Edge 19, Type (0, 0), BuildingBlock: UVAHIK_clean_linker_0, # of connection points: 2
#     Edge 20, Type (0, 0), BuildingBlock: UVAHIK_clean_linker_0, # of connection points: 2
#     Edge 21, Type (0, 0), BuildingBlock: UVAHIK_clean_linker_0, # of connection points: 2
#     Edge 22, Type (0, 0), BuildingBlock: UVAHIK_clean_linker_0, # of connection points: 2
#     Edge 23, Type (0, 0), BuildingBlock: UVAHIK_clean_linker_0, # of connection points: 2
#     Edge 24, Type (0, 0), BuildingBlock: UVAHIK_clean_linker_0, # of connection points: 2
#     Edge 25, Type (0, 0), BuildingBlock: UVAHIK_clean_linker_0, # of connection points: 2
#     Edge 26, Type (0, 0), BuildingBlock: UVAHIK_clean_linker_0, # of connection points: 2
#     Edge 27, Type (0, 0), BuildingBlock: UVAHIK_clean_linker_0, # of connection points: 2
#     Edge 28, Type (0, 0), BuildingBlock: UVAHIK_clean_linker_0, # of connection points: 2
#     Edge 29, Type (0, 0), BuildingBlock: UVAHIK_clean_linker_0, # of connection points: 2
#     Edge 30, Type (0, 0), BuildingBlock: UVAHIK_clean_linker_0, # of connection points: 2
#     Edge 31, Type (0, 0), BuildingBlock: UVAHIK_clean_linker_0, # of connection points: 2
#     Edge 32, Type (0, 0), BuildingBlock: UVAHIK_clean_linker_0, # of connection points: 2
#     Edge 33, Type (0, 0), BuildingBlock: UVAHIK_clean_linker_0, # of connection points: 2
#     Edge 34, Type (0, 0), BuildingBlock: UVAHIK_clean_linker_0, # of connection points: 2
#     Edge 35, Type (0, 0), BuildingBlock: UVAHIK_clean_linker_0, # of connection points: 2
#     Edge 36, Type (0, 0), BuildingBlock: UVAHIK_clean_linker_0, # of connection points: 2
#     Edge 37, Type (0, 0), BuildingBlock: UVAHIK_clean_linker_0, # of connection points: 2
#     Edge 38, Type (0, 0), BuildingBlock: UVAHIK_clean_linker_0, # of connection points: 2
#     Edge 39, Type (0, 0), BuildingBlock: UVAHIK_clean_linker_0, # of connection points: 2
# Relax obj value: 0.003
# Max RMSD: 0.009
# Mean RMSD: 0.009
data_MOF--net-utj--node1-WUSLED_clean_sbu_0--edge1-UVAHIK_clean_linker_0
_symmetry_space_group_name_H-M    P1
_symmetry_Int_Tables_number       1
_symmetry_cell_setting            triclinic
loop_
_symmetry_equiv_pos_as_xyz
'x, y, z'
_cell_length_a     91.112031
_cell_length_b     91.147583
_cell_length_c     77.747319
_cell_angle_alpha  90.022704
_cell_angle_beta   90.000763
_cell_angle_gamma 90.033087
loop_
_atom_site_label
_atom_site_type_symbol
_atom_site_fract_x
_atom_site_fract_y
_atom_site_fract_z
_atom_type_partial_charge
C0 C 0.05398 0.41866 0.05937 0.0
C1 C 0.0437 0.42665 0.06907 0.0
C2 C 0.04235 0.44529 0.04664 0.0
C3 C 0.03789 0.43979 0.06272 0.0
C4 C 0.05277 0.43736 0.03708 0.0
C5 C 0.05847 0.42415 0.04336 0.0
U6 U 0.0716 0.39501 0.09444 0.0
O7 O 0.06742 0.37213 0.10193 0.0
O8 O 0.08922 0.37854 0.09258 0.0
C9 C 0.08053 0.3677 0.09714 0.0
C10 C 0.06008 0.40459 0.0656 0.0
C11 C 0.08084 0.35467 0.08593 0.0
C12 C 0.07289 0.34152 0.06034 0.0
C13 C 0.07271 0.35416 0.07061 0.0
C14 C 0.0895 0.32989 0.08047 0.0
C15 C 0.08123 0.32918 0.06518 0.0
C16 C 0.08928 0.3425 0.09072 0.0
C17 C 0.07936 0.41381 0.13829 0.0
C18 C 0.08253 0.40286 0.16662 0.0
C19 C 0.08892 0.42835 0.16197 0.0
C20 C 0.08481 0.42709 0.14473 0.0
C21 C 0.0876 0.41634 0.17323 0.0
C22 C 0.07843 0.40161 0.14928 0.0
C23 C 0.07408 0.41335 0.12037 0.0
O24 O 0.07429 0.40446 0.06853 0.0
O25 O 0.05247 0.3977 0.0775 0.0
O26 O 0.06223 0.40551 0.1174 0.0
O27 O 0.08417 0.41191 0.10841 0.0
H28 H 0.04012 0.42276 0.08155 0.0
H29 H 0.03001 0.44574 0.07049 0.0
H30 H 0.05633 0.44123 0.02459 0.0
H31 H 0.06637 0.41817 0.03565 0.0
H32 H 0.06627 0.34133 0.04877 0.0
H33 H 0.06613 0.36347 0.06669 0.0
H34 H 0.09624 0.32073 0.08447 0.0
H35 H 0.09569 0.34274 0.10246 0.0
H36 H 0.08131 0.39341 0.17494 0.0
H37 H 0.09305 0.4388 0.16651 0.0
H38 H 0.08568 0.43661 0.13644 0.0
H39 H 0.07427 0.39122 0.14456 0.0
C40 C 0.10762 0.05385 0.55933 0.0
C41 C 0.0993 0.04398 0.56925 0.0
C42 C 0.08086 0.04245 0.5466 0.0
C43 C 0.0861 0.03828 0.5629 0.0
C44 C 0.08909 0.0525 0.53683 0.0
C45 C 0.10236 0.05809 0.54312 0.0
U46 U 0.13182 0.07026 0.59467 0.0
O47 O 0.1547 0.06537 0.60174 0.0
O48 O 0.14864 0.08755 0.59341 0.0
C49 C 0.15935 0.07852 0.59747 0.0
C50 C 0.12181 0.05969 0.56552 0.0
C51 C 0.17236 0.07889 0.58622 0.0
C52 C 0.18361 0.07855 0.55783 0.0
C53 C 0.17105 0.07834 0.56824 0.0
C54 C 0.19891 0.07972 0.58328 0.0
C55 C 0.1977 0.07918 0.56524 0.0
C56 C 0.18636 0.07959 0.59364 0.0
C57 C 0.11381 0.07675 0.63909 0.0
C58 C 0.12471 0.0897 0.6633 0.0
C59 C 0.10134 0.07734 0.66668 0.0
C60 C 0.10191 0.07284 0.64953 0.0
C61 C 0.11267 0.08592 0.67379 0.0
C62 C 0.12527 0.08515 0.64607 0.0
C63 C 0.11378 0.07207 0.62097 0.0
O64 O 0.12209 0.0738 0.56903 0.0
O65 O 0.12876 0.05169 0.57699 0.0
O66 O 0.12142 0.06024 0.61739 0.0
O67 O 0.11529 0.08251 0.60945 0.0
H68 H 0.10302 0.04062 0.58188 0.0
H69 H 0.07992 0.0307 0.57083 0.0
H70 H 0.0854 0.05583 0.52418 0.0
H71 H 0.10858 0.06568 0.53525 0.0
H72 H 0.1823 0.07796 0.54401 0.0
H73 H 0.16032 0.07768 0.56226 0.0
H74 H 0.20956 0.08041 0.5894 0.0
H75 H 0.18759 0.08002 0.60749 0.0
H76 H 0.13358 0.09636 0.66832 0.0
H77 H 0.09205 0.07398 0.67443 0.0
H78 H 0.093 0.0663 0.64437 0.0
H79 H 0.13456 0.08827 0.63818 0.0
C80 C 0.4732 0.10745 0.05835 0.0
C81 C 0.47436 0.0953 0.06935 0.0
C82 C 0.48515 0.0808 0.04619 0.0
C83 C 0.48027 0.08209 0.06332 0.0
C84 C 0.48389 0.09304 0.03525 0.0
C85 C 0.47797 0.10623 0.04129 0.0
U86 U 0.45617 0.13095 0.09372 0.0
O87 O 0.46044 0.1539 0.1009 0.0
O88 O 0.43846 0.14736 0.09232 0.0
C89 C 0.44723 0.15826 0.09646 0.0
C90 C 0.46714 0.12145 0.06452 0.0
C91 C 0.44668 0.17113 0.08504 0.0
C92 C 0.4538 0.18372 0.05875 0.0
C93 C 0.45415 0.17124 0.06926 0.0
C94 C 0.43831 0.19601 0.07957 0.0
C95 C 0.4459 0.19629 0.0638 0.0
C96 C 0.43871 0.18356 0.09008 0.0
C97 C 0.44981 0.11273 0.13804 0.0
C98 C 0.43537 0.12244 0.16178 0.0
C99 C 0.45064 0.101 0.16606 0.0
C100 C 0.45517 0.10173 0.14892 0.0
C101 C 0.44058 0.11126 0.17271 0.0
C102 C 0.43995 0.12317 0.14457 0.0
C103 C 0.45458 0.11282 0.11994 0.0
O104 O 0.45302 0.12139 0.06799 0.0
O105 O 0.47499 0.12822 0.07628 0.0
O106 O 0.46628 0.12072 0.11648 0.0
O107 O 0.44418 0.11411 0.10831 0.0
H108 H 0.47075 0.09608 0.0826 0.0
H109 H 0.48123 0.07295 0.07215 0.0
H110 H 0.48732 0.09238 0.02193 0.0
H111 H 0.47711 0.11549 0.03261 0.0
H112 H 0.45962 0.18348 0.04661 0.0
H113 H 0.46031 0.1617 0.06511 0.0
H114 H 0.43227 0.20553 0.08396 0.0
H115 H 0.4329 0.18367 0.10223 0.0
H116 H 0.42755 0.13046 0.16643 0.0
H117 H 0.45512 0.09244 0.17415 0.0
H118 H 0.46286 0.09363 0.14413 0.0
H119 H 0.43571 0.13177 0.13634 0.0
C120 C 0.41915 0.47104 0.55797 0.0
C121 C 0.43129 0.47229 0.56897 0.0
C122 C 0.44589 0.48273 0.54568 0.0
C123 C 0.44454 0.47809 0.56288 0.0
C124 C 0.43367 0.48134 0.53471 0.0
C125 C 0.42043 0.47556 0.54082 0.0
U126 U 0.39559 0.45509 0.59388 0.0
O127 O 0.37282 0.46015 0.60127 0.0
O128 O 0.37871 0.43783 0.5933 0.0
C129 C 0.36807 0.44696 0.5973 0.0
C130 C 0.40505 0.46532 0.5643 0.0
C131 C 0.35502 0.4465 0.58612 0.0
C132 C 0.34374 0.44697 0.55776 0.0
C133 C 0.3563 0.44735 0.56816 0.0
C134 C 0.32851 0.44501 0.58319 0.0
C135 C 0.32966 0.4458 0.56514 0.0
C136 C 0.34106 0.44534 0.59354 0.0
C137 C 0.41432 0.44933 0.63804 0.0
C138 C 0.40241 0.44036 0.66399 0.0
C139 C 0.42797 0.44768 0.66478 0.0
C140 C 0.42738 0.4511 0.64729 0.0
C141 C 0.41546 0.44239 0.67341 0.0
C142 C 0.40183 0.44385 0.64643 0.0
C143 C 0.41406 0.4536 0.6198 0.0
O144 O 0.40485 0.45127 0.5681 0.0
O145 O 0.3985 0.47349 0.57592 0.0
O146 O 0.40641 0.4654 0.6161 0.0
O147 O 0.41227 0.44294 0.60861 0.0
H148 H 0.43049 0.46882 0.58227 0.0
H149 H 0.45377 0.47882 0.57162 0.0
H150 H 0.43424 0.48498 0.52147 0.0
H151 H 0.41114 0.47473 0.53217 0.0
H152 H 0.34509 0.44743 0.54394 0.0
H153 H 0.367 0.44829 0.56218 0.0
H154 H 0.31788 0.44436 0.58936 0.0
H155 H 0.33986 0.44477 0.60739 0.0
H156 H 0.39257 0.4364 0.67028 0.0
H157 H 0.43826 0.44914 0.67155 0.0
H158 H 0.43715 0.45526 0.641 0.0
H159 H 0.39163 0.44243 0.63945 0.0
C160 C 0.05407 0.10772 0.96813 0.0
C161 C 0.05281 0.09559 0.95711 0.0
C162 C 0.04236 0.08099 0.9804 0.0
C163 C 0.04699 0.08234 0.96319 0.0
C164 C 0.04372 0.09322 0.99137 0.0
C165 C 0.04951 0.10645 0.98527 0.0
U166 U 0.07102 0.13116 0.93267 0.0
O167 O 0.06665 0.15404 0.92532 0.0
O168 O 0.08865 0.14769 0.934 0.0
C169 C 0.07984 0.1585 0.92973 0.0
C170 C 0.06006 0.12174 0.96191 0.0
C171 C 0.08035 0.1715 0.94098 0.0
C172 C 0.0729 0.18451 0.96687 0.0
C173 C 0.07259 0.1719 0.95657 0.0
C174 C 0.0889 0.19636 0.94623 0.0
C175 C 0.081 0.19695 0.96178 0.0
C176 C 0.08855 0.18377 0.93594 0.0
C177 C 0.07757 0.11278 0.8885 0.0
C178 C 0.09211 0.12243 0.8648 0.0
C179 C 0.07679 0.10101 0.86048 0.0
C180 C 0.07222 0.10177 0.8776 0.0
C181 C 0.08689 0.11124 0.85386 0.0
C182 C 0.08748 0.12319 0.88199 0.0
C183 C 0.07277 0.11291 0.90658 0.0
O184 O 0.07418 0.12176 0.95848 0.0
O185 O 0.05219 0.1284 0.95009 0.0
O186 O 0.06101 0.12073 0.90997 0.0
O187 O 0.08313 0.11432 0.91823 0.0
H188 H 0.05632 0.09637 0.94383 0.0
H189 H 0.04628 0.07311 0.95445 0.0
H190 H 0.04009 0.09264 1.00461 0.0
H191 H 0.05038 0.11572 0.99393 0.0
H192 H 0.06656 0.18461 0.97865 0.0
H193 H 0.06619 0.16251 0.96068 0.0
H194 H 0.09545 0.2056 0.94203 0.0
H195 H 0.09467 0.18363 0.92399 0.0
H196 H 0.09996 0.13043 0.86017 0.0
H197 H 0.0723 0.09244 0.85239 0.0
H198 H 0.06449 0.09369 0.88237 0.0
H199 H 0.09172 0.1318 0.89022 0.0
C200 C 0.4187 0.05386 0.46724 0.0
C201 C 0.43085 0.05267 0.45624 0.0
C202 C 0.44545 0.04222 0.47952 0.0
C203 C 0.44411 0.04689 0.46232 0.0
C204 C 0.43321 0.04353 0.49047 0.0
C205 C 0.41997 0.04929 0.48437 0.0
U206 U 0.39513 0.07045 0.43167 0.0
O207 O 0.37228 0.06566 0.42432 0.0
O208 O 0.37839 0.08781 0.43275 0.0
C209 C 0.36767 0.07882 0.42859 0.0
C210 C 0.40462 0.05969 0.46098 0.0
C211 C 0.35464 0.07922 0.43981 0.0
C212 C 0.34339 0.07841 0.46817 0.0
C213 C 0.35593 0.07807 0.45775 0.0
C214 C 0.32815 0.08095 0.44283 0.0
C215 C 0.32931 0.07986 0.46084 0.0
C216 C 0.34069 0.08064 0.43244 0.0
C217 C 0.41357 0.07713 0.38757 0.0
C218 C 0.40277 0.09008 0.36332 0.0
C219 C 0.42616 0.07777 0.36006 0.0
C220 C 0.42552 0.07326 0.37721 0.0
C221 C 0.41485 0.08632 0.35289 0.0
C222 C 0.40213 0.08552 0.38054 0.0
C223 C 0.41346 0.07235 0.40565 0.0
O224 O 0.40446 0.0738 0.4575 0.0
O225 O 0.39807 0.05172 0.44917 0.0
O226 O 0.40573 0.06052 0.40903 0.0
O227 O 0.41188 0.08273 0.41725 0.0
H228 H 0.43006 0.05619 0.44296 0.0
H229 H 0.45335 0.04621 0.45359 0.0
H230 H 0.43378 0.03987 0.5037 0.0
H231 H 0.41068 0.05009 0.49302 0.0
H232 H 0.34475 0.07772 0.48198 0.0
H233 H 0.36663 0.07692 0.46368 0.0
H234 H 0.31752 0.08181 0.43668 0.0
H235 H 0.33947 0.08145 0.41861 0.0
H236 H 0.39392 0.09672 0.35826 0.0
H237 H 0.43548 0.07441 0.35237 0.0
H238 H 0.4344 0.06672 0.3824 0.0
H239 H 0.3928 0.0886 0.38837 0.0
C240 C 0.47276 0.418 0.96812 0.0
C241 C 0.47366 0.43026 0.95726 0.0
C242 C 0.48453 0.44469 0.98044 0.0
C243 C 0.47951 0.44349 0.96337 0.0
C244 C 0.48354 0.43233 0.99124 0.0
C245 C 0.47771 0.41912 0.98512 0.0
U246 U 0.455 0.39497 0.93285 0.0
O247 O 0.45922 0.37221 0.92486 0.0
O248 O 0.43744 0.3784 0.93446 0.0
C249 C 0.44615 0.36766 0.92966 0.0
C250 C 0.46671 0.40401 0.96186 0.0
C251 C 0.44592 0.35451 0.94068 0.0
C252 C 0.45415 0.34107 0.96592 0.0
C253 C 0.45431 0.35378 0.95579 0.0
C254 C 0.43705 0.32979 0.94605 0.0
C255 C 0.44557 0.32886 0.96113 0.0
C256 C 0.43725 0.34248 0.93594 0.0
C257 C 0.44704 0.41428 0.88944 0.0
C258 C 0.44309 0.40325 0.86129 0.0
C259 C 0.43825 0.42912 0.86563 0.0
C260 C 0.44235 0.42779 0.88287 0.0
C261 C 0.4388 0.41693 0.85452 0.0
C262 C 0.4472 0.40194 0.87861 0.0
C263 C 0.45236 0.41367 0.90732 0.0
O264 O 0.4525 0.40392 0.95898 0.0
O265 O 0.47429 0.39758 0.94961 0.0
O266 O 0.46425 0.40584 0.91008 0.0
O267 O 0.44232 0.41202 0.9193 0.0
H268 H 0.46983 0.4296 0.94409 0.0
H269 H 0.47993 0.45282 0.95477 0.0
H270 H 0.48747 0.43279 1.00438 0.0
H271 H 0.47713 0.40974 0.99366 0.0
H272 H 0.46096 0.34072 0.97732 0.0
H273 H 0.46106 0.363 0.95968 0.0
H274 H 0.43012 0.32074 0.94211 0.0
H275 H 0.43064 0.34288 0.92436 0.0
H276 H 0.44371 0.39367 0.85309 0.0
H277 H 0.43472 0.43974 0.86097 0.0
H278 H 0.4421 0.43743 0.89103 0.0
H279 H 0.45076 0.39138 0.88345 0.0
C280 C 0.10793 0.47103 0.46968 0.0
C281 C 0.09569 0.47212 0.4588 0.0
C282 C 0.08123 0.48265 0.48216 0.0
C283 C 0.08245 0.47787 0.46498 0.0
C284 C 0.09354 0.4814 0.49301 0.0
C285 C 0.10676 0.47565 0.48681 0.0
U286 U 0.13135 0.4552 0.43357 0.0
O287 O 0.15404 0.46042 0.42596 0.0
O288 O 0.14835 0.43807 0.43401 0.0
C289 C 0.15889 0.44727 0.42988 0.0
C290 C 0.12201 0.46538 0.46323 0.0
C291 C 0.17205 0.44691 0.4409 0.0
C292 C 0.18361 0.44744 0.4691 0.0
C293 C 0.17094 0.44769 0.45889 0.0
C294 C 0.19861 0.44579 0.44345 0.0
C295 C 0.19761 0.44654 0.46149 0.0
C296 C 0.18595 0.44596 0.43327 0.0
C297 C 0.11246 0.44934 0.38954 0.0
C298 C 0.12409 0.43956 0.36381 0.0
C299 C 0.09903 0.44837 0.36259 0.0
C300 C 0.09963 0.45185 0.38007 0.0
C301 C 0.11128 0.4423 0.35418 0.0
C302 C 0.12469 0.44311 0.38136 0.0
C303 C 0.11275 0.4536 0.40779 0.0
O304 O 0.12226 0.45133 0.45942 0.0
O305 O 0.12846 0.47358 0.45157 0.0
O306 O 0.12033 0.46545 0.41146 0.0
O307 O 0.11467 0.44294 0.41895 0.0
H308 H 0.09642 0.46864 0.4455 0.0
H309 H 0.07326 0.47882 0.45622 0.0
H310 H 0.09294 0.48476 0.50635 0.0
H311 H 0.11609 0.47485 0.49539 0.0
H312 H 0.18246 0.4482 0.48294 0.0
H313 H 0.16029 0.44853 0.46501 0.0
H314 H 0.20919 0.4449 0.43718 0.0
H315 H 0.18701 0.44535 0.41941 0.0
H316 H 0.13374 0.43499 0.35769 0.0
H317 H 0.08892 0.4504 0.35566 0.0
H318 H 0.09006 0.4566 0.3862 0.0
H319 H 0.13471 0.44112 0.3885 0.0
C320 C 0.97022 0.60714 0.96748 0.0
C321 C 0.96424 0.59369 0.96211 0.0
C322 C 0.98183 0.58041 0.97988 0.0
C323 C 0.96994 0.58045 0.96833 0.0
C324 C 0.98784 0.59391 0.98511 0.0
C325 C 0.98206 0.60713 0.979 0.0
U326 U 0.95346 0.63081 0.93198 0.0
O327 O 0.93629 0.64774 0.93312 0.0
O328 O 0.95846 0.65356 0.92445 0.0
C329 C 0.94536 0.65834 0.92878 0.0
C330 C 0.96444 0.62125 0.96111 0.0
C331 C 0.94514 0.67148 0.93982 0.0
C332 C 0.94545 0.68302 0.96805 0.0
C333 C 0.94571 0.67035 0.95782 0.0
C334 C 0.94423 0.69804 0.94239 0.0
C335 C 0.94473 0.69702 0.96044 0.0
C336 C 0.94441 0.68538 0.9322 0.0
C337 C 0.94633 0.61243 0.88797 0.0
C338 C 0.93304 0.62319 0.86394 0.0
C339 C 0.94614 0.60029 0.86017 0.0
C340 C 0.95061 0.6008 0.87734 0.0
C341 C 0.93723 0.61143 0.85324 0.0
C342 C 0.93756 0.62369 0.88118 0.0
C343 C 0.95119 0.61246 0.90602 0.0
O344 O 0.9724 0.6277 0.94922 0.0
O345 O 0.95027 0.62173 0.95791 0.0
O346 O 0.94089 0.61417 0.9177 0.0
O347 O 0.96314 0.62002 0.90932 0.0
H348 H 0.95519 0.5934 0.95307 0.0
H349 H 0.96518 0.57023 0.9639 0.0
H350 H 0.99691 0.59426 0.99411 0.0
H351 H 0.98685 0.61739 0.98329 0.0
H352 H 0.94602 0.68185 0.98189 0.0
H353 H 0.94637 0.6597 0.96395 0.0
H354 H 0.94349 0.70862 0.93612 0.0
H355 H 0.94396 0.68646 0.91833 0.0
H356 H 0.92611 0.63189 0.85908 0.0
H357 H 0.94983 0.59123 0.85226 0.0
H358 H 0.95745 0.59206 0.88233 0.0
H359 H 0.93418 0.63279 0.88922 0.0
C360 C 0.91904 0.96986 0.46746 0.0
C361 C 0.93251 0.96372 0.46237 0.0
C362 C 0.94577 0.98164 0.47974 0.0
C363 C 0.94574 0.96951 0.46854 0.0
C364 C 0.93226 0.98782 0.48466 0.0
C365 C 0.91904 0.98195 0.47861 0.0
U366 U 0.89527 0.95281 0.43217 0.0
O367 O 0.87847 0.9355 0.43352 0.0
O368 O 0.87242 0.95758 0.42482 0.0
C369 C 0.86777 0.94446 0.42925 0.0
C370 C 0.90493 0.96395 0.46119 0.0
C371 C 0.85475 0.94416 0.44047 0.0
C372 C 0.84346 0.94551 0.46878 0.0
C373 C 0.856 0.94583 0.45835 0.0
C374 C 0.82829 0.94198 0.44352 0.0
C375 C 0.82942 0.94357 0.4615 0.0
C376 C 0.84083 0.94226 0.43314 0.0
C377 C 0.91354 0.94569 0.38808 0.0
C378 C 0.9025 0.93281 0.36391 0.0
C379 C 0.92593 0.94503 0.36044 0.0
C380 C 0.92544 0.94951 0.37761 0.0
C381 C 0.91451 0.93655 0.35335 0.0
C382 C 0.90202 0.93734 0.38115 0.0
C383 C 0.91352 0.9506 0.40611 0.0
O384 O 0.89836 0.97182 0.44931 0.0
O385 O 0.90451 0.94977 0.45805 0.0
O386 O 0.91193 0.94033 0.41783 0.0
O387 O 0.90586 0.96248 0.40939 0.0
H388 H 0.93281 0.95447 0.45362 0.0
H389 H 0.95597 0.96462 0.46436 0.0
H390 H 0.9319 0.99708 0.49339 0.0
H391 H 0.90878 0.98686 0.48267 0.0
H392 H 0.84479 0.94661 0.48256 0.0
H393 H 0.86667 0.94734 0.46424 0.0
H394 H 0.81768 0.94073 0.43741 0.0
H395 H 0.83964 0.94104 0.41935 0.0
H396 H 0.89357 0.92622 0.35892 0.0
H397 H 0.9352 0.94838 0.35266 0.0
H398 H 0.93439 0.95603 0.38271 0.0
H399 H 0.89271 0.93431 0.38906 0.0
C400 C 0.558 0.91849 0.96877 0.0
C401 C 0.55698 0.93079 0.958 0.0
C402 C 0.54646 0.94515 0.98144 0.0
C403 C 0.55127 0.94401 0.96427 0.0
C404 C 0.54762 0.93277 0.99218 0.0
C405 C 0.55334 0.91957 0.98589 0.0
U406 U 0.57471 0.89534 0.93291 0.0
O407 O 0.59188 0.8784 0.93386 0.0
O408 O 0.56976 0.87269 0.92493 0.0
C409 C 0.58283 0.86785 0.92929 0.0
C410 C 0.56373 0.90445 0.96228 0.0
C411 C 0.58295 0.85468 0.94025 0.0
C412 C 0.58082 0.84298 0.96826 0.0
C413 C 0.58072 0.85566 0.95808 0.0
C414 C 0.58526 0.82821 0.94288 0.0
C415 C 0.58305 0.82909 0.96077 0.0
C416 C 0.58522 0.84089 0.93274 0.0
C417 C 0.58215 0.91461 0.88938 0.0
C418 C 0.58609 0.90324 0.86143 0.0
C419 C 0.59011 0.92932 0.86508 0.0
C420 C 0.58628 0.92816 0.88242 0.0
C421 C 0.58985 0.91694 0.85427 0.0
C422 C 0.58226 0.90208 0.87886 0.0
C423 C 0.5772 0.91409 0.90741 0.0
O424 O 0.55581 0.89819 0.9502 0.0
O425 O 0.57788 0.90417 0.95901 0.0
O426 O 0.58745 0.91219 0.91909 0.0
O427 O 0.56521 0.90649 0.91047 0.0
H428 H 0.56051 0.93013 0.94471 0.0
H429 H 0.55038 0.95325 0.95559 0.0
H430 H 0.54424 0.9333 1.00552 0.0
H431 H 0.55409 0.91019 0.9944 0.0
H432 H 0.57892 0.84404 0.98195 0.0
H433 H 0.57886 0.86623 0.96409 0.0
H434 H 0.5872 0.81773 0.93672 0.0
H435 H 0.58698 0.83992 0.919 0.0
H436 H 0.5857 0.89349 0.85347 0.0
H437 H 0.59322 0.93998 0.86011 0.0
H438 H 0.58634 0.93793 0.89036 0.0
H439 H 0.57912 0.8915 0.88402 0.0
C440 C 0.60718 0.55849 0.46904 0.0
C441 C 0.595 0.55729 0.45808 0.0
C442 C 0.5804 0.54699 0.48145 0.0
C443 C 0.58173 0.55159 0.46423 0.0
C444 C 0.59265 0.54835 0.49238 0.0
C445 C 0.60591 0.55404 0.48621 0.0
U446 U 0.63075 0.57397 0.43287 0.0
O447 O 0.64784 0.59102 0.43318 0.0
O448 O 0.65341 0.56858 0.42533 0.0
C449 C 0.65834 0.58174 0.42913 0.0
C450 C 0.62131 0.56405 0.4626 0.0
C451 C 0.67151 0.58212 0.44011 0.0
C452 C 0.68312 0.58218 0.4683 0.0
C453 C 0.67043 0.58193 0.45812 0.0
C454 C 0.6981 0.58267 0.44256 0.0
C455 C 0.69712 0.58251 0.46062 0.0
C456 C 0.68542 0.58249 0.43242 0.0
C457 C 0.61205 0.57959 0.38874 0.0
C458 C 0.62407 0.58859 0.36287 0.0
C459 C 0.59867 0.58077 0.36178 0.0
C460 C 0.59913 0.57749 0.37931 0.0
C461 C 0.61116 0.58623 0.35328 0.0
C462 C 0.62452 0.58524 0.38048 0.0
C463 C 0.61221 0.57546 0.40703 0.0
O464 O 0.62774 0.55573 0.45104 0.0
O465 O 0.62163 0.57807 0.45867 0.0
O466 O 0.61416 0.5862 0.4181 0.0
O467 O 0.6197 0.56359 0.41085 0.0
H468 H 0.59579 0.56071 0.44476 0.0
H469 H 0.57248 0.55088 0.45552 0.0
H470 H 0.59209 0.54475 0.50564 0.0
H471 H 0.61523 0.55483 0.49482 0.0
H472 H 0.68199 0.58188 0.48216 0.0
H473 H 0.65978 0.58152 0.46431 0.0
H474 H 0.70868 0.5831 0.43624 0.0
H475 H 0.68647 0.58264 0.41854 0.0
H476 H 0.6339 0.59269 0.35668 0.0
H477 H 0.58848 0.57906 0.35488 0.0
H478 H 0.58937 0.57318 0.38551 0.0
H479 H 0.63462 0.58691 0.38759 0.0
C480 C 0.96868 0.91883 0.05723 0.0
C481 C 0.96988 0.93097 0.06825 0.0
C482 C 0.97999 0.94571 0.04489 0.0
C483 C 0.97549 0.94429 0.06215 0.0
C484 C 0.97869 0.93349 0.03392 0.0
C485 C 0.97309 0.92018 0.04005 0.0
U486 U 0.95287 0.89497 0.09302 0.0
O487 O 0.9356 0.87811 0.09225 0.0
O488 O 0.95794 0.87214 0.1001 0.0
C489 C 0.94473 0.86744 0.09615 0.0
C490 C 0.96304 0.90469 0.06353 0.0
C491 C 0.9442 0.85443 0.08492 0.0
C492 C 0.94477 0.84318 0.05655 0.0
C493 C 0.94522 0.85572 0.06697 0.0
C494 C 0.9424 0.82795 0.08192 0.0
C495 C 0.94336 0.82912 0.06389 0.0
C496 C 0.9428 0.84049 0.0923 0.0
C497 C 0.94687 0.91293 0.13749 0.0
C498 C 0.93289 0.90281 0.16138 0.0
C499 C 0.94803 0.92436 0.16568 0.0
C500 C 0.95229 0.92386 0.14843 0.0
C501 C 0.93817 0.91392 0.17238 0.0
C502 C 0.93721 0.90231 0.14407 0.0
C503 C 0.95133 0.91307 0.11929 0.0
O504 O 0.97127 0.89813 0.07508 0.0
O505 O 0.949 0.90441 0.06736 0.0
O506 O 0.94076 0.91153 0.10791 0.0
O507 O 0.96317 0.90551 0.11549 0.0
H508 H 0.96649 0.93012 0.08158 0.0
H509 H 0.97617 0.95351 0.0709 0.0
H510 H 0.98222 0.93412 0.02064 0.0
H511 H 0.97229 0.91091 0.03138 0.0
H512 H 0.94537 0.84453 0.04273 0.0
H513 H 0.94634 0.86642 0.06103 0.0
H514 H 0.94157 0.81733 0.08807 0.0
H515 H 0.9421 0.83928 0.10614 0.0
H516 H 0.92522 0.89465 0.16606 0.0
H517 H 0.95256 0.93288 0.17381 0.0
H518 H 0.95982 0.9321 0.14361 0.0
H519 H 0.93293 0.89375 0.1358 0.0
C520 C 0.60719 0.96789 0.5566 0.0
C521 C 0.59499 0.969 0.56753 0.0
C522 C 0.58034 0.97912 0.5441 0.0
C523 C 0.58168 0.97457 0.56135 0.0
C524 C 0.59262 0.97786 0.53321 0.0
C525 C 0.60591 0.9723 0.53942 0.0
U526 U 0.63088 0.95262 0.5928 0.0
O527 O 0.64807 0.93568 0.59249 0.0
O528 O 0.65353 0.95817 0.60028 0.0
C529 C 0.65852 0.94504 0.59649 0.0
C530 C 0.62136 0.96245 0.56306 0.0
C531 C 0.67168 0.94472 0.58548 0.0
C532 C 0.68325 0.94449 0.55728 0.0
C533 C 0.67057 0.94471 0.56747 0.0
C534 C 0.69827 0.94443 0.58298 0.0
C535 C 0.69727 0.94439 0.56492 0.0
C536 C 0.6856 0.94458 0.59314 0.0
C537 C 0.61222 0.94688 0.63696 0.0
C538 C 0.62443 0.93863 0.66305 0.0
C539 C 0.59863 0.94505 0.66372 0.0
C540 C 0.5991 0.94829 0.64618 0.0
C541 C 0.61131 0.94032 0.67244 0.0
C542 C 0.62489 0.94194 0.64543 0.0
C543 C 0.61237 0.95101 0.61867 0.0
O544 O 0.62773 0.97082 0.57462 0.0
O545 O 0.62177 0.94843 0.56702 0.0
O546 O 0.61437 0.94029 0.60761 0.0
O547 O 0.6198 0.96292 0.61483 0.0
H548 H 0.59578 0.96561 0.58086 0.0
H549 H 0.57241 0.97521 0.57003 0.0
H550 H 0.59205 0.98143 0.51994 0.0
H551 H 0.61525 0.97157 0.53082 0.0
H552 H 0.68209 0.94462 0.54341 0.0
H553 H 0.65991 0.94493 0.56131 0.0
H554 H 0.70887 0.94418 0.58929 0.0
H555 H 0.68668 0.94458 0.60702 0.0
H556 H 0.6344 0.93511 0.6694 0.0
H557 H 0.5883 0.94622 0.67047 0.0
H558 H 0.58921 0.95204 0.63983 0.0
H559 H 0.63514 0.94081 0.63848 0.0
C560 C 0.55796 0.60707 0.05704 0.0
C561 C 0.5572 0.59484 0.06795 0.0
C562 C 0.54672 0.58015 0.04475 0.0
C563 C 0.55161 0.58149 0.06187 0.0
C564 C 0.54761 0.59247 0.03389 0.0
C565 C 0.55317 0.6058 0.03999 0.0
U566 U 0.57437 0.63074 0.09263 0.0
O567 O 0.59144 0.64778 0.0916 0.0
O568 O 0.56923 0.65345 0.10025 0.0
C569 C 0.58229 0.65832 0.09589 0.0
C570 C 0.56355 0.62124 0.06334 0.0
C571 C 0.58244 0.67143 0.08481 0.0
C572 C 0.58314 0.68287 0.05654 0.0
C573 C 0.58287 0.67024 0.06681 0.0
C574 C 0.58233 0.698 0.08214 0.0
C575 C 0.5829 0.69694 0.06408 0.0
C576 C 0.58212 0.68538 0.09237 0.0
C577 C 0.5819 0.61188 0.1364 0.0
C578 C 0.58516 0.62324 0.16449 0.0
C579 C 0.5906 0.59745 0.16059 0.0
C580 C 0.58675 0.59853 0.14325 0.0
C581 C 0.58963 0.60972 0.17152 0.0
C582 C 0.58132 0.62432 0.14706 0.0
C583 C 0.57695 0.61224 0.11837 0.0
O584 O 0.55555 0.62754 0.07531 0.0
O585 O 0.57769 0.6217 0.06665 0.0
O586 O 0.5872 0.6141 0.10668 0.0
O587 O 0.56492 0.61973 0.1152 0.0
H588 H 0.56089 0.59563 0.08117 0.0
H589 H 0.55126 0.57219 0.07052 0.0
H590 H 0.54376 0.5919 0.02072 0.0
H591 H 0.55364 0.61516 0.03142 0.0
H592 H 0.58375 0.6816 0.04272 0.0
H593 H 0.58307 0.65956 0.0607 0.0
H594 H 0.58186 0.7086 0.0884 0.0
H595 H 0.58169 0.68652 0.10623 0.0
H596 H 0.58423 0.63289 0.17255 0.0
H597 H 0.59427 0.58694 0.16546 0.0
H598 H 0.58735 0.58883 0.13521 0.0
H599 H 0.57763 0.63476 0.142 0.0
C600 C 0.91876 0.55679 0.55749 0.0
C601 C 0.9309 0.55566 0.56851 0.0
C602 C 0.94549 0.54496 0.54538 0.0
C603 C 0.94415 0.54981 0.56251 0.0
C604 C 0.93327 0.54623 0.53439 0.0
C605 C 0.92004 0.55208 0.54041 0.0
U606 U 0.8951 0.57318 0.59308 0.0
O607 O 0.87845 0.59064 0.59213 0.0
O608 O 0.8722 0.56845 0.60024 0.0
C609 C 0.86767 0.58168 0.59614 0.0
C610 C 0.90468 0.56266 0.5637 0.0
C611 C 0.85467 0.58225 0.5849 0.0
C612 C 0.84342 0.58133 0.55654 0.0
C613 C 0.85595 0.58087 0.56698 0.0
C614 C 0.82822 0.58447 0.58184 0.0
C615 C 0.82938 0.58313 0.56384 0.0
C616 C 0.84075 0.58405 0.59223 0.0
C617 C 0.91318 0.57928 0.63746 0.0
C618 C 0.90278 0.59294 0.66143 0.0
C619 C 0.92494 0.57868 0.66547 0.0
C620 C 0.92444 0.57434 0.64825 0.0
C621 C 0.91419 0.58812 0.67229 0.0
C622 C 0.90228 0.58855 0.64414 0.0
C623 C 0.91325 0.5747 0.6193 0.0
O624 O 0.898 0.55461 0.57533 0.0
O625 O 0.90459 0.57673 0.56738 0.0
O626 O 0.91183 0.5852 0.60783 0.0
O627 O 0.90552 0.56293 0.61563 0.0
H628 H 0.93008 0.55922 0.58178 0.0
H629 H 0.95327 0.54885 0.57138 0.0
H630 H 0.93396 0.54281 0.52107 0.0
H631 H 0.91078 0.55291 0.53171 0.0
H632 H 0.84477 0.58043 0.54275 0.0
H633 H 0.86663 0.57944 0.56108 0.0
H634 H 0.81761 0.58561 0.58796 0.0
H635 H 0.83954 0.58504 0.60605 0.0
H636 H 0.89438 0.60028 0.6662 0.0
H637 H 0.93371 0.57451 0.67349 0.0
H638 H 0.9329 0.56712 0.64333 0.0
H639 H 0.89347 0.59246 0.63598 0.0
C640 C 0.08688 0.43101 0.20055 0.0
C641 C 0.09104 0.41814 0.19187 0.0
C642 C 0.09026 0.433 0.21791 0.0
C643 C 0.10005 0.41318 0.25774 0.0
H644 H 0.11226 0.45189 0.27276 0.0
C645 C 0.1164 0.42609 0.32855 0.0
C646 C 0.11063 0.43916 0.33539 0.0
C647 C 0.11522 0.42303 0.31092 0.0
C648 C 0.10877 0.44104 0.26881 0.0
H649 H 0.10197 0.39716 0.1948 0.0
H650 H 0.10788 0.40062 0.22524 0.0
H651 H 0.10786 0.44733 0.24234 0.0
H652 H 0.09948 0.45944 0.32895 0.0
H653 H 0.09727 0.45407 0.29842 0.0
H654 H 0.10083 0.40697 0.28433 0.0
C655 C 0.10189 0.40915 0.21856 0.0
C656 C 0.10623 0.43842 0.25136 0.0
C657 C 0.0985 0.40716 0.20112 0.0
C658 C 0.10389 0.44919 0.32416 0.0
C659 C 0.10277 0.44618 0.3066 0.0
C660 C 0.1026 0.41581 0.27525 0.0
C661 C 0.09791 0.42216 0.22713 0.0
C662 C 0.10159 0.42453 0.24561 0.0
C663 C 0.10837 0.43305 0.29974 0.0
C664 C 0.10676 0.42984 0.28103 0.0
H665 H 0.08082 0.43955 0.19397 0.0
H666 H 0.08671 0.443 0.22418 0.0
H667 H 0.09638 0.40239 0.25379 0.0
H668 H 0.12158 0.41809 0.33687 0.0
H669 H 0.11975 0.41287 0.30604 0.0
C670 C 0.0983 0.09528 0.69913 0.0
C671 C 0.11179 0.09081 0.69208 0.0
C672 C 0.09718 0.09906 0.71651 0.0
C673 C 0.11551 0.09314 0.75833 0.0
H674 H 0.08848 0.12331 0.77358 0.0
C675 C 0.09459 0.0963 0.82821 0.0
C676 C 0.09189 0.11011 0.83563 0.0
C677 C 0.09853 0.09506 0.8109 0.0
C678 C 0.09623 0.11497 0.76958 0.0
H679 H 0.1348 0.08718 0.6978 0.0
H680 H 0.13291 0.09408 0.72808 0.0
H681 H 0.09277 0.11976 0.74294 0.0
H682 H 0.09156 0.13351 0.83062 0.0
H683 H 0.09876 0.13138 0.80047 0.0
H684 H 0.11908 0.08844 0.78497 0.0
C685 C 0.12313 0.09443 0.72019 0.0
C686 C 0.09855 0.11281 0.75197 0.0
C687 C 0.12424 0.09063 0.70277 0.0
C688 C 0.09362 0.1227 0.82537 0.0
C689 C 0.0976 0.12146 0.80802 0.0
C690 C 0.11322 0.09533 0.77594 0.0
C691 C 0.10953 0.09854 0.72733 0.0
C692 C 0.10803 0.1017 0.74609 0.0
C693 C 0.09997 0.10761 0.80051 0.0
C694 C 0.10336 0.10611 0.78181 0.0
H695 H 0.08852 0.09578 0.69124 0.0
H696 H 0.0865 0.102 0.72154 0.0
H697 H 0.1228 0.08441 0.75432 0.0
H698 H 0.0936 0.08637 0.83577 0.0
H699 H 0.1001 0.08419 0.80557 0.0
C700 C 0.40333 0.09095 0.32387 0.0
C701 C 0.41577 0.09116 0.33459 0.0
C702 C 0.40447 0.09471 0.30645 0.0
C703 C 0.42911 0.11297 0.27464 0.0
H704 H 0.40848 0.0886 0.2417 0.0
C705 C 0.43396 0.12276 0.20121 0.0
C706 C 0.43562 0.11016 0.19095 0.0
C707 C 0.43002 0.12155 0.21858 0.0
C708 C 0.41437 0.09549 0.25071 0.0
H709 H 0.43905 0.09611 0.33545 0.0
H710 H 0.44112 0.10224 0.30513 0.0
H711 H 0.40477 0.08462 0.27235 0.0
H712 H 0.43384 0.08642 0.19083 0.0
H713 H 0.42741 0.08429 0.22106 0.0
H714 H 0.4392 0.12341 0.25301 0.0
C715 C 0.43043 0.09932 0.31015 0.0
C716 C 0.41209 0.09333 0.26833 0.0
C717 C 0.42928 0.09559 0.32754 0.0
C718 C 0.4329 0.09636 0.19839 0.0
C719 C 0.42899 0.09515 0.21572 0.0
C720 C 0.43143 0.1151 0.25702 0.0
C721 C 0.41808 0.09879 0.29931 0.0
C722 C 0.4196 0.10189 0.28055 0.0
C723 C 0.42762 0.10771 0.22611 0.0
C724 C 0.42425 0.10624 0.24482 0.0
H725 H 0.39276 0.08752 0.32883 0.0
H726 H 0.39469 0.09434 0.29855 0.0
H727 H 0.43493 0.11993 0.28366 0.0
H728 H 0.43604 0.13356 0.19595 0.0
H729 H 0.4289 0.13148 0.22613 0.0
C730 C 0.44025 0.43125 0.82699 0.0
C731 C 0.43536 0.41873 0.83589 0.0
C732 C 0.43689 0.43324 0.80963 0.0
C733 C 0.42568 0.41362 0.77015 0.0
H734 H 0.41575 0.45282 0.75468 0.0
C735 C 0.40961 0.42674 0.69931 0.0
C736 C 0.41611 0.43937 0.69223 0.0
C737 C 0.41075 0.42379 0.71696 0.0
C738 C 0.4186 0.44182 0.75875 0.0
H739 H 0.42318 0.39841 0.83332 0.0
H740 H 0.41732 0.40189 0.80288 0.0
H741 H 0.42008 0.44833 0.78512 0.0
H742 H 0.42854 0.45901 0.69829 0.0
H743 H 0.43068 0.45381 0.72886 0.0
H744 H 0.42434 0.40718 0.74366 0.0
C745 C 0.42384 0.41012 0.80939 0.0
C746 C 0.4211 0.43924 0.77622 0.0
C747 C 0.42721 0.40812 0.82684 0.0
C748 C 0.42355 0.44909 0.70326 0.0
C749 C 0.42463 0.44619 0.72085 0.0
C750 C 0.42317 0.4162 0.75262 0.0
C751 C 0.42856 0.42277 0.80061 0.0
C752 C 0.42492 0.42517 0.78213 0.0
C753 C 0.4183 0.43349 0.72794 0.0
C754 C 0.41984 0.4304 0.74668 0.0
H755 H 0.44685 0.43948 0.83341 0.0
H756 H 0.44101 0.44294 0.80319 0.0
H757 H 0.42871 0.40267 0.77423 0.0
H758 H 0.40387 0.41899 0.69116 0.0
H759 H 0.40565 0.41397 0.72203 0.0
C760 C 0.93225 0.62333 0.82452 0.0
C761 C 0.93248 0.61069 0.83489 0.0
C762 C 0.92861 0.62238 0.80704 0.0
C763 C 0.91149 0.59766 0.77443 0.0
H764 H 0.93513 0.61994 0.74225 0.0
C765 C 0.90228 0.59373 0.70085 0.0
C766 C 0.91499 0.59283 0.69064 0.0
C767 C 0.90324 0.59741 0.71832 0.0
C768 C 0.92846 0.61359 0.75105 0.0
H769 H 0.92841 0.58723 0.83508 0.0
H770 H 0.9225 0.58552 0.80467 0.0
H771 H 0.93881 0.62321 0.77303 0.0
H772 H 0.93863 0.59571 0.69073 0.0
H773 H 0.94034 0.6017 0.72112 0.0
H774 H 0.9016 0.58756 0.75245 0.0
C775 C 0.92499 0.59622 0.81001 0.0
C776 C 0.93043 0.61561 0.76874 0.0
C777 C 0.92859 0.59716 0.82745 0.0
C778 C 0.92863 0.59606 0.69824 0.0
C779 C 0.92959 0.59971 0.71567 0.0
C780 C 0.90955 0.5956 0.75674 0.0
C781 C 0.92509 0.60878 0.79951 0.0
C782 C 0.92214 0.60751 0.78068 0.0
C783 C 0.91693 0.60031 0.726 0.0
C784 C 0.91816 0.60337 0.7448 0.0
H785 H 0.93526 0.63391 0.82978 0.0
H786 H 0.92863 0.63232 0.79941 0.0
H787 H 0.90474 0.59139 0.78323 0.0
H788 H 0.8916 0.59123 0.69547 0.0
H789 H 0.89323 0.59794 0.72581 0.0
C790 C 0.93203 0.90201 0.20079 0.0
C791 C 0.93348 0.91476 0.19073 0.0
C792 C 0.9283 0.90297 0.21824 0.0
C793 C 0.91289 0.92853 0.2511 0.0
H794 H 0.93386 0.90372 0.28325 0.0
C795 C 0.90265 0.93215 0.32447 0.0
C796 C 0.91521 0.93183 0.335 0.0
C797 C 0.90361 0.92858 0.30698 0.0
C798 C 0.92793 0.91078 0.27447 0.0
H799 H 0.93156 0.93848 0.19109 0.0
H800 H 0.9255 0.94018 0.22146 0.0
H801 H 0.93783 0.90068 0.25248 0.0
H802 H 0.93849 0.92685 0.33544 0.0
H803 H 0.94022 0.92106 0.305 0.0
H804 H 0.90349 0.93906 0.27309 0.0
C805 C 0.92709 0.92941 0.21589 0.0
C806 C 0.93007 0.9089 0.25677 0.0
C807 C 0.93078 0.92844 0.19848 0.0
C808 C 0.92863 0.92745 0.32768 0.0
C809 C 0.92959 0.92392 0.31022 0.0
C810 C 0.91079 0.93043 0.26879 0.0
C811 C 0.92591 0.9167 0.22606 0.0
C812 C 0.92274 0.9179 0.24485 0.0
C813 C 0.91713 0.92459 0.29957 0.0
C814 C 0.91845 0.92173 0.28073 0.0
H815 H 0.93411 0.8913 0.1953 0.0
H816 H 0.92733 0.89295 0.22562 0.0
H817 H 0.90688 0.93551 0.24231 0.0
H818 H 0.89215 0.93554 0.32963 0.0
H819 H 0.89374 0.92903 0.29923 0.0
C820 C 0.60302 0.94713 0.70216 0.0
C821 C 0.61077 0.93753 0.69131 0.0
C822 C 0.60209 0.94446 0.71982 0.0
C823 C 0.60475 0.91506 0.75223 0.0
H824 H 0.60691 0.9478 0.784 0.0
C825 C 0.60148 0.90806 0.82666 0.0
C826 C 0.59304 0.91852 0.83555 0.0
C827 C 0.60464 0.90988 0.80913 0.0
C828 C 0.60615 0.93854 0.77531 0.0
H829 H 0.62372 0.91759 0.6906 0.0
H830 H 0.62221 0.91298 0.72159 0.0
H831 H 0.6109 0.95195 0.75343 0.0
H832 H 0.58082 0.9388 0.83274 0.0
H833 H 0.58629 0.94196 0.80238 0.0
H834 H 0.59981 0.90169 0.77418 0.0
C835 C 0.61675 0.92253 0.71634 0.0
C836 C 0.60846 0.94092 0.75776 0.0
C837 C 0.61773 0.92525 0.69862 0.0
C838 C 0.58764 0.9307 0.82643 0.0
C839 C 0.59079 0.93252 0.80899 0.0
C840 C 0.60242 0.91267 0.76984 0.0
C841 C 0.6089 0.93211 0.72714 0.0
C842 C 0.60755 0.92927 0.74596 0.0
C843 C 0.59942 0.92221 0.80012 0.0
C844 C 0.60286 0.92444 0.78155 0.0
H845 H 0.59768 0.95679 0.69702 0.0
H846 H 0.59581 0.95198 0.7277 0.0
H847 H 0.60385 0.90586 0.74348 0.0
H848 H 0.6059 0.89861 0.83332 0.0
H849 H 0.6114 0.90178 0.80273 0.0
C850 C 0.60355 0.57915 0.32339 0.0
C851 C 0.61066 0.5891 0.33443 0.0
C852 C 0.60264 0.58189 0.30575 0.0
C853 C 0.60388 0.61164 0.27368 0.0
H854 H 0.6081 0.57934 0.2416 0.0
C855 C 0.60065 0.61902 0.1993 0.0
C856 C 0.59284 0.60816 0.19024 0.0
C857 C 0.60383 0.61725 0.21683 0.0
C858 C 0.60676 0.58847 0.25038 0.0
H859 H 0.62247 0.60974 0.33549 0.0
H860 H 0.62097 0.61448 0.30453 0.0
H861 H 0.61212 0.57518 0.27216 0.0
H862 H 0.58175 0.58721 0.19277 0.0
H863 H 0.58726 0.58413 0.22313 0.0
H864 H 0.59834 0.62488 0.25182 0.0
C865 C 0.61601 0.6046 0.30962 0.0
C866 C 0.60908 0.58609 0.26792 0.0
C867 C 0.61699 0.60181 0.32732 0.0
C868 C 0.58809 0.59563 0.1992 0.0
C869 C 0.59125 0.59386 0.21665 0.0
C870 C 0.60154 0.61404 0.25608 0.0
C871 C 0.6088 0.59466 0.29863 0.0
C872 C 0.60744 0.59757 0.27983 0.0
C873 C 0.59926 0.60457 0.22568 0.0
C874 C 0.60272 0.60241 0.24425 0.0
H875 H 0.59871 0.56917 0.32838 0.0
H876 H 0.59685 0.57408 0.29772 0.0
H877 H 0.60241 0.62071 0.28251 0.0
H878 H 0.60457 0.62876 0.19277 0.0
H879 H 0.6101 0.62567 0.22336 0.0
C880 C 0.08114 0.30165 0.06228 0.0
C881 C 0.08123 0.31558 0.05448 0.0
C882 C 0.08118 0.28887 0.0523 0.0
C883 C 0.08972 0.27509 1.00848 0.0
H884 H 0.06615 0.24178 0.02264 0.0
C885 C 0.0807 0.22448 0.96475 0.0
C886 C 0.0811 0.21054 0.97251 0.0
C887 C 0.08082 0.23724 0.97477 0.0
C888 C 0.07292 0.25092 0.0186 0.0
H889 H 0.08154 0.32689 0.02994 0.0
H890 H 0.08125 0.30463 1.01254 0.0
H891 H 0.06606 0.2641 0.03991 0.0
H892 H 0.08212 0.19919 0.99701 0.0
H893 H 0.08222 0.22145 0.01446 0.0
H894 H 0.09651 0.26191 0.9871 0.0
C895 C 0.08134 0.30358 0.02642 0.0
C896 C 0.07288 0.26374 0.02852 0.0
C897 C 0.08132 0.31637 0.0364 0.0
C898 C 0.08158 0.20972 0.99058 0.0
C899 C 0.08165 0.22249 1.0006 0.0
C900 C 0.08973 0.26229 0.99854 0.0
C901 C 0.08127 0.28965 0.03423 0.0
C902 C 0.08128 0.276 0.0236 0.0
C903 C 0.08128 0.23642 0.99282 0.0
C904 C 0.08133 0.25003 1.00346 0.0
H905 H 0.08089 0.30058 0.07614 0.0
H906 H 0.08129 0.27836 0.05878 0.0
H907 H 0.09652 0.28421 1.00444 0.0
H908 H 0.08006 0.22557 0.95091 0.0
H909 H 0.08028 0.24777 0.96835 0.0
C910 C 0.31473 0.07099 0.48639 0.0
C911 C 0.31589 0.08012 0.47187 0.0
C912 C 0.30202 0.07103 0.49651 0.0
C913 C 0.2687 0.09308 0.50637 0.0
H914 H 0.25414 0.05622 0.52449 0.0
C915 C 0.2118 0.08774 0.53922 0.0
C916 C 0.21112 0.07921 0.55428 0.0
C917 C 0.22453 0.08792 0.52912 0.0
C918 C 0.25813 0.06663 0.51967 0.0
H919 H 0.30457 0.09671 0.45689 0.0
H920 H 0.28231 0.09648 0.4742 0.0
H921 H 0.27641 0.05649 0.50714 0.0
H922 H 0.22324 0.06398 0.57031 0.0
H923 H 0.24543 0.06438 0.55278 0.0
H924 H 0.25031 0.10318 0.51881 0.0
C925 C 0.2913 0.08939 0.47792 0.0
C926 C 0.27094 0.0668 0.50974 0.0
C927 C 0.30402 0.08938 0.46783 0.0
C928 C 0.22344 0.07078 0.55889 0.0
C929 C 0.23611 0.07089 0.54874 0.0
C930 C 0.25585 0.0929 0.51625 0.0
C931 C 0.2901 0.08018 0.49237 0.0
C932 C 0.27643 0.08003 0.50297 0.0
C933 C 0.23685 0.07949 0.53375 0.0
C934 C 0.25042 0.07968 0.52305 0.0
H935 H 0.32356 0.0636 0.48982 0.0
H936 H 0.30159 0.06393 0.50766 0.0
H937 H 0.2727 0.10351 0.50163 0.0
H938 H 0.20257 0.09445 0.53537 0.0
H939 H 0.22467 0.09456 0.51757 0.0
C940 C 0.4453 0.30131 0.96377 0.0
C941 C 0.44556 0.31519 0.9717 0.0
C942 C 0.44526 0.28847 0.97362 0.0
C943 C 0.43736 0.2745 0.01751 0.0
H944 H 0.45994 0.24091 1.00217 0.0
C945 C 0.43275 0.21784 0.05065 0.0
C946 C 0.44573 0.2097 0.05283 0.0
C947 C 0.43266 0.2306 0.04064 0.0
C948 C 0.45366 0.25021 1.00674 0.0
H949 H 0.44587 0.32634 0.99635 0.0
H950 H 0.44616 0.30397 0.01352 0.0
H951 H 0.46023 0.26343 0.98533 0.0
H952 H 0.46883 0.20873 0.04625 0.0
H953 H 0.4687 0.23099 0.02888 0.0
H954 H 0.43108 0.2614 0.03914 0.0
C955 C 0.4458 0.30301 0.99965 0.0
C956 C 0.45368 0.26309 0.99694 0.0
C957 C 0.44581 0.31586 0.98978 0.0
C958 C 0.45859 0.2146 0.04465 0.0
C959 C 0.45851 0.22738 0.03467 0.0
C960 C 0.43736 0.26162 0.02732 0.0
C961 C 0.44552 0.28914 0.9917 0.0
C962 C 0.44553 0.27542 1.00219 0.0
C963 C 0.44555 0.23558 0.03256 0.0
C964 C 0.44551 0.2493 0.02207 0.0
H965 H 0.44528 0.30034 0.94989 0.0
H966 H 0.44488 0.27801 0.96704 0.0
H967 H 0.43082 0.28369 0.02187 0.0
H968 H 0.42259 0.21427 0.05655 0.0
H969 H 0.42241 0.23647 0.03907 0.0
C970 C 0.31516 0.45443 0.53943 0.0
C971 C 0.31622 0.44552 0.55415 0.0
C972 C 0.30244 0.45437 0.52933 0.0
C973 C 0.26882 0.43256 0.52001 0.0
H974 H 0.25468 0.4693 0.50116 0.0
C975 C 0.21183 0.43811 0.48747 0.0
C976 C 0.21114 0.44645 0.47227 0.0
C977 C 0.22463 0.4379 0.49744 0.0
C978 C 0.25855 0.45892 0.50619 0.0
H979 H 0.30471 0.4293 0.5695 0.0
H980 H 0.28243 0.42951 0.55221 0.0
H981 H 0.277 0.46904 0.51842 0.0
H982 H 0.22335 0.4613 0.45583 0.0
H983 H 0.24568 0.46084 0.47313 0.0
H984 H 0.25026 0.42248 0.50786 0.0
C985 C 0.29151 0.43644 0.54833 0.0
C986 C 0.27139 0.45876 0.51607 0.0
C987 C 0.30424 0.43646 0.5584 0.0
C988 C 0.22354 0.45464 0.46736 0.0
C989 C 0.2363 0.4545 0.47738 0.0
C990 C 0.25595 0.43273 0.51018 0.0
C991 C 0.2904 0.44543 0.53369 0.0
C992 C 0.27672 0.44557 0.5231 0.0
C993 C 0.23702 0.44611 0.49253 0.0
C994 C 0.25066 0.44592 0.50312 0.0
H995 H 0.32408 0.46166 0.53583 0.0
H996 H 0.30209 0.4613 0.51803 0.0
H997 H 0.2727 0.42216 0.52496 0.0
H998 H 0.20253 0.43157 0.49155 0.0
H999 H 0.22477 0.43142 0.50912 0.0
C1000 C 0.93376 0.80383 0.05704 0.0
C1001 C 0.943 0.81569 0.05288 0.0
C1002 C 0.93369 0.79109 0.047 0.0
C1003 C 0.94334 0.7769 1.00389 0.0
H1004 H 0.94303 0.73904 0.0266 0.0
C1005 C 0.9528 0.72292 0.96648 0.0
C1006 C 0.94452 0.71054 0.97123 0.0
C1007 C 0.95248 0.7357 0.97644 0.0
C1008 C 0.94292 0.7495 0.02001 0.0
H1009 H 0.95946 0.82332 0.03479 0.0
H1010 H 0.95922 0.80116 0.01721 0.0
H1011 H 0.94252 0.76141 0.04377 0.0
H1012 H 0.92928 0.70199 0.99014 0.0
H1013 H 0.92859 0.72431 1.00745 0.0
H1014 H 0.94364 0.76503 0.98013 0.0
C1015 C 0.95192 0.80179 0.02818 0.0
C1016 C 0.94265 0.76235 0.02988 0.0
C1017 C 0.95204 0.81452 0.03826 0.0
C1018 C 0.93594 0.71125 0.98624 0.0
C1019 C 0.93556 0.72406 0.99618 0.0
C1020 C 0.94355 0.76406 0.99401 0.0
C1021 C 0.9428 0.78988 0.03247 0.0
C1022 C 0.9429 0.77621 0.02194 0.0
C1023 C 0.94381 0.73648 0.9914 0.0
C1024 C 0.9434 0.75018 1.00194 0.0
H1025 H 0.92644 0.80442 0.06799 0.0
H1026 H 0.92636 0.78222 0.05051 0.0
H1027 H 0.94332 0.78739 0.99735 0.0
H1028 H 0.95971 0.72267 0.95515 0.0
H1029 H 0.95919 0.74491 0.97252 0.0
C1030 C 0.7118 0.93532 0.53948 0.0
C1031 C 0.7108 0.9443 0.55415 0.0
C1032 C 0.72462 0.93511 0.52954 0.0
C1033 C 0.75782 0.95686 0.51956 0.0
H1034 H 0.77328 0.9198 0.5031 0.0
C1035 C 0.81462 0.95282 0.48668 0.0
C1036 C 0.816 0.94331 0.47251 0.0
C1037 C 0.80189 0.95278 0.49677 0.0
C1038 C 0.76903 0.93027 0.5074 0.0
H1039 H 0.72245 0.96028 0.56968 0.0
H1040 H 0.74482 0.95983 0.55245 0.0
H1041 H 0.7508 0.92013 0.52013 0.0
H1042 H 0.80507 0.92605 0.45816 0.0
H1043 H 0.78278 0.92626 0.47542 0.0
H1044 H 0.77593 0.96704 0.50673 0.0
C1045 C 0.73567 0.95298 0.54858 0.0
C1046 C 0.75613 0.93045 0.51719 0.0
C1047 C 0.7229 0.95313 0.55856 0.0
C1048 C 0.80434 0.93367 0.46882 0.0
C1049 C 0.79161 0.93365 0.47888 0.0
C1050 C 0.77068 0.95669 0.50971 0.0
C1051 C 0.73672 0.94395 0.53396 0.0
C1052 C 0.75038 0.94375 0.52341 0.0
C1053 C 0.79018 0.94324 0.49296 0.0
C1054 C 0.77648 0.9434 0.50352 0.0
H1055 H 0.70274 0.92829 0.5358 0.0
H1056 H 0.72501 0.92812 0.51828 0.0
H1057 H 0.75357 0.96731 0.52393 0.0
H1058 H 0.82328 0.9605 0.48984 0.0
H1059 H 0.80129 0.96018 0.50764 0.0
C1060 C 0.59118 0.7229 0.05844 0.0
C1061 C 0.58321 0.71044 0.0532 0.0
C1062 C 0.59128 0.73565 0.04842 0.0
C1063 C 0.57057 0.75459 0.01377 0.0
H1064 H 0.60613 0.77771 1.00965 0.0
C1065 C 0.57596 0.80274 0.96571 0.0
C1066 C 0.58303 0.81554 0.97151 0.0
C1067 C 0.576 0.78997 0.9757 0.0
C1068 C 0.59607 0.77146 1.01081 0.0
H1069 H 0.56905 0.70176 0.0332 0.0
H1070 H 0.56956 0.72381 0.01552 0.0
H1071 H 0.60631 0.75528 0.02674 0.0
H1072 H 0.59578 0.82488 0.99236 0.0
H1073 H 0.59574 0.80264 1.00987 0.0
H1074 H 0.56037 0.77072 0.99772 0.0
C1075 C 0.57557 0.7238 0.02753 0.0
C1076 C 0.59616 0.75859 0.02063 0.0
C1077 C 0.57544 0.71106 0.03758 0.0
C1078 C 0.59013 0.81526 0.98757 0.0
C1079 C 0.59023 0.80246 0.99753 0.0
C1080 C 0.5705 0.76742 1.00389 0.0
C1081 C 0.58345 0.7363 0.03284 0.0
C1082 C 0.5834 0.74997 0.02227 0.0
C1083 C 0.58316 0.78966 0.99172 0.0
C1084 C 0.58324 0.77602 1.00229 0.0
H1085 H 0.59747 0.72279 0.07026 0.0
H1086 H 0.59734 0.74508 0.05304 0.0
H1087 H 0.56046 0.74841 0.01497 0.0
H1088 H 0.57027 0.80261 0.95348 0.0
H1089 H 0.57056 0.78028 0.97076 0.0
C1090 C 0.72283 0.57393 0.46679 0.0
C1091 C 0.71068 0.5826 0.47136 0.0
C1092 C 0.73561 0.57407 0.47675 0.0
C1093 C 0.75596 0.59641 0.50845 0.0
H1094 H 0.77602 0.55986 0.5183 0.0
C1095 C 0.80426 0.59299 0.55668 0.0
C1096 C 0.81596 0.58347 0.55281 0.0
C1097 C 0.79152 0.59305 0.54663 0.0
C1098 C 0.77069 0.5702 0.51549 0.0
H1099 H 0.70252 0.59832 0.48998 0.0
H1100 H 0.72481 0.59849 0.50745 0.0
H1101 H 0.75363 0.55961 0.50115 0.0
H1102 H 0.82332 0.56654 0.53521 0.0
H1103 H 0.80132 0.56692 0.51743 0.0
H1104 H 0.77306 0.60703 0.52266 0.0
C1105 C 0.72446 0.59163 0.49608 0.0
C1106 C 0.75781 0.57004 0.50567 0.0
C1107 C 0.71163 0.59142 0.48617 0.0
C1108 C 0.81462 0.57412 0.53849 0.0
C1109 C 0.80189 0.5742 0.52842 0.0
C1110 C 0.76887 0.59658 0.5182 0.0
C1111 C 0.73661 0.58295 0.4915 0.0
C1112 C 0.75028 0.58314 0.50203 0.0
C1113 C 0.79012 0.58361 0.5324 0.0
C1114 C 0.77641 0.58347 0.52187 0.0
H1115 H 0.72242 0.5669 0.45556 0.0
H1116 H 0.7448 0.56735 0.47276 0.0
H1117 H 0.75055 0.60672 0.50567 0.0
H1118 H 0.80495 0.60049 0.56746 0.0
H1119 H 0.78265 0.60034 0.55021 0.0
C1120 C 0.97862 0.55503 0.99201 0.0
C1121 C 0.98797 0.56636 0.98645 0.0
C1122 C 0.98442 0.54192 0.99847 0.0
C1123 C 0.01761 0.51885 0.99789 0.0
H1124 H 1.00155 0.50218 0.03973 0.0
C1125 C 0.04519 0.46977 0.03211 0.0
C1126 C 0.03609 0.4592 0.03982 0.0
C1127 C 0.03929 0.48282 0.02564 0.0
C1128 C 1.00605 0.50654 0.0279 0.0
H1129 H 1.01072 0.57268 0.98302 0.0
H1130 H 0.02083 0.54979 0.99426 0.0
H1131 H 0.9912 0.52477 0.02815 0.0
H1132 H 0.01361 0.45395 0.04654 0.0
H1133 H 1.00326 0.47655 0.03498 0.0
H1134 H 0.0323 0.50056 0.99743 0.0
C1135 C 1.00902 0.55105 0.99363 0.0
C1136 C 1.00012 0.51953 0.02129 0.0
C1137 C 1.00323 0.56422 0.98734 0.0
C1138 C 0.02094 0.46197 0.04088 0.0
C1139 C 0.01502 0.47496 0.03428 0.0
C1140 C 0.02346 0.50579 1.00442 0.0
C1141 C 0.99968 0.53977 0.99933 0.0
C1142 C 1.00586 0.52586 1.00624 0.0
C1143 C 0.02411 0.48559 0.02658 0.0
C1144 C 0.01779 0.49947 0.01955 0.0
H1145 H 0.96682 0.55638 0.99162 0.0
H1146 H 0.97693 0.53339 1.00263 0.0
H1147 H 0.02215 0.52334 0.98615 0.0
H1148 H 0.05693 0.46804 0.0313 0.0
H1149 H 0.04669 0.49083 0.02011 0.0
C1150 C 0.06396 0.02113 0.54123 0.0
C1151 C 0.06694 0.03621 0.53975 0.0
C1152 C 0.05096 0.01521 0.53461 0.0
C1153 C 0.02051 0.0233 0.50407 0.0
H1154 H 1.00097 0.99176 0.52848 0.0
C1155 C 0.96205 1.0031 0.48676 0.0
C1156 C 0.95981 0.98784 0.48629 0.0
C1157 C 0.9752 1.00895 0.49305 0.0
C1158 C 1.00637 1.00047 0.52143 0.0
H1159 H 0.05847 0.05694 0.53044 0.0
H1160 H 0.03565 0.04672 0.51922 0.0
H1161 H 0.02355 1.00217 0.54008 0.0
H1162 H 0.96959 0.96677 0.4922 0.0
H1163 H 0.99256 0.97698 0.50323 0.0
H1164 H 1.00313 0.02173 0.48558 0.0
C1165 C 0.04351 0.03936 0.5251 0.0
C1166 C 0.01935 1.00644 0.52805 0.0
C1167 C 0.05658 0.04525 0.53158 0.0
C1168 C 0.97103 0.97856 0.49227 0.0
C1169 C 0.98412 0.98442 0.49873 0.0
C1170 C 1.00746 0.01742 0.49753 0.0
C1171 C 0.04053 0.02424 0.52648 0.0
C1172 C 0.02663 0.01792 0.51945 0.0
C1173 C 0.98636 0.99968 0.49918 0.0
C1174 C 1.00026 1.00592 0.50612 0.0
H1175 H 0.07182 0.01384 0.54723 0.0
H1176 H 0.04922 1.0035 0.53565 0.0
H1177 H 0.02591 0.03194 0.49689 0.0
H1178 H 0.95367 1.01054 0.48211 0.0
H1179 H 0.97654 0.02076 0.49335 0.0
C1180 C 0.50381 0.06689 0.02874 0.0
C1181 C 0.49156 0.06678 0.03975 0.0
C1182 C 0.50977 0.05377 0.02256 0.0
C1183 C 0.50072 0.01464 0.0153 0.0
H1184 H 0.54295 1.01008 1.01233 0.0
C1185 C 0.52795 0.959 0.99916 0.0
C1186 C 0.54017 0.95914 0.98811 0.0
C1187 C 0.52204 0.97211 1.00546 0.0
C1188 C 0.53113 1.01123 1.01288 0.0
H1189 H 0.47594 0.05269 0.0528 0.0
H1190 H 0.48649 0.02979 0.04228 0.0
H1191 H 0.53265 0.03289 0.0234 0.0
H1192 H 0.55583 0.97327 0.97517 0.0
H1193 H 0.54537 0.99613 0.9859 0.0
H1194 H 0.49919 0.99299 1.00477 0.0
C1195 C 0.4914 0.04006 0.03827 0.0
C1196 C 0.52522 0.02431 0.01924 0.0
C1197 C 0.48545 0.05319 0.04447 0.0
C1198 C 0.54633 0.97274 0.98351 0.0
C1199 C 0.54043 0.98586 0.98983 0.0
C1200 C 0.50663 1.00156 1.00894 0.0
C1201 C 0.50363 0.04018 0.02722 0.0
C1202 C 0.50993 0.0262 0.02053 0.0
C1203 C 0.52821 0.98571 1.00089 0.0
C1204 C 0.52191 0.99967 1.00764 0.0
H1205 H 0.5089 0.07714 0.02498 0.0
H1206 H 0.51909 0.05429 0.01395 0.0
H1207 H 0.4889 0.01579 0.01585 0.0
H1208 H 0.52281 0.94875 1.00282 0.0
H1209 H 0.51272 0.97156 0.01409 0.0
C1210 C 0.56117 0.54412 0.50449 0.0
C1211 C 0.56638 0.54062 0.48795 0.0
C1212 C 0.54815 0.53793 0.5107 0.0
C1213 C 0.52304 0.50646 0.50411 0.0
H1214 H 0.49569 0.53015 0.53033 0.0
C1215 C 0.46515 0.48567 0.5227 0.0
C1216 C 0.4599 0.48914 0.53922 0.0
C1217 C 0.47817 0.49188 0.51652 0.0
C1218 C 0.50328 0.52333 0.5232 0.0
H1219 H 0.56195 0.52778 0.46504 0.0
H1220 H 0.53912 0.5172 0.47575 0.0
H1221 H 0.51819 0.5412 0.51934 0.0
H1222 H 0.46428 0.50197 0.56216 0.0
H1223 H 0.48712 0.51258 0.55152 0.0
H1224 H 0.50813 0.48859 0.50796 0.0
C1225 C 0.54519 0.52463 0.48399 0.0
C1226 C 0.51619 0.52967 0.51689 0.0
C1227 C 0.55819 0.53084 0.47776 0.0
C1228 C 0.46806 0.49893 0.54944 0.0
C1229 C 0.48107 0.50515 0.54326 0.0
C1230 C 0.51012 0.50012 0.51042 0.0
C1231 C 0.54001 0.52806 0.50055 0.0
C1232 C 0.52624 0.52132 0.50725 0.0
C1233 C 0.48628 0.50173 0.5267 0.0
C1234 C 0.50007 0.50847 0.52005 0.0
H1235 H 0.56711 0.55172 0.51262 0.0
H1236 H 0.54457 0.54072 0.52357 0.0
H1237 H 0.53063 0.49964 0.49698 0.0
H1238 H 0.45923 0.47806 0.51454 0.0
H1239 H 0.48177 0.4891 0.50366 0.0
C1240 C 0.03965 0.06176 1.00343 0.0
C1241 C 0.03609 0.06694 0.98691 0.0
C1242 C 0.03359 0.04869 1.00966 0.0
C1243 C 0.01555 0.01429 0.99548 0.0
H1244 H 1.00283 1.01221 0.04301 0.0
C1245 C 0.98251 0.96499 0.02188 0.0
C1246 C 0.98616 0.95981 0.03838 0.0
C1247 C 0.9885 0.97809 0.01564 0.0
C1248 C 1.00647 1.01254 0.02976 0.0
H1249 H 0.02321 0.06242 0.96405 0.0
H1250 H 1.01264 0.03964 0.9749 0.0
H1251 H 0.01353 0.03487 0.03203 0.0
H1252 H 0.9991 0.96438 0.06118 0.0
H1253 H 1.00952 0.98721 0.05032 0.0
H1254 H 1.00849 0.99196 0.99321 0.0
C1255 C 0.0203 0.04558 0.98296 0.0
C1256 C 1.01262 0.02554 0.02345 0.0
C1257 C 0.02637 0.05865 0.97673 0.0
C1258 C 0.99587 0.96813 0.04852 0.0
C1259 C 1.00186 0.98124 0.04228 0.0
C1260 C 1.0094 1.00129 1.00179 0.0
C1261 C 0.02381 0.04045 0.99952 0.0
C1262 C 0.01725 0.02659 1.00623 0.0
C1263 C 0.99828 0.98636 0.02574 0.0
C1264 C 1.00479 1.00024 0.01901 0.0
H1265 H 0.04728 0.06772 1.01151 0.0
H1266 H 0.03674 0.04495 0.02235 0.0
H1267 H 0.0192 0.01461 0.98223 0.0
H1268 H 0.97489 0.959 0.01383 0.0
H1269 H 0.98531 0.98182 1.00296 0.0
C1270 C 0.46467 0.03938 0.50256 0.0
C1271 C 0.45949 0.0359 0.486 0.0
C1272 C 0.47771 0.03325 0.50877 0.0
C1273 C 0.51205 0.01512 0.49459 0.0
H1274 H 0.51393 1.00216 0.54204 0.0
C1275 C 0.56114 0.98179 0.521 0.0
C1276 C 0.56627 0.98534 0.53755 0.0
C1277 C 0.54808 0.98784 0.51473 0.0
C1278 C 0.51365 1.00586 0.52881 0.0
H1279 H 0.46399 0.02311 0.46308 0.0
H1280 H 0.48671 1.01242 0.4739 0.0
H1281 H 0.49136 1.01302 0.53104 0.0
H1282 H 0.56169 0.99819 0.56041 0.0
H1283 H 0.53893 1.00872 0.5495 0.0
H1284 H 0.53435 1.00797 0.49236 0.0
C1285 C 0.48079 0.02007 0.482 0.0
C1286 C 0.5007 1.0121 0.5225 0.0
C1287 C 0.46775 0.0262 0.47578 0.0
C1288 C 0.55796 0.99503 0.54771 0.0
C1289 C 0.5449 1.00108 0.54144 0.0
C1290 C 0.525 1.00888 0.50091 0.0
C1291 C 0.48592 0.02348 0.4986 0.0
C1292 C 0.49973 0.01682 0.50531 0.0
C1293 C 0.53981 0.9976 0.52485 0.0
C1294 C 0.52598 1.00418 0.5181 0.0
H1295 H 0.45873 0.04699 0.51067 0.0
H1296 H 0.48145 0.03632 0.5215 0.0
H1297 H 0.51177 0.01883 0.48137 0.0
H1298 H 0.56714 0.97419 0.51292 0.0
H1299 H 0.54438 0.98472 0.50201 0.0
C1300 C 0.53118 0.55752 0.04863 0.0
C1301 C 0.54058 0.56602 0.03829 0.0
C1302 C 0.5252 0.5444 0.04243 0.0
C1303 C 0.53041 0.51576 1.00912 0.0
H1304 H 0.4897 0.50659 0.01891 0.0
C1305 C 0.50023 0.46721 0.97664 0.0
C1306 C 0.49081 0.45873 0.98698 0.0
C1307 C 0.50629 0.48029 0.98287 0.0
C1308 C 0.50113 0.50889 0.01622 0.0
H1309 H 0.55123 0.56716 0.01337 0.0
H1310 H 0.54062 0.54443 1.00248 0.0
H1311 H 0.50037 0.52926 0.02991 0.0
H1312 H 0.48021 0.45756 1.01192 0.0
H1313 H 0.49095 0.48022 0.02287 0.0
H1314 H 0.53117 0.49539 0.99542 0.0
C1315 C 0.53796 0.54785 0.01545 0.0
C1316 C 0.50726 0.5219 0.02253 0.0
C1317 C 0.54392 0.56099 0.02163 0.0
C1318 C 0.48754 0.46372 1.00367 0.0
C1319 C 0.49357 0.47681 1.00988 0.0
C1320 C 0.52429 0.50275 1.0028 0.0
C1321 C 0.52848 0.53941 0.02575 0.0
C1322 C 0.52198 0.52551 0.01907 0.0
C1323 C 0.50305 0.48525 0.99958 0.0
C1324 C 0.50957 0.49914 1.00627 0.0
H1325 H 0.52825 0.56112 0.06145 0.0
H1326 H 0.51808 0.5381 0.05079 0.0
H1327 H 0.54184 0.51807 1.00642 0.0
H1328 H 0.50311 0.46363 0.96379 0.0
H1329 H 0.51342 0.48658 0.97451 0.0
C1330 C 0.97311 0.54457 0.54381 0.0
C1331 C 0.95951 0.53852 0.539 0.0
C1332 C 0.98626 0.53854 0.53774 0.0
C1333 C 1.00191 0.50457 0.51904 0.0
H1334 H 0.03356 0.5303 0.50482 0.0
C1335 C 0.05361 0.48297 0.48396 0.0
C1336 C 0.06723 0.48903 0.4887 0.0
C1337 C 0.04049 0.48898 0.49013 0.0
C1338 C 0.0249 0.52294 0.50892 0.0
H1339 H 0.94915 0.52121 0.52418 0.0
H1340 H 0.97202 0.51088 0.51337 0.0
H1341 H 1.01073 0.5408 0.51558 0.0
H1342 H 0.07765 0.50632 0.50349 0.0
H1343 H 0.05482 0.51662 0.51447 0.0
H1344 H 0.01608 0.48671 0.51238 0.0
C1345 C 0.97254 0.52022 0.52196 0.0
C1346 C 1.0118 0.52897 0.5151 0.0
C1347 C 0.9594 0.52626 0.52801 0.0
C1348 C 0.06738 0.50127 0.49973 0.0
C1349 C 0.05427 0.50729 0.50586 0.0
C1350 C 0.01502 0.49854 0.51286 0.0
C1351 C 0.98614 0.52629 0.52674 0.0
C1352 C 1.00013 0.51986 0.52023 0.0
C1353 C 0.04065 0.50122 0.50115 0.0
C1354 C 0.02668 0.50765 0.50772 0.0
H1355 H 0.97361 0.5541 0.55212 0.0
H1356 H 0.99653 0.54341 0.54183 0.0
H1357 H 0.99325 0.49721 0.52313 0.0
H1358 H 0.05308 0.47346 0.47563 0.0
H1359 H 0.03021 0.48412 0.48609 0.0
loop_
_geom_bond_atom_site_label_1
_geom_bond_atom_site_label_2
_geom_bond_distance
_geom_bond_site_symmetry_2
_ccdc_geom_bond_type
C0 C1 1.264 . S
C0 C5 1.479 . S
C0 C10 1.465 . S
C1 C0 1.264 . S
C1 C3 1.339 . S
C1 H28 0.931 . S
C2 C3 1.395 . S
C2 C4 1.320 . S
C3 C1 1.339 . S
C3 C2 1.395 . S
C3 H29 0.929 . S
C4 C2 1.320 . S
C4 C5 1.405 . S
C4 H30 0.930 . S
C5 C0 1.479 . S
C5 C4 1.405 . S
C5 H31 0.931 . S
U6 O7 2.454 . S
U6 O8 2.458 . S
U6 C9 2.984 . S
U6 C10 2.847 . S
U6 C23 2.882 . S
U6 O24 2.441 . S
U6 O25 2.420 . S
U6 O26 2.455 . S
U6 O27 2.449 . S
O7 U6 2.454 . S
O7 C9 1.353 . S
O8 U6 2.458 . S
O8 C9 1.286 . S
C9 U6 2.984 . S
C9 O7 1.353 . S
C9 O8 1.286 . S
C9 C11 1.363 . S
C10 C0 1.465 . S
C10 U6 2.847 . S
C10 O24 1.249 . S
C10 O25 1.202 . S
C11 C9 1.363 . S
C11 C13 1.408 . S
C11 C16 1.342 . S
C12 C13 1.310 . S
C12 C15 1.461 . S
C12 H32 0.932 . S
C13 C11 1.408 . S
C13 C12 1.310 . S
C13 H33 0.930 . S
C14 C15 1.474 . S
C14 C16 1.285 . S
C14 H34 0.929 . S
C15 C12 1.461 . S
C15 C14 1.474 . S
C16 C11 1.342 . S
C16 C14 1.285 . S
C16 H35 0.930 . S
C17 C20 1.424 . S
C17 C22 1.245 . S
C17 C23 1.428 . S
C18 C21 1.260 . S
C18 C22 1.477 . S
C18 H36 0.932 . S
C19 C20 1.384 . S
C19 C21 1.479 . S
C19 H37 0.929 . S
C20 C17 1.424 . S
C20 C19 1.384 . S
C20 H38 0.928 . S
C21 C18 1.260 . S
C21 C19 1.479 . S
C22 C17 1.245 . S
C22 C18 1.477 . S
C22 H39 0.932 . S
C23 U6 2.882 . S
C23 C17 1.428 . S
C23 O26 1.301 . S
C23 O27 1.282 . S
O24 U6 2.441 . S
O24 C10 1.249 . S
O25 U6 2.420 . S
O25 C10 1.202 . S
O26 U6 2.455 . S
O26 C23 1.301 . S
O27 U6 2.449 . S
O27 C23 1.282 . S
H28 C1 0.931 . S
H29 C3 0.929 . S
H30 C4 0.930 . S
H31 C5 0.931 . S
H32 C12 0.932 . S
H33 C13 0.930 . S
H34 C14 0.929 . S
H35 C16 0.930 . S
H36 C18 0.932 . S
H37 C19 0.929 . S
H38 C20 0.928 . S
H39 C22 0.932 . S
C40 C41 1.264 . S
C40 C45 1.479 . S
C40 C50 1.465 . S
C41 C40 1.264 . S
C41 C43 1.339 . S
C41 H68 0.931 . S
C42 C43 1.395 . S
C42 C44 1.320 . S
C43 C41 1.339 . S
C43 C42 1.395 . S
C43 H69 0.929 . S
C44 C42 1.320 . S
C44 C45 1.405 . S
C44 H70 0.930 . S
C45 C40 1.479 . S
C45 C44 1.405 . S
C45 H71 0.931 . S
U46 O47 2.454 . S
U46 O48 2.458 . S
U46 C49 2.984 . S
U46 C50 2.847 . S
U46 C63 2.882 . S
U46 O64 2.441 . S
U46 O65 2.420 . S
U46 O66 2.455 . S
U46 O67 2.449 . S
O47 U46 2.454 . S
O47 C49 1.353 . S
O48 U46 2.458 . S
O48 C49 1.286 . S
C49 U46 2.984 . S
C49 O47 1.353 . S
C49 O48 1.286 . S
C49 C51 1.363 . S
C50 C40 1.465 . S
C50 U46 2.847 . S
C50 O64 1.249 . S
C50 O65 1.202 . S
C51 C49 1.363 . S
C51 C53 1.408 . S
C51 C56 1.342 . S
C52 C53 1.310 . S
C52 C55 1.461 . S
C52 H72 0.932 . S
C53 C51 1.408 . S
C53 C52 1.310 . S
C53 H73 0.930 . S
C54 C55 1.474 . S
C54 C56 1.285 . S
C54 H74 0.929 . S
C55 C52 1.461 . S
C55 C54 1.474 . S
C56 C51 1.342 . S
C56 C54 1.285 . S
C56 H75 0.930 . S
C57 C60 1.424 . S
C57 C62 1.245 . S
C57 C63 1.428 . S
C58 C61 1.260 . S
C58 C62 1.477 . S
C58 H76 0.932 . S
C59 C60 1.384 . S
C59 C61 1.479 . S
C59 H77 0.929 . S
C60 C57 1.424 . S
C60 C59 1.384 . S
C60 H78 0.928 . S
C61 C58 1.260 . S
C61 C59 1.479 . S
C62 C57 1.245 . S
C62 C58 1.477 . S
C62 H79 0.932 . S
C63 U46 2.882 . S
C63 C57 1.428 . S
C63 O66 1.301 . S
C63 O67 1.282 . S
O64 U46 2.441 . S
O64 C50 1.249 . S
O65 U46 2.420 . S
O65 C50 1.202 . S
O66 U46 2.455 . S
O66 C63 1.301 . S
O67 U46 2.449 . S
O67 C63 1.282 . S
H68 C41 0.931 . S
H69 C43 0.929 . S
H70 C44 0.930 . S
H71 C45 0.931 . S
H72 C52 0.932 . S
H73 C53 0.930 . S
H74 C54 0.929 . S
H75 C56 0.930 . S
H76 C58 0.932 . S
H77 C59 0.929 . S
H78 C60 0.928 . S
H79 C62 0.932 . S
C80 C81 1.264 . S
C80 C85 1.479 . S
C80 C90 1.465 . S
C81 C80 1.264 . S
C81 C83 1.339 . S
C81 H108 0.931 . S
C82 C83 1.395 . S
C82 C84 1.320 . S
C83 C81 1.339 . S
C83 C82 1.395 . S
C83 H109 0.929 . S
C84 C82 1.320 . S
C84 C85 1.405 . S
C84 H110 0.930 . S
C85 C80 1.479 . S
C85 C84 1.405 . S
C85 H111 0.931 . S
U86 O87 2.454 . S
U86 O88 2.458 . S
U86 C89 2.984 . S
U86 C90 2.847 . S
U86 C103 2.882 . S
U86 O104 2.441 . S
U86 O105 2.420 . S
U86 O106 2.455 . S
U86 O107 2.449 . S
O87 U86 2.454 . S
O87 C89 1.353 . S
O88 U86 2.458 . S
O88 C89 1.286 . S
C89 U86 2.984 . S
C89 O87 1.353 . S
C89 O88 1.286 . S
C89 C91 1.363 . S
C90 C80 1.465 . S
C90 U86 2.847 . S
C90 O104 1.249 . S
C90 O105 1.202 . S
C91 C89 1.363 . S
C91 C93 1.408 . S
C91 C96 1.342 . S
C92 C93 1.310 . S
C92 C95 1.461 . S
C92 H112 0.932 . S
C93 C91 1.408 . S
C93 C92 1.310 . S
C93 H113 0.930 . S
C94 C95 1.474 . S
C94 C96 1.285 . S
C94 H114 0.929 . S
C95 C92 1.461 . S
C95 C94 1.474 . S
C96 C91 1.342 . S
C96 C94 1.285 . S
C96 H115 0.930 . S
C97 C100 1.424 . S
C97 C102 1.245 . S
C97 C103 1.428 . S
C98 C101 1.260 . S
C98 C102 1.477 . S
C98 H116 0.932 . S
C99 C100 1.384 . S
C99 C101 1.479 . S
C99 H117 0.929 . S
C100 C97 1.424 . S
C100 C99 1.384 . S
C100 H118 0.928 . S
C101 C98 1.260 . S
C101 C99 1.479 . S
C102 C97 1.245 . S
C102 C98 1.477 . S
C102 H119 0.932 . S
C103 U86 2.882 . S
C103 C97 1.428 . S
C103 O106 1.301 . S
C103 O107 1.282 . S
O104 U86 2.441 . S
O104 C90 1.249 . S
O105 U86 2.420 . S
O105 C90 1.202 . S
O106 U86 2.455 . S
O106 C103 1.301 . S
O107 U86 2.449 . S
O107 C103 1.282 . S
H108 C81 0.931 . S
H109 C83 0.929 . S
H110 C84 0.930 . S
H111 C85 0.931 . S
H112 C92 0.932 . S
H113 C93 0.930 . S
H114 C94 0.929 . S
H115 C96 0.930 . S
H116 C98 0.932 . S
H117 C99 0.929 . S
H118 C100 0.928 . S
H119 C102 0.932 . S
C120 C121 1.264 . S
C120 C125 1.479 . S
C120 C130 1.465 . S
C121 C120 1.264 . S
C121 C123 1.339 . S
C121 H148 0.931 . S
C122 C123 1.395 . S
C122 C124 1.320 . S
C123 C121 1.339 . S
C123 C122 1.395 . S
C123 H149 0.929 . S
C124 C122 1.320 . S
C124 C125 1.405 . S
C124 H150 0.930 . S
C125 C120 1.479 . S
C125 C124 1.405 . S
C125 H151 0.931 . S
U126 O127 2.454 . S
U126 O128 2.458 . S
U126 C129 2.984 . S
U126 C130 2.847 . S
U126 C143 2.882 . S
U126 O144 2.441 . S
U126 O145 2.420 . S
U126 O146 2.455 . S
U126 O147 2.449 . S
O127 U126 2.454 . S
O127 C129 1.353 . S
O128 U126 2.458 . S
O128 C129 1.286 . S
C129 U126 2.984 . S
C129 O127 1.353 . S
C129 O128 1.286 . S
C129 C131 1.363 . S
C130 C120 1.465 . S
C130 U126 2.847 . S
C130 O144 1.249 . S
C130 O145 1.202 . S
C131 C129 1.363 . S
C131 C133 1.408 . S
C131 C136 1.342 . S
C132 C133 1.310 . S
C132 C135 1.461 . S
C132 H152 0.932 . S
C133 C131 1.408 . S
C133 C132 1.310 . S
C133 H153 0.930 . S
C134 C135 1.474 . S
C134 C136 1.285 . S
C134 H154 0.929 . S
C135 C132 1.461 . S
C135 C134 1.474 . S
C136 C131 1.342 . S
C136 C134 1.285 . S
C136 H155 0.930 . S
C137 C140 1.424 . S
C137 C142 1.245 . S
C137 C143 1.428 . S
C138 C141 1.260 . S
C138 C142 1.477 . S
C138 H156 0.932 . S
C139 C140 1.384 . S
C139 C141 1.479 . S
C139 H157 0.929 . S
C140 C137 1.424 . S
C140 C139 1.384 . S
C140 H158 0.928 . S
C141 C138 1.260 . S
C141 C139 1.479 . S
C142 C137 1.245 . S
C142 C138 1.477 . S
C142 H159 0.932 . S
C143 U126 2.882 . S
C143 C137 1.428 . S
C143 O146 1.301 . S
C143 O147 1.282 . S
O144 U126 2.441 . S
O144 C130 1.249 . S
O145 U126 2.420 . S
O145 C130 1.202 . S
O146 U126 2.455 . S
O146 C143 1.301 . S
O147 U126 2.449 . S
O147 C143 1.282 . S
H148 C121 0.931 . S
H149 C123 0.929 . S
H150 C124 0.930 . S
H151 C125 0.931 . S
H152 C132 0.932 . S
H153 C133 0.930 . S
H154 C134 0.929 . S
H155 C136 0.930 . S
H156 C138 0.932 . S
H157 C139 0.929 . S
H158 C140 0.928 . S
H159 C142 0.932 . S
C160 C161 1.264 . S
C160 C165 1.479 . S
C160 C170 1.465 . S
C161 C160 1.264 . S
C161 C163 1.339 . S
C161 H188 0.931 . S
C162 C163 1.395 . S
C162 C164 1.320 . S
C163 C161 1.339 . S
C163 C162 1.395 . S
C163 H189 0.929 . S
C164 C162 1.320 . S
C164 C165 1.405 . S
C164 H190 0.930 . S
C165 C160 1.479 . S
C165 C164 1.405 . S
C165 H191 0.931 . S
U166 O167 2.454 . S
U166 O168 2.458 . S
U166 C169 2.984 . S
U166 C170 2.847 . S
U166 C183 2.882 . S
U166 O184 2.441 . S
U166 O185 2.420 . S
U166 O186 2.455 . S
U166 O187 2.449 . S
O167 U166 2.454 . S
O167 C169 1.353 . S
O168 U166 2.458 . S
O168 C169 1.286 . S
C169 U166 2.984 . S
C169 O167 1.353 . S
C169 O168 1.286 . S
C169 C171 1.363 . S
C170 C160 1.465 . S
C170 U166 2.847 . S
C170 O184 1.249 . S
C170 O185 1.202 . S
C171 C169 1.363 . S
C171 C173 1.408 . S
C171 C176 1.342 . S
C172 C173 1.310 . S
C172 C175 1.461 . S
C172 H192 0.932 . S
C173 C171 1.408 . S
C173 C172 1.310 . S
C173 H193 0.930 . S
C174 C175 1.474 . S
C174 C176 1.285 . S
C174 H194 0.929 . S
C175 C172 1.461 . S
C175 C174 1.474 . S
C176 C171 1.342 . S
C176 C174 1.285 . S
C176 H195 0.930 . S
C177 C180 1.424 . S
C177 C182 1.245 . S
C177 C183 1.428 . S
C178 C181 1.260 . S
C178 C182 1.477 . S
C178 H196 0.932 . S
C179 C180 1.384 . S
C179 C181 1.479 . S
C179 H197 0.929 . S
C180 C177 1.424 . S
C180 C179 1.384 . S
C180 H198 0.928 . S
C181 C178 1.260 . S
C181 C179 1.479 . S
C182 C177 1.245 . S
C182 C178 1.477 . S
C182 H199 0.932 . S
C183 U166 2.882 . S
C183 C177 1.428 . S
C183 O186 1.301 . S
C183 O187 1.282 . S
O184 U166 2.441 . S
O184 C170 1.249 . S
O185 U166 2.420 . S
O185 C170 1.202 . S
O186 U166 2.455 . S
O186 C183 1.301 . S
O187 U166 2.449 . S
O187 C183 1.282 . S
H188 C161 0.931 . S
H189 C163 0.929 . S
H190 C164 0.930 . S
H191 C165 0.931 . S
H192 C172 0.932 . S
H193 C173 0.930 . S
H194 C174 0.929 . S
H195 C176 0.930 . S
H196 C178 0.932 . S
H197 C179 0.929 . S
H198 C180 0.928 . S
H199 C182 0.932 . S
C200 C201 1.264 . S
C200 C205 1.479 . S
C200 C210 1.465 . S
C201 C200 1.264 . S
C201 C203 1.339 . S
C201 H228 0.931 . S
C202 C203 1.395 . S
C202 C204 1.320 . S
C203 C201 1.339 . S
C203 C202 1.395 . S
C203 H229 0.929 . S
C204 C202 1.320 . S
C204 C205 1.405 . S
C204 H230 0.930 . S
C205 C200 1.479 . S
C205 C204 1.405 . S
C205 H231 0.931 . S
U206 O207 2.454 . S
U206 O208 2.458 . S
U206 C209 2.984 . S
U206 C210 2.847 . S
U206 C223 2.882 . S
U206 O224 2.441 . S
U206 O225 2.420 . S
U206 O226 2.455 . S
U206 O227 2.449 . S
O207 U206 2.454 . S
O207 C209 1.353 . S
O208 U206 2.458 . S
O208 C209 1.286 . S
C209 U206 2.984 . S
C209 O207 1.353 . S
C209 O208 1.286 . S
C209 C211 1.363 . S
C210 C200 1.465 . S
C210 U206 2.847 . S
C210 O224 1.249 . S
C210 O225 1.202 . S
C211 C209 1.363 . S
C211 C213 1.408 . S
C211 C216 1.342 . S
C212 C213 1.310 . S
C212 C215 1.461 . S
C212 H232 0.932 . S
C213 C211 1.408 . S
C213 C212 1.310 . S
C213 H233 0.930 . S
C214 C215 1.474 . S
C214 C216 1.285 . S
C214 H234 0.929 . S
C215 C212 1.461 . S
C215 C214 1.474 . S
C216 C211 1.342 . S
C216 C214 1.285 . S
C216 H235 0.930 . S
C217 C220 1.424 . S
C217 C222 1.245 . S
C217 C223 1.428 . S
C218 C221 1.260 . S
C218 C222 1.477 . S
C218 H236 0.932 . S
C219 C220 1.384 . S
C219 C221 1.479 . S
C219 H237 0.929 . S
C220 C217 1.424 . S
C220 C219 1.384 . S
C220 H238 0.928 . S
C221 C218 1.260 . S
C221 C219 1.479 . S
C222 C217 1.245 . S
C222 C218 1.477 . S
C222 H239 0.932 . S
C223 U206 2.882 . S
C223 C217 1.428 . S
C223 O226 1.301 . S
C223 O227 1.282 . S
O224 U206 2.441 . S
O224 C210 1.249 . S
O225 U206 2.420 . S
O225 C210 1.202 . S
O226 U206 2.455 . S
O226 C223 1.301 . S
O227 U206 2.449 . S
O227 C223 1.282 . S
H228 C201 0.931 . S
H229 C203 0.929 . S
H230 C204 0.930 . S
H231 C205 0.931 . S
H232 C212 0.932 . S
H233 C213 0.930 . S
H234 C214 0.929 . S
H235 C216 0.930 . S
H236 C218 0.932 . S
H237 C219 0.929 . S
H238 C220 0.928 . S
H239 C222 0.932 . S
C240 C241 1.264 . S
C240 C245 1.479 . S
C240 C250 1.465 . S
C241 C240 1.264 . S
C241 C243 1.339 . S
C241 H268 0.931 . S
C242 C243 1.395 . S
C242 C244 1.320 . S
C243 C241 1.339 . S
C243 C242 1.395 . S
C243 H269 0.929 . S
C244 C242 1.320 . S
C244 C245 1.405 . S
C244 H270 0.930 . S
C245 C240 1.479 . S
C245 C244 1.405 . S
C245 H271 0.931 . S
U246 O247 2.454 . S
U246 O248 2.458 . S
U246 C249 2.984 . S
U246 C250 2.847 . S
U246 C263 2.882 . S
U246 O264 2.441 . S
U246 O265 2.420 . S
U246 O266 2.455 . S
U246 O267 2.449 . S
O247 U246 2.454 . S
O247 C249 1.353 . S
O248 U246 2.458 . S
O248 C249 1.286 . S
C249 U246 2.984 . S
C249 O247 1.353 . S
C249 O248 1.286 . S
C249 C251 1.363 . S
C250 C240 1.465 . S
C250 U246 2.847 . S
C250 O264 1.249 . S
C250 O265 1.202 . S
C251 C249 1.363 . S
C251 C253 1.408 . S
C251 C256 1.342 . S
C252 C253 1.310 . S
C252 C255 1.461 . S
C252 H272 0.932 . S
C253 C251 1.408 . S
C253 C252 1.310 . S
C253 H273 0.930 . S
C254 C255 1.474 . S
C254 C256 1.285 . S
C254 H274 0.929 . S
C255 C252 1.461 . S
C255 C254 1.474 . S
C256 C251 1.342 . S
C256 C254 1.285 . S
C256 H275 0.930 . S
C257 C260 1.424 . S
C257 C262 1.245 . S
C257 C263 1.428 . S
C258 C261 1.260 . S
C258 C262 1.477 . S
C258 H276 0.932 . S
C259 C260 1.384 . S
C259 C261 1.479 . S
C259 H277 0.929 . S
C260 C257 1.424 . S
C260 C259 1.384 . S
C260 H278 0.928 . S
C261 C258 1.260 . S
C261 C259 1.479 . S
C262 C257 1.245 . S
C262 C258 1.477 . S
C262 H279 0.932 . S
C263 U246 2.882 . S
C263 C257 1.428 . S
C263 O266 1.301 . S
C263 O267 1.282 . S
O264 U246 2.441 . S
O264 C250 1.249 . S
O265 U246 2.420 . S
O265 C250 1.202 . S
O266 U246 2.455 . S
O266 C263 1.301 . S
O267 U246 2.449 . S
O267 C263 1.282 . S
H268 C241 0.931 . S
H269 C243 0.929 . S
H270 C244 0.930 . S
H271 C245 0.931 . S
H272 C252 0.932 . S
H273 C253 0.930 . S
H274 C254 0.929 . S
H275 C256 0.930 . S
H276 C258 0.932 . S
H277 C259 0.929 . S
H278 C260 0.928 . S
H279 C262 0.932 . S
C280 C281 1.264 . S
C280 C285 1.479 . S
C280 C290 1.465 . S
C281 C280 1.264 . S
C281 C283 1.339 . S
C281 H308 0.931 . S
C282 C283 1.395 . S
C282 C284 1.320 . S
C283 C281 1.339 . S
C283 C282 1.395 . S
C283 H309 0.929 . S
C284 C282 1.320 . S
C284 C285 1.405 . S
C284 H310 0.930 . S
C285 C280 1.479 . S
C285 C284 1.405 . S
C285 H311 0.931 . S
U286 O287 2.454 . S
U286 O288 2.458 . S
U286 C289 2.984 . S
U286 C290 2.847 . S
U286 C303 2.882 . S
U286 O304 2.441 . S
U286 O305 2.420 . S
U286 O306 2.455 . S
U286 O307 2.449 . S
O287 U286 2.454 . S
O287 C289 1.353 . S
O288 U286 2.458 . S
O288 C289 1.286 . S
C289 U286 2.984 . S
C289 O287 1.353 . S
C289 O288 1.286 . S
C289 C291 1.363 . S
C290 C280 1.465 . S
C290 U286 2.847 . S
C290 O304 1.249 . S
C290 O305 1.202 . S
C291 C289 1.363 . S
C291 C293 1.408 . S
C291 C296 1.342 . S
C292 C293 1.310 . S
C292 C295 1.461 . S
C292 H312 0.932 . S
C293 C291 1.408 . S
C293 C292 1.310 . S
C293 H313 0.930 . S
C294 C295 1.474 . S
C294 C296 1.285 . S
C294 H314 0.929 . S
C295 C292 1.461 . S
C295 C294 1.474 . S
C296 C291 1.342 . S
C296 C294 1.285 . S
C296 H315 0.930 . S
C297 C300 1.424 . S
C297 C302 1.245 . S
C297 C303 1.428 . S
C298 C301 1.260 . S
C298 C302 1.477 . S
C298 H316 0.932 . S
C299 C300 1.384 . S
C299 C301 1.479 . S
C299 H317 0.929 . S
C300 C297 1.424 . S
C300 C299 1.384 . S
C300 H318 0.928 . S
C301 C298 1.260 . S
C301 C299 1.479 . S
C302 C297 1.245 . S
C302 C298 1.477 . S
C302 H319 0.932 . S
C303 U286 2.882 . S
C303 C297 1.428 . S
C303 O306 1.301 . S
C303 O307 1.282 . S
O304 U286 2.441 . S
O304 C290 1.249 . S
O305 U286 2.420 . S
O305 C290 1.202 . S
O306 U286 2.455 . S
O306 C303 1.301 . S
O307 U286 2.449 . S
O307 C303 1.282 . S
H308 C281 0.931 . S
H309 C283 0.929 . S
H310 C284 0.930 . S
H311 C285 0.931 . S
H312 C292 0.932 . S
H313 C293 0.930 . S
H314 C294 0.929 . S
H315 C296 0.930 . S
H316 C298 0.932 . S
H317 C299 0.929 . S
H318 C300 0.928 . S
H319 C302 0.932 . S
C320 C321 1.264 . S
C320 C325 1.479 . S
C320 C330 1.465 . S
C321 C320 1.264 . S
C321 C323 1.339 . S
C321 H348 0.931 . S
C322 C323 1.395 . S
C322 C324 1.320 . S
C323 C321 1.339 . S
C323 C322 1.395 . S
C323 H349 0.929 . S
C324 C322 1.320 . S
C324 C325 1.405 . S
C324 H350 0.930 . S
C325 C320 1.479 . S
C325 C324 1.405 . S
C325 H351 0.931 . S
U326 O327 2.454 . S
U326 O328 2.458 . S
U326 C329 2.984 . S
U326 C330 2.847 . S
U326 C343 2.882 . S
U326 O344 2.441 . S
U326 O345 2.420 . S
U326 O346 2.455 . S
U326 O347 2.449 . S
O327 U326 2.454 . S
O327 C329 1.353 . S
O328 U326 2.458 . S
O328 C329 1.286 . S
C329 U326 2.984 . S
C329 O327 1.353 . S
C329 O328 1.286 . S
C329 C331 1.363 . S
C330 C320 1.465 . S
C330 U326 2.847 . S
C330 O344 1.249 . S
C330 O345 1.202 . S
C331 C329 1.363 . S
C331 C333 1.408 . S
C331 C336 1.342 . S
C332 C333 1.310 . S
C332 C335 1.461 . S
C332 H352 0.932 . S
C333 C331 1.408 . S
C333 C332 1.310 . S
C333 H353 0.930 . S
C334 C335 1.474 . S
C334 C336 1.285 . S
C334 H354 0.929 . S
C335 C332 1.461 . S
C335 C334 1.474 . S
C336 C331 1.342 . S
C336 C334 1.285 . S
C336 H355 0.930 . S
C337 C340 1.424 . S
C337 C342 1.245 . S
C337 C343 1.428 . S
C338 C341 1.260 . S
C338 C342 1.477 . S
C338 H356 0.932 . S
C339 C340 1.384 . S
C339 C341 1.479 . S
C339 H357 0.929 . S
C340 C337 1.424 . S
C340 C339 1.384 . S
C340 H358 0.928 . S
C341 C338 1.260 . S
C341 C339 1.479 . S
C342 C337 1.245 . S
C342 C338 1.477 . S
C342 H359 0.932 . S
C343 U326 2.882 . S
C343 C337 1.428 . S
C343 O346 1.301 . S
C343 O347 1.282 . S
O344 U326 2.441 . S
O344 C330 1.249 . S
O345 U326 2.420 . S
O345 C330 1.202 . S
O346 U326 2.455 . S
O346 C343 1.301 . S
O347 U326 2.449 . S
O347 C343 1.282 . S
H348 C321 0.931 . S
H349 C323 0.929 . S
H350 C324 0.930 . S
H351 C325 0.931 . S
H352 C332 0.932 . S
H353 C333 0.930 . S
H354 C334 0.929 . S
H355 C336 0.930 . S
H356 C338 0.932 . S
H357 C339 0.929 . S
H358 C340 0.928 . S
H359 C342 0.932 . S
C360 C361 1.264 . S
C360 C365 1.479 . S
C360 C370 1.465 . S
C361 C360 1.264 . S
C361 C363 1.339 . S
C361 H388 0.931 . S
C362 C363 1.395 . S
C362 C364 1.320 . S
C363 C361 1.339 . S
C363 C362 1.395 . S
C363 H389 0.929 . S
C364 C362 1.320 . S
C364 C365 1.405 . S
C364 H390 0.930 . S
C365 C360 1.479 . S
C365 C364 1.405 . S
C365 H391 0.931 . S
U366 O367 2.454 . S
U366 O368 2.458 . S
U366 C369 2.984 . S
U366 C370 2.847 . S
U366 C383 2.882 . S
U366 O384 2.441 . S
U366 O385 2.420 . S
U366 O386 2.455 . S
U366 O387 2.449 . S
O367 U366 2.454 . S
O367 C369 1.353 . S
O368 U366 2.458 . S
O368 C369 1.286 . S
C369 U366 2.984 . S
C369 O367 1.353 . S
C369 O368 1.286 . S
C369 C371 1.363 . S
C370 C360 1.465 . S
C370 U366 2.847 . S
C370 O384 1.249 . S
C370 O385 1.202 . S
C371 C369 1.363 . S
C371 C373 1.408 . S
C371 C376 1.342 . S
C372 C373 1.310 . S
C372 C375 1.461 . S
C372 H392 0.932 . S
C373 C371 1.408 . S
C373 C372 1.310 . S
C373 H393 0.930 . S
C374 C375 1.474 . S
C374 C376 1.285 . S
C374 H394 0.929 . S
C375 C372 1.461 . S
C375 C374 1.474 . S
C376 C371 1.342 . S
C376 C374 1.285 . S
C376 H395 0.930 . S
C377 C380 1.424 . S
C377 C382 1.245 . S
C377 C383 1.428 . S
C378 C381 1.260 . S
C378 C382 1.477 . S
C378 H396 0.932 . S
C379 C380 1.384 . S
C379 C381 1.479 . S
C379 H397 0.929 . S
C380 C377 1.424 . S
C380 C379 1.384 . S
C380 H398 0.928 . S
C381 C378 1.260 . S
C381 C379 1.479 . S
C382 C377 1.245 . S
C382 C378 1.477 . S
C382 H399 0.932 . S
C383 U366 2.882 . S
C383 C377 1.428 . S
C383 O386 1.301 . S
C383 O387 1.282 . S
O384 U366 2.441 . S
O384 C370 1.249 . S
O385 U366 2.420 . S
O385 C370 1.202 . S
O386 U366 2.455 . S
O386 C383 1.301 . S
O387 U366 2.449 . S
O387 C383 1.282 . S
H388 C361 0.931 . S
H389 C363 0.929 . S
H390 C364 0.930 . S
H391 C365 0.931 . S
H392 C372 0.932 . S
H393 C373 0.930 . S
H394 C374 0.929 . S
H395 C376 0.930 . S
H396 C378 0.932 . S
H397 C379 0.929 . S
H398 C380 0.928 . S
H399 C382 0.932 . S
C400 C401 1.264 . S
C400 C405 1.479 . S
C400 C410 1.465 . S
C401 C400 1.264 . S
C401 C403 1.339 . S
C401 H428 0.931 . S
C402 C403 1.395 . S
C402 C404 1.320 . S
C403 C401 1.339 . S
C403 C402 1.395 . S
C403 H429 0.929 . S
C404 C402 1.320 . S
C404 C405 1.405 . S
C404 H430 0.930 . S
C405 C400 1.479 . S
C405 C404 1.405 . S
C405 H431 0.931 . S
U406 O407 2.454 . S
U406 O408 2.458 . S
U406 C409 2.984 . S
U406 C410 2.847 . S
U406 C423 2.882 . S
U406 O424 2.441 . S
U406 O425 2.420 . S
U406 O426 2.455 . S
U406 O427 2.449 . S
O407 U406 2.454 . S
O407 C409 1.353 . S
O408 U406 2.458 . S
O408 C409 1.286 . S
C409 U406 2.984 . S
C409 O407 1.353 . S
C409 O408 1.286 . S
C409 C411 1.363 . S
C410 C400 1.465 . S
C410 U406 2.847 . S
C410 O424 1.249 . S
C410 O425 1.202 . S
C411 C409 1.363 . S
C411 C413 1.408 . S
C411 C416 1.342 . S
C412 C413 1.310 . S
C412 C415 1.461 . S
C412 H432 0.932 . S
C413 C411 1.408 . S
C413 C412 1.310 . S
C413 H433 0.930 . S
C414 C415 1.474 . S
C414 C416 1.285 . S
C414 H434 0.929 . S
C415 C412 1.461 . S
C415 C414 1.474 . S
C416 C411 1.342 . S
C416 C414 1.285 . S
C416 H435 0.930 . S
C417 C420 1.424 . S
C417 C422 1.245 . S
C417 C423 1.428 . S
C418 C421 1.260 . S
C418 C422 1.477 . S
C418 H436 0.932 . S
C419 C420 1.384 . S
C419 C421 1.479 . S
C419 H437 0.929 . S
C420 C417 1.424 . S
C420 C419 1.384 . S
C420 H438 0.928 . S
C421 C418 1.260 . S
C421 C419 1.479 . S
C422 C417 1.245 . S
C422 C418 1.477 . S
C422 H439 0.932 . S
C423 U406 2.882 . S
C423 C417 1.428 . S
C423 O426 1.301 . S
C423 O427 1.282 . S
O424 U406 2.441 . S
O424 C410 1.249 . S
O425 U406 2.420 . S
O425 C410 1.202 . S
O426 U406 2.455 . S
O426 C423 1.301 . S
O427 U406 2.449 . S
O427 C423 1.282 . S
H428 C401 0.931 . S
H429 C403 0.929 . S
H430 C404 0.930 . S
H431 C405 0.931 . S
H432 C412 0.932 . S
H433 C413 0.930 . S
H434 C414 0.929 . S
H435 C416 0.930 . S
H436 C418 0.932 . S
H437 C419 0.929 . S
H438 C420 0.928 . S
H439 C422 0.932 . S
C440 C441 1.264 . S
C440 C445 1.479 . S
C440 C450 1.465 . S
C441 C440 1.264 . S
C441 C443 1.339 . S
C441 H468 0.931 . S
C442 C443 1.395 . S
C442 C444 1.320 . S
C443 C441 1.339 . S
C443 C442 1.395 . S
C443 H469 0.929 . S
C444 C442 1.320 . S
C444 C445 1.405 . S
C444 H470 0.930 . S
C445 C440 1.479 . S
C445 C444 1.405 . S
C445 H471 0.931 . S
U446 O447 2.454 . S
U446 O448 2.458 . S
U446 C449 2.984 . S
U446 C450 2.847 . S
U446 C463 2.882 . S
U446 O464 2.441 . S
U446 O465 2.420 . S
U446 O466 2.455 . S
U446 O467 2.449 . S
O447 U446 2.454 . S
O447 C449 1.353 . S
O448 U446 2.458 . S
O448 C449 1.286 . S
C449 U446 2.984 . S
C449 O447 1.353 . S
C449 O448 1.286 . S
C449 C451 1.363 . S
C450 C440 1.465 . S
C450 U446 2.847 . S
C450 O464 1.249 . S
C450 O465 1.202 . S
C451 C449 1.363 . S
C451 C453 1.408 . S
C451 C456 1.342 . S
C452 C453 1.310 . S
C452 C455 1.461 . S
C452 H472 0.932 . S
C453 C451 1.408 . S
C453 C452 1.310 . S
C453 H473 0.930 . S
C454 C455 1.474 . S
C454 C456 1.285 . S
C454 H474 0.929 . S
C455 C452 1.461 . S
C455 C454 1.474 . S
C456 C451 1.342 . S
C456 C454 1.285 . S
C456 H475 0.930 . S
C457 C460 1.424 . S
C457 C462 1.245 . S
C457 C463 1.428 . S
C458 C461 1.260 . S
C458 C462 1.477 . S
C458 H476 0.932 . S
C459 C460 1.384 . S
C459 C461 1.479 . S
C459 H477 0.929 . S
C460 C457 1.424 . S
C460 C459 1.384 . S
C460 H478 0.928 . S
C461 C458 1.260 . S
C461 C459 1.479 . S
C462 C457 1.245 . S
C462 C458 1.477 . S
C462 H479 0.932 . S
C463 U446 2.882 . S
C463 C457 1.428 . S
C463 O466 1.301 . S
C463 O467 1.282 . S
O464 U446 2.441 . S
O464 C450 1.249 . S
O465 U446 2.420 . S
O465 C450 1.202 . S
O466 U446 2.455 . S
O466 C463 1.301 . S
O467 U446 2.449 . S
O467 C463 1.282 . S
H468 C441 0.931 . S
H469 C443 0.929 . S
H470 C444 0.930 . S
H471 C445 0.931 . S
H472 C452 0.932 . S
H473 C453 0.930 . S
H474 C454 0.929 . S
H475 C456 0.930 . S
H476 C458 0.932 . S
H477 C459 0.929 . S
H478 C460 0.928 . S
H479 C462 0.932 . S
C480 C481 1.264 . S
C480 C485 1.479 . S
C480 C490 1.465 . S
C481 C480 1.264 . S
C481 C483 1.339 . S
C481 H508 0.931 . S
C482 C483 1.395 . S
C482 C484 1.320 . S
C483 C481 1.339 . S
C483 C482 1.395 . S
C483 H509 0.929 . S
C484 C482 1.320 . S
C484 C485 1.405 . S
C484 H510 0.930 . S
C485 C480 1.479 . S
C485 C484 1.405 . S
C485 H511 0.931 . S
U486 O487 2.454 . S
U486 O488 2.458 . S
U486 C489 2.984 . S
U486 C490 2.847 . S
U486 C503 2.882 . S
U486 O504 2.441 . S
U486 O505 2.420 . S
U486 O506 2.455 . S
U486 O507 2.449 . S
O487 U486 2.454 . S
O487 C489 1.353 . S
O488 U486 2.458 . S
O488 C489 1.286 . S
C489 U486 2.984 . S
C489 O487 1.353 . S
C489 O488 1.286 . S
C489 C491 1.363 . S
C490 C480 1.465 . S
C490 U486 2.847 . S
C490 O504 1.249 . S
C490 O505 1.202 . S
C491 C489 1.363 . S
C491 C493 1.408 . S
C491 C496 1.342 . S
C492 C493 1.310 . S
C492 C495 1.461 . S
C492 H512 0.932 . S
C493 C491 1.408 . S
C493 C492 1.310 . S
C493 H513 0.930 . S
C494 C495 1.474 . S
C494 C496 1.285 . S
C494 H514 0.929 . S
C495 C492 1.461 . S
C495 C494 1.474 . S
C496 C491 1.342 . S
C496 C494 1.285 . S
C496 H515 0.930 . S
C497 C500 1.424 . S
C497 C502 1.245 . S
C497 C503 1.428 . S
C498 C501 1.260 . S
C498 C502 1.477 . S
C498 H516 0.932 . S
C499 C500 1.384 . S
C499 C501 1.479 . S
C499 H517 0.929 . S
C500 C497 1.424 . S
C500 C499 1.384 . S
C500 H518 0.928 . S
C501 C498 1.260 . S
C501 C499 1.479 . S
C502 C497 1.245 . S
C502 C498 1.477 . S
C502 H519 0.932 . S
C503 U486 2.882 . S
C503 C497 1.428 . S
C503 O506 1.301 . S
C503 O507 1.282 . S
O504 U486 2.441 . S
O504 C490 1.249 . S
O505 U486 2.420 . S
O505 C490 1.202 . S
O506 U486 2.455 . S
O506 C503 1.301 . S
O507 U486 2.449 . S
O507 C503 1.282 . S
H508 C481 0.931 . S
H509 C483 0.929 . S
H510 C484 0.930 . S
H511 C485 0.931 . S
H512 C492 0.932 . S
H513 C493 0.930 . S
H514 C494 0.929 . S
H515 C496 0.930 . S
H516 C498 0.932 . S
H517 C499 0.929 . S
H518 C500 0.928 . S
H519 C502 0.932 . S
C520 C521 1.264 . S
C520 C525 1.479 . S
C520 C530 1.465 . S
C521 C520 1.264 . S
C521 C523 1.339 . S
C521 H548 0.931 . S
C522 C523 1.395 . S
C522 C524 1.320 . S
C523 C521 1.339 . S
C523 C522 1.395 . S
C523 H549 0.929 . S
C524 C522 1.320 . S
C524 C525 1.405 . S
C524 H550 0.930 . S
C525 C520 1.479 . S
C525 C524 1.405 . S
C525 H551 0.931 . S
U526 O527 2.454 . S
U526 O528 2.458 . S
U526 C529 2.984 . S
U526 C530 2.847 . S
U526 C543 2.882 . S
U526 O544 2.441 . S
U526 O545 2.420 . S
U526 O546 2.455 . S
U526 O547 2.449 . S
O527 U526 2.454 . S
O527 C529 1.353 . S
O528 U526 2.458 . S
O528 C529 1.286 . S
C529 U526 2.984 . S
C529 O527 1.353 . S
C529 O528 1.286 . S
C529 C531 1.363 . S
C530 C520 1.465 . S
C530 U526 2.847 . S
C530 O544 1.249 . S
C530 O545 1.202 . S
C531 C529 1.363 . S
C531 C533 1.408 . S
C531 C536 1.342 . S
C532 C533 1.310 . S
C532 C535 1.461 . S
C532 H552 0.932 . S
C533 C531 1.408 . S
C533 C532 1.310 . S
C533 H553 0.930 . S
C534 C535 1.474 . S
C534 C536 1.285 . S
C534 H554 0.929 . S
C535 C532 1.461 . S
C535 C534 1.474 . S
C536 C531 1.342 . S
C536 C534 1.285 . S
C536 H555 0.930 . S
C537 C540 1.424 . S
C537 C542 1.245 . S
C537 C543 1.428 . S
C538 C541 1.260 . S
C538 C542 1.477 . S
C538 H556 0.932 . S
C539 C540 1.384 . S
C539 C541 1.479 . S
C539 H557 0.929 . S
C540 C537 1.424 . S
C540 C539 1.384 . S
C540 H558 0.928 . S
C541 C538 1.260 . S
C541 C539 1.479 . S
C542 C537 1.245 . S
C542 C538 1.477 . S
C542 H559 0.932 . S
C543 U526 2.882 . S
C543 C537 1.428 . S
C543 O546 1.301 . S
C543 O547 1.282 . S
O544 U526 2.441 . S
O544 C530 1.249 . S
O545 U526 2.420 . S
O545 C530 1.202 . S
O546 U526 2.455 . S
O546 C543 1.301 . S
O547 U526 2.449 . S
O547 C543 1.282 . S
H548 C521 0.931 . S
H549 C523 0.929 . S
H550 C524 0.930 . S
H551 C525 0.931 . S
H552 C532 0.932 . S
H553 C533 0.930 . S
H554 C534 0.929 . S
H555 C536 0.930 . S
H556 C538 0.932 . S
H557 C539 0.929 . S
H558 C540 0.928 . S
H559 C542 0.932 . S
C560 C561 1.264 . S
C560 C565 1.479 . S
C560 C570 1.465 . S
C561 C560 1.264 . S
C561 C563 1.339 . S
C561 H588 0.931 . S
C562 C563 1.395 . S
C562 C564 1.320 . S
C563 C561 1.339 . S
C563 C562 1.395 . S
C563 H589 0.929 . S
C564 C562 1.320 . S
C564 C565 1.405 . S
C564 H590 0.930 . S
C565 C560 1.479 . S
C565 C564 1.405 . S
C565 H591 0.931 . S
U566 O567 2.454 . S
U566 O568 2.458 . S
U566 C569 2.984 . S
U566 C570 2.847 . S
U566 C583 2.882 . S
U566 O584 2.441 . S
U566 O585 2.420 . S
U566 O586 2.455 . S
U566 O587 2.449 . S
O567 U566 2.454 . S
O567 C569 1.353 . S
O568 U566 2.458 . S
O568 C569 1.286 . S
C569 U566 2.984 . S
C569 O567 1.353 . S
C569 O568 1.286 . S
C569 C571 1.363 . S
C570 C560 1.465 . S
C570 U566 2.847 . S
C570 O584 1.249 . S
C570 O585 1.202 . S
C571 C569 1.363 . S
C571 C573 1.408 . S
C571 C576 1.342 . S
C572 C573 1.310 . S
C572 C575 1.461 . S
C572 H592 0.932 . S
C573 C571 1.408 . S
C573 C572 1.310 . S
C573 H593 0.930 . S
C574 C575 1.474 . S
C574 C576 1.285 . S
C574 H594 0.929 . S
C575 C572 1.461 . S
C575 C574 1.474 . S
C576 C571 1.342 . S
C576 C574 1.285 . S
C576 H595 0.930 . S
C577 C580 1.424 . S
C577 C582 1.245 . S
C577 C583 1.428 . S
C578 C581 1.260 . S
C578 C582 1.477 . S
C578 H596 0.932 . S
C579 C580 1.384 . S
C579 C581 1.479 . S
C579 H597 0.929 . S
C580 C577 1.424 . S
C580 C579 1.384 . S
C580 H598 0.928 . S
C581 C578 1.260 . S
C581 C579 1.479 . S
C582 C577 1.245 . S
C582 C578 1.477 . S
C582 H599 0.932 . S
C583 U566 2.882 . S
C583 C577 1.428 . S
C583 O586 1.301 . S
C583 O587 1.282 . S
O584 U566 2.441 . S
O584 C570 1.249 . S
O585 U566 2.420 . S
O585 C570 1.202 . S
O586 U566 2.455 . S
O586 C583 1.301 . S
O587 U566 2.449 . S
O587 C583 1.282 . S
H588 C561 0.931 . S
H589 C563 0.929 . S
H590 C564 0.930 . S
H591 C565 0.931 . S
H592 C572 0.932 . S
H593 C573 0.930 . S
H594 C574 0.929 . S
H595 C576 0.930 . S
H596 C578 0.932 . S
H597 C579 0.929 . S
H598 C580 0.928 . S
H599 C582 0.932 . S
C600 C601 1.264 . S
C600 C605 1.479 . S
C600 C610 1.465 . S
C601 C600 1.264 . S
C601 C603 1.339 . S
C601 H628 0.931 . S
C602 C603 1.395 . S
C602 C604 1.320 . S
C603 C601 1.339 . S
C603 C602 1.395 . S
C603 H629 0.929 . S
C604 C602 1.320 . S
C604 C605 1.405 . S
C604 H630 0.930 . S
C605 C600 1.479 . S
C605 C604 1.405 . S
C605 H631 0.931 . S
U606 O607 2.454 . S
U606 O608 2.458 . S
U606 C609 2.984 . S
U606 C610 2.847 . S
U606 C623 2.882 . S
U606 O624 2.441 . S
U606 O625 2.420 . S
U606 O626 2.455 . S
U606 O627 2.449 . S
O607 U606 2.454 . S
O607 C609 1.353 . S
O608 U606 2.458 . S
O608 C609 1.286 . S
C609 U606 2.984 . S
C609 O607 1.353 . S
C609 O608 1.286 . S
C609 C611 1.363 . S
C610 C600 1.465 . S
C610 U606 2.847 . S
C610 O624 1.249 . S
C610 O625 1.202 . S
C611 C609 1.363 . S
C611 C613 1.408 . S
C611 C616 1.342 . S
C612 C613 1.310 . S
C612 C615 1.461 . S
C612 H632 0.932 . S
C613 C611 1.408 . S
C613 C612 1.310 . S
C613 H633 0.930 . S
C614 C615 1.474 . S
C614 C616 1.285 . S
C614 H634 0.929 . S
C615 C612 1.461 . S
C615 C614 1.474 . S
C616 C611 1.342 . S
C616 C614 1.285 . S
C616 H635 0.930 . S
C617 C620 1.424 . S
C617 C622 1.245 . S
C617 C623 1.428 . S
C618 C621 1.260 . S
C618 C622 1.477 . S
C618 H636 0.932 . S
C619 C620 1.384 . S
C619 C621 1.479 . S
C619 H637 0.929 . S
C620 C617 1.424 . S
C620 C619 1.384 . S
C620 H638 0.928 . S
C621 C618 1.260 . S
C621 C619 1.479 . S
C622 C617 1.245 . S
C622 C618 1.477 . S
C622 H639 0.932 . S
C623 U606 2.882 . S
C623 C617 1.428 . S
C623 O626 1.301 . S
C623 O627 1.282 . S
O624 U606 2.441 . S
O624 C610 1.249 . S
O625 U606 2.420 . S
O625 C610 1.202 . S
O626 U606 2.455 . S
O626 C623 1.301 . S
O627 U606 2.449 . S
O627 C623 1.282 . S
H628 C601 0.931 . S
H629 C603 0.929 . S
H630 C604 0.930 . S
H631 C605 0.931 . S
H632 C612 0.932 . S
H633 C613 0.930 . S
H634 C614 0.929 . S
H635 C616 0.930 . S
H636 C618 0.932 . S
H637 C619 0.929 . S
H638 C620 0.928 . S
H639 C622 0.932 . S
C640 C641 1.349 . S
C640 C642 1.327 . S
C640 H665 0.950 . S
C641 C640 1.349 . S
C641 C657 1.349 . S
C642 C640 1.327 . S
C642 C661 1.429 . S
C642 H666 0.950 . S
C643 C660 1.574 . S
C643 C662 1.368 . S
C643 H667 0.949 . S
H644 C648 0.949 . S
C645 C646 1.349 . S
C645 C647 1.327 . S
C645 H668 0.950 . S
C646 C645 1.349 . S
C646 C658 1.349 . S
C647 C645 1.327 . S
C647 C663 1.429 . S
C647 H669 0.950 . S
C648 H644 0.949 . S
C648 C656 1.574 . S
C648 C664 1.368 . S
H649 C657 0.950 . S
H650 C655 0.950 . S
H651 C656 0.949 . S
H652 C658 0.950 . S
H653 C659 0.950 . S
H654 C660 0.949 . S
C655 H650 0.950 . S
C655 C657 1.327 . S
C655 C661 1.429 . S
C656 C648 1.574 . S
C656 H651 0.949 . S
C656 C662 1.368 . S
C657 C641 1.349 . S
C657 H649 0.950 . S
C657 C655 1.327 . S
C658 C646 1.349 . S
C658 H652 0.950 . S
C658 C659 1.327 . S
C659 H653 0.950 . S
C659 C658 1.327 . S
C659 C663 1.429 . S
C660 C643 1.574 . S
C660 H654 0.949 . S
C660 C664 1.368 . S
C661 C642 1.429 . S
C661 C655 1.429 . S
C661 C662 1.523 . S
C662 C643 1.368 . S
C662 C656 1.368 . S
C662 C661 1.523 . S
C663 C647 1.429 . S
C663 C659 1.429 . S
C663 C664 1.523 . S
C664 C648 1.368 . S
C664 C660 1.368 . S
C664 C663 1.523 . S
H665 C640 0.950 . S
H666 C642 0.950 . S
H667 C643 0.949 . S
H668 C645 0.950 . S
H669 C647 0.950 . S
C670 C671 1.349 . S
C670 C672 1.327 . S
C670 H695 0.950 . S
C671 C670 1.349 . S
C671 C687 1.349 . S
C672 C670 1.327 . S
C672 C691 1.429 . S
C672 H696 0.950 . S
C673 C690 1.574 . S
C673 C692 1.368 . S
C673 H697 0.949 . S
H674 C678 0.949 . S
C675 C676 1.349 . S
C675 C677 1.327 . S
C675 H698 0.950 . S
C676 C675 1.349 . S
C676 C688 1.349 . S
C677 C675 1.327 . S
C677 C693 1.429 . S
C677 H699 0.950 . S
C678 H674 0.949 . S
C678 C686 1.574 . S
C678 C694 1.368 . S
H679 C687 0.950 . S
H680 C685 0.950 . S
H681 C686 0.949 . S
H682 C688 0.950 . S
H683 C689 0.950 . S
H684 C690 0.949 . S
C685 H680 0.950 . S
C685 C687 1.327 . S
C685 C691 1.429 . S
C686 C678 1.574 . S
C686 H681 0.949 . S
C686 C692 1.368 . S
C687 C671 1.349 . S
C687 H679 0.950 . S
C687 C685 1.327 . S
C688 C676 1.349 . S
C688 H682 0.950 . S
C688 C689 1.327 . S
C689 H683 0.950 . S
C689 C688 1.327 . S
C689 C693 1.429 . S
C690 C673 1.574 . S
C690 H684 0.949 . S
C690 C694 1.368 . S
C691 C672 1.429 . S
C691 C685 1.429 . S
C691 C692 1.523 . S
C692 C673 1.368 . S
C692 C686 1.368 . S
C692 C691 1.523 . S
C693 C677 1.429 . S
C693 C689 1.429 . S
C693 C694 1.523 . S
C694 C678 1.368 . S
C694 C690 1.368 . S
C694 C693 1.523 . S
H695 C670 0.950 . S
H696 C672 0.950 . S
H697 C673 0.949 . S
H698 C675 0.950 . S
H699 C677 0.950 . S
C700 C701 1.349 . S
C700 C702 1.327 . S
C700 H725 0.950 . S
C701 C700 1.349 . S
C701 C717 1.349 . S
C702 C700 1.327 . S
C702 C721 1.429 . S
C702 H726 0.950 . S
C703 C720 1.574 . S
C703 C722 1.368 . S
C703 H727 0.949 . S
H704 C708 0.949 . S
C705 C706 1.349 . S
C705 C707 1.327 . S
C705 H728 0.950 . S
C706 C705 1.349 . S
C706 C718 1.349 . S
C707 C705 1.327 . S
C707 C723 1.429 . S
C707 H729 0.950 . S
C708 H704 0.949 . S
C708 C716 1.574 . S
C708 C724 1.368 . S
H709 C717 0.950 . S
H710 C715 0.950 . S
H711 C716 0.949 . S
H712 C718 0.950 . S
H713 C719 0.950 . S
H714 C720 0.949 . S
C715 H710 0.950 . S
C715 C717 1.327 . S
C715 C721 1.429 . S
C716 C708 1.574 . S
C716 H711 0.949 . S
C716 C722 1.368 . S
C717 C701 1.349 . S
C717 H709 0.950 . S
C717 C715 1.327 . S
C718 C706 1.349 . S
C718 H712 0.950 . S
C718 C719 1.327 . S
C719 H713 0.950 . S
C719 C718 1.327 . S
C719 C723 1.429 . S
C720 C703 1.574 . S
C720 H714 0.949 . S
C720 C724 1.368 . S
C721 C702 1.429 . S
C721 C715 1.429 . S
C721 C722 1.523 . S
C722 C703 1.368 . S
C722 C716 1.368 . S
C722 C721 1.523 . S
C723 C707 1.429 . S
C723 C719 1.429 . S
C723 C724 1.523 . S
C724 C708 1.368 . S
C724 C720 1.368 . S
C724 C723 1.523 . S
H725 C700 0.950 . S
H726 C702 0.950 . S
H727 C703 0.949 . S
H728 C705 0.950 . S
H729 C707 0.950 . S
C730 C731 1.349 . S
C730 C732 1.327 . S
C730 H755 0.950 . S
C731 C730 1.349 . S
C731 C747 1.349 . S
C732 C730 1.327 . S
C732 C751 1.429 . S
C732 H756 0.950 . S
C733 C750 1.574 . S
C733 C752 1.368 . S
C733 H757 0.949 . S
H734 C738 0.949 . S
C735 C736 1.349 . S
C735 C737 1.327 . S
C735 H758 0.950 . S
C736 C735 1.349 . S
C736 C748 1.349 . S
C737 C735 1.327 . S
C737 C753 1.429 . S
C737 H759 0.950 . S
C738 H734 0.949 . S
C738 C746 1.574 . S
C738 C754 1.368 . S
H739 C747 0.950 . S
H740 C745 0.950 . S
H741 C746 0.949 . S
H742 C748 0.950 . S
H743 C749 0.950 . S
H744 C750 0.949 . S
C745 H740 0.950 . S
C745 C747 1.327 . S
C745 C751 1.429 . S
C746 C738 1.574 . S
C746 H741 0.949 . S
C746 C752 1.368 . S
C747 C731 1.349 . S
C747 H739 0.950 . S
C747 C745 1.327 . S
C748 C736 1.349 . S
C748 H742 0.950 . S
C748 C749 1.327 . S
C749 H743 0.950 . S
C749 C748 1.327 . S
C749 C753 1.429 . S
C750 C733 1.574 . S
C750 H744 0.949 . S
C750 C754 1.368 . S
C751 C732 1.429 . S
C751 C745 1.429 . S
C751 C752 1.523 . S
C752 C733 1.368 . S
C752 C746 1.368 . S
C752 C751 1.523 . S
C753 C737 1.429 . S
C753 C749 1.429 . S
C753 C754 1.523 . S
C754 C738 1.368 . S
C754 C750 1.368 . S
C754 C753 1.523 . S
H755 C730 0.950 . S
H756 C732 0.950 . S
H757 C733 0.949 . S
H758 C735 0.950 . S
H759 C737 0.950 . S
C760 C761 1.349 . S
C760 C762 1.327 . S
C760 H785 0.950 . S
C761 C760 1.349 . S
C761 C777 1.349 . S
C762 C760 1.327 . S
C762 C781 1.429 . S
C762 H786 0.950 . S
C763 C780 1.574 . S
C763 C782 1.368 . S
C763 H787 0.949 . S
H764 C768 0.949 . S
C765 C766 1.349 . S
C765 C767 1.327 . S
C765 H788 0.950 . S
C766 C765 1.349 . S
C766 C778 1.349 . S
C767 C765 1.327 . S
C767 C783 1.429 . S
C767 H789 0.950 . S
C768 H764 0.949 . S
C768 C776 1.574 . S
C768 C784 1.368 . S
H769 C777 0.950 . S
H770 C775 0.950 . S
H771 C776 0.949 . S
H772 C778 0.950 . S
H773 C779 0.950 . S
H774 C780 0.949 . S
C775 H770 0.950 . S
C775 C777 1.327 . S
C775 C781 1.429 . S
C776 C768 1.574 . S
C776 H771 0.949 . S
C776 C782 1.368 . S
C777 C761 1.349 . S
C777 H769 0.950 . S
C777 C775 1.327 . S
C778 C766 1.349 . S
C778 H772 0.950 . S
C778 C779 1.327 . S
C779 H773 0.950 . S
C779 C778 1.327 . S
C779 C783 1.429 . S
C780 C763 1.574 . S
C780 H774 0.949 . S
C780 C784 1.368 . S
C781 C762 1.429 . S
C781 C775 1.429 . S
C781 C782 1.523 . S
C782 C763 1.368 . S
C782 C776 1.368 . S
C782 C781 1.523 . S
C783 C767 1.429 . S
C783 C779 1.429 . S
C783 C784 1.523 . S
C784 C768 1.368 . S
C784 C780 1.368 . S
C784 C783 1.523 . S
H785 C760 0.950 . S
H786 C762 0.950 . S
H787 C763 0.949 . S
H788 C765 0.950 . S
H789 C767 0.950 . S
C790 C791 1.349 . S
C790 C792 1.327 . S
C790 H815 0.950 . S
C791 C790 1.349 . S
C791 C807 1.349 . S
C792 C790 1.327 . S
C792 C811 1.429 . S
C792 H816 0.950 . S
C793 C810 1.574 . S
C793 C812 1.368 . S
C793 H817 0.949 . S
H794 C798 0.949 . S
C795 C796 1.349 . S
C795 C797 1.327 . S
C795 H818 0.950 . S
C796 C795 1.349 . S
C796 C808 1.349 . S
C797 C795 1.327 . S
C797 C813 1.429 . S
C797 H819 0.950 . S
C798 H794 0.949 . S
C798 C806 1.574 . S
C798 C814 1.368 . S
H799 C807 0.950 . S
H800 C805 0.950 . S
H801 C806 0.949 . S
H802 C808 0.950 . S
H803 C809 0.950 . S
H804 C810 0.949 . S
C805 H800 0.950 . S
C805 C807 1.327 . S
C805 C811 1.429 . S
C806 C798 1.574 . S
C806 H801 0.949 . S
C806 C812 1.368 . S
C807 C791 1.349 . S
C807 H799 0.950 . S
C807 C805 1.327 . S
C808 C796 1.349 . S
C808 H802 0.950 . S
C808 C809 1.327 . S
C809 H803 0.950 . S
C809 C808 1.327 . S
C809 C813 1.429 . S
C810 C793 1.574 . S
C810 H804 0.949 . S
C810 C814 1.368 . S
C811 C792 1.429 . S
C811 C805 1.429 . S
C811 C812 1.523 . S
C812 C793 1.368 . S
C812 C806 1.368 . S
C812 C811 1.523 . S
C813 C797 1.429 . S
C813 C809 1.429 . S
C813 C814 1.523 . S
C814 C798 1.368 . S
C814 C810 1.368 . S
C814 C813 1.523 . S
H815 C790 0.950 . S
H816 C792 0.950 . S
H817 C793 0.949 . S
H818 C795 0.950 . S
H819 C797 0.950 . S
C820 C821 1.349 . S
C820 C822 1.327 . S
C820 H845 0.950 . S
C821 C820 1.349 . S
C821 C837 1.349 . S
C822 C820 1.327 . S
C822 C841 1.429 . S
C822 H846 0.950 . S
C823 C840 1.574 . S
C823 C842 1.368 . S
C823 H847 0.949 . S
H824 C828 0.949 . S
C825 C826 1.349 . S
C825 C827 1.327 . S
C825 H848 0.950 . S
C826 C825 1.349 . S
C826 C838 1.349 . S
C827 C825 1.327 . S
C827 C843 1.429 . S
C827 H849 0.950 . S
C828 H824 0.949 . S
C828 C836 1.574 . S
C828 C844 1.368 . S
H829 C837 0.950 . S
H830 C835 0.950 . S
H831 C836 0.949 . S
H832 C838 0.950 . S
H833 C839 0.950 . S
H834 C840 0.949 . S
C835 H830 0.950 . S
C835 C837 1.327 . S
C835 C841 1.429 . S
C836 C828 1.574 . S
C836 H831 0.949 . S
C836 C842 1.368 . S
C837 C821 1.349 . S
C837 H829 0.950 . S
C837 C835 1.327 . S
C838 C826 1.349 . S
C838 H832 0.950 . S
C838 C839 1.327 . S
C839 H833 0.950 . S
C839 C838 1.327 . S
C839 C843 1.429 . S
C840 C823 1.574 . S
C840 H834 0.949 . S
C840 C844 1.368 . S
C841 C822 1.429 . S
C841 C835 1.429 . S
C841 C842 1.523 . S
C842 C823 1.368 . S
C842 C836 1.368 . S
C842 C841 1.523 . S
C843 C827 1.429 . S
C843 C839 1.429 . S
C843 C844 1.523 . S
C844 C828 1.368 . S
C844 C840 1.368 . S
C844 C843 1.523 . S
H845 C820 0.950 . S
H846 C822 0.950 . S
H847 C823 0.949 . S
H848 C825 0.950 . S
H849 C827 0.950 . S
C850 C851 1.349 . S
C850 C852 1.327 . S
C850 H875 0.950 . S
C851 C850 1.349 . S
C851 C867 1.349 . S
C852 C850 1.327 . S
C852 C871 1.429 . S
C852 H876 0.950 . S
C853 C870 1.574 . S
C853 C872 1.368 . S
C853 H877 0.949 . S
H854 C858 0.949 . S
C855 C856 1.349 . S
C855 C857 1.327 . S
C855 H878 0.950 . S
C856 C855 1.349 . S
C856 C868 1.349 . S
C857 C855 1.327 . S
C857 C873 1.429 . S
C857 H879 0.950 . S
C858 H854 0.949 . S
C858 C866 1.574 . S
C858 C874 1.368 . S
H859 C867 0.950 . S
H860 C865 0.950 . S
H861 C866 0.949 . S
H862 C868 0.950 . S
H863 C869 0.950 . S
H864 C870 0.949 . S
C865 H860 0.950 . S
C865 C867 1.327 . S
C865 C871 1.429 . S
C866 C858 1.574 . S
C866 H861 0.949 . S
C866 C872 1.368 . S
C867 C851 1.349 . S
C867 H859 0.950 . S
C867 C865 1.327 . S
C868 C856 1.349 . S
C868 H862 0.950 . S
C868 C869 1.327 . S
C869 H863 0.950 . S
C869 C868 1.327 . S
C869 C873 1.429 . S
C870 C853 1.574 . S
C870 H864 0.949 . S
C870 C874 1.368 . S
C871 C852 1.429 . S
C871 C865 1.429 . S
C871 C872 1.523 . S
C872 C853 1.368 . S
C872 C866 1.368 . S
C872 C871 1.523 . S
C873 C857 1.429 . S
C873 C869 1.429 . S
C873 C874 1.523 . S
C874 C858 1.368 . S
C874 C870 1.368 . S
C874 C873 1.523 . S
H875 C850 0.950 . S
H876 C852 0.950 . S
H877 C853 0.949 . S
H878 C855 0.950 . S
H879 C857 0.950 . S
C880 C881 1.349 . S
C880 C882 1.327 . S
C880 H905 0.950 . S
C881 C880 1.349 . S
C881 C897 1.349 . S
C882 C880 1.327 . S
C882 C901 1.429 . S
C882 H906 0.950 . S
C883 C900 1.574 . S
C883 C902 1.368 1_556 S
C883 H907 0.949 . S
H884 C888 0.949 . S
C885 C886 1.349 . S
C885 C887 1.327 . S
C885 H908 0.950 . S
C886 C885 1.349 . S
C886 C898 1.349 . S
C887 C885 1.327 . S
C887 C903 1.429 . S
C887 H909 0.950 . S
C888 H884 0.949 . S
C888 C896 1.574 . S
C888 C904 1.368 1_554 S
H889 C897 0.950 . S
H890 C895 0.950 1_556 S
H891 C896 0.949 . S
H892 C898 0.950 . S
H893 C899 0.950 1_554 S
H894 C900 0.949 . S
C895 H890 0.950 1_554 S
C895 C897 1.327 . S
C895 C901 1.429 . S
C896 C888 1.574 . S
C896 H891 0.949 . S
C896 C902 1.368 . S
C897 C881 1.349 . S
C897 H889 0.950 . S
C897 C895 1.327 . S
C898 C886 1.349 . S
C898 H892 0.950 . S
C898 C899 1.327 . S
C899 H893 0.950 1_556 S
C899 C898 1.327 . S
C899 C903 1.429 . S
C900 C883 1.574 . S
C900 H894 0.949 . S
C900 C904 1.368 . S
C901 C882 1.429 . S
C901 C895 1.429 . S
C901 C902 1.523 . S
C902 C883 1.368 1_554 S
C902 C896 1.368 . S
C902 C901 1.523 . S
C903 C887 1.429 . S
C903 C899 1.429 . S
C903 C904 1.523 . S
C904 C888 1.368 1_556 S
C904 C900 1.368 . S
C904 C903 1.523 . S
H905 C880 0.950 . S
H906 C882 0.950 . S
H907 C883 0.949 . S
H908 C885 0.950 . S
H909 C887 0.950 . S
C910 C911 1.349 . S
C910 C912 1.327 . S
C910 H935 0.950 . S
C911 C910 1.349 . S
C911 C927 1.349 . S
C912 C910 1.327 . S
C912 C931 1.429 . S
C912 H936 0.950 . S
C913 C930 1.574 . S
C913 C932 1.368 . S
C913 H937 0.949 . S
H914 C918 0.949 . S
C915 C916 1.349 . S
C915 C917 1.327 . S
C915 H938 0.950 . S
C916 C915 1.349 . S
C916 C928 1.349 . S
C917 C915 1.327 . S
C917 C933 1.429 . S
C917 H939 0.950 . S
C918 H914 0.949 . S
C918 C926 1.574 . S
C918 C934 1.368 . S
H919 C927 0.950 . S
H920 C925 0.950 . S
H921 C926 0.949 . S
H922 C928 0.950 . S
H923 C929 0.950 . S
H924 C930 0.949 . S
C925 H920 0.950 . S
C925 C927 1.327 . S
C925 C931 1.429 . S
C926 C918 1.574 . S
C926 H921 0.949 . S
C926 C932 1.368 . S
C927 C911 1.349 . S
C927 H919 0.950 . S
C927 C925 1.327 . S
C928 C916 1.349 . S
C928 H922 0.950 . S
C928 C929 1.327 . S
C929 H923 0.950 . S
C929 C928 1.327 . S
C929 C933 1.429 . S
C930 C913 1.574 . S
C930 H924 0.949 . S
C930 C934 1.368 . S
C931 C912 1.429 . S
C931 C925 1.429 . S
C931 C932 1.523 . S
C932 C913 1.368 . S
C932 C926 1.368 . S
C932 C931 1.523 . S
C933 C917 1.429 . S
C933 C929 1.429 . S
C933 C934 1.523 . S
C934 C918 1.368 . S
C934 C930 1.368 . S
C934 C933 1.523 . S
H935 C910 0.950 . S
H936 C912 0.950 . S
H937 C913 0.949 . S
H938 C915 0.950 . S
H939 C917 0.950 . S
C940 C941 1.349 . S
C940 C942 1.327 . S
C940 H965 0.950 . S
C941 C940 1.349 . S
C941 C957 1.349 . S
C942 C940 1.327 . S
C942 C961 1.429 . S
C942 H966 0.950 . S
C943 C960 1.574 . S
C943 C962 1.368 1_554 S
C943 H967 0.949 . S
H944 C948 0.949 . S
C945 C946 1.349 . S
C945 C947 1.327 . S
C945 H968 0.950 . S
C946 C945 1.349 . S
C946 C958 1.349 . S
C947 C945 1.327 . S
C947 C963 1.429 . S
C947 H969 0.950 . S
C948 H944 0.949 . S
C948 C956 1.574 . S
C948 C964 1.368 1_556 S
H949 C957 0.950 . S
H950 C955 0.950 1_554 S
H951 C956 0.949 . S
H952 C958 0.950 . S
H953 C959 0.950 1_556 S
H954 C960 0.949 . S
C955 H950 0.950 1_556 S
C955 C957 1.327 . S
C955 C961 1.429 . S
C956 C948 1.574 . S
C956 H951 0.949 . S
C956 C962 1.368 . S
C957 C941 1.349 . S
C957 H949 0.950 . S
C957 C955 1.327 . S
C958 C946 1.349 . S
C958 H952 0.950 . S
C958 C959 1.327 . S
C959 H953 0.950 1_554 S
C959 C958 1.327 . S
C959 C963 1.429 . S
C960 C943 1.574 . S
C960 H954 0.949 . S
C960 C964 1.368 . S
C961 C942 1.429 . S
C961 C955 1.429 . S
C961 C962 1.523 . S
C962 C943 1.368 1_556 S
C962 C956 1.368 . S
C962 C961 1.523 . S
C963 C947 1.429 . S
C963 C959 1.429 . S
C963 C964 1.523 . S
C964 C948 1.368 1_554 S
C964 C960 1.368 . S
C964 C963 1.523 . S
H965 C940 0.950 . S
H966 C942 0.950 . S
H967 C943 0.949 . S
H968 C945 0.950 . S
H969 C947 0.950 . S
C970 C971 1.349 . S
C970 C972 1.327 . S
C970 H995 0.950 . S
C971 C970 1.349 . S
C971 C987 1.349 . S
C972 C970 1.327 . S
C972 C991 1.429 . S
C972 H996 0.950 . S
C973 C990 1.574 . S
C973 C992 1.368 . S
C973 H997 0.949 . S
H974 C978 0.949 . S
C975 C976 1.349 . S
C975 C977 1.327 . S
C975 H998 0.950 . S
C976 C975 1.349 . S
C976 C988 1.349 . S
C977 C975 1.327 . S
C977 C993 1.429 . S
C977 H999 0.950 . S
C978 H974 0.949 . S
C978 C986 1.574 . S
C978 C994 1.368 . S
H979 C987 0.950 . S
H980 C985 0.950 . S
H981 C986 0.949 . S
H982 C988 0.950 . S
H983 C989 0.950 . S
H984 C990 0.949 . S
C985 H980 0.950 . S
C985 C987 1.327 . S
C985 C991 1.429 . S
C986 C978 1.574 . S
C986 H981 0.949 . S
C986 C992 1.368 . S
C987 C971 1.349 . S
C987 H979 0.950 . S
C987 C985 1.327 . S
C988 C976 1.349 . S
C988 H982 0.950 . S
C988 C989 1.327 . S
C989 H983 0.950 . S
C989 C988 1.327 . S
C989 C993 1.429 . S
C990 C973 1.574 . S
C990 H984 0.949 . S
C990 C994 1.368 . S
C991 C972 1.429 . S
C991 C985 1.429 . S
C991 C992 1.523 . S
C992 C973 1.368 . S
C992 C986 1.368 . S
C992 C991 1.523 . S
C993 C977 1.429 . S
C993 C989 1.429 . S
C993 C994 1.523 . S
C994 C978 1.368 . S
C994 C990 1.368 . S
C994 C993 1.523 . S
H995 C970 0.950 . S
H996 C972 0.950 . S
H997 C973 0.949 . S
H998 C975 0.950 . S
H999 C977 0.950 . S
C1000 C1001 1.349 . S
C1000 C1002 1.327 . S
C1000 H1025 0.950 . S
C1001 C1000 1.349 . S
C1001 C1017 1.349 . S
C1002 C1000 1.327 . S
C1002 C1021 1.429 . S
C1002 H1026 0.950 . S
C1003 C1020 1.574 . S
C1003 C1022 1.368 1_556 S
C1003 H1027 0.949 . S
H1004 C1008 0.949 . S
C1005 C1006 1.349 . S
C1005 C1007 1.327 . S
C1005 H1028 0.950 . S
C1006 C1005 1.349 . S
C1006 C1018 1.349 . S
C1007 C1005 1.327 . S
C1007 C1023 1.429 . S
C1007 H1029 0.950 . S
C1008 H1004 0.949 . S
C1008 C1016 1.574 . S
C1008 C1024 1.368 1_554 S
H1009 C1017 0.950 . S
H1010 C1015 0.950 1_556 S
H1011 C1016 0.949 . S
H1012 C1018 0.950 . S
H1013 C1019 0.950 1_554 S
H1014 C1020 0.949 . S
C1015 H1010 0.950 1_554 S
C1015 C1017 1.327 . S
C1015 C1021 1.429 . S
C1016 C1008 1.574 . S
C1016 H1011 0.949 . S
C1016 C1022 1.368 . S
C1017 C1001 1.349 . S
C1017 H1009 0.950 . S
C1017 C1015 1.327 . S
C1018 C1006 1.349 . S
C1018 H1012 0.950 . S
C1018 C1019 1.327 . S
C1019 H1013 0.950 1_556 S
C1019 C1018 1.327 . S
C1019 C1023 1.429 . S
C1020 C1003 1.574 . S
C1020 H1014 0.949 . S
C1020 C1024 1.368 . S
C1021 C1002 1.429 . S
C1021 C1015 1.429 . S
C1021 C1022 1.523 . S
C1022 C1003 1.368 1_554 S
C1022 C1016 1.368 . S
C1022 C1021 1.523 . S
C1023 C1007 1.429 . S
C1023 C1019 1.429 . S
C1023 C1024 1.523 . S
C1024 C1008 1.368 1_556 S
C1024 C1020 1.368 . S
C1024 C1023 1.523 . S
H1025 C1000 0.950 . S
H1026 C1002 0.950 . S
H1027 C1003 0.949 . S
H1028 C1005 0.950 . S
H1029 C1007 0.950 . S
C1030 C1031 1.349 . S
C1030 C1032 1.327 . S
C1030 H1055 0.950 . S
C1031 C1030 1.349 . S
C1031 C1047 1.349 . S
C1032 C1030 1.327 . S
C1032 C1051 1.429 . S
C1032 H1056 0.950 . S
C1033 C1050 1.574 . S
C1033 C1052 1.368 . S
C1033 H1057 0.949 . S
H1034 C1038 0.949 . S
C1035 C1036 1.349 . S
C1035 C1037 1.327 . S
C1035 H1058 0.950 . S
C1036 C1035 1.349 . S
C1036 C1048 1.349 . S
C1037 C1035 1.327 . S
C1037 C1053 1.429 . S
C1037 H1059 0.950 . S
C1038 H1034 0.949 . S
C1038 C1046 1.574 . S
C1038 C1054 1.368 . S
H1039 C1047 0.950 . S
H1040 C1045 0.950 . S
H1041 C1046 0.949 . S
H1042 C1048 0.950 . S
H1043 C1049 0.950 . S
H1044 C1050 0.949 . S
C1045 H1040 0.950 . S
C1045 C1047 1.327 . S
C1045 C1051 1.429 . S
C1046 C1038 1.574 . S
C1046 H1041 0.949 . S
C1046 C1052 1.368 . S
C1047 C1031 1.349 . S
C1047 H1039 0.950 . S
C1047 C1045 1.327 . S
C1048 C1036 1.349 . S
C1048 H1042 0.950 . S
C1048 C1049 1.327 . S
C1049 H1043 0.950 . S
C1049 C1048 1.327 . S
C1049 C1053 1.429 . S
C1050 C1033 1.574 . S
C1050 H1044 0.949 . S
C1050 C1054 1.368 . S
C1051 C1032 1.429 . S
C1051 C1045 1.429 . S
C1051 C1052 1.523 . S
C1052 C1033 1.368 . S
C1052 C1046 1.368 . S
C1052 C1051 1.523 . S
C1053 C1037 1.429 . S
C1053 C1049 1.429 . S
C1053 C1054 1.523 . S
C1054 C1038 1.368 . S
C1054 C1050 1.368 . S
C1054 C1053 1.523 . S
H1055 C1030 0.950 . S
H1056 C1032 0.950 . S
H1057 C1033 0.949 . S
H1058 C1035 0.950 . S
H1059 C1037 0.950 . S
C1060 C1061 1.349 . S
C1060 C1062 1.327 . S
C1060 H1085 0.950 . S
C1061 C1060 1.349 . S
C1061 C1077 1.349 . S
C1062 C1060 1.327 . S
C1062 C1081 1.429 . S
C1062 H1086 0.950 . S
C1063 C1080 1.574 . S
C1063 C1082 1.368 1_556 S
C1063 H1087 0.949 . S
H1064 C1068 0.949 . S
C1065 C1066 1.349 . S
C1065 C1067 1.327 . S
C1065 H1088 0.950 . S
C1066 C1065 1.349 . S
C1066 C1078 1.349 . S
C1067 C1065 1.327 . S
C1067 C1083 1.429 . S
C1067 H1089 0.950 . S
C1068 H1064 0.949 . S
C1068 C1076 1.574 . S
C1068 C1084 1.368 1_554 S
H1069 C1077 0.950 . S
H1070 C1075 0.950 1_556 S
H1071 C1076 0.949 . S
H1072 C1078 0.950 . S
H1073 C1079 0.950 1_554 S
H1074 C1080 0.949 . S
C1075 H1070 0.950 1_554 S
C1075 C1077 1.327 . S
C1075 C1081 1.429 . S
C1076 C1068 1.574 . S
C1076 H1071 0.949 . S
C1076 C1082 1.368 . S
C1077 C1061 1.349 . S
C1077 H1069 0.950 . S
C1077 C1075 1.327 . S
C1078 C1066 1.349 . S
C1078 H1072 0.950 . S
C1078 C1079 1.327 . S
C1079 H1073 0.950 1_556 S
C1079 C1078 1.327 . S
C1079 C1083 1.429 . S
C1080 C1063 1.574 . S
C1080 H1074 0.949 . S
C1080 C1084 1.368 . S
C1081 C1062 1.429 . S
C1081 C1075 1.429 . S
C1081 C1082 1.523 . S
C1082 C1063 1.368 1_554 S
C1082 C1076 1.368 . S
C1082 C1081 1.523 . S
C1083 C1067 1.429 . S
C1083 C1079 1.429 . S
C1083 C1084 1.523 . S
C1084 C1068 1.368 1_556 S
C1084 C1080 1.368 . S
C1084 C1083 1.523 . S
H1085 C1060 0.950 . S
H1086 C1062 0.950 . S
H1087 C1063 0.949 . S
H1088 C1065 0.950 . S
H1089 C1067 0.950 . S
C1090 C1091 1.349 . S
C1090 C1092 1.327 . S
C1090 H1115 0.950 . S
C1091 C1090 1.349 . S
C1091 C1107 1.349 . S
C1092 C1090 1.327 . S
C1092 C1111 1.429 . S
C1092 H1116 0.950 . S
C1093 C1110 1.574 . S
C1093 C1112 1.368 . S
C1093 H1117 0.949 . S
H1094 C1098 0.949 . S
C1095 C1096 1.349 . S
C1095 C1097 1.327 . S
C1095 H1118 0.950 . S
C1096 C1095 1.349 . S
C1096 C1108 1.349 . S
C1097 C1095 1.327 . S
C1097 C1113 1.429 . S
C1097 H1119 0.950 . S
C1098 H1094 0.949 . S
C1098 C1106 1.574 . S
C1098 C1114 1.368 . S
H1099 C1107 0.950 . S
H1100 C1105 0.950 . S
H1101 C1106 0.949 . S
H1102 C1108 0.950 . S
H1103 C1109 0.950 . S
H1104 C1110 0.949 . S
C1105 H1100 0.950 . S
C1105 C1107 1.327 . S
C1105 C1111 1.429 . S
C1106 C1098 1.574 . S
C1106 H1101 0.949 . S
C1106 C1112 1.368 . S
C1107 C1091 1.349 . S
C1107 H1099 0.950 . S
C1107 C1105 1.327 . S
C1108 C1096 1.349 . S
C1108 H1102 0.950 . S
C1108 C1109 1.327 . S
C1109 H1103 0.950 . S
C1109 C1108 1.327 . S
C1109 C1113 1.429 . S
C1110 C1093 1.574 . S
C1110 H1104 0.949 . S
C1110 C1114 1.368 . S
C1111 C1092 1.429 . S
C1111 C1105 1.429 . S
C1111 C1112 1.523 . S
C1112 C1093 1.368 . S
C1112 C1106 1.368 . S
C1112 C1111 1.523 . S
C1113 C1097 1.429 . S
C1113 C1109 1.429 . S
C1113 C1114 1.523 . S
C1114 C1098 1.368 . S
C1114 C1110 1.368 . S
C1114 C1113 1.523 . S
H1115 C1090 0.950 . S
H1116 C1092 0.950 . S
H1117 C1093 0.949 . S
H1118 C1095 0.950 . S
H1119 C1097 0.950 . S
C1120 C1121 1.349 . S
C1120 C1122 1.327 . S
C1120 H1145 0.950 . S
C1121 C1120 1.349 . S
C1121 C1137 1.349 . S
C1122 C1120 1.327 . S
C1122 C1141 1.429 . S
C1122 H1146 0.950 . S
C1123 C1140 1.574 . S
C1123 C1142 1.368 1_455 S
C1123 H1147 0.949 . S
H1124 C1128 0.949 . S
C1125 C1126 1.349 . S
C1125 C1127 1.327 . S
C1125 H1148 0.950 . S
C1126 C1125 1.349 . S
C1126 C1138 1.349 . S
C1127 C1125 1.327 . S
C1127 C1143 1.429 . S
C1127 H1149 0.950 . S
C1128 H1124 0.949 . S
C1128 C1136 1.574 . S
C1128 C1144 1.368 1_655 S
H1129 C1137 0.950 . S
H1130 C1135 0.950 . S
H1131 C1136 0.949 . S
H1132 C1138 0.950 . S
H1133 C1139 0.950 . S
H1134 C1140 0.949 . S
C1135 H1130 0.950 . S
C1135 C1137 1.327 . S
C1135 C1141 1.429 . S
C1136 C1128 1.574 . S
C1136 H1131 0.949 . S
C1136 C1142 1.368 1_554 S
C1137 C1121 1.349 . S
C1137 H1129 0.950 . S
C1137 C1135 1.327 . S
C1138 C1126 1.349 . S
C1138 H1132 0.950 . S
C1138 C1139 1.327 . S
C1139 H1133 0.950 . S
C1139 C1138 1.327 . S
C1139 C1143 1.429 . S
C1140 C1123 1.574 . S
C1140 H1134 0.949 . S
C1140 C1144 1.368 1_556 S
C1141 C1122 1.429 . S
C1141 C1135 1.429 . S
C1141 C1142 1.523 . S
C1142 C1123 1.368 1_655 S
C1142 C1136 1.368 1_556 S
C1142 C1141 1.523 . S
C1143 C1127 1.429 . S
C1143 C1139 1.429 . S
C1143 C1144 1.523 . S
C1144 C1128 1.368 1_455 S
C1144 C1140 1.368 1_554 S
C1144 C1143 1.523 . S
H1145 C1120 0.950 . S
H1146 C1122 0.950 . S
H1147 C1123 0.949 . S
H1148 C1125 0.950 . S
H1149 C1127 0.950 . S
C1150 C1151 1.349 . S
C1150 C1152 1.327 . S
C1150 H1175 0.950 . S
C1151 C1150 1.349 . S
C1151 C1167 1.349 . S
C1152 C1150 1.327 . S
C1152 C1171 1.429 . S
C1152 H1176 0.950 . S
C1153 C1170 1.574 . S
C1153 C1172 1.368 1_655 S
C1153 H1177 0.949 . S
H1154 C1158 0.949 . S
C1155 C1156 1.349 . S
C1155 C1157 1.327 . S
C1155 H1178 0.950 . S
C1156 C1155 1.349 . S
C1156 C1168 1.349 . S
C1157 C1155 1.327 . S
C1157 C1173 1.429 . S
C1157 H1179 0.950 . S
C1158 H1154 0.949 . S
C1158 C1166 1.574 . S
C1158 C1174 1.368 1_455 S
H1159 C1167 0.950 . S
H1160 C1165 0.950 . S
H1161 C1166 0.949 . S
H1162 C1168 0.950 . S
H1163 C1169 0.950 . S
H1164 C1170 0.949 . S
C1165 H1160 0.950 . S
C1165 C1167 1.327 . S
C1165 C1171 1.429 . S
C1166 C1158 1.574 . S
C1166 H1161 0.949 . S
C1166 C1172 1.368 1_565 S
C1167 C1151 1.349 . S
C1167 H1159 0.950 . S
C1167 C1165 1.327 . S
C1168 C1156 1.349 . S
C1168 H1162 0.950 . S
C1168 C1169 1.327 . S
C1169 H1163 0.950 . S
C1169 C1168 1.327 . S
C1169 C1173 1.429 . S
C1170 C1153 1.574 . S
C1170 H1164 0.949 . S
C1170 C1174 1.368 1_545 S
C1171 C1152 1.429 . S
C1171 C1165 1.429 . S
C1171 C1172 1.523 . S
C1172 C1153 1.368 1_455 S
C1172 C1166 1.368 1_545 S
C1172 C1171 1.523 . S
C1173 C1157 1.429 . S
C1173 C1169 1.429 . S
C1173 C1174 1.523 . S
C1174 C1158 1.368 1_655 S
C1174 C1170 1.368 1_565 S
C1174 C1173 1.523 . S
H1175 C1150 0.950 . S
H1176 C1152 0.950 . S
H1177 C1153 0.949 . S
H1178 C1155 0.950 . S
H1179 C1157 0.950 . S
C1180 C1181 1.349 . S
C1180 C1182 1.327 . S
C1180 H1205 0.950 . S
C1181 C1180 1.349 . S
C1181 C1197 1.349 . S
C1182 C1180 1.327 . S
C1182 C1201 1.429 . S
C1182 H1206 0.950 . S
C1183 C1200 1.555 1_554 S
C1183 C1202 1.368 1_565 S
C1183 H1207 0.949 . S
H1184 C1188 0.949 . S
C1185 C1186 1.349 . S
C1185 C1187 1.327 . S
C1185 H1208 0.950 . S
C1186 C1185 1.349 . S
C1186 C1198 1.349 . S
C1187 C1185 1.327 . S
C1187 C1203 1.429 . S
C1187 H1209 0.950 . S
C1188 H1184 0.949 . S
C1188 C1196 1.555 1_556 S
C1188 C1204 1.368 1_545 S
H1189 C1197 0.950 . S
H1190 C1195 0.950 . S
H1191 C1196 0.954 . S
H1192 C1198 0.950 . S
H1193 C1199 0.950 . S
H1194 C1200 0.954 . S
C1195 H1190 0.950 . S
C1195 C1197 1.327 . S
C1195 C1201 1.429 . S
C1196 C1188 1.555 1_554 S
C1196 H1191 0.954 . S
C1196 C1202 1.386 . S
C1197 C1181 1.349 . S
C1197 H1189 0.950 . S
C1197 C1195 1.327 . S
C1198 C1186 1.349 . S
C1198 H1192 0.950 . S
C1198 C1199 1.327 . S
C1199 H1193 0.950 . S
C1199 C1198 1.327 . S
C1199 C1203 1.429 . S
C1200 C1183 1.555 1_556 S
C1200 H1194 0.954 . S
C1200 C1204 1.386 . S
C1201 C1182 1.429 . S
C1201 C1195 1.429 . S
C1201 C1202 1.523 . S
C1202 C1183 1.368 1_545 S
C1202 C1196 1.386 . S
C1202 C1201 1.523 . S
C1203 C1187 1.429 . S
C1203 C1199 1.429 . S
C1203 C1204 1.523 . S
C1204 C1188 1.368 1_565 S
C1204 C1200 1.386 . S
C1204 C1203 1.523 . S
H1205 C1180 0.950 . S
H1206 C1182 0.950 . S
H1207 C1183 0.949 . S
H1208 C1185 0.950 . S
H1209 C1187 0.950 . S
C1210 C1211 1.349 . S
C1210 C1212 1.327 . S
C1210 H1235 0.950 . S
C1211 C1210 1.349 . S
C1211 C1227 1.349 . S
C1212 C1210 1.327 . S
C1212 C1231 1.429 . S
C1212 H1236 0.950 . S
C1213 C1230 1.574 . S
C1213 C1232 1.368 . S
C1213 H1237 0.949 . S
H1214 C1218 0.949 . S
C1215 C1216 1.349 . S
C1215 C1217 1.327 . S
C1215 H1238 0.950 . S
C1216 C1215 1.349 . S
C1216 C1228 1.349 . S
C1217 C1215 1.327 . S
C1217 C1233 1.429 . S
C1217 H1239 0.950 . S
C1218 H1214 0.949 . S
C1218 C1226 1.574 . S
C1218 C1234 1.368 . S
H1219 C1227 0.950 . S
H1220 C1225 0.950 . S
H1221 C1226 0.949 . S
H1222 C1228 0.950 . S
H1223 C1229 0.950 . S
H1224 C1230 0.949 . S
C1225 H1220 0.950 . S
C1225 C1227 1.327 . S
C1225 C1231 1.429 . S
C1226 C1218 1.574 . S
C1226 H1221 0.949 . S
C1226 C1232 1.368 . S
C1227 C1211 1.349 . S
C1227 H1219 0.950 . S
C1227 C1225 1.327 . S
C1228 C1216 1.349 . S
C1228 H1222 0.950 . S
C1228 C1229 1.327 . S
C1229 H1223 0.950 . S
C1229 C1228 1.327 . S
C1229 C1233 1.429 . S
C1230 C1213 1.574 . S
C1230 H1224 0.949 . S
C1230 C1234 1.368 . S
C1231 C1212 1.429 . S
C1231 C1225 1.429 . S
C1231 C1232 1.523 . S
C1232 C1213 1.368 . S
C1232 C1226 1.368 . S
C1232 C1231 1.523 . S
C1233 C1217 1.429 . S
C1233 C1229 1.429 . S
C1233 C1234 1.523 . S
C1234 C1218 1.368 . S
C1234 C1230 1.368 . S
C1234 C1233 1.523 . S
H1235 C1210 0.950 . S
H1236 C1212 0.950 . S
H1237 C1213 0.949 . S
H1238 C1215 0.950 . S
H1239 C1217 0.950 . S
C1240 C1241 1.349 . S
C1240 C1242 1.327 . S
C1240 H1265 0.947 1_556 S
C1241 C1240 1.349 . S
C1241 C1257 1.349 . S
C1242 C1240 1.327 . S
C1242 C1261 1.429 . S
C1242 H1266 0.950 1_556 S
C1243 C1260 1.534 1_445 S
C1243 C1262 1.405 . S
C1243 H1267 0.956 . S
H1244 C1248 0.956 . S
C1245 C1246 1.349 . S
C1245 C1247 1.327 . S
C1245 H1268 0.947 1_554 S
C1246 C1245 1.349 . S
C1246 C1258 1.349 . S
C1247 C1245 1.327 . S
C1247 C1263 1.429 . S
C1247 H1269 0.950 1_554 S
C1248 H1244 0.956 . S
C1248 C1256 1.534 1_665 S
C1248 C1264 1.405 . S
H1249 C1257 0.950 . S
H1250 C1255 0.950 . S
H1251 C1256 0.949 . S
H1252 C1258 0.950 . S
H1253 C1259 0.950 . S
H1254 C1260 0.949 . S
C1255 H1250 0.950 . S
C1255 C1257 1.327 . S
C1255 C1261 1.429 . S
C1256 C1248 1.534 1_445 S
C1256 H1251 0.949 . S
C1256 C1262 1.368 1_554 S
C1257 C1241 1.349 . S
C1257 H1249 0.950 . S
C1257 C1255 1.327 . S
C1258 C1246 1.349 . S
C1258 H1252 0.950 . S
C1258 C1259 1.327 . S
C1259 H1253 0.950 . S
C1259 C1258 1.327 . S
C1259 C1263 1.429 . S
C1260 C1243 1.534 1_665 S
C1260 H1254 0.949 . S
C1260 C1264 1.368 1_556 S
C1261 C1242 1.429 . S
C1261 C1255 1.429 . S
C1261 C1262 1.523 . S
C1262 C1243 1.405 . S
C1262 C1256 1.368 1_556 S
C1262 C1261 1.523 . S
C1263 C1247 1.429 . S
C1263 C1259 1.429 . S
C1263 C1264 1.523 . S
C1264 C1248 1.405 . S
C1264 C1260 1.368 1_554 S
C1264 C1263 1.523 . S
H1265 C1240 0.947 1_554 S
H1266 C1242 0.950 1_554 S
H1267 C1243 0.956 . S
H1268 C1245 0.947 1_556 S
H1269 C1247 0.950 1_556 S
C1270 C1271 1.349 . S
C1270 C1272 1.327 . S
C1270 H1295 0.950 . S
C1271 C1270 1.349 . S
C1271 C1287 1.349 . S
C1272 C1270 1.327 . S
C1272 C1291 1.429 . S
C1272 H1296 0.950 . S
C1273 C1290 1.574 1_545 S
C1273 C1292 1.368 . S
C1273 H1297 0.949 . S
H1274 C1278 0.949 . S
C1275 C1276 1.349 . S
C1275 C1277 1.327 . S
C1275 H1298 0.950 . S
C1276 C1275 1.349 . S
C1276 C1288 1.349 . S
C1277 C1275 1.327 . S
C1277 C1293 1.429 . S
C1277 H1299 0.950 . S
C1278 H1274 0.949 . S
C1278 C1286 1.574 1_565 S
C1278 C1294 1.368 . S
H1279 C1287 0.950 . S
H1280 C1285 0.950 . S
H1281 C1286 0.949 . S
H1282 C1288 0.950 . S
H1283 C1289 0.950 . S
H1284 C1290 0.949 . S
C1285 H1280 0.950 . S
C1285 C1287 1.327 . S
C1285 C1291 1.429 . S
C1286 C1278 1.574 1_545 S
C1286 H1281 0.949 . S
C1286 C1292 1.368 . S
C1287 C1271 1.349 . S
C1287 H1279 0.950 . S
C1287 C1285 1.327 . S
C1288 C1276 1.349 . S
C1288 H1282 0.950 . S
C1288 C1289 1.327 . S
C1289 H1283 0.950 . S
C1289 C1288 1.327 . S
C1289 C1293 1.429 . S
C1290 C1273 1.574 1_565 S
C1290 H1284 0.949 . S
C1290 C1294 1.368 . S
C1291 C1272 1.429 . S
C1291 C1285 1.429 . S
C1291 C1292 1.523 . S
C1292 C1273 1.368 . S
C1292 C1286 1.368 . S
C1292 C1291 1.523 . S
C1293 C1277 1.429 . S
C1293 C1289 1.429 . S
C1293 C1294 1.523 . S
C1294 C1278 1.368 . S
C1294 C1290 1.368 . S
C1294 C1293 1.523 . S
H1295 C1270 0.950 . S
H1296 C1272 0.950 . S
H1297 C1273 0.949 . S
H1298 C1275 0.950 . S
H1299 C1277 0.950 . S
C1300 C1301 1.349 . S
C1300 C1302 1.327 . S
C1300 H1325 0.950 . S
C1301 C1300 1.349 . S
C1301 C1317 1.349 . S
C1302 C1300 1.327 . S
C1302 C1321 1.429 . S
C1302 H1326 0.950 . S
C1303 C1320 1.574 . S
C1303 C1322 1.368 1_556 S
C1303 H1327 0.949 . S
H1304 C1308 0.949 . S
C1305 C1306 1.349 . S
C1305 C1307 1.327 . S
C1305 H1328 0.950 . S
C1306 C1305 1.349 . S
C1306 C1318 1.349 . S
C1307 C1305 1.327 . S
C1307 C1323 1.429 . S
C1307 H1329 0.950 . S
C1308 H1304 0.949 . S
C1308 C1316 1.574 . S
C1308 C1324 1.368 1_554 S
H1309 C1317 0.950 . S
H1310 C1315 0.950 1_556 S
H1311 C1316 0.949 . S
H1312 C1318 0.950 . S
H1313 C1319 0.950 1_554 S
H1314 C1320 0.949 . S
C1315 H1310 0.950 1_554 S
C1315 C1317 1.327 . S
C1315 C1321 1.429 . S
C1316 C1308 1.574 . S
C1316 H1311 0.949 . S
C1316 C1322 1.368 . S
C1317 C1301 1.349 . S
C1317 H1309 0.950 . S
C1317 C1315 1.327 . S
C1318 C1306 1.349 . S
C1318 H1312 0.950 . S
C1318 C1319 1.327 . S
C1319 H1313 0.950 1_556 S
C1319 C1318 1.327 . S
C1319 C1323 1.429 . S
C1320 C1303 1.574 . S
C1320 H1314 0.949 . S
C1320 C1324 1.368 . S
C1321 C1302 1.429 . S
C1321 C1315 1.429 . S
C1321 C1322 1.523 . S
C1322 C1303 1.368 1_554 S
C1322 C1316 1.368 . S
C1322 C1321 1.523 . S
C1323 C1307 1.429 . S
C1323 C1319 1.429 . S
C1323 C1324 1.523 . S
C1324 C1308 1.368 1_556 S
C1324 C1320 1.368 . S
C1324 C1323 1.523 . S
H1325 C1300 0.950 . S
H1326 C1302 0.950 . S
H1327 C1303 0.949 . S
H1328 C1305 0.950 . S
H1329 C1307 0.950 . S
C1330 C1331 1.349 . S
C1330 C1332 1.327 . S
C1330 H1355 0.950 . S
C1331 C1330 1.349 . S
C1331 C1347 1.349 . S
C1332 C1330 1.327 . S
C1332 C1351 1.429 . S
C1332 H1356 0.950 . S
C1333 C1350 1.574 . S
C1333 C1352 1.368 . S
C1333 H1357 0.949 . S
H1334 C1338 0.949 . S
C1335 C1336 1.349 . S
C1335 C1337 1.327 . S
C1335 H1358 0.950 . S
C1336 C1335 1.349 . S
C1336 C1348 1.349 . S
C1337 C1335 1.327 . S
C1337 C1353 1.429 . S
C1337 H1359 0.950 . S
C1338 H1334 0.949 . S
C1338 C1346 1.574 . S
C1338 C1354 1.368 . S
H1339 C1347 0.950 . S
H1340 C1345 0.950 . S
H1341 C1346 0.949 . S
H1342 C1348 0.950 . S
H1343 C1349 0.950 . S
H1344 C1350 0.949 . S
C1345 H1340 0.950 . S
C1345 C1347 1.327 . S
C1345 C1351 1.429 . S
C1346 C1338 1.574 . S
C1346 H1341 0.949 . S
C1346 C1352 1.368 1_455 S
C1347 C1331 1.349 . S
C1347 H1339 0.950 . S
C1347 C1345 1.327 . S
C1348 C1336 1.349 . S
C1348 H1342 0.950 . S
C1348 C1349 1.327 . S
C1349 H1343 0.950 . S
C1349 C1348 1.327 . S
C1349 C1353 1.429 . S
C1350 C1333 1.574 . S
C1350 H1344 0.949 . S
C1350 C1354 1.368 1_655 S
C1351 C1332 1.429 . S
C1351 C1345 1.429 . S
C1351 C1352 1.523 . S
C1352 C1333 1.368 . S
C1352 C1346 1.368 1_655 S
C1352 C1351 1.523 . S
C1353 C1337 1.429 . S
C1353 C1349 1.429 . S
C1353 C1354 1.523 . S
C1354 C1338 1.368 . S
C1354 C1350 1.368 1_455 S
C1354 C1353 1.523 . S
H1355 C1330 0.950 . S
H1356 C1332 0.950 . S
H1357 C1333 0.949 . S
H1358 C1335 0.950 . S
H1359 C1337 0.950 . S
C641 C21 1.714 . S
C646 C301 1.714 . S
C671 C61 1.714 . S
C676 C181 1.714 . S
C701 C221 1.714 . S
C706 C101 1.714 . S
C731 C261 1.714 . S
C736 C141 1.714 . S
C761 C341 1.779 . S
C766 C621 1.779 . S
C791 C501 1.779 . S
C796 C381 1.779 . S
C821 C541 1.779 . S
C826 C421 1.779 . S
C851 C461 1.779 . S
C856 C581 1.779 . S
C881 C15 1.713 . S
C886 C175 1.713 . S
C911 C215 1.713 . S
C916 C55 1.713 . S
C941 C255 1.713 . S
C946 C95 1.713 . S
C971 C135 1.713 . S
C976 C295 1.713 . S
C1001 C495 1.717 . S
C1006 C335 1.717 . S
C1031 C535 1.717 . S
C1036 C375 1.717 . S
C1061 C575 1.717 . S
C1066 C415 1.717 . S
C1091 C455 1.717 . S
C1096 C615 1.717 . S
C1121 C322 1.820 . S
C1126 C2 1.749 . S
C1151 C42 1.749 . S
C1156 C362 1.820 . S
C1181 C82 1.749 . S
C1186 C402 1.820 . S
C1211 C442 1.820 . S
C1216 C122 1.749 . S
C1241 C162 1.749 . S
C1246 C482 1.820 . S
C1271 C202 1.749 . S
C1276 C522 1.820 . S
C1301 C562 1.820 . S
C1306 C242 1.749 . S
C1331 C602 1.820 . S
C1336 C282 1.749 . S
