# Generated by pormake.
# Topology rob, (6)-cn, num edge types: 1
# Building blocks:
#     Node 0, Type 0, BuildingBlock: BETGAK_clean_sbu_0, # of connection points: 6
#     Node 1, Type 0, BuildingBlock: BETGAK_clean_sbu_0, # of connection points: 6
#     Node 2, Type 0, BuildingBlock: BETGAK_clean_sbu_0, # of connection points: 6
#     Node 3, Type 0, BuildingBlock: BETGAK_clean_sbu_0, # of connection points: 6
#     Edge 4, Type (0, 0), BuildingBlock: OJICUG_clean_linker_0, # of connection points: 2
#     Edge 5, Type (0, 0), BuildingBlock: OJICUG_clean_linker_0, # of connection points: 2
#     Edge 6, Type (0, 0), BuildingBlock: OJICUG_clean_linker_0, # of connection points: 2
#     Edge 7, Type (0, 0), BuildingBlock: OJICUG_clean_linker_0, # of connection points: 2
#     Edge 8, Type (0, 0), BuildingBlock: OJICUG_clean_linker_0, # of connection points: 2
#     Edge 9, Type (0, 0), BuildingBlock: OJICUG_clean_linker_0, # of connection points: 2
#     Edge 10, Type (0, 0), BuildingBlock: OJICUG_clean_linker_0, # of connection points: 2
#     Edge 11, Type (0, 0), BuildingBlock: OJICUG_clean_linker_0, # of connection points: 2
#     Edge 12, Type (0, 0), BuildingBlock: OJICUG_clean_linker_0, # of connection points: 2
#     Edge 13, Type (0, 0), BuildingBlock: OJICUG_clean_linker_0, # of connection points: 2
#     Edge 14, Type (0, 0), BuildingBlock: OJICUG_clean_linker_0, # of connection points: 2
#     Edge 15, Type (0, 0), BuildingBlock: OJICUG_clean_linker_0, # of connection points: 2
# Relax obj value: 0.259
# Max RMSD: 0.249
# Mean RMSD: 0.249
data_MOF--net-rob--node1-BETGAK_clean_sbu_0--edge1-OJICUG_clean_linker_0
_symmetry_space_group_name_H-M    P1
_symmetry_Int_Tables_number       1
_symmetry_cell_setting            triclinic
loop_
_symmetry_equiv_pos_as_xyz
'x, y, z'
_cell_length_a     13.952616
_cell_length_b     14.775256
_cell_length_c     28.980071
_cell_angle_alpha  90.555931
_cell_angle_beta   130.80258
_cell_angle_gamma 90.469538
loop_
_atom_site_label
_atom_site_type_symbol
_atom_site_fract_x
_atom_site_fract_y
_atom_site_fract_z
_atom_type_partial_charge
La0 La 0.19657 0.34865 1.00649 0.0
La1 La 0.39626 0.24247 0.02238 0.0
C2 C 1.04363 0.40442 0.01811 0.0
C3 C 1.0365 0.39504 0.06642 0.0
C4 C 1.03814 0.47372 0.09405 0.0
C5 C 1.04006 0.46931 0.14248 0.0
C6 C 0.04703 0.38554 0.16704 0.0
C7 C 1.04559 0.30584 0.13936 0.0
C8 C 1.03948 0.31052 0.08917 0.0
C9 C 0.36525 0.4469 1.01399 0.0
C10 C 0.4324 0.27289 0.13757 0.0
C11 C 0.54897 0.18631 1.01069 0.0
C12 C 0.55615 0.19558 0.9624 0.0
C13 C 0.55364 0.11687 0.93451 0.0
C14 C 0.55202 0.12125 0.88617 0.0
C15 C 0.54617 0.20504 0.86193 0.0
C16 C 0.54837 0.28477 0.88983 0.0
C17 C 0.55423 0.2801 0.93995 0.0
C18 C 0.22732 0.14449 0.01493 0.0
C19 C 0.16068 0.31848 0.89135 0.0
O20 O 0.14147 0.45157 0.03439 0.0
O21 O 1.02219 0.33191 0.98596 0.0
O22 O 0.24668 0.46633 0.98026 0.0
O23 O 0.38698 0.37764 0.04449 0.0
O24 O 0.31245 0.29682 0.09925 0.0
O25 O 0.49579 0.25789 0.11892 0.0
O26 O 0.45094 0.13938 0.99437 0.0
O27 O 0.57071 0.25881 0.04292 0.0
O28 O 0.34589 0.12498 0.04873 0.0
O29 O 0.206 0.21353 0.98437 0.0
O30 O 0.28064 0.29457 0.9297 0.0
O31 O 0.09719 0.33336 0.90996 0.0
H32 H 1.04183 0.53938 0.07943 0.0
H33 H 1.03731 0.53241 0.16083 0.0
H34 H 0.05288 0.23998 0.15735 0.0
H35 H 1.04135 0.24837 0.06965 0.0
H36 H 0.54913 0.05123 0.94888 0.0
H37 H 0.55418 0.05809 0.86766 0.0
H38 H 0.54191 0.35067 0.87209 0.0
H39 H 0.55304 0.34229 0.95966 0.0
La40 La 0.69646 0.84867 1.00642 0.0
La41 La 0.89615 0.7425 0.02231 0.0
C42 C 0.54352 0.90443 0.01805 0.0
C43 C 0.53638 0.89505 0.06635 0.0
C44 C 0.53823 0.97372 0.09406 0.0
C45 C 0.54012 0.96927 0.14248 0.0
C46 C 0.54684 0.88548 0.16695 0.0
C47 C 0.54517 0.80579 0.13919 0.0
C48 C 0.5391 0.8105 0.08901 0.0
C49 C 0.86516 0.94692 1.01394 0.0
C50 C 0.93229 0.77291 0.1375 0.0
C51 C 0.04885 0.68636 1.01062 0.0
C52 C 0.056 0.69562 0.96231 0.0
C53 C 0.05377 0.6169 0.93452 0.0
C54 C 0.0521 0.62126 0.88617 0.0
C55 C 1.0459 0.70502 0.8618 0.0
C56 C 0.04779 0.78476 0.8896 0.0
C57 C 0.05371 0.78013 0.93974 0.0
C58 C 0.72725 0.6445 0.01488 0.0
C59 C 0.66055 0.8185 0.89128 0.0
O60 O 0.64137 0.95159 0.03434 0.0
O61 O 0.52207 0.83194 0.98588 0.0
O62 O 0.7466 0.96636 0.9802 0.0
O63 O 0.88687 0.87766 0.04444 0.0
O64 O 0.81233 0.79683 0.09918 0.0
O65 O 0.99568 0.75792 0.11885 0.0
O66 O 0.95086 0.6394 0.99432 0.0
O67 O 0.07057 0.75887 0.04283 0.0
O68 O 0.84582 0.62501 0.04867 0.0
O69 O 0.7059 0.71354 0.98431 0.0
O70 O 0.78051 0.79459 0.92962 0.0
O71 O 0.59707 0.83339 0.9099 0.0
H72 H 0.54211 1.03938 0.07951 0.0
H73 H 0.53755 1.03237 0.1609 0.0
H74 H 0.55225 0.73991 0.1571 0.0
H75 H 0.54078 0.74836 0.06943 0.0
H76 H 0.04952 0.55127 0.94899 0.0
H77 H 0.0545 0.5581 0.86774 0.0
H78 H 1.04104 0.85063 0.87177 0.0
H79 H 0.05228 0.84232 0.95937 0.0
La80 La 0.39836 0.85186 0.52477 0.0
La81 La 0.19489 0.7394 0.50409 0.0
C82 C 0.55557 0.91422 0.51706 0.0
C83 C 0.56426 0.90687 0.46889 0.0
C84 C 0.51263 0.97475 0.42509 0.0
C85 C 0.51584 0.96786 0.37817 0.0
C86 C 0.56851 0.89211 0.37319 0.0
C87 C 0.6199 0.8237 0.4165 0.0
C88 C 0.61889 0.83138 0.46438 0.0
C89 C 0.22883 0.94581 0.51725 0.0
C90 C 0.16579 0.77323 0.3913 0.0
C91 C 1.03785 0.67677 0.51184 0.0
C92 C 1.02928 0.68399 0.56007 0.0
C93 C 0.0814 0.61624 0.60398 0.0
C94 C 0.07823 0.62302 0.65091 0.0
C95 C 1.02512 0.69855 0.6558 0.0
C96 C 0.97325 0.76684 0.61239 0.0
C97 C 0.97421 0.75926 0.56449 0.0
C98 C 0.36468 0.64571 0.51157 0.0
C99 C 0.4273 0.81821 0.63754 0.0
O100 O 0.45928 0.95937 0.50261 0.0
O101 O 0.57442 0.84078 0.54674 0.0
O102 O 0.34787 0.9679 0.55197 0.0
O103 O 0.20689 0.87624 0.48561 0.0
O104 O 0.28578 0.8001 0.43093 0.0
O105 O 0.10029 0.75536 0.40853 0.0
O106 O 0.13416 0.63172 0.52624 0.0
O107 O 1.01885 0.75026 0.48217 0.0
O108 O 0.24564 0.62355 0.4768 0.0
O109 O 0.38621 0.71506 0.54326 0.0
O110 O 0.30732 0.79131 0.59789 0.0
O111 O 0.49285 0.83603 0.62033 0.0
H112 H 0.4679 1.03297 0.42639 0.0
H113 H 0.47516 1.02124 0.34506 0.0
H114 H 0.66201 0.76502 0.41366 0.0
H115 H 0.65956 0.77785 0.49734 0.0
H116 H 0.12645 0.55819 0.60274 0.0
H117 H 0.11925 0.56973 0.68409 0.0
H118 H 0.93078 0.82534 0.61516 0.0
H119 H 0.93316 0.8127 0.53145 0.0
La120 La 0.89846 0.35189 0.52484 0.0
La121 La 0.69501 0.23942 0.50417 0.0
C122 C 0.05569 0.41426 0.51714 0.0
C123 C 0.06436 0.40695 0.46895 0.0
C124 C 1.01241 0.4747 0.42506 0.0
C125 C 1.01564 0.46783 0.37815 0.0
C126 C 0.06866 0.39222 0.37327 0.0
C127 C 0.12038 0.32393 0.41668 0.0
C128 C 0.11935 0.3316 0.46456 0.0
C129 C 0.72891 0.44582 0.5173 0.0
C130 C 0.6659 0.27325 0.39137 0.0
C131 C 0.538 0.1768 0.51194 0.0
C132 C 0.52943 0.18405 0.56016 0.0
C133 C 0.58123 0.11617 0.60397 0.0
C134 C 0.57811 0.12296 0.65092 0.0
C135 C 0.52537 0.19863 0.65593 0.0
C136 C 0.47384 0.26706 0.61262 0.0
C137 C 0.47475 0.25947 0.56471 0.0
C138 C 0.86476 0.14572 0.51163 0.0
C139 C 0.92742 0.31823 0.63761 0.0
O140 O 0.95942 0.45942 0.50272 0.0
O141 O 0.0745 0.34079 0.54679 0.0
O142 O 0.84794 0.46792 0.55203 0.0
O143 O 0.70699 0.37626 0.48567 0.0
O144 O 0.78588 0.30014 0.431 0.0
O145 O 0.6004 0.25537 0.4086 0.0
O146 O 0.63433 0.13176 0.52635 0.0
O147 O 0.51896 0.25027 0.48224 0.0
O148 O 0.74573 0.12356 0.47686 0.0
O149 O 0.88632 0.21507 0.54332 0.0
O150 O 0.80743 0.29135 0.59796 0.0
O151 O 0.99298 0.33604 0.6204 0.0
H152 H 0.96742 0.53282 0.42628 0.0
H153 H 0.97471 0.52111 0.34496 0.0
H154 H 0.16278 0.26536 0.41393 0.0
H155 H 0.16028 0.27817 0.49759 0.0
H156 H 0.62601 0.05801 0.60264 0.0
H157 H 0.61887 0.06957 0.68402 0.0
H158 H 0.43167 0.32567 0.61548 0.0
H159 H 0.43396 0.31301 0.53175 0.0
C160 C 0.50426 0.61239 0.97111 0.0
C161 C 0.63404 0.59414 1.01427 0.0
H162 H 0.31778 0.58006 0.93734 0.0
C163 C 0.67501 0.52684 0.05746 0.0
H164 H 0.46972 0.66307 0.93687 0.0
C165 C 0.58809 0.47909 0.05768 0.0
C166 C 0.45831 0.49737 0.01454 0.0
H167 H 0.77455 0.51142 0.09146 0.0
H168 H 0.62264 0.42835 0.09188 0.0
C169 C 0.41733 0.56466 0.97134 0.0
C170 C 0.58687 0.62192 0.55266 0.0
C171 C 0.45909 0.59438 0.5141 0.0
H172 H 0.77023 0.59876 0.58144 0.0
C173 C 0.42058 0.51702 0.47659 0.0
H174 H 0.62048 0.67971 0.58319 0.0
C175 C 0.50688 0.4696 0.47636 0.0
C176 C 0.63464 0.49717 0.51488 0.0
H177 H 0.32352 0.49278 0.44754 0.0
H178 H 0.47329 0.41174 0.44586 0.0
C179 C 0.67318 0.57452 0.55241 0.0
C180 C 1.0043 0.11241 0.97112 0.0
C181 C 0.13408 0.09413 1.0143 0.0
H182 H 0.81778 0.0801 0.93732 0.0
C183 C 0.17499 1.02683 0.05748 0.0
H184 H 0.9698 0.16309 0.93689 0.0
C185 C 0.08803 0.97909 0.05767 0.0
C186 C 0.95826 0.99739 0.01451 0.0
H187 H 0.27453 1.01139 0.09149 0.0
H188 H 0.12254 0.92835 0.09187 0.0
C189 C 0.91733 0.06469 0.97133 0.0
C190 C 0.92059 1.01701 0.47663 0.0
C191 C 0.95915 0.09439 0.51413 0.0
H192 H 0.97322 0.91173 0.44587 0.0
C193 C 0.08692 0.12194 0.55265 0.0
H194 H 0.82354 0.99276 0.44762 0.0
C195 C 0.17318 0.07454 0.55236 0.0
C196 C 0.1346 0.99717 0.51485 0.0
H197 H 0.12055 0.17974 0.58319 0.0
H198 H 0.27022 0.09879 0.58136 0.0
C199 C 1.00685 0.96959 0.47637 0.0
C200 C 0.68158 0.2666 0.30997 0.0
C201 C 0.60626 0.26402 0.32646 0.0
H202 H 0.68618 0.27025 0.23743 0.0
C203 C 0.47428 0.25699 0.28027 0.0
H204 H 0.78391 0.27108 0.34448 0.0
C205 C 0.41861 0.25711 0.21899 0.0
C206 C 0.49363 0.26334 0.20248 0.0
H207 H 0.41366 0.25439 0.29133 0.0
H208 H 0.31628 0.25395 0.1845 0.0
C209 C 0.62585 0.26573 0.24861 0.0
C210 C 0.5066 0.81095 0.23133 0.0
C211 C 0.55873 0.88297 0.22195 0.0
H212 H 0.47103 0.75678 0.28757 0.0
C213 C 0.6199 0.95498 0.26505 0.0
H214 H 0.45716 0.75494 0.19894 0.0
C215 C 0.62263 0.95756 0.31387 0.0
C216 C 0.57019 0.88612 0.32289 0.0
H217 H 0.66533 1.0104 0.26117 0.0
H218 H 0.66528 1.01602 0.3444 0.0
C219 C 0.51378 0.81204 0.28185 0.0
C220 C 0.67446 0.83436 0.80991 0.0
C221 C 0.59939 0.82813 0.82639 0.0
H222 H 0.67951 0.83709 0.7376 0.0
C223 C 0.46718 0.82578 0.78024 0.0
H224 H 0.7768 0.83749 0.84442 0.0
C225 C 0.4115 0.82493 0.71889 0.0
C226 C 0.48687 0.8275 0.70243 0.0
H227 H 0.40681 0.82127 0.7914 0.0
H228 H 0.30917 0.82046 0.68437 0.0
C229 C 0.61885 0.83451 0.74864 0.0
C230 C 0.47094 0.1331 0.7151 0.0
C231 C 0.52367 0.2045 0.70623 0.0
H232 H 0.42767 0.08029 0.76757 0.0
C233 C 0.58025 0.27845 0.74737 0.0
H234 H 0.42819 0.07473 0.6845 0.0
C235 C 0.58723 0.27948 0.79783 0.0
C236 C 0.53468 0.20755 0.80703 0.0
H237 H 0.62324 0.33367 0.74175 0.0
H238 H 0.6368 0.3354 0.83029 0.0
C239 C 0.47341 0.13564 0.76385 0.0
C240 C 0.9185 0.75716 0.21892 0.0
C241 C 0.99352 0.76335 0.20241 0.0
H242 H 0.91354 0.75445 0.29126 0.0
C243 C 0.12574 0.76569 0.24854 0.0
H244 H 0.81616 0.75403 0.18443 0.0
C245 C 0.18147 0.76655 0.3099 0.0
C246 C 0.10615 0.764 0.32639 0.0
H247 H 0.18607 0.77018 0.23736 0.0
H248 H 0.2838 0.771 0.34441 0.0
C249 C 0.97417 0.75702 0.2802 0.0
C250 C 0.12253 0.45778 0.31387 0.0
C251 C 0.07036 0.38624 0.32298 0.0
H252 H 0.16502 0.51071 0.26112 0.0
C253 C 1.01424 0.31206 0.28202 0.0
H254 H 0.16495 0.51632 0.34433 0.0
C255 C 1.00706 0.31095 0.23151 0.0
C256 C 0.05891 0.38306 0.22204 0.0
H257 H 0.9717 0.25672 0.28782 0.0
H258 H 0.95783 0.25484 0.19919 0.0
C259 C 0.11981 0.4552 0.26505 0.0
C260 C 0.11898 0.33444 0.74871 0.0
C261 C 0.987 0.32751 0.7025 0.0
H262 H 0.27694 0.33735 0.84449 0.0
C263 C 0.91163 0.32501 0.71896 0.0
H264 H 0.17964 0.33697 0.73767 0.0
C265 C 0.96731 0.32584 0.78032 0.0
C266 C 0.09953 0.32811 0.82646 0.0
H267 H 0.8093 0.3206 0.68444 0.0
H268 H 0.90694 0.32138 0.79147 0.0
C269 C 0.17461 0.33428 0.80998 0.0
C270 C 0.97099 0.63289 0.71508 0.0
C271 C 1.02338 0.70441 0.70609 0.0
H272 H 0.92798 0.57997 0.76762 0.0
C273 C 0.0796 0.7785 0.74712 0.0
H274 H 0.92852 0.57441 0.68456 0.0
C275 C 0.08658 0.77954 0.79758 0.0
C276 C 1.03438 0.70749 0.8069 0.0
H277 H 0.12232 0.83381 0.74142 0.0
H278 H 0.13588 0.83558 0.82995 0.0
C279 C 0.97346 0.63543 0.76382 0.0
loop_
_geom_bond_atom_site_label_1
_geom_bond_atom_site_label_2
_geom_bond_distance
_geom_bond_site_symmetry_2
_ccdc_geom_bond_type
La0 C2 2.928 1_556 S
La0 O20 2.521 1_556 S
La0 O21 2.628 1_556 S
La0 O22 2.554 1_556 S
La0 O23 2.757 . S
La0 O24 2.470 1_556 S
La0 O29 2.482 1_556 S
La0 O31 2.503 . S
La1 C11 2.928 1_554 S
La1 O23 2.482 1_554 S
La1 O25 2.503 . S
La1 O26 2.521 1_554 S
La1 O27 2.628 1_554 S
La1 O28 2.554 1_554 S
La1 O29 2.757 . S
La1 O30 2.470 1_554 S
C2 La0 2.928 1_554 S
C2 C3 1.503 . S
C2 O20 1.261 . S
C2 O21 1.243 . S
C3 C2 1.503 . S
C3 C4 1.394 . S
C3 C8 1.373 . S
C4 C3 1.394 . S
C4 C5 1.380 . S
C4 H32 0.930 . S
C5 C4 1.380 . S
C5 C6 1.376 . S
C5 H33 0.930 . S
C6 C5 1.376 . S
C6 C7 1.370 . S
C7 C6 1.370 . S
C7 C8 1.396 . S
C7 H34 0.929 . S
C8 C3 1.373 . S
C8 C7 1.396 . S
C8 H35 0.929 . S
C9 O22 1.240 . S
C9 O23 1.289 1_554 S
C10 O24 1.258 . S
C10 O25 1.256 . S
C11 La1 2.928 1_556 S
C11 C12 1.503 . S
C11 O26 1.261 . S
C11 O27 1.243 . S
C12 C11 1.503 . S
C12 C13 1.394 . S
C12 C17 1.373 . S
C13 C12 1.394 . S
C13 C14 1.380 . S
C13 H36 0.937 . S
C14 C13 1.380 . S
C14 C15 1.376 . S
C14 H37 0.930 1_545 S
C15 C14 1.376 . S
C15 C16 1.370 . S
C16 C15 1.370 . S
C16 C17 1.396 . S
C16 H38 0.929 . S
C17 C12 1.373 . S
C17 C16 1.396 . S
C17 H39 0.929 . S
C18 O28 1.240 . S
C18 O29 1.289 1_556 S
C19 O30 1.258 . S
C19 O31 1.256 . S
O20 La0 2.521 1_554 S
O20 C2 1.261 . S
O21 La0 2.628 1_554 S
O21 C2 1.243 . S
O22 La0 2.554 1_554 S
O22 C9 1.240 . S
O23 La0 2.757 . S
O23 La1 2.482 1_556 S
O23 C9 1.289 1_556 S
O24 La0 2.470 1_554 S
O24 C10 1.258 . S
O25 La1 2.503 . S
O25 C10 1.256 . S
O26 La1 2.521 1_556 S
O26 C11 1.261 . S
O27 La1 2.628 1_556 S
O27 C11 1.243 . S
O28 La1 2.554 1_556 S
O28 C18 1.240 . S
O29 La0 2.482 1_554 S
O29 La1 2.757 . S
O29 C18 1.289 1_554 S
O30 La1 2.470 1_556 S
O30 C19 1.258 . S
O31 La0 2.503 . S
O31 C19 1.256 . S
H32 C4 0.930 . S
H33 C5 0.930 . S
H34 C7 0.929 . S
H35 C8 0.929 . S
H36 C13 0.937 . S
H37 C14 0.930 1_565 S
H38 C16 0.929 . S
H39 C17 0.929 . S
La40 C42 2.928 1_556 S
La40 O60 2.521 1_556 S
La40 O61 2.628 1_556 S
La40 O62 2.554 1_556 S
La40 O63 2.757 . S
La40 O64 2.470 1_556 S
La40 O69 2.482 1_556 S
La40 O71 2.503 . S
La41 C51 2.928 1_554 S
La41 O63 2.482 1_554 S
La41 O65 2.503 . S
La41 O66 2.521 1_554 S
La41 O67 2.628 1_554 S
La41 O68 2.554 1_554 S
La41 O69 2.757 . S
La41 O70 2.470 1_554 S
C42 La40 2.928 1_554 S
C42 C43 1.503 . S
C42 O60 1.261 . S
C42 O61 1.243 . S
C43 C42 1.503 . S
C43 C44 1.394 . S
C43 C48 1.373 . S
C44 C43 1.394 . S
C44 C45 1.380 . S
C44 H72 0.937 . S
C45 C44 1.380 . S
C45 C46 1.376 . S
C45 H73 0.930 1_565 S
C46 C45 1.376 . S
C46 C47 1.370 . S
C47 C46 1.370 . S
C47 C48 1.396 . S
C47 H74 0.929 . S
C48 C43 1.373 . S
C48 C47 1.396 . S
C48 H75 0.929 . S
C49 O62 1.240 . S
C49 O63 1.289 1_554 S
C50 O64 1.258 . S
C50 O65 1.256 . S
C51 La41 2.928 1_556 S
C51 C52 1.503 . S
C51 O66 1.261 . S
C51 O67 1.243 . S
C52 C51 1.503 . S
C52 C53 1.394 . S
C52 C57 1.373 . S
C53 C52 1.394 . S
C53 C54 1.380 . S
C53 H76 0.930 . S
C54 C53 1.380 . S
C54 C55 1.376 . S
C54 H77 0.930 . S
C55 C54 1.376 . S
C55 C56 1.370 . S
C56 C55 1.370 . S
C56 C57 1.396 . S
C56 H78 0.929 . S
C57 C52 1.373 . S
C57 C56 1.396 . S
C57 H79 0.929 . S
C58 O68 1.240 . S
C58 O69 1.289 1_556 S
C59 O70 1.258 . S
C59 O71 1.256 . S
O60 La40 2.521 1_554 S
O60 C42 1.261 . S
O61 La40 2.628 1_554 S
O61 C42 1.243 . S
O62 La40 2.554 1_554 S
O62 C49 1.240 . S
O63 La40 2.757 . S
O63 La41 2.482 1_556 S
O63 C49 1.289 1_556 S
O64 La40 2.470 1_554 S
O64 C50 1.258 . S
O65 La41 2.503 . S
O65 C50 1.256 . S
O66 La41 2.521 1_556 S
O66 C51 1.261 . S
O67 La41 2.628 1_556 S
O67 C51 1.243 . S
O68 La41 2.554 1_556 S
O68 C58 1.240 . S
O69 La40 2.482 1_554 S
O69 La41 2.757 . S
O69 C58 1.289 1_554 S
O70 La41 2.470 1_556 S
O70 C59 1.258 . S
O71 La40 2.503 . S
O71 C59 1.256 . S
H72 C44 0.937 . S
H73 C45 0.930 1_545 S
H74 C47 0.929 . S
H75 C48 0.929 . S
H76 C53 0.930 . S
H77 C54 0.930 . S
H78 C56 0.929 . S
H79 C57 0.929 . S
La80 C82 2.928 . S
La80 O100 2.521 . S
La80 O101 2.628 . S
La80 O102 2.554 . S
La80 O103 2.757 . S
La80 O104 2.470 . S
La80 O109 2.482 . S
La80 O111 2.503 . S
La81 C91 2.928 . S
La81 O103 2.482 . S
La81 O105 2.503 . S
La81 O106 2.521 . S
La81 O107 2.628 . S
La81 O108 2.554 . S
La81 O109 2.757 . S
La81 O110 2.470 . S
C82 La80 2.928 . S
C82 C83 1.503 . S
C82 O100 1.261 . S
C82 O101 1.243 . S
C83 C82 1.503 . S
C83 C84 1.394 . S
C83 C88 1.373 . S
C84 C83 1.394 . S
C84 C85 1.380 . S
C84 H112 0.937 . S
C85 C84 1.380 . S
C85 C86 1.376 . S
C85 H113 0.930 1_565 S
C86 C85 1.376 . S
C86 C87 1.370 . S
C87 C86 1.370 . S
C87 C88 1.396 . S
C87 H114 0.929 . S
C88 C83 1.373 . S
C88 C87 1.396 . S
C88 H115 0.929 . S
C89 O102 1.240 . S
C89 O103 1.289 . S
C90 O104 1.258 . S
C90 O105 1.256 . S
C91 La81 2.928 . S
C91 C92 1.503 . S
C91 O106 1.261 . S
C91 O107 1.243 . S
C92 C91 1.503 . S
C92 C93 1.394 . S
C92 C97 1.373 . S
C93 C92 1.394 . S
C93 C94 1.380 . S
C93 H116 0.930 . S
C94 C93 1.380 . S
C94 C95 1.376 . S
C94 H117 0.930 . S
C95 C94 1.376 . S
C95 C96 1.370 . S
C96 C95 1.370 . S
C96 C97 1.396 . S
C96 H118 0.929 . S
C97 C92 1.373 . S
C97 C96 1.396 . S
C97 H119 0.929 . S
C98 O108 1.240 . S
C98 O109 1.289 . S
C99 O110 1.258 . S
C99 O111 1.256 . S
O100 La80 2.521 . S
O100 C82 1.261 . S
O101 La80 2.628 . S
O101 C82 1.243 . S
O102 La80 2.554 . S
O102 C89 1.240 . S
O103 La80 2.757 . S
O103 La81 2.482 . S
O103 C89 1.289 . S
O104 La80 2.470 . S
O104 C90 1.258 . S
O105 La81 2.503 . S
O105 C90 1.256 . S
O106 La81 2.521 . S
O106 C91 1.261 . S
O107 La81 2.628 . S
O107 C91 1.243 . S
O108 La81 2.554 . S
O108 C98 1.240 . S
O109 La80 2.482 . S
O109 La81 2.757 . S
O109 C98 1.289 . S
O110 La81 2.470 . S
O110 C99 1.258 . S
O111 La80 2.503 . S
O111 C99 1.256 . S
H112 C84 0.937 . S
H113 C85 0.930 1_545 S
H114 C87 0.929 . S
H115 C88 0.929 . S
H116 C93 0.930 . S
H117 C94 0.930 . S
H118 C96 0.929 . S
H119 C97 0.929 . S
La120 C122 2.928 . S
La120 O140 2.521 . S
La120 O141 2.628 . S
La120 O142 2.554 . S
La120 O143 2.757 . S
La120 O144 2.470 . S
La120 O149 2.482 . S
La120 O151 2.503 . S
La121 C131 2.928 . S
La121 O143 2.482 . S
La121 O145 2.503 . S
La121 O146 2.521 . S
La121 O147 2.628 . S
La121 O148 2.554 . S
La121 O149 2.757 . S
La121 O150 2.470 . S
C122 La120 2.928 . S
C122 C123 1.503 . S
C122 O140 1.261 . S
C122 O141 1.243 . S
C123 C122 1.503 . S
C123 C124 1.394 . S
C123 C128 1.373 . S
C124 C123 1.394 . S
C124 C125 1.380 . S
C124 H152 0.930 . S
C125 C124 1.380 . S
C125 C126 1.376 . S
C125 H153 0.930 . S
C126 C125 1.376 . S
C126 C127 1.370 . S
C127 C126 1.370 . S
C127 C128 1.396 . S
C127 H154 0.929 . S
C128 C123 1.373 . S
C128 C127 1.396 . S
C128 H155 0.929 . S
C129 O142 1.240 . S
C129 O143 1.289 . S
C130 O144 1.258 . S
C130 O145 1.256 . S
C131 La121 2.928 . S
C131 C132 1.503 . S
C131 O146 1.261 . S
C131 O147 1.243 . S
C132 C131 1.503 . S
C132 C133 1.394 . S
C132 C137 1.373 . S
C133 C132 1.394 . S
C133 C134 1.380 . S
C133 H156 0.937 . S
C134 C133 1.380 . S
C134 C135 1.376 . S
C134 H157 0.930 1_545 S
C135 C134 1.376 . S
C135 C136 1.370 . S
C136 C135 1.370 . S
C136 C137 1.396 . S
C136 H158 0.929 . S
C137 C132 1.373 . S
C137 C136 1.396 . S
C137 H159 0.929 . S
C138 O148 1.240 . S
C138 O149 1.289 . S
C139 O150 1.258 . S
C139 O151 1.256 . S
O140 La120 2.521 . S
O140 C122 1.261 . S
O141 La120 2.628 . S
O141 C122 1.243 . S
O142 La120 2.554 . S
O142 C129 1.240 . S
O143 La120 2.757 . S
O143 La121 2.482 . S
O143 C129 1.289 . S
O144 La120 2.470 . S
O144 C130 1.258 . S
O145 La121 2.503 . S
O145 C130 1.256 . S
O146 La121 2.521 . S
O146 C131 1.261 . S
O147 La121 2.628 . S
O147 C131 1.243 . S
O148 La121 2.554 . S
O148 C138 1.240 . S
O149 La120 2.482 . S
O149 La121 2.757 . S
O149 C138 1.289 . S
O150 La121 2.470 . S
O150 C139 1.258 . S
O151 La120 2.503 . S
O151 C139 1.256 . S
H152 C124 0.930 . S
H153 C125 0.930 . S
H154 C127 0.929 . S
H155 C128 0.929 . S
H156 C133 0.937 . S
H157 C134 0.930 1_565 S
H158 C136 0.929 . S
H159 C137 0.929 . S
C160 C161 1.387 1_554 S
C160 H164 0.950 . S
C160 C169 1.390 . S
C161 C160 1.387 1_556 S
C161 C163 1.387 . S
H162 C169 0.950 . S
C163 C161 1.387 . S
C163 C165 1.390 . S
C163 H167 0.950 . S
H164 C160 0.950 . S
C165 C163 1.390 . S
C165 C166 1.387 1_556 S
C165 H168 0.950 . S
C166 C165 1.387 1_554 S
C166 C169 1.387 . S
H167 C163 0.950 . S
H168 C165 0.950 . S
C169 C160 1.390 . S
C169 H162 0.950 . S
C169 C166 1.387 . S
C170 C171 1.387 . S
C170 H174 0.950 . S
C170 C179 1.390 . S
C171 C170 1.387 . S
C171 C173 1.387 . S
H172 C179 0.950 . S
C173 C171 1.387 . S
C173 C175 1.390 . S
C173 H177 0.950 . S
H174 C170 0.950 . S
C175 C173 1.390 . S
C175 C176 1.387 . S
C175 H178 0.950 . S
C176 C175 1.387 . S
C176 C179 1.387 . S
H177 C173 0.950 . S
H178 C175 0.950 . S
C179 C170 1.390 . S
C179 H172 0.950 . S
C179 C176 1.387 . S
C180 C181 1.387 1_554 S
C180 H184 0.950 . S
C180 C189 1.390 1_455 S
C181 C180 1.387 1_556 S
C181 C183 1.387 1_545 S
H182 C189 0.950 . S
C183 C181 1.387 1_565 S
C183 C185 1.390 1_455 S
C183 H187 0.950 . S
H184 C180 0.950 . S
C185 C183 1.390 1_655 S
C185 C186 1.387 1_556 S
C185 H188 0.950 . S
C186 C185 1.387 1_554 S
C186 C189 1.387 1_565 S
H187 C183 0.950 . S
H188 C185 0.950 . S
C189 C180 1.390 1_655 S
C189 H182 0.950 . S
C189 C186 1.387 1_545 S
C190 C191 1.387 1_565 S
C190 H194 0.950 . S
C190 C199 1.390 1_655 S
C191 C190 1.387 1_545 S
C191 C193 1.387 . S
H192 C199 0.950 . S
C193 C191 1.387 . S
C193 C195 1.390 1_655 S
C193 H197 0.950 . S
H194 C190 0.950 . S
C195 C193 1.390 1_455 S
C195 C196 1.387 1_545 S
C195 H198 0.950 . S
C196 C195 1.387 1_565 S
C196 C199 1.387 . S
H197 C193 0.950 . S
H198 C195 0.950 . S
C199 C190 1.390 1_455 S
C199 H192 0.950 . S
C199 C196 1.387 . S
C200 C201 1.387 . S
C200 H204 0.950 . S
C200 C209 1.390 . S
C201 C200 1.387 . S
C201 C203 1.387 . S
H202 C209 0.950 . S
C203 C201 1.387 . S
C203 C205 1.390 . S
C203 H207 0.950 . S
H204 C200 0.950 . S
C205 C203 1.390 . S
C205 C206 1.387 . S
C205 H208 0.950 . S
C206 C205 1.387 . S
C206 C209 1.387 . S
H207 C203 0.950 . S
H208 C205 0.950 . S
C209 C200 1.390 . S
C209 H202 0.950 . S
C209 C206 1.387 . S
C210 C211 1.387 . S
C210 H214 0.950 . S
C210 C219 1.390 . S
C211 C210 1.387 . S
C211 C213 1.387 1_565 S
H212 C219 0.950 . S
C213 C211 1.387 1_545 S
C213 C215 1.390 . S
C213 H217 0.950 . S
H214 C210 0.950 . S
C215 C213 1.390 . S
C215 C216 1.387 1_545 S
C215 H218 0.950 . S
C216 C215 1.387 1_565 S
C216 C219 1.387 . S
H217 C213 0.950 . S
H218 C215 0.950 . S
C219 C210 1.390 . S
C219 H212 0.950 . S
C219 C216 1.387 . S
C220 C221 1.387 . S
C220 H224 0.950 . S
C220 C229 1.390 . S
C221 C220 1.387 . S
C221 C223 1.387 . S
H222 C229 0.950 . S
C223 C221 1.387 . S
C223 C225 1.390 . S
C223 H227 0.950 . S
H224 C220 0.950 . S
C225 C223 1.390 . S
C225 C226 1.387 . S
C225 H228 0.950 . S
C226 C225 1.387 . S
C226 C229 1.387 . S
H227 C223 0.950 . S
H228 C225 0.950 . S
C229 C220 1.390 . S
C229 H222 0.950 . S
C229 C226 1.387 . S
C230 C231 1.387 1_565 S
C230 H234 0.950 . S
C230 C239 1.390 . S
C231 C230 1.387 1_545 S
C231 C233 1.387 . S
H232 C239 0.950 . S
C233 C231 1.387 . S
C233 C235 1.390 . S
C233 H237 0.950 . S
H234 C230 0.950 . S
C235 C233 1.390 . S
C235 C236 1.387 . S
C235 H238 0.950 . S
C236 C235 1.387 . S
C236 C239 1.387 1_545 S
H237 C233 0.950 . S
H238 C235 0.950 . S
C239 C230 1.390 . S
C239 H232 0.950 . S
C239 C236 1.387 1_565 S
C240 C241 1.387 . S
C240 H244 0.950 . S
C240 C249 1.390 1_655 S
C241 C240 1.387 . S
C241 C243 1.387 . S
H242 C249 0.950 . S
C243 C241 1.387 . S
C243 C245 1.390 1_655 S
C243 H247 0.950 . S
H244 C240 0.950 . S
C245 C243 1.390 1_455 S
C245 C246 1.387 . S
C245 H248 0.950 . S
C246 C245 1.387 . S
C246 C249 1.387 . S
H247 C243 0.950 . S
H248 C245 0.950 . S
C249 C240 1.390 1_455 S
C249 H242 0.950 . S
C249 C246 1.387 . S
C250 C251 1.387 . S
C250 H254 0.950 . S
C250 C259 1.390 1_455 S
C251 C250 1.387 . S
C251 C253 1.387 . S
H252 C259 0.950 . S
C253 C251 1.387 . S
C253 C255 1.390 1_455 S
C253 H257 0.950 . S
H254 C250 0.950 . S
C255 C253 1.390 1_655 S
C255 C256 1.387 . S
C255 H258 0.950 . S
C256 C255 1.387 . S
C256 C259 1.387 . S
H257 C253 0.950 . S
H258 C255 0.950 . S
C259 C250 1.390 1_655 S
C259 H252 0.950 . S
C259 C256 1.387 . S
C260 C261 1.387 . S
C260 H264 0.950 . S
C260 C269 1.390 1_655 S
C261 C260 1.387 . S
C261 C263 1.387 . S
H262 C269 0.950 . S
C263 C261 1.387 . S
C263 C265 1.390 1_655 S
C263 H267 0.950 . S
H264 C260 0.950 . S
C265 C263 1.390 1_455 S
C265 C266 1.387 . S
C265 H268 0.950 . S
C266 C265 1.387 . S
C266 C269 1.387 . S
H267 C263 0.950 . S
H268 C265 0.950 . S
C269 C260 1.390 1_455 S
C269 H262 0.950 . S
C269 C266 1.387 . S
C270 C271 1.387 . S
C270 H274 0.950 . S
C270 C279 1.390 1_655 S
C271 C270 1.387 . S
C271 C273 1.387 . S
H272 C279 0.950 . S
C273 C271 1.387 . S
C273 C275 1.390 1_655 S
C273 H277 0.950 . S
H274 C270 0.950 . S
C275 C273 1.390 1_455 S
C275 C276 1.387 . S
C275 H278 0.950 . S
C276 C275 1.387 . S
C276 C279 1.387 . S
H277 C273 0.950 . S
H278 C275 0.950 . S
C279 C270 1.390 1_455 S
C279 H272 0.950 . S
C279 C276 1.387 . S
C161 C58 1.742 . S
C166 C9 1.742 . S
C171 C98 1.742 . S
C176 C129 1.742 . S
C181 C18 1.742 . S
C186 C49 1.742 . S
C191 C138 1.743 . S
C196 C89 1.743 . S
C201 C130 1.863 . S
C206 C10 1.863 . S
C211 C46 1.190 . S
C216 C86 1.190 . S
C221 C59 1.863 . S
C226 C99 1.863 . S
C231 C135 1.190 . S
C236 C15 1.190 . S
C241 C50 1.862 . S
C246 C90 1.862 . S
C251 C126 1.188 1_455 S
C256 C6 1.188 1_655 S
C261 C139 1.863 . S
C266 C19 1.863 . S
C271 C95 1.190 1_655 S
C276 C55 1.190 1_455 S
