# Generated by pormake.
# Topology fnl, (5)-cn, num edge types: 1
# Building blocks:
#     Node 0, Type 0, BuildingBlock: XOMCOT_clean_sbu_1, # of connection points: 5
#     Node 1, Type 0, BuildingBlock: XOMCOT_clean_sbu_1, # of connection points: 5
#     Node 2, Type 0, BuildingBlock: XOMCOT_clean_sbu_1, # of connection points: 5
#     Node 3, Type 0, BuildingBlock: XOMCOT_clean_sbu_1, # of connection points: 5
#     Node 4, Type 0, BuildingBlock: XOMCOT_clean_sbu_1, # of connection points: 5
#     Node 5, Type 0, BuildingBlock: XOMCOT_clean_sbu_1, # of connection points: 5
#     Node 6, Type 0, BuildingBlock: XOMCOT_clean_sbu_1, # of connection points: 5
#     Node 7, Type 0, BuildingBlock: XOMCOT_clean_sbu_1, # of connection points: 5
#     Node 8, Type 0, BuildingBlock: XOMCOT_clean_sbu_1, # of connection points: 5
#     Node 9, Type 0, BuildingBlock: XOMCOT_clean_sbu_1, # of connection points: 5
#     Node 10, Type 0, BuildingBlock: XOMCOT_clean_sbu_1, # of connection points: 5
#     Node 11, Type 0, BuildingBlock: XOMCOT_clean_sbu_1, # of connection points: 5
#     Node 12, Type 0, BuildingBlock: XOMCOT_clean_sbu_1, # of connection points: 5
#     Node 13, Type 0, BuildingBlock: XOMCOT_clean_sbu_1, # of connection points: 5
#     Node 14, Type 0, BuildingBlock: XOMCOT_clean_sbu_1, # of connection points: 5
#     Node 15, Type 0, BuildingBlock: XOMCOT_clean_sbu_1, # of connection points: 5
#     Edge 16, Type (0, 0), BuildingBlock: TEMPAE_clean_linker_10, # of connection points: 2
#     Edge 17, Type (0, 0), BuildingBlock: TEMPAE_clean_linker_10, # of connection points: 2
#     Edge 18, Type (0, 0), BuildingBlock: TEMPAE_clean_linker_10, # of connection points: 2
#     Edge 19, Type (0, 0), BuildingBlock: TEMPAE_clean_linker_10, # of connection points: 2
#     Edge 20, Type (0, 0), BuildingBlock: TEMPAE_clean_linker_10, # of connection points: 2
#     Edge 21, Type (0, 0), BuildingBlock: TEMPAE_clean_linker_10, # of connection points: 2
#     Edge 22, Type (0, 0), BuildingBlock: TEMPAE_clean_linker_10, # of connection points: 2
#     Edge 23, Type (0, 0), BuildingBlock: TEMPAE_clean_linker_10, # of connection points: 2
#     Edge 24, Type (0, 0), BuildingBlock: TEMPAE_clean_linker_10, # of connection points: 2
#     Edge 25, Type (0, 0), BuildingBlock: TEMPAE_clean_linker_10, # of connection points: 2
#     Edge 26, Type (0, 0), BuildingBlock: TEMPAE_clean_linker_10, # of connection points: 2
#     Edge 27, Type (0, 0), BuildingBlock: TEMPAE_clean_linker_10, # of connection points: 2
#     Edge 28, Type (0, 0), BuildingBlock: TEMPAE_clean_linker_10, # of connection points: 2
#     Edge 29, Type (0, 0), BuildingBlock: TEMPAE_clean_linker_10, # of connection points: 2
#     Edge 30, Type (0, 0), BuildingBlock: TEMPAE_clean_linker_10, # of connection points: 2
#     Edge 31, Type (0, 0), BuildingBlock: TEMPAE_clean_linker_10, # of connection points: 2
#     Edge 32, Type (0, 0), BuildingBlock: TEMPAE_clean_linker_10, # of connection points: 2
#     Edge 33, Type (0, 0), BuildingBlock: TEMPAE_clean_linker_10, # of connection points: 2
#     Edge 34, Type (0, 0), BuildingBlock: TEMPAE_clean_linker_10, # of connection points: 2
#     Edge 35, Type (0, 0), BuildingBlock: TEMPAE_clean_linker_10, # of connection points: 2
#     Edge 36, Type (0, 0), BuildingBlock: TEMPAE_clean_linker_10, # of connection points: 2
#     Edge 37, Type (0, 0), BuildingBlock: TEMPAE_clean_linker_10, # of connection points: 2
#     Edge 38, Type (0, 0), BuildingBlock: TEMPAE_clean_linker_10, # of connection points: 2
#     Edge 39, Type (0, 0), BuildingBlock: TEMPAE_clean_linker_10, # of connection points: 2
#     Edge 40, Type (0, 0), BuildingBlock: TEMPAE_clean_linker_10, # of connection points: 2
#     Edge 41, Type (0, 0), BuildingBlock: TEMPAE_clean_linker_10, # of connection points: 2
#     Edge 42, Type (0, 0), BuildingBlock: TEMPAE_clean_linker_10, # of connection points: 2
#     Edge 43, Type (0, 0), BuildingBlock: TEMPAE_clean_linker_10, # of connection points: 2
#     Edge 44, Type (0, 0), BuildingBlock: TEMPAE_clean_linker_10, # of connection points: 2
#     Edge 45, Type (0, 0), BuildingBlock: TEMPAE_clean_linker_10, # of connection points: 2
#     Edge 46, Type (0, 0), BuildingBlock: TEMPAE_clean_linker_10, # of connection points: 2
#     Edge 47, Type (0, 0), BuildingBlock: TEMPAE_clean_linker_10, # of connection points: 2
#     Edge 48, Type (0, 0), BuildingBlock: TEMPAE_clean_linker_10, # of connection points: 2
#     Edge 49, Type (0, 0), BuildingBlock: TEMPAE_clean_linker_10, # of connection points: 2
#     Edge 50, Type (0, 0), BuildingBlock: TEMPAE_clean_linker_10, # of connection points: 2
#     Edge 51, Type (0, 0), BuildingBlock: TEMPAE_clean_linker_10, # of connection points: 2
#     Edge 52, Type (0, 0), BuildingBlock: TEMPAE_clean_linker_10, # of connection points: 2
#     Edge 53, Type (0, 0), BuildingBlock: TEMPAE_clean_linker_10, # of connection points: 2
#     Edge 54, Type (0, 0), BuildingBlock: TEMPAE_clean_linker_10, # of connection points: 2
#     Edge 55, Type (0, 0), BuildingBlock: TEMPAE_clean_linker_10, # of connection points: 2
# Relax obj value: 0.497
# Max RMSD: 0.266
# Mean RMSD: 0.266
data_MOF--net-fnl--node1-XOMCOT_clean_sbu_1--edge1-TEMPAE_clean_linker_10
_symmetry_space_group_name_H-M    P1
_symmetry_Int_Tables_number       1
_symmetry_cell_setting            triclinic
loop_
_symmetry_equiv_pos_as_xyz
'x, y, z'
_cell_length_a     34.521551
_cell_length_b     34.508622
_cell_length_c     98.429424
_cell_angle_alpha  89.977597
_cell_angle_beta   89.994775
_cell_angle_gamma 89.964193
loop_
_atom_site_label
_atom_site_type_symbol
_atom_site_fract_x
_atom_site_fract_y
_atom_site_fract_z
_atom_type_partial_charge
C0 C 0.94816 0.99675 0.06484 0.0
C1 C 0.94144 0.9575 0.0647 0.0
N2 N 0.97549 0.93914 0.06662 0.0
N3 N 0.98618 0.00312 0.06691 0.0
C4 C 0.00219 0.96753 0.06788 0.0
H5 H 0.92675 0.01934 0.06353 0.0
Co6 Co 0.00866 0.05184 0.06739 0.0
C7 C 0.06521 0.04682 0.08971 0.0
O8 O 0.05247 0.0805 0.09409 0.0
N9 N 0.03105 0.10128 0.06685 0.0
C10 C 0.07276 0.15015 0.06467 0.0
C11 C 0.06884 0.11145 0.06767 0.0
C12 C 0.01339 0.13357 0.06222 0.0
N13 N 0.03768 0.16394 0.06123 0.0
O14 O 0.037 0.03986 0.05148 0.0
H15 H 0.09249 0.09183 0.06978 0.0
H16 H 0.98358 0.13459 0.05901 0.0
O17 O 0.05103 0.03213 0.07884 0.0
C18 C 0.01788 0.04882 0.04091 0.0
O19 O 0.98279 0.06303 0.04244 0.0
N20 N 0.97817 0.06355 0.08304 0.0
C21 C 0.92494 0.07191 0.10436 0.0
C22 C 0.95251 0.04202 0.10442 0.0
C23 C 0.9783 0.03811 0.09369 0.0
C24 C 0.95105 0.09238 0.08268 0.0
C25 C 0.92489 0.09772 0.09337 0.0
H26 H 0.99682 0.01289 0.09362 0.0
H27 H 0.94723 0.10979 0.07378 0.0
H28 H 0.03291 0.96255 0.06919 0.0
H29 H 0.91358 0.94361 0.06343 0.0
H30 H 0.09944 0.16662 0.06471 0.0
H31 H 0.9526 0.01982 0.1122 0.0
H32 H 0.90359 0.12065 0.09264 0.0
C33 C 0.296 0.77325 0.31114 0.0
C34 C 0.33494 0.76655 0.30937 0.0
N35 N 0.35392 0.79964 0.31213 0.0
N36 N 0.29075 0.81014 0.31528 0.0
C37 C 0.32658 0.82573 0.31557 0.0
H38 H 0.27304 0.75222 0.30997 0.0
Co39 Co 0.2437 0.83064 0.32067 0.0
C40 C 0.25946 0.88257 0.34366 0.0
O41 O 0.22812 0.86899 0.34956 0.0
N42 N 0.1954 0.85162 0.32565 0.0
C43 C 0.14719 0.89407 0.32816 0.0
C44 C 0.18554 0.88951 0.32472 0.0
C45 C 0.16238 0.83389 0.3295 0.0
N46 N 0.13293 0.85892 0.33123 0.0
O47 O 0.24498 0.86467 0.30549 0.0
H48 H 0.20492 0.91237 0.32151 0.0
H49 H 0.15868 0.80307 0.33032 0.0
O50 O 0.26974 0.86963 0.332 0.0
C51 C 0.22385 0.85236 0.29583 0.0
O52 O 0.20359 0.8206 0.29781 0.0
N53 N 0.24292 0.79412 0.33492 0.0
C54 C 0.24886 0.73002 0.35225 0.0
C55 C 0.27367 0.76205 0.35364 0.0
C56 C 0.27062 0.79334 0.34482 0.0
C57 C 0.22009 0.76239 0.3329 0.0
C58 C 0.22147 0.73071 0.34173 0.0
H59 H 0.29278 0.81527 0.34537 0.0
H60 H 0.20209 0.76066 0.32394 0.0
H61 H 0.33278 0.85505 0.31879 0.0
H62 H 0.34839 0.7394 0.30651 0.0
H63 H 0.13089 0.92088 0.32811 0.0
H64 H 0.29729 0.76207 0.36088 0.0
H65 H 0.20237 0.70641 0.3399 0.0
C66 C 0.54076 0.10175 0.55813 0.0
C67 C 0.54856 0.13976 0.555 0.0
N68 N 0.51745 0.16137 0.5584 0.0
N69 N 0.5051 0.09945 0.56359 0.0
C70 C 0.49134 0.13601 0.56346 0.0
H71 H 0.56018 0.0774 0.55688 0.0
Co72 Co 0.4832 0.05431 0.57008 0.0
C73 C 0.44188 0.07775 0.59482 0.0
O74 O 0.45902 0.0487 0.60105 0.0
N75 N 0.46076 0.00765 0.5758 0.0
C76 C 0.42054 0.96086 0.58259 0.0
C77 C 0.42511 0.00018 0.58097 0.0
C78 C 0.47555 0.9723 0.57325 0.0
N79 N 0.45238 0.94374 0.57762 0.0
O80 O 0.44637 0.05624 0.55577 0.0
H81 H 0.40306 0.02161 0.58303 0.0
H82 H 0.50209 0.96716 0.56774 0.0
O83 O 0.44831 0.08374 0.58216 0.0
C84 C 0.45919 0.03741 0.54561 0.0
O85 O 0.4926 0.01946 0.54689 0.0
N86 N 0.52242 0.05254 0.5837 0.0
C87 C 0.58502 0.05515 0.60173 0.0
C88 C 0.55924 0.08637 0.60063 0.0
C89 C 0.52875 0.08476 0.59147 0.0
C90 C 0.5486 0.02283 0.58408 0.0
C91 C 0.57962 0.02312 0.59322 0.0
H92 H 0.51089 0.11026 0.59037 0.0
H93 H 0.54725 -0.00033 0.57684 0.0
H94 H 0.46284 0.14378 0.5671 0.0
H95 H 0.57561 0.15064 0.55097 0.0
H96 H 0.39548 0.94594 0.58664 0.0
H97 H 0.56349 0.11284 0.60635 0.0
H98 H 0.59971 -0.00098 0.59333 0.0
C99 C 0.19688 0.36987 0.82127 0.0
C100 C 0.15759 0.37655 0.82099 0.0
N101 N 0.13954 0.34203 0.82043 0.0
N102 N 0.2033 0.33131 0.82119 0.0
C103 C 0.16783 0.3151 0.82044 0.0
H104 H 0.21936 0.39162 0.82184 0.0
Co105 Co 0.25123 0.30731 0.82235 0.0
C106 C 0.23994 0.24863 0.84373 0.0
O107 O 0.27286 0.25955 0.84925 0.0
N108 N 0.29978 0.28331 0.82259 0.0
C109 C 0.34782 0.24036 0.82092 0.0
C110 C 0.30901 0.24525 0.82352 0.0
C111 C 0.3328 0.30023 0.81833 0.0
N112 N 0.36252 0.27511 0.81759 0.0
O113 O 0.24118 0.28099 0.80587 0.0
H114 H 0.28869 0.22198 0.82526 0.0
H115 H 0.33479 0.33009 0.81515 0.0
O116 O 0.22824 0.26458 0.83273 0.0
C117 C 0.25189 0.30074 0.79565 0.0
O118 O 0.26649 0.33541 0.79773 0.0
N119 N 0.26122 0.33574 0.8386 0.0
C120 C 0.26627 0.38834 0.86022 0.0
C121 C 0.23627 0.36101 0.85957 0.0
C122 C 0.23402 0.33554 0.8487 0.0
C123 C 0.29068 0.36215 0.83905 0.0
C124 C 0.29419 0.38816 0.84989 0.0
H125 H 0.2085 0.3176 0.84796 0.0
H126 H 0.31005 0.36555 0.83063 0.0
H127 H 0.16278 0.28416 0.82025 0.0
H128 H 0.14335 0.40451 0.82119 0.0
H129 H 0.36367 0.21328 0.82095 0.0
H130 H 0.21271 0.36107 0.86684 0.0
H131 H 0.31741 0.40924 0.84976 0.0
C132 C 0.97539 0.09561 0.93836 0.0
C133 C 0.96874 0.13363 0.94187 0.0
N134 N 0.99471 0.15606 0.93531 0.0
N135 N 0.00532 0.094 0.92962 0.0
C136 C 0.01667 0.13119 0.92801 0.0
H137 H 0.95912 0.07068 0.94178 0.0
Co138 Co 0.02333 0.04844 0.92187 0.0
C139 C 0.06804 0.07034 0.89771 0.0
O140 O 0.05133 0.04156 0.89122 0.0
N141 N 0.04209 0.00148 0.91447 0.0
C142 C 0.0841 0.95399 0.91006 0.0
C143 C 0.08015 0.99226 0.91362 0.0
C144 C 0.02361 0.96814 0.91132 0.0
N145 N 0.04845 0.93904 0.90859 0.0
O146 O 0.06144 0.04542 0.93583 0.0
H147 H 0.10363 0.0117 0.91615 0.0
H148 H 0.99281 0.96379 0.91208 0.0
O149 O 0.05923 0.07717 0.91013 0.0
C150 C 0.05413 0.01909 0.94452 0.0
O151 O 0.02489 0.9956 0.94223 0.0
N152 N 0.98276 0.05173 0.90922 0.0
C153 C 0.91172 0.06473 0.89629 0.0
C154 C 0.94373 0.0889 0.89385 0.0
C155 C 0.97864 0.08225 0.9005 0.0
C156 C 0.95175 0.02861 0.91202 0.0
C157 C 0.9164 0.03371 0.90535 0.0
H158 H 0.00093 0.10392 0.89949 0.0
H159 H 0.95346 0.00787 0.92022 0.0
H160 H 0.04061 0.1399 0.92165 0.0
H161 H 0.9459 0.14394 0.94848 0.0
H162 H 0.11094 0.93789 0.90929 0.0
H163 H 0.94128 0.11472 0.88766 0.0
H164 H 0.89253 0.01468 0.90785 0.0
C165 C 0.207 0.79168 0.18908 0.0
C166 C 0.16869 0.78239 0.19106 0.0
N167 N 0.14676 0.80706 0.18372 0.0
N168 N 0.20937 0.82203 0.18053 0.0
C169 C 0.17223 0.83091 0.17746 0.0
H170 H 0.23171 0.77723 0.19356 0.0
Co171 Co 0.25616 0.84317 0.17494 0.0
C172 C 0.24007 0.89152 0.15107 0.0
O173 O 0.27201 0.87778 0.14562 0.0
N174 N 0.30437 0.86489 0.16976 0.0
C175 C 0.35197 0.90825 0.16767 0.0
C176 C 0.31374 0.9028 0.17111 0.0
C177 C 0.33748 0.84813 0.16535 0.0
N178 N 0.36656 0.87376 0.16397 0.0
O179 O 0.25337 0.87863 0.18972 0.0
H180 H 0.29417 0.92506 0.17469 0.0
H181 H 0.34146 0.81756 0.16374 0.0
O182 O 0.22951 0.87994 0.16288 0.0
C183 C 0.27476 0.86602 0.19928 0.0
O184 O 0.29599 0.83508 0.19693 0.0
N185 N 0.2587 0.80479 0.16152 0.0
C186 C 0.25492 0.73558 0.14679 0.0
C187 C 0.23001 0.76678 0.14384 0.0
C188 C 0.23211 0.80084 0.15136 0.0
C189 C 0.28208 0.77443 0.16488 0.0
C190 C 0.28189 0.74026 0.15732 0.0
H191 H 0.21 0.8224 0.1497 0.0
H192 H 0.29995 0.77613 0.17388 0.0
H193 H 0.164 0.85391 0.1706 0.0
H194 H 0.15789 0.75956 0.19757 0.0
H195 H 0.36802 0.93516 0.16813 0.0
H196 H 0.20691 0.7642 0.13646 0.0
H197 H 0.30152 0.71722 0.16019 0.0
C198 C 0.51812 0.01382 0.44406 0.0
C199 C 0.52518 0.97523 0.44652 0.0
N200 N 0.50253 0.95399 0.43821 0.0
N201 N 0.49118 0.01705 0.43424 0.0
C202 C 0.48207 0.98017 0.4309 0.0
H203 H 0.53218 0.03813 0.44893 0.0
Co204 Co 0.4747 0.06436 0.42739 0.0
C205 C 0.43075 0.0484 0.4025 0.0
O206 O 0.44814 0.07828 0.3969 0.0
N207 N 0.45764 0.11318 0.4209 0.0
C208 C 0.41789 0.16284 0.41676 0.0
C209 C 0.42011 0.12463 0.42064 0.0
C210 C 0.47752 0.14511 0.41705 0.0
N211 N 0.4541 0.1754 0.41444 0.0
O212 O 0.43578 0.0659 0.4411 0.0
H213 H 0.39583 0.10652 0.42344 0.0
H214 H 0.50858 0.14746 0.4168 0.0
O215 O 0.43886 0.03876 0.41475 0.0
C216 C 0.44525 0.08911 0.45058 0.0
O217 O 0.4768 0.10999 0.44901 0.0
N218 N 0.51593 0.06237 0.415 0.0
C219 C 0.58594 0.05406 0.40097 0.0
C220 C 0.5542 0.0297 0.39825 0.0
C221 C 0.51975 0.03413 0.4054 0.0
C222 C 0.54713 0.08446 0.41846 0.0
C223 C 0.58182 0.082 0.41122 0.0
H224 H 0.49734 0.01288 0.40379 0.0
H225 H 0.54548 0.10336 0.4272 0.0
H226 H 0.46101 0.97262 0.42324 0.0
H227 H 0.54617 0.96382 0.45364 0.0
H228 H 0.39191 0.18028 0.41599 0.0
H229 H 0.55633 0.00572 0.39121 0.0
H230 H 0.60538 0.10106 0.414 0.0
C231 C 0.29493 0.34988 0.6844 0.0
C232 C 0.33357 0.35627 0.68694 0.0
N233 N 0.35346 0.32373 0.68387 0.0
N234 N 0.29035 0.31365 0.67962 0.0
C235 C 0.32632 0.29825 0.67956 0.0
H236 H 0.27169 0.37057 0.68572 0.0
Co237 Co 0.2437 0.2922 0.67409 0.0
C238 C 0.26146 0.24133 0.65094 0.0
O239 O 0.22936 0.2531 0.64507 0.0
N240 N 0.19598 0.26989 0.66885 0.0
C241 C 0.14906 0.22596 0.66653 0.0
C242 C 0.18718 0.23179 0.67001 0.0
C243 C 0.16262 0.28643 0.66463 0.0
N244 N 0.13394 0.26044 0.66307 0.0
O245 O 0.24582 0.25797 0.68925 0.0
H246 H 0.20707 0.20969 0.6735 0.0
H247 H 0.15813 0.31708 0.66341 0.0
O248 O 0.27105 0.25466 0.66261 0.0
C249 C 0.22159 0.26812 0.69832 0.0
O250 O 0.19822 0.2973 0.69573 0.0
N251 N 0.24168 0.32917 0.66011 0.0
C252 C 0.24432 0.39464 0.64345 0.0
C253 C 0.26963 0.36331 0.64134 0.0
C254 C 0.26837 0.33132 0.64991 0.0
C255 C 0.21811 0.36004 0.6627 0.0
C256 C 0.21807 0.39258 0.65428 0.0
H257 H 0.29097 0.30998 0.64888 0.0
H258 H 0.20039 0.36016 0.67177 0.0
H259 H 0.33235 0.26882 0.67647 0.0
H260 H 0.34595 0.38326 0.69044 0.0
H261 H 0.13342 0.19878 0.66683 0.0
H262 H 0.29229 0.36453 0.63374 0.0
H263 H 0.19882 0.41646 0.65659 0.0
C264 C 0.7018 0.26924 0.68933 0.0
C265 C 0.66305 0.26254 0.69156 0.0
N266 N 0.64273 0.2925 0.68638 0.0
N267 N 0.70598 0.30313 0.68272 0.0
C268 C 0.66959 0.31682 0.68116 0.0
H269 H 0.7255 0.25037 0.69216 0.0
Co270 Co 0.75318 0.32321 0.67719 0.0
C271 C 0.73814 0.37171 0.6532 0.0
O272 O 0.76989 0.35759 0.64774 0.0
N273 N 0.80163 0.34403 0.67198 0.0
C274 C 0.84937 0.38689 0.66917 0.0
C275 C 0.81132 0.38197 0.67292 0.0
C276 C 0.83443 0.32666 0.66761 0.0
N277 N 0.86355 0.35199 0.66574 0.0
O278 O 0.75103 0.35907 0.69189 0.0
H279 H 0.79198 0.40467 0.6763 0.0
H280 H 0.83811 0.29594 0.6663 0.0
O281 O 0.7273 0.36025 0.665 0.0
C282 C 0.77391 0.34821 0.7013 0.0
O283 O 0.79551 0.31739 0.69919 0.0
N284 N 0.75516 0.28465 0.66378 0.0
C285 C 0.75356 0.21783 0.64777 0.0
C286 C 0.72832 0.24896 0.64518 0.0
C287 C 0.72911 0.2817 0.6534 0.0
C288 C 0.77819 0.25384 0.66696 0.0
C289 C 0.77887 0.22068 0.65885 0.0
H290 H 0.70688 0.30324 0.65192 0.0
H291 H 0.79547 0.2546 0.67613 0.0
H292 H 0.66294 0.34422 0.67638 0.0
H293 H 0.65084 0.23708 0.69634 0.0
H294 H 0.8655 0.41378 0.66913 0.0
H295 H 0.70627 0.24722 0.63738 0.0
H296 H 0.79812 0.19713 0.66154 0.0
C297 C 0.79667 0.82861 0.19336 0.0
C298 C 0.83533 0.83467 0.196 0.0
N299 N 0.85634 0.81435 0.18691 0.0
N300 N 0.79321 0.80459 0.18266 0.0
C301 C 0.82999 0.79628 0.17896 0.0
H302 H 0.7725 0.84121 0.19878 0.0
Co303 Co 0.74589 0.78966 0.17545 0.0
C304 C 0.76239 0.74431 0.15084 0.0
O305 O 0.73363 0.76241 0.1448 0.0
N306 N 0.69713 0.77414 0.16857 0.0
C307 C 0.64657 0.736 0.1641 0.0
C308 C 0.68483 0.73694 0.16794 0.0
C309 C 0.66564 0.79515 0.16502 0.0
N310 N 0.63476 0.77271 0.16223 0.0
O311 O 0.74222 0.75106 0.18926 0.0
H312 H 0.70232 0.71202 0.17057 0.0
H313 H 0.66401 0.8263 0.16525 0.0
O314 O 0.77124 0.75274 0.16313 0.0
C315 C 0.71753 0.7601 0.19833 0.0
O316 O 0.69579 0.79089 0.19635 0.0
N317 N 0.74986 0.83066 0.16306 0.0
C318 C 0.76153 0.9011 0.14961 0.0
C319 C 0.7841 0.86831 0.14652 0.0
C320 C 0.77806 0.83362 0.1534 0.0
C321 C 0.7291 0.86261 0.16671 0.0
C322 C 0.73334 0.89767 0.1598 0.0
H323 H 0.79818 0.81031 0.15158 0.0
H324 H 0.71012 0.86131 0.17544 0.0
H325 H 0.83737 0.77737 0.17061 0.0
H326 H 0.84696 0.85331 0.20384 0.0
H327 H 0.62852 0.7105 0.16316 0.0
H328 H 0.80802 0.86978 0.13943 0.0
H329 H 0.71559 0.92205 0.1628 0.0
C330 C 0.7967 0.26725 0.82331 0.0
C331 C 0.83587 0.2602 0.8225 0.0
N332 N 0.85423 0.29457 0.82203 0.0
N333 N 0.79069 0.30587 0.82366 0.0
C334 C 0.82624 0.32177 0.82264 0.0
H335 H 0.77404 0.24568 0.82392 0.0
Co336 Co 0.74316 0.33038 0.82549 0.0
C337 C 0.75669 0.38666 0.84741 0.0
O338 O 0.72386 0.37557 0.85296 0.0
N339 N 0.69492 0.35492 0.82637 0.0
C340 C 0.64717 0.39837 0.82517 0.0
C341 C 0.68586 0.39287 0.8279 0.0
C342 C 0.66194 0.3388 0.82173 0.0
N343 N 0.63246 0.36422 0.82119 0.0
O344 O 0.75227 0.35746 0.809 0.0
H345 H 0.70627 0.4158 0.83 0.0
H346 H 0.65992 0.30941 0.81804 0.0
O347 O 0.76754 0.37195 0.83609 0.0
C348 C 0.74 0.3372 0.79911 0.0
O349 O 0.7251 0.30297 0.80177 0.0
N350 N 0.73398 0.3008 0.84154 0.0
C351 C 0.7317 0.24349 0.86171 0.0
C352 C 0.76143 0.27119 0.86142 0.0
C353 C 0.76223 0.29911 0.85127 0.0
C354 C 0.70415 0.27481 0.84191 0.0
C355 C 0.70205 0.24644 0.85204 0.0
H356 H 0.78774 0.31708 0.85058 0.0
H357 H 0.68344 0.27343 0.83382 0.0
H358 H 0.83161 0.35267 0.82265 0.0
H359 H 0.84981 0.23209 0.82225 0.0
H360 H 0.63155 0.42558 0.82543 0.0
H361 H 0.78605 0.26943 0.86821 0.0
H362 H 0.67869 0.22555 0.85174 0.0
C363 C 0.69682 0.86744 0.31768 0.0
C364 C 0.65757 0.87377 0.31683 0.0
N365 N 0.63983 0.83911 0.31697 0.0
N366 N 0.70352 0.82899 0.31867 0.0
C367 C 0.66818 0.81241 0.31799 0.0
H368 H 0.71902 0.88951 0.31776 0.0
Co369 Co 0.75152 0.80576 0.32095 0.0
C370 C 0.74235 0.74767 0.34254 0.0
O371 O 0.77652 0.75781 0.34721 0.0
N372 N 0.80041 0.78185 0.32277 0.0
C373 C 0.8471 0.73713 0.32164 0.0
C374 C 0.80867 0.74491 0.3191 0.0
C375 C 0.83442 0.7957 0.32746 0.0
N376 N 0.86289 0.76916 0.32703 0.0
O377 O 0.74285 0.77619 0.30498 0.0
H378 H 0.78797 0.72469 0.3149 0.0
H379 H 0.8393 0.82483 0.33089 0.0
O380 O 0.72836 0.76469 0.33206 0.0
C381 C 0.75625 0.79329 0.29457 0.0
O382 O 0.77329 0.82703 0.29621 0.0
N383 N 0.75965 0.83798 0.33615 0.0
C384 C 0.76383 0.89714 0.35555 0.0
C385 C 0.73854 0.86556 0.35722 0.0
C386 C 0.73651 0.83676 0.34738 0.0
C387 C 0.78303 0.86925 0.33401 0.0
C388 C 0.78674 0.89836 0.34378 0.0
H389 H 0.71388 0.81544 0.34838 0.0
H390 H 0.79799 0.8723 0.32441 0.0
H391 H 0.66321 0.78147 0.3185 0.0
H392 H 0.64312 0.90155 0.31609 0.0
H393 H 0.8622 0.71019 0.3197 0.0
H394 H 0.71809 0.86428 0.36554 0.0
H395 H 0.8061 0.92234 0.34178 0.0
C396 C 0.47311 0.50975 0.55652 0.0
C397 C 0.46665 0.47148 0.55347 0.0
N398 N 0.49792 0.45081 0.55736 0.0
N399 N 0.5081 0.5132 0.56242 0.0
C400 C 0.52281 0.477 0.56266 0.0
H401 H 0.45321 0.53353 0.55491 0.0
Co402 Co 0.52745 0.55953 0.56884 0.0
C403 C 0.56928 0.53881 0.59382 0.0
O404 O 0.55075 0.56719 0.59993 0.0
N405 N 0.54698 0.60758 0.57452 0.0
C406 C 0.58138 0.65782 0.58203 0.0
C407 C 0.58108 0.61828 0.58016 0.0
C408 C 0.52918 0.64138 0.57186 0.0
N409 N 0.5482 0.67216 0.5769 0.0
O410 O 0.56477 0.55924 0.55464 0.0
H411 H 0.60462 0.5989 0.58266 0.0
H412 H 0.50375 0.64371 0.56557 0.0
O413 O 0.56335 0.53218 0.58116 0.0
C414 C 0.55072 0.57715 0.54447 0.0
O415 O 0.51626 0.59295 0.54577 0.0
N416 N 0.48761 0.55959 0.58228 0.0
C417 C 0.42335 0.55423 0.59958 0.0
C418 C 0.45104 0.5245 0.59901 0.0
C419 C 0.48248 0.52753 0.59026 0.0
C420 C 0.45975 0.58774 0.58218 0.0
C421 C 0.42814 0.58628 0.59102 0.0
H422 H 0.50183 0.50304 0.58951 0.0
H423 H 0.46005 0.61034 0.57474 0.0
H424 H 0.55106 0.47007 0.56672 0.0
H425 H 0.44033 0.45976 0.54915 0.0
H426 H 0.60413 0.67445 0.58683 0.0
H427 H 0.44763 0.49796 0.60475 0.0
H428 H 0.407 0.60944 0.59075 0.0
C429 C 0.04598 0.59479 0.06891 0.0
C430 C 0.05125 0.63371 0.06659 0.0
N431 N 0.01757 0.652 0.06915 0.0
N432 N 0.00917 0.58856 0.07292 0.0
C433 C 0.99244 0.62393 0.07286 0.0
H434 H 0.06776 0.5724 0.06797 0.0
Co435 Co 0.99005 0.53999 0.07762 0.0
C436 C 0.93011 0.55718 0.09909 0.0
O437 O 0.94061 0.52738 0.10643 0.0
N438 N 0.97214 0.48926 0.08194 0.0
C439 C 0.96734 0.43065 0.09138 0.0
C440 C 0.977 0.46858 0.09353 0.0
C441 C 0.96008 0.46237 0.07285 0.0
N442 N 0.95722 0.42661 0.07829 0.0
O443 O 0.95876 0.54092 0.06165 0.0
H444 H 0.99015 0.47914 0.10277 0.0
H445 H 0.95636 0.46783 0.06215 0.0
O446 O 0.94739 0.56456 0.08787 0.0
C447 C 0.97835 0.53255 0.0511 0.0
O448 O 0.01473 0.52217 0.05266 0.0
N449 N 0.0233 0.54002 0.09255 0.0
C450 C 0.08552 0.54791 0.1104 0.0
C451 C 0.05373 0.57342 0.11093 0.0
C452 C 0.02303 0.56903 0.10193 0.0
C453 C 0.05351 0.5146 0.09192 0.0
C454 C 0.08447 0.51738 0.10098 0.0
H455 H 0.0008 0.59104 0.10179 0.0
H456 H 0.05419 0.49288 0.084 0.0
H457 H 0.96242 0.62905 0.07533 0.0
H458 H 0.07807 0.6476 0.06364 0.0
H459 H 0.97179 0.40711 0.09849 0.0
H460 H 0.05361 0.59855 0.1175 0.0
H461 H 0.10806 0.49686 0.10016 0.0
C462 C 0.48663 0.60297 0.44126 0.0
C463 C 0.47788 0.6412 0.44369 0.0
N464 N 0.49946 0.66337 0.43532 0.0
N465 N 0.51359 0.60087 0.43141 0.0
C466 C 0.52103 0.63811 0.42802 0.0
H467 H 0.47404 0.57811 0.44629 0.0
Co468 Co 0.53219 0.55406 0.42483 0.0
C469 C 0.58008 0.5714 0.40097 0.0
O470 O 0.56472 0.54093 0.39504 0.0
N471 N 0.55126 0.50571 0.4187 0.0
C472 C 0.59241 0.45662 0.41555 0.0
C473 C 0.589 0.49502 0.41909 0.0
C474 C 0.53248 0.47315 0.41484 0.0
N475 N 0.55676 0.44318 0.41282 0.0
O476 O 0.5689 0.5531 0.43929 0.0
H477 H 0.61252 0.51372 0.42219 0.0
H478 H 0.5015 0.4701 0.41429 0.0
O479 O 0.5695 0.5807 0.41301 0.0
C480 C 0.5584 0.52995 0.44865 0.0
O481 O 0.52717 0.5089 0.44666 0.0
N482 N 0.49305 0.55534 0.41158 0.0
C483 C 0.42577 0.56212 0.3959 0.0
C484 C 0.45764 0.58674 0.39377 0.0
C485 C 0.49064 0.58317 0.40176 0.0
C486 C 0.46161 0.53284 0.41439 0.0
C487 C 0.42827 0.53462 0.40637 0.0
H488 H 0.5129 0.60478 0.40058 0.0
H489 H 0.46186 0.51424 0.42323 0.0
H490 H 0.54111 0.64654 0.42013 0.0
H491 H 0.45749 0.6518 0.45117 0.0
H492 H 0.61876 0.4396 0.4154 0.0
H493 H 0.45651 0.61037 0.38655 0.0
H494 H 0.40437 0.5155 0.40872 0.0
C495 C 0.02114 0.50524 0.94836 0.0
C496 C 0.02819 0.46641 0.95034 0.0
N497 N 0.00794 0.44618 0.94101 0.0
N498 N 0.9966 0.50958 0.93785 0.0
C499 C 0.98891 0.47315 0.9336 0.0
H500 H 0.03307 0.52894 0.95421 0.0
Co501 Co 0.97977 0.55743 0.93161 0.0
C502 C 0.93479 0.54363 0.90681 0.0
O503 O 0.95216 0.57383 0.90142 0.0
N504 N 0.96212 0.60665 0.92572 0.0
C505 C 0.92152 0.65588 0.922 0.0
C506 C 0.92453 0.61788 0.92604 0.0
C507 C 0.98126 0.63851 0.92135 0.0
N508 N 0.95726 0.66854 0.919 0.0
O509 O 0.94149 0.55734 0.94559 0.0
H510 H 0.90069 0.59962 0.92917 0.0
H511 H 0.01223 0.64073 0.92031 0.0
O512 O 0.94343 0.53285 0.9189 0.0
C513 C 0.95013 0.58046 0.9552 0.0
O514 O 0.98029 0.60329 0.95365 0.0
N515 N 0.02059 0.55689 0.91903 0.0
C516 C 0.0911 0.54902 0.90528 0.0
C517 C 0.05902 0.52577 0.90195 0.0
C518 C 0.02433 0.52989 0.90899 0.0
C519 C 0.05181 0.57848 0.92283 0.0
C520 C 0.08688 0.57607 0.91581 0.0
H521 H 0.00171 0.50919 0.90695 0.0
H522 H 0.04987 0.59685 0.93171 0.0
H523 H 0.97038 0.46651 0.92507 0.0
H524 H 0.04641 0.4541 0.95818 0.0
H525 H 0.89527 0.67299 0.92144 0.0
H526 H 0.06114 0.50267 0.89456 0.0
H527 H 0.11071 0.59432 0.91897 0.0
C528 C 0.94303 0.35712 0.07765 0.0
C529 C 0.95703 0.39032 0.07114 0.0
C530 C 0.95248 0.32015 0.07285 0.0
C531 C 0.9764 0.31652 0.06124 0.0
C532 C 0.98666 0.34984 0.05369 0.0
C533 C 0.97691 0.38653 0.05877 0.0
C534 C 0.94029 0.28524 0.08106 0.0
C535 C 0.01129 0.34708 0.04106 0.0
C536 C 0.04611 0.23342 0.06563 0.0
C537 C 0.02676 0.20357 0.05882 0.0
C538 C 0.03124 0.27114 0.0657 0.0
C539 C 0.99626 0.27916 0.05871 0.0
C540 C 0.97843 0.24997 0.05082 0.0
C541 C 0.99388 0.21238 0.051 0.0
C542 C 0.0514 0.30164 0.07414 0.0
C543 C 0.94168 0.25764 0.04297 0.0
H544 H 0.92706 0.36017 0.08707 0.0
H545 H 0.98783 0.41208 0.05365 0.0
H546 H 0.92898 0.26212 0.07432 0.0
H547 H 0.96583 0.27332 0.0865 0.0
H548 H 0.91772 0.29256 0.08869 0.0
H549 H 0.00893 0.37368 0.03475 0.0
H550 H 0.04207 0.3434 0.04403 0.0
H551 H 0.00296 0.32166 0.03482 0.0
H552 H 0.07141 0.22679 0.0717 0.0
H553 H 0.97938 0.18957 0.04542 0.0
H554 H 0.03297 0.30939 0.08297 0.0
H555 H 0.05591 0.32837 0.06808 0.0
H556 H 0.07994 0.29159 0.07799 0.0
H557 H 0.91669 0.25739 0.05005 0.0
H558 H 0.93662 0.23521 0.03507 0.0
H559 H 0.94251 0.28653 0.03803 0.0
C560 C 0.0852 0.81621 0.34204 0.0
C561 C 0.09345 0.84833 0.33381 0.0
C562 C 0.04756 0.8014 0.34292 0.0
C563 C 0.01769 0.81921 0.33535 0.0
C564 C 0.02541 0.85302 0.32765 0.0
C565 C 0.06332 0.86728 0.32701 0.0
C566 C 0.0402 0.76569 0.35141 0.0
C567 C 0.99409 0.87287 0.3195 0.0
C568 C 0.93231 0.76188 0.3223 0.0
C569 C 0.90255 0.77607 0.33055 0.0
C570 C 0.97054 0.7743 0.32419 0.0
C571 C 0.9789 0.8012 0.33465 0.0
C572 C 0.94937 0.81338 0.34363 0.0
C573 C 0.91143 0.80069 0.34143 0.0
C574 C 0.00147 0.76059 0.31446 0.0
C575 C 0.95737 0.84152 0.35503 0.0
H576 H 0.10852 0.80199 0.34747 0.0
H577 H 0.06976 0.89193 0.32058 0.0
H578 H 0.01455 0.76998 0.35803 0.0
H579 H 0.03384 0.74079 0.34465 0.0
H580 H 0.06548 0.75809 0.35787 0.0
H581 H 0.00437 0.90022 0.31476 0.0
H582 H 0.98387 0.8532 0.31133 0.0
H583 H 0.96884 0.87954 0.32606 0.0
H584 H 0.92529 0.74298 0.31386 0.0
H585 H 0.88833 0.81104 0.34795 0.0
H586 H 0.027 0.74966 0.32013 0.0
H587 H 0.01138 0.78528 0.30812 0.0
H588 H 0.99088 0.73728 0.30762 0.0
H589 H 0.98331 0.83246 0.36088 0.0
H590 H 0.93244 0.84408 0.36212 0.0
H591 H 0.9635 0.8706 0.35073 0.0
C592 C 0.47564 0.88665 0.5655 0.0
C593 C 0.46158 0.90349 0.57743 0.0
C594 C 0.48928 0.84852 0.56549 0.0
C595 C 0.48971 0.82744 0.57781 0.0
C596 C 0.47509 0.84428 0.58988 0.0
C597 C 0.46066 0.88217 0.58949 0.0
C598 C 0.50357 0.83099 0.55235 0.0
C599 C 0.47582 0.82275 0.60324 0.0
C600 C 0.4941 0.71854 0.57578 0.0
C601 C 0.53395 0.71136 0.57729 0.0
C602 C 0.47939 0.7562 0.57589 0.0
C603 C 0.50496 0.78749 0.57799 0.0
C604 C 0.54501 0.78068 0.57992 0.0
C605 C 0.55914 0.74261 0.57942 0.0
C606 C 0.43653 0.7625 0.57361 0.0
C607 C 0.5729 0.81361 0.58243 0.0
H608 H 0.4762 0.90362 0.55623 0.0
H609 H 0.45031 0.8959 0.59871 0.0
H610 H 0.53472 0.82354 0.55326 0.0
H611 H 0.48772 0.8037 0.55021 0.0
H612 H 0.49983 0.85091 0.54358 0.0
H613 H 0.46328 0.84009 0.61168 0.0
H614 H 0.45941 0.79525 0.60238 0.0
H615 H 0.50612 0.81507 0.60589 0.0
H616 H 0.47404 0.69472 0.57459 0.0
H617 H 0.58988 0.73745 0.58058 0.0
H618 H 0.43201 0.78152 0.56466 0.0
H619 H 0.42358 0.77738 0.5825 0.0
H620 H 0.42068 0.73491 0.57191 0.0
H621 H 0.57357 0.8331 0.57347 0.0
H622 H 0.60281 0.80322 0.58446 0.0
H623 H 0.56302 0.83113 0.59122 0.0
C624 C 0.43178 0.26679 0.82214 0.0
C625 C 0.40211 0.28461 0.81475 0.0
C626 C 0.46994 0.28017 0.8212 0.0
C627 C 0.47845 0.31179 0.81253 0.0
C628 C 0.44906 0.32811 0.80432 0.0
C629 C 0.41106 0.31442 0.8056 0.0
C630 C 0.5006 0.26208 0.83014 0.0
C631 C 0.45733 0.36126 0.79474 0.0
C632 C 0.56267 0.37204 0.82477 0.0
C633 C 0.59328 0.35567 0.81745 0.0
C634 C 0.52463 0.35926 0.82278 0.0
C635 C 0.51725 0.32982 0.8131 0.0
C636 C 0.54772 0.3152 0.80499 0.0
C637 C 0.58554 0.32818 0.80733 0.0
C638 C 0.49279 0.37546 0.83164 0.0
C639 C 0.54074 0.28445 0.79436 0.0
H640 H 0.42473 0.24392 0.82926 0.0
H641 H 0.38811 0.32767 0.79969 0.0
H642 H 0.52615 0.2536 0.82399 0.0
H643 H 0.51055 0.28357 0.83776 0.0
H644 H 0.48976 0.23608 0.8356 0.0
H645 H 0.43272 0.36689 0.78774 0.0
H646 H 0.46292 0.38798 0.80068 0.0
H647 H 0.48366 0.35523 0.78863 0.0
H648 H 0.56884 0.39317 0.83262 0.0
H649 H 0.60927 0.31614 0.80149 0.0
H650 H 0.48182 0.35239 0.8385 0.0
H651 H 0.4681 0.38534 0.82532 0.0
H652 H 0.50288 0.40014 0.83796 0.0
H653 H 0.53428 0.25646 0.79942 0.0
H654 H 0.56628 0.28033 0.78765 0.0
H655 H 0.5153 0.29203 0.788 0.0
C656 C 0.99704 0.71333 0.90553 0.0
C657 C 0.96848 0.70719 0.9154 0.0
C658 C 0.01028 0.75083 0.9026 0.0
C659 C 0.99531 0.78258 0.91003 0.0
C660 C 0.96588 0.7765 0.91984 0.0
C661 C 0.95247 0.73883 0.92227 0.0
C662 C 0.04088 0.75636 0.89182 0.0
C663 C 0.94977 0.80953 0.92817 0.0
C664 C 0.05734 0.87148 0.91565 0.0
C665 C 0.03837 0.89887 0.90755 0.0
C666 C 0.04428 0.8331 0.91625 0.0
C667 C 0.01203 0.82183 0.90828 0.0
C668 C 0.99414 0.84894 0.8995 0.0
C669 C 0.0072 0.88742 0.8994 0.0
C670 C 0.06361 0.80525 0.92596 0.0
C671 C 0.9604 0.83768 0.89058 0.0
H672 H 0.00903 0.68868 0.90015 0.0
H673 H 0.93068 0.73382 0.93 0.0
H674 H 0.03189 0.77936 0.88459 0.0
H675 H 0.06834 0.76593 0.89659 0.0
H676 H 0.04656 0.72929 0.88604 0.0
H677 H 0.92632 0.79999 0.93514 0.0
H678 H 0.97328 0.82272 0.93431 0.0
H679 H 0.93816 0.83249 0.92142 0.0
H680 H 0.08109 0.88066 0.92209 0.0
H681 H 0.99277 0.90882 0.89312 0.0
H682 H 0.07277 0.77863 0.92053 0.0
H683 H 0.04267 0.79639 0.93393 0.0
H684 H 0.08937 0.81817 0.93098 0.0
H685 H 0.9671 0.81068 0.88493 0.0
H686 H 0.95289 0.8608 0.88318 0.0
H687 H 0.93462 0.83181 0.89698 0.0
C688 C 0.43577 0.87905 0.16934 0.0
C689 C 0.40618 0.86424 0.16115 0.0
C690 C 0.47379 0.86519 0.16813 0.0
C691 C 0.48233 0.8365 0.15828 0.0
C692 C 0.45295 0.82333 0.14939 0.0
C693 C 0.41502 0.83704 0.15106 0.0
C694 C 0.50423 0.8795 0.17794 0.0
C695 C 0.46117 0.79355 0.13853 0.0
C696 C 0.58913 0.81867 0.15184 0.0
C697 C 0.59594 0.78615 0.16002 0.0
C698 C 0.55186 0.83451 0.15067 0.0
C699 C 0.52106 0.81789 0.15815 0.0
C700 C 0.52766 0.78441 0.16616 0.0
C701 C 0.56502 0.76871 0.16688 0.0
C702 C 0.54567 0.86957 0.14175 0.0
C703 C 0.49564 0.76619 0.17444 0.0
H704 H 0.42867 0.89977 0.17723 0.0
H705 H 0.39197 0.82594 0.14468 0.0
H706 H 0.51355 0.8553 0.18461 0.0
H707 H 0.53019 0.88966 0.17234 0.0
H708 H 0.49344 0.90352 0.18443 0.0
H709 H 0.43649 0.79017 0.13139 0.0
H710 H 0.48737 0.8017 0.13266 0.0
H711 H 0.46701 0.76507 0.14334 0.0
H712 H 0.61316 0.83186 0.14647 0.0
H713 H 0.5705 0.74386 0.17333 0.0
H714 H 0.53842 0.89504 0.14814 0.0
H715 H 0.52087 0.86468 0.13479 0.0
H716 H 0.57174 0.87662 0.13561 0.0
H717 H 0.48483 0.78732 0.18205 0.0
H718 H 0.50541 0.73969 0.17987 0.0
H719 H 0.47089 0.75845 0.1678 0.0
C720 C 0.49721 0.22121 0.4028 0.0
C721 C 0.46644 0.21432 0.41175 0.0
C722 C 0.51241 0.25859 0.40116 0.0
C723 C 0.49703 0.28941 0.40896 0.0
C724 C 0.4652 0.28273 0.41774 0.0
C725 C 0.44998 0.24524 0.4189 0.0
C726 C 0.54563 0.26484 0.39143 0.0
C727 C 0.44844 0.31474 0.4264 0.0
C728 C 0.5612 0.37408 0.41849 0.0
C729 C 0.5454 0.40376 0.41055 0.0
C730 C 0.5464 0.33633 0.41779 0.0
C731 C 0.51569 0.3281 0.40869 0.0
C732 C 0.50117 0.35758 0.40009 0.0
C733 C 0.51589 0.39528 0.40126 0.0
C734 C 0.56219 0.30582 0.42731 0.0
C735 C 0.46921 0.34963 0.39 0.0
H736 H 0.50961 0.19714 0.39722 0.0
H737 H 0.42649 0.23965 0.42594 0.0
H738 H 0.53945 0.28977 0.38465 0.0
H739 H 0.5723 0.27188 0.39721 0.0
H740 H 0.55139 0.23884 0.38509 0.0
H741 H 0.42289 0.30499 0.43235 0.0
H742 H 0.47083 0.32542 0.43357 0.0
H743 H 0.43966 0.33959 0.41995 0.0
H744 H 0.5837 0.38092 0.42578 0.0
H745 H 0.50398 0.41841 0.39509 0.0
H746 H 0.57153 0.27991 0.4215 0.0
H747 H 0.53907 0.29641 0.43441 0.0
H748 H 0.58716 0.31654 0.43335 0.0
H749 H 0.47615 0.32354 0.38388 0.0
H750 H 0.46435 0.37446 0.38302 0.0
H751 H 0.44181 0.34366 0.3955 0.0
C752 C 0.93337 0.35895 0.66965 0.0
C753 C 0.90277 0.34208 0.66248 0.0
C754 C 0.9713 0.34529 0.66805 0.0
C755 C 0.97863 0.31452 0.65888 0.0
C756 C 0.94813 0.29904 0.65099 0.0
C757 C 0.91039 0.3128 0.65299 0.0
C758 C 0.00311 0.36229 0.67674 0.0
C759 C 0.95506 0.26688 0.64088 0.0
C760 C 0.08475 0.29887 0.65114 0.0
C761 C 0.09414 0.26964 0.66045 0.0
C762 C 0.04665 0.31239 0.64992 0.0
C763 C 0.01762 0.29668 0.65843 0.0
C764 C 0.02664 0.26582 0.66738 0.0
C765 C 0.06486 0.25243 0.6682 0.0
C766 C 0.03788 0.34465 0.64002 0.0
C767 C 0.99645 0.24857 0.6767 0.0
H768 H 0.92727 0.38134 0.67706 0.0
H769 H 0.88658 0.30016 0.64735 0.0
H770 H 0.0143 0.3398 0.68378 0.0
H771 H 0.02768 0.3718 0.67029 0.0
H772 H 0.99294 0.38741 0.68283 0.0
H773 H 0.92927 0.26142 0.63441 0.0
H774 H 0.98003 0.27398 0.63423 0.0
H775 H 0.96231 0.23974 0.64636 0.0
H776 H 0.10753 0.31179 0.64507 0.0
H777 H 0.07232 0.2301 0.67549 0.0
H778 H 0.0318 0.37175 0.64569 0.0
H779 H 0.01167 0.3377 0.63398 0.0
H780 H 0.0624 0.3501 0.63296 0.0
H781 H 0.98663 0.27083 0.68407 0.0
H782 H 0.00767 0.22323 0.68245 0.0
H783 H 0.97072 0.23931 0.67079 0.0
C784 C 0.07328 0.03437 0.02513 0.0
C785 C 0.03423 0.04418 0.02715 0.0
C786 C 0.08841 0.03019 0.01194 0.0
C787 C 0.06363 0.03527 0.00062 0.0
C788 C 0.02435 0.04567 0.00266 0.0
C789 C 0.01027 0.05013 0.01587 0.0
C790 C 0.13051 0.01954 0.0102 0.0
C791 C 0.99675 0.05131 0.99088 0.0
C792 C 0.08402 0.05496 0.96387 0.0
C793 C 0.07115 0.01996 0.95824 0.0
C794 C 0.08716 0.05915 0.97801 0.0
C795 C 0.07702 0.02766 0.98654 0.0
C796 C 0.06983 0.99083 0.98077 0.0
C797 C 0.06694 0.98744 0.96664 0.0
C798 C 0.09641 0.09851 0.98381 0.0
C799 C 0.05977 0.95625 0.98947 0.0
H800 H 0.09202 0.03001 0.03384 0.0
H801 H 0.98011 0.0578 0.01733 0.0
H802 H 0.13292 0.98793 0.00836 0.0
H803 H 0.14346 0.03468 0.00135 0.0
H804 H 0.14768 0.02658 0.01942 0.0
H805 H 0.96725 0.05988 0.99425 0.0
H806 H 0.0079 0.07404 0.98394 0.0
H807 H 0.99437 0.02406 0.98496 0.0
H808 H 0.08784 0.08009 0.95739 0.0
H809 H 0.05791 0.96006 0.96226 0.0
H810 H 0.11397 0.09586 0.99321 0.0
H811 H 0.06901 0.11353 0.98649 0.0
H812 H 0.1123 0.11679 0.97638 0.0
H813 H 0.07899 0.9546 0.99848 0.0
H814 H 0.06204 0.92867 0.98371 0.0
H815 H 0.02955 0.95926 0.99318 0.0
C816 C 0.20505 0.85226 0.27148 0.0
C817 C 0.22568 0.86968 0.2821 0.0
C818 C 0.21182 0.86266 0.25796 0.0
C819 C 0.23943 0.89178 0.25499 0.0
C820 C 0.2571 0.91253 0.26573 0.0
C821 C 0.25038 0.90091 0.27922 0.0
C822 C 0.19214 0.83977 0.24683 0.0
C823 C 0.2852 0.94505 0.26299 0.0
C824 C 0.29396 0.86338 0.22352 0.0
C825 C 0.27144 0.88069 0.21334 0.0
C826 C 0.2858 0.86945 0.23726 0.0
C827 C 0.2549 0.8943 0.24094 0.0
C828 C 0.23503 0.91546 0.23075 0.0
C829 C 0.24321 0.90802 0.21699 0.0
C830 C 0.30779 0.84614 0.24774 0.0
C831 C 0.20325 0.94371 0.23429 0.0
H832 H 0.18526 0.82866 0.27363 0.0
H833 H 0.26584 0.91509 0.28742 0.0
H834 H 0.17878 0.85954 0.2393 0.0
H835 H 0.21395 0.8219 0.2414 0.0
H836 H 0.16929 0.8202 0.25085 0.0
H837 H 0.2876 0.96479 0.27187 0.0
H838 H 0.31434 0.93281 0.26094 0.0
H839 H 0.2763 0.96212 0.25396 0.0
H840 H 0.31644 0.84287 0.22079 0.0
H841 H 0.22613 0.92207 0.20917 0.0
H842 H 0.28803 0.82475 0.25253 0.0
H843 H 0.31887 0.86528 0.2559 0.0
H844 H 0.33268 0.8302 0.24326 0.0
H845 H 0.17545 0.92788 0.2353 0.0
H846 H 0.19965 0.96588 0.2262 0.0
H847 H 0.20919 0.95853 0.24407 0.0
C848 C 0.45967 0.02314 0.52094 0.0
C849 C 0.44092 0.04015 0.53207 0.0
C850 C 0.44798 0.03111 0.50765 0.0
C851 C 0.41593 0.05595 0.50539 0.0
C852 C 0.39424 0.06983 0.5166 0.0
C853 C 0.40736 0.06223 0.52987 0.0
C854 C 0.47224 0.01562 0.49605 0.0
C855 C 0.35866 0.09462 0.5147 0.0
C856 C 0.43942 0.11304 0.47422 0.0
C857 C 0.42672 0.08749 0.46409 0.0
C858 C 0.43194 0.1056 0.48793 0.0
C859 C 0.41052 0.0722 0.49155 0.0
C860 C 0.3925 0.04985 0.48128 0.0
C861 C 0.40126 0.05742 0.46758 0.0
C862 C 0.45111 0.1308 0.49853 0.0
C863 C 0.36709 0.01575 0.48477 0.0
H864 H 0.48517 0.00537 0.52254 0.0
H865 H 0.39221 0.07486 0.53844 0.0
H866 H 0.45379 -0.00025 0.48871 0.0
H867 H 0.48597 0.04006 0.49052 0.0
H868 H 0.49548 0.99574 0.49957 0.0
H869 H 0.33737 0.08917 0.52295 0.0
H870 H 0.36695 0.12564 0.51523 0.0
H871 H 0.34447 0.08927 0.50476 0.0
H872 H 0.45807 0.13714 0.47155 0.0
H873 H 0.39044 0.03813 0.45977 0.0
H874 H 0.47459 0.11422 0.5036 0.0
H875 H 0.42993 0.13937 0.50643 0.0
H876 H 0.46386 0.15749 0.49407 0.0
H877 H 0.38543 0.98987 0.48661 0.0
H878 H 0.34686 0.0089 0.47633 0.0
H879 H 0.35011 0.02145 0.49414 0.0
C880 C 0.25831 0.23936 0.71773 0.0
C881 C 0.22334 0.25287 0.71228 0.0
C882 C 0.26308 0.23627 0.73187 0.0
C883 C 0.23218 0.2471 0.74056 0.0
C884 C 0.1954 0.25564 0.73497 0.0
C885 C 0.19146 0.25846 0.72087 0.0
C886 C 0.30237 0.22578 0.73747 0.0
C887 C 0.16148 0.2667 0.74385 0.0
C888 C 0.23779 0.24701 0.77916 0.0
C889 C 0.24832 0.28563 0.78167 0.0
C890 C 0.23404 0.23317 0.76579 0.0
C891 C 0.2403 0.25882 0.75478 0.0
C892 C 0.25169 0.29758 0.75731 0.0
C893 C 0.25573 0.31038 0.7707 0.0
C894 C 0.22241 0.19154 0.7635 0.0
C895 C 0.25851 0.32607 0.74588 0.0
H896 H 0.28292 0.23458 0.7111 0.0
H897 H 0.16409 0.26806 0.71662 0.0
H898 H 0.31808 0.25268 0.74026 0.0
H899 H 0.29958 0.20784 0.74678 0.0
H900 H 0.32007 0.20982 0.72988 0.0
H901 H 0.13368 0.266 0.73816 0.0
H902 H 0.15919 0.24703 0.75272 0.0
H903 H 0.16587 0.29653 0.74777 0.0
H904 H 0.23236 0.22765 0.78762 0.0
H905 H 0.26402 0.3402 0.77255 0.0
H906 H 0.23845 0.1788 0.75481 0.0
H907 H 0.19108 0.19025 0.76105 0.0
H908 H 0.22759 0.17348 0.77267 0.0
H909 H 0.28077 0.31467 0.7388 0.0
H910 H 0.26822 0.35485 0.74961 0.0
H911 H 0.23139 0.33013 0.73999 0.0
C912 C 0.75898 0.38657 0.7815 0.0
C913 C 0.74292 0.35048 0.78487 0.0
C914 C 0.76362 0.39759 0.76782 0.0
C915 C 0.75255 0.37156 0.7574 0.0
C916 C 0.73482 0.33587 0.76082 0.0
C917 C 0.73007 0.32595 0.77447 0.0
C918 C 0.78179 0.43627 0.76461 0.0
C919 C 0.72258 0.30708 0.75005 0.0
C920 C 0.7402 0.38538 0.7197 0.0
C921 C 0.77293 0.36539 0.71501 0.0
C922 C 0.73511 0.3923 0.73367 0.0
C923 C 0.7632 0.3785 0.74298 0.0
C924 C 0.79836 0.36275 0.73808 0.0
C925 C 0.80281 0.35649 0.72413 0.0
C926 C 0.69796 0.4107 0.73851 0.0
C927 C 0.82936 0.34811 0.74762 0.0
H928 H 0.76857 0.40589 0.7895 0.0
H929 H 0.71719 0.29821 0.77697 0.0
H930 H 0.81326 0.43225 0.76283 0.0
H931 H 0.76908 0.44919 0.7553 0.0
H932 H 0.77823 0.45697 0.77316 0.0
H933 H 0.70783 0.28134 0.75443 0.0
H934 H 0.70263 0.32101 0.74269 0.0
H935 H 0.74837 0.29701 0.74432 0.0
H936 H 0.71726 0.39288 0.71265 0.0
H937 H 0.82864 0.34193 0.72049 0.0
H938 H 0.70333 0.42978 0.74739 0.0
H939 H 0.6775 0.3877 0.74175 0.0
H940 H 0.68392 0.42791 0.73033 0.0
H941 H 0.83513 0.36952 0.75576 0.0
H942 H 0.85694 0.34185 0.74223 0.0
H943 H 0.81925 0.321 0.75255 0.0
C944 C 0.7534 0.72725 0.21714 0.0
C945 C 0.71893 0.74313 0.21207 0.0
C946 C 0.75913 0.72357 0.23121 0.0
C947 C 0.72984 0.73642 0.24023 0.0
C948 C 0.69311 0.74703 0.23505 0.0
C949 C 0.68809 0.75018 0.22099 0.0
C950 C 0.79808 0.7104 0.23639 0.0
C951 C 0.66077 0.76018 0.24429 0.0
C952 C 0.73859 0.73887 0.27877 0.0
C953 C 0.7518 0.77688 0.2808 0.0
C954 C 0.73314 0.72416 0.26558 0.0
C955 C 0.74022 0.74845 0.25425 0.0
C956 C 0.75451 0.78649 0.25629 0.0
C957 C 0.76037 0.80005 0.26951 0.0
C958 C 0.71869 0.68321 0.26386 0.0
C959 C 0.7623 0.81359 0.24452 0.0
H960 H 0.77719 0.7212 0.21026 0.0
H961 H 0.66103 0.76156 0.21705 0.0
H962 H 0.81601 0.73614 0.23885 0.0
H963 H 0.79489 0.69301 0.24581 0.0
H964 H 0.81375 0.69292 0.22867 0.0
H965 H 0.63251 0.76139 0.23891 0.0
H966 H 0.65797 0.74055 0.25315 0.0
H967 H 0.66746 0.78959 0.24821 0.0
H968 H 0.73227 0.72068 0.28748 0.0
H969 H 0.77071 0.8294 0.27098 0.0
H970 H 0.73126 0.66936 0.25469 0.0
H971 H 0.68675 0.68359 0.26267 0.0
H972 H 0.72568 0.66512 0.27288 0.0
H973 H 0.78337 0.80031 0.2374 0.0
H974 H 0.77399 0.84201 0.24788 0.0
H975 H 0.7351 0.81886 0.23879 0.0
C976 C 0.60357 0.55933 0.46581 0.0
C977 C 0.57593 0.53124 0.46235 0.0
C978 C 0.61306 0.56621 0.47949 0.0
C979 C 0.59362 0.54524 0.48981 0.0
C980 C 0.56917 0.51394 0.48623 0.0
C981 C 0.56099 0.50709 0.47253 0.0
C982 C 0.64127 0.5981 0.4829 0.0
C983 C 0.54805 0.49044 0.49686 0.0
C984 C 0.60054 0.5514 0.52813 0.0
C985 C 0.56877 0.57553 0.53087 0.0
C986 C 0.61222 0.54431 0.51465 0.0
C987 C 0.59092 0.56098 0.50382 0.0
C988 C 0.56123 0.58812 0.50666 0.0
C989 C 0.55093 0.59538 0.52014 0.0
C990 C 0.64545 0.5169 0.5121 0.0
C991 C 0.5376 0.60673 0.49547 0.0
H992 H 0.61602 0.57751 0.45796 0.0
H993 H 0.54045 0.48456 0.46991 0.0
H994 H 0.62519 0.62546 0.48467 0.0
H995 H 0.65778 0.59119 0.49228 0.0
H996 H 0.66198 0.60308 0.47444 0.0
H997 H 0.53266 0.46518 0.49242 0.0
H998 H 0.56858 0.47971 0.50466 0.0
H999 H 0.52644 0.50906 0.50208 0.0
H1000 H 0.615 0.53651 0.5364 0.0
H1001 H 0.52698 0.61486 0.5222 0.0
H1002 H 0.66027 0.52334 0.50235 0.0
H1003 H 0.63436 0.48677 0.51166 0.0
H1004 H 0.66696 0.51836 0.52048 0.0
H1005 H 0.55684 0.62106 0.48799 0.0
H1006 H 0.51688 0.62865 0.49942 0.0
H1007 H 0.5209 0.58413 0.48999 0.0
C1008 C 0.91628 0.54139 0.97303 0.0
C1009 C 0.93302 0.57644 0.96887 0.0
C1010 C 0.91146 0.5332 0.98692 0.0
C1011 C 0.92411 0.56055 0.99669 0.0
C1012 C 0.9359 0.59788 0.99241 0.0
C1013 C 0.94012 0.60539 0.97852 0.0
C1014 C 0.89698 0.49376 0.99111 0.0
C1015 C 0.94895 0.62824 0.00246 0.0
C1016 C 0.9237 0.54825 0.03509 0.0
C1017 C 0.9617 0.53521 0.03729 0.0
C1018 C 0.90968 0.55423 0.02182 0.0
C1019 C 0.93456 0.54765 0.01062 0.0
C1020 C 0.97221 0.53256 0.01282 0.0
C1021 C 0.98514 0.52634 0.02609 0.0
C1022 C 0.86901 0.56929 0.01992 0.0
C1023 C -0.00014 0.52502 0.00119 0.0
H1024 H 0.91016 0.51908 0.96559 0.0
H1025 H 0.95214 0.63293 0.9753 0.0
H1026 H 0.92206 0.47466 0.99334 0.0
H1027 H 0.8791 0.49569 0.00046 0.0
H1028 H 0.8796 0.48005 0.98293 0.0
H1029 H 0.95183 0.65727 0.99768 0.0
H1030 H 0.92829 0.63039 0.01105 0.0
H1031 H 0.97756 0.61984 0.0067 0.0
H1032 H 0.90525 0.55479 0.0437 0.0
H1033 H 0.01437 0.51578 0.02768 0.0
H1034 H 0.85585 0.55818 0.01041 0.0
H1035 H 0.8697 0.60137 0.01932 0.0
H1036 H 0.85018 0.56116 0.02862 0.0
H1037 H 0.9864 0.5053 0.99366 0.0
H1038 H 0.02756 0.51189 0.00464 0.0
H1039 H 0.00653 0.55265 0.99591 0.0
C1040 C 0.22913 0.93304 0.13074 0.0
C1041 C 0.21457 0.9163 0.14268 0.0
C1042 C 0.20515 0.95444 0.12204 0.0
C1043 C 0.16551 0.95896 0.1253 0.0
C1044 C 0.15063 0.94252 0.13742 0.0
C1045 C 0.17546 0.9216 0.14604 0.0
C1046 C 0.22221 0.97194 0.10931 0.0
C1047 C 0.10842 0.9466 0.14118 0.0
C1048 C 0.11159 0.04277 0.10906 0.0
C1049 C 0.09233 0.02445 0.09829 0.0
C1050 C 0.13541 0.02177 0.11794 0.0
C1051 C 0.13988 0.98138 0.11606 0.0
C1052 C 0.12074 0.96269 0.10515 0.0
C1053 C 0.09727 0.98451 0.09635 0.0
C1054 C 0.15576 0.04281 0.12934 0.0
C1055 C 0.12463 0.91959 0.10287 0.0
H1056 H 0.2594 0.92928 0.12812 0.0
H1057 H 0.164 0.9087 0.15522 0.0
H1058 H 0.20739 0.96001 0.10023 0.0
H1059 H 0.2175 0.00375 0.10926 0.0
H1060 H 0.25376 0.96621 0.10836 0.0
H1061 H 0.10134 0.93171 0.15088 0.0
H1062 H 0.10076 0.9777 0.14216 0.0
H1063 H 0.09001 0.93432 0.13301 0.0
H1064 H 0.10796 0.07366 0.11061 0.0
H1065 H 0.08216 0.9701 0.08813 0.0
H1066 H 0.18755 0.0389 0.12842 0.0
H1067 H 0.14696 0.03039 0.13927 0.0
H1068 H 0.14925 0.07434 0.1294 0.0
H1069 H 0.15561 0.91157 0.10182 0.0
H1070 H 0.10887 0.90976 0.09366 0.0
H1071 H 0.1131 0.90371 0.1118 0.0
C1072 C 0.26945 0.93006 0.3623 0.0
C1073 C 0.28488 0.90875 0.35145 0.0
C1074 C 0.29324 0.9529 0.37057 0.0
C1075 C 0.33356 0.95405 0.36804 0.0
C1076 C 0.34934 0.93286 0.35702 0.0
C1077 C 0.3247 0.91065 0.34877 0.0
C1078 C 0.27525 0.9756 0.38208 0.0
C1079 C 0.39229 0.93311 0.35411 0.0
C1080 C 0.38948 0.03962 0.38202 0.0
C1081 C 0.40501 0.02426 0.39404 0.0
C1082 C 0.36633 0.01701 0.37344 0.0
C1083 C 0.35897 0.97791 0.37687 0.0
C1084 C 0.3747 0.96211 0.38896 0.0
C1085 C 0.39725 0.98565 0.39749 0.0
C1086 C 0.34952 0.03507 0.36076 0.0
C1087 C 0.36783 0.92035 0.39286 0.0
H1088 H 0.23862 0.92879 0.36436 0.0
H1089 H 0.33678 0.89386 0.34049 0.0
H1090 H 0.2876 0.96593 0.39192 0.0
H1091 H 0.28209 0.00685 0.38096 0.0
H1092 H 0.24327 0.97219 0.38249 0.0
H1093 H 0.39997 0.91487 0.34521 0.0
H1094 H 0.40222 0.96317 0.35216 0.0
H1095 H 0.40841 0.92234 0.3631 0.0
H1096 H 0.39524 0.06954 0.37933 0.0
H1097 H 0.40937 0.97356 0.40671 0.0
H1098 H 0.31743 0.03353 0.36108 0.0
H1099 H 0.35911 0.0187 0.35166 0.0
H1100 H 0.35819 0.06587 0.35953 0.0
H1101 H 0.33645 0.91539 0.39453 0.0
H1102 H 0.38374 0.91201 0.40223 0.0
H1103 H 0.37704 0.90093 0.38447 0.0
C1104 C 0.40574 0.14009 0.59804 0.0
C1105 C 0.41564 0.10298 0.60267 0.0
C1106 C 0.38179 0.16434 0.60585 0.0
C1107 C 0.3671 0.1508 0.61843 0.0
C1108 C 0.37697 0.11333 0.62309 0.0
C1109 C 0.40125 0.08998 0.61519 0.0
C1110 C 0.37244 0.20449 0.60071 0.0
C1111 C 0.36157 0.09772 0.63638 0.0
C1112 C 0.32865 0.21968 0.64531 0.0
C1113 C 0.28865 0.21734 0.64304 0.0
C1114 C 0.35474 0.19919 0.63706 0.0
C1115 C 0.3403 0.17507 0.62658 0.0
C1116 C 0.2999 0.17241 0.62435 0.0
C1117 C 0.27459 0.19387 0.63254 0.0
C1118 C 0.39765 0.20318 0.63967 0.0
C1119 C 0.28337 0.14654 0.61342 0.0
H1120 H 0.41718 0.15038 0.58844 0.0
H1121 H 0.4087 0.06125 0.61881 0.0
H1122 H 0.34068 0.20774 0.59944 0.0
H1123 H 0.38186 0.22642 0.60826 0.0
H1124 H 0.38672 0.21086 0.59084 0.0
H1125 H 0.37199 0.06787 0.63853 0.0
H1126 H 0.37056 0.11684 0.64487 0.0
H1127 H 0.32943 0.09745 0.6362 0.0
H1128 H 0.33964 0.23828 0.6533 0.0
H1129 H 0.24364 0.19206 0.63078 0.0
H1130 H 0.41388 0.20611 0.62999 0.0
H1131 H 0.4084 0.17677 0.64488 0.0
H1132 H 0.40424 0.22864 0.64617 0.0
H1133 H 0.29551 0.15465 0.60338 0.0
H1134 H 0.25128 0.14827 0.61286 0.0
H1135 H 0.29174 0.116 0.61539 0.0
C1136 C 0.11094 0.08359 0.87796 0.0
C1137 C 0.09427 0.09631 0.89016 0.0
C1138 C 0.13464 0.10807 0.87024 0.0
C1139 C 0.1414 0.14639 0.87474 0.0
C1140 C 0.12465 0.15947 0.88705 0.0
C1141 C 0.10154 0.13409 0.8947 0.0
C1142 C 0.15247 0.09292 0.85727 0.0
C1143 C 0.13085 0.20034 0.89208 0.0
C1144 C 0.23049 0.19823 0.86153 0.0
C1145 C 0.21488 0.22115 0.85112 0.0
C1146 C 0.20687 0.17371 0.86928 0.0
C1147 C 0.16661 0.17245 0.86664 0.0
C1148 C 0.15064 0.19544 0.85612 0.0
C1149 C 0.17506 0.21935 0.8484 0.0
C1150 C 0.22499 0.14921 0.8803 0.0
C1151 C 0.10774 0.1951 0.85311 0.0
H1152 H 0.10558 0.05431 0.87444 0.0
H1153 H 0.08854 0.14413 0.90407 0.0
H1154 H 0.14286 0.11078 0.84852 0.0
H1155 H 0.1845 0.09515 0.85781 0.0
H1156 H 0.14461 0.06223 0.85526 0.0
H1157 H 0.11474 0.20635 0.90162 0.0
H1158 H 0.16214 0.20543 0.89392 0.0
H1159 H 0.12139 0.2214 0.88423 0.0
H1160 H 0.26128 0.19946 0.86365 0.0
H1161 H 0.1628 0.23734 0.84046 0.0
H1162 H 0.21899 0.11811 0.87838 0.0
H1163 H 0.21201 0.15655 0.89028 0.0
H1164 H 0.25685 0.15332 0.88096 0.0
H1165 H 0.09845 0.16544 0.85025 0.0
H1166 H 0.09984 0.21528 0.84476 0.0
H1167 H 0.09124 0.20334 0.86234 0.0
C1168 C 0.87036 0.0956 0.87844 0.0
C1169 C 0.87295 0.07568 0.89082 0.0
C1170 C 0.83676 0.11584 0.87488 0.0
C1171 C 0.80386 0.11391 0.88348 0.0
C1172 C 0.80436 0.08916 0.89493 0.0
C1173 C 0.83921 0.07107 0.89868 0.0
C1174 C 0.83792 0.14202 0.86256 0.0
C1175 C 0.7692 0.08352 0.90382 0.0
C1176 C 0.75637 0.21121 0.88273 0.0
C1177 C 0.73646 0.20838 0.87035 0.0
C1178 C 0.77547 0.17901 0.88821 0.0
C1179 C 0.77246 0.14279 0.88154 0.0
C1180 C 0.74575 0.13827 0.87078 0.0
C1181 C 0.72871 0.17137 0.86504 0.0
C1182 C 0.80267 0.18499 0.90004 0.0
C1183 C 0.73837 0.09923 0.86442 0.0
H1184 H 0.8956 0.09767 0.87193 0.0
H1185 H 0.84025 0.05539 0.9082 0.0
H1186 H 0.81534 0.13329 0.85518 0.0
H1187 H 0.83189 0.17242 0.8656 0.0
H1188 H 0.86641 0.14126 0.85731 0.0
H1189 H 0.76695 0.0527 0.90698 0.0
H1190 H 0.77239 0.10098 0.91321 0.0
H1191 H 0.74192 0.09199 0.89864 0.0
H1192 H 0.76055 0.23941 0.88735 0.0
H1193 H 0.71244 0.16828 0.85569 0.0
H1194 H 0.83297 0.17967 0.89675 0.0
H1195 H 0.79594 0.16413 0.90826 0.0
H1196 H 0.80083 0.21479 0.90427 0.0
H1197 H 0.75956 0.09411 0.85614 0.0
H1198 H 0.70889 0.09797 0.85992 0.0
H1199 H 0.74146 0.07558 0.87199 0.0
C1200 C 0.61555 0.07877 0.62304 0.0
C1201 C 0.61933 0.05893 0.6107 0.0
C1202 C 0.6479 0.09444 0.62953 0.0
C1203 C 0.6852 0.08816 0.62391 0.0
C1204 C 0.68964 0.06238 0.61284 0.0
C1205 C 0.65647 0.04865 0.60613 0.0
C1206 C 0.64145 0.12136 0.64144 0.0
C1207 C 0.72896 0.05173 0.60732 0.0
C1208 C 0.73716 0.1826 0.6264 0.0
C1209 C 0.74908 0.18115 0.64 0.0
C1210 C 0.71998 0.15042 0.62024 0.0
C1211 C 0.71661 0.11542 0.62767 0.0
C1212 C 0.73553 0.11175 0.64034 0.0
C1213 C 0.75073 0.145 0.64657 0.0
C1214 C 0.70128 0.1555 0.60647 0.0
C1215 C 0.73646 0.07379 0.64792 0.0
H1216 H 0.58688 0.08509 0.62696 0.0
H1217 H 0.65986 0.03244 0.59678 0.0
H1218 H 0.65807 0.11115 0.65038 0.0
H1219 H 0.65183 0.15093 0.63889 0.0
H1220 H 0.61045 0.12336 0.64439 0.0
H1221 H 0.72956 0.02057 0.6045 0.0
H1222 H 0.7347 0.06852 0.59792 0.0
H1223 H 0.75251 0.05744 0.61473 0.0
H1224 H 0.73798 0.20992 0.62097 0.0
H1225 H 0.76089 0.14293 0.65695 0.0
H1226 H 0.66943 0.15177 0.60734 0.0
H1227 H 0.71218 0.1332 0.59933 0.0
H1228 H 0.70711 0.1845 0.60201 0.0
H1229 H 0.71263 0.07306 0.65547 0.0
H1230 H 0.76411 0.07078 0.6536 0.0
H1231 H 0.7332 0.04868 0.64097 0.0
C1232 C 0.74824 0.92517 0.37833 0.0
C1233 C 0.76073 0.93094 0.36491 0.0
C1234 C 0.72979 0.95495 0.38548 0.0
C1235 C 0.72647 0.99197 0.37939 0.0
C1236 C 0.74724 1e-05 0.36735 0.0
C1237 C 0.76311 0.96911 0.35995 0.0
C1238 C 0.70982 0.94536 0.39872 0.0
C1239 C 0.74912 0.04037 0.36152 0.0
C1240 C 0.62443 0.03007 0.38114 0.0
C1241 C 0.62382 0.04696 0.39409 0.0
C1242 C 0.65825 0.01355 0.37593 0.0
C1243 C 0.69337 0.01704 0.38331 0.0
C1244 C 0.6942 0.03926 0.39538 0.0
C1245 C 0.65923 0.05298 0.40086 0.0
C1246 C 0.65531 0.98968 0.36307 0.0
C1247 C 0.73125 0.04707 0.40302 0.0
H1248 H 0.7491 0.89636 0.3827 0.0
H1249 H 0.77407 0.9748 0.34984 0.0
H1250 H 0.72096 0.96439 0.40689 0.0
H1251 H 0.67817 0.95052 0.3978 0.0
H1252 H 0.71444 0.91476 0.40184 0.0
H1253 H 0.77745 0.0452 0.35644 0.0
H1254 H 0.72625 0.04405 0.35372 0.0
H1255 H 0.74503 0.06274 0.3695 0.0
H1256 H 0.59782 0.02745 0.37539 0.0
H1257 H 0.65984 0.06657 0.41076 0.0
H1258 H 0.66755 0.96029 0.3647 0.0
H1259 H 0.67204 0.00367 0.35482 0.0
H1260 H 0.62493 0.98638 0.35953 0.0
H1261 H 0.73103 0.03082 0.41275 0.0
H1262 H 0.73292 0.07832 0.40566 0.0
H1263 H 0.75755 0.03913 0.39717 0.0
C1264 C 0.78687 0.94021 0.13016 0.0
C1265 C 0.77081 0.93917 0.14323 0.0
C1266 C 0.8051 0.97354 0.12527 0.0
C1267 C 0.80469 0.00781 0.13322 0.0
C1268 C 0.78364 0.00859 0.14554 0.0
C1269 C 0.76781 0.97399 0.1506 0.0
C1270 C 0.82752 0.97079 0.11208 0.0
C1271 C 0.77939 0.045 0.15389 0.0
C1272 C 0.89977 0.05569 0.12746 0.0
C1273 C 0.8929 0.07103 0.11448 0.0
C1274 C 0.86967 0.03878 0.13489 0.0
C1275 C 0.83164 0.03958 0.12952 0.0
C1276 C 0.82349 0.06302 0.11811 0.0
C1277 C 0.85441 0.07764 0.11041 0.0
C1278 C 0.87953 0.01568 0.14746 0.0
C1279 C 0.7826 0.06881 0.11313 0.0
H1280 H 0.7874 0.91414 0.12403 0.0
H1281 H 0.75505 0.97419 0.16065 0.0
H1282 H 0.81496 0.99074 0.10444 0.0
H1283 H 0.85815 0.97939 0.11371 0.0
H1284 H 0.82722 0.94107 0.10775 0.0
H1285 H 0.74891 0.04807 0.15734 0.0
H1286 H 0.79754 0.04267 0.16316 0.0
H1287 H 0.78767 0.07152 0.14822 0.0
H1288 H 0.92928 0.0529 0.1311 0.0
H1289 H 0.84822 0.09077 0.10065 0.0
H1290 H 0.87323 0.98453 0.14572 0.0
H1291 H 0.8615 0.02551 0.15611 0.0
H1292 H 0.91049 0.01858 0.15037 0.0
H1293 H 0.77515 0.04587 0.1057 0.0
H1294 H 0.77959 0.09722 0.10792 0.0
H1295 H 0.76155 0.06737 0.12166 0.0
C1296 C 0.67342 0.3999 0.64732 0.0
C1297 C 0.71331 0.39722 0.64489 0.0
C1298 C 0.64949 0.42202 0.63877 0.0
C1299 C 0.66604 0.4422 0.62765 0.0
C1300 C 0.7064 0.44002 0.6253 0.0
C1301 C 0.72948 0.41735 0.63389 0.0
C1302 C 0.60648 0.42332 0.6415 0.0
C1303 C 0.72523 0.46175 0.61372 0.0
C1304 C 0.60262 0.47564 0.5983 0.0
C1305 C 0.59549 0.51424 0.60192 0.0
C1306 C 0.62525 0.45159 0.60666 0.0
C1307 C 0.64149 0.46683 0.61875 0.0
C1308 C 0.63497 0.50602 0.62227 0.0
C1309 C 0.61179 0.52913 0.61387 0.0
C1310 C 0.63118 0.40976 0.60268 0.0
C1311 C 0.65239 0.52354 0.63494 0.0
H1312 H 0.66073 0.38398 0.6557 0.0
H1313 H 0.76037 0.41546 0.632 0.0
H1314 H 0.59648 0.45377 0.64239 0.0
H1315 H 0.59067 0.4101 0.63285 0.0
H1316 H 0.59853 0.40763 0.65095 0.0
H1317 H 0.75705 0.45706 0.61332 0.0
H1318 H 0.71248 0.45245 0.60391 0.0
H1319 H 0.7196 0.49327 0.61479 0.0
H1320 H 0.58963 0.46396 0.58915 0.0
H1321 H 0.60649 0.55907 0.61666 0.0
H1322 H 0.61798 0.39062 0.61047 0.0
H1323 H 0.66254 0.40283 0.60229 0.0
H1324 H 0.6181 0.40295 0.59266 0.0
H1325 H 0.64194 0.50777 0.64405 0.0
H1326 H 0.64502 0.55471 0.63609 0.0
H1327 H 0.68439 0.52059 0.63469 0.0
C1328 C 0.89832 0.48252 0.90173 0.0
C1329 C 0.90809 0.52069 0.89828 0.0
C1330 C 0.87452 0.46023 0.8932 0.0
C1331 C 0.85972 0.47681 0.88109 0.0
C1332 C 0.86916 0.51545 0.87766 0.0
C1333 C 0.89338 0.53683 0.88626 0.0
C1334 C 0.86532 0.41893 0.89712 0.0
C1335 C 0.85352 0.53432 0.86494 0.0
C1336 C 0.82295 0.41156 0.85281 0.0
C1337 C 0.78296 0.41181 0.85529 0.0
C1338 C 0.84842 0.43235 0.8612 0.0
C1339 C 0.83338 0.45426 0.87217 0.0
C1340 C 0.79295 0.45529 0.8745 0.0
C1341 C 0.76826 0.43387 0.86608 0.0
C1342 C 0.89143 0.43036 0.85848 0.0
C1343 C 0.77578 0.47881 0.88596 0.0
H1344 H 0.90977 0.46984 0.91097 0.0
H1345 H 0.90065 0.56641 0.88356 0.0
H1346 H 0.83364 0.41557 0.89857 0.0
H1347 H 0.87402 0.39897 0.88882 0.0
H1348 H 0.88026 0.40994 0.90661 0.0
H1349 H 0.86375 0.56464 0.86372 0.0
H1350 H 0.86246 0.51748 0.85587 0.0
H1351 H 0.82139 0.5344 0.86518 0.0
H1352 H 0.83449 0.39418 0.84458 0.0
H1353 H 0.73734 0.4342 0.868 0.0
H1354 H 0.90667 0.41882 0.86755 0.0
H1355 H 0.90296 0.45985 0.85655 0.0
H1356 H 0.89847 0.41168 0.84962 0.0
H1357 H 0.78738 0.46852 0.89583 0.0
H1358 H 0.74366 0.47696 0.88627 0.0
H1359 H 0.78417 0.50969 0.88488 0.0
C1360 C 0.87724 0.57202 0.11543 0.0
C1361 C 0.90191 0.58464 0.10501 0.0
C1362 C 0.85342 0.5981 0.12243 0.0
C1363 C 0.85446 0.63787 0.11899 0.0
C1364 C 0.87824 0.65067 0.10816 0.0
C1365 C 0.9017 0.62382 0.10127 0.0
C1366 C 0.82788 0.5832 0.13375 0.0
C1367 C 0.88022 0.69288 0.1042 0.0
C1368 C 0.77095 0.70062 0.13093 0.0
C1369 C 0.78601 0.71673 0.1429 0.0
C1370 C 0.79301 0.67513 0.12299 0.0
C1371 C 0.83127 0.66601 0.12701 0.0
C1372 C 0.84683 0.68252 0.139 0.0
C1373 C 0.82382 0.70739 0.1469 0.0
C1374 C 0.77529 0.65773 0.11036 0.0
C1375 C 0.88776 0.6739 0.14349 0.0
H1376 H 0.87705 0.54169 0.11831 0.0
H1377 H 0.92094 0.63387 0.09336 0.0
H1378 H 0.83716 0.59599 0.14356 0.0
H1379 H 0.79741 0.59215 0.13201 0.0
H1380 H 0.82891 0.55112 0.13466 0.0
H1381 H 0.89539 0.69714 0.09436 0.0
H1382 H 0.85077 0.70555 0.10341 0.0
H1383 H 0.89599 0.7092 0.11218 0.0
H1384 H 0.74166 0.70764 0.12781 0.0
H1385 H 0.83568 0.71996 0.15608 0.0
H1386 H 0.77477 0.62567 0.11124 0.0
H1387 H 0.7932 0.66498 0.10135 0.0
H1388 H 0.74527 0.66814 0.10856 0.0
H1389 H 0.89087 0.64252 0.14569 0.0
H1390 H 0.89609 0.69049 0.15271 0.0
H1391 H 0.90837 0.68103 0.13521 0.0
C1392 C 0.73583 0.6983 0.36084 0.0
C1393 C 0.71843 0.72072 0.35063 0.0
C1394 C 0.71364 0.67431 0.36927 0.0
C1395 C 0.67301 0.67288 0.36752 0.0
C1396 C 0.65522 0.69527 0.35719 0.0
C1397 C 0.67821 0.71883 0.3488 0.0
C1398 C 0.73371 0.65048 0.38006 0.0
C1399 C 0.6119 0.69456 0.35507 0.0
C1400 C 0.62043 0.58397 0.38048 0.0
C1401 C 0.60539 0.59712 0.39289 0.0
C1402 C 0.64246 0.60836 0.37214 0.0
C1403 C 0.64939 0.64699 0.37626 0.0
C1404 C 0.63455 0.66046 0.38882 0.0
C1405 C 0.61292 0.63522 0.39706 0.0
C1406 C 0.65823 0.59279 0.35891 0.0
C1407 C 0.64123 0.70158 0.3935 0.0
H1408 H 0.76694 0.69953 0.36227 0.0
H1409 H 0.66458 0.73635 0.34101 0.0
H1410 H 0.72218 0.65808 0.39024 0.0
H1411 H 0.7278 0.61924 0.3784 0.0
H1412 H 0.76558 0.65496 0.3801 0.0
H1413 H 0.60252 0.71424 0.34676 0.0
H1414 H 0.60234 0.6647 0.3526 0.0
H1415 H 0.59693 0.70322 0.36457 0.0
H1416 H 0.61491 0.55448 0.37723 0.0
H1417 H 0.6013 0.6456 0.40661 0.0
H1418 H 0.69027 0.5953 0.35877 0.0
H1419 H 0.64701 0.61021 0.35029 0.0
H1420 H 0.65033 0.56197 0.35722 0.0
H1421 H 0.67274 0.70707 0.39459 0.0
H1422 H 0.62688 0.7078 0.40337 0.0
H1423 H 0.63008 0.72221 0.38578 0.0
C1424 C 0.3904 0.58527 0.37526 0.0
C1425 C 0.38902 0.56905 0.38831 0.0
C1426 C 0.35782 0.60307 0.36958 0.0
C1427 C 0.32213 0.60195 0.37668 0.0
C1428 C 0.31901 0.57965 0.38868 0.0
C1429 C 0.35272 0.5644 0.3946 0.0
C1430 C 0.36278 0.62614 0.35662 0.0
C1431 C 0.28085 0.57397 0.39588 0.0
C1432 C 0.27229 0.69804 0.37352 0.0
C1433 C 0.25605 0.69454 0.36052 0.0
C1434 C 0.29137 0.6668 0.37961 0.0
C1435 C 0.29164 0.63038 0.37298 0.0
C1436 C 0.26895 0.62495 0.36118 0.0
C1437 C 0.25232 0.65734 0.35482 0.0
C1438 C 0.31451 0.67406 0.3924 0.0
C1439 C 0.26462 0.58574 0.35459 0.0
H1440 H 0.41774 0.58674 0.36987 0.0
H1441 H 0.35057 0.55113 0.40454 0.0
H1442 H 0.34445 0.61366 0.3485 0.0
H1443 H 0.35347 0.65661 0.3582 0.0
H1444 H 0.39324 0.62632 0.35298 0.0
H1445 H 0.27828 0.5435 0.39941 0.0
H1446 H 0.27978 0.59261 0.40505 0.0
H1447 H 0.25566 0.58079 0.38928 0.0
H1448 H 0.27305 0.72612 0.37844 0.0
H1449 H 0.23896 0.65355 0.34496 0.0
H1450 H 0.34542 0.6665 0.39074 0.0
H1451 H 0.30347 0.65554 0.40074 0.0
H1452 H 0.31294 0.70473 0.39578 0.0
H1453 H 0.28379 0.58391 0.34557 0.0
H1454 H 0.23443 0.58184 0.35092 0.0
H1455 H 0.2718 0.5617 0.36165 0.0
C1456 C 0.23153 0.69521 0.1273 0.0
C1457 C 0.24832 0.69713 0.14026 0.0
C1458 C 0.2136 0.66127 0.12277 0.0
C1459 C 0.21507 0.62756 0.13098 0.0
C1460 C 0.2381 0.6274 0.14284 0.0
C1461 C 0.25351 0.66246 0.14759 0.0
C1462 C 0.18991 0.66282 0.10986 0.0
C1463 C 0.24414 0.59114 0.15113 0.0
C1464 C 0.11859 0.57771 0.13044 0.0
C1465 C 0.12135 0.55724 0.11817 0.0
C1466 C 0.15017 0.59859 0.13547 0.0
C1467 C 0.18619 0.59651 0.1286 0.0
C1468 C 0.19092 0.57011 0.11775 0.0
C1469 C 0.15818 0.55155 0.11239 0.0
C1470 C 0.14368 0.62593 0.14725 0.0
C1471 C 0.22968 0.56364 0.11104 0.0
H1472 H 0.22965 0.72111 0.12111 0.0
H1473 H 0.26716 0.66271 0.15749 0.0
H1474 H 0.20133 0.64163 0.10242 0.0
H1475 H 0.15934 0.65499 0.11202 0.0
H1476 H 0.19032 0.69196 0.10506 0.0
H1477 H 0.27428 0.59013 0.15508 0.0
H1478 H 0.22455 0.5915 0.16006 0.0
H1479 H 0.23859 0.56444 0.14516 0.0
H1480 H 0.09081 0.58024 0.13549 0.0
H1481 H 0.16138 0.53506 0.1031 0.0
H1482 H 0.15067 0.65609 0.14418 0.0
H1483 H 0.16303 0.61808 0.1558 0.0
H1484 H 0.11333 0.62529 0.151 0.0
H1485 H 0.23104 0.58027 0.10141 0.0
H1486 H 0.23323 0.53255 0.10839 0.0
H1487 H 0.25417 0.57256 0.11764 0.0
C1488 C 0.13083 0.52643 0.88555 0.0
C1489 C 0.12939 0.54129 0.8988 0.0
C1490 C 0.16441 0.50882 0.88056 0.0
C1491 C 0.19844 0.50863 0.88863 0.0
C1492 C 0.19887 0.52892 0.90111 0.0
C1493 C 0.16408 0.54414 0.90624 0.0
C1494 C 0.16212 0.48741 0.86717 0.0
C1495 C 0.23513 0.53271 0.90956 0.0
C1496 C 0.24654 0.41322 0.88299 0.0
C1497 C 0.2636 0.42033 0.8703 0.0
C1498 C 0.22863 0.44317 0.89022 0.0
C1499 C 0.23003 0.48136 0.88497 0.0
C1500 C 0.25453 0.48969 0.87385 0.0
C1501 C 0.27029 0.45889 0.86635 0.0
C1502 C 0.20411 0.43299 0.90242 0.0
C1503 C 0.26071 0.53065 0.86898 0.0
H1504 H 0.10485 0.52612 0.87938 0.0
H1505 H 0.16399 0.55611 0.9164 0.0
H1506 H 0.18269 0.50021 0.85979 0.0
H1507 H 0.17024 0.45654 0.86859 0.0
H1508 H 0.13268 0.48847 0.86263 0.0
H1509 H 0.2376 0.56274 0.91353 0.0
H1510 H 0.23316 0.51322 0.9185 0.0
H1511 H 0.26179 0.5257 0.90376 0.0
H1512 H 0.2434 0.38362 0.88652 0.0
H1513 H 0.28457 0.46517 0.8568 0.0
H1514 H 0.17321 0.4396 0.90028 0.0
H1515 H 0.21306 0.45061 0.91128 0.0
H1516 H 0.20648 0.40189 0.90522 0.0
H1517 H 0.23922 0.53774 0.86098 0.0
H1518 H 0.29 0.53391 0.86444 0.0
H1519 H 0.25742 0.55181 0.8774 0.0
C1520 C 0.26295 0.42885 0.62213 0.0
C1521 C 0.25019 0.43096 0.63562 0.0
C1522 C 0.28225 0.46006 0.61613 0.0
C1523 C 0.28699 0.49478 0.62362 0.0
C1524 C 0.26735 0.49949 0.63611 0.0
C1525 C 0.24989 0.46713 0.64218 0.0
C1526 C 0.30172 0.45401 0.60255 0.0
C1527 C 0.26813 0.5374 0.64371 0.0
C1528 C 0.38989 0.52783 0.62004 0.0
C1529 C 0.3878 0.54893 0.6079 0.0
C1530 C 0.35654 0.51248 0.626 0.0
C1531 C 0.31991 0.52045 0.62011 0.0
C1532 C 0.31717 0.54695 0.6092 0.0
C1533 C 0.35126 0.56021 0.60298 0.0
C1534 C 0.36112 0.48451 0.63773 0.0
C1535 C 0.27867 0.55914 0.60335 0.0
H1536 H 0.26129 0.40151 0.61674 0.0
H1537 H 0.23918 0.46966 0.65249 0.0
H1538 H 0.29306 0.47718 0.59537 0.0
H1539 H 0.33366 0.45549 0.60378 0.0
H1540 H 0.29429 0.42558 0.59794 0.0
H1541 H 0.24102 0.54136 0.64964 0.0
H1542 H 0.29259 0.53739 0.65101 0.0
H1543 H 0.27175 0.56237 0.6367 0.0
H1544 H 0.41794 0.52076 0.62433 0.0
H1545 H 0.34896 0.57718 0.59375 0.0
H1546 H 0.34978 0.45556 0.63485 0.0
H1547 H 0.34427 0.49471 0.64662 0.0
H1548 H 0.39181 0.48109 0.64092 0.0
H1549 H 0.273 0.54271 0.59388 0.0
H1550 H 0.27937 0.59035 0.6006 0.0
H1551 H 0.25439 0.55419 0.61054 0.0
C1552 C 0.01197 0.88221 0.0749 0.0
C1553 C 0.9818 0.89785 0.06708 0.0
C1554 C 0.01796 0.84198 0.07556 0.0
C1555 C 0.99338 0.81686 0.06814 0.0
C1556 C 0.96291 0.83249 0.06024 0.0
C1557 C 0.95748 0.87275 0.05982 0.0
C1558 C 0.05034 0.82631 0.08429 0.0
C1559 C 0.93613 0.80666 0.05218 0.0
C1560 C 0.03009 0.71631 0.05921 0.0
C1561 C 0.0108 0.69316 0.06876 0.0
C1562 C 0.02469 0.75659 0.05891 0.0
C1563 C -0.00027 0.77423 0.06851 0.0
C1564 C 0.98042 0.75103 0.07826 0.0
C1565 C 0.98586 0.7107 0.07817 0.0
C1566 C 0.04556 0.78028 0.04829 0.0
C1567 C 0.95376 0.76862 0.08875 0.0
H1568 H 0.0305 0.90139 0.0807 0.0
H1569 H 0.93444 0.88465 0.05362 0.0
H1570 H 0.03856 0.80554 0.09185 0.0
H1571 H 0.07134 0.81022 0.07789 0.0
H1572 H 0.06605 0.84959 0.08979 0.0
H1573 H 0.91397 0.8234 0.04647 0.0
H1574 H 0.95311 0.78907 0.04486 0.0
H1575 H 0.92111 0.7862 0.05909 0.0
H1576 H 0.0491 0.70276 0.05185 0.0
H1577 H 0.97127 0.69294 0.08566 0.0
H1578 H 0.06408 0.80237 0.05326 0.0
H1579 H 0.02422 0.796 0.0419 0.0
H1580 H 0.06403 0.76213 0.04158 0.0
H1581 H 0.96596 0.79586 0.09292 0.0
H1582 H 0.94823 0.74841 0.09731 0.0
H1583 H 0.92562 0.77575 0.08391 0.0
C1584 C 0.4123 0.83663 0.30628 0.0
C1585 C 0.39506 0.80486 0.31269 0.0
C1586 C 0.4526 0.84182 0.30666 0.0
C1587 C 0.4758 0.81527 0.31405 0.0
C1588 C 0.45827 0.78348 0.32075 0.0
C1589 C 0.41808 0.77832 0.31979 0.0
C1590 C 0.47035 0.87545 0.29908 0.0
C1591 C 0.48184 0.75531 0.3291 0.0
C1592 C 0.58349 0.80748 0.30663 0.0
C1593 C 0.59895 0.83233 0.31644 0.0
C1594 C 0.54331 0.80208 0.30558 0.0
C1595 C 0.51838 0.82099 0.31491 0.0
C1596 C 0.53414 0.8454 0.32507 0.0
C1597 C 0.5743 0.8513 0.32554 0.0
C1598 C 0.52752 0.77676 0.29438 0.0
C1599 C 0.50864 0.86503 0.33547 0.0
H1600 H 0.39419 0.85689 0.30075 0.0
H1601 H 0.40436 0.75407 0.32487 0.0
H1602 H 0.48503 0.89522 0.30632 0.0
H1603 H 0.49269 0.86473 0.2919 0.0
H1604 H 0.44844 0.89232 0.2933 0.0
H1605 H 0.46356 0.73272 0.33396 0.0
H1606 H 0.50373 0.74082 0.32261 0.0
H1607 H 0.49779 0.77114 0.33716 0.0
H1608 H 0.60288 0.79323 0.29956 0.0
H1609 H 0.58668 0.87028 0.33316 0.0
H1610 H 0.50693 0.79362 0.28804 0.0
H1611 H 0.51121 0.75209 0.29877 0.0
H1612 H 0.55077 0.76511 0.28772 0.0
H1613 H 0.48819 0.88507 0.33035 0.0
H1614 H 0.52567 0.88174 0.34304 0.0
H1615 H 0.49103 0.84308 0.34092 0.0
C1616 C 0.48788 0.22288 0.56606 0.0
C1617 C 0.51406 0.203 0.55765 0.0
C1618 C 0.48522 0.26341 0.56575 0.0
C1619 C 0.50966 0.28467 0.55694 0.0
C1620 C 0.53601 0.26492 0.54839 0.0
C1621 C 0.53768 0.22434 0.54877 0.0
C1622 C 0.45645 0.28351 0.57492 0.0
C1623 C 0.5627 0.28668 0.53891 0.0
C1624 C 0.48031 0.38721 0.54767 0.0
C1625 C 0.50232 0.40925 0.55684 0.0
C1626 C 0.48248 0.34665 0.54757 0.0
C1627 C 0.50773 0.32763 0.55671 0.0
C1628 C 0.53072 0.3496 0.56578 0.0
C1629 C 0.52759 0.39013 0.56578 0.0
C1630 C 0.45732 0.32413 0.53781 0.0
C1631 C 0.55828 0.33026 0.57558 0.0
H1632 H 0.46989 0.20692 0.57311 0.0
H1633 H 0.55753 0.20937 0.54208 0.0
H1634 H 0.47191 0.30305 0.58204 0.0
H1635 H 0.43655 0.30173 0.56879 0.0
H1636 H 0.43892 0.26269 0.58095 0.0
H1637 H 0.58173 0.26698 0.53299 0.0
H1638 H 0.54549 0.30446 0.53171 0.0
H1639 H 0.58119 0.30686 0.54482 0.0
H1640 H 0.46124 0.40161 0.54056 0.0
H1641 H 0.54437 0.40668 0.57303 0.0
H1642 H 0.43786 0.30448 0.54356 0.0
H1643 H 0.4756 0.30575 0.53115 0.0
H1644 H 0.43931 0.34334 0.53132 0.0
H1645 H 0.54198 0.31101 0.58257 0.0
H1646 H 0.57478 0.35154 0.58175 0.0
H1647 H 0.57914 0.31184 0.56994 0.0
C1648 C 0.07433 0.35685 0.82899 0.0
C1649 C 0.09853 0.33522 0.82046 0.0
C1650 C 0.03431 0.35 0.82936 0.0
C1651 C 0.01813 0.32152 0.8207 0.0
C1652 C 0.04246 0.29995 0.81192 0.0
C1653 C 0.08253 0.30672 0.81205 0.0
C1654 C 0.00943 0.37287 0.83911 0.0
C1655 C 0.02615 0.26998 0.80233 0.0
C1656 C 0.92019 0.27847 0.82954 0.0
C1657 C 0.89527 0.30099 0.82156 0.0
C1658 C 0.96028 0.28504 0.82945 0.0
C1659 C 0.97574 0.31418 0.8209 0.0
C1660 C 0.95067 0.33658 0.81264 0.0
C1661 C 0.9106 0.33003 0.81322 0.0
C1662 C 0.98599 0.26125 0.83866 0.0
C1663 C 0.96617 0.36727 0.80315 0.0
H1664 H 0.08696 0.37854 0.83561 0.0
H1665 H 0.10139 0.2903 0.80539 0.0
H1666 H 0.98724 0.38956 0.83343 0.0
H1667 H 0.99378 0.35282 0.84601 0.0
H1668 H 0.02668 0.39338 0.84535 0.0
H1669 H 0.04888 0.25665 0.79585 0.0
H1670 H 0.01156 0.2467 0.80817 0.0
H1671 H 0.00399 0.28346 0.79566 0.0
H1672 H 0.9081 0.25634 0.8361 0.0
H1673 H 0.89118 0.34713 0.80698 0.0
H1674 H 0.00215 0.28065 0.84564 0.0
H1675 H 0.00774 0.24522 0.83256 0.0
H1676 H 0.96929 0.24008 0.84483 0.0
H1677 H 0.9812 0.39013 0.80906 0.0
H1678 H 0.9429 0.38105 0.79703 0.0
H1679 H 0.98779 0.35435 0.79615 0.0
C1680 C 0.98392 0.21845 0.94707 0.0
C1681 C 0.99755 0.19783 0.93575 0.0
C1682 C 0.98578 0.25907 0.94756 0.0
C1683 C 0.00178 0.27974 0.93648 0.0
C1684 C 0.01582 0.25919 0.92504 0.0
C1685 C 0.01348 0.21853 0.9248 0.0
C1686 C 0.97071 0.27986 0.95999 0.0
C1687 C 0.03311 0.28016 0.91302 0.0
C1688 C 0.97469 0.38635 0.93348 0.0
C1689 C 0.00693 0.40457 0.93937 0.0
C1690 C 0.97294 0.34582 0.93222 0.0
C1691 C 0.00414 0.32286 0.93698 0.0
C1692 C 0.03703 0.34106 0.94271 0.0
C1693 C 0.03804 0.38161 0.94382 0.0
C1694 C 0.93735 0.32754 0.92603 0.0
C1695 C 0.07099 0.31765 0.94785 0.0
H1696 H 0.97214 0.2028 0.95566 0.0
H1697 H 0.0236 0.20302 0.91592 0.0
H1698 H 0.99434 0.29688 0.96474 0.0
H1699 H 0.94763 0.30061 0.95703 0.0
H1700 H 0.95877 0.25957 0.96769 0.0
H1701 H 0.04349 0.2599 0.90503 0.0
H1702 H 0.01121 0.29984 0.90848 0.0
H1703 H 0.0578 0.29837 0.91636 0.0
H1704 H 0.95035 0.40368 0.93013 0.0
H1705 H 0.06339 0.39535 0.94813 0.0
H1706 H 0.92249 0.30939 0.93374 0.0
H1707 H 0.9457 0.30819 0.91752 0.0
H1708 H 0.91651 0.34948 0.92217 0.0
H1709 H 0.06144 0.29833 0.95621 0.0
H1710 H 0.0949 0.33625 0.95165 0.0
H1711 H 0.08241 0.29888 0.93962 0.0
C1712 C 0.08514 0.84236 0.18005 0.0
C1713 C 0.10495 0.80777 0.18292 0.0
C1714 C 0.04443 0.84371 0.17992 0.0
C1715 C 0.02296 0.80966 0.18272 0.0
C1716 C 0.04275 0.77446 0.18526 0.0
C1717 C 0.08342 0.77395 0.18531 0.0
C1718 C 0.02443 0.88181 0.17714 0.0
C1719 C 0.02097 0.73745 0.18819 0.0
C1720 C 0.92139 0.81984 0.19722 0.0
C1721 C 0.89807 0.81295 0.1858 0.0
C1722 C 0.96197 0.81911 0.19632 0.0
C1723 C 0.97987 0.81116 0.18368 0.0
C1724 C 0.9566 0.80405 0.1721 0.0
C1725 C 0.91602 0.80506 0.17329 0.0
C1726 C 0.9857 0.8266 0.20894 0.0
C1727 C 0.97457 0.79547 0.15844 0.0
H1728 H 0.10141 0.8687 0.17829 0.0
H1729 H 0.09837 0.74692 0.18724 0.0
H1730 H 0.00283 0.87836 0.16888 0.0
H1731 H 0.0085 0.89129 0.18635 0.0
H1732 H 0.04516 0.90497 0.17421 0.0
H1733 H 0.04062 0.71216 0.18938 0.0
H1734 H 0.00387 0.74078 0.19766 0.0
H1735 H 0.00021 0.73124 0.17987 0.0
H1736 H 0.90791 0.82535 0.20696 0.0
H1737 H 0.89837 0.80023 0.16436 0.0
H1738 H 0.00547 0.85147 0.20722 0.0
H1739 H 0.004 0.80098 0.21124 0.0
H1740 H 0.96736 0.83295 0.21794 0.0
H1741 H 0.99323 0.82001 0.15526 0.0
H1742 H 0.95246 0.79037 0.15044 0.0
H1743 H 0.99338 0.76947 0.15917 0.0
C1744 C 0.46611 0.72623 0.43822 0.0
C1745 C 0.49923 0.70518 0.43445 0.0
C1746 C 0.4659 0.7669 0.43811 0.0
C1747 C 0.49964 0.78722 0.43411 0.0
C1748 C 0.53284 0.76622 0.42992 0.0
C1749 C 0.53224 0.72548 0.43014 0.0
C1750 C 0.42979 0.78814 0.44255 0.0
C1751 C 0.56939 0.78679 0.42558 0.0
C1752 C 0.48989 0.89413 0.42501 0.0
C1753 C 0.50147 0.91221 0.43713 0.0
C1754 C 0.48931 0.85352 0.42383 0.0
C1755 C 0.50071 0.83035 0.43502 0.0
C1756 C 0.51242 0.84838 0.44726 0.0
C1757 C 0.51255 0.88897 0.44818 0.0
C1758 C 0.47656 0.83541 0.41061 0.0
C1759 C 0.52458 0.82475 0.45946 0.0
H1760 H 0.4402 0.71088 0.44128 0.0
H1761 H 0.55803 0.70956 0.4273 0.0
H1762 H 0.43598 0.8053 0.45182 0.0
H1763 H 0.42051 0.80881 0.43455 0.0
H1764 H 0.4054 0.76811 0.44475 0.0
H1765 H 0.59175 0.76639 0.42173 0.0
H1766 H 0.56282 0.80827 0.41751 0.0
H1767 H 0.58163 0.80296 0.43433 0.0
H1768 H 0.48178 0.91169 0.41635 0.0
H1769 H 0.52094 0.9025 0.45765 0.0
H1770 H 0.45154 0.8159 0.41239 0.0
H1771 H 0.50033 0.81743 0.40638 0.0
H1772 H 0.46813 0.85744 0.40292 0.0
H1773 H 0.50026 0.80605 0.46281 0.0
H1774 H 0.53365 0.8432 0.46815 0.0
H1775 H 0.54901 0.80538 0.45671 0.0
C1776 C 0.57793 0.27794 0.69582 0.0
C1777 C 0.60109 0.29691 0.68616 0.0
C1778 C 0.53741 0.28129 0.69559 0.0
C1779 C 0.51946 0.30441 0.68551 0.0
C1780 C 0.54256 0.32366 0.67573 0.0
C1781 C 0.58305 0.31968 0.67616 0.0
C1782 C 0.51375 0.25992 0.7061 0.0
C1783 C 0.52448 0.34858 0.66482 0.0
C1784 C 0.41305 0.2883 0.67715 0.0
C1785 C 0.39499 0.31808 0.68456 0.0
C1786 C 0.4534 0.28307 0.67755 0.0
C1787 C 0.47652 0.30874 0.6853 0.0
C1788 C 0.45862 0.33874 0.69282 0.0
C1789 C 0.41817 0.34282 0.69246 0.0
C1790 C 0.47128 0.25049 0.66945 0.0
C1791 C 0.48226 0.36673 0.70121 0.0
H1792 H 0.59148 0.26069 0.70368 0.0
H1793 H 0.60049 0.33399 0.66852 0.0
H1794 H 0.49645 0.2808 0.71215 0.0
H1795 H 0.49304 0.24011 0.701 0.0
H1796 H 0.53208 0.24268 0.71314 0.0
H1797 H 0.54629 0.36019 0.6576 0.0
H1798 H 0.5028 0.33162 0.65902 0.0
H1799 H 0.50898 0.37328 0.66958 0.0
H1800 H 0.39586 0.2693 0.67083 0.0
H1801 H 0.4048 0.36548 0.69843 0.0
H1802 H 0.49364 0.23508 0.67548 0.0
H1803 H 0.4857 0.26261 0.66031 0.0
H1804 H 0.44929 0.22907 0.66608 0.0
H1805 H 0.49913 0.3507 0.70898 0.0
H1806 H 0.46396 0.38865 0.70642 0.0
H1807 H 0.50335 0.38205 0.69461 0.0
loop_
_geom_bond_atom_site_label_1
_geom_bond_atom_site_label_2
_geom_bond_distance
_geom_bond_site_symmetry_2
_ccdc_geom_bond_type
C0 C1 1.351 . S
C0 N3 1.368 1_655 S
C0 H5 0.931 . S
C1 C0 1.351 . S
C1 N2 1.373 1_655 S
C1 H29 0.930 . S
N2 C1 1.373 1_455 S
N2 C4 1.340 . S
N3 C0 1.368 1_455 S
N3 C4 1.321 . S
N3 Co6 2.135 1_565 S
C4 N2 1.340 . S
C4 N3 1.321 . S
C4 H28 0.930 . S
H5 C0 0.931 . S
Co6 N3 2.135 1_545 S
Co6 N9 2.121 . S
Co6 O14 2.055 . S
Co6 O17 2.039 . S
Co6 N20 2.140 1_455 S
C7 O8 1.227 . S
C7 O17 1.265 . S
O8 C7 1.227 . S
N9 Co6 2.121 . S
N9 C11 1.375 . S
N9 C12 1.313 . S
C10 C11 1.338 . S
C10 N13 1.377 . S
C10 H30 0.930 . S
C11 N9 1.375 . S
C11 C10 1.338 . S
C11 H15 0.931 . S
C12 N9 1.313 . S
C12 N13 1.344 . S
C12 H16 0.930 . S
N13 C10 1.377 . S
N13 C12 1.344 . S
O14 Co6 2.055 . S
O14 C18 1.253 . S
H15 C11 0.931 . S
H16 C12 0.930 . S
O17 Co6 2.039 . S
O17 C7 1.265 . S
C18 O14 1.253 . S
C18 O19 1.227 1_455 S
O19 C18 1.227 1_655 S
N20 Co6 2.140 1_655 S
N20 C23 1.346 . S
N20 C24 1.345 . S
C21 C22 1.387 . S
C21 C25 1.391 . S
C22 C21 1.387 . S
C22 C23 1.369 . S
C22 H31 0.929 1_545 S
C23 N20 1.346 . S
C23 C22 1.369 . S
C23 H26 0.928 1_545 S
C24 N20 1.345 . S
C24 C25 1.371 . S
C24 H27 0.931 . S
C25 C21 1.391 . S
C25 C24 1.371 . S
C25 H32 0.930 . S
H26 C23 0.928 1_565 S
H27 C24 0.931 . S
H28 C4 0.930 . S
H29 C1 0.930 . S
H30 C10 0.930 . S
H31 C22 0.929 1_565 S
H32 C25 0.930 . S
C33 C34 1.351 . S
C33 N36 1.368 . S
C33 H38 0.931 . S
C34 C33 1.351 . S
C34 N35 1.373 . S
C34 H62 0.930 . S
N35 C34 1.373 . S
N35 C37 1.340 . S
N36 C33 1.368 . S
N36 C37 1.321 . S
N36 Co39 2.135 . S
C37 N35 1.340 . S
C37 N36 1.321 . S
C37 H61 0.930 . S
H38 C33 0.931 . S
Co39 N36 2.135 . S
Co39 N42 2.121 . S
Co39 O47 2.055 . S
Co39 O50 2.039 . S
Co39 N53 2.140 . S
C40 O41 1.227 . S
C40 O50 1.265 . S
O41 C40 1.227 . S
N42 Co39 2.121 . S
N42 C44 1.375 . S
N42 C45 1.313 . S
C43 C44 1.338 . S
C43 N46 1.377 . S
C43 H63 0.930 . S
C44 N42 1.375 . S
C44 C43 1.338 . S
C44 H48 0.931 . S
C45 N42 1.313 . S
C45 N46 1.344 . S
C45 H49 0.930 . S
N46 C43 1.377 . S
N46 C45 1.344 . S
O47 Co39 2.055 . S
O47 C51 1.253 . S
H48 C44 0.931 . S
H49 C45 0.930 . S
O50 Co39 2.039 . S
O50 C40 1.265 . S
C51 O47 1.253 . S
C51 O52 1.227 . S
O52 C51 1.227 . S
N53 Co39 2.140 . S
N53 C56 1.346 . S
N53 C57 1.345 . S
C54 C55 1.387 . S
C54 C58 1.391 . S
C55 C54 1.387 . S
C55 C56 1.369 . S
C55 H64 0.929 . S
C56 N53 1.346 . S
C56 C55 1.369 . S
C56 H59 0.928 . S
C57 N53 1.345 . S
C57 C58 1.371 . S
C57 H60 0.931 . S
C58 C54 1.391 . S
C58 C57 1.371 . S
C58 H65 0.930 . S
H59 C56 0.928 . S
H60 C57 0.931 . S
H61 C37 0.930 . S
H62 C34 0.930 . S
H63 C43 0.930 . S
H64 C55 0.929 . S
H65 C58 0.930 . S
C66 C67 1.351 . S
C66 N69 1.368 . S
C66 H71 0.931 . S
C67 C66 1.351 . S
C67 N68 1.373 . S
C67 H95 0.930 . S
N68 C67 1.373 . S
N68 C70 1.340 . S
N69 C66 1.368 . S
N69 C70 1.321 . S
N69 Co72 2.135 . S
C70 N68 1.340 . S
C70 N69 1.321 . S
C70 H94 0.930 . S
H71 C66 0.931 . S
Co72 N69 2.135 . S
Co72 N75 2.121 . S
Co72 O80 2.055 . S
Co72 O83 2.039 . S
Co72 N86 2.140 . S
C73 O74 1.227 . S
C73 O83 1.265 . S
O74 C73 1.227 . S
N75 Co72 2.121 . S
N75 C77 1.375 . S
N75 C78 1.313 1_545 S
C76 C77 1.338 1_565 S
C76 N79 1.377 . S
C76 H96 0.930 . S
C77 N75 1.375 . S
C77 C76 1.338 1_545 S
C77 H81 0.931 . S
C78 N75 1.313 1_565 S
C78 N79 1.344 . S
C78 H82 0.930 . S
N79 C76 1.377 . S
N79 C78 1.344 . S
O80 Co72 2.055 . S
O80 C84 1.253 . S
H81 C77 0.931 . S
H82 C78 0.930 . S
O83 Co72 2.039 . S
O83 C73 1.265 . S
C84 O80 1.253 . S
C84 O85 1.227 . S
O85 C84 1.227 . S
N86 Co72 2.140 . S
N86 C89 1.346 . S
N86 C90 1.345 . S
C87 C88 1.387 . S
C87 C91 1.391 . S
C88 C87 1.387 . S
C88 C89 1.369 . S
C88 H97 0.929 . S
C89 N86 1.346 . S
C89 C88 1.369 . S
C89 H92 0.928 . S
C90 N86 1.345 . S
C90 C91 1.371 . S
C90 H93 0.931 . S
C91 C87 1.391 . S
C91 C90 1.371 . S
C91 H98 0.930 . S
H92 C89 0.928 . S
H93 C90 0.931 . S
H94 C70 0.930 . S
H95 C67 0.930 . S
H96 C76 0.930 . S
H97 C88 0.929 . S
H98 C91 0.930 . S
C99 C100 1.351 . S
C99 N102 1.368 . S
C99 H104 0.931 . S
C100 C99 1.351 . S
C100 N101 1.373 . S
C100 H128 0.930 . S
N101 C100 1.373 . S
N101 C103 1.340 . S
N102 C99 1.368 . S
N102 C103 1.321 . S
N102 Co105 2.135 . S
C103 N101 1.340 . S
C103 N102 1.321 . S
C103 H127 0.930 . S
H104 C99 0.931 . S
Co105 N102 2.135 . S
Co105 N108 2.121 . S
Co105 O113 2.055 . S
Co105 O116 2.039 . S
Co105 N119 2.140 . S
C106 O107 1.227 . S
C106 O116 1.265 . S
O107 C106 1.227 . S
N108 Co105 2.121 . S
N108 C110 1.375 . S
N108 C111 1.313 . S
C109 C110 1.338 . S
C109 N112 1.377 . S
C109 H129 0.930 . S
C110 N108 1.375 . S
C110 C109 1.338 . S
C110 H114 0.931 . S
C111 N108 1.313 . S
C111 N112 1.344 . S
C111 H115 0.930 . S
N112 C109 1.377 . S
N112 C111 1.344 . S
O113 Co105 2.055 . S
O113 C117 1.253 . S
H114 C110 0.931 . S
H115 C111 0.930 . S
O116 Co105 2.039 . S
O116 C106 1.265 . S
C117 O113 1.253 . S
C117 O118 1.227 . S
O118 C117 1.227 . S
N119 Co105 2.140 . S
N119 C122 1.346 . S
N119 C123 1.345 . S
C120 C121 1.387 . S
C120 C124 1.391 . S
C121 C120 1.387 . S
C121 C122 1.369 . S
C121 H130 0.929 . S
C122 N119 1.346 . S
C122 C121 1.369 . S
C122 H125 0.928 . S
C123 N119 1.345 . S
C123 C124 1.371 . S
C123 H126 0.931 . S
C124 C120 1.391 . S
C124 C123 1.371 . S
C124 H131 0.930 . S
H125 C122 0.928 . S
H126 C123 0.931 . S
H127 C103 0.930 . S
H128 C100 0.930 . S
H129 C109 0.930 . S
H130 C121 0.929 . S
H131 C124 0.930 . S
C132 C133 1.351 . S
C132 N135 1.368 1_655 S
C132 H137 0.931 . S
C133 C132 1.351 . S
C133 N134 1.373 1_655 S
C133 H161 0.930 . S
N134 C133 1.373 1_455 S
N134 C136 1.340 . S
N135 C132 1.368 1_455 S
N135 C136 1.321 . S
N135 Co138 2.135 . S
C136 N134 1.340 . S
C136 N135 1.321 . S
C136 H160 0.930 . S
H137 C132 0.931 . S
Co138 N135 2.135 . S
Co138 N141 2.121 . S
Co138 O146 2.055 . S
Co138 O149 2.039 . S
Co138 N152 2.140 1_455 S
C139 O140 1.227 . S
C139 O149 1.265 . S
O140 C139 1.227 . S
N141 Co138 2.121 . S
N141 C143 1.375 . S
N141 C144 1.313 1_545 S
C142 C143 1.338 1_565 S
C142 N145 1.377 . S
C142 H162 0.930 . S
C143 N141 1.375 . S
C143 C142 1.338 1_545 S
C143 H147 0.931 . S
C144 N141 1.313 1_565 S
C144 N145 1.344 . S
C144 H148 0.930 . S
N145 C142 1.377 . S
N145 C144 1.344 . S
O146 Co138 2.055 . S
O146 C150 1.253 . S
H147 C143 0.931 . S
H148 C144 0.930 . S
O149 Co138 2.039 . S
O149 C139 1.265 . S
C150 O146 1.253 . S
C150 O151 1.227 1_455 S
O151 C150 1.227 1_655 S
N152 Co138 2.140 1_655 S
N152 C155 1.346 . S
N152 C156 1.345 . S
C153 C154 1.387 . S
C153 C157 1.391 . S
C154 C153 1.387 . S
C154 C155 1.369 . S
C154 H163 0.929 . S
C155 N152 1.346 . S
C155 C154 1.369 . S
C155 H158 0.928 . S
C156 N152 1.345 . S
C156 C157 1.371 . S
C156 H159 0.931 . S
C157 C153 1.391 . S
C157 C156 1.371 . S
C157 H164 0.930 . S
H158 C155 0.928 . S
H159 C156 0.931 . S
H160 C136 0.930 . S
H161 C133 0.930 . S
H162 C142 0.930 . S
H163 C154 0.929 . S
H164 C157 0.930 . S
C165 C166 1.351 . S
C165 N168 1.368 . S
C165 H170 0.931 . S
C166 C165 1.351 . S
C166 N167 1.373 . S
C166 H194 0.930 . S
N167 C166 1.373 . S
N167 C169 1.340 . S
N168 C165 1.368 . S
N168 C169 1.321 . S
N168 Co171 2.135 . S
C169 N167 1.340 . S
C169 N168 1.321 . S
C169 H193 0.930 . S
H170 C165 0.931 . S
Co171 N168 2.135 . S
Co171 N174 2.121 . S
Co171 O179 2.055 . S
Co171 O182 2.039 . S
Co171 N185 2.140 . S
C172 O173 1.227 . S
C172 O182 1.265 . S
O173 C172 1.227 . S
N174 Co171 2.121 . S
N174 C176 1.375 . S
N174 C177 1.313 . S
C175 C176 1.338 . S
C175 N178 1.377 . S
C175 H195 0.930 . S
C176 N174 1.375 . S
C176 C175 1.338 . S
C176 H180 0.931 . S
C177 N174 1.313 . S
C177 N178 1.344 . S
C177 H181 0.930 . S
N178 C175 1.377 . S
N178 C177 1.344 . S
O179 Co171 2.055 . S
O179 C183 1.253 . S
H180 C176 0.931 . S
H181 C177 0.930 . S
O182 Co171 2.039 . S
O182 C172 1.265 . S
C183 O179 1.253 . S
C183 O184 1.227 . S
O184 C183 1.227 . S
N185 Co171 2.140 . S
N185 C188 1.346 . S
N185 C189 1.345 . S
C186 C187 1.387 . S
C186 C190 1.391 . S
C187 C186 1.387 . S
C187 C188 1.369 . S
C187 H196 0.929 . S
C188 N185 1.346 . S
C188 C187 1.369 . S
C188 H191 0.928 . S
C189 N185 1.345 . S
C189 C190 1.371 . S
C189 H192 0.931 . S
C190 C186 1.391 . S
C190 C189 1.371 . S
C190 H197 0.930 . S
H191 C188 0.928 . S
H192 C189 0.931 . S
H193 C169 0.930 . S
H194 C166 0.930 . S
H195 C175 0.930 . S
H196 C187 0.929 . S
H197 C190 0.930 . S
C198 C199 1.351 . S
C198 N201 1.368 . S
C198 H203 0.931 . S
C199 C198 1.351 . S
C199 N200 1.373 . S
C199 H227 0.930 . S
N200 C199 1.373 . S
N200 C202 1.340 . S
N201 C198 1.368 . S
N201 C202 1.321 . S
N201 Co204 2.135 1_565 S
C202 N200 1.340 . S
C202 N201 1.321 . S
C202 H226 0.930 . S
H203 C198 0.931 . S
Co204 N201 2.135 1_545 S
Co204 N207 2.121 . S
Co204 O212 2.055 . S
Co204 O215 2.039 . S
Co204 N218 2.140 . S
C205 O206 1.227 . S
C205 O215 1.265 . S
O206 C205 1.227 . S
N207 Co204 2.121 . S
N207 C209 1.375 . S
N207 C210 1.313 . S
C208 C209 1.338 . S
C208 N211 1.377 . S
C208 H228 0.930 . S
C209 N207 1.375 . S
C209 C208 1.338 . S
C209 H213 0.931 . S
C210 N207 1.313 . S
C210 N211 1.344 . S
C210 H214 0.930 . S
N211 C208 1.377 . S
N211 C210 1.344 . S
O212 Co204 2.055 . S
O212 C216 1.253 . S
H213 C209 0.931 . S
H214 C210 0.930 . S
O215 Co204 2.039 . S
O215 C205 1.265 . S
C216 O212 1.253 . S
C216 O217 1.227 . S
O217 C216 1.227 . S
N218 Co204 2.140 . S
N218 C221 1.346 . S
N218 C222 1.345 . S
C219 C220 1.387 . S
C219 C223 1.391 . S
C220 C219 1.387 . S
C220 C221 1.369 . S
C220 H229 0.929 1_545 S
C221 N218 1.346 . S
C221 C220 1.369 . S
C221 H224 0.928 1_545 S
C222 N218 1.345 . S
C222 C223 1.371 . S
C222 H225 0.931 . S
C223 C219 1.391 . S
C223 C222 1.371 . S
C223 H230 0.930 . S
H224 C221 0.928 1_565 S
H225 C222 0.931 . S
H226 C202 0.930 . S
H227 C199 0.930 . S
H228 C208 0.930 . S
H229 C220 0.929 1_565 S
H230 C223 0.930 . S
C231 C232 1.351 . S
C231 N234 1.368 . S
C231 H236 0.931 . S
C232 C231 1.351 . S
C232 N233 1.373 . S
C232 H260 0.930 . S
N233 C232 1.373 . S
N233 C235 1.340 . S
N234 C231 1.368 . S
N234 C235 1.321 . S
N234 Co237 2.135 . S
C235 N233 1.340 . S
C235 N234 1.321 . S
C235 H259 0.930 . S
H236 C231 0.931 . S
Co237 N234 2.135 . S
Co237 N240 2.121 . S
Co237 O245 2.055 . S
Co237 O248 2.039 . S
Co237 N251 2.140 . S
C238 O239 1.227 . S
C238 O248 1.265 . S
O239 C238 1.227 . S
N240 Co237 2.121 . S
N240 C242 1.375 . S
N240 C243 1.313 . S
C241 C242 1.338 . S
C241 N244 1.377 . S
C241 H261 0.930 . S
C242 N240 1.375 . S
C242 C241 1.338 . S
C242 H246 0.931 . S
C243 N240 1.313 . S
C243 N244 1.344 . S
C243 H247 0.930 . S
N244 C241 1.377 . S
N244 C243 1.344 . S
O245 Co237 2.055 . S
O245 C249 1.253 . S
H246 C242 0.931 . S
H247 C243 0.930 . S
O248 Co237 2.039 . S
O248 C238 1.265 . S
C249 O245 1.253 . S
C249 O250 1.227 . S
O250 C249 1.227 . S
N251 Co237 2.140 . S
N251 C254 1.346 . S
N251 C255 1.345 . S
C252 C253 1.387 . S
C252 C256 1.391 . S
C253 C252 1.387 . S
C253 C254 1.369 . S
C253 H262 0.929 . S
C254 N251 1.346 . S
C254 C253 1.369 . S
C254 H257 0.928 . S
C255 N251 1.345 . S
C255 C256 1.371 . S
C255 H258 0.931 . S
C256 C252 1.391 . S
C256 C255 1.371 . S
C256 H263 0.930 . S
H257 C254 0.928 . S
H258 C255 0.931 . S
H259 C235 0.930 . S
H260 C232 0.930 . S
H261 C241 0.930 . S
H262 C253 0.929 . S
H263 C256 0.930 . S
C264 C265 1.351 . S
C264 N267 1.368 . S
C264 H269 0.931 . S
C265 C264 1.351 . S
C265 N266 1.373 . S
C265 H293 0.930 . S
N266 C265 1.373 . S
N266 C268 1.340 . S
N267 C264 1.368 . S
N267 C268 1.321 . S
N267 Co270 2.135 . S
C268 N266 1.340 . S
C268 N267 1.321 . S
C268 H292 0.930 . S
H269 C264 0.931 . S
Co270 N267 2.135 . S
Co270 N273 2.121 . S
Co270 O278 2.055 . S
Co270 O281 2.039 . S
Co270 N284 2.140 . S
C271 O272 1.227 . S
C271 O281 1.265 . S
O272 C271 1.227 . S
N273 Co270 2.121 . S
N273 C275 1.375 . S
N273 C276 1.313 . S
C274 C275 1.338 . S
C274 N277 1.377 . S
C274 H294 0.930 . S
C275 N273 1.375 . S
C275 C274 1.338 . S
C275 H279 0.931 . S
C276 N273 1.313 . S
C276 N277 1.344 . S
C276 H280 0.930 . S
N277 C274 1.377 . S
N277 C276 1.344 . S
O278 Co270 2.055 . S
O278 C282 1.253 . S
H279 C275 0.931 . S
H280 C276 0.930 . S
O281 Co270 2.039 . S
O281 C271 1.265 . S
C282 O278 1.253 . S
C282 O283 1.227 . S
O283 C282 1.227 . S
N284 Co270 2.140 . S
N284 C287 1.346 . S
N284 C288 1.345 . S
C285 C286 1.387 . S
C285 C289 1.391 . S
C286 C285 1.387 . S
C286 C287 1.369 . S
C286 H295 0.929 . S
C287 N284 1.346 . S
C287 C286 1.369 . S
C287 H290 0.928 . S
C288 N284 1.345 . S
C288 C289 1.371 . S
C288 H291 0.931 . S
C289 C285 1.391 . S
C289 C288 1.371 . S
C289 H296 0.930 . S
H290 C287 0.928 . S
H291 C288 0.931 . S
H292 C268 0.930 . S
H293 C265 0.930 . S
H294 C274 0.930 . S
H295 C286 0.929 . S
H296 C289 0.930 . S
C297 C298 1.351 . S
C297 N300 1.368 . S
C297 H302 0.931 . S
C298 C297 1.351 . S
C298 N299 1.373 . S
C298 H326 0.930 . S
N299 C298 1.373 . S
N299 C301 1.340 . S
N300 C297 1.368 . S
N300 C301 1.321 . S
N300 Co303 2.135 . S
C301 N299 1.340 . S
C301 N300 1.321 . S
C301 H325 0.930 . S
H302 C297 0.931 . S
Co303 N300 2.135 . S
Co303 N306 2.121 . S
Co303 O311 2.055 . S
Co303 O314 2.039 . S
Co303 N317 2.140 . S
C304 O305 1.227 . S
C304 O314 1.265 . S
O305 C304 1.227 . S
N306 Co303 2.121 . S
N306 C308 1.375 . S
N306 C309 1.313 . S
C307 C308 1.338 . S
C307 N310 1.377 . S
C307 H327 0.930 . S
C308 N306 1.375 . S
C308 C307 1.338 . S
C308 H312 0.931 . S
C309 N306 1.313 . S
C309 N310 1.344 . S
C309 H313 0.930 . S
N310 C307 1.377 . S
N310 C309 1.344 . S
O311 Co303 2.055 . S
O311 C315 1.253 . S
H312 C308 0.931 . S
H313 C309 0.930 . S
O314 Co303 2.039 . S
O314 C304 1.265 . S
C315 O311 1.253 . S
C315 O316 1.227 . S
O316 C315 1.227 . S
N317 Co303 2.140 . S
N317 C320 1.346 . S
N317 C321 1.345 . S
C318 C319 1.387 . S
C318 C322 1.391 . S
C319 C318 1.387 . S
C319 C320 1.369 . S
C319 H328 0.929 . S
C320 N317 1.346 . S
C320 C319 1.369 . S
C320 H323 0.928 . S
C321 N317 1.345 . S
C321 C322 1.371 . S
C321 H324 0.931 . S
C322 C318 1.391 . S
C322 C321 1.371 . S
C322 H329 0.930 . S
H323 C320 0.928 . S
H324 C321 0.931 . S
H325 C301 0.930 . S
H326 C298 0.930 . S
H327 C307 0.930 . S
H328 C319 0.929 . S
H329 C322 0.930 . S
C330 C331 1.351 . S
C330 N333 1.368 . S
C330 H335 0.931 . S
C331 C330 1.351 . S
C331 N332 1.373 . S
C331 H359 0.930 . S
N332 C331 1.373 . S
N332 C334 1.340 . S
N333 C330 1.368 . S
N333 C334 1.321 . S
N333 Co336 2.135 . S
C334 N332 1.340 . S
C334 N333 1.321 . S
C334 H358 0.930 . S
H335 C330 0.931 . S
Co336 N333 2.135 . S
Co336 N339 2.121 . S
Co336 O344 2.055 . S
Co336 O347 2.039 . S
Co336 N350 2.140 . S
C337 O338 1.227 . S
C337 O347 1.265 . S
O338 C337 1.227 . S
N339 Co336 2.121 . S
N339 C341 1.375 . S
N339 C342 1.313 . S
C340 C341 1.338 . S
C340 N343 1.377 . S
C340 H360 0.930 . S
C341 N339 1.375 . S
C341 C340 1.338 . S
C341 H345 0.931 . S
C342 N339 1.313 . S
C342 N343 1.344 . S
C342 H346 0.930 . S
N343 C340 1.377 . S
N343 C342 1.344 . S
O344 Co336 2.055 . S
O344 C348 1.253 . S
H345 C341 0.931 . S
H346 C342 0.930 . S
O347 Co336 2.039 . S
O347 C337 1.265 . S
C348 O344 1.253 . S
C348 O349 1.227 . S
O349 C348 1.227 . S
N350 Co336 2.140 . S
N350 C353 1.346 . S
N350 C354 1.345 . S
C351 C352 1.387 . S
C351 C355 1.391 . S
C352 C351 1.387 . S
C352 C353 1.369 . S
C352 H361 0.929 . S
C353 N350 1.346 . S
C353 C352 1.369 . S
C353 H356 0.928 . S
C354 N350 1.345 . S
C354 C355 1.371 . S
C354 H357 0.931 . S
C355 C351 1.391 . S
C355 C354 1.371 . S
C355 H362 0.930 . S
H356 C353 0.928 . S
H357 C354 0.931 . S
H358 C334 0.930 . S
H359 C331 0.930 . S
H360 C340 0.930 . S
H361 C352 0.929 . S
H362 C355 0.930 . S
C363 C364 1.351 . S
C363 N366 1.368 . S
C363 H368 0.931 . S
C364 C363 1.351 . S
C364 N365 1.373 . S
C364 H392 0.930 . S
N365 C364 1.373 . S
N365 C367 1.340 . S
N366 C363 1.368 . S
N366 C367 1.321 . S
N366 Co369 2.135 . S
C367 N365 1.340 . S
C367 N366 1.321 . S
C367 H391 0.930 . S
H368 C363 0.931 . S
Co369 N366 2.135 . S
Co369 N372 2.121 . S
Co369 O377 2.055 . S
Co369 O380 2.039 . S
Co369 N383 2.140 . S
C370 O371 1.227 . S
C370 O380 1.265 . S
O371 C370 1.227 . S
N372 Co369 2.121 . S
N372 C374 1.375 . S
N372 C375 1.313 . S
C373 C374 1.338 . S
C373 N376 1.377 . S
C373 H393 0.930 . S
C374 N372 1.375 . S
C374 C373 1.338 . S
C374 H378 0.931 . S
C375 N372 1.313 . S
C375 N376 1.344 . S
C375 H379 0.930 . S
N376 C373 1.377 . S
N376 C375 1.344 . S
O377 Co369 2.055 . S
O377 C381 1.253 . S
H378 C374 0.931 . S
H379 C375 0.930 . S
O380 Co369 2.039 . S
O380 C370 1.265 . S
C381 O377 1.253 . S
C381 O382 1.227 . S
O382 C381 1.227 . S
N383 Co369 2.140 . S
N383 C386 1.346 . S
N383 C387 1.345 . S
C384 C385 1.387 . S
C384 C388 1.391 . S
C385 C384 1.387 . S
C385 C386 1.369 . S
C385 H394 0.929 . S
C386 N383 1.346 . S
C386 C385 1.369 . S
C386 H389 0.928 . S
C387 N383 1.345 . S
C387 C388 1.371 . S
C387 H390 0.931 . S
C388 C384 1.391 . S
C388 C387 1.371 . S
C388 H395 0.930 . S
H389 C386 0.928 . S
H390 C387 0.931 . S
H391 C367 0.930 . S
H392 C364 0.930 . S
H393 C373 0.930 . S
H394 C385 0.929 . S
H395 C388 0.930 . S
C396 C397 1.351 . S
C396 N399 1.368 . S
C396 H401 0.931 . S
C397 C396 1.351 . S
C397 N398 1.373 . S
C397 H425 0.930 . S
N398 C397 1.373 . S
N398 C400 1.340 . S
N399 C396 1.368 . S
N399 C400 1.321 . S
N399 Co402 2.135 . S
C400 N398 1.340 . S
C400 N399 1.321 . S
C400 H424 0.930 . S
H401 C396 0.931 . S
Co402 N399 2.135 . S
Co402 N405 2.121 . S
Co402 O410 2.055 . S
Co402 O413 2.039 . S
Co402 N416 2.140 . S
C403 O404 1.227 . S
C403 O413 1.265 . S
O404 C403 1.227 . S
N405 Co402 2.121 . S
N405 C407 1.375 . S
N405 C408 1.313 . S
C406 C407 1.338 . S
C406 N409 1.377 . S
C406 H426 0.930 . S
C407 N405 1.375 . S
C407 C406 1.338 . S
C407 H411 0.931 . S
C408 N405 1.313 . S
C408 N409 1.344 . S
C408 H412 0.930 . S
N409 C406 1.377 . S
N409 C408 1.344 . S
O410 Co402 2.055 . S
O410 C414 1.253 . S
H411 C407 0.931 . S
H412 C408 0.930 . S
O413 Co402 2.039 . S
O413 C403 1.265 . S
C414 O410 1.253 . S
C414 O415 1.227 . S
O415 C414 1.227 . S
N416 Co402 2.140 . S
N416 C419 1.346 . S
N416 C420 1.345 . S
C417 C418 1.387 . S
C417 C421 1.391 . S
C418 C417 1.387 . S
C418 C419 1.369 . S
C418 H427 0.929 . S
C419 N416 1.346 . S
C419 C418 1.369 . S
C419 H422 0.928 . S
C420 N416 1.345 . S
C420 C421 1.371 . S
C420 H423 0.931 . S
C421 C417 1.391 . S
C421 C420 1.371 . S
C421 H428 0.930 . S
H422 C419 0.928 . S
H423 C420 0.931 . S
H424 C400 0.930 . S
H425 C397 0.930 . S
H426 C406 0.930 . S
H427 C418 0.929 . S
H428 C421 0.930 . S
C429 C430 1.351 . S
C429 N432 1.368 1_455 S
C429 H434 0.931 . S
C430 C429 1.351 . S
C430 N431 1.373 1_455 S
C430 H458 0.930 . S
N431 C430 1.373 1_655 S
N431 C433 1.340 . S
N432 C429 1.368 1_655 S
N432 C433 1.321 . S
N432 Co435 2.135 . S
C433 N431 1.340 . S
C433 N432 1.321 . S
C433 H457 0.930 . S
H434 C429 0.931 . S
Co435 N432 2.135 . S
Co435 N438 2.121 . S
Co435 O443 2.055 . S
Co435 O446 2.039 . S
Co435 N449 2.140 1_655 S
C436 O437 1.227 . S
C436 O446 1.265 . S
O437 C436 1.227 . S
N438 Co435 2.121 . S
N438 C440 1.375 . S
N438 C441 1.313 . S
C439 C440 1.338 . S
C439 N442 1.377 . S
C439 H459 0.930 . S
C440 N438 1.375 . S
C440 C439 1.338 . S
C440 H444 0.931 . S
C441 N438 1.313 . S
C441 N442 1.344 . S
C441 H445 0.930 . S
N442 C439 1.377 . S
N442 C441 1.344 . S
O443 Co435 2.055 . S
O443 C447 1.253 1_655 S
H444 C440 0.931 . S
H445 C441 0.930 . S
O446 Co435 2.039 . S
O446 C436 1.265 . S
C447 O443 1.253 1_455 S
C447 O448 1.227 . S
O448 C447 1.227 . S
N449 Co435 2.140 1_455 S
N449 C452 1.346 . S
N449 C453 1.345 . S
C450 C451 1.387 . S
C450 C454 1.391 . S
C451 C450 1.387 . S
C451 C452 1.369 . S
C451 H460 0.929 . S
C452 N449 1.346 . S
C452 C451 1.369 . S
C452 H455 0.928 . S
C453 N449 1.345 . S
C453 C454 1.371 . S
C453 H456 0.931 . S
C454 C450 1.391 . S
C454 C453 1.371 . S
C454 H461 0.930 . S
H455 C452 0.928 . S
H456 C453 0.931 . S
H457 C433 0.930 . S
H458 C430 0.930 . S
H459 C439 0.930 . S
H460 C451 0.929 . S
H461 C454 0.930 . S
C462 C463 1.351 . S
C462 N465 1.368 . S
C462 H467 0.931 . S
C463 C462 1.351 . S
C463 N464 1.373 . S
C463 H491 0.930 . S
N464 C463 1.373 . S
N464 C466 1.340 . S
N465 C462 1.368 . S
N465 C466 1.321 . S
N465 Co468 2.135 . S
C466 N464 1.340 . S
C466 N465 1.321 . S
C466 H490 0.930 . S
H467 C462 0.931 . S
Co468 N465 2.135 . S
Co468 N471 2.121 . S
Co468 O476 2.055 . S
Co468 O479 2.039 . S
Co468 N482 2.140 . S
C469 O470 1.227 . S
C469 O479 1.265 . S
O470 C469 1.227 . S
N471 Co468 2.121 . S
N471 C473 1.375 . S
N471 C474 1.313 . S
C472 C473 1.338 . S
C472 N475 1.377 . S
C472 H492 0.930 . S
C473 N471 1.375 . S
C473 C472 1.338 . S
C473 H477 0.931 . S
C474 N471 1.313 . S
C474 N475 1.344 . S
C474 H478 0.930 . S
N475 C472 1.377 . S
N475 C474 1.344 . S
O476 Co468 2.055 . S
O476 C480 1.253 . S
H477 C473 0.931 . S
H478 C474 0.930 . S
O479 Co468 2.039 . S
O479 C469 1.265 . S
C480 O476 1.253 . S
C480 O481 1.227 . S
O481 C480 1.227 . S
N482 Co468 2.140 . S
N482 C485 1.346 . S
N482 C486 1.345 . S
C483 C484 1.387 . S
C483 C487 1.391 . S
C484 C483 1.387 . S
C484 C485 1.369 . S
C484 H493 0.929 . S
C485 N482 1.346 . S
C485 C484 1.369 . S
C485 H488 0.928 . S
C486 N482 1.345 . S
C486 C487 1.371 . S
C486 H489 0.931 . S
C487 C483 1.391 . S
C487 C486 1.371 . S
C487 H494 0.930 . S
H488 C485 0.928 . S
H489 C486 0.931 . S
H490 C466 0.930 . S
H491 C463 0.930 . S
H492 C472 0.930 . S
H493 C484 0.929 . S
H494 C487 0.930 . S
C495 C496 1.351 . S
C495 N498 1.368 1_455 S
C495 H500 0.931 . S
C496 C495 1.351 . S
C496 N497 1.373 1_455 S
C496 H524 0.930 . S
N497 C496 1.373 1_655 S
N497 C499 1.340 . S
N498 C495 1.368 1_655 S
N498 C499 1.321 . S
N498 Co501 2.135 . S
C499 N497 1.340 . S
C499 N498 1.321 . S
C499 H523 0.930 . S
H500 C495 0.931 . S
Co501 N498 2.135 . S
Co501 N504 2.121 . S
Co501 O509 2.055 . S
Co501 O512 2.039 . S
Co501 N515 2.140 1_655 S
C502 O503 1.227 . S
C502 O512 1.265 . S
O503 C502 1.227 . S
N504 Co501 2.121 . S
N504 C506 1.375 . S
N504 C507 1.313 . S
C505 C506 1.338 . S
C505 N508 1.377 . S
C505 H525 0.930 . S
C506 N504 1.375 . S
C506 C505 1.338 . S
C506 H510 0.931 . S
C507 N504 1.313 . S
C507 N508 1.344 . S
C507 H511 0.930 . S
N508 C505 1.377 . S
N508 C507 1.344 . S
O509 Co501 2.055 . S
O509 C513 1.253 1_655 S
H510 C506 0.931 . S
H511 C507 0.930 . S
O512 Co501 2.039 . S
O512 C502 1.265 . S
C513 O509 1.253 1_455 S
C513 O514 1.227 . S
O514 C513 1.227 . S
N515 Co501 2.140 1_455 S
N515 C518 1.346 . S
N515 C519 1.345 . S
C516 C517 1.387 . S
C516 C520 1.391 . S
C517 C516 1.387 . S
C517 C518 1.369 . S
C517 H526 0.929 . S
C518 N515 1.346 . S
C518 C517 1.369 . S
C518 H521 0.928 . S
C519 N515 1.345 . S
C519 C520 1.371 . S
C519 H522 0.931 . S
C520 C516 1.391 . S
C520 C519 1.371 . S
C520 H527 0.930 . S
H521 C518 0.928 . S
H522 C519 0.931 . S
H523 C499 0.930 . S
H524 C496 0.930 . S
H525 C505 0.930 . S
H526 C517 0.929 . S
H527 C520 0.930 . S
C528 C529 1.391 . S
C528 C530 1.394 . S
C528 H544 0.931 . S
C529 C528 1.391 . S
C529 C533 1.376 1_655 S
C530 C528 1.394 . S
C530 C531 1.369 . S
C530 C534 1.531 . S
C531 C530 1.369 . S
C531 C532 1.410 1_655 S
C531 C539 1.502 1_655 S
C532 C531 1.410 1_455 S
C532 C533 1.392 . S
C532 C535 1.511 . S
C533 C529 1.376 1_455 S
C533 C532 1.392 . S
C533 H545 0.929 . S
C534 C530 1.531 . S
C534 H546 0.960 . S
C534 H547 0.962 . S
C534 H548 0.960 . S
C535 C532 1.511 . S
C535 H549 0.961 . S
C535 H550 0.961 . S
C535 H551 0.961 . S
C536 C537 1.370 . S
C536 C538 1.363 . S
C536 H552 0.931 . S
C537 C536 1.370 . S
C537 C541 1.408 1_455 S
C538 C536 1.363 . S
C538 C539 1.378 . S
C538 C542 1.524 . S
C539 C531 1.502 1_455 S
C539 C538 1.378 . S
C539 C540 1.397 1_455 S
C540 C539 1.397 1_655 S
C540 C541 1.404 . S
C540 C543 1.539 . S
C541 C537 1.408 1_655 S
C541 C540 1.404 . S
C541 H553 0.930 . S
C542 C538 1.524 . S
C542 H554 0.956 . S
C542 H555 0.961 . S
C542 H556 0.961 . S
C543 C540 1.539 . S
C543 H557 0.958 . S
C543 H558 0.961 . S
C543 H559 0.960 . S
H544 C528 0.931 . S
H545 C533 0.929 . S
H546 C534 0.960 . S
H547 C534 0.962 . S
H548 C534 0.960 . S
H549 C535 0.961 . S
H550 C535 0.961 . S
H551 C535 0.961 . S
H552 C536 0.931 . S
H553 C541 0.930 . S
H554 C542 0.956 . S
H555 C542 0.961 . S
H556 C542 0.961 . S
H557 C543 0.958 . S
H558 C543 0.961 . S
H559 C543 0.960 . S
C560 C561 1.391 . S
C560 C562 1.394 . S
C560 H576 0.931 . S
C561 C560 1.391 . S
C561 C565 1.376 . S
C562 C560 1.394 . S
C562 C563 1.369 . S
C562 C566 1.531 . S
C563 C562 1.369 . S
C563 C564 1.410 . S
C563 C571 1.503 1_455 S
C564 C563 1.410 . S
C564 C565 1.392 . S
C564 C567 1.511 . S
C565 C561 1.376 . S
C565 C564 1.392 . S
C565 H577 0.929 . S
C566 C562 1.531 . S
C566 H578 0.960 . S
C566 H579 0.962 . S
C566 H580 0.960 . S
C567 C564 1.511 . S
C567 H581 0.961 . S
C567 H582 0.961 1_455 S
C567 H583 0.961 . S
C568 C569 1.370 . S
C568 C570 1.363 . S
C568 H584 0.931 . S
C569 C568 1.370 . S
C569 C573 1.408 . S
C570 C568 1.363 . S
C570 C571 1.370 . S
C570 C574 1.524 . S
C571 C563 1.503 1_655 S
C571 C570 1.370 . S
C571 C572 1.403 . S
C572 C571 1.403 . S
C572 C573 1.404 . S
C572 C575 1.539 . S
C573 C569 1.408 . S
C573 C572 1.404 . S
C573 H585 0.930 . S
C574 C570 1.524 . S
C574 H586 0.956 1_655 S
C574 H587 0.961 1_655 S
C574 H588 0.961 . S
C575 C572 1.539 . S
C575 H589 0.958 . S
C575 H590 0.961 . S
C575 H591 0.960 . S
H576 C560 0.931 . S
H577 C565 0.929 . S
H578 C566 0.960 . S
H579 C566 0.962 . S
H580 C566 0.960 . S
H581 C567 0.961 . S
H582 C567 0.961 1_655 S
H583 C567 0.961 . S
H584 C568 0.931 . S
H585 C573 0.930 . S
H586 C574 0.956 1_455 S
H587 C574 0.961 1_455 S
H588 C574 0.961 . S
H589 C575 0.958 . S
H590 C575 0.961 . S
H591 C575 0.960 . S
C592 C593 1.391 . S
C592 C594 1.394 . S
C592 H608 0.931 . S
C593 C592 1.391 . S
C593 C597 1.376 . S
C594 C592 1.394 . S
C594 C595 1.369 . S
C594 C598 1.531 . S
C595 C594 1.369 . S
C595 C596 1.410 . S
C595 C603 1.503 . S
C596 C595 1.410 . S
C596 C597 1.392 . S
C596 C599 1.511 . S
C597 C593 1.376 . S
C597 C596 1.392 . S
C597 H609 0.929 . S
C598 C594 1.531 . S
C598 H610 0.960 . S
C598 H611 0.962 . S
C598 H612 0.960 . S
C599 C596 1.511 . S
C599 H613 0.961 . S
C599 H614 0.961 . S
C599 H615 0.961 . S
C600 C601 1.370 . S
C600 C602 1.363 . S
C600 H616 0.931 . S
C601 C600 1.370 . S
C601 C605 1.408 . S
C602 C600 1.363 . S
C602 C603 1.370 . S
C602 C606 1.524 . S
C603 C595 1.503 . S
C603 C602 1.370 . S
C603 C604 1.403 . S
C604 C603 1.403 . S
C604 C605 1.404 . S
C604 C607 1.539 . S
C605 C601 1.408 . S
C605 C604 1.404 . S
C605 H617 0.930 . S
C606 C602 1.524 . S
C606 H618 0.956 . S
C606 H619 0.961 . S
C606 H620 0.961 . S
C607 C604 1.539 . S
C607 H621 0.958 . S
C607 H622 0.961 . S
C607 H623 0.960 . S
H608 C592 0.931 . S
H609 C597 0.929 . S
H610 C598 0.960 . S
H611 C598 0.962 . S
H612 C598 0.960 . S
H613 C599 0.961 . S
H614 C599 0.961 . S
H615 C599 0.961 . S
H616 C600 0.931 . S
H617 C605 0.930 . S
H618 C606 0.956 . S
H619 C606 0.961 . S
H620 C606 0.961 . S
H621 C607 0.958 . S
H622 C607 0.961 . S
H623 C607 0.960 . S
C624 C625 1.391 . S
C624 C626 1.394 . S
C624 H640 0.931 . S
C625 C624 1.391 . S
C625 C629 1.376 . S
C626 C624 1.394 . S
C626 C627 1.369 . S
C626 C630 1.531 . S
C627 C626 1.369 . S
C627 C628 1.410 . S
C627 C635 1.503 . S
C628 C627 1.410 . S
C628 C629 1.392 . S
C628 C631 1.511 . S
C629 C625 1.376 . S
C629 C628 1.392 . S
C629 H641 0.929 . S
C630 C626 1.531 . S
C630 H642 0.960 . S
C630 H643 0.962 . S
C630 H644 0.960 . S
C631 C628 1.511 . S
C631 H645 0.961 . S
C631 H646 0.961 . S
C631 H647 0.961 . S
C632 C633 1.370 . S
C632 C634 1.363 . S
C632 H648 0.931 . S
C633 C632 1.370 . S
C633 C637 1.408 . S
C634 C632 1.363 . S
C634 C635 1.370 . S
C634 C638 1.524 . S
C635 C627 1.503 . S
C635 C634 1.370 . S
C635 C636 1.403 . S
C636 C635 1.403 . S
C636 C637 1.404 . S
C636 C639 1.539 . S
C637 C633 1.408 . S
C637 C636 1.404 . S
C637 H649 0.930 . S
C638 C634 1.524 . S
C638 H650 0.956 . S
C638 H651 0.961 . S
C638 H652 0.961 . S
C639 C636 1.539 . S
C639 H653 0.958 . S
C639 H654 0.961 . S
C639 H655 0.960 . S
H640 C624 0.931 . S
H641 C629 0.929 . S
H642 C630 0.960 . S
H643 C630 0.962 . S
H644 C630 0.960 . S
H645 C631 0.961 . S
H646 C631 0.961 . S
H647 C631 0.961 . S
H648 C632 0.931 . S
H649 C637 0.930 . S
H650 C638 0.956 . S
H651 C638 0.961 . S
H652 C638 0.961 . S
H653 C639 0.958 . S
H654 C639 0.961 . S
H655 C639 0.960 . S
C656 C657 1.391 1_455 S
C656 C658 1.394 . S
C656 H672 0.931 . S
C657 C656 1.391 1_655 S
C657 C661 1.376 . S
C658 C656 1.394 . S
C658 C659 1.388 . S
C658 C662 1.531 . S
C659 C658 1.388 . S
C659 C660 1.387 1_455 S
C659 C667 1.506 . S
C660 C659 1.387 1_655 S
C660 C661 1.392 . S
C660 C663 1.511 . S
C661 C657 1.376 . S
C661 C660 1.392 . S
C661 H673 0.929 . S
C662 C658 1.531 . S
C662 H674 0.960 . S
C662 H675 0.962 . S
C662 H676 0.960 . S
C663 C660 1.511 . S
C663 H677 0.961 . S
C663 H678 0.961 . S
C663 H679 0.961 . S
C664 C665 1.370 . S
C664 C666 1.363 . S
C664 H680 0.931 . S
C665 C664 1.370 . S
C665 C669 1.408 . S
C666 C664 1.363 . S
C666 C667 1.370 . S
C666 C670 1.524 . S
C667 C659 1.506 . S
C667 C666 1.370 . S
C667 C668 1.403 . S
C668 C667 1.403 . S
C668 C669 1.404 . S
C668 C671 1.539 1_455 S
C669 C665 1.408 . S
C669 C668 1.404 . S
C669 H681 0.930 . S
C670 C666 1.524 . S
C670 H682 0.956 . S
C670 H683 0.961 1_455 S
C670 H684 0.961 . S
C671 C668 1.539 1_655 S
C671 H685 0.958 1_655 S
C671 H686 0.961 . S
C671 H687 0.960 . S
H672 C656 0.931 . S
H673 C661 0.929 . S
H674 C662 0.960 . S
H675 C662 0.962 . S
H676 C662 0.960 . S
H677 C663 0.961 . S
H678 C663 0.961 . S
H679 C663 0.961 . S
H680 C664 0.931 . S
H681 C669 0.930 . S
H682 C670 0.956 . S
H683 C670 0.961 1_655 S
H684 C670 0.961 . S
H685 C671 0.958 1_455 S
H686 C671 0.961 . S
H687 C671 0.960 . S
C688 C689 1.391 . S
C688 C690 1.394 . S
C688 H704 0.931 . S
C689 C688 1.391 . S
C689 C693 1.376 . S
C690 C688 1.394 . S
C690 C691 1.369 . S
C690 C694 1.531 . S
C691 C690 1.369 . S
C691 C692 1.410 . S
C691 C699 1.503 . S
C692 C691 1.410 . S
C692 C693 1.392 . S
C692 C695 1.511 . S
C693 C689 1.376 . S
C693 C692 1.392 . S
C693 H705 0.929 . S
C694 C690 1.531 . S
C694 H706 0.960 . S
C694 H707 0.962 . S
C694 H708 0.960 . S
C695 C692 1.511 . S
C695 H709 0.961 . S
C695 H710 0.961 . S
C695 H711 0.961 . S
C696 C697 1.370 . S
C696 C698 1.363 . S
C696 H712 0.931 . S
C697 C696 1.370 . S
C697 C701 1.408 . S
C698 C696 1.363 . S
C698 C699 1.370 . S
C698 C702 1.524 . S
C699 C691 1.503 . S
C699 C698 1.370 . S
C699 C700 1.403 . S
C700 C699 1.403 . S
C700 C701 1.404 . S
C700 C703 1.539 . S
C701 C697 1.408 . S
C701 C700 1.404 . S
C701 H713 0.930 . S
C702 C698 1.524 . S
C702 H714 0.956 . S
C702 H715 0.961 . S
C702 H716 0.961 . S
C703 C700 1.539 . S
C703 H717 0.958 . S
C703 H718 0.961 . S
C703 H719 0.960 . S
H704 C688 0.931 . S
H705 C693 0.929 . S
H706 C694 0.960 . S
H707 C694 0.962 . S
H708 C694 0.960 . S
H709 C695 0.961 . S
H710 C695 0.961 . S
H711 C695 0.961 . S
H712 C696 0.931 . S
H713 C701 0.930 . S
H714 C702 0.956 . S
H715 C702 0.961 . S
H716 C702 0.961 . S
H717 C703 0.958 . S
H718 C703 0.961 . S
H719 C703 0.960 . S
C720 C721 1.391 . S
C720 C722 1.394 . S
C720 H736 0.931 . S
C721 C720 1.391 . S
C721 C725 1.376 . S
C722 C720 1.394 . S
C722 C723 1.369 . S
C722 C726 1.531 . S
C723 C722 1.369 . S
C723 C724 1.410 . S
C723 C731 1.503 . S
C724 C723 1.410 . S
C724 C725 1.392 . S
C724 C727 1.511 . S
C725 C721 1.376 . S
C725 C724 1.392 . S
C725 H737 0.929 . S
C726 C722 1.531 . S
C726 H738 0.960 . S
C726 H739 0.962 . S
C726 H740 0.960 . S
C727 C724 1.511 . S
C727 H741 0.961 . S
C727 H742 0.961 . S
C727 H743 0.961 . S
C728 C729 1.370 . S
C728 C730 1.363 . S
C728 H744 0.931 . S
C729 C728 1.370 . S
C729 C733 1.408 . S
C730 C728 1.363 . S
C730 C731 1.370 . S
C730 C734 1.524 . S
C731 C723 1.503 . S
C731 C730 1.370 . S
C731 C732 1.403 . S
C732 C731 1.403 . S
C732 C733 1.404 . S
C732 C735 1.539 . S
C733 C729 1.408 . S
C733 C732 1.404 . S
C733 H745 0.930 . S
C734 C730 1.524 . S
C734 H746 0.956 . S
C734 H747 0.961 . S
C734 H748 0.961 . S
C735 C732 1.539 . S
C735 H749 0.958 . S
C735 H750 0.961 . S
C735 H751 0.960 . S
H736 C720 0.931 . S
H737 C725 0.929 . S
H738 C726 0.960 . S
H739 C726 0.962 . S
H740 C726 0.960 . S
H741 C727 0.961 . S
H742 C727 0.961 . S
H743 C727 0.961 . S
H744 C728 0.931 . S
H745 C733 0.930 . S
H746 C734 0.956 . S
H747 C734 0.961 . S
H748 C734 0.961 . S
H749 C735 0.958 . S
H750 C735 0.961 . S
H751 C735 0.960 . S
C752 C753 1.391 . S
C752 C754 1.394 . S
C752 H768 0.931 . S
C753 C752 1.391 . S
C753 C757 1.376 . S
C754 C752 1.394 . S
C754 C755 1.369 . S
C754 C758 1.531 . S
C755 C754 1.369 . S
C755 C756 1.410 . S
C755 C763 1.503 1_655 S
C756 C755 1.410 . S
C756 C757 1.392 . S
C756 C759 1.511 . S
C757 C753 1.376 . S
C757 C756 1.392 . S
C757 H769 0.929 . S
C758 C754 1.531 . S
C758 H770 0.960 1_655 S
C758 H771 0.962 . S
C758 H772 0.960 . S
C759 C756 1.511 . S
C759 H773 0.961 . S
C759 H774 0.961 1_655 S
C759 H775 0.961 . S
C760 C761 1.370 . S
C760 C762 1.363 . S
C760 H776 0.931 . S
C761 C760 1.370 . S
C761 C765 1.408 . S
C762 C760 1.363 . S
C762 C763 1.370 . S
C762 C766 1.524 . S
C763 C755 1.503 1_455 S
C763 C762 1.370 . S
C763 C764 1.403 . S
C764 C763 1.403 . S
C764 C765 1.404 . S
C764 C767 1.539 . S
C765 C761 1.408 . S
C765 C764 1.404 . S
C765 H777 0.930 . S
C766 C762 1.524 . S
C766 H778 0.956 . S
C766 H779 0.961 . S
C766 H780 0.961 . S
C767 C764 1.539 . S
C767 H781 0.958 . S
C767 H782 0.961 . S
C767 H783 0.960 1_455 S
H768 C752 0.931 . S
H769 C757 0.929 . S
H770 C758 0.960 1_455 S
H771 C758 0.962 . S
H772 C758 0.960 . S
H773 C759 0.961 . S
H774 C759 0.961 1_455 S
H775 C759 0.961 . S
H776 C760 0.931 . S
H777 C765 0.930 . S
H778 C766 0.956 . S
H779 C766 0.961 . S
H780 C766 0.961 . S
H781 C767 0.958 . S
H782 C767 0.961 . S
H783 C767 0.960 1_655 S
C784 C785 1.391 . S
C784 C786 1.394 . S
C784 H800 0.931 . S
C785 C784 1.391 . S
C785 C789 1.376 1_455 S
C786 C784 1.394 . S
C786 C787 1.369 1_455 S
C786 C790 1.531 . S
C787 C786 1.369 1_655 S
C787 C788 1.410 . S
C787 C795 1.504 1_554 S
C788 C787 1.410 . S
C788 C789 1.392 . S
C788 C791 1.511 . S
C789 C785 1.376 1_655 S
C789 C788 1.392 . S
C789 H801 0.929 . S
C790 C786 1.531 . S
C790 H802 0.960 1_545 S
C790 H803 0.962 . S
C790 H804 0.960 1_545 S
C791 C788 1.511 . S
C791 H805 0.961 . S
C791 H806 0.961 1_554 S
C791 H807 0.961 . S
C792 C793 1.370 . S
C792 C794 1.363 . S
C792 H808 0.931 . S
C793 C792 1.370 . S
C793 C797 1.408 1_455 S
C794 C792 1.363 . S
C794 C795 1.359 1_455 S
C794 C798 1.524 . S
C795 C787 1.504 1_556 S
C795 C794 1.359 1_655 S
C795 C796 1.413 . S
C796 C795 1.413 . S
C796 C797 1.404 . S
C796 C799 1.539 1_545 S
C797 C793 1.408 1_655 S
C797 C796 1.404 . S
C797 H809 0.930 . S
C798 C794 1.524 . S
C798 H810 0.956 . S
C798 H811 0.961 . S
C798 H812 0.961 . S
C799 C796 1.539 1_565 S
C799 H813 0.958 . S
C799 H814 0.961 . S
C799 H815 0.960 1_566 S
H800 C784 0.931 . S
H801 C789 0.929 . S
H802 C790 0.960 1_565 S
H803 C790 0.962 . S
H804 C790 0.960 1_565 S
H805 C791 0.961 . S
H806 C791 0.961 1_556 S
H807 C791 0.961 . S
H808 C792 0.931 . S
H809 C797 0.930 . S
H810 C798 0.956 . S
H811 C798 0.961 . S
H812 C798 0.961 . S
H813 C799 0.958 . S
H814 C799 0.961 . S
H815 C799 0.960 1_544 S
C816 C817 1.391 . S
C816 C818 1.394 . S
C816 H832 0.931 . S
C817 C816 1.391 . S
C817 C821 1.376 . S
C818 C816 1.394 . S
C818 C819 1.369 . S
C818 C822 1.531 . S
C819 C818 1.369 . S
C819 C820 1.410 . S
C819 C827 1.503 . S
C820 C819 1.410 . S
C820 C821 1.392 . S
C820 C823 1.511 . S
C821 C817 1.376 . S
C821 C820 1.392 . S
C821 H833 0.929 . S
C822 C818 1.531 . S
C822 H834 0.960 . S
C822 H835 0.962 . S
C822 H836 0.960 . S
C823 C820 1.511 . S
C823 H837 0.961 . S
C823 H838 0.961 . S
C823 H839 0.961 . S
C824 C825 1.370 . S
C824 C826 1.363 . S
C824 H840 0.931 . S
C825 C824 1.370 . S
C825 C829 1.408 . S
C826 C824 1.363 . S
C826 C827 1.370 . S
C826 C830 1.524 . S
C827 C819 1.503 . S
C827 C826 1.370 . S
C827 C828 1.403 . S
C828 C827 1.403 . S
C828 C829 1.404 . S
C828 C831 1.539 . S
C829 C825 1.408 . S
C829 C828 1.404 . S
C829 H841 0.930 . S
C830 C826 1.524 . S
C830 H842 0.956 . S
C830 H843 0.961 . S
C830 H844 0.961 . S
C831 C828 1.539 . S
C831 H845 0.958 . S
C831 H846 0.961 . S
C831 H847 0.960 . S
H832 C816 0.931 . S
H833 C821 0.929 . S
H834 C822 0.960 . S
H835 C822 0.962 . S
H836 C822 0.960 . S
H837 C823 0.961 . S
H838 C823 0.961 . S
H839 C823 0.961 . S
H840 C824 0.931 . S
H841 C829 0.930 . S
H842 C830 0.956 . S
H843 C830 0.961 . S
H844 C830 0.961 . S
H845 C831 0.958 . S
H846 C831 0.961 . S
H847 C831 0.960 . S
C848 C849 1.391 . S
C848 C850 1.394 . S
C848 H864 0.931 . S
C849 C848 1.391 . S
C849 C853 1.376 . S
C850 C848 1.394 . S
C850 C851 1.369 . S
C850 C854 1.531 . S
C851 C850 1.369 . S
C851 C852 1.410 . S
C851 C859 1.503 . S
C852 C851 1.410 . S
C852 C853 1.392 . S
C852 C855 1.511 . S
C853 C849 1.376 . S
C853 C852 1.392 . S
C853 H865 0.929 . S
C854 C850 1.531 . S
C854 H866 0.960 . S
C854 H867 0.962 . S
C854 H868 0.960 . S
C855 C852 1.511 . S
C855 H869 0.961 . S
C855 H870 0.961 . S
C855 H871 0.961 . S
C856 C857 1.370 . S
C856 C858 1.363 . S
C856 H872 0.931 . S
C857 C856 1.370 . S
C857 C861 1.408 . S
C858 C856 1.363 . S
C858 C859 1.370 . S
C858 C862 1.524 . S
C859 C851 1.503 . S
C859 C858 1.370 . S
C859 C860 1.403 . S
C860 C859 1.403 . S
C860 C861 1.404 . S
C860 C863 1.539 1_545 S
C861 C857 1.408 . S
C861 C860 1.404 . S
C861 H873 0.930 . S
C862 C858 1.524 . S
C862 H874 0.956 . S
C862 H875 0.961 . S
C862 H876 0.961 . S
C863 C860 1.539 1_565 S
C863 H877 0.958 . S
C863 H878 0.961 . S
C863 H879 0.960 . S
H864 C848 0.931 . S
H865 C853 0.929 . S
H866 C854 0.960 . S
H867 C854 0.962 . S
H868 C854 0.960 . S
H869 C855 0.961 . S
H870 C855 0.961 . S
H871 C855 0.961 . S
H872 C856 0.931 . S
H873 C861 0.930 . S
H874 C862 0.956 . S
H875 C862 0.961 . S
H876 C862 0.961 . S
H877 C863 0.958 . S
H878 C863 0.961 . S
H879 C863 0.960 . S
C880 C881 1.391 . S
C880 C882 1.394 . S
C880 H896 0.931 . S
C881 C880 1.391 . S
C881 C885 1.376 . S
C882 C880 1.394 . S
C882 C883 1.369 . S
C882 C886 1.531 . S
C883 C882 1.369 . S
C883 C884 1.410 . S
C883 C891 1.503 . S
C884 C883 1.410 . S
C884 C885 1.392 . S
C884 C887 1.511 . S
C885 C881 1.376 . S
C885 C884 1.392 . S
C885 H897 0.929 . S
C886 C882 1.531 . S
C886 H898 0.960 . S
C886 H899 0.962 . S
C886 H900 0.960 . S
C887 C884 1.511 . S
C887 H901 0.961 . S
C887 H902 0.961 . S
C887 H903 0.961 . S
C888 C889 1.370 . S
C888 C890 1.363 . S
C888 H904 0.931 . S
C889 C888 1.370 . S
C889 C893 1.408 . S
C890 C888 1.363 . S
C890 C891 1.370 . S
C890 C894 1.524 . S
C891 C883 1.503 . S
C891 C890 1.370 . S
C891 C892 1.403 . S
C892 C891 1.403 . S
C892 C893 1.404 . S
C892 C895 1.539 . S
C893 C889 1.408 . S
C893 C892 1.404 . S
C893 H905 0.930 . S
C894 C890 1.524 . S
C894 H906 0.956 . S
C894 H907 0.961 . S
C894 H908 0.961 . S
C895 C892 1.539 . S
C895 H909 0.958 . S
C895 H910 0.961 . S
C895 H911 0.960 . S
H896 C880 0.931 . S
H897 C885 0.929 . S
H898 C886 0.960 . S
H899 C886 0.962 . S
H900 C886 0.960 . S
H901 C887 0.961 . S
H902 C887 0.961 . S
H903 C887 0.961 . S
H904 C888 0.931 . S
H905 C893 0.930 . S
H906 C894 0.956 . S
H907 C894 0.961 . S
H908 C894 0.961 . S
H909 C895 0.958 . S
H910 C895 0.961 . S
H911 C895 0.960 . S
C912 C913 1.391 . S
C912 C914 1.394 . S
C912 H928 0.931 . S
C913 C912 1.391 . S
C913 C917 1.376 . S
C914 C912 1.394 . S
C914 C915 1.369 . S
C914 C918 1.531 . S
C915 C914 1.369 . S
C915 C916 1.410 . S
C915 C923 1.503 . S
C916 C915 1.410 . S
C916 C917 1.392 . S
C916 C919 1.511 . S
C917 C913 1.376 . S
C917 C916 1.392 . S
C917 H929 0.929 . S
C918 C914 1.531 . S
C918 H930 0.960 . S
C918 H931 0.962 . S
C918 H932 0.960 . S
C919 C916 1.511 . S
C919 H933 0.961 . S
C919 H934 0.961 . S
C919 H935 0.961 . S
C920 C921 1.370 . S
C920 C922 1.363 . S
C920 H936 0.931 . S
C921 C920 1.370 . S
C921 C925 1.408 . S
C922 C920 1.363 . S
C922 C923 1.370 . S
C922 C926 1.524 . S
C923 C915 1.503 . S
C923 C922 1.370 . S
C923 C924 1.403 . S
C924 C923 1.403 . S
C924 C925 1.404 . S
C924 C927 1.539 . S
C925 C921 1.408 . S
C925 C924 1.404 . S
C925 H937 0.930 . S
C926 C922 1.524 . S
C926 H938 0.956 . S
C926 H939 0.961 . S
C926 H940 0.961 . S
C927 C924 1.539 . S
C927 H941 0.958 . S
C927 H942 0.961 . S
C927 H943 0.960 . S
H928 C912 0.931 . S
H929 C917 0.929 . S
H930 C918 0.960 . S
H931 C918 0.962 . S
H932 C918 0.960 . S
H933 C919 0.961 . S
H934 C919 0.961 . S
H935 C919 0.961 . S
H936 C920 0.931 . S
H937 C925 0.930 . S
H938 C926 0.956 . S
H939 C926 0.961 . S
H940 C926 0.961 . S
H941 C927 0.958 . S
H942 C927 0.961 . S
H943 C927 0.960 . S
C944 C945 1.391 . S
C944 C946 1.394 . S
C944 H960 0.931 . S
C945 C944 1.391 . S
C945 C949 1.376 . S
C946 C944 1.394 . S
C946 C947 1.369 . S
C946 C950 1.531 . S
C947 C946 1.369 . S
C947 C948 1.410 . S
C947 C955 1.503 . S
C948 C947 1.410 . S
C948 C949 1.392 . S
C948 C951 1.511 . S
C949 C945 1.376 . S
C949 C948 1.392 . S
C949 H961 0.929 . S
C950 C946 1.531 . S
C950 H962 0.960 . S
C950 H963 0.962 . S
C950 H964 0.960 . S
C951 C948 1.511 . S
C951 H965 0.961 . S
C951 H966 0.961 . S
C951 H967 0.961 . S
C952 C953 1.370 . S
C952 C954 1.363 . S
C952 H968 0.931 . S
C953 C952 1.370 . S
C953 C957 1.408 . S
C954 C952 1.363 . S
C954 C955 1.370 . S
C954 C958 1.524 . S
C955 C947 1.503 . S
C955 C954 1.370 . S
C955 C956 1.403 . S
C956 C955 1.403 . S
C956 C957 1.404 . S
C956 C959 1.539 . S
C957 C953 1.408 . S
C957 C956 1.404 . S
C957 H969 0.930 . S
C958 C954 1.524 . S
C958 H970 0.956 . S
C958 H971 0.961 . S
C958 H972 0.961 . S
C959 C956 1.539 . S
C959 H973 0.958 . S
C959 H974 0.961 . S
C959 H975 0.960 . S
H960 C944 0.931 . S
H961 C949 0.929 . S
H962 C950 0.960 . S
H963 C950 0.962 . S
H964 C950 0.960 . S
H965 C951 0.961 . S
H966 C951 0.961 . S
H967 C951 0.961 . S
H968 C952 0.931 . S
H969 C957 0.930 . S
H970 C958 0.956 . S
H971 C958 0.961 . S
H972 C958 0.961 . S
H973 C959 0.958 . S
H974 C959 0.961 . S
H975 C959 0.960 . S
C976 C977 1.391 . S
C976 C978 1.394 . S
C976 H992 0.931 . S
C977 C976 1.391 . S
C977 C981 1.376 . S
C978 C976 1.394 . S
C978 C979 1.369 . S
C978 C982 1.531 . S
C979 C978 1.369 . S
C979 C980 1.410 . S
C979 C987 1.503 . S
C980 C979 1.410 . S
C980 C981 1.392 . S
C980 C983 1.511 . S
C981 C977 1.376 . S
C981 C980 1.392 . S
C981 H993 0.929 . S
C982 C978 1.531 . S
C982 H994 0.960 . S
C982 H995 0.962 . S
C982 H996 0.960 . S
C983 C980 1.511 . S
C983 H997 0.961 . S
C983 H998 0.961 . S
C983 H999 0.961 . S
C984 C985 1.370 . S
C984 C986 1.363 . S
C984 H1000 0.931 . S
C985 C984 1.370 . S
C985 C989 1.408 . S
C986 C984 1.363 . S
C986 C987 1.370 . S
C986 C990 1.524 . S
C987 C979 1.503 . S
C987 C986 1.370 . S
C987 C988 1.403 . S
C988 C987 1.403 . S
C988 C989 1.404 . S
C988 C991 1.539 . S
C989 C985 1.408 . S
C989 C988 1.404 . S
C989 H1001 0.930 . S
C990 C986 1.524 . S
C990 H1002 0.956 . S
C990 H1003 0.961 . S
C990 H1004 0.961 . S
C991 C988 1.539 . S
C991 H1005 0.958 . S
C991 H1006 0.961 . S
C991 H1007 0.960 . S
H992 C976 0.931 . S
H993 C981 0.929 . S
H994 C982 0.960 . S
H995 C982 0.962 . S
H996 C982 0.960 . S
H997 C983 0.961 . S
H998 C983 0.961 . S
H999 C983 0.961 . S
H1000 C984 0.931 . S
H1001 C989 0.930 . S
H1002 C990 0.956 . S
H1003 C990 0.961 . S
H1004 C990 0.961 . S
H1005 C991 0.958 . S
H1006 C991 0.961 . S
H1007 C991 0.960 . S
C1008 C1009 1.391 1_655 S
C1008 C1010 1.394 . S
C1008 H1024 0.931 . S
C1009 C1008 1.391 1_455 S
C1009 C1013 1.376 . S
C1010 C1008 1.394 . S
C1010 C1011 1.369 1_655 S
C1010 C1014 1.531 . S
C1011 C1010 1.369 1_455 S
C1011 C1012 1.410 . S
C1011 C1019 1.503 1_556 S
C1012 C1011 1.410 . S
C1012 C1013 1.392 . S
C1012 C1015 1.511 . S
C1013 C1009 1.376 . S
C1013 C1012 1.392 . S
C1013 H1025 0.929 . S
C1014 C1010 1.531 . S
C1014 H1026 0.960 . S
C1014 H1027 0.962 . S
C1014 H1028 0.960 . S
C1015 C1012 1.511 . S
C1015 H1029 0.961 . S
C1015 H1030 0.961 1_556 S
C1015 H1031 0.961 . S
C1016 C1017 1.370 1_655 S
C1016 C1018 1.363 . S
C1016 H1032 0.931 . S
C1017 C1016 1.370 1_455 S
C1017 C1021 1.408 . S
C1018 C1016 1.363 . S
C1018 C1019 1.370 1_655 S
C1018 C1022 1.524 . S
C1019 C1011 1.503 1_554 S
C1019 C1018 1.370 1_455 S
C1019 C1020 1.403 . S
C1020 C1019 1.403 . S
C1020 C1021 1.404 . S
C1020 C1023 1.539 . S
C1021 C1017 1.408 . S
C1021 C1020 1.404 . S
C1021 H1033 0.930 . S
C1022 C1018 1.524 . S
C1022 H1034 0.956 . S
C1022 H1035 0.961 . S
C1022 H1036 0.961 . S
C1023 C1020 1.539 . S
C1023 H1037 0.958 . S
C1023 H1038 0.961 . S
C1023 H1039 0.960 1_554 S
H1024 C1008 0.931 . S
H1025 C1013 0.929 . S
H1026 C1014 0.960 . S
H1027 C1014 0.962 . S
H1028 C1014 0.960 . S
H1029 C1015 0.961 . S
H1030 C1015 0.961 1_554 S
H1031 C1015 0.961 . S
H1032 C1016 0.931 . S
H1033 C1021 0.930 . S
H1034 C1022 0.956 . S
H1035 C1022 0.961 . S
H1036 C1022 0.961 . S
H1037 C1023 0.958 . S
H1038 C1023 0.961 . S
H1039 C1023 0.960 1_556 S
C1040 C1041 1.391 . S
C1040 C1042 1.394 . S
C1040 H1056 0.931 . S
C1041 C1040 1.391 . S
C1041 C1045 1.376 . S
C1042 C1040 1.394 . S
C1042 C1043 1.369 . S
C1042 C1046 1.531 . S
C1043 C1042 1.369 . S
C1043 C1044 1.410 . S
C1043 C1051 1.503 . S
C1044 C1043 1.410 . S
C1044 C1045 1.392 . S
C1044 C1047 1.511 . S
C1045 C1041 1.376 . S
C1045 C1044 1.392 . S
C1045 H1057 0.929 . S
C1046 C1042 1.531 . S
C1046 H1058 0.960 . S
C1046 H1059 0.962 . S
C1046 H1060 0.960 . S
C1047 C1044 1.511 . S
C1047 H1061 0.961 . S
C1047 H1062 0.961 1_565 S
C1047 H1063 0.961 . S
C1048 C1049 1.370 . S
C1048 C1050 1.363 . S
C1048 H1064 0.931 . S
C1049 C1048 1.370 . S
C1049 C1053 1.408 1_545 S
C1050 C1048 1.363 . S
C1050 C1051 1.370 1_545 S
C1050 C1054 1.524 . S
C1051 C1043 1.503 . S
C1051 C1050 1.370 1_565 S
C1051 C1052 1.403 . S
C1052 C1051 1.403 . S
C1052 C1053 1.404 . S
C1052 C1055 1.539 . S
C1053 C1049 1.408 1_565 S
C1053 C1052 1.404 . S
C1053 H1065 0.930 . S
C1054 C1050 1.524 . S
C1054 H1066 0.956 1_545 S
C1054 H1067 0.961 . S
C1054 H1068 0.961 . S
C1055 C1052 1.539 . S
C1055 H1069 0.958 . S
C1055 H1070 0.961 . S
C1055 H1071 0.960 . S
H1056 C1040 0.931 . S
H1057 C1045 0.929 . S
H1058 C1046 0.960 . S
H1059 C1046 0.962 . S
H1060 C1046 0.960 . S
H1061 C1047 0.961 . S
H1062 C1047 0.961 1_545 S
H1063 C1047 0.961 . S
H1064 C1048 0.931 . S
H1065 C1053 0.930 . S
H1066 C1054 0.956 1_565 S
H1067 C1054 0.961 . S
H1068 C1054 0.961 . S
H1069 C1055 0.958 . S
H1070 C1055 0.961 . S
H1071 C1055 0.960 . S
C1072 C1073 1.391 . S
C1072 C1074 1.394 . S
C1072 H1088 0.931 . S
C1073 C1072 1.391 . S
C1073 C1077 1.376 . S
C1074 C1072 1.394 . S
C1074 C1075 1.369 . S
C1074 C1078 1.531 . S
C1075 C1074 1.369 . S
C1075 C1076 1.410 . S
C1075 C1083 1.503 . S
C1076 C1075 1.410 . S
C1076 C1077 1.392 . S
C1076 C1079 1.511 . S
C1077 C1073 1.376 . S
C1077 C1076 1.392 . S
C1077 H1089 0.929 . S
C1078 C1074 1.531 . S
C1078 H1090 0.960 . S
C1078 H1091 0.962 . S
C1078 H1092 0.960 . S
C1079 C1076 1.511 . S
C1079 H1093 0.961 . S
C1079 H1094 0.961 . S
C1079 H1095 0.961 . S
C1080 C1081 1.370 . S
C1080 C1082 1.363 . S
C1080 H1096 0.931 . S
C1081 C1080 1.370 . S
C1081 C1085 1.408 1_545 S
C1082 C1080 1.363 . S
C1082 C1083 1.370 1_545 S
C1082 C1086 1.524 . S
C1083 C1075 1.503 . S
C1083 C1082 1.370 1_565 S
C1083 C1084 1.403 . S
C1084 C1083 1.403 . S
C1084 C1085 1.404 . S
C1084 C1087 1.539 . S
C1085 C1081 1.408 1_565 S
C1085 C1084 1.404 . S
C1085 H1097 0.930 . S
C1086 C1082 1.524 . S
C1086 H1098 0.956 . S
C1086 H1099 0.961 . S
C1086 H1100 0.961 . S
C1087 C1084 1.539 . S
C1087 H1101 0.958 . S
C1087 H1102 0.961 . S
C1087 H1103 0.960 . S
H1088 C1072 0.931 . S
H1089 C1077 0.929 . S
H1090 C1078 0.960 . S
H1091 C1078 0.962 . S
H1092 C1078 0.960 . S
H1093 C1079 0.961 . S
H1094 C1079 0.961 . S
H1095 C1079 0.961 . S
H1096 C1080 0.931 . S
H1097 C1085 0.930 . S
H1098 C1086 0.956 . S
H1099 C1086 0.961 . S
H1100 C1086 0.961 . S
H1101 C1087 0.958 . S
H1102 C1087 0.961 . S
H1103 C1087 0.960 . S
C1104 C1105 1.391 . S
C1104 C1106 1.394 . S
C1104 H1120 0.931 . S
C1105 C1104 1.391 . S
C1105 C1109 1.376 . S
C1106 C1104 1.394 . S
C1106 C1107 1.369 . S
C1106 C1110 1.531 . S
C1107 C1106 1.369 . S
C1107 C1108 1.410 . S
C1107 C1115 1.503 . S
C1108 C1107 1.410 . S
C1108 C1109 1.392 . S
C1108 C1111 1.511 . S
C1109 C1105 1.376 . S
C1109 C1108 1.392 . S
C1109 H1121 0.929 . S
C1110 C1106 1.531 . S
C1110 H1122 0.960 . S
C1110 H1123 0.962 . S
C1110 H1124 0.960 . S
C1111 C1108 1.511 . S
C1111 H1125 0.961 . S
C1111 H1126 0.961 . S
C1111 H1127 0.961 . S
C1112 C1113 1.370 . S
C1112 C1114 1.363 . S
C1112 H1128 0.931 . S
C1113 C1112 1.370 . S
C1113 C1117 1.408 . S
C1114 C1112 1.363 . S
C1114 C1115 1.370 . S
C1114 C1118 1.524 . S
C1115 C1107 1.503 . S
C1115 C1114 1.370 . S
C1115 C1116 1.403 . S
C1116 C1115 1.403 . S
C1116 C1117 1.404 . S
C1116 C1119 1.539 . S
C1117 C1113 1.408 . S
C1117 C1116 1.404 . S
C1117 H1129 0.930 . S
C1118 C1114 1.524 . S
C1118 H1130 0.956 . S
C1118 H1131 0.961 . S
C1118 H1132 0.961 . S
C1119 C1116 1.539 . S
C1119 H1133 0.958 . S
C1119 H1134 0.961 . S
C1119 H1135 0.960 . S
H1120 C1104 0.931 . S
H1121 C1109 0.929 . S
H1122 C1110 0.960 . S
H1123 C1110 0.962 . S
H1124 C1110 0.960 . S
H1125 C1111 0.961 . S
H1126 C1111 0.961 . S
H1127 C1111 0.961 . S
H1128 C1112 0.931 . S
H1129 C1117 0.930 . S
H1130 C1118 0.956 . S
H1131 C1118 0.961 . S
H1132 C1118 0.961 . S
H1133 C1119 0.958 . S
H1134 C1119 0.961 . S
H1135 C1119 0.960 . S
C1136 C1137 1.391 . S
C1136 C1138 1.394 . S
C1136 H1152 0.931 . S
C1137 C1136 1.391 . S
C1137 C1141 1.376 . S
C1138 C1136 1.394 . S
C1138 C1139 1.369 . S
C1138 C1142 1.531 . S
C1139 C1138 1.369 . S
C1139 C1140 1.410 . S
C1139 C1147 1.503 . S
C1140 C1139 1.410 . S
C1140 C1141 1.392 . S
C1140 C1143 1.511 . S
C1141 C1137 1.376 . S
C1141 C1140 1.392 . S
C1141 H1153 0.929 . S
C1142 C1138 1.531 . S
C1142 H1154 0.960 . S
C1142 H1155 0.962 . S
C1142 H1156 0.960 . S
C1143 C1140 1.511 . S
C1143 H1157 0.961 . S
C1143 H1158 0.961 . S
C1143 H1159 0.961 . S
C1144 C1145 1.370 . S
C1144 C1146 1.363 . S
C1144 H1160 0.931 . S
C1145 C1144 1.370 . S
C1145 C1149 1.408 . S
C1146 C1144 1.363 . S
C1146 C1147 1.370 . S
C1146 C1150 1.524 . S
C1147 C1139 1.503 . S
C1147 C1146 1.370 . S
C1147 C1148 1.403 . S
C1148 C1147 1.403 . S
C1148 C1149 1.404 . S
C1148 C1151 1.539 . S
C1149 C1145 1.408 . S
C1149 C1148 1.404 . S
C1149 H1161 0.930 . S
C1150 C1146 1.524 . S
C1150 H1162 0.956 . S
C1150 H1163 0.961 . S
C1150 H1164 0.961 . S
C1151 C1148 1.539 . S
C1151 H1165 0.958 . S
C1151 H1166 0.961 . S
C1151 H1167 0.960 . S
H1152 C1136 0.931 . S
H1153 C1141 0.929 . S
H1154 C1142 0.960 . S
H1155 C1142 0.962 . S
H1156 C1142 0.960 . S
H1157 C1143 0.961 . S
H1158 C1143 0.961 . S
H1159 C1143 0.961 . S
H1160 C1144 0.931 . S
H1161 C1149 0.930 . S
H1162 C1150 0.956 . S
H1163 C1150 0.961 . S
H1164 C1150 0.961 . S
H1165 C1151 0.958 . S
H1166 C1151 0.961 . S
H1167 C1151 0.960 . S
C1168 C1169 1.391 . S
C1168 C1170 1.394 . S
C1168 H1184 0.931 . S
C1169 C1168 1.391 . S
C1169 C1173 1.376 . S
C1170 C1168 1.394 . S
C1170 C1171 1.369 . S
C1170 C1174 1.531 . S
C1171 C1170 1.369 . S
C1171 C1172 1.410 . S
C1171 C1179 1.503 . S
C1172 C1171 1.410 . S
C1172 C1173 1.392 . S
C1172 C1175 1.511 . S
C1173 C1169 1.376 . S
C1173 C1172 1.392 . S
C1173 H1185 0.929 . S
C1174 C1170 1.531 . S
C1174 H1186 0.960 . S
C1174 H1187 0.962 . S
C1174 H1188 0.960 . S
C1175 C1172 1.511 . S
C1175 H1189 0.961 . S
C1175 H1190 0.961 . S
C1175 H1191 0.961 . S
C1176 C1177 1.370 . S
C1176 C1178 1.363 . S
C1176 H1192 0.931 . S
C1177 C1176 1.370 . S
C1177 C1181 1.408 . S
C1178 C1176 1.363 . S
C1178 C1179 1.370 . S
C1178 C1182 1.524 . S
C1179 C1171 1.503 . S
C1179 C1178 1.370 . S
C1179 C1180 1.403 . S
C1180 C1179 1.403 . S
C1180 C1181 1.404 . S
C1180 C1183 1.539 . S
C1181 C1177 1.408 . S
C1181 C1180 1.404 . S
C1181 H1193 0.930 . S
C1182 C1178 1.524 . S
C1182 H1194 0.956 . S
C1182 H1195 0.961 . S
C1182 H1196 0.961 . S
C1183 C1180 1.539 . S
C1183 H1197 0.958 . S
C1183 H1198 0.961 . S
C1183 H1199 0.960 . S
H1184 C1168 0.931 . S
H1185 C1173 0.929 . S
H1186 C1174 0.960 . S
H1187 C1174 0.962 . S
H1188 C1174 0.960 . S
H1189 C1175 0.961 . S
H1190 C1175 0.961 . S
H1191 C1175 0.961 . S
H1192 C1176 0.931 . S
H1193 C1181 0.930 . S
H1194 C1182 0.956 . S
H1195 C1182 0.961 . S
H1196 C1182 0.961 . S
H1197 C1183 0.958 . S
H1198 C1183 0.961 . S
H1199 C1183 0.960 . S
C1200 C1201 1.391 . S
C1200 C1202 1.394 . S
C1200 H1216 0.931 . S
C1201 C1200 1.391 . S
C1201 C1205 1.376 . S
C1202 C1200 1.394 . S
C1202 C1203 1.369 . S
C1202 C1206 1.531 . S
C1203 C1202 1.369 . S
C1203 C1204 1.410 . S
C1203 C1211 1.503 . S
C1204 C1203 1.410 . S
C1204 C1205 1.392 . S
C1204 C1207 1.511 . S
C1205 C1201 1.376 . S
C1205 C1204 1.392 . S
C1205 H1217 0.929 . S
C1206 C1202 1.531 . S
C1206 H1218 0.960 . S
C1206 H1219 0.962 . S
C1206 H1220 0.960 . S
C1207 C1204 1.511 . S
C1207 H1221 0.961 . S
C1207 H1222 0.961 . S
C1207 H1223 0.961 . S
C1208 C1209 1.370 . S
C1208 C1210 1.363 . S
C1208 H1224 0.931 . S
C1209 C1208 1.370 . S
C1209 C1213 1.408 . S
C1210 C1208 1.363 . S
C1210 C1211 1.370 . S
C1210 C1214 1.524 . S
C1211 C1203 1.503 . S
C1211 C1210 1.370 . S
C1211 C1212 1.403 . S
C1212 C1211 1.403 . S
C1212 C1213 1.404 . S
C1212 C1215 1.539 . S
C1213 C1209 1.408 . S
C1213 C1212 1.404 . S
C1213 H1225 0.930 . S
C1214 C1210 1.524 . S
C1214 H1226 0.956 . S
C1214 H1227 0.961 . S
C1214 H1228 0.961 . S
C1215 C1212 1.539 . S
C1215 H1229 0.958 . S
C1215 H1230 0.961 . S
C1215 H1231 0.960 . S
H1216 C1200 0.931 . S
H1217 C1205 0.929 . S
H1218 C1206 0.960 . S
H1219 C1206 0.962 . S
H1220 C1206 0.960 . S
H1221 C1207 0.961 . S
H1222 C1207 0.961 . S
H1223 C1207 0.961 . S
H1224 C1208 0.931 . S
H1225 C1213 0.930 . S
H1226 C1214 0.956 . S
H1227 C1214 0.961 . S
H1228 C1214 0.961 . S
H1229 C1215 0.958 . S
H1230 C1215 0.961 . S
H1231 C1215 0.960 . S
C1232 C1233 1.391 . S
C1232 C1234 1.394 . S
C1232 H1248 0.931 . S
C1233 C1232 1.391 . S
C1233 C1237 1.376 . S
C1234 C1232 1.394 . S
C1234 C1235 1.369 . S
C1234 C1238 1.531 . S
C1235 C1234 1.369 . S
C1235 C1236 1.410 . S
C1235 C1243 1.503 . S
C1236 C1235 1.410 . S
C1236 C1237 1.392 . S
C1236 C1239 1.511 1_565 S
C1237 C1233 1.376 . S
C1237 C1236 1.392 . S
C1237 H1249 0.929 . S
C1238 C1234 1.531 . S
C1238 H1250 0.960 . S
C1238 H1251 0.962 . S
C1238 H1252 0.960 . S
C1239 C1236 1.511 1_545 S
C1239 H1253 0.961 . S
C1239 H1254 0.961 . S
C1239 H1255 0.961 . S
C1240 C1241 1.370 . S
C1240 C1242 1.357 1_545 S
C1240 H1256 0.931 . S
C1241 C1240 1.370 . S
C1241 C1245 1.408 . S
C1242 C1240 1.357 1_565 S
C1242 C1243 1.371 . S
C1242 C1246 1.529 . S
C1243 C1235 1.503 . S
C1243 C1242 1.371 . S
C1243 C1244 1.403 1_565 S
C1244 C1243 1.403 1_545 S
C1244 C1245 1.404 . S
C1244 C1247 1.539 . S
C1245 C1241 1.408 . S
C1245 C1244 1.404 . S
C1245 H1257 0.930 . S
C1246 C1242 1.529 . S
C1246 H1258 0.956 . S
C1246 H1259 0.961 . S
C1246 H1260 0.961 . S
C1247 C1244 1.539 . S
C1247 H1261 0.958 1_545 S
C1247 H1262 0.961 . S
C1247 H1263 0.960 . S
H1248 C1232 0.931 . S
H1249 C1237 0.929 . S
H1250 C1238 0.960 . S
H1251 C1238 0.962 . S
H1252 C1238 0.960 . S
H1253 C1239 0.961 . S
H1254 C1239 0.961 . S
H1255 C1239 0.961 . S
H1256 C1240 0.931 . S
H1257 C1245 0.930 . S
H1258 C1246 0.956 . S
H1259 C1246 0.961 . S
H1260 C1246 0.961 . S
H1261 C1247 0.958 1_565 S
H1262 C1247 0.961 . S
H1263 C1247 0.960 . S
C1264 C1265 1.391 . S
C1264 C1266 1.394 . S
C1264 H1280 0.931 . S
C1265 C1264 1.391 . S
C1265 C1269 1.376 . S
C1266 C1264 1.394 . S
C1266 C1267 1.369 . S
C1266 C1270 1.531 . S
C1267 C1266 1.369 . S
C1267 C1268 1.410 . S
C1267 C1275 1.503 . S
C1268 C1267 1.410 . S
C1268 C1269 1.392 . S
C1268 C1271 1.511 1_565 S
C1269 C1265 1.376 . S
C1269 C1268 1.392 . S
C1269 H1281 0.929 . S
C1270 C1266 1.531 . S
C1270 H1282 0.960 . S
C1270 H1283 0.962 . S
C1270 H1284 0.960 . S
C1271 C1268 1.511 1_545 S
C1271 H1285 0.961 . S
C1271 H1286 0.961 . S
C1271 H1287 0.961 . S
C1272 C1273 1.370 . S
C1272 C1274 1.363 1_545 S
C1272 H1288 0.931 . S
C1273 C1272 1.370 . S
C1273 C1277 1.408 . S
C1274 C1272 1.363 1_565 S
C1274 C1275 1.370 . S
C1274 C1278 1.524 . S
C1275 C1267 1.503 . S
C1275 C1274 1.370 . S
C1275 C1276 1.403 1_565 S
C1276 C1275 1.403 1_545 S
C1276 C1277 1.404 . S
C1276 C1279 1.539 . S
C1277 C1273 1.408 . S
C1277 C1276 1.404 . S
C1277 H1289 0.930 . S
C1278 C1274 1.524 . S
C1278 H1290 0.956 . S
C1278 H1291 0.961 . S
C1278 H1292 0.961 . S
C1279 C1276 1.539 . S
C1279 H1293 0.958 . S
C1279 H1294 0.961 . S
C1279 H1295 0.960 . S
H1280 C1264 0.931 . S
H1281 C1269 0.929 . S
H1282 C1270 0.960 . S
H1283 C1270 0.962 . S
H1284 C1270 0.960 . S
H1285 C1271 0.961 . S
H1286 C1271 0.961 . S
H1287 C1271 0.961 . S
H1288 C1272 0.931 . S
H1289 C1277 0.930 . S
H1290 C1278 0.956 . S
H1291 C1278 0.961 . S
H1292 C1278 0.961 . S
H1293 C1279 0.958 . S
H1294 C1279 0.961 . S
H1295 C1279 0.960 . S
C1296 C1297 1.391 . S
C1296 C1298 1.394 . S
C1296 H1312 0.931 . S
C1297 C1296 1.391 . S
C1297 C1301 1.376 . S
C1298 C1296 1.394 . S
C1298 C1299 1.369 . S
C1298 C1302 1.531 . S
C1299 C1298 1.369 . S
C1299 C1300 1.410 . S
C1299 C1307 1.503 . S
C1300 C1299 1.410 . S
C1300 C1301 1.392 . S
C1300 C1303 1.511 . S
C1301 C1297 1.376 . S
C1301 C1300 1.392 . S
C1301 H1313 0.929 . S
C1302 C1298 1.531 . S
C1302 H1314 0.960 . S
C1302 H1315 0.962 . S
C1302 H1316 0.960 . S
C1303 C1300 1.511 . S
C1303 H1317 0.961 . S
C1303 H1318 0.961 . S
C1303 H1319 0.961 . S
C1304 C1305 1.370 . S
C1304 C1306 1.363 . S
C1304 H1320 0.931 . S
C1305 C1304 1.370 . S
C1305 C1309 1.408 . S
C1306 C1304 1.363 . S
C1306 C1307 1.370 . S
C1306 C1310 1.524 . S
C1307 C1299 1.503 . S
C1307 C1306 1.370 . S
C1307 C1308 1.403 . S
C1308 C1307 1.403 . S
C1308 C1309 1.404 . S
C1308 C1311 1.539 . S
C1309 C1305 1.408 . S
C1309 C1308 1.404 . S
C1309 H1321 0.930 . S
C1310 C1306 1.524 . S
C1310 H1322 0.956 . S
C1310 H1323 0.961 . S
C1310 H1324 0.961 . S
C1311 C1308 1.539 . S
C1311 H1325 0.958 . S
C1311 H1326 0.961 . S
C1311 H1327 0.960 . S
H1312 C1296 0.931 . S
H1313 C1301 0.929 . S
H1314 C1302 0.960 . S
H1315 C1302 0.962 . S
H1316 C1302 0.960 . S
H1317 C1303 0.961 . S
H1318 C1303 0.961 . S
H1319 C1303 0.961 . S
H1320 C1304 0.931 . S
H1321 C1309 0.930 . S
H1322 C1310 0.956 . S
H1323 C1310 0.961 . S
H1324 C1310 0.961 . S
H1325 C1311 0.958 . S
H1326 C1311 0.961 . S
H1327 C1311 0.960 . S
C1328 C1329 1.391 . S
C1328 C1330 1.394 . S
C1328 H1344 0.931 . S
C1329 C1328 1.391 . S
C1329 C1333 1.376 . S
C1330 C1328 1.394 . S
C1330 C1331 1.369 . S
C1330 C1334 1.531 . S
C1331 C1330 1.369 . S
C1331 C1332 1.410 . S
C1331 C1339 1.503 . S
C1332 C1331 1.410 . S
C1332 C1333 1.392 . S
C1332 C1335 1.511 . S
C1333 C1329 1.376 . S
C1333 C1332 1.392 . S
C1333 H1345 0.929 . S
C1334 C1330 1.531 . S
C1334 H1346 0.960 . S
C1334 H1347 0.962 . S
C1334 H1348 0.960 . S
C1335 C1332 1.511 . S
C1335 H1349 0.961 . S
C1335 H1350 0.961 . S
C1335 H1351 0.961 . S
C1336 C1337 1.370 . S
C1336 C1338 1.363 . S
C1336 H1352 0.931 . S
C1337 C1336 1.370 . S
C1337 C1341 1.408 . S
C1338 C1336 1.363 . S
C1338 C1339 1.370 . S
C1338 C1342 1.524 . S
C1339 C1331 1.503 . S
C1339 C1338 1.370 . S
C1339 C1340 1.403 . S
C1340 C1339 1.403 . S
C1340 C1341 1.404 . S
C1340 C1343 1.539 . S
C1341 C1337 1.408 . S
C1341 C1340 1.404 . S
C1341 H1353 0.930 . S
C1342 C1338 1.524 . S
C1342 H1354 0.956 . S
C1342 H1355 0.961 . S
C1342 H1356 0.961 . S
C1343 C1340 1.539 . S
C1343 H1357 0.958 . S
C1343 H1358 0.961 . S
C1343 H1359 0.960 . S
H1344 C1328 0.931 . S
H1345 C1333 0.929 . S
H1346 C1334 0.960 . S
H1347 C1334 0.962 . S
H1348 C1334 0.960 . S
H1349 C1335 0.961 . S
H1350 C1335 0.961 . S
H1351 C1335 0.961 . S
H1352 C1336 0.931 . S
H1353 C1341 0.930 . S
H1354 C1342 0.956 . S
H1355 C1342 0.961 . S
H1356 C1342 0.961 . S
H1357 C1343 0.958 . S
H1358 C1343 0.961 . S
H1359 C1343 0.960 . S
C1360 C1361 1.391 . S
C1360 C1362 1.394 . S
C1360 H1376 0.931 . S
C1361 C1360 1.391 . S
C1361 C1365 1.376 . S
C1362 C1360 1.394 . S
C1362 C1363 1.369 . S
C1362 C1366 1.531 . S
C1363 C1362 1.369 . S
C1363 C1364 1.410 . S
C1363 C1371 1.503 . S
C1364 C1363 1.410 . S
C1364 C1365 1.392 . S
C1364 C1367 1.511 . S
C1365 C1361 1.376 . S
C1365 C1364 1.392 . S
C1365 H1377 0.929 . S
C1366 C1362 1.531 . S
C1366 H1378 0.960 . S
C1366 H1379 0.962 . S
C1366 H1380 0.960 . S
C1367 C1364 1.511 . S
C1367 H1381 0.961 . S
C1367 H1382 0.961 . S
C1367 H1383 0.961 . S
C1368 C1369 1.370 . S
C1368 C1370 1.363 . S
C1368 H1384 0.931 . S
C1369 C1368 1.370 . S
C1369 C1373 1.408 . S
C1370 C1368 1.363 . S
C1370 C1371 1.370 . S
C1370 C1374 1.524 . S
C1371 C1363 1.503 . S
C1371 C1370 1.370 . S
C1371 C1372 1.403 . S
C1372 C1371 1.403 . S
C1372 C1373 1.404 . S
C1372 C1375 1.539 . S
C1373 C1369 1.408 . S
C1373 C1372 1.404 . S
C1373 H1385 0.930 . S
C1374 C1370 1.524 . S
C1374 H1386 0.956 . S
C1374 H1387 0.961 . S
C1374 H1388 0.961 . S
C1375 C1372 1.539 . S
C1375 H1389 0.958 . S
C1375 H1390 0.961 . S
C1375 H1391 0.960 . S
H1376 C1360 0.931 . S
H1377 C1365 0.929 . S
H1378 C1366 0.960 . S
H1379 C1366 0.962 . S
H1380 C1366 0.960 . S
H1381 C1367 0.961 . S
H1382 C1367 0.961 . S
H1383 C1367 0.961 . S
H1384 C1368 0.931 . S
H1385 C1373 0.930 . S
H1386 C1374 0.956 . S
H1387 C1374 0.961 . S
H1388 C1374 0.961 . S
H1389 C1375 0.958 . S
H1390 C1375 0.961 . S
H1391 C1375 0.960 . S
C1392 C1393 1.391 . S
C1392 C1394 1.394 . S
C1392 H1408 0.931 . S
C1393 C1392 1.391 . S
C1393 C1397 1.376 . S
C1394 C1392 1.394 . S
C1394 C1395 1.369 . S
C1394 C1398 1.531 . S
C1395 C1394 1.369 . S
C1395 C1396 1.410 . S
C1395 C1403 1.503 . S
C1396 C1395 1.410 . S
C1396 C1397 1.392 . S
C1396 C1399 1.511 . S
C1397 C1393 1.376 . S
C1397 C1396 1.392 . S
C1397 H1409 0.929 . S
C1398 C1394 1.531 . S
C1398 H1410 0.960 . S
C1398 H1411 0.962 . S
C1398 H1412 0.960 . S
C1399 C1396 1.511 . S
C1399 H1413 0.961 . S
C1399 H1414 0.961 . S
C1399 H1415 0.961 . S
C1400 C1401 1.370 . S
C1400 C1402 1.363 . S
C1400 H1416 0.931 . S
C1401 C1400 1.370 . S
C1401 C1405 1.408 . S
C1402 C1400 1.363 . S
C1402 C1403 1.370 . S
C1402 C1406 1.524 . S
C1403 C1395 1.503 . S
C1403 C1402 1.370 . S
C1403 C1404 1.403 . S
C1404 C1403 1.403 . S
C1404 C1405 1.404 . S
C1404 C1407 1.539 . S
C1405 C1401 1.408 . S
C1405 C1404 1.404 . S
C1405 H1417 0.930 . S
C1406 C1402 1.524 . S
C1406 H1418 0.956 . S
C1406 H1419 0.961 . S
C1406 H1420 0.961 . S
C1407 C1404 1.539 . S
C1407 H1421 0.958 . S
C1407 H1422 0.961 . S
C1407 H1423 0.960 . S
H1408 C1392 0.931 . S
H1409 C1397 0.929 . S
H1410 C1398 0.960 . S
H1411 C1398 0.962 . S
H1412 C1398 0.960 . S
H1413 C1399 0.961 . S
H1414 C1399 0.961 . S
H1415 C1399 0.961 . S
H1416 C1400 0.931 . S
H1417 C1405 0.930 . S
H1418 C1406 0.956 . S
H1419 C1406 0.961 . S
H1420 C1406 0.961 . S
H1421 C1407 0.958 . S
H1422 C1407 0.961 . S
H1423 C1407 0.960 . S
C1424 C1425 1.391 . S
C1424 C1426 1.394 . S
C1424 H1440 0.931 . S
C1425 C1424 1.391 . S
C1425 C1429 1.376 . S
C1426 C1424 1.394 . S
C1426 C1427 1.369 . S
C1426 C1430 1.531 . S
C1427 C1426 1.369 . S
C1427 C1428 1.410 . S
C1427 C1435 1.503 . S
C1428 C1427 1.410 . S
C1428 C1429 1.392 . S
C1428 C1431 1.511 . S
C1429 C1425 1.376 . S
C1429 C1428 1.392 . S
C1429 H1441 0.929 . S
C1430 C1426 1.531 . S
C1430 H1442 0.960 . S
C1430 H1443 0.962 . S
C1430 H1444 0.960 . S
C1431 C1428 1.511 . S
C1431 H1445 0.961 . S
C1431 H1446 0.961 . S
C1431 H1447 0.961 . S
C1432 C1433 1.370 . S
C1432 C1434 1.363 . S
C1432 H1448 0.931 . S
C1433 C1432 1.370 . S
C1433 C1437 1.408 . S
C1434 C1432 1.363 . S
C1434 C1435 1.370 . S
C1434 C1438 1.524 . S
C1435 C1427 1.503 . S
C1435 C1434 1.370 . S
C1435 C1436 1.403 . S
C1436 C1435 1.403 . S
C1436 C1437 1.404 . S
C1436 C1439 1.539 . S
C1437 C1433 1.408 . S
C1437 C1436 1.404 . S
C1437 H1449 0.930 . S
C1438 C1434 1.524 . S
C1438 H1450 0.956 . S
C1438 H1451 0.961 . S
C1438 H1452 0.961 . S
C1439 C1436 1.539 . S
C1439 H1453 0.958 . S
C1439 H1454 0.961 . S
C1439 H1455 0.960 . S
H1440 C1424 0.931 . S
H1441 C1429 0.929 . S
H1442 C1430 0.960 . S
H1443 C1430 0.962 . S
H1444 C1430 0.960 . S
H1445 C1431 0.961 . S
H1446 C1431 0.961 . S
H1447 C1431 0.961 . S
H1448 C1432 0.931 . S
H1449 C1437 0.930 . S
H1450 C1438 0.956 . S
H1451 C1438 0.961 . S
H1452 C1438 0.961 . S
H1453 C1439 0.958 . S
H1454 C1439 0.961 . S
H1455 C1439 0.960 . S
C1456 C1457 1.391 . S
C1456 C1458 1.394 . S
C1456 H1472 0.931 . S
C1457 C1456 1.391 . S
C1457 C1461 1.376 . S
C1458 C1456 1.394 . S
C1458 C1459 1.369 . S
C1458 C1462 1.531 . S
C1459 C1458 1.369 . S
C1459 C1460 1.410 . S
C1459 C1467 1.503 . S
C1460 C1459 1.410 . S
C1460 C1461 1.392 . S
C1460 C1463 1.511 . S
C1461 C1457 1.376 . S
C1461 C1460 1.392 . S
C1461 H1473 0.929 . S
C1462 C1458 1.531 . S
C1462 H1474 0.960 . S
C1462 H1475 0.962 . S
C1462 H1476 0.960 . S
C1463 C1460 1.511 . S
C1463 H1477 0.961 . S
C1463 H1478 0.961 . S
C1463 H1479 0.961 . S
C1464 C1465 1.370 . S
C1464 C1466 1.363 . S
C1464 H1480 0.931 . S
C1465 C1464 1.370 . S
C1465 C1469 1.408 . S
C1466 C1464 1.363 . S
C1466 C1467 1.370 . S
C1466 C1470 1.524 . S
C1467 C1459 1.503 . S
C1467 C1466 1.370 . S
C1467 C1468 1.403 . S
C1468 C1467 1.403 . S
C1468 C1469 1.404 . S
C1468 C1471 1.539 . S
C1469 C1465 1.408 . S
C1469 C1468 1.404 . S
C1469 H1481 0.930 . S
C1470 C1466 1.524 . S
C1470 H1482 0.956 . S
C1470 H1483 0.961 . S
C1470 H1484 0.961 . S
C1471 C1468 1.539 . S
C1471 H1485 0.958 . S
C1471 H1486 0.961 . S
C1471 H1487 0.960 . S
H1472 C1456 0.931 . S
H1473 C1461 0.929 . S
H1474 C1462 0.960 . S
H1475 C1462 0.962 . S
H1476 C1462 0.960 . S
H1477 C1463 0.961 . S
H1478 C1463 0.961 . S
H1479 C1463 0.961 . S
H1480 C1464 0.931 . S
H1481 C1469 0.930 . S
H1482 C1470 0.956 . S
H1483 C1470 0.961 . S
H1484 C1470 0.961 . S
H1485 C1471 0.958 . S
H1486 C1471 0.961 . S
H1487 C1471 0.960 . S
C1488 C1489 1.391 . S
C1488 C1490 1.394 . S
C1488 H1504 0.931 . S
C1489 C1488 1.391 . S
C1489 C1493 1.376 . S
C1490 C1488 1.394 . S
C1490 C1491 1.369 . S
C1490 C1494 1.531 . S
C1491 C1490 1.369 . S
C1491 C1492 1.410 . S
C1491 C1499 1.503 . S
C1492 C1491 1.410 . S
C1492 C1493 1.392 . S
C1492 C1495 1.511 . S
C1493 C1489 1.376 . S
C1493 C1492 1.392 . S
C1493 H1505 0.929 . S
C1494 C1490 1.531 . S
C1494 H1506 0.960 . S
C1494 H1507 0.962 . S
C1494 H1508 0.960 . S
C1495 C1492 1.511 . S
C1495 H1509 0.961 . S
C1495 H1510 0.961 . S
C1495 H1511 0.961 . S
C1496 C1497 1.370 . S
C1496 C1498 1.363 . S
C1496 H1512 0.931 . S
C1497 C1496 1.370 . S
C1497 C1501 1.408 . S
C1498 C1496 1.363 . S
C1498 C1499 1.370 . S
C1498 C1502 1.524 . S
C1499 C1491 1.503 . S
C1499 C1498 1.370 . S
C1499 C1500 1.403 . S
C1500 C1499 1.403 . S
C1500 C1501 1.404 . S
C1500 C1503 1.539 . S
C1501 C1497 1.408 . S
C1501 C1500 1.404 . S
C1501 H1513 0.930 . S
C1502 C1498 1.524 . S
C1502 H1514 0.956 . S
C1502 H1515 0.961 . S
C1502 H1516 0.961 . S
C1503 C1500 1.539 . S
C1503 H1517 0.958 . S
C1503 H1518 0.961 . S
C1503 H1519 0.960 . S
H1504 C1488 0.931 . S
H1505 C1493 0.929 . S
H1506 C1494 0.960 . S
H1507 C1494 0.962 . S
H1508 C1494 0.960 . S
H1509 C1495 0.961 . S
H1510 C1495 0.961 . S
H1511 C1495 0.961 . S
H1512 C1496 0.931 . S
H1513 C1501 0.930 . S
H1514 C1502 0.956 . S
H1515 C1502 0.961 . S
H1516 C1502 0.961 . S
H1517 C1503 0.958 . S
H1518 C1503 0.961 . S
H1519 C1503 0.960 . S
C1520 C1521 1.391 . S
C1520 C1522 1.394 . S
C1520 H1536 0.931 . S
C1521 C1520 1.391 . S
C1521 C1525 1.376 . S
C1522 C1520 1.394 . S
C1522 C1523 1.369 . S
C1522 C1526 1.531 . S
C1523 C1522 1.369 . S
C1523 C1524 1.410 . S
C1523 C1531 1.503 . S
C1524 C1523 1.410 . S
C1524 C1525 1.392 . S
C1524 C1527 1.511 . S
C1525 C1521 1.376 . S
C1525 C1524 1.392 . S
C1525 H1537 0.929 . S
C1526 C1522 1.531 . S
C1526 H1538 0.960 . S
C1526 H1539 0.962 . S
C1526 H1540 0.960 . S
C1527 C1524 1.511 . S
C1527 H1541 0.961 . S
C1527 H1542 0.961 . S
C1527 H1543 0.961 . S
C1528 C1529 1.370 . S
C1528 C1530 1.363 . S
C1528 H1544 0.931 . S
C1529 C1528 1.370 . S
C1529 C1533 1.408 . S
C1530 C1528 1.363 . S
C1530 C1531 1.370 . S
C1530 C1534 1.524 . S
C1531 C1523 1.503 . S
C1531 C1530 1.370 . S
C1531 C1532 1.403 . S
C1532 C1531 1.403 . S
C1532 C1533 1.404 . S
C1532 C1535 1.539 . S
C1533 C1529 1.408 . S
C1533 C1532 1.404 . S
C1533 H1545 0.930 . S
C1534 C1530 1.524 . S
C1534 H1546 0.956 . S
C1534 H1547 0.961 . S
C1534 H1548 0.961 . S
C1535 C1532 1.539 . S
C1535 H1549 0.958 . S
C1535 H1550 0.961 . S
C1535 H1551 0.960 . S
H1536 C1520 0.931 . S
H1537 C1525 0.929 . S
H1538 C1526 0.960 . S
H1539 C1526 0.962 . S
H1540 C1526 0.960 . S
H1541 C1527 0.961 . S
H1542 C1527 0.961 . S
H1543 C1527 0.961 . S
H1544 C1528 0.931 . S
H1545 C1533 0.930 . S
H1546 C1534 0.956 . S
H1547 C1534 0.961 . S
H1548 C1534 0.961 . S
H1549 C1535 0.958 . S
H1550 C1535 0.961 . S
H1551 C1535 0.960 . S
C1552 C1553 1.391 . S
C1552 C1554 1.394 . S
C1552 H1568 0.931 . S
C1553 C1552 1.391 . S
C1553 C1557 1.376 1_455 S
C1554 C1552 1.394 . S
C1554 C1555 1.369 . S
C1554 C1558 1.531 . S
C1555 C1554 1.369 . S
C1555 C1556 1.410 1_455 S
C1555 C1563 1.503 1_455 S
C1556 C1555 1.410 1_655 S
C1556 C1557 1.392 . S
C1556 C1559 1.511 . S
C1557 C1553 1.376 1_655 S
C1557 C1556 1.392 . S
C1557 H1569 0.929 . S
C1558 C1554 1.531 . S
C1558 H1570 0.960 . S
C1558 H1571 0.962 . S
C1558 H1572 0.960 . S
C1559 C1556 1.511 . S
C1559 H1573 0.961 . S
C1559 H1574 0.961 . S
C1559 H1575 0.961 . S
C1560 C1561 1.370 1_455 S
C1560 C1562 1.363 . S
C1560 H1576 0.931 . S
C1561 C1560 1.370 1_655 S
C1561 C1565 1.408 . S
C1562 C1560 1.363 . S
C1562 C1563 1.370 1_455 S
C1562 C1566 1.524 . S
C1563 C1555 1.503 1_655 S
C1563 C1562 1.370 1_655 S
C1563 C1564 1.403 . S
C1564 C1563 1.403 . S
C1564 C1565 1.404 . S
C1564 C1567 1.539 . S
C1565 C1561 1.408 . S
C1565 C1564 1.404 . S
C1565 H1577 0.930 . S
C1566 C1562 1.524 . S
C1566 H1578 0.956 . S
C1566 H1579 0.961 . S
C1566 H1580 0.961 . S
C1567 C1564 1.539 . S
C1567 H1581 0.958 . S
C1567 H1582 0.961 . S
C1567 H1583 0.960 . S
H1568 C1552 0.931 . S
H1569 C1557 0.929 . S
H1570 C1558 0.960 . S
H1571 C1558 0.962 . S
H1572 C1558 0.960 . S
H1573 C1559 0.961 . S
H1574 C1559 0.961 . S
H1575 C1559 0.961 . S
H1576 C1560 0.931 . S
H1577 C1565 0.930 . S
H1578 C1566 0.956 . S
H1579 C1566 0.961 . S
H1580 C1566 0.961 . S
H1581 C1567 0.958 . S
H1582 C1567 0.961 . S
H1583 C1567 0.960 . S
C1584 C1585 1.391 . S
C1584 C1586 1.394 . S
C1584 H1600 0.931 . S
C1585 C1584 1.391 . S
C1585 C1589 1.376 . S
C1586 C1584 1.394 . S
C1586 C1587 1.369 . S
C1586 C1590 1.531 . S
C1587 C1586 1.369 . S
C1587 C1588 1.410 . S
C1587 C1595 1.503 . S
C1588 C1587 1.410 . S
C1588 C1589 1.392 . S
C1588 C1591 1.511 . S
C1589 C1585 1.376 . S
C1589 C1588 1.392 . S
C1589 H1601 0.929 . S
C1590 C1586 1.531 . S
C1590 H1602 0.960 . S
C1590 H1603 0.962 . S
C1590 H1604 0.960 . S
C1591 C1588 1.511 . S
C1591 H1605 0.961 . S
C1591 H1606 0.961 . S
C1591 H1607 0.961 . S
C1592 C1593 1.370 . S
C1592 C1594 1.363 . S
C1592 H1608 0.931 . S
C1593 C1592 1.370 . S
C1593 C1597 1.408 . S
C1594 C1592 1.363 . S
C1594 C1595 1.370 . S
C1594 C1598 1.524 . S
C1595 C1587 1.503 . S
C1595 C1594 1.370 . S
C1595 C1596 1.403 . S
C1596 C1595 1.403 . S
C1596 C1597 1.404 . S
C1596 C1599 1.539 . S
C1597 C1593 1.408 . S
C1597 C1596 1.404 . S
C1597 H1609 0.930 . S
C1598 C1594 1.524 . S
C1598 H1610 0.956 . S
C1598 H1611 0.961 . S
C1598 H1612 0.961 . S
C1599 C1596 1.539 . S
C1599 H1613 0.958 . S
C1599 H1614 0.961 . S
C1599 H1615 0.960 . S
H1600 C1584 0.931 . S
H1601 C1589 0.929 . S
H1602 C1590 0.960 . S
H1603 C1590 0.962 . S
H1604 C1590 0.960 . S
H1605 C1591 0.961 . S
H1606 C1591 0.961 . S
H1607 C1591 0.961 . S
H1608 C1592 0.931 . S
H1609 C1597 0.930 . S
H1610 C1598 0.956 . S
H1611 C1598 0.961 . S
H1612 C1598 0.961 . S
H1613 C1599 0.958 . S
H1614 C1599 0.961 . S
H1615 C1599 0.960 . S
C1616 C1617 1.391 . S
C1616 C1618 1.394 . S
C1616 H1632 0.931 . S
C1617 C1616 1.391 . S
C1617 C1621 1.376 . S
C1618 C1616 1.394 . S
C1618 C1619 1.369 . S
C1618 C1622 1.531 . S
C1619 C1618 1.369 . S
C1619 C1620 1.410 . S
C1619 C1627 1.503 . S
C1620 C1619 1.410 . S
C1620 C1621 1.392 . S
C1620 C1623 1.511 . S
C1621 C1617 1.376 . S
C1621 C1620 1.392 . S
C1621 H1633 0.929 . S
C1622 C1618 1.531 . S
C1622 H1634 0.960 . S
C1622 H1635 0.962 . S
C1622 H1636 0.960 . S
C1623 C1620 1.511 . S
C1623 H1637 0.961 . S
C1623 H1638 0.961 . S
C1623 H1639 0.961 . S
C1624 C1625 1.370 . S
C1624 C1626 1.363 . S
C1624 H1640 0.931 . S
C1625 C1624 1.370 . S
C1625 C1629 1.408 . S
C1626 C1624 1.363 . S
C1626 C1627 1.370 . S
C1626 C1630 1.524 . S
C1627 C1619 1.503 . S
C1627 C1626 1.370 . S
C1627 C1628 1.403 . S
C1628 C1627 1.403 . S
C1628 C1629 1.404 . S
C1628 C1631 1.539 . S
C1629 C1625 1.408 . S
C1629 C1628 1.404 . S
C1629 H1641 0.930 . S
C1630 C1626 1.524 . S
C1630 H1642 0.956 . S
C1630 H1643 0.961 . S
C1630 H1644 0.961 . S
C1631 C1628 1.539 . S
C1631 H1645 0.958 . S
C1631 H1646 0.961 . S
C1631 H1647 0.960 . S
H1632 C1616 0.931 . S
H1633 C1621 0.929 . S
H1634 C1622 0.960 . S
H1635 C1622 0.962 . S
H1636 C1622 0.960 . S
H1637 C1623 0.961 . S
H1638 C1623 0.961 . S
H1639 C1623 0.961 . S
H1640 C1624 0.931 . S
H1641 C1629 0.930 . S
H1642 C1630 0.956 . S
H1643 C1630 0.961 . S
H1644 C1630 0.961 . S
H1645 C1631 0.958 . S
H1646 C1631 0.961 . S
H1647 C1631 0.960 . S
C1648 C1649 1.391 . S
C1648 C1650 1.394 . S
C1648 H1664 0.931 . S
C1649 C1648 1.391 . S
C1649 C1653 1.376 . S
C1650 C1648 1.394 . S
C1650 C1651 1.369 . S
C1650 C1654 1.531 . S
C1651 C1650 1.369 . S
C1651 C1652 1.410 . S
C1651 C1659 1.503 1_455 S
C1652 C1651 1.410 . S
C1652 C1653 1.392 . S
C1652 C1655 1.511 . S
C1653 C1649 1.376 . S
C1653 C1652 1.392 . S
C1653 H1665 0.929 . S
C1654 C1650 1.531 . S
C1654 H1666 0.960 . S
C1654 H1667 0.962 . S
C1654 H1668 0.960 . S
C1655 C1652 1.511 . S
C1655 H1669 0.961 . S
C1655 H1670 0.961 1_455 S
C1655 H1671 0.961 . S
C1656 C1657 1.370 . S
C1656 C1658 1.363 . S
C1656 H1672 0.931 . S
C1657 C1656 1.370 . S
C1657 C1661 1.408 . S
C1658 C1656 1.363 . S
C1658 C1659 1.370 . S
C1658 C1662 1.524 . S
C1659 C1651 1.503 1_655 S
C1659 C1658 1.370 . S
C1659 C1660 1.403 . S
C1660 C1659 1.403 . S
C1660 C1661 1.404 . S
C1660 C1663 1.539 . S
C1661 C1657 1.408 . S
C1661 C1660 1.404 . S
C1661 H1673 0.930 . S
C1662 C1658 1.524 . S
C1662 H1674 0.956 . S
C1662 H1675 0.961 . S
C1662 H1676 0.961 . S
C1663 C1660 1.539 . S
C1663 H1677 0.958 . S
C1663 H1678 0.961 . S
C1663 H1679 0.960 1_655 S
H1664 C1648 0.931 . S
H1665 C1653 0.929 . S
H1666 C1654 0.960 . S
H1667 C1654 0.962 . S
H1668 C1654 0.960 . S
H1669 C1655 0.961 . S
H1670 C1655 0.961 1_655 S
H1671 C1655 0.961 . S
H1672 C1656 0.931 . S
H1673 C1661 0.930 . S
H1674 C1662 0.956 . S
H1675 C1662 0.961 . S
H1676 C1662 0.961 . S
H1677 C1663 0.958 . S
H1678 C1663 0.961 . S
H1679 C1663 0.960 1_455 S
C1680 C1681 1.391 . S
C1680 C1682 1.394 . S
C1680 H1696 0.931 . S
C1681 C1680 1.391 . S
C1681 C1685 1.376 . S
C1682 C1680 1.394 . S
C1682 C1683 1.369 . S
C1682 C1686 1.531 . S
C1683 C1682 1.369 . S
C1683 C1684 1.410 . S
C1683 C1691 1.503 . S
C1684 C1683 1.410 . S
C1684 C1685 1.392 . S
C1684 C1687 1.511 1_455 S
C1685 C1681 1.376 . S
C1685 C1684 1.392 . S
C1685 H1697 0.929 . S
C1686 C1682 1.531 . S
C1686 H1698 0.960 . S
C1686 H1699 0.962 . S
C1686 H1700 0.960 . S
C1687 C1684 1.511 1_655 S
C1687 H1701 0.961 . S
C1687 H1702 0.961 . S
C1687 H1703 0.961 1_655 S
C1688 C1689 1.370 . S
C1688 C1690 1.363 . S
C1688 H1704 0.931 . S
C1689 C1688 1.370 . S
C1689 C1693 1.408 1_655 S
C1690 C1688 1.363 . S
C1690 C1691 1.370 1_655 S
C1690 C1694 1.524 . S
C1691 C1683 1.503 . S
C1691 C1690 1.370 1_455 S
C1691 C1692 1.403 . S
C1692 C1691 1.403 . S
C1692 C1693 1.404 . S
C1692 C1695 1.539 . S
C1693 C1689 1.408 1_455 S
C1693 C1692 1.404 . S
C1693 H1705 0.930 . S
C1694 C1690 1.524 . S
C1694 H1706 0.956 . S
C1694 H1707 0.961 . S
C1694 H1708 0.961 . S
C1695 C1692 1.539 . S
C1695 H1709 0.958 . S
C1695 H1710 0.961 . S
C1695 H1711 0.960 . S
H1696 C1680 0.931 . S
H1697 C1685 0.929 . S
H1698 C1686 0.960 . S
H1699 C1686 0.962 . S
H1700 C1686 0.960 . S
H1701 C1687 0.961 . S
H1702 C1687 0.961 . S
H1703 C1687 0.961 1_455 S
H1704 C1688 0.931 . S
H1705 C1693 0.930 . S
H1706 C1694 0.956 . S
H1707 C1694 0.961 . S
H1708 C1694 0.961 . S
H1709 C1695 0.958 . S
H1710 C1695 0.961 . S
H1711 C1695 0.960 . S
C1712 C1713 1.391 . S
C1712 C1714 1.394 . S
C1712 H1728 0.931 . S
C1713 C1712 1.391 . S
C1713 C1717 1.376 . S
C1714 C1712 1.394 . S
C1714 C1715 1.369 . S
C1714 C1718 1.531 . S
C1715 C1714 1.369 . S
C1715 C1716 1.410 . S
C1715 C1723 1.503 1_455 S
C1716 C1715 1.410 . S
C1716 C1717 1.392 . S
C1716 C1719 1.511 . S
C1717 C1713 1.376 . S
C1717 C1716 1.392 . S
C1717 H1729 0.929 . S
C1718 C1714 1.531 . S
C1718 H1730 0.960 1_455 S
C1718 H1731 0.970 . S
C1718 H1732 0.960 . S
C1719 C1716 1.511 . S
C1719 H1733 0.961 . S
C1719 H1734 0.961 . S
C1719 H1735 0.961 . S
C1720 C1721 1.370 . S
C1720 C1722 1.363 . S
C1720 H1736 0.931 . S
C1721 C1720 1.370 . S
C1721 C1725 1.408 . S
C1722 C1720 1.363 . S
C1722 C1723 1.370 . S
C1722 C1726 1.524 . S
C1723 C1715 1.503 1_655 S
C1723 C1722 1.370 . S
C1723 C1724 1.403 . S
C1724 C1723 1.403 . S
C1724 C1725 1.404 . S
C1724 C1727 1.539 . S
C1725 C1721 1.408 . S
C1725 C1724 1.404 . S
C1725 H1737 0.930 . S
C1726 C1722 1.524 . S
C1726 H1738 0.956 . S
C1726 H1739 0.961 1_655 S
C1726 H1740 0.961 . S
C1727 C1724 1.539 . S
C1727 H1741 0.958 . S
C1727 H1742 0.961 . S
C1727 H1743 0.960 1_655 S
H1728 C1712 0.931 . S
H1729 C1717 0.929 . S
H1730 C1718 0.960 1_655 S
H1731 C1718 0.970 . S
H1732 C1718 0.960 . S
H1733 C1719 0.961 . S
H1734 C1719 0.961 . S
H1735 C1719 0.961 . S
H1736 C1720 0.931 . S
H1737 C1725 0.930 . S
H1738 C1726 0.956 . S
H1739 C1726 0.961 1_455 S
H1740 C1726 0.961 . S
H1741 C1727 0.958 . S
H1742 C1727 0.961 . S
H1743 C1727 0.960 1_455 S
C1744 C1745 1.391 . S
C1744 C1746 1.394 . S
C1744 H1760 0.931 . S
C1745 C1744 1.391 . S
C1745 C1749 1.376 . S
C1746 C1744 1.394 . S
C1746 C1747 1.369 . S
C1746 C1750 1.531 . S
C1747 C1746 1.369 . S
C1747 C1748 1.410 . S
C1747 C1755 1.503 . S
C1748 C1747 1.410 . S
C1748 C1749 1.392 . S
C1748 C1751 1.511 . S
C1749 C1745 1.376 . S
C1749 C1748 1.392 . S
C1749 H1761 0.929 . S
C1750 C1746 1.531 . S
C1750 H1762 0.960 . S
C1750 H1763 0.962 . S
C1750 H1764 0.960 . S
C1751 C1748 1.511 . S
C1751 H1765 0.961 . S
C1751 H1766 0.961 . S
C1751 H1767 0.961 . S
C1752 C1753 1.370 . S
C1752 C1754 1.363 . S
C1752 H1768 0.931 . S
C1753 C1752 1.370 . S
C1753 C1757 1.408 . S
C1754 C1752 1.363 . S
C1754 C1755 1.370 . S
C1754 C1758 1.524 . S
C1755 C1747 1.503 . S
C1755 C1754 1.370 . S
C1755 C1756 1.403 . S
C1756 C1755 1.403 . S
C1756 C1757 1.404 . S
C1756 C1759 1.539 . S
C1757 C1753 1.408 . S
C1757 C1756 1.404 . S
C1757 H1769 0.930 . S
C1758 C1754 1.524 . S
C1758 H1770 0.956 . S
C1758 H1771 0.961 . S
C1758 H1772 0.961 . S
C1759 C1756 1.539 . S
C1759 H1773 0.958 . S
C1759 H1774 0.961 . S
C1759 H1775 0.960 . S
H1760 C1744 0.931 . S
H1761 C1749 0.929 . S
H1762 C1750 0.960 . S
H1763 C1750 0.962 . S
H1764 C1750 0.960 . S
H1765 C1751 0.961 . S
H1766 C1751 0.961 . S
H1767 C1751 0.961 . S
H1768 C1752 0.931 . S
H1769 C1757 0.930 . S
H1770 C1758 0.956 . S
H1771 C1758 0.961 . S
H1772 C1758 0.961 . S
H1773 C1759 0.958 . S
H1774 C1759 0.961 . S
H1775 C1759 0.960 . S
C1776 C1777 1.391 . S
C1776 C1778 1.394 . S
C1776 H1792 0.931 . S
C1777 C1776 1.391 . S
C1777 C1781 1.376 . S
C1778 C1776 1.394 . S
C1778 C1779 1.369 . S
C1778 C1782 1.531 . S
C1779 C1778 1.369 . S
C1779 C1780 1.410 . S
C1779 C1787 1.503 . S
C1780 C1779 1.410 . S
C1780 C1781 1.392 . S
C1780 C1783 1.511 . S
C1781 C1777 1.376 . S
C1781 C1780 1.392 . S
C1781 H1793 0.929 . S
C1782 C1778 1.531 . S
C1782 H1794 0.960 . S
C1782 H1795 0.962 . S
C1782 H1796 0.960 . S
C1783 C1780 1.511 . S
C1783 H1797 0.961 . S
C1783 H1798 0.961 . S
C1783 H1799 0.961 . S
C1784 C1785 1.370 . S
C1784 C1786 1.363 . S
C1784 H1800 0.931 . S
C1785 C1784 1.370 . S
C1785 C1789 1.408 . S
C1786 C1784 1.363 . S
C1786 C1787 1.370 . S
C1786 C1790 1.524 . S
C1787 C1779 1.503 . S
C1787 C1786 1.370 . S
C1787 C1788 1.403 . S
C1788 C1787 1.403 . S
C1788 C1789 1.404 . S
C1788 C1791 1.539 . S
C1789 C1785 1.408 . S
C1789 C1788 1.404 . S
C1789 H1801 0.930 . S
C1790 C1786 1.524 . S
C1790 H1802 0.956 . S
C1790 H1803 0.961 . S
C1790 H1804 0.961 . S
C1791 C1788 1.539 . S
C1791 H1805 0.958 . S
C1791 H1806 0.961 . S
C1791 H1807 0.960 . S
H1792 C1776 0.931 . S
H1793 C1781 0.929 . S
H1794 C1782 0.960 . S
H1795 C1782 0.962 . S
H1796 C1782 0.960 . S
H1797 C1783 0.961 . S
H1798 C1783 0.961 . S
H1799 C1783 0.961 . S
H1800 C1784 0.931 . S
H1801 C1789 0.930 . S
H1802 C1790 0.956 . S
H1803 C1790 0.961 . S
H1804 C1790 0.961 . S
H1805 C1791 0.958 . S
H1806 C1791 0.961 . S
H1807 C1791 0.960 . S
C529 N442 1.367 . S
C537 N13 1.369 . S
C561 N46 1.340 . S
C569 N376 1.356 . S
C593 N79 1.360 . S
C601 N409 1.358 . S
C625 N112 1.377 . S
C633 N343 1.369 . S
C657 N508 1.340 . S
C665 N145 1.355 . S
C689 N178 1.377 . S
C697 N310 1.367 . S
C721 N211 1.340 . S
C729 N475 1.355 . S
C753 N277 1.370 . S
C761 N244 1.362 . S
C785 C18 1.641 . S
C793 C150 1.664 . S
C817 C51 1.646 . S
C825 C183 1.664 . S
C849 C84 1.671 . S
C857 C216 1.652 . S
C881 C249 1.664 . S
C889 C117 1.653 . S
C913 C348 1.645 . S
C921 C282 1.662 . S
C945 C315 1.662 . S
C953 C381 1.654 . S
C977 C480 1.642 . S
C985 C414 1.663 . S
C1009 C513 1.639 . S
C1017 C447 1.665 . S
C1041 C172 0.957 . S
C1049 C7 0.991 . S
C1073 C40 0.967 . S
C1081 C205 0.993 . S
C1105 C73 1.064 . S
C1113 C238 1.035 . S
C1137 C139 1.022 . S
C1145 C106 1.013 . S
C1169 C153 0.517 . S
C1177 C351 0.447 . S
C1201 C87 0.439 . S
C1209 C285 0.412 . S
C1233 C384 0.494 . S
C1241 C219 0.437 . S
C1265 C318 0.500 . S
C1273 C21 0.440 . S
C1297 C271 1.062 . S
C1305 C403 1.033 . S
C1329 C502 1.063 . S
C1337 C337 1.033 . S
C1361 C436 0.970 . S
C1369 C304 0.993 . S
C1393 C370 0.958 . S
C1401 C469 0.990 . S
C1425 C483 0.489 . S
C1433 C54 0.435 . S
C1457 C186 0.502 . S
C1465 C450 0.441 . S
C1489 C516 0.481 . S
C1497 C120 0.431 . S
C1521 C252 0.473 . S
C1529 C417 0.427 . S
C1553 N2 0.568 . S
C1561 N431 0.574 . S
C1585 N35 0.614 . S
C1593 N365 0.557 . S
C1617 N68 0.544 . S
C1625 N398 0.575 . S
C1649 N101 0.472 . S
C1657 N332 0.537 . S
C1681 N134 0.615 . S
C1689 N497 0.534 . S
C1713 N167 0.591 . S
C1721 N299 0.570 . S
C1745 N464 0.531 . S
C1753 N200 0.514 . S
C1777 N266 0.552 . S
C1785 N233 0.513 . S
