# Generated by pormake.
# Topology umo, (4)-cn, num edge types: 1
# Building blocks:
#     Node 0, Type 0, BuildingBlock: ICAMEG_clean_sbu_1, # of connection points: 4
#     Node 1, Type 0, BuildingBlock: ICAMEG_clean_sbu_1, # of connection points: 4
#     Node 2, Type 0, BuildingBlock: ICAMEG_clean_sbu_1, # of connection points: 4
#     Node 3, Type 0, BuildingBlock: ICAMEG_clean_sbu_1, # of connection points: 4
#     Node 4, Type 0, BuildingBlock: ICAMEG_clean_sbu_1, # of connection points: 4
#     Node 5, Type 0, BuildingBlock: ICAMEG_clean_sbu_1, # of connection points: 4
#     Node 6, Type 0, BuildingBlock: ICAMEG_clean_sbu_1, # of connection points: 4
#     Node 7, Type 0, BuildingBlock: ICAMEG_clean_sbu_1, # of connection points: 4
#     Node 8, Type 0, BuildingBlock: ICAMEG_clean_sbu_1, # of connection points: 4
#     Node 9, Type 0, BuildingBlock: ICAMEG_clean_sbu_1, # of connection points: 4
#     Node 10, Type 0, BuildingBlock: ICAMEG_clean_sbu_1, # of connection points: 4
#     Node 11, Type 0, BuildingBlock: ICAMEG_clean_sbu_1, # of connection points: 4
#     Edge 12, Type (0, 0), BuildingBlock: XIVTED_clean_linker_0, # of connection points: 2
#     Edge 13, Type (0, 0), BuildingBlock: XIVTED_clean_linker_0, # of connection points: 2
#     Edge 14, Type (0, 0), BuildingBlock: XIVTED_clean_linker_0, # of connection points: 2
#     Edge 15, Type (0, 0), BuildingBlock: XIVTED_clean_linker_0, # of connection points: 2
#     Edge 16, Type (0, 0), BuildingBlock: XIVTED_clean_linker_0, # of connection points: 2
#     Edge 17, Type (0, 0), BuildingBlock: XIVTED_clean_linker_0, # of connection points: 2
#     Edge 18, Type (0, 0), BuildingBlock: XIVTED_clean_linker_0, # of connection points: 2
#     Edge 19, Type (0, 0), BuildingBlock: XIVTED_clean_linker_0, # of connection points: 2
#     Edge 20, Type (0, 0), BuildingBlock: XIVTED_clean_linker_0, # of connection points: 2
#     Edge 21, Type (0, 0), BuildingBlock: XIVTED_clean_linker_0, # of connection points: 2
#     Edge 22, Type (0, 0), BuildingBlock: XIVTED_clean_linker_0, # of connection points: 2
#     Edge 23, Type (0, 0), BuildingBlock: XIVTED_clean_linker_0, # of connection points: 2
#     Edge 24, Type (0, 0), BuildingBlock: XIVTED_clean_linker_0, # of connection points: 2
#     Edge 25, Type (0, 0), BuildingBlock: XIVTED_clean_linker_0, # of connection points: 2
#     Edge 26, Type (0, 0), BuildingBlock: XIVTED_clean_linker_0, # of connection points: 2
#     Edge 27, Type (0, 0), BuildingBlock: XIVTED_clean_linker_0, # of connection points: 2
#     Edge 28, Type (0, 0), BuildingBlock: XIVTED_clean_linker_0, # of connection points: 2
#     Edge 29, Type (0, 0), BuildingBlock: XIVTED_clean_linker_0, # of connection points: 2
#     Edge 30, Type (0, 0), BuildingBlock: XIVTED_clean_linker_0, # of connection points: 2
#     Edge 31, Type (0, 0), BuildingBlock: XIVTED_clean_linker_0, # of connection points: 2
#     Edge 32, Type (0, 0), BuildingBlock: XIVTED_clean_linker_0, # of connection points: 2
#     Edge 33, Type (0, 0), BuildingBlock: XIVTED_clean_linker_0, # of connection points: 2
#     Edge 34, Type (0, 0), BuildingBlock: XIVTED_clean_linker_0, # of connection points: 2
#     Edge 35, Type (0, 0), BuildingBlock: XIVTED_clean_linker_0, # of connection points: 2
# Relax obj value: 0.091
# Max RMSD: 0.156
# Mean RMSD: 0.156
data_MOF--net-umo--node1-ICAMEG_clean_sbu_1--edge1-XIVTED_clean_linker_0
_symmetry_space_group_name_H-M    P1
_symmetry_Int_Tables_number       1
_symmetry_cell_setting            triclinic
loop_
_symmetry_equiv_pos_as_xyz
'x, y, z'
_cell_length_a     52.337103
_cell_length_b     52.226656
_cell_length_c     40.313481
_cell_angle_alpha  89.992145
_cell_angle_beta   89.97609
_cell_angle_gamma 120.0944
loop_
_atom_site_label
_atom_site_type_symbol
_atom_site_fract_x
_atom_site_fract_y
_atom_site_fract_z
_atom_type_partial_charge
Co0 Co 0.15019 0.56392 0.41089 0.0
Co1 Co 0.18278 0.52147 0.42302 0.0
O2 O 0.15722 0.53198 0.39853 0.0
C3 C 0.09139 0.5115 0.40156 0.0
O4 O 0.1003 0.49622 0.41901 0.0
C5 C 0.20639 0.53448 0.35558 0.0
O6 O 0.20434 0.55833 0.3593 0.0
O7 O 0.21524 0.56311 0.42371 0.0
O8 O 0.19212 0.58953 0.42475 0.0
H9 H 0.25489 0.53212 0.51179 0.0
H10 H 0.13324 0.53756 0.34363 0.0
O11 O 0.1083 0.53912 0.39705 0.0
H12 H 0.20481 0.64327 0.32528 0.0
H13 H 0.10547 0.62899 0.39623 0.0
H14 H 0.1673 0.60533 0.46774 0.0
H15 H 0.1901 0.62363 0.38199 0.0
H16 H 0.11592 0.58948 0.38057 0.0
O17 O 0.19819 0.51565 0.37921 0.0
H18 H 0.22207 0.54532 0.48172 0.0
H19 H 0.19895 0.47485 0.4139 0.0
H20 H 0.15757 0.64514 0.48424 0.0
H21 H 0.14708 0.55635 0.28648 0.0
H22 H 0.12646 0.65719 0.44835 0.0
H23 H 0.18324 0.60954 0.27703 0.0
O24 O 0.13961 0.54817 0.45658 0.0
H25 H 0.10219 0.42894 0.37021 0.0
H26 H 0.15369 0.47494 0.47478 0.0
H27 H 0.11245 0.42332 0.47517 0.0
H28 H 0.08644 0.4 0.42258 0.0
H29 H 0.14336 0.48056 0.37103 0.0
H30 H 0.2317 0.46098 0.44307 0.0
H31 H 0.25985 0.48966 0.49248 0.0
O32 O 0.1687 0.52867 0.46693 0.0
C33 C 0.21528 0.58738 0.42683 0.0
C34 C 0.24261 0.51935 0.49041 0.0
C35 C 0.22963 0.47945 0.45181 0.0
N36 N 0.2083 0.5106 0.44641 0.0
C37 C 0.22389 0.52664 0.47339 0.0
C38 C 0.21114 0.48741 0.43539 0.0
C39 C 0.24542 0.49555 0.47953 0.0
C40 C 0.14869 0.56081 0.33972 0.0
N41 N 0.16074 0.57949 0.36614 0.0
C42 C 0.15657 0.57129 0.3073 0.0
C43 C 0.17689 0.60112 0.30202 0.0
C44 C 0.18903 0.62005 0.32908 0.0
C45 C 0.18066 0.60878 0.36115 0.0
C46 C 0.11911 0.62398 0.41204 0.0
C47 C 0.15388 0.61057 0.4519 0.0
C48 C 0.12506 0.6016 0.40333 0.0
N49 N 0.14239 0.59528 0.42309 0.0
C50 C 0.14838 0.63307 0.46141 0.0
C51 C 0.1309 0.63981 0.44128 0.0
C52 C 0.15137 0.53799 0.47633 0.0
C53 C 0.11343 0.43882 0.39326 0.0
C54 C 0.1424 0.46494 0.45184 0.0
C55 C 0.11913 0.4357 0.45219 0.0
C56 C 0.10456 0.42262 0.42267 0.0
N57 N 0.15097 0.48066 0.42289 0.0
C58 C 0.13684 0.46799 0.39384 0.0
Co59 Co 0.66305 0.1865 0.5897 0.0
Co60 Co 0.58884 0.15074 0.571 0.0
O61 O 0.62889 0.15824 0.56375 0.0
C62 C 0.67839 0.20412 0.52025 0.0
O63 O 0.6516 0.19998 0.51793 0.0
C64 C 0.58384 0.09178 0.56805 0.0
O65 O 0.60777 0.10186 0.58622 0.0
O66 O 0.59131 0.14308 0.6187 0.0
O67 O 0.63884 0.17465 0.63184 0.0
H68 H 0.50988 0.16013 0.63124 0.0
H69 H 0.66938 0.14455 0.5457 0.0
O70 O 0.68752 0.19968 0.54783 0.0
H71 H 0.68931 0.12261 0.65859 0.0
H72 H 0.77071 0.24048 0.62056 0.0
H73 H 0.6731 0.22946 0.64331 0.0
H74 H 0.6777 0.16235 0.64912 0.0
H75 H 0.72676 0.20442 0.58924 0.0
O76 O 0.57303 0.10816 0.56109 0.0
H77 H 0.56056 0.17016 0.62099 0.0
H78 H 0.53109 0.11347 0.53698 0.0
H79 H 0.71638 0.26562 0.67541 0.0
H80 H 0.68119 0.10482 0.55398 0.0
H81 H 0.76563 0.2713 0.6641 0.0
H82 H 0.69116 0.09357 0.61079 0.0
O83 O 0.65311 0.21791 0.58251 0.0
H84 H 0.60025 0.1395 0.4489 0.0
H85 H 0.5701 0.18767 0.53306 0.0
H86 H 0.56794 0.19811 0.47381 0.0
H87 H 0.58303 0.17389 0.43125 0.0
H88 H 0.60251 0.13004 0.50843 0.0
H89 H 0.48007 0.10267 0.54646 0.0
H90 H 0.46922 0.12617 0.5938 0.0
O91 O 0.60359 0.19335 0.58063 0.0
C92 C 0.61191 0.15672 0.6398 0.0
C93 C 0.51435 0.14983 0.61046 0.0
C94 C 0.4976 0.11755 0.56291 0.0
N95 N 0.54881 0.1426 0.57828 0.0
C96 C 0.543 0.15548 0.60449 0.0
C97 C 0.52653 0.1237 0.55771 0.0
C98 C 0.49154 0.13075 0.58947 0.0
C99 C 0.67402 0.14 0.57043 0.0
N100 N 0.67296 0.15579 0.59687 0.0
C101 C 0.68055 0.11738 0.57499 0.0
C102 C 0.68608 0.11104 0.60688 0.0
C103 C 0.68501 0.12731 0.63372 0.0
C104 C 0.67834 0.14971 0.62822 0.0
C105 C 0.74935 0.23813 0.62581 0.0
C106 C 0.6944 0.23161 0.63848 0.0
C107 C 0.72441 0.21777 0.60814 0.0
N108 N 0.69735 0.21458 0.61477 0.0
C109 C 0.71885 0.25221 0.65663 0.0
C110 C 0.74648 0.25541 0.65023 0.0
C111 C 0.62847 0.21721 0.58191 0.0
C112 C 0.59354 0.15012 0.46721 0.0
C113 C 0.57689 0.17718 0.51473 0.0
C114 C 0.5755 0.18309 0.48119 0.0
C115 C 0.58393 0.16946 0.45732 0.0
N116 N 0.58639 0.15822 0.52425 0.0
C117 C 0.5946 0.14471 0.50096 0.0
Co118 Co 0.46747 0.65388 0.75672 0.0
Co119 Co 0.42438 0.58086 0.73221 0.0
O120 O 0.45895 0.6203 0.72818 0.0
C121 C 0.46367 0.67232 0.68883 0.0
O122 O 0.44047 0.64584 0.68579 0.0
C123 C 0.47603 0.57247 0.73433 0.0
O124 O 0.48925 0.59566 0.7538 0.0
O125 O 0.43035 0.58036 0.78076 0.0
O126 O 0.45647 0.62791 0.79734 0.0
H127 H 0.32887 0.5028 0.78243 0.0
H128 H 0.51239 0.6593 0.70801 0.0
O129 O 0.47783 0.6801 0.71622 0.0
H130 H 0.5599 0.67467 0.8175 0.0
H131 H 0.52616 0.76044 0.79225 0.0
H132 H 0.43898 0.66297 0.81563 0.0
H133 H 0.50902 0.66559 0.81277 0.0
H134 H 0.51483 0.71724 0.75727 0.0
O135 O 0.44974 0.56312 0.72441 0.0
H136 H 0.37231 0.55279 0.77687 0.0
H137 H 0.40349 0.52408 0.69579 0.0
H138 H 0.4496 0.7055 0.85141 0.0
H139 H 0.56339 0.66853 0.71156 0.0
H140 H 0.49347 0.75466 0.83979 0.0
H141 H 0.58744 0.6762 0.76662 0.0
O142 O 0.42622 0.64583 0.75351 0.0
H143 H 0.45612 0.59712 0.61269 0.0
H144 H 0.37253 0.56728 0.68956 0.0
H145 H 0.36471 0.56883 0.62944 0.0
H146 H 0.40669 0.5838 0.59055 0.0
H147 H 0.46304 0.5956 0.673 0.0
H148 H 0.36049 0.47372 0.70064 0.0
H149 H 0.32275 0.46285 0.74414 0.0
O150 O 0.39846 0.5978 0.74004 0.0
C151 C 0.44212 0.60005 0.8033 0.0
C152 C 0.34512 0.50728 0.76332 0.0
C153 C 0.36289 0.49095 0.71745 0.0
N154 N 0.39033 0.54139 0.73592 0.0
C155 C 0.36973 0.53556 0.76 0.0
C156 C 0.38723 0.51949 0.71488 0.0
C157 C 0.34172 0.48487 0.74185 0.0
C158 C 0.52283 0.66293 0.73202 0.0
N159 N 0.50783 0.66205 0.76013 0.0
C160 C 0.55166 0.66801 0.73389 0.0
C161 C 0.56512 0.67226 0.7648 0.0
C162 C 0.54967 0.67138 0.79336 0.0
C163 C 0.52085 0.66617 0.79054 0.0
C164 C 0.50702 0.73911 0.79761 0.0
C165 C 0.45822 0.68425 0.81057 0.0
C166 C 0.50047 0.7146 0.77786 0.0
N167 N 0.47642 0.68759 0.7846 0.0
C168 C 0.46407 0.70827 0.83085 0.0
C169 C 0.48867 0.73586 0.82429 0.0
C170 C 0.40141 0.62279 0.74769 0.0
C171 C 0.43763 0.59045 0.62937 0.0
C172 C 0.39092 0.57388 0.67281 0.0
C173 C 0.38635 0.57465 0.63878 0.0
C174 C 0.4099 0.58303 0.61698 0.0
N175 N 0.41818 0.58118 0.68479 0.0
C176 C 0.44138 0.5894 0.66355 0.0
Co177 Co 0.8397 0.43178 0.90899 0.0
Co178 Co 0.80533 0.47236 0.92279 0.0
O179 O 0.83128 0.46295 0.89743 0.0
C180 C 0.89756 0.4855 0.89948 0.0
O181 O 0.88815 0.49992 0.91773 0.0
C182 C 0.78037 0.45868 0.85609 0.0
O183 O 0.78336 0.43532 0.85917 0.0
O184 O 0.77376 0.43029 0.92376 0.0
O185 O 0.79804 0.40499 0.92319 0.0
H186 H 0.73357 0.45918 0.01322 0.0
H187 H 0.85535 0.45883 0.84191 0.0
O188 O 0.88132 0.45781 0.89471 0.0
H189 H 0.78636 0.35261 0.82292 0.0
H190 H 0.88747 0.36973 0.89196 0.0
H191 H 0.82422 0.38999 0.96527 0.0
H192 H 0.80106 0.37197 0.87972 0.0
H193 H 0.87529 0.40826 0.87739 0.0
O194 O 0.78878 0.47758 0.87962 0.0
H195 H 0.76688 0.44734 0.982 0.0
H196 H 0.78734 0.51777 0.91497 0.0
H197 H 0.83566 0.35112 0.98067 0.0
H198 H 0.8415 0.44034 0.78469 0.0
H199 H 0.8675 0.34078 0.94387 0.0
H200 H 0.80665 0.38689 0.77492 0.0
O201 O 0.85028 0.4472 0.95482 0.0
H202 H 0.88339 0.56598 0.86906 0.0
H203 H 0.83414 0.51909 0.97438 0.0
H204 H 0.87439 0.57117 0.97435 0.0
H205 H 0.89928 0.59494 0.92139 0.0
H206 H 0.84321 0.5139 0.8703 0.0
H207 H 0.75405 0.53026 0.94528 0.0
H208 H 0.727 0.50093 0.99488 0.0
O209 O 0.82058 0.46581 0.9661 0.0
C210 C 0.77449 0.40635 0.92606 0.0
C211 C 0.74537 0.47224 0.99177 0.0
C212 C 0.75684 0.5121 0.95361 0.0
N213 N 0.77939 0.48215 0.94705 0.0
C214 C 0.76438 0.46573 0.97411 0.0
C215 C 0.77564 0.50493 0.93655 0.0
C216 C 0.74166 0.49564 0.98143 0.0
C217 C 0.84046 0.43549 0.83786 0.0
N218 N 0.82914 0.4165 0.86415 0.0
C219 C 0.83258 0.42517 0.8054 0.0
C220 C 0.81299 0.39519 0.79994 0.0
C221 C 0.80157 0.37594 0.82686 0.0
C222 C 0.80993 0.38705 0.85898 0.0
C223 C 0.87353 0.37399 0.90816 0.0
C224 C 0.83795 0.3855 0.94904 0.0
C225 C 0.86661 0.39582 0.90008 0.0
N226 N 0.84888 0.4012 0.92034 0.0
C227 C 0.84441 0.36352 0.95793 0.0
C228 C 0.86231 0.35775 0.93729 0.0
C229 C 0.83845 0.45702 0.97496 0.0
C230 C 0.87264 0.5559 0.89227 0.0
C231 C 0.84493 0.52928 0.95127 0.0
C232 C 0.86765 0.55878 0.95138 0.0
C233 C 0.88159 0.57212 0.92166 0.0
N234 N 0.83628 0.51355 0.92235 0.0
C235 C 0.84979 0.52647 0.8931 0.0
Co236 Co 0.32654 0.80735 0.09263 0.0
Co237 Co 0.40089 0.84507 0.07444 0.0
O238 O 0.36058 0.83701 0.06746 0.0
C239 C 0.31138 0.79178 0.0226 0.0
O240 O 0.33845 0.79679 0.01964 0.0
C241 C 0.405 0.90386 0.07276 0.0
O242 O 0.38006 0.89305 0.08917 0.0
O243 O 0.39794 0.85118 0.12249 0.0
O244 O 0.35064 0.8181 0.13485 0.0
H245 H 0.48034 0.83545 0.13312 0.0
H246 H 0.31893 0.84991 0.05116 0.0
O247 O 0.30215 0.79517 0.05069 0.0
H248 H 0.29824 0.8673 0.16575 0.0
H249 H 0.21882 0.75045 0.12317 0.0
H250 H 0.31722 0.76277 0.14397 0.0
H251 H 0.31121 0.82887 0.15377 0.0
H252 H 0.26251 0.78818 0.09279 0.0
O253 O 0.41632 0.88786 0.0662 0.0
H254 H 0.42948 0.82492 0.12319 0.0
H255 H 0.45871 0.88398 0.04118 0.0
H256 H 0.2742 0.72493 0.17511 0.0
H257 H 0.3057 0.88833 0.06195 0.0
H258 H 0.22456 0.71859 0.16477 0.0
H259 H 0.29535 0.89729 0.11962 0.0
O260 O 0.3373 0.7768 0.08337 0.0
H261 H 0.38985 0.85951 0.95308 0.0
H262 H 0.42076 0.80999 0.03463 0.0
H263 H 0.42349 0.80144 0.97494 0.0
H264 H 0.40803 0.82635 0.93368 0.0
H265 H 0.38704 0.86709 0.01302 0.0
H266 H 0.50993 0.89531 0.05038 0.0
H267 H 0.52099 0.87087 0.09655 0.0
O268 O 0.3868 0.80237 0.08241 0.0
C269 C 0.37738 0.83626 0.14327 0.0
C270 C 0.47579 0.84617 0.11286 0.0
C271 C 0.4924 0.87979 0.06645 0.0
N272 N 0.44109 0.85364 0.08149 0.0
C273 C 0.44702 0.84024 0.10706 0.0
C274 C 0.46336 0.87334 0.0614 0.0
C275 C 0.49859 0.86606 0.09235 0.0
C276 C 0.31413 0.85347 0.07626 0.0
N277 N 0.31576 0.83715 0.10179 0.0
C278 C 0.3068 0.87535 0.08225 0.0
C279 C 0.30105 0.8804 0.11462 0.0
C280 C 0.30271 0.86361 0.14052 0.0
C281 C 0.31017 0.84196 0.13361 0.0
C282 C 0.24035 0.75308 0.12799 0.0
C283 C 0.29574 0.76033 0.13958 0.0
C284 C 0.26516 0.77438 0.11085 0.0
N285 N 0.29243 0.77792 0.11695 0.0
C286 C 0.27144 0.73878 0.15717 0.0
C287 C 0.24359 0.73521 0.15133 0.0
C288 C 0.36223 0.77816 0.08263 0.0
C289 C 0.39674 0.84861 0.97081 0.0
C290 C 0.41381 0.82077 0.01687 0.0
C291 C 0.41552 0.81593 0.98308 0.0
C292 C 0.40688 0.82995 0.95995 0.0
N293 N 0.40379 0.83907 0.02736 0.0
C294 C 0.39536 0.85295 1.0048 0.0
Co295 Co 0.51894 0.33169 0.25566 0.0
Co296 Co 0.55829 0.40561 0.23428 0.0
O297 O 0.5251 0.36549 0.22869 0.0
C298 C 0.5205 0.31477 0.18667 0.0
O299 O 0.54334 0.34149 0.18357 0.0
C300 C 0.50522 0.41184 0.23439 0.0
O301 O 0.4915 0.38782 0.25257 0.0
O302 O 0.54978 0.40447 0.28229 0.0
O303 O 0.53165 0.35682 0.29708 0.0
H304 H 0.64921 0.48545 0.2903 0.0
H305 H 0.47076 0.325 0.21136 0.0
O306 O 0.50719 0.3063 0.2145 0.0
H307 H 0.42922 0.30723 0.32439 0.0
H308 H 0.46437 0.22444 0.2893 0.0
H309 H 0.55162 0.32244 0.31007 0.0
H310 H 0.48039 0.31836 0.31508 0.0
H311 H 0.47264 0.26795 0.25669 0.0
O312 O 0.53184 0.42185 0.22539 0.0
H313 H 0.60768 0.43466 0.28221 0.0
H314 H 0.57854 0.46274 0.19875 0.0
H315 H 0.54411 0.27961 0.34345 0.0
H316 H 0.4194 0.31367 0.21949 0.0
H317 H 0.50021 0.23017 0.33313 0.0
H318 H 0.39835 0.30478 0.27636 0.0
O319 O 0.56019 0.34113 0.24875 0.0
H320 H 0.53155 0.39151 0.11331 0.0
H321 H 0.61246 0.4225 0.19418 0.0
H322 H 0.62295 0.42298 0.13448 0.0
H323 H 0.58234 0.40745 0.09358 0.0
H324 H 0.52195 0.39098 0.17326 0.0
H325 H 0.61962 0.51387 0.2061 0.0
H326 H 0.65538 0.52547 0.25207 0.0
O327 O 0.58581 0.39053 0.2433 0.0
C328 C 0.54184 0.38418 0.30404 0.0
C329 C 0.63384 0.48065 0.27011 0.0
C330 C 0.61721 0.49661 0.22287 0.0
N331 N 0.59088 0.44569 0.23986 0.0
C332 C 0.61033 0.45193 0.26535 0.0
C333 C 0.59397 0.46763 0.21887 0.0
C334 C 0.63727 0.5031 0.24866 0.0
C335 C 0.46164 0.32085 0.23613 0.0
N336 N 0.47848 0.32222 0.2627 0.0
C337 C 0.4326 0.31458 0.24061 0.0
C338 C 0.42082 0.30965 0.27253 0.0
C339 C 0.43814 0.31106 0.29949 0.0
C340 C 0.46712 0.31745 0.29408 0.0
C341 C 0.48352 0.24589 0.29411 0.0
C342 C 0.53233 0.30106 0.30567 0.0
C343 C 0.48833 0.27058 0.27571 0.0
N344 N 0.51239 0.29776 0.28178 0.0
C345 C 0.52826 0.27686 0.32454 0.0
C346 C 0.50364 0.24912 0.31871 0.0
C347 C 0.58436 0.36558 0.24658 0.0
C348 C 0.54946 0.39842 0.13088 0.0
C349 C 0.59464 0.41558 0.17656 0.0
C350 C 0.60073 0.41599 0.14277 0.0
C351 C 0.57794 0.40731 0.11983 0.0
N352 N 0.56663 0.4068 0.18721 0.0
C353 C 0.54418 0.39832 0.16486 0.0
Co354 Co 0.47236 0.80672 0.42311 0.0
Co355 Co 0.43572 0.84435 0.44255 0.0
O356 O 0.46806 0.83626 0.44856 0.0
C357 C 0.47102 0.79027 0.49305 0.0
O358 O 0.44941 0.79596 0.49604 0.0
C359 C 0.49056 0.90294 0.44101 0.0
O360 O 0.5041 0.89137 0.42483 0.0
O361 O 0.44315 0.84932 0.39414 0.0
O362 O 0.4598 0.81832 0.38093 0.0
H363 H 0.34482 0.83364 0.38735 0.0
H364 H 0.52214 0.84842 0.46562 0.0
O365 O 0.48376 0.79367 0.46503 0.0
H366 H 0.56182 0.8671 0.35169 0.0
H367 H 0.52263 0.74937 0.39246 0.0
H368 H 0.43754 0.7631 0.37079 0.0
H369 H 0.51012 0.82882 0.36265 0.0
H370 H 0.51674 0.78694 0.42321 0.0
O371 O 0.46351 0.88731 0.44902 0.0
H372 H 0.38532 0.82312 0.39597 0.0
H373 H 0.4183 0.88437 0.47582 0.0
H374 H 0.44268 0.72544 0.33926 0.0
H375 H 0.57407 0.88668 0.45585 0.0
H376 H 0.48548 0.71839 0.35004 0.0
H377 H 0.59418 0.89628 0.39852 0.0
O378 O 0.43085 0.77626 0.43151 0.0
H379 H 0.46541 0.86161 0.56265 0.0
H380 H 0.38213 0.81044 0.48482 0.0
H381 H 0.37291 0.80337 0.54501 0.0
H382 H 0.41473 0.8291 0.58439 0.0
H383 H 0.47371 0.86775 0.50226 0.0
H384 H 0.37829 0.89572 0.4679 0.0
H385 H 0.34112 0.87018 0.42348 0.0
O386 O 0.40678 0.80153 0.43622 0.0
C387 C 0.45012 0.83569 0.37303 0.0
C388 C 0.36082 0.84484 0.40687 0.0
C389 C 0.37962 0.87971 0.45204 0.0
N390 N 0.40399 0.85292 0.43654 0.0
C391 C 0.38375 0.83892 0.41192 0.0
C392 C 0.40226 0.87323 0.45637 0.0
C393 C 0.35877 0.86537 0.42712 0.0
C394 C 0.53084 0.85226 0.44066 0.0
N395 N 0.51318 0.83637 0.41475 0.0
C396 C 0.56021 0.87405 0.43526 0.0
C397 C 0.57147 0.87946 0.40307 0.0
C398 C 0.55331 0.86312 0.37678 0.0
C399 C 0.52403 0.84155 0.38312 0.0
C400 C 0.50395 0.75231 0.38745 0.0
C401 C 0.45637 0.76035 0.37537 0.0
C402 C 0.50049 0.77352 0.40479 0.0
N403 N 0.47703 0.77745 0.39846 0.0
C404 C 0.4591 0.73891 0.35755 0.0
C405 C 0.4831 0.73494 0.36365 0.0
C406 C 0.40726 0.77744 0.43421 0.0
C407 C 0.447 0.85035 0.54574 0.0
C408 C 0.40047 0.82161 0.50177 0.0
C409 C 0.3951 0.81759 0.53584 0.0
C410 C 0.41856 0.83206 0.55792 0.0
N411 N 0.42843 0.83956 0.49 0.0
C412 C 0.45154 0.85388 0.51151 0.0
Co413 Co 0.58162 0.42936 0.60009 0.0
Co414 Co 0.65678 0.47189 0.58838 0.0
O415 O 0.62053 0.46151 0.61254 0.0
C416 C 0.57477 0.48164 0.6088 0.0
O417 O 0.59947 0.49734 0.5923 0.0
C418 C 0.66737 0.45942 0.65598 0.0
O419 O 0.64136 0.43561 0.65269 0.0
O420 O 0.64768 0.43023 0.58832 0.0
O421 O 0.59814 0.40376 0.58709 0.0
H422 H 0.71874 0.46046 0.50081 0.0
H423 H 0.59051 0.45628 0.66697 0.0
O424 O 0.56418 0.45402 0.6131 0.0
H425 H 0.55634 0.35078 0.68684 0.0
H426 H 0.47173 0.36397 0.614 0.0
H427 H 0.55787 0.38749 0.5436 0.0
H428 H 0.56173 0.36992 0.62982 0.0
H429 H 0.52151 0.40376 0.62982 0.0
O430 O 0.67787 0.47809 0.63222 0.0
H431 H 0.67257 0.44743 0.53053 0.0
H432 H 0.71954 0.51881 0.59739 0.0
H433 H 0.50852 0.34739 0.52696 0.0
H434 H 0.58508 0.43799 0.7244 0.0
H435 H 0.46502 0.3354 0.56229 0.0
H436 H 0.56803 0.38491 0.73462 0.0
O437 O 0.58707 0.44473 0.55418 0.0
H438 H 0.66865 0.56484 0.63991 0.0
H439 H 0.67443 0.51803 0.53609 0.0
H440 H 0.68489 0.56966 0.53505 0.0
H441 H 0.68208 0.59339 0.58725 0.0
H442 H 0.65809 0.51318 0.63974 0.0
H443 H 0.7663 0.5325 0.56859 0.0
H444 H 0.76605 0.5033 0.51983 0.0
O445 O 0.63577 0.46441 0.54438 0.0
C446 C 0.62345 0.40589 0.58545 0.0
C447 C 0.71911 0.47347 0.52189 0.0
C448 C 0.74581 0.51388 0.55997 0.0
N449 N 0.69331 0.48263 0.56529 0.0
C450 C 0.69301 0.46628 0.5387 0.0
C451 C 0.71928 0.50602 0.57618 0.0
C452 C 0.74565 0.49748 0.53261 0.0
C453 C 0.58272 0.43308 0.67121 0.0
N454 N 0.57632 0.41418 0.64505 0.0
C455 C 0.57984 0.42288 0.70379 0.0
C456 C 0.57032 0.39311 0.7095 0.0
C457 C 0.56378 0.37396 0.6827 0.0
C458 C 0.56695 0.38494 0.65046 0.0
C459 C 0.49052 0.36895 0.59843 0.0
C460 C 0.53907 0.38229 0.5592 0.0
C461 C 0.51875 0.39148 0.60723 0.0
N462 N 0.54259 0.39778 0.58778 0.0
C463 C 0.51117 0.35961 0.54961 0.0
C464 C 0.48677 0.35292 0.56942 0.0
C465 C 0.6092 0.45495 0.53466 0.0
C466 C 0.67005 0.55477 0.61702 0.0
C467 C 0.67304 0.52819 0.55887 0.0
C468 C 0.67908 0.55745 0.55815 0.0
C469 C 0.67753 0.57076 0.58746 0.0
N470 N 0.66577 0.51269 0.58797 0.0
C471 C 0.66423 0.52559 0.61681 0.0
Co472 Co 0.18326 0.66278 0.75532 0.0
Co473 Co 0.1469 0.58858 0.77529 0.0
O474 O 0.15461 0.62891 0.78152 0.0
C475 C 0.20052 0.6789 0.82481 0.0
O476 O 0.19606 0.65196 0.82781 0.0
C477 C 0.088 0.58354 0.77557 0.0
O478 O 0.09874 0.60806 0.75826 0.0
O479 O 0.14011 0.59055 0.72728 0.0
O480 O 0.17148 0.63807 0.71351 0.0
H481 H 0.15666 0.50846 0.718 0.0
H482 H 0.14148 0.67015 0.79842 0.0
O483 O 0.19636 0.68775 0.79687 0.0
H484 H 0.1207 0.6894 0.68468 0.0
H485 H 0.2382 0.77036 0.72303 0.0
H486 H 0.2263 0.67192 0.70222 0.0
H487 H 0.15982 0.67717 0.69515 0.0
H488 H 0.20176 0.72679 0.7547 0.0
O489 O 0.10422 0.57288 0.78386 0.0
H490 H 0.16682 0.55945 0.72693 0.0
H491 H 0.10889 0.53114 0.80984 0.0
H492 H 0.26281 0.71481 0.66977 0.0
H493 H 0.10239 0.68262 0.78915 0.0
H494 H 0.26894 0.76447 0.68011 0.0
H495 H 0.09173 0.69225 0.73191 0.0
O496 O 0.21438 0.65256 0.7632 0.0
H497 H 0.13361 0.60139 0.89647 0.0
H498 H 0.18308 0.57021 0.81518 0.0
H499 H 0.19245 0.56868 0.87488 0.0
H500 H 0.16758 0.58431 0.91599 0.0
H501 H 0.12518 0.60295 0.83652 0.0
H502 H 0.09792 0.47981 0.80165 0.0
H503 H 0.12198 0.46822 0.75553 0.0
O504 O 0.18945 0.60302 0.76663 0.0
C505 C 0.15376 0.61095 0.70591 0.0
C506 C 0.14612 0.51325 0.73826 0.0
C507 C 0.11313 0.49716 0.78518 0.0
N508 N 0.13868 0.54831 0.76905 0.0
C509 C 0.15185 0.54209 0.74349 0.0
C510 C 0.11939 0.52626 0.78966 0.0
C511 C 0.12664 0.49068 0.7593 0.0
C512 C 0.13718 0.67462 0.7735 0.0
N513 N 0.15295 0.67304 0.74737 0.0
C514 C 0.11492 0.68153 0.76838 0.0
C515 C 0.10892 0.68688 0.73625 0.0
C516 C 0.12514 0.68525 0.70973 0.0
C517 C 0.14719 0.67822 0.71579 0.0
C518 C 0.23565 0.74882 0.7182 0.0
C519 C 0.22864 0.6934 0.70662 0.0
C520 C 0.21508 0.72408 0.73607 0.0
N521 N 0.21165 0.69679 0.72998 0.0
C522 C 0.24944 0.71763 0.68828 0.0
C523 C 0.25289 0.7455 0.69412 0.0
C524 C 0.21339 0.62775 0.76456 0.0
C525 C 0.1445 0.59444 0.8788 0.0
C526 C 0.17228 0.57718 0.83289 0.0
C527 C 0.1776 0.57617 0.86668 0.0
C528 C 0.16361 0.58491 0.88974 0.0
N529 N 0.15353 0.58659 0.82235 0.0
C530 C 0.13968 0.59512 0.84482 0.0
Co531 Co 0.51741 0.18468 0.92032 0.0
Co532 Co 0.55593 0.14898 0.93922 0.0
O533 O 0.52299 0.15602 0.94589 0.0
C534 C 0.51819 0.20099 0.99009 0.0
O535 O 0.54068 0.19665 0.99297 0.0
C536 C 0.50202 0.08978 0.94001 0.0
O537 O 0.48816 0.1003 0.92259 0.0
O538 O 0.54725 0.14268 0.8911 0.0
O539 O 0.53061 0.17373 0.87822 0.0
H540 H 0.64635 0.16085 0.88149 0.0
H541 H 0.46833 0.14188 0.96293 0.0
O542 O 0.50525 0.19702 0.96214 0.0
H543 H 0.42858 0.12194 0.84908 0.0
H544 H 0.46394 0.23884 0.8894 0.0
H545 H 0.55128 0.2288 0.86801 0.0
H546 H 0.47976 0.16151 0.85993 0.0
H547 H 0.47139 0.20229 0.92028 0.0
O548 O 0.52913 0.10605 0.9474 0.0
H549 H 0.60517 0.17021 0.89095 0.0
H550 H 0.57572 0.11097 0.97278 0.0
H551 H 0.54461 0.26546 0.83635 0.0
H552 H 0.41692 0.10231 0.95327 0.0
H553 H 0.50067 0.27064 0.84699 0.0
H554 H 0.39677 0.09207 0.89597 0.0
O555 O 0.55857 0.21609 0.92866 0.0
H556 H 0.52967 0.13406 0.06039 0.0
H557 H 0.61041 0.18506 0.97939 0.0
H558 H 0.62122 0.19379 0.03916 0.0
H559 H 0.58069 0.16815 0.08013 0.0
H560 H 0.51974 0.12629 1.00039 0.0
H561 H 0.61645 0.10079 0.96406 0.0
H562 H 0.65218 0.12592 0.91821 0.0
O563 O 0.58386 0.19191 0.93131 0.0
C564 C 0.54027 0.1564 0.87011 0.0
C565 C 0.63098 0.14984 0.90162 0.0
C566 C 0.61417 0.11611 0.94793 0.0
N567 N 0.58822 0.14134 0.93255 0.0
C568 C 0.60767 0.15511 0.90715 0.0
C569 C 0.59112 0.12191 0.95271 0.0
C570 C 0.63422 0.13022 0.92221 0.0
C571 C 0.4596 0.13776 0.93799 0.0
N572 N 0.47697 0.15402 0.91205 0.0
C573 C 0.43053 0.11524 0.93265 0.0
C574 C 0.41926 0.10947 0.90048 0.0
C575 C 0.43711 0.12619 0.87415 0.0
C576 C 0.4661 0.14849 0.88043 0.0
C577 C 0.48312 0.2367 0.88444 0.0
C578 C 0.53197 0.23073 0.87252 0.0
C579 C 0.48745 0.21607 0.90186 0.0
N580 N 0.51153 0.21315 0.89559 0.0
C581 C 0.52837 0.25161 0.85464 0.0
C582 C 0.50373 0.25454 0.86065 0.0
C583 C 0.58262 0.21565 0.93011 0.0
C584 C 0.54753 0.14529 0.04278 0.0
C585 C 0.59262 0.17394 0.99703 0.0
C586 C 0.5989 0.17889 0.03086 0.0
C587 C 0.57615 0.16447 0.05384 0.0
N588 N 0.56447 0.15513 0.98636 0.0
C589 C 0.54208 0.14085 0.00876 0.0
Co590 Co 0.40934 0.56783 0.10922 0.0
Co591 Co 0.33555 0.52344 0.08963 0.0
O592 O 0.36994 0.53465 0.11754 0.0
C593 C 0.41604 0.51544 0.1159 0.0
O594 O 0.39292 0.50114 0.09659 0.0
C595 C 0.32041 0.53742 0.15438 0.0
O596 O 0.34656 0.56121 0.15227 0.0
O597 O 0.34436 0.56506 0.08626 0.0
O598 O 0.39301 0.59337 0.09605 0.0
H599 H 0.28027 0.53089 0.99165 0.0
H600 H 0.39566 0.53663 0.17403 0.0
O601 O 0.42626 0.5427 0.12236 0.0
H602 H 0.42635 0.64025 0.20077 0.0
H603 H 0.51755 0.63306 0.1341 0.0
H604 H 0.4367 0.61395 0.05708 0.0
H605 H 0.42576 0.62492 0.14278 0.0
H606 H 0.46703 0.59178 0.14419 0.0
O607 O 0.31146 0.51825 0.13109 0.0
H608 H 0.32417 0.5452 0.02645 0.0
H609 H 0.27225 0.47698 0.09516 0.0
H610 H 0.48682 0.6556 0.04619 0.0
H611 H 0.3962 0.55107 0.23237 0.0
H612 H 0.52767 0.66537 0.08486 0.0
H613 H 0.41152 0.60319 0.24604 0.0
O614 O 0.40778 0.55589 0.06227 0.0
H615 H 0.32146 0.43266 0.14903 0.0
H616 H 0.32136 0.47577 0.04021 0.0
H617 H 0.31155 0.42442 0.0432 0.0
H618 H 0.31155 0.40256 0.09792 0.0
H619 H 0.33137 0.48398 0.14486 0.0
H620 H 0.2277 0.46205 0.06125 0.0
H621 H 0.2316 0.48903 0.00902 0.0
O622 O 0.35967 0.52969 0.04817 0.0
C623 C 0.36797 0.59012 0.08826 0.0
C624 C 0.27831 0.51889 0.0143 0.0
C625 C 0.2488 0.48028 0.05338 0.0
N626 N 0.30079 0.51175 0.06262 0.0
C627 C 0.30311 0.52684 0.03404 0.0
C628 C 0.27407 0.48886 0.07251 0.0
C629 C 0.251 0.49543 0.02407 0.0
C630 C 0.40269 0.55942 0.1798 0.0
N631 N 0.41087 0.57994 0.15503 0.0
C632 C 0.40281 0.56744 0.21287 0.0
C633 C 0.41136 0.59668 0.22052 0.0
C634 C 0.41967 0.61748 0.19513 0.0
C635 C 0.41926 0.60866 0.16234 0.0
C636 C 0.49993 0.62905 0.11709 0.0
C637 C 0.45432 0.61816 0.07412 0.0
C638 C 0.4713 0.60566 0.12262 0.0
N639 N 0.44891 0.60056 0.10133 0.0
C640 C 0.48267 0.64173 0.06778 0.0
C641 C 0.50559 0.64718 0.08947 0.0
C642 C 0.38723 0.54271 0.04093 0.0
C643 C 0.3213 0.44191 0.12505 0.0
C644 C 0.32143 0.4664 0.06409 0.0
C645 C 0.31581 0.43731 0.06564 0.0
C646 C 0.31579 0.42505 0.09636 0.0
N647 N 0.32678 0.48277 0.09235 0.0
C648 C 0.32676 0.4709 0.12256 0.0
Co649 Co 0.80853 0.33541 0.25514 0.0
Co650 Co 0.84293 0.40971 0.2742 0.0
O651 O 0.83609 0.3698 0.2813 0.0
C652 C 0.79048 0.3197 0.32446 0.0
O653 O 0.79401 0.34633 0.32678 0.0
C654 C 0.90212 0.41588 0.27539 0.0
O655 O 0.89193 0.39201 0.25699 0.0
O656 O 0.85059 0.40757 0.22647 0.0
O657 O 0.82045 0.35971 0.21307 0.0
H658 H 0.83197 0.48816 0.21461 0.0
H659 H 0.85058 0.33006 0.29982 0.0
O660 O 0.79534 0.31083 0.29693 0.0
H661 H 0.87395 0.31049 0.18743 0.0
H662 H 0.7565 0.22758 0.22412 0.0
H663 H 0.76596 0.32467 0.20095 0.0
H664 H 0.83362 0.32126 0.19623 0.0
H665 H 0.79168 0.27184 0.25572 0.0
O666 O 0.88557 0.42613 0.28376 0.0
H667 H 0.82277 0.43762 0.22454 0.0
H668 H 0.87956 0.4676 0.30834 0.0
H669 H 0.73068 0.28108 0.16856 0.0
H670 H 0.89092 0.31912 0.29221 0.0
H671 H 0.7258 0.23208 0.18008 0.0
H672 H 0.90288 0.30933 0.23566 0.0
O673 O 0.7766 0.34471 0.26165 0.0
H674 H 0.85474 0.3983 0.39613 0.0
H675 H 0.80525 0.42726 0.31241 0.0
H676 H 0.79476 0.42897 0.37175 0.0
H677 H 0.81963 0.41447 0.41408 0.0
H678 H 0.86429 0.39653 0.33652 0.0
H679 H 0.88956 0.51851 0.29917 0.0
H680 H 0.86558 0.52903 0.25209 0.0
O681 O 0.80033 0.39429 0.26457 0.0
C682 C 0.83773 0.38687 0.20527 0.0
C683 C 0.84247 0.48384 0.23527 0.0
C684 C 0.87482 0.50088 0.28271 0.0
N685 N 0.8504 0.44962 0.26715 0.0
C686 C 0.83728 0.45526 0.24107 0.0
C687 C 0.86911 0.47202 0.28774 0.0
C688 C 0.86135 0.50676 0.25629 0.0
C689 C 0.85546 0.3255 0.2752 0.0
N690 N 0.83971 0.32617 0.24852 0.0
C691 C 0.87841 0.31946 0.27102 0.0
C692 C 0.88515 0.31403 0.23927 0.0
C693 C 0.86894 0.31471 0.21219 0.0
C694 C 0.84619 0.3209 0.21731 0.0
C695 C 0.75852 0.24882 0.21877 0.0
C696 C 0.76416 0.30349 0.20587 0.0
C697 C 0.77837 0.27394 0.2366 0.0
N698 N 0.78114 0.30087 0.22985 0.0
C699 C 0.74406 0.27886 0.18756 0.0
C700 C 0.7413 0.25137 0.19407 0.0
C701 C 0.77682 0.36918 0.26236 0.0
C702 C 0.84384 0.40477 0.37792 0.0
C703 C 0.81606 0.42078 0.33066 0.0
C704 C 0.8101 0.42189 0.36423 0.0
C705 C 0.82409 0.41378 0.38797 0.0
N706 N 0.83543 0.41187 0.32098 0.0
C707 C 0.84929 0.40397 0.34413 0.0
H708 H 0.27051 0.59375 0.42911 0.0
H709 H 0.35184 0.77 0.43994 0.0
H710 H 0.22505 0.64354 0.43534 0.0
H711 H 0.39794 0.72098 0.43121 0.0
H712 H 0.3052 0.72352 0.44136 0.0
H713 H 0.31752 0.6399 0.43338 0.0
C714 C 0.27037 0.61433 0.43153 0.0
C715 C 0.24378 0.61478 0.43154 0.0
C716 C 0.32552 0.72292 0.43923 0.0
C717 C 0.29747 0.6676 0.43635 0.0
C718 C 0.35221 0.74949 0.43839 0.0
C719 C 0.37889 0.74942 0.43537 0.0
C720 C 0.32547 0.69609 0.43696 0.0
C721 C 0.37792 0.72211 0.43348 0.0
C722 C 0.29723 0.64067 0.43392 0.0
C723 C 0.24497 0.64211 0.43492 0.0
N724 N 0.3516 0.69651 0.43422 0.0
N725 N 0.2714 0.66743 0.43703 0.0
H726 H 0.67631 0.27345 0.58347 0.0
H727 H 0.57699 0.34981 0.57689 0.0
H728 H 0.58087 0.22547 0.58019 0.0
H729 H 0.6721 0.39903 0.58598 0.0
H730 H 0.57858 0.30416 0.57493 0.0
H731 H 0.67566 0.31985 0.58211 0.0
C732 C 0.65522 0.27263 0.58248 0.0
C733 C 0.62859 0.24548 0.58188 0.0
C734 C 0.59913 0.32494 0.57727 0.0
C735 C 0.62777 0.29845 0.58021 0.0
C736 C 0.59826 0.35108 0.57836 0.0
C737 C 0.62445 0.37834 0.58188 0.0
C738 C 0.62637 0.32597 0.57973 0.0
C739 C 0.65134 0.37852 0.5834 0.0
C740 C 0.65489 0.29913 0.58166 0.0
C741 C 0.60196 0.24581 0.58061 0.0
N742 N 0.65159 0.35267 0.58246 0.0
N743 N 0.60226 0.27188 0.5798 0.0
H744 H 0.22046 0.5794 0.7632 0.0
H745 H 0.39662 0.67206 0.75958 0.0
H746 H 0.26998 0.67507 0.76263 0.0
H747 H 0.3444 0.57793 0.74154 0.0
H748 H 0.35098 0.67395 0.76445 0.0
H749 H 0.26644 0.57882 0.75949 0.0
C750 C 0.241 0.60033 0.76237 0.0
C751 C 0.24132 0.62735 0.76317 0.0
C752 C 0.34964 0.65295 0.75935 0.0
C753 C 0.29419 0.62677 0.75883 0.0
C754 C 0.37564 0.65183 0.75659 0.0
C755 C 0.37437 0.6248 0.75013 0.0
C756 C 0.3223 0.62683 0.75585 0.0
C757 C 0.34656 0.59929 0.74651 0.0
C758 C 0.26729 0.59997 0.76016 0.0
C759 C 0.26869 0.65373 0.76203 0.0
N760 N 0.32168 0.60096 0.7495 0.0
N761 N 0.2941 0.65278 0.75992 0.0
H762 H 0.76633 0.35064 0.93342 0.0
H763 H 0.59032 0.27157 0.92919 0.0
H764 H 0.71854 0.39818 0.92825 0.0
H765 H 0.63879 0.22466 0.93314 0.0
H766 H 0.63697 0.31828 0.93105 0.0
H767 H 0.71956 0.30434 0.93625 0.0
C768 C 0.74602 0.3514 0.93302 0.0
C769 C 0.74638 0.37837 0.9303 0.0
C770 C 0.63735 0.29775 0.93158 0.0
C771 C 0.69271 0.32533 0.93344 0.0
C772 C 0.61073 0.27105 0.93046 0.0
C773 C 0.6106 0.24411 0.93098 0.0
C774 C 0.66401 0.29751 0.93319 0.0
C775 C 0.63775 0.24485 0.93269 0.0
C776 C 0.71929 0.3249 0.93462 0.0
C777 C 0.71934 0.37792 0.93016 0.0
N778 N 0.66335 0.27113 0.93369 0.0
N779 N 0.69356 0.35177 0.93151 0.0
H780 H 0.4108 0.77157 0.08125 0.0
H781 H 0.31836 0.59488 0.08076 0.0
H782 H 0.31535 0.7213 0.08145 0.0
H783 H 0.41363 0.64703 0.08501 0.0
H784 H 0.31642 0.64061 0.0771 0.0
H785 H 0.41179 0.72565 0.07926 0.0
C786 C 0.39 0.75088 0.08083 0.0
C787 C 0.36293 0.75033 0.08156 0.0
C788 C 0.33771 0.64195 0.07868 0.0
C789 C 0.36396 0.69751 0.07933 0.0
C790 C 0.33885 0.61588 0.08068 0.0
C791 C 0.36619 0.61713 0.08347 0.0
C792 C 0.36408 0.66933 0.07942 0.0
C793 C 0.39203 0.64494 0.08319 0.0
C794 C 0.3906 0.72461 0.07967 0.0
C795 C 0.33673 0.72278 0.08098 0.0
N796 N 0.3903 0.6699 0.08136 0.0
N797 N 0.3379 0.69741 0.07997 0.0
H798 H 0.76782 0.41641 0.26085 0.0
H799 H 0.59203 0.3175 0.25242 0.0
H800 H 0.72109 0.32075 0.25889 0.0
H801 H 0.64051 0.41295 0.24486 0.0
H802 H 0.63881 0.31796 0.25626 0.0
H803 H 0.72092 0.41521 0.25671 0.0
C804 C 0.74771 0.39511 0.25961 0.0
C805 C 0.74843 0.36862 0.26026 0.0
C806 C 0.63914 0.33876 0.25368 0.0
C807 C 0.69456 0.36715 0.25544 0.0
C808 C 0.61246 0.33854 0.25148 0.0
C809 C 0.61231 0.36523 0.24829 0.0
C810 C 0.6658 0.36585 0.2528 0.0
C811 C 0.63947 0.3918 0.24726 0.0
C812 C 0.7209 0.39446 0.25718 0.0
C813 C 0.7216 0.34173 0.2585 0.0
N814 N 0.6651 0.39141 0.24957 0.0
N815 N 0.6957 0.34168 0.25619 0.0
H816 H 0.19656 0.63397 0.65814 0.0
H817 H 0.10297 0.53179 0.50955 0.0
H818 H 0.10624 0.56555 0.67452 0.0
H819 H 0.19416 0.55651 0.52364 0.0
H820 H 0.10224 0.54945 0.56589 0.0
H821 H 0.19485 0.61299 0.60318 0.0
C822 C 0.17618 0.61495 0.64991 0.0
C823 C 0.15145 0.60157 0.67086 0.0
C824 C 0.12222 0.55053 0.55674 0.0
C825 C 0.14945 0.57747 0.60822 0.0
C826 C 0.12261 0.54031 0.52479 0.0
C827 C 0.14855 0.54229 0.51212 0.0
C828 C 0.14823 0.56377 0.57564 0.0
C829 C 0.17356 0.55404 0.53265 0.0
C830 C 0.17537 0.60277 0.61878 0.0
C831 C 0.12577 0.57657 0.6591 0.0
N832 N 0.17295 0.56482 0.56318 0.0
N833 N 0.12535 0.5654 0.62845 0.0
H834 H 0.56846 0.1083 0.6721 0.0
H835 H 0.55855 0.19954 0.82279 0.0
H836 H 0.63401 0.20004 0.68696 0.0
H837 H 0.53913 0.10973 0.83768 0.0
H838 H 0.57715 0.19879 0.76715 0.0
H839 H 0.54945 0.10696 0.72826 0.0
C840 C 0.57908 0.12802 0.68736 0.0
C841 C 0.60305 0.15424 0.67504 0.0
C842 C 0.56857 0.1792 0.78257 0.0
C843 C 0.58069 0.15313 0.73843 0.0
C844 C 0.55762 0.17947 0.81412 0.0
C845 C 0.54718 0.15462 0.83485 0.0
C846 C 0.56842 0.15369 0.77137 0.0
C847 C 0.54697 0.12935 0.82247 0.0
C848 C 0.56818 0.12724 0.71925 0.0
C849 C 0.6158 0.17926 0.69567 0.0
N850 N 0.55728 0.12944 0.79143 0.0
N851 N 0.60418 0.17823 0.72618 0.0
H852 H 0.35261 0.51651 0.98566 0.0
H853 H 0.47108 0.63083 0.85961 0.0
H854 H 0.44255 0.57755 0.01493 0.0
H855 H 0.40035 0.54586 0.82708 0.0
H856 H 0.4589 0.61399 0.91726 0.0
H857 H 0.36752 0.52862 0.92741 0.0
C858 C 0.3755 0.53212 0.97994 0.0
C859 C 0.39625 0.54607 1.00544 0.0
C860 C 0.44625 0.599 0.8974 0.0
C861 C 0.41323 0.56053 0.93891 0.0
C862 C 0.45316 0.60862 0.86451 0.0
C863 C 0.43678 0.58978 0.83834 0.0
C864 C 0.42239 0.5706 0.90425 0.0
C865 C 0.4137 0.56119 0.84632 0.0
C866 C 0.38398 0.53906 0.94669 0.0
C867 C 0.42564 0.56623 0.99634 0.0
N868 N 0.40698 0.55262 0.87851 0.0
N869 N 0.43312 0.57315 0.96395 0.0
H870 H 0.79546 0.36256 0.15724 0.0
H871 H 0.88718 0.46273 0.00702 0.0
H872 H 0.88511 0.43245 0.1738 0.0
H873 H 0.79669 0.43973 0.02334 0.0
H874 H 0.88868 0.44577 0.06356 0.0
H875 H 0.79709 0.38281 0.1019 0.0
C876 C 0.81569 0.38175 0.14896 0.0
C877 C 0.84023 0.39579 0.17007 0.0
C878 C 0.8687 0.44491 0.0548 0.0
C879 C 0.84214 0.41901 0.107 0.0
C880 C 0.86786 0.45471 0.02274 0.0
C881 C 0.84187 0.45298 0.01065 0.0
C882 C 0.84306 0.43235 0.07433 0.0
C883 C 0.8173 0.44194 0.03183 0.0
C884 C 0.81645 0.39349 0.11762 0.0
C885 C 0.86573 0.42096 0.15824 0.0
N886 N 0.81832 0.43154 0.06243 0.0
N887 N 0.86612 0.43171 0.12736 0.0
H888 H 0.35375 0.79204 0.18959 0.0
H889 H 0.45442 0.88377 0.34079 0.0
H890 H 0.42191 0.88313 0.17659 0.0
H891 H 0.4288 0.79221 0.32587 0.0
H892 H 0.43633 0.8849 0.28488 0.0
H893 H 0.3734 0.7925 0.24498 0.0
C894 C 0.37245 0.8123 0.19863 0.0
C895 C 0.38613 0.83763 0.17849 0.0
C896 C 0.43497 0.86469 0.2938 0.0
C897 C 0.40867 0.83822 0.2417 0.0
C898 C 0.44535 0.86403 0.32556 0.0
C899 C 0.44338 0.83793 0.33783 0.0
C900 C 0.42165 0.8388 0.2746 0.0
C901 C 0.43114 0.81289 0.31721 0.0
C902 C 0.38385 0.81241 0.23003 0.0
C903 C 0.41066 0.86314 0.19133 0.0
N904 N 0.42032 0.81381 0.28678 0.0
N905 N 0.42106 0.86286 0.2222 0.0
H906 H 0.53688 0.42827 0.33448 0.0
H907 H 0.63701 0.4407 0.4871 0.0
H908 H 0.56304 0.36322 0.35229 0.0
H909 H 0.56503 0.45755 0.5011 0.0
H910 H 0.61913 0.42307 0.43085 0.0
H911 H 0.55448 0.44856 0.39029 0.0
C912 C 0.54597 0.41805 0.35032 0.0
C913 C 0.54821 0.39382 0.33899 0.0
C914 C 0.60756 0.43105 0.44616 0.0
C915 C 0.56943 0.41765 0.40184 0.0
C916 C 0.61797 0.44151 0.47804 0.0
C917 C 0.60257 0.45074 0.49875 0.0
C918 C 0.58198 0.43045 0.43464 0.0
C919 C 0.57759 0.4507 0.48587 0.0
C920 C 0.55607 0.42968 0.38196 0.0
C921 C 0.56048 0.38159 0.36028 0.0
N922 N 0.56808 0.44076 0.45454 0.0
N923 N 0.57105 0.39392 0.39052 0.0
H924 H 0.93641 0.39072 0.28755 0.0
H925 H 0.06242 0.53734 0.37469 0.0
H926 H 0.93497 0.47234 0.29673 0.0
H927 H 0.05625 0.45231 0.38745 0.0
H928 H 0.0179 0.51407 0.34126 0.0
H929 H 0.98323 0.41345 0.31848 0.0
C930 C 0.94619 0.41351 0.29561 0.0
C931 C 0.93189 0.42972 0.28975 0.0
C932 C 0.02611 0.50038 0.35146 0.0
C933 C 0.98479 0.45551 0.32508 0.0
C934 C 0.05154 0.51367 0.37062 0.0
C935 C 0.06296 0.49669 0.38395 0.0
C936 C 0.01195 0.46985 0.34531 0.0
C937 C 0.04795 0.46611 0.37784 0.0
C938 C 0.97266 0.42633 0.31348 0.0
C939 C 0.94521 0.45902 0.30094 0.0
N940 N 0.02317 0.4536 0.35875 0.0
N941 N 0.97084 0.47093 0.31809 0.0
H942 H 0.46887 0.93916 0.45327 0.0
H943 H 0.60943 0.05768 0.55605 0.0
H944 H 0.54871 0.93454 0.46029 0.0
H945 H 0.52917 0.06054 0.5415 0.0
H946 H 0.58865 0.01263 0.52185 0.0
H947 H 0.49241 0.98506 0.48439 0.0
C948 C 0.49161 0.94814 0.46104 0.0
C949 C 0.5069 0.93312 0.45435 0.0
C950 C 0.57566 0.02316 0.52632 0.0
C951 C 0.53395 0.98547 0.49078 0.0
C952 C 0.58734 0.04861 0.54608 0.0
C953 C 0.57097 0.06281 0.55155 0.0
C954 C 0.54748 0.01202 0.51223 0.0
C955 C 0.54264 0.05043 0.53779 0.0
C956 C 0.50504 0.9743 0.479 0.0
C957 C 0.53631 0.94568 0.46486 0.0
N958 N 0.53189 0.02586 0.51877 0.0
N959 N 0.54889 0.97111 0.48299 0.0
H960 H 0.53592 0.59738 0.72593 0.0
H961 H 0.51839 0.45513 0.63114 0.0
H962 H 0.45286 0.51722 0.70911 0.0
H963 H 0.59837 0.54017 0.62593 0.0
H964 H 0.49556 0.4771 0.66417 0.0
H965 H 0.56109 0.57593 0.69478 0.0
C966 C 0.5231 0.57513 0.71617 0.0
C967 C 0.49231 0.559 0.71998 0.0
C968 C 0.51805 0.49109 0.6557 0.0
C969 C 0.52068 0.53468 0.68431 0.0
C970 C 0.53109 0.47855 0.63677 0.0
C971 C 0.56028 0.4959 0.62574 0.0
C972 C 0.53432 0.52121 0.66397 0.0
C973 C 0.5757 0.52612 0.63375 0.0
C974 C 0.53739 0.56307 0.69815 0.0
C975 C 0.47663 0.53045 0.70657 0.0
N976 N 0.56255 0.53787 0.65263 0.0
N977 N 0.49098 0.51925 0.68931 0.0
H978 H 0.05349 0.52557 0.78997 0.0
H979 H 0.93258 0.54542 0.88902 0.0
H980 H 0.05441 0.60863 0.79194 0.0
H981 H 0.92638 0.46135 0.86823 0.0
H982 H 0.97779 0.57001 0.85533 0.0
H983 H 0.00664 0.50226 0.81923 0.0
C984 C 0.04355 0.53882 0.7963 0.0
C985 C 0.05776 0.56902 0.78867 0.0
C986 C 0.96642 0.54619 0.85821 0.0
C987 C 0.00425 0.54261 0.82278 0.0
C988 C 0.94084 0.5322 0.87763 0.0
C989 C 0.92582 0.50133 0.88151 0.0
C990 C 0.97695 0.5291 0.8429 0.0
C991 C 0.93722 0.48519 0.86594 0.0
C992 C 0.01681 0.52552 0.81307 0.0
C993 C 0.04395 0.58519 0.79728 0.0
N994 N 0.96207 0.49927 0.84741 0.0
N995 N 0.01799 0.57182 0.81432 0.0
H996 H 0.52483 0.05624 0.96088 0.0
H997 H 0.37871 0.93613 0.05485 0.0
H998 H 0.44303 0.0574 0.95607 0.0
H999 H 0.46199 0.93779 0.05414 0.0
H1000 H 0.40105 0.98115 0.02043 0.0
H1001 H 0.5008 0.01205 0.99487 0.0
C1002 C 0.50161 0.0469 0.96672 0.0
C1003 C 0.48588 0.06047 0.95574 0.0
C1004 C 0.41439 0.97169 0.02808 0.0
C1005 C 0.45817 0.00994 0.99533 0.0
C1006 C 0.40178 0.94628 0.04798 0.0
C1007 C 0.41856 0.93327 0.05719 0.0
C1008 C 0.44388 0.98397 0.01764 0.0
C1009 C 0.44821 0.94698 0.04738 0.0
C1010 C 0.48789 0.02171 0.98632 0.0
C1011 C 0.45584 0.04741 0.96391 0.0
N1012 N 0.45982 0.97144 0.02807 0.0
N1013 N 0.44292 0.02288 0.98355 0.0
H1014 H 0.46895 0.53979 0.14729 0.0
H1015 H 0.44602 0.38779 0.22143 0.0
H1016 H 0.39196 0.45551 0.12472 0.0
H1017 H 0.52958 0.46943 0.21748 0.0
H1018 H 0.42278 0.41264 0.19294 0.0
H1019 H 0.48879 0.51443 0.17944 0.0
C1020 C 0.45627 0.51587 0.14895 0.0
C1021 C 0.42886 0.49969 0.13315 0.0
C1022 C 0.44615 0.42504 0.19858 0.0
C1023 C 0.45139 0.47047 0.17028 0.0
C1024 C 0.4593 0.41101 0.21505 0.0
C1025 C 0.4897 0.42664 0.2216 0.0
C1026 C 0.4636 0.45485 0.18917 0.0
C1027 C 0.50609 0.45655 0.21264 0.0
C1028 C 0.46761 0.50139 0.16737 0.0
C1029 C 0.41336 0.46875 0.13625 0.0
N1030 N 0.49284 0.46964 0.19685 0.0
N1031 N 0.42483 0.45505 0.15462 0.0
H1032 H 0.21289 0.48734 0.33484 0.0
H1033 H 0.32471 0.58184 0.1927 0.0
H1034 H 0.23087 0.57442 0.30565 0.0
H1035 H 0.27337 0.48694 0.18161 0.0
H1036 H 0.29505 0.57858 0.24054 0.0
H1037 H 0.23853 0.4854 0.28422 0.0
C1038 C 0.22204 0.50591 0.31784 0.0
C1039 C 0.21994 0.53119 0.32472 0.0
C1040 C 0.29012 0.55841 0.22765 0.0
C1041 C 0.24932 0.52918 0.26747 0.0
C1042 C 0.30715 0.56022 0.20036 0.0
C1043 C 0.30146 0.53461 0.18303 0.0
C1044 C 0.26738 0.53074 0.23834 0.0
C1045 C 0.2783 0.50722 0.19418 0.0
C1046 C 0.23651 0.50471 0.289 0.0
C1047 C 0.23206 0.55453 0.30172 0.0
N1048 N 0.26215 0.50593 0.22144 0.0
N1049 N 0.24642 0.55306 0.27447 0.0
H1050 H 0.80064 0.33514 0.38953 0.0
H1051 H 0.66322 0.19292 0.45524 0.0
H1052 H 0.75407 0.25948 0.32536 0.0
H1053 H 0.73806 0.2429 0.51936 0.0
H1054 H 0.69448 0.21785 0.40708 0.0
H1055 H 0.77694 0.30326 0.43766 0.0
C1056 C 0.78567 0.31172 0.38566 0.0
C1057 C 0.77916 0.29987 0.3535 0.0
C1058 C 0.70418 0.22298 0.43164 0.0
C1059 C 0.75159 0.26353 0.40827 0.0
C1060 C 0.68637 0.20888 0.45909 0.0
C1061 C 0.69814 0.21598 0.49123 0.0
C1062 C 0.73372 0.24498 0.43645 0.0
C1063 C 0.72823 0.23677 0.49493 0.0
C1064 C 0.77229 0.29356 0.41309 0.0
C1065 C 0.75969 0.2694 0.34979 0.0
N1066 N 0.74491 0.25104 0.46786 0.0
N1067 N 0.74608 0.25233 0.37685 0.0
H1068 H 0.48823 0.7327 0.68998 0.0
H1069 H 0.49008 0.75003 0.49263 0.0
H1070 H 0.45831 0.65859 0.62324 0.0
H1071 H 0.46764 0.80082 0.55856 0.0
H1072 H 0.4944 0.72362 0.54094 0.0
H1073 H 0.49642 0.76514 0.64194 0.0
C1074 C 0.48393 0.72341 0.66521 0.0
C1075 C 0.47235 0.69296 0.66048 0.0
C1076 C 0.48901 0.74091 0.54474 0.0
C1077 C 0.48211 0.72976 0.60581 0.0
C1078 C 0.48672 0.75606 0.5173 0.0
C1079 C 0.47829 0.77743 0.5217 0.0
C1080 C 0.48352 0.74775 0.57672 0.0
C1081 C 0.47395 0.78428 0.55415 0.0
C1082 C 0.48847 0.74183 0.63794 0.0
C1083 C 0.46699 0.68193 0.62792 0.0
N1084 N 0.47659 0.76947 0.58045 0.0
N1085 N 0.47193 0.70032 0.60181 0.0
H1086 H 0.74766 0.41529 0.81202 0.0
H1087 H 0.71874 0.50836 0.67831 0.0
H1088 H 0.77859 0.5075 0.83206 0.0
H1089 H 0.65568 0.41752 0.70259 0.0
H1090 H 0.74756 0.51074 0.72795 0.0
H1091 H 0.72122 0.41789 0.76385 0.0
C1092 C 0.74904 0.4362 0.80623 0.0
C1093 C 0.76525 0.4612 0.82629 0.0
C1094 C 0.72728 0.49047 0.72229 0.0
C1095 C 0.73499 0.46427 0.77068 0.0
C1096 C 0.71093 0.48904 0.69403 0.0
C1097 C 0.68484 0.46266 0.68619 0.0
C1098 C 0.71769 0.46516 0.74213 0.0
C1099 C 0.67564 0.43832 0.70748 0.0
C1100 C 0.73379 0.43759 0.77875 0.0
C1101 C 0.76614 0.48767 0.81736 0.0
N1102 N 0.69218 0.44008 0.73414 0.0
N1103 N 0.75126 0.4886 0.78999 0.0
H1104 H 0.25165 0.75318 0.02243 0.0
H1105 H 0.23805 0.73897 0.82474 0.0
H1106 H 0.32588 0.80283 0.95728 0.0
H1107 H 0.19004 0.66445 0.89017 0.0
H1108 H 0.26238 0.77037 0.87337 0.0
H1109 H 0.22076 0.72827 0.97371 0.0
C1110 C 0.26125 0.75927 0.99786 0.0
C1111 C 0.29136 0.77987 0.99379 0.0
C1112 C 0.24616 0.74723 0.87697 0.0
C1113 C 0.25626 0.75192 0.93831 0.0
C1114 C 0.23221 0.7294 0.84935 0.0
C1115 C 0.21224 0.69909 0.85354 0.0
C1116 C 0.23948 0.73474 0.9089 0.0
C1117 C 0.20554 0.68769 0.88592 0.0
C1118 C 0.24371 0.74499 0.97019 0.0
C1119 C 0.3028 0.78685 0.96145 0.0
N1120 N 0.21914 0.70551 0.91238 0.0
N1121 N 0.28525 0.77289 0.93492 0.0
H1122 H 0.49753 0.25467 0.18736 0.0
H1123 H 0.49633 0.23892 0.98992 0.0
H1124 H 0.52441 0.32878 0.12122 0.0
H1125 H 0.52201 0.19046 0.05546 0.0
H1126 H 0.49017 0.26394 0.03843 0.0
H1127 H 0.49015 0.22285 0.13902 0.0
C1128 C 0.50127 0.26406 0.16266 0.0
C1129 C 0.51183 0.29437 0.15816 0.0
C1130 C 0.49667 0.24744 0.04208 0.0
C1131 C 0.50303 0.25826 0.10319 0.0
C1132 C 0.50002 0.2331 0.01454 0.0
C1133 C 0.50992 0.21284 0.01879 0.0
C1134 C 0.50257 0.24088 0.07399 0.0
C1135 C 0.51461 0.20619 0.05117 0.0
C1136 C 0.4972 0.246 0.13521 0.0
C1137 C 0.51652 0.30555 0.12569 0.0
N1138 N 0.51093 0.2202 0.07757 0.0
N1139 N 0.5121 0.2875 0.09941 0.0
loop_
_geom_bond_atom_site_label_1
_geom_bond_atom_site_label_2
_geom_bond_distance
_geom_bond_site_symmetry_2
_ccdc_geom_bond_type
Co0 O2 2.143 . S
Co0 O8 2.074 . S
Co0 O11 2.093 . S
Co0 O24 2.097 . S
Co0 N41 2.151 . S
Co0 N49 2.214 . S
Co1 O2 2.160 . S
Co1 O7 2.058 . S
Co1 O17 2.057 . S
Co1 O32 2.037 . S
Co1 N36 2.145 . S
Co1 N57 2.257 . S
O2 Co0 2.143 . S
O2 Co1 2.160 . S
C3 O4 1.278 . S
C3 O11 1.224 . S
O4 C3 1.278 . S
C5 O6 1.245 . S
C5 O17 1.232 . S
O6 C5 1.245 . S
O7 Co1 2.058 . S
O7 C33 1.269 . S
O8 Co0 2.074 . S
O8 C33 1.257 . S
H9 C34 0.930 . S
H10 C40 0.930 . S
O11 Co0 2.093 . S
O11 C3 1.224 . S
H12 C44 0.929 . S
H13 C46 0.930 . S
H14 C47 0.930 . S
H15 C45 0.929 . S
H16 C48 0.928 . S
O17 Co1 2.057 . S
O17 C5 1.232 . S
H18 C37 0.929 . S
H19 C38 0.929 . S
H20 C50 0.931 . S
H21 C42 0.929 . S
H22 C51 0.930 . S
H23 C43 0.931 . S
O24 Co0 2.097 . S
O24 C52 1.214 . S
H25 C53 0.929 . S
H26 C54 0.929 . S
H27 C55 0.930 . S
H28 C56 0.929 . S
H29 C58 0.930 . S
H30 C35 0.930 . S
H31 C39 0.930 . S
O32 Co1 2.037 . S
O32 C52 1.234 . S
C33 O7 1.269 . S
C33 O8 1.257 . S
C34 H9 0.930 . S
C34 C37 1.388 . S
C34 C39 1.418 . S
C35 H30 0.930 . S
C35 C38 1.404 . S
C35 C39 1.353 . S
N36 Co1 2.145 . S
N36 C37 1.397 . S
N36 C38 1.334 . S
C37 H18 0.929 . S
C37 C34 1.388 . S
C37 N36 1.397 . S
C38 H19 0.929 . S
C38 C35 1.404 . S
C38 N36 1.334 . S
C39 H31 0.930 . S
C39 C34 1.418 . S
C39 C35 1.353 . S
C40 H10 0.930 . S
C40 N41 1.330 . S
C40 C42 1.446 . S
N41 Co0 2.151 . S
N41 C40 1.330 . S
N41 C45 1.418 . S
C42 H21 0.929 . S
C42 C40 1.446 . S
C42 C43 1.332 . S
C43 H23 0.931 . S
C43 C42 1.332 . S
C43 C44 1.267 . S
C44 H12 0.929 . S
C44 C43 1.267 . S
C44 C45 1.251 . S
C45 H15 0.929 . S
C45 N41 1.418 . S
C45 C44 1.251 . S
C46 H13 0.930 . S
C46 C48 1.406 . S
C46 C51 1.261 . S
C47 H14 0.930 . S
C47 N49 1.325 . S
C47 C50 1.357 . S
C48 H16 0.928 . S
C48 C46 1.406 . S
C48 N49 1.261 . S
N49 Co0 2.214 . S
N49 C47 1.325 . S
N49 C48 1.261 . S
C50 H20 0.931 . S
C50 C47 1.357 . S
C50 C51 1.312 . S
C51 H22 0.930 . S
C51 C46 1.261 . S
C51 C50 1.312 . S
C52 O24 1.214 . S
C52 O32 1.234 . S
C53 H25 0.929 . S
C53 C56 1.391 . S
C53 C58 1.391 . S
C54 H26 0.929 . S
C54 C55 1.390 . S
C54 N57 1.391 . S
C55 H27 0.930 . S
C55 C54 1.390 . S
C55 C56 1.392 . S
C56 H28 0.929 . S
C56 C53 1.391 . S
C56 C55 1.392 . S
N57 Co1 2.257 . S
N57 C54 1.391 . S
N57 C58 1.388 . S
C58 H29 0.930 . S
C58 C53 1.391 . S
C58 N57 1.388 . S
Co59 O61 2.143 . S
Co59 O67 2.074 . S
Co59 O70 2.093 . S
Co59 O83 2.097 . S
Co59 N100 2.151 . S
Co59 N108 2.214 . S
Co60 O61 2.160 . S
Co60 O66 2.058 . S
Co60 O76 2.057 . S
Co60 O91 2.037 . S
Co60 N95 2.145 . S
Co60 N116 2.257 . S
O61 Co59 2.143 . S
O61 Co60 2.160 . S
C62 O63 1.278 . S
C62 O70 1.224 . S
O63 C62 1.278 . S
C64 O65 1.245 . S
C64 O76 1.232 . S
O65 C64 1.245 . S
O66 Co60 2.058 . S
O66 C92 1.269 . S
O67 Co59 2.074 . S
O67 C92 1.257 . S
H68 C93 0.930 . S
H69 C99 0.930 . S
O70 Co59 2.093 . S
O70 C62 1.224 . S
H71 C103 0.929 . S
H72 C105 0.930 . S
H73 C106 0.930 . S
H74 C104 0.929 . S
H75 C107 0.928 . S
O76 Co60 2.057 . S
O76 C64 1.232 . S
H77 C96 0.929 . S
H78 C97 0.929 . S
H79 C109 0.931 . S
H80 C101 0.929 . S
H81 C110 0.930 . S
H82 C102 0.931 . S
O83 Co59 2.097 . S
O83 C111 1.214 . S
H84 C112 0.929 . S
H85 C113 0.929 . S
H86 C114 0.930 . S
H87 C115 0.929 . S
H88 C117 0.930 . S
H89 C94 0.930 . S
H90 C98 0.930 . S
O91 Co60 2.037 . S
O91 C111 1.234 . S
C92 O66 1.269 . S
C92 O67 1.257 . S
C93 H68 0.930 . S
C93 C96 1.388 . S
C93 C98 1.418 . S
C94 H89 0.930 . S
C94 C97 1.404 . S
C94 C98 1.353 . S
N95 Co60 2.145 . S
N95 C96 1.397 . S
N95 C97 1.334 . S
C96 H77 0.929 . S
C96 C93 1.388 . S
C96 N95 1.397 . S
C97 H78 0.929 . S
C97 C94 1.404 . S
C97 N95 1.334 . S
C98 H90 0.930 . S
C98 C93 1.418 . S
C98 C94 1.353 . S
C99 H69 0.930 . S
C99 N100 1.330 . S
C99 C101 1.446 . S
N100 Co59 2.151 . S
N100 C99 1.330 . S
N100 C104 1.418 . S
C101 H80 0.929 . S
C101 C99 1.446 . S
C101 C102 1.332 . S
C102 H82 0.931 . S
C102 C101 1.332 . S
C102 C103 1.267 . S
C103 H71 0.929 . S
C103 C102 1.267 . S
C103 C104 1.251 . S
C104 H74 0.929 . S
C104 N100 1.418 . S
C104 C103 1.251 . S
C105 H72 0.930 . S
C105 C107 1.406 . S
C105 C110 1.261 . S
C106 H73 0.930 . S
C106 N108 1.325 . S
C106 C109 1.357 . S
C107 H75 0.928 . S
C107 C105 1.406 . S
C107 N108 1.261 . S
N108 Co59 2.214 . S
N108 C106 1.325 . S
N108 C107 1.261 . S
C109 H79 0.931 . S
C109 C106 1.357 . S
C109 C110 1.312 . S
C110 H81 0.930 . S
C110 C105 1.261 . S
C110 C109 1.312 . S
C111 O83 1.214 . S
C111 O91 1.234 . S
C112 H84 0.929 . S
C112 C115 1.391 . S
C112 C117 1.391 . S
C113 H85 0.929 . S
C113 C114 1.390 . S
C113 N116 1.391 . S
C114 H86 0.930 . S
C114 C113 1.390 . S
C114 C115 1.392 . S
C115 H87 0.929 . S
C115 C112 1.391 . S
C115 C114 1.392 . S
N116 Co60 2.257 . S
N116 C113 1.391 . S
N116 C117 1.388 . S
C117 H88 0.930 . S
C117 C112 1.391 . S
C117 N116 1.388 . S
Co118 O120 2.143 . S
Co118 O126 2.074 . S
Co118 O129 2.093 . S
Co118 O142 2.097 . S
Co118 N159 2.151 . S
Co118 N167 2.214 . S
Co119 O120 2.160 . S
Co119 O125 2.058 . S
Co119 O135 2.057 . S
Co119 O150 2.037 . S
Co119 N154 2.145 . S
Co119 N175 2.257 . S
O120 Co118 2.143 . S
O120 Co119 2.160 . S
C121 O122 1.278 . S
C121 O129 1.224 . S
O122 C121 1.278 . S
C123 O124 1.245 . S
C123 O135 1.232 . S
O124 C123 1.245 . S
O125 Co119 2.058 . S
O125 C151 1.269 . S
O126 Co118 2.074 . S
O126 C151 1.257 . S
H127 C152 0.930 . S
H128 C158 0.930 . S
O129 Co118 2.093 . S
O129 C121 1.224 . S
H130 C162 0.929 . S
H131 C164 0.930 . S
H132 C165 0.930 . S
H133 C163 0.929 . S
H134 C166 0.928 . S
O135 Co119 2.057 . S
O135 C123 1.232 . S
H136 C155 0.929 . S
H137 C156 0.929 . S
H138 C168 0.931 . S
H139 C160 0.929 . S
H140 C169 0.930 . S
H141 C161 0.931 . S
O142 Co118 2.097 . S
O142 C170 1.214 . S
H143 C171 0.929 . S
H144 C172 0.929 . S
H145 C173 0.930 . S
H146 C174 0.929 . S
H147 C176 0.930 . S
H148 C153 0.930 . S
H149 C157 0.930 . S
O150 Co119 2.037 . S
O150 C170 1.234 . S
C151 O125 1.269 . S
C151 O126 1.257 . S
C152 H127 0.930 . S
C152 C155 1.388 . S
C152 C157 1.418 . S
C153 H148 0.930 . S
C153 C156 1.404 . S
C153 C157 1.353 . S
N154 Co119 2.145 . S
N154 C155 1.397 . S
N154 C156 1.334 . S
C155 H136 0.929 . S
C155 C152 1.388 . S
C155 N154 1.397 . S
C156 H137 0.929 . S
C156 C153 1.404 . S
C156 N154 1.334 . S
C157 H149 0.930 . S
C157 C152 1.418 . S
C157 C153 1.353 . S
C158 H128 0.930 . S
C158 N159 1.330 . S
C158 C160 1.446 . S
N159 Co118 2.151 . S
N159 C158 1.330 . S
N159 C163 1.418 . S
C160 H139 0.929 . S
C160 C158 1.446 . S
C160 C161 1.332 . S
C161 H141 0.931 . S
C161 C160 1.332 . S
C161 C162 1.267 . S
C162 H130 0.929 . S
C162 C161 1.267 . S
C162 C163 1.251 . S
C163 H133 0.929 . S
C163 N159 1.418 . S
C163 C162 1.251 . S
C164 H131 0.930 . S
C164 C166 1.406 . S
C164 C169 1.261 . S
C165 H132 0.930 . S
C165 N167 1.325 . S
C165 C168 1.357 . S
C166 H134 0.928 . S
C166 C164 1.406 . S
C166 N167 1.261 . S
N167 Co118 2.214 . S
N167 C165 1.325 . S
N167 C166 1.261 . S
C168 H138 0.931 . S
C168 C165 1.357 . S
C168 C169 1.312 . S
C169 H140 0.930 . S
C169 C164 1.261 . S
C169 C168 1.312 . S
C170 O142 1.214 . S
C170 O150 1.234 . S
C171 H143 0.929 . S
C171 C174 1.391 . S
C171 C176 1.391 . S
C172 H144 0.929 . S
C172 C173 1.390 . S
C172 N175 1.391 . S
C173 H145 0.930 . S
C173 C172 1.390 . S
C173 C174 1.392 . S
C174 H146 0.929 . S
C174 C171 1.391 . S
C174 C173 1.392 . S
N175 Co119 2.257 . S
N175 C172 1.391 . S
N175 C176 1.388 . S
C176 H147 0.930 . S
C176 C171 1.391 . S
C176 N175 1.388 . S
Co177 O179 2.143 . S
Co177 O185 2.074 . S
Co177 O188 2.093 . S
Co177 O201 2.097 . S
Co177 N218 2.151 . S
Co177 N226 2.214 . S
Co178 O179 2.160 . S
Co178 O184 2.058 . S
Co178 O194 2.057 . S
Co178 O209 2.037 . S
Co178 N213 2.145 . S
Co178 N234 2.257 . S
O179 Co177 2.143 . S
O179 Co178 2.160 . S
C180 O181 1.278 . S
C180 O188 1.224 . S
O181 C180 1.278 . S
C182 O183 1.245 . S
C182 O194 1.232 . S
O183 C182 1.245 . S
O184 Co178 2.058 . S
O184 C210 1.269 . S
O185 Co177 2.074 . S
O185 C210 1.257 . S
H186 C211 0.930 1_554 S
H187 C217 0.930 . S
O188 Co177 2.093 . S
O188 C180 1.224 . S
H189 C221 0.929 . S
H190 C223 0.930 . S
H191 C224 0.930 . S
H192 C222 0.929 . S
H193 C225 0.928 . S
O194 Co178 2.057 . S
O194 C182 1.232 . S
H195 C214 0.929 . S
H196 C215 0.929 . S
H197 C227 0.931 . S
H198 C219 0.929 . S
H199 C228 0.930 . S
H200 C220 0.931 . S
O201 Co177 2.097 . S
O201 C229 1.214 . S
H202 C230 0.929 . S
H203 C231 0.929 . S
H204 C232 0.930 . S
H205 C233 0.929 . S
H206 C235 0.930 . S
H207 C212 0.930 . S
H208 C216 0.930 . S
O209 Co178 2.037 . S
O209 C229 1.234 . S
C210 O184 1.269 . S
C210 O185 1.257 . S
C211 H186 0.930 1_556 S
C211 C214 1.388 . S
C211 C216 1.418 . S
C212 H207 0.930 . S
C212 C215 1.404 . S
C212 C216 1.353 . S
N213 Co178 2.145 . S
N213 C214 1.397 . S
N213 C215 1.334 . S
C214 H195 0.929 . S
C214 C211 1.388 . S
C214 N213 1.397 . S
C215 H196 0.929 . S
C215 C212 1.404 . S
C215 N213 1.334 . S
C216 H208 0.930 . S
C216 C211 1.418 . S
C216 C212 1.353 . S
C217 H187 0.930 . S
C217 N218 1.330 . S
C217 C219 1.446 . S
N218 Co177 2.151 . S
N218 C217 1.330 . S
N218 C222 1.418 . S
C219 H198 0.929 . S
C219 C217 1.446 . S
C219 C220 1.332 . S
C220 H200 0.931 . S
C220 C219 1.332 . S
C220 C221 1.267 . S
C221 H189 0.929 . S
C221 C220 1.267 . S
C221 C222 1.251 . S
C222 H192 0.929 . S
C222 N218 1.418 . S
C222 C221 1.251 . S
C223 H190 0.930 . S
C223 C225 1.406 . S
C223 C228 1.261 . S
C224 H191 0.930 . S
C224 N226 1.325 . S
C224 C227 1.357 . S
C225 H193 0.928 . S
C225 C223 1.406 . S
C225 N226 1.261 . S
N226 Co177 2.214 . S
N226 C224 1.325 . S
N226 C225 1.261 . S
C227 H197 0.931 . S
C227 C224 1.357 . S
C227 C228 1.312 . S
C228 H199 0.930 . S
C228 C223 1.261 . S
C228 C227 1.312 . S
C229 O201 1.214 . S
C229 O209 1.234 . S
C230 H202 0.929 . S
C230 C233 1.391 . S
C230 C235 1.391 . S
C231 H203 0.929 . S
C231 C232 1.390 . S
C231 N234 1.391 . S
C232 H204 0.930 . S
C232 C231 1.390 . S
C232 C233 1.392 . S
C233 H205 0.929 . S
C233 C230 1.391 . S
C233 C232 1.392 . S
N234 Co178 2.257 . S
N234 C231 1.391 . S
N234 C235 1.388 . S
C235 H206 0.930 . S
C235 C230 1.391 . S
C235 N234 1.388 . S
Co236 O238 2.143 . S
Co236 O244 2.074 . S
Co236 O247 2.093 . S
Co236 O260 2.097 . S
Co236 N277 2.151 . S
Co236 N285 2.214 . S
Co237 O238 2.160 . S
Co237 O243 2.058 . S
Co237 O253 2.057 . S
Co237 O268 2.037 . S
Co237 N272 2.145 . S
Co237 N293 2.257 . S
O238 Co236 2.143 . S
O238 Co237 2.160 . S
C239 O240 1.278 1_554 S
C239 O247 1.224 . S
O240 C239 1.278 1_556 S
C241 O242 1.245 . S
C241 O253 1.232 . S
O242 C241 1.245 . S
O243 Co237 2.058 . S
O243 C269 1.269 . S
O244 Co236 2.074 . S
O244 C269 1.257 . S
H245 C270 0.930 . S
H246 C276 0.930 . S
O247 Co236 2.093 . S
O247 C239 1.224 . S
H248 C280 0.929 . S
H249 C282 0.930 . S
H250 C283 0.930 . S
H251 C281 0.929 . S
H252 C284 0.928 . S
O253 Co237 2.057 . S
O253 C241 1.232 . S
H254 C273 0.929 . S
H255 C274 0.929 . S
H256 C286 0.931 . S
H257 C278 0.929 . S
H258 C287 0.930 . S
H259 C279 0.931 . S
O260 Co236 2.097 . S
O260 C288 1.214 . S
H261 C289 0.929 . S
H262 C290 0.929 . S
H263 C291 0.930 . S
H264 C292 0.929 . S
H265 C294 0.930 . S
H266 C271 0.930 . S
H267 C275 0.930 . S
O268 Co237 2.037 . S
O268 C288 1.234 . S
C269 O243 1.269 . S
C269 O244 1.257 . S
C270 H245 0.930 . S
C270 C273 1.388 . S
C270 C275 1.418 . S
C271 H266 0.930 . S
C271 C274 1.404 . S
C271 C275 1.353 . S
N272 Co237 2.145 . S
N272 C273 1.397 . S
N272 C274 1.334 . S
C273 H254 0.929 . S
C273 C270 1.388 . S
C273 N272 1.397 . S
C274 H255 0.929 . S
C274 C271 1.404 . S
C274 N272 1.334 . S
C275 H267 0.930 . S
C275 C270 1.418 . S
C275 C271 1.353 . S
C276 H246 0.930 . S
C276 N277 1.330 . S
C276 C278 1.446 . S
N277 Co236 2.151 . S
N277 C276 1.330 . S
N277 C281 1.418 . S
C278 H257 0.929 . S
C278 C276 1.446 . S
C278 C279 1.332 . S
C279 H259 0.931 . S
C279 C278 1.332 . S
C279 C280 1.267 . S
C280 H248 0.929 . S
C280 C279 1.267 . S
C280 C281 1.251 . S
C281 H251 0.929 . S
C281 N277 1.418 . S
C281 C280 1.251 . S
C282 H249 0.930 . S
C282 C284 1.406 . S
C282 C287 1.261 . S
C283 H250 0.930 . S
C283 N285 1.325 . S
C283 C286 1.357 . S
C284 H252 0.928 . S
C284 C282 1.406 . S
C284 N285 1.261 . S
N285 Co236 2.214 . S
N285 C283 1.325 . S
N285 C284 1.261 . S
C286 H256 0.931 . S
C286 C283 1.357 . S
C286 C287 1.312 . S
C287 H258 0.930 . S
C287 C282 1.261 . S
C287 C286 1.312 . S
C288 O260 1.214 . S
C288 O268 1.234 . S
C289 H261 0.929 . S
C289 C292 1.391 . S
C289 C294 1.391 . S
C290 H262 0.929 . S
C290 C291 1.390 1_554 S
C290 N293 1.391 . S
C291 H263 0.930 . S
C291 C290 1.390 1_556 S
C291 C292 1.392 . S
C292 H264 0.929 . S
C292 C289 1.391 . S
C292 C291 1.392 . S
N293 Co237 2.257 . S
N293 C290 1.391 . S
N293 C294 1.388 1_554 S
C294 H265 0.930 . S
C294 C289 1.391 . S
C294 N293 1.388 1_556 S
Co295 O297 2.143 . S
Co295 O303 2.074 . S
Co295 O306 2.093 . S
Co295 O319 2.097 . S
Co295 N336 2.151 . S
Co295 N344 2.214 . S
Co296 O297 2.160 . S
Co296 O302 2.058 . S
Co296 O312 2.057 . S
Co296 O327 2.037 . S
Co296 N331 2.145 . S
Co296 N352 2.257 . S
O297 Co295 2.143 . S
O297 Co296 2.160 . S
C298 O299 1.278 . S
C298 O306 1.224 . S
O299 C298 1.278 . S
C300 O301 1.245 . S
C300 O312 1.232 . S
O301 C300 1.245 . S
O302 Co296 2.058 . S
O302 C328 1.269 . S
O303 Co295 2.074 . S
O303 C328 1.257 . S
H304 C329 0.930 . S
H305 C335 0.930 . S
O306 Co295 2.093 . S
O306 C298 1.224 . S
H307 C339 0.929 . S
H308 C341 0.930 . S
H309 C342 0.930 . S
H310 C340 0.929 . S
H311 C343 0.928 . S
O312 Co296 2.057 . S
O312 C300 1.232 . S
H313 C332 0.929 . S
H314 C333 0.929 . S
H315 C345 0.931 . S
H316 C337 0.929 . S
H317 C346 0.930 . S
H318 C338 0.931 . S
O319 Co295 2.097 . S
O319 C347 1.214 . S
H320 C348 0.929 . S
H321 C349 0.929 . S
H322 C350 0.930 . S
H323 C351 0.929 . S
H324 C353 0.930 . S
H325 C330 0.930 . S
H326 C334 0.930 . S
O327 Co296 2.037 . S
O327 C347 1.234 . S
C328 O302 1.269 . S
C328 O303 1.257 . S
C329 H304 0.930 . S
C329 C332 1.388 . S
C329 C334 1.418 . S
C330 H325 0.930 . S
C330 C333 1.404 . S
C330 C334 1.353 . S
N331 Co296 2.145 . S
N331 C332 1.397 . S
N331 C333 1.334 . S
C332 H313 0.929 . S
C332 C329 1.388 . S
C332 N331 1.397 . S
C333 H314 0.929 . S
C333 C330 1.404 . S
C333 N331 1.334 . S
C334 H326 0.930 . S
C334 C329 1.418 . S
C334 C330 1.353 . S
C335 H305 0.930 . S
C335 N336 1.330 . S
C335 C337 1.446 . S
N336 Co295 2.151 . S
N336 C335 1.330 . S
N336 C340 1.418 . S
C337 H316 0.929 . S
C337 C335 1.446 . S
C337 C338 1.332 . S
C338 H318 0.931 . S
C338 C337 1.332 . S
C338 C339 1.267 . S
C339 H307 0.929 . S
C339 C338 1.267 . S
C339 C340 1.251 . S
C340 H310 0.929 . S
C340 N336 1.418 . S
C340 C339 1.251 . S
C341 H308 0.930 . S
C341 C343 1.406 . S
C341 C346 1.261 . S
C342 H309 0.930 . S
C342 N344 1.325 . S
C342 C345 1.357 . S
C343 H311 0.928 . S
C343 C341 1.406 . S
C343 N344 1.261 . S
N344 Co295 2.214 . S
N344 C342 1.325 . S
N344 C343 1.261 . S
C345 H315 0.931 . S
C345 C342 1.357 . S
C345 C346 1.312 . S
C346 H317 0.930 . S
C346 C341 1.261 . S
C346 C345 1.312 . S
C347 O319 1.214 . S
C347 O327 1.234 . S
C348 H320 0.929 . S
C348 C351 1.391 . S
C348 C353 1.391 . S
C349 H321 0.929 . S
C349 C350 1.390 . S
C349 N352 1.391 . S
C350 H322 0.930 . S
C350 C349 1.390 . S
C350 C351 1.392 . S
C351 H323 0.929 . S
C351 C348 1.391 . S
C351 C350 1.392 . S
N352 Co296 2.257 . S
N352 C349 1.391 . S
N352 C353 1.388 . S
C353 H324 0.930 . S
C353 C348 1.391 . S
C353 N352 1.388 . S
Co354 O356 2.143 . S
Co354 O362 2.074 . S
Co354 O365 2.093 . S
Co354 O378 2.097 . S
Co354 N395 2.151 . S
Co354 N403 2.214 . S
Co355 O356 2.160 . S
Co355 O361 2.058 . S
Co355 O371 2.057 . S
Co355 O386 2.037 . S
Co355 N390 2.145 . S
Co355 N411 2.257 . S
O356 Co354 2.143 . S
O356 Co355 2.160 . S
C357 O358 1.278 . S
C357 O365 1.224 . S
O358 C357 1.278 . S
C359 O360 1.245 . S
C359 O371 1.232 . S
O360 C359 1.245 . S
O361 Co355 2.058 . S
O361 C387 1.269 . S
O362 Co354 2.074 . S
O362 C387 1.257 . S
H363 C388 0.930 . S
H364 C394 0.930 . S
O365 Co354 2.093 . S
O365 C357 1.224 . S
H366 C398 0.929 . S
H367 C400 0.930 . S
H368 C401 0.930 . S
H369 C399 0.929 . S
H370 C402 0.928 . S
O371 Co355 2.057 . S
O371 C359 1.232 . S
H372 C391 0.929 . S
H373 C392 0.929 . S
H374 C404 0.931 . S
H375 C396 0.929 . S
H376 C405 0.930 . S
H377 C397 0.931 . S
O378 Co354 2.097 . S
O378 C406 1.214 . S
H379 C407 0.929 . S
H380 C408 0.929 . S
H381 C409 0.930 . S
H382 C410 0.929 . S
H383 C412 0.930 . S
H384 C389 0.930 . S
H385 C393 0.930 . S
O386 Co355 2.037 . S
O386 C406 1.234 . S
C387 O361 1.269 . S
C387 O362 1.257 . S
C388 H363 0.930 . S
C388 C391 1.388 . S
C388 C393 1.418 . S
C389 H384 0.930 . S
C389 C392 1.404 . S
C389 C393 1.353 . S
N390 Co355 2.145 . S
N390 C391 1.397 . S
N390 C392 1.334 . S
C391 H372 0.929 . S
C391 C388 1.388 . S
C391 N390 1.397 . S
C392 H373 0.929 . S
C392 C389 1.404 . S
C392 N390 1.334 . S
C393 H385 0.930 . S
C393 C388 1.418 . S
C393 C389 1.353 . S
C394 H364 0.930 . S
C394 N395 1.330 . S
C394 C396 1.446 . S
N395 Co354 2.151 . S
N395 C394 1.330 . S
N395 C399 1.418 . S
C396 H375 0.929 . S
C396 C394 1.446 . S
C396 C397 1.332 . S
C397 H377 0.931 . S
C397 C396 1.332 . S
C397 C398 1.267 . S
C398 H366 0.929 . S
C398 C397 1.267 . S
C398 C399 1.251 . S
C399 H369 0.929 . S
C399 N395 1.418 . S
C399 C398 1.251 . S
C400 H367 0.930 . S
C400 C402 1.406 . S
C400 C405 1.261 . S
C401 H368 0.930 . S
C401 N403 1.325 . S
C401 C404 1.357 . S
C402 H370 0.928 . S
C402 C400 1.406 . S
C402 N403 1.261 . S
N403 Co354 2.214 . S
N403 C401 1.325 . S
N403 C402 1.261 . S
C404 H374 0.931 . S
C404 C401 1.357 . S
C404 C405 1.312 . S
C405 H376 0.930 . S
C405 C400 1.261 . S
C405 C404 1.312 . S
C406 O378 1.214 . S
C406 O386 1.234 . S
C407 H379 0.929 . S
C407 C410 1.391 . S
C407 C412 1.391 . S
C408 H380 0.929 . S
C408 C409 1.390 . S
C408 N411 1.391 . S
C409 H381 0.930 . S
C409 C408 1.390 . S
C409 C410 1.392 . S
C410 H382 0.929 . S
C410 C407 1.391 . S
C410 C409 1.392 . S
N411 Co355 2.257 . S
N411 C408 1.391 . S
N411 C412 1.388 . S
C412 H383 0.930 . S
C412 C407 1.391 . S
C412 N411 1.388 . S
Co413 O415 2.143 . S
Co413 O421 2.074 . S
Co413 O424 2.093 . S
Co413 O437 2.097 . S
Co413 N454 2.151 . S
Co413 N462 2.214 . S
Co414 O415 2.160 . S
Co414 O420 2.058 . S
Co414 O430 2.057 . S
Co414 O445 2.037 . S
Co414 N449 2.145 . S
Co414 N470 2.257 . S
O415 Co413 2.143 . S
O415 Co414 2.160 . S
C416 O417 1.278 . S
C416 O424 1.224 . S
O417 C416 1.278 . S
C418 O419 1.245 . S
C418 O430 1.232 . S
O419 C418 1.245 . S
O420 Co414 2.058 . S
O420 C446 1.269 . S
O421 Co413 2.074 . S
O421 C446 1.257 . S
H422 C447 0.930 . S
H423 C453 0.930 . S
O424 Co413 2.093 . S
O424 C416 1.224 . S
H425 C457 0.929 . S
H426 C459 0.930 . S
H427 C460 0.930 . S
H428 C458 0.929 . S
H429 C461 0.928 . S
O430 Co414 2.057 . S
O430 C418 1.232 . S
H431 C450 0.929 . S
H432 C451 0.929 . S
H433 C463 0.931 . S
H434 C455 0.929 . S
H435 C464 0.930 . S
H436 C456 0.931 . S
O437 Co413 2.097 . S
O437 C465 1.214 . S
H438 C466 0.929 . S
H439 C467 0.929 . S
H440 C468 0.930 . S
H441 C469 0.929 . S
H442 C471 0.930 . S
H443 C448 0.930 . S
H444 C452 0.930 . S
O445 Co414 2.037 . S
O445 C465 1.234 . S
C446 O420 1.269 . S
C446 O421 1.257 . S
C447 H422 0.930 . S
C447 C450 1.388 . S
C447 C452 1.418 . S
C448 H443 0.930 . S
C448 C451 1.404 . S
C448 C452 1.353 . S
N449 Co414 2.145 . S
N449 C450 1.397 . S
N449 C451 1.334 . S
C450 H431 0.929 . S
C450 C447 1.388 . S
C450 N449 1.397 . S
C451 H432 0.929 . S
C451 C448 1.404 . S
C451 N449 1.334 . S
C452 H444 0.930 . S
C452 C447 1.418 . S
C452 C448 1.353 . S
C453 H423 0.930 . S
C453 N454 1.330 . S
C453 C455 1.446 . S
N454 Co413 2.151 . S
N454 C453 1.330 . S
N454 C458 1.418 . S
C455 H434 0.929 . S
C455 C453 1.446 . S
C455 C456 1.332 . S
C456 H436 0.931 . S
C456 C455 1.332 . S
C456 C457 1.267 . S
C457 H425 0.929 . S
C457 C456 1.267 . S
C457 C458 1.251 . S
C458 H428 0.929 . S
C458 N454 1.418 . S
C458 C457 1.251 . S
C459 H426 0.930 . S
C459 C461 1.406 . S
C459 C464 1.261 . S
C460 H427 0.930 . S
C460 N462 1.325 . S
C460 C463 1.357 . S
C461 H429 0.928 . S
C461 C459 1.406 . S
C461 N462 1.261 . S
N462 Co413 2.214 . S
N462 C460 1.325 . S
N462 C461 1.261 . S
C463 H433 0.931 . S
C463 C460 1.357 . S
C463 C464 1.312 . S
C464 H435 0.930 . S
C464 C459 1.261 . S
C464 C463 1.312 . S
C465 O437 1.214 . S
C465 O445 1.234 . S
C466 H438 0.929 . S
C466 C469 1.391 . S
C466 C471 1.391 . S
C467 H439 0.929 . S
C467 C468 1.390 . S
C467 N470 1.391 . S
C468 H440 0.930 . S
C468 C467 1.390 . S
C468 C469 1.392 . S
C469 H441 0.929 . S
C469 C466 1.391 . S
C469 C468 1.392 . S
N470 Co414 2.257 . S
N470 C467 1.391 . S
N470 C471 1.388 . S
C471 H442 0.930 . S
C471 C466 1.391 . S
C471 N470 1.388 . S
Co472 O474 2.143 . S
Co472 O480 2.074 . S
Co472 O483 2.093 . S
Co472 O496 2.097 . S
Co472 N513 2.151 . S
Co472 N521 2.214 . S
Co473 O474 2.160 . S
Co473 O479 2.058 . S
Co473 O489 2.057 . S
Co473 O504 2.037 . S
Co473 N508 2.145 . S
Co473 N529 2.257 . S
O474 Co472 2.143 . S
O474 Co473 2.160 . S
C475 O476 1.278 . S
C475 O483 1.224 . S
O476 C475 1.278 . S
C477 O478 1.245 . S
C477 O489 1.232 . S
O478 C477 1.245 . S
O479 Co473 2.058 . S
O479 C505 1.269 . S
O480 Co472 2.074 . S
O480 C505 1.257 . S
H481 C506 0.930 . S
H482 C512 0.930 . S
O483 Co472 2.093 . S
O483 C475 1.224 . S
H484 C516 0.929 . S
H485 C518 0.930 . S
H486 C519 0.930 . S
H487 C517 0.929 . S
H488 C520 0.928 . S
O489 Co473 2.057 . S
O489 C477 1.232 . S
H490 C509 0.929 . S
H491 C510 0.929 . S
H492 C522 0.931 . S
H493 C514 0.929 . S
H494 C523 0.930 . S
H495 C515 0.931 . S
O496 Co472 2.097 . S
O496 C524 1.214 . S
H497 C525 0.929 . S
H498 C526 0.929 . S
H499 C527 0.930 . S
H500 C528 0.929 . S
H501 C530 0.930 . S
H502 C507 0.930 . S
H503 C511 0.930 . S
O504 Co473 2.037 . S
O504 C524 1.234 . S
C505 O479 1.269 . S
C505 O480 1.257 . S
C506 H481 0.930 . S
C506 C509 1.388 . S
C506 C511 1.418 . S
C507 H502 0.930 . S
C507 C510 1.404 . S
C507 C511 1.353 . S
N508 Co473 2.145 . S
N508 C509 1.397 . S
N508 C510 1.334 . S
C509 H490 0.929 . S
C509 C506 1.388 . S
C509 N508 1.397 . S
C510 H491 0.929 . S
C510 C507 1.404 . S
C510 N508 1.334 . S
C511 H503 0.930 . S
C511 C506 1.418 . S
C511 C507 1.353 . S
C512 H482 0.930 . S
C512 N513 1.330 . S
C512 C514 1.446 . S
N513 Co472 2.151 . S
N513 C512 1.330 . S
N513 C517 1.418 . S
C514 H493 0.929 . S
C514 C512 1.446 . S
C514 C515 1.332 . S
C515 H495 0.931 . S
C515 C514 1.332 . S
C515 C516 1.267 . S
C516 H484 0.929 . S
C516 C515 1.267 . S
C516 C517 1.251 . S
C517 H487 0.929 . S
C517 N513 1.418 . S
C517 C516 1.251 . S
C518 H485 0.930 . S
C518 C520 1.406 . S
C518 C523 1.261 . S
C519 H486 0.930 . S
C519 N521 1.325 . S
C519 C522 1.357 . S
C520 H488 0.928 . S
C520 C518 1.406 . S
C520 N521 1.261 . S
N521 Co472 2.214 . S
N521 C519 1.325 . S
N521 C520 1.261 . S
C522 H492 0.931 . S
C522 C519 1.357 . S
C522 C523 1.312 . S
C523 H494 0.930 . S
C523 C518 1.261 . S
C523 C522 1.312 . S
C524 O496 1.214 . S
C524 O504 1.234 . S
C525 H497 0.929 . S
C525 C528 1.391 . S
C525 C530 1.391 . S
C526 H498 0.929 . S
C526 C527 1.390 . S
C526 N529 1.391 . S
C527 H499 0.930 . S
C527 C526 1.390 . S
C527 C528 1.392 . S
C528 H500 0.929 . S
C528 C525 1.391 . S
C528 C527 1.392 . S
N529 Co473 2.257 . S
N529 C526 1.391 . S
N529 C530 1.388 . S
C530 H501 0.930 . S
C530 C525 1.391 . S
C530 N529 1.388 . S
Co531 O533 2.143 . S
Co531 O539 2.074 . S
Co531 O542 2.093 . S
Co531 O555 2.097 . S
Co531 N572 2.151 . S
Co531 N580 2.214 . S
Co532 O533 2.160 . S
Co532 O538 2.058 . S
Co532 O548 2.057 . S
Co532 O563 2.037 . S
Co532 N567 2.145 . S
Co532 N588 2.257 . S
O533 Co531 2.143 . S
O533 Co532 2.160 . S
C534 O535 1.278 1_556 S
C534 O542 1.224 . S
O535 C534 1.278 1_554 S
C536 O537 1.245 . S
C536 O548 1.232 . S
O537 C536 1.245 . S
O538 Co532 2.058 . S
O538 C564 1.269 . S
O539 Co531 2.074 . S
O539 C564 1.257 . S
H540 C565 0.930 . S
H541 C571 0.930 . S
O542 Co531 2.093 . S
O542 C534 1.224 . S
H543 C575 0.929 . S
H544 C577 0.930 . S
H545 C578 0.930 . S
H546 C576 0.929 . S
H547 C579 0.928 . S
O548 Co532 2.057 . S
O548 C536 1.232 . S
H549 C568 0.929 . S
H550 C569 0.929 . S
H551 C581 0.931 . S
H552 C573 0.929 . S
H553 C582 0.930 . S
H554 C574 0.931 . S
O555 Co531 2.097 . S
O555 C583 1.214 . S
H556 C584 0.929 . S
H557 C585 0.929 . S
H558 C586 0.930 . S
H559 C587 0.929 . S
H560 C589 0.930 . S
H561 C566 0.930 . S
H562 C570 0.930 . S
O563 Co532 2.037 . S
O563 C583 1.234 . S
C564 O538 1.269 . S
C564 O539 1.257 . S
C565 H540 0.930 . S
C565 C568 1.388 . S
C565 C570 1.418 . S
C566 H561 0.930 . S
C566 C569 1.404 . S
C566 C570 1.353 . S
N567 Co532 2.145 . S
N567 C568 1.397 . S
N567 C569 1.334 . S
C568 H549 0.929 . S
C568 C565 1.388 . S
C568 N567 1.397 . S
C569 H550 0.929 . S
C569 C566 1.404 . S
C569 N567 1.334 . S
C570 H562 0.930 . S
C570 C565 1.418 . S
C570 C566 1.353 . S
C571 H541 0.930 . S
C571 N572 1.330 . S
C571 C573 1.446 . S
N572 Co531 2.151 . S
N572 C571 1.330 . S
N572 C576 1.418 . S
C573 H552 0.929 . S
C573 C571 1.446 . S
C573 C574 1.332 . S
C574 H554 0.931 . S
C574 C573 1.332 . S
C574 C575 1.267 . S
C575 H543 0.929 . S
C575 C574 1.267 . S
C575 C576 1.251 . S
C576 H546 0.929 . S
C576 N572 1.418 . S
C576 C575 1.251 . S
C577 H544 0.930 . S
C577 C579 1.406 . S
C577 C582 1.261 . S
C578 H545 0.930 . S
C578 N580 1.325 . S
C578 C581 1.357 . S
C579 H547 0.928 . S
C579 C577 1.406 . S
C579 N580 1.261 . S
N580 Co531 2.214 . S
N580 C578 1.325 . S
N580 C579 1.261 . S
C581 H551 0.931 . S
C581 C578 1.357 . S
C581 C582 1.312 . S
C582 H553 0.930 . S
C582 C577 1.261 . S
C582 C581 1.312 . S
C583 O555 1.214 . S
C583 O563 1.234 . S
C584 H556 0.929 . S
C584 C587 1.391 . S
C584 C589 1.391 . S
C585 H557 0.929 . S
C585 C586 1.390 1_556 S
C585 N588 1.391 . S
C586 H558 0.930 . S
C586 C585 1.390 1_554 S
C586 C587 1.392 . S
C587 H559 0.929 . S
C587 C584 1.391 . S
C587 C586 1.392 . S
N588 Co532 2.257 . S
N588 C585 1.391 . S
N588 C589 1.388 1_556 S
C589 H560 0.930 . S
C589 C584 1.391 . S
C589 N588 1.388 1_554 S
Co590 O592 2.143 . S
Co590 O598 2.074 . S
Co590 O601 2.093 . S
Co590 O614 2.097 . S
Co590 N631 2.151 . S
Co590 N639 2.214 . S
Co591 O592 2.160 . S
Co591 O597 2.058 . S
Co591 O607 2.057 . S
Co591 O622 2.037 . S
Co591 N626 2.145 . S
Co591 N647 2.257 . S
O592 Co590 2.143 . S
O592 Co591 2.160 . S
C593 O594 1.278 . S
C593 O601 1.224 . S
O594 C593 1.278 . S
C595 O596 1.245 . S
C595 O607 1.232 . S
O596 C595 1.245 . S
O597 Co591 2.058 . S
O597 C623 1.269 . S
O598 Co590 2.074 . S
O598 C623 1.257 . S
H599 C624 0.930 1_556 S
H600 C630 0.930 . S
O601 Co590 2.093 . S
O601 C593 1.224 . S
H602 C634 0.929 . S
H603 C636 0.930 . S
H604 C637 0.930 . S
H605 C635 0.929 . S
H606 C638 0.928 . S
O607 Co591 2.057 . S
O607 C595 1.232 . S
H608 C627 0.929 . S
H609 C628 0.929 . S
H610 C640 0.931 . S
H611 C632 0.929 . S
H612 C641 0.930 . S
H613 C633 0.931 . S
O614 Co590 2.097 . S
O614 C642 1.214 . S
H615 C643 0.929 . S
H616 C644 0.929 . S
H617 C645 0.930 . S
H618 C646 0.929 . S
H619 C648 0.930 . S
H620 C625 0.930 . S
H621 C629 0.930 . S
O622 Co591 2.037 . S
O622 C642 1.234 . S
C623 O597 1.269 . S
C623 O598 1.257 . S
C624 H599 0.930 1_554 S
C624 C627 1.388 . S
C624 C629 1.418 . S
C625 H620 0.930 . S
C625 C628 1.404 . S
C625 C629 1.353 . S
N626 Co591 2.145 . S
N626 C627 1.397 . S
N626 C628 1.334 . S
C627 H608 0.929 . S
C627 C624 1.388 . S
C627 N626 1.397 . S
C628 H609 0.929 . S
C628 C625 1.404 . S
C628 N626 1.334 . S
C629 H621 0.930 . S
C629 C624 1.418 . S
C629 C625 1.353 . S
C630 H600 0.930 . S
C630 N631 1.330 . S
C630 C632 1.446 . S
N631 Co590 2.151 . S
N631 C630 1.330 . S
N631 C635 1.418 . S
C632 H611 0.929 . S
C632 C630 1.446 . S
C632 C633 1.332 . S
C633 H613 0.931 . S
C633 C632 1.332 . S
C633 C634 1.267 . S
C634 H602 0.929 . S
C634 C633 1.267 . S
C634 C635 1.251 . S
C635 H605 0.929 . S
C635 N631 1.418 . S
C635 C634 1.251 . S
C636 H603 0.930 . S
C636 C638 1.406 . S
C636 C641 1.261 . S
C637 H604 0.930 . S
C637 N639 1.325 . S
C637 C640 1.357 . S
C638 H606 0.928 . S
C638 C636 1.406 . S
C638 N639 1.261 . S
N639 Co590 2.214 . S
N639 C637 1.325 . S
N639 C638 1.261 . S
C640 H610 0.931 . S
C640 C637 1.357 . S
C640 C641 1.312 . S
C641 H612 0.930 . S
C641 C636 1.261 . S
C641 C640 1.312 . S
C642 O614 1.214 . S
C642 O622 1.234 . S
C643 H615 0.929 . S
C643 C646 1.391 . S
C643 C648 1.391 . S
C644 H616 0.929 . S
C644 C645 1.390 . S
C644 N647 1.391 . S
C645 H617 0.930 . S
C645 C644 1.390 . S
C645 C646 1.392 . S
C646 H618 0.929 . S
C646 C643 1.391 . S
C646 C645 1.392 . S
N647 Co591 2.257 . S
N647 C644 1.391 . S
N647 C648 1.388 . S
C648 H619 0.930 . S
C648 C643 1.391 . S
C648 N647 1.388 . S
Co649 O651 2.143 . S
Co649 O657 2.074 . S
Co649 O660 2.093 . S
Co649 O673 2.097 . S
Co649 N690 2.151 . S
Co649 N698 2.214 . S
Co650 O651 2.160 . S
Co650 O656 2.058 . S
Co650 O666 2.057 . S
Co650 O681 2.037 . S
Co650 N685 2.145 . S
Co650 N706 2.257 . S
O651 Co649 2.143 . S
O651 Co650 2.160 . S
C652 O653 1.278 . S
C652 O660 1.224 . S
O653 C652 1.278 . S
C654 O655 1.245 . S
C654 O666 1.232 . S
O655 C654 1.245 . S
O656 Co650 2.058 . S
O656 C682 1.269 . S
O657 Co649 2.074 . S
O657 C682 1.257 . S
H658 C683 0.930 . S
H659 C689 0.930 . S
O660 Co649 2.093 . S
O660 C652 1.224 . S
H661 C693 0.929 . S
H662 C695 0.930 . S
H663 C696 0.930 . S
H664 C694 0.929 . S
H665 C697 0.928 . S
O666 Co650 2.057 . S
O666 C654 1.232 . S
H667 C686 0.929 . S
H668 C687 0.929 . S
H669 C699 0.931 . S
H670 C691 0.929 . S
H671 C700 0.930 . S
H672 C692 0.931 . S
O673 Co649 2.097 . S
O673 C701 1.214 . S
H674 C702 0.929 . S
H675 C703 0.929 . S
H676 C704 0.930 . S
H677 C705 0.929 . S
H678 C707 0.930 . S
H679 C684 0.930 . S
H680 C688 0.930 . S
O681 Co650 2.037 . S
O681 C701 1.234 . S
C682 O656 1.269 . S
C682 O657 1.257 . S
C683 H658 0.930 . S
C683 C686 1.388 . S
C683 C688 1.418 . S
C684 H679 0.930 . S
C684 C687 1.404 . S
C684 C688 1.353 . S
N685 Co650 2.145 . S
N685 C686 1.397 . S
N685 C687 1.334 . S
C686 H667 0.929 . S
C686 C683 1.388 . S
C686 N685 1.397 . S
C687 H668 0.929 . S
C687 C684 1.404 . S
C687 N685 1.334 . S
C688 H680 0.930 . S
C688 C683 1.418 . S
C688 C684 1.353 . S
C689 H659 0.930 . S
C689 N690 1.330 . S
C689 C691 1.446 . S
N690 Co649 2.151 . S
N690 C689 1.330 . S
N690 C694 1.418 . S
C691 H670 0.929 . S
C691 C689 1.446 . S
C691 C692 1.332 . S
C692 H672 0.931 . S
C692 C691 1.332 . S
C692 C693 1.267 . S
C693 H661 0.929 . S
C693 C692 1.267 . S
C693 C694 1.251 . S
C694 H664 0.929 . S
C694 N690 1.418 . S
C694 C693 1.251 . S
C695 H662 0.930 . S
C695 C697 1.406 . S
C695 C700 1.261 . S
C696 H663 0.930 . S
C696 N698 1.325 . S
C696 C699 1.357 . S
C697 H665 0.928 . S
C697 C695 1.406 . S
C697 N698 1.261 . S
N698 Co649 2.214 . S
N698 C696 1.325 . S
N698 C697 1.261 . S
C699 H669 0.931 . S
C699 C696 1.357 . S
C699 C700 1.312 . S
C700 H671 0.930 . S
C700 C695 1.261 . S
C700 C699 1.312 . S
C701 O673 1.214 . S
C701 O681 1.234 . S
C702 H674 0.929 . S
C702 C705 1.391 . S
C702 C707 1.391 . S
C703 H675 0.929 . S
C703 C704 1.390 . S
C703 N706 1.391 . S
C704 H676 0.930 . S
C704 C703 1.390 . S
C704 C705 1.392 . S
C705 H677 0.929 . S
C705 C702 1.391 . S
C705 C704 1.392 . S
N706 Co650 2.257 . S
N706 C703 1.391 . S
N706 C707 1.388 . S
C707 H678 0.930 . S
C707 C702 1.391 . S
C707 N706 1.388 . S
H708 C714 0.930 . S
H709 C718 0.930 . S
H710 C723 0.929 . S
H711 C721 0.929 . S
H712 C716 0.929 . S
H713 C722 0.929 . S
C714 H708 0.930 . S
C714 C715 1.367 . S
C714 C722 1.378 . S
C715 C714 1.367 . S
C715 C723 1.433 . S
C716 H712 0.929 . S
C716 C718 1.378 . S
C716 C720 1.350 . S
C717 C720 1.463 . S
C717 C722 1.350 . S
C717 N725 1.427 . S
C718 H709 0.930 . S
C718 C716 1.378 . S
C718 C719 1.367 . S
C719 C718 1.367 . S
C719 C721 1.433 . S
C720 C716 1.350 . S
C720 C717 1.463 . S
C720 N724 1.427 . S
C721 H711 0.929 . S
C721 C719 1.433 . S
C721 N724 1.384 . S
C722 H713 0.929 . S
C722 C714 1.378 . S
C722 C717 1.350 . S
C723 H710 0.929 . S
C723 C715 1.433 . S
C723 N725 1.384 . S
N724 C720 1.427 . S
N724 C721 1.384 . S
N725 C717 1.427 . S
N725 C723 1.384 . S
H726 C732 0.930 . S
H727 C736 0.930 . S
H728 C741 0.929 . S
H729 C739 0.929 . S
H730 C734 0.929 . S
H731 C740 0.929 . S
C732 H726 0.930 . S
C732 C733 1.367 . S
C732 C740 1.378 . S
C733 C732 1.367 . S
C733 C741 1.433 . S
C734 H730 0.929 . S
C734 C736 1.378 . S
C734 C738 1.350 . S
C735 C738 1.463 . S
C735 C740 1.350 . S
C735 N743 1.427 . S
C736 H727 0.930 . S
C736 C734 1.378 . S
C736 C737 1.367 . S
C737 C736 1.367 . S
C737 C739 1.433 . S
C738 C734 1.350 . S
C738 C735 1.463 . S
C738 N742 1.427 . S
C739 H729 0.929 . S
C739 C737 1.433 . S
C739 N742 1.384 . S
C740 H731 0.929 . S
C740 C732 1.378 . S
C740 C735 1.350 . S
C741 H728 0.929 . S
C741 C733 1.433 . S
C741 N743 1.384 . S
N742 C738 1.427 . S
N742 C739 1.384 . S
N743 C735 1.427 . S
N743 C741 1.384 . S
H744 C750 0.930 . S
H745 C754 0.930 . S
H746 C759 0.929 . S
H747 C757 0.929 . S
H748 C752 0.929 . S
H749 C758 0.929 . S
C750 H744 0.930 . S
C750 C751 1.367 . S
C750 C758 1.378 . S
C751 C750 1.367 . S
C751 C759 1.433 . S
C752 H748 0.929 . S
C752 C754 1.378 . S
C752 C756 1.350 . S
C753 C756 1.463 . S
C753 C758 1.350 . S
C753 N761 1.427 . S
C754 H745 0.930 . S
C754 C752 1.378 . S
C754 C755 1.367 . S
C755 C754 1.367 . S
C755 C757 1.433 . S
C756 C752 1.350 . S
C756 C753 1.463 . S
C756 N760 1.427 . S
C757 H747 0.929 . S
C757 C755 1.433 . S
C757 N760 1.384 . S
C758 H749 0.929 . S
C758 C750 1.378 . S
C758 C753 1.350 . S
C759 H746 0.929 . S
C759 C751 1.433 . S
C759 N761 1.384 . S
N760 C756 1.427 . S
N760 C757 1.384 . S
N761 C753 1.427 . S
N761 C759 1.384 . S
H762 C768 0.930 . S
H763 C772 0.930 . S
H764 C777 0.929 . S
H765 C775 0.929 . S
H766 C770 0.929 . S
H767 C776 0.929 . S
C768 H762 0.930 . S
C768 C769 1.367 . S
C768 C776 1.378 . S
C769 C768 1.367 . S
C769 C777 1.433 . S
C770 H766 0.929 . S
C770 C772 1.378 . S
C770 C774 1.350 . S
C771 C774 1.463 . S
C771 C776 1.350 . S
C771 N779 1.427 . S
C772 H763 0.930 . S
C772 C770 1.378 . S
C772 C773 1.367 . S
C773 C772 1.367 . S
C773 C775 1.433 . S
C774 C770 1.350 . S
C774 C771 1.463 . S
C774 N778 1.427 . S
C775 H765 0.929 . S
C775 C773 1.433 . S
C775 N778 1.384 . S
C776 H767 0.929 . S
C776 C768 1.378 . S
C776 C771 1.350 . S
C777 H764 0.929 . S
C777 C769 1.433 . S
C777 N779 1.384 . S
N778 C774 1.427 . S
N778 C775 1.384 . S
N779 C771 1.427 . S
N779 C777 1.384 . S
H780 C786 0.930 . S
H781 C790 0.930 . S
H782 C795 0.929 . S
H783 C793 0.929 . S
H784 C788 0.929 . S
H785 C794 0.929 . S
C786 H780 0.930 . S
C786 C787 1.367 . S
C786 C794 1.378 . S
C787 C786 1.367 . S
C787 C795 1.433 . S
C788 H784 0.929 . S
C788 C790 1.378 . S
C788 C792 1.350 . S
C789 C792 1.463 . S
C789 C794 1.350 . S
C789 N797 1.427 . S
C790 H781 0.930 . S
C790 C788 1.378 . S
C790 C791 1.367 . S
C791 C790 1.367 . S
C791 C793 1.433 . S
C792 C788 1.350 . S
C792 C789 1.463 . S
C792 N796 1.427 . S
C793 H783 0.929 . S
C793 C791 1.433 . S
C793 N796 1.384 . S
C794 H785 0.929 . S
C794 C786 1.378 . S
C794 C789 1.350 . S
C795 H782 0.929 . S
C795 C787 1.433 . S
C795 N797 1.384 . S
N796 C792 1.427 . S
N796 C793 1.384 . S
N797 C789 1.427 . S
N797 C795 1.384 . S
H798 C804 0.930 . S
H799 C808 0.930 . S
H800 C813 0.929 . S
H801 C811 0.929 . S
H802 C806 0.929 . S
H803 C812 0.929 . S
C804 H798 0.930 . S
C804 C805 1.367 . S
C804 C812 1.378 . S
C805 C804 1.367 . S
C805 C813 1.433 . S
C806 H802 0.929 . S
C806 C808 1.378 . S
C806 C810 1.350 . S
C807 C810 1.463 . S
C807 C812 1.350 . S
C807 N815 1.427 . S
C808 H799 0.930 . S
C808 C806 1.378 . S
C808 C809 1.367 . S
C809 C808 1.367 . S
C809 C811 1.433 . S
C810 C806 1.350 . S
C810 C807 1.463 . S
C810 N814 1.427 . S
C811 H801 0.929 . S
C811 C809 1.433 . S
C811 N814 1.384 . S
C812 H803 0.929 . S
C812 C804 1.378 . S
C812 C807 1.350 . S
C813 H800 0.929 . S
C813 C805 1.433 . S
C813 N815 1.384 . S
N814 C810 1.427 . S
N814 C811 1.384 . S
N815 C807 1.427 . S
N815 C813 1.384 . S
H816 C822 0.930 . S
H817 C826 0.930 . S
H818 C831 0.929 . S
H819 C829 0.929 . S
H820 C824 0.929 . S
H821 C830 0.929 . S
C822 H816 0.930 . S
C822 C823 1.367 . S
C822 C830 1.378 . S
C823 C822 1.367 . S
C823 C831 1.433 . S
C824 H820 0.929 . S
C824 C826 1.378 . S
C824 C828 1.350 . S
C825 C828 1.463 . S
C825 C830 1.350 . S
C825 N833 1.427 . S
C826 H817 0.930 . S
C826 C824 1.378 . S
C826 C827 1.367 . S
C827 C826 1.367 . S
C827 C829 1.433 . S
C828 C824 1.350 . S
C828 C825 1.463 . S
C828 N832 1.427 . S
C829 H819 0.929 . S
C829 C827 1.433 . S
C829 N832 1.384 . S
C830 H821 0.929 . S
C830 C822 1.378 . S
C830 C825 1.350 . S
C831 H818 0.929 . S
C831 C823 1.433 . S
C831 N833 1.384 . S
N832 C828 1.427 . S
N832 C829 1.384 . S
N833 C825 1.427 . S
N833 C831 1.384 . S
H834 C840 0.930 . S
H835 C844 0.930 . S
H836 C849 0.929 . S
H837 C847 0.929 . S
H838 C842 0.929 . S
H839 C848 0.929 . S
C840 H834 0.930 . S
C840 C841 1.367 . S
C840 C848 1.378 . S
C841 C840 1.367 . S
C841 C849 1.433 . S
C842 H838 0.929 . S
C842 C844 1.378 . S
C842 C846 1.350 . S
C843 C846 1.463 . S
C843 C848 1.350 . S
C843 N851 1.427 . S
C844 H835 0.930 . S
C844 C842 1.378 . S
C844 C845 1.367 . S
C845 C844 1.367 . S
C845 C847 1.433 . S
C846 C842 1.350 . S
C846 C843 1.463 . S
C846 N850 1.427 . S
C847 H837 0.929 . S
C847 C845 1.433 . S
C847 N850 1.384 . S
C848 H839 0.929 . S
C848 C840 1.378 . S
C848 C843 1.350 . S
C849 H836 0.929 . S
C849 C841 1.433 . S
C849 N851 1.384 . S
N850 C846 1.427 . S
N850 C847 1.384 . S
N851 C843 1.427 . S
N851 C849 1.384 . S
H852 C858 0.930 . S
H853 C862 0.930 . S
H854 C867 0.929 1_554 S
H855 C865 0.929 . S
H856 C860 0.929 . S
H857 C866 0.929 . S
C858 H852 0.930 . S
C858 C859 1.367 . S
C858 C866 1.378 . S
C859 C858 1.367 . S
C859 C867 1.433 . S
C860 H856 0.929 . S
C860 C862 1.378 . S
C860 C864 1.350 . S
C861 C864 1.463 . S
C861 C866 1.350 . S
C861 N869 1.427 . S
C862 H853 0.930 . S
C862 C860 1.378 . S
C862 C863 1.367 . S
C863 C862 1.367 . S
C863 C865 1.433 . S
C864 C860 1.350 . S
C864 C861 1.463 . S
C864 N868 1.427 . S
C865 H855 0.929 . S
C865 C863 1.433 . S
C865 N868 1.384 . S
C866 H857 0.929 . S
C866 C858 1.378 . S
C866 C861 1.350 . S
C867 H854 0.929 1_556 S
C867 C859 1.433 . S
C867 N869 1.384 . S
N868 C864 1.427 . S
N868 C865 1.384 . S
N869 C861 1.427 . S
N869 C867 1.384 . S
H870 C876 0.930 . S
H871 C880 0.930 . S
H872 C885 0.929 . S
H873 C883 0.929 . S
H874 C878 0.929 . S
H875 C884 0.929 . S
C876 H870 0.930 . S
C876 C877 1.367 . S
C876 C884 1.378 . S
C877 C876 1.367 . S
C877 C885 1.433 . S
C878 H874 0.929 . S
C878 C880 1.378 . S
C878 C882 1.350 . S
C879 C882 1.463 . S
C879 C884 1.350 . S
C879 N887 1.427 . S
C880 H871 0.930 . S
C880 C878 1.378 . S
C880 C881 1.367 . S
C881 C880 1.367 . S
C881 C883 1.433 . S
C882 C878 1.350 . S
C882 C879 1.463 . S
C882 N886 1.427 . S
C883 H873 0.929 . S
C883 C881 1.433 . S
C883 N886 1.384 . S
C884 H875 0.929 . S
C884 C876 1.378 . S
C884 C879 1.350 . S
C885 H872 0.929 . S
C885 C877 1.433 . S
C885 N887 1.384 . S
N886 C882 1.427 . S
N886 C883 1.384 . S
N887 C879 1.427 . S
N887 C885 1.384 . S
H888 C894 0.930 . S
H889 C898 0.930 . S
H890 C903 0.929 . S
H891 C901 0.929 . S
H892 C896 0.929 . S
H893 C902 0.929 . S
C894 H888 0.930 . S
C894 C895 1.367 . S
C894 C902 1.378 . S
C895 C894 1.367 . S
C895 C903 1.433 . S
C896 H892 0.929 . S
C896 C898 1.378 . S
C896 C900 1.350 . S
C897 C900 1.463 . S
C897 C902 1.350 . S
C897 N905 1.427 . S
C898 H889 0.930 . S
C898 C896 1.378 . S
C898 C899 1.367 . S
C899 C898 1.367 . S
C899 C901 1.433 . S
C900 C896 1.350 . S
C900 C897 1.463 . S
C900 N904 1.427 . S
C901 H891 0.929 . S
C901 C899 1.433 . S
C901 N904 1.384 . S
C902 H893 0.929 . S
C902 C894 1.378 . S
C902 C897 1.350 . S
C903 H890 0.929 . S
C903 C895 1.433 . S
C903 N905 1.384 . S
N904 C900 1.427 . S
N904 C901 1.384 . S
N905 C897 1.427 . S
N905 C903 1.384 . S
H906 C912 0.930 . S
H907 C916 0.930 . S
H908 C921 0.929 . S
H909 C919 0.929 . S
H910 C914 0.929 . S
H911 C920 0.929 . S
C912 H906 0.930 . S
C912 C913 1.367 . S
C912 C920 1.378 . S
C913 C912 1.367 . S
C913 C921 1.433 . S
C914 H910 0.929 . S
C914 C916 1.378 . S
C914 C918 1.350 . S
C915 C918 1.463 . S
C915 C920 1.350 . S
C915 N923 1.427 . S
C916 H907 0.930 . S
C916 C914 1.378 . S
C916 C917 1.367 . S
C917 C916 1.367 . S
C917 C919 1.433 . S
C918 C914 1.350 . S
C918 C915 1.463 . S
C918 N922 1.427 . S
C919 H909 0.929 . S
C919 C917 1.433 . S
C919 N922 1.384 . S
C920 H911 0.929 . S
C920 C912 1.378 . S
C920 C915 1.350 . S
C921 H908 0.929 . S
C921 C913 1.433 . S
C921 N923 1.384 . S
N922 C918 1.427 . S
N922 C919 1.384 . S
N923 C915 1.427 . S
N923 C921 1.384 . S
H924 C930 0.930 . S
H925 C934 0.930 . S
H926 C939 0.929 . S
H927 C937 0.929 . S
H928 C932 0.929 . S
H929 C938 0.929 . S
C930 H924 0.930 . S
C930 C931 1.367 . S
C930 C938 1.378 . S
C931 C930 1.367 . S
C931 C939 1.433 . S
C932 H928 0.929 . S
C932 C934 1.378 . S
C932 C936 1.350 . S
C933 C936 1.463 1_655 S
C933 C938 1.350 . S
C933 N941 1.427 . S
C934 H925 0.930 . S
C934 C932 1.378 . S
C934 C935 1.367 . S
C935 C934 1.367 . S
C935 C937 1.433 . S
C936 C932 1.350 . S
C936 C933 1.463 1_455 S
C936 N940 1.427 . S
C937 H927 0.929 . S
C937 C935 1.433 . S
C937 N940 1.384 . S
C938 H929 0.929 . S
C938 C930 1.378 . S
C938 C933 1.350 . S
C939 H926 0.929 . S
C939 C931 1.433 . S
C939 N941 1.384 . S
N940 C936 1.427 . S
N940 C937 1.384 . S
N941 C933 1.427 . S
N941 C939 1.384 . S
H942 C948 0.930 . S
H943 C952 0.930 . S
H944 C957 0.929 . S
H945 C955 0.929 . S
H946 C950 0.929 . S
H947 C956 0.929 . S
C948 H942 0.930 . S
C948 C949 1.367 . S
C948 C956 1.378 . S
C949 C948 1.367 . S
C949 C957 1.433 . S
C950 H946 0.929 . S
C950 C952 1.378 . S
C950 C954 1.350 . S
C951 C954 1.463 1_565 S
C951 C956 1.350 . S
C951 N959 1.427 . S
C952 H943 0.930 . S
C952 C950 1.378 . S
C952 C953 1.367 . S
C953 C952 1.367 . S
C953 C955 1.433 . S
C954 C950 1.350 . S
C954 C951 1.463 1_545 S
C954 N958 1.427 . S
C955 H945 0.929 . S
C955 C953 1.433 . S
C955 N958 1.384 . S
C956 H947 0.929 . S
C956 C948 1.378 . S
C956 C951 1.350 . S
C957 H944 0.929 . S
C957 C949 1.433 . S
C957 N959 1.384 . S
N958 C954 1.427 . S
N958 C955 1.384 . S
N959 C951 1.427 . S
N959 C957 1.384 . S
H960 C966 0.930 . S
H961 C970 0.930 . S
H962 C975 0.929 . S
H963 C973 0.929 . S
H964 C968 0.929 . S
H965 C974 0.929 . S
C966 H960 0.930 . S
C966 C967 1.367 . S
C966 C974 1.378 . S
C967 C966 1.367 . S
C967 C975 1.433 . S
C968 H964 0.929 . S
C968 C970 1.378 . S
C968 C972 1.350 . S
C969 C972 1.463 . S
C969 C974 1.350 . S
C969 N977 1.427 . S
C970 H961 0.930 . S
C970 C968 1.378 . S
C970 C971 1.367 . S
C971 C970 1.367 . S
C971 C973 1.433 . S
C972 C968 1.350 . S
C972 C969 1.463 . S
C972 N976 1.427 . S
C973 H963 0.929 . S
C973 C971 1.433 . S
C973 N976 1.384 . S
C974 H965 0.929 . S
C974 C966 1.378 . S
C974 C969 1.350 . S
C975 H962 0.929 . S
C975 C967 1.433 . S
C975 N977 1.384 . S
N976 C972 1.427 . S
N976 C973 1.384 . S
N977 C969 1.427 . S
N977 C975 1.384 . S
H978 C984 0.930 . S
H979 C988 0.930 . S
H980 C993 0.929 . S
H981 C991 0.929 . S
H982 C986 0.929 . S
H983 C992 0.929 . S
C984 H978 0.930 . S
C984 C985 1.367 . S
C984 C992 1.378 . S
C985 C984 1.367 . S
C985 C993 1.433 . S
C986 H982 0.929 . S
C986 C988 1.378 . S
C986 C990 1.350 . S
C987 C990 1.463 1_455 S
C987 C992 1.350 . S
C987 N995 1.427 . S
C988 H979 0.930 . S
C988 C986 1.378 . S
C988 C989 1.367 . S
C989 C988 1.367 . S
C989 C991 1.433 . S
C990 C986 1.350 . S
C990 C987 1.463 1_655 S
C990 N994 1.427 . S
C991 H981 0.929 . S
C991 C989 1.433 . S
C991 N994 1.384 . S
C992 H983 0.929 . S
C992 C984 1.378 . S
C992 C987 1.350 . S
C993 H980 0.929 . S
C993 C985 1.433 . S
C993 N995 1.384 . S
N994 C990 1.427 . S
N994 C991 1.384 . S
N995 C987 1.427 . S
N995 C993 1.384 . S
H996 C1002 0.930 . S
H997 C1006 0.930 . S
H998 C1011 0.929 . S
H999 C1009 0.929 . S
H1000 C1004 0.929 . S
H1001 C1010 0.929 . S
C1002 H996 0.930 . S
C1002 C1003 1.367 . S
C1002 C1010 1.378 . S
C1003 C1002 1.367 . S
C1003 C1011 1.433 . S
C1004 H1000 0.929 . S
C1004 C1006 1.378 . S
C1004 C1008 1.350 . S
C1005 C1008 1.463 1_546 S
C1005 C1010 1.350 . S
C1005 N1013 1.427 1_556 S
C1006 H997 0.930 . S
C1006 C1004 1.378 . S
C1006 C1007 1.367 . S
C1007 C1006 1.367 . S
C1007 C1009 1.433 . S
C1008 C1004 1.350 . S
C1008 C1005 1.463 1_564 S
C1008 N1012 1.427 1_554 S
C1009 H999 0.929 . S
C1009 C1007 1.433 . S
C1009 N1012 1.384 1_554 S
C1010 H1001 0.929 . S
C1010 C1002 1.378 . S
C1010 C1005 1.350 . S
C1011 H998 0.929 . S
C1011 C1003 1.433 . S
C1011 N1013 1.384 1_556 S
N1012 C1008 1.427 1_556 S
N1012 C1009 1.384 1_556 S
N1013 C1005 1.427 1_554 S
N1013 C1011 1.384 1_554 S
H1014 C1020 0.930 . S
H1015 C1024 0.930 . S
H1016 C1029 0.929 . S
H1017 C1027 0.929 . S
H1018 C1022 0.929 . S
H1019 C1028 0.929 . S
C1020 H1014 0.930 . S
C1020 C1021 1.367 . S
C1020 C1028 1.378 . S
C1021 C1020 1.367 . S
C1021 C1029 1.433 . S
C1022 H1018 0.929 . S
C1022 C1024 1.378 . S
C1022 C1026 1.350 . S
C1023 C1026 1.463 . S
C1023 C1028 1.350 . S
C1023 N1031 1.427 . S
C1024 H1015 0.930 . S
C1024 C1022 1.378 . S
C1024 C1025 1.367 . S
C1025 C1024 1.367 . S
C1025 C1027 1.433 . S
C1026 C1022 1.350 . S
C1026 C1023 1.463 . S
C1026 N1030 1.427 . S
C1027 H1017 0.929 . S
C1027 C1025 1.433 . S
C1027 N1030 1.384 . S
C1028 H1019 0.929 . S
C1028 C1020 1.378 . S
C1028 C1023 1.350 . S
C1029 H1016 0.929 . S
C1029 C1021 1.433 . S
C1029 N1031 1.384 . S
N1030 C1026 1.427 . S
N1030 C1027 1.384 . S
N1031 C1023 1.427 . S
N1031 C1029 1.384 . S
H1032 C1038 0.930 . S
H1033 C1042 0.930 . S
H1034 C1047 0.929 . S
H1035 C1045 0.929 . S
H1036 C1040 0.929 . S
H1037 C1046 0.929 . S
C1038 H1032 0.930 . S
C1038 C1039 1.367 . S
C1038 C1046 1.378 . S
C1039 C1038 1.367 . S
C1039 C1047 1.433 . S
C1040 H1036 0.929 . S
C1040 C1042 1.378 . S
C1040 C1044 1.350 . S
C1041 C1044 1.463 . S
C1041 C1046 1.350 . S
C1041 N1049 1.427 . S
C1042 H1033 0.930 . S
C1042 C1040 1.378 . S
C1042 C1043 1.367 . S
C1043 C1042 1.367 . S
C1043 C1045 1.433 . S
C1044 C1040 1.350 . S
C1044 C1041 1.463 . S
C1044 N1048 1.427 . S
C1045 H1035 0.929 . S
C1045 C1043 1.433 . S
C1045 N1048 1.384 . S
C1046 H1037 0.929 . S
C1046 C1038 1.378 . S
C1046 C1041 1.350 . S
C1047 H1034 0.929 . S
C1047 C1039 1.433 . S
C1047 N1049 1.384 . S
N1048 C1044 1.427 . S
N1048 C1045 1.384 . S
N1049 C1041 1.427 . S
N1049 C1047 1.384 . S
H1050 C1056 0.930 . S
H1051 C1060 0.930 . S
H1052 C1065 0.929 . S
H1053 C1063 0.929 . S
H1054 C1058 0.929 . S
H1055 C1064 0.929 . S
C1056 H1050 0.930 . S
C1056 C1057 1.367 . S
C1056 C1064 1.378 . S
C1057 C1056 1.367 . S
C1057 C1065 1.433 . S
C1058 H1054 0.929 . S
C1058 C1060 1.378 . S
C1058 C1062 1.350 . S
C1059 C1062 1.463 . S
C1059 C1064 1.350 . S
C1059 N1067 1.427 . S
C1060 H1051 0.930 . S
C1060 C1058 1.378 . S
C1060 C1061 1.367 . S
C1061 C1060 1.367 . S
C1061 C1063 1.433 . S
C1062 C1058 1.350 . S
C1062 C1059 1.463 . S
C1062 N1066 1.427 . S
C1063 H1053 0.929 . S
C1063 C1061 1.433 . S
C1063 N1066 1.384 . S
C1064 H1055 0.929 . S
C1064 C1056 1.378 . S
C1064 C1059 1.350 . S
C1065 H1052 0.929 . S
C1065 C1057 1.433 . S
C1065 N1067 1.384 . S
N1066 C1062 1.427 . S
N1066 C1063 1.384 . S
N1067 C1059 1.427 . S
N1067 C1065 1.384 . S
H1068 C1074 0.930 . S
H1069 C1078 0.930 . S
H1070 C1083 0.929 . S
H1071 C1081 0.929 . S
H1072 C1076 0.929 . S
H1073 C1082 0.929 . S
C1074 H1068 0.930 . S
C1074 C1075 1.367 . S
C1074 C1082 1.378 . S
C1075 C1074 1.367 . S
C1075 C1083 1.433 . S
C1076 H1072 0.929 . S
C1076 C1078 1.378 . S
C1076 C1080 1.350 . S
C1077 C1080 1.463 . S
C1077 C1082 1.350 . S
C1077 N1085 1.427 . S
C1078 H1069 0.930 . S
C1078 C1076 1.378 . S
C1078 C1079 1.367 . S
C1079 C1078 1.367 . S
C1079 C1081 1.433 . S
C1080 C1076 1.350 . S
C1080 C1077 1.463 . S
C1080 N1084 1.427 . S
C1081 H1071 0.929 . S
C1081 C1079 1.433 . S
C1081 N1084 1.384 . S
C1082 H1073 0.929 . S
C1082 C1074 1.378 . S
C1082 C1077 1.350 . S
C1083 H1070 0.929 . S
C1083 C1075 1.433 . S
C1083 N1085 1.384 . S
N1084 C1080 1.427 . S
N1084 C1081 1.384 . S
N1085 C1077 1.427 . S
N1085 C1083 1.384 . S
H1086 C1092 0.930 . S
H1087 C1096 0.930 . S
H1088 C1101 0.929 . S
H1089 C1099 0.929 . S
H1090 C1094 0.929 . S
H1091 C1100 0.929 . S
C1092 H1086 0.930 . S
C1092 C1093 1.367 . S
C1092 C1100 1.378 . S
C1093 C1092 1.367 . S
C1093 C1101 1.433 . S
C1094 H1090 0.929 . S
C1094 C1096 1.378 . S
C1094 C1098 1.350 . S
C1095 C1098 1.463 . S
C1095 C1100 1.350 . S
C1095 N1103 1.427 . S
C1096 H1087 0.930 . S
C1096 C1094 1.378 . S
C1096 C1097 1.367 . S
C1097 C1096 1.367 . S
C1097 C1099 1.433 . S
C1098 C1094 1.350 . S
C1098 C1095 1.463 . S
C1098 N1102 1.427 . S
C1099 H1089 0.929 . S
C1099 C1097 1.433 . S
C1099 N1102 1.384 . S
C1100 H1091 0.929 . S
C1100 C1092 1.378 . S
C1100 C1095 1.350 . S
C1101 H1088 0.929 . S
C1101 C1093 1.433 . S
C1101 N1103 1.384 . S
N1102 C1098 1.427 . S
N1102 C1099 1.384 . S
N1103 C1095 1.427 . S
N1103 C1101 1.384 . S
H1104 C1110 0.930 1_554 S
H1105 C1114 0.930 . S
H1106 C1119 0.929 . S
H1107 C1117 0.929 . S
H1108 C1112 0.929 . S
H1109 C1118 0.929 . S
C1110 H1104 0.930 1_556 S
C1110 C1111 1.367 . S
C1110 C1118 1.378 . S
C1111 C1110 1.367 . S
C1111 C1119 1.433 . S
C1112 H1108 0.929 . S
C1112 C1114 1.378 . S
C1112 C1116 1.350 . S
C1113 C1116 1.463 . S
C1113 C1118 1.350 . S
C1113 N1121 1.427 . S
C1114 H1105 0.930 . S
C1114 C1112 1.378 . S
C1114 C1115 1.367 . S
C1115 C1114 1.367 . S
C1115 C1117 1.433 . S
C1116 C1112 1.350 . S
C1116 C1113 1.463 . S
C1116 N1120 1.427 . S
C1117 H1107 0.929 . S
C1117 C1115 1.433 . S
C1117 N1120 1.384 . S
C1118 H1109 0.929 . S
C1118 C1110 1.378 . S
C1118 C1113 1.350 . S
C1119 H1106 0.929 . S
C1119 C1111 1.433 . S
C1119 N1121 1.384 . S
N1120 C1116 1.427 . S
N1120 C1117 1.384 . S
N1121 C1113 1.427 . S
N1121 C1119 1.384 . S
H1122 C1128 0.930 . S
H1123 C1132 0.930 1_556 S
H1124 C1137 0.929 . S
H1125 C1135 0.929 . S
H1126 C1130 0.929 . S
H1127 C1136 0.929 . S
C1128 H1122 0.930 . S
C1128 C1129 1.367 . S
C1128 C1136 1.378 . S
C1129 C1128 1.367 . S
C1129 C1137 1.433 . S
C1130 H1126 0.929 . S
C1130 C1132 1.378 . S
C1130 C1134 1.350 . S
C1131 C1134 1.463 . S
C1131 C1136 1.350 . S
C1131 N1139 1.427 . S
C1132 H1123 0.930 1_554 S
C1132 C1130 1.378 . S
C1132 C1133 1.367 . S
C1133 C1132 1.367 . S
C1133 C1135 1.433 . S
C1134 C1130 1.350 . S
C1134 C1131 1.463 . S
C1134 N1138 1.427 . S
C1135 H1125 0.929 . S
C1135 C1133 1.433 . S
C1135 N1138 1.384 . S
C1136 H1127 0.929 . S
C1136 C1128 1.378 . S
C1136 C1131 1.350 . S
C1137 H1124 0.929 . S
C1137 C1129 1.433 . S
C1137 N1139 1.384 . S
N1138 C1134 1.427 . S
N1138 C1135 1.384 . S
N1139 C1131 1.427 . S
N1139 C1137 1.384 . S
C715 C33 1.029 . S
C719 C406 1.026 . S
C733 C111 1.029 . S
C737 C446 1.033 . S
C751 C524 1.033 . S
C755 C170 1.026 . S
C769 C210 1.033 . S
C773 C583 1.029 . S
C787 C288 1.028 . S
C791 C623 1.028 . S
C805 C701 1.028 . S
C809 C347 1.025 . S
C823 C505 1.707 . S
C827 C52 1.727 . S
C841 C92 1.714 . S
C845 C564 1.711 . S
C859 C642 1.730 1_556 S
C863 C151 1.714 . S
C877 C682 1.709 . S
C881 C229 1.728 1_554 S
C895 C269 1.706 . S
C899 C387 1.710 . S
C913 C328 1.709 . S
C917 C465 1.724 . S
C931 C654 1.451 . S
C935 C3 1.451 . S
C949 C359 1.451 . S
C953 C64 1.450 . S
C967 C123 1.451 . S
C971 C416 1.450 . S
C985 C477 1.453 . S
C989 C180 1.449 . S
C1003 C536 1.451 . S
C1007 C241 1.450 . S
C1021 C593 1.452 . S
C1025 C300 1.451 . S
C1039 C5 1.270 . S
C1043 C595 1.258 . S
C1057 C652 1.248 . S
C1061 C62 1.255 . S
C1075 C121 1.254 . S
C1079 C357 1.245 . S
C1093 C182 1.258 . S
C1097 C418 1.270 . S
C1111 C239 1.255 1_556 S
C1115 C475 1.244 . S
C1129 C298 1.251 . S
C1133 C534 1.247 1_554 S
