# Generated by pormake.
# Topology umg, (4)-cn, num edge types: 1
# Building blocks:
#     Node 0, Type 0, BuildingBlock: GALJAG_clean_sbu_0, # of connection points: 4
#     Node 1, Type 0, BuildingBlock: GALJAG_clean_sbu_0, # of connection points: 4
#     Node 2, Type 0, BuildingBlock: GALJAG_clean_sbu_0, # of connection points: 4
#     Node 3, Type 0, BuildingBlock: GALJAG_clean_sbu_0, # of connection points: 4
#     Node 4, Type 0, BuildingBlock: GALJAG_clean_sbu_0, # of connection points: 4
#     Node 5, Type 0, BuildingBlock: GALJAG_clean_sbu_0, # of connection points: 4
#     Node 6, Type 0, BuildingBlock: GALJAG_clean_sbu_0, # of connection points: 4
#     Node 7, Type 0, BuildingBlock: GALJAG_clean_sbu_0, # of connection points: 4
#     Node 8, Type 0, BuildingBlock: GALJAG_clean_sbu_0, # of connection points: 4
#     Node 9, Type 0, BuildingBlock: GALJAG_clean_sbu_0, # of connection points: 4
#     Node 10, Type 0, BuildingBlock: GALJAG_clean_sbu_0, # of connection points: 4
#     Node 11, Type 0, BuildingBlock: GALJAG_clean_sbu_0, # of connection points: 4
#     Edge 12, Type (0, 0), BuildingBlock: ZUJKAS_clean_linker_0, # of connection points: 2
#     Edge 13, Type (0, 0), BuildingBlock: ZUJKAS_clean_linker_0, # of connection points: 2
#     Edge 14, Type (0, 0), BuildingBlock: ZUJKAS_clean_linker_0, # of connection points: 2
#     Edge 15, Type (0, 0), BuildingBlock: ZUJKAS_clean_linker_0, # of connection points: 2
#     Edge 16, Type (0, 0), BuildingBlock: ZUJKAS_clean_linker_0, # of connection points: 2
#     Edge 17, Type (0, 0), BuildingBlock: ZUJKAS_clean_linker_0, # of connection points: 2
#     Edge 18, Type (0, 0), BuildingBlock: ZUJKAS_clean_linker_0, # of connection points: 2
#     Edge 19, Type (0, 0), BuildingBlock: ZUJKAS_clean_linker_0, # of connection points: 2
#     Edge 20, Type (0, 0), BuildingBlock: ZUJKAS_clean_linker_0, # of connection points: 2
#     Edge 21, Type (0, 0), BuildingBlock: ZUJKAS_clean_linker_0, # of connection points: 2
#     Edge 22, Type (0, 0), BuildingBlock: ZUJKAS_clean_linker_0, # of connection points: 2
#     Edge 23, Type (0, 0), BuildingBlock: ZUJKAS_clean_linker_0, # of connection points: 2
#     Edge 24, Type (0, 0), BuildingBlock: ZUJKAS_clean_linker_0, # of connection points: 2
#     Edge 25, Type (0, 0), BuildingBlock: ZUJKAS_clean_linker_0, # of connection points: 2
#     Edge 26, Type (0, 0), BuildingBlock: ZUJKAS_clean_linker_0, # of connection points: 2
#     Edge 27, Type (0, 0), BuildingBlock: ZUJKAS_clean_linker_0, # of connection points: 2
#     Edge 28, Type (0, 0), BuildingBlock: ZUJKAS_clean_linker_0, # of connection points: 2
#     Edge 29, Type (0, 0), BuildingBlock: ZUJKAS_clean_linker_0, # of connection points: 2
#     Edge 30, Type (0, 0), BuildingBlock: ZUJKAS_clean_linker_0, # of connection points: 2
#     Edge 31, Type (0, 0), BuildingBlock: ZUJKAS_clean_linker_0, # of connection points: 2
#     Edge 32, Type (0, 0), BuildingBlock: ZUJKAS_clean_linker_0, # of connection points: 2
#     Edge 33, Type (0, 0), BuildingBlock: ZUJKAS_clean_linker_0, # of connection points: 2
#     Edge 34, Type (0, 0), BuildingBlock: ZUJKAS_clean_linker_0, # of connection points: 2
#     Edge 35, Type (0, 0), BuildingBlock: ZUJKAS_clean_linker_0, # of connection points: 2
# Relax obj value: 0.078
# Max RMSD: 0.205
# Mean RMSD: 0.205
data_MOF--net-umg--node1-GALJAG_clean_sbu_0--edge1-ZUJKAS_clean_linker_0
_symmetry_space_group_name_H-M    P1
_symmetry_Int_Tables_number       1
_symmetry_cell_setting            triclinic
loop_
_symmetry_equiv_pos_as_xyz
'x, y, z'
_cell_length_a     37.15722
_cell_length_b     37.149049
_cell_length_c     111.78829
_cell_angle_alpha  90.004993
_cell_angle_beta   90.016524
_cell_angle_gamma 120.01343
loop_
_atom_site_label
_atom_site_type_symbol
_atom_site_fract_x
_atom_site_fract_y
_atom_site_fract_z
_atom_type_partial_charge
In0 In 0.30228 0.5993 0.07734 0.0
O1 O 0.33028 0.65954 0.06635 0.0
O2 O 0.30977 0.60182 0.05735 0.0
C3 C 0.3136 0.62104 0.10053 0.0
C4 C 0.35372 0.56802 0.07646 0.0
C5 C 0.21941 0.56806 0.07586 0.0
O6 O 0.32772 0.648 0.09227 0.0
O7 O 0.29388 0.5838 0.097 0.0
O8 O 0.23525 0.54477 0.07588 0.0
O9 O 0.24534 0.60644 0.07645 0.0
C10 C 0.32618 0.64079 0.05654 0.0
O11 O 0.31484 0.54519 0.07499 0.0
O12 O 0.36594 0.60588 0.07842 0.0
In13 In 0.69592 0.30157 0.41249 0.0
O14 O 0.76205 0.31162 0.41055 0.0
O15 O 0.75273 0.36314 0.40803 0.0
C16 C 0.64587 0.21854 0.41411 0.0
C17 C 0.66645 0.314 0.3919 0.0
C18 C 0.69139 0.32296 0.4352 0.0
O19 O 0.68386 0.23475 0.41125 0.0
O20 O 0.63391 0.24424 0.41632 0.0
O21 O 0.67029 0.3266 0.42689 0.0
O22 O 0.71438 0.30874 0.43198 0.0
C23 C 0.77815 0.35006 0.40834 0.0
O24 O 0.67217 0.33657 0.40098 0.0
O25 O 0.67541 0.28571 0.39329 0.0
In26 In 0.40191 0.70523 0.74506 0.0
O27 O 0.34306 0.67429 0.73347 0.0
O28 O 0.40231 0.70633 0.72495 0.0
C29 C 0.37638 0.69568 0.76789 0.0
C30 C 0.43285 0.78785 0.74341 0.0
C31 C 0.43367 0.65384 0.74489 0.0
O32 O 0.35091 0.67991 0.75932 0.0
O33 O 0.41414 0.71569 0.76488 0.0
O34 O 0.4568 0.693 0.74473 0.0
O35 O 0.39524 0.64125 0.74511 0.0
C36 C 0.36331 0.68576 0.72377 0.0
O37 O 0.45611 0.77198 0.74286 0.0
O38 O 0.3947 0.76206 0.74481 0.0
In39 In 0.6974 0.39086 0.07754 0.0
O40 O 0.66603 0.33192 0.06599 0.0
O41 O 0.70741 0.38995 0.05772 0.0
C42 C 0.67797 0.36558 0.10033 0.0
C43 C 0.64762 0.42359 0.07453 0.0
C44 C 0.78033 0.42249 0.07855 0.0
O45 O 0.67137 0.34016 0.09192 0.0
O46 O 0.69428 0.40311 0.09717 0.0
O47 O 0.76449 0.44524 0.07662 0.0
O48 O 0.75435 0.38447 0.08012 0.0
C49 C 0.68349 0.35132 0.05648 0.0
O50 O 0.68659 0.44633 0.07575 0.0
O51 O 0.63448 0.38503 0.07468 0.0
In52 In 0.29903 0.69665 0.41125 0.0
O53 O 0.23247 0.68477 0.40893 0.0
O54 O 0.24136 0.63344 0.41259 0.0
C55 C 0.35117 0.77951 0.41015 0.0
C56 C 0.31728 0.67504 0.39016 0.0
C57 C 0.31042 0.68427 0.43426 0.0
O58 O 0.31206 0.76394 0.41046 0.0
O59 O 0.36335 0.75331 0.41027 0.0
O60 O 0.31896 0.66694 0.42584 0.0
O61 O 0.2968 0.70773 0.43098 0.0
C62 C 0.216 0.64593 0.41058 0.0
O63 O 0.33179 0.67009 0.39988 0.0
O64 O 0.29421 0.6908 0.39122 0.0
In65 In 0.61039 0.3084 0.74423 0.0
O66 O 0.55496 0.24253 0.74161 0.0
O67 O 0.61624 0.25148 0.74102 0.0
C68 C 0.57899 0.35988 0.7456 0.0
C69 C 0.65243 0.33601 0.7236 0.0
C70 C 0.63261 0.31053 0.7672 0.0
O71 O 0.55636 0.32163 0.74314 0.0
O72 O 0.61675 0.37146 0.74747 0.0
O73 O 0.65894 0.33196 0.75925 0.0
O74 O 0.59577 0.2887 0.76351 0.0
C75 C 0.57767 0.22623 0.74046 0.0
O76 O 0.67058 0.33649 0.73323 0.0
O77 O 0.61379 0.32183 0.72451 0.0
In78 In 0.39911 0.69636 0.58261 0.0
O79 O 0.45435 0.6852 0.58459 0.0
O80 O 0.39405 0.6334 0.58129 0.0
C81 C 0.4292 0.779 0.58406 0.0
C82 C 0.35966 0.67371 0.60373 0.0
C83 C 0.37517 0.68425 0.55961 0.0
O84 O 0.45296 0.76372 0.5837 0.0
O85 O 0.39086 0.75262 0.58379 0.0
O86 O 0.3494 0.66662 0.56803 0.0
O87 O 0.41224 0.7079 0.56289 0.0
C88 C 0.4321 0.64627 0.58309 0.0
O89 O 0.33995 0.669 0.59407 0.0
O90 O 0.3985 0.68987 0.6026 0.0
In91 In 0.69561 0.3997 0.91563 0.0
O92 O 0.7619 0.45462 0.91832 0.0
O93 O 0.75227 0.39308 0.91831 0.0
C94 C 0.64424 0.43121 0.9142 0.0
C95 C 0.66875 0.35925 0.93653 0.0
C96 C 0.69083 0.3749 0.89283 0.0
O97 O 0.68293 0.45424 0.91593 0.0
O98 O 0.63216 0.39301 0.91311 0.0
O99 O 0.67179 0.34936 0.90118 0.0
O100 O 0.71182 0.41241 0.89604 0.0
C101 C 0.77782 0.43149 0.91915 0.0
O102 O 0.66656 0.34023 0.92692 0.0
O103 O 0.68429 0.39807 0.93548 0.0
In104 In 0.31685 0.71483 0.24921 0.0
O105 O 0.33084 0.78175 0.25192 0.0
O106 O 0.38123 0.77112 0.24841 0.0
C107 C 0.2338 0.66407 0.25011 0.0
C108 C 0.33764 0.69592 0.27031 0.0
C109 C 0.32792 0.70427 0.22604 0.0
O110 O 0.25007 0.70326 0.24991 0.0
O111 O 0.25939 0.65114 0.24997 0.0
O112 O 0.34016 0.68942 0.23426 0.0
O113 O 0.31049 0.72402 0.22961 0.0
C114 C 0.36967 0.7972 0.25052 0.0
O115 O 0.34483 0.6833 0.26055 0.0
O116 O 0.32005 0.71733 0.26926 0.0
In117 In 0.60657 0.30125 0.5838 0.0
O118 O 0.66703 0.33193 0.5947 0.0
O119 O 0.60988 0.2916 0.60355 0.0
C120 C 0.62863 0.32111 0.56081 0.0
C121 C 0.57515 0.35179 0.58756 0.0
C122 C 0.57391 0.21814 0.58264 0.0
O123 O 0.65507 0.32638 0.56878 0.0
O124 O 0.59177 0.30578 0.5645 0.0
O125 O 0.55192 0.23437 0.58519 0.0
O126 O 0.61164 0.24383 0.58054 0.0
C127 C 0.64873 0.31497 0.60439 0.0
O128 O 0.5519 0.31296 0.58617 0.0
O129 O 0.6136 0.36441 0.58727 0.0
In130 In 0.29808 0.60682 0.91608 0.0
O131 O 0.23183 0.5524 0.91889 0.0
O132 O 0.24172 0.6141 0.91856 0.0
C133 C 0.34947 0.57535 0.91466 0.0
C134 C 0.32452 0.64649 0.93709 0.0
C135 C 0.30192 0.62988 0.89315 0.0
O136 O 0.31081 0.55231 0.91645 0.0
O137 O 0.36149 0.61351 0.91351 0.0
O138 O 0.32249 0.656 0.90126 0.0
O139 O 0.27997 0.59285 0.89668 0.0
C140 C 0.21606 0.57573 0.91953 0.0
O141 O 0.32739 0.6661 0.92754 0.0
O142 O 0.30847 0.60767 0.9359 0.0
In143 In 0.71352 0.31551 0.2485 0.0
O144 O 0.70494 0.2503 0.25121 0.0
O145 O 0.65286 0.25887 0.25364 0.0
C146 C 0.79606 0.36669 0.2462 0.0
C147 C 0.70119 0.34581 0.26894 0.0
C148 C 0.68906 0.31403 0.22579 0.0
O149 O 0.78081 0.32915 0.24944 0.0
O150 O 0.76964 0.37768 0.24396 0.0
O151 O 0.68682 0.33763 0.23356 0.0
O152 O 0.70374 0.29198 0.22952 0.0
C153 C 0.66659 0.23395 0.2536 0.0
O154 O 0.67917 0.34061 0.25975 0.0
O155 O 0.72911 0.33627 0.26766 0.0
H156 H 0.33346 0.61157 0.95723 0.0
H157 H 0.35074 0.64124 0.97723 0.0
H158 H 0.36318 0.75598 0.96401 0.0
H159 H 0.34578 0.72619 0.94369 0.0
H160 H 0.42543 0.72129 0.9853 0.0
H161 H 0.27165 0.71105 0.99175 0.0
H162 H 0.27792 0.68017 0.98036 0.0
H163 H 0.30255 0.73545 0.97861 0.0
C164 C 0.34014 0.64324 0.95851 0.0
C165 C 0.338 0.66649 0.94892 0.0
C166 C 0.3502 0.66021 0.96994 0.0
C167 C 0.3581 0.70068 0.97207 0.0
C168 C 0.35705 0.72461 0.9625 0.0
H169 H 0.34178 0.71905 0.05038 0.0
H170 H 0.35945 0.75081 0.0303 0.0
C171 C 0.34721 0.70762 0.95094 0.0
C172 C 0.3649 0.71562 0.98457 0.0
H173 H 0.30766 0.71063 0.009 0.0
C174 C 0.40043 0.72065 0.99048 0.0
C175 C 0.33238 0.7151 0.99127 0.0
C176 C 0.29384 0.7102 0.98525 0.0
C177 C 0.40226 0.7206 0.003 0.0
C178 C 0.36752 0.71482 0.00969 0.0
C179 C 0.33417 0.71485 0.00382 0.0
C180 C 0.36096 0.69886 0.02208 0.0
C181 C 0.43988 0.72318 0.00896 0.0
C182 C 0.35565 0.65921 0.024 0.0
C183 C 0.34502 0.64095 0.03526 0.0
C184 C 0.33967 0.66205 0.0449 0.0
C185 C 0.34592 0.70225 0.04309 0.0
C186 C 0.35602 0.72039 0.03168 0.0
H187 H 0.46819 0.74121 0.00342 0.0
H188 H 0.44517 0.7378 0.01794 0.0
H189 H 0.43496 0.69133 0.01007 0.0
H190 H 0.35851 0.64175 0.01666 0.0
H191 H 0.34053 0.61 0.03639 0.0
H192 H 0.68982 0.38874 0.3814 0.0
H193 H 0.68327 0.40034 0.36012 0.0
H194 H 0.60793 0.26783 0.35476 0.0
H195 H 0.6166 0.25629 0.37581 0.0
H196 H 0.67191 0.29782 0.34107 0.0
H197 H 0.60238 0.39837 0.33614 0.0
H198 H 0.64581 0.4204 0.34619 0.0
H199 H 0.59991 0.37214 0.34998 0.0
C200 C 0.67077 0.36229 0.37572 0.0
C201 C 0.65393 0.32166 0.38013 0.0
C202 C 0.66679 0.36891 0.36357 0.0
C203 C 0.64493 0.33496 0.35581 0.0
C204 C 0.62503 0.29451 0.36055 0.0
H205 H 0.62645 0.33104 0.27783 0.0
H206 H 0.61036 0.33365 0.29904 0.0
C207 C 0.62994 0.28791 0.37256 0.0
C208 C 0.64897 0.3407 0.34263 0.0
H209 H 0.64106 0.39535 0.31913 0.0
C210 C 0.66448 0.31871 0.3363 0.0
C211 C 0.63937 0.36794 0.33634 0.0
C212 C 0.62054 0.39072 0.3425 0.0
C213 C 0.6714 0.32367 0.32398 0.0
C214 C 0.66397 0.35251 0.3178 0.0
C215 C 0.64735 0.37378 0.32397 0.0
C216 C 0.67415 0.36069 0.30494 0.0
C217 C 0.68678 0.29793 0.31768 0.0
C218 C 0.71549 0.37703 0.30125 0.0
C219 C 0.72457 0.3749 0.28927 0.0
C220 C 0.69254 0.35723 0.28076 0.0
C221 C 0.65165 0.34489 0.28425 0.0
C222 C 0.64245 0.34638 0.29633 0.0
H223 H 0.68051 0.27008 0.32298 0.0
H224 H 0.67196 0.28752 0.30876 0.0
H225 H 0.72089 0.31704 0.31637 0.0
H226 H 0.7404 0.38863 0.30777 0.0
H227 H 0.7564 0.38496 0.28676 0.0
H228 H 0.28113 0.63342 0.71794 0.0
H229 H 0.25075 0.61711 0.69768 0.0
H230 H 0.3711 0.70113 0.68269 0.0
H231 H 0.40141 0.71728 0.70262 0.0
H232 H 0.29537 0.70611 0.6739 0.0
H233 H 0.28345 0.55048 0.67218 0.0
H234 H 0.26468 0.56608 0.68493 0.0
H235 H 0.31949 0.58954 0.6824 0.0
C236 C 0.30091 0.64849 0.7103 0.0
C237 C 0.34366 0.67643 0.71184 0.0
C238 C 0.28355 0.63918 0.69878 0.0
C239 C 0.30878 0.65801 0.68875 0.0
C240 C 0.35115 0.68645 0.69034 0.0
H241 H 0.39488 0.66858 0.62432 0.0
H242 H 0.36547 0.65497 0.64435 0.0
C243 C 0.36844 0.69549 0.70174 0.0
C244 C 0.2928 0.64748 0.6764 0.0
H245 H 0.28792 0.58357 0.65381 0.0
C246 C 0.2919 0.67854 0.66949 0.0
C247 C 0.28839 0.61147 0.67076 0.0
C248 C 0.28893 0.57726 0.67788 0.0
C249 C 0.29119 0.67656 0.65695 0.0
C250 C 0.29134 0.64263 0.65129 0.0
C251 C 0.28771 0.60948 0.65822 0.0
C252 C 0.30578 0.6461 0.6388 0.0
C253 C 0.29484 0.71278 0.64986 0.0
C254 C 0.28163 0.64501 0.62899 0.0
C255 C 0.2985 0.65281 0.61742 0.0
C256 C 0.33974 0.66209 0.61561 0.0
C257 C 0.36314 0.66184 0.62543 0.0
C258 C 0.3463 0.65382 0.63688 0.0
H259 H 0.29451 0.73689 0.65566 0.0
H260 H 0.32417 0.72731 0.64463 0.0
H261 H 0.26866 0.70164 0.64342 0.0
H262 H 0.25023 0.639 0.63032 0.0
H263 H 0.27979 0.65273 0.60998 0.0
H264 H 0.61922 0.27514 0.04956 0.0
H265 H 0.60336 0.24719 0.02906 0.0
H266 H 0.71432 0.3555 0.01636 0.0
H267 H 0.73013 0.38328 0.03658 0.0
H268 H 0.58927 0.28751 0.01025 0.0
H269 H 0.71893 0.2621 -0.00134 0.0
H270 H 0.70504 0.26515 0.01398 0.0
H271 H 0.73825 0.31181 0.00567 0.0
C272 C 0.64058 0.29241 0.0424 0.0
C273 C 0.6758 0.33141 0.04462 0.0
C274 C 0.63152 0.27644 0.03073 0.0
C275 C 0.65807 0.29892 0.02123 0.0
C276 C 0.69396 0.3371 0.02358 0.0
H277 H 0.65746 0.39174 0.95689 0.0
H278 H 0.64324 0.36165 0.97685 0.0
C279 C 0.70274 0.35317 0.03514 0.0
C280 C 0.64641 0.28621 0.00863 0.0
H281 H 0.69144 0.28522 0.98217 0.0
C282 C 0.61082 0.28551 0.00412 0.0
C283 C 0.67397 0.28269 0.00063 0.0
C284 C 0.71093 0.28 0.00502 0.0
C285 C 0.60483 0.28646 0.99176 0.0
C286 C 0.63545 0.2887 0.9838 0.0
C287 C 0.6683 0.28424 0.98828 0.0
C288 C 0.6384 0.30349 0.97135 0.0
C289 C 0.56713 0.28777 0.98737 0.0
C290 C 0.64081 0.28093 0.96161 0.0
C291 C 0.64905 0.29823 0.9501 0.0
C292 C 0.65577 0.33859 0.94828 0.0
C293 C 0.65243 0.36058 0.95802 0.0
C294 C 0.64387 0.34323 0.96942 0.0
H295 H 0.54039 0.27053 0.99352 0.0
H296 H 0.57425 0.32055 0.9871 0.0
H297 H 0.55797 0.27436 0.97825 0.0
H298 H 0.63725 0.25044 0.96295 0.0
H299 H 0.65165 0.28071 0.94273 0.0
H300 H 0.36291 0.63987 0.27615 0.0
H301 H 0.37556 0.62239 0.29642 0.0
H302 H 0.34867 0.71352 0.31128 0.0
H303 H 0.33614 0.73094 0.29134 0.0
H304 H 0.42271 0.71261 0.32091 0.0
H305 H 0.27595 0.55919 0.32093 0.0
H306 H 0.31278 0.57303 0.30887 0.0
H307 H 0.28327 0.59896 0.31033 0.0
C308 C 0.36014 0.65634 0.28376 0.0
C309 C 0.34823 0.68652 0.28219 0.0
C310 C 0.36731 0.64632 0.2953 0.0
C311 C 0.36294 0.66666 0.30531 0.0
C312 C 0.35237 0.69761 0.30366 0.0
H313 H 0.27893 0.67141 0.36928 0.0
H314 H 0.29687 0.65952 0.34932 0.0
C315 C 0.34499 0.70736 0.29225 0.0
C316 C 0.36635 0.65482 0.3177 0.0
H317 H 0.30369 0.58958 0.33955 0.0
C318 C 0.39766 0.68492 0.32501 0.0
C319 C 0.33355 0.61866 0.32294 0.0
C320 C 0.29932 0.58542 0.31543 0.0
C321 C 0.39464 0.68194 0.33752 0.0
C322 C 0.35951 0.64788 0.34277 0.0
C323 C 0.33058 0.61561 0.33546 0.0
C324 C 0.34719 0.65032 0.35519 0.0
C325 C 0.42662 0.7173 0.34501 0.0
C326 C 0.36922 0.64844 0.36515 0.0
C327 C 0.35893 0.65527 0.37668 0.0
C328 C 0.32673 0.66431 0.37831 0.0
C329 C 0.30408 0.66482 0.36832 0.0
C330 C 0.31413 0.65778 0.3569 0.0
H331 H 0.45169 0.74195 0.33949 0.0
H332 H 0.41145 0.7314 0.35028 0.0
H333 H 0.44092 0.70533 0.35143 0.0
H334 H 0.39476 0.64256 0.36398 0.0
H335 H 0.37681 0.65462 0.38424 0.0
H336 H 0.72896 0.34755 0.71728 0.0
H337 H 0.75888 0.3606 0.69702 0.0
H338 H 0.65264 0.36553 0.68352 0.0
H339 H 0.62301 0.35275 0.7035 0.0
H340 H 0.72112 0.30792 0.67801 0.0
H341 H 0.74714 0.463 0.6663 0.0
H342 H 0.74235 0.44563 0.68163 0.0
H343 H 0.69668 0.43268 0.67286 0.0
C344 C 0.7126 0.3524 0.71 0.0
C345 C 0.67363 0.34901 0.71193 0.0
C346 C 0.72969 0.35986 0.69846 0.0
C347 C 0.70836 0.36482 0.6888 0.0
C348 C 0.67023 0.36295 0.69087 0.0
H349 H 0.6179 0.27047 0.6247 0.0
H350 H 0.64854 0.28664 0.64457 0.0
C351 C 0.65308 0.35517 0.70229 0.0
C352 C 0.72208 0.36619 0.67629 0.0
H353 H 0.7241 0.41227 0.64974 0.0
C354 C 0.7233 0.33148 0.67185 0.0
C355 C 0.72597 0.39733 0.66824 0.0
C356 C 0.72844 0.43696 0.67255 0.0
C357 C 0.72301 0.32464 0.6595 0.0
C358 C 0.7208 0.35288 0.65147 0.0
C359 C 0.72496 0.39014 0.65589 0.0
C360 C 0.70598 0.34076 0.63902 0.0
C361 C 0.7223 0.28583 0.65519 0.0
C362 C 0.72791 0.36605 0.62925 0.0
C363 C 0.71024 0.35683 0.61778 0.0
C364 C 0.67012 0.3227 0.61603 0.0
C365 C 0.64886 0.29698 0.62577 0.0
C366 C 0.66656 0.30594 0.63713 0.0
H367 H 0.74007 0.277 0.66136 0.0
H368 H 0.68971 0.25974 0.65504 0.0
H369 H 0.73549 0.28994 0.64605 0.0
H370 H 0.75813 0.3934 0.63056 0.0
H371 H 0.7272 0.37725 0.61041 0.0
H372 H 0.35796 0.65785 0.21548 0.0
H373 H 0.36101 0.6461 0.19397 0.0
H374 H 0.31126 0.72645 0.18619 0.0
H375 H 0.30765 0.73788 0.20752 0.0
H376 H 0.26899 0.64952 0.17497 0.0
H377 H 0.43956 0.72464 0.16779 0.0
H378 H 0.41911 0.68718 0.17971 0.0
H379 H 0.41727 0.73445 0.18088 0.0
C380 C 0.3481 0.67328 0.20916 0.0
C381 C 0.33247 0.69866 0.21317 0.0
C382 C 0.35007 0.66675 0.19689 0.0
C383 C 0.33672 0.68576 0.18851 0.0
C384 C 0.3218 0.71161 0.19252 0.0
H385 H 0.35416 0.69841 0.11081 0.0
H386 H 0.3612 0.71476 0.13228 0.0
C387 C 0.31975 0.71805 0.20471 0.0
C388 C 0.33554 0.67684 0.17557 0.0
H389 H 0.39619 0.68758 0.15137 0.0
C390 C 0.2968 0.65786 0.16981 0.0
C391 C 0.37194 0.68819 0.16887 0.0
C392 C 0.41443 0.71007 0.17457 0.0
C393 C 0.29339 0.6496 0.15751 0.0
C394 C 0.32964 0.66007 0.15085 0.0
C395 C 0.36848 0.67945 0.15656 0.0
C396 C 0.32744 0.65047 0.13795 0.0
C397 C 0.25105 0.63021 0.15171 0.0
C398 C 0.30675 0.60901 0.13412 0.0
C399 C 0.30261 0.59964 0.12194 0.0
C400 C 0.31926 0.63161 0.11337 0.0
C401 C 0.34086 0.67318 0.11723 0.0
C402 C 0.34501 0.68254 0.12946 0.0
H403 H 0.22823 0.63331 0.15739 0.0
H404 H 0.25277 0.64465 0.14288 0.0
H405 H 0.2393 0.59658 0.15027 0.0
H406 H 0.29349 0.58386 0.14056 0.0
H407 H 0.28607 0.56729 0.11926 0.0
H408 H 0.73989 0.32496 0.45368 0.0
H409 H 0.73146 0.33455 0.47491 0.0
H410 H 0.62786 0.352 0.46663 0.0
H411 H 0.6361 0.34246 0.44526 0.0
H412 H 0.72742 0.40357 0.48769 0.0
H413 H 0.58359 0.24833 0.48984 0.0
H414 H 0.62071 0.26271 0.47781 0.0
H415 H 0.58625 0.2834 0.47831 0.0
C416 C 0.71554 0.33125 0.45635 0.0
C417 C 0.68837 0.33259 0.44784 0.0
C418 C 0.71092 0.33688 0.46847 0.0
C419 C 0.6789 0.34364 0.47229 0.0
C420 C 0.65262 0.34654 0.46381 0.0
H421 H 0.57993 0.32575 0.54351 0.0
H422 H 0.59428 0.3369 0.52213 0.0
C423 C 0.65738 0.34114 0.45164 0.0
C424 C 0.67146 0.34471 0.48523 0.0
H425 H 0.60598 0.28666 0.50766 0.0
C426 C 0.70077 0.37823 0.49209 0.0
C427 C 0.63675 0.31146 0.49087 0.0
C428 C 0.60503 0.2742 0.4839 0.0
C429 C 0.69608 0.37947 0.50453 0.0
C430 C 0.66173 0.34577 0.51022 0.0
C431 C 0.63227 0.31249 0.50329 0.0
C432 C 0.65553 0.34374 0.52335 0.0
C433 C 0.72759 0.41703 0.51142 0.0
C434 C 0.68542 0.34432 0.53118 0.0
C435 C 0.67742 0.33833 0.54348 0.0
C436 C 0.63913 0.33094 0.54806 0.0
C437 C 0.60965 0.33115 0.54023 0.0
C438 C 0.61782 0.33757 0.52801 0.0
H439 H 0.74415 0.44465 0.50552 0.0
H440 H 0.71267 0.42474 0.51882 0.0
H441 H 0.7511 0.41037 0.51533 0.0
H442 H 0.71434 0.34803 0.52776 0.0
H443 H 0.70056 0.33808 0.54931 0.0
H444 H 0.42531 0.73516 0.78706 0.0
H445 H 0.40554 0.72584 0.80817 0.0
H446 H 0.27929 0.63666 0.79856 0.0
H447 H 0.29875 0.646 0.7773 0.0
H448 H 0.33275 0.73178 0.81989 0.0
H449 H 0.32706 0.57913 0.82252 0.0
H450 H 0.35686 0.61715 0.81118 0.0
H451 H 0.30127 0.58822 0.81022 0.0
C452 C 0.39326 0.71372 0.78942 0.0
C453 C 0.36358 0.69109 0.78055 0.0
C454 C 0.38204 0.70861 0.80146 0.0
C455 C 0.34108 0.68055 0.80485 0.0
C456 C 0.3111 0.65842 0.79605 0.0
H457 H 0.24834 0.58336 0.87561 0.0
H458 H 0.25421 0.59794 0.8542 0.0
C459 C 0.32224 0.66376 0.78395 0.0
C460 C 0.33055 0.67318 0.81768 0.0
H461 H 0.3147 0.60508 0.84021 0.0
C462 C 0.32844 0.70399 0.82437 0.0
C463 C 0.32505 0.63691 0.82339 0.0
C464 C 0.3278 0.60337 0.81653 0.0
C465 C 0.32086 0.69939 0.83674 0.0
C466 C 0.31647 0.66355 0.84255 0.0
C467 C 0.31806 0.63254 0.83576 0.0
C468 C 0.31081 0.65745 0.85566 0.0
C469 C 0.31712 0.73268 0.84341 0.0
C470 C 0.34042 0.68633 0.86365 0.0
C471 C 0.33682 0.67828 0.87595 0.0
C472 C 0.30403 0.64084 0.8804 0.0
C473 C 0.27407 0.6124 0.87242 0.0
C474 C 0.27736 0.62069 0.86018 0.0
H475 H 0.30816 0.75055 0.83733 0.0
H476 H 0.29382 0.71916 0.85071 0.0
H477 H 0.34766 0.75483 0.84742 0.0
H478 H 0.36707 0.71441 0.86035 0.0
H479 H 0.36049 0.70055 0.88191 0.0
H480 H 0.68179 0.4141 0.11901 0.0
H481 H 0.67227 0.39602 0.14022 0.0
H482 H 0.64413 0.27144 0.13163 0.0
H483 H 0.65362 0.28931 0.11026 0.0
H484 H 0.60083 0.32671 0.15314 0.0
H485 H 0.7488 0.32283 0.15446 0.0
H486 H 0.73688 0.34789 0.14251 0.0
H487 H 0.71147 0.29224 0.14314 0.0
C488 C 0.67323 0.38272 0.1216 0.0
C489 C 0.66882 0.35318 0.113 0.0
C490 C 0.66762 0.37243 0.13372 0.0
C491 C 0.65782 0.33257 0.13745 0.0
C492 C 0.65197 0.30248 0.12888 0.0
H493 H 0.67658 0.25532 0.20931 0.0
H494 H 0.66227 0.25531 0.18801 0.0
C495 C 0.65735 0.3127 0.11671 0.0
C496 C 0.65663 0.32378 0.15037 0.0
H497 H 0.71298 0.3122 0.17254 0.0
C498 C 0.62506 0.32312 0.15741 0.0
C499 C 0.68839 0.31926 0.15584 0.0
C500 C 0.72355 0.32079 0.14867 0.0
C501 C 0.62451 0.31815 0.16988 0.0
C502 C 0.65701 0.31486 0.17541 0.0
C503 C 0.68809 0.31473 0.16829 0.0
C504 C 0.6604 0.31259 0.18857 0.0
C505 C 0.58903 0.31615 0.17697 0.0
C506 C 0.66357 0.34455 0.19601 0.0
C507 C 0.67135 0.3444 0.20826 0.0
C508 C 0.67685 0.31269 0.21317 0.0
C509 C 0.67273 0.28031 0.20575 0.0
C510 C 0.66449 0.28021 0.19358 0.0
H511 H 0.56098 0.30595 0.17131 0.0
H512 H 0.58073 0.29456 0.18467 0.0
H513 H 0.59835 0.34759 0.18046 0.0
H514 H 0.66156 0.3704 0.1923 0.0
H515 H 0.67463 0.36985 0.21377 0.0
H516 H 0.30328 0.62263 0.54957 0.0
H517 H 0.28708 0.60984 0.52815 0.0
H518 H 0.40464 0.71835 0.51965 0.0
H519 H 0.42148 0.73031 0.54086 0.0
H520 H 0.27741 0.6545 0.51145 0.0
H521 H 0.40938 0.63466 0.49827 0.0
H522 H 0.39562 0.63508 0.51373 0.0
H523 H 0.4279 0.68317 0.5059 0.0
C524 C 0.32562 0.64359 0.5431 0.0
C525 C 0.36376 0.67723 0.54685 0.0
C526 C 0.31643 0.63621 0.53089 0.0
C527 C 0.34518 0.66245 0.52228 0.0
C528 C 0.38265 0.69678 0.52608 0.0
H529 H 0.30919 0.72975 0.45304 0.0
H530 H 0.31403 0.71776 0.47424 0.0
C531 C 0.39204 0.70383 0.53822 0.0
C532 C 0.33559 0.65561 0.50933 0.0
H533 H 0.37875 0.65523 0.48242 0.0
C534 C 0.2992 0.6539 0.50511 0.0
C535 C 0.36339 0.65363 0.50104 0.0
C536 C 0.40097 0.65123 0.505 0.0
C537 C 0.2913 0.65314 0.49282 0.0
C538 C 0.32126 0.65553 0.48454 0.0
C539 C 0.35619 0.65431 0.48875 0.0
C540 C 0.31844 0.66234 0.47159 0.0
C541 C 0.25108 0.65021 0.48887 0.0
C542 C 0.3214 0.63638 0.46297 0.0
C543 C 0.31961 0.64379 0.45076 0.0
C544 C 0.31468 0.67717 0.44703 0.0
C545 C 0.3125 0.70347 0.45566 0.0
C546 C 0.31481 0.6964 0.4678 0.0
H547 H 0.22614 0.63337 0.49559 0.0
H548 H 0.25568 0.682 0.48798 0.0
H549 H 0.24045 0.63407 0.48013 0.0
H550 H 0.32475 0.61022 0.4657 0.0
H551 H 0.32138 0.62306 0.44428 0.0
H552 H 0.73588 0.4236 0.8742 0.0
H553 H 0.72847 0.40515 0.853 0.0
H554 H 0.63243 0.28037 0.86154 0.0
H555 H 0.63971 0.29854 0.88287 0.0
H556 H 0.73127 0.33366 0.84068 0.0
H557 H 0.58095 0.33253 0.8378 0.0
H558 H 0.61776 0.35873 0.84972 0.0
H559 H 0.58689 0.30309 0.84965 0.0
C560 C 0.71339 0.39211 0.87159 0.0
C561 C 0.6881 0.36255 0.88017 0.0
C562 C 0.70936 0.38163 0.85949 0.0
C563 C 0.6798 0.34156 0.85575 0.0
C564 C 0.6553 0.31154 0.8643 0.0
H565 H 0.58528 0.25554 0.78436 0.0
H566 H 0.59915 0.25936 0.80579 0.0
C567 C 0.6595 0.32194 0.87645 0.0
C568 C 0.67304 0.33226 0.84284 0.0
H569 H 0.60641 0.31936 0.82014 0.0
C570 C 0.70389 0.3302 0.83616 0.0
C571 C 0.63731 0.32791 0.83705 0.0
C572 C 0.6038 0.33087 0.84385 0.0
C573 C 0.69983 0.32371 0.82373 0.0
C574 C 0.66449 0.32033 0.81787 0.0
C575 C 0.63347 0.32192 0.82464 0.0
C576 C 0.65893 0.31578 0.80472 0.0
C577 C 0.7331 0.32001 0.81705 0.0
C578 C 0.68822 0.34597 0.79695 0.0
C579 C 0.68055 0.34358 0.78463 0.0
C580 C 0.64312 0.31142 0.77996 0.0
C581 C 0.61431 0.28083 0.78772 0.0
C582 C 0.6222 0.28293 0.79997 0.0
H583 H 0.75054 0.31036 0.82308 0.0
H584 H 0.71965 0.29724 0.80961 0.0
H585 H 0.75561 0.35074 0.81322 0.0
H586 H 0.71631 0.37217 0.80044 0.0
H587 H 0.70313 0.36769 0.77884 0.0
H588 H 0.84368 0.50278 0.07548 0.0
H589 H 0.91857 0.5275 0.07478 0.0
H590 H 0.8939 0.40259 0.08092 0.0
H591 H 0.81939 0.3777 0.0816 0.0
H592 H 0.96966 0.51877 0.09285 0.0
H593 H 0.9664 0.44007 0.05027 0.0
H594 H 0.9245 0.44841 0.05483 0.0
H595 H 0.92977 0.40713 0.06139 0.0
C596 C 0.85428 0.48065 0.0767 0.0
C597 C 0.82565 0.43829 0.07854 0.0
C598 C 0.89699 0.49478 0.07629 0.0
C599 C 0.91166 0.46673 0.07761 0.0
C600 C 0.88318 0.42461 0.07966 0.0
H601 H 0.15581 0.48707 0.07693 0.0
H602 H 0.0809 0.46225 0.07751 0.0
C603 C 0.84061 0.41051 0.08011 0.0
C604 C 0.95678 0.4814 0.07701 0.0
H605 H 0.02978 0.47142 0.06109 0.0
C606 C 0.98291 0.50865 0.08588 0.0
C607 C 0.97383 0.46783 0.06795 0.0
C608 C 0.94732 0.43951 0.058 0.0
C609 C 0.02562 0.52221 0.08605 0.0
C610 C 0.04278 0.50886 0.07693 0.0
C611 C 0.01658 0.48155 0.06807 0.0
C612 C 0.08798 0.52363 0.07631 0.0
C613 C 0.05178 0.54992 0.09615 0.0
C614 C 0.11668 0.56619 0.07517 0.0
C615 C 0.15927 0.58037 0.07488 0.0
C616 C 0.17409 0.55223 0.0756 0.0
C617 C 0.14531 0.50947 0.07639 0.0
C618 C 0.10257 0.49529 0.07673 0.0
H619 H 0.0325 0.54744 0.10404 0.0
H620 H 0.07571 0.5421 0.09898 0.0
H621 H 0.06787 0.58274 0.0931 0.0
H622 H 0.10613 0.58853 0.07452 0.0
H623 H 0.18062 0.61349 0.07416 0.0
H624 H 0.66234 0.15568 0.40935 0.0
H625 H 0.61223 0.08074 0.40856 0.0
H626 H 0.51356 0.10419 0.41832 0.0
H627 H 0.56311 0.17874 0.4191 0.0
H628 H 0.55594 0.02741 0.42723 0.0
H629 H 0.47244 0.03519 0.38695 0.0
H630 H 0.52365 0.07651 0.39104 0.0
H631 H 0.47867 0.0707 0.39876 0.0
C632 C 0.62999 0.1448 0.41136 0.0
C633 C 0.61665 0.17312 0.41423 0.0
C634 C 0.60143 0.10205 0.41091 0.0
C635 C 0.5591 0.08705 0.41319 0.0
C636 C 0.54594 0.11519 0.41631 0.0
H637 H 0.33471 0.84337 0.41273 0.0
H638 H 0.38532 0.9181 0.41364 0.0
C639 C 0.57439 0.15778 0.41681 0.0
C640 C 0.52854 0.04196 0.4124 0.0
H641 H 0.44257 0.97063 0.39712 0.0
C642 C 0.53128 0.01489 0.42061 0.0
C643 C 0.49624 0.02585 0.40381 0.0
C644 C 0.49258 0.05342 0.39456 0.0
C645 C 0.50209 0.97215 0.42061 0.0
C646 C 0.46988 0.95593 0.41196 0.0
C647 C 0.46719 0.98308 0.40375 0.0
C648 C 0.4391 0.91079 0.41117 0.0
C649 C 0.50544 0.94499 0.43007 0.0
C650 C 0.45241 0.88198 0.4092 0.0
C651 C 0.42369 0.83945 0.40874 0.0
C652 C 0.38093 0.8248 0.41008 0.0
C653 C 0.36745 0.85372 0.41169 0.0
C654 C 0.39632 0.89637 0.41222 0.0
H655 H 0.52357 0.96346 0.43793 0.0
H656 H 0.47424 0.92064 0.43316 0.0
H657 H 0.5217 0.92941 0.42626 0.0
H658 H 0.48511 0.89239 0.40803 0.0
H659 H 0.43507 0.81801 0.40737 0.0
H660 H 0.49915 0.34384 0.74214 0.0
H661 H 0.4748 0.39435 0.74203 0.0
H662 H 0.59923 0.49314 0.74961 0.0
H663 H 0.62375 0.44319 0.7497 0.0
H664 H 0.4825 0.45165 0.76095 0.0
H665 H 0.56447 0.53305 0.71932 0.0
H666 H 0.55536 0.48199 0.72323 0.0
H667 H 0.59629 0.52729 0.7304 0.0
C668 C 0.52126 0.37632 0.74379 0.0
C669 C 0.56338 0.38955 0.74588 0.0
C670 C 0.50733 0.4051 0.74372 0.0
C671 C 0.53536 0.44754 0.74563 0.0
C672 C 0.57725 0.46066 0.7479 0.0
H673 H 0.51467 0.6715 0.74649 0.0
H674 H 0.53977 0.62162 0.74704 0.0
C675 C 0.59113 0.43199 0.74802 0.0
C676 C 0.52092 0.47822 0.7454 0.0
H677 H 0.53207 0.56334 0.73041 0.0
C678 C 0.49313 0.47596 0.75425 0.0
C679 C 0.53519 0.51009 0.7367 0.0
C680 C 0.56423 0.51325 0.7268 0.0
C681 C 0.47962 0.50514 0.75474 0.0
C682 C 0.49355 0.53683 0.74596 0.0
C683 C 0.52148 0.53912 0.73714 0.0
C684 C 0.47858 0.56716 0.7456 0.0
C685 C 0.4513 0.50227 0.76483 0.0
C686 C 0.43602 0.55318 0.74438 0.0
C687 C 0.42168 0.58147 0.74412 0.0
C688 C 0.44965 0.62446 0.74493 0.0
C689 C 0.49239 0.63858 0.74588 0.0
C690 C 0.50674 0.61013 0.7462 0.0
H691 H 0.45372 0.48489 0.77258 0.0
H692 H 0.45857 0.53362 0.7679 0.0
H693 H 0.41863 0.48542 0.76165 0.0
H694 H 0.41381 0.52029 0.74357 0.0
H695 H 0.38858 0.56958 0.74326 0.0
H696 H 0.49404 0.1553 0.58674 0.0
H697 H 0.46882 0.08026 0.58728 0.0
H698 H 0.59195 0.10373 0.57887 0.0
H699 H 0.61733 0.17837 0.57835 0.0
H700 H 0.47381 0.0285 0.56857 0.0
H701 H 0.5595 0.03176 0.60967 0.0
H702 H 0.5506 0.07374 0.60562 0.0
H703 H 0.59061 0.06827 0.59828 0.0
C704 C 0.51567 0.1444 0.585 0.0
C705 C 0.55769 0.17274 0.58256 0.0
C706 C 0.50125 0.1016 0.58531 0.0
C707 C 0.52869 0.08656 0.5833 0.0
C708 C 0.57044 0.11475 0.58066 0.0
H709 H 0.50957 0.84329 0.58224 0.0
H710 H 0.53349 0.91801 0.58192 0.0
C711 C 0.58481 0.15739 0.5803 0.0
C712 C 0.51382 0.04137 0.58381 0.0
H713 H 0.52639 0.96836 0.59885 0.0
C714 C 0.48505 0.01523 0.57523 0.0
C715 C 0.52883 0.0243 0.59246 0.0
C716 C 0.55884 0.05083 0.60211 0.0
C717 C 0.47146 0.9725 0.57491 0.0
C718 C 0.48635 0.95534 0.5836 0.0
C719 C 0.51508 0.98154 0.5922 0.0
C720 C 0.47205 0.91018 0.584 0.0
C721 C 0.44214 0.94637 0.56508 0.0
C722 C 0.42977 0.88108 0.58554 0.0
C723 C 0.41608 0.83856 0.58567 0.0
C724 C 0.44447 0.82422 0.58441 0.0
C725 C 0.48698 0.8534 0.58321 0.0
C726 C 0.50065 0.89605 0.58302 0.0
H727 H 0.44328 0.96569 0.55735 0.0
H728 H 0.44953 0.92251 0.56188 0.0
H729 H 0.40987 0.93021 0.56858 0.0
H730 H 0.40727 0.89126 0.58663 0.0
H731 H 0.38316 0.81689 0.58672 0.0
H732 H 0.33257 0.4945 0.91588 0.0
H733 H 0.38294 0.46992 0.9156 0.0
H734 H 0.48333 0.59633 0.91226 0.0
H735 H 0.43356 0.62105 0.91252 0.0
H736 H 0.44618 0.48645 0.89701 0.0
H737 H 0.51415 0.54803 0.94181 0.0
H738 H 0.46391 0.53987 0.93731 0.0
H739 H 0.5105 0.58425 0.93192 0.0
C740 C 0.36537 0.51699 0.91508 0.0
C741 C 0.3791 0.5597 0.91426 0.0
C742 C 0.39406 0.50293 0.91492 0.0
C743 C 0.43685 0.5314 0.91407 0.0
C744 C 0.4505 0.57393 0.91311 0.0
H745 H 0.66141 0.51217 0.91513 0.0
H746 H 0.61137 0.53702 0.91452 0.0
C747 C 0.42195 0.58795 0.9132 0.0
C748 C 0.46743 0.51686 0.91403 0.0
H749 H 0.54785 0.52094 0.92996 0.0
C750 C 0.46829 0.49374 0.90423 0.0
C751 C 0.49647 0.52687 0.92341 0.0
C752 C 0.49622 0.55085 0.93427 0.0
C753 C 0.49788 0.48082 0.90347 0.0
C754 C 0.52671 0.49044 0.91292 0.0
C755 C 0.52584 0.51367 0.92271 0.0
C756 C 0.5572 0.47564 0.913 0.0
C757 C 0.49858 0.45787 0.89241 0.0
C758 C 0.54339 0.43295 0.91249 0.0
C759 C 0.57182 0.41878 0.91276 0.0
C760 C 0.61471 0.44697 0.91371 0.0
C761 C 0.62858 0.48973 0.91435 0.0
C762 C 0.60003 0.50393 0.91402 0.0
H763 H 0.4838 0.46423 0.88468 0.0
H764 H 0.53086 0.46656 0.88992 0.0
H765 H 0.48089 0.42394 0.89417 0.0
H766 H 0.5105 0.41045 0.91203 0.0
H767 H 0.56006 0.3856 0.91236 0.0
H768 H 0.17108 0.68177 0.24679 0.0
H769 H 0.0962 0.6321 0.24584 0.0
H770 H 0.11946 0.53127 0.25273 0.0
H771 H 0.19404 0.58039 0.25337 0.0
H772 H 0.0663 0.51387 0.23427 0.0
H773 H 0.0157 0.57192 0.27281 0.0
H774 H 0.04442 0.61078 0.26171 0.0
H775 H 0.06958 0.58821 0.27008 0.0
C776 C 0.16013 0.64905 0.2482 0.0
C777 C 0.18841 0.63499 0.25018 0.0
C778 C 0.11734 0.62072 0.24771 0.0
C779 C 0.10214 0.57797 0.24937 0.0
C780 C 0.13042 0.56406 0.25144 0.0
H781 H 0.86 0.35221 0.25116 0.0
H782 H 0.9346 0.40325 0.25146 0.0
C783 C 0.17306 0.59222 0.25183 0.0
C784 C 0.05699 0.54733 0.24855 0.0
H785 H 0.96245 0.51984 0.2608 0.0
C786 C 0.04362 0.5151 0.2401 0.0
C787 C 0.0274 0.54895 0.25616 0.0
C788 C 0.03994 0.58157 0.26578 0.0
C789 C 1.00149 0.48473 0.23898 0.0
C790 C 0.97198 0.48639 0.24659 0.0
C791 C 0.98522 0.51871 0.25498 0.0
C792 C 0.92712 0.455 0.24597 0.0
C793 C 0.98876 0.45149 0.22955 0.0
C794 C 0.89826 0.46726 0.24287 0.0
C795 C 0.85578 0.43826 0.2427 0.0
C796 C 0.84128 0.39646 0.24571 0.0
C797 C 0.87025 0.38413 0.24873 0.0
C798 C 0.91285 0.41321 0.24887 0.0
H799 H 0.01343 0.45995 0.22271 0.0
H800 H 0.98266 0.42206 0.23386 0.0
H801 H 0.95979 0.44573 0.22499 0.0
H802 H 0.90863 0.49937 0.24064 0.0
H803 H 0.83425 0.44878 0.24036 0.0
H804 H 0.66589 0.50471 0.07621 0.0
H805 H 0.6166 0.53051 0.0758 0.0
H806 H 0.51536 0.40553 0.07043 0.0
H807 H 0.56419 0.37964 0.07072 0.0
H808 H 0.51212 0.46539 0.05551 0.0
H809 H 0.53525 0.51281 0.10333 0.0
H810 H 0.58183 0.53432 0.09448 0.0
H811 H 0.55262 0.47926 0.0971 0.0
C812 C 0.63316 0.48283 0.07487 0.0
C813 C 0.61887 0.44015 0.07357 0.0
C814 C 0.60504 0.49754 0.07471 0.0
C815 C 0.56228 0.4698 0.07326 0.0
C816 C 0.54819 0.4274 0.07161 0.0
H817 H 0.33688 0.4882 0.07232 0.0
H818 H 0.38703 0.46356 0.07127 0.0
C819 C 0.57616 0.41269 0.0718 0.0
C820 C 0.5319 0.48459 0.07364 0.0
H821 H 0.49139 0.52882 0.092 0.0
C822 C 0.50752 0.47925 0.06348 0.0
C823 C 0.52588 0.50243 0.08408 0.0
C824 C 0.54997 0.50731 0.09542 0.0
C825 C 0.47771 0.49197 0.0634 0.0
C826 C 0.47166 0.50978 0.07385 0.0
C827 C 0.49606 0.5151 0.08401 0.0
C828 C 0.44095 0.52416 0.07438 0.0
C829 C 0.45362 0.48711 0.05207 0.0
C830 C 0.45452 0.5661 0.07673 0.0
C831 C 0.42604 0.5801 0.07741 0.0
C832 C 0.3833 0.55239 0.07581 0.0
C833 C 0.36962 0.51027 0.07354 0.0
C834 C 0.39825 0.49624 0.07287 0.0
H835 H 0.46887 0.48251 0.04413 0.0
H836 H 0.4221 0.45949 0.0529 0.0
H837 H 0.45014 0.51473 0.05051 0.0
H838 H 0.48728 0.58811 0.07798 0.0
H839 H 0.4376 0.61274 0.07919 0.0
H840 H 0.81663 0.43135 0.40181 0.0
H841 H 0.89111 0.48086 0.40109 0.0
H842 H 0.91665 0.38398 0.41141 0.0
H843 H 0.84178 0.33385 0.41198 0.0
H844 H 0.94531 0.50308 0.4201 0.0
H845 H 0.99519 0.43818 0.38311 0.0
H846 H 0.9414 0.4228 0.38566 0.0
H847 H 0.96631 0.40165 0.39473 0.0
C848 C 0.83806 0.42037 0.40378 0.0
C849 C 0.82335 0.37866 0.40694 0.0
C850 C 0.88064 0.44877 0.40338 0.0
C851 C 0.90947 0.43611 0.4061 0.0
C852 C 0.89497 0.39428 0.40906 0.0
H853 H 0.17583 0.56287 0.41497 0.0
H854 H 0.10141 0.5135 0.41384 0.0
C855 C 0.85222 0.3657 0.40942 0.0
C856 C 0.95446 0.46738 0.4065 0.0
H857 H 0.04867 0.49294 0.39441 0.0
C858 C 0.96792 0.50102 0.41444 0.0
C859 C 0.98386 0.46459 0.39911 0.0
C860 C 0.97104 0.43009 0.39009 0.0
C861 C 0.01007 0.5315 0.41537 0.0
C862 C 0.0395 0.52866 0.40801 0.0
C863 C 0.02603 0.4951 0.40003 0.0
C864 C 0.08461 0.55933 0.40873 0.0
C865 C 0.02285 0.5658 0.42447 0.0
C866 C 0.1 0.6016 0.40617 0.0
C867 C 0.14271 0.63009 0.40686 0.0
C868 C 0.17068 0.61664 0.41003 0.0
C869 C 0.15511 0.57427 0.41251 0.0
C870 C 0.11256 0.54594 0.41185 0.0
H871 H 0.99838 0.55791 0.43133 0.0
H872 H 0.05206 0.57244 0.42905 0.0
H873 H 0.02837 0.59457 0.41986 0.0
H874 H 0.07904 0.61248 0.40352 0.0
H875 H 0.15383 0.66247 0.40482 0.0
H876 H 0.4963 0.16353 0.74133 0.0
H877 H 0.4703 0.08839 0.74087 0.0
H878 H 0.59561 0.11184 0.73672 0.0
H879 H 0.62169 0.18661 0.73704 0.0
H880 H 0.53783 0.04874 0.72163 0.0
H881 H 0.48444 0.02462 0.7689 0.0
H882 H 0.46371 0.04936 0.7596 0.0
H883 H 0.51845 0.07555 0.76275 0.0
C884 C 0.51822 0.15261 0.74023 0.0
C885 C 0.56104 0.18095 0.7393 0.0
C886 C 0.50338 0.10974 0.74004 0.0
C887 C 0.53114 0.0946 0.73896 0.0
C888 C 0.57369 0.12286 0.73762 0.0
H889 H 0.51315 0.85099 0.74007 0.0
H890 H 0.53772 0.92572 0.73865 0.0
C891 C 0.58852 0.16559 0.73782 0.0
C892 C 0.51621 0.04938 0.73945 0.0
H893 H 0.46951 0.96462 0.75778 0.0
C894 C 0.5229 0.0303 0.72952 0.0
C895 C 0.497 0.02552 0.7498 0.0
C896 C 0.49072 0.04475 0.76092 0.0
C897 C 0.51021 0.98775 0.72959 0.0
C898 C 0.49098 0.96391 0.73994 0.0
C899 C 0.48429 0.98301 0.74986 0.0
C900 C 0.47661 0.91883 0.74061 0.0
C901 C 0.5167 0.96849 0.71852 0.0
C902 C 0.43434 0.89036 0.74241 0.0
C903 C 0.42035 0.8479 0.74329 0.0
C904 C 0.44839 0.833 0.74245 0.0
C905 C 0.49082 0.86154 0.74071 0.0
C906 C 0.50483 0.90417 0.73982 0.0
H907 H 0.52269 0.98841 0.71051 0.0
H908 H 0.54398 0.96432 0.71986 0.0
H909 H 0.4892 0.93747 0.71674 0.0
H910 H 0.41208 0.90101 0.7431 0.0
H911 H 0.38746 0.82673 0.74465 0.0
H912 H 0.51196 0.66399 0.58775 0.0
H913 H 0.53741 0.61441 0.58888 0.0
H914 H 0.41416 0.51365 0.58107 0.0
H915 H 0.38875 0.56264 0.5798 0.0
H916 H 0.50984 0.54445 0.60418 0.0
H917 H 0.48641 0.49748 0.55643 0.0
H918 H 0.4867 0.54355 0.56171 0.0
H919 H 0.44106 0.49328 0.56348 0.0
C920 C 0.49044 0.6313 0.5862 0.0
C921 C 0.44844 0.61725 0.58362 0.0
C922 C 0.50495 0.60304 0.58687 0.0
C923 C 0.47777 0.56045 0.58488 0.0
C924 C 0.43584 0.54645 0.58239 0.0
H925 H 0.49492 0.33542 0.58508 0.0
H926 H 0.47062 0.38593 0.58529 0.0
C927 C 0.42135 0.57453 0.58173 0.0
C928 C 0.49267 0.53021 0.58566 0.0
H929 H 0.50023 0.45583 0.56972 0.0
C930 C 0.50807 0.52527 0.59664 0.0
C931 C 0.49011 0.50512 0.57581 0.0
C932 C 0.47554 0.51029 0.56366 0.0
C933 C 0.52016 0.49523 0.59808 0.0
C934 C 0.51724 0.46992 0.58825 0.0
C935 C 0.50206 0.47503 0.57727 0.0
C936 C 0.5312 0.43895 0.58901 0.0
C937 C 0.53513 0.49022 0.61018 0.0
C938 C 0.57321 0.45206 0.59105 0.0
C939 C 0.58711 0.42342 0.59091 0.0
C940 C 0.55928 0.38106 0.58869 0.0
C941 C 0.51703 0.3678 0.58687 0.0
C942 C 0.50315 0.3966 0.58696 0.0
H943 H 0.52552 0.50413 0.61742 0.0
H944 H 0.52307 0.45688 0.61226 0.0
H945 H 0.56959 0.50615 0.61014 0.0
H946 H 0.5955 0.48467 0.59244 0.0
H947 H 0.61989 0.43464 0.5923 0.0
H948 H 0.15297 0.49465 0.9211 0.0
H949 H 0.07809 0.46942 0.92221 0.0
H950 H 0.10264 0.59582 0.92171 0.0
H951 H 0.17719 0.62119 0.9208 0.0
H952 H 0.04314 0.54685 0.9385 0.0
H953 H 0.00791 0.46962 0.89406 0.0
H954 H 0.03404 0.45286 0.90422 0.0
H955 H 0.06024 0.50556 0.89888 0.0
C956 C 0.14235 0.51701 0.92128 0.0
C957 C 0.17094 0.55987 0.92079 0.0
C958 C 0.0996 0.50257 0.92185 0.0
C959 C 0.08479 0.53076 0.92184 0.0
C960 C 0.11337 0.57354 0.92167 0.0
H961 H 0.8412 0.51272 0.91994 0.0
H962 H 0.91608 0.53779 0.92117 0.0
C963 C 0.15598 0.58795 0.92113 0.0
C964 C 0.03955 0.51596 0.92187 0.0
H965 H 0.95055 0.46009 0.90566 0.0
C966 C 0.02286 0.52792 0.93132 0.0
C967 C 0.01324 0.49149 0.91245 0.0
C968 C 0.02971 0.47938 0.90177 0.0
C969 C 0.98038 0.51544 0.9317 0.0
C970 C 0.9541 0.49085 0.9223 0.0
C971 C 0.9708 0.47892 0.91286 0.0
C972 C 0.90895 0.47634 0.92214 0.0
C973 C 0.96382 0.52794 0.94227 0.0
C974 C 0.88023 0.4336 0.92216 0.0
C975 C 0.8377 0.4193 0.92141 0.0
C976 C 0.82292 0.44745 0.92055 0.0
C977 C 0.85166 0.49032 0.92065 0.0
C978 C 0.89438 0.50466 0.92141 0.0
H979 H 0.98572 0.53837 0.94995 0.0
H980 H 0.95907 0.55405 0.93962 0.0
H981 H 0.93342 0.50172 0.94522 0.0
H982 H 0.8908 0.41123 0.92269 0.0
H983 H 0.81639 0.38606 0.92135 0.0
H984 H 0.35454 0.86017 0.2563 0.0
H985 H 0.40553 0.93454 0.25794 0.0
H986 H 0.50362 0.91001 0.24829 0.0
H987 H 0.45316 0.83585 0.24684 0.0
H988 H 0.52397 0.96301 0.26769 0.0
H989 H 0.46248 0.01465 0.2302 0.0
H990 H 0.42478 0.98505 0.24149 0.0
H991 H 0.44701 0.96077 0.23259 0.0
C992 C 0.38695 0.8707 0.25449 0.0
C993 C 0.39982 0.84222 0.25138 0.0
C994 C 0.41601 0.91318 0.25538 0.0
C995 C 0.4583 0.92785 0.25308 0.0
C996 C 0.47116 0.89938 0.25007 0.0
H997 H 0.68378 0.17084 0.25029 0.0
H998 H 0.63417 0.09585 0.25098 0.0
C999 C 0.44223 0.85702 0.24922 0.0
C1000 C 0.48938 0.9728 0.25386 0.0
H1001 H 0.51618 0.0674 0.24184 0.0
C1002 C 0.52236 0.98587 0.26203 0.0
C1003 C 0.48727 0.00249 0.24643 0.0
C1004 C 0.45373 0.99012 0.2371 0.0
C1005 C 0.55292 0.02799 0.2631 0.0
C1006 C 0.55069 0.05766 0.2557 0.0
C1007 C 0.51774 0.04456 0.24753 0.0
C1008 C 0.58182 0.10262 0.25629 0.0
C1009 C 0.58685 0.0405 0.2723 0.0
C1010 C 0.56887 0.1312 0.25905 0.0
C1011 C 0.59696 0.17382 0.25859 0.0
C1012 C 0.63862 0.1888 0.25533 0.0
C1013 C 0.65194 0.16018 0.25291 0.0
C1014 C 0.62368 0.11737 0.25334 0.0
H1015 H 0.57857 0.01592 0.27915 0.0
H1016 H 0.61573 0.04596 0.26778 0.0
H1017 H 0.59348 0.06974 0.27687 0.0
H1018 H 0.53674 0.12049 0.26133 0.0
H1019 H 0.58573 0.19507 0.26053 0.0
loop_
_geom_bond_atom_site_label_1
_geom_bond_atom_site_label_2
_geom_bond_distance
_geom_bond_site_symmetry_2
_ccdc_geom_bond_type
In0 O1 2.294 . S
In0 O2 2.326 . S
In0 O6 2.266 . S
In0 O7 2.326 . S
In0 O8 2.266 . S
In0 O9 2.326 . S
In0 O11 2.294 . S
In0 O12 2.326 . S
O1 In0 2.294 . S
O1 C10 1.240 . S
O2 In0 2.326 . S
O2 C10 1.252 . S
C3 O6 1.252 . S
C3 O7 1.260 . S
C4 O11 1.240 . S
C4 O12 1.252 . S
C5 O8 1.252 . S
C5 O9 1.260 . S
O6 In0 2.266 . S
O6 C3 1.252 . S
O7 In0 2.326 . S
O7 C3 1.260 . S
O8 In0 2.266 . S
O8 C5 1.252 . S
O9 In0 2.326 . S
O9 C5 1.260 . S
C10 O1 1.240 . S
C10 O2 1.252 . S
O11 In0 2.294 . S
O11 C4 1.240 . S
O12 In0 2.326 . S
O12 C4 1.252 . S
In13 O14 2.294 . S
In13 O15 2.326 . S
In13 O19 2.266 . S
In13 O20 2.326 . S
In13 O21 2.266 . S
In13 O22 2.326 . S
In13 O24 2.294 . S
In13 O25 2.326 . S
O14 In13 2.294 . S
O14 C23 1.240 . S
O15 In13 2.326 . S
O15 C23 1.252 . S
C16 O19 1.252 . S
C16 O20 1.260 . S
C17 O24 1.240 . S
C17 O25 1.252 . S
C18 O21 1.252 . S
C18 O22 1.260 . S
O19 In13 2.266 . S
O19 C16 1.252 . S
O20 In13 2.326 . S
O20 C16 1.260 . S
O21 In13 2.266 . S
O21 C18 1.252 . S
O22 In13 2.326 . S
O22 C18 1.260 . S
C23 O14 1.240 . S
C23 O15 1.252 . S
O24 In13 2.294 . S
O24 C17 1.240 . S
O25 In13 2.326 . S
O25 C17 1.252 . S
In26 O27 2.294 . S
In26 O28 2.326 . S
In26 O32 2.266 . S
In26 O33 2.326 . S
In26 O34 2.266 . S
In26 O35 2.326 . S
In26 O37 2.294 . S
In26 O38 2.326 . S
O27 In26 2.294 . S
O27 C36 1.240 . S
O28 In26 2.326 . S
O28 C36 1.252 . S
C29 O32 1.252 . S
C29 O33 1.260 . S
C30 O37 1.240 . S
C30 O38 1.252 . S
C31 O34 1.252 . S
C31 O35 1.260 . S
O32 In26 2.266 . S
O32 C29 1.252 . S
O33 In26 2.326 . S
O33 C29 1.260 . S
O34 In26 2.266 . S
O34 C31 1.252 . S
O35 In26 2.326 . S
O35 C31 1.260 . S
C36 O27 1.240 . S
C36 O28 1.252 . S
O37 In26 2.294 . S
O37 C30 1.240 . S
O38 In26 2.326 . S
O38 C30 1.252 . S
In39 O40 2.294 . S
In39 O41 2.326 . S
In39 O45 2.266 . S
In39 O46 2.326 . S
In39 O47 2.266 . S
In39 O48 2.326 . S
In39 O50 2.294 . S
In39 O51 2.326 . S
O40 In39 2.294 . S
O40 C49 1.240 . S
O41 In39 2.326 . S
O41 C49 1.252 . S
C42 O45 1.252 . S
C42 O46 1.260 . S
C43 O50 1.240 . S
C43 O51 1.252 . S
C44 O47 1.252 . S
C44 O48 1.260 . S
O45 In39 2.266 . S
O45 C42 1.252 . S
O46 In39 2.326 . S
O46 C42 1.260 . S
O47 In39 2.266 . S
O47 C44 1.252 . S
O48 In39 2.326 . S
O48 C44 1.260 . S
C49 O40 1.240 . S
C49 O41 1.252 . S
O50 In39 2.294 . S
O50 C43 1.240 . S
O51 In39 2.326 . S
O51 C43 1.252 . S
In52 O53 2.294 . S
In52 O54 2.326 . S
In52 O58 2.266 . S
In52 O59 2.326 . S
In52 O60 2.266 . S
In52 O61 2.326 . S
In52 O63 2.294 . S
In52 O64 2.326 . S
O53 In52 2.294 . S
O53 C62 1.240 . S
O54 In52 2.326 . S
O54 C62 1.252 . S
C55 O58 1.252 . S
C55 O59 1.260 . S
C56 O63 1.240 . S
C56 O64 1.252 . S
C57 O60 1.252 . S
C57 O61 1.260 . S
O58 In52 2.266 . S
O58 C55 1.252 . S
O59 In52 2.326 . S
O59 C55 1.260 . S
O60 In52 2.266 . S
O60 C57 1.252 . S
O61 In52 2.326 . S
O61 C57 1.260 . S
C62 O53 1.240 . S
C62 O54 1.252 . S
O63 In52 2.294 . S
O63 C56 1.240 . S
O64 In52 2.326 . S
O64 C56 1.252 . S
In65 O66 2.294 . S
In65 O67 2.326 . S
In65 O71 2.266 . S
In65 O72 2.326 . S
In65 O73 2.266 . S
In65 O74 2.326 . S
In65 O76 2.294 . S
In65 O77 2.326 . S
O66 In65 2.294 . S
O66 C75 1.240 . S
O67 In65 2.326 . S
O67 C75 1.252 . S
C68 O71 1.252 . S
C68 O72 1.260 . S
C69 O76 1.240 . S
C69 O77 1.252 . S
C70 O73 1.252 . S
C70 O74 1.260 . S
O71 In65 2.266 . S
O71 C68 1.252 . S
O72 In65 2.326 . S
O72 C68 1.260 . S
O73 In65 2.266 . S
O73 C70 1.252 . S
O74 In65 2.326 . S
O74 C70 1.260 . S
C75 O66 1.240 . S
C75 O67 1.252 . S
O76 In65 2.294 . S
O76 C69 1.240 . S
O77 In65 2.326 . S
O77 C69 1.252 . S
In78 O79 2.294 . S
In78 O80 2.326 . S
In78 O84 2.266 . S
In78 O85 2.326 . S
In78 O86 2.266 . S
In78 O87 2.326 . S
In78 O89 2.294 . S
In78 O90 2.326 . S
O79 In78 2.294 . S
O79 C88 1.240 . S
O80 In78 2.326 . S
O80 C88 1.252 . S
C81 O84 1.252 . S
C81 O85 1.260 . S
C82 O89 1.240 . S
C82 O90 1.252 . S
C83 O86 1.252 . S
C83 O87 1.260 . S
O84 In78 2.266 . S
O84 C81 1.252 . S
O85 In78 2.326 . S
O85 C81 1.260 . S
O86 In78 2.266 . S
O86 C83 1.252 . S
O87 In78 2.326 . S
O87 C83 1.260 . S
C88 O79 1.240 . S
C88 O80 1.252 . S
O89 In78 2.294 . S
O89 C82 1.240 . S
O90 In78 2.326 . S
O90 C82 1.252 . S
In91 O92 2.294 . S
In91 O93 2.326 . S
In91 O97 2.266 . S
In91 O98 2.326 . S
In91 O99 2.266 . S
In91 O100 2.326 . S
In91 O102 2.294 . S
In91 O103 2.326 . S
O92 In91 2.294 . S
O92 C101 1.240 . S
O93 In91 2.326 . S
O93 C101 1.252 . S
C94 O97 1.252 . S
C94 O98 1.260 . S
C95 O102 1.240 . S
C95 O103 1.252 . S
C96 O99 1.252 . S
C96 O100 1.260 . S
O97 In91 2.266 . S
O97 C94 1.252 . S
O98 In91 2.326 . S
O98 C94 1.260 . S
O99 In91 2.266 . S
O99 C96 1.252 . S
O100 In91 2.326 . S
O100 C96 1.260 . S
C101 O92 1.240 . S
C101 O93 1.252 . S
O102 In91 2.294 . S
O102 C95 1.240 . S
O103 In91 2.326 . S
O103 C95 1.252 . S
In104 O105 2.294 . S
In104 O106 2.326 . S
In104 O110 2.266 . S
In104 O111 2.326 . S
In104 O112 2.266 . S
In104 O113 2.326 . S
In104 O115 2.294 . S
In104 O116 2.326 . S
O105 In104 2.294 . S
O105 C114 1.240 . S
O106 In104 2.326 . S
O106 C114 1.252 . S
C107 O110 1.252 . S
C107 O111 1.260 . S
C108 O115 1.240 . S
C108 O116 1.252 . S
C109 O112 1.252 . S
C109 O113 1.260 . S
O110 In104 2.266 . S
O110 C107 1.252 . S
O111 In104 2.326 . S
O111 C107 1.260 . S
O112 In104 2.266 . S
O112 C109 1.252 . S
O113 In104 2.326 . S
O113 C109 1.260 . S
C114 O105 1.240 . S
C114 O106 1.252 . S
O115 In104 2.294 . S
O115 C108 1.240 . S
O116 In104 2.326 . S
O116 C108 1.252 . S
In117 O118 2.294 . S
In117 O119 2.326 . S
In117 O123 2.266 . S
In117 O124 2.326 . S
In117 O125 2.266 . S
In117 O126 2.326 . S
In117 O128 2.294 . S
In117 O129 2.326 . S
O118 In117 2.294 . S
O118 C127 1.240 . S
O119 In117 2.326 . S
O119 C127 1.252 . S
C120 O123 1.252 . S
C120 O124 1.260 . S
C121 O128 1.240 . S
C121 O129 1.252 . S
C122 O125 1.252 . S
C122 O126 1.260 . S
O123 In117 2.266 . S
O123 C120 1.252 . S
O124 In117 2.326 . S
O124 C120 1.260 . S
O125 In117 2.266 . S
O125 C122 1.252 . S
O126 In117 2.326 . S
O126 C122 1.260 . S
C127 O118 1.240 . S
C127 O119 1.252 . S
O128 In117 2.294 . S
O128 C121 1.240 . S
O129 In117 2.326 . S
O129 C121 1.252 . S
In130 O131 2.294 . S
In130 O132 2.326 . S
In130 O136 2.266 . S
In130 O137 2.326 . S
In130 O138 2.266 . S
In130 O139 2.326 . S
In130 O141 2.294 . S
In130 O142 2.326 . S
O131 In130 2.294 . S
O131 C140 1.240 . S
O132 In130 2.326 . S
O132 C140 1.252 . S
C133 O136 1.252 . S
C133 O137 1.260 . S
C134 O141 1.240 . S
C134 O142 1.252 . S
C135 O138 1.252 . S
C135 O139 1.260 . S
O136 In130 2.266 . S
O136 C133 1.252 . S
O137 In130 2.326 . S
O137 C133 1.260 . S
O138 In130 2.266 . S
O138 C135 1.252 . S
O139 In130 2.326 . S
O139 C135 1.260 . S
C140 O131 1.240 . S
C140 O132 1.252 . S
O141 In130 2.294 . S
O141 C134 1.240 . S
O142 In130 2.326 . S
O142 C134 1.252 . S
In143 O144 2.294 . S
In143 O145 2.326 . S
In143 O149 2.266 . S
In143 O150 2.326 . S
In143 O151 2.266 . S
In143 O152 2.326 . S
In143 O154 2.294 . S
In143 O155 2.326 . S
O144 In143 2.294 . S
O144 C153 1.240 . S
O145 In143 2.326 . S
O145 C153 1.252 . S
C146 O149 1.252 . S
C146 O150 1.260 . S
C147 O154 1.240 . S
C147 O155 1.252 . S
C148 O151 1.252 . S
C148 O152 1.260 . S
O149 In143 2.266 . S
O149 C146 1.252 . S
O150 In143 2.326 . S
O150 C146 1.260 . S
O151 In143 2.266 . S
O151 C148 1.252 . S
O152 In143 2.326 . S
O152 C148 1.260 . S
C153 O144 1.240 . S
C153 O145 1.252 . S
O154 In143 2.294 . S
O154 C147 1.240 . S
O155 In143 2.326 . S
O155 C147 1.252 . S
H156 C164 0.929 . S
H157 C166 0.930 . S
H158 C168 0.930 . S
H159 C171 0.929 . S
H160 C174 0.930 . S
H161 C176 0.960 . S
H162 C176 0.960 . S
H163 C176 0.960 . S
C164 H156 0.929 . S
C164 C165 1.377 . S
C164 C166 1.384 . S
C165 C164 1.377 . S
C165 C171 1.390 . S
C166 H157 0.930 . S
C166 C164 1.384 . S
C166 C167 1.372 . S
C167 C166 1.372 . S
C167 C168 1.400 . S
C167 C172 1.490 . S
C168 H158 0.930 . S
C168 C167 1.400 . S
C168 C171 1.386 . S
H169 C185 0.930 . S
H170 C186 0.931 . S
C171 H159 0.929 . S
C171 C165 1.390 . S
C171 C168 1.386 . S
C172 C167 1.490 . S
C172 C174 1.395 . S
C172 C175 1.403 . S
H173 C179 0.930 . S
C174 H160 0.930 . S
C174 C172 1.395 . S
C174 C177 1.403 1_556 S
C175 C172 1.403 . S
C175 C176 1.524 . S
C175 C179 1.400 1_556 S
C176 H161 0.960 . S
C176 H162 0.960 . S
C176 H163 0.960 . S
C176 C175 1.524 . S
C177 C174 1.403 1_554 S
C177 C178 1.392 . S
C177 C181 1.495 . S
C178 C177 1.392 . S
C178 C179 1.385 . S
C178 C180 1.478 . S
C179 H173 0.930 . S
C179 C175 1.400 1_554 S
C179 C178 1.385 . S
C180 C178 1.478 . S
C180 C182 1.381 . S
C180 C186 1.383 . S
C181 C177 1.495 . S
C181 H187 0.959 . S
C181 H188 0.961 . S
C181 H189 0.960 . S
C182 C180 1.381 . S
C182 C183 1.394 . S
C182 H190 0.930 . S
C183 C182 1.394 . S
C183 C184 1.383 . S
C183 H191 0.929 . S
C184 C183 1.383 . S
C184 C185 1.377 . S
C185 H169 0.930 . S
C185 C184 1.377 . S
C185 C186 1.379 . S
C186 H170 0.931 . S
C186 C180 1.383 . S
C186 C185 1.379 . S
H187 C181 0.959 . S
H188 C181 0.961 . S
H189 C181 0.960 . S
H190 C182 0.930 . S
H191 C183 0.929 . S
H192 C200 0.929 . S
H193 C202 0.930 . S
H194 C204 0.930 . S
H195 C207 0.929 . S
H196 C210 0.930 . S
H197 C212 0.960 . S
H198 C212 0.960 . S
H199 C212 0.960 . S
C200 H192 0.929 . S
C200 C201 1.377 . S
C200 C202 1.384 . S
C201 C200 1.377 . S
C201 C207 1.390 . S
C202 H193 0.930 . S
C202 C200 1.384 . S
C202 C203 1.372 . S
C203 C202 1.372 . S
C203 C204 1.400 . S
C203 C208 1.490 . S
C204 H194 0.930 . S
C204 C203 1.400 . S
C204 C207 1.386 . S
H205 C221 0.930 . S
H206 C222 0.931 . S
C207 H195 0.929 . S
C207 C201 1.390 . S
C207 C204 1.386 . S
C208 C203 1.490 . S
C208 C210 1.395 . S
C208 C211 1.403 . S
H209 C215 0.930 . S
C210 H196 0.930 . S
C210 C208 1.395 . S
C210 C213 1.403 . S
C211 C208 1.403 . S
C211 C212 1.524 . S
C211 C215 1.400 . S
C212 H197 0.960 . S
C212 H198 0.960 . S
C212 H199 0.960 . S
C212 C211 1.524 . S
C213 C210 1.403 . S
C213 C214 1.392 . S
C213 C217 1.495 . S
C214 C213 1.392 . S
C214 C215 1.385 . S
C214 C216 1.478 . S
C215 H209 0.930 . S
C215 C211 1.400 . S
C215 C214 1.385 . S
C216 C214 1.478 . S
C216 C218 1.381 . S
C216 C222 1.383 . S
C217 C213 1.495 . S
C217 H223 0.959 . S
C217 H224 0.961 . S
C217 H225 0.960 . S
C218 C216 1.381 . S
C218 C219 1.394 . S
C218 H226 0.930 . S
C219 C218 1.394 . S
C219 C220 1.383 . S
C219 H227 0.929 . S
C220 C219 1.383 . S
C220 C221 1.377 . S
C221 H205 0.930 . S
C221 C220 1.377 . S
C221 C222 1.379 . S
C222 H206 0.931 . S
C222 C216 1.383 . S
C222 C221 1.379 . S
H223 C217 0.959 . S
H224 C217 0.961 . S
H225 C217 0.960 . S
H226 C218 0.930 . S
H227 C219 0.929 . S
H228 C236 0.929 . S
H229 C238 0.930 . S
H230 C240 0.930 . S
H231 C243 0.929 . S
H232 C246 0.930 . S
H233 C248 0.960 . S
H234 C248 0.960 . S
H235 C248 0.960 . S
C236 H228 0.929 . S
C236 C237 1.377 . S
C236 C238 1.384 . S
C237 C236 1.377 . S
C237 C243 1.390 . S
C238 H229 0.930 . S
C238 C236 1.384 . S
C238 C239 1.372 . S
C239 C238 1.372 . S
C239 C240 1.400 . S
C239 C244 1.490 . S
C240 H230 0.930 . S
C240 C239 1.400 . S
C240 C243 1.386 . S
H241 C257 0.930 . S
H242 C258 0.931 . S
C243 H231 0.929 . S
C243 C237 1.390 . S
C243 C240 1.386 . S
C244 C239 1.490 . S
C244 C246 1.395 . S
C244 C247 1.403 . S
H245 C251 0.930 . S
C246 H232 0.930 . S
C246 C244 1.395 . S
C246 C249 1.403 . S
C247 C244 1.403 . S
C247 C248 1.524 . S
C247 C251 1.400 . S
C248 H233 0.960 . S
C248 H234 0.960 . S
C248 H235 0.960 . S
C248 C247 1.524 . S
C249 C246 1.403 . S
C249 C250 1.392 . S
C249 C253 1.495 . S
C250 C249 1.392 . S
C250 C251 1.385 . S
C250 C252 1.478 . S
C251 H245 0.930 . S
C251 C247 1.400 . S
C251 C250 1.385 . S
C252 C250 1.478 . S
C252 C254 1.381 . S
C252 C258 1.383 . S
C253 C249 1.495 . S
C253 H259 0.959 . S
C253 H260 0.961 . S
C253 H261 0.960 . S
C254 C252 1.381 . S
C254 C255 1.394 . S
C254 H262 0.930 . S
C255 C254 1.394 . S
C255 C256 1.383 . S
C255 H263 0.929 . S
C256 C255 1.383 . S
C256 C257 1.377 . S
C257 H241 0.930 . S
C257 C256 1.377 . S
C257 C258 1.379 . S
C258 H242 0.931 . S
C258 C252 1.383 . S
C258 C257 1.379 . S
H259 C253 0.959 . S
H260 C253 0.961 . S
H261 C253 0.960 . S
H262 C254 0.930 . S
H263 C255 0.929 . S
H264 C272 0.929 . S
H265 C274 0.930 . S
H266 C276 0.930 . S
H267 C279 0.929 . S
H268 C282 0.930 . S
H269 C284 0.960 . S
H270 C284 0.960 . S
H271 C284 0.960 . S
C272 H264 0.929 . S
C272 C273 1.377 . S
C272 C274 1.384 . S
C273 C272 1.377 . S
C273 C279 1.390 . S
C274 H265 0.930 . S
C274 C272 1.384 . S
C274 C275 1.372 . S
C275 C274 1.372 . S
C275 C276 1.400 . S
C275 C280 1.490 . S
C276 H266 0.930 . S
C276 C275 1.400 . S
C276 C279 1.386 . S
H277 C293 0.930 . S
H278 C294 0.931 . S
C279 H267 0.929 . S
C279 C273 1.390 . S
C279 C276 1.386 . S
C280 C275 1.490 . S
C280 C282 1.395 . S
C280 C283 1.403 . S
H281 C287 0.930 . S
C282 H268 0.930 . S
C282 C280 1.395 . S
C282 C285 1.403 1_554 S
C283 C280 1.403 . S
C283 C284 1.524 . S
C283 C287 1.400 1_554 S
C284 H269 0.960 . S
C284 H270 0.960 . S
C284 H271 0.960 . S
C284 C283 1.524 . S
C285 C282 1.403 1_556 S
C285 C286 1.392 . S
C285 C289 1.495 . S
C286 C285 1.392 . S
C286 C287 1.385 . S
C286 C288 1.478 . S
C287 H281 0.930 . S
C287 C283 1.400 1_556 S
C287 C286 1.385 . S
C288 C286 1.478 . S
C288 C290 1.381 . S
C288 C294 1.383 . S
C289 C285 1.495 . S
C289 H295 0.959 . S
C289 H296 0.961 . S
C289 H297 0.960 . S
C290 C288 1.381 . S
C290 C291 1.394 . S
C290 H298 0.930 . S
C291 C290 1.394 . S
C291 C292 1.383 . S
C291 H299 0.929 . S
C292 C291 1.383 . S
C292 C293 1.377 . S
C293 H277 0.930 . S
C293 C292 1.377 . S
C293 C294 1.379 . S
C294 H278 0.931 . S
C294 C288 1.383 . S
C294 C293 1.379 . S
H295 C289 0.959 . S
H296 C289 0.961 . S
H297 C289 0.960 . S
H298 C290 0.930 . S
H299 C291 0.929 . S
H300 C308 0.929 . S
H301 C310 0.930 . S
H302 C312 0.930 . S
H303 C315 0.929 . S
H304 C318 0.930 . S
H305 C320 0.960 . S
H306 C320 0.960 . S
H307 C320 0.960 . S
C308 H300 0.929 . S
C308 C309 1.377 . S
C308 C310 1.384 . S
C309 C308 1.377 . S
C309 C315 1.390 . S
C310 H301 0.930 . S
C310 C308 1.384 . S
C310 C311 1.372 . S
C311 C310 1.372 . S
C311 C312 1.400 . S
C311 C316 1.490 . S
C312 H302 0.930 . S
C312 C311 1.400 . S
C312 C315 1.386 . S
H313 C329 0.930 . S
H314 C330 0.931 . S
C315 H303 0.929 . S
C315 C309 1.390 . S
C315 C312 1.386 . S
C316 C311 1.490 . S
C316 C318 1.395 . S
C316 C319 1.403 . S
H317 C323 0.930 . S
C318 H304 0.930 . S
C318 C316 1.395 . S
C318 C321 1.403 . S
C319 C316 1.403 . S
C319 C320 1.524 . S
C319 C323 1.400 . S
C320 H305 0.960 . S
C320 H306 0.960 . S
C320 H307 0.960 . S
C320 C319 1.524 . S
C321 C318 1.403 . S
C321 C322 1.392 . S
C321 C325 1.495 . S
C322 C321 1.392 . S
C322 C323 1.385 . S
C322 C324 1.478 . S
C323 H317 0.930 . S
C323 C319 1.400 . S
C323 C322 1.385 . S
C324 C322 1.478 . S
C324 C326 1.381 . S
C324 C330 1.383 . S
C325 C321 1.495 . S
C325 H331 0.959 . S
C325 H332 0.961 . S
C325 H333 0.960 . S
C326 C324 1.381 . S
C326 C327 1.394 . S
C326 H334 0.930 . S
C327 C326 1.394 . S
C327 C328 1.383 . S
C327 H335 0.929 . S
C328 C327 1.383 . S
C328 C329 1.377 . S
C329 H313 0.930 . S
C329 C328 1.377 . S
C329 C330 1.379 . S
C330 H314 0.931 . S
C330 C324 1.383 . S
C330 C329 1.379 . S
H331 C325 0.959 . S
H332 C325 0.961 . S
H333 C325 0.960 . S
H334 C326 0.930 . S
H335 C327 0.929 . S
H336 C344 0.929 . S
H337 C346 0.930 . S
H338 C348 0.930 . S
H339 C351 0.929 . S
H340 C354 0.930 . S
H341 C356 0.960 . S
H342 C356 0.960 . S
H343 C356 0.960 . S
C344 H336 0.929 . S
C344 C345 1.377 . S
C344 C346 1.384 . S
C345 C344 1.377 . S
C345 C351 1.390 . S
C346 H337 0.930 . S
C346 C344 1.384 . S
C346 C347 1.372 . S
C347 C346 1.372 . S
C347 C348 1.400 . S
C347 C352 1.490 . S
C348 H338 0.930 . S
C348 C347 1.400 . S
C348 C351 1.386 . S
H349 C365 0.930 . S
H350 C366 0.931 . S
C351 H339 0.929 . S
C351 C345 1.390 . S
C351 C348 1.386 . S
C352 C347 1.490 . S
C352 C354 1.395 . S
C352 C355 1.403 . S
H353 C359 0.930 . S
C354 H340 0.930 . S
C354 C352 1.395 . S
C354 C357 1.403 . S
C355 C352 1.403 . S
C355 C356 1.524 . S
C355 C359 1.400 . S
C356 H341 0.960 . S
C356 H342 0.960 . S
C356 H343 0.960 . S
C356 C355 1.524 . S
C357 C354 1.403 . S
C357 C358 1.392 . S
C357 C361 1.495 . S
C358 C357 1.392 . S
C358 C359 1.385 . S
C358 C360 1.478 . S
C359 H353 0.930 . S
C359 C355 1.400 . S
C359 C358 1.385 . S
C360 C358 1.478 . S
C360 C362 1.381 . S
C360 C366 1.383 . S
C361 C357 1.495 . S
C361 H367 0.959 . S
C361 H368 0.961 . S
C361 H369 0.960 . S
C362 C360 1.381 . S
C362 C363 1.394 . S
C362 H370 0.930 . S
C363 C362 1.394 . S
C363 C364 1.383 . S
C363 H371 0.929 . S
C364 C363 1.383 . S
C364 C365 1.377 . S
C365 H349 0.930 . S
C365 C364 1.377 . S
C365 C366 1.379 . S
C366 H350 0.931 . S
C366 C360 1.383 . S
C366 C365 1.379 . S
H367 C361 0.959 . S
H368 C361 0.961 . S
H369 C361 0.960 . S
H370 C362 0.930 . S
H371 C363 0.929 . S
H372 C380 0.929 . S
H373 C382 0.930 . S
H374 C384 0.930 . S
H375 C387 0.929 . S
H376 C390 0.930 . S
H377 C392 0.960 . S
H378 C392 0.960 . S
H379 C392 0.960 . S
C380 H372 0.929 . S
C380 C381 1.377 . S
C380 C382 1.384 . S
C381 C380 1.377 . S
C381 C387 1.390 . S
C382 H373 0.930 . S
C382 C380 1.384 . S
C382 C383 1.372 . S
C383 C382 1.372 . S
C383 C384 1.400 . S
C383 C388 1.490 . S
C384 H374 0.930 . S
C384 C383 1.400 . S
C384 C387 1.386 . S
H385 C401 0.930 . S
H386 C402 0.931 . S
C387 H375 0.929 . S
C387 C381 1.390 . S
C387 C384 1.386 . S
C388 C383 1.490 . S
C388 C390 1.395 . S
C388 C391 1.403 . S
H389 C395 0.930 . S
C390 H376 0.930 . S
C390 C388 1.395 . S
C390 C393 1.403 . S
C391 C388 1.403 . S
C391 C392 1.524 . S
C391 C395 1.400 . S
C392 H377 0.960 . S
C392 H378 0.960 . S
C392 H379 0.960 . S
C392 C391 1.524 . S
C393 C390 1.403 . S
C393 C394 1.392 . S
C393 C397 1.495 . S
C394 C393 1.392 . S
C394 C395 1.385 . S
C394 C396 1.478 . S
C395 H389 0.930 . S
C395 C391 1.400 . S
C395 C394 1.385 . S
C396 C394 1.478 . S
C396 C398 1.381 . S
C396 C402 1.383 . S
C397 C393 1.495 . S
C397 H403 0.959 . S
C397 H404 0.961 . S
C397 H405 0.960 . S
C398 C396 1.381 . S
C398 C399 1.394 . S
C398 H406 0.930 . S
C399 C398 1.394 . S
C399 C400 1.383 . S
C399 H407 0.929 . S
C400 C399 1.383 . S
C400 C401 1.377 . S
C401 H385 0.930 . S
C401 C400 1.377 . S
C401 C402 1.379 . S
C402 H386 0.931 . S
C402 C396 1.383 . S
C402 C401 1.379 . S
H403 C397 0.959 . S
H404 C397 0.961 . S
H405 C397 0.960 . S
H406 C398 0.930 . S
H407 C399 0.929 . S
H408 C416 0.929 . S
H409 C418 0.930 . S
H410 C420 0.930 . S
H411 C423 0.929 . S
H412 C426 0.930 . S
H413 C428 0.960 . S
H414 C428 0.960 . S
H415 C428 0.960 . S
C416 H408 0.929 . S
C416 C417 1.377 . S
C416 C418 1.384 . S
C417 C416 1.377 . S
C417 C423 1.390 . S
C418 H409 0.930 . S
C418 C416 1.384 . S
C418 C419 1.372 . S
C419 C418 1.372 . S
C419 C420 1.400 . S
C419 C424 1.490 . S
C420 H410 0.930 . S
C420 C419 1.400 . S
C420 C423 1.386 . S
H421 C437 0.930 . S
H422 C438 0.931 . S
C423 H411 0.929 . S
C423 C417 1.390 . S
C423 C420 1.386 . S
C424 C419 1.490 . S
C424 C426 1.395 . S
C424 C427 1.403 . S
H425 C431 0.930 . S
C426 H412 0.930 . S
C426 C424 1.395 . S
C426 C429 1.403 . S
C427 C424 1.403 . S
C427 C428 1.524 . S
C427 C431 1.400 . S
C428 H413 0.960 . S
C428 H414 0.960 . S
C428 H415 0.960 . S
C428 C427 1.524 . S
C429 C426 1.403 . S
C429 C430 1.392 . S
C429 C433 1.495 . S
C430 C429 1.392 . S
C430 C431 1.385 . S
C430 C432 1.478 . S
C431 H425 0.930 . S
C431 C427 1.400 . S
C431 C430 1.385 . S
C432 C430 1.478 . S
C432 C434 1.381 . S
C432 C438 1.383 . S
C433 C429 1.495 . S
C433 H439 0.959 . S
C433 H440 0.961 . S
C433 H441 0.960 . S
C434 C432 1.381 . S
C434 C435 1.394 . S
C434 H442 0.930 . S
C435 C434 1.394 . S
C435 C436 1.383 . S
C435 H443 0.929 . S
C436 C435 1.383 . S
C436 C437 1.377 . S
C437 H421 0.930 . S
C437 C436 1.377 . S
C437 C438 1.379 . S
C438 H422 0.931 . S
C438 C432 1.383 . S
C438 C437 1.379 . S
H439 C433 0.959 . S
H440 C433 0.961 . S
H441 C433 0.960 . S
H442 C434 0.930 . S
H443 C435 0.929 . S
H444 C452 0.929 . S
H445 C454 0.930 . S
H446 C456 0.930 . S
H447 C459 0.929 . S
H448 C462 0.930 . S
H449 C464 0.960 . S
H450 C464 0.960 . S
H451 C464 0.960 . S
C452 H444 0.929 . S
C452 C453 1.377 . S
C452 C454 1.384 . S
C453 C452 1.377 . S
C453 C459 1.390 . S
C454 H445 0.930 . S
C454 C452 1.384 . S
C454 C455 1.372 . S
C455 C454 1.372 . S
C455 C456 1.400 . S
C455 C460 1.490 . S
C456 H446 0.930 . S
C456 C455 1.400 . S
C456 C459 1.386 . S
H457 C473 0.930 . S
H458 C474 0.931 . S
C459 H447 0.929 . S
C459 C453 1.390 . S
C459 C456 1.386 . S
C460 C455 1.490 . S
C460 C462 1.395 . S
C460 C463 1.403 . S
H461 C467 0.930 . S
C462 H448 0.930 . S
C462 C460 1.395 . S
C462 C465 1.403 . S
C463 C460 1.403 . S
C463 C464 1.524 . S
C463 C467 1.400 . S
C464 H449 0.960 . S
C464 H450 0.960 . S
C464 H451 0.960 . S
C464 C463 1.524 . S
C465 C462 1.403 . S
C465 C466 1.392 . S
C465 C469 1.495 . S
C466 C465 1.392 . S
C466 C467 1.385 . S
C466 C468 1.478 . S
C467 H461 0.930 . S
C467 C463 1.400 . S
C467 C466 1.385 . S
C468 C466 1.478 . S
C468 C470 1.381 . S
C468 C474 1.383 . S
C469 C465 1.495 . S
C469 H475 0.959 . S
C469 H476 0.961 . S
C469 H477 0.960 . S
C470 C468 1.381 . S
C470 C471 1.394 . S
C470 H478 0.930 . S
C471 C470 1.394 . S
C471 C472 1.383 . S
C471 H479 0.929 . S
C472 C471 1.383 . S
C472 C473 1.377 . S
C473 H457 0.930 . S
C473 C472 1.377 . S
C473 C474 1.379 . S
C474 H458 0.931 . S
C474 C468 1.383 . S
C474 C473 1.379 . S
H475 C469 0.959 . S
H476 C469 0.961 . S
H477 C469 0.960 . S
H478 C470 0.930 . S
H479 C471 0.929 . S
H480 C488 0.929 . S
H481 C490 0.930 . S
H482 C492 0.930 . S
H483 C495 0.929 . S
H484 C498 0.930 . S
H485 C500 0.960 . S
H486 C500 0.960 . S
H487 C500 0.960 . S
C488 H480 0.929 . S
C488 C489 1.377 . S
C488 C490 1.384 . S
C489 C488 1.377 . S
C489 C495 1.390 . S
C490 H481 0.930 . S
C490 C488 1.384 . S
C490 C491 1.372 . S
C491 C490 1.372 . S
C491 C492 1.400 . S
C491 C496 1.490 . S
C492 H482 0.930 . S
C492 C491 1.400 . S
C492 C495 1.386 . S
H493 C509 0.930 . S
H494 C510 0.931 . S
C495 H483 0.929 . S
C495 C489 1.390 . S
C495 C492 1.386 . S
C496 C491 1.490 . S
C496 C498 1.395 . S
C496 C499 1.403 . S
H497 C503 0.930 . S
C498 H484 0.930 . S
C498 C496 1.395 . S
C498 C501 1.403 . S
C499 C496 1.403 . S
C499 C500 1.524 . S
C499 C503 1.400 . S
C500 H485 0.960 . S
C500 H486 0.960 . S
C500 H487 0.960 . S
C500 C499 1.524 . S
C501 C498 1.403 . S
C501 C502 1.392 . S
C501 C505 1.495 . S
C502 C501 1.392 . S
C502 C503 1.385 . S
C502 C504 1.478 . S
C503 H497 0.930 . S
C503 C499 1.400 . S
C503 C502 1.385 . S
C504 C502 1.478 . S
C504 C506 1.381 . S
C504 C510 1.383 . S
C505 C501 1.495 . S
C505 H511 0.959 . S
C505 H512 0.961 . S
C505 H513 0.960 . S
C506 C504 1.381 . S
C506 C507 1.394 . S
C506 H514 0.930 . S
C507 C506 1.394 . S
C507 C508 1.383 . S
C507 H515 0.929 . S
C508 C507 1.383 . S
C508 C509 1.377 . S
C509 H493 0.930 . S
C509 C508 1.377 . S
C509 C510 1.379 . S
C510 H494 0.931 . S
C510 C504 1.383 . S
C510 C509 1.379 . S
H511 C505 0.959 . S
H512 C505 0.961 . S
H513 C505 0.960 . S
H514 C506 0.930 . S
H515 C507 0.929 . S
H516 C524 0.929 . S
H517 C526 0.930 . S
H518 C528 0.930 . S
H519 C531 0.929 . S
H520 C534 0.930 . S
H521 C536 0.960 . S
H522 C536 0.960 . S
H523 C536 0.960 . S
C524 H516 0.929 . S
C524 C525 1.377 . S
C524 C526 1.384 . S
C525 C524 1.377 . S
C525 C531 1.390 . S
C526 H517 0.930 . S
C526 C524 1.384 . S
C526 C527 1.372 . S
C527 C526 1.372 . S
C527 C528 1.400 . S
C527 C532 1.490 . S
C528 H518 0.930 . S
C528 C527 1.400 . S
C528 C531 1.386 . S
H529 C545 0.930 . S
H530 C546 0.931 . S
C531 H519 0.929 . S
C531 C525 1.390 . S
C531 C528 1.386 . S
C532 C527 1.490 . S
C532 C534 1.395 . S
C532 C535 1.403 . S
H533 C539 0.930 . S
C534 H520 0.930 . S
C534 C532 1.395 . S
C534 C537 1.403 . S
C535 C532 1.403 . S
C535 C536 1.524 . S
C535 C539 1.400 . S
C536 H521 0.960 . S
C536 H522 0.960 . S
C536 H523 0.960 . S
C536 C535 1.524 . S
C537 C534 1.403 . S
C537 C538 1.392 . S
C537 C541 1.495 . S
C538 C537 1.392 . S
C538 C539 1.385 . S
C538 C540 1.478 . S
C539 H533 0.930 . S
C539 C535 1.400 . S
C539 C538 1.385 . S
C540 C538 1.478 . S
C540 C542 1.381 . S
C540 C546 1.383 . S
C541 C537 1.495 . S
C541 H547 0.959 . S
C541 H548 0.961 . S
C541 H549 0.960 . S
C542 C540 1.381 . S
C542 C543 1.394 . S
C542 H550 0.930 . S
C543 C542 1.394 . S
C543 C544 1.383 . S
C543 H551 0.929 . S
C544 C543 1.383 . S
C544 C545 1.377 . S
C545 H529 0.930 . S
C545 C544 1.377 . S
C545 C546 1.379 . S
C546 H530 0.931 . S
C546 C540 1.383 . S
C546 C545 1.379 . S
H547 C541 0.959 . S
H548 C541 0.961 . S
H549 C541 0.960 . S
H550 C542 0.930 . S
H551 C543 0.929 . S
H552 C560 0.929 . S
H553 C562 0.930 . S
H554 C564 0.930 . S
H555 C567 0.929 . S
H556 C570 0.930 . S
H557 C572 0.960 . S
H558 C572 0.960 . S
H559 C572 0.960 . S
C560 H552 0.929 . S
C560 C561 1.377 . S
C560 C562 1.384 . S
C561 C560 1.377 . S
C561 C567 1.390 . S
C562 H553 0.930 . S
C562 C560 1.384 . S
C562 C563 1.372 . S
C563 C562 1.372 . S
C563 C564 1.400 . S
C563 C568 1.490 . S
C564 H554 0.930 . S
C564 C563 1.400 . S
C564 C567 1.386 . S
H565 C581 0.930 . S
H566 C582 0.931 . S
C567 H555 0.929 . S
C567 C561 1.390 . S
C567 C564 1.386 . S
C568 C563 1.490 . S
C568 C570 1.395 . S
C568 C571 1.403 . S
H569 C575 0.930 . S
C570 H556 0.930 . S
C570 C568 1.395 . S
C570 C573 1.403 . S
C571 C568 1.403 . S
C571 C572 1.524 . S
C571 C575 1.400 . S
C572 H557 0.960 . S
C572 H558 0.960 . S
C572 H559 0.960 . S
C572 C571 1.524 . S
C573 C570 1.403 . S
C573 C574 1.392 . S
C573 C577 1.495 . S
C574 C573 1.392 . S
C574 C575 1.385 . S
C574 C576 1.478 . S
C575 H569 0.930 . S
C575 C571 1.400 . S
C575 C574 1.385 . S
C576 C574 1.478 . S
C576 C578 1.381 . S
C576 C582 1.383 . S
C577 C573 1.495 . S
C577 H583 0.959 . S
C577 H584 0.961 . S
C577 H585 0.960 . S
C578 C576 1.381 . S
C578 C579 1.394 . S
C578 H586 0.930 . S
C579 C578 1.394 . S
C579 C580 1.383 . S
C579 H587 0.929 . S
C580 C579 1.383 . S
C580 C581 1.377 . S
C581 H565 0.930 . S
C581 C580 1.377 . S
C581 C582 1.379 . S
C582 H566 0.931 . S
C582 C576 1.383 . S
C582 C581 1.379 . S
H583 C577 0.959 . S
H584 C577 0.961 . S
H585 C577 0.960 . S
H586 C578 0.930 . S
H587 C579 0.929 . S
H588 C596 0.929 . S
H589 C598 0.930 . S
H590 C600 0.930 . S
H591 C603 0.929 . S
H592 C606 0.930 . S
H593 C608 0.960 . S
H594 C608 0.960 . S
H595 C608 0.960 . S
C596 H588 0.929 . S
C596 C597 1.377 . S
C596 C598 1.384 . S
C597 C596 1.377 . S
C597 C603 1.390 . S
C598 H589 0.930 . S
C598 C596 1.384 . S
C598 C599 1.372 . S
C599 C598 1.372 . S
C599 C600 1.400 . S
C599 C604 1.490 . S
C600 H590 0.930 . S
C600 C599 1.400 . S
C600 C603 1.386 . S
H601 C617 0.930 . S
H602 C618 0.931 . S
C603 H591 0.929 . S
C603 C597 1.390 . S
C603 C600 1.386 . S
C604 C599 1.490 . S
C604 C606 1.395 . S
C604 C607 1.403 . S
H605 C611 0.930 . S
C606 H592 0.930 . S
C606 C604 1.395 . S
C606 C609 1.403 1_655 S
C607 C604 1.403 . S
C607 C608 1.524 . S
C607 C611 1.400 1_655 S
C608 H593 0.960 . S
C608 H594 0.960 . S
C608 H595 0.960 . S
C608 C607 1.524 . S
C609 C606 1.403 1_455 S
C609 C610 1.392 . S
C609 C613 1.495 . S
C610 C609 1.392 . S
C610 C611 1.385 . S
C610 C612 1.478 . S
C611 H605 0.930 . S
C611 C607 1.400 1_455 S
C611 C610 1.385 . S
C612 C610 1.478 . S
C612 C614 1.381 . S
C612 C618 1.383 . S
C613 C609 1.495 . S
C613 H619 0.959 . S
C613 H620 0.961 . S
C613 H621 0.960 . S
C614 C612 1.381 . S
C614 C615 1.394 . S
C614 H622 0.930 . S
C615 C614 1.394 . S
C615 C616 1.383 . S
C615 H623 0.929 . S
C616 C615 1.383 . S
C616 C617 1.377 . S
C617 H601 0.930 . S
C617 C616 1.377 . S
C617 C618 1.379 . S
C618 H602 0.931 . S
C618 C612 1.383 . S
C618 C617 1.379 . S
H619 C613 0.959 . S
H620 C613 0.961 . S
H621 C613 0.960 . S
H622 C614 0.930 . S
H623 C615 0.929 . S
H624 C632 0.929 . S
H625 C634 0.930 . S
H626 C636 0.930 . S
H627 C639 0.929 . S
H628 C642 0.930 . S
H629 C644 0.960 . S
H630 C644 0.960 . S
H631 C644 0.960 . S
C632 H624 0.929 . S
C632 C633 1.377 . S
C632 C634 1.384 . S
C633 C632 1.377 . S
C633 C639 1.390 . S
C634 H625 0.930 . S
C634 C632 1.384 . S
C634 C635 1.372 . S
C635 C634 1.372 . S
C635 C636 1.400 . S
C635 C640 1.490 . S
C636 H626 0.930 . S
C636 C635 1.400 . S
C636 C639 1.386 . S
H637 C653 0.930 . S
H638 C654 0.931 . S
C639 H627 0.929 . S
C639 C633 1.390 . S
C639 C636 1.386 . S
C640 C635 1.490 . S
C640 C642 1.395 . S
C640 C643 1.403 . S
H641 C647 0.930 . S
C642 H628 0.930 . S
C642 C640 1.395 . S
C642 C645 1.403 1_545 S
C643 C640 1.403 . S
C643 C644 1.524 . S
C643 C647 1.400 1_545 S
C644 H629 0.960 . S
C644 H630 0.960 . S
C644 H631 0.960 . S
C644 C643 1.524 . S
C645 C642 1.403 1_565 S
C645 C646 1.392 . S
C645 C649 1.495 . S
C646 C645 1.392 . S
C646 C647 1.385 . S
C646 C648 1.478 . S
C647 H641 0.930 . S
C647 C643 1.400 1_565 S
C647 C646 1.385 . S
C648 C646 1.478 . S
C648 C650 1.381 . S
C648 C654 1.383 . S
C649 C645 1.495 . S
C649 H655 0.959 . S
C649 H656 0.961 . S
C649 H657 0.960 . S
C650 C648 1.381 . S
C650 C651 1.394 . S
C650 H658 0.930 . S
C651 C650 1.394 . S
C651 C652 1.383 . S
C651 H659 0.929 . S
C652 C651 1.383 . S
C652 C653 1.377 . S
C653 H637 0.930 . S
C653 C652 1.377 . S
C653 C654 1.379 . S
C654 H638 0.931 . S
C654 C648 1.383 . S
C654 C653 1.379 . S
H655 C649 0.959 . S
H656 C649 0.961 . S
H657 C649 0.960 . S
H658 C650 0.930 . S
H659 C651 0.929 . S
H660 C668 0.929 . S
H661 C670 0.930 . S
H662 C672 0.930 . S
H663 C675 0.929 . S
H664 C678 0.930 . S
H665 C680 0.960 . S
H666 C680 0.960 . S
H667 C680 0.960 . S
C668 H660 0.929 . S
C668 C669 1.377 . S
C668 C670 1.384 . S
C669 C668 1.377 . S
C669 C675 1.390 . S
C670 H661 0.930 . S
C670 C668 1.384 . S
C670 C671 1.372 . S
C671 C670 1.372 . S
C671 C672 1.400 . S
C671 C676 1.490 . S
C672 H662 0.930 . S
C672 C671 1.400 . S
C672 C675 1.386 . S
H673 C689 0.930 . S
H674 C690 0.931 . S
C675 H663 0.929 . S
C675 C669 1.390 . S
C675 C672 1.386 . S
C676 C671 1.490 . S
C676 C678 1.395 . S
C676 C679 1.403 . S
H677 C683 0.930 . S
C678 H664 0.930 . S
C678 C676 1.395 . S
C678 C681 1.403 . S
C679 C676 1.403 . S
C679 C680 1.524 . S
C679 C683 1.400 . S
C680 H665 0.960 . S
C680 H666 0.960 . S
C680 H667 0.960 . S
C680 C679 1.524 . S
C681 C678 1.403 . S
C681 C682 1.392 . S
C681 C685 1.495 . S
C682 C681 1.392 . S
C682 C683 1.385 . S
C682 C684 1.478 . S
C683 H677 0.930 . S
C683 C679 1.400 . S
C683 C682 1.385 . S
C684 C682 1.478 . S
C684 C686 1.381 . S
C684 C690 1.383 . S
C685 C681 1.495 . S
C685 H691 0.959 . S
C685 H692 0.961 . S
C685 H693 0.960 . S
C686 C684 1.381 . S
C686 C687 1.394 . S
C686 H694 0.930 . S
C687 C686 1.394 . S
C687 C688 1.383 . S
C687 H695 0.929 . S
C688 C687 1.383 . S
C688 C689 1.377 . S
C689 H673 0.930 . S
C689 C688 1.377 . S
C689 C690 1.379 . S
C690 H674 0.931 . S
C690 C684 1.383 . S
C690 C689 1.379 . S
H691 C685 0.959 . S
H692 C685 0.961 . S
H693 C685 0.960 . S
H694 C686 0.930 . S
H695 C687 0.929 . S
H696 C704 0.929 . S
H697 C706 0.930 . S
H698 C708 0.930 . S
H699 C711 0.929 . S
H700 C714 0.930 . S
H701 C716 0.960 . S
H702 C716 0.960 . S
H703 C716 0.960 . S
C704 H696 0.929 . S
C704 C705 1.377 . S
C704 C706 1.384 . S
C705 C704 1.377 . S
C705 C711 1.390 . S
C706 H697 0.930 . S
C706 C704 1.384 . S
C706 C707 1.372 . S
C707 C706 1.372 . S
C707 C708 1.400 . S
C707 C712 1.490 . S
C708 H698 0.930 . S
C708 C707 1.400 . S
C708 C711 1.386 . S
H709 C725 0.930 . S
H710 C726 0.931 . S
C711 H699 0.929 . S
C711 C705 1.390 . S
C711 C708 1.386 . S
C712 C707 1.490 . S
C712 C714 1.395 . S
C712 C715 1.403 . S
H713 C719 0.930 . S
C714 H700 0.930 . S
C714 C712 1.395 . S
C714 C717 1.403 1_545 S
C715 C712 1.403 . S
C715 C716 1.524 . S
C715 C719 1.400 1_545 S
C716 H701 0.960 . S
C716 H702 0.960 . S
C716 H703 0.960 . S
C716 C715 1.524 . S
C717 C714 1.403 1_565 S
C717 C718 1.392 . S
C717 C721 1.495 . S
C718 C717 1.392 . S
C718 C719 1.385 . S
C718 C720 1.478 . S
C719 H713 0.930 . S
C719 C715 1.400 1_565 S
C719 C718 1.385 . S
C720 C718 1.478 . S
C720 C722 1.381 . S
C720 C726 1.383 . S
C721 C717 1.495 . S
C721 H727 0.959 . S
C721 H728 0.961 . S
C721 H729 0.960 . S
C722 C720 1.381 . S
C722 C723 1.394 . S
C722 H730 0.930 . S
C723 C722 1.394 . S
C723 C724 1.383 . S
C723 H731 0.929 . S
C724 C723 1.383 . S
C724 C725 1.377 . S
C725 H709 0.930 . S
C725 C724 1.377 . S
C725 C726 1.379 . S
C726 H710 0.931 . S
C726 C720 1.383 . S
C726 C725 1.379 . S
H727 C721 0.959 . S
H728 C721 0.961 . S
H729 C721 0.960 . S
H730 C722 0.930 . S
H731 C723 0.929 . S
H732 C740 0.929 . S
H733 C742 0.930 . S
H734 C744 0.930 . S
H735 C747 0.929 . S
H736 C750 0.930 . S
H737 C752 0.960 . S
H738 C752 0.960 . S
H739 C752 0.960 . S
C740 H732 0.929 . S
C740 C741 1.377 . S
C740 C742 1.384 . S
C741 C740 1.377 . S
C741 C747 1.390 . S
C742 H733 0.930 . S
C742 C740 1.384 . S
C742 C743 1.372 . S
C743 C742 1.372 . S
C743 C744 1.400 . S
C743 C748 1.490 . S
C744 H734 0.930 . S
C744 C743 1.400 . S
C744 C747 1.386 . S
H745 C761 0.930 . S
H746 C762 0.931 . S
C747 H735 0.929 . S
C747 C741 1.390 . S
C747 C744 1.386 . S
C748 C743 1.490 . S
C748 C750 1.395 . S
C748 C751 1.403 . S
H749 C755 0.930 . S
C750 H736 0.930 . S
C750 C748 1.395 . S
C750 C753 1.403 . S
C751 C748 1.403 . S
C751 C752 1.524 . S
C751 C755 1.400 . S
C752 H737 0.960 . S
C752 H738 0.960 . S
C752 H739 0.960 . S
C752 C751 1.524 . S
C753 C750 1.403 . S
C753 C754 1.392 . S
C753 C757 1.495 . S
C754 C753 1.392 . S
C754 C755 1.385 . S
C754 C756 1.478 . S
C755 H749 0.930 . S
C755 C751 1.400 . S
C755 C754 1.385 . S
C756 C754 1.478 . S
C756 C758 1.381 . S
C756 C762 1.383 . S
C757 C753 1.495 . S
C757 H763 0.959 . S
C757 H764 0.961 . S
C757 H765 0.960 . S
C758 C756 1.381 . S
C758 C759 1.394 . S
C758 H766 0.930 . S
C759 C758 1.394 . S
C759 C760 1.383 . S
C759 H767 0.929 . S
C760 C759 1.383 . S
C760 C761 1.377 . S
C761 H745 0.930 . S
C761 C760 1.377 . S
C761 C762 1.379 . S
C762 H746 0.931 . S
C762 C756 1.383 . S
C762 C761 1.379 . S
H763 C757 0.959 . S
H764 C757 0.961 . S
H765 C757 0.960 . S
H766 C758 0.930 . S
H767 C759 0.929 . S
H768 C776 0.929 . S
H769 C778 0.930 . S
H770 C780 0.930 . S
H771 C783 0.929 . S
H772 C786 0.930 . S
H773 C788 0.960 1_655 S
H774 C788 0.960 . S
H775 C788 0.960 . S
C776 H768 0.929 . S
C776 C777 1.377 . S
C776 C778 1.384 . S
C777 C776 1.377 . S
C777 C783 1.390 . S
C778 H769 0.930 . S
C778 C776 1.384 . S
C778 C779 1.372 . S
C779 C778 1.372 . S
C779 C780 1.400 . S
C779 C784 1.490 . S
C780 H770 0.930 . S
C780 C779 1.400 . S
C780 C783 1.386 . S
H781 C797 0.930 . S
H782 C798 0.931 . S
C783 H771 0.929 . S
C783 C777 1.390 . S
C783 C780 1.386 . S
C784 C779 1.490 . S
C784 C786 1.395 . S
C784 C787 1.403 . S
H785 C791 0.930 . S
C786 H772 0.930 . S
C786 C784 1.395 . S
C786 C789 1.403 1_455 S
C787 C784 1.403 . S
C787 C788 1.524 . S
C787 C791 1.400 1_455 S
C788 H773 0.960 1_455 S
C788 H774 0.960 . S
C788 H775 0.960 . S
C788 C787 1.524 . S
C789 C786 1.403 1_655 S
C789 C790 1.392 . S
C789 C793 1.495 . S
C790 C789 1.392 . S
C790 C791 1.385 . S
C790 C792 1.478 . S
C791 H785 0.930 . S
C791 C787 1.400 1_655 S
C791 C790 1.385 . S
C792 C790 1.478 . S
C792 C794 1.381 . S
C792 C798 1.383 . S
C793 C789 1.495 . S
C793 H799 0.959 1_655 S
C793 H800 0.961 . S
C793 H801 0.960 . S
C794 C792 1.381 . S
C794 C795 1.394 . S
C794 H802 0.930 . S
C795 C794 1.394 . S
C795 C796 1.383 . S
C795 H803 0.929 . S
C796 C795 1.383 . S
C796 C797 1.377 . S
C797 H781 0.930 . S
C797 C796 1.377 . S
C797 C798 1.379 . S
C798 H782 0.931 . S
C798 C792 1.383 . S
C798 C797 1.379 . S
H799 C793 0.959 1_455 S
H800 C793 0.961 . S
H801 C793 0.960 . S
H802 C794 0.930 . S
H803 C795 0.929 . S
H804 C812 0.929 . S
H805 C814 0.930 . S
H806 C816 0.930 . S
H807 C819 0.929 . S
H808 C822 0.930 . S
H809 C824 0.960 . S
H810 C824 0.960 . S
H811 C824 0.960 . S
C812 H804 0.929 . S
C812 C813 1.377 . S
C812 C814 1.384 . S
C813 C812 1.377 . S
C813 C819 1.390 . S
C814 H805 0.930 . S
C814 C812 1.384 . S
C814 C815 1.372 . S
C815 C814 1.372 . S
C815 C816 1.400 . S
C815 C820 1.490 . S
C816 H806 0.930 . S
C816 C815 1.400 . S
C816 C819 1.386 . S
H817 C833 0.930 . S
H818 C834 0.931 . S
C819 H807 0.929 . S
C819 C813 1.390 . S
C819 C816 1.386 . S
C820 C815 1.490 . S
C820 C822 1.395 . S
C820 C823 1.403 . S
H821 C827 0.930 . S
C822 H808 0.930 . S
C822 C820 1.395 . S
C822 C825 1.403 . S
C823 C820 1.403 . S
C823 C824 1.524 . S
C823 C827 1.400 . S
C824 H809 0.960 . S
C824 H810 0.960 . S
C824 H811 0.960 . S
C824 C823 1.524 . S
C825 C822 1.403 . S
C825 C826 1.392 . S
C825 C829 1.495 . S
C826 C825 1.392 . S
C826 C827 1.385 . S
C826 C828 1.478 . S
C827 H821 0.930 . S
C827 C823 1.400 . S
C827 C826 1.385 . S
C828 C826 1.478 . S
C828 C830 1.381 . S
C828 C834 1.383 . S
C829 C825 1.495 . S
C829 H835 0.959 . S
C829 H836 0.961 . S
C829 H837 0.960 . S
C830 C828 1.381 . S
C830 C831 1.394 . S
C830 H838 0.930 . S
C831 C830 1.394 . S
C831 C832 1.383 . S
C831 H839 0.929 . S
C832 C831 1.383 . S
C832 C833 1.377 . S
C833 H817 0.930 . S
C833 C832 1.377 . S
C833 C834 1.379 . S
C834 H818 0.931 . S
C834 C828 1.383 . S
C834 C833 1.379 . S
H835 C829 0.959 . S
H836 C829 0.961 . S
H837 C829 0.960 . S
H838 C830 0.930 . S
H839 C831 0.929 . S
H840 C848 0.929 . S
H841 C850 0.930 . S
H842 C852 0.930 . S
H843 C855 0.929 . S
H844 C858 0.930 . S
H845 C860 0.960 1_455 S
H846 C860 0.960 . S
H847 C860 0.960 . S
C848 H840 0.929 . S
C848 C849 1.377 . S
C848 C850 1.384 . S
C849 C848 1.377 . S
C849 C855 1.390 . S
C850 H841 0.930 . S
C850 C848 1.384 . S
C850 C851 1.372 . S
C851 C850 1.372 . S
C851 C852 1.400 . S
C851 C856 1.490 . S
C852 H842 0.930 . S
C852 C851 1.400 . S
C852 C855 1.386 . S
H853 C869 0.930 . S
H854 C870 0.931 . S
C855 H843 0.929 . S
C855 C849 1.390 . S
C855 C852 1.386 . S
C856 C851 1.490 . S
C856 C858 1.395 . S
C856 C859 1.403 . S
H857 C863 0.930 . S
C858 H844 0.930 . S
C858 C856 1.395 . S
C858 C861 1.403 1_655 S
C859 C856 1.403 . S
C859 C860 1.524 . S
C859 C863 1.400 1_655 S
C860 H845 0.960 1_655 S
C860 H846 0.960 . S
C860 H847 0.960 . S
C860 C859 1.524 . S
C861 C858 1.403 1_455 S
C861 C862 1.392 . S
C861 C865 1.495 . S
C862 C861 1.392 . S
C862 C863 1.385 . S
C862 C864 1.478 . S
C863 H857 0.930 . S
C863 C859 1.400 1_455 S
C863 C862 1.385 . S
C864 C862 1.478 . S
C864 C866 1.381 . S
C864 C870 1.383 . S
C865 C861 1.495 . S
C865 H871 0.959 1_455 S
C865 H872 0.961 . S
C865 H873 0.960 . S
C866 C864 1.381 . S
C866 C867 1.394 . S
C866 H874 0.930 . S
C867 C866 1.394 . S
C867 C868 1.383 . S
C867 H875 0.929 . S
C868 C867 1.383 . S
C868 C869 1.377 . S
C869 H853 0.930 . S
C869 C868 1.377 . S
C869 C870 1.379 . S
C870 H854 0.931 . S
C870 C864 1.383 . S
C870 C869 1.379 . S
H871 C865 0.959 1_655 S
H872 C865 0.961 . S
H873 C865 0.960 . S
H874 C866 0.930 . S
H875 C867 0.929 . S
H876 C884 0.929 . S
H877 C886 0.930 . S
H878 C888 0.930 . S
H879 C891 0.929 . S
H880 C894 0.930 . S
H881 C896 0.960 . S
H882 C896 0.960 . S
H883 C896 0.960 . S
C884 H876 0.929 . S
C884 C885 1.377 . S
C884 C886 1.384 . S
C885 C884 1.377 . S
C885 C891 1.390 . S
C886 H877 0.930 . S
C886 C884 1.384 . S
C886 C887 1.372 . S
C887 C886 1.372 . S
C887 C888 1.400 . S
C887 C892 1.490 . S
C888 H878 0.930 . S
C888 C887 1.400 . S
C888 C891 1.386 . S
H889 C905 0.930 . S
H890 C906 0.931 . S
C891 H879 0.929 . S
C891 C885 1.390 . S
C891 C888 1.386 . S
C892 C887 1.490 . S
C892 C894 1.395 . S
C892 C895 1.403 . S
H893 C899 0.930 . S
C894 H880 0.930 . S
C894 C892 1.395 . S
C894 C897 1.403 1_545 S
C895 C892 1.403 . S
C895 C896 1.524 . S
C895 C899 1.400 1_545 S
C896 H881 0.960 . S
C896 H882 0.960 . S
C896 H883 0.960 . S
C896 C895 1.524 . S
C897 C894 1.403 1_565 S
C897 C898 1.392 . S
C897 C901 1.495 . S
C898 C897 1.392 . S
C898 C899 1.385 . S
C898 C900 1.478 . S
C899 H893 0.930 . S
C899 C895 1.400 1_565 S
C899 C898 1.385 . S
C900 C898 1.478 . S
C900 C902 1.381 . S
C900 C906 1.383 . S
C901 C897 1.495 . S
C901 H907 0.959 . S
C901 H908 0.961 . S
C901 H909 0.960 . S
C902 C900 1.381 . S
C902 C903 1.394 . S
C902 H910 0.930 . S
C903 C902 1.394 . S
C903 C904 1.383 . S
C903 H911 0.929 . S
C904 C903 1.383 . S
C904 C905 1.377 . S
C905 H889 0.930 . S
C905 C904 1.377 . S
C905 C906 1.379 . S
C906 H890 0.931 . S
C906 C900 1.383 . S
C906 C905 1.379 . S
H907 C901 0.959 . S
H908 C901 0.961 . S
H909 C901 0.960 . S
H910 C902 0.930 . S
H911 C903 0.929 . S
H912 C920 0.929 . S
H913 C922 0.930 . S
H914 C924 0.930 . S
H915 C927 0.929 . S
H916 C930 0.930 . S
H917 C932 0.960 . S
H918 C932 0.960 . S
H919 C932 0.960 . S
C920 H912 0.929 . S
C920 C921 1.377 . S
C920 C922 1.384 . S
C921 C920 1.377 . S
C921 C927 1.390 . S
C922 H913 0.930 . S
C922 C920 1.384 . S
C922 C923 1.372 . S
C923 C922 1.372 . S
C923 C924 1.400 . S
C923 C928 1.490 . S
C924 H914 0.930 . S
C924 C923 1.400 . S
C924 C927 1.386 . S
H925 C941 0.930 . S
H926 C942 0.931 . S
C927 H915 0.929 . S
C927 C921 1.390 . S
C927 C924 1.386 . S
C928 C923 1.490 . S
C928 C930 1.395 . S
C928 C931 1.403 . S
H929 C935 0.930 . S
C930 H916 0.930 . S
C930 C928 1.395 . S
C930 C933 1.403 . S
C931 C928 1.403 . S
C931 C932 1.524 . S
C931 C935 1.400 . S
C932 H917 0.960 . S
C932 H918 0.960 . S
C932 H919 0.960 . S
C932 C931 1.524 . S
C933 C930 1.403 . S
C933 C934 1.392 . S
C933 C937 1.495 . S
C934 C933 1.392 . S
C934 C935 1.385 . S
C934 C936 1.478 . S
C935 H929 0.930 . S
C935 C931 1.400 . S
C935 C934 1.385 . S
C936 C934 1.478 . S
C936 C938 1.381 . S
C936 C942 1.383 . S
C937 C933 1.495 . S
C937 H943 0.959 . S
C937 H944 0.961 . S
C937 H945 0.960 . S
C938 C936 1.381 . S
C938 C939 1.394 . S
C938 H946 0.930 . S
C939 C938 1.394 . S
C939 C940 1.383 . S
C939 H947 0.929 . S
C940 C939 1.383 . S
C940 C941 1.377 . S
C941 H925 0.930 . S
C941 C940 1.377 . S
C941 C942 1.379 . S
C942 H926 0.931 . S
C942 C936 1.383 . S
C942 C941 1.379 . S
H943 C937 0.959 . S
H944 C937 0.961 . S
H945 C937 0.960 . S
H946 C938 0.930 . S
H947 C939 0.929 . S
H948 C956 0.929 . S
H949 C958 0.930 . S
H950 C960 0.930 . S
H951 C963 0.929 . S
H952 C966 0.930 . S
H953 C968 0.960 1_655 S
H954 C968 0.960 . S
H955 C968 0.960 . S
C956 H948 0.929 . S
C956 C957 1.377 . S
C956 C958 1.384 . S
C957 C956 1.377 . S
C957 C963 1.390 . S
C958 H949 0.930 . S
C958 C956 1.384 . S
C958 C959 1.372 . S
C959 C958 1.372 . S
C959 C960 1.400 . S
C959 C964 1.490 . S
C960 H950 0.930 . S
C960 C959 1.400 . S
C960 C963 1.386 . S
H961 C977 0.930 . S
H962 C978 0.931 . S
C963 H951 0.929 . S
C963 C957 1.390 . S
C963 C960 1.386 . S
C964 C959 1.490 . S
C964 C966 1.395 . S
C964 C967 1.403 . S
H965 C971 0.930 . S
C966 H952 0.930 . S
C966 C964 1.395 . S
C966 C969 1.403 1_455 S
C967 C964 1.403 . S
C967 C968 1.524 . S
C967 C971 1.400 1_455 S
C968 H953 0.960 1_455 S
C968 H954 0.960 . S
C968 H955 0.960 . S
C968 C967 1.524 . S
C969 C966 1.403 1_655 S
C969 C970 1.392 . S
C969 C973 1.495 . S
C970 C969 1.392 . S
C970 C971 1.385 . S
C970 C972 1.478 . S
C971 H965 0.930 . S
C971 C967 1.400 1_655 S
C971 C970 1.385 . S
C972 C970 1.478 . S
C972 C974 1.381 . S
C972 C978 1.383 . S
C973 C969 1.495 . S
C973 H979 0.959 1_655 S
C973 H980 0.961 . S
C973 H981 0.960 . S
C974 C972 1.381 . S
C974 C975 1.394 . S
C974 H982 0.930 . S
C975 C974 1.394 . S
C975 C976 1.383 . S
C975 H983 0.929 . S
C976 C975 1.383 . S
C976 C977 1.377 . S
C977 H961 0.930 . S
C977 C976 1.377 . S
C977 C978 1.379 . S
C978 H962 0.931 . S
C978 C972 1.383 . S
C978 C977 1.379 . S
H979 C973 0.959 1_455 S
H980 C973 0.961 . S
H981 C973 0.960 . S
H982 C974 0.930 . S
H983 C975 0.929 . S
H984 C992 0.929 . S
H985 C994 0.930 . S
H986 C996 0.930 . S
H987 C999 0.929 . S
H988 C1002 0.930 . S
H989 C1004 0.960 1_545 S
H990 C1004 0.960 . S
H991 C1004 0.960 . S
C992 H984 0.929 . S
C992 C993 1.377 . S
C992 C994 1.384 . S
C993 C992 1.377 . S
C993 C999 1.390 . S
C994 H985 0.930 . S
C994 C992 1.384 . S
C994 C995 1.372 . S
C995 C994 1.372 . S
C995 C996 1.400 . S
C995 C1000 1.490 . S
C996 H986 0.930 . S
C996 C995 1.400 . S
C996 C999 1.386 . S
H997 C1013 0.930 . S
H998 C1014 0.931 . S
C999 H987 0.929 . S
C999 C993 1.390 . S
C999 C996 1.386 . S
C1000 C995 1.490 . S
C1000 C1002 1.395 . S
C1000 C1003 1.403 . S
H1001 C1007 0.930 . S
C1002 H988 0.930 . S
C1002 C1000 1.395 . S
C1002 C1005 1.403 1_565 S
C1003 C1000 1.403 . S
C1003 C1004 1.524 . S
C1003 C1007 1.400 1_565 S
C1004 H989 0.960 1_565 S
C1004 H990 0.960 . S
C1004 H991 0.960 . S
C1004 C1003 1.524 . S
C1005 C1002 1.403 1_545 S
C1005 C1006 1.392 . S
C1005 C1009 1.495 . S
C1006 C1005 1.392 . S
C1006 C1007 1.385 . S
C1006 C1008 1.478 . S
C1007 H1001 0.930 . S
C1007 C1003 1.400 1_545 S
C1007 C1006 1.385 . S
C1008 C1006 1.478 . S
C1008 C1010 1.381 . S
C1008 C1014 1.383 . S
C1009 C1005 1.495 . S
C1009 H1015 0.959 1_545 S
C1009 H1016 0.961 . S
C1009 H1017 0.960 . S
C1010 C1008 1.381 . S
C1010 C1011 1.394 . S
C1010 H1018 0.930 . S
C1011 C1010 1.394 . S
C1011 C1012 1.383 . S
C1011 H1019 0.929 . S
C1012 C1011 1.383 . S
C1012 C1013 1.377 . S
C1013 H997 0.930 . S
C1013 C1012 1.377 . S
C1013 C1014 1.379 . S
C1014 H998 0.931 . S
C1014 C1008 1.383 . S
C1014 C1013 1.379 . S
H1015 C1009 0.959 1_565 S
H1016 C1009 0.961 . S
H1017 C1009 0.960 . S
H1018 C1010 0.930 . S
H1019 C1011 0.929 . S
C165 C134 1.231 . S
C184 C10 1.241 . S
C201 C17 1.238 . S
C220 C147 1.214 . S
C237 C36 1.236 . S
C256 C82 1.236 . S
C273 C49 1.238 . S
C292 C95 1.224 . S
C309 C108 1.238 . S
C328 C56 1.219 . S
C345 C69 1.239 . S
C364 C127 1.221 . S
C381 C109 1.214 . S
C400 C3 1.208 . S
C417 C18 1.203 . S
C436 C120 1.215 . S
C453 C29 1.205 . S
C472 C135 1.230 . S
C489 C42 1.203 . S
C508 C148 1.213 . S
C525 C83 1.207 . S
C544 C57 1.184 . S
C561 C96 1.204 . S
C580 C70 1.223 . S
C597 C44 1.120 . S
C616 C5 1.112 . S
C633 C16 1.121 . S
C652 C55 1.112 . S
C669 C68 1.118 . S
C688 C31 1.104 . S
C705 C122 1.119 . S
C724 C81 1.106 . S
C741 C133 1.119 . S
C760 C94 1.108 . S
C777 C107 1.124 . S
C796 C146 1.135 . S
C813 C43 1.631 . S
C832 C4 1.627 . S
C849 C23 1.630 . S
C868 C62 1.635 . S
C885 C75 1.631 . S
C904 C30 1.625 . S
C921 C88 1.631 . S
C940 C121 1.624 . S
C957 C140 1.631 . S
C976 C101 1.631 . S
C993 C114 1.631 . S
C1012 C153 1.633 . S
