# Generated by pormake.
# Topology ict, (4)-cn, num edge types: 1
# Building blocks:
#     Node 0, Type 0, BuildingBlock: AZAVOO_clean_sbu_0, # of connection points: 4
#     Node 1, Type 0, BuildingBlock: AZAVOO_clean_sbu_0, # of connection points: 4
#     Node 2, Type 0, BuildingBlock: AZAVOO_clean_sbu_0, # of connection points: 4
#     Node 3, Type 0, BuildingBlock: AZAVOO_clean_sbu_0, # of connection points: 4
#     Node 4, Type 0, BuildingBlock: AZAVOO_clean_sbu_0, # of connection points: 4
#     Node 5, Type 0, BuildingBlock: AZAVOO_clean_sbu_0, # of connection points: 4
#     Node 6, Type 0, BuildingBlock: AZAVOO_clean_sbu_0, # of connection points: 4
#     Node 7, Type 0, BuildingBlock: AZAVOO_clean_sbu_0, # of connection points: 4
#     Node 8, Type 0, BuildingBlock: AZAVOO_clean_sbu_0, # of connection points: 4
#     Node 9, Type 0, BuildingBlock: AZAVOO_clean_sbu_0, # of connection points: 4
#     Node 10, Type 0, BuildingBlock: AZAVOO_clean_sbu_0, # of connection points: 4
#     Node 11, Type 0, BuildingBlock: AZAVOO_clean_sbu_0, # of connection points: 4
#     Node 12, Type 0, BuildingBlock: AZAVOO_clean_sbu_0, # of connection points: 4
#     Node 13, Type 0, BuildingBlock: AZAVOO_clean_sbu_0, # of connection points: 4
#     Node 14, Type 0, BuildingBlock: AZAVOO_clean_sbu_0, # of connection points: 4
#     Node 15, Type 0, BuildingBlock: AZAVOO_clean_sbu_0, # of connection points: 4
#     Node 16, Type 0, BuildingBlock: AZAVOO_clean_sbu_0, # of connection points: 4
#     Node 17, Type 0, BuildingBlock: AZAVOO_clean_sbu_0, # of connection points: 4
#     Node 18, Type 0, BuildingBlock: AZAVOO_clean_sbu_0, # of connection points: 4
#     Node 19, Type 0, BuildingBlock: AZAVOO_clean_sbu_0, # of connection points: 4
#     Node 20, Type 0, BuildingBlock: AZAVOO_clean_sbu_0, # of connection points: 4
#     Node 21, Type 0, BuildingBlock: AZAVOO_clean_sbu_0, # of connection points: 4
#     Node 22, Type 0, BuildingBlock: AZAVOO_clean_sbu_0, # of connection points: 4
#     Node 23, Type 0, BuildingBlock: AZAVOO_clean_sbu_0, # of connection points: 4
#     Node 24, Type 0, BuildingBlock: AZAVOO_clean_sbu_0, # of connection points: 4
#     Node 25, Type 0, BuildingBlock: AZAVOO_clean_sbu_0, # of connection points: 4
#     Node 26, Type 0, BuildingBlock: AZAVOO_clean_sbu_0, # of connection points: 4
#     Node 27, Type 0, BuildingBlock: AZAVOO_clean_sbu_0, # of connection points: 4
#     Node 28, Type 0, BuildingBlock: AZAVOO_clean_sbu_0, # of connection points: 4
#     Node 29, Type 0, BuildingBlock: AZAVOO_clean_sbu_0, # of connection points: 4
#     Node 30, Type 0, BuildingBlock: AZAVOO_clean_sbu_0, # of connection points: 4
#     Node 31, Type 0, BuildingBlock: AZAVOO_clean_sbu_0, # of connection points: 4
#     Node 32, Type 0, BuildingBlock: AZAVOO_clean_sbu_0, # of connection points: 4
#     Node 33, Type 0, BuildingBlock: AZAVOO_clean_sbu_0, # of connection points: 4
#     Node 34, Type 0, BuildingBlock: AZAVOO_clean_sbu_0, # of connection points: 4
#     Node 35, Type 0, BuildingBlock: AZAVOO_clean_sbu_0, # of connection points: 4
#     Edge 36, Type (0, 0), BuildingBlock: KIFKEQ_clean_linker_1, # of connection points: 2
#     Edge 37, Type (0, 0), BuildingBlock: KIFKEQ_clean_linker_1, # of connection points: 2
#     Edge 38, Type (0, 0), BuildingBlock: KIFKEQ_clean_linker_1, # of connection points: 2
#     Edge 39, Type (0, 0), BuildingBlock: KIFKEQ_clean_linker_1, # of connection points: 2
#     Edge 40, Type (0, 0), BuildingBlock: KIFKEQ_clean_linker_1, # of connection points: 2
#     Edge 41, Type (0, 0), BuildingBlock: KIFKEQ_clean_linker_1, # of connection points: 2
#     Edge 42, Type (0, 0), BuildingBlock: KIFKEQ_clean_linker_1, # of connection points: 2
#     Edge 43, Type (0, 0), BuildingBlock: KIFKEQ_clean_linker_1, # of connection points: 2
#     Edge 44, Type (0, 0), BuildingBlock: KIFKEQ_clean_linker_1, # of connection points: 2
#     Edge 45, Type (0, 0), BuildingBlock: KIFKEQ_clean_linker_1, # of connection points: 2
#     Edge 46, Type (0, 0), BuildingBlock: KIFKEQ_clean_linker_1, # of connection points: 2
#     Edge 47, Type (0, 0), BuildingBlock: KIFKEQ_clean_linker_1, # of connection points: 2
#     Edge 48, Type (0, 0), BuildingBlock: KIFKEQ_clean_linker_1, # of connection points: 2
#     Edge 49, Type (0, 0), BuildingBlock: KIFKEQ_clean_linker_1, # of connection points: 2
#     Edge 50, Type (0, 0), BuildingBlock: KIFKEQ_clean_linker_1, # of connection points: 2
#     Edge 51, Type (0, 0), BuildingBlock: KIFKEQ_clean_linker_1, # of connection points: 2
#     Edge 52, Type (0, 0), BuildingBlock: KIFKEQ_clean_linker_1, # of connection points: 2
#     Edge 53, Type (0, 0), BuildingBlock: KIFKEQ_clean_linker_1, # of connection points: 2
#     Edge 54, Type (0, 0), BuildingBlock: KIFKEQ_clean_linker_1, # of connection points: 2
#     Edge 55, Type (0, 0), BuildingBlock: KIFKEQ_clean_linker_1, # of connection points: 2
#     Edge 56, Type (0, 0), BuildingBlock: KIFKEQ_clean_linker_1, # of connection points: 2
#     Edge 57, Type (0, 0), BuildingBlock: KIFKEQ_clean_linker_1, # of connection points: 2
#     Edge 58, Type (0, 0), BuildingBlock: KIFKEQ_clean_linker_1, # of connection points: 2
#     Edge 59, Type (0, 0), BuildingBlock: KIFKEQ_clean_linker_1, # of connection points: 2
#     Edge 60, Type (0, 0), BuildingBlock: KIFKEQ_clean_linker_1, # of connection points: 2
#     Edge 61, Type (0, 0), BuildingBlock: KIFKEQ_clean_linker_1, # of connection points: 2
#     Edge 62, Type (0, 0), BuildingBlock: KIFKEQ_clean_linker_1, # of connection points: 2
#     Edge 63, Type (0, 0), BuildingBlock: KIFKEQ_clean_linker_1, # of connection points: 2
#     Edge 64, Type (0, 0), BuildingBlock: KIFKEQ_clean_linker_1, # of connection points: 2
#     Edge 65, Type (0, 0), BuildingBlock: KIFKEQ_clean_linker_1, # of connection points: 2
#     Edge 66, Type (0, 0), BuildingBlock: KIFKEQ_clean_linker_1, # of connection points: 2
#     Edge 67, Type (0, 0), BuildingBlock: KIFKEQ_clean_linker_1, # of connection points: 2
#     Edge 68, Type (0, 0), BuildingBlock: KIFKEQ_clean_linker_1, # of connection points: 2
#     Edge 69, Type (0, 0), BuildingBlock: KIFKEQ_clean_linker_1, # of connection points: 2
#     Edge 70, Type (0, 0), BuildingBlock: KIFKEQ_clean_linker_1, # of connection points: 2
#     Edge 71, Type (0, 0), BuildingBlock: KIFKEQ_clean_linker_1, # of connection points: 2
#     Edge 72, Type (0, 0), BuildingBlock: KIFKEQ_clean_linker_1, # of connection points: 2
#     Edge 73, Type (0, 0), BuildingBlock: KIFKEQ_clean_linker_1, # of connection points: 2
#     Edge 74, Type (0, 0), BuildingBlock: KIFKEQ_clean_linker_1, # of connection points: 2
#     Edge 75, Type (0, 0), BuildingBlock: KIFKEQ_clean_linker_1, # of connection points: 2
#     Edge 76, Type (0, 0), BuildingBlock: KIFKEQ_clean_linker_1, # of connection points: 2
#     Edge 77, Type (0, 0), BuildingBlock: KIFKEQ_clean_linker_1, # of connection points: 2
#     Edge 78, Type (0, 0), BuildingBlock: KIFKEQ_clean_linker_1, # of connection points: 2
#     Edge 79, Type (0, 0), BuildingBlock: KIFKEQ_clean_linker_1, # of connection points: 2
#     Edge 80, Type (0, 0), BuildingBlock: KIFKEQ_clean_linker_1, # of connection points: 2
#     Edge 81, Type (0, 0), BuildingBlock: KIFKEQ_clean_linker_1, # of connection points: 2
#     Edge 82, Type (0, 0), BuildingBlock: KIFKEQ_clean_linker_1, # of connection points: 2
#     Edge 83, Type (0, 0), BuildingBlock: KIFKEQ_clean_linker_1, # of connection points: 2
#     Edge 84, Type (0, 0), BuildingBlock: KIFKEQ_clean_linker_1, # of connection points: 2
#     Edge 85, Type (0, 0), BuildingBlock: KIFKEQ_clean_linker_1, # of connection points: 2
#     Edge 86, Type (0, 0), BuildingBlock: KIFKEQ_clean_linker_1, # of connection points: 2
#     Edge 87, Type (0, 0), BuildingBlock: KIFKEQ_clean_linker_1, # of connection points: 2
#     Edge 88, Type (0, 0), BuildingBlock: KIFKEQ_clean_linker_1, # of connection points: 2
#     Edge 89, Type (0, 0), BuildingBlock: KIFKEQ_clean_linker_1, # of connection points: 2
#     Edge 90, Type (0, 0), BuildingBlock: KIFKEQ_clean_linker_1, # of connection points: 2
#     Edge 91, Type (0, 0), BuildingBlock: KIFKEQ_clean_linker_1, # of connection points: 2
#     Edge 92, Type (0, 0), BuildingBlock: KIFKEQ_clean_linker_1, # of connection points: 2
#     Edge 93, Type (0, 0), BuildingBlock: KIFKEQ_clean_linker_1, # of connection points: 2
#     Edge 94, Type (0, 0), BuildingBlock: KIFKEQ_clean_linker_1, # of connection points: 2
#     Edge 95, Type (0, 0), BuildingBlock: KIFKEQ_clean_linker_1, # of connection points: 2
#     Edge 96, Type (0, 0), BuildingBlock: KIFKEQ_clean_linker_1, # of connection points: 2
#     Edge 97, Type (0, 0), BuildingBlock: KIFKEQ_clean_linker_1, # of connection points: 2
#     Edge 98, Type (0, 0), BuildingBlock: KIFKEQ_clean_linker_1, # of connection points: 2
#     Edge 99, Type (0, 0), BuildingBlock: KIFKEQ_clean_linker_1, # of connection points: 2
#     Edge 100, Type (0, 0), BuildingBlock: KIFKEQ_clean_linker_1, # of connection points: 2
#     Edge 101, Type (0, 0), BuildingBlock: KIFKEQ_clean_linker_1, # of connection points: 2
#     Edge 102, Type (0, 0), BuildingBlock: KIFKEQ_clean_linker_1, # of connection points: 2
#     Edge 103, Type (0, 0), BuildingBlock: KIFKEQ_clean_linker_1, # of connection points: 2
#     Edge 104, Type (0, 0), BuildingBlock: KIFKEQ_clean_linker_1, # of connection points: 2
#     Edge 105, Type (0, 0), BuildingBlock: KIFKEQ_clean_linker_1, # of connection points: 2
#     Edge 106, Type (0, 0), BuildingBlock: KIFKEQ_clean_linker_1, # of connection points: 2
#     Edge 107, Type (0, 0), BuildingBlock: KIFKEQ_clean_linker_1, # of connection points: 2
# Relax obj value: 0.146
# Max RMSD: 0.166
# Mean RMSD: 0.156
data_MOF--net-ict--node1-AZAVOO_clean_sbu_0--edge1-KIFKEQ_clean_linker_1
_symmetry_space_group_name_H-M    P1
_symmetry_Int_Tables_number       1
_symmetry_cell_setting            triclinic
loop_
_symmetry_equiv_pos_as_xyz
'x, y, z'
_cell_length_a     67.928546
_cell_length_b     67.684675
_cell_length_c     36.772823
_cell_angle_alpha  90.597482
_cell_angle_beta   90.004563
_cell_angle_gamma 120.18547
loop_
_atom_site_label
_atom_site_type_symbol
_atom_site_fract_x
_atom_site_fract_y
_atom_site_fract_z
_atom_type_partial_charge
Mg0 Mg 0.22179 0.20888 0.07453 0.0
O1 O 0.21552 0.17226 0.06686 0.0
O2 O 0.18464 0.14913 0.09899 0.0
Mg3 Mg 0.17208 0.17016 0.12956 0.0
C4 C 0.20068 0.15231 0.07744 0.0
C5 C 0.2679 0.23401 0.03271 0.0
O6 O 0.27471 0.24057 0.06637 0.0
O7 O 0.19093 0.20059 0.03821 0.0
O8 O 0.16201 0.17887 0.07535 0.0
O9 O 0.24314 0.21565 0.12549 0.0
O10 O 0.20595 0.20067 0.12527 0.0
C11 C 0.16962 0.1892 0.04527 0.0
C12 C 0.22437 0.20747 0.1436 0.0
O13 O 0.24674 0.22082 0.02647 0.0
Mg14 Mg 0.78174 0.02063 0.03351 0.0
O15 O 0.81894 0.05044 0.03746 0.0
O16 O 0.8382 0.03877 0.07167 0.0
Mg17 Mg 0.814 0.00241 0.09074 0.0
C18 C 0.83743 0.05394 0.05239 0.0
C19 C 0.75379 0.03415 0.98362 0.0
O20 O 0.73804 0.01854 0.00442 0.0
O21 O 0.79206 0.00094 -0.00621 0.0
O22 O 0.81015 0.98964 0.03194 0.0
O23 O 0.77212 0.03119 0.08624 0.0
O24 O 0.78455 0.00685 0.0822 0.0
C25 C 0.80261 -0.0099 0.00031 0.0
C26 C 0.77731 0.01744 0.10223 0.0
O27 O 0.77438 0.03914 0.98816 0.0
Mg28 Mg 0.96399 0.7753 0.01726 0.0
O29 O 0.96964 0.77059 0.07748 0.0
O30 O 0.93766 0.74051 0.09726 0.0
Mg31 Mg 0.91128 0.72754 0.05098 0.0
C32 C 0.95809 0.75668 0.10257 0.0
C33 C 0.0055 0.81781 -0.00679 0.0
O34 O -0.01204 0.81905 0.9811 0.0
O35 O 0.96618 0.744 -0.00095 0.0
O36 O 0.93221 0.71584 0.01704 0.0
O37 O 0.951 0.7984 0.03292 0.0
O38 O 0.92891 0.76119 0.02448 0.0
C39 C 0.95115 0.72279 0.00064 0.0
C40 C 0.93075 0.78064 0.03248 0.0
O41 O 0.00183 0.80001 0.01018 0.0
Mg42 Mg 0.17925 0.21833 0.48504 0.0
O43 O 0.19 0.22159 0.42542 0.0
O44 O 0.19056 0.25214 0.40231 0.0
Mg45 Mg 0.17829 0.26729 0.44708 0.0
C46 C 0.19361 0.23508 0.3991 0.0
C47 C 0.17535 0.17312 0.50512 0.0
O48 O 0.15577 0.17088 0.51518 0.0
O49 O 0.21387 0.24862 0.50244 0.0
O50 O 0.21058 0.27764 0.48097 0.0
O51 O 0.14268 0.19723 0.46904 0.0
O52 O 0.16042 0.23471 0.47695 0.0
C53 C 0.22156 0.27004 0.49867 0.0
C54 C 0.14191 0.21595 0.46937 0.0
O55 O 0.19041 0.19207 0.49205 0.0
Mg56 Mg 0.7565 0.97746 0.43816 0.0
O57 O 0.76636 0.94947 0.43487 0.0
O58 O 0.79833 0.963 0.40267 0.0
Mg59 Mg 0.8087 -0.00101 0.38393 0.0
C60 C 0.7824 0.94719 0.42114 0.0
C61 C 0.71436 0.96198 0.48772 0.0
O62 O 0.71419 0.97813 0.46844 0.0
O63 O 0.78528 -0.00206 0.47956 0.0
O64 O 0.81574 0.01104 0.44325 0.0
O65 O 0.73756 0.96636 0.38433 0.0
O66 O 0.77382 -0.00767 0.39044 0.0
C67 C 0.8068 0.00969 0.47437 0.0
C68 C 0.75657 0.98103 0.36941 0.0
O69 O 0.73013 0.95737 0.48225 0.0
Mg70 Mg -0.00245 0.78011 0.43682 0.0
O71 O 0.02905 0.81655 0.43865 0.0
O72 O 0.02084 0.83844 0.40412 0.0
Mg73 Mg 0.98533 0.81697 0.3796 0.0
C74 C 0.03438 0.83592 0.42507 0.0
C75 C 0.00179 0.74871 0.49416 0.0
O76 O 0.98105 0.73519 0.4817 0.0
O77 O 0.97795 0.7914 0.4754 0.0
O78 O 0.97057 0.81228 0.43683 0.0
O79 O 0.00974 0.77068 0.38606 0.0
O80 O -0.01193 0.78627 0.38564 0.0
C81 C 0.96893 0.80361 0.46815 0.0
C82 C -0.0009 0.77862 0.36756 0.0
O83 O 0.01284 0.76914 0.48279 0.0
Mg84 Mg 0.76025 0.79684 0.92128 0.0
O85 O 0.79184 0.80084 0.95073 0.0
O86 O 0.79538 0.81842 0.0041 0.0
Mg87 Mg 0.76614 0.82582 0.00871 0.0
C88 C 0.80211 0.80888 0.98106 0.0
C89 C 0.77971 0.78209 0.85749 0.0
O90 O 0.79698 0.80236 0.8659 0.0
O91 O 0.73784 0.7673 0.95931 0.0
O92 O 0.74182 0.78703 0.01071 0.0
O93 O 0.77993 0.83177 0.89676 0.0
O94 O 0.7623 0.8246 0.94946 0.0
C95 C 0.73331 0.76815 -0.00712 0.0
C96 C 0.77453 0.83927 0.92533 0.0
O97 O 0.76228 0.77358 0.87788 0.0
Mg98 Mg 0.2069 0.97399 0.94096 0.0
O99 O 0.20607 0.00499 0.96757 0.0
O100 O 0.19351 -0.00649 0.024 0.0
Mg101 Mg 0.18588 0.95734 0.03381 0.0
C102 C 0.20066 0.00865 -0.00069 0.0
C103 C 0.22864 0.98034 0.86898 0.0
O104 O 0.22176 0.95934 0.8794 0.0
O105 O 0.23899 0.98236 0.97317 0.0
O106 O 0.2241 0.97046 0.02849 0.0
O107 O 0.17076 0.9581 0.92243 0.0
O108 O 0.18138 0.95125 0.97521 0.0
C109 C 0.241 0.9791 0.00679 0.0
C110 C 0.16515 0.9476 0.95319 0.0
O111 O 0.22655 -0.00625 0.89109 0.0
Mg112 Mg 0.02587 0.24163 0.96209 0.0
O113 O -0.00645 0.21001 0.98444 0.0
O114 O 0.00248 0.2053 0.04092 0.0
Mg115 Mg 0.03923 0.23225 0.05431 0.0
C116 C -0.01172 0.19931 0.0146 0.0
C117 C 0.01996 0.25004 0.88506 0.0
O118 O 0.04104 0.25461 0.88955 0.0
O119 O 0.01941 0.26601 -0.00297 0.0
O120 O 0.02929 0.26012 0.05226 0.0
O121 O 0.03961 0.21969 0.94177 0.0
O122 O 0.04713 0.23619 -0.00396 0.0
C123 C 0.02245 0.27036 0.03116 0.0
C124 C 0.04994 0.22347 0.97281 0.0
O125 O 0.00692 0.24391 0.91259 0.0
Mg126 Mg 0.7813 0.76688 0.54463 0.0
O127 O 0.78658 0.79851 0.51392 0.0
O128 O 0.80769 0.80358 0.46464 0.0
Mg129 Mg 0.81746 0.77569 0.46497 0.0
C130 C 0.79629 0.80946 0.48514 0.0
C131 C 0.73935 0.76282 0.60104 0.0
O132 O 0.72063 0.76399 0.59933 0.0
O133 O 0.75704 0.74342 0.50029 0.0
O134 O 0.78014 0.74855 0.45361 0.0
O135 O 0.81413 0.78821 0.57711 0.0
O136 O 0.81196 0.77158 0.52431 0.0
C137 C 0.76036 0.73882 0.46788 0.0
C138 C 0.82433 0.78441 0.55056 0.0
O139 O 0.75059 0.76608 0.57187 0.0
Mg140 Mg 0.22493 0.01911 0.53185 0.0
O141 O 0.19274 0.98683 0.50914 0.0
O142 O 0.18786 -0.00348 0.45331 0.0
Mg143 Mg 0.2144 0.03325 0.44077 0.0
C144 C 0.18196 0.98198 0.47878 0.0
C145 C 0.24332 0.01496 0.60255 0.0
O146 O 0.2555 0.03632 0.59224 0.0
O147 O 0.24814 0.01212 0.49566 0.0
O148 O 0.24165 0.02267 0.44146 0.0
O149 O 0.20414 0.03336 0.55421 0.0
O150 O 0.21895 0.04049 0.49924 0.0
C151 C 0.25186 0.01529 0.46155 0.0
C152 C 0.20699 0.04351 0.52341 0.0
O153 O 0.22826 0.00058 0.58072 0.0
Mg154 Mg 0.95042 0.20441 0.55675 0.0
O155 O 0.98088 0.20195 0.53464 0.0
O156 O 0.97 0.18228 0.48202 0.0
Mg157 Mg 0.93383 0.17432 0.46897 0.0
C158 C 0.98484 0.193 0.50686 0.0
C159 C 0.95837 0.22445 0.63053 0.0
O160 O 0.9364 0.21041 0.62606 0.0
O161 O 0.95914 0.23328 0.51673 0.0
O162 O 0.94742 0.21301 0.46479 0.0
O163 O 0.93504 0.16995 0.5826 0.0
O164 O 0.92733 0.17584 0.52684 0.0
C165 C 0.95602 0.23204 0.48227 0.0
C166 C 0.92404 0.16169 0.55239 0.0
O167 O 0.9714 0.22801 0.60349 0.0
Mg168 Mg 0.88222 0.54803 0.37796 0.0
O169 O 0.87656 0.51143 0.37469 0.0
O170 O 0.84568 0.48935 0.40763 0.0
Mg171 Mg 0.83223 0.51103 0.43345 0.0
C172 C 0.86193 0.4919 0.38711 0.0
C173 C 0.92861 0.57458 0.33864 0.0
O174 O 0.93342 0.58332 0.37171 0.0
O175 O 0.85162 0.53787 0.33944 0.0
O176 O 0.82247 0.51723 0.37671 0.0
O177 O 0.90341 0.55627 0.42908 0.0
O178 O 0.86622 0.54145 0.42896 0.0
C179 C 0.83021 0.52637 0.34587 0.0
C180 C 0.88474 0.54857 0.44733 0.0
O181 O 0.9082 0.55917 0.33126 0.0
Mg182 Mg 0.45126 0.35277 0.38491 0.0
O183 O 0.48899 0.38192 0.38503 0.0
O184 O 0.50882 0.36964 0.41653 0.0
Mg185 Mg 0.48465 0.33426 0.43882 0.0
C186 C 0.50785 0.38484 0.39765 0.0
C187 C 0.4257 0.37323 0.34354 0.0
O188 O 0.41445 0.367 0.37429 0.0
O189 O 0.4593 0.33161 0.34474 0.0
O190 O 0.47779 0.31979 0.38086 0.0
O191 O 0.44345 0.3649 0.43757 0.0
O192 O 0.45615 0.34076 0.43415 0.0
C193 C 0.46922 0.32007 0.3501 0.0
C194 C 0.44967 0.35211 0.45407 0.0
O195 O 0.44242 0.36993 0.33905 0.0
Mg196 Mg 0.6271 0.11379 0.33406 0.0
O197 O 0.63556 0.10992 0.39313 0.0
O198 O 0.60562 0.07917 0.4161 0.0
Mg199 Mg 0.57754 0.06449 0.37249 0.0
C200 C 0.62585 0.09609 0.41918 0.0
C201 C 0.66848 0.15819 0.3102 0.0
O202 O 0.65124 0.16057 0.3001 0.0
O203 O 0.63061 0.0836 0.31449 0.0
O204 O 0.59882 0.05408 0.3367 0.0
O205 O 0.61242 0.13512 0.3518 0.0
O206 O 0.59215 0.09765 0.34428 0.0
C207 C 0.61714 0.06214 0.31819 0.0
C208 C 0.59278 0.11653 0.35246 0.0
O209 O 0.66443 0.13963 0.32496 0.0
Mg210 Mg 0.85658 0.55627 0.79831 0.0
O211 O 0.86624 0.56024 0.73778 0.0
O212 O 0.86497 0.59049 0.71736 0.0
Mg213 Mg 0.85248 0.60433 0.76373 0.0
C214 C 0.86864 0.57394 0.71232 0.0
C215 C 0.86043 0.51341 0.7855 0.0
O216 O 0.84605 0.51125 0.75975 0.0
O217 O 0.89054 0.58745 0.81572 0.0
O218 O 0.88515 0.61576 0.79726 0.0
O219 O 0.82 0.53368 0.78381 0.0
O220 O 0.83639 0.57109 0.79149 0.0
C221 C 0.89699 0.60871 0.81379 0.0
C222 C 0.81831 0.55189 0.7842 0.0
O223 O 0.86934 0.53131 0.80544 0.0
Mg224 Mg 0.43146 0.31365 0.79108 0.0
O225 O 0.43742 0.2828 0.7883 0.0
O226 O 0.46898 0.29401 0.75581 0.0
Mg227 Mg 0.48272 0.33036 0.73624 0.0
C228 C 0.45243 0.27896 0.77431 0.0
C229 C 0.38533 0.29402 0.832 0.0
O230 O 0.38091 0.30132 0.80182 0.0
O231 O 0.46111 0.33265 0.83172 0.0
O232 O 0.49099 0.34333 0.7949 0.0
O233 O 0.4119 0.30398 0.73759 0.0
O234 O 0.44893 0.32664 0.74262 0.0
C235 C 0.48261 0.34312 0.82607 0.0
C236 C 0.43128 0.3168 0.72198 0.0
O237 O 0.405 0.29634 0.83624 0.0
Mg238 Mg 0.67755 0.12257 0.74471 0.0
O239 O 0.7094 0.15844 0.75049 0.0
O240 O 0.70348 0.1818 0.71563 0.0
Mg241 Mg 0.66953 0.16163 0.6856 0.0
C242 C 0.7157 0.17831 0.73812 0.0
C243 C 0.70724 0.10886 0.79068 0.0
O244 O 0.71855 0.1151 0.76 0.0
O245 O 0.65669 0.13386 0.77983 0.0
O246 O 0.65113 0.15531 0.73983 0.0
O247 O 0.69104 0.11317 0.69496 0.0
O248 O 0.67084 0.13028 0.69286 0.0
C249 C 0.64783 0.14596 0.77093 0.0
C250 C 0.6816 0.12206 0.67568 0.0
O251 O 0.68933 0.1103 0.79385 0.0
Mg252 Mg 0.41381 0.12468 0.25548 0.0
O253 O 0.4454 0.12665 0.28287 0.0
O254 O 0.44949 0.14304 0.33758 0.0
Mg255 Mg 0.42064 0.15056 0.3458 0.0
C256 C 0.45595 0.13397 0.31326 0.0
C257 C 0.39798 0.09665 0.18629 0.0
O258 O 0.38254 0.1024 0.19327 0.0
O259 O 0.39069 0.09435 0.29101 0.0
O260 O 0.39574 0.1117 0.34528 0.0
O261 O 0.43463 0.16 0.23363 0.0
O262 O 0.41718 0.1519 0.28669 0.0
C263 C 0.38669 0.09378 0.32504 0.0
C264 C 0.42993 0.16705 0.26346 0.0
O265 O 0.41396 0.10214 0.20927 0.0
Mg266 Mg 0.87347 0.31121 0.27983 0.0
O267 O 0.87187 0.34256 0.30253 0.0
O268 O 0.85583 0.33176 0.35726 0.0
Mg269 Mg 0.84624 0.29513 0.36913 0.0
C270 C 0.86485 0.3467 0.3324 0.0
C271 C 0.89725 0.31728 0.20942 0.0
O272 O 0.88844 0.29575 0.21855 0.0
O273 O 0.90326 0.31887 0.31819 0.0
O274 O 0.88415 0.3065 0.37037 0.0
O275 O 0.83861 0.29601 0.25541 0.0
O276 O 0.84557 0.28884 0.31076 0.0
C277 C 0.9026 0.31475 0.3522 0.0
C278 C 0.83091 0.28556 0.28588 0.0
O279 O 0.89597 0.33094 0.23207 0.0
Mg280 Mg 0.68036 0.5657 0.26471 0.0
O281 O 0.65686 0.53444 0.29805 0.0
O282 O 0.67472 0.53145 0.34655 0.0
Mg283 Mg 0.71146 0.56168 0.343 0.0
C284 C 0.65686 0.52422 0.32691 0.0
C285 C 0.6423 0.56695 0.20954 0.0
O286 O 0.62147 0.56323 0.20596 0.0
O287 O 0.67872 0.58954 0.30761 0.0
O288 O 0.69864 0.58673 0.35371 0.0
O289 O 0.69346 0.54518 0.23385 0.0
O290 O 0.70908 0.56553 0.28362 0.0
C291 C 0.68725 0.59509 0.3396 0.0
C292 C 0.70933 0.55246 0.25843 0.0
O293 O 0.64787 0.56148 0.23912 0.0
Mg294 Mg 0.45282 0.09044 0.85844 0.0
O295 O 0.45168 0.12218 0.83814 0.0
O296 O 0.46623 0.12842 0.7821 0.0
Mg297 Mg 0.47858 0.10354 0.76811 0.0
C298 C 0.45713 0.13336 0.80843 0.0
C299 C 0.42892 0.07167 0.92945 0.0
O300 O 0.43984 0.06065 0.92247 0.0
O301 O 0.42342 0.06688 0.82019 0.0
O302 O 0.44154 0.07394 0.76702 0.0
O303 O 0.48754 0.11198 0.88301 0.0
O304 O 0.4812 0.09896 0.82647 0.0
C305 C 0.42363 0.06281 0.7862 0.0
C306 C 0.49561 0.11081 0.85171 0.0
O307 O 0.42938 0.08553 0.90591 0.0
Mg308 Mg 0.90124 0.35844 0.86867 0.0
O309 O 0.86977 0.32623 0.84358 0.0
O310 O 0.86901 0.33557 0.78561 0.0
Mg311 Mg 0.89681 0.37172 0.77351 0.0
C312 C 0.86106 0.32129 0.81153 0.0
C313 C 0.91579 0.35459 0.94346 0.0
O314 O 0.92905 0.3758 0.93313 0.0
O315 O 0.92569 0.34974 0.83898 0.0
O316 O 0.92273 0.36023 0.78265 0.0
O317 O 0.8805 0.37464 0.88372 0.0
O318 O 0.89801 0.37954 0.83138 0.0
C319 C 0.93138 0.35259 0.80546 0.0
C320 C 0.88534 0.3839 0.85194 0.0
O321 O 0.90128 0.34041 0.92076 0.0
Mg322 Mg 0.63243 0.5379 0.89403 0.0
O323 O 0.65979 0.53392 0.86405 0.0
O324 O 0.64502 0.51324 0.81307 0.0
Mg325 Mg 0.60879 0.50691 0.80825 0.0
C326 C 0.66155 0.52427 0.83522 0.0
C327 C 0.65363 0.57516 0.95315 0.0
O328 O 0.63623 0.57694 0.9419 0.0
O329 O 0.63881 0.56638 0.85477 0.0
O330 O 0.62432 0.54592 0.80336 0.0
O331 O 0.61813 0.50373 0.92025 0.0
O332 O 0.60642 0.50948 0.86749 0.0
C333 C 0.63433 0.56499 0.82076 0.0
C334 C 0.60467 0.49546 0.89237 0.0
O335 O 0.65847 0.56182 0.93588 0.0
Mg336 Mg 0.54962 0.86737 0.72544 0.0
O337 O 0.54751 0.83226 0.72189 0.0
O338 O 0.51934 0.80885 0.75856 0.0
Mg339 Mg 0.50443 0.82833 0.78739 0.0
C340 C 0.53494 0.81256 0.73569 0.0
C341 C 0.59273 0.88168 0.67858 0.0
O342 O 0.5982 0.87584 0.70928 0.0
O343 O 0.51664 0.85361 0.6913 0.0
O344 O 0.49076 0.83223 0.73287 0.0
O345 O 0.57347 0.87907 0.77415 0.0
O346 O 0.53612 0.86042 0.77797 0.0
C347 C 0.49592 0.84083 0.70114 0.0
C348 C 0.55549 0.8699 0.7943 0.0
O349 O 0.57309 0.87961 0.67556 0.0
Mg350 Mg 0.1016 0.66696 0.69873 0.0
O351 O 0.13902 0.69682 0.69936 0.0
O352 O 0.15898 0.6855 0.73269 0.0
Mg353 Mg 0.13565 0.64949 0.75303 0.0
C354 C 0.15782 0.70041 0.71327 0.0
C355 C 0.07371 0.6738 0.63722 0.0
O356 O 0.0613 0.65162 0.64192 0.0
O357 O 0.11087 0.64701 0.65731 0.0
O358 O 0.1306 0.63694 0.69399 0.0
O359 O 0.0939 0.67904 0.75129 0.0
O360 O 0.1065 0.65481 0.74833 0.0
C361 C 0.12223 0.63689 0.66288 0.0
C362 C 0.1004 0.66657 0.7681 0.0
O363 O 0.09225 0.68498 0.65505 0.0
Mg364 Mg 0.30001 0.44433 0.68396 0.0
O365 O 0.30653 0.44106 0.74412 0.0
O366 O 0.27484 0.41234 0.76734 0.0
Mg367 Mg 0.24741 0.39885 0.72264 0.0
C368 C 0.29559 0.42818 0.7706 0.0
C369 C 0.34497 0.47826 0.64678 0.0
O370 O 0.33033 0.47355 0.62011 0.0
O371 O 0.30078 0.4118 0.66864 0.0
O372 O 0.26694 0.38513 0.68978 0.0
O373 O 0.28801 0.46866 0.69742 0.0
O374 O 0.26532 0.4313 0.69274 0.0
C375 C 0.28539 0.39086 0.6726 0.0
C376 C 0.26764 0.45114 0.69888 0.0
O377 O 0.33797 0.46768 0.67657 0.0
Mg378 Mg 0.51304 0.88354 0.13546 0.0
O379 O 0.52566 0.88703 0.07665 0.0
O380 O 0.52573 0.91707 0.05227 0.0
Mg381 Mg 0.51165 0.93167 0.09476 0.0
C382 C 0.52952 0.90045 0.05008 0.0
C383 C 0.51223 0.84046 0.16213 0.0
O384 O 0.49216 0.83693 0.17217 0.0
O385 O 0.54627 0.91453 0.15467 0.0
O386 O 0.54345 0.94338 0.13106 0.0
O387 O 0.47716 0.86107 0.11743 0.0
O388 O 0.49357 0.89858 0.12332 0.0
C389 C 0.55391 0.93586 0.15028 0.0
C390 C 0.47565 0.87935 0.11528 0.0
O391 O 0.52584 0.85901 0.14639 0.0
Mg392 Mg 0.10052 0.65897 0.11147 0.0
O393 O 0.10899 0.62985 0.11372 0.0
O394 O 0.14021 0.64102 0.08023 0.0
Mg395 Mg 0.15141 0.67584 0.05578 0.0
C396 C 0.12453 0.62648 0.10067 0.0
C397 C 0.0544 0.63845 0.15114 0.0
O398 O 0.04995 0.64362 0.119 0.0
O399 O 0.13046 0.68115 0.15037 0.0
O400 O 0.16007 0.69151 0.11315 0.0
O401 O 0.07963 0.64455 0.06033 0.0
O402 O 0.11643 0.6693 0.06068 0.0
C403 C 0.1519 0.6922 0.14412 0.0
C404 C 0.09816 0.65663 0.0422 0.0
O405 O 0.0746 0.64278 0.1579 0.0
Mg406 Mg 0.34716 0.45603 0.09728 0.0
O407 O 0.37862 0.49234 0.10017 0.0
O408 O 0.37177 0.51433 0.06337 0.0
Mg409 Mg 0.33663 0.49314 0.03739 0.0
C410 C 0.38459 0.51163 0.0857 0.0
C411 C 0.36757 0.43127 0.14104 0.0
O412 O 0.3663 0.42312 0.108 0.0
O413 O 0.32667 0.46742 0.13281 0.0
O414 O 0.3201 0.48847 0.0933 0.0
O415 O 0.36008 0.44628 0.04735 0.0
O416 O 0.33881 0.46229 0.04556 0.0
C417 C 0.31772 0.47954 0.1246 0.0
C418 C 0.3498 0.45437 0.02824 0.0
O419 O 0.36074 0.44547 0.14641 0.0
Mg420 Mg 0.08778 0.45004 0.59418 0.0
O421 O 0.12128 0.45909 0.62259 0.0
O422 O 0.1283 0.48345 0.6688 0.0
Mg423 Mg 0.09881 0.49076 0.66936 0.0
C424 C 0.1336 0.47109 0.64937 0.0
C425 C 0.08433 0.40618 0.54137 0.0
O426 O 0.08633 0.38799 0.54528 0.0
O427 O 0.06872 0.42795 0.6427 0.0
O428 O 0.07521 0.45359 0.68668 0.0
O429 O 0.10566 0.48092 0.55733 0.0
O430 O 0.09168 0.4812 0.61127 0.0
C431 C 0.06612 0.43292 0.67528 0.0
C432 C 0.10268 0.49226 0.58314 0.0
O433 O 0.08761 0.41872 0.56936 0.0
Mg434 Mg 0.54668 0.63587 0.60721 0.0
O435 O 0.54668 0.66741 0.63317 0.0
O436 O 0.5337 0.65647 0.6896 0.0
Mg437 Mg 0.5248 0.61988 0.69979 0.0
C438 C 0.54138 0.67147 0.66469 0.0
C439 C 0.55947 0.64107 0.53037 0.0
O440 O 0.54395 0.61972 0.53667 0.0
O441 O 0.57836 0.64328 0.64017 0.0
O442 O 0.56278 0.63182 0.69524 0.0
O443 O 0.51058 0.62098 0.58852 0.0
O444 O 0.52075 0.61354 0.64124 0.0
C445 C 0.57989 0.63991 0.67395 0.0
C446 C 0.50472 0.61032 0.61912 0.0
O447 O 0.56663 0.65517 0.55704 0.0
Mg448 Mg 0.3471 0.88192 0.60907 0.0
O449 O 0.31507 0.85086 0.63281 0.0
O450 O 0.32491 0.84666 0.68901 0.0
Mg451 Mg 0.36247 0.87211 0.69996 0.0
C452 C 0.31017 0.84077 0.6635 0.0
C453 C 0.31825 0.8693 0.53813 0.0
O454 O 0.31891 0.85047 0.54342 0.0
O455 O 0.34205 0.90657 0.64609 0.0
O456 O 0.35457 0.90129 0.69929 0.0
O457 O 0.36061 0.86015 0.58586 0.0
O458 O 0.36812 0.875 0.64118 0.0
C459 C 0.34715 0.91166 0.6797 0.0
C460 C 0.37067 0.8627 0.61685 0.0
O461 O 0.32683 0.88508 0.56221 0.0
Mg462 Mg 0.12888 0.44618 0.21871 0.0
O463 O 0.12982 0.47719 0.19137 0.0
O464 O 0.14216 0.47845 0.1347 0.0
Mg465 Mg 0.14994 0.44964 0.1259 0.0
C466 C 0.13498 0.48626 0.15994 0.0
C467 C 0.09098 0.43211 0.27891 0.0
O468 O 0.08106 0.41308 0.2596 0.0
O469 O 0.09688 0.42131 0.18599 0.0
O470 O 0.11175 0.42364 0.1307 0.0
O471 O 0.16548 0.46714 0.23648 0.0
O472 O 0.15413 0.44781 0.18473 0.0
C473 C 0.09488 0.41527 0.15248 0.0
C474 C 0.17062 0.46086 0.20627 0.0
O475 O 0.10938 0.44892 0.26741 0.0
Mg476 Mg 0.57434 0.69504 0.19608 0.0
O477 O 0.54047 0.66362 0.17627 0.0
O478 O 0.53253 0.67414 0.12324 0.0
Mg479 Mg 0.5604 0.70977 0.1078 0.0
C480 C 0.52761 0.65958 0.14843 0.0
C481 C 0.58805 0.69044 0.26973 0.0
O482 O 0.59586 0.71217 0.26309 0.0
O483 O 0.59456 0.68594 0.15614 0.0
O484 O 0.586 0.69714 0.10441 0.0
O485 O 0.55569 0.71091 0.2218 0.0
O486 O 0.56824 0.71721 0.16547 0.0
C487 C 0.59663 0.68904 0.12176 0.0
C488 C 0.55751 0.7208 0.19108 0.0
O489 O 0.57799 0.676 0.24406 0.0
Mg490 Mg 0.3018 0.88404 0.22796 0.0
O491 O 0.32478 0.87592 0.19343 0.0
O492 O 0.30666 0.85433 0.14498 0.0
Mg493 Mg 0.27092 0.8499 0.14743 0.0
C494 C 0.32455 0.8652 0.16458 0.0
C495 C 0.34384 0.92164 0.28574 0.0
O496 O 0.36465 0.93925 0.28448 0.0
O497 O 0.30549 0.91038 0.18621 0.0
O498 O 0.28731 0.88848 0.13758 0.0
O499 O 0.28751 0.84979 0.25643 0.0
O500 O 0.27279 0.85555 0.20712 0.0
C501 C 0.29897 0.90801 0.15308 0.0
C502 C 0.27192 0.84171 0.23142 0.0
O503 O 0.33433 0.91203 0.25574 0.0
H504 H 0.38889 0.27827 0.89877 0.0
H505 H 0.342 0.28687 0.8306 0.0
H506 H 0.36024 0.26263 0.94653 0.0
H507 H 0.31358 0.27168 0.8785 0.0
H508 H 0.26019 0.22383 0.95971 0.0
H509 H 0.28828 0.237 0.91098 0.0
H510 H 0.34189 0.27556 0.98935 0.0
H511 H 0.31398 0.26211 0.03797 0.0
C512 C 0.37249 0.27683 0.89394 0.0
C513 C 0.3678 0.28389 0.86085 0.0
C514 C 0.35608 0.26797 0.92142 0.0
C515 C 0.33458 0.26594 0.91646 0.0
C516 C 0.32982 0.27272 0.88314 0.0
C517 C 0.34622 0.28159 0.85572 0.0
C518 C 0.27797 0.23508 0.96653 0.0
C519 C 0.28479 0.24191 0.00279 0.0
C520 C 0.29408 0.24273 0.93856 0.0
C521 C 0.31739 0.25734 0.94619 0.0
C522 C 0.32416 0.26405 0.98249 0.0
C523 C 0.30809 0.25645 0.01039 0.0
H524 H 0.74265 0.10058 0.78944 0.0
H525 H 0.6889 0.09533 0.8587 0.0
H526 H 0.7541 0.0832 0.83623 0.0
H527 H 0.7008 0.07849 0.9061 0.0
H528 H 0.71111 0.02497 0.96462 0.0
H529 H 0.70044 0.04377 0.91912 0.0
H530 H 0.77149 0.08914 0.89486 0.0
H531 H 0.78214 0.06984 0.93981 0.0
C532 C 0.73339 0.09592 0.81482 0.0
C533 C 0.71478 0.09929 0.82021 0.0
C534 C 0.74008 0.08606 0.84182 0.0
C535 C 0.7284 0.07936 0.87505 0.0
C536 C 0.70999 0.08308 0.88066 0.0
C537 C 0.70324 0.09289 0.85356 0.0
C538 C 0.72449 0.03895 0.9496 0.0
C539 C 0.7475 0.04583 0.95584 0.0
C540 C 0.71836 0.04988 0.92364 0.0
C541 C 0.73507 0.06806 0.90327 0.0
C542 C 0.75812 0.07501 0.90964 0.0
C543 C 0.76426 0.06401 0.93555 0.0
H544 H 0.97936 0.73096 0.94232 0.0
H545 H 0.92802 0.67636 0.00674 0.0
H546 H 0.9754 0.70315 0.89576 0.0
H547 H 0.92388 0.64877 0.96029 0.0
H548 H 0.91525 0.60054 0.8744 0.0
H549 H 0.9375 0.62847 0.92192 0.0
H550 H 0.94326 0.68274 0.85386 0.0
H551 H 0.92139 0.65502 0.80649 0.0
C552 C 0.96778 0.71299 0.94716 0.0
C553 C 0.95368 0.70593 0.97795 0.0
C554 C 0.96541 0.69706 0.92033 0.0
C555 C 0.94904 0.67376 0.92394 0.0
C556 C 0.93673 0.66651 0.95655 0.0
C557 C 0.93898 0.68241 0.98317 0.0
C558 C 0.92204 0.61852 0.86902 0.0
C559 C 0.91615 0.62551 0.83692 0.0
C560 C 0.93464 0.63452 0.89641 0.0
C561 C 0.94178 0.6578 0.89205 0.0
C562 C 0.93812 0.66499 0.85825 0.0
C563 C 0.92542 0.64903 0.83105 0.0
H564 H 0.31188 0.39547 0.61327 0.0
H565 H 0.26152 0.34498 0.68441 0.0
H566 H 0.3056 0.36524 0.56987 0.0
H567 H 0.25496 0.31503 0.64106 0.0
H568 H 0.24002 0.26261 0.55983 0.0
H569 H 0.26501 0.29169 0.60403 0.0
H570 H 0.27258 0.34457 0.53082 0.0
H571 H 0.24814 0.3157 0.48673 0.0
C572 C 0.30003 0.37789 0.62025 0.0
C573 C 0.28682 0.37268 0.65193 0.0
C574 C 0.29631 0.36056 0.59523 0.0
C575 C 0.27943 0.33773 0.60156 0.0
C576 C 0.26814 0.33235 0.63518 0.0
C577 C 0.27178 0.34961 0.66003 0.0
C578 C 0.24773 0.28045 0.55263 0.0
C579 C 0.24168 0.28684 0.5201 0.0
C580 C 0.26193 0.29713 0.5781 0.0
C581 C 0.27043 0.32048 0.57138 0.0
C582 C 0.26645 0.32681 0.53705 0.0
C583 C 0.25222 0.31019 0.51176 0.0
H584 H 0.6367 0.89071 0.67924 0.0
H585 H 0.5876 0.89575 0.6112 0.0
H586 H 0.66557 0.90932 0.6328 0.0
H587 H 0.61642 0.91387 0.56413 0.0
H588 H 0.6801 0.96973 0.50792 0.0
H589 H 0.65049 0.94942 0.55272 0.0
H590 H 0.67745 0.9048 0.57351 0.0
H591 H 0.70752 0.92558 0.52924 0.0
C592 C 0.63197 0.89557 0.65419 0.0
C593 C 0.6098 0.8918 0.64906 0.0
C594 C 0.64855 0.90614 0.62738 0.0
C595 C 0.64342 0.91319 0.59463 0.0
C596 C 0.62111 0.90902 0.58922 0.0
C597 C 0.60451 0.89848 0.61612 0.0
C598 C 0.67975 0.95558 0.52201 0.0
C599 C 0.69627 0.94934 0.515 0.0
C600 C 0.66261 0.94379 0.54756 0.0
C601 C 0.66145 0.92537 0.56675 0.0
C602 C 0.67794 0.91906 0.55961 0.0
C603 C 0.69515 0.93092 0.53409 0.0
H604 H 0.04721 0.76769 0.5108 0.0
H605 H 0.98145 0.70827 0.53038 0.0
H606 H 0.06553 0.75021 0.5441 0.0
H607 H -0.00045 0.69118 0.56476 0.0
H608 H 0.03808 0.65476 0.58922 0.0
H609 H 0.02157 0.67367 0.55547 0.0
H610 H 0.07207 0.73876 0.60149 0.0
H611 H 0.08911 0.71982 0.63423 0.0
C612 C 0.03662 0.75106 0.52272 0.0
C613 C 0.01286 0.73933 0.51772 0.0
C614 C 0.04713 0.74102 0.54193 0.0
C615 C 0.03411 0.71909 0.55687 0.0
C616 C 0.01026 0.70779 0.55289 0.0
C617 C -0.00019 0.71771 0.53343 0.0
C618 C 0.04579 0.67314 0.59193 0.0
C619 C 0.06489 0.68574 0.61453 0.0
C620 C 0.03617 0.68401 0.5728 0.0
C621 C 0.04521 0.70779 0.57603 0.0
C622 C 0.06469 0.72048 0.59801 0.0
C623 C 0.07446 0.7096 0.6169 0.0
H624 H 0.60129 0.68769 0.04838 0.0
H625 H 0.63271 0.68621 0.14968 0.0
H626 H 0.63614 0.69796 0.01645 0.0
H627 H 0.66763 0.69558 0.11723 0.0
H628 H 0.72682 0.76196 0.06571 0.0
H629 H 0.69376 0.73243 0.09609 0.0
H630 H 0.66795 0.6966 -0.00644 0.0
H631 H 0.70109 0.727 0.96269 0.0
C632 C 0.61542 0.68872 0.06369 0.0
C633 C 0.61451 0.68701 0.1018 0.0
C634 C 0.63547 0.69441 0.0452 0.0
C635 C 0.65505 0.69837 0.06439 0.0
C636 C 0.65307 0.69338 0.10178 0.0
C637 C 0.63297 0.68782 0.12038 0.0
C638 C 0.71435 0.74757 0.04963 0.0
C639 C 0.71623 0.74722 0.0116 0.0
C640 C 0.69542 0.73034 0.06722 0.0
C641 C 0.67783 0.71223 0.04726 0.0
C642 C 0.68093 0.71057 0.00968 0.0
C643 C 0.69997 0.72793 -0.00802 0.0
H644 H 0.31651 0.9202 0.08523 0.0
H645 H 0.28935 0.94052 0.17463 0.0
H646 H 0.31477 0.94828 0.04649 0.0
H647 H 0.28532 0.96686 0.13571 0.0
H648 H 0.26606 0.00368 0.06542 0.0
H649 H 0.29227 -0.00389 0.09957 0.0
H650 H 0.28661 0.94837 0.01507 0.0
H651 H 0.26255 0.95793 0.98007 0.0
C652 C 0.31045 0.931 0.09661 0.0
C653 C 0.3028 0.92815 0.1326 0.0
C654 C 0.30916 0.94692 0.07435 0.0
C655 C 0.29911 0.9595 0.08717 0.0
C656 C 0.29331 0.95785 0.12436 0.0
C657 C 0.29543 0.94254 0.1469 0.0
C658 C 0.27151 -0.00751 0.05358 0.0
C659 C 0.26229 0.98123 0.02039 0.0
C660 C 0.28618 0.98775 0.0734 0.0
C661 C 0.29088 0.97073 0.06123 0.0
C662 C 0.28361 0.96153 0.02588 0.0
C663 C 0.26967 0.96697 0.00552 0.0
H664 H 0.07053 0.37438 0.18529 0.0
H665 H 0.07247 0.41091 0.08886 0.0
H666 H 0.04478 0.33848 0.15527 0.0
H667 H 0.04487 0.37515 0.05934 0.0
H668 H 0.03795 0.31165 -9e-05 0.0
H669 H 0.04764 0.34709 0.03094 0.0
H670 H 0.01408 0.30942 0.12795 0.0
H671 H 0.00632 0.27414 0.09723 0.0
C672 C 0.06443 0.37474 0.15821 0.0
C673 C 0.07365 0.3953 0.1392 0.0
C674 C 0.04952 0.35404 0.14074 0.0
C675 C 0.04303 0.35352 0.10409 0.0
C676 C 0.05013 0.37456 0.08689 0.0
C677 C 0.06567 0.39518 0.10398 0.0
C678 C 0.03212 0.31094 0.02755 0.0
C679 C 0.02171 0.29025 0.04635 0.0
C680 C 0.03759 0.33138 0.04558 0.0
C681 C 0.03225 0.33153 0.08267 0.0
C682 C 0.01939 0.31031 0.09999 0.0
C683 C 0.0146 0.28997 0.08226 0.0
H684 H 0.68276 0.62992 0.31139 0.0
H685 H 0.69159 0.60334 0.41255 0.0
H686 H 0.69259 0.66595 0.3422 0.0
H687 H 0.70145 0.63916 0.44311 0.0
H688 H 0.71982 0.70474 0.49448 0.0
H689 H 0.69298 0.66918 0.46317 0.0
H690 H 0.73146 0.69429 0.36411 0.0
H691 H 0.75808 0.72971 0.3951 0.0
C692 C 0.68602 0.63146 0.34041 0.0
C693 C 0.68685 0.61399 0.35944 0.0
C694 C 0.69176 0.65213 0.35799 0.0
C695 C 0.69812 0.65551 0.39494 0.0
C696 C 0.69655 0.63711 0.41469 0.0
C697 C 0.69107 0.61661 0.39709 0.0
C698 C 0.72216 0.70293 0.46575 0.0
C699 C 0.74136 0.71984 0.44745 0.0
C700 C 0.70681 0.68254 0.44787 0.0
C701 C 0.71025 0.67882 0.41131 0.0
C702 C 0.72821 0.69664 0.3922 0.0
C703 C 0.74364 0.71689 0.4101 0.0
H704 H 0.29437 0.03371 0.48942 0.0
H705 H 0.25323 -0.00363 0.39658 0.0
H706 H 0.32855 0.045 0.4548 0.0
H707 H 0.28746 0.0057 0.3623 0.0
H708 H 0.34452 0.06515 0.29815 0.0
H709 H 0.31211 0.03725 0.33219 0.0
H710 H 0.35675 0.04543 0.42243 0.0
H711 H 0.38878 0.07508 0.38898 0.0
C712 C 0.29272 0.0269 0.46207 0.0
C713 C 0.27128 0.01454 0.4454 0.0
C714 C 0.31243 0.03332 0.44195 0.0
C715 C 0.31106 0.027 0.40491 0.0
C716 C 0.28937 0.01187 0.39007 0.0
C717 C 0.26968 0.00615 0.40985 0.0
C718 C 0.34739 0.06048 0.32492 0.0
C719 C 0.36895 0.07245 0.34128 0.0
C720 C 0.32876 0.04428 0.34463 0.0
C721 C 0.33142 0.03928 0.38089 0.0
C722 C 0.35368 0.0494 0.39534 0.0
C723 C 0.37216 0.0662 0.37605 0.0
H724 H 0.9388 0.31333 0.32162 0.0
H725 H 0.91111 0.31817 0.42483 0.0
H726 H 0.96335 0.30218 0.35299 0.0
H727 H 0.93464 0.30621 0.45585 0.0
H728 H 0.96826 0.27485 0.50925 0.0
H729 H 0.96695 0.30542 0.4767 0.0
H730 H 0.95109 0.26569 0.37706 0.0
H731 H 0.95333 0.23593 0.40896 0.0
C732 C 0.9385 0.31278 0.35106 0.0
C733 C 0.92252 0.31591 0.37068 0.0
C734 C 0.95242 0.30616 0.36906 0.0
C735 C 0.95044 0.30247 0.40688 0.0
C736 C 0.93668 0.30871 0.42676 0.0
C737 C 0.92294 0.3154 0.40886 0.0
C738 C 0.96513 0.27297 0.48019 0.0
C739 C 0.96021 0.25262 0.46196 0.0
C740 C 0.96431 0.29048 0.46152 0.0
C741 C 0.95838 0.28789 0.42434 0.0
C742 C 0.95579 0.26851 0.40556 0.0
C743 C 0.95677 0.25116 0.4241 0.0
H744 H 0.05722 0.6265 0.22144 0.0
H745 H 0.0098 0.62646 0.14308 0.0
H746 H 0.02673 0.60968 0.26635 0.0
H747 H 0.97959 0.61009 0.18794 0.0
H748 H 0.92521 0.56145 0.26678 0.0
H749 H 0.95562 0.5755 0.22166 0.0
H750 H 0.00375 0.62052 0.30275 0.0
H751 H 0.9736 0.60629 0.34777 0.0
C752 C 0.04033 0.62293 0.21378 0.0
C753 C 0.03602 0.62791 0.17865 0.0
C754 C 0.02286 0.61337 0.23956 0.0
C755 C 0.00065 0.60851 0.2308 0.0
C756 C -0.00364 0.61328 0.19553 0.0
C757 C 0.01379 0.62286 0.16985 0.0
C758 C 0.94229 0.57429 0.27497 0.0
C759 C 0.94691 0.58276 0.31091 0.0
C760 C 0.95972 0.58243 0.24908 0.0
C761 C 0.98219 0.59917 0.25853 0.0
C762 C -0.01323 0.60742 0.29457 0.0
C763 C 0.96938 0.59935 0.32037 0.0
H764 H 0.39089 0.38246 0.34555 0.0
H765 H 0.44385 0.38665 0.2754 0.0
H766 H 0.3777 0.39737 0.29722 0.0
H767 H 0.43086 0.402 0.22716 0.0
H768 H 0.38386 0.40176 0.1371 0.0
H769 H 0.39868 0.38897 0.18607 0.0
H770 H 0.38772 0.43143 0.26234 0.0
H771 H 0.37245 0.44398 0.21324 0.0
C772 C 0.39985 0.38672 0.3199 0.0
C773 C 0.41839 0.38324 0.31436 0.0
C774 C 0.39235 0.39543 0.29222 0.0
C775 C 0.40317 0.40088 0.25821 0.0
C776 C 0.42193 0.3977 0.25283 0.0
C777 C 0.42946 0.38901 0.28057 0.0
C778 C 0.38461 0.40843 0.16428 0.0
C779 C 0.37689 0.42388 0.1712 0.0
C780 C 0.39329 0.4012 0.19238 0.0
C781 C 0.39448 0.40919 0.22821 0.0
C782 C 0.38684 0.42473 0.23514 0.0
C783 C 0.37817 0.43201 0.20696 0.0
H784 H 0.55841 0.93319 0.2226 0.0
H785 H 0.59104 0.97626 0.13067 0.0
H786 H 0.58168 0.96438 0.26361 0.0
H787 H 0.61656 0.00724 0.17143 0.0
H788 H 0.62399 0.06527 0.24584 0.0
H789 H 0.61599 0.03426 0.20442 0.0
H790 H 0.60969 -0.00846 0.29588 0.0
H791 H 0.61517 0.02228 0.33714 0.0
C792 C 0.57146 0.94917 0.21124 0.0
C793 C 0.57277 0.95247 0.17359 0.0
C794 C 0.58507 0.96728 0.23487 0.0
C795 C 0.60091 0.98905 0.22138 0.0
C796 C 0.60395 -0.00869 0.18333 0.0
C797 C 0.58961 0.97341 0.15973 0.0
C798 C 0.62147 0.04939 0.25693 0.0
C799 C 0.61991 0.04602 0.29457 0.0
C800 C 0.6169 0.03137 0.23306 0.0
C801 C 0.61133 0.00965 0.24628 0.0
C802 C 0.61268 0.00741 0.28422 0.0
C803 C 0.61629 0.02518 0.3081 0.0
H804 H 0.34414 0.94583 0.64471 0.0
H805 H 0.35143 0.92394 0.75133 0.0
H806 H 0.35426 0.98327 0.67008 0.0
H807 H 0.36225 0.96125 0.77623 0.0
H808 H 0.38488 0.02934 0.81905 0.0
H809 H 0.35722 -0.00767 0.79274 0.0
H810 H 0.39051 0.01355 0.68863 0.0
H811 H 0.41737 0.05051 0.71436 0.0
C812 C 0.34735 0.94878 0.67367 0.0
C813 C 0.34752 0.93205 0.6958 0.0
C814 C 0.35332 0.97032 0.6882 0.0
C815 C 0.3596 0.97555 0.7251 0.0
C816 C 0.35749 0.95799 0.74777 0.0
C817 C 0.35148 0.93653 0.73333 0.0
C818 C 0.38585 0.02633 0.79029 0.0
C819 C 0.40372 0.04272 0.76907 0.0
C820 C 0.37006 0.00503 0.77523 0.0
C821 C 0.37189 -0.00033 0.73872 0.0
C822 C 0.3884 0.01694 0.71677 0.0
C823 C 0.40406 0.03819 0.73172 0.0
H824 H 0.04112 0.38673 0.6609 0.0
H825 H 0.05657 0.43701 0.74612 0.0
H826 H 0.01113 0.35764 0.69843 0.0
H827 H 0.0264 0.40838 0.7828 0.0
H828 H 0.96959 0.36175 0.84399 0.0
H829 H 0.00675 0.37396 0.81686 0.0
H830 H 0.97486 0.35338 0.7108 0.0
H831 H 0.93806 0.34073 0.738 0.0
C832 C 0.03841 0.39152 0.68783 0.0
C833 C 0.05082 0.41437 0.70006 0.0
C834 C 0.02122 0.37483 0.70936 0.0
C835 C 0.01604 0.38068 0.74345 0.0
C836 C 0.02992 0.40307 0.7569 0.0
C837 C 0.0471 0.41968 0.73552 0.0
C838 C 0.97045 0.35878 0.81518 0.0
C839 C 0.95111 0.35092 0.79288 0.0
C840 C -0.00823 0.36601 0.79954 0.0
C841 C -0.00607 0.36545 0.76148 0.0
C842 C 0.97401 0.35427 0.74013 0.0
C843 C 0.95281 0.34709 0.75571 0.0
H844 H 0.62394 0.59696 0.84275 0.0
H845 H 0.65331 0.57863 0.75404 0.0
H846 H 0.62051 0.6239 0.80432 0.0
H847 H 0.652 0.60718 0.71592 0.0
H848 H 0.60126 0.61837 0.64772 0.0
H849 H 0.6241 0.60758 0.68358 0.0
H850 H 0.62883 0.65421 0.76932 0.0
H851 H 0.60396 0.66315 0.73412 0.0
C852 C 0.63062 0.59953 0.81537 0.0
C853 C 0.63848 0.58552 0.80105 0.0
C854 C 0.62883 0.61517 0.79312 0.0
C855 C 0.63542 0.61753 0.75625 0.0
C856 C 0.64584 0.6053 0.74352 0.0
C857 C 0.64688 0.5891 0.76544 0.0
C858 C 0.60796 0.62694 0.67365 0.0
C859 C 0.6007 0.64133 0.68843 0.0
C860 C 0.62117 0.62077 0.6945 0.0
C861 C 0.62782 0.62933 0.73032 0.0
C862 C 0.62323 0.64638 0.74269 0.0
C863 C 0.60934 0.65191 0.72228 0.0
H864 H 0.19631 0.0233 0.06631 0.0
H865 H 0.20969 0.04477 0.95429 0.0
H866 H 0.1976 0.05855 0.08303 0.0
H867 H 0.21065 0.08045 0.97139 0.0
H868 H 0.17175 0.10763 0.09386 0.0
H869 H 0.17274 0.07416 0.07248 0.0
H870 H 0.23251 0.11689 0.00894 0.0
H871 H 0.23138 0.15079 0.03 0.0
C872 C 0.19946 0.03551 0.04508 0.0
C873 C 0.2026 0.03097 0.00876 0.0
C874 C 0.20013 0.05577 0.05476 0.0
C875 C 0.20386 0.07216 0.02848 0.0
C876 C 0.20775 0.06812 -0.00773 0.0
C877 C 0.2071 0.04767 0.98246 0.0
C878 C 0.18517 0.11005 0.07535 0.0
C879 C 0.20161 0.13202 0.06398 0.0
C880 C 0.18576 0.09079 0.06316 0.0
C881 C 0.20284 0.09287 0.0393 0.0
C882 C 0.21908 0.11474 0.02721 0.0
C883 C 0.21851 0.13415 0.0395 0.0
H884 H 0.97003 0.17597 0.07722 0.0
H885 H 0.95403 0.17681 0.96367 0.0
H886 H 0.93317 0.14206 0.08592 0.0
H887 H 0.917 0.14227 0.97238 0.0
H888 H 0.84399 0.09079 0.01186 0.0
H889 H 0.87967 0.12662 0.00225 0.0
H890 H 0.91515 0.10232 0.06925 0.0
H891 H 0.87975 0.06699 0.07944 0.0
C892 C 0.95868 0.16891 0.05399 0.0
C893 C 0.96518 0.17909 0.01961 0.0
C894 C 0.93751 0.14933 0.059 0.0
C895 C 0.92219 0.13922 0.02978 0.0
C896 C 0.92835 0.14968 -0.00447 0.0
C897 C 0.94962 0.16942 0.9905 0.0
C898 C 0.8594 0.09315 0.02467 0.0
C899 C 0.85889 0.07598 0.0466 0.0
C900 C 0.87988 0.11364 0.01894 0.0
C901 C 0.90029 0.11744 0.03512 0.0
C902 C 0.89973 0.1002 0.05688 0.0
C903 C 0.87936 0.07982 0.06258 0.0
H904 H 0.82956 0.82495 0.04158 0.0
H905 H 0.81782 0.78446 0.94367 0.0
H906 H 0.85926 0.81682 0.06003 0.0
H907 H 0.84758 0.77657 0.96208 0.0
H908 H 0.92948 0.81931 0.04966 0.0
H909 H 0.89778 0.82594 0.04006 0.0
H910 H 0.85458 0.75496 0.00966 0.0
H911 H 0.88636 0.74832 0.01893 0.0
C912 C 0.83338 0.81444 0.02387 0.0
C913 C 0.82128 0.80538 0.9911 0.0
C914 C 0.85039 0.80979 0.03449 0.0
C915 C 0.85557 0.79585 0.01272 0.0
C916 C 0.84367 0.78701 0.9798 0.0
C917 C 0.82678 0.79176 0.96905 0.0
C918 C 0.91309 0.80499 0.04171 0.0
C919 C 0.91049 0.78334 0.0347 0.0
C920 C 0.89492 0.8088 0.03623 0.0
C921 C 0.87382 0.79107 0.02348 0.0
C922 C 0.8708 0.76907 0.0188 0.0
C923 C 0.88894 0.76521 0.02448 0.0
H924 H 0.13082 0.24411 0.50515 0.0
H925 H 0.10303 0.18547 0.43305 0.0
H926 H 0.0932 0.23871 0.51436 0.0
H927 H 0.06534 0.18111 0.43919 0.0
H928 H -0.00316 0.1616 0.48753 0.0
H929 H 0.03495 0.16819 0.47601 0.0
H930 H 0.06258 0.2405 0.49759 0.0
H931 H 0.02464 0.23313 0.51248 0.0
C932 C 0.11667 0.2305 0.49018 0.0
C933 C 0.11982 0.21519 0.4684 0.0
C934 C 0.09492 0.22738 0.49534 0.0
C935 C 0.07576 0.20926 0.47789 0.0
C936 C 0.07932 0.1948 0.4542 0.0
C937 C 0.10102 0.19749 0.45007 0.0
C938 C 0.01123 0.17879 0.49027 0.0
C939 C 0.00797 0.1968 0.5014 0.0
C940 C 0.03314 0.18274 0.4831 0.0
C941 C 0.05226 0.205 0.48553 0.0
C942 C 0.04867 0.22302 0.49623 0.0
C943 C 0.02685 0.21888 0.50467 0.0
H944 H 0.77768 0.83026 0.52534 0.0
H945 H 0.80917 0.83359 0.42171 0.0
H946 H 0.77371 0.86279 0.50873 0.0
H947 H 0.80454 0.86569 0.40466 0.0
H948 H 0.75074 0.90826 0.45569 0.0
H949 H 0.75336 0.87453 0.46976 0.0
H950 H 0.81927 0.90508 0.41831 0.0
H951 H 0.81636 0.93837 0.40329 0.0
C952 C 0.78365 0.83783 0.49891 0.0
C953 C 0.79385 0.82931 0.47495 0.0
C954 C 0.7812 0.85642 0.48925 0.0
C955 C 0.78876 0.86692 0.4553 0.0
C956 C 0.79883 0.85829 0.43126 0.0
C957 C 0.80141 0.83979 0.44099 0.0
C958 C 0.76571 0.90771 0.44714 0.0
C959 C 0.78332 0.92609 0.42833 0.0
C960 C 0.7673 0.88841 0.45545 0.0
C961 C 0.78658 0.88705 0.44532 0.0
C962 C 0.80402 0.90532 0.4261 0.0
C963 C 0.80239 0.92453 0.41763 0.0
H964 H 0.06832 0.83915 0.4704 0.0
H965 H 0.051 0.87935 0.40081 0.0
H966 H 0.10492 0.8734 0.48474 0.0
H967 H 0.08699 0.91318 0.41555 0.0
H968 H 0.16127 0.96367 0.41392 0.0
H969 H 0.12682 0.92758 0.40224 0.0
H970 H 0.12178 0.91167 0.51648 0.0
H971 H 0.15696 0.94807 0.52835 0.0
C972 C 0.07226 0.85521 0.45818 0.0
C973 C 0.05672 0.85639 0.4342 0.0
C974 C 0.09316 0.87484 0.46659 0.0
C975 C 0.09896 0.89597 0.45103 0.0
C976 C 0.08329 0.89711 0.42747 0.0
C977 C 0.06252 0.87764 0.41913 0.0
C978 C 0.15296 0.95255 0.43671 0.0
C979 C 0.16176 0.95899 0.47222 0.0
C980 C 0.1331 0.93182 0.42996 0.0
C981 C 0.12131 0.91691 0.45849 0.0
C982 C 0.13051 0.9228 0.4939 0.0
C983 C 0.15059 0.94367 0.50071 0.0
H984 H 0.83601 0.97986 0.98848 0.0
H985 H 0.76863 0.96283 0.95306 0.0
H986 H 0.83065 0.94447 0.9608 0.0
H987 H 0.76312 0.92716 0.92614 0.0
H988 H 0.75388 0.85625 0.96787 0.0
H989 H 0.76249 0.8957 0.97336 0.0
H990 H 0.81811 0.91681 0.8982 0.0
H991 H 0.80902 0.87683 0.89164 0.0
C992 C 0.82045 0.96901 0.97342 0.0
C993 C 0.80267 0.97398 0.97307 0.0
C994 C 0.81739 0.94878 0.95763 0.0
C995 C 0.79639 0.93306 0.94184 0.0
C996 C 0.77945 0.93907 0.93829 0.0
C997 C 0.78268 0.95954 0.95344 0.0
C998 C 0.76794 0.86924 0.95243 0.0
C999 C 0.78087 0.86349 0.92948 0.0
C1000 C 0.77267 0.89176 0.95525 0.0
C1001 C 0.7907 0.90914 0.93573 0.0
C1002 C 0.80395 0.90359 0.91315 0.0
C1003 C 0.79883 0.88083 0.9096 0.0
H1004 H 0.12769 0.93459 0.91039 0.0
H1005 H 0.14853 0.9221 0.01461 0.0
H1006 H 0.08907 0.9035 0.92084 0.0
H1007 H 0.10975 0.89149 0.02557 0.0
H1008 H 0.04602 0.82064 0.01128 0.0
H1009 H 0.08431 0.85318 0.00304 0.0
H1010 H 0.05572 0.89183 0.95705 0.0
H1011 H 0.01764 0.85923 0.96429 0.0
C1012 C 0.12394 0.92551 0.93584 0.0
C1013 C 0.1412 0.93083 0.96165 0.0
C1014 C 0.10177 0.9077 0.94189 0.0
C1015 C 0.09635 0.89488 0.97396 0.0
C1016 C 0.11345 0.90075 0.00031 0.0
C1017 C 0.13564 0.9185 -0.00581 0.0
C1018 C 0.04795 0.83607 -0.00065 0.0
C1019 C 0.02881 0.83731 0.98829 0.0
C1020 C 0.06987 0.85479 -0.00511 0.0
C1021 C 0.07308 0.87513 0.97942 0.0
C1022 C 0.05389 0.87633 0.96857 0.0
C1023 C 0.03203 0.85764 0.97287 0.0
H1024 H 0.17629 0.22599 0.00621 0.0
H1025 H 0.12538 0.15679 0.03261 0.0
H1026 H 0.14635 0.23276 0.98338 0.0
H1027 H 0.09557 0.16346 0.00886 0.0
H1028 H 0.0536 0.18962 0.93726 0.0
H1029 H 0.08324 0.17937 0.94614 0.0
H1030 H 0.1132 0.23011 0.03179 0.0
H1031 H 0.08347 0.2399 0.02391 0.0
C1032 C 0.15886 0.21195 0.00564 0.0
C1033 C 0.15311 0.19091 0.02134 0.0
C1034 C 0.14175 0.21588 -0.00713 0.0
C1035 C 0.11875 0.19867 -0.0052 0.0
C1036 C 0.11321 0.17695 0.00708 0.0
C1037 C 0.13025 0.17315 0.02059 0.0
C1038 C 0.06639 0.19837 0.95824 0.0
C1039 C 0.06618 0.21549 0.98001 0.0
C1040 C 0.08333 0.1926 0.96312 0.0
C1041 C 0.10061 0.20429 0.98914 0.0
C1042 C 0.10022 0.22115 0.01114 0.0
C1043 C 0.08306 0.22653 0.00688 0.0
H1044 H 0.96268 0.83993 0.47613 0.0
H1045 H 0.94061 0.77284 0.51874 0.0
H1046 H 0.93092 0.8404 0.50596 0.0
H1047 H 0.90837 0.77309 0.5482 0.0
H1048 H 0.85209 0.78127 0.60108 0.0
H1049 H 0.89152 0.79001 0.59143 0.0
H1050 H 0.89109 0.81745 0.48605 0.0
H1051 H 0.85214 0.80873 0.49583 0.0
C1052 C 0.95135 0.82551 0.49272 0.0
C1053 C 0.95393 0.8062 0.49465 0.0
C1054 C 0.9331 0.82575 0.50969 0.0
C1055 C 0.91682 0.80658 0.52874 0.0
C1056 C 0.92063 0.78816 0.53375 0.0
C1057 C 0.93911 0.78799 0.5169 0.0
C1058 C 0.86082 0.78984 0.57645 0.0
C1059 C 0.84922 0.79439 0.54916 0.0
C1060 C 0.88323 0.79461 0.57075 0.0
C1061 C 0.89445 0.80439 0.53796 0.0
C1062 C 0.88314 0.81019 0.51181 0.0
C1063 C 0.86075 0.8051 0.51726 0.0
H1064 H 0.21307 0.17115 0.48447 0.0
H1065 H 0.14584 0.13041 0.52994 0.0
H1066 H 0.21858 0.13823 0.48679 0.0
H1067 H 0.15119 0.09747 0.53155 0.0
H1068 H 0.18217 0.05392 0.57 0.0
H1069 H 0.17369 0.0847 0.56453 0.0
H1070 H 0.20477 0.10067 0.45834 0.0
H1071 H 0.2137 0.07017 0.46412 0.0
C1072 C 0.19946 0.15518 0.4949 0.0
C1073 C 0.17906 0.15343 0.50714 0.0
C1074 C 0.20253 0.13626 0.49592 0.0
C1075 C 0.18527 0.1152 0.5092 0.0
C1076 C 0.1649 0.11349 0.52148 0.0
C1077 C 0.16183 0.13238 0.52046 0.0
C1078 C 0.18689 0.06376 0.54524 0.0
C1079 C 0.19868 0.05965 0.51756 0.0
C1080 C 0.18198 0.08139 0.54208 0.0
C1081 C 0.18877 0.09528 0.51115 0.0
C1082 C 0.19969 0.09052 0.48278 0.0
C1083 C 0.20458 0.07288 0.48594 0.0
H1084 H 0.92029 0.12545 0.59118 0.0
H1085 H 0.88918 0.14273 0.504 0.0
H1086 H 0.89057 0.08495 0.58438 0.0
H1087 H 0.85942 0.10278 0.49828 0.0
H1088 H 0.79785 0.03583 0.5204 0.0
H1089 H 0.82674 0.0718 0.54854 0.0
H1090 H 0.87907 0.0565 0.51873 0.0
H1091 H 0.85034 0.02083 0.48972 0.0
C1092 C 0.90713 0.12062 0.57073 0.0
C1093 C 0.90711 0.13718 0.54793 0.0
C1094 C 0.89014 0.09758 0.56706 0.0
C1095 C 0.8726 0.09101 0.54134 0.0
C1096 C 0.87259 0.10757 0.51875 0.0
C1097 C 0.88976 0.13036 0.52176 0.0
C1098 C 0.81535 0.0396 0.52142 0.0
C1099 C 0.82194 0.02571 0.50267 0.0
C1100 C 0.83186 0.06022 0.53731 0.0
C1101 C 0.85503 0.06685 0.53541 0.0
C1102 C 0.86128 0.05164 0.52065 0.0
C1103 C 0.84485 0.03127 0.5041 0.0
H1104 H 0.83308 0.44784 0.40695 0.0
H1105 H 0.89406 0.4892 0.34477 0.0
H1106 H 0.83517 0.41403 0.39185 0.0
H1107 H 0.89633 0.455 0.33012 0.0
H1108 H 0.87585 0.38169 0.28399 0.0
H1109 H 0.87632 0.41768 0.29581 0.0
H1110 H 0.85942 0.39882 0.40815 0.0
H1111 H 0.85855 0.36313 0.39648 0.0
C1112 C 0.84704 0.4498 0.39017 0.0
C1113 C 0.8635 0.47137 0.37735 0.0
C1114 C 0.84828 0.43035 0.38162 0.0
C1115 C 0.86606 0.43183 0.3601 0.0
C1116 C 0.88237 0.45328 0.34664 0.0
C1117 C 0.88113 0.47288 0.35523 0.0
C1118 C 0.87236 0.38533 0.31121 0.0
C1119 C 0.86683 0.36932 0.33911 0.0
C1120 C 0.87271 0.40597 0.31801 0.0
C1121 C 0.86756 0.41095 0.3528 0.0
C1122 C 0.86292 0.3953 0.38084 0.0
C1123 C 0.8625 0.3748 0.3741 0.0
H1124 H 0.61718 0.50132 0.28793 0.0
H1125 H 0.64729 0.50093 0.39127 0.0
H1126 H 0.58141 0.46842 0.30612 0.0
H1127 H 0.61116 0.46831 0.40994 0.0
H1128 H 0.51384 0.42281 0.36137 0.0
H1129 H 0.54972 0.45686 0.34586 0.0
H1130 H 0.58684 0.42849 0.39802 0.0
H1131 H 0.55117 0.39493 0.41442 0.0
C1132 C 0.61617 0.49429 0.31465 0.0
C1133 C 0.63521 0.50381 0.3381 0.0
C1134 C 0.59552 0.47549 0.32522 0.0
C1135 C 0.59327 0.46571 0.3596 0.0
C1136 C 0.61232 0.4752 0.38307 0.0
C1137 C 0.63305 0.49397 0.37241 0.0
C1138 C 0.52965 0.42391 0.36972 0.0
C1139 C 0.52953 0.40606 0.38914 0.0
C1140 C 0.55026 0.44338 0.36062 0.0
C1141 C 0.57126 0.44545 0.37055 0.0
C1142 C 0.57107 0.42771 0.39035 0.0
C1143 C 0.55052 0.40833 0.39958 0.0
H1144 H 0.48496 0.15107 0.37166 0.0
H1145 H 0.47176 0.11019 0.27384 0.0
H1146 H 0.5167 0.14542 0.3865 0.0
H1147 H 0.50374 0.10477 0.28866 0.0
H1148 H 0.54902 0.08191 0.34116 0.0
H1149 H 0.51521 0.08549 0.33429 0.0
H1150 H 0.55494 0.1572 0.36262 0.0
H1151 H 0.58869 0.15364 0.36975 0.0
C1152 C 0.48883 0.14092 0.35322 0.0
C1153 C 0.47578 0.13112 0.32145 0.0
C1154 C 0.50708 0.13773 0.36176 0.0
C1155 C 0.51266 0.12455 0.33889 0.0
C1156 C 0.49964 0.11473 0.30714 0.0
C1157 C 0.48145 0.11803 0.29845 0.0
C1158 C 0.55044 0.09833 0.34672 0.0
C1159 C 0.57158 0.11753 0.35579 0.0
C1160 C 0.53112 0.10042 0.34239 0.0
C1161 C 0.53249 0.1217 0.34734 0.0
C1162 C 0.5533 0.14056 0.35867 0.0
C1163 C 0.57266 0.13851 0.36277 0.0
H1164 H 0.80668 0.58101 0.81509 0.0
H1165 H 0.77907 0.51836 0.75239 0.0
H1166 H 0.76877 0.57445 0.82534 0.0
H1167 H 0.74084 0.51254 0.75976 0.0
H1168 H 0.67422 0.493 0.81783 0.0
H1169 H 0.71216 0.50071 0.80089 0.0
H1170 H 0.73671 0.57343 0.80754 0.0
H1171 H 0.69938 0.56531 0.82781 0.0
C1172 C 0.79246 0.5662 0.80233 0.0
C1173 C 0.7958 0.55014 0.78308 0.0
C1174 C 0.77054 0.56241 0.80807 0.0
C1175 C 0.75136 0.54277 0.79373 0.0
C1176 C 0.75497 0.52749 0.77228 0.0
C1177 C 0.77692 0.53097 0.7675 0.0
C1178 C 0.68795 0.51056 0.81596 0.0
C1179 C 0.6842 0.52857 0.82475 0.0
C1180 C 0.70966 0.51509 0.80574 0.0
C1181 C 0.72786 0.53779 0.80285 0.0
C1182 C 0.72357 0.55574 0.81048 0.0
C1183 C 0.70212 0.55115 0.82193 0.0
H1184 H 0.46017 0.15603 0.746 0.0
H1185 H 0.44543 0.15526 0.8605 0.0
H1186 H 0.45674 0.1897 0.73836 0.0
H1187 H 0.44243 0.18959 0.8528 0.0
H1188 H 0.48084 0.26511 0.7468 0.0
H1189 H 0.47996 0.22935 0.75617 0.0
H1190 H 0.42046 0.20584 0.82369 0.0
H1191 H 0.42152 0.24222 0.81481 0.0
C1192 C 0.4562 0.16303 0.76965 0.0
C1193 C 0.45338 0.15304 0.80401 0.0
C1194 C 0.4543 0.18245 0.76523 0.0
C1195 C 0.44967 0.19258 0.79506 0.0
C1196 C 0.44595 0.18215 0.82924 0.0
C1197 C 0.44778 0.16255 0.83368 0.0
C1198 C 0.46747 0.2524 0.76362 0.0
C1199 C 0.45118 0.25662 0.77991 0.0
C1200 C 0.4669 0.23175 0.76882 0.0
C1201 C 0.45001 0.2146 0.7904 0.0
C1202 C 0.43376 0.21875 0.80703 0.0
C1203 C 0.43429 0.23954 0.80175 0.0
H1204 H 0.7455 0.17979 0.79057 0.0
H1205 H 0.73534 0.22217 0.71441 0.0
H1206 H 0.78137 0.2132 0.81067 0.0
H1207 H 0.77064 0.25513 0.73468 0.0
H1208 H 0.84535 0.30272 0.74461 0.0
H1209 H 0.81118 0.26726 0.72896 0.0
H1210 H 0.79666 0.25213 0.84286 0.0
H1211 H 0.83153 0.28805 0.85894 0.0
C1212 C 0.75087 0.19615 0.7781 0.0
C1213 C 0.73757 0.19821 0.75063 0.0
C1214 C 0.77131 0.21528 0.78982 0.0
C1215 C 0.77891 0.23674 0.77405 0.0
C1216 C 0.76546 0.23876 0.74696 0.0
C1217 C 0.74512 0.21981 0.73541 0.0
C1218 C 0.83501 0.29193 0.76654 0.0
C1219 C 0.84104 0.2985 0.80312 0.0
C1220 C 0.81535 0.27155 0.75746 0.0
C1221 C 0.801 0.25709 0.78463 0.0
C1222 C 0.80742 0.26298 0.82132 0.0
C1223 C 0.82731 0.28355 0.83051 0.0
H1224 H 0.46574 0.20437 0.23174 0.0
H1225 H 0.41155 0.18474 0.30959 0.0
H1226 H 0.47749 0.24482 0.24213 0.0
H1227 H 0.42283 0.22477 0.31893 0.0
H1228 H 0.43386 0.29471 0.30378 0.0
H1229 H 0.42556 0.2586 0.27478 0.0
H1230 H 0.49185 0.27063 0.30663 0.0
H1231 H 0.50001 0.30647 0.33639 0.0
C1232 C 0.45633 0.20869 0.25089 0.0
C1233 C 0.43784 0.19147 0.27007 0.0
C1234 C 0.46297 0.23173 0.25664 0.0
C1235 C 0.45077 0.23773 0.28079 0.0
C1236 C 0.43223 0.22049 0.29967 0.0
C1237 C 0.42597 0.19763 0.29463 0.0
C1238 C 0.44702 0.29014 0.30325 0.0
C1239 C 0.46749 0.30324 0.32259 0.0
C1240 C 0.44221 0.26943 0.28689 0.0
C1241 C 0.45801 0.26186 0.28893 0.0
C1242 C 0.47946 0.27618 0.30466 0.0
C1243 C 0.48409 0.29665 0.32166 0.0
H1244 H 0.8105 0.25952 0.34543 0.0
H1245 H 0.79597 0.27426 0.2379 0.0
H1246 H 0.77095 0.22955 0.35159 0.0
H1247 H 0.75641 0.24381 0.24377 0.0
H1248 H 0.68237 0.20014 0.28126 0.0
H1249 H 0.72111 0.23229 0.27676 0.0
H1250 H 0.74675 0.19165 0.32504 0.0
H1251 H 0.70797 0.15962 0.3302 0.0
C1252 C 0.79882 0.25657 0.32326 0.0
C1253 C 0.80639 0.2693 0.29117 0.0
C1254 C 0.77619 0.2392 0.32665 0.0
C1255 C 0.76061 0.23411 0.29801 0.0
C1256 C 0.76797 0.2474 0.26641 0.0
C1257 C 0.79064 0.26481 0.26302 0.0
C1258 C 0.69627 0.19803 0.29086 0.0
C1259 C 0.69209 0.17732 0.30614 0.0
C1260 C 0.71848 0.21645 0.28815 0.0
C1261 C 0.73699 0.21457 0.30071 0.0
C1262 C 0.73282 0.19378 0.31568 0.0
C1263 C 0.71061 0.17535 0.31837 0.0
H1264 H 0.83778 0.55614 0.29035 0.0
H1265 H 0.78473 0.49543 0.34133 0.0
H1266 H 0.80884 0.56029 0.2573 0.0
H1267 H 0.75595 0.49966 0.3085 0.0
H1268 H 0.70735 0.51178 0.23983 0.0
H1269 H 0.7377 0.50245 0.24947 0.0
H1270 H 0.78277 0.5716 0.28715 0.0
H1271 H 0.75278 0.5806 0.27819 0.0
C1272 C 0.82002 0.54328 0.29364 0.0
C1273 C 0.81356 0.5257 0.31898 0.0
C1274 C 0.80343 0.54571 0.27483 0.0
C1275 C 0.78009 0.53048 0.28069 0.0
C1276 C 0.77375 0.51163 0.30325 0.0
C1277 C 0.79029 0.50933 0.3223 0.0
C1278 C 0.72393 0.52499 0.24944 0.0
C1279 C 0.72771 0.54683 0.25855 0.0
C1280 C 0.74124 0.51968 0.25504 0.0
C1281 C 0.76269 0.53634 0.2689 0.0
C1282 C 0.76665 0.55847 0.27592 0.0
C1283 C 0.74936 0.56357 0.27111 0.0
H1284 H 0.62309 0.11719 0.82645 0.0
H1285 H 0.63317 0.17662 0.76798 0.0
H1286 H 0.58807 0.1131 0.85255 0.0
H1287 H 0.59828 0.17234 0.79378 0.0
H1288 H 0.52851 0.11931 0.90204 0.0
H1289 H 0.56877 0.13214 0.89063 0.0
H1290 H 0.55849 0.13891 0.77662 0.0
H1291 H 0.5185 0.12589 0.78785 0.0
C1292 C 0.61829 0.12981 0.82012 0.0
C1293 C 0.63066 0.14694 0.79456 0.0
C1294 C 0.59823 0.12745 0.83504 0.0
C1295 C 0.5903 0.14216 0.82455 0.0
C1296 C 0.60383 0.16055 0.8018 0.0
C1297 C 0.62384 0.16298 0.7871 0.0
C1298 C 0.53501 0.12393 0.87468 0.0
C1299 C 0.52037 0.12149 0.84574 0.0
C1300 C 0.55796 0.13113 0.86818 0.0
C1301 C 0.5667 0.13653 0.83281 0.0
C1302 C 0.55225 0.13506 0.80424 0.0
C1303 C 0.52929 0.12744 0.8106 0.0
H1304 H 0.8809 0.50806 0.84561 0.0
H1305 H 0.84763 0.47495 0.74449 0.0
H1306 H 0.88438 0.47496 0.86112 0.0
H1307 H 0.85114 0.44188 0.76014 0.0
H1308 H 0.89016 0.40307 0.78509 0.0
H1309 H 0.88307 0.43359 0.76852 0.0
H1310 H 0.85804 0.43319 0.87658 0.0
H1311 H 0.865 0.40233 0.89331 0.0
C1312 C 0.87446 0.4938 0.8266 0.0
C1313 C 0.86403 0.49414 0.79378 0.0
C1314 C 0.87623 0.47476 0.83568 0.0
C1315 C 0.86784 0.4558 0.81197 0.0
C1316 C 0.85778 0.4563 0.77887 0.0
C1317 C 0.85579 0.47523 0.76995 0.0
C1318 C 0.88273 0.40908 0.80519 0.0
C1319 C 0.87812 0.40019 0.84054 0.0
C1320 C 0.87868 0.42662 0.79563 0.0
C1321 C 0.87018 0.43586 0.82134 0.0
C1322 C 0.86486 0.42653 0.85636 0.0
C1323 C 0.86867 0.40875 0.86582 0.0
H1324 H 0.60255 0.45911 0.92855 0.0
H1325 H 0.56632 0.47696 0.85118 0.0
H1326 H 0.57178 0.41891 0.92507 0.0
H1327 H 0.53564 0.4373 0.84867 0.0
H1328 H 0.47552 0.37082 0.8716 0.0
H1329 H 0.50559 0.40711 0.89698 0.0
H1330 H 0.55604 0.38939 0.86579 0.0
H1331 H 0.52608 0.35332 0.83973 0.0
C1332 C 0.58803 0.45447 0.91099 0.0
C1333 C 0.58689 0.4711 0.88991 0.0
C1334 C 0.57045 0.43158 0.9092 0.0
C1335 C 0.55123 0.42521 0.88717 0.0
C1336 C 0.55008 0.44189 0.86642 0.0
C1337 C 0.56779 0.46452 0.86751 0.0
C1338 C 0.49288 0.37415 0.87177 0.0
C1339 C 0.49854 0.35941 0.85341 0.0
C1340 C 0.51009 0.39499 0.886 0.0
C1341 C 0.53307 0.40107 0.88278 0.0
C1342 C 0.53844 0.38505 0.86864 0.0
C1343 C 0.5213 0.36442 0.85379 0.0
H1344 H 0.54251 0.68903 0.73187 0.0
H1345 H 0.54609 0.70525 0.61782 0.0
H1346 H 0.54325 0.7242 0.74775 0.0
H1347 H 0.54641 0.74071 0.63399 0.0
H1348 H 0.56423 0.81176 0.68446 0.0
H1349 H 0.56806 0.77897 0.66579 0.0
H1350 H 0.51557 0.73654 0.74183 0.0
H1351 H 0.51199 0.76894 0.76079 0.0
C1352 C 0.54344 0.70011 0.71008 0.0
C1353 C 0.54386 0.69408 0.67348 0.0
C1354 C 0.54381 0.72031 0.71925 0.0
C1355 C 0.54445 0.73507 0.69214 0.0
C1356 C 0.54592 0.72968 0.65552 0.0
C1357 C 0.54567 0.70935 0.64625 0.0
C1358 C 0.5536 0.79544 0.69729 0.0
C1359 C 0.5379 0.79308 0.72433 0.0
C1360 C 0.5557 0.77664 0.6864 0.0
C1361 C 0.54225 0.75519 0.70252 0.0
C1362 C 0.52651 0.7529 0.72932 0.0
C1363 C 0.52439 0.77154 0.74009 0.0
H1364 H 0.16434 0.73634 0.67013 0.0
H1365 H 0.20024 0.7135 0.73942 0.0
H1366 H 0.20036 0.77135 0.65758 0.0
H1367 H 0.23582 0.74786 0.72634 0.0
H1368 H 0.27491 0.81776 0.61444 0.0
H1369 H 0.23723 0.78474 0.62621 0.0
H1370 H 0.25478 0.78809 0.73989 0.0
H1371 H 0.29226 0.82042 0.72819 0.0
C1372 C 0.17983 0.73876 0.68273 0.0
C1373 C 0.1793 0.72209 0.70595 0.0
C1374 C 0.20047 0.75874 0.67533 0.0
C1375 C 0.22096 0.76249 0.69113 0.0
C1376 C 0.22034 0.74578 0.71423 0.0
C1377 C 0.19985 0.72594 0.72159 0.0
C1378 C 0.27066 0.81147 0.64194 0.0
C1379 C 0.28677 0.82158 0.67025 0.0
C1380 C 0.24902 0.79264 0.64872 0.0
C1381 C 0.24308 0.78359 0.68392 0.0
C1382 C 0.25895 0.79426 0.7123 0.0
C1383 C 0.28048 0.8129 0.70556 0.0
H1384 H 0.26694 0.49105 0.70627 0.0
H1385 H 0.22279 0.41786 0.69686 0.0
H1386 H 0.2342 0.49626 0.69782 0.0
H1387 H 0.19012 0.4231 0.68891 0.0
H1388 H 0.14758 0.44334 0.61865 0.0
H1389 H 0.17924 0.43854 0.63702 0.0
H1390 H 0.19692 0.48934 0.72198 0.0
H1391 H 0.16516 0.49439 0.70342 0.0
C1392 C 0.2502 0.47605 0.70332 0.0
C1393 C 0.24751 0.45405 0.70181 0.0
C1394 C 0.23144 0.47905 0.69851 0.0
C1395 C 0.20966 0.46011 0.69202 0.0
C1396 C 0.20678 0.43805 0.69308 0.0
C1397 C 0.22549 0.43505 0.69796 0.0
C1398 C 0.1582 0.4536 0.64118 0.0
C1399 C 0.15376 0.46926 0.65954 0.0
C1400 C 0.17624 0.45065 0.65196 0.0
C1401 C 0.19039 0.46333 0.68127 0.0
C1402 C 0.18629 0.47932 0.69928 0.0
C1403 C 0.1681 0.4822 0.68863 0.0
H1404 H 0.36676 0.89144 0.19462 0.0
H1405 H 0.3315 0.84273 0.10753 0.0
H1406 H 0.40255 0.89532 0.17474 0.0
H1407 H 0.36774 0.84679 0.08749 0.0
H1408 H 0.4664 0.91423 0.11647 0.0
H1409 H 0.42913 0.91085 0.12287 0.0
H1410 H 0.39688 0.83752 0.11109 0.0
H1411 H 0.43417 0.84086 0.10425 0.0
C1412 C 0.36659 0.88152 0.1712 0.0
C1413 C 0.34616 0.86672 0.15273 0.0
C1414 C 0.38722 0.88396 0.15955 0.0
C1415 C 0.38803 0.8716 0.12924 0.0
C1416 C 0.36763 0.85656 0.11092 0.0
C1417 C 0.3469 0.85425 0.12242 0.0
C1418 C 0.45137 0.89742 0.1143 0.0
C1419 C 0.45328 0.87779 0.11035 0.0
C1420 C 0.43001 0.89548 0.11826 0.0
C1421 C 0.41011 0.87388 0.11824 0.0
C1422 C 0.41189 0.85439 0.11124 0.0
C1423 C 0.43329 0.85633 0.10737 0.0
H1424 H 0.15567 0.61461 0.07915 0.0
H1425 H 0.09471 0.59061 0.14347 0.0
H1426 H 0.1574 0.58082 0.09461 0.0
H1427 H 0.09624 0.55624 0.15839 0.0
H1428 H 0.12242 0.51008 0.20656 0.0
H1429 H 0.11893 0.54348 0.19281 0.0
H1430 H 0.13728 0.54054 0.08125 0.0
H1431 H 0.14126 0.50774 0.09497 0.0
C1432 C 0.14249 0.60205 0.09642 0.0
C1433 C 0.12498 0.60537 0.10991 0.0
C1434 C 0.14344 0.58255 0.10515 0.0
C1435 C 0.12687 0.56569 0.12753 0.0
C1436 C 0.10938 0.56898 0.14129 0.0
C1437 C 0.10842 0.58861 0.13254 0.0
C1438 C 0.12572 0.51659 0.17911 0.0
C1439 C 0.13234 0.5063 0.15199 0.0
C1440 C 0.12357 0.53563 0.17118 0.0
C1441 C 0.12799 0.5448 0.13599 0.0
C1442 C 0.13418 0.53422 0.10882 0.0
C1443 C 0.13637 0.5153 0.11671 0.0
H1444 H 0.51819 0.61726 0.17208 0.0
H1445 H 0.48887 0.65185 0.11506 0.0
H1446 H 0.48424 0.58035 0.15767 0.0
H1447 H 0.45485 0.61553 0.1022 0.0
H1448 H 0.40952 0.54969 0.04562 0.0
H1449 H 0.44425 0.58434 0.06296 0.0
H1450 H 0.44419 0.55473 0.16661 0.0
H1451 H 0.4097 0.51939 0.14828 0.0
C1452 C 0.50432 0.61698 0.15708 0.0
C1453 C 0.50628 0.63737 0.14425 0.0
C1454 C 0.48486 0.59586 0.14884 0.0
C1455 C 0.46694 0.59486 0.12803 0.0
C1456 C 0.46857 0.61548 0.11712 0.0
C1457 C 0.48803 0.63638 0.12478 0.0
C1458 C 0.41697 0.55049 0.07204 0.0
C1459 C 0.40673 0.53188 0.09571 0.0
C1460 C 0.43683 0.57047 0.08217 0.0
C1461 C 0.44683 0.57263 0.1166 0.0
C1462 C 0.43703 0.55369 0.13987 0.0
C1463 C 0.41724 0.53346 0.12942 0.0
H1464 H 0.15922 0.6332 0.64789 0.0
H1465 H 0.08937 0.60719 0.6153 0.0
H1466 H 0.15935 0.6014 0.61646 0.0
H1467 H 0.0892 0.57483 0.58456 0.0
H1468 H 0.09482 0.51683 0.53262 0.0
H1469 H 0.10345 0.55662 0.53963 0.0
H1470 H 0.13942 0.56253 0.63979 0.0
H1471 H 0.13081 0.52325 0.63259 0.0
C1472 C 0.14411 0.62104 0.63293 0.0
C1473 C 0.1242 0.62247 0.63436 0.0
C1474 C 0.14413 0.60275 0.61513 0.0
C1475 C 0.12412 0.58527 0.59883 0.0
C1476 C 0.10492 0.58802 0.59683 0.0
C1477 C 0.10499 0.60657 0.61439 0.0
C1478 C 0.10521 0.52703 0.5554 0.0
C1479 C 0.11221 0.51715 0.58211 0.0
C1480 C 0.10995 0.54966 0.5596 0.0
C1481 C 0.1221 0.56277 0.59026 0.0
C1482 C 0.13031 0.55313 0.61557 0.0
C1483 C 0.12528 0.53055 0.61164 0.0
H1484 H 0.36778 0.49942 0.58501 0.0
H1485 H 0.37522 0.50095 0.70183 0.0
H1486 H 0.40595 0.53247 0.58032 0.0
H1487 H 0.41289 0.53462 0.69744 0.0
H1488 H 0.48879 0.57854 0.6725 0.0
H1489 H 0.45027 0.54683 0.67968 0.0
H1490 H 0.42765 0.57222 0.59103 0.0
H1491 H 0.4666 0.60343 0.5828 0.0
C1492 C 0.37757 0.50688 0.6097 0.0
C1493 C 0.36856 0.49751 0.64374 0.0
C1494 C 0.39937 0.526 0.60708 0.0
C1495 C 0.41253 0.53641 0.63853 0.0
C1496 C 0.40345 0.52692 0.67259 0.0
C1497 C 0.3818 0.5076 0.67513 0.0
C1498 C 0.47554 0.57755 0.65488 0.0
C1499 C 0.48074 0.59342 0.62698 0.0
C1500 C 0.45337 0.55935 0.65904 0.0
C1501 C 0.43579 0.55675 0.63571 0.0
C1502 C 0.44084 0.57332 0.60892 0.0
C1503 C 0.46311 0.59138 0.60444 0.0
H1504 H 0.39658 0.85579 0.56731 0.0
H1505 H 0.37951 0.84916 0.68128 0.0
H1506 H 0.42625 0.84615 0.58 0.0
H1507 H 0.40875 0.83938 0.69384 0.0
H1508 H 0.45132 0.80792 0.70597 0.0
H1509 H 0.41887 0.80863 0.6795 0.0
H1510 H 0.46438 0.86796 0.61732 0.0
H1511 H 0.49715 0.8674 0.64402 0.0
C1512 C 0.39882 0.85178 0.5949 0.0
C1513 C 0.38584 0.85334 0.6234 0.0
C1514 C 0.41587 0.84644 0.60214 0.0
C1515 C 0.41979 0.84204 0.63786 0.0
C1516 C 0.40599 0.8425 0.66597 0.0
C1517 C 0.38933 0.84826 0.65885 0.0
C1518 C 0.45449 0.82084 0.686 0.0
C1519 C 0.47687 0.8379 0.67765 0.0
C1520 C 0.43585 0.82122 0.67091 0.0
C1521 C 0.43913 0.83858 0.64693 0.0
C1522 C 0.46138 0.85436 0.63577 0.0
C1523 C 0.48015 0.85403 0.65104 0.0
H1524 H 0.21062 0.49461 0.23684 0.0
H1525 H 0.18376 0.43935 0.1578 0.0
H1526 H 0.24927 0.50141 0.22555 0.0
H1527 H 0.22195 0.44572 0.14763 0.0
H1528 H 0.28776 0.44623 0.16958 0.0
H1529 H 0.25317 0.4435 0.19502 0.0
H1530 H 0.27476 0.51189 0.15939 0.0
H1531 H 0.30908 0.51449 0.13308 0.0
C1532 C 0.21297 0.484 0.21708 0.0
C1533 C 0.19419 0.46654 0.19806 0.0
C1534 C 0.23498 0.48782 0.21081 0.0
C1535 C 0.23838 0.4738 0.18624 0.0
C1536 C 0.21966 0.4565 0.16714 0.0
C1537 C 0.19785 0.45305 0.17271 0.0
C1538 C 0.28556 0.46099 0.16838 0.0
C1539 C 0.30102 0.48051 0.14919 0.0
C1540 C 0.26572 0.45936 0.1827 0.0
C1541 C 0.26135 0.47744 0.17882 0.0
C1542 C 0.27784 0.49779 0.1628 0.0
C1543 C 0.29743 0.49924 0.14778 0.0
H1544 H 0.55172 0.8418 0.14279 0.0
H1545 H 0.48655 0.79864 0.19329 0.0
H1546 H 0.56127 0.81184 0.14971 0.0
H1547 H 0.49599 0.76852 0.1996 0.0
H1548 H 0.53349 0.73126 0.2396 0.0
H1549 H 0.52202 0.75992 0.23307 0.0
H1550 H 0.54947 0.77403 0.12434 0.0
H1551 H 0.56141 0.74589 0.13113 0.0
C1552 C 0.53943 0.82592 0.15535 0.0
C1553 C 0.51837 0.82259 0.16743 0.0
C1554 C 0.54483 0.80869 0.15907 0.0
C1555 C 0.52931 0.78774 0.17495 0.0
C1556 C 0.50837 0.78452 0.1875 0.0
C1557 C 0.50295 0.80176 0.18374 0.0
C1558 C 0.53687 0.74033 0.21418 0.0
C1559 C 0.54837 0.7363 0.18589 0.0
C1560 C 0.53024 0.7567 0.21041 0.0
C1561 C 0.53503 0.76938 0.17831 0.0
C1562 C 0.5459 0.76482 0.14965 0.0
C1563 C 0.55252 0.74849 0.15341 0.0
H1564 H 0.19692 0.70632 0.15213 0.0
H1565 H 0.14344 0.71587 0.19672 0.0
H1566 H 0.22536 0.74039 0.18469 0.0
H1567 H 0.17203 0.75013 0.22925 0.0
H1568 H 0.22979 0.82591 0.20424 0.0
H1569 H 0.19963 0.78654 0.19568 0.0
H1570 H 0.24182 0.76317 0.24517 0.0
H1571 H 0.27226 0.80319 0.25456 0.0
C1572 C 0.1912 0.71531 0.16981 0.0
C1573 C 0.16797 0.70864 0.17143 0.0
C1574 C 0.2075 0.73475 0.18865 0.0
C1575 C 0.20093 0.74807 0.20912 0.0
C1576 C 0.17755 0.74024 0.2134 0.0
C1577 C 0.16118 0.72058 0.19493 0.0
C1578 C 0.23257 0.81242 0.21382 0.0
C1579 C 0.25344 0.81758 0.22976 0.0
C1580 C 0.21516 0.78984 0.20928 0.0
C1581 C 0.21828 0.77176 0.21999 0.0
C1582 C 0.23895 0.77683 0.23684 0.0
C1583 C 0.25633 0.79964 0.24218 0.0
H1584 H 0.25655 0.23968 0.18882 0.0
H1585 H 0.19084 0.17798 0.18886 0.0
H1586 H 0.25186 0.24608 0.25321 0.0
H1587 H 0.18621 0.18425 0.25293 0.0
H1588 H 0.19179 0.19559 0.37599 0.0
H1589 H 0.20257 0.18754 0.31664 0.0
H1590 H 0.22362 0.2562 0.28284 0.0
H1591 H 0.21269 0.26428 0.342 0.0
C1592 C 0.24142 0.22715 0.20284 0.0
C1593 C 0.22397 0.20842 0.18376 0.0
C1594 C 0.23864 0.23094 0.23954 0.0
C1595 C 0.21856 0.21579 0.25796 0.0
C1596 C 0.20188 0.1962 0.2395 0.0
C1597 C 0.20448 0.19266 0.20273 0.0
C1598 C 0.19888 0.20905 0.35603 0.0
C1599 C 0.20121 0.23055 0.3637 0.0
C1600 C 0.20502 0.2044 0.32204 0.0
C1601 C 0.21399 0.22125 0.29517 0.0
C1602 C 0.21699 0.24295 0.30317 0.0
C1603 C 0.21053 0.24751 0.33695 0.0
H1604 H 0.77351 0.9805 0.13668 0.0
H1605 H 0.77329 0.04341 0.15667 0.0
H1606 H 0.76673 0.97125 0.20101 0.0
H1607 H 0.76706 0.03427 0.22173 0.0
H1608 H 0.78898 0.01921 0.33649 0.0
H1609 H 0.79268 0.02843 0.27204 0.0
H1610 H 0.73308 0.96313 0.24834 0.0
H1611 H 0.7289 0.95399 0.31345 0.0
C1612 C 0.77218 -0.00754 0.15488 0.0
C1613 C 0.77409 0.01279 0.14166 0.0
C1614 C 0.76808 0.98701 0.19162 0.0
C1615 C 0.76625 0.00197 0.21615 0.0
C1616 C 0.76838 0.02245 0.2032 0.0
C1617 C 0.77198 0.02769 0.16612 0.0
C1618 C 0.77663 0.00676 0.3176 0.0
C1619 C 0.75871 0.98578 0.32999 0.0
C1620 C 0.77867 0.01217 0.28078 0.0
C1621 C 0.76312 -0.00345 0.25538 0.0
C1622 C 0.74527 0.97546 0.26754 0.0
C1623 C 0.7429 0.97023 0.30466 0.0
H1624 H 0.00315 0.74843 0.32292 0.0
H1625 H -0.00701 0.80645 0.32105 0.0
H1626 H -0.00358 0.74341 0.25709 0.0
H1627 H -0.01341 0.80162 0.25554 0.0
H1628 H -0.00681 0.79589 0.1323 0.0
H1629 H 0.00697 0.80243 0.19525 0.0
H1630 H 0.95946 0.73185 0.2195 0.0
H1631 H 0.94539 0.72532 0.15684 0.0
C1632 C -7e-05 0.76038 0.3084 0.0
C1633 C -0.0016 0.77773 0.32727 0.0
C1634 C -0.00405 0.75741 0.2708 0.0
C1635 C -0.00911 0.77207 0.25126 0.0
C1636 C -0.00944 0.79013 0.26985 0.0
C1637 C -0.00592 0.7928 0.30748 0.0
C1638 C 0.98588 0.78169 0.15092 0.0
C1639 C 0.96809 0.76011 0.1396 0.0
C1640 C -0.00628 0.78548 0.18696 0.0
C1641 C 0.98428 0.76765 0.21223 0.0
C1642 C 0.96718 0.74585 0.20054 0.0
C1643 C 0.95904 0.74217 0.16471 0.0
H1644 H 0.74688 0.74051 0.83053 0.0
H1645 H 0.80871 0.80188 0.80054 0.0
H1646 H 0.73916 0.72921 0.76661 0.0
H1647 H 0.80057 0.79109 0.73679 0.0
H1648 H 0.78122 0.76909 0.62134 0.0
H1649 H 0.79381 0.76745 0.6832 0.0
H1650 H 0.72588 0.74521 0.72238 0.0
H1651 H 0.71356 0.74649 0.66134 0.0
C1652 C 0.75908 0.75135 0.8104 0.0
C1653 C 0.77809 0.77237 0.82057 0.0
C1654 C 0.75461 0.74494 0.77371 0.0
C1655 C 0.7689 0.75955 0.74642 0.0
C1656 C 0.78916 0.77939 0.75694 0.0
C1657 C 0.79376 0.78567 0.79365 0.0
C1658 C 0.769 0.76343 0.64314 0.0
C1659 C 0.74658 0.75837 0.63654 0.0
C1660 C 0.77617 0.76254 0.67859 0.0
C1661 C 0.76091 0.75633 0.70793 0.0
C1662 C 0.73811 0.74977 0.70062 0.0
C1663 C 0.73107 0.75079 0.66548 0.0
H1664 H 0.27264 0.04285 0.65525 0.0
H1665 H 0.21743 0.97384 0.63642 0.0
H1666 H 0.27228 0.03502 0.71979 0.0
H1667 H 0.21699 0.96609 0.70123 0.0
H1668 H 0.23272 0.95427 0.81584 0.0
H1669 H 0.23915 0.9624 0.75122 0.0
H1670 H 0.24577 0.02856 0.77023 0.0
H1671 H 0.2395 0.02052 0.83513 0.0
C1672 C 0.26057 0.0259 0.66478 0.0
C1673 C 0.24493 0.009 0.64067 0.0
C1674 C 0.2603 0.0215 0.70185 0.0
C1675 C 0.24447 4e-05 0.7157 0.0
C1676 C 0.22951 0.98278 0.69137 0.0
C1677 C 0.22971 0.98722 0.65423 0.0
C1678 C 0.23582 0.97069 0.80638 0.0
C1679 C 0.23544 0.98671 0.83067 0.0
C1680 C 0.23937 0.97526 0.76927 0.0
C1681 C 0.24275 -0.00399 0.75554 0.0
C1682 C 0.24337 0.01245 0.78 0.0
C1683 C 0.23972 0.00784 0.81719 0.0
H1684 H 0.9352 0.21188 0.69424 0.0
H1685 H 0.00224 0.25606 0.65062 0.0
H1686 H 0.95046 0.22137 0.75541 0.0
H1687 H 0.01751 0.26666 0.71237 0.0
H1688 H 0.98015 0.24846 0.86544 0.0
H1689 H 0.966 0.24718 0.80388 0.0
H1690 H 0.02639 0.24993 0.75995 0.0
H1691 H 0.04085 0.2524 0.82097 0.0
C1692 C 0.95318 0.22406 0.69772 0.0
C1693 C 0.96756 0.233 0.66749 0.0
C1694 C 0.96194 0.22969 0.73302 0.0
C1695 C 0.98531 0.24468 0.73913 0.0
C1696 C -0.00049 0.25463 0.70881 0.0
C1697 C -0.00924 0.24872 0.67336 0.0
C1698 C -0.00956 0.24904 0.84254 0.0
C1699 C 0.01154 0.2504 0.84809 0.0
C1700 C 0.98232 0.2482 0.80721 0.0
C1701 C -0.00505 0.24832 0.77669 0.0
C1702 C 0.0163 0.25024 0.78251 0.0
C1703 C 0.02454 0.25143 0.81769 0.0
H1704 H 0.84957 0.52296 0.49363 0.0
H1705 H 0.91994 0.57691 0.49221 0.0
H1706 H 0.84836 0.52827 0.55919 0.0
H1707 H 0.91854 0.58251 0.55789 0.0
H1708 H 0.88823 0.60464 0.65738 0.0
H1709 H 0.8946 0.59694 0.59465 0.0
H1710 H 0.8677 0.52586 0.62004 0.0
H1711 H 0.86174 0.53356 0.6831 0.0
C1712 C 0.86485 0.53576 0.50731 0.0
C1713 C 0.88481 0.54956 0.48764 0.0
C1714 C 0.86418 0.53873 0.54492 0.0
C1715 C 0.88333 0.55587 0.56356 0.0
C1716 C 0.90351 0.56923 0.54414 0.0
C1717 C 0.90433 0.56592 0.50661 0.0
C1718 C 0.88395 0.58742 0.64973 0.0
C1719 C 0.87442 0.56971 0.67521 0.0
C1720 C 0.88771 0.58306 0.61388 0.0
C1721 C 0.88161 0.5608 0.60252 0.0
C1722 C 0.8725 0.54316 0.6281 0.0
C1723 C 0.86919 0.54761 0.66419 0.0
H1724 H 0.47385 0.33941 0.49748 0.0
H1725 H 0.42145 0.35767 0.50089 0.0
H1726 H 0.46828 0.33013 0.56157 0.0
H1727 H 0.41586 0.34835 0.56583 0.0
H1728 H 0.39725 0.30194 0.67023 0.0
H1729 H 0.40161 0.31179 0.60545 0.0
H1730 H 0.47449 0.35189 0.62016 0.0
H1731 H 0.47028 0.34252 0.68404 0.0
C1732 C 0.46122 0.34158 0.5119 0.0
C1733 C 0.44812 0.34928 0.49401 0.0
C1734 C 0.45806 0.3363 0.54876 0.0
C1735 C 0.44153 0.33837 0.56864 0.0
C1736 C 0.42855 0.34636 0.55101 0.0
C1737 C 0.43197 0.35197 0.51405 0.0
C1738 C 0.41419 0.31269 0.65948 0.0
C1739 C 0.43343 0.32107 0.6823 0.0
C1740 C 0.41665 0.31849 0.62255 0.0
C1741 C 0.43841 0.33256 0.60781 0.0
C1742 C 0.45754 0.34079 0.63063 0.0
C1743 C 0.45508 0.33525 0.66735 0.0
H1744 H 0.67983 0.08838 0.63201 0.0
H1745 H 0.68101 0.15266 0.62863 0.0
H1746 H 0.66995 0.08224 0.56714 0.0
H1747 H 0.67112 0.14657 0.56424 0.0
H1748 H 0.66473 0.13466 0.44219 0.0
H1749 H 0.68332 0.14202 0.50169 0.0
H1750 H 0.63347 0.07399 0.53527 0.0
H1751 H 0.61484 0.06658 0.47598 0.0
C1752 C 0.67859 0.10147 0.61721 0.0
C1753 C 0.68091 0.12087 0.63547 0.0
C1754 C 0.67271 0.09785 0.5802 0.0
C1755 C 0.66949 0.1138 0.56069 0.0
C1756 C 0.67352 0.13399 0.57844 0.0
C1757 C 0.67902 0.1374 0.61546 0.0
C1758 C 0.65785 0.12118 0.46211 0.0
C1759 C 0.63814 0.10009 0.45436 0.0
C1760 C 0.6685 0.12543 0.49621 0.0
C1761 C 0.65988 0.10858 0.52316 0.0
C1762 C 0.6407 0.08722 0.51495 0.0
C1763 C 0.62989 0.08306 0.48105 0.0
H1764 H 0.42976 0.08668 0.15985 0.0
H1765 H 0.36775 0.08584 0.13027 0.0
H1766 H 0.43359 0.07679 0.09732 0.0
H1767 H 0.3715 0.07571 0.06789 0.0
H1768 H 0.40858 0.09507 0.95564 0.0
H1769 H 0.39793 0.09693 0.01839 0.0
H1770 H 0.41705 0.04739 0.04903 0.0
H1771 H 0.42793 0.04569 0.98644 0.0
C1772 C 0.41672 0.08397 0.1402 0.0
C1773 C 0.39859 0.08729 0.14999 0.0
C1774 C 0.41887 0.07821 0.10437 0.0
C1775 C 0.40295 0.07568 0.07757 0.0
C1776 C 0.38422 0.0779 0.08779 0.0
C1777 C 0.38204 0.08358 0.12361 0.0
C1778 C 0.41018 0.08431 0.97563 0.0
C1779 C 0.41933 0.07042 0.96609 0.0
C1780 C 0.40398 0.08529 0.01158 0.0
C1781 C 0.40684 0.07244 0.03875 0.0
C1782 C 0.41497 0.05775 0.02883 0.0
C1783 C 0.4211 0.05671 -0.0071 0.0
H1784 H 0.90096 0.29136 0.15559 0.0
H1785 H 0.91014 0.35839 0.17705 0.0
H1786 H 0.90802 0.30022 0.09126 0.0
H1787 H 0.91698 0.36716 0.11245 0.0
H1788 H 0.94427 0.38192 -0.00253 0.0
H1789 H 0.94301 0.37349 0.0619 0.0
H1790 H 0.88693 0.30523 0.04143 0.0
H1791 H 0.88833 0.31357 0.9767 0.0
C1792 C 0.90473 0.3081 0.14668 0.0
C1793 C 0.90482 0.32412 0.17148 0.0
C1794 C 0.90862 0.3131 0.10971 0.0
C1795 C 0.91279 0.33427 0.09663 0.0
C1796 C 0.91395 0.35072 0.12167 0.0
C1797 C 0.91 0.34569 0.15871 0.0
C1798 C 0.93179 0.36501 0.00658 0.0
C1799 C 0.9163 0.34844 0.9819 0.0
C1800 C 0.93101 0.36025 0.0436 0.0
C1801 C 0.91478 0.33877 0.05688 0.0
C1802 C 0.89979 0.32191 0.03204 0.0
C1803 C 0.90052 0.32669 -0.00506 0.0
H1804 H 0.65808 0.60852 0.17985 0.0
H1805 H 0.65963 0.54592 0.16853 0.0
H1806 H 0.67178 0.61881 0.11775 0.0
H1807 H 0.67177 0.55514 0.10565 0.0
H1808 H 0.64313 0.59971 0.00034 0.0
H1809 H 0.65042 0.60437 0.06498 0.0
H1810 H 0.69375 0.57479 0.05495 0.0
H1811 H 0.68553 0.56923 0.98984 0.0
C1812 C 0.66216 0.59737 0.16432 0.0
C1813 C 0.65787 0.57648 0.17868 0.0
C1814 C 0.66968 0.60305 0.12856 0.0
C1815 C 0.67216 0.58748 0.10606 0.0
C1816 C 0.67015 0.56766 0.12192 0.0
C1817 C 0.66317 0.56229 0.15806 0.0
C1818 C 0.65465 0.59467 0.01166 0.0
C1819 C 0.66326 0.58357 0.99001 0.0
C1820 C 0.65906 0.59754 0.04898 0.0
C1821 C 0.67242 0.58959 0.06564 0.0
C1822 C 0.68293 0.5806 0.04329 0.0
C1823 C 0.67835 0.57757 0.00587 0.0
H1824 H 0.54718 0.92904 -0.00798 0.0
H1825 H 0.53057 0.86201 0.02896 0.0
H1826 H 0.55775 0.92075 0.93286 0.0
H1827 H 0.54115 0.85377 0.96959 0.0
H1828 H 0.52543 0.84025 0.84367 0.0
H1829 H 0.52295 0.84765 0.90791 0.0
H1830 H 0.58561 0.9123 0.90028 0.0
H1831 H 0.58803 0.90483 0.83553 0.0
C1832 C 0.54599 0.91262 0.98768 0.0
C1833 C 0.5378 0.89612 0.01518 0.0
C1834 C 0.55226 0.90796 0.95384 0.0
C1835 C 0.55027 0.8866 0.94655 0.0
C1836 C 0.54275 0.87034 0.97437 0.0
C1837 C 0.53673 0.8751 0.00839 0.0
C1838 C 0.53887 0.85586 0.85574 0.0
C1839 C 0.55675 0.87208 0.83443 0.0
C1840 C 0.53755 0.86003 0.89269 0.0
C1841 C 0.55396 0.88068 0.90908 0.0
C1842 C 0.57259 0.89634 0.88827 0.0
C1843 C 0.57409 0.89198 0.85132 0.0
H1844 H 0.13464 0.67053 -0.00326 0.0
H1845 H 0.06189 0.64322 -0.00372 0.0
H1846 H 0.13507 0.67299 0.93068 0.0
H1847 H 0.06247 0.64614 0.92986 0.0
H1848 H 0.08236 0.68388 0.81701 0.0
H1849 H 0.08116 0.6805 0.88337 0.0
H1850 H 0.11771 0.64377 0.87663 0.0
H1851 H 0.1184 0.6465 0.8107 0.0
C1852 C 0.11872 0.66495 0.98264 0.0
C1853 C 0.09823 0.65659 0.00188 0.0
C1854 C 0.11899 0.66636 0.94473 0.0
C1855 C 0.09883 0.65988 0.92523 0.0
C1856 C 0.07828 0.65143 0.94432 0.0
C1857 C 0.07795 0.64958 0.98225 0.0
C1858 C 0.09023 0.67518 0.82968 0.0
C1859 C 0.10071 0.66569 0.80842 0.0
C1860 C 0.08939 0.67312 0.86762 0.0
C1861 C 0.09936 0.66188 0.88505 0.0
C1862 C 0.11005 0.65266 0.86389 0.0
C1863 C 0.1105 0.65433 0.82603 0.0
H1864 H 0.34718 0.42011 0.98523 0.0
H1865 H 0.34934 0.48485 0.98083 0.0
H1866 H 0.3372 0.41372 0.92037 0.0
H1867 H 0.33948 0.47856 0.91636 0.0
H1868 H 0.33495 0.466 0.79387 0.0
H1869 H 0.35271 0.47323 0.85404 0.0
H1870 H 0.30043 0.4064 0.88832 0.0
H1871 H 0.28251 0.39915 0.82836 0.0
C1872 C 0.34611 0.43322 0.9702 0.0
C1873 C 0.34877 0.45285 0.98811 0.0
C1874 C 0.3402 0.42948 0.93323 0.0
C1875 C 0.33733 0.44554 0.91344 0.0
C1876 C 0.3416 0.4659 0.93086 0.0
C1877 C 0.34709 0.46943 0.96787 0.0
C1878 C 0.32734 0.45275 0.81411 0.0
C1879 C 0.30719 0.43205 0.80636 0.0
C1880 C 0.33751 0.45693 0.84856 0.0
C1881 C 0.32799 0.44037 0.87581 0.0
C1882 C 0.3083 0.41939 0.86771 0.0
C1883 C 0.29793 0.41533 0.83346 0.0
H1884 H 0.08973 0.44673 0.51576 0.0
H1885 H 0.0666 0.37687 0.48421 0.0
H1886 H 0.08582 0.45558 0.45256 0.0
H1887 H 0.06308 0.3855 0.42179 0.0
H1888 H 0.05192 0.40015 0.31195 0.0
H1889 H 0.0445 0.39579 0.37707 0.0
H1890 H 0.10713 0.45926 0.39746 0.0
H1891 H 0.11413 0.464 0.33242 0.0
C1892 C 0.08345 0.43324 0.49553 0.0
C1893 C 0.07881 0.41127 0.50492 0.0
C1894 C 0.0813 0.43827 0.45931 0.0
C1895 C 0.07421 0.42128 0.43194 0.0
C1896 C 0.06827 0.39899 0.442 0.0
C1897 C 0.07055 0.39408 0.47792 0.0
C1898 C 0.0638 0.41348 0.33027 0.0
C1899 C 0.08386 0.43216 0.31702 0.0
C1900 C 0.0596 0.41093 0.36764 0.0
C1901 C 0.07549 0.42689 0.39262 0.0
C1902 C 0.09448 0.44664 0.37911 0.0
C1903 C 0.09857 0.4493 0.3417 0.0
H1904 H 0.59979 0.71691 0.33091 0.0
H1905 H 0.57661 0.64775 0.29434 0.0
H1906 H 0.59559 0.70492 0.39352 0.0
H1907 H 0.57356 0.6358 0.35751 0.0
H1908 H 0.59629 0.68096 0.50646 0.0
H1909 H 0.6072 0.6924 0.44345 0.0
H1910 H 0.54922 0.62889 0.40623 0.0
H1911 H 0.53923 0.61717 0.46859 0.0
C1912 C 0.59425 0.69916 0.33624 0.0
C1913 C 0.58827 0.68321 0.30756 0.0
C1914 C 0.59201 0.69229 0.37237 0.0
C1915 C 0.58404 0.6693 0.38091 0.0
C1916 C 0.57923 0.65355 0.35211 0.0
C1917 C 0.58114 0.6604 0.31583 0.0
C1918 C 0.58607 0.66944 0.48471 0.0
C1919 C 0.56689 0.64822 0.49254 0.0
C1920 C 0.59222 0.67599 0.44854 0.0
C1921 C 0.57909 0.66162 0.41945 0.0
C1922 C 0.56011 0.64027 0.42759 0.0
C1923 C 0.55421 0.63362 0.46356 0.0
H1924 H 0.35748 0.94476 0.34985 0.0
H1925 H 0.30567 0.88084 0.30311 0.0
H1926 H 0.3441 0.9306 0.41021 0.0
H1927 H 0.29184 0.86639 0.36427 0.0
H1928 H 0.30808 0.84305 0.47633 0.0
H1929 H 0.30772 0.85502 0.41433 0.0
H1930 H 0.31454 0.91829 0.455 0.0
H1931 H 0.31558 0.90659 0.51712 0.0
C1932 C 0.34291 0.92771 0.35241 0.0
C1933 C 0.33287 0.9137 0.32161 0.0
C1934 C 0.33504 0.91965 0.38719 0.0
C1935 C 0.31691 0.89729 0.39224 0.0
C1936 C 0.306 0.88363 0.36133 0.0
C1937 C 0.31384 0.89186 0.3263 0.0
C1938 C 0.30897 0.85929 0.47216 0.0
C1939 C 0.31242 0.87411 0.50167 0.0
C1940 C 0.30861 0.86611 0.4365 0.0
C1941 C 0.31156 0.88782 0.42963 0.0
C1942 C 0.31276 0.90167 0.45934 0.0
C1943 C 0.31326 0.89492 0.49498 0.0
loop_
_geom_bond_atom_site_label_1
_geom_bond_atom_site_label_2
_geom_bond_distance
_geom_bond_site_symmetry_2
_ccdc_geom_bond_type
Mg0 O1 2.028 . S
Mg0 O7 1.986 . S
Mg0 O9 2.114 . S
Mg0 O10 2.251 . S
Mg0 O13 2.010 . S
O1 Mg0 2.028 . S
O1 C4 1.250 . S
O2 Mg3 2.028 . S
O2 C4 1.248 . S
Mg3 O2 2.028 . S
Mg3 O8 2.032 . S
Mg3 O10 2.079 . S
C4 O1 1.250 . S
C4 O2 1.248 . S
C5 O6 1.264 . S
C5 O13 1.249 . S
O6 C5 1.264 . S
O7 Mg0 1.986 . S
O7 C11 1.246 . S
O8 Mg3 2.032 . S
O8 C11 1.259 . S
O9 Mg0 2.114 . S
O9 C12 1.252 . S
O10 Mg0 2.251 . S
O10 Mg3 2.079 . S
O10 C12 1.273 . S
C11 O7 1.246 . S
C11 O8 1.259 . S
C12 O9 1.252 . S
C12 O10 1.273 . S
O13 Mg0 2.010 . S
O13 C5 1.249 . S
Mg14 O15 2.028 . S
Mg14 O21 1.986 1_545 S
Mg14 O23 2.114 . S
Mg14 O24 2.251 . S
Mg14 O27 2.010 . S
O15 Mg14 2.028 . S
O15 C18 1.250 . S
O16 Mg17 2.028 . S
O16 C18 1.248 . S
Mg17 O16 2.028 . S
Mg17 O22 2.032 1_545 S
Mg17 O24 2.079 . S
C18 O15 1.250 . S
C18 O16 1.248 . S
C19 O20 1.265 . S
C19 O27 1.262 . S
O20 C19 1.265 . S
O21 Mg14 1.986 1_565 S
O21 C25 1.246 . S
O22 Mg17 2.032 1_565 S
O22 C25 1.259 . S
O23 Mg14 2.114 . S
O23 C26 1.252 . S
O24 Mg14 2.251 . S
O24 Mg17 2.079 . S
O24 C26 1.273 . S
C25 O21 1.246 . S
C25 O22 1.259 . S
C26 O23 1.252 . S
C26 O24 1.273 . S
O27 Mg14 2.010 . S
O27 C19 1.262 . S
Mg28 O29 2.028 . S
Mg28 O35 1.986 . S
Mg28 O37 2.114 . S
Mg28 O38 2.251 . S
Mg28 O41 2.010 1_655 S
O29 Mg28 2.028 . S
O29 C32 1.250 . S
O30 Mg31 2.028 . S
O30 C32 1.248 . S
Mg31 O30 2.028 . S
Mg31 O36 2.032 . S
Mg31 O38 2.079 . S
C32 O29 1.250 . S
C32 O30 1.248 . S
C33 O34 1.264 . S
C33 O41 1.249 1_556 S
O34 C33 1.264 . S
O35 Mg28 1.986 . S
O35 C39 1.246 . S
O36 Mg31 2.032 . S
O36 C39 1.259 . S
O37 Mg28 2.114 . S
O37 C40 1.252 . S
O38 Mg28 2.251 . S
O38 Mg31 2.079 . S
O38 C40 1.273 . S
C39 O35 1.246 . S
C39 O36 1.259 . S
C40 O37 1.252 . S
C40 O38 1.273 . S
O41 Mg28 2.010 1_455 S
O41 C33 1.249 1_554 S
Mg42 O43 2.028 . S
Mg42 O49 1.986 . S
Mg42 O51 2.114 . S
Mg42 O52 2.251 . S
Mg42 O55 2.010 . S
O43 Mg42 2.028 . S
O43 C46 1.250 . S
O44 Mg45 2.028 . S
O44 C46 1.248 . S
Mg45 O44 2.028 . S
Mg45 O50 2.032 . S
Mg45 O52 2.079 . S
C46 O43 1.250 . S
C46 O44 1.248 . S
C47 O48 1.264 . S
C47 O55 1.249 . S
O48 C47 1.264 . S
O49 Mg42 1.986 . S
O49 C53 1.246 . S
O50 Mg45 2.032 . S
O50 C53 1.259 . S
O51 Mg42 2.114 . S
O51 C54 1.252 . S
O52 Mg42 2.251 . S
O52 Mg45 2.079 . S
O52 C54 1.273 . S
C53 O49 1.246 . S
C53 O50 1.259 . S
C54 O51 1.252 . S
C54 O52 1.273 . S
O55 Mg42 2.010 . S
O55 C47 1.249 . S
Mg56 O57 2.028 . S
Mg56 O63 1.986 1_565 S
Mg56 O65 2.114 . S
Mg56 O66 2.251 1_565 S
Mg56 O69 2.010 . S
O57 Mg56 2.028 . S
O57 C60 1.250 . S
O58 Mg59 2.028 1_565 S
O58 C60 1.248 . S
Mg59 O58 2.028 1_545 S
Mg59 O64 2.032 . S
Mg59 O66 2.079 . S
C60 O57 1.250 . S
C60 O58 1.248 . S
C61 O62 1.264 . S
C61 O69 1.249 . S
O62 C61 1.264 . S
O63 Mg56 1.986 1_545 S
O63 C67 1.246 . S
O64 Mg59 2.032 . S
O64 C67 1.259 . S
O65 Mg56 2.114 . S
O65 C68 1.252 . S
O66 Mg56 2.251 1_545 S
O66 Mg59 2.079 . S
O66 C68 1.273 1_545 S
C67 O63 1.246 . S
C67 O64 1.259 . S
C68 O65 1.252 . S
C68 O66 1.273 1_565 S
O69 Mg56 2.010 . S
O69 C61 1.249 . S
Mg70 O71 2.028 . S
Mg70 O77 1.986 1_455 S
Mg70 O79 2.114 . S
Mg70 O80 2.251 . S
Mg70 O83 2.010 . S
O71 Mg70 2.028 . S
O71 C74 1.250 . S
O72 Mg73 2.028 . S
O72 C74 1.248 . S
Mg73 O72 2.028 . S
Mg73 O78 2.032 1_455 S
Mg73 O80 2.079 . S
C74 O71 1.250 . S
C74 O72 1.248 . S
C75 O76 1.264 . S
C75 O83 1.249 . S
O76 C75 1.264 . S
O77 Mg70 1.986 1_655 S
O77 C81 1.246 . S
O78 Mg73 2.032 1_655 S
O78 C81 1.259 . S
O79 Mg70 2.114 . S
O79 C82 1.252 . S
O80 Mg70 2.251 . S
O80 Mg73 2.079 . S
O80 C82 1.273 . S
C81 O77 1.246 . S
C81 O78 1.259 . S
C82 O79 1.252 . S
C82 O80 1.273 . S
O83 Mg70 2.010 . S
O83 C75 1.249 . S
Mg84 O85 2.028 . S
Mg84 O91 1.986 . S
Mg84 O93 2.114 . S
Mg84 O94 2.252 1_556 S
Mg84 O97 2.010 . S
O85 Mg84 2.028 . S
O85 C88 1.250 . S
O86 Mg87 2.028 . S
O86 C88 1.248 1_554 S
Mg87 O86 2.028 . S
Mg87 O92 2.032 . S
Mg87 O94 2.078 . S
C88 O85 1.250 . S
C88 O86 1.248 1_556 S
C89 O90 1.264 . S
C89 O97 1.249 . S
O90 C89 1.264 . S
O91 Mg84 1.986 . S
O91 C95 1.246 1_556 S
O92 Mg87 2.032 . S
O92 C95 1.259 . S
O93 Mg84 2.114 . S
O93 C96 1.252 . S
O94 Mg84 2.252 1_554 S
O94 Mg87 2.078 . S
O94 C96 1.274 1_554 S
C95 O91 1.246 1_554 S
C95 O92 1.259 . S
C96 O93 1.252 . S
C96 O94 1.274 1_556 S
O97 Mg84 2.010 . S
O97 C89 1.249 . S
Mg98 O99 2.028 1_565 S
Mg98 O105 1.986 . S
Mg98 O107 2.114 . S
Mg98 O108 2.251 1_556 S
Mg98 O111 2.010 . S
O99 Mg98 2.028 1_545 S
O99 C102 1.250 . S
O100 Mg101 2.028 1_545 S
O100 C102 1.248 1_554 S
Mg101 O100 2.028 1_565 S
Mg101 O106 2.032 . S
Mg101 O108 2.079 . S
C102 O99 1.250 . S
C102 O100 1.248 1_556 S
C103 O104 1.264 . S
C103 O111 1.249 . S
O104 C103 1.264 . S
O105 Mg98 1.986 . S
O105 C109 1.246 1_556 S
O106 Mg101 2.032 . S
O106 C109 1.259 . S
O107 Mg98 2.114 . S
O107 C110 1.252 . S
O108 Mg98 2.251 1_554 S
O108 Mg101 2.079 . S
O108 C110 1.273 1_554 S
C109 O105 1.246 1_554 S
C109 O106 1.259 . S
C110 O107 1.252 . S
C110 O108 1.273 1_556 S
O111 Mg98 2.010 . S
O111 C103 1.249 . S
Mg112 O113 2.028 1_455 S
Mg112 O119 1.986 . S
Mg112 O121 2.114 . S
Mg112 O122 2.251 1_556 S
Mg112 O125 2.010 . S
O113 Mg112 2.028 1_655 S
O113 C116 1.250 . S
O114 Mg115 2.028 1_655 S
O114 C116 1.248 1_554 S
Mg115 O114 2.028 1_455 S
Mg115 O120 2.032 . S
Mg115 O122 2.079 . S
C116 O113 1.250 . S
C116 O114 1.248 1_556 S
C117 O118 1.264 . S
C117 O125 1.249 . S
O118 C117 1.264 . S
O119 Mg112 1.986 . S
O119 C123 1.246 1_556 S
O120 Mg115 2.032 . S
O120 C123 1.259 . S
O121 Mg112 2.114 . S
O121 C124 1.252 . S
O122 Mg112 2.251 1_554 S
O122 Mg115 2.079 . S
O122 C124 1.273 1_554 S
C123 O119 1.246 1_554 S
C123 O120 1.259 . S
C124 O121 1.252 . S
C124 O122 1.273 1_556 S
O125 Mg112 2.010 . S
O125 C117 1.249 . S
Mg126 O127 2.028 . S
Mg126 O133 1.986 . S
Mg126 O135 2.114 . S
Mg126 O136 2.251 . S
Mg126 O139 2.010 . S
O127 Mg126 2.028 . S
O127 C130 1.250 . S
O128 Mg129 2.028 . S
O128 C130 1.248 . S
Mg129 O128 2.028 . S
Mg129 O134 2.032 . S
Mg129 O136 2.079 . S
C130 O127 1.250 . S
C130 O128 1.248 . S
C131 O132 1.264 . S
C131 O139 1.249 . S
O132 C131 1.264 . S
O133 Mg126 1.986 . S
O133 C137 1.246 . S
O134 Mg129 2.032 . S
O134 C137 1.259 . S
O135 Mg126 2.114 . S
O135 C138 1.252 . S
O136 Mg126 2.251 . S
O136 Mg129 2.079 . S
O136 C138 1.273 . S
C137 O133 1.246 . S
C137 O134 1.259 . S
C138 O135 1.252 . S
C138 O136 1.273 . S
O139 Mg126 2.010 . S
O139 C131 1.249 . S
Mg140 O141 2.028 1_545 S
Mg140 O147 1.986 . S
Mg140 O149 2.114 . S
Mg140 O150 2.251 . S
Mg140 O153 2.010 . S
O141 Mg140 2.028 1_565 S
O141 C144 1.250 . S
O142 Mg143 2.028 1_565 S
O142 C144 1.248 . S
Mg143 O142 2.028 1_545 S
Mg143 O148 2.032 . S
Mg143 O150 2.079 . S
C144 O141 1.250 . S
C144 O142 1.248 . S
C145 O146 1.264 . S
C145 O153 1.249 . S
O146 C145 1.264 . S
O147 Mg140 1.986 . S
O147 C151 1.246 . S
O148 Mg143 2.032 . S
O148 C151 1.259 . S
O149 Mg140 2.114 . S
O149 C152 1.252 . S
O150 Mg140 2.251 . S
O150 Mg143 2.079 . S
O150 C152 1.273 . S
C151 O147 1.246 . S
C151 O148 1.259 . S
C152 O149 1.252 . S
C152 O150 1.273 . S
O153 Mg140 2.010 . S
O153 C145 1.249 . S
Mg154 O155 2.028 1_655 S
Mg154 O161 1.986 . S
Mg154 O163 2.114 . S
Mg154 O164 2.251 . S
Mg154 O167 2.010 . S
O155 Mg154 2.028 1_455 S
O155 C158 1.250 . S
O156 Mg157 2.028 1_455 S
O156 C158 1.248 . S
Mg157 O156 2.028 1_655 S
Mg157 O162 2.032 . S
Mg157 O164 2.079 . S
C158 O155 1.250 . S
C158 O156 1.248 . S
C159 O160 1.264 . S
C159 O167 1.249 . S
O160 C159 1.264 . S
O161 Mg154 1.986 . S
O161 C165 1.246 . S
O162 Mg157 2.032 . S
O162 C165 1.259 . S
O163 Mg154 2.114 . S
O163 C166 1.252 . S
O164 Mg154 2.251 . S
O164 Mg157 2.079 . S
O164 C166 1.273 . S
C165 O161 1.246 . S
C165 O162 1.259 . S
C166 O163 1.252 . S
C166 O164 1.273 . S
O167 Mg154 2.010 . S
O167 C159 1.249 . S
Mg168 O169 2.028 . S
Mg168 O175 1.986 . S
Mg168 O177 2.114 . S
Mg168 O178 2.251 . S
Mg168 O181 2.010 . S
O169 Mg168 2.028 . S
O169 C172 1.250 . S
O170 Mg171 2.028 . S
O170 C172 1.248 . S
Mg171 O170 2.028 . S
Mg171 O176 2.032 . S
Mg171 O178 2.079 . S
C172 O169 1.250 . S
C172 O170 1.248 . S
C173 O174 1.264 . S
C173 O181 1.249 . S
O174 C173 1.264 . S
O175 Mg168 1.986 . S
O175 C179 1.246 . S
O176 Mg171 2.032 . S
O176 C179 1.259 . S
O177 Mg168 2.114 . S
O177 C180 1.252 . S
O178 Mg168 2.251 . S
O178 Mg171 2.079 . S
O178 C180 1.273 . S
C179 O175 1.246 . S
C179 O176 1.259 . S
C180 O177 1.252 . S
C180 O178 1.273 . S
O181 Mg168 2.010 . S
O181 C173 1.249 . S
Mg182 O183 2.028 . S
Mg182 O189 1.986 . S
Mg182 O191 2.114 . S
Mg182 O192 2.251 . S
Mg182 O195 2.010 . S
O183 Mg182 2.028 . S
O183 C186 1.250 . S
O184 Mg185 2.028 . S
O184 C186 1.248 . S
Mg185 O184 2.028 . S
Mg185 O190 2.032 . S
Mg185 O192 2.079 . S
C186 O183 1.250 . S
C186 O184 1.248 . S
C187 O188 1.264 . S
C187 O195 1.249 . S
O188 C187 1.264 . S
O189 Mg182 1.986 . S
O189 C193 1.246 . S
O190 Mg185 2.032 . S
O190 C193 1.259 . S
O191 Mg182 2.114 . S
O191 C194 1.252 . S
O192 Mg182 2.251 . S
O192 Mg185 2.079 . S
O192 C194 1.273 . S
C193 O189 1.246 . S
C193 O190 1.259 . S
C194 O191 1.252 . S
C194 O192 1.273 . S
O195 Mg182 2.010 . S
O195 C187 1.249 . S
Mg196 O197 2.028 . S
Mg196 O203 1.986 . S
Mg196 O205 2.114 . S
Mg196 O206 2.251 . S
Mg196 O209 2.010 . S
O197 Mg196 2.028 . S
O197 C200 1.250 . S
O198 Mg199 2.028 . S
O198 C200 1.248 . S
Mg199 O198 2.028 . S
Mg199 O204 2.032 . S
Mg199 O206 2.079 . S
C200 O197 1.250 . S
C200 O198 1.248 . S
C201 O202 1.264 . S
C201 O209 1.249 . S
O202 C201 1.264 . S
O203 Mg196 1.986 . S
O203 C207 1.246 . S
O204 Mg199 2.032 . S
O204 C207 1.259 . S
O205 Mg196 2.114 . S
O205 C208 1.252 . S
O206 Mg196 2.251 . S
O206 Mg199 2.079 . S
O206 C208 1.273 . S
C207 O203 1.246 . S
C207 O204 1.259 . S
C208 O205 1.252 . S
C208 O206 1.273 . S
O209 Mg196 2.010 . S
O209 C201 1.249 . S
Mg210 O211 2.028 . S
Mg210 O217 1.986 . S
Mg210 O219 2.114 . S
Mg210 O220 2.251 . S
Mg210 O223 2.010 . S
O211 Mg210 2.028 . S
O211 C214 1.250 . S
O212 Mg213 2.028 . S
O212 C214 1.248 . S
Mg213 O212 2.028 . S
Mg213 O218 2.032 . S
Mg213 O220 2.079 . S
C214 O211 1.250 . S
C214 O212 1.248 . S
C215 O216 1.264 . S
C215 O223 1.249 . S
O216 C215 1.264 . S
O217 Mg210 1.986 . S
O217 C221 1.246 . S
O218 Mg213 2.032 . S
O218 C221 1.259 . S
O219 Mg210 2.114 . S
O219 C222 1.252 . S
O220 Mg210 2.251 . S
O220 Mg213 2.079 . S
O220 C222 1.273 . S
C221 O217 1.246 . S
C221 O218 1.259 . S
C222 O219 1.252 . S
C222 O220 1.273 . S
O223 Mg210 2.010 . S
O223 C215 1.249 . S
Mg224 O225 2.028 . S
Mg224 O231 1.986 . S
Mg224 O233 2.114 . S
Mg224 O234 2.251 . S
Mg224 O237 2.010 . S
O225 Mg224 2.028 . S
O225 C228 1.250 . S
O226 Mg227 2.028 . S
O226 C228 1.248 . S
Mg227 O226 2.028 . S
Mg227 O232 2.032 . S
Mg227 O234 2.079 . S
C228 O225 1.250 . S
C228 O226 1.248 . S
C229 O230 1.264 . S
C229 O237 1.249 . S
O230 C229 1.264 . S
O231 Mg224 1.986 . S
O231 C235 1.246 . S
O232 Mg227 2.032 . S
O232 C235 1.259 . S
O233 Mg224 2.114 . S
O233 C236 1.252 . S
O234 Mg224 2.251 . S
O234 Mg227 2.079 . S
O234 C236 1.273 . S
C235 O231 1.246 . S
C235 O232 1.259 . S
C236 O233 1.252 . S
C236 O234 1.273 . S
O237 Mg224 2.010 . S
O237 C229 1.249 . S
Mg238 O239 2.028 . S
Mg238 O245 1.986 . S
Mg238 O247 2.114 . S
Mg238 O248 2.251 . S
Mg238 O251 2.010 . S
O239 Mg238 2.028 . S
O239 C242 1.250 . S
O240 Mg241 2.028 . S
O240 C242 1.248 . S
Mg241 O240 2.028 . S
Mg241 O246 2.032 . S
Mg241 O248 2.079 . S
C242 O239 1.250 . S
C242 O240 1.248 . S
C243 O244 1.264 . S
C243 O251 1.249 . S
O244 C243 1.264 . S
O245 Mg238 1.986 . S
O245 C249 1.246 . S
O246 Mg241 2.032 . S
O246 C249 1.259 . S
O247 Mg238 2.114 . S
O247 C250 1.252 . S
O248 Mg238 2.251 . S
O248 Mg241 2.079 . S
O248 C250 1.273 . S
C249 O245 1.246 . S
C249 O246 1.259 . S
C250 O247 1.252 . S
C250 O248 1.273 . S
O251 Mg238 2.010 . S
O251 C243 1.249 . S
Mg252 O253 2.028 . S
Mg252 O259 1.986 . S
Mg252 O261 2.114 . S
Mg252 O262 2.251 . S
Mg252 O265 2.010 . S
O253 Mg252 2.028 . S
O253 C256 1.250 . S
O254 Mg255 2.028 . S
O254 C256 1.248 . S
Mg255 O254 2.028 . S
Mg255 O260 2.032 . S
Mg255 O262 2.079 . S
C256 O253 1.250 . S
C256 O254 1.248 . S
C257 O258 1.264 . S
C257 O265 1.249 . S
O258 C257 1.264 . S
O259 Mg252 1.986 . S
O259 C263 1.246 . S
O260 Mg255 2.032 . S
O260 C263 1.259 . S
O261 Mg252 2.114 . S
O261 C264 1.252 . S
O262 Mg252 2.251 . S
O262 Mg255 2.079 . S
O262 C264 1.273 . S
C263 O259 1.246 . S
C263 O260 1.259 . S
C264 O261 1.252 . S
C264 O262 1.273 . S
O265 Mg252 2.010 . S
O265 C257 1.249 . S
Mg266 O267 2.028 . S
Mg266 O273 1.986 . S
Mg266 O275 2.114 . S
Mg266 O276 2.251 . S
Mg266 O279 2.010 . S
O267 Mg266 2.028 . S
O267 C270 1.250 . S
O268 Mg269 2.028 . S
O268 C270 1.248 . S
Mg269 O268 2.028 . S
Mg269 O274 2.032 . S
Mg269 O276 2.079 . S
C270 O267 1.250 . S
C270 O268 1.248 . S
C271 O272 1.264 . S
C271 O279 1.249 . S
O272 C271 1.264 . S
O273 Mg266 1.986 . S
O273 C277 1.246 . S
O274 Mg269 2.032 . S
O274 C277 1.259 . S
O275 Mg266 2.114 . S
O275 C278 1.252 . S
O276 Mg266 2.251 . S
O276 Mg269 2.079 . S
O276 C278 1.273 . S
C277 O273 1.246 . S
C277 O274 1.259 . S
C278 O275 1.252 . S
C278 O276 1.273 . S
O279 Mg266 2.010 . S
O279 C271 1.249 . S
Mg280 O281 2.028 . S
Mg280 O287 1.986 . S
Mg280 O289 2.114 . S
Mg280 O290 2.251 . S
Mg280 O293 2.010 . S
O281 Mg280 2.028 . S
O281 C284 1.250 . S
O282 Mg283 2.028 . S
O282 C284 1.248 . S
Mg283 O282 2.028 . S
Mg283 O288 2.032 . S
Mg283 O290 2.079 . S
C284 O281 1.250 . S
C284 O282 1.248 . S
C285 O286 1.264 . S
C285 O293 1.249 . S
O286 C285 1.264 . S
O287 Mg280 1.986 . S
O287 C291 1.246 . S
O288 Mg283 2.032 . S
O288 C291 1.259 . S
O289 Mg280 2.114 . S
O289 C292 1.252 . S
O290 Mg280 2.251 . S
O290 Mg283 2.079 . S
O290 C292 1.273 . S
C291 O287 1.246 . S
C291 O288 1.259 . S
C292 O289 1.252 . S
C292 O290 1.273 . S
O293 Mg280 2.010 . S
O293 C285 1.249 . S
Mg294 O295 2.028 . S
Mg294 O301 1.986 . S
Mg294 O303 2.114 . S
Mg294 O304 2.251 . S
Mg294 O307 2.010 . S
O295 Mg294 2.028 . S
O295 C298 1.250 . S
O296 Mg297 2.028 . S
O296 C298 1.248 . S
Mg297 O296 2.028 . S
Mg297 O302 2.032 . S
Mg297 O304 2.079 . S
C298 O295 1.250 . S
C298 O296 1.248 . S
C299 O300 1.264 . S
C299 O307 1.249 . S
O300 C299 1.264 . S
O301 Mg294 1.986 . S
O301 C305 1.246 . S
O302 Mg297 2.032 . S
O302 C305 1.259 . S
O303 Mg294 2.114 . S
O303 C306 1.252 . S
O304 Mg294 2.251 . S
O304 Mg297 2.079 . S
O304 C306 1.273 . S
C305 O301 1.246 . S
C305 O302 1.259 . S
C306 O303 1.252 . S
C306 O304 1.273 . S
O307 Mg294 2.010 . S
O307 C299 1.249 . S
Mg308 O309 2.028 . S
Mg308 O315 1.986 . S
Mg308 O317 2.114 . S
Mg308 O318 2.251 . S
Mg308 O321 2.010 . S
O309 Mg308 2.028 . S
O309 C312 1.250 . S
O310 Mg311 2.028 . S
O310 C312 1.248 . S
Mg311 O310 2.028 . S
Mg311 O316 2.032 . S
Mg311 O318 2.079 . S
C312 O309 1.250 . S
C312 O310 1.248 . S
C313 O314 1.264 . S
C313 O321 1.249 . S
O314 C313 1.264 . S
O315 Mg308 1.986 . S
O315 C319 1.246 . S
O316 Mg311 2.032 . S
O316 C319 1.259 . S
O317 Mg308 2.114 . S
O317 C320 1.252 . S
O318 Mg308 2.251 . S
O318 Mg311 2.079 . S
O318 C320 1.273 . S
C319 O315 1.246 . S
C319 O316 1.259 . S
C320 O317 1.252 . S
C320 O318 1.273 . S
O321 Mg308 2.010 . S
O321 C313 1.249 . S
Mg322 O323 2.028 . S
Mg322 O329 1.986 . S
Mg322 O331 2.114 . S
Mg322 O332 2.251 . S
Mg322 O335 2.010 . S
O323 Mg322 2.028 . S
O323 C326 1.250 . S
O324 Mg325 2.028 . S
O324 C326 1.248 . S
Mg325 O324 2.028 . S
Mg325 O330 2.032 . S
Mg325 O332 2.079 . S
C326 O323 1.250 . S
C326 O324 1.248 . S
C327 O328 1.264 . S
C327 O335 1.249 . S
O328 C327 1.264 . S
O329 Mg322 1.986 . S
O329 C333 1.246 . S
O330 Mg325 2.032 . S
O330 C333 1.259 . S
O331 Mg322 2.114 . S
O331 C334 1.252 . S
O332 Mg322 2.251 . S
O332 Mg325 2.079 . S
O332 C334 1.273 . S
C333 O329 1.246 . S
C333 O330 1.259 . S
C334 O331 1.252 . S
C334 O332 1.273 . S
O335 Mg322 2.010 . S
O335 C327 1.249 . S
Mg336 O337 2.028 . S
Mg336 O343 1.986 . S
Mg336 O345 2.114 . S
Mg336 O346 2.251 . S
Mg336 O349 2.010 . S
O337 Mg336 2.028 . S
O337 C340 1.250 . S
O338 Mg339 2.028 . S
O338 C340 1.248 . S
Mg339 O338 2.028 . S
Mg339 O344 2.032 . S
Mg339 O346 2.079 . S
C340 O337 1.250 . S
C340 O338 1.248 . S
C341 O342 1.264 . S
C341 O349 1.249 . S
O342 C341 1.264 . S
O343 Mg336 1.986 . S
O343 C347 1.246 . S
O344 Mg339 2.032 . S
O344 C347 1.259 . S
O345 Mg336 2.114 . S
O345 C348 1.252 . S
O346 Mg336 2.251 . S
O346 Mg339 2.079 . S
O346 C348 1.273 . S
C347 O343 1.246 . S
C347 O344 1.259 . S
C348 O345 1.252 . S
C348 O346 1.273 . S
O349 Mg336 2.010 . S
O349 C341 1.249 . S
Mg350 O351 2.028 . S
Mg350 O357 1.986 . S
Mg350 O359 2.114 . S
Mg350 O360 2.251 . S
Mg350 O363 2.010 . S
O351 Mg350 2.028 . S
O351 C354 1.250 . S
O352 Mg353 2.028 . S
O352 C354 1.248 . S
Mg353 O352 2.028 . S
Mg353 O358 2.032 . S
Mg353 O360 2.079 . S
C354 O351 1.250 . S
C354 O352 1.248 . S
C355 O356 1.264 . S
C355 O363 1.249 . S
O356 C355 1.264 . S
O357 Mg350 1.986 . S
O357 C361 1.246 . S
O358 Mg353 2.032 . S
O358 C361 1.259 . S
O359 Mg350 2.114 . S
O359 C362 1.252 . S
O360 Mg350 2.251 . S
O360 Mg353 2.079 . S
O360 C362 1.273 . S
C361 O357 1.246 . S
C361 O358 1.259 . S
C362 O359 1.252 . S
C362 O360 1.273 . S
O363 Mg350 2.010 . S
O363 C355 1.249 . S
Mg364 O365 2.028 . S
Mg364 O371 1.986 . S
Mg364 O373 2.114 . S
Mg364 O374 2.251 . S
Mg364 O377 2.010 . S
O365 Mg364 2.028 . S
O365 C368 1.250 . S
O366 Mg367 2.028 . S
O366 C368 1.248 . S
Mg367 O366 2.028 . S
Mg367 O372 2.032 . S
Mg367 O374 2.079 . S
C368 O365 1.250 . S
C368 O366 1.248 . S
C369 O370 1.264 . S
C369 O377 1.249 . S
O370 C369 1.264 . S
O371 Mg364 1.986 . S
O371 C375 1.246 . S
O372 Mg367 2.032 . S
O372 C375 1.259 . S
O373 Mg364 2.114 . S
O373 C376 1.252 . S
O374 Mg364 2.251 . S
O374 Mg367 2.079 . S
O374 C376 1.273 . S
C375 O371 1.246 . S
C375 O372 1.259 . S
C376 O373 1.252 . S
C376 O374 1.273 . S
O377 Mg364 2.010 . S
O377 C369 1.249 . S
Mg378 O379 2.028 . S
Mg378 O385 1.986 . S
Mg378 O387 2.114 . S
Mg378 O388 2.251 . S
Mg378 O391 2.010 . S
O379 Mg378 2.028 . S
O379 C382 1.250 . S
O380 Mg381 2.028 . S
O380 C382 1.248 . S
Mg381 O380 2.028 . S
Mg381 O386 2.032 . S
Mg381 O388 2.079 . S
C382 O379 1.250 . S
C382 O380 1.248 . S
C383 O384 1.264 . S
C383 O391 1.249 . S
O384 C383 1.264 . S
O385 Mg378 1.986 . S
O385 C389 1.246 . S
O386 Mg381 2.032 . S
O386 C389 1.259 . S
O387 Mg378 2.114 . S
O387 C390 1.252 . S
O388 Mg378 2.251 . S
O388 Mg381 2.079 . S
O388 C390 1.273 . S
C389 O385 1.246 . S
C389 O386 1.259 . S
C390 O387 1.252 . S
C390 O388 1.273 . S
O391 Mg378 2.010 . S
O391 C383 1.249 . S
Mg392 O393 2.028 . S
Mg392 O399 1.986 . S
Mg392 O401 2.114 . S
Mg392 O402 2.251 . S
Mg392 O405 2.010 . S
O393 Mg392 2.028 . S
O393 C396 1.250 . S
O394 Mg395 2.028 . S
O394 C396 1.248 . S
Mg395 O394 2.028 . S
Mg395 O400 2.032 . S
Mg395 O402 2.079 . S
C396 O393 1.250 . S
C396 O394 1.248 . S
C397 O398 1.264 . S
C397 O405 1.249 . S
O398 C397 1.264 . S
O399 Mg392 1.986 . S
O399 C403 1.246 . S
O400 Mg395 2.032 . S
O400 C403 1.259 . S
O401 Mg392 2.114 . S
O401 C404 1.252 . S
O402 Mg392 2.251 . S
O402 Mg395 2.079 . S
O402 C404 1.273 . S
C403 O399 1.246 . S
C403 O400 1.259 . S
C404 O401 1.252 . S
C404 O402 1.273 . S
O405 Mg392 2.010 . S
O405 C397 1.249 . S
Mg406 O407 2.028 . S
Mg406 O413 1.986 . S
Mg406 O415 2.114 . S
Mg406 O416 2.251 . S
Mg406 O419 2.010 . S
O407 Mg406 2.028 . S
O407 C410 1.250 . S
O408 Mg409 2.028 . S
O408 C410 1.248 . S
Mg409 O408 2.028 . S
Mg409 O414 2.032 . S
Mg409 O416 2.079 . S
C410 O407 1.250 . S
C410 O408 1.248 . S
C411 O412 1.264 . S
C411 O419 1.249 . S
O412 C411 1.264 . S
O413 Mg406 1.986 . S
O413 C417 1.246 . S
O414 Mg409 2.032 . S
O414 C417 1.259 . S
O415 Mg406 2.114 . S
O415 C418 1.252 . S
O416 Mg406 2.251 . S
O416 Mg409 2.079 . S
O416 C418 1.273 . S
C417 O413 1.246 . S
C417 O414 1.259 . S
C418 O415 1.252 . S
C418 O416 1.273 . S
O419 Mg406 2.010 . S
O419 C411 1.249 . S
Mg420 O421 2.028 . S
Mg420 O427 1.986 . S
Mg420 O429 2.114 . S
Mg420 O430 2.251 . S
Mg420 O433 2.010 . S
O421 Mg420 2.028 . S
O421 C424 1.250 . S
O422 Mg423 2.028 . S
O422 C424 1.248 . S
Mg423 O422 2.028 . S
Mg423 O428 2.032 . S
Mg423 O430 2.079 . S
C424 O421 1.250 . S
C424 O422 1.248 . S
C425 O426 1.264 . S
C425 O433 1.249 . S
O426 C425 1.264 . S
O427 Mg420 1.986 . S
O427 C431 1.246 . S
O428 Mg423 2.032 . S
O428 C431 1.259 . S
O429 Mg420 2.114 . S
O429 C432 1.252 . S
O430 Mg420 2.251 . S
O430 Mg423 2.079 . S
O430 C432 1.273 . S
C431 O427 1.246 . S
C431 O428 1.259 . S
C432 O429 1.252 . S
C432 O430 1.273 . S
O433 Mg420 2.010 . S
O433 C425 1.249 . S
Mg434 O435 2.028 . S
Mg434 O441 1.986 . S
Mg434 O443 2.114 . S
Mg434 O444 2.251 . S
Mg434 O447 2.010 . S
O435 Mg434 2.028 . S
O435 C438 1.250 . S
O436 Mg437 2.028 . S
O436 C438 1.248 . S
Mg437 O436 2.028 . S
Mg437 O442 2.032 . S
Mg437 O444 2.079 . S
C438 O435 1.250 . S
C438 O436 1.248 . S
C439 O440 1.264 . S
C439 O447 1.249 . S
O440 C439 1.264 . S
O441 Mg434 1.986 . S
O441 C445 1.246 . S
O442 Mg437 2.032 . S
O442 C445 1.259 . S
O443 Mg434 2.114 . S
O443 C446 1.252 . S
O444 Mg434 2.251 . S
O444 Mg437 2.079 . S
O444 C446 1.273 . S
C445 O441 1.246 . S
C445 O442 1.259 . S
C446 O443 1.252 . S
C446 O444 1.273 . S
O447 Mg434 2.010 . S
O447 C439 1.249 . S
Mg448 O449 2.028 . S
Mg448 O455 1.986 . S
Mg448 O457 2.114 . S
Mg448 O458 2.251 . S
Mg448 O461 2.010 . S
O449 Mg448 2.028 . S
O449 C452 1.250 . S
O450 Mg451 2.028 . S
O450 C452 1.248 . S
Mg451 O450 2.028 . S
Mg451 O456 2.032 . S
Mg451 O458 2.079 . S
C452 O449 1.250 . S
C452 O450 1.248 . S
C453 O454 1.264 . S
C453 O461 1.249 . S
O454 C453 1.264 . S
O455 Mg448 1.986 . S
O455 C459 1.246 . S
O456 Mg451 2.032 . S
O456 C459 1.259 . S
O457 Mg448 2.114 . S
O457 C460 1.252 . S
O458 Mg448 2.251 . S
O458 Mg451 2.079 . S
O458 C460 1.273 . S
C459 O455 1.246 . S
C459 O456 1.259 . S
C460 O457 1.252 . S
C460 O458 1.273 . S
O461 Mg448 2.010 . S
O461 C453 1.249 . S
Mg462 O463 2.028 . S
Mg462 O469 1.986 . S
Mg462 O471 2.114 . S
Mg462 O472 2.251 . S
Mg462 O475 2.010 . S
O463 Mg462 2.028 . S
O463 C466 1.250 . S
O464 Mg465 2.028 . S
O464 C466 1.248 . S
Mg465 O464 2.028 . S
Mg465 O470 2.032 . S
Mg465 O472 2.079 . S
C466 O463 1.250 . S
C466 O464 1.248 . S
C467 O468 1.264 . S
C467 O475 1.249 . S
O468 C467 1.264 . S
O469 Mg462 1.986 . S
O469 C473 1.246 . S
O470 Mg465 2.032 . S
O470 C473 1.259 . S
O471 Mg462 2.114 . S
O471 C474 1.252 . S
O472 Mg462 2.251 . S
O472 Mg465 2.079 . S
O472 C474 1.273 . S
C473 O469 1.246 . S
C473 O470 1.259 . S
C474 O471 1.252 . S
C474 O472 1.273 . S
O475 Mg462 2.010 . S
O475 C467 1.249 . S
Mg476 O477 2.028 . S
Mg476 O483 1.986 . S
Mg476 O485 2.114 . S
Mg476 O486 2.251 . S
Mg476 O489 2.010 . S
O477 Mg476 2.028 . S
O477 C480 1.250 . S
O478 Mg479 2.028 . S
O478 C480 1.248 . S
Mg479 O478 2.028 . S
Mg479 O484 2.032 . S
Mg479 O486 2.079 . S
C480 O477 1.250 . S
C480 O478 1.248 . S
C481 O482 1.264 . S
C481 O489 1.249 . S
O482 C481 1.264 . S
O483 Mg476 1.986 . S
O483 C487 1.246 . S
O484 Mg479 2.032 . S
O484 C487 1.259 . S
O485 Mg476 2.114 . S
O485 C488 1.252 . S
O486 Mg476 2.251 . S
O486 Mg479 2.079 . S
O486 C488 1.273 . S
C487 O483 1.246 . S
C487 O484 1.259 . S
C488 O485 1.252 . S
C488 O486 1.273 . S
O489 Mg476 2.010 . S
O489 C481 1.249 . S
Mg490 O491 2.028 . S
Mg490 O497 1.986 . S
Mg490 O499 2.114 . S
Mg490 O500 2.251 . S
Mg490 O503 2.010 . S
O491 Mg490 2.028 . S
O491 C494 1.250 . S
O492 Mg493 2.028 . S
O492 C494 1.248 . S
Mg493 O492 2.028 . S
Mg493 O498 2.032 . S
Mg493 O500 2.079 . S
C494 O491 1.250 . S
C494 O492 1.248 . S
C495 O496 1.264 . S
C495 O503 1.249 . S
O496 C495 1.264 . S
O497 Mg490 1.986 . S
O497 C501 1.246 . S
O498 Mg493 2.032 . S
O498 C501 1.259 . S
O499 Mg490 2.114 . S
O499 C502 1.252 . S
O500 Mg490 2.251 . S
O500 Mg493 2.079 . S
O500 C502 1.273 . S
C501 O497 1.246 . S
C501 O498 1.259 . S
C502 O499 1.252 . S
C502 O500 1.273 . S
O503 Mg490 2.010 . S
O503 C495 1.249 . S
H504 C512 0.950 . S
H505 C517 0.950 . S
H506 C514 0.950 . S
H507 C516 0.950 . S
H508 C518 0.950 . S
H509 C520 0.950 . S
H510 C522 0.950 . S
H511 C523 0.950 1_554 S
C512 H504 0.950 . S
C512 C513 1.386 . S
C512 C514 1.391 . S
C513 C512 1.386 . S
C513 C517 1.393 . S
C514 H506 0.950 . S
C514 C512 1.391 . S
C514 C515 1.400 . S
C515 C514 1.400 . S
C515 C516 1.398 . S
C515 C521 1.491 . S
C516 H507 0.950 . S
C516 C515 1.398 . S
C516 C517 1.391 . S
C517 H505 0.950 . S
C517 C513 1.393 . S
C517 C516 1.391 . S
C518 H508 0.950 . S
C518 C519 1.386 . S
C518 C520 1.391 . S
C519 C518 1.386 . S
C519 C523 1.393 . S
C520 H509 0.950 . S
C520 C518 1.391 . S
C520 C521 1.400 . S
C521 C515 1.491 . S
C521 C520 1.400 . S
C521 C522 1.398 . S
C522 H510 0.950 . S
C522 C521 1.398 . S
C522 C523 1.391 . S
C523 H511 0.950 1_556 S
C523 C519 1.393 . S
C523 C522 1.391 . S
H524 C532 0.950 . S
H525 C537 0.950 . S
H526 C534 0.950 . S
H527 C536 0.950 . S
H528 C538 0.950 . S
H529 C540 0.950 . S
H530 C542 0.950 . S
H531 C543 0.950 . S
C532 H524 0.950 . S
C532 C533 1.386 . S
C532 C534 1.391 . S
C533 C532 1.386 . S
C533 C537 1.393 . S
C534 H526 0.950 . S
C534 C532 1.391 . S
C534 C535 1.400 . S
C535 C534 1.400 . S
C535 C536 1.398 . S
C535 C541 1.491 . S
C536 H527 0.950 . S
C536 C535 1.398 . S
C536 C537 1.391 . S
C537 H525 0.950 . S
C537 C533 1.393 . S
C537 C536 1.391 . S
C538 H528 0.950 . S
C538 C539 1.386 . S
C538 C540 1.391 . S
C539 C538 1.386 . S
C539 C543 1.393 . S
C540 H529 0.950 . S
C540 C538 1.391 . S
C540 C541 1.400 . S
C541 C535 1.491 . S
C541 C540 1.400 . S
C541 C542 1.398 . S
C542 H530 0.950 . S
C542 C541 1.398 . S
C542 C543 1.391 . S
C543 H531 0.950 . S
C543 C539 1.393 . S
C543 C542 1.391 . S
H544 C552 0.950 . S
H545 C557 0.950 . S
H546 C554 0.950 . S
H547 C556 0.950 . S
H548 C558 0.950 . S
H549 C560 0.950 . S
H550 C562 0.950 . S
H551 C563 0.950 . S
C552 H544 0.950 . S
C552 C553 1.386 . S
C552 C554 1.391 . S
C553 C552 1.386 . S
C553 C557 1.393 . S
C554 H546 0.950 . S
C554 C552 1.391 . S
C554 C555 1.400 . S
C555 C554 1.400 . S
C555 C556 1.398 . S
C555 C561 1.491 . S
C556 H547 0.950 . S
C556 C555 1.398 . S
C556 C557 1.391 . S
C557 H545 0.950 . S
C557 C553 1.393 . S
C557 C556 1.391 . S
C558 H548 0.950 . S
C558 C559 1.386 . S
C558 C560 1.391 . S
C559 C558 1.386 . S
C559 C563 1.393 . S
C560 H549 0.950 . S
C560 C558 1.391 . S
C560 C561 1.400 . S
C561 C555 1.491 . S
C561 C560 1.400 . S
C561 C562 1.398 . S
C562 H550 0.950 . S
C562 C561 1.398 . S
C562 C563 1.391 . S
C563 H551 0.950 . S
C563 C559 1.393 . S
C563 C562 1.391 . S
H564 C572 0.950 . S
H565 C577 0.950 . S
H566 C574 0.950 . S
H567 C576 0.950 . S
H568 C578 0.950 . S
H569 C580 0.950 . S
H570 C582 0.950 . S
H571 C583 0.950 . S
C572 H564 0.950 . S
C572 C573 1.386 . S
C572 C574 1.391 . S
C573 C572 1.386 . S
C573 C577 1.393 . S
C574 H566 0.950 . S
C574 C572 1.391 . S
C574 C575 1.400 . S
C575 C574 1.400 . S
C575 C576 1.398 . S
C575 C581 1.491 . S
C576 H567 0.950 . S
C576 C575 1.398 . S
C576 C577 1.391 . S
C577 H565 0.950 . S
C577 C573 1.393 . S
C577 C576 1.391 . S
C578 H568 0.950 . S
C578 C579 1.386 . S
C578 C580 1.391 . S
C579 C578 1.386 . S
C579 C583 1.393 . S
C580 H569 0.950 . S
C580 C578 1.391 . S
C580 C581 1.400 . S
C581 C575 1.491 . S
C581 C580 1.400 . S
C581 C582 1.398 . S
C582 H570 0.950 . S
C582 C581 1.398 . S
C582 C583 1.391 . S
C583 H571 0.950 . S
C583 C579 1.393 . S
C583 C582 1.391 . S
H584 C592 0.950 . S
H585 C597 0.950 . S
H586 C594 0.950 . S
H587 C596 0.950 . S
H588 C598 0.950 . S
H589 C600 0.950 . S
H590 C602 0.950 . S
H591 C603 0.950 . S
C592 H584 0.950 . S
C592 C593 1.386 . S
C592 C594 1.391 . S
C593 C592 1.386 . S
C593 C597 1.393 . S
C594 H586 0.950 . S
C594 C592 1.391 . S
C594 C595 1.400 . S
C595 C594 1.400 . S
C595 C596 1.398 . S
C595 C601 1.491 . S
C596 H587 0.950 . S
C596 C595 1.398 . S
C596 C597 1.391 . S
C597 H585 0.950 . S
C597 C593 1.393 . S
C597 C596 1.391 . S
C598 H588 0.950 . S
C598 C599 1.386 . S
C598 C600 1.391 . S
C599 C598 1.386 . S
C599 C603 1.393 . S
C600 H589 0.950 . S
C600 C598 1.391 . S
C600 C601 1.400 . S
C601 C595 1.491 . S
C601 C600 1.400 . S
C601 C602 1.398 . S
C602 H590 0.950 . S
C602 C601 1.398 . S
C602 C603 1.391 . S
C603 H591 0.950 . S
C603 C599 1.393 . S
C603 C602 1.391 . S
H604 C612 0.950 . S
H605 C617 0.950 . S
H606 C614 0.950 . S
H607 C616 0.950 . S
H608 C618 0.950 . S
H609 C620 0.950 . S
H610 C622 0.950 . S
H611 C623 0.950 . S
C612 H604 0.950 . S
C612 C613 1.386 . S
C612 C614 1.391 . S
C613 C612 1.386 . S
C613 C617 1.393 . S
C614 H606 0.950 . S
C614 C612 1.391 . S
C614 C615 1.400 . S
C615 C614 1.400 . S
C615 C616 1.398 . S
C615 C621 1.491 . S
C616 H607 0.950 . S
C616 C615 1.398 . S
C616 C617 1.391 . S
C617 H605 0.950 . S
C617 C613 1.393 . S
C617 C616 1.391 . S
C618 H608 0.950 . S
C618 C619 1.386 . S
C618 C620 1.391 . S
C619 C618 1.386 . S
C619 C623 1.393 . S
C620 H609 0.950 . S
C620 C618 1.391 . S
C620 C621 1.400 . S
C621 C615 1.491 . S
C621 C620 1.400 . S
C621 C622 1.398 . S
C622 H610 0.950 . S
C622 C621 1.398 . S
C622 C623 1.391 . S
C623 H611 0.950 . S
C623 C619 1.393 . S
C623 C622 1.391 . S
H624 C632 0.950 . S
H625 C637 0.950 . S
H626 C634 0.950 . S
H627 C636 0.950 . S
H628 C638 0.950 . S
H629 C640 0.950 . S
H630 C642 0.950 . S
H631 C643 0.950 1_556 S
C632 H624 0.950 . S
C632 C633 1.386 . S
C632 C634 1.391 . S
C633 C632 1.386 . S
C633 C637 1.393 . S
C634 H626 0.950 . S
C634 C632 1.391 . S
C634 C635 1.400 . S
C635 C634 1.400 . S
C635 C636 1.398 . S
C635 C641 1.491 . S
C636 H627 0.950 . S
C636 C635 1.398 . S
C636 C637 1.391 . S
C637 H625 0.950 . S
C637 C633 1.393 . S
C637 C636 1.391 . S
C638 H628 0.950 . S
C638 C639 1.386 . S
C638 C640 1.391 . S
C639 C638 1.386 . S
C639 C643 1.393 . S
C640 H629 0.950 . S
C640 C638 1.391 . S
C640 C641 1.400 . S
C641 C635 1.491 . S
C641 C640 1.400 . S
C641 C642 1.398 . S
C642 H630 0.950 . S
C642 C641 1.398 . S
C642 C643 1.391 . S
C643 H631 0.950 1_554 S
C643 C639 1.393 . S
C643 C642 1.391 . S
H644 C652 0.950 . S
H645 C657 0.950 . S
H646 C654 0.950 . S
H647 C656 0.950 . S
H648 C658 0.950 . S
H649 C660 0.950 . S
H650 C662 0.950 . S
H651 C663 0.950 1_556 S
C652 H644 0.950 . S
C652 C653 1.386 . S
C652 C654 1.391 . S
C653 C652 1.386 . S
C653 C657 1.393 . S
C654 H646 0.950 . S
C654 C652 1.391 . S
C654 C655 1.400 . S
C655 C654 1.400 . S
C655 C656 1.398 . S
C655 C661 1.491 . S
C656 H647 0.950 . S
C656 C655 1.398 . S
C656 C657 1.391 . S
C657 H645 0.950 . S
C657 C653 1.393 . S
C657 C656 1.391 . S
C658 H648 0.950 . S
C658 C659 1.386 . S
C658 C660 1.391 . S
C659 C658 1.386 . S
C659 C663 1.393 . S
C660 H649 0.950 . S
C660 C658 1.391 . S
C660 C661 1.400 . S
C661 C655 1.491 . S
C661 C660 1.400 . S
C661 C662 1.398 . S
C662 H650 0.950 . S
C662 C661 1.398 . S
C662 C663 1.391 . S
C663 H651 0.950 1_554 S
C663 C659 1.393 . S
C663 C662 1.391 . S
H664 C672 0.950 . S
H665 C677 0.950 . S
H666 C674 0.950 . S
H667 C676 0.950 . S
H668 C678 0.950 1_556 S
H669 C680 0.950 . S
H670 C682 0.950 . S
H671 C683 0.950 . S
C672 H664 0.950 . S
C672 C673 1.386 . S
C672 C674 1.391 . S
C673 C672 1.386 . S
C673 C677 1.393 . S
C674 H666 0.950 . S
C674 C672 1.391 . S
C674 C675 1.400 . S
C675 C674 1.400 . S
C675 C676 1.398 . S
C675 C681 1.491 . S
C676 H667 0.950 . S
C676 C675 1.398 . S
C676 C677 1.391 . S
C677 H665 0.950 . S
C677 C673 1.393 . S
C677 C676 1.391 . S
C678 H668 0.950 1_554 S
C678 C679 1.386 . S
C678 C680 1.391 . S
C679 C678 1.386 . S
C679 C683 1.393 . S
C680 H669 0.950 . S
C680 C678 1.391 . S
C680 C681 1.400 . S
C681 C675 1.491 . S
C681 C680 1.400 . S
C681 C682 1.398 . S
C682 H670 0.950 . S
C682 C681 1.398 . S
C682 C683 1.391 . S
C683 H671 0.950 . S
C683 C679 1.393 . S
C683 C682 1.391 . S
H684 C692 0.950 . S
H685 C697 0.950 . S
H686 C694 0.950 . S
H687 C696 0.950 . S
H688 C698 0.950 . S
H689 C700 0.950 . S
H690 C702 0.950 . S
H691 C703 0.950 . S
C692 H684 0.950 . S
C692 C693 1.386 . S
C692 C694 1.391 . S
C693 C692 1.386 . S
C693 C697 1.393 . S
C694 H686 0.950 . S
C694 C692 1.391 . S
C694 C695 1.400 . S
C695 C694 1.400 . S
C695 C696 1.398 . S
C695 C701 1.491 . S
C696 H687 0.950 . S
C696 C695 1.398 . S
C696 C697 1.391 . S
C697 H685 0.950 . S
C697 C693 1.393 . S
C697 C696 1.391 . S
C698 H688 0.950 . S
C698 C699 1.386 . S
C698 C700 1.391 . S
C699 C698 1.386 . S
C699 C703 1.393 . S
C700 H689 0.950 . S
C700 C698 1.391 . S
C700 C701 1.400 . S
C701 C695 1.491 . S
C701 C700 1.400 . S
C701 C702 1.398 . S
C702 H690 0.950 . S
C702 C701 1.398 . S
C702 C703 1.391 . S
C703 H691 0.950 . S
C703 C699 1.393 . S
C703 C702 1.391 . S
H704 C712 0.950 . S
H705 C717 0.950 . S
H706 C714 0.950 . S
H707 C716 0.950 . S
H708 C718 0.950 . S
H709 C720 0.950 . S
H710 C722 0.950 . S
H711 C723 0.950 . S
C712 H704 0.950 . S
C712 C713 1.386 . S
C712 C714 1.391 . S
C713 C712 1.386 . S
C713 C717 1.393 . S
C714 H706 0.950 . S
C714 C712 1.391 . S
C714 C715 1.400 . S
C715 C714 1.400 . S
C715 C716 1.398 . S
C715 C721 1.491 . S
C716 H707 0.950 . S
C716 C715 1.398 . S
C716 C717 1.391 . S
C717 H705 0.950 . S
C717 C713 1.393 . S
C717 C716 1.391 . S
C718 H708 0.950 . S
C718 C719 1.386 . S
C718 C720 1.391 . S
C719 C718 1.386 . S
C719 C723 1.393 . S
C720 H709 0.950 . S
C720 C718 1.391 . S
C720 C721 1.400 . S
C721 C715 1.491 . S
C721 C720 1.400 . S
C721 C722 1.398 . S
C722 H710 0.950 . S
C722 C721 1.398 . S
C722 C723 1.391 . S
C723 H711 0.950 . S
C723 C719 1.393 . S
C723 C722 1.391 . S
H724 C732 0.950 . S
H725 C737 0.950 . S
H726 C734 0.950 . S
H727 C736 0.950 . S
H728 C738 0.950 . S
H729 C740 0.950 . S
H730 C742 0.950 . S
H731 C743 0.950 . S
C732 H724 0.950 . S
C732 C733 1.386 . S
C732 C734 1.391 . S
C733 C732 1.386 . S
C733 C737 1.393 . S
C734 H726 0.950 . S
C734 C732 1.391 . S
C734 C735 1.400 . S
C735 C734 1.400 . S
C735 C736 1.398 . S
C735 C741 1.491 . S
C736 H727 0.950 . S
C736 C735 1.398 . S
C736 C737 1.391 . S
C737 H725 0.950 . S
C737 C733 1.393 . S
C737 C736 1.391 . S
C738 H728 0.950 . S
C738 C739 1.386 . S
C738 C740 1.391 . S
C739 C738 1.386 . S
C739 C743 1.393 . S
C740 H729 0.950 . S
C740 C738 1.391 . S
C740 C741 1.400 . S
C741 C735 1.491 . S
C741 C740 1.400 . S
C741 C742 1.398 . S
C742 H730 0.950 . S
C742 C741 1.398 . S
C742 C743 1.391 . S
C743 H731 0.950 . S
C743 C739 1.393 . S
C743 C742 1.391 . S
H744 C752 0.950 . S
H745 C757 0.950 . S
H746 C754 0.950 . S
H747 C756 0.950 1_655 S
H748 C758 0.950 . S
H749 C760 0.950 . S
H750 C762 0.997 . S
H751 C763 0.950 . S
C752 H744 0.950 . S
C752 C753 1.386 . S
C752 C754 1.391 . S
C753 C752 1.386 . S
C753 C757 1.393 . S
C754 H746 0.950 . S
C754 C752 1.391 . S
C754 C755 1.400 . S
C755 C754 1.400 . S
C755 C756 1.398 . S
C755 C761 1.491 1_455 S
C756 H747 0.950 1_455 S
C756 C755 1.398 . S
C756 C757 1.391 . S
C757 H745 0.950 . S
C757 C753 1.393 . S
C757 C756 1.391 . S
C758 H748 0.950 . S
C758 C759 1.386 . S
C758 C760 1.391 . S
C759 C758 1.386 . S
C759 C763 1.393 . S
C760 H749 0.950 . S
C760 C758 1.391 . S
C760 C761 1.400 . S
C761 C755 1.491 1_655 S
C761 C760 1.400 . S
C761 C762 1.390 1_655 S
C762 H750 0.997 . S
C762 C761 1.390 1_455 S
C762 C763 1.355 1_455 S
C763 H751 0.950 . S
C763 C759 1.393 . S
C763 C762 1.355 1_655 S
H764 C772 0.950 . S
H765 C777 0.950 . S
H766 C774 0.950 . S
H767 C776 0.950 . S
H768 C778 0.950 . S
H769 C780 0.950 . S
H770 C782 0.950 . S
H771 C783 0.950 . S
C772 H764 0.950 . S
C772 C773 1.386 . S
C772 C774 1.391 . S
C773 C772 1.386 . S
C773 C777 1.393 . S
C774 H766 0.950 . S
C774 C772 1.391 . S
C774 C775 1.400 . S
C775 C774 1.400 . S
C775 C776 1.398 . S
C775 C781 1.491 . S
C776 H767 0.950 . S
C776 C775 1.398 . S
C776 C777 1.391 . S
C777 H765 0.950 . S
C777 C773 1.393 . S
C777 C776 1.391 . S
C778 H768 0.950 . S
C778 C779 1.386 . S
C778 C780 1.391 . S
C779 C778 1.386 . S
C779 C783 1.393 . S
C780 H769 0.950 . S
C780 C778 1.391 . S
C780 C781 1.400 . S
C781 C775 1.491 . S
C781 C780 1.400 . S
C781 C782 1.398 . S
C782 H770 0.950 . S
C782 C781 1.398 . S
C782 C783 1.391 . S
C783 H771 0.950 . S
C783 C779 1.393 . S
C783 C782 1.391 . S
H784 C792 0.950 . S
H785 C797 0.950 . S
H786 C794 0.950 . S
H787 C796 0.960 . S
H788 C798 0.950 . S
H789 C800 0.950 . S
H790 C802 0.950 . S
H791 C803 0.950 . S
C792 H784 0.950 . S
C792 C793 1.386 . S
C792 C794 1.391 . S
C793 C792 1.386 . S
C793 C797 1.393 . S
C794 H786 0.950 . S
C794 C792 1.391 . S
C794 C795 1.400 . S
C795 C794 1.400 . S
C795 C796 1.395 1_565 S
C795 C801 1.491 1_565 S
C796 H787 0.960 . S
C796 C795 1.395 1_545 S
C796 C797 1.384 1_545 S
C797 H785 0.950 . S
C797 C793 1.393 . S
C797 C796 1.384 1_565 S
C798 H788 0.950 . S
C798 C799 1.386 . S
C798 C800 1.391 . S
C799 C798 1.386 . S
C799 C803 1.393 . S
C800 H789 0.950 . S
C800 C798 1.391 . S
C800 C801 1.400 . S
C801 C795 1.491 1_545 S
C801 C800 1.400 . S
C801 C802 1.398 . S
C802 H790 0.950 . S
C802 C801 1.398 . S
C802 C803 1.391 . S
C803 H791 0.950 . S
C803 C799 1.393 . S
C803 C802 1.391 . S
H804 C812 0.950 . S
H805 C817 0.950 . S
H806 C814 0.950 1_545 S
H807 C816 0.950 . S
H808 C818 0.950 . S
H809 C820 0.950 . S
H810 C822 0.950 . S
H811 C823 0.950 . S
C812 H804 0.950 . S
C812 C813 1.386 . S
C812 C814 1.391 . S
C813 C812 1.386 . S
C813 C817 1.393 . S
C814 H806 0.950 1_565 S
C814 C812 1.391 . S
C814 C815 1.400 . S
C815 C814 1.400 . S
C815 C816 1.398 . S
C815 C821 1.491 1_565 S
C816 H807 0.950 . S
C816 C815 1.398 . S
C816 C817 1.391 . S
C817 H805 0.950 . S
C817 C813 1.393 . S
C817 C816 1.391 . S
C818 H808 0.950 . S
C818 C819 1.386 . S
C818 C820 1.391 . S
C819 C818 1.386 . S
C819 C823 1.393 . S
C820 H809 0.950 . S
C820 C818 1.391 . S
C820 C821 1.400 . S
C821 C815 1.491 1_545 S
C821 C820 1.400 . S
C821 C822 1.398 . S
C822 H810 0.950 . S
C822 C821 1.398 . S
C822 C823 1.391 . S
C823 H811 0.950 . S
C823 C819 1.393 . S
C823 C822 1.391 . S
H824 C832 0.950 . S
H825 C837 0.950 . S
H826 C834 0.950 . S
H827 C836 0.950 . S
H828 C838 0.950 . S
H829 C840 0.948 1_455 S
H830 C842 0.950 . S
H831 C843 0.950 . S
C832 H824 0.950 . S
C832 C833 1.386 . S
C832 C834 1.391 . S
C833 C832 1.386 . S
C833 C837 1.393 . S
C834 H826 0.950 . S
C834 C832 1.391 . S
C834 C835 1.400 . S
C835 C834 1.400 . S
C835 C836 1.398 . S
C835 C841 1.491 1_455 S
C836 H827 0.950 . S
C836 C835 1.398 . S
C836 C837 1.391 . S
C837 H825 0.950 . S
C837 C833 1.393 . S
C837 C836 1.391 . S
C838 H828 0.950 . S
C838 C839 1.386 . S
C838 C840 1.391 . S
C839 C838 1.386 . S
C839 C843 1.393 . S
C840 H829 0.948 1_655 S
C840 C838 1.391 . S
C840 C841 1.400 . S
C841 C835 1.491 1_655 S
C841 C840 1.400 . S
C841 C842 1.398 . S
C842 H830 0.950 . S
C842 C841 1.398 . S
C842 C843 1.391 . S
C843 H831 0.950 . S
C843 C839 1.393 . S
C843 C842 1.391 . S
H844 C852 0.950 . S
H845 C857 0.950 . S
H846 C854 0.950 . S
H847 C856 0.950 . S
H848 C858 0.950 . S
H849 C860 0.950 . S
H850 C862 0.950 . S
H851 C863 0.950 . S
C852 H844 0.950 . S
C852 C853 1.386 . S
C852 C854 1.391 . S
C853 C852 1.386 . S
C853 C857 1.393 . S
C854 H846 0.950 . S
C854 C852 1.391 . S
C854 C855 1.400 . S
C855 C854 1.400 . S
C855 C856 1.398 . S
C855 C861 1.491 . S
C856 H847 0.950 . S
C856 C855 1.398 . S
C856 C857 1.391 . S
C857 H845 0.950 . S
C857 C853 1.393 . S
C857 C856 1.391 . S
C858 H848 0.950 . S
C858 C859 1.386 . S
C858 C860 1.391 . S
C859 C858 1.386 . S
C859 C863 1.393 . S
C860 H849 0.950 . S
C860 C858 1.391 . S
C860 C861 1.400 . S
C861 C855 1.491 . S
C861 C860 1.400 . S
C861 C862 1.398 . S
C862 H850 0.950 . S
C862 C861 1.398 . S
C862 C863 1.391 . S
C863 H851 0.950 . S
C863 C859 1.393 . S
C863 C862 1.391 . S
H864 C872 0.950 . S
H865 C877 0.950 . S
H866 C874 0.950 . S
H867 C876 0.947 1_556 S
H868 C878 0.950 . S
H869 C880 0.950 . S
H870 C882 0.950 . S
H871 C883 0.950 . S
C872 H864 0.950 . S
C872 C873 1.386 1_554 S
C872 C874 1.391 . S
C873 C872 1.386 1_556 S
C873 C877 1.393 . S
C874 H866 0.950 . S
C874 C872 1.391 . S
C874 C875 1.400 . S
C875 C874 1.400 . S
C875 C876 1.406 . S
C875 C881 1.491 . S
C876 H867 0.947 1_554 S
C876 C875 1.406 . S
C876 C877 1.386 1_554 S
C877 H865 0.950 . S
C877 C873 1.393 . S
C877 C876 1.386 1_556 S
C878 H868 0.950 . S
C878 C879 1.386 . S
C878 C880 1.391 . S
C879 C878 1.386 . S
C879 C883 1.393 . S
C880 H869 0.950 . S
C880 C878 1.391 . S
C880 C881 1.400 . S
C881 C875 1.491 . S
C881 C880 1.400 . S
C881 C882 1.398 . S
C882 H870 0.950 . S
C882 C881 1.398 . S
C882 C883 1.391 . S
C883 H871 0.950 . S
C883 C879 1.393 . S
C883 C882 1.391 . S
H884 C892 0.950 . S
H885 C897 0.950 . S
H886 C894 0.950 . S
H887 C896 0.950 . S
H888 C898 0.950 . S
H889 C900 0.950 . S
H890 C902 0.950 . S
H891 C903 0.950 . S
C892 H884 0.950 . S
C892 C893 1.386 1_554 S
C892 C894 1.391 . S
C893 C892 1.386 1_556 S
C893 C897 1.393 . S
C894 H886 0.950 . S
C894 C892 1.391 . S
C894 C895 1.400 . S
C895 C894 1.400 . S
C895 C896 1.398 1_554 S
C895 C901 1.491 . S
C896 H887 0.950 . S
C896 C895 1.398 1_556 S
C896 C897 1.391 . S
C897 H885 0.950 . S
C897 C893 1.393 . S
C897 C896 1.391 . S
C898 H888 0.950 . S
C898 C899 1.386 1_556 S
C898 C900 1.391 . S
C899 C898 1.386 1_554 S
C899 C903 1.393 . S
C900 H889 0.950 . S
C900 C898 1.391 . S
C900 C901 1.400 1_556 S
C901 C895 1.491 . S
C901 C900 1.400 1_554 S
C901 C902 1.398 . S
C902 H890 0.950 . S
C902 C901 1.398 . S
C902 C903 1.391 . S
C903 H891 0.950 . S
C903 C899 1.393 . S
C903 C902 1.391 . S
H904 C912 0.950 . S
H905 C917 0.950 . S
H906 C914 0.950 . S
H907 C916 0.950 . S
H908 C918 0.950 . S
H909 C920 0.950 . S
H910 C922 0.950 . S
H911 C923 0.950 . S
C912 H904 0.950 . S
C912 C913 1.386 1_554 S
C912 C914 1.391 . S
C913 C912 1.386 1_556 S
C913 C917 1.393 . S
C914 H906 0.950 . S
C914 C912 1.391 . S
C914 C915 1.400 . S
C915 C914 1.400 . S
C915 C916 1.398 1_554 S
C915 C921 1.491 . S
C916 H907 0.950 . S
C916 C915 1.398 1_556 S
C916 C917 1.391 . S
C917 H905 0.950 . S
C917 C913 1.393 . S
C917 C916 1.391 . S
C918 H908 0.950 . S
C918 C919 1.386 1_556 S
C918 C920 1.391 . S
C919 C918 1.386 1_554 S
C919 C923 1.393 . S
C920 H909 0.950 . S
C920 C918 1.391 . S
C920 C921 1.400 1_556 S
C921 C915 1.491 . S
C921 C920 1.400 1_554 S
C921 C922 1.398 . S
C922 H910 0.950 . S
C922 C921 1.398 . S
C922 C923 1.391 . S
C923 H911 0.950 . S
C923 C919 1.393 . S
C923 C922 1.391 . S
H924 C932 0.950 . S
H925 C937 0.950 . S
H926 C934 0.950 . S
H927 C936 0.950 . S
H928 C938 0.950 . S
H929 C940 0.950 . S
H930 C942 0.950 . S
H931 C943 0.950 . S
C932 H924 0.950 . S
C932 C933 1.386 . S
C932 C934 1.391 . S
C933 C932 1.386 . S
C933 C937 1.393 . S
C934 H926 0.950 . S
C934 C932 1.391 . S
C934 C935 1.400 . S
C935 C934 1.400 . S
C935 C936 1.398 . S
C935 C941 1.491 . S
C936 H927 0.950 . S
C936 C935 1.398 . S
C936 C937 1.391 . S
C937 H925 0.950 . S
C937 C933 1.393 . S
C937 C936 1.391 . S
C938 H928 0.950 . S
C938 C939 1.386 . S
C938 C940 1.391 . S
C939 C938 1.386 . S
C939 C943 1.393 . S
C940 H929 0.950 . S
C940 C938 1.391 . S
C940 C941 1.400 . S
C941 C935 1.491 . S
C941 C940 1.400 . S
C941 C942 1.398 . S
C942 H930 0.950 . S
C942 C941 1.398 . S
C942 C943 1.391 . S
C943 H931 0.950 . S
C943 C939 1.393 . S
C943 C942 1.391 . S
H944 C952 0.950 . S
H945 C957 0.950 . S
H946 C954 0.950 . S
H947 C956 0.950 . S
H948 C958 0.950 . S
H949 C960 0.950 . S
H950 C962 0.950 . S
H951 C963 0.950 . S
C952 H944 0.950 . S
C952 C953 1.386 . S
C952 C954 1.391 . S
C953 C952 1.386 . S
C953 C957 1.393 . S
C954 H946 0.950 . S
C954 C952 1.391 . S
C954 C955 1.400 . S
C955 C954 1.400 . S
C955 C956 1.398 . S
C955 C961 1.491 . S
C956 H947 0.950 . S
C956 C955 1.398 . S
C956 C957 1.391 . S
C957 H945 0.950 . S
C957 C953 1.393 . S
C957 C956 1.391 . S
C958 H948 0.950 . S
C958 C959 1.386 . S
C958 C960 1.391 . S
C959 C958 1.386 . S
C959 C963 1.393 . S
C960 H949 0.950 . S
C960 C958 1.391 . S
C960 C961 1.400 . S
C961 C955 1.491 . S
C961 C960 1.400 . S
C961 C962 1.398 . S
C962 H950 0.950 . S
C962 C961 1.398 . S
C962 C963 1.391 . S
C963 H951 0.950 . S
C963 C959 1.393 . S
C963 C962 1.391 . S
H964 C972 0.950 . S
H965 C977 0.950 . S
H966 C974 0.950 . S
H967 C976 0.950 . S
H968 C978 0.950 . S
H969 C980 0.950 . S
H970 C982 0.950 . S
H971 C983 0.950 . S
C972 H964 0.950 . S
C972 C973 1.386 . S
C972 C974 1.391 . S
C973 C972 1.386 . S
C973 C977 1.393 . S
C974 H966 0.950 . S
C974 C972 1.391 . S
C974 C975 1.400 . S
C975 C974 1.400 . S
C975 C976 1.398 . S
C975 C981 1.491 . S
C976 H967 0.950 . S
C976 C975 1.398 . S
C976 C977 1.391 . S
C977 H965 0.950 . S
C977 C973 1.393 . S
C977 C976 1.391 . S
C978 H968 0.950 . S
C978 C979 1.386 . S
C978 C980 1.391 . S
C979 C978 1.386 . S
C979 C983 1.393 . S
C980 H969 0.950 . S
C980 C978 1.391 . S
C980 C981 1.400 . S
C981 C975 1.491 . S
C981 C980 1.400 . S
C981 C982 1.398 . S
C982 H970 0.950 . S
C982 C981 1.398 . S
C982 C983 1.391 . S
C983 H971 0.950 . S
C983 C979 1.393 . S
C983 C982 1.391 . S
H984 C992 0.950 . S
H985 C997 0.950 . S
H986 C994 0.950 . S
H987 C996 0.950 . S
H988 C998 0.950 . S
H989 C1000 0.950 . S
H990 C1002 0.950 . S
H991 C1003 0.950 . S
C992 H984 0.950 . S
C992 C993 1.386 1_556 S
C992 C994 1.391 . S
C993 C992 1.386 1_554 S
C993 C997 1.393 . S
C994 H986 0.950 . S
C994 C992 1.391 . S
C994 C995 1.388 1_556 S
C995 C994 1.388 1_554 S
C995 C996 1.414 . S
C995 C1001 1.488 1_554 S
C996 H987 0.950 . S
C996 C995 1.414 . S
C996 C997 1.391 . S
C997 H985 0.950 . S
C997 C993 1.393 . S
C997 C996 1.391 . S
C998 H988 0.950 . S
C998 C999 1.386 1_554 S
C998 C1000 1.391 . S
C999 C998 1.386 1_556 S
C999 C1003 1.393 . S
C1000 H989 0.950 . S
C1000 C998 1.391 . S
C1000 C1001 1.400 1_554 S
C1001 C995 1.488 1_556 S
C1001 C1000 1.400 1_556 S
C1001 C1002 1.398 . S
C1002 H990 0.950 . S
C1002 C1001 1.398 . S
C1002 C1003 1.391 . S
C1003 H991 0.950 . S
C1003 C999 1.393 . S
C1003 C1002 1.391 . S
H1004 C1012 0.950 . S
H1005 C1017 0.950 . S
H1006 C1014 0.950 . S
H1007 C1016 0.950 . S
H1008 C1018 0.950 . S
H1009 C1020 0.950 . S
H1010 C1022 0.950 . S
H1011 C1023 0.950 . S
C1012 H1004 0.950 . S
C1012 C1013 1.386 . S
C1012 C1014 1.391 . S
C1013 C1012 1.386 . S
C1013 C1017 1.393 1_556 S
C1014 H1006 0.950 . S
C1014 C1012 1.391 . S
C1014 C1015 1.400 . S
C1015 C1014 1.400 . S
C1015 C1016 1.398 1_556 S
C1015 C1021 1.491 1_556 S
C1016 H1007 0.950 . S
C1016 C1015 1.398 1_554 S
C1016 C1017 1.391 . S
C1017 H1005 0.950 . S
C1017 C1013 1.393 1_554 S
C1017 C1016 1.391 . S
C1018 H1008 0.950 . S
C1018 C1019 1.386 . S
C1018 C1020 1.391 . S
C1019 C1018 1.386 . S
C1019 C1023 1.393 1_554 S
C1020 H1009 0.950 . S
C1020 C1018 1.391 . S
C1020 C1021 1.400 . S
C1021 C1015 1.491 1_554 S
C1021 C1020 1.400 . S
C1021 C1022 1.398 1_554 S
C1022 H1010 0.950 . S
C1022 C1021 1.398 1_556 S
C1022 C1023 1.391 . S
C1023 H1011 0.950 . S
C1023 C1019 1.393 1_556 S
C1023 C1022 1.391 . S
H1024 C1032 0.950 . S
H1025 C1037 0.950 . S
H1026 C1034 0.950 . S
H1027 C1036 0.950 . S
H1028 C1038 0.950 . S
H1029 C1040 0.950 . S
H1030 C1042 0.950 . S
H1031 C1043 0.950 . S
C1032 H1024 0.950 . S
C1032 C1033 1.386 . S
C1032 C1034 1.391 . S
C1033 C1032 1.386 . S
C1033 C1037 1.393 1_554 S
C1034 H1026 0.950 . S
C1034 C1032 1.391 . S
C1034 C1035 1.400 . S
C1035 C1034 1.400 . S
C1035 C1036 1.398 1_554 S
C1035 C1041 1.491 . S
C1036 H1027 0.950 . S
C1036 C1035 1.398 1_556 S
C1036 C1037 1.391 . S
C1037 H1025 0.950 . S
C1037 C1033 1.393 1_556 S
C1037 C1036 1.391 . S
C1038 H1028 0.950 . S
C1038 C1039 1.386 . S
C1038 C1040 1.391 . S
C1039 C1038 1.386 . S
C1039 C1043 1.393 1_556 S
C1040 H1029 0.950 . S
C1040 C1038 1.391 . S
C1040 C1041 1.400 1_556 S
C1041 C1035 1.491 . S
C1041 C1040 1.400 1_554 S
C1041 C1042 1.398 . S
C1042 H1030 0.950 . S
C1042 C1041 1.398 . S
C1042 C1043 1.391 . S
C1043 H1031 0.950 . S
C1043 C1039 1.393 1_554 S
C1043 C1042 1.391 . S
H1044 C1052 0.950 . S
H1045 C1057 0.950 . S
H1046 C1054 0.950 . S
H1047 C1056 0.950 . S
H1048 C1058 0.950 . S
H1049 C1060 0.950 . S
H1050 C1062 0.950 . S
H1051 C1063 0.950 . S
C1052 H1044 0.950 . S
C1052 C1053 1.386 . S
C1052 C1054 1.391 . S
C1053 C1052 1.386 . S
C1053 C1057 1.393 . S
C1054 H1046 0.950 . S
C1054 C1052 1.391 . S
C1054 C1055 1.400 . S
C1055 C1054 1.400 . S
C1055 C1056 1.398 . S
C1055 C1061 1.491 . S
C1056 H1047 0.950 . S
C1056 C1055 1.398 . S
C1056 C1057 1.391 . S
C1057 H1045 0.950 . S
C1057 C1053 1.393 . S
C1057 C1056 1.391 . S
C1058 H1048 0.950 . S
C1058 C1059 1.386 . S
C1058 C1060 1.391 . S
C1059 C1058 1.386 . S
C1059 C1063 1.393 . S
C1060 H1049 0.950 . S
C1060 C1058 1.391 . S
C1060 C1061 1.400 . S
C1061 C1055 1.491 . S
C1061 C1060 1.400 . S
C1061 C1062 1.398 . S
C1062 H1050 0.950 . S
C1062 C1061 1.398 . S
C1062 C1063 1.391 . S
C1063 H1051 0.950 . S
C1063 C1059 1.393 . S
C1063 C1062 1.391 . S
H1064 C1072 0.950 . S
H1065 C1077 0.950 . S
H1066 C1074 0.950 . S
H1067 C1076 0.950 . S
H1068 C1078 0.950 . S
H1069 C1080 0.950 . S
H1070 C1082 0.950 . S
H1071 C1083 0.950 . S
C1072 H1064 0.950 . S
C1072 C1073 1.386 . S
C1072 C1074 1.391 . S
C1073 C1072 1.386 . S
C1073 C1077 1.393 . S
C1074 H1066 0.950 . S
C1074 C1072 1.391 . S
C1074 C1075 1.400 . S
C1075 C1074 1.400 . S
C1075 C1076 1.398 . S
C1075 C1081 1.491 . S
C1076 H1067 0.950 . S
C1076 C1075 1.398 . S
C1076 C1077 1.391 . S
C1077 H1065 0.950 . S
C1077 C1073 1.393 . S
C1077 C1076 1.391 . S
C1078 H1068 0.950 . S
C1078 C1079 1.386 . S
C1078 C1080 1.391 . S
C1079 C1078 1.386 . S
C1079 C1083 1.393 . S
C1080 H1069 0.950 . S
C1080 C1078 1.391 . S
C1080 C1081 1.400 . S
C1081 C1075 1.491 . S
C1081 C1080 1.400 . S
C1081 C1082 1.398 . S
C1082 H1070 0.950 . S
C1082 C1081 1.398 . S
C1082 C1083 1.391 . S
C1083 H1071 0.950 . S
C1083 C1079 1.393 . S
C1083 C1082 1.391 . S
H1084 C1092 0.950 . S
H1085 C1097 0.950 . S
H1086 C1094 0.950 . S
H1087 C1096 0.950 . S
H1088 C1098 0.950 . S
H1089 C1100 0.950 . S
H1090 C1102 0.950 . S
H1091 C1103 0.950 . S
C1092 H1084 0.950 . S
C1092 C1093 1.386 . S
C1092 C1094 1.391 . S
C1093 C1092 1.386 . S
C1093 C1097 1.393 . S
C1094 H1086 0.950 . S
C1094 C1092 1.391 . S
C1094 C1095 1.400 . S
C1095 C1094 1.400 . S
C1095 C1096 1.398 . S
C1095 C1101 1.491 . S
C1096 H1087 0.950 . S
C1096 C1095 1.398 . S
C1096 C1097 1.391 . S
C1097 H1085 0.950 . S
C1097 C1093 1.393 . S
C1097 C1096 1.391 . S
C1098 H1088 0.950 . S
C1098 C1099 1.386 . S
C1098 C1100 1.391 . S
C1099 C1098 1.386 . S
C1099 C1103 1.393 . S
C1100 H1089 0.950 . S
C1100 C1098 1.391 . S
C1100 C1101 1.400 . S
C1101 C1095 1.491 . S
C1101 C1100 1.400 . S
C1101 C1102 1.398 . S
C1102 H1090 0.950 . S
C1102 C1101 1.398 . S
C1102 C1103 1.391 . S
C1103 H1091 0.950 . S
C1103 C1099 1.393 . S
C1103 C1102 1.391 . S
H1104 C1112 0.950 . S
H1105 C1117 0.950 . S
H1106 C1114 0.950 . S
H1107 C1116 0.950 . S
H1108 C1118 0.950 . S
H1109 C1120 0.950 . S
H1110 C1122 0.950 . S
H1111 C1123 0.950 . S
C1112 H1104 0.950 . S
C1112 C1113 1.386 . S
C1112 C1114 1.391 . S
C1113 C1112 1.386 . S
C1113 C1117 1.393 . S
C1114 H1106 0.950 . S
C1114 C1112 1.391 . S
C1114 C1115 1.400 . S
C1115 C1114 1.400 . S
C1115 C1116 1.398 . S
C1115 C1121 1.491 . S
C1116 H1107 0.950 . S
C1116 C1115 1.398 . S
C1116 C1117 1.391 . S
C1117 H1105 0.950 . S
C1117 C1113 1.393 . S
C1117 C1116 1.391 . S
C1118 H1108 0.950 . S
C1118 C1119 1.386 . S
C1118 C1120 1.391 . S
C1119 C1118 1.386 . S
C1119 C1123 1.393 . S
C1120 H1109 0.950 . S
C1120 C1118 1.391 . S
C1120 C1121 1.400 . S
C1121 C1115 1.491 . S
C1121 C1120 1.400 . S
C1121 C1122 1.398 . S
C1122 H1110 0.950 . S
C1122 C1121 1.398 . S
C1122 C1123 1.391 . S
C1123 H1111 0.950 . S
C1123 C1119 1.393 . S
C1123 C1122 1.391 . S
H1124 C1132 0.950 . S
H1125 C1137 0.950 . S
H1126 C1134 0.950 . S
H1127 C1136 0.950 . S
H1128 C1138 0.950 . S
H1129 C1140 0.950 . S
H1130 C1142 0.950 . S
H1131 C1143 0.950 . S
C1132 H1124 0.950 . S
C1132 C1133 1.386 . S
C1132 C1134 1.391 . S
C1133 C1132 1.386 . S
C1133 C1137 1.393 . S
C1134 H1126 0.950 . S
C1134 C1132 1.391 . S
C1134 C1135 1.400 . S
C1135 C1134 1.400 . S
C1135 C1136 1.398 . S
C1135 C1141 1.491 . S
C1136 H1127 0.950 . S
C1136 C1135 1.398 . S
C1136 C1137 1.391 . S
C1137 H1125 0.950 . S
C1137 C1133 1.393 . S
C1137 C1136 1.391 . S
C1138 H1128 0.950 . S
C1138 C1139 1.386 . S
C1138 C1140 1.391 . S
C1139 C1138 1.386 . S
C1139 C1143 1.393 . S
C1140 H1129 0.950 . S
C1140 C1138 1.391 . S
C1140 C1141 1.400 . S
C1141 C1135 1.491 . S
C1141 C1140 1.400 . S
C1141 C1142 1.398 . S
C1142 H1130 0.950 . S
C1142 C1141 1.398 . S
C1142 C1143 1.391 . S
C1143 H1131 0.950 . S
C1143 C1139 1.393 . S
C1143 C1142 1.391 . S
H1144 C1152 0.950 . S
H1145 C1157 0.950 . S
H1146 C1154 0.950 . S
H1147 C1156 0.950 . S
H1148 C1158 0.950 . S
H1149 C1160 0.950 . S
H1150 C1162 0.950 . S
H1151 C1163 0.950 . S
C1152 H1144 0.950 . S
C1152 C1153 1.386 . S
C1152 C1154 1.391 . S
C1153 C1152 1.386 . S
C1153 C1157 1.393 . S
C1154 H1146 0.950 . S
C1154 C1152 1.391 . S
C1154 C1155 1.400 . S
C1155 C1154 1.400 . S
C1155 C1156 1.398 . S
C1155 C1161 1.491 . S
C1156 H1147 0.950 . S
C1156 C1155 1.398 . S
C1156 C1157 1.391 . S
C1157 H1145 0.950 . S
C1157 C1153 1.393 . S
C1157 C1156 1.391 . S
C1158 H1148 0.950 . S
C1158 C1159 1.386 . S
C1158 C1160 1.391 . S
C1159 C1158 1.386 . S
C1159 C1163 1.393 . S
C1160 H1149 0.950 . S
C1160 C1158 1.391 . S
C1160 C1161 1.400 . S
C1161 C1155 1.491 . S
C1161 C1160 1.400 . S
C1161 C1162 1.398 . S
C1162 H1150 0.950 . S
C1162 C1161 1.398 . S
C1162 C1163 1.391 . S
C1163 H1151 0.950 . S
C1163 C1159 1.393 . S
C1163 C1162 1.391 . S
H1164 C1172 0.950 . S
H1165 C1177 0.950 . S
H1166 C1174 0.950 . S
H1167 C1176 0.950 . S
H1168 C1178 0.950 . S
H1169 C1180 0.950 . S
H1170 C1182 0.950 . S
H1171 C1183 0.950 . S
C1172 H1164 0.950 . S
C1172 C1173 1.386 . S
C1172 C1174 1.391 . S
C1173 C1172 1.386 . S
C1173 C1177 1.393 . S
C1174 H1166 0.950 . S
C1174 C1172 1.391 . S
C1174 C1175 1.400 . S
C1175 C1174 1.400 . S
C1175 C1176 1.398 . S
C1175 C1181 1.491 . S
C1176 H1167 0.950 . S
C1176 C1175 1.398 . S
C1176 C1177 1.391 . S
C1177 H1165 0.950 . S
C1177 C1173 1.393 . S
C1177 C1176 1.391 . S
C1178 H1168 0.950 . S
C1178 C1179 1.386 . S
C1178 C1180 1.391 . S
C1179 C1178 1.386 . S
C1179 C1183 1.393 . S
C1180 H1169 0.950 . S
C1180 C1178 1.391 . S
C1180 C1181 1.400 . S
C1181 C1175 1.491 . S
C1181 C1180 1.400 . S
C1181 C1182 1.398 . S
C1182 H1170 0.950 . S
C1182 C1181 1.398 . S
C1182 C1183 1.391 . S
C1183 H1171 0.950 . S
C1183 C1179 1.393 . S
C1183 C1182 1.391 . S
H1184 C1192 0.950 . S
H1185 C1197 0.950 . S
H1186 C1194 0.950 . S
H1187 C1196 0.950 . S
H1188 C1198 0.950 . S
H1189 C1200 0.950 . S
H1190 C1202 0.950 . S
H1191 C1203 0.950 . S
C1192 H1184 0.950 . S
C1192 C1193 1.386 . S
C1192 C1194 1.391 . S
C1193 C1192 1.386 . S
C1193 C1197 1.393 . S
C1194 H1186 0.950 . S
C1194 C1192 1.391 . S
C1194 C1195 1.400 . S
C1195 C1194 1.400 . S
C1195 C1196 1.398 . S
C1195 C1201 1.491 . S
C1196 H1187 0.950 . S
C1196 C1195 1.398 . S
C1196 C1197 1.391 . S
C1197 H1185 0.950 . S
C1197 C1193 1.393 . S
C1197 C1196 1.391 . S
C1198 H1188 0.950 . S
C1198 C1199 1.386 . S
C1198 C1200 1.391 . S
C1199 C1198 1.386 . S
C1199 C1203 1.393 . S
C1200 H1189 0.950 . S
C1200 C1198 1.391 . S
C1200 C1201 1.400 . S
C1201 C1195 1.491 . S
C1201 C1200 1.400 . S
C1201 C1202 1.398 . S
C1202 H1190 0.950 . S
C1202 C1201 1.398 . S
C1202 C1203 1.391 . S
C1203 H1191 0.950 . S
C1203 C1199 1.393 . S
C1203 C1202 1.391 . S
H1204 C1212 0.950 . S
H1205 C1217 0.950 . S
H1206 C1214 0.950 . S
H1207 C1216 0.950 . S
H1208 C1218 0.950 . S
H1209 C1220 0.950 . S
H1210 C1222 0.950 . S
H1211 C1223 0.950 . S
C1212 H1204 0.950 . S
C1212 C1213 1.386 . S
C1212 C1214 1.391 . S
C1213 C1212 1.386 . S
C1213 C1217 1.393 . S
C1214 H1206 0.950 . S
C1214 C1212 1.391 . S
C1214 C1215 1.400 . S
C1215 C1214 1.400 . S
C1215 C1216 1.398 . S
C1215 C1221 1.491 . S
C1216 H1207 0.950 . S
C1216 C1215 1.398 . S
C1216 C1217 1.391 . S
C1217 H1205 0.950 . S
C1217 C1213 1.393 . S
C1217 C1216 1.391 . S
C1218 H1208 0.950 . S
C1218 C1219 1.386 . S
C1218 C1220 1.391 . S
C1219 C1218 1.386 . S
C1219 C1223 1.393 . S
C1220 H1209 0.950 . S
C1220 C1218 1.391 . S
C1220 C1221 1.400 . S
C1221 C1215 1.491 . S
C1221 C1220 1.400 . S
C1221 C1222 1.398 . S
C1222 H1210 0.950 . S
C1222 C1221 1.398 . S
C1222 C1223 1.391 . S
C1223 H1211 0.950 . S
C1223 C1219 1.393 . S
C1223 C1222 1.391 . S
H1224 C1232 0.950 . S
H1225 C1237 0.950 . S
H1226 C1234 0.950 . S
H1227 C1236 0.950 . S
H1228 C1238 0.950 . S
H1229 C1240 0.950 . S
H1230 C1242 0.950 . S
H1231 C1243 0.950 . S
C1232 H1224 0.950 . S
C1232 C1233 1.386 . S
C1232 C1234 1.391 . S
C1233 C1232 1.386 . S
C1233 C1237 1.393 . S
C1234 H1226 0.950 . S
C1234 C1232 1.391 . S
C1234 C1235 1.400 . S
C1235 C1234 1.400 . S
C1235 C1236 1.398 . S
C1235 C1241 1.491 . S
C1236 H1227 0.950 . S
C1236 C1235 1.398 . S
C1236 C1237 1.391 . S
C1237 H1225 0.950 . S
C1237 C1233 1.393 . S
C1237 C1236 1.391 . S
C1238 H1228 0.950 . S
C1238 C1239 1.386 . S
C1238 C1240 1.391 . S
C1239 C1238 1.386 . S
C1239 C1243 1.393 . S
C1240 H1229 0.950 . S
C1240 C1238 1.391 . S
C1240 C1241 1.400 . S
C1241 C1235 1.491 . S
C1241 C1240 1.400 . S
C1241 C1242 1.398 . S
C1242 H1230 0.950 . S
C1242 C1241 1.398 . S
C1242 C1243 1.391 . S
C1243 H1231 0.950 . S
C1243 C1239 1.393 . S
C1243 C1242 1.391 . S
H1244 C1252 0.950 . S
H1245 C1257 0.950 . S
H1246 C1254 0.950 . S
H1247 C1256 0.950 . S
H1248 C1258 0.950 . S
H1249 C1260 0.950 . S
H1250 C1262 0.950 . S
H1251 C1263 0.950 . S
C1252 H1244 0.950 . S
C1252 C1253 1.386 . S
C1252 C1254 1.391 . S
C1253 C1252 1.386 . S
C1253 C1257 1.393 . S
C1254 H1246 0.950 . S
C1254 C1252 1.391 . S
C1254 C1255 1.400 . S
C1255 C1254 1.400 . S
C1255 C1256 1.398 . S
C1255 C1261 1.491 . S
C1256 H1247 0.950 . S
C1256 C1255 1.398 . S
C1256 C1257 1.391 . S
C1257 H1245 0.950 . S
C1257 C1253 1.393 . S
C1257 C1256 1.391 . S
C1258 H1248 0.950 . S
C1258 C1259 1.386 . S
C1258 C1260 1.391 . S
C1259 C1258 1.386 . S
C1259 C1263 1.393 . S
C1260 H1249 0.950 . S
C1260 C1258 1.391 . S
C1260 C1261 1.400 . S
C1261 C1255 1.491 . S
C1261 C1260 1.400 . S
C1261 C1262 1.398 . S
C1262 H1250 0.950 . S
C1262 C1261 1.398 . S
C1262 C1263 1.391 . S
C1263 H1251 0.950 . S
C1263 C1259 1.393 . S
C1263 C1262 1.391 . S
H1264 C1272 0.950 . S
H1265 C1277 0.950 . S
H1266 C1274 0.950 . S
H1267 C1276 0.950 . S
H1268 C1278 0.950 . S
H1269 C1280 0.950 . S
H1270 C1282 0.950 . S
H1271 C1283 0.950 . S
C1272 H1264 0.950 . S
C1272 C1273 1.386 . S
C1272 C1274 1.391 . S
C1273 C1272 1.386 . S
C1273 C1277 1.393 . S
C1274 H1266 0.950 . S
C1274 C1272 1.391 . S
C1274 C1275 1.400 . S
C1275 C1274 1.400 . S
C1275 C1276 1.398 . S
C1275 C1281 1.491 . S
C1276 H1267 0.950 . S
C1276 C1275 1.398 . S
C1276 C1277 1.391 . S
C1277 H1265 0.950 . S
C1277 C1273 1.393 . S
C1277 C1276 1.391 . S
C1278 H1268 0.950 . S
C1278 C1279 1.386 . S
C1278 C1280 1.391 . S
C1279 C1278 1.386 . S
C1279 C1283 1.393 . S
C1280 H1269 0.950 . S
C1280 C1278 1.391 . S
C1280 C1281 1.400 . S
C1281 C1275 1.491 . S
C1281 C1280 1.400 . S
C1281 C1282 1.398 . S
C1282 H1270 0.950 . S
C1282 C1281 1.398 . S
C1282 C1283 1.391 . S
C1283 H1271 0.950 . S
C1283 C1279 1.393 . S
C1283 C1282 1.391 . S
H1284 C1292 0.950 . S
H1285 C1297 0.950 . S
H1286 C1294 0.950 . S
H1287 C1296 0.950 . S
H1288 C1298 0.950 . S
H1289 C1300 0.950 . S
H1290 C1302 0.950 . S
H1291 C1303 0.950 . S
C1292 H1284 0.950 . S
C1292 C1293 1.386 . S
C1292 C1294 1.391 . S
C1293 C1292 1.386 . S
C1293 C1297 1.393 . S
C1294 H1286 0.950 . S
C1294 C1292 1.391 . S
C1294 C1295 1.400 . S
C1295 C1294 1.400 . S
C1295 C1296 1.398 . S
C1295 C1301 1.491 . S
C1296 H1287 0.950 . S
C1296 C1295 1.398 . S
C1296 C1297 1.391 . S
C1297 H1285 0.950 . S
C1297 C1293 1.393 . S
C1297 C1296 1.391 . S
C1298 H1288 0.950 . S
C1298 C1299 1.386 . S
C1298 C1300 1.391 . S
C1299 C1298 1.386 . S
C1299 C1303 1.393 . S
C1300 H1289 0.950 . S
C1300 C1298 1.391 . S
C1300 C1301 1.400 . S
C1301 C1295 1.491 . S
C1301 C1300 1.400 . S
C1301 C1302 1.398 . S
C1302 H1290 0.950 . S
C1302 C1301 1.398 . S
C1302 C1303 1.391 . S
C1303 H1291 0.950 . S
C1303 C1299 1.393 . S
C1303 C1302 1.391 . S
H1304 C1312 0.950 . S
H1305 C1317 0.950 . S
H1306 C1314 0.950 . S
H1307 C1316 0.950 . S
H1308 C1318 0.950 . S
H1309 C1320 0.950 . S
H1310 C1322 0.950 . S
H1311 C1323 0.950 . S
C1312 H1304 0.950 . S
C1312 C1313 1.386 . S
C1312 C1314 1.391 . S
C1313 C1312 1.386 . S
C1313 C1317 1.393 . S
C1314 H1306 0.950 . S
C1314 C1312 1.391 . S
C1314 C1315 1.400 . S
C1315 C1314 1.400 . S
C1315 C1316 1.398 . S
C1315 C1321 1.491 . S
C1316 H1307 0.950 . S
C1316 C1315 1.398 . S
C1316 C1317 1.391 . S
C1317 H1305 0.950 . S
C1317 C1313 1.393 . S
C1317 C1316 1.391 . S
C1318 H1308 0.950 . S
C1318 C1319 1.386 . S
C1318 C1320 1.391 . S
C1319 C1318 1.386 . S
C1319 C1323 1.393 . S
C1320 H1309 0.950 . S
C1320 C1318 1.391 . S
C1320 C1321 1.400 . S
C1321 C1315 1.491 . S
C1321 C1320 1.400 . S
C1321 C1322 1.398 . S
C1322 H1310 0.950 . S
C1322 C1321 1.398 . S
C1322 C1323 1.391 . S
C1323 H1311 0.950 . S
C1323 C1319 1.393 . S
C1323 C1322 1.391 . S
H1324 C1332 0.950 . S
H1325 C1337 0.950 . S
H1326 C1334 0.950 . S
H1327 C1336 0.950 . S
H1328 C1338 0.950 . S
H1329 C1340 0.950 . S
H1330 C1342 0.950 . S
H1331 C1343 0.950 . S
C1332 H1324 0.950 . S
C1332 C1333 1.386 . S
C1332 C1334 1.391 . S
C1333 C1332 1.386 . S
C1333 C1337 1.393 . S
C1334 H1326 0.950 . S
C1334 C1332 1.391 . S
C1334 C1335 1.400 . S
C1335 C1334 1.400 . S
C1335 C1336 1.398 . S
C1335 C1341 1.491 . S
C1336 H1327 0.950 . S
C1336 C1335 1.398 . S
C1336 C1337 1.391 . S
C1337 H1325 0.950 . S
C1337 C1333 1.393 . S
C1337 C1336 1.391 . S
C1338 H1328 0.950 . S
C1338 C1339 1.386 . S
C1338 C1340 1.391 . S
C1339 C1338 1.386 . S
C1339 C1343 1.393 . S
C1340 H1329 0.950 . S
C1340 C1338 1.391 . S
C1340 C1341 1.400 . S
C1341 C1335 1.491 . S
C1341 C1340 1.400 . S
C1341 C1342 1.398 . S
C1342 H1330 0.950 . S
C1342 C1341 1.398 . S
C1342 C1343 1.391 . S
C1343 H1331 0.950 . S
C1343 C1339 1.393 . S
C1343 C1342 1.391 . S
H1344 C1352 0.950 . S
H1345 C1357 0.950 . S
H1346 C1354 0.950 . S
H1347 C1356 0.950 . S
H1348 C1358 0.950 . S
H1349 C1360 0.950 . S
H1350 C1362 0.950 . S
H1351 C1363 0.950 . S
C1352 H1344 0.950 . S
C1352 C1353 1.386 . S
C1352 C1354 1.391 . S
C1353 C1352 1.386 . S
C1353 C1357 1.393 . S
C1354 H1346 0.950 . S
C1354 C1352 1.391 . S
C1354 C1355 1.400 . S
C1355 C1354 1.400 . S
C1355 C1356 1.398 . S
C1355 C1361 1.491 . S
C1356 H1347 0.950 . S
C1356 C1355 1.398 . S
C1356 C1357 1.391 . S
C1357 H1345 0.950 . S
C1357 C1353 1.393 . S
C1357 C1356 1.391 . S
C1358 H1348 0.950 . S
C1358 C1359 1.386 . S
C1358 C1360 1.391 . S
C1359 C1358 1.386 . S
C1359 C1363 1.393 . S
C1360 H1349 0.950 . S
C1360 C1358 1.391 . S
C1360 C1361 1.400 . S
C1361 C1355 1.491 . S
C1361 C1360 1.400 . S
C1361 C1362 1.398 . S
C1362 H1350 0.950 . S
C1362 C1361 1.398 . S
C1362 C1363 1.391 . S
C1363 H1351 0.950 . S
C1363 C1359 1.393 . S
C1363 C1362 1.391 . S
H1364 C1372 0.950 . S
H1365 C1377 0.950 . S
H1366 C1374 0.950 . S
H1367 C1376 0.950 . S
H1368 C1378 0.950 . S
H1369 C1380 0.950 . S
H1370 C1382 0.950 . S
H1371 C1383 0.950 . S
C1372 H1364 0.950 . S
C1372 C1373 1.386 . S
C1372 C1374 1.391 . S
C1373 C1372 1.386 . S
C1373 C1377 1.393 . S
C1374 H1366 0.950 . S
C1374 C1372 1.391 . S
C1374 C1375 1.400 . S
C1375 C1374 1.400 . S
C1375 C1376 1.398 . S
C1375 C1381 1.491 . S
C1376 H1367 0.950 . S
C1376 C1375 1.398 . S
C1376 C1377 1.391 . S
C1377 H1365 0.950 . S
C1377 C1373 1.393 . S
C1377 C1376 1.391 . S
C1378 H1368 0.950 . S
C1378 C1379 1.386 . S
C1378 C1380 1.391 . S
C1379 C1378 1.386 . S
C1379 C1383 1.393 . S
C1380 H1369 0.950 . S
C1380 C1378 1.391 . S
C1380 C1381 1.400 . S
C1381 C1375 1.491 . S
C1381 C1380 1.400 . S
C1381 C1382 1.398 . S
C1382 H1370 0.950 . S
C1382 C1381 1.398 . S
C1382 C1383 1.391 . S
C1383 H1371 0.950 . S
C1383 C1379 1.393 . S
C1383 C1382 1.391 . S
H1384 C1392 0.950 . S
H1385 C1397 0.950 . S
H1386 C1394 0.950 . S
H1387 C1396 0.950 . S
H1388 C1398 0.950 . S
H1389 C1400 0.950 . S
H1390 C1402 0.950 . S
H1391 C1403 0.950 . S
C1392 H1384 0.950 . S
C1392 C1393 1.386 . S
C1392 C1394 1.391 . S
C1393 C1392 1.386 . S
C1393 C1397 1.393 . S
C1394 H1386 0.950 . S
C1394 C1392 1.391 . S
C1394 C1395 1.400 . S
C1395 C1394 1.400 . S
C1395 C1396 1.398 . S
C1395 C1401 1.491 . S
C1396 H1387 0.950 . S
C1396 C1395 1.398 . S
C1396 C1397 1.391 . S
C1397 H1385 0.950 . S
C1397 C1393 1.393 . S
C1397 C1396 1.391 . S
C1398 H1388 0.950 . S
C1398 C1399 1.386 . S
C1398 C1400 1.391 . S
C1399 C1398 1.386 . S
C1399 C1403 1.393 . S
C1400 H1389 0.950 . S
C1400 C1398 1.391 . S
C1400 C1401 1.400 . S
C1401 C1395 1.491 . S
C1401 C1400 1.400 . S
C1401 C1402 1.398 . S
C1402 H1390 0.950 . S
C1402 C1401 1.398 . S
C1402 C1403 1.391 . S
C1403 H1391 0.950 . S
C1403 C1399 1.393 . S
C1403 C1402 1.391 . S
H1404 C1412 0.950 . S
H1405 C1417 0.950 . S
H1406 C1414 0.950 . S
H1407 C1416 0.950 . S
H1408 C1418 0.950 . S
H1409 C1420 0.950 . S
H1410 C1422 0.950 . S
H1411 C1423 0.950 . S
C1412 H1404 0.950 . S
C1412 C1413 1.386 . S
C1412 C1414 1.391 . S
C1413 C1412 1.386 . S
C1413 C1417 1.393 . S
C1414 H1406 0.950 . S
C1414 C1412 1.391 . S
C1414 C1415 1.400 . S
C1415 C1414 1.400 . S
C1415 C1416 1.398 . S
C1415 C1421 1.491 . S
C1416 H1407 0.950 . S
C1416 C1415 1.398 . S
C1416 C1417 1.391 . S
C1417 H1405 0.950 . S
C1417 C1413 1.393 . S
C1417 C1416 1.391 . S
C1418 H1408 0.950 . S
C1418 C1419 1.386 . S
C1418 C1420 1.391 . S
C1419 C1418 1.386 . S
C1419 C1423 1.393 . S
C1420 H1409 0.950 . S
C1420 C1418 1.391 . S
C1420 C1421 1.400 . S
C1421 C1415 1.491 . S
C1421 C1420 1.400 . S
C1421 C1422 1.398 . S
C1422 H1410 0.950 . S
C1422 C1421 1.398 . S
C1422 C1423 1.391 . S
C1423 H1411 0.950 . S
C1423 C1419 1.393 . S
C1423 C1422 1.391 . S
H1424 C1432 0.950 . S
H1425 C1437 0.950 . S
H1426 C1434 0.950 . S
H1427 C1436 0.950 . S
H1428 C1438 0.950 . S
H1429 C1440 0.950 . S
H1430 C1442 0.950 . S
H1431 C1443 0.950 . S
C1432 H1424 0.950 . S
C1432 C1433 1.386 . S
C1432 C1434 1.391 . S
C1433 C1432 1.386 . S
C1433 C1437 1.393 . S
C1434 H1426 0.950 . S
C1434 C1432 1.391 . S
C1434 C1435 1.400 . S
C1435 C1434 1.400 . S
C1435 C1436 1.398 . S
C1435 C1441 1.491 . S
C1436 H1427 0.950 . S
C1436 C1435 1.398 . S
C1436 C1437 1.391 . S
C1437 H1425 0.950 . S
C1437 C1433 1.393 . S
C1437 C1436 1.391 . S
C1438 H1428 0.950 . S
C1438 C1439 1.386 . S
C1438 C1440 1.391 . S
C1439 C1438 1.386 . S
C1439 C1443 1.393 . S
C1440 H1429 0.950 . S
C1440 C1438 1.391 . S
C1440 C1441 1.400 . S
C1441 C1435 1.491 . S
C1441 C1440 1.400 . S
C1441 C1442 1.398 . S
C1442 H1430 0.950 . S
C1442 C1441 1.398 . S
C1442 C1443 1.391 . S
C1443 H1431 0.950 . S
C1443 C1439 1.393 . S
C1443 C1442 1.391 . S
H1444 C1452 0.950 . S
H1445 C1457 0.950 . S
H1446 C1454 0.950 . S
H1447 C1456 0.950 . S
H1448 C1458 0.950 . S
H1449 C1460 0.950 . S
H1450 C1462 0.950 . S
H1451 C1463 0.950 . S
C1452 H1444 0.950 . S
C1452 C1453 1.386 . S
C1452 C1454 1.391 . S
C1453 C1452 1.386 . S
C1453 C1457 1.393 . S
C1454 H1446 0.950 . S
C1454 C1452 1.391 . S
C1454 C1455 1.400 . S
C1455 C1454 1.400 . S
C1455 C1456 1.398 . S
C1455 C1461 1.491 . S
C1456 H1447 0.950 . S
C1456 C1455 1.398 . S
C1456 C1457 1.391 . S
C1457 H1445 0.950 . S
C1457 C1453 1.393 . S
C1457 C1456 1.391 . S
C1458 H1448 0.950 . S
C1458 C1459 1.386 . S
C1458 C1460 1.391 . S
C1459 C1458 1.386 . S
C1459 C1463 1.393 . S
C1460 H1449 0.950 . S
C1460 C1458 1.391 . S
C1460 C1461 1.400 . S
C1461 C1455 1.491 . S
C1461 C1460 1.400 . S
C1461 C1462 1.398 . S
C1462 H1450 0.950 . S
C1462 C1461 1.398 . S
C1462 C1463 1.391 . S
C1463 H1451 0.950 . S
C1463 C1459 1.393 . S
C1463 C1462 1.391 . S
H1464 C1472 0.950 . S
H1465 C1477 0.950 . S
H1466 C1474 0.950 . S
H1467 C1476 0.950 . S
H1468 C1478 0.950 . S
H1469 C1480 0.950 . S
H1470 C1482 0.950 . S
H1471 C1483 0.950 . S
C1472 H1464 0.950 . S
C1472 C1473 1.386 . S
C1472 C1474 1.391 . S
C1473 C1472 1.386 . S
C1473 C1477 1.393 . S
C1474 H1466 0.950 . S
C1474 C1472 1.391 . S
C1474 C1475 1.400 . S
C1475 C1474 1.400 . S
C1475 C1476 1.398 . S
C1475 C1481 1.491 . S
C1476 H1467 0.950 . S
C1476 C1475 1.398 . S
C1476 C1477 1.391 . S
C1477 H1465 0.950 . S
C1477 C1473 1.393 . S
C1477 C1476 1.391 . S
C1478 H1468 0.950 . S
C1478 C1479 1.386 . S
C1478 C1480 1.391 . S
C1479 C1478 1.386 . S
C1479 C1483 1.393 . S
C1480 H1469 0.950 . S
C1480 C1478 1.391 . S
C1480 C1481 1.400 . S
C1481 C1475 1.491 . S
C1481 C1480 1.400 . S
C1481 C1482 1.398 . S
C1482 H1470 0.950 . S
C1482 C1481 1.398 . S
C1482 C1483 1.391 . S
C1483 H1471 0.950 . S
C1483 C1479 1.393 . S
C1483 C1482 1.391 . S
H1484 C1492 0.950 . S
H1485 C1497 0.950 . S
H1486 C1494 0.950 . S
H1487 C1496 0.950 . S
H1488 C1498 0.950 . S
H1489 C1500 0.950 . S
H1490 C1502 0.950 . S
H1491 C1503 0.950 . S
C1492 H1484 0.950 . S
C1492 C1493 1.386 . S
C1492 C1494 1.391 . S
C1493 C1492 1.386 . S
C1493 C1497 1.393 . S
C1494 H1486 0.950 . S
C1494 C1492 1.391 . S
C1494 C1495 1.400 . S
C1495 C1494 1.400 . S
C1495 C1496 1.398 . S
C1495 C1501 1.491 . S
C1496 H1487 0.950 . S
C1496 C1495 1.398 . S
C1496 C1497 1.391 . S
C1497 H1485 0.950 . S
C1497 C1493 1.393 . S
C1497 C1496 1.391 . S
C1498 H1488 0.950 . S
C1498 C1499 1.386 . S
C1498 C1500 1.391 . S
C1499 C1498 1.386 . S
C1499 C1503 1.393 . S
C1500 H1489 0.950 . S
C1500 C1498 1.391 . S
C1500 C1501 1.400 . S
C1501 C1495 1.491 . S
C1501 C1500 1.400 . S
C1501 C1502 1.398 . S
C1502 H1490 0.950 . S
C1502 C1501 1.398 . S
C1502 C1503 1.391 . S
C1503 H1491 0.950 . S
C1503 C1499 1.393 . S
C1503 C1502 1.391 . S
H1504 C1512 0.950 . S
H1505 C1517 0.950 . S
H1506 C1514 0.950 . S
H1507 C1516 0.950 . S
H1508 C1518 0.950 . S
H1509 C1520 0.950 . S
H1510 C1522 0.950 . S
H1511 C1523 0.950 . S
C1512 H1504 0.950 . S
C1512 C1513 1.386 . S
C1512 C1514 1.391 . S
C1513 C1512 1.386 . S
C1513 C1517 1.393 . S
C1514 H1506 0.950 . S
C1514 C1512 1.391 . S
C1514 C1515 1.400 . S
C1515 C1514 1.400 . S
C1515 C1516 1.398 . S
C1515 C1521 1.491 . S
C1516 H1507 0.950 . S
C1516 C1515 1.398 . S
C1516 C1517 1.391 . S
C1517 H1505 0.950 . S
C1517 C1513 1.393 . S
C1517 C1516 1.391 . S
C1518 H1508 0.950 . S
C1518 C1519 1.386 . S
C1518 C1520 1.391 . S
C1519 C1518 1.386 . S
C1519 C1523 1.393 . S
C1520 H1509 0.950 . S
C1520 C1518 1.391 . S
C1520 C1521 1.400 . S
C1521 C1515 1.491 . S
C1521 C1520 1.400 . S
C1521 C1522 1.398 . S
C1522 H1510 0.950 . S
C1522 C1521 1.398 . S
C1522 C1523 1.391 . S
C1523 H1511 0.950 . S
C1523 C1519 1.393 . S
C1523 C1522 1.391 . S
H1524 C1532 0.950 . S
H1525 C1537 0.950 . S
H1526 C1534 0.950 . S
H1527 C1536 0.950 . S
H1528 C1538 0.950 . S
H1529 C1540 0.950 . S
H1530 C1542 0.950 . S
H1531 C1543 0.950 . S
C1532 H1524 0.950 . S
C1532 C1533 1.386 . S
C1532 C1534 1.391 . S
C1533 C1532 1.386 . S
C1533 C1537 1.393 . S
C1534 H1526 0.950 . S
C1534 C1532 1.391 . S
C1534 C1535 1.400 . S
C1535 C1534 1.400 . S
C1535 C1536 1.398 . S
C1535 C1541 1.491 . S
C1536 H1527 0.950 . S
C1536 C1535 1.398 . S
C1536 C1537 1.391 . S
C1537 H1525 0.950 . S
C1537 C1533 1.393 . S
C1537 C1536 1.391 . S
C1538 H1528 0.950 . S
C1538 C1539 1.386 . S
C1538 C1540 1.391 . S
C1539 C1538 1.386 . S
C1539 C1543 1.393 . S
C1540 H1529 0.950 . S
C1540 C1538 1.391 . S
C1540 C1541 1.400 . S
C1541 C1535 1.491 . S
C1541 C1540 1.400 . S
C1541 C1542 1.398 . S
C1542 H1530 0.950 . S
C1542 C1541 1.398 . S
C1542 C1543 1.391 . S
C1543 H1531 0.950 . S
C1543 C1539 1.393 . S
C1543 C1542 1.391 . S
H1544 C1552 0.950 . S
H1545 C1557 0.950 . S
H1546 C1554 0.950 . S
H1547 C1556 0.950 . S
H1548 C1558 0.950 . S
H1549 C1560 0.950 . S
H1550 C1562 0.950 . S
H1551 C1563 0.950 . S
C1552 H1544 0.950 . S
C1552 C1553 1.386 . S
C1552 C1554 1.391 . S
C1553 C1552 1.386 . S
C1553 C1557 1.393 . S
C1554 H1546 0.950 . S
C1554 C1552 1.391 . S
C1554 C1555 1.400 . S
C1555 C1554 1.400 . S
C1555 C1556 1.398 . S
C1555 C1561 1.491 . S
C1556 H1547 0.950 . S
C1556 C1555 1.398 . S
C1556 C1557 1.391 . S
C1557 H1545 0.950 . S
C1557 C1553 1.393 . S
C1557 C1556 1.391 . S
C1558 H1548 0.950 . S
C1558 C1559 1.386 . S
C1558 C1560 1.391 . S
C1559 C1558 1.386 . S
C1559 C1563 1.393 . S
C1560 H1549 0.950 . S
C1560 C1558 1.391 . S
C1560 C1561 1.400 . S
C1561 C1555 1.491 . S
C1561 C1560 1.400 . S
C1561 C1562 1.398 . S
C1562 H1550 0.950 . S
C1562 C1561 1.398 . S
C1562 C1563 1.391 . S
C1563 H1551 0.950 . S
C1563 C1559 1.393 . S
C1563 C1562 1.391 . S
H1564 C1572 0.950 . S
H1565 C1577 0.950 . S
H1566 C1574 0.950 . S
H1567 C1576 0.950 . S
H1568 C1578 0.950 . S
H1569 C1580 0.950 . S
H1570 C1582 0.950 . S
H1571 C1583 0.950 . S
C1572 H1564 0.950 . S
C1572 C1573 1.386 . S
C1572 C1574 1.391 . S
C1573 C1572 1.386 . S
C1573 C1577 1.393 . S
C1574 H1566 0.950 . S
C1574 C1572 1.391 . S
C1574 C1575 1.400 . S
C1575 C1574 1.400 . S
C1575 C1576 1.398 . S
C1575 C1581 1.491 . S
C1576 H1567 0.950 . S
C1576 C1575 1.398 . S
C1576 C1577 1.391 . S
C1577 H1565 0.950 . S
C1577 C1573 1.393 . S
C1577 C1576 1.391 . S
C1578 H1568 0.950 . S
C1578 C1579 1.386 . S
C1578 C1580 1.391 . S
C1579 C1578 1.386 . S
C1579 C1583 1.393 . S
C1580 H1569 0.950 . S
C1580 C1578 1.391 . S
C1580 C1581 1.400 . S
C1581 C1575 1.491 . S
C1581 C1580 1.400 . S
C1581 C1582 1.398 . S
C1582 H1570 0.950 . S
C1582 C1581 1.398 . S
C1582 C1583 1.391 . S
C1583 H1571 0.950 . S
C1583 C1579 1.393 . S
C1583 C1582 1.391 . S
H1584 C1592 0.950 . S
H1585 C1597 0.950 . S
H1586 C1594 0.950 . S
H1587 C1596 0.950 . S
H1588 C1598 0.950 . S
H1589 C1600 0.950 . S
H1590 C1602 0.950 . S
H1591 C1603 0.950 . S
C1592 H1584 0.950 . S
C1592 C1593 1.386 . S
C1592 C1594 1.391 . S
C1593 C1592 1.386 . S
C1593 C1597 1.393 . S
C1594 H1586 0.950 . S
C1594 C1592 1.391 . S
C1594 C1595 1.400 . S
C1595 C1594 1.400 . S
C1595 C1596 1.398 . S
C1595 C1601 1.491 . S
C1596 H1587 0.950 . S
C1596 C1595 1.398 . S
C1596 C1597 1.391 . S
C1597 H1585 0.950 . S
C1597 C1593 1.393 . S
C1597 C1596 1.391 . S
C1598 H1588 0.950 . S
C1598 C1599 1.386 . S
C1598 C1600 1.391 . S
C1599 C1598 1.386 . S
C1599 C1603 1.393 . S
C1600 H1589 0.950 . S
C1600 C1598 1.391 . S
C1600 C1601 1.400 . S
C1601 C1595 1.491 . S
C1601 C1600 1.400 . S
C1601 C1602 1.398 . S
C1602 H1590 0.950 . S
C1602 C1601 1.398 . S
C1602 C1603 1.391 . S
C1603 H1591 0.950 . S
C1603 C1599 1.393 . S
C1603 C1602 1.391 . S
H1604 C1612 0.950 1_565 S
H1605 C1617 0.950 . S
H1606 C1614 0.950 . S
H1607 C1616 0.950 . S
H1608 C1618 0.950 . S
H1609 C1620 0.950 . S
H1610 C1622 0.950 . S
H1611 C1623 0.950 . S
C1612 H1604 0.950 1_545 S
C1612 C1613 1.386 . S
C1612 C1614 1.391 1_545 S
C1613 C1612 1.386 . S
C1613 C1617 1.393 . S
C1614 H1606 0.950 . S
C1614 C1612 1.391 1_565 S
C1614 C1615 1.400 1_565 S
C1615 C1614 1.400 1_545 S
C1615 C1616 1.398 . S
C1615 C1621 1.491 . S
C1616 H1607 0.950 . S
C1616 C1615 1.398 . S
C1616 C1617 1.391 . S
C1617 H1605 0.950 . S
C1617 C1613 1.393 . S
C1617 C1616 1.391 . S
C1618 H1608 0.950 . S
C1618 C1619 1.386 1_545 S
C1618 C1620 1.391 . S
C1619 C1618 1.386 1_565 S
C1619 C1623 1.393 . S
C1620 H1609 0.950 . S
C1620 C1618 1.391 . S
C1620 C1621 1.400 . S
C1621 C1615 1.491 . S
C1621 C1620 1.400 . S
C1621 C1622 1.398 1_545 S
C1622 H1610 0.950 . S
C1622 C1621 1.398 1_565 S
C1622 C1623 1.391 . S
C1623 H1611 0.950 . S
C1623 C1619 1.393 . S
C1623 C1622 1.391 . S
H1624 C1632 0.950 . S
H1625 C1637 0.925 1_655 S
H1626 C1634 0.950 . S
H1627 C1636 0.950 . S
H1628 C1638 0.950 . S
H1629 C1640 0.950 . S
H1630 C1642 0.950 . S
H1631 C1643 0.950 . S
C1632 H1624 0.950 . S
C1632 C1633 1.386 . S
C1632 C1634 1.391 . S
C1633 C1632 1.386 . S
C1633 C1637 1.423 . S
C1634 H1626 0.950 . S
C1634 C1632 1.391 . S
C1634 C1635 1.400 . S
C1635 C1634 1.400 . S
C1635 C1636 1.398 1_455 S
C1635 C1641 1.491 . S
C1636 H1627 0.950 . S
C1636 C1635 1.398 1_655 S
C1636 C1637 1.385 1_655 S
C1637 H1625 0.925 1_455 S
C1637 C1633 1.423 . S
C1637 C1636 1.385 1_455 S
C1638 H1628 0.950 . S
C1638 C1639 1.386 . S
C1638 C1640 1.391 . S
C1639 C1638 1.386 . S
C1639 C1643 1.393 1_655 S
C1640 H1629 0.950 . S
C1640 C1638 1.391 . S
C1640 C1641 1.400 1_655 S
C1641 C1635 1.491 . S
C1641 C1640 1.400 1_455 S
C1641 C1642 1.398 . S
C1642 H1630 0.950 . S
C1642 C1641 1.398 . S
C1642 C1643 1.391 . S
C1643 H1631 0.950 . S
C1643 C1639 1.393 1_455 S
C1643 C1642 1.391 . S
H1644 C1652 0.950 . S
H1645 C1657 0.950 . S
H1646 C1654 0.950 . S
H1647 C1656 0.950 . S
H1648 C1658 0.950 . S
H1649 C1660 0.950 . S
H1650 C1662 0.950 . S
H1651 C1663 0.950 . S
C1652 H1644 0.950 . S
C1652 C1653 1.386 . S
C1652 C1654 1.391 . S
C1653 C1652 1.386 . S
C1653 C1657 1.393 . S
C1654 H1646 0.950 . S
C1654 C1652 1.391 . S
C1654 C1655 1.400 . S
C1655 C1654 1.400 . S
C1655 C1656 1.398 . S
C1655 C1661 1.491 . S
C1656 H1647 0.950 . S
C1656 C1655 1.398 . S
C1656 C1657 1.391 . S
C1657 H1645 0.950 . S
C1657 C1653 1.393 . S
C1657 C1656 1.391 . S
C1658 H1648 0.950 . S
C1658 C1659 1.386 . S
C1658 C1660 1.391 . S
C1659 C1658 1.386 . S
C1659 C1663 1.393 . S
C1660 H1649 0.950 . S
C1660 C1658 1.391 . S
C1660 C1661 1.400 . S
C1661 C1655 1.491 . S
C1661 C1660 1.400 . S
C1661 C1662 1.398 . S
C1662 H1650 0.950 . S
C1662 C1661 1.398 . S
C1662 C1663 1.391 . S
C1663 H1651 0.950 . S
C1663 C1659 1.393 . S
C1663 C1662 1.391 . S
H1664 C1672 0.950 . S
H1665 C1677 0.950 . S
H1666 C1674 0.950 . S
H1667 C1676 0.950 . S
H1668 C1678 0.950 . S
H1669 C1680 0.950 . S
H1670 C1682 0.950 . S
H1671 C1683 0.950 . S
C1672 H1664 0.950 . S
C1672 C1673 1.386 . S
C1672 C1674 1.391 . S
C1673 C1672 1.386 . S
C1673 C1677 1.393 1_545 S
C1674 H1666 0.950 . S
C1674 C1672 1.391 . S
C1674 C1675 1.400 . S
C1675 C1674 1.400 . S
C1675 C1676 1.398 1_545 S
C1675 C1681 1.491 . S
C1676 H1667 0.950 . S
C1676 C1675 1.398 1_565 S
C1676 C1677 1.391 . S
C1677 H1665 0.950 . S
C1677 C1673 1.393 1_565 S
C1677 C1676 1.391 . S
C1678 H1668 0.950 . S
C1678 C1679 1.386 1_565 S
C1678 C1680 1.391 . S
C1679 C1678 1.386 1_545 S
C1679 C1683 1.393 . S
C1680 H1669 0.950 . S
C1680 C1678 1.391 . S
C1680 C1681 1.400 1_565 S
C1681 C1675 1.491 . S
C1681 C1680 1.400 1_545 S
C1681 C1682 1.398 . S
C1682 H1670 0.950 . S
C1682 C1681 1.398 . S
C1682 C1683 1.391 . S
C1683 H1671 0.950 . S
C1683 C1679 1.393 . S
C1683 C1682 1.391 . S
H1684 C1692 0.950 . S
H1685 C1697 0.950 . S
H1686 C1694 0.950 . S
H1687 C1696 0.950 . S
H1688 C1698 0.950 . S
H1689 C1700 0.950 . S
H1690 C1702 0.950 . S
H1691 C1703 0.950 . S
C1692 H1684 0.950 . S
C1692 C1693 1.386 . S
C1692 C1694 1.391 . S
C1693 C1692 1.386 . S
C1693 C1697 1.393 . S
C1694 H1686 0.950 . S
C1694 C1692 1.391 . S
C1694 C1695 1.400 . S
C1695 C1694 1.400 . S
C1695 C1696 1.398 . S
C1695 C1701 1.491 . S
C1696 H1687 0.950 . S
C1696 C1695 1.398 . S
C1696 C1697 1.391 . S
C1697 H1685 0.950 . S
C1697 C1693 1.393 . S
C1697 C1696 1.391 . S
C1698 H1688 0.950 . S
C1698 C1699 1.386 . S
C1698 C1700 1.391 . S
C1699 C1698 1.386 . S
C1699 C1703 1.393 . S
C1700 H1689 0.950 . S
C1700 C1698 1.391 . S
C1700 C1701 1.400 . S
C1701 C1695 1.491 . S
C1701 C1700 1.400 . S
C1701 C1702 1.398 . S
C1702 H1690 0.950 . S
C1702 C1701 1.398 . S
C1702 C1703 1.391 . S
C1703 H1691 0.950 . S
C1703 C1699 1.393 . S
C1703 C1702 1.391 . S
H1704 C1712 0.950 . S
H1705 C1717 0.950 . S
H1706 C1714 0.950 . S
H1707 C1716 0.950 . S
H1708 C1718 0.950 . S
H1709 C1720 0.950 . S
H1710 C1722 0.950 . S
H1711 C1723 0.950 . S
C1712 H1704 0.950 . S
C1712 C1713 1.386 . S
C1712 C1714 1.391 . S
C1713 C1712 1.386 . S
C1713 C1717 1.393 . S
C1714 H1706 0.950 . S
C1714 C1712 1.391 . S
C1714 C1715 1.400 . S
C1715 C1714 1.400 . S
C1715 C1716 1.398 . S
C1715 C1721 1.491 . S
C1716 H1707 0.950 . S
C1716 C1715 1.398 . S
C1716 C1717 1.391 . S
C1717 H1705 0.950 . S
C1717 C1713 1.393 . S
C1717 C1716 1.391 . S
C1718 H1708 0.950 . S
C1718 C1719 1.386 . S
C1718 C1720 1.391 . S
C1719 C1718 1.386 . S
C1719 C1723 1.393 . S
C1720 H1709 0.950 . S
C1720 C1718 1.391 . S
C1720 C1721 1.400 . S
C1721 C1715 1.491 . S
C1721 C1720 1.400 . S
C1721 C1722 1.398 . S
C1722 H1710 0.950 . S
C1722 C1721 1.398 . S
C1722 C1723 1.391 . S
C1723 H1711 0.950 . S
C1723 C1719 1.393 . S
C1723 C1722 1.391 . S
H1724 C1732 0.950 . S
H1725 C1737 0.950 . S
H1726 C1734 0.950 . S
H1727 C1736 0.950 . S
H1728 C1738 0.950 . S
H1729 C1740 0.950 . S
H1730 C1742 0.950 . S
H1731 C1743 0.950 . S
C1732 H1724 0.950 . S
C1732 C1733 1.386 . S
C1732 C1734 1.391 . S
C1733 C1732 1.386 . S
C1733 C1737 1.393 . S
C1734 H1726 0.950 . S
C1734 C1732 1.391 . S
C1734 C1735 1.400 . S
C1735 C1734 1.400 . S
C1735 C1736 1.398 . S
C1735 C1741 1.491 . S
C1736 H1727 0.950 . S
C1736 C1735 1.398 . S
C1736 C1737 1.391 . S
C1737 H1725 0.950 . S
C1737 C1733 1.393 . S
C1737 C1736 1.391 . S
C1738 H1728 0.950 . S
C1738 C1739 1.386 . S
C1738 C1740 1.391 . S
C1739 C1738 1.386 . S
C1739 C1743 1.393 . S
C1740 H1729 0.950 . S
C1740 C1738 1.391 . S
C1740 C1741 1.400 . S
C1741 C1735 1.491 . S
C1741 C1740 1.400 . S
C1741 C1742 1.398 . S
C1742 H1730 0.950 . S
C1742 C1741 1.398 . S
C1742 C1743 1.391 . S
C1743 H1731 0.950 . S
C1743 C1739 1.393 . S
C1743 C1742 1.391 . S
H1744 C1752 0.950 . S
H1745 C1757 0.950 . S
H1746 C1754 0.950 . S
H1747 C1756 0.950 . S
H1748 C1758 0.950 . S
H1749 C1760 0.950 . S
H1750 C1762 0.950 . S
H1751 C1763 0.950 . S
C1752 H1744 0.950 . S
C1752 C1753 1.386 . S
C1752 C1754 1.391 . S
C1753 C1752 1.386 . S
C1753 C1757 1.393 . S
C1754 H1746 0.950 . S
C1754 C1752 1.391 . S
C1754 C1755 1.400 . S
C1755 C1754 1.400 . S
C1755 C1756 1.398 . S
C1755 C1761 1.491 . S
C1756 H1747 0.950 . S
C1756 C1755 1.398 . S
C1756 C1757 1.391 . S
C1757 H1745 0.950 . S
C1757 C1753 1.393 . S
C1757 C1756 1.391 . S
C1758 H1748 0.950 . S
C1758 C1759 1.386 . S
C1758 C1760 1.391 . S
C1759 C1758 1.386 . S
C1759 C1763 1.393 . S
C1760 H1749 0.950 . S
C1760 C1758 1.391 . S
C1760 C1761 1.400 . S
C1761 C1755 1.491 . S
C1761 C1760 1.400 . S
C1761 C1762 1.398 . S
C1762 H1750 0.950 . S
C1762 C1761 1.398 . S
C1762 C1763 1.391 . S
C1763 H1751 0.950 . S
C1763 C1759 1.393 . S
C1763 C1762 1.391 . S
H1764 C1772 0.950 . S
H1765 C1777 0.950 . S
H1766 C1774 0.950 . S
H1767 C1776 0.950 . S
H1768 C1778 0.960 . S
H1769 C1780 0.950 . S
H1770 C1782 0.950 . S
H1771 C1783 0.948 1_556 S
C1772 H1764 0.950 . S
C1772 C1773 1.386 . S
C1772 C1774 1.391 . S
C1773 C1772 1.386 . S
C1773 C1777 1.393 . S
C1774 H1766 0.950 . S
C1774 C1772 1.391 . S
C1774 C1775 1.400 . S
C1775 C1774 1.400 . S
C1775 C1776 1.398 . S
C1775 C1781 1.491 . S
C1776 H1767 0.950 . S
C1776 C1775 1.398 . S
C1776 C1777 1.391 . S
C1777 H1765 0.950 . S
C1777 C1773 1.393 . S
C1777 C1776 1.391 . S
C1778 H1768 0.960 . S
C1778 C1779 1.395 . S
C1778 C1780 1.372 1_556 S
C1779 C1778 1.395 . S
C1779 C1783 1.391 1_556 S
C1780 H1769 0.950 . S
C1780 C1778 1.372 1_554 S
C1780 C1781 1.400 . S
C1781 C1775 1.491 . S
C1781 C1780 1.400 . S
C1781 C1782 1.398 . S
C1782 H1770 0.950 . S
C1782 C1781 1.398 . S
C1782 C1783 1.395 . S
C1783 H1771 0.948 1_554 S
C1783 C1779 1.391 1_554 S
C1783 C1782 1.395 . S
H1784 C1792 0.950 . S
H1785 C1797 0.950 . S
H1786 C1794 0.950 . S
H1787 C1796 0.950 . S
H1788 C1798 0.950 1_556 S
H1789 C1800 0.950 . S
H1790 C1802 0.950 . S
H1791 C1803 0.950 1_556 S
C1792 H1784 0.950 . S
C1792 C1793 1.386 . S
C1792 C1794 1.391 . S
C1793 C1792 1.386 . S
C1793 C1797 1.393 . S
C1794 H1786 0.950 . S
C1794 C1792 1.391 . S
C1794 C1795 1.400 . S
C1795 C1794 1.400 . S
C1795 C1796 1.398 . S
C1795 C1801 1.491 . S
C1796 H1787 0.950 . S
C1796 C1795 1.398 . S
C1796 C1797 1.391 . S
C1797 H1785 0.950 . S
C1797 C1793 1.393 . S
C1797 C1796 1.391 . S
C1798 H1788 0.950 1_554 S
C1798 C1799 1.386 1_554 S
C1798 C1800 1.391 . S
C1799 C1798 1.386 1_556 S
C1799 C1803 1.393 1_556 S
C1800 H1789 0.950 . S
C1800 C1798 1.391 . S
C1800 C1801 1.400 . S
C1801 C1795 1.491 . S
C1801 C1800 1.400 . S
C1801 C1802 1.398 . S
C1802 H1790 0.950 . S
C1802 C1801 1.398 . S
C1802 C1803 1.391 . S
C1803 H1791 0.950 1_554 S
C1803 C1799 1.393 1_554 S
C1803 C1802 1.391 . S
H1804 C1812 0.950 . S
H1805 C1817 0.950 . S
H1806 C1814 0.950 . S
H1807 C1816 0.950 . S
H1808 C1818 0.946 1_556 S
H1809 C1820 0.950 . S
H1810 C1822 0.950 . S
H1811 C1823 0.950 1_556 S
C1812 H1804 0.950 . S
C1812 C1813 1.386 . S
C1812 C1814 1.391 . S
C1813 C1812 1.386 . S
C1813 C1817 1.393 . S
C1814 H1806 0.950 . S
C1814 C1812 1.391 . S
C1814 C1815 1.400 . S
C1815 C1814 1.400 . S
C1815 C1816 1.398 . S
C1815 C1821 1.491 . S
C1816 H1807 0.950 . S
C1816 C1815 1.398 . S
C1816 C1817 1.391 . S
C1817 H1805 0.950 . S
C1817 C1813 1.393 . S
C1817 C1816 1.391 . S
C1818 H1808 0.946 1_554 S
C1818 C1819 1.386 1_554 S
C1818 C1820 1.391 . S
C1819 C1818 1.386 1_556 S
C1819 C1823 1.393 1_556 S
C1820 H1809 0.950 . S
C1820 C1818 1.391 . S
C1820 C1821 1.400 . S
C1821 C1815 1.491 . S
C1821 C1820 1.400 . S
C1821 C1822 1.398 . S
C1822 H1810 0.950 . S
C1822 C1821 1.398 . S
C1822 C1823 1.391 . S
C1823 H1811 0.950 1_554 S
C1823 C1819 1.393 1_554 S
C1823 C1822 1.391 . S
H1824 C1832 0.950 . S
H1825 C1837 0.950 . S
H1826 C1834 0.950 . S
H1827 C1836 0.950 . S
H1828 C1838 0.950 . S
H1829 C1840 0.950 . S
H1830 C1842 0.950 . S
H1831 C1843 0.950 . S
C1832 H1824 0.950 . S
C1832 C1833 1.386 . S
C1832 C1834 1.391 1_554 S
C1833 C1832 1.386 . S
C1833 C1837 1.393 . S
C1834 H1826 0.950 . S
C1834 C1832 1.391 1_556 S
C1834 C1835 1.400 . S
C1835 C1834 1.400 . S
C1835 C1836 1.398 . S
C1835 C1841 1.491 . S
C1836 H1827 0.950 . S
C1836 C1835 1.398 . S
C1836 C1837 1.391 1_556 S
C1837 H1825 0.950 . S
C1837 C1833 1.393 . S
C1837 C1836 1.391 1_554 S
C1838 H1828 0.950 . S
C1838 C1839 1.386 . S
C1838 C1840 1.391 . S
C1839 C1838 1.386 . S
C1839 C1843 1.393 . S
C1840 H1829 0.950 . S
C1840 C1838 1.391 . S
C1840 C1841 1.400 . S
C1841 C1835 1.491 . S
C1841 C1840 1.400 . S
C1841 C1842 1.398 . S
C1842 H1830 0.950 . S
C1842 C1841 1.398 . S
C1842 C1843 1.391 . S
C1843 H1831 0.950 . S
C1843 C1839 1.393 . S
C1843 C1842 1.391 . S
H1844 C1852 0.947 1_554 S
H1845 C1857 0.950 1_554 S
H1846 C1854 0.950 . S
H1847 C1856 0.950 . S
H1848 C1858 0.950 . S
H1849 C1860 0.950 . S
H1850 C1862 0.950 . S
H1851 C1863 0.950 . S
C1852 H1844 0.947 1_556 S
C1852 C1853 1.386 1_556 S
C1852 C1854 1.391 . S
C1853 C1852 1.386 1_554 S
C1853 C1857 1.393 1_554 S
C1854 H1846 0.950 . S
C1854 C1852 1.391 . S
C1854 C1855 1.400 . S
C1855 C1854 1.400 . S
C1855 C1856 1.398 . S
C1855 C1861 1.491 . S
C1856 H1847 0.950 . S
C1856 C1855 1.398 . S
C1856 C1857 1.391 . S
C1857 H1845 0.950 1_556 S
C1857 C1853 1.393 1_556 S
C1857 C1856 1.391 . S
C1858 H1848 0.950 . S
C1858 C1859 1.386 . S
C1858 C1860 1.391 . S
C1859 C1858 1.386 . S
C1859 C1863 1.393 . S
C1860 H1849 0.950 . S
C1860 C1858 1.391 . S
C1860 C1861 1.400 . S
C1861 C1855 1.491 . S
C1861 C1860 1.400 . S
C1861 C1862 1.398 . S
C1862 H1850 0.950 . S
C1862 C1861 1.398 . S
C1862 C1863 1.391 . S
C1863 H1851 0.950 . S
C1863 C1859 1.393 . S
C1863 C1862 1.391 . S
H1864 C1872 0.950 . S
H1865 C1877 0.950 . S
H1866 C1874 0.950 . S
H1867 C1876 0.950 . S
H1868 C1878 0.950 . S
H1869 C1880 0.950 . S
H1870 C1882 0.950 . S
H1871 C1883 0.950 . S
C1872 H1864 0.950 . S
C1872 C1873 1.386 . S
C1872 C1874 1.391 . S
C1873 C1872 1.386 . S
C1873 C1877 1.393 . S
C1874 H1866 0.950 . S
C1874 C1872 1.391 . S
C1874 C1875 1.400 . S
C1875 C1874 1.400 . S
C1875 C1876 1.398 . S
C1875 C1881 1.491 . S
C1876 H1867 0.950 . S
C1876 C1875 1.398 . S
C1876 C1877 1.391 . S
C1877 H1865 0.950 . S
C1877 C1873 1.393 . S
C1877 C1876 1.391 . S
C1878 H1868 0.950 . S
C1878 C1879 1.386 . S
C1878 C1880 1.391 . S
C1879 C1878 1.386 . S
C1879 C1883 1.393 . S
C1880 H1869 0.950 . S
C1880 C1878 1.391 . S
C1880 C1881 1.400 . S
C1881 C1875 1.491 . S
C1881 C1880 1.400 . S
C1881 C1882 1.398 . S
C1882 H1870 0.950 . S
C1882 C1881 1.398 . S
C1882 C1883 1.391 . S
C1883 H1871 0.950 . S
C1883 C1879 1.393 . S
C1883 C1882 1.391 . S
H1884 C1892 0.950 . S
H1885 C1897 0.950 . S
H1886 C1894 0.950 . S
H1887 C1896 0.950 . S
H1888 C1898 0.950 . S
H1889 C1900 0.950 . S
H1890 C1902 0.950 . S
H1891 C1903 0.950 . S
C1892 H1884 0.950 . S
C1892 C1893 1.386 . S
C1892 C1894 1.391 . S
C1893 C1892 1.386 . S
C1893 C1897 1.393 . S
C1894 H1886 0.950 . S
C1894 C1892 1.391 . S
C1894 C1895 1.400 . S
C1895 C1894 1.400 . S
C1895 C1896 1.398 . S
C1895 C1901 1.491 . S
C1896 H1887 0.950 . S
C1896 C1895 1.398 . S
C1896 C1897 1.391 . S
C1897 H1885 0.950 . S
C1897 C1893 1.393 . S
C1897 C1896 1.391 . S
C1898 H1888 0.950 . S
C1898 C1899 1.386 . S
C1898 C1900 1.391 . S
C1899 C1898 1.386 . S
C1899 C1903 1.393 . S
C1900 H1889 0.950 . S
C1900 C1898 1.391 . S
C1900 C1901 1.400 . S
C1901 C1895 1.491 . S
C1901 C1900 1.400 . S
C1901 C1902 1.398 . S
C1902 H1890 0.950 . S
C1902 C1901 1.398 . S
C1902 C1903 1.391 . S
C1903 H1891 0.950 . S
C1903 C1899 1.393 . S
C1903 C1902 1.391 . S
H1904 C1912 0.950 . S
H1905 C1917 0.950 . S
H1906 C1914 0.950 . S
H1907 C1916 0.950 . S
H1908 C1918 0.950 . S
H1909 C1920 0.950 . S
H1910 C1922 0.950 . S
H1911 C1923 0.950 . S
C1912 H1904 0.950 . S
C1912 C1913 1.386 . S
C1912 C1914 1.391 . S
C1913 C1912 1.386 . S
C1913 C1917 1.393 . S
C1914 H1906 0.950 . S
C1914 C1912 1.391 . S
C1914 C1915 1.400 . S
C1915 C1914 1.400 . S
C1915 C1916 1.398 . S
C1915 C1921 1.491 . S
C1916 H1907 0.950 . S
C1916 C1915 1.398 . S
C1916 C1917 1.391 . S
C1917 H1905 0.950 . S
C1917 C1913 1.393 . S
C1917 C1916 1.391 . S
C1918 H1908 0.950 . S
C1918 C1919 1.386 . S
C1918 C1920 1.391 . S
C1919 C1918 1.386 . S
C1919 C1923 1.393 . S
C1920 H1909 0.950 . S
C1920 C1918 1.391 . S
C1920 C1921 1.400 . S
C1921 C1915 1.491 . S
C1921 C1920 1.400 . S
C1921 C1922 1.398 . S
C1922 H1910 0.950 . S
C1922 C1921 1.398 . S
C1922 C1923 1.391 . S
C1923 H1911 0.950 . S
C1923 C1919 1.393 . S
C1923 C1922 1.391 . S
H1924 C1932 0.950 . S
H1925 C1937 0.950 . S
H1926 C1934 0.950 . S
H1927 C1936 0.950 . S
H1928 C1938 0.950 . S
H1929 C1940 0.950 . S
H1930 C1942 0.950 . S
H1931 C1943 0.950 . S
C1932 H1924 0.950 . S
C1932 C1933 1.386 . S
C1932 C1934 1.391 . S
C1933 C1932 1.386 . S
C1933 C1937 1.393 . S
C1934 H1926 0.950 . S
C1934 C1932 1.391 . S
C1934 C1935 1.400 . S
C1935 C1934 1.400 . S
C1935 C1936 1.398 . S
C1935 C1941 1.491 . S
C1936 H1927 0.950 . S
C1936 C1935 1.398 . S
C1936 C1937 1.391 . S
C1937 H1925 0.950 . S
C1937 C1933 1.393 . S
C1937 C1936 1.391 . S
C1938 H1928 0.950 . S
C1938 C1939 1.386 . S
C1938 C1940 1.391 . S
C1939 C1938 1.386 . S
C1939 C1943 1.393 . S
C1940 H1929 0.950 . S
C1940 C1938 1.391 . S
C1940 C1941 1.400 . S
C1941 C1935 1.491 . S
C1941 C1940 1.400 . S
C1941 C1942 1.398 . S
C1942 H1930 0.950 . S
C1942 C1941 1.398 . S
C1942 C1943 1.391 . S
C1943 H1931 0.950 . S
C1943 C1939 1.393 . S
C1943 C1942 1.391 . S
C513 C229 1.311 . S
C519 C5 1.356 1_556 S
C533 C243 1.344 . S
C539 C19 1.309 1_556 S
C553 C39 1.450 1_556 S
C559 C221 1.438 . S
C573 C375 1.445 . S
C579 C53 1.440 . S
C593 C341 1.348 . S
C599 C61 1.323 . S
C613 C75 1.337 . S
C619 C355 1.336 . S
C633 C487 1.222 . S
C639 C95 1.236 . S
C653 C501 1.207 . S
C659 C109 1.223 . S
C673 C473 1.218 . S
C679 C123 1.203 . S
C693 C291 1.232 . S
C699 C137 1.220 . S
C713 C151 1.228 . S
C719 C263 1.211 . S
C733 C277 1.233 . S
C739 C165 1.225 . S
C753 C397 1.308 . S
C759 C173 1.355 . S
C773 C187 1.352 . S
C779 C411 1.315 . S
C793 C389 1.451 . S
C799 C207 1.434 . S
C813 C459 1.215 . S
C819 C305 1.203 . S
C833 C431 1.211 . S
C839 C319 1.202 . S
C853 C333 1.232 . S
C859 C445 1.208 . S
C873 C102 1.465 . S
C879 C4 1.469 . S
C893 C116 1.430 . S
C899 C18 1.429 . S
C913 C88 1.357 . S
C919 C40 1.369 . S
C933 C54 1.364 . S
C939 C158 1.354 . S
C953 C130 1.418 . S
C959 C60 1.439 . S
C973 C74 1.479 . S
C979 C144 1.449 . S
C993 C25 1.107 . S
C999 C96 1.143 . S
C1013 C110 1.121 . S
C1019 C33 1.003 1_554 S
C1033 C11 1.242 . S
C1039 C124 1.270 . S
C1053 C81 1.235 . S
C1059 C138 1.267 . S
C1073 C47 0.986 . S
C1079 C152 1.137 . S
C1093 C166 1.146 . S
C1099 C67 1.108 . S
C1113 C172 1.475 . S
C1119 C270 1.456 . S
C1133 C284 1.418 . S
C1139 C186 1.439 . S
C1153 C256 1.345 . S
C1159 C208 1.364 . S
C1173 C222 1.362 . S
C1179 C326 1.350 . S
C1193 C298 1.435 . S
C1199 C228 1.425 . S
C1213 C242 1.479 . S
C1219 C312 1.449 . S
C1233 C264 1.145 . S
C1239 C193 1.107 . S
C1253 C278 1.138 . S
C1259 C201 0.995 . S
C1273 C179 1.247 . S
C1279 C292 1.266 . S
C1293 C249 1.251 . S
C1299 C306 1.270 . S
C1313 C215 0.980 . S
C1319 C320 1.125 . S
C1333 C334 1.145 . S
C1339 C235 1.115 . S
C1353 C438 1.465 . S
C1359 C340 1.469 . S
C1373 C354 1.425 . S
C1379 C452 1.434 . S
C1393 C376 1.367 . S
C1399 C424 1.349 . S
C1413 C494 1.339 . S
C1419 C390 1.358 . S
C1433 C396 1.437 . S
C1439 C466 1.421 . S
C1453 C480 1.456 . S
C1459 C410 1.474 . S
C1473 C361 1.123 . S
C1479 C432 1.155 . S
C1493 C369 1.004 . S
C1499 C446 1.121 . S
C1513 C460 1.265 . S
C1519 C347 1.245 . S
C1533 C474 1.258 . S
C1539 C417 1.222 . S
C1553 C383 0.976 . S
C1559 C488 1.134 . S
C1573 C403 1.136 . S
C1579 C502 1.159 . S
C1593 C12 1.415 . S
C1599 C46 1.417 . S
C1613 C26 1.327 . S
C1619 C68 1.332 . S
C1633 C82 1.417 . S
C1639 C32 1.415 . S
C1653 C89 1.027 . S
C1659 C131 1.036 . S
C1673 C145 1.123 . S
C1679 C103 1.116 1_545 S
C1693 C159 1.061 1_455 S
C1699 C117 1.056 . S
C1713 C180 1.421 . S
C1719 C214 1.410 . S
C1733 C194 1.338 . S
C1739 C236 1.335 . S
C1753 C250 1.413 . S
C1759 C200 1.417 . S
C1773 C257 1.000 . S
C1779 C299 1.002 . S
C1793 C271 1.073 . S
C1799 C313 1.064 . S
C1813 C285 1.047 . S
C1819 C327 1.040 . S
C1833 C382 1.414 . S
C1839 C348 1.418 . S
C1853 C404 1.338 . S
C1859 C362 1.335 . S
C1873 C418 1.415 1_556 S
C1879 C368 1.417 . S
C1893 C425 1.061 . S
C1899 C467 1.044 . S
C1913 C481 1.122 . S
C1919 C439 1.123 . S
C1933 C495 1.050 . S
C1939 C453 1.028 . S
