# Generated by pormake.
# Topology wni, (7)-cn, num edge types: 1
# Building blocks:
#     Node 0, Type 0, BuildingBlock: HICVOG_clean_sbu_0, # of connection points: 7
#     Node 1, Type 0, BuildingBlock: HICVOG_clean_sbu_0, # of connection points: 7
#     Node 2, Type 0, BuildingBlock: HICVOG_clean_sbu_0, # of connection points: 7
#     Node 3, Type 0, BuildingBlock: HICVOG_clean_sbu_0, # of connection points: 7
#     Node 4, Type 0, BuildingBlock: HICVOG_clean_sbu_0, # of connection points: 7
#     Node 5, Type 0, BuildingBlock: HICVOG_clean_sbu_0, # of connection points: 7
#     Edge 6, Type (0, 0), BuildingBlock: MIFKUJ_clean_linker_0, # of connection points: 2
#     Edge 7, Type (0, 0), BuildingBlock: MIFKUJ_clean_linker_0, # of connection points: 2
#     Edge 8, Type (0, 0), BuildingBlock: MIFKUJ_clean_linker_0, # of connection points: 2
#     Edge 9, Type (0, 0), BuildingBlock: MIFKUJ_clean_linker_0, # of connection points: 2
#     Edge 10, Type (0, 0), BuildingBlock: MIFKUJ_clean_linker_0, # of connection points: 2
#     Edge 11, Type (0, 0), BuildingBlock: MIFKUJ_clean_linker_0, # of connection points: 2
#     Edge 12, Type (0, 0), BuildingBlock: MIFKUJ_clean_linker_0, # of connection points: 2
#     Edge 13, Type (0, 0), BuildingBlock: MIFKUJ_clean_linker_0, # of connection points: 2
#     Edge 14, Type (0, 0), BuildingBlock: MIFKUJ_clean_linker_0, # of connection points: 2
#     Edge 15, Type (0, 0), BuildingBlock: MIFKUJ_clean_linker_0, # of connection points: 2
#     Edge 16, Type (0, 0), BuildingBlock: MIFKUJ_clean_linker_0, # of connection points: 2
#     Edge 17, Type (0, 0), BuildingBlock: MIFKUJ_clean_linker_0, # of connection points: 2
#     Edge 18, Type (0, 0), BuildingBlock: MIFKUJ_clean_linker_0, # of connection points: 2
#     Edge 19, Type (0, 0), BuildingBlock: MIFKUJ_clean_linker_0, # of connection points: 2
#     Edge 20, Type (0, 0), BuildingBlock: MIFKUJ_clean_linker_0, # of connection points: 2
#     Edge 21, Type (0, 0), BuildingBlock: MIFKUJ_clean_linker_0, # of connection points: 2
#     Edge 22, Type (0, 0), BuildingBlock: MIFKUJ_clean_linker_0, # of connection points: 2
#     Edge 23, Type (0, 0), BuildingBlock: MIFKUJ_clean_linker_0, # of connection points: 2
#     Edge 24, Type (0, 0), BuildingBlock: MIFKUJ_clean_linker_0, # of connection points: 2
#     Edge 25, Type (0, 0), BuildingBlock: MIFKUJ_clean_linker_0, # of connection points: 2
#     Edge 26, Type (0, 0), BuildingBlock: MIFKUJ_clean_linker_0, # of connection points: 2
# Relax obj value: 0.228
# Max RMSD: 0.178
# Mean RMSD: 0.178
data_MOF--net-wni--node1-HICVOG_clean_sbu_0--edge1-MIFKUJ_clean_linker_0
_symmetry_space_group_name_H-M    P1
_symmetry_Int_Tables_number       1
_symmetry_cell_setting            triclinic
loop_
_symmetry_equiv_pos_as_xyz
'x, y, z'
_cell_length_a     36.271674
_cell_length_b     36.156302
_cell_length_c     41.29976
_cell_angle_alpha  90.012261
_cell_angle_beta   89.666337
_cell_angle_gamma 119.98255
loop_
_atom_site_label
_atom_site_type_symbol
_atom_site_fract_x
_atom_site_fract_y
_atom_site_fract_z
_atom_type_partial_charge
Zn0 Zn 0.12496 0.46573 0.11785 0.0
C1 C 0.08612 0.46276 0.02561 0.0
N2 N 0.05579 0.46966 0.03876 0.0
C3 C 0.06559 0.47719 0.07052 0.0
N4 N 0.10143 0.47417 0.07682 0.0
N5 N 0.1144 0.46539 0.04891 0.0
C6 C 0.17314 0.3805 0.06392 0.0
O7 O 0.18892 0.40142 0.09098 0.0
O8 O 0.10384 0.48614 0.15399 0.0
Zn9 Zn 0.16676 0.45703 0.04691 0.0
N10 N 0.09744 0.40528 0.12533 0.0
C11 C 0.06015 0.33171 0.11108 0.0
C12 C 0.08325 0.37479 0.10201 0.0
C13 C 0.08906 0.39465 0.15697 0.0
N14 N 0.0503 0.32118 0.14287 0.0
C15 C 0.0636 0.35193 0.16604 0.0
O16 O 0.21789 0.48641 0.08063 0.0
C17 C 0.22332 0.49618 0.11072 0.0
O18 O 0.19117 0.49113 0.12729 0.0
H19 H 0.08905 0.38376 0.07677 0.0
H20 H 0.10111 0.41968 0.17495 0.0
C21 C 0.20141 0.45493 0.98703 0.0
C22 C 0.22894 0.47154 0.96054 0.0
C23 C 0.23746 0.5398 0.97166 0.0
C24 C 0.21275 0.52356 0.99971 0.0
N25 N 0.19495 0.48129 1.00658 0.0
N26 N 0.24579 0.51369 0.95312 0.0
H27 H 0.18705 0.42157 0.99296 0.0
C28 C 0.1265 0.52358 0.16472 0.0
O29 O 0.16234 0.54999 0.14991 0.0
O30 O 0.15537 0.39419 0.04434 0.0
H31 H 0.20783 0.54428 1.01587 0.0
H32 H 0.04894 0.30694 0.09291 0.0
H33 H 0.25143 0.57323 0.96545 0.0
Zn34 Zn 0.60088 0.71433 0.70994 0.0
C35 C 0.59998 0.60249 0.73677 0.0
N36 N 0.60789 0.60023 0.70513 0.0
C37 C 0.61356 0.63672 0.69136 0.0
N38 N 0.60825 0.66157 0.71442 0.0
N39 N 0.6008 0.64049 0.74272 0.0
C40 C 0.52704 0.59433 0.80518 0.0
O41 O 0.5151 0.60586 0.77887 0.0
O42 O 0.65247 0.76999 0.69075 0.0
Zn43 Zn 0.60165 0.6662 0.78608 0.0
N44 N 0.5515 0.69631 0.68288 0.0
C45 C 0.49228 0.64673 0.65161 0.0
C46 C 0.53006 0.65777 0.66786 0.0
C47 C 0.53578 0.7233 0.68334 0.0
N48 N 0.4765 0.67381 0.65225 0.0
C49 C 0.49696 0.71157 0.66838 0.0
O50 O 0.58294 0.7122 0.79641 0.0
C51 C 0.57793 0.73947 0.78021 0.0
O52 O 0.58368 0.74103 0.74955 0.0
H53 H 0.54154 0.63545 0.66883 0.0
H54 H 0.55341 0.7536 0.69565 0.0
C55 C 0.66805 0.68857 0.8316 0.0
C56 C 0.71053 0.70771 0.8418 0.0
C57 C 0.73356 0.73145 0.78799 0.0
C58 C 0.69134 0.71231 0.77802 0.0
N59 N 0.65955 0.69139 0.80005 0.0
N60 N 0.74219 0.72892 0.8196 0.0
H61 H 0.64183 0.6725 0.84851 0.0
C62 C 0.67541 0.79879 0.71135 0.0
O63 O 0.67018 0.78823 0.74215 0.0
O64 O 0.56487 0.61728 0.81502 0.0
H65 H 0.68388 0.71434 0.753 0.0
H66 H 0.47518 0.61649 0.63915 0.0
H67 H 0.75929 0.74844 0.77082 0.0
Zn68 Zn 0.40943 0.95775 0.45645 0.0
C69 C 0.44284 0.99702 0.36254 0.0
N70 N 0.48081 0.0262 0.37524 0.0
C71 C 0.47767 1.01727 0.40727 0.0
N72 N 0.43814 0.98261 0.41412 0.0
N73 N 0.41605 0.97014 0.38643 0.0
C74 C 0.27212 0.91204 0.38976 0.0
O75 O 0.27702 0.90641 0.4205 0.0
O76 O 0.45181 0.98042 0.49234 0.0
Zn77 Zn 0.35555 0.91673 0.38481 0.0
N78 N 0.3731 0.98078 0.46645 0.0
C79 C 0.32731 1.00869 0.45561 0.0
C80 C 0.35274 0.99217 0.44455 0.0
C81 C 0.36956 0.98564 0.49861 0.0
N82 N 0.32449 1.01431 0.48797 0.0
C83 C 0.34571 1.00371 0.50977 0.0
O84 O 0.32932 0.87218 0.42395 0.0
C85 C 0.33713 0.86339 0.45219 0.0
O86 O 0.37125 0.89104 0.46621 0.0
H87 H 0.35597 0.98824 0.41892 0.0
H88 H 0.38534 0.97539 0.51549 0.0
C89 C 0.31787 0.84452 0.34953 0.0
C90 C 0.31146 0.8128 0.32721 0.0
C91 C 0.38393 0.85468 0.31075 0.0
C92 C 0.38997 0.88589 0.33336 0.0
N93 N 0.35649 0.88018 0.35189 0.0
N94 N 0.34502 0.81895 0.30829 0.0
H95 H 0.2931 0.841 0.36598 0.0
C96 C 0.46935 0.95985 0.50227 0.0
O97 O 0.46488 0.92702 0.48544 0.0
O98 O 0.30374 0.92325 0.37041 0.0
H99 H 0.42096 0.91375 0.33639 0.0
H100 H 0.31039 1.01743 0.43859 0.0
H101 H 0.41005 0.85852 0.29559 0.0
Zn102 Zn 0.46385 0.14629 0.98573 0.0
C103 C 0.48341 0.04476 0.96133 0.0
N104 N 0.48137 0.03784 0.99357 0.0
C105 C 0.47347 0.06734 1.00708 0.0
N106 N 0.47146 0.09333 0.98345 0.0
N107 N 0.47779 0.07919 0.95506 0.0
C108 C 0.54084 0.09226 0.88355 0.0
O109 O 0.5596 0.10009 0.91183 0.0
O110 O 0.40148 0.13395 0.99078 0.0
Zn111 Zn 0.47388 0.10452 0.91301 0.0
N112 N 0.48853 0.1765 0.02495 0.0
C113 C 0.53071 0.19843 0.07245 0.0
C114 C 0.51735 0.1739 0.04425 0.0
C115 C 0.47429 0.20388 0.03165 0.0
N116 N 0.51584 0.22549 0.07935 0.0
C117 C 0.4882 0.22924 0.05927 0.0
O118 O 0.49403 0.16992 0.90449 0.0
C119 C 0.49923 0.20227 0.92074 0.0
O120 O 0.49113 0.19741 0.95114 0.0
H121 H 0.52981 0.15325 0.03788 0.0
H122 H 0.45211 0.20574 1.01533 0.0
C123 C 0.40993 0.06569 0.86684 0.0
C124 C 0.36881 0.03985 0.85462 0.0
C125 C 0.34124 0.0305 0.90822 0.0
C126 C 0.38242 0.05528 0.9202 0.0
N127 N 0.41582 0.07225 0.89917 0.0
N128 N 0.33538 0.02325 0.87583 0.0
H129 H 0.43738 0.08094 0.851 0.0
C130 C 0.38575 0.14839 0.97002 0.0
O131 O 0.40369 0.15947 0.94128 0.0
O132 O 0.50656 0.09299 0.88009 0.0
H133 H 0.38779 0.06081 0.94592 0.0
H134 H 0.55306 0.19637 0.08852 0.0
H135 H 0.31417 1.01682 0.92454 0.0
Zn136 Zn 0.93043 0.33822 0.64947 0.0
C137 C 0.03291 0.45918 0.62816 0.0
N138 N 0.04284 0.46095 0.65959 0.0
C139 C 1.01415 0.42264 0.67243 0.0
N140 N 0.98572 0.39692 0.64885 0.0
N141 N 0.99796 0.42017 0.62147 0.0
C142 C 0.96452 0.4737 0.57821 0.0
O143 O 0.94926 0.45639 0.60667 0.0
O144 O 0.93289 0.28354 0.6626 0.0
Zn145 Zn 0.97234 0.4018 0.57771 0.0
N146 N 0.89343 0.34206 0.68023 0.0
C147 C 0.86351 0.37434 0.71311 0.0
C148 C 0.8965 0.378 0.69323 0.0
C149 C 0.8589 0.30326 0.68533 0.0
N150 N 0.82872 0.33517 0.71828 0.0
C151 C 0.82532 0.29941 0.70436 0.0
O152 O 0.90856 0.35443 0.5668 0.0
C153 C 0.87976 0.32124 0.58133 0.0
O154 O 0.88694 0.31428 0.61029 0.0
H155 H 0.9239 0.4089 0.68805 0.0
H156 H 0.85799 0.27569 0.67434 0.0
C157 C 1.00637 0.37998 0.52297 0.0
C158 C 1.03134 0.36533 0.50757 0.0
C159 C 0.05866 0.36096 0.55863 0.0
C160 C 0.03367 0.37519 0.57375 0.0
N161 N 1.00821 0.3846 0.55563 0.0
N162 N 0.05679 0.35619 0.52602 0.0
H163 H 0.98472 0.38647 0.50952 0.0
C164 C 0.92389 0.25509 0.64079 0.0
O165 O 0.92546 0.26632 0.61035 0.0
O166 O 0.9774 0.45509 0.55884 0.0
H167 H 0.03432 0.37827 0.59978 0.0
H168 H 0.86533 0.40237 0.72408 0.0
H169 H 0.07906 0.35333 0.5727 0.0
Zn170 Zn 0.6875 0.59828 0.24069 0.0
C171 C 0.65508 0.60952 0.3341 0.0
N172 N 0.61855 0.60297 0.31997 0.0
C173 C 0.62226 0.59536 0.28847 0.0
N174 N 0.66073 0.5974 0.28313 0.0
N175 N 0.68139 0.6058 0.31136 0.0
C176 C 0.81861 0.67908 0.32047 0.0
O177 O 0.8105 0.68378 0.29028 0.0
O178 O 0.63948 0.57128 0.20981 0.0
Zn179 Zn 0.73502 0.59971 0.31464 0.0
N180 N 0.72071 0.65682 0.22789 0.0
C181 C 0.75764 0.73172 0.237 0.0
C182 C 0.73418 0.69 0.24884 0.0
C183 C 0.73004 0.66334 0.1959 0.0
N184 N 0.76646 0.73832 0.20477 0.0
C185 C 0.75354 0.70505 0.18384 0.0
O186 O 0.76379 0.58488 0.27532 0.0
C187 C 0.75846 0.57322 0.24565 0.0
O188 O 0.72719 0.5719 0.23044 0.0
H189 H 0.72661 0.68417 0.27436 0.0
H190 H 0.71798 0.63598 0.18002 0.0
C191 C 0.73677 0.54925 0.36584 0.0
C192 C 0.71825 0.51618 0.38852 0.0
C193 C 0.65534 0.48246 0.35752 0.0
C194 C 0.67349 0.51614 0.33528 0.0
N195 N 0.71353 0.5492 0.3404 0.0
N196 N 0.67783 0.48358 0.38407 0.0
H197 H 0.76823 0.57639 0.36961 0.0
C198 C 0.61176 0.53295 0.21608 0.0
O199 O 0.61759 0.51377 0.24093 0.0
O200 O 0.78941 0.6485 0.33717 0.0
H201 H 0.65533 0.51675 0.31481 0.0
H202 H 0.76845 0.75861 0.25322 0.0
H203 H 0.62326 0.45629 0.35417 0.0
H204 H 0.61335 0.64538 0.24051 0.0
H205 H 0.54939 0.63004 0.20925 0.0
H206 H 0.48166 0.50465 0.25179 0.0
H207 H 0.54498 0.52054 0.28371 0.0
H208 H 0.45925 0.50051 0.1855 0.0
H209 H 0.46468 0.58382 0.27851 0.0
H210 H 0.49767 0.64657 0.31441 0.0
H211 H 0.50721 0.72777 0.23511 0.0
H212 H 0.4748 0.66554 0.19863 0.0
H213 H 0.24823 0.51788 0.17544 0.0
H214 H 0.31528 0.53438 0.20193 0.0
H215 H 0.36538 0.52175 0.1105 0.0
H216 H 0.2983 0.50447 0.0842 0.0
H217 H 0.39638 0.5934 0.20149 0.0
H218 H 0.44008 0.50158 0.11544 0.0
H219 H 0.40553 0.44063 0.07782 0.0
H220 H 0.29852 0.37757 0.14252 0.0
H221 H 0.33208 0.43868 0.18014 0.0
C222 C 0.58518 0.61419 0.24285 0.0
C223 C 0.58561 0.58402 0.26449 0.0
C224 C 0.54797 0.60539 0.22496 0.0
C225 C 0.50925 0.56583 0.22756 0.0
C226 C 0.51018 0.53538 0.24858 0.0
C227 C 0.54698 0.54455 0.26698 0.0
C228 C 0.46776 0.55686 0.2099 0.0
C229 C 0.44621 0.52143 0.1889 0.0
C230 C 0.4486 0.5828 0.21386 0.0
C231 C 0.4677 0.6201 0.2358 0.0
C232 C 0.47409 0.6151 0.26869 0.0
C233 C 0.49264 0.65056 0.28915 0.0
C234 C 0.50462 0.69115 0.27703 0.0
C235 C 0.49796 0.69633 0.24445 0.0
C236 C 0.47948 0.66097 0.22388 0.0
C237 C 0.27341 0.51865 0.16073 0.0
C238 C 0.26657 0.50955 0.12716 0.0
C239 C 0.3124 0.52824 0.17614 0.0
C240 C 0.34674 0.52884 0.15903 0.0
C241 C 0.34016 0.52062 0.12533 0.0
C242 C 0.30125 0.51108 0.10992 0.0
C243 C 0.38863 0.53789 0.17624 0.0
C244 C 0.40997 0.57301 0.19752 0.0
C245 C 0.40803 0.51215 0.17209 0.0
C246 C 0.38855 0.47456 0.15052 0.0
C247 C 0.40923 0.47464 0.12163 0.0
C248 C 0.38962 0.4403 0.10017 0.0
C249 C 0.34982 0.40527 0.10776 0.0
C250 C 0.32936 0.4047 0.1367 0.0
C251 C 0.34852 0.43928 0.15799 0.0
H252 H 0.33487 0.37855 0.09127 0.0
H253 H 0.51898 0.71857 0.29291 0.0
H254 H 0.55098 0.79307 0.75372 0.0
H255 H 0.53078 0.84063 0.78026 0.0
H256 H 0.56395 0.81041 0.8727 0.0
H257 H 0.57952 0.7591 0.84615 0.0
H258 H 0.51049 0.82556 0.88962 0.0
H259 H 0.62516 0.92318 0.8201 0.0
H260 H 0.66447 0.94855 0.76837 0.0
H261 H 0.55574 0.94513 0.72468 0.0
H262 H 0.51602 0.92045 0.77634 0.0
H263 H 0.53397 1.00997 0.97242 0.0
H264 H 0.5465 0.96034 0.94072 0.0
H265 H 0.46566 0.96162 0.8655 0.0
H266 H 0.45193 1.01115 0.89808 0.0
H267 H 0.53804 0.96065 0.83799 0.0
H268 H 0.43199 0.87475 0.9168 0.0
H269 H 0.40133 0.85486 0.97178 0.0
H270 H 0.50756 0.84219 1.00203 0.0
H271 H 0.53917 0.86261 0.94733 0.0
C272 C 0.55343 0.79586 0.77977 0.0
C273 C 0.5666 0.77081 0.79725 0.0
C274 C 0.54273 0.82457 0.79531 0.0
C275 C 0.5466 0.83186 0.8293 0.0
C276 C 0.56004 0.80678 0.84673 0.0
C277 C 0.56936 0.77697 0.83125 0.0
C278 C 0.53609 0.86419 0.84664 0.0
C279 C 0.51773 0.85539 0.87814 0.0
C280 C 0.54372 0.90381 0.83278 0.0
C281 C 0.5676 0.91973 0.80196 0.0
C282 C 0.60972 0.92797 0.79945 0.0
C283 C 0.63208 0.94233 0.7702 0.0
C284 C 0.6126 0.94848 0.74327 0.0
C285 C 0.57079 0.94043 0.74558 0.0
C286 C 0.54843 0.92656 0.7749 0.0
C287 C 0.51874 1.00017 0.94905 0.0
C288 C 0.49251 1.01638 0.93813 0.0
C289 C 0.52594 0.97109 0.93069 0.0
C290 C 0.50718 0.95584 0.90011 0.0
C291 C 0.48111 0.97217 0.88871 0.0
C292 C 0.47341 1.00119 0.90747 0.0
C293 C 0.5145 0.92269 0.8812 0.0
C294 C 0.53179 0.93117 0.84946 0.0
C295 C 0.50742 0.88357 0.89529 0.0
C296 C 0.4881 0.87053 0.92802 0.0
C297 C 0.44892 0.86795 0.93522 0.0
C298 C 0.43137 0.85656 0.96633 0.0
C299 C 0.45253 0.84737 0.9904 0.0
C300 C 0.49122 0.84936 0.98337 0.0
C301 C 0.50895 0.86079 0.9523 0.0
H302 H 0.43893 0.83863 1.01449 0.0
H303 H 0.62991 0.95945 0.72062 0.0
H304 H 0.24942 0.8137 0.44408 0.0
H305 H 0.19749 0.74878 0.47233 0.0
H306 H 0.29853 0.74843 0.52618 0.0
H307 H 0.35011 0.81599 0.50016 0.0
H308 H 0.24046 0.71741 0.56508 0.0
H309 H 0.10107 0.65534 0.47957 0.0
H310 H 0.0818 0.65485 0.42234 0.0
H311 H 0.20358 0.67392 0.39235 0.0
H312 H 0.22349 0.67405 0.44952 0.0
H313 H 0.06008 0.54275 0.64239 0.0
H314 H 0.1073 0.60804 0.61266 0.0
H315 H 0.11523 0.53318 0.53471 0.0
H316 H 0.06626 0.46727 0.56434 0.0
H317 H 0.1192 0.59949 0.50767 0.0
H318 H 0.20154 0.59604 0.59911 0.0
H319 H 0.21268 0.59098 0.65749 0.0
H320 H 0.1991 0.70051 0.67585 0.0
H321 H 0.18778 0.70612 0.61758 0.0
C322 C 0.26095 0.79992 0.46185 0.0
C323 C 0.30497 0.82104 0.46912 0.0
C324 C 0.23069 0.76164 0.47798 0.0
C325 C 0.24267 0.74084 0.50133 0.0
C326 C 0.28684 0.76224 0.50863 0.0
C327 C 0.31698 0.8014 0.49331 0.0
C328 C 0.20998 0.69821 0.51858 0.0
C329 C 0.21432 0.69195 0.55196 0.0
C330 C 0.17409 0.66337 0.5031 0.0
C331 C 0.16387 0.66514 0.46875 0.0
C332 C 0.12379 0.6596 0.46074 0.0
C333 C 0.11273 0.65932 0.42842 0.0
C334 C 0.14142 0.66442 0.40387 0.0
C335 C 0.18144 0.67008 0.4115 0.0
C336 C 0.19267 0.67027 0.44388 0.0
C337 C 0.07133 0.53978 0.61872 0.0
C338 C 0.05813 0.49859 0.60614 0.0
C339 C 0.09937 0.57783 0.60164 0.0
C340 C 0.11724 0.57722 0.57123 0.0
C341 C 0.10304 0.53596 0.55802 0.0
C342 C 0.07433 0.4976 0.57507 0.0
C343 C 0.15017 0.61904 0.55363 0.0
C344 C 0.1458 0.62504 0.52042 0.0
C345 C 0.18548 0.65387 0.56932 0.0
C346 C 0.19366 0.65137 0.60408 0.0
C347 C 0.20095 0.61902 0.61563 0.0
C348 C 0.20724 0.61603 0.64868 0.0
C349 C 0.20645 0.64532 0.67037 0.0
C350 C 0.19955 0.67777 0.65904 0.0
C351 C 0.19336 0.68097 0.626 0.0
H352 H 0.21134 0.64295 0.69594 0.0
H353 H 0.13222 0.66364 0.37901 0.0
H354 H 0.55861 0.51813 0.72056 0.0
H355 H 0.545 0.45519 0.7507 0.0
H356 H 0.6014 0.53232 0.8353 0.0
H357 H 0.62024 0.59682 0.80316 0.0
H358 H 0.61346 0.47537 0.84683 0.0
H359 H 0.4778 0.44761 0.81157 0.0
H360 H 0.41965 0.438 0.77557 0.0
H361 H 0.42772 0.33848 0.72502 0.0
H362 H 0.48601 0.3478 0.76075 0.0
H363 H 0.51856 0.28171 0.94695 0.0
H364 H 0.53531 0.34859 0.91923 0.0
H365 H 0.52343 0.28834 0.82702 0.0
H366 H 0.50707 0.22165 0.85462 0.0
H367 H 0.48577 0.33617 0.82291 0.0
H368 H 0.62389 0.36766 0.86243 0.0
H369 H 0.67502 0.37557 0.90477 0.0
H370 H 0.65296 0.46756 0.95381 0.0
H371 H 0.60133 0.45981 0.91194 0.0
C372 C 0.56785 0.52222 0.74577 0.0
C373 C 0.58864 0.56379 0.75928 0.0
C374 C 0.5591 0.4851 0.76365 0.0
C375 C 0.56909 0.48639 0.79689 0.0
C376 C 0.59149 0.5283 0.81028 0.0
C377 C 0.60152 0.56597 0.79188 0.0
C378 C 0.55777 0.44487 0.81664 0.0
C379 C 0.58493 0.44545 0.84152 0.0
C380 C 0.52083 0.40386 0.81089 0.0
C381 C 0.48643 0.39869 0.78882 0.0
C382 C 0.46716 0.42381 0.79279 0.0
C383 C 0.43421 0.41841 0.77241 0.0
C384 C 0.42002 0.38767 0.74799 0.0
C385 C 0.43876 0.36231 0.74393 0.0
C386 C 0.47174 0.36764 0.76428 0.0
C387 C 0.51991 0.2825 0.92074 0.0
C388 C 0.51165 0.24515 0.90355 0.0
C389 C 0.52972 0.32142 0.90464 0.0
C390 C 0.5315 0.32518 0.87037 0.0
C391 C 0.52275 0.28771 0.85324 0.0
C392 C 0.51346 0.249 0.86931 0.0
C393 C 0.54154 0.36712 0.85239 0.0
C394 C 0.51412 0.36642 0.82795 0.0
C395 C 0.57734 0.40806 0.85921 0.0
C396 C 0.60851 0.41288 0.88422 0.0
C397 C 0.62976 0.38937 0.88235 0.0
C398 C 0.65886 0.39385 0.90625 0.0
C399 C 0.66716 0.42197 0.93201 0.0
C400 C 0.64647 0.44575 0.93387 0.0
C401 C 0.61733 0.44136 0.91005 0.0
H402 H 0.68968 0.42539 0.95048 0.0
H403 H 0.39449 0.38349 0.73223 0.0
H404 H 0.52155 0.10504 0.41113 0.0
H405 H 0.58643 0.15337 0.44094 0.0
H406 H 0.58644 0.04535 0.4844 0.0
H407 H 0.52313 0.99693 0.45233 0.0
H408 H 0.60866 0.12106 0.53126 0.0
H409 H 0.65385 0.09201 0.42848 0.0
H410 H 0.65484 0.0883 0.36889 0.0
H411 H 0.6974 0.22228 0.36248 0.0
H412 H 0.69602 0.22663 0.42206 0.0
H413 H 0.81769 0.23898 0.59988 0.0
H414 H 0.7521 0.18801 0.57288 0.0
H415 H 0.77735 0.27929 0.4969 0.0
H416 H 0.84463 0.32977 0.52319 0.0
H417 H 0.74014 0.2106 0.4675 0.0
H418 H 0.68592 0.24229 0.56299 0.0
H419 H 0.68799 0.25557 0.62177 0.0
H420 H 0.66561 0.1295 0.64099 0.0
H421 H 0.66025 0.11422 0.58243 0.0
C422 C 0.53457 0.0912 0.42754 0.0
C423 C 0.51428 0.04612 0.43047 0.0
C424 C 0.57236 0.11931 0.44471 0.0
C425 C 0.5923 0.10411 0.46599 0.0
C426 C 0.57212 0.05903 0.46913 0.0
C427 C 0.53473 0.03083 0.45121 0.0
C428 C 0.63496 0.13509 0.483 0.0
C429 C 0.63737 0.13998 0.5171 0.0
C430 C 0.67326 0.16205 0.46548 0.0
C431 C 0.67443 0.15955 0.42972 0.0
C432 C 0.66307 0.1206 0.41436 0.0
C433 C 0.66377 0.1184 0.38058 0.0
C434 C 0.67607 0.15501 0.3619 0.0
C435 C 0.68782 0.19393 0.37697 0.0
C436 C 0.68712 0.19629 0.41075 0.0
C437 C 0.80952 0.24868 0.57748 0.0
C438 C 0.83756 0.28961 0.56437 0.0
C439 C 0.77093 0.21906 0.56188 0.0
C440 C 0.75717 0.22875 0.53257 0.0
C441 C 0.78555 0.26962 0.51927 0.0
C442 C 0.82461 0.2991 0.53464 0.0
C443 C 0.71425 0.19665 0.51591 0.0
C444 C 0.71161 0.19165 0.48181 0.0
C445 C 0.67542 0.17058 0.53331 0.0
C446 C 0.67293 0.17723 0.5684 0.0
C447 C 0.68047 0.21705 0.57983 0.0
C448 C 0.68187 0.22477 0.61309 0.0
C449 C 0.6762 0.19304 0.63514 0.0
C450 C 0.66852 0.15338 0.62393 0.0
C451 C 0.66592 0.14503 0.59071 0.0
H452 H 0.67808 0.19927 0.66089 0.0
H453 H 0.67659 0.15324 0.33576 0.0
H454 H 0.08402 0.5385 0.1199 0.0
H455 H 0.03434 0.55192 0.15228 0.0
H456 H 0.92909 0.45255 0.10032 0.0
H457 H 0.97815 0.4365 0.07065 0.0
H458 H 0.93495 0.54213 0.10487 0.0
H459 H 0.93214 0.42918 0.1669 0.0
H460 H 0.95458 0.38972 0.2027 0.0
H461 H 0.98566 0.48364 0.27696 0.0
H462 H 0.96665 0.52548 0.2408 0.0
H463 H 0.75487 0.53966 0.18369 0.0
H464 H 0.80505 0.52298 0.15654 0.0
H465 H 0.88607 0.56638 0.24019 0.0
H466 H 0.83499 0.58147 0.26781 0.0
H467 H 0.89378 0.50549 0.21991 0.0
H468 H 0.90471 0.62257 0.15745 0.0
H469 H 0.87679 0.66041 0.12501 0.0
H470 H 0.82776 0.55918 0.05516 0.0
H471 H 0.855 0.52053 0.08732 0.0
C472 C 0.05026 0.51739 0.11699 0.0
C473 C 0.03592 0.4841 0.09388 0.0
C474 C 1.02142 0.52602 0.13497 0.0
C475 C 0.97681 0.50319 0.12956 0.0
C476 C 0.9627 0.47084 0.10583 0.0
C477 C 0.99127 0.46141 0.08876 0.0
C478 C 0.94514 0.51374 0.14711 0.0
C479 C 0.9261 0.53382 0.13005 0.0
C480 C 0.93289 0.50401 0.18034 0.0
C481 C 0.94874 0.48109 0.2007 0.0
C482 C 0.94527 0.44238 0.19034 0.0
C483 C 0.95727 0.41944 0.2108 0.0
C484 C 0.97177 0.43432 0.24198 0.0
C485 C 0.97466 0.47229 0.2527 0.0
C486 C 0.96384 0.49592 0.23208 0.0
C487 C 0.78328 0.54573 0.19654 0.0
C488 C 0.7899 0.5622 0.22846 0.0
C489 C 0.8128 0.53648 0.18059 0.0
C490 C 0.85123 0.54393 0.19531 0.0
C491 C 0.85752 0.55996 0.22739 0.0
C492 C 0.82781 0.56883 0.24346 0.0
C493 C 0.88415 0.53463 0.17797 0.0
C494 C 0.90324 0.51452 0.19491 0.0
C495 C 0.89687 0.54476 0.14479 0.0
C496 C 0.88153 0.56846 0.12496 0.0
C497 C 0.88787 0.60833 0.13521 0.0
C498 C 0.87217 0.62992 0.11689 0.0
C499 C 0.85034 0.6121 0.08814 0.0
C500 C 0.84457 0.57288 0.07748 0.0
C501 C 0.86019 0.55115 0.09572 0.0
H502 H 0.83787 0.62865 0.07414 0.0
H503 H 0.98065 0.41642 0.25791 0.0
H504 H 0.34114 0.17262 0.93067 0.0
H505 H 0.29969 0.20636 0.9459 0.0
H506 H 0.32035 0.19262 0.04679 0.0
H507 H 0.36165 0.15821 0.03165 0.0
H508 H 0.23938 0.17644 0.03708 0.0
H509 H 0.37943 0.28672 1.00553 0.0
H510 H 0.4415 0.32325 0.96882 0.0
H511 H 0.36427 0.33948 0.89836 0.0
H512 H 0.30165 0.30268 0.93438 0.0
H513 H 0.20458 0.34076 0.10192 0.0
H514 H 0.23389 0.29585 0.08496 0.0
H515 H 0.19993 0.30234 0.98617 0.0
H516 H 0.16946 0.34661 1.00312 0.0
H517 H 0.28538 0.32095 0.99332 0.0
H518 H 0.14606 0.21325 0.02524 0.0
H519 H 0.08376 0.17667 0.06148 0.0
H520 H 0.15906 0.15558 0.13089 0.0
H521 H 0.22192 0.19243 0.09525 0.0
C522 C 0.33637 0.17607 0.95617 0.0
C523 C 0.35479 0.16241 0.97988 0.0
C524 C 0.31283 0.19577 0.96486 0.0
C525 C 0.30729 0.20289 0.99754 0.0
C526 C 0.32407 0.18766 0.02139 0.0
C527 C 0.34758 0.16773 1.01268 0.0
C528 C 0.28511 0.22719 1.00666 0.0
C529 C 0.24979 0.20821 0.02774 0.0
C530 C 0.2978 0.26842 0.99396 0.0
C531 C 0.33569 0.29141 0.97253 0.0
C532 C 0.37564 0.29789 0.98214 0.0
C533 C 0.41094 0.31875 0.9615 0.0
C534 C 0.4068 0.33371 0.93132 0.0
C535 C 0.36742 0.32799 0.92177 0.0
C536 C 0.33201 0.30713 0.94229 0.0
C537 C 0.20246 0.33201 0.07663 0.0
C538 C 0.18445 0.34749 0.05395 0.0
C539 C 0.21944 0.30632 0.06695 0.0
C540 C 0.21928 0.29556 0.03423 0.0
C541 C 0.20054 0.31014 1.01155 0.0
C542 C 0.18281 0.33529 0.02134 0.0
C543 C 0.23984 0.27027 0.02382 0.0
C544 C 0.27486 0.28908 1.0025 0.0
C545 C 0.22694 0.229 0.03634 0.0
C546 C 0.18903 0.20639 0.05777 0.0
C547 C 0.14951 0.20128 0.04839 0.0
C548 C 0.11401 0.18034 0.06879 0.0
C549 C 0.11749 0.16401 0.09855 0.0
C550 C 0.15644 0.1684 0.10789 0.0
C551 C 0.19204 0.18933 0.08758 0.0
H552 H 0.08997 0.1478 0.11431 0.0
H553 H 0.43414 0.3498 0.91537 0.0
H554 H 0.89951 0.18858 0.59866 0.0
H555 H 0.85915 0.11214 0.60976 0.0
H556 H 0.86085 0.13741 0.71168 0.0
H557 H 0.90119 0.21477 0.70084 0.0
H558 H 0.8738 0.07159 0.70194 0.0
H559 H 0.77344 0.11068 0.66226 0.0
H560 H 0.74504 0.14114 0.6228 0.0
H561 H 0.73341 0.04909 0.55202 0.0
H562 H 0.76326 1.01906 0.59049 0.0
H563 H 0.71421 0.86669 0.75222 0.0
H564 H 0.75635 0.94219 0.73952 0.0
H565 H 0.74371 0.91316 0.63754 0.0
H566 H 0.69941 0.83656 0.65027 0.0
H567 H 0.73645 0.98095 0.64655 0.0
H568 H 0.83954 0.94454 0.68254 0.0
H569 H 0.87089 0.91419 0.7194 0.0
H570 H 0.87846 0.99978 0.79454 0.0
H571 H 0.84665 0.03028 0.75826 0.0
C572 C 0.89169 0.1782 0.6236 0.0
C573 C 0.90387 0.20837 0.64883 0.0
C574 C 0.86814 0.13414 0.62987 0.0
C575 C 0.85578 0.1186 0.66159 0.0
C576 C 0.86936 0.14849 0.68701 0.0
C577 C 0.89277 0.1928 0.68076 0.0
C578 C 0.82879 0.07136 0.66816 0.0
C579 C 0.84352 0.05198 0.69008 0.0
C580 C 0.78961 0.04501 0.65214 0.0
C581 C 0.77113 0.06291 0.62919 0.0
C582 C 0.76527 0.09719 0.63818 0.0
C583 C 0.74887 0.11437 0.61599 0.0
C584 C 0.73741 0.09704 0.58497 0.0
C585 C 0.74234 0.06251 0.57605 0.0
C586 C 0.75912 0.04548 0.598 0.0
C587 C 0.72052 0.87596 0.72697 0.0
C588 C 0.70359 0.84495 0.7023 0.0
C589 C 0.74502 0.9196 0.71972 0.0
C590 C 0.75448 0.93403 0.68752 0.0
C591 C 0.73736 0.90323 0.66266 0.0
C592 C 0.71217 0.85926 0.66994 0.0
C593 C 0.78163 0.98114 0.68018 0.0
C594 C 0.76682 1.00054 0.65829 0.0
C595 C 0.82099 1.00752 0.69595 0.0
C596 C 0.84039 0.98944 0.71776 0.0
C597 C 0.84765 0.95671 0.70699 0.0
C598 C 0.86554 0.9395 0.72777 0.0
C599 C 0.87657 0.95498 0.75932 0.0
C600 C 0.86986 0.98779 0.77011 0.0
C601 C 0.85195 1.00509 0.74944 0.0
H602 H 0.8904 0.94161 0.77537 0.0
H603 H 0.72476 0.11032 0.56778 0.0
H604 H 0.87443 0.76347 0.30909 0.0
H605 H 0.95036 0.80413 0.32106 0.0
H606 H 0.94222 0.69305 0.36702 0.0
H607 H 0.86521 0.65344 0.35724 0.0
H608 H 0.99975 0.75195 0.39603 0.0
H609 H 0.98459 0.73166 0.28401 0.0
H610 H 0.95905 0.73021 0.22857 0.0
H611 H 1.01534 0.86665 0.22973 0.0
H612 H 0.04079 0.86885 0.28537 0.0
H613 H 0.23551 0.87286 0.33185 0.0
H614 H 0.15928 0.8347 0.31874 0.0
H615 H 0.13217 0.87811 0.40823 0.0
H616 H 0.20768 0.91462 0.42185 0.0
H617 H 0.09453 0.84684 0.3088 0.0
H618 H 0.0487 0.80546 0.44451 0.0
H619 H 0.08565 0.79991 0.49274 0.0
H620 H 0.15863 0.76279 0.43254 0.0
H621 H 0.12154 0.76713 0.38433 0.0
C622 C 0.88865 0.74796 0.32236 0.0
C623 C 0.86348 0.70519 0.33231 0.0
C624 C 0.93254 0.7711 0.32877 0.0
C625 C 0.95338 0.75173 0.34399 0.0
C626 C 0.92778 0.70929 0.35509 0.0
C627 C 0.88344 0.68649 0.34957 0.0
C628 C 1.00151 0.77553 0.34763 0.0
C629 C 1.02004 0.77254 0.37677 0.0
C630 C 1.02953 0.80135 0.32235 0.0
C631 C 1.01413 0.80036 0.289 0.0
C632 C 0.99121 0.76132 0.27254 0.0
C633 C 0.97682 0.76037 0.24106 0.0
C634 C 0.98544 0.79831 0.22568 0.0
C635 C 1.00861 0.83729 0.24171 0.0
C636 C 1.02306 0.83841 0.27321 0.0
C637 C 0.21338 0.8751 0.34834 0.0
C638 C 0.22789 0.89695 0.37793 0.0
C639 C 0.16957 0.85299 0.34089 0.0
C640 C 0.13924 0.85239 0.36276 0.0
C641 C 0.15431 0.87684 0.39118 0.0
C642 C 0.19777 0.89819 0.39886 0.0
C643 C 0.09194 0.8243 0.35732 0.0
C644 C 0.07379 0.82634 0.32793 0.0
C645 C 0.06463 0.79527 0.38135 0.0
C646 C 0.08269 0.78713 0.41082 0.0
C647 C 0.07217 0.79549 0.4417 0.0
C648 C 0.0934 0.79287 0.46903 0.0
C649 C 0.12501 0.78172 0.46572 0.0
C650 C 0.1346 0.77196 0.43518 0.0
C651 C 0.11331 0.77425 0.40788 0.0
H652 H 0.14156 0.77993 0.48686 0.0
H653 H 0.97427 0.79751 0.2013 0.0
H654 H 0.04272 0.30595 0.47593 0.0
H655 H 0.04144 0.29416 0.41765 0.0
H656 H 1.01599 0.39706 0.40092 0.0
H657 H 1.01729 0.40922 0.45916 0.0
H658 H 0.96596 0.32826 0.36404 0.0
H659 H 0.11388 0.41313 0.38897 0.0
H660 H 0.18051 0.43264 0.41773 0.0
H661 H 0.17419 0.31654 0.38591 0.0
H662 H 0.10718 0.29609 0.35725 0.0
H663 H 0.03544 0.39281 0.20523 0.0
H664 H 1.02314 0.3838 0.26329 0.0
H665 H 0.0451 0.27707 0.26193 0.0
H666 H 0.05991 0.28748 0.20331 0.0
H667 H 0.09177 0.33739 0.30818 0.0
H668 H 0.94572 0.26062 0.27525 0.0
H669 H 0.88344 0.25005 0.24407 0.0
H670 H 0.88995 0.36013 0.2892 0.0
H671 H 0.95266 0.37179 0.32028 0.0
C672 C 0.03687 0.32612 0.45987 0.0
C673 C 1.02972 0.35825 0.47223 0.0
C674 C 0.03613 0.31931 0.4266 0.0
C675 C 1.02877 0.34484 0.40508 0.0
C676 C 1.02136 0.37679 0.41725 0.0
C677 C 1.02195 0.38356 0.45056 0.0
C678 C 1.02942 0.33868 0.36978 0.0
C679 C 0.99348 0.3304 0.35175 0.0
C680 C 0.06511 0.34075 0.35399 0.0
C681 C 0.10524 0.35281 0.37133 0.0
C682 C 0.12648 0.39155 0.38838 0.0
C683 C 0.16436 0.40284 0.40459 0.0
C684 C 0.18149 0.37577 0.40375 0.0
C685 C 0.16083 0.33742 0.3866 0.0
C686 C 0.12291 0.32598 0.37034 0.0
C687 C 0.03762 0.36732 0.21721 0.0
C688 C 0.04957 0.34137 0.20001 0.0
C689 C 1.02986 0.36181 0.2503 0.0
C690 C 0.03259 0.32945 0.26675 0.0
C691 C 0.04265 0.30212 0.24948 0.0
C692 C 0.05083 0.30787 0.21614 0.0
C693 C 1.02835 0.3271 0.30235 0.0
C694 C 0.06378 0.33412 0.32052 0.0
C695 C 0.99249 0.32473 0.31814 0.0
C696 C 0.95405 0.31714 0.30004 0.0
C697 C 0.934 0.28268 0.27844 0.0
C698 C 0.89859 0.2765 0.26078 0.0
C699 C 0.88276 0.30441 0.26464 0.0
C700 C 0.90216 0.33845 0.2863 0.0
C701 C 0.9376 0.34481 0.304 0.0
H702 H 0.85543 0.29964 0.25087 0.0
H703 H 0.21084 0.38457 0.41631 0.0
H704 H 0.66846 0.64367 0.88664 0.0
H705 H 0.68356 0.64626 0.9444 0.0
H706 H 0.79237 0.77243 0.93242 0.0
H707 H 0.77761 0.77005 0.87452 0.0
H708 H 0.80885 0.724 0.97387 0.0
H709 H 0.69713 0.7589 0.95804 0.0
H710 H 0.6273 0.7449 0.93818 0.0
H711 H 0.56477 0.63089 0.99601 0.0
H712 H 0.63429 0.64374 1.0157 0.0
H713 H 0.75103 0.76681 0.14807 0.0
H714 H 0.75297 0.77278 0.08891 0.0
H715 H 0.77446 0.66597 0.08141 0.0
H716 H 0.77341 0.66037 0.14035 0.0
H717 H 0.69548 0.70927 0.04958 0.0
H718 H 0.82995 0.67715 1.01078 0.0
H719 H 0.89872 0.689 0.03133 0.0
H720 H 0.91576 0.79863 0.08425 0.0
H721 H 0.84749 0.78793 0.06355 0.0
C722 C 0.69551 0.67205 0.89629 0.0
C723 C 0.72129 0.70716 0.8762 0.0
C724 C 0.70422 0.67336 0.92925 0.0
C725 C 0.73858 0.70988 0.94271 0.0
C726 C 0.76559 0.74404 0.92247 0.0
C727 C 0.75708 0.74265 0.88944 0.0
C728 C 0.74505 0.71344 0.97813 0.0
C729 C 0.78413 0.72083 0.99047 0.0
C730 C 0.71279 0.70952 0.99967 0.0
C731 C 0.67095 0.70212 0.98813 0.0
C732 C 0.66851 0.7307 0.96634 0.0
C733 C 0.62898 0.72294 0.9551 0.0
C734 C 0.59164 0.68693 0.96572 0.0
C735 C 0.59373 0.65866 0.98769 0.0
C736 C 0.63318 0.66618 0.99891 0.0
C737 C 0.75712 0.74527 0.13379 0.0
C738 C 0.76131 0.7127 0.14871 0.0
C739 C 0.75795 0.74852 0.10008 0.0
C740 C 0.76366 0.7197 0.0809 0.0
C741 C 0.77019 0.68863 0.0958 0.0
C742 C 0.76919 0.68525 0.12945 0.0
C743 C 0.75926 0.71979 0.04538 0.0
C744 C 0.72036 0.71275 0.03301 0.0
C745 C 0.79164 0.72394 0.02392 0.0
C746 C 0.8334 0.7315 0.03579 0.0
C747 C 0.84852 0.70398 0.0266 0.0
C748 C 0.88741 0.71049 0.03829 0.0
C749 C 0.91153 0.74446 0.05917 0.0
C750 C 0.89696 0.77221 0.06819 0.0
C751 C 0.85816 0.76594 0.05648 0.0
H752 H 0.94153 0.74931 0.06831 0.0
H753 H 0.56107 0.68098 0.95699 0.0
H754 H 0.42307 0.03707 0.80875 0.0
H755 H 0.41317 0.03027 0.75043 0.0
H756 H 0.28711 1.01246 0.76175 0.0
H757 H 0.29722 1.02114 0.82051 0.0
H758 H 0.30273 0.95341 0.71481 0.0
H759 H 0.35033 0.10299 0.74186 0.0
H760 H 0.39986 0.17051 0.76905 0.0
H761 H 0.50491 0.17553 0.71666 0.0
H762 H 0.45597 0.10779 0.68944 0.0
H763 H 0.27648 0.9843 0.54792 0.0
H764 H 0.27534 0.98965 0.6073 0.0
H765 H 0.41195 0.04572 0.60904 0.0
H766 H 0.41319 0.04094 0.55017 0.0
H767 H 0.38702 0.08579 0.65023 0.0
H768 H 0.35414 0.94429 0.62758 0.0
H769 H 0.31726 0.87301 0.60246 0.0
H770 H 0.19948 0.84816 0.64655 0.0
H771 H 0.23569 0.91956 0.67177 0.0
C772 C 0.39339 0.03241 0.79907 0.0
C773 C 0.36145 0.03125 0.81939 0.0
C774 C 0.38764 0.02789 0.76568 0.0
C775 C 0.34965 1.02136 0.75197 0.0
C776 C 0.31669 1.01761 0.77208 0.0
C777 C 0.32258 0.02263 0.80558 0.0
C778 C 0.34578 1.02124 0.71645 0.0
C779 C 0.32023 0.98241 0.70061 0.0
C780 C 0.37045 0.05883 0.69814 0.0
C781 C 0.39956 0.1002 0.71381 0.0
C782 C 0.38401 0.11839 0.73628 0.0
C783 C 0.41197 0.15672 0.75166 0.0
C784 C 0.45552 0.17727 0.74464 0.0
C785 C 0.47117 0.1596 0.72209 0.0
C786 C 0.44334 0.12129 0.70665 0.0
C787 C 0.30618 0.99839 0.56107 0.0
C788 C 0.34481 1.01172 0.54469 0.0
C789 C 0.30552 1.00112 0.59487 0.0
C790 C 0.34354 1.01761 0.61251 0.0
C791 C 0.38227 0.03282 0.59592 0.0
C792 C 0.3829 0.02984 0.56234 0.0
C793 C 0.34322 1.01799 0.64833 0.0
C794 C 0.36847 0.05684 0.66429 0.0
C795 C 0.31962 0.98012 0.66667 0.0
C796 C 0.29745 0.93748 0.65117 0.0
C797 C 0.32026 0.92382 0.63163 0.0
C798 C 0.29953 0.88335 0.61746 0.0
C799 C 0.25601 0.85614 0.62278 0.0
C800 C 0.23317 0.86933 0.64238 0.0
C801 C 0.25378 0.90977 0.65665 0.0
H802 H 0.24001 0.82479 0.61183 0.0
H803 H 0.47711 0.20689 0.75662 0.0
H804 H 0.25118 0.47494 0.89709 0.0
H805 H 0.29213 0.44498 0.87337 0.0
H806 H 0.28434 0.38076 0.96337 0.0
H807 H 0.24497 0.41185 0.98753 0.0
H808 H 0.36281 0.43499 0.9492 0.0
H809 H 0.25968 0.31975 0.89313 0.0
H810 H 0.19374 0.27607 0.86254 0.0
H811 H 0.24505 0.36227 0.78181 0.0
H812 H 0.31111 0.40677 0.81191 0.0
H813 H 0.54489 0.55244 0.85251 0.0
H814 H 0.49493 0.48552 0.87943 0.0
H815 H 0.39195 0.48262 0.82499 0.0
H816 H 0.44213 0.54613 0.79591 0.0
H817 H 0.37228 0.40605 0.8332 0.0
H818 H 0.43822 0.53305 0.91606 0.0
H819 H 0.5006 0.58162 0.94901 0.0
H820 H 0.5154 0.47593 0.97869 0.0
H821 H 0.45338 0.42699 0.94568 0.0
C822 C 0.25697 0.45329 0.91144 0.0
C823 C 0.24468 0.44575 0.94406 0.0
C824 C 0.27978 0.4355 0.89775 0.0
C825 C 0.29091 0.41009 0.91653 0.0
C826 C 0.27553 0.3996 0.94831 0.0
C827 C 0.2528 0.41743 0.96203 0.0
C828 C 0.32736 0.40549 0.90581 0.0
C829 C 0.3647 0.42735 0.92405 0.0
C830 C 0.32992 0.39358 0.8737 0.0
C831 C 0.29072 0.36643 0.85479 0.0
C832 C 0.25701 0.32939 0.86883 0.0
C833 C 0.21954 0.30449 0.85156 0.0
C834 C 0.21527 0.31631 0.82021 0.0
C835 C 0.24851 0.35301 0.80603 0.0
C836 C 0.28611 0.37799 0.82315 0.0
C837 C 0.51164 0.53681 0.8459 0.0
C838 C 0.49735 0.55443 0.82207 0.0
C839 C 0.48297 0.4988 0.86163 0.0
C840 C 0.43927 0.47893 0.85482 0.0
C841 C 0.42543 0.49652 0.83059 0.0
C842 C 0.45414 0.53339 0.81415 0.0
C843 C 0.40644 0.44329 0.87472 0.0
C844 C 0.37007 0.41184 0.85871 0.0
C845 C 0.40446 0.44721 0.90871 0.0
C846 C 0.44172 0.47663 0.9282 0.0
C847 C 0.45495 0.52034 0.92958 0.0
C848 C 0.49021 0.54788 0.94821 0.0
C849 C 0.51204 0.53188 0.96581 0.0
C850 C 0.49859 0.4883 0.96491 0.0
C851 C 0.46348 0.46068 0.94621 0.0
H852 H 0.53932 0.5532 0.98019 0.0
H853 H 0.18617 0.29708 0.80693 0.0
H854 H 0.44563 0.99138 0.55326 0.0
H855 H 0.45039 0.97604 0.61016 0.0
H856 H 0.53268 0.92645 0.58377 0.0
H857 H 0.52683 0.94036 0.52692 0.0
H858 H 0.41373 0.88992 0.61817 0.0
H859 H 0.58895 0.92582 0.64923 0.0
H860 H 0.66044 0.98926 0.65209 0.0
H861 H 0.60503 0.06993 0.65615 0.0
H862 H 0.53369 1.0075 0.65428 0.0
H863 H 0.46172 0.73157 0.61862 0.0
H864 H 0.44732 0.79055 0.61661 0.0
H865 H 0.47891 0.81639 0.71784 0.0
H866 H 0.49261 0.75655 0.71991 0.0
H867 H 0.52729 0.88467 0.68056 0.0
H868 H 0.37913 0.79326 0.6939 0.0
H869 H 0.31198 0.72566 0.68533 0.0
H870 H 0.31767 0.75338 0.58382 0.0
H871 H 0.38486 0.8207 0.59151 0.0
C872 C 0.46627 0.97897 0.55975 0.0
C873 C 0.4849 0.96578 0.53573 0.0
C874 C 0.46913 0.97049 0.59234 0.0
C875 C 0.49154 0.94979 0.60116 0.0
C876 C 0.5154 0.94271 0.57756 0.0
C877 C 0.51174 0.95023 0.54498 0.0
C878 C 0.48009 0.92382 0.63102 0.0
C879 C 0.43829 0.88923 0.63258 0.0
C880 C 0.51184 0.92383 0.65068 0.0
C881 C 0.55551 0.96163 0.65185 0.0
C882 C 0.59189 0.95704 0.65119 0.0
C883 C 0.63263 0.993 0.65256 0.0
C884 C 0.63748 0.03375 0.65448 0.0
C885 C 0.60163 0.03858 0.6548 0.0
C886 C 0.56095 1.00287 0.65362 0.0
C887 C 0.4642 0.74892 0.64065 0.0
C888 C 0.47954 0.74062 0.66913 0.0
C889 C 0.45575 0.78248 0.63961 0.0
C890 C 0.46189 0.80777 0.66717 0.0
C891 C 0.47398 0.79729 0.69636 0.0
C892 C 0.48233 0.7636 0.69738 0.0
C893 C 0.46294 0.84889 0.6633 0.0
C894 C 0.50239 0.88625 0.66733 0.0
C895 C 0.42948 0.85103 0.64776 0.0
C896 C 0.3871 0.81225 0.64339 0.0
C897 C 0.36592 0.78509 0.66977 0.0
C898 C 0.32788 0.74674 0.66503 0.0
C899 C 0.31074 0.73527 0.63402 0.0
C900 C 0.33099 0.76242 0.6078 0.0
C901 C 0.36896 0.80078 0.61237 0.0
H902 H 0.28205 0.70514 0.63018 0.0
H903 H 0.66897 0.06155 0.6557 0.0
H904 H 0.14921 0.60419 0.18241 0.0
H905 H 0.13416 0.62704 0.23353 0.0
H906 H 0.05896 0.49555 0.26438 0.0
H907 H 0.07344 0.47254 0.21263 0.0
H908 H 0.06303 0.61333 0.27111 0.0
H909 H 0.06011 0.49975 0.33049 0.0
H910 H 0.06408 0.43378 0.33609 0.0
H911 H 0.19372 0.50049 0.30252 0.0
H912 H 0.19035 0.56671 0.2965 0.0
H913 H 0.23086 0.7959 0.34745 0.0
H914 H 0.16525 0.72849 0.34615 0.0
H915 H 0.22993 0.67084 0.29782 0.0
H916 H 0.29683 0.73748 0.30148 0.0
H917 H 0.17656 0.61556 0.33844 0.0
H918 H 0.16145 0.71588 0.25884 0.0
H919 H 0.15169 0.77747 0.24709 0.0
H920 H 0.0514 0.73284 0.31814 0.0
H921 H 0.06097 0.67142 0.33042 0.0
C922 C 0.12873 0.58015 0.19984 0.0
C923 C 0.11291 0.53679 0.19385 0.0
C924 C 0.11957 0.59308 0.22897 0.0
C925 C 0.09474 0.56292 0.2529 0.0
C926 C 0.07754 0.51937 0.24635 0.0
C927 C 0.08604 0.50631 0.21679 0.0
C928 C 0.09429 0.57897 0.28577 0.0
C929 C 0.08646 0.61318 0.28726 0.0
C930 C 0.12201 0.57719 0.30872 0.0
C931 C 0.12494 0.53807 0.31302 0.0
C932 C 0.08949 0.50031 0.32442 0.0
C933 C 0.09158 0.46288 0.32758 0.0
C934 C 0.12911 0.46296 0.31963 0.0
C935 C 0.16467 0.5005 0.30866 0.0
C936 C 0.16271 0.538 0.30541 0.0
C937 C 0.23189 0.76886 0.33735 0.0
C938 C 0.26998 0.77236 0.32512 0.0
C939 C 0.19369 0.7301 0.3362 0.0
C940 C 0.19231 0.69425 0.32193 0.0
C941 C 0.2301 0.69778 0.30948 0.0
C942 C 0.26841 0.73623 0.31115 0.0
C943 C 0.15182 0.65347 0.31752 0.0
C944 C 0.15146 0.6151 0.32398 0.0
C945 C 0.1162 0.65149 0.3019 0.0
C946 C 0.11219 0.68953 0.29573 0.0
C947 C 0.13763 0.71957 0.27211 0.0
C948 C 0.13208 0.75436 0.26533 0.0
C949 C 0.10091 0.75906 0.28181 0.0
C950 C 0.07555 0.72927 0.30539 0.0
C951 C 0.08105 0.69451 0.3123 0.0
H952 H 0.09637 0.78574 0.27621 0.0
H953 H 0.13065 0.43395 0.32193 0.0
H954 H 0.47174 0.25164 0.11809 0.0
H955 H 0.45435 0.30723 0.12992 0.0
H956 H 0.4556 0.33306 0.02784 0.0
H957 H 0.4734 0.27781 1.01577 0.0
H958 H 0.50546 0.40205 0.05604 0.0
H959 H 0.36492 0.31122 0.07128 0.0
H960 H 0.29629 0.24781 0.08441 0.0
H961 H 0.32495 0.26694 0.18576 0.0
H962 H 0.39442 0.33002 0.17339 0.0
H963 H 0.5845 0.5659 0.16809 0.0
H964 H 0.52622 0.52548 0.1302 0.0
H965 H 0.49535 0.40909 0.18119 0.0
H966 H 0.55173 0.44917 0.21945 0.0
H967 H 0.42524 0.40101 0.15389 0.0
H968 H 0.58266 0.46237 0.11185 0.0
H969 H 0.64869 0.5271 0.09433 0.0
H970 H 0.57546 0.56561 0.03658 0.0
H971 H 0.50911 0.50115 0.0539 0.0
C972 C 0.46752 0.26862 0.09815 0.0
C973 C 0.47394 0.26029 0.06612 0.0
C974 C 0.45677 0.29988 0.10484 0.0
C975 C 0.45262 0.32371 0.07962 0.0
C976 C 0.4576 0.31441 0.04753 0.0
C977 C 0.46797 0.28287 0.04078 0.0
C978 C 0.45225 0.36341 0.08769 0.0
C979 C 0.48661 0.40198 0.07656 0.0
C980 C 0.42655 0.3641 0.11323 0.0
C981 C 0.38508 0.32569 0.12133 0.0
C982 C 0.35685 0.30184 0.0964 0.0
C983 C 0.31766 0.2659 0.10372 0.0
C984 C 0.30611 0.25338 0.13589 0.0
C985 C 0.33386 0.27678 0.16084 0.0
C986 C 0.37318 0.31275 0.15368 0.0
C987 C 0.56471 0.53173 0.1714 0.0
C988 C 0.57354 0.51031 0.19592 0.0
C989 C 0.53134 0.50877 0.14984 0.0
C990 C 0.50714 0.46411 0.15224 0.0
C991 C 0.51354 0.44352 0.17867 0.0
C992 C 0.5463 0.46641 0.20036 0.0
C993 C 0.48163 0.4372 0.12493 0.0
C994 C 0.44207 0.40115 0.13207 0.0
C995 C 0.50146 0.43917 0.09487 0.0
C996 C 0.5412 0.47735 0.08426 0.0
C997 C 0.58082 0.48469 0.09536 0.0
C998 C 0.61821 0.5213 0.08553 0.0
C999 C 0.61626 0.55048 0.06438 0.0
C1000 C 0.57692 0.54303 0.05297 0.0
C1001 C 0.53944 0.50652 0.0628 0.0
H1002 H 0.64522 0.57883 0.05682 0.0
H1003 H 0.27572 0.22552 0.1415 0.0
H1004 H 0.77838 0.27256 0.75949 0.0
H1005 H 0.7236 0.19992 0.77326 0.0
H1006 H 0.73401 0.15691 0.67808 0.0
H1007 H 0.78756 0.23006 0.66334 0.0
H1008 H 0.65077 0.12103 0.69992 0.0
H1009 H 0.77609 0.12852 0.73547 0.0
H1010 H 0.84806 0.16256 0.75915 0.0
H1011 H 0.79767 0.17099 0.85118 0.0
H1012 H 0.72584 0.13869 0.8282 0.0
H1013 H 0.5773 0.04201 0.88011 0.0
H1014 H 0.60813 0.02826 0.83184 0.0
H1015 H 0.57924 0.11267 0.77697 0.0
H1016 H 0.54421 0.12125 0.82347 0.0
H1017 H 0.67157 0.07263 0.80681 0.0
H1018 H 0.58878 0.12186 0.70192 0.0
H1019 H 0.5165 0.09335 0.68112 0.0
H1020 H 0.47604 0.97523 0.73141 0.0
H1021 H 0.54836 1.00278 0.75236 0.0
C1022 C 0.76863 0.24787 0.74131 0.0
C1023 C 0.78818 0.25683 0.71077 0.0
C1024 C 0.73781 0.20632 0.74928 0.0
C1025 C 0.72623 0.17301 0.72696 0.0
C1026 C 0.74353 0.18214 0.69573 0.0
C1027 C 0.77424 0.22387 0.68759 0.0
C1028 C 0.69523 0.12914 0.737 0.0
C1029 C 0.65466 0.10971 0.72318 0.0
C1030 C 0.70198 0.11225 0.7657 0.0
C1031 C 0.74519 0.13046 0.78008 0.0
C1032 C 0.78026 0.13753 0.76078 0.0
C1033 C 0.82108 0.15665 0.77405 0.0
C1034 C 0.82731 0.16851 0.8066 0.0
C1035 C 0.79276 0.1615 0.826 0.0
C1036 C 0.75194 0.14272 0.81287 0.0
C1037 C 0.57667 0.05634 0.85725 0.0
C1038 C 0.55895 0.08291 0.85523 0.0
C1039 C 0.59402 0.04838 0.82963 0.0
C1040 C 0.59567 0.06857 0.80004 0.0
C1041 C 0.57682 0.09443 0.79842 0.0
C1042 C 0.55774 0.10055 0.82545 0.0
C1043 C 0.62531 0.07193 0.77366 0.0
C1044 C 0.66648 0.08224 0.78321 0.0
C1045 C 0.61882 0.08072 0.74133 0.0
C1046 C 0.57496 0.064 0.7281 0.0
C1047 C 0.56501 0.08944 0.70813 0.0
C1048 C 0.52369 0.07359 0.6965 0.0
C1049 C 0.49166 0.03245 0.70482 0.0
C1050 C 0.5009 1.00706 0.72483 0.0
C1051 C 0.54216 0.02274 0.7365 0.0
H1052 H 0.45967 1.02031 0.69584 0.0
H1053 H 0.85896 0.18332 0.81676 0.0
H1054 H 0.97045 0.50354 0.51672 0.0
H1055 H 0.94143 0.54735 0.49827 0.0
H1056 H 0.92077 0.57119 0.59734 0.0
H1057 H 0.94894 0.52616 0.61597 0.0
H1058 H 0.84881 0.52909 0.56793 0.0
H1059 H 0.97473 0.65651 0.54165 0.0
H1060 H 0.04825 0.70085 0.52132 0.0
H1061 H 1.00795 0.65229 0.4254 0.0
H1062 H 0.93464 0.60685 0.44504 0.0
H1063 H 0.69859 0.52703 0.44992 0.0
H1064 H 0.74692 0.54946 0.49642 0.0
H1065 H 0.83925 0.53651 0.43821 0.0
H1066 H 0.7915 0.51512 0.39204 0.0
H1067 H 0.87581 0.61195 0.46649 0.0
H1068 H 0.7726 0.46128 0.50242 0.0
H1069 H 0.70018 0.40661 0.51966 0.0
H1070 H 0.69987 0.49207 0.59179 0.0
H1071 H 0.77223 0.54722 0.5748 0.0
C1072 C 0.9613 0.51943 0.53461 0.0
C1073 C 0.9604 0.51026 0.56765 0.0
C1074 C 0.94515 0.54507 0.52407 0.0
C1075 C 0.92859 0.56243 0.54647 0.0
C1076 C 0.93316 0.55796 0.57968 0.0
C1077 C 0.94894 0.53194 0.59023 0.0
C1078 C 0.8971 0.57399 0.53506 0.0
C1079 C 0.85505 0.54847 0.54633 0.0
C1080 C 0.90497 0.59967 0.50721 0.0
C1081 C 0.94891 0.62835 0.49493 0.0
C1082 C 0.9815 0.65525 0.51622 0.0
C1083 C 1.02318 0.68049 0.50481 0.0
C1084 C 0.0326 0.67919 0.47215 0.0
C1085 C 1.00047 0.65317 0.4507 0.0
C1086 C 0.95882 0.62775 0.46196 0.0
C1087 C 0.72886 0.52806 0.44762 0.0
C1088 C 0.74168 0.51928 0.41787 0.0
C1089 C 0.75657 0.54135 0.47392 0.0
C1090 C 0.79713 0.54579 0.47048 0.0
C1091 C 0.80853 0.53437 0.44116 0.0
C1092 C 0.78115 0.52152 0.41499 0.0
C1093 C 0.82871 0.56213 0.49675 0.0
C1094 C 0.87026 0.59418 0.48887 0.0
C1095 C 0.82063 0.54141 0.52701 0.0
C1096 C 0.77744 0.50831 0.53722 0.0
C1097 C 0.75694 0.46833 0.52189 0.0
C1098 C 0.71597 0.43732 0.53161 0.0
C1099 C 0.6954 0.4459 0.55676 0.0
C1100 C 0.71581 0.48549 0.57229 0.0
C1101 C 0.75678 0.51661 0.56266 0.0
H1102 H 0.66368 0.42186 0.56424 0.0
H1103 H 0.06484 0.698 0.46344 0.0
H1104 H 0.0813 0.47102 0.71148 0.0
H1105 H 0.09059 0.46895 0.76902 0.0
H1106 H 0.96677 0.35686 0.77728 0.0
H1107 H 0.95733 0.358 0.71799 0.0
H1108 H 0.97956 0.4139 0.82802 0.0
H1109 H 0.05835 0.3518 0.7879 0.0
H1110 H 0.10986 0.34211 0.7551 0.0
H1111 H 0.2122 0.45955 0.79192 0.0
H1112 H 0.16123 0.47042 0.82452 0.0
H1113 H 1.02179 0.39309 0.9956 0.0
H1114 H 1.0075 0.37911 0.93754 0.0
H1115 H 0.12655 0.49223 0.91532 0.0
H1116 H 0.13954 0.50719 0.97351 0.0
H1117 H 0.11248 0.42719 0.87223 0.0
H1118 H 1.03118 0.4902 0.90983 0.0
H1119 H 0.97918 0.49674 0.94451 0.0
H1120 H 0.8806 0.37337 0.91343 0.0
H1121 H 0.93221 0.36581 0.87892 0.0
C1122 C 0.05545 0.44537 0.72491 0.0
C1123 C 1.01778 0.41518 0.7088 0.0
C1124 C 0.06123 0.44426 0.75854 0.0
C1125 C 1.02975 0.41288 0.77862 0.0
C1126 C 0.99196 0.38194 0.76298 0.0
C1127 C 0.98635 0.38264 0.72866 0.0
C1128 C 0.03719 0.41395 0.81543 0.0
C1129 C 1.0083 0.41587 0.8375 0.0
C1130 C 0.07512 0.41769 0.82887 0.0
C1131 C 0.10582 0.41215 0.80843 0.0
C1132 C 0.09176 0.37589 0.78869 0.0
C1133 C 0.12089 0.37011 0.7702 0.0
C1134 C 0.16426 0.40024 0.77137 0.0
C1135 C 0.17858 0.43627 0.79099 0.0
C1136 C 0.14957 0.44226 0.80948 0.0
C1137 C 0.04569 0.41445 0.97845 0.0
C1138 C 0.08334 0.45008 0.99002 0.0
C1139 C 0.03713 0.40665 0.94487 0.0
C1140 C 0.06567 0.43439 0.92104 0.0
C1141 C 0.10382 0.46959 0.93251 0.0
C1142 C 0.112 0.47772 0.96621 0.0
C1143 C 0.05512 0.42755 0.88467 0.0
C1144 C 0.08361 0.42486 0.8627 0.0
C1145 C 1.01674 0.42278 0.87139 0.0
C1146 C 0.98567 0.42722 0.89209 0.0
C1147 C 0.99849 0.46429 0.91061 0.0
C1148 C 0.96908 0.46822 0.9302 0.0
C1149 C 0.92664 0.43543 0.93125 0.0
C1150 C 0.91351 0.3987 0.91265 0.0
C1151 C 0.94283 0.39458 0.89306 0.0
H1152 H 0.9039 0.43854 0.94641 0.0
H1153 H 0.18679 0.39561 0.75714 0.0
H1154 H 0.61621 0.69874 0.64582 0.0
H1155 H 0.62688 0.70054 0.58642 0.0
H1156 H 0.64803 0.59394 0.59375 0.0
H1157 H 0.63577 0.59068 0.65162 0.0
H1158 H 0.70662 0.65443 0.55106 0.0
H1159 H 0.55332 0.58085 0.56652 0.0
H1160 H 0.48733 0.57706 0.58657 0.0
H1161 H 0.51263 0.68548 0.52803 0.0
H1162 H 0.57913 0.69026 0.50796 0.0
H1163 H 0.68881 0.5818 0.38481 0.0
H1164 H 0.68678 0.59211 0.44333 0.0
H1165 H 0.63066 0.67079 0.42622 0.0
H1166 H 0.63212 0.65961 0.36812 0.0
H1167 H 0.59221 0.63051 0.47461 0.0
H1168 H 0.73956 0.70275 0.45384 0.0
H1169 H 0.81066 0.71719 0.43661 0.0
H1170 H 0.80619 0.62813 0.50735 0.0
H1171 H 0.73387 0.61087 0.52358 0.0
C1172 C 0.62262 0.67534 0.63494 0.0
C1173 C 0.6237 0.64382 0.65465 0.0
C1174 C 0.62901 0.67646 0.60054 0.0
C1175 C 0.63815 0.64704 0.58452 0.0
C1176 C 0.64106 0.61713 0.60448 0.0
C1177 C 0.63372 0.61533 0.63826 0.0
C1178 C 0.64383 0.64584 0.54744 0.0
C1179 C 0.68134 0.64874 0.5344 0.0
C1180 C 0.61196 0.6399 0.52477 0.0
C1181 C 0.57135 0.63614 0.53597 0.0
C1182 C 0.54489 0.60399 0.55802 0.0
C1183 C 0.5074 0.60166 0.5694 0.0
C1184 C 0.49586 0.63109 0.55866 0.0
C1185 C 0.52165 0.66275 0.53637 0.0
C1186 C 0.55922 0.66525 0.52496 0.0
C1187 C 0.67735 0.60233 0.39315 0.0
C1188 C 0.66178 0.62046 0.37053 0.0
C1189 C 0.67572 0.60815 0.4273 0.0
C1190 C 0.65872 0.63281 0.44065 0.0
C1191 C 0.6438 0.65137 0.41787 0.0
C1192 C 0.64512 0.64521 0.38401 0.0
C1193 C 0.65521 0.63854 0.47768 0.0
C1194 C 0.61789 0.63631 0.49087 0.0
C1195 C 0.68792 0.64625 0.5004 0.0
C1196 C 0.73068 0.65487 0.48953 0.0
C1197 C 0.75318 0.68538 0.46521 0.0
C1198 C 0.79374 0.69399 0.45554 0.0
C1199 C 0.81271 0.67315 0.47058 0.0
C1200 C 0.79117 0.6437 0.49533 0.0
C1201 C 0.75023 0.63425 0.50461 0.0
H1202 H 0.84424 0.68008 0.46326 0.0
H1203 H 0.46689 0.62932 0.56757 0.0
H1204 H 0.51947 0.05322 0.05195 0.0
H1205 H 0.50901 0.0417 0.11006 0.0
H1206 H 0.40563 0.0679 0.10651 0.0
H1207 H 0.41714 0.08086 0.04737 0.0
H1208 H 0.44317 0.09533 0.16406 0.0
H1209 H 0.39154 0.96127 0.11259 0.0
H1210 H 0.39276 0.90798 0.07601 0.0
H1211 H 0.49852 0.91557 0.12795 0.0
H1212 H 0.49836 0.96942 0.16458 0.0
H1213 H 0.37767 0.99854 0.3263 0.0
H1214 H 0.3773 1.01111 0.26737 0.0
H1215 H 0.49408 1.0086 0.25631 0.0
H1216 H 0.49506 0.99745 0.31466 0.0
H1217 H 0.44094 0.96566 0.20581 0.0
H1218 H 0.49213 0.1026 0.25621 0.0
H1219 H 0.48815 0.15465 0.29251 0.0
H1220 H 0.37731 0.13788 0.2426 0.0
H1221 H 0.38026 0.08519 0.20628 0.0
C1222 C 0.4947 0.05723 0.06331 0.0
C1223 C 0.46941 0.06824 0.0441 0.0
C1224 C 0.48831 0.04999 0.09705 0.0
C1225 C 0.45541 0.0522 0.11376 0.0
C1226 C 0.43109 0.06524 0.095 0.0
C1227 C 0.43783 0.07298 0.06083 0.0
C1228 C 0.44661 0.03977 0.15008 0.0
C1229 C 0.44195 0.06648 0.17283 0.0
C1230 C 0.44512 1.00233 0.16292 0.0
C1231 C 0.44516 0.96967 0.14116 0.0
C1232 C 0.41523 0.95177 0.1161 0.0
C1233 C 0.41572 0.92145 0.09536 0.0
C1234 C 0.44577 0.90848 0.0996 0.0
C1235 C 0.4753 0.9257 0.12467 0.0
C1236 C 0.475 0.9561 0.14545 0.0
C1237 C 0.40278 0.99971 0.31126 0.0
C1238 C 0.436 0.99601 0.32584 0.0
C1239 C 0.40292 1.00753 0.27727 0.0
C1240 C 0.43592 1.01134 0.25636 0.0
C1241 C 0.46803 1.00599 0.27098 0.0
C1242 C 0.46842 0.99928 0.30476 0.0
C1243 C 0.43812 1.02144 0.21977 0.0
C1244 C 0.44173 0.99429 0.19697 0.0
C1245 C 0.43801 0.05805 0.20697 0.0
C1246 C 0.43609 0.08954 0.22881 0.0
C1247 C 0.46665 0.10968 0.25318 0.0
C1248 C 0.46463 0.13936 0.27372 0.0
C1249 C 0.4324 0.14945 0.26994 0.0
C1250 C 0.40219 0.12995 0.24555 0.0
C1251 C 0.40402 0.10018 0.22498 0.0
H1252 H 0.43092 0.17247 0.28584 0.0
H1253 H 0.44611 0.88502 0.0835 0.0
loop_
_geom_bond_atom_site_label_1
_geom_bond_atom_site_label_2
_geom_bond_distance
_geom_bond_site_symmetry_2
_ccdc_geom_bond_type
Zn0 N4 2.020 . S
Zn0 O8 2.019 . S
Zn0 N10 2.119 . S
Zn0 O18 1.975 . S
C1 N2 1.334 . S
C1 N5 1.336 . S
N2 C1 1.334 . S
N2 C3 1.334 . S
C3 N2 1.334 . S
C3 N4 1.336 . S
N4 Zn0 2.020 . S
N4 C3 1.336 . S
N4 N5 1.354 . S
N5 C1 1.336 . S
N5 N4 1.354 . S
N5 Zn9 2.020 . S
C6 O7 1.244 . S
C6 O30 1.257 . S
O7 C6 1.244 . S
O8 Zn0 2.019 . S
O8 C28 1.257 . S
Zn9 N5 2.020 . S
Zn9 O16 1.975 . S
Zn9 N25 2.119 . S
Zn9 O30 2.019 . S
N10 Zn0 2.119 . S
N10 C12 1.334 . S
N10 C13 1.328 . S
C11 C12 1.391 . S
C11 N14 1.329 . S
C11 H32 0.930 . S
C12 N10 1.334 . S
C12 C11 1.391 . S
C12 H19 0.930 . S
C13 N10 1.328 . S
C13 C15 1.392 . S
C13 H20 0.930 . S
N14 C11 1.329 . S
N14 C15 1.331 . S
C15 C13 1.392 . S
C15 N14 1.331 . S
O16 Zn9 1.975 . S
O16 C17 1.252 . S
C17 O16 1.252 . S
C17 O18 1.252 . S
O18 Zn0 1.975 . S
O18 C17 1.252 . S
H19 C12 0.930 . S
H20 C13 0.930 . S
C21 C22 1.392 1_554 S
C21 N25 1.328 . S
C21 H27 0.930 1_554 S
C22 C21 1.392 1_556 S
C22 N26 1.331 1_556 S
C23 C24 1.391 . S
C23 N26 1.329 . S
C23 H33 0.930 . S
C24 C23 1.391 . S
C24 N25 1.334 . S
C24 H31 0.930 . S
N25 Zn9 2.119 . S
N25 C21 1.328 . S
N25 C24 1.334 . S
N26 C22 1.331 1_554 S
N26 C23 1.329 . S
H27 C21 0.930 1_556 S
C28 O8 1.257 . S
C28 O29 1.244 . S
O29 C28 1.244 . S
O30 C6 1.257 . S
O30 Zn9 2.019 . S
H31 C24 0.930 . S
H32 C11 0.930 . S
H33 C23 0.930 . S
Zn34 N38 2.020 . S
Zn34 O42 2.019 . S
Zn34 N44 2.119 . S
Zn34 O52 1.975 . S
C35 N36 1.334 . S
C35 N39 1.336 . S
N36 C35 1.334 . S
N36 C37 1.334 . S
C37 N36 1.334 . S
C37 N38 1.336 . S
N38 Zn34 2.020 . S
N38 C37 1.336 . S
N38 N39 1.354 . S
N39 C35 1.336 . S
N39 N38 1.354 . S
N39 Zn43 2.020 . S
C40 O41 1.244 . S
C40 O64 1.257 . S
O41 C40 1.244 . S
O42 Zn34 2.019 . S
O42 C62 1.257 . S
Zn43 N39 2.020 . S
Zn43 O50 1.975 . S
Zn43 N59 2.119 . S
Zn43 O64 2.019 . S
N44 Zn34 2.119 . S
N44 C46 1.334 . S
N44 C47 1.328 . S
C45 C46 1.391 . S
C45 N48 1.329 . S
C45 H66 0.930 . S
C46 N44 1.334 . S
C46 C45 1.391 . S
C46 H53 0.930 . S
C47 N44 1.328 . S
C47 C49 1.392 . S
C47 H54 0.930 . S
N48 C45 1.329 . S
N48 C49 1.331 . S
C49 C47 1.392 . S
C49 N48 1.331 . S
O50 Zn43 1.975 . S
O50 C51 1.252 . S
C51 O50 1.252 . S
C51 O52 1.252 . S
O52 Zn34 1.975 . S
O52 C51 1.252 . S
H53 C46 0.930 . S
H54 C47 0.930 . S
C55 C56 1.392 . S
C55 N59 1.328 . S
C55 H61 0.930 . S
C56 C55 1.392 . S
C56 N60 1.331 . S
C57 C58 1.391 . S
C57 N60 1.329 . S
C57 H67 0.930 . S
C58 C57 1.391 . S
C58 N59 1.334 . S
C58 H65 0.930 . S
N59 Zn43 2.119 . S
N59 C55 1.328 . S
N59 C58 1.334 . S
N60 C56 1.331 . S
N60 C57 1.329 . S
H61 C55 0.930 . S
C62 O42 1.257 . S
C62 O63 1.244 . S
O63 C62 1.244 . S
O64 C40 1.257 . S
O64 Zn43 2.019 . S
H65 C58 0.930 . S
H66 C45 0.930 . S
H67 C57 0.930 . S
Zn68 N72 2.020 . S
Zn68 O76 2.019 . S
Zn68 N78 2.119 . S
Zn68 O86 1.975 . S
C69 N70 1.334 . S
C69 N73 1.336 . S
N70 C69 1.334 . S
N70 C71 1.334 . S
C71 N70 1.334 . S
C71 N72 1.336 . S
N72 Zn68 2.020 . S
N72 C71 1.336 . S
N72 N73 1.354 . S
N73 C69 1.336 . S
N73 N72 1.354 . S
N73 Zn77 2.020 . S
C74 O75 1.244 . S
C74 O98 1.257 . S
O75 C74 1.244 . S
O76 Zn68 2.019 . S
O76 C96 1.257 . S
Zn77 N73 2.020 . S
Zn77 O84 1.975 . S
Zn77 N93 2.119 . S
Zn77 O98 2.019 . S
N78 Zn68 2.119 . S
N78 C80 1.334 . S
N78 C81 1.328 . S
C79 C80 1.391 . S
C79 N82 1.329 . S
C79 H100 0.930 . S
C80 N78 1.334 . S
C80 C79 1.391 . S
C80 H87 0.930 . S
C81 N78 1.328 . S
C81 C83 1.392 . S
C81 H88 0.930 . S
N82 C79 1.329 . S
N82 C83 1.331 . S
C83 C81 1.392 . S
C83 N82 1.331 . S
O84 Zn77 1.975 . S
O84 C85 1.252 . S
C85 O84 1.252 . S
C85 O86 1.252 . S
O86 Zn68 1.975 . S
O86 C85 1.252 . S
H87 C80 0.930 . S
H88 C81 0.930 . S
C89 C90 1.392 . S
C89 N93 1.328 . S
C89 H95 0.930 . S
C90 C89 1.392 . S
C90 N94 1.331 . S
C91 C92 1.391 . S
C91 N94 1.329 . S
C91 H101 0.930 . S
C92 C91 1.391 . S
C92 N93 1.334 . S
C92 H99 0.930 . S
N93 Zn77 2.119 . S
N93 C89 1.328 . S
N93 C92 1.334 . S
N94 C90 1.331 . S
N94 C91 1.329 . S
H95 C89 0.930 . S
C96 O76 1.257 . S
C96 O97 1.244 . S
O97 C96 1.244 . S
O98 C74 1.257 . S
O98 Zn77 2.019 . S
H99 C92 0.930 . S
H100 C79 0.930 . S
H101 C91 0.930 . S
Zn102 N106 2.020 . S
Zn102 O110 2.019 . S
Zn102 N112 2.119 . S
Zn102 O120 1.975 . S
C103 N104 1.334 . S
C103 N107 1.336 . S
N104 C103 1.334 . S
N104 C105 1.334 . S
C105 N104 1.334 . S
C105 N106 1.336 . S
N106 Zn102 2.020 . S
N106 C105 1.336 . S
N106 N107 1.354 . S
N107 C103 1.336 . S
N107 N106 1.354 . S
N107 Zn111 2.020 . S
C108 O109 1.244 . S
C108 O132 1.257 . S
O109 C108 1.244 . S
O110 Zn102 2.019 . S
O110 C130 1.257 . S
Zn111 N107 2.020 . S
Zn111 O118 1.975 . S
Zn111 N127 2.119 . S
Zn111 O132 2.019 . S
N112 Zn102 2.119 . S
N112 C114 1.334 . S
N112 C115 1.328 . S
C113 C114 1.391 . S
C113 N116 1.329 . S
C113 H134 0.930 . S
C114 N112 1.334 . S
C114 C113 1.391 . S
C114 H121 0.930 . S
C115 N112 1.328 . S
C115 C117 1.392 1_556 S
C115 H122 0.930 1_556 S
N116 C113 1.329 . S
N116 C117 1.331 1_556 S
C117 C115 1.392 1_554 S
C117 N116 1.331 1_554 S
O118 Zn111 1.975 . S
O118 C119 1.252 . S
C119 O118 1.252 . S
C119 O120 1.252 . S
O120 Zn102 1.975 . S
O120 C119 1.252 . S
H121 C114 0.930 . S
H122 C115 0.930 1_554 S
C123 C124 1.392 . S
C123 N127 1.328 . S
C123 H129 0.930 . S
C124 C123 1.392 . S
C124 N128 1.331 . S
C125 C126 1.391 . S
C125 N128 1.329 . S
C125 H135 0.930 . S
C126 C125 1.391 . S
C126 N127 1.334 . S
C126 H133 0.930 . S
N127 Zn111 2.119 . S
N127 C123 1.328 . S
N127 C126 1.334 . S
N128 C124 1.331 . S
N128 C125 1.329 . S
H129 C123 0.930 . S
C130 O110 1.257 . S
C130 O131 1.244 . S
O131 C130 1.244 . S
O132 C108 1.257 . S
O132 Zn111 2.019 . S
H133 C126 0.930 . S
H134 C113 0.930 . S
H135 C125 0.930 . S
Zn136 N140 2.020 . S
Zn136 O144 2.019 . S
Zn136 N146 2.119 . S
Zn136 O154 1.975 . S
C137 N138 1.334 . S
C137 N141 1.336 . S
N138 C137 1.334 . S
N138 C139 1.334 . S
C139 N138 1.334 . S
C139 N140 1.336 . S
N140 Zn136 2.020 . S
N140 C139 1.336 . S
N140 N141 1.354 . S
N141 C137 1.336 . S
N141 N140 1.354 . S
N141 Zn145 2.020 . S
C142 O143 1.244 . S
C142 O166 1.257 . S
O143 C142 1.244 . S
O144 Zn136 2.019 . S
O144 C164 1.257 . S
Zn145 N141 2.020 . S
Zn145 O152 1.975 . S
Zn145 N161 2.119 . S
Zn145 O166 2.019 . S
N146 Zn136 2.119 . S
N146 C148 1.334 . S
N146 C149 1.328 . S
C147 C148 1.391 . S
C147 N150 1.329 . S
C147 H168 0.930 . S
C148 N146 1.334 . S
C148 C147 1.391 . S
C148 H155 0.930 . S
C149 N146 1.328 . S
C149 C151 1.392 . S
C149 H156 0.930 . S
N150 C147 1.329 . S
N150 C151 1.331 . S
C151 C149 1.392 . S
C151 N150 1.331 . S
O152 Zn145 1.975 . S
O152 C153 1.252 . S
C153 O152 1.252 . S
C153 O154 1.252 . S
O154 Zn136 1.975 . S
O154 C153 1.252 . S
H155 C148 0.930 . S
H156 C149 0.930 . S
C157 C158 1.392 . S
C157 N161 1.328 . S
C157 H163 0.930 . S
C158 C157 1.392 . S
C158 N162 1.331 . S
C159 C160 1.391 . S
C159 N162 1.329 . S
C159 H169 0.930 . S
C160 C159 1.391 . S
C160 N161 1.334 . S
C160 H167 0.930 . S
N161 Zn145 2.119 . S
N161 C157 1.328 . S
N161 C160 1.334 . S
N162 C158 1.331 . S
N162 C159 1.329 . S
H163 C157 0.930 . S
C164 O144 1.257 . S
C164 O165 1.244 . S
O165 C164 1.244 . S
O166 C142 1.257 . S
O166 Zn145 2.019 . S
H167 C160 0.930 . S
H168 C147 0.930 . S
H169 C159 0.930 . S
Zn170 N174 2.020 . S
Zn170 O178 2.019 . S
Zn170 N180 2.119 . S
Zn170 O188 1.975 . S
C171 N172 1.334 . S
C171 N175 1.336 . S
N172 C171 1.334 . S
N172 C173 1.334 . S
C173 N172 1.334 . S
C173 N174 1.336 . S
N174 Zn170 2.020 . S
N174 C173 1.336 . S
N174 N175 1.354 . S
N175 C171 1.336 . S
N175 N174 1.354 . S
N175 Zn179 2.020 . S
C176 O177 1.244 . S
C176 O200 1.257 . S
O177 C176 1.244 . S
O178 Zn170 2.019 . S
O178 C198 1.257 . S
Zn179 N175 2.020 . S
Zn179 O186 1.975 . S
Zn179 N195 2.119 . S
Zn179 O200 2.019 . S
N180 Zn170 2.119 . S
N180 C182 1.334 . S
N180 C183 1.328 . S
C181 C182 1.391 . S
C181 N184 1.329 . S
C181 H202 0.930 . S
C182 N180 1.334 . S
C182 C181 1.391 . S
C182 H189 0.930 . S
C183 N180 1.328 . S
C183 C185 1.392 . S
C183 H190 0.930 . S
N184 C181 1.329 . S
N184 C185 1.331 . S
C185 C183 1.392 . S
C185 N184 1.331 . S
O186 Zn179 1.975 . S
O186 C187 1.252 . S
C187 O186 1.252 . S
C187 O188 1.252 . S
O188 Zn170 1.975 . S
O188 C187 1.252 . S
H189 C182 0.930 . S
H190 C183 0.930 . S
C191 C192 1.392 . S
C191 N195 1.328 . S
C191 H197 0.930 . S
C192 C191 1.392 . S
C192 N196 1.331 . S
C193 C194 1.391 . S
C193 N196 1.329 . S
C193 H203 0.930 . S
C194 C193 1.391 . S
C194 N195 1.334 . S
C194 H201 0.930 . S
N195 Zn179 2.119 . S
N195 C191 1.328 . S
N195 C194 1.334 . S
N196 C192 1.331 . S
N196 C193 1.329 . S
H197 C191 0.930 . S
C198 O178 1.257 . S
C198 O199 1.244 . S
O199 C198 1.244 . S
O200 C176 1.257 . S
O200 Zn179 2.019 . S
H201 C194 0.930 . S
H202 C181 0.930 . S
H203 C193 0.930 . S
H204 C222 0.951 . S
H205 C224 0.951 . S
H206 C226 0.950 . S
H207 C227 0.950 . S
H208 C229 0.950 . S
H209 C232 0.950 . S
H210 C233 0.950 . S
H211 C235 0.950 . S
H212 C236 0.950 . S
H213 C237 0.951 . S
H214 C239 0.951 . S
H215 C241 0.950 . S
H216 C242 0.950 . S
H217 C244 0.950 . S
H218 C247 0.950 . S
H219 C248 0.950 . S
H220 C250 0.950 . S
H221 C251 0.950 . S
C222 H204 0.951 . S
C222 C223 1.366 . S
C222 C224 1.388 . S
C223 C222 1.366 . S
C223 C227 1.385 . S
C224 H205 0.951 . S
C224 C222 1.388 . S
C224 C225 1.366 . S
C225 C224 1.366 . S
C225 C226 1.414 . S
C225 C228 1.499 . S
C226 H206 0.950 . S
C226 C225 1.414 . S
C226 C227 1.374 . S
C227 H207 0.950 . S
C227 C223 1.385 . S
C227 C226 1.374 . S
C228 C225 1.499 . S
C228 C229 1.373 . S
C228 C230 1.389 . S
C229 H208 0.950 . S
C229 C228 1.373 . S
C229 C245 1.377 . S
C230 C228 1.389 . S
C230 C231 1.524 . S
C230 C244 1.377 . S
C231 C230 1.524 . S
C231 C232 1.397 . S
C231 C236 1.363 . S
C232 H209 0.950 . S
C232 C231 1.397 . S
C232 C233 1.334 . S
C233 H210 0.950 . S
C233 C232 1.334 . S
C233 C234 1.287 . S
C234 C233 1.287 . S
C234 C235 1.524 . S
C234 H253 0.913 . S
C235 H211 0.950 . S
C235 C234 1.524 . S
C235 C236 1.415 . S
C236 H212 0.950 . S
C236 C231 1.363 . S
C236 C235 1.415 . S
C237 H213 0.951 . S
C237 C238 1.366 . S
C237 C239 1.388 . S
C238 C237 1.366 . S
C238 C242 1.385 . S
C239 H214 0.951 . S
C239 C237 1.388 . S
C239 C240 1.366 . S
C240 C239 1.366 . S
C240 C241 1.414 . S
C240 C243 1.499 . S
C241 H215 0.950 . S
C241 C240 1.414 . S
C241 C242 1.374 . S
C242 H216 0.950 . S
C242 C238 1.385 . S
C242 C241 1.374 . S
C243 C240 1.499 . S
C243 C244 1.373 . S
C243 C245 1.389 . S
C244 H217 0.950 . S
C244 C230 1.377 . S
C244 C243 1.373 . S
C245 C229 1.377 . S
C245 C243 1.389 . S
C245 C246 1.524 . S
C246 C245 1.524 . S
C246 C247 1.397 . S
C246 C251 1.363 . S
C247 H218 0.950 . S
C247 C246 1.397 . S
C247 C248 1.334 . S
C248 H219 0.950 . S
C248 C247 1.334 . S
C248 C249 1.287 . S
C249 C248 1.287 . S
C249 C250 1.524 . S
C249 H252 0.999 . S
C250 H220 0.950 . S
C250 C249 1.524 . S
C250 C251 1.415 . S
C251 H221 0.950 . S
C251 C246 1.363 . S
C251 C250 1.415 . S
H252 C249 0.999 . S
H253 C234 0.913 . S
H254 C272 0.951 . S
H255 C274 0.951 . S
H256 C276 0.950 . S
H257 C277 0.950 . S
H258 C279 0.950 . S
H259 C282 0.950 . S
H260 C283 0.950 . S
H261 C285 0.950 . S
H262 C286 0.950 . S
H263 C287 0.951 . S
H264 C289 0.952 1_545 S
H265 C291 0.950 . S
H266 C292 0.951 . S
H267 C294 0.950 . S
H268 C297 0.950 . S
H269 C298 0.950 . S
H270 C300 0.950 . S
H271 C301 0.950 . S
C272 H254 0.951 . S
C272 C273 1.366 . S
C272 C274 1.388 . S
C273 C272 1.366 . S
C273 C277 1.385 . S
C274 H255 0.951 . S
C274 C272 1.388 . S
C274 C275 1.366 . S
C275 C274 1.366 . S
C275 C276 1.414 . S
C275 C278 1.499 . S
C276 H256 0.950 . S
C276 C275 1.414 . S
C276 C277 1.374 . S
C277 H257 0.950 . S
C277 C273 1.385 . S
C277 C276 1.374 . S
C278 C275 1.499 . S
C278 C279 1.373 . S
C278 C280 1.389 . S
C279 H258 0.950 . S
C279 C278 1.373 . S
C279 C295 1.377 . S
C280 C278 1.389 . S
C280 C281 1.524 . S
C280 C294 1.377 . S
C281 C280 1.524 . S
C281 C282 1.397 . S
C281 C286 1.363 . S
C282 H259 0.950 . S
C282 C281 1.397 . S
C282 C283 1.334 . S
C283 H260 0.950 . S
C283 C282 1.334 . S
C283 C284 1.287 . S
C284 C283 1.287 . S
C284 C285 1.524 . S
C284 H303 0.913 . S
C285 H261 0.950 . S
C285 C284 1.524 . S
C285 C286 1.415 . S
C286 H262 0.950 . S
C286 C281 1.363 . S
C286 C285 1.415 . S
C287 H263 0.951 . S
C287 C288 1.366 . S
C287 C289 1.385 1_545 S
C288 C287 1.366 . S
C288 C292 1.388 . S
C289 H264 0.952 1_565 S
C289 C287 1.385 1_565 S
C289 C290 1.367 . S
C290 C289 1.367 . S
C290 C291 1.414 . S
C290 C293 1.499 . S
C291 H265 0.950 . S
C291 C290 1.414 . S
C291 C292 1.367 1_565 S
C292 H266 0.951 . S
C292 C288 1.388 . S
C292 C291 1.367 1_545 S
C293 C290 1.499 . S
C293 C294 1.373 . S
C293 C295 1.389 . S
C294 H267 0.950 . S
C294 C280 1.377 . S
C294 C293 1.373 . S
C295 C279 1.377 . S
C295 C293 1.389 . S
C295 C296 1.524 . S
C296 C295 1.524 . S
C296 C297 1.397 . S
C296 C301 1.363 . S
C297 H268 0.950 . S
C297 C296 1.397 . S
C297 C298 1.334 . S
C298 H269 0.950 . S
C298 C297 1.334 . S
C298 C299 1.287 . S
C299 C298 1.287 . S
C299 C300 1.524 . S
C299 H302 0.999 . S
C300 H270 0.950 . S
C300 C299 1.524 . S
C300 C301 1.415 . S
C301 H271 0.950 . S
C301 C296 1.363 . S
C301 C300 1.415 . S
H302 C299 0.999 . S
H303 C284 0.913 . S
H304 C322 0.951 . S
H305 C324 0.951 . S
H306 C326 0.950 . S
H307 C327 0.950 . S
H308 C329 0.950 . S
H309 C332 0.950 . S
H310 C333 0.950 . S
H311 C335 0.950 1_655 S
H312 C336 0.950 . S
H313 C337 0.951 . S
H314 C339 0.951 . S
H315 C341 0.950 . S
H316 C342 0.950 . S
H317 C344 0.950 . S
H318 C347 0.950 . S
H319 C348 0.950 . S
H320 C350 0.950 . S
H321 C351 0.950 . S
C322 H304 0.951 . S
C322 C323 1.366 . S
C322 C324 1.388 . S
C323 C322 1.366 . S
C323 C327 1.385 . S
C324 H305 0.951 . S
C324 C322 1.388 . S
C324 C325 1.366 . S
C325 C324 1.366 . S
C325 C326 1.414 . S
C325 C328 1.499 . S
C326 H306 0.950 . S
C326 C325 1.414 . S
C326 C327 1.374 . S
C327 H307 0.950 . S
C327 C323 1.385 . S
C327 C326 1.374 . S
C328 C325 1.499 . S
C328 C329 1.373 . S
C328 C330 1.389 . S
C329 H308 0.950 . S
C329 C328 1.373 . S
C329 C345 1.377 . S
C330 C328 1.389 . S
C330 C331 1.524 . S
C330 C344 1.377 . S
C331 C330 1.524 . S
C331 C332 1.397 . S
C331 C336 1.363 . S
C332 H309 0.950 . S
C332 C331 1.397 . S
C332 C333 1.334 . S
C333 H310 0.950 . S
C333 C332 1.334 . S
C333 C334 1.287 . S
C334 C333 1.287 . S
C334 C335 1.524 . S
C334 H353 0.913 1_455 S
C335 H311 0.950 1_455 S
C335 C334 1.524 . S
C335 C336 1.415 . S
C336 H312 0.950 . S
C336 C331 1.363 . S
C336 C335 1.415 . S
C337 H313 0.951 . S
C337 C338 1.366 . S
C337 C339 1.388 1_655 S
C338 C337 1.366 . S
C338 C342 1.385 . S
C339 H314 0.951 . S
C339 C337 1.388 1_455 S
C339 C340 1.366 . S
C340 C339 1.366 . S
C340 C341 1.414 . S
C340 C343 1.499 . S
C341 H315 0.950 . S
C341 C340 1.414 . S
C341 C342 1.374 1_455 S
C342 H316 0.950 . S
C342 C338 1.385 . S
C342 C341 1.374 1_655 S
C343 C340 1.499 . S
C343 C344 1.373 . S
C343 C345 1.389 . S
C344 H317 0.950 . S
C344 C330 1.377 . S
C344 C343 1.373 . S
C345 C329 1.377 . S
C345 C343 1.389 . S
C345 C346 1.524 . S
C346 C345 1.524 . S
C346 C347 1.397 . S
C346 C351 1.363 . S
C347 H318 0.950 . S
C347 C346 1.397 . S
C347 C348 1.334 . S
C348 H319 0.950 . S
C348 C347 1.334 . S
C348 C349 1.287 . S
C349 C348 1.287 . S
C349 C350 1.524 . S
C349 H352 0.999 . S
C350 H320 0.950 . S
C350 C349 1.524 . S
C350 C351 1.415 . S
C351 H321 0.950 . S
C351 C346 1.363 . S
C351 C350 1.415 . S
H352 C349 0.999 . S
H353 C334 0.913 1_655 S
H354 C372 0.951 . S
H355 C374 0.951 . S
H356 C376 0.950 . S
H357 C377 0.950 . S
H358 C379 0.950 . S
H359 C382 0.950 . S
H360 C383 0.950 . S
H361 C385 0.950 . S
H362 C386 0.950 . S
H363 C387 0.951 . S
H364 C389 0.951 . S
H365 C391 0.950 . S
H366 C392 0.950 . S
H367 C394 0.950 . S
H368 C397 0.950 . S
H369 C398 0.950 . S
H370 C400 0.950 . S
H371 C401 0.950 . S
C372 H354 0.951 . S
C372 C373 1.366 . S
C372 C374 1.388 . S
C373 C372 1.366 . S
C373 C377 1.385 . S
C374 H355 0.951 . S
C374 C372 1.388 . S
C374 C375 1.366 . S
C375 C374 1.366 . S
C375 C376 1.414 . S
C375 C378 1.499 . S
C376 H356 0.950 . S
C376 C375 1.414 . S
C376 C377 1.374 . S
C377 H357 0.950 . S
C377 C373 1.385 . S
C377 C376 1.374 . S
C378 C375 1.499 . S
C378 C379 1.373 . S
C378 C380 1.389 . S
C379 H358 0.950 . S
C379 C378 1.373 . S
C379 C395 1.377 . S
C380 C378 1.389 . S
C380 C381 1.524 . S
C380 C394 1.377 . S
C381 C380 1.524 . S
C381 C382 1.397 . S
C381 C386 1.363 . S
C382 H359 0.950 . S
C382 C381 1.397 . S
C382 C383 1.334 . S
C383 H360 0.950 . S
C383 C382 1.334 . S
C383 C384 1.287 . S
C384 C383 1.287 . S
C384 C385 1.524 . S
C384 H403 0.913 . S
C385 H361 0.950 . S
C385 C384 1.524 . S
C385 C386 1.415 . S
C386 H362 0.950 . S
C386 C381 1.363 . S
C386 C385 1.415 . S
C387 H363 0.951 . S
C387 C388 1.366 . S
C387 C389 1.388 . S
C388 C387 1.366 . S
C388 C392 1.385 . S
C389 H364 0.951 . S
C389 C387 1.388 . S
C389 C390 1.366 . S
C390 C389 1.366 . S
C390 C391 1.414 . S
C390 C393 1.499 . S
C391 H365 0.950 . S
C391 C390 1.414 . S
C391 C392 1.374 . S
C392 H366 0.950 . S
C392 C388 1.385 . S
C392 C391 1.374 . S
C393 C390 1.499 . S
C393 C394 1.373 . S
C393 C395 1.389 . S
C394 H367 0.950 . S
C394 C380 1.377 . S
C394 C393 1.373 . S
C395 C379 1.377 . S
C395 C393 1.389 . S
C395 C396 1.524 . S
C396 C395 1.524 . S
C396 C397 1.397 . S
C396 C401 1.363 . S
C397 H368 0.950 . S
C397 C396 1.397 . S
C397 C398 1.334 . S
C398 H369 0.950 . S
C398 C397 1.334 . S
C398 C399 1.287 . S
C399 C398 1.287 . S
C399 C400 1.524 . S
C399 H402 0.999 . S
C400 H370 0.950 . S
C400 C399 1.524 . S
C400 C401 1.415 . S
C401 H371 0.950 . S
C401 C396 1.363 . S
C401 C400 1.415 . S
H402 C399 0.999 . S
H403 C384 0.913 . S
H404 C422 0.951 . S
H405 C424 0.951 . S
H406 C426 0.950 . S
H407 C427 0.950 . S
H408 C429 0.950 . S
H409 C432 0.950 . S
H410 C433 0.950 . S
H411 C435 0.950 . S
H412 C436 0.950 . S
H413 C437 0.951 . S
H414 C439 0.951 . S
H415 C441 0.950 . S
H416 C442 0.950 . S
H417 C444 0.950 . S
H418 C447 0.950 . S
H419 C448 0.950 . S
H420 C450 0.950 . S
H421 C451 0.950 1_565 S
C422 H404 0.951 . S
C422 C423 1.366 1_545 S
C422 C424 1.388 . S
C423 C422 1.366 1_565 S
C423 C427 1.385 . S
C424 H405 0.951 . S
C424 C422 1.388 . S
C424 C425 1.366 . S
C425 C424 1.366 . S
C425 C426 1.414 1_545 S
C425 C428 1.499 . S
C426 H406 0.950 . S
C426 C425 1.414 1_565 S
C426 C427 1.374 . S
C427 H407 0.950 . S
C427 C423 1.385 . S
C427 C426 1.374 . S
C428 C425 1.499 . S
C428 C429 1.373 . S
C428 C430 1.389 . S
C429 H408 0.950 . S
C429 C428 1.373 . S
C429 C445 1.377 . S
C430 C428 1.389 . S
C430 C431 1.524 . S
C430 C444 1.377 . S
C431 C430 1.524 . S
C431 C432 1.397 . S
C431 C436 1.363 . S
C432 H409 0.950 . S
C432 C431 1.397 . S
C432 C433 1.334 . S
C433 H410 0.950 . S
C433 C432 1.334 . S
C433 C434 1.287 . S
C434 C433 1.287 . S
C434 C435 1.524 . S
C434 H453 0.913 . S
C435 H411 0.950 . S
C435 C434 1.524 . S
C435 C436 1.415 . S
C436 H412 0.950 . S
C436 C431 1.363 . S
C436 C435 1.415 . S
C437 H413 0.951 . S
C437 C438 1.366 . S
C437 C439 1.388 . S
C438 C437 1.366 . S
C438 C442 1.385 . S
C439 H414 0.951 . S
C439 C437 1.388 . S
C439 C440 1.366 . S
C440 C439 1.366 . S
C440 C441 1.414 . S
C440 C443 1.499 . S
C441 H415 0.950 . S
C441 C440 1.414 . S
C441 C442 1.374 . S
C442 H416 0.950 . S
C442 C438 1.385 . S
C442 C441 1.374 . S
C443 C440 1.499 . S
C443 C444 1.373 . S
C443 C445 1.389 . S
C444 H417 0.950 . S
C444 C430 1.377 . S
C444 C443 1.373 . S
C445 C429 1.377 . S
C445 C443 1.389 . S
C445 C446 1.524 . S
C446 C445 1.524 . S
C446 C447 1.397 . S
C446 C451 1.363 . S
C447 H418 0.950 . S
C447 C446 1.397 . S
C447 C448 1.334 . S
C448 H419 0.950 . S
C448 C447 1.334 . S
C448 C449 1.287 . S
C449 C448 1.287 . S
C449 C450 1.524 1_545 S
C449 H452 0.999 . S
C450 H420 0.950 . S
C450 C449 1.524 1_565 S
C450 C451 1.415 1_565 S
C451 H421 0.950 1_545 S
C451 C446 1.363 . S
C451 C450 1.415 1_545 S
H452 C449 0.999 . S
H453 C434 0.913 . S
H454 C472 0.951 . S
H455 C474 0.951 . S
H456 C476 0.950 . S
H457 C477 0.950 . S
H458 C479 0.950 . S
H459 C482 0.950 . S
H460 C483 0.950 . S
H461 C485 0.950 . S
H462 C486 0.950 . S
H463 C487 0.951 . S
H464 C489 0.951 . S
H465 C491 0.950 . S
H466 C492 0.950 . S
H467 C494 0.950 . S
H468 C497 0.950 . S
H469 C498 0.950 . S
H470 C500 0.950 . S
H471 C501 0.950 . S
C472 H454 0.951 . S
C472 C473 1.366 . S
C472 C474 1.388 . S
C473 C472 1.366 . S
C473 C477 1.385 1_455 S
C474 H455 0.951 . S
C474 C472 1.388 . S
C474 C475 1.366 1_455 S
C475 C474 1.366 1_655 S
C475 C476 1.414 . S
C475 C478 1.499 . S
C476 H456 0.950 . S
C476 C475 1.414 . S
C476 C477 1.374 . S
C477 H457 0.950 . S
C477 C473 1.385 1_655 S
C477 C476 1.374 . S
C478 C475 1.499 . S
C478 C479 1.373 . S
C478 C480 1.389 . S
C479 H458 0.950 . S
C479 C478 1.373 . S
C479 C495 1.377 . S
C480 C478 1.389 . S
C480 C481 1.524 . S
C480 C494 1.377 . S
C481 C480 1.524 . S
C481 C482 1.397 . S
C481 C486 1.363 1_655 S
C482 H459 0.950 . S
C482 C481 1.397 . S
C482 C483 1.334 1_655 S
C483 H460 0.950 . S
C483 C482 1.334 1_455 S
C483 C484 1.287 . S
C484 C483 1.287 . S
C484 C485 1.524 . S
C484 H503 0.913 . S
C485 H461 0.950 . S
C485 C484 1.524 . S
C485 C486 1.415 . S
C486 H462 0.950 . S
C486 C481 1.363 1_455 S
C486 C485 1.415 . S
C487 H463 0.951 . S
C487 C488 1.366 . S
C487 C489 1.388 . S
C488 C487 1.366 . S
C488 C492 1.385 . S
C489 H464 0.951 . S
C489 C487 1.388 . S
C489 C490 1.366 . S
C490 C489 1.366 . S
C490 C491 1.414 . S
C490 C493 1.499 . S
C491 H465 0.950 . S
C491 C490 1.414 . S
C491 C492 1.374 . S
C492 H466 0.950 . S
C492 C488 1.385 . S
C492 C491 1.374 . S
C493 C490 1.499 . S
C493 C494 1.373 . S
C493 C495 1.389 . S
C494 H467 0.950 . S
C494 C480 1.377 . S
C494 C493 1.373 . S
C495 C479 1.377 . S
C495 C493 1.389 . S
C495 C496 1.524 . S
C496 C495 1.524 . S
C496 C497 1.397 . S
C496 C501 1.363 . S
C497 H468 0.950 . S
C497 C496 1.397 . S
C497 C498 1.334 . S
C498 H469 0.950 . S
C498 C497 1.334 . S
C498 C499 1.287 . S
C499 C498 1.287 . S
C499 C500 1.524 . S
C499 H502 0.999 . S
C500 H470 0.950 . S
C500 C499 1.524 . S
C500 C501 1.415 . S
C501 H471 0.950 . S
C501 C496 1.363 . S
C501 C500 1.415 . S
H502 C499 0.999 . S
H503 C484 0.913 . S
H504 C522 0.951 . S
H505 C524 0.951 . S
H506 C526 0.950 . S
H507 C527 0.950 1_554 S
H508 C529 0.950 . S
H509 C532 0.950 . S
H510 C533 0.950 . S
H511 C535 0.950 . S
H512 C536 0.950 . S
H513 C537 0.951 . S
H514 C539 0.951 . S
H515 C541 0.950 . S
H516 C542 0.950 1_556 S
H517 C544 0.950 . S
H518 C547 0.950 . S
H519 C548 0.950 . S
H520 C550 0.950 . S
H521 C551 0.950 . S
C522 H504 0.951 . S
C522 C523 1.366 . S
C522 C524 1.388 . S
C523 C522 1.366 . S
C523 C527 1.385 . S
C524 H505 0.951 . S
C524 C522 1.388 . S
C524 C525 1.366 . S
C525 C524 1.366 . S
C525 C526 1.414 1_556 S
C525 C528 1.499 . S
C526 H506 0.950 . S
C526 C525 1.414 1_554 S
C526 C527 1.374 1_554 S
C527 H507 0.950 1_556 S
C527 C523 1.385 . S
C527 C526 1.374 1_556 S
C528 C525 1.499 . S
C528 C529 1.373 . S
C528 C530 1.389 1_556 S
C529 H508 0.950 . S
C529 C528 1.373 . S
C529 C545 1.377 . S
C530 C528 1.389 1_554 S
C530 C531 1.524 . S
C530 C544 1.377 . S
C531 C530 1.524 . S
C531 C532 1.397 . S
C531 C536 1.363 1_554 S
C532 H509 0.950 . S
C532 C531 1.397 . S
C532 C533 1.334 . S
C533 H510 0.950 . S
C533 C532 1.334 . S
C533 C534 1.287 . S
C534 C533 1.287 . S
C534 C535 1.524 1_554 S
C534 H553 0.913 . S
C535 H511 0.950 . S
C535 C534 1.524 1_556 S
C535 C536 1.415 . S
C536 H512 0.950 . S
C536 C531 1.363 1_556 S
C536 C535 1.415 . S
C537 H513 0.951 . S
C537 C538 1.366 . S
C537 C539 1.388 . S
C538 C537 1.366 . S
C538 C542 1.385 . S
C539 H514 0.951 . S
C539 C537 1.388 . S
C539 C540 1.366 . S
C540 C539 1.366 . S
C540 C541 1.414 1_554 S
C540 C543 1.499 . S
C541 H515 0.950 . S
C541 C540 1.414 1_556 S
C541 C542 1.374 1_556 S
C542 H516 0.950 1_554 S
C542 C538 1.385 . S
C542 C541 1.374 1_554 S
C543 C540 1.499 . S
C543 C544 1.373 . S
C543 C545 1.389 1_554 S
C544 H517 0.950 . S
C544 C530 1.377 . S
C544 C543 1.373 . S
C545 C529 1.377 . S
C545 C543 1.389 1_556 S
C545 C546 1.524 . S
C546 C545 1.524 . S
C546 C547 1.397 . S
C546 C551 1.363 1_556 S
C547 H518 0.950 . S
C547 C546 1.397 . S
C547 C548 1.334 . S
C548 H519 0.950 . S
C548 C547 1.334 . S
C548 C549 1.287 . S
C549 C548 1.287 . S
C549 C550 1.524 1_556 S
C549 H552 0.999 . S
C550 H520 0.950 . S
C550 C549 1.524 1_554 S
C550 C551 1.415 . S
C551 H521 0.950 . S
C551 C546 1.363 1_554 S
C551 C550 1.415 . S
H552 C549 0.999 . S
H553 C534 0.913 . S
H554 C572 0.951 . S
H555 C574 0.951 . S
H556 C576 0.950 . S
H557 C577 0.950 . S
H558 C579 0.950 . S
H559 C582 0.950 . S
H560 C583 0.950 . S
H561 C585 0.950 . S
H562 C586 0.950 1_565 S
H563 C587 0.951 . S
H564 C589 0.951 . S
H565 C591 0.950 . S
H566 C592 0.950 . S
H567 C594 0.950 . S
H568 C597 0.950 . S
H569 C598 0.950 . S
H570 C600 0.950 . S
H571 C601 0.950 1_545 S
C572 H554 0.951 . S
C572 C573 1.366 . S
C572 C574 1.388 . S
C573 C572 1.366 . S
C573 C577 1.385 . S
C574 H555 0.951 . S
C574 C572 1.388 . S
C574 C575 1.366 . S
C575 C574 1.366 . S
C575 C576 1.414 . S
C575 C578 1.499 . S
C576 H556 0.950 . S
C576 C575 1.414 . S
C576 C577 1.374 . S
C577 H557 0.950 . S
C577 C573 1.385 . S
C577 C576 1.374 . S
C578 C575 1.499 . S
C578 C579 1.373 . S
C578 C580 1.389 . S
C579 H558 0.950 . S
C579 C578 1.373 . S
C579 C595 1.377 1_545 S
C580 C578 1.389 . S
C580 C581 1.524 . S
C580 C594 1.377 1_545 S
C581 C580 1.524 . S
C581 C582 1.397 . S
C581 C586 1.363 . S
C582 H559 0.950 . S
C582 C581 1.397 . S
C582 C583 1.334 . S
C583 H560 0.950 . S
C583 C582 1.334 . S
C583 C584 1.287 . S
C584 C583 1.287 . S
C584 C585 1.524 . S
C584 H603 0.913 . S
C585 H561 0.950 . S
C585 C584 1.524 . S
C585 C586 1.415 . S
C586 H562 0.950 1_545 S
C586 C581 1.363 . S
C586 C585 1.415 . S
C587 H563 0.951 . S
C587 C588 1.366 . S
C587 C589 1.388 . S
C588 C587 1.366 . S
C588 C592 1.385 . S
C589 H564 0.951 . S
C589 C587 1.388 . S
C589 C590 1.366 . S
C590 C589 1.366 . S
C590 C591 1.414 . S
C590 C593 1.499 . S
C591 H565 0.950 . S
C591 C590 1.414 . S
C591 C592 1.374 . S
C592 H566 0.950 . S
C592 C588 1.385 . S
C592 C591 1.374 . S
C593 C590 1.499 . S
C593 C594 1.373 . S
C593 C595 1.389 . S
C594 H567 0.950 . S
C594 C580 1.377 1_565 S
C594 C593 1.373 . S
C595 C579 1.377 1_565 S
C595 C593 1.389 . S
C595 C596 1.524 . S
C596 C595 1.524 . S
C596 C597 1.397 . S
C596 C601 1.363 . S
C597 H568 0.950 . S
C597 C596 1.397 . S
C597 C598 1.334 . S
C598 H569 0.950 . S
C598 C597 1.334 . S
C598 C599 1.287 . S
C599 C598 1.287 . S
C599 C600 1.524 . S
C599 H602 0.999 . S
C600 H570 0.950 . S
C600 C599 1.524 . S
C600 C601 1.415 . S
C601 H571 0.950 1_565 S
C601 C596 1.363 . S
C601 C600 1.415 . S
H602 C599 0.999 . S
H603 C584 0.913 . S
H604 C622 0.951 . S
H605 C624 0.951 . S
H606 C626 0.950 . S
H607 C627 0.950 . S
H608 C629 0.950 . S
H609 C632 0.950 . S
H610 C633 0.950 . S
H611 C635 0.950 . S
H612 C636 0.950 . S
H613 C637 0.951 . S
H614 C639 0.951 . S
H615 C641 0.950 . S
H616 C642 0.950 . S
H617 C644 0.950 . S
H618 C647 0.950 . S
H619 C648 0.950 . S
H620 C650 0.950 . S
H621 C651 0.950 . S
C622 H604 0.951 . S
C622 C623 1.366 . S
C622 C624 1.388 . S
C623 C622 1.366 . S
C623 C627 1.385 . S
C624 H605 0.951 . S
C624 C622 1.388 . S
C624 C625 1.366 . S
C625 C624 1.366 . S
C625 C626 1.414 . S
C625 C628 1.499 . S
C626 H606 0.950 . S
C626 C625 1.414 . S
C626 C627 1.374 . S
C627 H607 0.950 . S
C627 C623 1.385 . S
C627 C626 1.374 . S
C628 C625 1.499 . S
C628 C629 1.373 . S
C628 C630 1.389 . S
C629 H608 0.950 . S
C629 C628 1.373 . S
C629 C645 1.377 1_655 S
C630 C628 1.389 . S
C630 C631 1.524 . S
C630 C644 1.377 1_655 S
C631 C630 1.524 . S
C631 C632 1.397 . S
C631 C636 1.363 . S
C632 H609 0.950 . S
C632 C631 1.397 . S
C632 C633 1.334 . S
C633 H610 0.950 . S
C633 C632 1.334 . S
C633 C634 1.287 . S
C634 C633 1.287 . S
C634 C635 1.524 . S
C634 H653 0.913 . S
C635 H611 0.950 . S
C635 C634 1.524 . S
C635 C636 1.415 . S
C636 H612 0.950 . S
C636 C631 1.363 . S
C636 C635 1.415 . S
C637 H613 0.951 . S
C637 C638 1.366 . S
C637 C639 1.388 . S
C638 C637 1.366 . S
C638 C642 1.385 . S
C639 H614 0.951 . S
C639 C637 1.388 . S
C639 C640 1.366 . S
C640 C639 1.366 . S
C640 C641 1.414 . S
C640 C643 1.499 . S
C641 H615 0.950 . S
C641 C640 1.414 . S
C641 C642 1.374 . S
C642 H616 0.950 . S
C642 C638 1.385 . S
C642 C641 1.374 . S
C643 C640 1.499 . S
C643 C644 1.373 . S
C643 C645 1.389 . S
C644 H617 0.950 . S
C644 C630 1.377 1_455 S
C644 C643 1.373 . S
C645 C629 1.377 1_455 S
C645 C643 1.389 . S
C645 C646 1.524 . S
C646 C645 1.524 . S
C646 C647 1.397 . S
C646 C651 1.363 . S
C647 H618 0.950 . S
C647 C646 1.397 . S
C647 C648 1.334 . S
C648 H619 0.950 . S
C648 C647 1.334 . S
C648 C649 1.287 . S
C649 C648 1.287 . S
C649 C650 1.524 . S
C649 H652 0.999 . S
C650 H620 0.950 . S
C650 C649 1.524 . S
C650 C651 1.415 . S
C651 H621 0.950 . S
C651 C646 1.363 . S
C651 C650 1.415 . S
H652 C649 0.999 . S
H653 C634 0.913 . S
H654 C672 0.951 . S
H655 C674 0.951 . S
H656 C676 0.950 . S
H657 C677 0.950 . S
H658 C679 0.950 . S
H659 C682 0.950 . S
H660 C683 0.950 . S
H661 C685 0.950 . S
H662 C686 0.950 . S
H663 C687 0.951 . S
H664 C689 0.951 . S
H665 C691 0.950 . S
H666 C692 0.950 . S
H667 C694 0.950 . S
H668 C697 0.950 . S
H669 C698 0.950 . S
H670 C700 0.950 . S
H671 C701 0.950 . S
C672 H654 0.951 . S
C672 C673 1.366 . S
C672 C674 1.388 . S
C673 C672 1.366 . S
C673 C677 1.385 . S
C674 H655 0.951 . S
C674 C672 1.388 . S
C674 C675 1.366 . S
C675 C674 1.366 . S
C675 C676 1.414 . S
C675 C678 1.499 . S
C676 H656 0.950 . S
C676 C675 1.414 . S
C676 C677 1.374 . S
C677 H657 0.950 . S
C677 C673 1.385 . S
C677 C676 1.374 . S
C678 C675 1.499 . S
C678 C679 1.373 . S
C678 C680 1.389 1_655 S
C679 H658 0.950 . S
C679 C678 1.373 . S
C679 C695 1.377 . S
C680 C678 1.389 1_455 S
C680 C681 1.524 . S
C680 C694 1.377 . S
C681 C680 1.524 . S
C681 C682 1.397 . S
C681 C686 1.363 . S
C682 H659 0.950 . S
C682 C681 1.397 . S
C682 C683 1.334 . S
C683 H660 0.950 . S
C683 C682 1.334 . S
C683 C684 1.287 . S
C684 C683 1.287 . S
C684 C685 1.524 . S
C684 H703 0.913 . S
C685 H661 0.950 . S
C685 C684 1.524 . S
C685 C686 1.415 . S
C686 H662 0.950 . S
C686 C681 1.363 . S
C686 C685 1.415 . S
C687 H663 0.951 . S
C687 C688 1.366 . S
C687 C689 1.388 . S
C688 C687 1.366 . S
C688 C692 1.385 . S
C689 H664 0.951 . S
C689 C687 1.388 . S
C689 C690 1.366 . S
C690 C689 1.366 . S
C690 C691 1.414 . S
C690 C693 1.499 . S
C691 H665 0.950 . S
C691 C690 1.414 . S
C691 C692 1.374 . S
C692 H666 0.950 . S
C692 C688 1.385 . S
C692 C691 1.374 . S
C693 C690 1.499 . S
C693 C694 1.373 . S
C693 C695 1.389 1_455 S
C694 H667 0.950 . S
C694 C680 1.377 . S
C694 C693 1.373 . S
C695 C679 1.377 . S
C695 C693 1.389 1_655 S
C695 C696 1.524 . S
C696 C695 1.524 . S
C696 C697 1.397 . S
C696 C701 1.363 . S
C697 H668 0.950 . S
C697 C696 1.397 . S
C697 C698 1.334 . S
C698 H669 0.950 . S
C698 C697 1.334 . S
C698 C699 1.287 . S
C699 C698 1.287 . S
C699 C700 1.524 . S
C699 H702 0.999 . S
C700 H670 0.950 . S
C700 C699 1.524 . S
C700 C701 1.415 . S
C701 H671 0.950 . S
C701 C696 1.363 . S
C701 C700 1.415 . S
H702 C699 0.999 . S
H703 C684 0.913 . S
H704 C722 0.951 . S
H705 C724 0.951 . S
H706 C726 0.950 . S
H707 C727 0.950 . S
H708 C729 0.950 . S
H709 C732 0.950 . S
H710 C733 0.950 . S
H711 C735 0.950 . S
H712 C736 0.950 . S
H713 C737 0.951 . S
H714 C739 0.951 . S
H715 C741 0.950 . S
H716 C742 0.950 . S
H717 C744 0.950 . S
H718 C747 0.950 . S
H719 C748 0.950 . S
H720 C750 0.950 . S
H721 C751 0.950 . S
C722 H704 0.951 . S
C722 C723 1.366 . S
C722 C724 1.388 . S
C723 C722 1.366 . S
C723 C727 1.385 . S
C724 H705 0.951 . S
C724 C722 1.388 . S
C724 C725 1.366 . S
C725 C724 1.366 . S
C725 C726 1.414 . S
C725 C728 1.499 . S
C726 H706 0.950 . S
C726 C725 1.414 . S
C726 C727 1.374 . S
C727 H707 0.950 . S
C727 C723 1.385 . S
C727 C726 1.374 . S
C728 C725 1.499 . S
C728 C729 1.373 . S
C728 C730 1.389 . S
C729 H708 0.950 . S
C729 C728 1.373 . S
C729 C745 1.377 1_556 S
C730 C728 1.389 . S
C730 C731 1.524 . S
C730 C744 1.377 1_556 S
C731 C730 1.524 . S
C731 C732 1.397 . S
C731 C736 1.363 . S
C732 H709 0.950 . S
C732 C731 1.397 . S
C732 C733 1.334 . S
C733 H710 0.950 . S
C733 C732 1.334 . S
C733 C734 1.287 . S
C734 C733 1.287 . S
C734 C735 1.524 . S
C734 H753 0.913 . S
C735 H711 0.950 . S
C735 C734 1.524 . S
C735 C736 1.415 . S
C736 H712 0.950 . S
C736 C731 1.363 . S
C736 C735 1.415 . S
C737 H713 0.951 . S
C737 C738 1.366 . S
C737 C739 1.388 . S
C738 C737 1.366 . S
C738 C742 1.385 . S
C739 H714 0.951 . S
C739 C737 1.388 . S
C739 C740 1.366 . S
C740 C739 1.366 . S
C740 C741 1.414 . S
C740 C743 1.499 . S
C741 H715 0.950 . S
C741 C740 1.414 . S
C741 C742 1.374 . S
C742 H716 0.950 . S
C742 C738 1.385 . S
C742 C741 1.374 . S
C743 C740 1.499 . S
C743 C744 1.373 . S
C743 C745 1.389 . S
C744 H717 0.950 . S
C744 C730 1.377 1_554 S
C744 C743 1.373 . S
C745 C729 1.377 1_554 S
C745 C743 1.389 . S
C745 C746 1.524 . S
C746 C745 1.524 . S
C746 C747 1.397 . S
C746 C751 1.363 . S
C747 H718 0.950 . S
C747 C746 1.397 . S
C747 C748 1.334 . S
C748 H719 0.950 . S
C748 C747 1.334 . S
C748 C749 1.287 . S
C749 C748 1.287 . S
C749 C750 1.524 . S
C749 H752 0.999 . S
C750 H720 0.950 . S
C750 C749 1.524 . S
C750 C751 1.415 . S
C751 H721 0.950 . S
C751 C746 1.363 . S
C751 C750 1.415 . S
H752 C749 0.999 . S
H753 C734 0.913 . S
H754 C772 0.951 . S
H755 C774 0.951 . S
H756 C776 0.950 . S
H757 C777 0.950 . S
H758 C779 0.950 . S
H759 C782 0.950 . S
H760 C783 0.950 . S
H761 C785 0.950 . S
H762 C786 0.950 . S
H763 C787 0.951 . S
H764 C789 0.951 . S
H765 C791 0.950 . S
H766 C792 0.950 . S
H767 C794 0.950 . S
H768 C797 0.950 . S
H769 C798 0.950 . S
H770 C800 0.950 . S
H771 C801 0.950 . S
C772 H754 0.951 . S
C772 C773 1.366 . S
C772 C774 1.388 . S
C773 C772 1.366 . S
C773 C777 1.385 . S
C774 H755 0.951 . S
C774 C772 1.388 . S
C774 C775 1.366 . S
C775 C774 1.366 . S
C775 C776 1.414 . S
C775 C778 1.499 . S
C776 H756 0.950 . S
C776 C775 1.414 . S
C776 C777 1.374 . S
C777 H757 0.950 . S
C777 C773 1.385 . S
C777 C776 1.374 . S
C778 C775 1.499 . S
C778 C779 1.373 1_545 S
C778 C780 1.389 . S
C779 H758 0.950 . S
C779 C778 1.373 1_565 S
C779 C795 1.377 . S
C780 C778 1.389 . S
C780 C781 1.524 . S
C780 C794 1.377 . S
C781 C780 1.524 . S
C781 C782 1.397 . S
C781 C786 1.363 . S
C782 H759 0.950 . S
C782 C781 1.397 . S
C782 C783 1.334 . S
C783 H760 0.950 . S
C783 C782 1.334 . S
C783 C784 1.287 . S
C784 C783 1.287 . S
C784 C785 1.524 . S
C784 H803 0.913 . S
C785 H761 0.950 . S
C785 C784 1.524 . S
C785 C786 1.415 . S
C786 H762 0.950 . S
C786 C781 1.363 . S
C786 C785 1.415 . S
C787 H763 0.951 . S
C787 C788 1.366 . S
C787 C789 1.388 . S
C788 C787 1.366 . S
C788 C792 1.385 . S
C789 H764 0.951 . S
C789 C787 1.388 . S
C789 C790 1.366 . S
C790 C789 1.366 . S
C790 C791 1.414 . S
C790 C793 1.499 . S
C791 H765 0.950 . S
C791 C790 1.414 . S
C791 C792 1.374 . S
C792 H766 0.950 . S
C792 C788 1.385 . S
C792 C791 1.374 . S
C793 C790 1.499 . S
C793 C794 1.373 1_565 S
C793 C795 1.389 . S
C794 H767 0.950 . S
C794 C780 1.377 . S
C794 C793 1.373 1_545 S
C795 C779 1.377 . S
C795 C793 1.389 . S
C795 C796 1.524 . S
C796 C795 1.524 . S
C796 C797 1.397 . S
C796 C801 1.363 . S
C797 H768 0.950 . S
C797 C796 1.397 . S
C797 C798 1.334 . S
C798 H769 0.950 . S
C798 C797 1.334 . S
C798 C799 1.287 . S
C799 C798 1.287 . S
C799 C800 1.524 . S
C799 H802 0.999 . S
C800 H770 0.950 . S
C800 C799 1.524 . S
C800 C801 1.415 . S
C801 H771 0.950 . S
C801 C796 1.363 . S
C801 C800 1.415 . S
H802 C799 0.999 . S
H803 C784 0.913 . S
H804 C822 0.951 . S
H805 C824 0.951 . S
H806 C826 0.950 . S
H807 C827 0.950 1_554 S
H808 C829 0.950 . S
H809 C832 0.950 . S
H810 C833 0.950 . S
H811 C835 0.950 . S
H812 C836 0.950 . S
H813 C837 0.951 . S
H814 C839 0.951 . S
H815 C841 0.950 . S
H816 C842 0.950 . S
H817 C844 0.950 . S
H818 C847 0.950 . S
H819 C848 0.950 . S
H820 C850 0.950 . S
H821 C851 0.950 . S
C822 H804 0.951 . S
C822 C823 1.366 . S
C822 C824 1.388 . S
C823 C822 1.366 . S
C823 C827 1.385 . S
C824 H805 0.951 . S
C824 C822 1.388 . S
C824 C825 1.366 . S
C825 C824 1.366 . S
C825 C826 1.414 . S
C825 C828 1.499 . S
C826 H806 0.950 . S
C826 C825 1.414 . S
C826 C827 1.374 . S
C827 H807 0.950 1_556 S
C827 C823 1.385 . S
C827 C826 1.374 . S
C828 C825 1.499 . S
C828 C829 1.373 . S
C828 C830 1.389 . S
C829 H808 0.950 . S
C829 C828 1.373 . S
C829 C845 1.377 . S
C830 C828 1.389 . S
C830 C831 1.524 . S
C830 C844 1.377 . S
C831 C830 1.524 . S
C831 C832 1.397 . S
C831 C836 1.363 . S
C832 H809 0.950 . S
C832 C831 1.397 . S
C832 C833 1.334 . S
C833 H810 0.950 . S
C833 C832 1.334 . S
C833 C834 1.287 . S
C834 C833 1.287 . S
C834 C835 1.524 . S
C834 H853 0.913 . S
C835 H811 0.950 . S
C835 C834 1.524 . S
C835 C836 1.415 . S
C836 H812 0.950 . S
C836 C831 1.363 . S
C836 C835 1.415 . S
C837 H813 0.951 . S
C837 C838 1.366 . S
C837 C839 1.388 . S
C838 C837 1.366 . S
C838 C842 1.385 . S
C839 H814 0.951 . S
C839 C837 1.388 . S
C839 C840 1.366 . S
C840 C839 1.366 . S
C840 C841 1.414 . S
C840 C843 1.499 . S
C841 H815 0.950 . S
C841 C840 1.414 . S
C841 C842 1.374 . S
C842 H816 0.950 . S
C842 C838 1.385 . S
C842 C841 1.374 . S
C843 C840 1.499 . S
C843 C844 1.373 . S
C843 C845 1.389 . S
C844 H817 0.950 . S
C844 C830 1.377 . S
C844 C843 1.373 . S
C845 C829 1.377 . S
C845 C843 1.389 . S
C845 C846 1.524 . S
C846 C845 1.524 . S
C846 C847 1.397 . S
C846 C851 1.363 . S
C847 H818 0.950 . S
C847 C846 1.397 . S
C847 C848 1.334 . S
C848 H819 0.950 . S
C848 C847 1.334 . S
C848 C849 1.287 . S
C849 C848 1.287 . S
C849 C850 1.524 . S
C849 H852 0.999 . S
C850 H820 0.950 . S
C850 C849 1.524 . S
C850 C851 1.415 . S
C851 H821 0.950 . S
C851 C846 1.363 . S
C851 C850 1.415 . S
H852 C849 0.999 . S
H853 C834 0.913 . S
H854 C872 0.951 . S
H855 C874 0.951 . S
H856 C876 0.950 . S
H857 C877 0.950 . S
H858 C879 0.950 . S
H859 C882 0.950 . S
H860 C883 0.950 . S
H861 C885 0.950 . S
H862 C886 0.950 . S
H863 C887 0.951 . S
H864 C889 0.951 . S
H865 C891 0.950 . S
H866 C892 0.950 . S
H867 C894 0.950 . S
H868 C897 0.950 . S
H869 C898 0.950 . S
H870 C900 0.950 . S
H871 C901 0.950 . S
C872 H854 0.951 . S
C872 C873 1.366 . S
C872 C874 1.388 . S
C873 C872 1.366 . S
C873 C877 1.385 . S
C874 H855 0.951 . S
C874 C872 1.388 . S
C874 C875 1.366 . S
C875 C874 1.366 . S
C875 C876 1.414 . S
C875 C878 1.499 . S
C876 H856 0.950 . S
C876 C875 1.414 . S
C876 C877 1.374 . S
C877 H857 0.950 . S
C877 C873 1.385 . S
C877 C876 1.374 . S
C878 C875 1.499 . S
C878 C879 1.373 . S
C878 C880 1.389 . S
C879 H858 0.950 . S
C879 C878 1.373 . S
C879 C895 1.377 . S
C880 C878 1.389 . S
C880 C881 1.524 . S
C880 C894 1.377 . S
C881 C880 1.524 . S
C881 C882 1.397 . S
C881 C886 1.363 . S
C882 H859 0.950 . S
C882 C881 1.397 . S
C882 C883 1.334 . S
C883 H860 0.950 . S
C883 C882 1.334 . S
C883 C884 1.287 . S
C884 C883 1.287 . S
C884 C885 1.524 . S
C884 H903 0.913 . S
C885 H861 0.950 . S
C885 C884 1.524 . S
C885 C886 1.415 . S
C886 H862 0.950 . S
C886 C881 1.363 . S
C886 C885 1.415 . S
C887 H863 0.951 . S
C887 C888 1.366 . S
C887 C889 1.388 . S
C888 C887 1.366 . S
C888 C892 1.385 . S
C889 H864 0.951 . S
C889 C887 1.388 . S
C889 C890 1.366 . S
C890 C889 1.366 . S
C890 C891 1.414 . S
C890 C893 1.499 . S
C891 H865 0.950 . S
C891 C890 1.414 . S
C891 C892 1.374 . S
C892 H866 0.950 . S
C892 C888 1.385 . S
C892 C891 1.374 . S
C893 C890 1.499 . S
C893 C894 1.373 . S
C893 C895 1.389 . S
C894 H867 0.950 . S
C894 C880 1.377 . S
C894 C893 1.373 . S
C895 C879 1.377 . S
C895 C893 1.389 . S
C895 C896 1.524 . S
C896 C895 1.524 . S
C896 C897 1.397 . S
C896 C901 1.363 . S
C897 H868 0.950 . S
C897 C896 1.397 . S
C897 C898 1.334 . S
C898 H869 0.950 . S
C898 C897 1.334 . S
C898 C899 1.287 . S
C899 C898 1.287 . S
C899 C900 1.524 . S
C899 H902 0.999 . S
C900 H870 0.950 . S
C900 C899 1.524 . S
C900 C901 1.415 . S
C901 H871 0.950 . S
C901 C896 1.363 . S
C901 C900 1.415 . S
H902 C899 0.999 . S
H903 C884 0.913 . S
H904 C922 0.951 . S
H905 C924 0.951 . S
H906 C926 0.950 . S
H907 C927 0.950 . S
H908 C929 0.950 . S
H909 C932 0.950 . S
H910 C933 0.950 . S
H911 C935 0.950 . S
H912 C936 0.950 . S
H913 C937 0.951 . S
H914 C939 0.951 . S
H915 C941 0.950 . S
H916 C942 0.950 . S
H917 C944 0.950 . S
H918 C947 0.950 . S
H919 C948 0.950 . S
H920 C950 0.950 . S
H921 C951 0.950 . S
C922 H904 0.951 . S
C922 C923 1.366 . S
C922 C924 1.388 . S
C923 C922 1.366 . S
C923 C927 1.385 . S
C924 H905 0.951 . S
C924 C922 1.388 . S
C924 C925 1.366 . S
C925 C924 1.366 . S
C925 C926 1.414 . S
C925 C928 1.499 . S
C926 H906 0.950 . S
C926 C925 1.414 . S
C926 C927 1.374 . S
C927 H907 0.950 . S
C927 C923 1.385 . S
C927 C926 1.374 . S
C928 C925 1.499 . S
C928 C929 1.373 . S
C928 C930 1.389 . S
C929 H908 0.950 . S
C929 C928 1.373 . S
C929 C945 1.377 . S
C930 C928 1.389 . S
C930 C931 1.524 . S
C930 C944 1.377 . S
C931 C930 1.524 . S
C931 C932 1.397 . S
C931 C936 1.363 . S
C932 H909 0.950 . S
C932 C931 1.397 . S
C932 C933 1.334 . S
C933 H910 0.950 . S
C933 C932 1.334 . S
C933 C934 1.287 . S
C934 C933 1.287 . S
C934 C935 1.524 . S
C934 H953 0.913 . S
C935 H911 0.950 . S
C935 C934 1.524 . S
C935 C936 1.415 . S
C936 H912 0.950 . S
C936 C931 1.363 . S
C936 C935 1.415 . S
C937 H913 0.951 . S
C937 C938 1.366 . S
C937 C939 1.388 . S
C938 C937 1.366 . S
C938 C942 1.385 . S
C939 H914 0.951 . S
C939 C937 1.388 . S
C939 C940 1.366 . S
C940 C939 1.366 . S
C940 C941 1.414 . S
C940 C943 1.499 . S
C941 H915 0.950 . S
C941 C940 1.414 . S
C941 C942 1.374 . S
C942 H916 0.950 . S
C942 C938 1.385 . S
C942 C941 1.374 . S
C943 C940 1.499 . S
C943 C944 1.373 . S
C943 C945 1.389 . S
C944 H917 0.950 . S
C944 C930 1.377 . S
C944 C943 1.373 . S
C945 C929 1.377 . S
C945 C943 1.389 . S
C945 C946 1.524 . S
C946 C945 1.524 . S
C946 C947 1.397 . S
C946 C951 1.363 . S
C947 H918 0.950 . S
C947 C946 1.397 . S
C947 C948 1.334 . S
C948 H919 0.950 . S
C948 C947 1.334 . S
C948 C949 1.287 . S
C949 C948 1.287 . S
C949 C950 1.524 . S
C949 H952 0.999 . S
C950 H920 0.950 . S
C950 C949 1.524 . S
C950 C951 1.415 . S
C951 H921 0.950 . S
C951 C946 1.363 . S
C951 C950 1.415 . S
H952 C949 0.999 . S
H953 C934 0.913 . S
H954 C972 0.951 . S
H955 C974 0.951 . S
H956 C976 0.950 . S
H957 C977 0.950 1_556 S
H958 C979 0.950 . S
H959 C982 0.950 . S
H960 C983 0.950 . S
H961 C985 0.950 . S
H962 C986 0.950 . S
H963 C987 0.951 . S
H964 C989 0.951 . S
H965 C991 0.950 . S
H966 C992 0.950 . S
H967 C994 0.950 . S
H968 C997 0.950 . S
H969 C998 0.950 . S
H970 C1000 0.950 . S
H971 C1001 0.950 . S
C972 H954 0.951 . S
C972 C973 1.366 . S
C972 C974 1.388 . S
C973 C972 1.366 . S
C973 C977 1.385 . S
C974 H955 0.951 . S
C974 C972 1.388 . S
C974 C975 1.366 . S
C975 C974 1.366 . S
C975 C976 1.414 . S
C975 C978 1.499 . S
C976 H956 0.950 . S
C976 C975 1.414 . S
C976 C977 1.374 . S
C977 H957 0.950 1_554 S
C977 C973 1.385 . S
C977 C976 1.374 . S
C978 C975 1.499 . S
C978 C979 1.373 . S
C978 C980 1.389 . S
C979 H958 0.950 . S
C979 C978 1.373 . S
C979 C995 1.377 . S
C980 C978 1.389 . S
C980 C981 1.524 . S
C980 C994 1.377 . S
C981 C980 1.524 . S
C981 C982 1.397 . S
C981 C986 1.363 . S
C982 H959 0.950 . S
C982 C981 1.397 . S
C982 C983 1.334 . S
C983 H960 0.950 . S
C983 C982 1.334 . S
C983 C984 1.287 . S
C984 C983 1.287 . S
C984 C985 1.524 . S
C984 H1003 0.913 . S
C985 H961 0.950 . S
C985 C984 1.524 . S
C985 C986 1.415 . S
C986 H962 0.950 . S
C986 C981 1.363 . S
C986 C985 1.415 . S
C987 H963 0.951 . S
C987 C988 1.366 . S
C987 C989 1.388 . S
C988 C987 1.366 . S
C988 C992 1.385 . S
C989 H964 0.951 . S
C989 C987 1.388 . S
C989 C990 1.366 . S
C990 C989 1.366 . S
C990 C991 1.414 . S
C990 C993 1.499 . S
C991 H965 0.950 . S
C991 C990 1.414 . S
C991 C992 1.374 . S
C992 H966 0.950 . S
C992 C988 1.385 . S
C992 C991 1.374 . S
C993 C990 1.499 . S
C993 C994 1.373 . S
C993 C995 1.389 . S
C994 H967 0.950 . S
C994 C980 1.377 . S
C994 C993 1.373 . S
C995 C979 1.377 . S
C995 C993 1.389 . S
C995 C996 1.524 . S
C996 C995 1.524 . S
C996 C997 1.397 . S
C996 C1001 1.363 . S
C997 H968 0.950 . S
C997 C996 1.397 . S
C997 C998 1.334 . S
C998 H969 0.950 . S
C998 C997 1.334 . S
C998 C999 1.287 . S
C999 C998 1.287 . S
C999 C1000 1.524 . S
C999 H1002 0.999 . S
C1000 H970 0.950 . S
C1000 C999 1.524 . S
C1000 C1001 1.415 . S
C1001 H971 0.950 . S
C1001 C996 1.363 . S
C1001 C1000 1.415 . S
H1002 C999 0.999 . S
H1003 C984 0.913 . S
H1004 C1022 0.951 . S
H1005 C1024 0.951 . S
H1006 C1026 0.950 . S
H1007 C1027 0.950 . S
H1008 C1029 0.950 . S
H1009 C1032 0.950 . S
H1010 C1033 0.950 . S
H1011 C1035 0.950 . S
H1012 C1036 0.950 . S
H1013 C1037 0.951 . S
H1014 C1039 0.951 . S
H1015 C1041 0.950 . S
H1016 C1042 0.950 . S
H1017 C1044 0.950 . S
H1018 C1047 0.950 . S
H1019 C1048 0.950 . S
H1020 C1050 0.950 . S
H1021 C1051 0.950 . S
C1022 H1004 0.951 . S
C1022 C1023 1.366 . S
C1022 C1024 1.388 . S
C1023 C1022 1.366 . S
C1023 C1027 1.385 . S
C1024 H1005 0.951 . S
C1024 C1022 1.388 . S
C1024 C1025 1.366 . S
C1025 C1024 1.366 . S
C1025 C1026 1.414 . S
C1025 C1028 1.499 . S
C1026 H1006 0.950 . S
C1026 C1025 1.414 . S
C1026 C1027 1.374 . S
C1027 H1007 0.950 . S
C1027 C1023 1.385 . S
C1027 C1026 1.374 . S
C1028 C1025 1.499 . S
C1028 C1029 1.373 . S
C1028 C1030 1.389 . S
C1029 H1008 0.950 . S
C1029 C1028 1.373 . S
C1029 C1045 1.377 . S
C1030 C1028 1.389 . S
C1030 C1031 1.524 . S
C1030 C1044 1.377 . S
C1031 C1030 1.524 . S
C1031 C1032 1.397 . S
C1031 C1036 1.363 . S
C1032 H1009 0.950 . S
C1032 C1031 1.397 . S
C1032 C1033 1.334 . S
C1033 H1010 0.950 . S
C1033 C1032 1.334 . S
C1033 C1034 1.287 . S
C1034 C1033 1.287 . S
C1034 C1035 1.524 . S
C1034 H1053 0.913 . S
C1035 H1011 0.950 . S
C1035 C1034 1.524 . S
C1035 C1036 1.415 . S
C1036 H1012 0.950 . S
C1036 C1031 1.363 . S
C1036 C1035 1.415 . S
C1037 H1013 0.951 . S
C1037 C1038 1.366 . S
C1037 C1039 1.388 . S
C1038 C1037 1.366 . S
C1038 C1042 1.385 . S
C1039 H1014 0.951 . S
C1039 C1037 1.388 . S
C1039 C1040 1.366 . S
C1040 C1039 1.366 . S
C1040 C1041 1.414 . S
C1040 C1043 1.499 . S
C1041 H1015 0.950 . S
C1041 C1040 1.414 . S
C1041 C1042 1.374 . S
C1042 H1016 0.950 . S
C1042 C1038 1.385 . S
C1042 C1041 1.374 . S
C1043 C1040 1.499 . S
C1043 C1044 1.373 . S
C1043 C1045 1.389 . S
C1044 H1017 0.950 . S
C1044 C1030 1.377 . S
C1044 C1043 1.373 . S
C1045 C1029 1.377 . S
C1045 C1043 1.389 . S
C1045 C1046 1.524 . S
C1046 C1045 1.524 . S
C1046 C1047 1.397 . S
C1046 C1051 1.363 . S
C1047 H1018 0.950 . S
C1047 C1046 1.397 . S
C1047 C1048 1.334 . S
C1048 H1019 0.950 . S
C1048 C1047 1.334 . S
C1048 C1049 1.287 . S
C1049 C1048 1.287 . S
C1049 C1050 1.524 . S
C1049 H1052 0.999 . S
C1050 H1020 0.950 . S
C1050 C1049 1.524 . S
C1050 C1051 1.415 . S
C1051 H1021 0.950 . S
C1051 C1046 1.363 . S
C1051 C1050 1.415 . S
H1052 C1049 0.999 . S
H1053 C1034 0.913 . S
H1054 C1072 0.951 . S
H1055 C1074 0.951 . S
H1056 C1076 0.950 . S
H1057 C1077 0.950 . S
H1058 C1079 0.950 . S
H1059 C1082 0.950 . S
H1060 C1083 0.950 . S
H1061 C1085 0.950 . S
H1062 C1086 0.950 . S
H1063 C1087 0.951 . S
H1064 C1089 0.951 . S
H1065 C1091 0.950 . S
H1066 C1092 0.950 . S
H1067 C1094 0.950 . S
H1068 C1097 0.950 . S
H1069 C1098 0.950 . S
H1070 C1100 0.950 . S
H1071 C1101 0.950 . S
C1072 H1054 0.951 . S
C1072 C1073 1.366 . S
C1072 C1074 1.388 . S
C1073 C1072 1.366 . S
C1073 C1077 1.385 . S
C1074 H1055 0.951 . S
C1074 C1072 1.388 . S
C1074 C1075 1.366 . S
C1075 C1074 1.366 . S
C1075 C1076 1.414 . S
C1075 C1078 1.499 . S
C1076 H1056 0.950 . S
C1076 C1075 1.414 . S
C1076 C1077 1.374 . S
C1077 H1057 0.950 . S
C1077 C1073 1.385 . S
C1077 C1076 1.374 . S
C1078 C1075 1.499 . S
C1078 C1079 1.373 . S
C1078 C1080 1.389 . S
C1079 H1058 0.950 . S
C1079 C1078 1.373 . S
C1079 C1095 1.377 . S
C1080 C1078 1.389 . S
C1080 C1081 1.524 . S
C1080 C1094 1.377 . S
C1081 C1080 1.524 . S
C1081 C1082 1.397 . S
C1081 C1086 1.363 . S
C1082 H1059 0.950 . S
C1082 C1081 1.397 . S
C1082 C1083 1.334 . S
C1083 H1060 0.950 . S
C1083 C1082 1.334 . S
C1083 C1084 1.287 . S
C1084 C1083 1.287 . S
C1084 C1085 1.524 . S
C1084 H1103 0.913 . S
C1085 H1061 0.950 . S
C1085 C1084 1.524 . S
C1085 C1086 1.415 . S
C1086 H1062 0.950 . S
C1086 C1081 1.363 . S
C1086 C1085 1.415 . S
C1087 H1063 0.951 . S
C1087 C1088 1.366 . S
C1087 C1089 1.388 . S
C1088 C1087 1.366 . S
C1088 C1092 1.385 . S
C1089 H1064 0.951 . S
C1089 C1087 1.388 . S
C1089 C1090 1.366 . S
C1090 C1089 1.366 . S
C1090 C1091 1.414 . S
C1090 C1093 1.499 . S
C1091 H1065 0.950 . S
C1091 C1090 1.414 . S
C1091 C1092 1.374 . S
C1092 H1066 0.950 . S
C1092 C1088 1.385 . S
C1092 C1091 1.374 . S
C1093 C1090 1.499 . S
C1093 C1094 1.373 . S
C1093 C1095 1.389 . S
C1094 H1067 0.950 . S
C1094 C1080 1.377 . S
C1094 C1093 1.373 . S
C1095 C1079 1.377 . S
C1095 C1093 1.389 . S
C1095 C1096 1.524 . S
C1096 C1095 1.524 . S
C1096 C1097 1.397 . S
C1096 C1101 1.363 . S
C1097 H1068 0.950 . S
C1097 C1096 1.397 . S
C1097 C1098 1.334 . S
C1098 H1069 0.950 . S
C1098 C1097 1.334 . S
C1098 C1099 1.287 . S
C1099 C1098 1.287 . S
C1099 C1100 1.524 . S
C1099 H1102 0.999 . S
C1100 H1070 0.950 . S
C1100 C1099 1.524 . S
C1100 C1101 1.415 . S
C1101 H1071 0.950 . S
C1101 C1096 1.363 . S
C1101 C1100 1.415 . S
H1102 C1099 0.999 . S
H1103 C1084 0.913 . S
H1104 C1122 0.951 . S
H1105 C1124 0.951 1_455 S
H1106 C1126 0.950 . S
H1107 C1127 0.950 . S
H1108 C1129 0.950 . S
H1109 C1132 0.950 . S
H1110 C1133 0.950 . S
H1111 C1135 0.950 . S
H1112 C1136 0.950 . S
H1113 C1137 0.951 . S
H1114 C1139 0.951 1_655 S
H1115 C1141 0.950 . S
H1116 C1142 0.950 . S
H1117 C1144 0.950 . S
H1118 C1147 0.950 . S
H1119 C1148 0.950 . S
H1120 C1150 0.950 . S
H1121 C1151 0.950 . S
C1122 H1104 0.951 . S
C1122 C1123 1.366 . S
C1122 C1124 1.388 . S
C1123 C1122 1.366 . S
C1123 C1127 1.385 . S
C1124 H1105 0.951 1_655 S
C1124 C1122 1.388 . S
C1124 C1125 1.366 . S
C1125 C1124 1.366 . S
C1125 C1126 1.414 . S
C1125 C1128 1.499 . S
C1126 H1106 0.950 . S
C1126 C1125 1.414 . S
C1126 C1127 1.374 . S
C1127 H1107 0.950 . S
C1127 C1123 1.385 . S
C1127 C1126 1.374 . S
C1128 C1125 1.499 . S
C1128 C1129 1.373 . S
C1128 C1130 1.389 1_655 S
C1129 H1108 0.950 . S
C1129 C1128 1.373 . S
C1129 C1145 1.377 . S
C1130 C1128 1.389 1_455 S
C1130 C1131 1.524 . S
C1130 C1144 1.377 . S
C1131 C1130 1.524 . S
C1131 C1132 1.397 . S
C1131 C1136 1.363 . S
C1132 H1109 0.950 . S
C1132 C1131 1.397 . S
C1132 C1133 1.334 . S
C1133 H1110 0.950 . S
C1133 C1132 1.334 . S
C1133 C1134 1.287 . S
C1134 C1133 1.287 . S
C1134 C1135 1.524 . S
C1134 H1153 0.913 . S
C1135 H1111 0.950 . S
C1135 C1134 1.524 . S
C1135 C1136 1.415 . S
C1136 H1112 0.950 . S
C1136 C1131 1.363 . S
C1136 C1135 1.415 . S
C1137 H1113 0.951 . S
C1137 C1138 1.366 . S
C1137 C1139 1.388 . S
C1138 C1137 1.366 . S
C1138 C1142 1.385 . S
C1139 H1114 0.951 1_455 S
C1139 C1137 1.388 . S
C1139 C1140 1.366 . S
C1140 C1139 1.366 . S
C1140 C1141 1.414 . S
C1140 C1143 1.499 . S
C1141 H1115 0.950 . S
C1141 C1140 1.414 . S
C1141 C1142 1.374 . S
C1142 H1116 0.950 . S
C1142 C1138 1.385 . S
C1142 C1141 1.374 . S
C1143 C1140 1.499 . S
C1143 C1144 1.373 . S
C1143 C1145 1.389 1_455 S
C1144 H1117 0.950 . S
C1144 C1130 1.377 . S
C1144 C1143 1.373 . S
C1145 C1129 1.377 . S
C1145 C1143 1.389 1_655 S
C1145 C1146 1.524 . S
C1146 C1145 1.524 . S
C1146 C1147 1.397 . S
C1146 C1151 1.363 . S
C1147 H1118 0.950 . S
C1147 C1146 1.397 . S
C1147 C1148 1.334 . S
C1148 H1119 0.950 . S
C1148 C1147 1.334 . S
C1148 C1149 1.287 . S
C1149 C1148 1.287 . S
C1149 C1150 1.524 . S
C1149 H1152 0.999 . S
C1150 H1120 0.950 . S
C1150 C1149 1.524 . S
C1150 C1151 1.415 . S
C1151 H1121 0.950 . S
C1151 C1146 1.363 . S
C1151 C1150 1.415 . S
H1152 C1149 0.999 . S
H1153 C1134 0.913 . S
H1154 C1172 0.951 . S
H1155 C1174 0.951 . S
H1156 C1176 0.950 . S
H1157 C1177 0.950 . S
H1158 C1179 0.950 . S
H1159 C1182 0.950 . S
H1160 C1183 0.950 . S
H1161 C1185 0.950 . S
H1162 C1186 0.950 . S
H1163 C1187 0.951 . S
H1164 C1189 0.951 . S
H1165 C1191 0.950 . S
H1166 C1192 0.950 . S
H1167 C1194 0.950 . S
H1168 C1197 0.950 . S
H1169 C1198 0.950 . S
H1170 C1200 0.950 . S
H1171 C1201 0.950 . S
C1172 H1154 0.951 . S
C1172 C1173 1.366 . S
C1172 C1174 1.388 . S
C1173 C1172 1.366 . S
C1173 C1177 1.385 . S
C1174 H1155 0.951 . S
C1174 C1172 1.388 . S
C1174 C1175 1.366 . S
C1175 C1174 1.366 . S
C1175 C1176 1.414 . S
C1175 C1178 1.499 . S
C1176 H1156 0.950 . S
C1176 C1175 1.414 . S
C1176 C1177 1.374 . S
C1177 H1157 0.950 . S
C1177 C1173 1.385 . S
C1177 C1176 1.374 . S
C1178 C1175 1.499 . S
C1178 C1179 1.373 . S
C1178 C1180 1.389 . S
C1179 H1158 0.950 . S
C1179 C1178 1.373 . S
C1179 C1195 1.377 . S
C1180 C1178 1.389 . S
C1180 C1181 1.524 . S
C1180 C1194 1.377 . S
C1181 C1180 1.524 . S
C1181 C1182 1.397 . S
C1181 C1186 1.363 . S
C1182 H1159 0.950 . S
C1182 C1181 1.397 . S
C1182 C1183 1.334 . S
C1183 H1160 0.950 . S
C1183 C1182 1.334 . S
C1183 C1184 1.287 . S
C1184 C1183 1.287 . S
C1184 C1185 1.524 . S
C1184 H1203 0.913 . S
C1185 H1161 0.950 . S
C1185 C1184 1.524 . S
C1185 C1186 1.415 . S
C1186 H1162 0.950 . S
C1186 C1181 1.363 . S
C1186 C1185 1.415 . S
C1187 H1163 0.951 . S
C1187 C1188 1.366 . S
C1187 C1189 1.388 . S
C1188 C1187 1.366 . S
C1188 C1192 1.385 . S
C1189 H1164 0.951 . S
C1189 C1187 1.388 . S
C1189 C1190 1.366 . S
C1190 C1189 1.366 . S
C1190 C1191 1.414 . S
C1190 C1193 1.499 . S
C1191 H1165 0.950 . S
C1191 C1190 1.414 . S
C1191 C1192 1.374 . S
C1192 H1166 0.950 . S
C1192 C1188 1.385 . S
C1192 C1191 1.374 . S
C1193 C1190 1.499 . S
C1193 C1194 1.373 . S
C1193 C1195 1.389 . S
C1194 H1167 0.950 . S
C1194 C1180 1.377 . S
C1194 C1193 1.373 . S
C1195 C1179 1.377 . S
C1195 C1193 1.389 . S
C1195 C1196 1.524 . S
C1196 C1195 1.524 . S
C1196 C1197 1.397 . S
C1196 C1201 1.363 . S
C1197 H1168 0.950 . S
C1197 C1196 1.397 . S
C1197 C1198 1.334 . S
C1198 H1169 0.950 . S
C1198 C1197 1.334 . S
C1198 C1199 1.287 . S
C1199 C1198 1.287 . S
C1199 C1200 1.524 . S
C1199 H1202 0.999 . S
C1200 H1170 0.950 . S
C1200 C1199 1.524 . S
C1200 C1201 1.415 . S
C1201 H1171 0.950 . S
C1201 C1196 1.363 . S
C1201 C1200 1.415 . S
H1202 C1199 0.999 . S
H1203 C1184 0.913 . S
H1204 C1222 0.951 . S
H1205 C1224 0.951 1_565 S
H1206 C1226 0.950 . S
H1207 C1227 0.950 . S
H1208 C1229 0.950 . S
H1209 C1232 0.950 . S
H1210 C1233 0.950 . S
H1211 C1235 0.950 . S
H1212 C1236 0.950 . S
H1213 C1237 0.951 . S
H1214 C1239 0.951 1_545 S
H1215 C1241 0.950 . S
H1216 C1242 0.950 . S
H1217 C1244 0.950 . S
H1218 C1247 0.950 . S
H1219 C1248 0.950 . S
H1220 C1250 0.950 . S
H1221 C1251 0.950 . S
C1222 H1204 0.951 . S
C1222 C1223 1.366 . S
C1222 C1224 1.388 . S
C1223 C1222 1.366 . S
C1223 C1227 1.385 . S
C1224 H1205 0.951 1_545 S
C1224 C1222 1.388 . S
C1224 C1225 1.366 . S
C1225 C1224 1.366 . S
C1225 C1226 1.414 . S
C1225 C1228 1.499 . S
C1226 H1206 0.950 . S
C1226 C1225 1.414 . S
C1226 C1227 1.374 . S
C1227 H1207 0.950 . S
C1227 C1223 1.385 . S
C1227 C1226 1.374 . S
C1228 C1225 1.499 . S
C1228 C1229 1.373 . S
C1228 C1230 1.389 1_545 S
C1229 H1208 0.950 . S
C1229 C1228 1.373 . S
C1229 C1245 1.377 . S
C1230 C1228 1.389 1_565 S
C1230 C1231 1.524 . S
C1230 C1244 1.377 . S
C1231 C1230 1.524 . S
C1231 C1232 1.397 . S
C1231 C1236 1.363 . S
C1232 H1209 0.950 . S
C1232 C1231 1.397 . S
C1232 C1233 1.334 . S
C1233 H1210 0.950 . S
C1233 C1232 1.334 . S
C1233 C1234 1.287 . S
C1234 C1233 1.287 . S
C1234 C1235 1.524 . S
C1234 H1253 0.913 . S
C1235 H1211 0.950 . S
C1235 C1234 1.524 . S
C1235 C1236 1.415 . S
C1236 H1212 0.950 . S
C1236 C1231 1.363 . S
C1236 C1235 1.415 . S
C1237 H1213 0.951 . S
C1237 C1238 1.366 . S
C1237 C1239 1.388 . S
C1238 C1237 1.366 . S
C1238 C1242 1.385 . S
C1239 H1214 0.951 1_565 S
C1239 C1237 1.388 . S
C1239 C1240 1.366 . S
C1240 C1239 1.366 . S
C1240 C1241 1.414 . S
C1240 C1243 1.499 . S
C1241 H1215 0.950 . S
C1241 C1240 1.414 . S
C1241 C1242 1.374 . S
C1242 H1216 0.950 . S
C1242 C1238 1.385 . S
C1242 C1241 1.374 . S
C1243 C1240 1.499 . S
C1243 C1244 1.373 . S
C1243 C1245 1.389 1_565 S
C1244 H1217 0.950 . S
C1244 C1230 1.377 . S
C1244 C1243 1.373 . S
C1245 C1229 1.377 . S
C1245 C1243 1.389 1_545 S
C1245 C1246 1.524 . S
C1246 C1245 1.524 . S
C1246 C1247 1.397 . S
C1246 C1251 1.363 . S
C1247 H1218 0.950 . S
C1247 C1246 1.397 . S
C1247 C1248 1.334 . S
C1248 H1219 0.950 . S
C1248 C1247 1.334 . S
C1248 C1249 1.287 . S
C1249 C1248 1.287 . S
C1249 C1250 1.524 . S
C1249 H1252 0.999 . S
C1250 H1220 0.950 . S
C1250 C1249 1.524 . S
C1250 C1251 1.415 . S
C1251 H1221 0.950 . S
C1251 C1246 1.363 . S
C1251 C1250 1.415 . S
H1252 C1249 0.999 . S
H1253 C1234 0.913 . S
C223 C173 2.421 . S
C238 C17 2.438 . S
C273 C51 2.438 . S
C288 C103 2.421 . S
C323 C85 2.438 . S
C338 C137 2.421 . S
C373 C35 2.421 . S
C388 C119 2.438 . S
C423 C71 2.421 . S
C438 C153 2.438 . S
C473 C3 2.421 . S
C488 C187 2.438 . S
C523 C130 0.378 . S
C538 C6 0.375 . S
C573 C164 0.379 . S
C588 C62 0.376 . S
C623 C176 0.378 . S
C638 C74 0.379 . S
C673 C158 0.523 . S
C688 C15 0.523 . S
C723 C56 0.523 . S
C738 C185 0.524 . S
C773 C124 0.523 . S
C788 C83 0.524 . S
C823 C22 0.446 . S
C838 C40 0.157 . S
C873 C96 0.153 . S
C888 C49 0.450 . S
C923 C28 0.157 . S
C938 C90 0.446 . S
C973 C117 0.446 . S
C988 C198 0.157 . S
C1023 C151 0.448 . S
C1038 C108 0.154 . S
C1073 C142 0.153 . S
C1088 C192 0.450 . S
C1123 C139 3.569 . S
C1138 C1 3.569 1_556 S
C1173 C37 3.569 . S
C1188 C171 3.569 . S
C1223 C105 3.569 1_554 S
C1238 C69 3.569 . S
