# Generated by pormake.
# Topology ato, (4)-cn, num edge types: 1
# Building blocks:
#     Node 0, Type 0, BuildingBlock: GALJAG_clean_sbu_0, # of connection points: 4
#     Node 1, Type 0, BuildingBlock: GALJAG_clean_sbu_0, # of connection points: 4
#     Node 2, Type 0, BuildingBlock: GALJAG_clean_sbu_0, # of connection points: 4
#     Node 3, Type 0, BuildingBlock: GALJAG_clean_sbu_0, # of connection points: 4
#     Node 4, Type 0, BuildingBlock: GALJAG_clean_sbu_0, # of connection points: 4
#     Node 5, Type 0, BuildingBlock: GALJAG_clean_sbu_0, # of connection points: 4
#     Node 6, Type 0, BuildingBlock: GALJAG_clean_sbu_0, # of connection points: 4
#     Node 7, Type 0, BuildingBlock: GALJAG_clean_sbu_0, # of connection points: 4
#     Node 8, Type 0, BuildingBlock: GALJAG_clean_sbu_0, # of connection points: 4
#     Node 9, Type 0, BuildingBlock: GALJAG_clean_sbu_0, # of connection points: 4
#     Node 10, Type 0, BuildingBlock: GALJAG_clean_sbu_0, # of connection points: 4
#     Node 11, Type 0, BuildingBlock: GALJAG_clean_sbu_0, # of connection points: 4
#     Node 12, Type 0, BuildingBlock: GALJAG_clean_sbu_0, # of connection points: 4
#     Node 13, Type 0, BuildingBlock: GALJAG_clean_sbu_0, # of connection points: 4
#     Node 14, Type 0, BuildingBlock: GALJAG_clean_sbu_0, # of connection points: 4
#     Node 15, Type 0, BuildingBlock: GALJAG_clean_sbu_0, # of connection points: 4
#     Node 16, Type 0, BuildingBlock: GALJAG_clean_sbu_0, # of connection points: 4
#     Node 17, Type 0, BuildingBlock: GALJAG_clean_sbu_0, # of connection points: 4
#     Node 18, Type 0, BuildingBlock: GALJAG_clean_sbu_0, # of connection points: 4
#     Node 19, Type 0, BuildingBlock: GALJAG_clean_sbu_0, # of connection points: 4
#     Node 20, Type 0, BuildingBlock: GALJAG_clean_sbu_0, # of connection points: 4
#     Node 21, Type 0, BuildingBlock: GALJAG_clean_sbu_0, # of connection points: 4
#     Node 22, Type 0, BuildingBlock: GALJAG_clean_sbu_0, # of connection points: 4
#     Node 23, Type 0, BuildingBlock: GALJAG_clean_sbu_0, # of connection points: 4
#     Node 24, Type 0, BuildingBlock: GALJAG_clean_sbu_0, # of connection points: 4
#     Node 25, Type 0, BuildingBlock: GALJAG_clean_sbu_0, # of connection points: 4
#     Node 26, Type 0, BuildingBlock: GALJAG_clean_sbu_0, # of connection points: 4
#     Node 27, Type 0, BuildingBlock: GALJAG_clean_sbu_0, # of connection points: 4
#     Node 28, Type 0, BuildingBlock: GALJAG_clean_sbu_0, # of connection points: 4
#     Node 29, Type 0, BuildingBlock: GALJAG_clean_sbu_0, # of connection points: 4
#     Node 30, Type 0, BuildingBlock: GALJAG_clean_sbu_0, # of connection points: 4
#     Node 31, Type 0, BuildingBlock: GALJAG_clean_sbu_0, # of connection points: 4
#     Node 32, Type 0, BuildingBlock: GALJAG_clean_sbu_0, # of connection points: 4
#     Node 33, Type 0, BuildingBlock: GALJAG_clean_sbu_0, # of connection points: 4
#     Node 34, Type 0, BuildingBlock: GALJAG_clean_sbu_0, # of connection points: 4
#     Node 35, Type 0, BuildingBlock: GALJAG_clean_sbu_0, # of connection points: 4
#     Edge 36, Type (0, 0), BuildingBlock: EZIPEK_clean_linker_0, # of connection points: 2
#     Edge 37, Type (0, 0), BuildingBlock: EZIPEK_clean_linker_0, # of connection points: 2
#     Edge 38, Type (0, 0), BuildingBlock: EZIPEK_clean_linker_0, # of connection points: 2
#     Edge 39, Type (0, 0), BuildingBlock: EZIPEK_clean_linker_0, # of connection points: 2
#     Edge 40, Type (0, 0), BuildingBlock: EZIPEK_clean_linker_0, # of connection points: 2
#     Edge 41, Type (0, 0), BuildingBlock: EZIPEK_clean_linker_0, # of connection points: 2
#     Edge 42, Type (0, 0), BuildingBlock: EZIPEK_clean_linker_0, # of connection points: 2
#     Edge 43, Type (0, 0), BuildingBlock: EZIPEK_clean_linker_0, # of connection points: 2
#     Edge 44, Type (0, 0), BuildingBlock: EZIPEK_clean_linker_0, # of connection points: 2
#     Edge 45, Type (0, 0), BuildingBlock: EZIPEK_clean_linker_0, # of connection points: 2
#     Edge 46, Type (0, 0), BuildingBlock: EZIPEK_clean_linker_0, # of connection points: 2
#     Edge 47, Type (0, 0), BuildingBlock: EZIPEK_clean_linker_0, # of connection points: 2
#     Edge 48, Type (0, 0), BuildingBlock: EZIPEK_clean_linker_0, # of connection points: 2
#     Edge 49, Type (0, 0), BuildingBlock: EZIPEK_clean_linker_0, # of connection points: 2
#     Edge 50, Type (0, 0), BuildingBlock: EZIPEK_clean_linker_0, # of connection points: 2
#     Edge 51, Type (0, 0), BuildingBlock: EZIPEK_clean_linker_0, # of connection points: 2
#     Edge 52, Type (0, 0), BuildingBlock: EZIPEK_clean_linker_0, # of connection points: 2
#     Edge 53, Type (0, 0), BuildingBlock: EZIPEK_clean_linker_0, # of connection points: 2
#     Edge 54, Type (0, 0), BuildingBlock: EZIPEK_clean_linker_0, # of connection points: 2
#     Edge 55, Type (0, 0), BuildingBlock: EZIPEK_clean_linker_0, # of connection points: 2
#     Edge 56, Type (0, 0), BuildingBlock: EZIPEK_clean_linker_0, # of connection points: 2
#     Edge 57, Type (0, 0), BuildingBlock: EZIPEK_clean_linker_0, # of connection points: 2
#     Edge 58, Type (0, 0), BuildingBlock: EZIPEK_clean_linker_0, # of connection points: 2
#     Edge 59, Type (0, 0), BuildingBlock: EZIPEK_clean_linker_0, # of connection points: 2
#     Edge 60, Type (0, 0), BuildingBlock: EZIPEK_clean_linker_0, # of connection points: 2
#     Edge 61, Type (0, 0), BuildingBlock: EZIPEK_clean_linker_0, # of connection points: 2
#     Edge 62, Type (0, 0), BuildingBlock: EZIPEK_clean_linker_0, # of connection points: 2
#     Edge 63, Type (0, 0), BuildingBlock: EZIPEK_clean_linker_0, # of connection points: 2
#     Edge 64, Type (0, 0), BuildingBlock: EZIPEK_clean_linker_0, # of connection points: 2
#     Edge 65, Type (0, 0), BuildingBlock: EZIPEK_clean_linker_0, # of connection points: 2
#     Edge 66, Type (0, 0), BuildingBlock: EZIPEK_clean_linker_0, # of connection points: 2
#     Edge 67, Type (0, 0), BuildingBlock: EZIPEK_clean_linker_0, # of connection points: 2
#     Edge 68, Type (0, 0), BuildingBlock: EZIPEK_clean_linker_0, # of connection points: 2
#     Edge 69, Type (0, 0), BuildingBlock: EZIPEK_clean_linker_0, # of connection points: 2
#     Edge 70, Type (0, 0), BuildingBlock: EZIPEK_clean_linker_0, # of connection points: 2
#     Edge 71, Type (0, 0), BuildingBlock: EZIPEK_clean_linker_0, # of connection points: 2
#     Edge 72, Type (0, 0), BuildingBlock: EZIPEK_clean_linker_0, # of connection points: 2
#     Edge 73, Type (0, 0), BuildingBlock: EZIPEK_clean_linker_0, # of connection points: 2
#     Edge 74, Type (0, 0), BuildingBlock: EZIPEK_clean_linker_0, # of connection points: 2
#     Edge 75, Type (0, 0), BuildingBlock: EZIPEK_clean_linker_0, # of connection points: 2
#     Edge 76, Type (0, 0), BuildingBlock: EZIPEK_clean_linker_0, # of connection points: 2
#     Edge 77, Type (0, 0), BuildingBlock: EZIPEK_clean_linker_0, # of connection points: 2
#     Edge 78, Type (0, 0), BuildingBlock: EZIPEK_clean_linker_0, # of connection points: 2
#     Edge 79, Type (0, 0), BuildingBlock: EZIPEK_clean_linker_0, # of connection points: 2
#     Edge 80, Type (0, 0), BuildingBlock: EZIPEK_clean_linker_0, # of connection points: 2
#     Edge 81, Type (0, 0), BuildingBlock: EZIPEK_clean_linker_0, # of connection points: 2
#     Edge 82, Type (0, 0), BuildingBlock: EZIPEK_clean_linker_0, # of connection points: 2
#     Edge 83, Type (0, 0), BuildingBlock: EZIPEK_clean_linker_0, # of connection points: 2
#     Edge 84, Type (0, 0), BuildingBlock: EZIPEK_clean_linker_0, # of connection points: 2
#     Edge 85, Type (0, 0), BuildingBlock: EZIPEK_clean_linker_0, # of connection points: 2
#     Edge 86, Type (0, 0), BuildingBlock: EZIPEK_clean_linker_0, # of connection points: 2
#     Edge 87, Type (0, 0), BuildingBlock: EZIPEK_clean_linker_0, # of connection points: 2
#     Edge 88, Type (0, 0), BuildingBlock: EZIPEK_clean_linker_0, # of connection points: 2
#     Edge 89, Type (0, 0), BuildingBlock: EZIPEK_clean_linker_0, # of connection points: 2
#     Edge 90, Type (0, 0), BuildingBlock: EZIPEK_clean_linker_0, # of connection points: 2
#     Edge 91, Type (0, 0), BuildingBlock: EZIPEK_clean_linker_0, # of connection points: 2
#     Edge 92, Type (0, 0), BuildingBlock: EZIPEK_clean_linker_0, # of connection points: 2
#     Edge 93, Type (0, 0), BuildingBlock: EZIPEK_clean_linker_0, # of connection points: 2
#     Edge 94, Type (0, 0), BuildingBlock: EZIPEK_clean_linker_0, # of connection points: 2
#     Edge 95, Type (0, 0), BuildingBlock: EZIPEK_clean_linker_0, # of connection points: 2
#     Edge 96, Type (0, 0), BuildingBlock: EZIPEK_clean_linker_0, # of connection points: 2
#     Edge 97, Type (0, 0), BuildingBlock: EZIPEK_clean_linker_0, # of connection points: 2
#     Edge 98, Type (0, 0), BuildingBlock: EZIPEK_clean_linker_0, # of connection points: 2
#     Edge 99, Type (0, 0), BuildingBlock: EZIPEK_clean_linker_0, # of connection points: 2
#     Edge 100, Type (0, 0), BuildingBlock: EZIPEK_clean_linker_0, # of connection points: 2
#     Edge 101, Type (0, 0), BuildingBlock: EZIPEK_clean_linker_0, # of connection points: 2
#     Edge 102, Type (0, 0), BuildingBlock: EZIPEK_clean_linker_0, # of connection points: 2
#     Edge 103, Type (0, 0), BuildingBlock: EZIPEK_clean_linker_0, # of connection points: 2
#     Edge 104, Type (0, 0), BuildingBlock: EZIPEK_clean_linker_0, # of connection points: 2
#     Edge 105, Type (0, 0), BuildingBlock: EZIPEK_clean_linker_0, # of connection points: 2
#     Edge 106, Type (0, 0), BuildingBlock: EZIPEK_clean_linker_0, # of connection points: 2
#     Edge 107, Type (0, 0), BuildingBlock: EZIPEK_clean_linker_0, # of connection points: 2
# Relax obj value: 0.074
# Max RMSD: 0.099
# Mean RMSD: 0.099
data_MOF--net-ato--node1-GALJAG_clean_sbu_0--edge1-EZIPEK_clean_linker_0
_symmetry_space_group_name_H-M    P1
_symmetry_Int_Tables_number       1
_symmetry_cell_setting            triclinic
loop_
_symmetry_equiv_pos_as_xyz
'x, y, z'
_cell_length_a     79.223829
_cell_length_b     79.265527
_cell_length_c     15.697441
_cell_angle_alpha  89.991162
_cell_angle_beta   90.022972
_cell_angle_gamma 119.99308
loop_
_atom_site_label
_atom_site_type_symbol
_atom_site_fract_x
_atom_site_fract_y
_atom_site_fract_z
_atom_type_partial_charge
In0 In 0.25845 0.06011 0.25231 0.0
O1 O 0.25977 0.04258 0.36483 0.0
O2 O 0.23241 0.04021 0.33611 0.0
C3 C 0.29635 0.0786 0.20676 0.0
C4 C 0.24163 0.03399 0.12663 0.0
C5 C 0.25405 0.0913 0.2793 0.0
O6 O 0.29063 0.07058 0.27859 0.0
O7 O 0.2831 0.0773 0.15808 0.0
O8 O 0.24593 0.07958 0.21857 0.0
O9 O 0.26389 0.087 0.32883 0.0
C10 C 0.24183 0.03459 0.38124 0.0
O11 O 0.23718 0.04694 0.14118 0.0
O12 O 0.25482 0.03456 0.17352 0.0
In13 In 0.94394 0.19823 0.25776 0.0
O14 O 0.96054 0.21482 0.37645 0.0
O15 O 0.96607 0.19289 0.32807 0.0
C16 C 0.92476 0.21748 0.22021 0.0
C17 C 0.97033 0.21078 0.13257 0.0
C18 C 0.91343 0.16198 0.28009 0.0
O19 O 0.93035 0.21689 0.29497 0.0
O20 O 0.92879 0.20844 0.16548 0.0
O21 O 0.92308 0.16727 0.2118 0.0
O22 O 0.9197 0.17461 0.33842 0.0
C23 C 0.97021 0.20615 0.38231 0.0
O24 O 0.95764 0.19297 0.14058 0.0
O25 O 0.96951 0.22205 0.18708 0.0
In26 In 0.80531 0.74644 0.2537 0.0
O27 O 0.80936 0.7607 0.12296 0.0
O28 O 0.78175 0.74898 0.18338 0.0
C29 C 0.8421 0.75386 0.27647 0.0
C30 C 0.79914 0.76582 0.37953 0.0
C31 C 0.78548 0.70773 0.22162 0.0
O32 O 0.83766 0.76259 0.22139 0.0
O33 O 0.8282 0.74213 0.32331 0.0
O34 O 0.77997 0.71547 0.27718 0.0
O35 O 0.80099 0.71945 0.18369 0.0
C36 C 0.79226 0.75802 0.12053 0.0
O37 O 0.79298 0.74775 0.38368 0.0
O38 O 0.80945 0.77428 0.31525 0.0
In39 In 0.05816 0.25737 0.75309 0.0
O40 O 0.04609 0.24221 0.88056 0.0
O41 O 0.02967 0.25203 0.81081 0.0
C42 C 0.08815 0.25063 0.73494 0.0
C43 C 0.03313 0.23816 0.6255 0.0
C44 C 0.0773 0.29616 0.78422 0.0
O45 O 0.07709 0.24495 0.79905 0.0
O46 O 0.08363 0.25896 0.67825 0.0
O47 O 0.06935 0.28916 0.71337 0.0
O48 O 0.07541 0.28374 0.83897 0.0
C49 C 0.03081 0.24341 0.87608 0.0
O50 O 0.04213 0.25652 0.6313 0.0
O51 O 0.03757 0.22949 0.68097 0.0
In52 In 0.74898 0.80398 0.74893 0.0
O53 O 0.7492 0.78837 0.62747 0.0
O54 O 0.77642 0.81111 0.67357 0.0
C55 C 0.71039 0.78466 0.78248 0.0
C56 C 0.7619 0.78919 0.86912 0.0
C57 C 0.75623 0.84102 0.74007 0.0
O58 O 0.71697 0.78659 0.70767 0.0
O59 O 0.72315 0.79244 0.83977 0.0
O60 O 0.7639 0.83549 0.79569 0.0
O61 O 0.74554 0.82816 0.68691 0.0
C62 C 0.76751 0.7977 0.61982 0.0
O63 O 0.76494 0.80642 0.87296 0.0
O64 O 0.752 0.7794 0.80599 0.0
In65 In 0.19893 0.94589 0.75291 0.0
O66 O 0.22176 0.96896 0.66572 0.0
O67 O 0.19208 0.95962 0.63883 0.0
C68 C 0.21801 0.92622 0.7806 0.0
C69 C 0.20868 0.9721 0.87941 0.0
C70 C 0.16252 0.91514 0.74209 0.0
O71 O 0.22076 0.93637 0.71436 0.0
O72 O 0.20546 0.92579 0.83139 0.0
O73 O 0.16769 0.92768 0.80073 0.0
O74 O 0.17545 0.91846 0.68705 0.0
C75 C 0.20973 0.9709 0.62047 0.0
O76 O 0.19378 0.967 0.83388 0.0
O77 O 0.21792 0.96337 0.86395 0.0
In78 In 0.74911 0.94412 0.76252 0.0
O79 O 0.773 0.95974 0.86228 0.0
O80 O 0.75186 0.9687 0.845 0.0
C81 C 0.75535 0.91359 0.74938 0.0
C82 C 0.76309 0.96961 0.63189 0.0
C83 C 0.71081 0.92533 0.80384 0.0
O84 O 0.75762 0.92278 0.81788 0.0
O85 O 0.7504 0.92003 0.68645 0.0
O86 O 0.71666 0.92625 0.72824 0.0
O87 O 0.72418 0.9339 0.85789 0.0
C88 C 0.76689 0.97114 0.88352 0.0
O89 O 0.74519 0.96013 0.64997 0.0
O90 O 0.7738 0.96556 0.6766 0.0
In91 In 0.05955 0.80492 0.76092 0.0
O92 O 0.04705 0.79176 0.6309 0.0
O93 O 0.03498 0.80694 0.69465 0.0
C94 C 0.07839 0.78533 0.79671 0.0
C95 C 0.0325 0.79149 0.88386 0.0
C96 C 0.08964 0.8418 0.74553 0.0
O97 O 0.06883 0.78255 0.72883 0.0
O98 O 0.0785 0.79786 0.84628 0.0
O99 O 0.07896 0.8358 0.81073 0.0
O100 O 0.08472 0.82952 0.68609 0.0
C101 C 0.03407 0.79657 0.63201 0.0
O102 O 0.04387 0.80949 0.87235 0.0
O103 O 0.03502 0.78032 0.83503 0.0
In104 In 0.19588 0.25278 0.75073 0.0
O105 O 0.21651 0.25422 0.64616 0.0
O106 O 0.18884 0.22845 0.65471 0.0
C107 C 0.21519 0.29094 0.79121 0.0
C108 C 0.20623 0.23559 0.87059 0.0
C109 C 0.16017 0.24866 0.735 0.0
O110 O 0.21306 0.285 0.71507 0.0
O111 O 0.20758 0.27766 0.8465 0.0
O112 O 0.16521 0.24293 0.80018 0.0
O113 O 0.17284 0.25591 0.677 0.0
C114 C 0.2053 0.23719 0.61916 0.0
O115 O 0.18871 0.22842 0.84683 0.0
O116 O 0.21819 0.25141 0.83542 0.0
In117 In 0.94498 0.74666 0.26117 0.0
O118 O 0.95967 0.76664 0.14744 0.0
O119 O 0.96944 0.74704 0.18459 0.0
C120 C 0.91517 0.75379 0.27669 0.0
C121 C 0.96929 0.76355 0.39425 0.0
C122 C 0.92655 0.70825 0.22213 0.0
O123 O 0.92687 0.75989 0.21471 0.0
O124 O 0.91897 0.74484 0.33319 0.0
O125 O 0.93957 0.71559 0.27879 0.0
O126 O 0.92284 0.72021 0.18611 0.0
C127 C 0.97133 0.76038 0.13503 0.0
O128 O 0.95516 0.74629 0.39729 0.0
O129 O 0.97015 0.77264 0.3271 0.0
In130 In 0.25534 0.19833 0.24912 0.0
O131 O 0.2564 0.216 0.36558 0.0
O132 O 0.2287 0.19288 0.32623 0.0
C133 C 0.29347 0.21969 0.20884 0.0
C134 C 0.23776 0.20637 0.12243 0.0
C135 C 0.25279 0.16349 0.27596 0.0
O136 O 0.2865 0.22265 0.27586 0.0
O137 O 0.28122 0.20608 0.1624 0.0
O138 O 0.24793 0.16799 0.20691 0.0
O139 O 0.25851 0.17635 0.3333 0.0
C140 C 0.23818 0.20691 0.3765 0.0
O141 O 0.2314 0.18923 0.14902 0.0
O142 O 0.25308 0.21926 0.15785 0.0
In143 In 0.80394 0.0586 0.25832 0.0
O144 O 0.81223 0.04167 0.16517 0.0
O145 O 0.78315 0.03644 0.16334 0.0
C146 C 0.83993 0.08966 0.28101 0.0
C147 C 0.79328 0.03229 0.38522 0.0
C148 C 0.78449 0.07788 0.22885 0.0
O149 O 0.83344 0.08233 0.20869 0.0
O150 O 0.82855 0.08099 0.34227 0.0
O151 O 0.78497 0.07134 0.30172 0.0
O152 O 0.79383 0.07484 0.17171 0.0
C153 C 0.79532 0.03216 0.13396 0.0
O154 O 0.78235 0.03848 0.3583 0.0
O155 O 0.80994 0.04008 0.35131 0.0
In156 In 0.92224 0.39147 0.57854 0.0
O157 O 0.89777 0.37598 0.48077 0.0
O158 O 0.92096 0.36976 0.4809 0.0
C159 C 0.91827 0.42271 0.60996 0.0
C160 C 0.90667 0.36521 0.70603 0.0
C161 C 0.96054 0.41098 0.53875 0.0
O162 O 0.91164 0.41246 0.54371 0.0
O163 O 0.92634 0.41687 0.66247 0.0
O164 O 0.95396 0.40008 0.60335 0.0
O165 O 0.94781 0.41207 0.49457 0.0
C166 C 0.90493 0.3663 0.44952 0.0
O167 O 0.92396 0.37192 0.68087 0.0
O168 O 0.89746 0.37241 0.67022 0.0
In169 In 0.61215 0.53051 0.57625 0.0
O170 O 0.62813 0.5203 0.48699 0.0
O171 O 0.63696 0.55048 0.48959 0.0
C172 C 0.58134 0.49428 0.59777 0.0
C173 C 0.63731 0.54435 0.70778 0.0
C174 C 0.59323 0.54958 0.53266 0.0
O175 O 0.58767 0.50159 0.52543 0.0
O176 O 0.59095 0.50487 0.65969 0.0
O177 O 0.59564 0.54647 0.60936 0.0
O178 O 0.60036 0.54321 0.47826 0.0
C179 C 0.63958 0.53723 0.45941 0.0
O180 O 0.62795 0.55247 0.68296 0.0
O181 O 0.63329 0.5288 0.66943 0.0
In182 In 0.4688 0.07726 0.55999 0.0
O183 O 0.45084 0.07656 0.67513 0.0
O184 O 0.47494 0.10398 0.63915 0.0
C185 C 0.4495 0.03895 0.52018 0.0
C186 C 0.45729 0.09216 0.43302 0.0
C187 C 0.50492 0.08317 0.59022 0.0
O188 O 0.44766 0.04518 0.59154 0.0
O189 O 0.46084 0.05191 0.469 0.0
O190 O 0.50147 0.09191 0.53155 0.0
O191 O 0.49043 0.07223 0.63599 0.0
C192 C 0.46045 0.09472 0.68765 0.0
O193 O 0.47363 0.09296 0.43153 0.0
O194 O 0.44696 0.08355 0.4968 0.0
In195 In 0.72549 0.58779 0.08592 0.0
O196 O 0.7103 0.56147 0.1749 0.0
O197 O 0.70359 0.58417 0.18805 0.0
C198 C 0.75724 0.58479 0.05066 0.0
C199 C 0.69969 0.57497 0.95575 0.0
C200 C 0.74382 0.6256 0.13348 0.0
O201 O 0.74745 0.57823 0.11792 0.0
O202 O 0.75069 0.59227 -0.00129 0.0
O203 O 0.73279 0.61928 0.06928 0.0
O204 O 0.74548 0.61281 0.17452 0.0
C205 C 0.70042 0.56769 0.21232 0.0
O206 O 0.70819 0.59237 0.98109 0.0
O207 O 0.70477 0.56414 0.99328 0.0
In208 In 0.41498 0.13826 0.05732 0.0
O209 O 0.41339 0.12007 0.94256 0.0
O210 O 0.44091 0.14478 0.97131 0.0
C211 C 0.37701 0.11927 0.1014 0.0
C212 C 0.42967 0.12565 0.17954 0.0
C213 C 0.42084 0.17462 0.03924 0.0
O214 O 0.38263 0.11822 0.02738 0.0
O215 O 0.39037 0.12988 0.15274 0.0
O216 O 0.42969 0.17033 0.09423 0.0
O217 O 0.40966 0.16084 0.99066 0.0
C218 C 0.43135 0.12979 0.92595 0.0
O219 O 0.43377 0.14321 0.17562 0.0
O220 O 0.41816 0.11466 0.12294 0.0
In221 In 0.86498 0.27724 0.08218 0.0
O222 O 0.85721 0.2948 0.17385 0.0
O223 O 0.88646 0.30046 0.1718 0.0
C224 C 0.82899 0.24575 0.07051 0.0
C225 C 0.8746 0.30174 0.94794 0.0
C226 C 0.88421 0.25824 0.12119 0.0
O227 O 0.83393 0.25784 0.13082 0.0
O228 O 0.84198 0.24972 0.01498 0.0
O229 O 0.88434 0.26448 0.04698 0.0
O230 O 0.87443 0.26152 0.17528 0.0
C231 C 0.87435 0.30471 0.20222 0.0
O232 O 0.88653 0.29787 0.98334 0.0
O233 O 0.85744 0.29236 0.97633 0.0
In234 In 0.41341 0.2774 0.07458 0.0
O235 O 0.41188 0.28663 0.93725 0.0
O236 O 0.43749 0.30414 0.00896 0.0
C237 C 0.3751 0.26062 0.11401 0.0
C238 C 0.43058 0.30273 0.20297 0.0
C239 C 0.4194 0.24688 0.05433 0.0
O240 O 0.38327 0.27476 0.06295 0.0
O241 O 0.38619 0.25506 0.14464 0.0
O242 O 0.42328 0.25654 0.12248 0.0
O243 O 0.41312 0.25297 0.99482 0.0
C244 C 0.42835 0.30195 0.94058 0.0
O245 O 0.4381 0.29342 0.1707 0.0
O246 O 0.41428 0.29882 0.17269 0.0
In247 In 0.724 0.13774 0.10426 0.0
O248 O 0.70406 0.11547 0.00589 0.0
O249 O 0.70472 0.14263 0.01075 0.0
C250 C 0.74309 0.11853 0.14287 0.0
C251 C 0.69816 0.13041 0.22919 0.0
C252 C 0.75547 0.17334 0.08007 0.0
O253 O 0.7381 0.11964 0.06755 0.0
O254 O 0.73845 0.12702 0.19818 0.0
O255 O 0.74652 0.16813 0.15008 0.0
O256 O 0.74826 0.16091 0.02107 0.0
C257 C 0.69739 0.1259 0.97793 0.0
O258 O 0.7085 0.14733 0.19912 0.0
O259 O 0.70116 0.1175 0.19797 0.0
In260 In 0.8651 0.58835 0.08637 0.0
O261 O 0.85595 0.56252 0.17767 0.0
O262 O 0.88512 0.58602 0.18302 0.0
C263 C 0.83039 0.58565 0.05625 0.0
C264 C 0.87473 0.57298 0.95474 0.0
C265 C 0.88486 0.62654 0.12658 0.0
O266 O 0.83421 0.58003 0.12517 0.0
O267 O 0.84383 0.59212 0.00128 0.0
O268 O 0.88861 0.61985 0.06068 0.0
O269 O 0.87106 0.614 0.17139 0.0
C270 C 0.87265 0.56952 0.21056 0.0
O271 O 0.88645 0.58935 0.98655 0.0
O272 O 0.85781 0.56479 0.98597 0.0
In273 In 0.60992 0.07965 0.5981 0.0
O274 O 0.63074 0.07855 0.69554 0.0
O275 O 0.62528 0.10215 0.7038 0.0
C276 C 0.59111 0.04123 0.56098 0.0
C277 C 0.63737 0.09902 0.47946 0.0
C278 C 0.57824 0.08386 0.60718 0.0
O279 O 0.59437 0.04744 0.63676 0.0
O280 O 0.59735 0.05431 0.5047 0.0
O281 O 0.58866 0.08809 0.54114 0.0
O282 O 0.58403 0.07803 0.66951 0.0
C283 C 0.63466 0.09431 0.73156 0.0
O284 O 0.62682 0.10552 0.50807 0.0
O285 O 0.63385 0.08284 0.50948 0.0
In286 In 0.92096 0.5303 0.58213 0.0
O287 O 0.89596 0.52063 0.48635 0.0
O288 O 0.91807 0.55059 0.4898 0.0
C289 C 0.91742 0.49504 0.60858 0.0
C290 C 0.90594 0.5417 0.70838 0.0
C291 C 0.9592 0.54972 0.54347 0.0
O292 O 0.91343 0.49989 0.53814 0.0
O293 O 0.92248 0.50762 0.66684 0.0
O294 O 0.9531 0.54881 0.61863 0.0
O295 O 0.94609 0.54093 0.48832 0.0
C296 C 0.9023 0.53764 0.45768 0.0
O297 O 0.92296 0.5524 0.68019 0.0
O298 O 0.89673 0.52495 0.6757 0.0
In299 In 0.47114 0.39188 0.57078 0.0
O300 O 0.45456 0.37775 0.69339 0.0
O301 O 0.47251 0.36747 0.6412 0.0
C302 C 0.45114 0.41022 0.53233 0.0
C303 C 0.46084 0.36484 0.4485 0.0
C304 C 0.5077 0.42219 0.5952 0.0
O305 O 0.44967 0.4023 0.60376 0.0
O306 O 0.4626 0.40894 0.48054 0.0
O307 O 0.5017 0.41403 0.52398 0.0
O308 O 0.49556 0.41472 0.65507 0.0
C309 C 0.46037 0.36556 0.69763 0.0
O310 O 0.47835 0.37541 0.47161 0.0
O311 O 0.44872 0.36831 0.48502 0.0
In312 In 0.59042 0.7245 0.91001 0.0
O313 O 0.56782 0.70872 0.80579 0.0
O314 O 0.58973 0.70095 0.82606 0.0
C315 C 0.58489 0.75527 0.92817 0.0
C316 C 0.57421 0.6984 0.03748 0.0
C317 C 0.6287 0.74395 0.87245 0.0
O318 O 0.57957 0.74463 0.86273 0.0
O319 O 0.59244 0.75012 0.9859 0.0
O320 O 0.62259 0.73877 0.94755 0.0
O321 O 0.61568 0.73945 0.81677 0.0
C322 C 0.57481 0.69804 0.78529 0.0
O323 O 0.59213 0.70662 0.02021 0.0
O324 O 0.56459 0.704 0.99359 0.0
In325 In 0.27648 0.86359 0.89712 0.0
O326 O 0.28772 0.87448 0.03106 0.0
O327 O 0.30209 0.86271 0.95851 0.0
C328 C 0.25865 0.88431 0.86068 0.0
C329 C 0.30152 0.87449 0.76597 0.0
C330 C 0.24683 0.82737 0.9279 0.0
O331 O 0.27275 0.89031 0.91191 0.0
O332 O 0.25351 0.86791 0.82848 0.0
O333 O 0.25707 0.8316 0.86123 0.0
O334 O 0.25224 0.84107 0.98101 0.0
C335 C 0.3017 0.87113 0.02608 0.0
O336 O 0.28717 0.85739 0.77195 0.0
O337 O 0.30283 0.88589 0.82483 0.0
In338 In 0.14014 0.41622 0.91184 0.0
O339 O 0.11811 0.41383 0.01131 0.0
O340 O 0.1455 0.44012 0.00762 0.0
C341 C 0.12063 0.37801 0.87249 0.0
C342 C 0.13208 0.43468 0.78962 0.0
C343 C 0.17582 0.42032 0.93043 0.0
O344 O 0.12291 0.384 0.94852 0.0
O345 O 0.12822 0.39121 0.81693 0.0
O346 O 0.17026 0.42427 0.86181 0.0
O347 O 0.16371 0.41492 0.99079 0.0
C348 C 0.12875 0.43077 0.04033 0.0
O349 O 0.14924 0.44121 0.81699 0.0
O350 O 0.11935 0.41887 0.82215 0.0
In351 In 0.39127 0.9185 0.39621 0.0
O352 O 0.37658 0.89989 0.5134 0.0
O353 O 0.36386 0.91526 0.4555 0.0
C354 C 0.4212 0.91143 0.38331 0.0
C355 C 0.36606 0.90222 0.26625 0.0
C356 C 0.40999 0.957 0.43292 0.0
O357 O 0.41169 0.90865 0.45118 0.0
O358 O 0.41502 0.91673 0.32074 0.0
O359 O 0.4062 0.95068 0.35757 0.0
O360 O 0.4043 0.94401 0.48926 0.0
C361 C 0.36297 0.90387 0.51379 0.0
O362 O 0.37826 0.92023 0.2698 0.0
O363 O 0.36759 0.89218 0.32504 0.0
In364 In 0.08146 0.47148 0.41645 0.0
O365 O 0.10715 0.48019 0.5076 0.0
O366 O 0.08275 0.45164 0.51728 0.0
C367 C 0.08536 0.50667 0.38786 0.0
C368 C 0.09686 0.46167 0.2854 0.0
C369 C 0.04291 0.45251 0.45195 0.0
O370 O 0.09039 0.50233 0.4571 0.0
O371 O 0.07888 0.49345 0.33175 0.0
O372 O 0.05003 0.44745 0.39183 0.0
O373 O 0.05521 0.46721 0.49322 0.0
C374 C 0.09954 0.46376 0.54319 0.0
O375 O 0.08031 0.45012 0.31613 0.0
O376 O 0.10519 0.47853 0.31722 0.0
In377 In 0.5333 0.60982 0.4105 0.0
O378 O 0.52749 0.62801 0.50645 0.0
O379 O 0.55601 0.63179 0.50106 0.0
C380 C 0.4968 0.57914 0.39956 0.0
C381 C 0.54239 0.63498 0.27942 0.0
C382 C 0.55188 0.58983 0.44137 0.0
O383 O 0.50275 0.59039 0.46309 0.0
O384 O 0.50904 0.58364 0.34006 0.0
O385 O 0.55248 0.59726 0.36941 0.0
O386 O 0.54183 0.59228 0.49706 0.0
C387 C 0.54477 0.63689 0.53396 0.0
O388 O 0.55348 0.62881 0.30407 0.0
O389 O 0.5262 0.6276 0.3171 0.0
In390 In 0.07928 0.60955 0.41588 0.0
O391 O 0.07681 0.62686 0.30547 0.0
O392 O 0.10504 0.63156 0.3371 0.0
C393 C 0.04091 0.59062 0.45281 0.0
C394 C 0.09656 0.63554 0.54157 0.0
C395 C 0.0845 0.57889 0.38554 0.0
O396 O 0.04722 0.59712 0.37919 0.0
O397 O 0.05378 0.59356 0.50721 0.0
O398 O 0.08548 0.58571 0.45903 0.0
O399 O 0.08163 0.58794 0.3265 0.0
C400 C 0.09492 0.63615 0.29096 0.0
O401 O 0.10266 0.62426 0.51858 0.0
O402 O 0.08169 0.63341 0.50288 0.0
In403 In 0.39182 0.47083 0.40107 0.0
O404 O 0.37577 0.45503 0.27977 0.0
O405 O 0.37097 0.47746 0.32672 0.0
C406 C 0.41039 0.45099 0.43755 0.0
C407 C 0.3653 0.45724 0.52608 0.0
C408 C 0.42265 0.50728 0.39036 0.0
O409 O 0.40549 0.45242 0.36242 0.0
O410 O 0.40595 0.45952 0.49343 0.0
O411 O 0.40904 0.50264 0.44321 0.0
O412 O 0.42029 0.49388 0.34006 0.0
C413 C 0.36662 0.46418 0.27253 0.0
O414 O 0.37874 0.47485 0.52322 0.0
O415 O 0.36549 0.44656 0.46699 0.0
In416 In 0.53234 0.92168 0.42218 0.0
O417 O 0.5462 0.9237 0.29166 0.0
O418 O 0.53254 0.89637 0.35442 0.0
C419 C 0.55138 0.95971 0.46615 0.0
C420 C 0.54345 0.90652 0.54793 0.0
C421 C 0.49559 0.91453 0.39662 0.0
O422 O 0.55535 0.95359 0.39919 0.0
O423 O 0.53794 0.94679 0.51097 0.0
O424 O 0.50041 0.90858 0.46153 0.0
O425 O 0.50906 0.92355 0.34329 0.0
C426 C 0.54238 0.90621 0.29153 0.0
O427 O 0.52576 0.89948 0.52761 0.0
O428 O 0.55543 0.92134 0.50642 0.0
In429 In 0.27779 0.41177 0.90663 0.0
O430 O 0.294 0.41303 0.02857 0.0
O431 O 0.29857 0.43987 0.97668 0.0
C432 C 0.25863 0.37318 0.87363 0.0
C433 C 0.30463 0.42487 0.78173 0.0
C434 C 0.24763 0.41803 0.92925 0.0
O435 O 0.26727 0.38004 0.9435 0.0
O436 O 0.2598 0.38565 0.82068 0.0
O437 O 0.25975 0.42586 0.86946 0.0
O438 O 0.25116 0.40778 0.97961 0.0
C439 C 0.3031 0.43141 0.03277 0.0
O440 O 0.28942 0.42621 0.77746 0.0
O441 O 0.30593 0.41651 0.84765 0.0
In442 In 0.59005 0.86449 0.91956 0.0
O443 O 0.56671 0.85859 0.82066 0.0
O444 O 0.59053 0.88764 0.83341 0.0
C445 C 0.58419 0.8279 0.93392 0.0
C446 C 0.57404 0.87398 0.04922 0.0
C447 C 0.6285 0.88496 0.88533 0.0
O448 O 0.5819 0.83469 0.86518 0.0
O449 O 0.58873 0.83921 0.99692 0.0
O450 O 0.62141 0.88719 0.95357 0.0
O451 O 0.61629 0.87258 0.83446 0.0
C452 C 0.57468 0.87615 0.79687 0.0
O453 O 0.59163 0.87806 0.04979 0.0
O454 O 0.56427 0.86397 0.98633 0.0
In455 In 0.13754 0.72402 0.91387 0.0
O456 O 0.1163 0.70516 0.01731 0.0
O457 O 0.1433 0.70554 0.0079 0.0
C458 C 0.11923 0.74415 0.88014 0.0
C459 C 0.1274 0.69685 0.79153 0.0
C460 C 0.17364 0.75481 0.9356 0.0
O461 O 0.11808 0.73646 0.95203 0.0
O462 O 0.12961 0.74179 0.82591 0.0
O463 O 0.16768 0.74633 0.86481 0.0
O464 O 0.16172 0.74733 0.9963 0.0
C465 C 0.12691 0.69855 0.04377 0.0
O466 O 0.1444 0.70574 0.82229 0.0
O467 O 0.11591 0.70209 0.82039 0.0
C468 C 0.22428 0.00633 0.58873 0.0
C469 C 0.2161 0.98694 0.55822 0.0
C470 C 0.22201 0.99883 0.41108 0.0
C471 C 0.23222 0.01828 0.44222 0.0
N472 N 0.24464 0.04085 0.55959 0.0
N473 N 0.20802 0.96435 0.44217 0.0
C474 C 0.23381 0.02212 0.53082 0.0
C475 C 0.21501 0.98305 0.46975 0.0
N476 N 0.22221 0.00956 0.67266 0.0
N477 N 0.21904 0.99547 0.32543 0.0
H478 H 0.20238 0.95244 0.48345 0.0
H479 H 0.20887 0.96066 0.37932 0.0
H480 H 0.22477 0.00658 0.28023 0.0
H481 H 0.20989 0.98182 0.29908 0.0
H482 H 0.22624 0.02322 0.69768 0.0
H483 H 0.2147 0.99827 0.7161 0.0
H484 H 0.24829 0.04443 0.62336 0.0
H485 H 0.2511 0.05285 0.51889 0.0
C486 C 0.02149 0.23 0.47487 0.0
C487 C 0.01718 0.22767 0.56313 0.0
C488 C 0.98221 0.20789 0.53123 0.0
C489 C 0.98641 0.2123 0.44374 0.0
N490 N 0.0097 0.22835 0.33075 0.0
N491 N 0.99349 0.2156 0.67708 0.0
C492 C 0.00598 0.22342 0.41493 0.0
C493 C 0.99756 0.21673 0.59192 0.0
N494 N 0.04042 0.23809 0.44857 0.0
N495 N 0.96357 0.19493 0.55597 0.0
H496 H 0.0042 0.22134 0.72399 0.0
H497 H 0.97948 0.21004 0.70146 0.0
H498 H 0.952 0.18833 0.513 0.0
H499 H 0.95981 0.18942 0.61755 0.0
H500 H 0.04451 0.23846 0.3853 0.0
H501 H 0.05207 0.24295 0.49107 0.0
H502 H 0.02341 0.23833 0.3072 0.0
H503 H 0.99882 0.22338 0.28448 0.0
C504 C 0.78082 0.78336 0.41114 0.0
C505 C 0.79282 0.77588 0.44015 0.0
C506 C 0.78913 0.78374 0.58742 0.0
C507 C 0.77772 0.79185 0.55795 0.0
N508 N 0.76622 0.80327 0.44197 0.0
N509 N 0.81172 0.77252 0.55201 0.0
C510 C 0.77466 0.79286 0.46975 0.0
C511 C 0.79798 0.77716 0.52723 0.0
N512 N 0.77444 0.78051 0.32862 0.0
N513 N 0.79071 0.7814 0.67284 0.0
H514 H 0.81849 0.76768 0.50937 0.0
H515 H 0.81768 0.77511 0.61299 0.0
H516 H 0.78473 0.7862 0.71937 0.0
H517 H 0.79676 0.77344 0.69777 0.0
H518 H 0.76383 0.78352 0.30653 0.0
H519 H 0.77852 0.77366 0.28321 0.0
H520 H 0.76544 0.80633 0.37805 0.0
H521 H 0.76161 0.81045 0.48343 0.0
C522 C 0.78049 0.98426 0.49452 0.0
C523 C 0.77121 0.98572 0.56912 0.0
C524 C 0.77933 0.01889 0.52902 0.0
C525 C 0.78676 0.01666 0.45025 0.0
N526 N 0.79276 0.99653 0.35322 0.0
N527 N 0.76066 0.00379 0.65672 0.0
C528 C 0.7871 0.99924 0.43196 0.0
C529 C 0.77022 0.00282 0.58594 0.0
N530 N 0.78299 0.96853 0.48339 0.0
N531 N 0.782 0.03675 0.55151 0.0
H532 H 0.75522 0.99315 0.70404 0.0
H533 H 0.75716 0.01466 0.66659 0.0
H534 H 0.78919 0.04903 0.51277 0.0
H535 H 0.77883 0.03996 0.61163 0.0
H536 H 0.79181 0.96775 0.43624 0.0
H537 H 0.77721 0.95662 0.52466 0.0
H538 H 0.7909 0.98326 0.33216 0.0
H539 H 0.79807 0.00711 0.30572 0.0
C540 C 0.00737 0.76797 0.55455 0.0
C541 C 0.01735 0.78827 0.57188 0.0
C542 C 0.99315 0.7914 0.48625 0.0
C543 C 0.98517 0.7718 0.45866 0.0
N544 N 0.98888 0.74326 0.45024 0.0
N545 N 0.02154 0.82002 0.54197 0.0
C546 C 0.9934 0.76054 0.48821 0.0
C547 C 0.01073 0.80023 0.53445 0.0
N548 N 0.01045 0.75551 0.60366 0.0
N549 N 0.98363 0.8014 0.46907 0.0
H550 H 0.03482 0.82708 0.57424 0.0
H551 H 0.01833 0.82947 0.50892 0.0
H552 H 0.97031 0.79517 0.43709 0.0
H553 H 0.98787 0.81509 0.49449 0.0
H554 H 0.00211 0.74041 0.59763 0.0
H555 H 0.01952 0.75997 0.65695 0.0
H556 H 0.99603 0.73561 0.4652 0.0
H557 H 0.97986 0.73773 0.39711 0.0
C558 C 0.22877 0.23151 0.41888 0.0
C559 C 0.22847 0.21377 0.4362 0.0
C560 C 0.21145 0.21038 0.57102 0.0
C561 C 0.21153 0.22804 0.55322 0.0
N562 N 0.21593 0.25283 0.45252 0.0
N563 N 0.21654 0.18441 0.51905 0.0
C564 C 0.21901 0.2379 0.47493 0.0
C565 C 0.21875 0.20255 0.50903 0.0
N566 N 0.2384 0.24227 0.34871 0.0
N567 N 0.20547 0.20164 0.64892 0.0
H568 H 0.22261 0.17862 0.4775 0.0
H569 H 0.20758 0.17451 0.56503 0.0
H570 H 0.1997 0.20651 0.69609 0.0
H571 H 0.2075 0.19031 0.66974 0.0
H572 H 0.24136 0.25647 0.33843 0.0
H573 H 0.24438 0.23743 0.30221 0.0
H574 H 0.21923 0.25942 0.3928 0.0
H575 H 0.20828 0.25747 0.4909 0.0
C576 C 0.89515 0.33037 0.74246 0.0
C577 C 0.89725 0.34862 0.7661 0.0
C578 C 0.88077 0.33472 0.90178 0.0
C579 C 0.88083 0.31721 0.8824 0.0
N580 N 0.88899 0.2985 0.78708 0.0
N581 N 0.89399 0.36906 0.87049 0.0
C582 C 0.88832 0.3151 0.80352 0.0
C583 C 0.89039 0.351 0.84603 0.0
N584 N 0.89882 0.32737 0.66035 0.0
N585 N 0.87165 0.33588 0.97363 0.0
H586 H 0.90096 0.3813 0.83135 0.0
H587 H 0.89149 0.37234 0.93176 0.0
H588 H 0.86529 0.32478 0.01865 0.0
H589 H 0.86916 0.34735 0.9861 0.0
H590 H 0.89554 0.3138 0.63654 0.0
H591 H 0.90352 0.33806 0.61329 0.0
H592 H 0.89656 0.29708 0.73595 0.0
H593 H 0.88279 0.28638 0.82715 0.0
C594 C 0.6707 0.57005 0.75436 0.0
C595 C 0.65278 0.55294 0.77336 0.0
C596 C 0.66487 0.55201 0.91583 0.0
C597 C 0.6836 0.56746 0.8927 0.0
N598 N 0.7052 0.58955 0.78585 0.0
N599 N 0.63321 0.52637 0.86881 0.0
C600 C 0.68674 0.57615 0.81099 0.0
C601 C 0.65003 0.54346 0.85293 0.0
N602 N 0.67244 0.58054 0.68248 0.0
N603 N 0.66086 0.54637 -0.00089 0.0
H604 H 0.62146 0.52028 0.82663 0.0
H605 H 0.63139 0.51763 0.92151 0.0
H606 H 0.67096 0.55322 0.04785 0.0
H607 H 0.64697 0.53646 0.02131 0.0
H608 H 0.6844 0.59424 0.67028 0.0
H609 H 0.66132 0.57631 0.63773 0.0
H610 H 0.70873 0.59479 0.72377 0.0
H611 H 0.71737 0.59414 0.82495 0.0
C612 C 0.46396 0.11246 0.82506 0.0
C613 C 0.45382 0.10467 0.74762 0.0
C614 C 0.43211 0.11755 0.78027 0.0
C615 C 0.44047 0.12295 0.86248 0.0
N616 N 0.46233 0.12247 0.96906 0.0
N617 N 0.42644 0.09741 0.65615 0.0
C618 C 0.45602 0.11981 0.88643 0.0
C619 C 0.43736 0.1065 0.72657 0.0
N620 N 0.48103 0.11266 0.84051 0.0
N621 N 0.41961 0.12355 0.75233 0.0
H622 H 0.42983 0.0894 0.61421 0.0
H623 H 0.41306 0.0964 0.64327 0.0
H624 H 0.4159 0.13218 0.7891 0.0
H625 H 0.41457 0.12177 0.68983 0.0
H626 H 0.49018 0.12011 0.89147 0.0
H627 H 0.48682 0.1066 0.79881 0.0
H628 H 0.47207 0.11833 0.99189 0.0
H629 H 0.45654 0.1271 0.01721 0.0
C630 C 0.43159 0.33766 0.76947 0.0
C631 C 0.45209 0.34899 0.75842 0.0
C632 C 0.45611 0.32636 0.85099 0.0
C633 C 0.43605 0.31711 0.87303 0.0
N634 N 0.40568 0.31753 0.86654 0.0
N635 N 0.48423 0.356 0.80177 0.0
C636 C 0.42399 0.32367 0.83587 0.0
C637 C 0.4645 0.34385 0.80268 0.0
N638 N 0.41923 0.33953 0.71458 0.0
N639 N 0.46704 0.31812 0.87362 0.0
H640 H 0.49095 0.36937 0.77022 0.0
H641 H 0.49373 0.35377 0.83981 0.0
H642 H 0.4612 0.30478 0.90519 0.0
H643 H 0.48128 0.32338 0.85247 0.0
H644 H 0.40418 0.33022 0.71579 0.0
H645 H 0.424 0.34872 0.66174 0.0
H646 H 0.39724 0.3235 0.84635 0.0
H647 H 0.39972 0.30823 0.91849 0.0
C648 C 0.66291 0.10187 0.93809 0.0
C649 C 0.68103 0.11844 0.91643 0.0
C650 C 0.66727 0.12133 0.78087 0.0
C651 C 0.64999 0.10336 0.79791 0.0
N652 N 0.63159 0.07573 0.89008 0.0
N653 N 0.70148 0.14266 0.81363 0.0
C654 C 0.64791 0.09336 0.87568 0.0
C655 C 0.68344 0.12795 0.83717 0.0
N656 N 0.65966 0.09487 0.01969 0.0
N657 N 0.66833 0.13209 0.71086 0.0
H658 H 0.71372 0.14781 0.85273 0.0
H659 H 0.70475 0.14864 0.7527 0.0
H660 H 0.65733 0.1275 0.6654 0.0
H661 H 0.67958 0.14629 0.70075 0.0
H662 H 0.6461 0.08419 0.04194 0.0
H663 H 0.67006 0.101 0.06793 0.0
H664 H 0.63034 0.06657 0.9402 0.0
H665 H 0.61958 0.06972 0.84933 0.0
C666 C 0.89072 0.53993 0.85061 0.0
C667 C 0.89685 0.54892 0.7698 0.0
C668 C 0.88767 0.57323 0.80873 0.0
C669 C 0.88085 0.56382 0.88852 0.0
N670 N 0.8725 0.53614 0.97992 0.0
N671 N 0.89718 0.57117 0.66403 0.0
C672 C 0.8812 0.54644 0.90752 0.0
C673 C 0.89425 0.56479 0.74661 0.0
N674 N 0.89494 0.52586 0.87476 0.0
N675 N 0.88784 0.59026 0.79222 0.0
H676 H 0.90161 0.56509 0.6162 0.0
H677 H 0.89353 0.58123 0.64083 0.0
H678 H 0.88163 0.59607 0.83284 0.0
H679 H 0.89498 0.59915 0.74025 0.0
H680 H 0.89301 0.52037 0.93644 0.0
H681 H 0.90195 0.52075 0.83496 0.0
H682 H 0.87031 0.52227 0.99203 0.0
H683 H 0.86613 0.5407 0.02565 0.0
C684 C 0.55435 0.64779 0.13286 0.0
C685 C 0.54859 0.65059 0.21467 0.0
C686 C 0.55692 0.6839 0.1752 0.0
C687 C 0.56478 0.68181 0.09746 0.0
N688 N 0.57159 0.66218 0.00123 0.0
N689 N 0.54595 0.67178 0.31801 0.0
C690 C 0.56368 0.66386 0.07602 0.0
C691 C 0.55005 0.66869 0.23675 0.0
N692 N 0.55008 0.62951 0.10828 0.0
N693 N 0.55606 0.70045 0.1903 0.0
H694 H 0.54066 0.66109 0.3651 0.0
H695 H 0.54913 0.68536 0.34113 0.0
H696 H 0.5619 0.71233 0.14888 0.0
H697 H 0.54841 0.70194 0.24085 0.0
H698 H 0.55203 0.62596 0.04666 0.0
H699 H 0.54286 0.61735 0.14771 0.0
H700 H 0.57356 0.65047 0.98675 0.0
H701 H 0.57712 0.67299 0.9546 0.0
C702 C 0.34346 0.87581 0.16437 0.0
C703 C 0.34953 0.89397 0.205 0.0
C704 C 0.32572 0.89792 0.1212 0.0
C705 C 0.3178 0.87866 0.08939 0.0
N706 N 0.3168 0.84771 0.09615 0.0
N707 N 0.34168 0.91903 0.2405 0.0
C708 C 0.326 0.86711 0.11537 0.0
C709 C 0.33929 0.9041 0.18894 0.0
N710 N 0.35466 0.8672 0.16953 0.0
N711 N 0.32123 0.91081 0.08431 0.0
H712 H 0.35025 0.9232 0.2953 0.0
H713 H 0.33315 0.9256 0.23475 0.0
H714 H 0.31262 0.90765 0.02993 0.0
H715 H 0.32812 0.92548 0.10145 0.0
H716 H 0.35177 0.85489 0.13435 0.0
H717 H 0.36796 0.87347 0.20166 0.0
H718 H 0.32126 0.83832 0.12041 0.0
H719 H 0.30354 0.84059 0.0638 0.0
C720 C 0.09722 0.44926 0.13891 0.0
C721 C 0.10611 0.45543 0.22007 0.0
C722 C 0.12981 0.44517 0.18388 0.0
C723 C 0.12137 0.43971 0.10176 0.0
N724 N 0.10003 0.4404 0.9939 0.0
N725 N 0.13286 0.46249 0.31534 0.0
C726 C 0.10587 0.44278 0.07723 0.0
C727 C 0.12311 0.45451 0.24097 0.0
N728 N 0.08049 0.44956 0.12072 0.0
N729 N 0.14356 0.44055 0.20881 0.0
H730 H 0.1281 0.46868 0.36106 0.0
H731 H 0.1465 0.46426 0.32941 0.0
H732 H 0.14885 0.43376 0.16866 0.0
H733 H 0.14862 0.44198 0.27108 0.0
H734 H 0.07192 0.4429 0.0673 0.0
H735 H 0.07455 0.45565 0.16133 0.0
H736 H 0.09033 0.44447 0.96991 0.0
H737 H 0.10621 0.436 0.94648 0.0
C738 C 0.10389 0.66994 0.24628 0.0
C739 C 0.10383 0.65233 0.22893 0.0
C740 C 0.11938 0.66512 0.09066 0.0
C741 C 0.12014 0.68305 0.10938 0.0
N742 N 0.11702 0.70407 0.21127 0.0
N743 N 0.11416 0.63402 0.14237 0.0
C744 C 0.11341 0.68587 0.1889 0.0
C745 C 0.11251 0.65025 0.15369 0.0
N746 N 0.09487 0.67147 0.31777 0.0
N747 N 0.12417 0.66182 0.01108 0.0
H748 H 0.10827 0.62227 0.18447 0.0
H749 H 0.1225 0.63271 0.09434 0.0
H750 H 0.12944 0.67222 0.96282 0.0
H751 H 0.12151 0.64824 0.99021 0.0
H752 H 0.09222 0.6829 0.32857 0.0
H753 H 0.08899 0.66074 0.36471 0.0
H754 H 0.11434 0.70762 0.27166 0.0
H755 H 0.12448 0.7162 0.1719 0.0
C756 C 0.35433 0.46179 0.12371 0.0
C757 C 0.35032 0.4581 0.2117 0.0
C758 C 0.31516 0.4406 0.18231 0.0
C759 C 0.31925 0.44217 0.09393 0.0
N760 N 0.34261 0.45318 0.97879 0.0
N761 N 0.32721 0.44323 0.32648 0.0
C762 C 0.3388 0.45268 0.064 0.0
C763 C 0.3308 0.44747 0.24166 0.0
N764 N 0.37298 0.47434 0.09757 0.0
N765 N 0.29631 0.43297 0.20923 0.0
H766 H 0.33817 0.44849 0.37242 0.0
H767 H 0.31352 0.43355 0.35111 0.0
H768 H 0.28457 0.42788 0.16714 0.0
H769 H 0.29241 0.4332 0.27234 0.0
H770 H 0.37666 0.47933 0.03524 0.0
H771 H 0.38465 0.48114 0.13994 0.0
H772 H 0.35653 0.45841 0.95384 0.0
H773 H 0.33176 0.44724 0.93254 0.0
C774 C 0.57005 0.90921 0.20126 0.0
C775 C 0.55026 0.89819 0.22723 0.0
C776 C 0.54708 0.87022 0.14668 0.0
C777 C 0.56597 0.88211 0.11197 0.0
N778 N 0.59289 0.91479 0.08843 0.0
N779 N 0.51869 0.86943 0.208 0.0
C780 C 0.57676 0.90216 0.134 0.0
C781 C 0.53838 0.87901 0.19519 0.0
N782 N 0.58285 0.92588 0.24323 0.0
N783 N 0.5377 0.85047 0.13624 0.0
H784 H 0.51158 0.87572 0.23929 0.0
H785 H 0.50921 0.85614 0.17924 0.0
H786 H 0.5439 0.84336 0.1043 0.0
H787 H 0.5247 0.84103 0.16717 0.0
H788 H 0.59777 0.93329 0.2308 0.0
H789 H 0.57913 0.93103 0.29697 0.0
H790 H 0.60006 0.92982 0.09787 0.0
H791 H 0.59771 0.91069 0.03473 0.0
C792 C 0.23534 0.00473 0.92618 0.0
C793 C 0.21628 0.98868 0.93929 0.0
C794 C 0.21258 0.00443 0.06665 0.0
C795 C 0.2324 0.01928 0.05882 0.0
N796 N 0.2632 0.03336 0.98501 0.0
N797 N 0.18734 0.97197 0.02549 0.0
C798 C 0.24394 0.01936 0.98967 0.0
C799 C 0.20493 0.98827 0.00989 0.0
N800 N 0.24491 0.00643 0.85131 0.0
N801 N 0.20115 0.00566 0.12878 0.0
H802 H 0.18132 0.9598 0.98574 0.0
H803 H 0.17934 0.96979 0.08105 0.0
H804 H 0.20642 0.0167 0.17434 0.0
H805 H 0.18611 0.99652 0.13189 0.0
H806 H 0.2578 0.01886 0.83374 0.0
H807 H 0.23917 0.99614 0.80262 0.0
H808 H 0.27304 0.03265 0.94323 0.0
H809 H 0.26972 0.04529 0.02604 0.0
C810 C 0.98836 0.23506 0.01796 0.0
C811 C 0.98501 0.21825 0.06373 0.0
C812 C 0.00932 0.2161 0.97576 0.0
C813 C 0.01499 0.23472 0.94051 0.0
N814 N 0.01205 0.26373 0.94347 0.0
N815 N 0.99541 0.19508 0.09789 0.0
C816 C 0.0051 0.24472 0.96569 0.0
C817 C 0.99633 0.20936 0.04602 0.0
N818 N 0.97524 0.24146 0.0218 0.0
N819 N 0.01543 0.20436 0.93992 0.0
H820 H 0.98672 0.1902 0.15228 0.0
H821 H 0.00486 0.18957 0.09179 0.0
H822 H 0.02372 0.20797 0.88439 0.0
H823 H 0.01021 0.19002 0.95933 0.0
H824 H 0.97619 0.2526 0.98311 0.0
H825 H 0.96224 0.23424 0.05598 0.0
H826 H 0.00635 0.27207 0.96783 0.0
H827 H 0.02478 0.27183 0.90874 0.0
C828 C 0.75771 0.76234 0.96699 0.0
C829 C 0.76986 0.78114 0.93217 0.0
C830 C 0.79653 0.78536 0.02476 0.0
C831 C 0.78513 0.76572 0.05207 0.0
N832 N 0.75644 0.73412 0.03227 0.0
N833 N 0.80248 0.80828 0.91144 0.0
C834 C 0.76617 0.75376 0.01812 0.0
C835 C 0.78978 0.79202 0.95609 0.0
N836 N 0.73799 0.75299 0.95481 0.0
N837 N 0.81323 0.79805 0.06688 0.0
H838 H 0.79841 0.8132 0.85794 0.0
H839 H 0.81749 0.81555 0.92179 0.0
H840 H 0.81829 0.79426 0.12074 0.0
H841 H 0.82088 0.81294 0.05397 0.0
H842 H 0.72838 0.74008 0.98589 0.0
H843 H 0.73101 0.75912 0.92131 0.0
H844 H 0.74336 0.72457 0.00208 0.0
H845 H 0.76242 0.7271 0.06654 0.0
C846 C 0.76605 0.98251 0.03049 0.0
C847 C 0.7759 0.98577 0.95164 0.0
C848 C 0.79911 0.01941 0.99279 0.0
C849 C 0.78951 0.01602 0.07262 0.0
N850 N 0.76651 0.99342 0.17486 0.0
N851 N 0.80349 0.00567 0.86198 0.0
C852 C 0.77373 0.99729 0.09362 0.0
C853 C 0.79308 0.00368 0.93446 0.0
N854 N 0.74911 0.96536 0.04438 0.0
N855 N 0.8131 0.03787 0.97056 0.0
H856 H 0.79909 0.99466 0.81652 0.0
H857 H 0.8172 0.01759 0.84982 0.0
H858 H 0.8177 0.04984 0.01083 0.0
H859 H 0.81911 0.04172 0.90985 0.0
H860 H 0.73978 0.96309 0.09522 0.0
H861 H 0.7438 0.95359 0.00245 0.0
H862 H 0.75664 0.97951 0.19678 0.0
H863 H 0.77155 0.0038 0.22321 0.0
C864 C 0.02171 0.78584 0.03573 0.0
C865 C 0.01685 0.78393 0.94808 0.0
C866 C 0.98204 0.76569 0.98279 0.0
C867 C 0.9869 0.7688 0.07046 0.0
N868 N 0.01094 0.78426 0.1814 0.0
N869 N 0.99278 0.77472 0.83682 0.0
C870 C 0.00663 0.77954 0.09731 0.0
C871 C 0.99711 0.77458 0.92112 0.0
N872 N 0.04067 0.79295 0.06002 0.0
N873 N 0.96311 0.75365 0.95865 0.0
H874 H 0.00342 0.78094 0.78961 0.0
H875 H 0.97878 0.77006 0.81423 0.0
H876 H 0.95166 0.74703 0.00211 0.0
H877 H 0.9589 0.74899 0.89625 0.0
H878 H 0.04489 0.79261 0.12252 0.0
H879 H 0.05215 0.79781 0.01666 0.0
H880 H 0.0249 0.79388 0.20368 0.0
H881 H 1.00032 0.77982 0.22863 0.0
C882 C 0.2115 0.21295 0.07568 0.0
C883 C 0.22803 0.2113 0.05506 0.0
C884 C 0.22781 0.22217 0.90947 0.0
C885 C 0.21272 0.22602 0.93284 0.0
N886 N 0.19176 0.22748 0.04064 0.0
N887 N 0.25291 0.21522 0.95573 0.0
C888 C 0.20476 0.22181 0.0163 0.0
C889 C 0.23643 0.2161 0.97278 0.0
N890 N 0.20238 0.20624 0.15238 0.0
N891 N 0.23348 0.22374 0.82616 0.0
H892 H 0.2589 0.20961 -0.00129 0.0
H893 H 0.26127 0.22098 0.90099 0.0
H894 H 0.22767 0.22827 0.77771 0.0
H895 H 0.24276 0.21902 0.80344 0.0
H896 H 0.18906 0.20509 0.16763 0.0
H897 H 0.20737 0.20037 0.1988 0.0
H898 H 0.18714 0.22687 0.1032 0.0
H899 H 0.18672 0.23438 -0.00021 0.0
C900 C 0.8789 0.33313 0.40461 0.0
C901 C 0.89517 0.35144 0.38279 0.0
C902 C 0.89502 0.33994 0.23798 0.0
C903 C 0.88035 0.32097 0.26282 0.0
N904 N 0.85937 0.29874 0.37088 0.0
N905 N 0.91946 0.37249 0.28155 0.0
C906 C 0.87233 0.31738 0.34609 0.0
C907 C 0.90339 0.35493 0.3001 0.0
N908 N 0.86992 0.33075 0.48167 0.0
N909 N 0.90048 0.34374 0.15432 0.0
H910 H 0.92517 0.38429 0.32347 0.0
H911 H 0.92774 0.37514 0.22651 0.0
H912 H 0.89468 0.33313 0.10685 0.0
H913 H 0.90951 0.35767 0.1303 0.0
H914 H 0.85677 0.31847 0.49784 0.0
H915 H 0.87485 0.34166 0.52781 0.0
H916 H 0.85471 0.29479 0.43342 0.0
H917 H 0.85427 0.2868 0.33008 0.0
C918 C 0.68982 0.565 0.36382 0.0
C919 C 0.68636 0.55689 0.28089 0.0
C920 C 0.65255 0.53351 0.31842 0.0
C921 C 0.65595 0.54184 0.40096 0.0
N922 N 0.67902 0.56062 0.51063 0.0
N923 N 0.66668 0.52983 0.18775 0.0
C924 C 0.675 0.55612 0.42629 0.0
C925 C 0.66848 0.53985 0.26111 0.0
N926 N 0.70717 0.58128 0.38256 0.0
N927 N 0.63401 0.5205 0.29274 0.0
H928 H 0.67806 0.53401 0.14452 0.0
H929 H 0.65456 0.51636 0.17379 0.0
H930 H 0.62193 0.51551 0.33257 0.0
H931 H 0.6304 0.51575 0.23003 0.0
H932 H 0.70961 0.58929 0.43838 0.0
H933 H 0.71892 0.58732 0.34034 0.0
H934 H 0.69298 0.56977 0.53422 0.0
H935 H 0.66864 0.55345 0.55813 0.0
C936 C 0.4236 0.10084 0.29067 0.0
C937 C 0.437 0.118 0.24706 0.0
C938 C 0.46358 0.11971 0.33308 0.0
C939 C 0.45062 0.10093 0.36689 0.0
N940 N 0.41875 0.07182 0.36131 0.0
N941 N 0.47047 0.14182 0.21498 0.0
C942 C 0.43074 0.09097 0.3411 0.0
C943 C 0.45723 0.12694 0.26482 0.0
N944 N 0.40404 0.09426 0.28658 0.0
N945 N 0.48153 0.13118 0.36871 0.0
H946 H 0.46651 0.1473 0.1631 0.0
H947 H 0.48545 0.14739 0.2202 0.0
H948 H 0.48641 0.12716 0.42242 0.0
H949 H 0.49065 0.14565 0.35099 0.0
H950 H 0.39385 0.08284 0.32401 0.0
H951 H 0.39819 0.10158 0.25351 0.0
H952 H 0.40475 0.06352 0.33639 0.0
H953 H 0.42342 0.0636 0.39482 0.0
C954 C 0.43233 0.31429 0.35244 0.0
C955 C 0.4403 0.31777 0.26925 0.0
C956 C 0.46222 0.35216 0.30378 0.0
C957 C 0.45463 0.34856 0.38777 0.0
N958 N 0.43601 0.32555 0.49842 0.0
N959 N 0.46547 0.33868 0.17038 0.0
C960 C 0.44067 0.32942 0.41402 0.0
C961 C 0.4562 0.33626 0.24661 0.0
N962 N 0.41666 0.29656 0.37232 0.0
N963 N 0.47426 0.37087 0.277 0.0
H964 H 0.46124 0.32753 0.12595 0.0
H965 H 0.4784 0.35122 0.15421 0.0
H966 H 0.4788 0.38296 0.31647 0.0
H967 H 0.47845 0.37461 0.21382 0.0
H968 H 0.40856 0.29388 0.42796 0.0
H969 H 0.41113 0.28467 0.33098 0.0
H970 H 0.42741 0.31156 0.52271 0.0
H971 H 0.44224 0.33612 0.54587 0.0
C972 C 0.66508 0.12321 0.27578 0.0
C973 C 0.6836 0.12571 0.2969 0.0
C974 C 0.67266 0.11471 0.44263 0.0
C975 C 0.65347 0.10982 0.41849 0.0
N976 N 0.63072 0.10783 0.31121 0.0
N977 N 0.70535 0.12353 0.39781 0.0
C978 C 0.64951 0.11393 0.33519 0.0
C979 C 0.68752 0.1215 0.37984 0.0
N980 N 0.66236 0.12946 0.19849 0.0
N981 N 0.67675 0.11332 0.52617 0.0
H982 H 0.71699 0.12963 0.35509 0.0
H983 H 0.70838 0.11832 0.45321 0.0
H984 H 0.66621 0.10824 0.57393 0.0
H985 H 0.6908 0.11866 0.54974 0.0
H986 H 0.64984 0.12989 0.18228 0.0
H987 H 0.67325 0.13566 0.15234 0.0
H988 H 0.62654 0.10831 0.24881 0.0
H989 H 0.61891 0.10091 0.35263 0.0
C990 C 0.90106 0.54764 0.3084 0.0
C991 C 0.8924 0.5424 0.39018 0.0
C992 C 0.86939 0.55337 0.35232 0.0
C993 C 0.87807 0.5586 0.27039 0.0
N994 N 0.89902 0.55689 0.16332 0.0
N995 N 0.86645 0.53683 0.48659 0.0
C996 C 0.89298 0.55457 0.2463 0.0
C997 C 0.87583 0.54401 0.41075 0.0
N998 N 0.91734 0.54642 0.29091 0.0
N999 N 0.8559 0.55843 0.376 0.0
H1000 H 0.87122 0.53055 0.53206 0.0
H1001 H 0.85319 0.53577 0.50216 0.0
H1002 H 0.85084 0.56527 0.33498 0.0
H1003 H 0.85062 0.55708 0.43778 0.0
H1004 H 0.92592 0.55243 0.23694 0.0
H1005 H 0.92289 0.54016 0.33272 0.0
H1006 H 0.90823 0.55219 0.13948 0.0
H1007 H 0.89356 0.56207 0.11594 0.0
C1008 C 0.56763 0.67145 0.5758 0.0
C1009 C 0.5517 0.65283 0.59701 0.0
C1010 C 0.54909 0.66504 0.73705 0.0
C1011 C 0.56617 0.68297 0.71872 0.0
N1012 N 0.59301 0.70299 0.62543 0.0
N1013 N 0.5289 0.63087 0.70115 0.0
C1014 C 0.57583 0.6861 0.63945 0.0
C1015 C 0.54271 0.64937 0.67828 0.0
N1016 N 0.5744 0.6754 0.49387 0.0
N1017 N 0.53908 0.66295 0.81094 0.0
H1018 H 0.52412 0.61891 0.66065 0.0
H1019 H 0.52334 0.62698 0.76256 0.0
H1020 H 0.54382 0.67378 0.85742 0.0
H1021 H 0.52539 0.65106 0.82374 0.0
H1022 H 0.5844 0.6893 0.47225 0.0
H1023 H 0.56883 0.66515 0.44497 0.0
H1024 H 0.60205 0.7051 0.57357 0.0
H1025 H 0.59892 0.71457 0.66845 0.0
C1026 C 0.32323 0.89984 0.66131 0.0
C1027 C 0.31615 0.88102 0.69667 0.0
C1028 C 0.33778 0.87602 0.6018 0.0
C1029 C 0.34706 0.89594 0.5776 0.0
N1030 N 0.35132 0.92799 0.60301 0.0
N1031 N 0.32017 0.85282 0.71323 0.0
C1032 C 0.34055 0.90823 0.61247 0.0
C1033 C 0.32432 0.86947 0.67044 0.0
N1034 N 0.31316 0.90953 0.67194 0.0
N1035 N 0.3411 0.86312 0.55753 0.0
H1036 H 0.31126 0.84789 0.76686 0.0
H1037 H 0.32734 0.84507 0.70096 0.0
H1038 H 0.34995 0.86697 0.50367 0.0
H1039 H 0.33325 0.84815 0.56847 0.0
H1040 H 0.31698 0.9226 0.64097 0.0
H1041 H 0.29975 0.90344 0.70308 0.0
H1042 H 0.34786 0.93751 0.6339 0.0
H1043 H 0.36491 0.93502 0.57333 0.0
C1044 C 0.12111 0.43515 0.64154 0.0
C1045 C 0.12695 0.44427 0.72224 0.0
C1046 C 0.11604 0.46728 0.68403 0.0
C1047 C 0.11024 0.45815 0.60317 0.0
N1048 N 0.11091 0.43639 0.49733 0.0
N1049 N 0.13324 0.47072 0.81689 0.0
C1050 C 0.11386 0.44295 0.57966 0.0
C1051 C 0.1256 0.46101 0.7421 0.0
N1052 N 0.12212 0.41872 0.62484 0.0
N1053 N 0.11136 0.48109 0.707 0.0
H1054 H 0.13967 0.46609 0.8622 0.0
H1055 H 0.13449 0.48409 0.83174 0.0
H1056 H 0.10438 0.48602 0.66608 0.0
H1057 H 0.11317 0.48678 0.76819 0.0
H1058 H 0.11565 0.40982 0.57214 0.0
H1059 H 0.12869 0.4134 0.66609 0.0
H1060 H 0.11533 0.42695 0.47364 0.0
H1061 H 0.10545 0.44161 0.45008 0.0
C1062 C 0.10423 0.66232 0.75083 0.0
C1063 C 0.12081 0.68056 0.73037 0.0
C1064 C 0.12374 0.66752 0.59295 0.0
C1065 C 0.10587 0.65021 0.60946 0.0
N1066 N 0.07819 0.63123 0.70037 0.0
N1067 N 0.14514 0.70151 0.62866 0.0
C1068 C 0.09587 0.64762 0.68744 0.0
C1069 C 0.13044 0.68338 0.65098 0.0
N1070 N 0.09688 0.65877 0.83187 0.0
N1071 N 0.13416 0.66889 0.52128 0.0
H1072 H 0.15024 0.71361 0.66852 0.0
H1073 H 0.15126 0.70504 0.56805 0.0
H1074 H 0.1293 0.65794 0.47535 0.0
H1075 H 0.14829 0.68022 0.51023 0.0
H1076 H 0.08629 0.64509 0.85328 0.0
H1077 H 0.10254 0.66907 0.88054 0.0
H1078 H 0.06894 0.62966 0.75064 0.0
H1079 H 0.07218 0.61951 0.65808 0.0
C1080 C 0.3297 0.42286 0.69014 0.0
C1081 C 0.32035 0.43331 0.71685 0.0
C1082 C 0.33958 0.4589 0.61316 0.0
C1083 C 0.35033 0.44949 0.59364 0.0
N1084 N 0.35879 0.42503 0.62992 0.0
N1085 N 0.32084 0.4641 0.72034 0.0
C1086 C 0.34633 0.4322 0.6369 0.0
C1087 C 0.32652 0.45215 0.68311 0.0
N1088 N 0.32235 0.40379 0.71228 0.0
N1089 N 0.34117 0.47375 0.56322 0.0
H1090 H 0.31244 0.46042 0.77556 0.0
H1091 H 0.32646 0.4786 0.70237 0.0
H1092 H 0.35002 0.47873 0.50933 0.0
H1093 H 0.33212 0.4797 0.57026 0.0
H1094 H 0.32747 0.39506 0.68661 0.0
H1095 H 0.3099 0.39606 0.74914 0.0
H1096 H 0.35753 0.41355 0.66705 0.0
H1097 H 0.3716 0.43184 0.59422 0.0
C1098 C 0.56115 0.87501 0.65135 0.0
C1099 C 0.56559 0.8831 0.73445 0.0
C1100 C 0.55538 0.90658 0.69518 0.0
C1101 C 0.5499 0.89775 0.61382 0.0
N1102 N 0.54414 0.87153 0.51844 0.0
N1103 N 0.56303 0.90354 0.84178 0.0
C1104 C 0.55163 0.88125 0.5933 0.0
C1105 C 0.56166 0.89808 0.75823 0.0
N1106 N 0.56699 0.86219 0.62629 0.0
N1107 N 0.55476 0.92319 0.71193 0.0
H1108 H 0.56699 0.89725 0.89048 0.0
H1109 H 0.55845 0.91295 0.86432 0.0
H1110 H 0.54918 0.92922 0.66898 0.0
H1111 H 0.56085 0.93167 0.76615 0.0
H1112 H 0.56612 0.85749 0.56369 0.0
H1113 H 0.57434 0.85752 0.66637 0.0
H1114 H 0.54306 0.8582 0.50409 0.0
H1115 H 0.5375 0.87595 0.47333 0.0
C1116 C 0.34648 0.11937 0.14131 0.0
C1117 C 0.35627 0.10876 0.12689 0.0
C1118 C 0.32642 0.07819 0.16065 0.0
C1119 C 0.31709 0.08896 0.18129 0.0
N1120 N 0.31881 0.11982 0.20499 0.0
N1121 N 0.35686 0.07868 0.13461 0.0
C1122 C 0.32727 0.10958 0.17532 0.0
C1123 C 0.34659 0.08831 0.13966 0.0
N1124 N 0.35535 0.13867 0.12005 0.0
N1125 N 0.31584 0.05829 0.15839 0.0
H1126 H 0.3716 0.08557 0.11843 0.0
H1127 H 0.35122 0.06421 0.15273 0.0
H1128 H 0.30109 0.05037 0.1743 0.0
H1129 H 0.32123 0.04964 0.13464 0.0
H1130 H 0.34829 0.14676 0.12063 0.0
H1131 H 0.3694 0.14628 0.09478 0.0
H1132 H 0.32613 0.13493 0.21039 0.0
H1133 H 0.30487 0.11312 0.23144 0.0
C1134 C 0.91133 0.25735 0.19992 0.0
C1135 C 0.89505 0.24816 0.14428 0.0
C1136 C 0.89686 0.21822 0.1482 0.0
C1137 C 0.91424 0.22795 0.19715 0.0
N1138 N 0.94025 0.25803 0.25473 0.0
N1139 N 0.8746 0.22119 0.05205 0.0
C1140 C 0.92206 0.24784 0.21955 0.0
C1141 C 0.88857 0.22904 0.11397 0.0
N1142 N 0.91669 0.27526 0.23347 0.0
N1143 N 0.88769 0.19845 0.13792 0.0
H1144 H 0.86799 0.22852 0.02578 0.0
H1145 H 0.87081 0.20813 0.0213 0.0
H1146 H 0.89283 0.18983 0.16454 0.0
H1147 H 0.87392 0.19034 0.11071 0.0
H1148 H 0.92683 0.28155 0.2825 0.0
H1149 H 0.91018 0.28337 0.21601 0.0
H1150 H 0.94756 0.27305 0.26385 0.0
H1151 H 0.94895 0.25189 0.2673 0.0
C1152 C 0.76434 0.66084 0.09321 0.0
C1153 C 0.75445 0.64655 0.15702 0.0
C1154 C 0.76681 0.6723 0.2653 0.0
C1155 C 0.7744 0.68664 0.20005 0.0
N1156 N 0.77561 0.69397 0.04964 0.0
N1157 N 0.7427 0.63921 0.30205 0.0
C1158 C 0.7718 0.68076 0.11327 0.0
C1159 C 0.75465 0.6524 0.24271 0.0
N1160 N 0.76746 0.65559 0.0144 0.0
N1161 N 0.77187 0.67742 0.34847 0.0
H1162 H 0.73293 0.62467 0.28764 0.0
H1163 H 0.74098 0.64319 0.3633 0.0
H1164 H 0.78151 0.69165 0.36777 0.0
H1165 H 0.76819 0.66721 0.39708 0.0
H1166 H 0.77624 0.66574 0.96868 0.0
H1167 H 0.76326 0.64127 0.99803 0.0
H1168 H 0.77216 0.68993 0.98604 0.0
H1169 H 0.78004 0.70855 0.06099 0.0
C1170 C 0.08027 0.32491 0.86442 0.0
C1171 C 0.08787 0.31732 0.80308 0.0
C1172 C 0.11777 0.34909 0.79382 0.0
C1173 C 0.10944 0.35708 0.84942 0.0
N1174 N 0.08101 0.35358 0.92231 0.0
N1175 N 0.11235 0.32291 0.69784 0.0
C1176 C 0.09022 0.34526 0.88088 0.0
C1177 C 0.10611 0.32967 0.76378 0.0
N1178 N 0.06348 0.31271 0.90704 0.0
N1179 N 0.13712 0.35964 0.77334 0.0
H1180 H 0.10448 0.30868 0.67506 0.0
H1181 H 0.12452 0.33186 0.66094 0.0
H1182 H 0.14636 0.37367 0.79615 0.0
H1183 H 0.14448 0.35382 0.74078 0.0
H1184 H 0.05856 0.31698 0.95977 0.0
H1185 H 0.05513 0.29793 0.89321 0.0
H1186 H 0.0663 0.34596 0.93862 0.0
H1187 H 0.08743 0.36852 0.93283 0.0
C1188 C 0.68092 0.78483 0.83963 0.0
C1189 C 0.68926 0.77433 0.80234 0.0
C1190 C 0.65804 0.74377 0.81516 0.0
C1191 C 0.64964 0.75435 0.85043 0.0
N1192 N 0.65186 0.78468 0.8909 0.0
N1193 N 0.68594 0.74437 0.74767 0.0
C1194 C 0.66078 0.77482 0.86165 0.0
C1195 C 0.67783 0.75395 0.78768 0.0
N1196 N 0.69232 0.80442 0.85352 0.0
N1197 N 0.64722 0.72387 0.81106 0.0
H1198 H 0.70067 0.75096 0.73204 0.0
H1199 H 0.67803 0.73008 0.72596 0.0
H1200 H 0.63266 0.71599 0.82985 0.0
H1201 H 0.65279 0.71492 0.79426 0.0
H1202 H 0.68808 0.81268 0.88949 0.0
H1203 H 0.7065 0.81256 0.83042 0.0
H1204 H 0.65836 0.79978 0.89238 0.0
H1205 H 0.63735 0.77771 0.91068 0.0
C1206 C 0.23652 0.91708 0.88302 0.0
C1207 C 0.22909 0.91609 0.79961 0.0
C1208 C 0.24416 0.89713 0.75361 0.0
C1209 C 0.24882 0.89557 0.83962 0.0
N1210 N 0.24502 0.90052 0.98892 0.0
N1211 N 0.22237 0.90134 0.65968 0.0
C1212 C 0.24379 0.90456 0.90526 0.0
C1213 C 0.23196 0.90508 0.73581 0.0
N1214 N 0.23745 0.93052 0.94022 0.0
N1215 N 0.25197 0.89181 0.68847 0.0
H1216 H 0.21251 0.90598 0.64521 0.0
H1217 H 0.2226 0.89178 0.61466 0.0
H1218 H 0.2618 0.88688 0.69811 0.0
H1219 H 0.25042 0.89442 0.62466 0.0
H1220 H 0.24439 0.93289 -0.00094 0.0
H1221 H 0.23348 0.94087 0.92523 0.0
H1222 H 0.23972 0.90535 0.03836 0.0
H1223 H 0.24921 0.89059 0.00854 0.0
C1224 C 0.67718 0.92031 0.78317 0.0
C1225 C 0.68984 0.91546 0.82724 0.0
C1226 C 0.66251 0.89227 0.91642 0.0
C1227 C 0.64963 0.89577 0.8666 0.0
N1228 N 0.64403 0.9116 0.74746 0.0
N1229 N 0.69439 0.89544 0.9305 0.0
C1230 C 0.65676 0.90927 0.79815 0.0
C1231 C 0.6825 0.90121 0.89308 0.0
N1232 N 0.68477 0.93626 0.73093 0.0
N1233 N 0.65561 0.88029 0.98597 0.0
H1234 H 0.7092 0.90186 0.91768 0.0
H1235 H 0.68939 0.88335 0.97014 0.0
H1236 H 0.64086 0.87219 0.00148 0.0
H1237 H 0.66457 0.8792 0.0315 0.0
H1238 H 0.67652 0.94179 0.70407 0.0
H1239 H 0.69969 0.94528 0.72103 0.0
H1240 H 0.64804 0.91924 0.69017 0.0
H1241 H 0.62912 0.90493 0.75978 0.0
C1242 C 0.10941 0.78452 0.81141 0.0
C1243 C 0.08879 0.77471 0.81705 0.0
C1244 C 0.08808 0.74455 0.85864 0.0
C1245 C 0.10876 0.75474 0.85955 0.0
N1246 N 0.13935 0.78481 0.84701 0.0
N1247 N 0.05844 0.74643 0.85681 0.0
C1248 C 0.11951 0.77484 0.83851 0.0
C1249 C 0.07809 0.755 0.84359 0.0
N1250 N 0.11926 0.80286 0.7775 0.0
N1251 N 0.07798 0.72475 0.86834 0.0
H1252 H 0.05057 0.75353 0.84507 0.0
H1253 H 0.05015 0.73287 0.88547 0.0
H1254 H 0.08475 0.71653 0.87899 0.0
H1255 H 0.06302 0.71621 0.85875 0.0
H1256 H 0.13406 0.81006 0.76313 0.0
H1257 H 0.11232 0.81041 0.75724 0.0
H1258 H 0.14786 0.7999 0.84258 0.0
H1259 H 0.1473 0.77814 0.86479 0.0
C1260 C 0.21848 0.31998 0.87179 0.0
C1261 C 0.22643 0.3119 0.81433 0.0
C1262 C 0.25483 0.3443 0.79175 0.0
C1263 C 0.24776 0.35204 0.85475 0.0
N1264 N 0.22418 0.34691 0.96373 0.0
N1265 N 0.25442 0.31561 0.73667 0.0
C1266 C 0.23005 0.33973 0.89798 0.0
C1267 C 0.24521 0.32385 0.77873 0.0
N1268 N 0.19952 0.30916 0.89784 0.0
N1269 N 0.27073 0.35646 0.74392 0.0
H1270 H 0.2484 0.30061 0.72951 0.0
H1271 H 0.2689 0.32347 0.71711 0.0
H1272 H 0.2786 0.37145 0.75335 0.0
H1273 H 0.27515 0.35185 0.69054 0.0
H1274 H 0.19225 0.31497 0.93131 0.0
H1275 H 0.19036 0.29475 0.87969 0.0
H1276 H 0.21266 0.33814 0.00411 0.0
H1277 H 0.23166 0.3615 0.98208 0.0
C1278 C 0.9133 0.68193 0.11062 0.0
C1279 C 0.91656 0.68731 0.198 0.0
C1280 C 0.90201 0.65287 0.2365 0.0
C1281 C 0.89602 0.64747 0.15069 0.0
N1282 N 0.89228 0.65742 0.0095 0.0
N1283 N 0.90977 0.67718 0.34544 0.0
C1284 C 0.90063 0.66214 0.0885 0.0
C1285 C 0.90976 0.6726 0.26152 0.0
N1286 N 0.92289 0.69548 0.04844 0.0
N1287 N 0.90112 0.63943 0.29361 0.0
H1288 H 0.91428 0.69126 0.3667 0.0
H1289 H 0.9032 0.66664 0.39279 0.0
H1290 H 0.89665 0.62506 0.27713 0.0
H1291 H 0.90701 0.64316 0.35471 0.0
H1292 H 0.92224 0.69183 0.98426 0.0
H1293 H 0.9333 0.70991 0.06156 0.0
H1294 H 0.89385 0.66789 0.96508 0.0
H1295 H 0.88206 0.64325 0.99171 0.0
C1296 C 0.34888 0.24718 0.22545 0.0
C1297 C 0.35423 0.25141 0.1384 0.0
C1298 C 0.31987 0.23835 0.10134 0.0
C1299 C 0.31442 0.23126 0.1858 0.0
N1300 N 0.32411 0.22559 0.32422 0.0
N1301 N 0.3441 0.2474 0.99079 0.0
C1302 C 0.32901 0.23479 0.24702 0.0
C1303 C 0.33955 0.24607 0.0754 0.0
N1304 N 0.36263 0.25555 0.28799 0.0
N1305 N 0.30647 0.23839 0.04662 0.0
H1306 H 0.35816 0.25213 0.96846 0.0
H1307 H 0.33356 0.24182 0.94301 0.0
H1308 H 0.29215 0.23384 0.06443 0.0
H1309 H 0.31017 0.24503 0.98695 0.0
H1310 H 0.35913 0.25428 0.35256 0.0
H1311 H 0.37719 0.2656 0.27528 0.0
H1312 H 0.33445 0.22628 0.36732 0.0
H1313 H 0.30983 0.21558 0.34155 0.0
C1314 C 0.7715 0.11789 0.21037 0.0
C1315 C 0.75357 0.10802 0.16535 0.0
C1316 C 0.75624 0.07849 0.15987 0.0
C1317 C 0.77339 0.08794 0.21031 0.0
N1318 N 0.7958 0.11549 0.29493 0.0
N1319 N 0.72688 0.07793 0.11172 0.0
C1320 C 0.78048 0.10727 0.23938 0.0
C1321 C 0.74541 0.08805 0.1436 0.0
N1322 N 0.78047 0.13763 0.22164 0.0
N1323 N 0.75027 0.06035 0.12746 0.0
H1324 H 0.71824 0.08422 0.10099 0.0
H1325 H 0.71933 0.06288 0.10328 0.0
H1326 H 0.75699 0.05229 0.14249 0.0
H1327 H 0.73938 0.05375 0.0816 0.0
H1328 H 0.79459 0.14598 0.24509 0.0
H1329 H 0.77458 0.14605 0.2004 0.0
H1330 H 0.80028 0.12867 0.32594 0.0
H1331 H 0.80311 0.10837 0.31536 0.0
C1332 C 0.00746 0.43496 0.40854 0.0
C1333 C 0.02179 0.44183 0.47383 0.0
C1334 C 0.99588 0.43109 0.58067 0.0
C1335 C 0.9816 0.42165 0.51628 0.0
N1336 N 0.97464 0.41065 0.36991 0.0
N1337 N 0.02888 0.44145 0.62376 0.0
C1338 C 0.98759 0.42244 0.43034 0.0
C1339 C 0.01582 0.4385 0.56052 0.0
N1340 N 0.01253 0.44099 0.32625 0.0
N1341 N 0.99064 0.43383 0.66018 0.0
H1342 H 0.04336 0.44546 0.61204 0.0
H1343 H 0.0247 0.43756 0.68697 0.0
H1344 H 0.97636 0.42978 0.67654 0.0
H1345 H 1.00083 0.44221 0.70658 0.0
H1346 H 0.00225 0.43767 0.2782 0.0
H1347 H 0.02668 0.45114 0.30791 0.0
H1348 H 0.97885 0.40955 0.30817 0.0
H1349 H 0.96025 0.40029 0.38374 0.0
C1350 C 0.56203 0.54991 0.51265 0.0
C1351 C 0.58267 0.55982 0.50785 0.0
C1352 C 0.5832 0.58955 0.4602 0.0
C1353 C 0.56251 0.57932 0.46037 0.0
N1354 N 0.53211 0.54908 0.47095 0.0
N1355 N 0.61298 0.58796 0.46614 0.0
C1356 C 0.55187 0.55931 0.48257 0.0
C1357 C 0.59328 0.57929 0.47791 0.0
N1358 N 0.55215 0.53153 0.54602 0.0
N1359 N 0.59322 0.60926 0.4474 0.0
H1360 H 0.62103 0.5813 0.48249 0.0
H1361 H 0.6212 0.60122 0.43501 0.0
H1362 H 0.5864 0.61733 0.43445 0.0
H1363 H 0.60819 0.61793 0.45611 0.0
H1364 H 0.53736 0.52439 0.56073 0.0
H1365 H 0.55899 0.52375 0.56397 0.0
H1366 H 0.52364 0.53405 0.47808 0.0
H1367 H 0.52433 0.55539 0.44632 0.0
C1368 C 0.44481 0.00541 0.5386 0.0
C1369 C 0.43933 0.01796 0.4981 0.0
C1370 C 0.41354 0.99021 0.42027 0.0
C1371 C 0.42026 0.97803 0.45423 0.0
N1372 N 0.44495 0.97496 0.53167 0.0
N1373 N 0.42081 0.02304 0.38919 0.0
C1374 C 0.43659 0.98585 0.50989 0.0
C1375 C 0.42448 0.01059 0.43513 0.0
N1376 N 0.4579 0.01214 0.60428 0.0
N1377 N 0.39613 0.98224 0.37792 0.0
H1378 H 0.42808 0.03798 0.39993 0.0
H1379 H 0.41173 0.01875 0.336 0.0
H1380 H 0.38721 0.9673 0.36849 0.0
H1381 H 0.38954 0.99023 0.35977 0.0
H1382 H 0.46074 0.00308 0.64239 0.0
H1383 H 0.46489 0.02656 0.62507 0.0
H1384 H 0.4581 0.98059 0.56443 0.0
H1385 H 0.43987 0.96082 0.50964 0.0
C1386 C 0.58696 0.00765 0.57301 0.0
C1387 C 0.58066 0.02019 0.53884 0.0
C1388 C 0.55655 0.9934 0.45034 0.0
C1389 C 0.56163 0.98053 0.49038 0.0
N1390 N 0.57969 0.97448 0.59799 0.0
N1391 N 0.55682 0.02403 0.458 0.0
C1392 C 0.57617 0.98736 0.5546 0.0
C1393 C 0.56475 0.01281 0.48083 0.0
N1394 N 0.6039 0.01523 0.61874 0.0
N1395 N 0.54403 0.98714 0.38255 0.0
H1396 H 0.562 0.03815 0.48043 0.0
H1397 H 0.54391 0.01871 0.42355 0.0
H1398 H 0.5374 0.9729 0.35947 0.0
H1399 H 0.54145 0.99643 0.34482 0.0
H1400 H 0.6103 0.00711 0.63744 0.0
H1401 H 0.61266 0.03007 0.6312 0.0
H1402 H 0.5884 0.97821 0.65226 0.0
H1403 H 0.57284 0.95968 0.58328 0.0
C1404 C 0.99202 0.5802 0.54266 0.0
C1405 C 0.98018 0.56022 0.52109 0.0
C1406 C 0.00772 0.56092 0.44646 0.0
C1407 C 0.01993 0.58034 0.47453 0.0
N1408 N 0.02464 0.60784 0.55861 0.0
N1409 N 0.97752 0.53052 0.46634 0.0
C1410 C 0.01237 0.58976 0.52583 0.0
C1411 C 0.9882 0.55029 0.47636 0.0
N1412 N 0.98367 0.59035 0.57478 0.0
N1413 N 0.01478 0.55261 0.39121 0.0
H1414 H 0.96333 0.52207 0.48902 0.0
H1415 H 0.98327 0.52218 0.44275 0.0
H1416 H 0.02923 0.55963 0.37098 0.0
H1417 H 0.00604 0.53938 0.36061 0.0
H1418 H 0.99121 0.6054 0.58311 0.0
H1419 H 0.96875 0.58408 0.58578 0.0
H1420 H 0.02041 0.61442 0.60482 0.0
H1421 H 0.03944 0.61582 0.54392 0.0
C1422 C 0.43791 0.44988 0.51082 0.0
C1423 C 0.42092 0.44049 0.45937 0.0
C1424 C 0.42443 0.41146 0.4515 0.0
C1425 C 0.44015 0.42019 0.51012 0.0
N1426 N 0.45927 0.44609 0.60924 0.0
N1427 N 0.39575 0.41092 0.39434 0.0
C1428 C 0.44604 0.43888 0.54428 0.0
C1429 C 0.41358 0.4209 0.43287 0.0
N1430 N 0.44691 0.46954 0.52409 0.0
N1431 N 0.41978 0.39411 0.41391 0.0
H1432 H 0.387 0.41703 0.38215 0.0
H1433 H 0.38876 0.39604 0.38182 0.0
H1434 H 0.4266 0.38618 0.4296 0.0
H1435 H 0.41003 0.38821 0.3633 0.0
H1436 H 0.46038 0.47744 0.55414 0.0
H1437 H 0.44206 0.47834 0.49668 0.0
H1438 H 0.46266 0.45881 0.64211 0.0
H1439 H 0.4654 0.43836 0.63595 0.0
C1440 C 0.24399 0.11364 0.34752 0.0
C1441 C 0.25454 0.11018 0.2835 0.0
C1442 C 0.26673 0.14309 0.22722 0.0
C1443 C 0.25422 0.14563 0.28376 0.0
N1444 N 0.22985 0.13314 0.39421 0.0
N1445 N 0.27473 0.12082 0.15734 0.0
C1446 C 0.24268 0.13094 0.34376 0.0
C1447 C 0.26554 0.12468 0.22182 0.0
N1448 N 0.23519 0.10038 0.41153 0.0
N1449 N 0.28045 0.15862 0.18153 0.0
H1450 H 0.27526 0.10797 0.15319 0.0
H1451 H 0.28081 0.12985 0.10461 0.0
H1452 H 0.28224 0.17254 0.18589 0.0
H1453 H 0.29139 0.15826 0.14622 0.0
H1454 H 0.229 0.1029 0.46497 0.0
H1455 H 0.23524 0.08725 0.41416 0.0
H1456 H 0.2195 0.12214 0.4327 0.0
H1457 H 0.22863 0.14564 0.3934 0.0
C1458 C 0.87637 0.10781 0.26367 0.0
C1459 C 0.8592 0.10755 0.29184 0.0
C1460 C 0.87761 0.14295 0.31158 0.0
C1461 C 0.895 0.14312 0.28795 0.0
N1462 N 0.91174 0.12541 0.25833 0.0
N1463 N 0.84454 0.12419 0.36265 0.0
C1464 C 0.89462 0.12545 0.2686 0.0
C1465 C 0.86019 0.12486 0.32282 0.0
N1466 N 0.87525 0.09119 0.23234 0.0
N1467 N 0.87731 0.16002 0.31748 0.0
H1468 H 0.83134 0.11141 0.37151 0.0
H1469 H 0.84526 0.13606 0.3945 0.0
H1470 H 0.88945 0.17368 0.30683 0.0
H1471 H 0.86451 0.16058 0.32416 0.0
H1472 H 0.88668 0.09096 0.20072 0.0
H1473 H 0.86252 0.07764 0.23452 0.0
H1474 H 0.91258 0.11277 0.25246 0.0
H1475 H 0.92536 0.13798 0.26354 0.0
C1476 C 0.89261 0.7638 0.34375 0.0
C1477 C 0.89679 0.75447 0.27653 0.0
C1478 C 0.86607 0.74663 0.20596 0.0
C1479 C 0.86121 0.7547 0.27616 0.0
N1480 N 0.86854 0.76914 0.41605 0.0
N1481 N 0.88584 0.7336 0.15258 0.0
C1482 C 0.87408 0.76269 0.34653 0.0
C1483 C 0.88316 0.7451 0.20964 0.0
N1484 N 0.90666 0.77435 0.40294 0.0
N1485 N 0.85426 0.74019 0.13571 0.0
H1486 H 0.89789 0.73164 0.15336 0.0
H1487 H 0.87528 0.72444 0.10918 0.0
H1488 H 0.84069 0.73925 0.13237 0.0
H1489 H 0.85845 0.73684 0.07817 0.0
H1490 H 0.90536 0.78315 0.4486 0.0
H1491 H 0.92039 0.77555 0.40234 0.0
H1492 H 0.87619 0.77307 0.47331 0.0
H1493 H 0.85557 0.7695 0.4183 0.0
C1494 C 0.12461 0.26771 0.733 0.0
C1495 C 0.1065 0.24994 0.73199 0.0
C1496 C 0.12366 0.23132 0.72617 0.0
C1497 C 0.14169 0.24903 0.73111 0.0
N1498 N 0.1598 0.28397 0.74719 0.0
N1499 N 0.0883 0.21485 0.73438 0.0
C1500 C 0.1423 0.26722 0.73566 0.0
C1501 C 0.10589 0.23173 0.73075 0.0
N1502 N 0.12488 0.28511 0.73283 0.0
N1503 N 0.12362 0.21422 0.71368 0.0
H1504 H 0.075 0.21455 0.73215 0.0
H1505 H 0.08675 0.20115 0.74369 0.0
H1506 H 0.13638 0.21347 0.71001 0.0
H1507 H 0.11117 0.20095 0.70097 0.0
H1508 H 0.13726 0.2985 0.7209 0.0
H1509 H 0.11248 0.28627 0.74205 0.0
H1510 H 0.16125 0.29743 0.76182 0.0
H1511 H 0.17314 0.28437 0.74728 0.0
C1512 C 0.7465 0.86331 0.80843 0.0
C1513 C 0.75721 0.86015 0.74427 0.0
C1514 C 0.76826 0.89287 0.68694 0.0
C1515 C 0.75603 0.89521 0.74614 0.0
N1516 N 0.72976 0.88056 0.84796 0.0
N1517 N 0.77658 0.87071 0.61634 0.0
C1518 C 0.74421 0.87991 0.80314 0.0
C1519 C 0.76754 0.87456 0.6814 0.0
N1520 N 0.73834 0.85043 0.87432 0.0
N1521 N 0.7811 0.90835 0.63858 0.0
H1522 H 0.77716 0.85787 0.61282 0.0
H1523 H 0.78246 0.87968 0.56332 0.0
H1524 H 0.78217 0.922 0.64175 0.0
H1525 H 0.79178 0.90818 0.60056 0.0
H1526 H 0.73233 0.85324 0.92771 0.0
H1527 H 0.7389 0.83762 0.87946 0.0
H1528 H 0.71933 0.86892 0.88363 0.0
H1529 H 0.72674 0.89184 0.84139 0.0
C1530 C 0.12954 0.89262 0.67851 0.0
C1531 C 0.14356 0.89668 0.74343 0.0
C1532 C 0.12286 0.86419 0.80454 0.0
C1533 C 0.10812 0.86074 0.74415 0.0
N1534 N 0.09616 0.87222 0.62999 0.0
N1535 N 0.15293 0.88731 0.87389 0.0
C1536 C 0.11114 0.87507 0.68245 0.0
C1537 C 0.13995 0.8828 0.80844 0.0
N1538 N 0.13385 0.90552 0.61306 0.0
N1539 N 0.12109 0.84927 0.85476 0.0
H1540 H 0.16643 0.90005 0.87627 0.0
H1541 H 0.14983 0.87893 0.9289 0.0
H1542 H 0.10904 0.83526 0.85308 0.0
H1543 H 0.13232 0.85015 0.89244 0.0
H1544 H 0.12529 0.90249 0.55864 0.0
H1545 H 0.14666 0.91899 0.61069 0.0
H1546 H 0.09664 0.88287 0.58961 0.0
H1547 H 0.08253 0.85959 0.63138 0.0
C1548 C 0.89999 0.44078 0.62445 0.0
C1549 C 0.91807 0.44117 0.62066 0.0
C1550 C 0.93557 0.47691 0.62596 0.0
C1551 C 0.9175 0.47652 0.61959 0.0
N1552 N 0.88247 0.45847 0.60876 0.0
N1553 N 0.95311 0.4594 0.60681 0.0
C1554 C 0.89967 0.45854 0.61781 0.0
C1555 C 0.93591 0.45917 0.6196 0.0
N1556 N 0.88319 0.42344 0.63703 0.0
N1557 N 0.95247 0.49424 0.63716 0.0
H1558 H 0.95411 0.44682 0.60136 0.0
H1559 H 0.96629 0.47202 0.59462 0.0
H1560 H 0.95309 0.50768 0.63774 0.0
H1561 H 0.96576 0.49526 0.65213 0.0
H1562 H 0.86971 0.42225 0.64877 0.0
H1563 H 0.883 0.41023 0.64309 0.0
H1564 H 0.86918 0.44596 0.59674 0.0
H1565 H 0.88159 0.47117 0.60896 0.0
C1566 C 0.52794 0.45758 0.63453 0.0
C1567 C 0.52695 0.44013 0.6055 0.0
C1568 C 0.56211 0.45804 0.57607 0.0
C1569 C 0.56316 0.47529 0.60816 0.0
N1570 N 0.54791 0.49081 0.68313 0.0
N1571 N 0.54343 0.42276 0.56507 0.0
C1572 C 0.54638 0.47478 0.64303 0.0
C1573 C 0.54416 0.44008 0.58088 0.0
N1574 N 0.51118 0.45815 0.64794 0.0
N1575 N 0.57825 0.45886 0.54042 0.0
H1576 H 0.5306 0.40934 0.56967 0.0
H1577 H 0.55572 0.42146 0.55494 0.0
H1578 H 0.59196 0.47139 0.54143 0.0
H1579 H 0.5779 0.44744 0.50623 0.0
H1580 H 0.51086 0.47096 0.65847 0.0
H1581 H 0.49736 0.44607 0.64074 0.0
H1582 H 0.53667 0.4905 0.71877 0.0
H1583 H 0.5608 0.50414 0.68664 0.0
C1584 C 0.55949 0.10176 0.60895 0.0
C1585 C 0.55956 0.08388 0.60823 0.0
C1586 C 0.52413 0.06591 0.58924 0.0
C1587 C 0.5238 0.08358 0.59745 0.0
N1588 N 0.54062 0.118 0.62759 0.0
N1589 N 0.5418 0.04871 0.61213 0.0
C1590 C 0.54135 0.10146 0.61049 0.0
C1591 C 0.54181 0.06588 0.60352 0.0
N1592 N 0.57676 0.11898 0.60766 0.0
N1593 N 0.50787 0.04936 0.56205 0.0
H1594 H 0.55446 0.04791 0.6193 0.0
H1595 H 0.52912 0.03528 0.61902 0.0
H1596 H 0.49489 0.04893 0.54621 0.0
H1597 H 0.50781 0.03657 0.54621 0.0
H1598 H 0.57775 0.13245 0.59824 0.0
H1599 H 0.59027 0.11974 0.61093 0.0
H1600 H 0.55268 0.13108 0.64627 0.0
H1601 H 0.52759 0.11824 0.63001 0.0
C1602 C 0.77602 0.56734 0.03351 0.0
C1603 C 0.77597 0.58517 0.03854 0.0
C1604 C 0.81176 0.60335 0.03803 0.0
C1605 C 0.81175 0.58545 0.04304 0.0
N1606 N 0.79426 0.55034 0.0477 0.0
N1607 N 0.79341 0.62015 0.05398 0.0
C1608 C 0.79397 0.5674 0.04117 0.0
C1609 C 0.79374 0.60322 0.04163 0.0
N1610 N 0.7589 0.55042 0.01901 0.0
N1611 N 0.829 0.62054 0.03135 0.0
H1612 H 0.78059 0.62078 0.0568 0.0
H1613 H 0.80573 0.63346 0.06768 0.0
H1614 H 0.8426 0.62153 0.03498 0.0
H1615 H 0.8299 0.63377 0.0167 0.0
H1616 H 0.75799 0.5371 0.00656 0.0
H1617 H 0.74558 0.54999 0.01226 0.0
H1618 H 0.78187 0.53683 0.05745 0.0
H1619 H 0.80711 0.54974 0.04723 0.0
C1620 C 0.41025 0.19621 0.10789 0.0
C1621 C 0.42077 0.19325 0.04207 0.0
C1622 C 0.43142 0.226 0.9862 0.0
C1623 C 0.41981 0.2284 0.04865 0.0
N1624 N 0.39471 0.21409 0.15616 0.0
N1625 N 0.43926 0.20388 0.91192 0.0
C1626 C 0.40834 0.21308 0.10631 0.0
C1627 C 0.43067 0.2077 0.97892 0.0
N1628 N 0.40202 0.18289 0.17228 0.0
N1629 N 0.44375 0.24146 0.93642 0.0
H1630 H 0.43964 0.19095 0.90665 0.0
H1631 H 0.44488 0.2129 0.85891 0.0
H1632 H 0.44476 0.25507 0.94049 0.0
H1633 H 0.45407 0.24132 0.89587 0.0
H1634 H 0.3964 0.18548 0.22752 0.0
H1635 H 0.40196 0.16972 0.17378 0.0
H1636 H 0.38435 0.20244 0.19195 0.0
H1637 H 0.39234 0.22587 0.15539 0.0
C1638 C 0.77425 0.2099 0.07171 0.0
C1639 C 0.7741 0.19191 0.07088 0.0
C1640 C 0.80979 0.20932 0.07568 0.0
C1641 C 0.81003 0.2273 0.06957 0.0
N1642 N 0.79284 0.2449 0.04945 0.0
N1643 N 0.79156 0.1743 0.05802 0.0
C1644 C 0.79234 0.22766 0.06437 0.0
C1645 C 0.79183 0.19157 0.06778 0.0
N1646 N 0.75712 0.20998 0.08015 0.0
N1647 N 0.82656 0.20917 0.0949 0.0
H1648 H 0.77877 0.16084 0.05552 0.0
H1649 H 0.80401 0.1734 0.0457 0.0
H1650 H 0.8398 0.22185 0.10584 0.0
H1651 H 0.82699 0.19655 0.10903 0.0
H1652 H 0.75637 0.22254 0.09128 0.0
H1653 H 0.74354 0.19727 0.08085 0.0
H1654 H 0.78052 0.24595 0.03623 0.0
H1655 H 0.80582 0.25814 0.04349 0.0
C1656 C 0.59793 0.78965 0.88007 0.0
C1657 C 0.58471 0.77385 0.9319 0.0
C1658 C 0.57076 0.79339 0.98536 0.0
C1659 C 0.58462 0.80943 0.9366 0.0
N1660 N 0.6143 0.82439 0.85416 0.0
N1661 N 0.56037 0.76114 0.04248 0.0
C1662 C 0.59899 0.80798 0.88835 0.0
C1663 C 0.57173 0.7759 0.98758 0.0
N1664 N 0.60948 0.78716 0.82256 0.0
N1665 N 0.55622 0.79464 0.02662 0.0
H1666 H 0.56008 0.74784 0.04303 0.0
H1667 H 0.55216 0.76245 0.09104 0.0
H1668 H 0.55521 0.80726 0.02673 0.0
H1669 H 0.54443 0.78286 0.05579 0.0
H1670 H 0.61754 0.79734 0.77572 0.0
H1671 H 0.61012 0.77439 0.81751 0.0
H1672 H 0.62639 0.82468 0.82656 0.0
H1673 H 0.61597 0.83823 0.8609 0.0
C1674 C 0.21023 0.77293 0.9269 0.0
C1675 C 0.19267 0.773 0.94452 0.0
C1676 C 0.21066 0.80865 0.9505 0.0
C1677 C 0.22839 0.8086 0.93774 0.0
N1678 N 0.24562 0.79079 0.92996 0.0
N1679 N 0.17675 0.79063 0.99157 0.0
C1680 C 0.22834 0.79074 0.9304 0.0
C1681 C 0.19311 0.79074 0.96305 0.0
N1682 N 0.20957 0.75584 0.90661 0.0
N1683 N 0.21022 0.82566 0.94415 0.0
H1684 H 0.16324 0.77805 0.99801 0.0
H1685 H 0.17693 0.80297 0.01566 0.0
H1686 H 0.22246 0.83911 0.93126 0.0
H1687 H 0.19736 0.8262 0.94264 0.0
H1688 H 0.22144 0.7551 0.88273 0.0
H1689 H 0.19681 0.74233 0.90976 0.0
H1690 H 0.24663 0.7782 0.93319 0.0
H1691 H 0.25912 0.80354 0.93405 0.0
C1692 C 0.19359 0.40169 0.93538 0.0
C1693 C 0.19426 0.41992 0.93617 0.0
C1694 C 0.23 0.43693 0.94235 0.0
C1695 C 0.22933 0.41878 0.93361 0.0
N1696 N 0.21071 0.38425 0.90476 0.0
N1697 N 0.21274 0.45499 0.93213 0.0
C1698 C 0.21118 0.40122 0.92623 0.0
C1699 C 0.21239 0.43759 0.93707 0.0
N1700 N 0.17611 0.38477 0.9426 0.0
N1701 N 0.24739 0.45339 0.95886 0.0
H1702 H 0.20013 0.45604 0.93263 0.0
H1703 H 0.22542 0.46828 0.92251 0.0
H1704 H 0.26051 0.45337 0.96381 0.0
H1705 H 0.24866 0.46673 0.97455 0.0
H1706 H 0.17491 0.37123 0.95274 0.0
H1707 H 0.16274 0.3843 0.9448 0.0
H1708 H 0.19798 0.37144 0.88915 0.0
H1709 H 0.2232 0.38332 0.89404 0.0
C1710 C 0.44071 0.89434 0.38656 0.0
C1711 C 0.44009 0.9119 0.38168 0.0
C1712 C 0.47572 0.931 0.39161 0.0
C1713 C 0.47646 0.91348 0.38965 0.0
N1714 N 0.46021 0.8786 0.37426 0.0
N1715 N 0.45689 0.94699 0.36843 0.0
C1716 C 0.45908 0.89515 0.38433 0.0
C1717 C 0.45757 0.93023 0.38012 0.0
N1718 N 0.42373 0.87696 0.39415 0.0
N1719 N 0.49217 0.94827 0.41012 0.0
H1720 H 0.44395 0.94739 0.36531 0.0
H1721 H 0.46916 0.96044 0.35596 0.0
H1722 H 0.50565 0.94943 0.42193 0.0
H1723 H 0.49217 0.96119 0.42213 0.0
H1724 H 0.42319 0.86384 0.40764 0.0
H1725 H 0.41003 0.8758 0.39191 0.0
H1726 H 0.44822 0.86498 0.36135 0.0
H1727 H 0.47343 0.87872 0.37224 0.0
C1728 C 0.10301 0.56091 0.39628 0.0
C1729 C 0.08588 0.56112 0.37144 0.0
C1730 C 0.06857 0.52565 0.35415 0.0
C1731 C 0.08588 0.52547 0.37606 0.0
N1732 N 0.12061 0.54315 0.39878 0.0
N1733 N 0.05404 0.54445 0.30555 0.0
C1734 C 0.10343 0.54319 0.39157 0.0
C1735 C 0.06927 0.54376 0.34281 0.0
N1736 N 0.11884 0.57764 0.42479 0.0
N1737 N 0.05113 0.50859 0.3503 0.0
H1738 H 0.05373 0.5573 0.29681 0.0
H1739 H 0.04252 0.53251 0.27561 0.0
H1740 H 0.04965 0.49495 0.36124 0.0
H1741 H 0.03776 0.50804 0.3447 0.0
H1742 H 0.13079 0.57797 0.45414 0.0
H1743 H 0.11967 0.59119 0.42254 0.0
H1744 H 0.13419 0.55576 0.402 0.0
H1745 H 0.1215 0.5305 0.39342 0.0
C1746 C 0.46419 0.55778 0.33078 0.0
C1747 C 0.47748 0.5611 0.39812 0.0
C1748 C 0.4537 0.53027 0.46512 0.0
C1749 C 0.44111 0.52616 0.39406 0.0
N1750 N 0.43488 0.53477 0.25499 0.0
N1751 N 0.48643 0.54902 0.52133 0.0
C1752 C 0.44656 0.53953 0.32541 0.0
C1753 C 0.4726 0.54703 0.46355 0.0
N1754 N 0.46804 0.5724 0.27424 0.0
N1755 N 0.4477 0.5181 0.53414 0.0
H1756 H 0.50056 0.56087 0.5224 0.0
H1757 H 0.48455 0.53808 0.56358 0.0
H1758 H 0.43463 0.5049 0.5362 0.0
H1759 H 0.45513 0.52166 0.592 0.0
H1760 H 0.45808 0.57168 0.22904 0.0
H1761 H 0.48062 0.58605 0.2771 0.0
H1762 H 0.43909 0.54276 0.19866 0.0
H1763 H 0.42132 0.52209 0.25093 0.0
loop_
_geom_bond_atom_site_label_1
_geom_bond_atom_site_label_2
_geom_bond_distance
_geom_bond_site_symmetry_2
_ccdc_geom_bond_type
In0 O1 2.294 . S
In0 O2 2.326 . S
In0 O6 2.266 . S
In0 O7 2.326 . S
In0 O8 2.266 . S
In0 O9 2.326 . S
In0 O11 2.294 . S
In0 O12 2.326 . S
O1 In0 2.294 . S
O1 C10 1.240 . S
O2 In0 2.326 . S
O2 C10 1.252 . S
C3 O6 1.252 . S
C3 O7 1.260 . S
C4 O11 1.240 . S
C4 O12 1.252 . S
C5 O8 1.252 . S
C5 O9 1.260 . S
O6 In0 2.266 . S
O6 C3 1.252 . S
O7 In0 2.326 . S
O7 C3 1.260 . S
O8 In0 2.266 . S
O8 C5 1.252 . S
O9 In0 2.326 . S
O9 C5 1.260 . S
C10 O1 1.240 . S
C10 O2 1.252 . S
O11 In0 2.294 . S
O11 C4 1.240 . S
O12 In0 2.326 . S
O12 C4 1.252 . S
In13 O14 2.294 . S
In13 O15 2.326 . S
In13 O19 2.266 . S
In13 O20 2.326 . S
In13 O21 2.266 . S
In13 O22 2.326 . S
In13 O24 2.294 . S
In13 O25 2.326 . S
O14 In13 2.294 . S
O14 C23 1.240 . S
O15 In13 2.326 . S
O15 C23 1.252 . S
C16 O19 1.252 . S
C16 O20 1.260 . S
C17 O24 1.240 . S
C17 O25 1.252 . S
C18 O21 1.252 . S
C18 O22 1.260 . S
O19 In13 2.266 . S
O19 C16 1.252 . S
O20 In13 2.326 . S
O20 C16 1.260 . S
O21 In13 2.266 . S
O21 C18 1.252 . S
O22 In13 2.326 . S
O22 C18 1.260 . S
C23 O14 1.240 . S
C23 O15 1.252 . S
O24 In13 2.294 . S
O24 C17 1.240 . S
O25 In13 2.326 . S
O25 C17 1.252 . S
In26 O27 2.294 . S
In26 O28 2.326 . S
In26 O32 2.266 . S
In26 O33 2.326 . S
In26 O34 2.266 . S
In26 O35 2.326 . S
In26 O37 2.294 . S
In26 O38 2.326 . S
O27 In26 2.294 . S
O27 C36 1.240 . S
O28 In26 2.326 . S
O28 C36 1.252 . S
C29 O32 1.252 . S
C29 O33 1.260 . S
C30 O37 1.240 . S
C30 O38 1.252 . S
C31 O34 1.252 . S
C31 O35 1.260 . S
O32 In26 2.266 . S
O32 C29 1.252 . S
O33 In26 2.326 . S
O33 C29 1.260 . S
O34 In26 2.266 . S
O34 C31 1.252 . S
O35 In26 2.326 . S
O35 C31 1.260 . S
C36 O27 1.240 . S
C36 O28 1.252 . S
O37 In26 2.294 . S
O37 C30 1.240 . S
O38 In26 2.326 . S
O38 C30 1.252 . S
In39 O40 2.294 . S
In39 O41 2.326 . S
In39 O45 2.266 . S
In39 O46 2.326 . S
In39 O47 2.266 . S
In39 O48 2.326 . S
In39 O50 2.294 . S
In39 O51 2.326 . S
O40 In39 2.294 . S
O40 C49 1.240 . S
O41 In39 2.326 . S
O41 C49 1.252 . S
C42 O45 1.252 . S
C42 O46 1.260 . S
C43 O50 1.240 . S
C43 O51 1.252 . S
C44 O47 1.252 . S
C44 O48 1.260 . S
O45 In39 2.266 . S
O45 C42 1.252 . S
O46 In39 2.326 . S
O46 C42 1.260 . S
O47 In39 2.266 . S
O47 C44 1.252 . S
O48 In39 2.326 . S
O48 C44 1.260 . S
C49 O40 1.240 . S
C49 O41 1.252 . S
O50 In39 2.294 . S
O50 C43 1.240 . S
O51 In39 2.326 . S
O51 C43 1.252 . S
In52 O53 2.294 . S
In52 O54 2.326 . S
In52 O58 2.266 . S
In52 O59 2.326 . S
In52 O60 2.266 . S
In52 O61 2.326 . S
In52 O63 2.294 . S
In52 O64 2.326 . S
O53 In52 2.294 . S
O53 C62 1.240 . S
O54 In52 2.326 . S
O54 C62 1.252 . S
C55 O58 1.252 . S
C55 O59 1.260 . S
C56 O63 1.240 . S
C56 O64 1.252 . S
C57 O60 1.252 . S
C57 O61 1.260 . S
O58 In52 2.266 . S
O58 C55 1.252 . S
O59 In52 2.326 . S
O59 C55 1.260 . S
O60 In52 2.266 . S
O60 C57 1.252 . S
O61 In52 2.326 . S
O61 C57 1.260 . S
C62 O53 1.240 . S
C62 O54 1.252 . S
O63 In52 2.294 . S
O63 C56 1.240 . S
O64 In52 2.326 . S
O64 C56 1.252 . S
In65 O66 2.294 . S
In65 O67 2.326 . S
In65 O71 2.266 . S
In65 O72 2.326 . S
In65 O73 2.266 . S
In65 O74 2.326 . S
In65 O76 2.294 . S
In65 O77 2.326 . S
O66 In65 2.294 . S
O66 C75 1.240 . S
O67 In65 2.326 . S
O67 C75 1.252 . S
C68 O71 1.252 . S
C68 O72 1.260 . S
C69 O76 1.240 . S
C69 O77 1.252 . S
C70 O73 1.252 . S
C70 O74 1.260 . S
O71 In65 2.266 . S
O71 C68 1.252 . S
O72 In65 2.326 . S
O72 C68 1.260 . S
O73 In65 2.266 . S
O73 C70 1.252 . S
O74 In65 2.326 . S
O74 C70 1.260 . S
C75 O66 1.240 . S
C75 O67 1.252 . S
O76 In65 2.294 . S
O76 C69 1.240 . S
O77 In65 2.326 . S
O77 C69 1.252 . S
In78 O79 2.294 . S
In78 O80 2.326 . S
In78 O84 2.266 . S
In78 O85 2.326 . S
In78 O86 2.266 . S
In78 O87 2.326 . S
In78 O89 2.294 . S
In78 O90 2.326 . S
O79 In78 2.294 . S
O79 C88 1.240 . S
O80 In78 2.326 . S
O80 C88 1.252 . S
C81 O84 1.252 . S
C81 O85 1.260 . S
C82 O89 1.240 . S
C82 O90 1.252 . S
C83 O86 1.252 . S
C83 O87 1.260 . S
O84 In78 2.266 . S
O84 C81 1.252 . S
O85 In78 2.326 . S
O85 C81 1.260 . S
O86 In78 2.266 . S
O86 C83 1.252 . S
O87 In78 2.326 . S
O87 C83 1.260 . S
C88 O79 1.240 . S
C88 O80 1.252 . S
O89 In78 2.294 . S
O89 C82 1.240 . S
O90 In78 2.326 . S
O90 C82 1.252 . S
In91 O92 2.294 . S
In91 O93 2.326 . S
In91 O97 2.266 . S
In91 O98 2.326 . S
In91 O99 2.266 . S
In91 O100 2.326 . S
In91 O102 2.294 . S
In91 O103 2.326 . S
O92 In91 2.294 . S
O92 C101 1.240 . S
O93 In91 2.326 . S
O93 C101 1.252 . S
C94 O97 1.252 . S
C94 O98 1.260 . S
C95 O102 1.240 . S
C95 O103 1.252 . S
C96 O99 1.252 . S
C96 O100 1.260 . S
O97 In91 2.266 . S
O97 C94 1.252 . S
O98 In91 2.326 . S
O98 C94 1.260 . S
O99 In91 2.266 . S
O99 C96 1.252 . S
O100 In91 2.326 . S
O100 C96 1.260 . S
C101 O92 1.240 . S
C101 O93 1.252 . S
O102 In91 2.294 . S
O102 C95 1.240 . S
O103 In91 2.326 . S
O103 C95 1.252 . S
In104 O105 2.294 . S
In104 O106 2.326 . S
In104 O110 2.266 . S
In104 O111 2.326 . S
In104 O112 2.266 . S
In104 O113 2.326 . S
In104 O115 2.294 . S
In104 O116 2.326 . S
O105 In104 2.294 . S
O105 C114 1.240 . S
O106 In104 2.326 . S
O106 C114 1.252 . S
C107 O110 1.252 . S
C107 O111 1.260 . S
C108 O115 1.240 . S
C108 O116 1.252 . S
C109 O112 1.252 . S
C109 O113 1.260 . S
O110 In104 2.266 . S
O110 C107 1.252 . S
O111 In104 2.326 . S
O111 C107 1.260 . S
O112 In104 2.266 . S
O112 C109 1.252 . S
O113 In104 2.326 . S
O113 C109 1.260 . S
C114 O105 1.240 . S
C114 O106 1.252 . S
O115 In104 2.294 . S
O115 C108 1.240 . S
O116 In104 2.326 . S
O116 C108 1.252 . S
In117 O118 2.294 . S
In117 O119 2.326 . S
In117 O123 2.266 . S
In117 O124 2.326 . S
In117 O125 2.266 . S
In117 O126 2.326 . S
In117 O128 2.294 . S
In117 O129 2.326 . S
O118 In117 2.294 . S
O118 C127 1.240 . S
O119 In117 2.326 . S
O119 C127 1.252 . S
C120 O123 1.252 . S
C120 O124 1.260 . S
C121 O128 1.240 . S
C121 O129 1.252 . S
C122 O125 1.252 . S
C122 O126 1.260 . S
O123 In117 2.266 . S
O123 C120 1.252 . S
O124 In117 2.326 . S
O124 C120 1.260 . S
O125 In117 2.266 . S
O125 C122 1.252 . S
O126 In117 2.326 . S
O126 C122 1.260 . S
C127 O118 1.240 . S
C127 O119 1.252 . S
O128 In117 2.294 . S
O128 C121 1.240 . S
O129 In117 2.326 . S
O129 C121 1.252 . S
In130 O131 2.294 . S
In130 O132 2.326 . S
In130 O136 2.266 . S
In130 O137 2.326 . S
In130 O138 2.266 . S
In130 O139 2.326 . S
In130 O141 2.294 . S
In130 O142 2.326 . S
O131 In130 2.294 . S
O131 C140 1.240 . S
O132 In130 2.326 . S
O132 C140 1.252 . S
C133 O136 1.252 . S
C133 O137 1.260 . S
C134 O141 1.240 . S
C134 O142 1.252 . S
C135 O138 1.252 . S
C135 O139 1.260 . S
O136 In130 2.266 . S
O136 C133 1.252 . S
O137 In130 2.326 . S
O137 C133 1.260 . S
O138 In130 2.266 . S
O138 C135 1.252 . S
O139 In130 2.326 . S
O139 C135 1.260 . S
C140 O131 1.240 . S
C140 O132 1.252 . S
O141 In130 2.294 . S
O141 C134 1.240 . S
O142 In130 2.326 . S
O142 C134 1.252 . S
In143 O144 2.294 . S
In143 O145 2.326 . S
In143 O149 2.266 . S
In143 O150 2.326 . S
In143 O151 2.266 . S
In143 O152 2.326 . S
In143 O154 2.294 . S
In143 O155 2.326 . S
O144 In143 2.294 . S
O144 C153 1.240 . S
O145 In143 2.326 . S
O145 C153 1.252 . S
C146 O149 1.252 . S
C146 O150 1.260 . S
C147 O154 1.240 . S
C147 O155 1.252 . S
C148 O151 1.252 . S
C148 O152 1.260 . S
O149 In143 2.266 . S
O149 C146 1.252 . S
O150 In143 2.326 . S
O150 C146 1.260 . S
O151 In143 2.266 . S
O151 C148 1.252 . S
O152 In143 2.326 . S
O152 C148 1.260 . S
C153 O144 1.240 . S
C153 O145 1.252 . S
O154 In143 2.294 . S
O154 C147 1.240 . S
O155 In143 2.326 . S
O155 C147 1.252 . S
In156 O157 2.294 . S
In156 O158 2.326 . S
In156 O162 2.266 . S
In156 O163 2.326 . S
In156 O164 2.266 . S
In156 O165 2.326 . S
In156 O167 2.294 . S
In156 O168 2.326 . S
O157 In156 2.294 . S
O157 C166 1.240 . S
O158 In156 2.326 . S
O158 C166 1.252 . S
C159 O162 1.252 . S
C159 O163 1.260 . S
C160 O167 1.240 . S
C160 O168 1.252 . S
C161 O164 1.252 . S
C161 O165 1.260 . S
O162 In156 2.266 . S
O162 C159 1.252 . S
O163 In156 2.326 . S
O163 C159 1.260 . S
O164 In156 2.266 . S
O164 C161 1.252 . S
O165 In156 2.326 . S
O165 C161 1.260 . S
C166 O157 1.240 . S
C166 O158 1.252 . S
O167 In156 2.294 . S
O167 C160 1.240 . S
O168 In156 2.326 . S
O168 C160 1.252 . S
In169 O170 2.294 . S
In169 O171 2.326 . S
In169 O175 2.266 . S
In169 O176 2.326 . S
In169 O177 2.266 . S
In169 O178 2.326 . S
In169 O180 2.294 . S
In169 O181 2.326 . S
O170 In169 2.294 . S
O170 C179 1.240 . S
O171 In169 2.326 . S
O171 C179 1.252 . S
C172 O175 1.252 . S
C172 O176 1.260 . S
C173 O180 1.240 . S
C173 O181 1.252 . S
C174 O177 1.252 . S
C174 O178 1.260 . S
O175 In169 2.266 . S
O175 C172 1.252 . S
O176 In169 2.326 . S
O176 C172 1.260 . S
O177 In169 2.266 . S
O177 C174 1.252 . S
O178 In169 2.326 . S
O178 C174 1.260 . S
C179 O170 1.240 . S
C179 O171 1.252 . S
O180 In169 2.294 . S
O180 C173 1.240 . S
O181 In169 2.326 . S
O181 C173 1.252 . S
In182 O183 2.294 . S
In182 O184 2.326 . S
In182 O188 2.266 . S
In182 O189 2.326 . S
In182 O190 2.266 . S
In182 O191 2.326 . S
In182 O193 2.294 . S
In182 O194 2.326 . S
O183 In182 2.294 . S
O183 C192 1.240 . S
O184 In182 2.326 . S
O184 C192 1.252 . S
C185 O188 1.252 . S
C185 O189 1.260 . S
C186 O193 1.240 . S
C186 O194 1.252 . S
C187 O190 1.252 . S
C187 O191 1.260 . S
O188 In182 2.266 . S
O188 C185 1.252 . S
O189 In182 2.326 . S
O189 C185 1.260 . S
O190 In182 2.266 . S
O190 C187 1.252 . S
O191 In182 2.326 . S
O191 C187 1.260 . S
C192 O183 1.240 . S
C192 O184 1.252 . S
O193 In182 2.294 . S
O193 C186 1.240 . S
O194 In182 2.326 . S
O194 C186 1.252 . S
In195 O196 2.294 . S
In195 O197 2.326 . S
In195 O201 2.266 . S
In195 O202 2.326 . S
In195 O203 2.266 . S
In195 O204 2.326 . S
In195 O206 2.294 1_554 S
In195 O207 2.326 . S
O196 In195 2.294 . S
O196 C205 1.240 . S
O197 In195 2.326 . S
O197 C205 1.252 . S
C198 O201 1.252 . S
C198 O202 1.260 . S
C199 O206 1.240 . S
C199 O207 1.252 1_556 S
C200 O203 1.252 . S
C200 O204 1.260 . S
O201 In195 2.266 . S
O201 C198 1.252 . S
O202 In195 2.326 . S
O202 C198 1.260 . S
O203 In195 2.266 . S
O203 C200 1.252 . S
O204 In195 2.326 . S
O204 C200 1.260 . S
C205 O196 1.240 . S
C205 O197 1.252 . S
O206 In195 2.294 1_556 S
O206 C199 1.240 . S
O207 In195 2.326 . S
O207 C199 1.252 1_554 S
In208 O209 2.294 1_554 S
In208 O210 2.326 . S
In208 O214 2.266 . S
In208 O215 2.326 . S
In208 O216 2.266 . S
In208 O217 2.326 . S
In208 O219 2.294 . S
In208 O220 2.326 . S
O209 In208 2.294 1_556 S
O209 C218 1.240 . S
O210 In208 2.326 . S
O210 C218 1.252 1_554 S
C211 O214 1.252 . S
C211 O215 1.260 . S
C212 O219 1.240 . S
C212 O220 1.252 . S
C213 O216 1.252 . S
C213 O217 1.260 . S
O214 In208 2.266 . S
O214 C211 1.252 . S
O215 In208 2.326 . S
O215 C211 1.260 . S
O216 In208 2.266 . S
O216 C213 1.252 . S
O217 In208 2.326 . S
O217 C213 1.260 . S
C218 O209 1.240 . S
C218 O210 1.252 1_556 S
O219 In208 2.294 . S
O219 C212 1.240 . S
O220 In208 2.326 . S
O220 C212 1.252 . S
In221 O222 2.294 . S
In221 O223 2.326 . S
In221 O227 2.266 . S
In221 O228 2.326 . S
In221 O229 2.266 . S
In221 O230 2.326 . S
In221 O232 2.294 1_554 S
In221 O233 2.326 . S
O222 In221 2.294 . S
O222 C231 1.240 . S
O223 In221 2.326 . S
O223 C231 1.252 . S
C224 O227 1.252 . S
C224 O228 1.260 . S
C225 O232 1.240 . S
C225 O233 1.252 1_556 S
C226 O229 1.252 . S
C226 O230 1.260 . S
O227 In221 2.266 . S
O227 C224 1.252 . S
O228 In221 2.326 . S
O228 C224 1.260 . S
O229 In221 2.266 . S
O229 C226 1.252 . S
O230 In221 2.326 . S
O230 C226 1.260 . S
C231 O222 1.240 . S
C231 O223 1.252 . S
O232 In221 2.294 1_556 S
O232 C225 1.240 . S
O233 In221 2.326 . S
O233 C225 1.252 1_554 S
In234 O235 2.294 1_554 S
In234 O236 2.326 . S
In234 O240 2.266 . S
In234 O241 2.326 . S
In234 O242 2.266 . S
In234 O243 2.326 . S
In234 O245 2.294 . S
In234 O246 2.326 . S
O235 In234 2.294 1_556 S
O235 C244 1.240 . S
O236 In234 2.326 . S
O236 C244 1.252 1_554 S
C237 O240 1.252 . S
C237 O241 1.260 . S
C238 O245 1.240 . S
C238 O246 1.252 . S
C239 O242 1.252 . S
C239 O243 1.260 . S
O240 In234 2.266 . S
O240 C237 1.252 . S
O241 In234 2.326 . S
O241 C237 1.260 . S
O242 In234 2.266 . S
O242 C239 1.252 . S
O243 In234 2.326 . S
O243 C239 1.260 . S
C244 O235 1.240 . S
C244 O236 1.252 1_556 S
O245 In234 2.294 . S
O245 C238 1.240 . S
O246 In234 2.326 . S
O246 C238 1.252 . S
In247 O248 2.294 1_554 S
In247 O249 2.326 . S
In247 O253 2.266 . S
In247 O254 2.326 . S
In247 O255 2.266 . S
In247 O256 2.326 . S
In247 O258 2.294 . S
In247 O259 2.326 . S
O248 In247 2.294 1_556 S
O248 C257 1.240 . S
O249 In247 2.326 . S
O249 C257 1.252 1_554 S
C250 O253 1.252 . S
C250 O254 1.260 . S
C251 O258 1.240 . S
C251 O259 1.252 . S
C252 O255 1.252 . S
C252 O256 1.260 . S
O253 In247 2.266 . S
O253 C250 1.252 . S
O254 In247 2.326 . S
O254 C250 1.260 . S
O255 In247 2.266 . S
O255 C252 1.252 . S
O256 In247 2.326 . S
O256 C252 1.260 . S
C257 O248 1.240 . S
C257 O249 1.252 1_556 S
O258 In247 2.294 . S
O258 C251 1.240 . S
O259 In247 2.326 . S
O259 C251 1.252 . S
In260 O261 2.294 . S
In260 O262 2.326 . S
In260 O266 2.266 . S
In260 O267 2.326 . S
In260 O268 2.266 . S
In260 O269 2.326 . S
In260 O271 2.294 1_554 S
In260 O272 2.326 . S
O261 In260 2.294 . S
O261 C270 1.240 . S
O262 In260 2.326 . S
O262 C270 1.252 . S
C263 O266 1.252 . S
C263 O267 1.260 . S
C264 O271 1.240 . S
C264 O272 1.252 1_556 S
C265 O268 1.252 . S
C265 O269 1.260 . S
O266 In260 2.266 . S
O266 C263 1.252 . S
O267 In260 2.326 . S
O267 C263 1.260 . S
O268 In260 2.266 . S
O268 C265 1.252 . S
O269 In260 2.326 . S
O269 C265 1.260 . S
C270 O261 1.240 . S
C270 O262 1.252 . S
O271 In260 2.294 1_556 S
O271 C264 1.240 . S
O272 In260 2.326 . S
O272 C264 1.252 1_554 S
In273 O274 2.294 . S
In273 O275 2.326 . S
In273 O279 2.266 . S
In273 O280 2.326 . S
In273 O281 2.266 . S
In273 O282 2.326 . S
In273 O284 2.294 . S
In273 O285 2.326 . S
O274 In273 2.294 . S
O274 C283 1.240 . S
O275 In273 2.326 . S
O275 C283 1.252 . S
C276 O279 1.252 . S
C276 O280 1.260 . S
C277 O284 1.240 . S
C277 O285 1.252 . S
C278 O281 1.252 . S
C278 O282 1.260 . S
O279 In273 2.266 . S
O279 C276 1.252 . S
O280 In273 2.326 . S
O280 C276 1.260 . S
O281 In273 2.266 . S
O281 C278 1.252 . S
O282 In273 2.326 . S
O282 C278 1.260 . S
C283 O274 1.240 . S
C283 O275 1.252 . S
O284 In273 2.294 . S
O284 C277 1.240 . S
O285 In273 2.326 . S
O285 C277 1.252 . S
In286 O287 2.294 . S
In286 O288 2.326 . S
In286 O292 2.266 . S
In286 O293 2.326 . S
In286 O294 2.266 . S
In286 O295 2.326 . S
In286 O297 2.294 . S
In286 O298 2.326 . S
O287 In286 2.294 . S
O287 C296 1.240 . S
O288 In286 2.326 . S
O288 C296 1.252 . S
C289 O292 1.252 . S
C289 O293 1.260 . S
C290 O297 1.240 . S
C290 O298 1.252 . S
C291 O294 1.252 . S
C291 O295 1.260 . S
O292 In286 2.266 . S
O292 C289 1.252 . S
O293 In286 2.326 . S
O293 C289 1.260 . S
O294 In286 2.266 . S
O294 C291 1.252 . S
O295 In286 2.326 . S
O295 C291 1.260 . S
C296 O287 1.240 . S
C296 O288 1.252 . S
O297 In286 2.294 . S
O297 C290 1.240 . S
O298 In286 2.326 . S
O298 C290 1.252 . S
In299 O300 2.294 . S
In299 O301 2.326 . S
In299 O305 2.266 . S
In299 O306 2.326 . S
In299 O307 2.266 . S
In299 O308 2.326 . S
In299 O310 2.294 . S
In299 O311 2.326 . S
O300 In299 2.294 . S
O300 C309 1.240 . S
O301 In299 2.326 . S
O301 C309 1.252 . S
C302 O305 1.252 . S
C302 O306 1.260 . S
C303 O310 1.240 . S
C303 O311 1.252 . S
C304 O307 1.252 . S
C304 O308 1.260 . S
O305 In299 2.266 . S
O305 C302 1.252 . S
O306 In299 2.326 . S
O306 C302 1.260 . S
O307 In299 2.266 . S
O307 C304 1.252 . S
O308 In299 2.326 . S
O308 C304 1.260 . S
C309 O300 1.240 . S
C309 O301 1.252 . S
O310 In299 2.294 . S
O310 C303 1.240 . S
O311 In299 2.326 . S
O311 C303 1.252 . S
In312 O313 2.294 . S
In312 O314 2.326 . S
In312 O318 2.266 . S
In312 O319 2.326 . S
In312 O320 2.266 . S
In312 O321 2.326 . S
In312 O323 2.294 1_556 S
In312 O324 2.326 . S
O313 In312 2.294 . S
O313 C322 1.240 . S
O314 In312 2.326 . S
O314 C322 1.252 . S
C315 O318 1.252 . S
C315 O319 1.260 . S
C316 O323 1.240 . S
C316 O324 1.252 1_554 S
C317 O320 1.252 . S
C317 O321 1.260 . S
O318 In312 2.266 . S
O318 C315 1.252 . S
O319 In312 2.326 . S
O319 C315 1.260 . S
O320 In312 2.266 . S
O320 C317 1.252 . S
O321 In312 2.326 . S
O321 C317 1.260 . S
C322 O313 1.240 . S
C322 O314 1.252 . S
O323 In312 2.294 1_554 S
O323 C316 1.240 . S
O324 In312 2.326 . S
O324 C316 1.252 1_556 S
In325 O326 2.294 1_556 S
In325 O327 2.326 . S
In325 O331 2.266 . S
In325 O332 2.326 . S
In325 O333 2.266 . S
In325 O334 2.326 . S
In325 O336 2.294 . S
In325 O337 2.326 . S
O326 In325 2.294 1_554 S
O326 C335 1.240 . S
O327 In325 2.326 . S
O327 C335 1.252 1_556 S
C328 O331 1.252 . S
C328 O332 1.260 . S
C329 O336 1.240 . S
C329 O337 1.252 . S
C330 O333 1.252 . S
C330 O334 1.260 . S
O331 In325 2.266 . S
O331 C328 1.252 . S
O332 In325 2.326 . S
O332 C328 1.260 . S
O333 In325 2.266 . S
O333 C330 1.252 . S
O334 In325 2.326 . S
O334 C330 1.260 . S
C335 O326 1.240 . S
C335 O327 1.252 1_554 S
O336 In325 2.294 . S
O336 C329 1.240 . S
O337 In325 2.326 . S
O337 C329 1.252 . S
In338 O339 2.294 1_556 S
In338 O340 2.326 . S
In338 O344 2.266 . S
In338 O345 2.326 . S
In338 O346 2.266 . S
In338 O347 2.326 . S
In338 O349 2.294 . S
In338 O350 2.326 . S
O339 In338 2.294 1_554 S
O339 C348 1.240 . S
O340 In338 2.326 . S
O340 C348 1.252 1_556 S
C341 O344 1.252 . S
C341 O345 1.260 . S
C342 O349 1.240 . S
C342 O350 1.252 . S
C343 O346 1.252 . S
C343 O347 1.260 . S
O344 In338 2.266 . S
O344 C341 1.252 . S
O345 In338 2.326 . S
O345 C341 1.260 . S
O346 In338 2.266 . S
O346 C343 1.252 . S
O347 In338 2.326 . S
O347 C343 1.260 . S
C348 O339 1.240 . S
C348 O340 1.252 1_554 S
O349 In338 2.294 . S
O349 C342 1.240 . S
O350 In338 2.326 . S
O350 C342 1.252 . S
In351 O352 2.294 . S
In351 O353 2.326 . S
In351 O357 2.266 . S
In351 O358 2.326 . S
In351 O359 2.266 . S
In351 O360 2.326 . S
In351 O362 2.294 . S
In351 O363 2.326 . S
O352 In351 2.294 . S
O352 C361 1.240 . S
O353 In351 2.326 . S
O353 C361 1.252 . S
C354 O357 1.252 . S
C354 O358 1.260 . S
C355 O362 1.240 . S
C355 O363 1.252 . S
C356 O359 1.252 . S
C356 O360 1.260 . S
O357 In351 2.266 . S
O357 C354 1.252 . S
O358 In351 2.326 . S
O358 C354 1.260 . S
O359 In351 2.266 . S
O359 C356 1.252 . S
O360 In351 2.326 . S
O360 C356 1.260 . S
C361 O352 1.240 . S
C361 O353 1.252 . S
O362 In351 2.294 . S
O362 C355 1.240 . S
O363 In351 2.326 . S
O363 C355 1.252 . S
In364 O365 2.294 . S
In364 O366 2.326 . S
In364 O370 2.266 . S
In364 O371 2.326 . S
In364 O372 2.266 . S
In364 O373 2.326 . S
In364 O375 2.294 . S
In364 O376 2.326 . S
O365 In364 2.294 . S
O365 C374 1.240 . S
O366 In364 2.326 . S
O366 C374 1.252 . S
C367 O370 1.252 . S
C367 O371 1.260 . S
C368 O375 1.240 . S
C368 O376 1.252 . S
C369 O372 1.252 . S
C369 O373 1.260 . S
O370 In364 2.266 . S
O370 C367 1.252 . S
O371 In364 2.326 . S
O371 C367 1.260 . S
O372 In364 2.266 . S
O372 C369 1.252 . S
O373 In364 2.326 . S
O373 C369 1.260 . S
C374 O365 1.240 . S
C374 O366 1.252 . S
O375 In364 2.294 . S
O375 C368 1.240 . S
O376 In364 2.326 . S
O376 C368 1.252 . S
In377 O378 2.294 . S
In377 O379 2.326 . S
In377 O383 2.266 . S
In377 O384 2.326 . S
In377 O385 2.266 . S
In377 O386 2.326 . S
In377 O388 2.294 . S
In377 O389 2.326 . S
O378 In377 2.294 . S
O378 C387 1.240 . S
O379 In377 2.326 . S
O379 C387 1.252 . S
C380 O383 1.252 . S
C380 O384 1.260 . S
C381 O388 1.240 . S
C381 O389 1.252 . S
C382 O385 1.252 . S
C382 O386 1.260 . S
O383 In377 2.266 . S
O383 C380 1.252 . S
O384 In377 2.326 . S
O384 C380 1.260 . S
O385 In377 2.266 . S
O385 C382 1.252 . S
O386 In377 2.326 . S
O386 C382 1.260 . S
C387 O378 1.240 . S
C387 O379 1.252 . S
O388 In377 2.294 . S
O388 C381 1.240 . S
O389 In377 2.326 . S
O389 C381 1.252 . S
In390 O391 2.294 . S
In390 O392 2.326 . S
In390 O396 2.266 . S
In390 O397 2.326 . S
In390 O398 2.266 . S
In390 O399 2.326 . S
In390 O401 2.294 . S
In390 O402 2.326 . S
O391 In390 2.294 . S
O391 C400 1.240 . S
O392 In390 2.326 . S
O392 C400 1.252 . S
C393 O396 1.252 . S
C393 O397 1.260 . S
C394 O401 1.240 . S
C394 O402 1.252 . S
C395 O398 1.252 . S
C395 O399 1.260 . S
O396 In390 2.266 . S
O396 C393 1.252 . S
O397 In390 2.326 . S
O397 C393 1.260 . S
O398 In390 2.266 . S
O398 C395 1.252 . S
O399 In390 2.326 . S
O399 C395 1.260 . S
C400 O391 1.240 . S
C400 O392 1.252 . S
O401 In390 2.294 . S
O401 C394 1.240 . S
O402 In390 2.326 . S
O402 C394 1.252 . S
In403 O404 2.294 . S
In403 O405 2.326 . S
In403 O409 2.266 . S
In403 O410 2.326 . S
In403 O411 2.266 . S
In403 O412 2.326 . S
In403 O414 2.294 . S
In403 O415 2.326 . S
O404 In403 2.294 . S
O404 C413 1.240 . S
O405 In403 2.326 . S
O405 C413 1.252 . S
C406 O409 1.252 . S
C406 O410 1.260 . S
C407 O414 1.240 . S
C407 O415 1.252 . S
C408 O411 1.252 . S
C408 O412 1.260 . S
O409 In403 2.266 . S
O409 C406 1.252 . S
O410 In403 2.326 . S
O410 C406 1.260 . S
O411 In403 2.266 . S
O411 C408 1.252 . S
O412 In403 2.326 . S
O412 C408 1.260 . S
C413 O404 1.240 . S
C413 O405 1.252 . S
O414 In403 2.294 . S
O414 C407 1.240 . S
O415 In403 2.326 . S
O415 C407 1.252 . S
In416 O417 2.294 . S
In416 O418 2.326 . S
In416 O422 2.266 . S
In416 O423 2.326 . S
In416 O424 2.266 . S
In416 O425 2.326 . S
In416 O427 2.294 . S
In416 O428 2.326 . S
O417 In416 2.294 . S
O417 C426 1.240 . S
O418 In416 2.326 . S
O418 C426 1.252 . S
C419 O422 1.252 . S
C419 O423 1.260 . S
C420 O427 1.240 . S
C420 O428 1.252 . S
C421 O424 1.252 . S
C421 O425 1.260 . S
O422 In416 2.266 . S
O422 C419 1.252 . S
O423 In416 2.326 . S
O423 C419 1.260 . S
O424 In416 2.266 . S
O424 C421 1.252 . S
O425 In416 2.326 . S
O425 C421 1.260 . S
C426 O417 1.240 . S
C426 O418 1.252 . S
O427 In416 2.294 . S
O427 C420 1.240 . S
O428 In416 2.326 . S
O428 C420 1.252 . S
In429 O430 2.294 1_556 S
In429 O431 2.326 . S
In429 O435 2.266 . S
In429 O436 2.326 . S
In429 O437 2.266 . S
In429 O438 2.326 . S
In429 O440 2.294 . S
In429 O441 2.326 . S
O430 In429 2.294 1_554 S
O430 C439 1.240 . S
O431 In429 2.326 . S
O431 C439 1.252 1_556 S
C432 O435 1.252 . S
C432 O436 1.260 . S
C433 O440 1.240 . S
C433 O441 1.252 . S
C434 O437 1.252 . S
C434 O438 1.260 . S
O435 In429 2.266 . S
O435 C432 1.252 . S
O436 In429 2.326 . S
O436 C432 1.260 . S
O437 In429 2.266 . S
O437 C434 1.252 . S
O438 In429 2.326 . S
O438 C434 1.260 . S
C439 O430 1.240 . S
C439 O431 1.252 1_554 S
O440 In429 2.294 . S
O440 C433 1.240 . S
O441 In429 2.326 . S
O441 C433 1.252 . S
In442 O443 2.294 . S
In442 O444 2.326 . S
In442 O448 2.266 . S
In442 O449 2.326 . S
In442 O450 2.266 . S
In442 O451 2.326 . S
In442 O453 2.294 1_556 S
In442 O454 2.326 . S
O443 In442 2.294 . S
O443 C452 1.240 . S
O444 In442 2.326 . S
O444 C452 1.252 . S
C445 O448 1.252 . S
C445 O449 1.260 . S
C446 O453 1.240 . S
C446 O454 1.252 1_554 S
C447 O450 1.252 . S
C447 O451 1.260 . S
O448 In442 2.266 . S
O448 C445 1.252 . S
O449 In442 2.326 . S
O449 C445 1.260 . S
O450 In442 2.266 . S
O450 C447 1.252 . S
O451 In442 2.326 . S
O451 C447 1.260 . S
C452 O443 1.240 . S
C452 O444 1.252 . S
O453 In442 2.294 1_554 S
O453 C446 1.240 . S
O454 In442 2.326 . S
O454 C446 1.252 1_556 S
In455 O456 2.294 1_556 S
In455 O457 2.326 . S
In455 O461 2.266 . S
In455 O462 2.326 . S
In455 O463 2.266 . S
In455 O464 2.326 . S
In455 O466 2.294 . S
In455 O467 2.326 . S
O456 In455 2.294 1_554 S
O456 C465 1.240 . S
O457 In455 2.326 . S
O457 C465 1.252 1_556 S
C458 O461 1.252 . S
C458 O462 1.260 . S
C459 O466 1.240 . S
C459 O467 1.252 . S
C460 O463 1.252 . S
C460 O464 1.260 . S
O461 In455 2.266 . S
O461 C458 1.252 . S
O462 In455 2.326 . S
O462 C458 1.260 . S
O463 In455 2.266 . S
O463 C460 1.252 . S
O464 In455 2.326 . S
O464 C460 1.260 . S
C465 O456 1.240 . S
C465 O457 1.252 1_554 S
O466 In455 2.294 . S
O466 C459 1.240 . S
O467 In455 2.326 . S
O467 C459 1.252 . S
C468 C469 1.363 1_545 S
C468 C474 1.379 . S
C468 N476 1.342 1_545 S
C469 C468 1.363 1_565 S
C469 C475 1.363 . S
C470 C471 1.363 1_565 S
C470 C475 1.379 . S
C470 N477 1.342 1_565 S
C471 C470 1.363 1_545 S
C471 C474 1.363 . S
N472 C474 1.356 . S
N472 H484 0.984 . S
N472 H485 0.985 . S
N473 C475 1.356 . S
N473 H478 0.984 . S
N473 H479 0.985 . S
C474 C468 1.379 . S
C474 C471 1.363 . S
C474 N472 1.356 . S
C475 C469 1.363 . S
C475 C470 1.379 . S
C475 N473 1.356 . S
N476 C468 1.342 1_565 S
N476 H482 0.954 1_565 S
N476 H483 1.033 . S
N477 C470 1.342 1_545 S
N477 H480 1.033 . S
N477 H481 0.954 1_545 S
H478 N473 0.984 . S
H479 N473 0.985 . S
H480 N477 1.033 . S
H481 N477 0.954 1_565 S
H482 N476 0.954 1_545 S
H483 N476 1.033 . S
H484 N472 0.984 . S
H485 N472 0.985 . S
C486 C487 1.363 . S
C486 C492 1.379 . S
C486 N494 1.356 . S
C487 C486 1.363 . S
C487 C493 1.363 1_455 S
C488 C489 1.363 . S
C488 C493 1.379 . S
C488 N495 1.356 . S
C489 C488 1.363 . S
C489 C492 1.363 1_655 S
N490 C492 1.354 1_655 S
N490 H502 0.956 1_655 S
N490 H503 1.016 . S
N491 C493 1.355 1_455 S
N491 H496 1.015 . S
N491 H497 0.956 1_455 S
C492 C486 1.379 . S
C492 C489 1.363 1_455 S
C492 N490 1.354 1_455 S
C493 C487 1.363 1_655 S
C493 C488 1.379 . S
C493 N491 1.355 1_655 S
N494 C486 1.356 . S
N494 H500 0.984 . S
N494 H501 0.984 . S
N495 C488 1.356 . S
N495 H498 0.984 . S
N495 H499 0.985 . S
H496 N491 1.015 . S
H497 N491 0.956 1_655 S
H498 N495 0.984 . S
H499 N495 0.985 . S
H500 N494 0.984 . S
H501 N494 0.984 . S
H502 N490 0.956 1_455 S
H503 N490 1.016 . S
C504 C505 1.363 . S
C504 C510 1.379 . S
C504 N512 1.356 . S
C505 C504 1.363 . S
C505 C511 1.363 . S
C506 C507 1.363 . S
C506 C511 1.379 . S
C506 N513 1.356 . S
C507 C506 1.363 . S
C507 C510 1.363 . S
N508 C510 1.356 . S
N508 H520 0.984 . S
N508 H521 0.985 . S
N509 C511 1.356 . S
N509 H514 0.984 . S
N509 H515 0.985 . S
C510 C504 1.379 . S
C510 C507 1.363 . S
C510 N508 1.356 . S
C511 C505 1.363 . S
C511 C506 1.379 . S
C511 N509 1.356 . S
N512 C504 1.356 . S
N512 H518 0.984 . S
N512 H519 0.984 . S
N513 C506 1.356 . S
N513 H516 0.984 . S
N513 H517 0.985 . S
H514 N509 0.984 . S
H515 N509 0.985 . S
H516 N513 0.984 . S
H517 N513 0.985 . S
H518 N512 0.984 . S
H519 N512 0.984 . S
H520 N508 0.984 . S
H521 N508 0.985 . S
C522 C523 1.363 . S
C522 C528 1.379 . S
C522 N530 1.356 . S
C523 C522 1.363 . S
C523 C529 1.363 1_565 S
C524 C525 1.363 . S
C524 C529 1.379 . S
C524 N531 1.356 . S
C525 C524 1.363 . S
C525 C528 1.363 1_545 S
N526 C528 1.355 1_545 S
N526 H538 0.929 1_545 S
N526 H539 1.045 . S
N527 C529 1.355 1_565 S
N527 H532 1.045 . S
N527 H533 0.929 1_565 S
C528 C522 1.379 . S
C528 C525 1.363 1_565 S
C528 N526 1.355 1_565 S
C529 C523 1.363 1_545 S
C529 C524 1.379 . S
C529 N527 1.355 1_545 S
N530 C522 1.356 . S
N530 H536 0.984 . S
N530 H537 0.984 . S
N531 C524 1.356 . S
N531 H534 0.984 . S
N531 H535 0.985 . S
H532 N527 1.045 . S
H533 N527 0.929 1_545 S
H534 N531 0.984 . S
H535 N531 0.985 . S
H536 N530 0.984 . S
H537 N530 0.984 . S
H538 N526 0.929 1_565 S
H539 N526 1.045 . S
C540 C541 1.363 . S
C540 C546 1.379 1_455 S
C540 N548 1.356 . S
C541 C540 1.363 . S
C541 C547 1.363 . S
C542 C543 1.363 . S
C542 C547 1.379 1_655 S
C542 N549 1.356 . S
C543 C542 1.363 . S
C543 C546 1.363 . S
N544 C546 1.356 . S
N544 H556 0.984 . S
N544 H557 0.985 . S
N545 C547 1.356 . S
N545 H550 0.984 . S
N545 H551 0.985 . S
C546 C540 1.379 1_655 S
C546 C543 1.363 . S
C546 N544 1.356 . S
C547 C541 1.363 . S
C547 C542 1.379 1_455 S
C547 N545 1.356 . S
N548 C540 1.356 . S
N548 H554 0.984 . S
N548 H555 0.984 . S
N549 C542 1.356 . S
N549 H552 0.984 . S
N549 H553 0.985 . S
H550 N545 0.984 . S
H551 N545 0.985 . S
H552 N549 0.984 . S
H553 N549 0.985 . S
H554 N548 0.984 . S
H555 N548 0.984 . S
H556 N544 0.984 . S
H557 N544 0.985 . S
C558 C559 1.363 . S
C558 C564 1.379 . S
C558 N566 1.356 . S
C559 C558 1.363 . S
C559 C565 1.363 . S
C560 C561 1.363 . S
C560 C565 1.379 . S
C560 N567 1.356 . S
C561 C560 1.363 . S
C561 C564 1.363 . S
N562 C564 1.356 . S
N562 H574 0.984 . S
N562 H575 0.985 . S
N563 C565 1.356 . S
N563 H568 0.984 . S
N563 H569 0.985 . S
C564 C558 1.379 . S
C564 C561 1.363 . S
C564 N562 1.356 . S
C565 C559 1.363 . S
C565 C560 1.379 . S
C565 N563 1.356 . S
N566 C558 1.356 . S
N566 H572 0.984 . S
N566 H573 0.984 . S
N567 C560 1.356 . S
N567 H570 0.984 . S
N567 H571 0.985 . S
H568 N563 0.984 . S
H569 N563 0.985 . S
H570 N567 0.984 . S
H571 N567 0.985 . S
H572 N566 0.984 . S
H573 N566 0.984 . S
H574 N562 0.984 . S
H575 N562 0.985 . S
C576 C577 1.363 . S
C576 C582 1.379 . S
C576 N584 1.356 . S
C577 C576 1.363 . S
C577 C583 1.363 . S
C578 C579 1.363 . S
C578 C583 1.379 . S
C578 N585 1.356 1_556 S
C579 C578 1.363 . S
C579 C582 1.363 . S
N580 C582 1.356 . S
N580 H592 0.984 . S
N580 H593 0.985 . S
N581 C583 1.356 . S
N581 H586 0.984 . S
N581 H587 0.985 . S
C582 C576 1.379 . S
C582 C579 1.363 . S
C582 N580 1.356 . S
C583 C577 1.363 . S
C583 C578 1.379 . S
C583 N581 1.356 . S
N584 C576 1.356 . S
N584 H590 0.984 . S
N584 H591 0.984 . S
N585 C578 1.356 1_554 S
N585 H588 0.984 . S
N585 H589 0.985 . S
H586 N581 0.984 . S
H587 N581 0.985 . S
H588 N585 0.984 . S
H589 N585 0.985 . S
H590 N584 0.984 . S
H591 N584 0.984 . S
H592 N580 0.984 . S
H593 N580 0.985 . S
C594 C595 1.363 . S
C594 C600 1.379 . S
C594 N602 1.356 . S
C595 C594 1.363 . S
C595 C601 1.363 . S
C596 C597 1.363 . S
C596 C601 1.379 . S
C596 N603 1.356 . S
C597 C596 1.363 . S
C597 C600 1.363 . S
N598 C600 1.356 . S
N598 H610 0.984 . S
N598 H611 0.985 . S
N599 C601 1.356 . S
N599 H604 0.984 . S
N599 H605 0.985 . S
C600 C594 1.379 . S
C600 C597 1.363 . S
C600 N598 1.356 . S
C601 C595 1.363 . S
C601 C596 1.379 . S
C601 N599 1.356 . S
N602 C594 1.356 . S
N602 H608 0.984 . S
N602 H609 0.984 . S
N603 C596 1.356 . S
N603 H606 0.984 1_556 S
N603 H607 0.985 1_556 S
H604 N599 0.984 . S
H605 N599 0.985 . S
H606 N603 0.984 1_554 S
H607 N603 0.985 1_554 S
H608 N602 0.984 . S
H609 N602 0.984 . S
H610 N598 0.984 . S
H611 N598 0.985 . S
C612 C613 1.363 . S
C612 C618 1.379 . S
C612 N620 1.356 . S
C613 C612 1.363 . S
C613 C619 1.363 . S
C614 C615 1.363 . S
C614 C619 1.379 . S
C614 N621 1.356 . S
C615 C614 1.363 . S
C615 C618 1.363 . S
N616 C618 1.356 . S
N616 H628 0.984 . S
N616 H629 0.985 . S
N617 C619 1.356 . S
N617 H622 0.984 . S
N617 H623 0.985 . S
C618 C612 1.379 . S
C618 C615 1.363 . S
C618 N616 1.356 . S
C619 C613 1.363 . S
C619 C614 1.379 . S
C619 N617 1.356 . S
N620 C612 1.356 . S
N620 H626 0.984 . S
N620 H627 0.984 . S
N621 C614 1.356 . S
N621 H624 0.984 . S
N621 H625 0.985 . S
H622 N617 0.984 . S
H623 N617 0.985 . S
H624 N621 0.984 . S
H625 N621 0.985 . S
H626 N620 0.984 . S
H627 N620 0.984 . S
H628 N616 0.984 . S
H629 N616 0.985 . S
C630 C631 1.363 . S
C630 C636 1.379 . S
C630 N638 1.356 . S
C631 C630 1.363 . S
C631 C637 1.363 . S
C632 C633 1.363 . S
C632 C637 1.379 . S
C632 N639 1.356 . S
C633 C632 1.363 . S
C633 C636 1.363 . S
N634 C636 1.356 . S
N634 H646 0.984 . S
N634 H647 0.985 . S
N635 C637 1.356 . S
N635 H640 0.984 . S
N635 H641 0.985 . S
C636 C630 1.379 . S
C636 C633 1.363 . S
C636 N634 1.356 . S
C637 C631 1.363 . S
C637 C632 1.379 . S
C637 N635 1.356 . S
N638 C630 1.356 . S
N638 H644 0.984 . S
N638 H645 0.984 . S
N639 C632 1.356 . S
N639 H642 0.984 . S
N639 H643 0.985 . S
H640 N635 0.984 . S
H641 N635 0.985 . S
H642 N639 0.984 . S
H643 N639 0.985 . S
H644 N638 0.984 . S
H645 N638 0.984 . S
H646 N634 0.984 . S
H647 N634 0.985 . S
C648 C649 1.363 . S
C648 C654 1.379 . S
C648 N656 1.356 . S
C649 C648 1.363 . S
C649 C655 1.363 . S
C650 C651 1.363 . S
C650 C655 1.379 . S
C650 N657 1.356 . S
C651 C650 1.363 . S
C651 C654 1.363 . S
N652 C654 1.356 . S
N652 H664 0.984 . S
N652 H665 0.985 . S
N653 C655 1.356 . S
N653 H658 0.984 . S
N653 H659 0.985 . S
C654 C648 1.379 . S
C654 C651 1.363 . S
C654 N652 1.356 . S
C655 C649 1.363 . S
C655 C650 1.379 . S
C655 N653 1.356 . S
N656 C648 1.356 . S
N656 H662 0.984 . S
N656 H663 0.984 . S
N657 C650 1.356 . S
N657 H660 0.984 . S
N657 H661 0.985 . S
H658 N653 0.984 . S
H659 N653 0.985 . S
H660 N657 0.984 . S
H661 N657 0.985 . S
H662 N656 0.984 . S
H663 N656 0.984 . S
H664 N652 0.984 . S
H665 N652 0.985 . S
C666 C667 1.363 . S
C666 C672 1.379 . S
C666 N674 1.356 . S
C667 C666 1.363 . S
C667 C673 1.363 . S
C668 C669 1.363 . S
C668 C673 1.379 . S
C668 N675 1.356 . S
C669 C668 1.363 . S
C669 C672 1.363 . S
N670 C672 1.356 1_554 S
N670 H682 0.984 . S
N670 H683 0.985 . S
N671 C673 1.356 . S
N671 H676 0.984 . S
N671 H677 0.985 . S
C672 C666 1.379 . S
C672 C669 1.363 . S
C672 N670 1.356 1_556 S
C673 C667 1.363 . S
C673 C668 1.379 . S
C673 N671 1.356 . S
N674 C666 1.356 . S
N674 H680 0.984 . S
N674 H681 0.984 . S
N675 C668 1.356 . S
N675 H678 0.984 . S
N675 H679 0.985 . S
H676 N671 0.984 . S
H677 N671 0.985 . S
H678 N675 0.984 . S
H679 N675 0.985 . S
H680 N674 0.984 . S
H681 N674 0.984 . S
H682 N670 0.984 . S
H683 N670 0.985 . S
C684 C685 1.363 . S
C684 C690 1.379 . S
C684 N692 1.356 . S
C685 C684 1.363 . S
C685 C691 1.363 . S
C686 C687 1.363 . S
C686 C691 1.379 . S
C686 N693 1.356 . S
C687 C686 1.363 . S
C687 C690 1.363 . S
N688 C690 1.356 . S
N688 H700 0.984 . S
N688 H701 0.985 . S
N689 C691 1.356 . S
N689 H694 0.984 . S
N689 H695 0.985 . S
C690 C684 1.379 . S
C690 C687 1.363 . S
C690 N688 1.356 . S
C691 C685 1.363 . S
C691 C686 1.379 . S
C691 N689 1.356 . S
N692 C684 1.356 . S
N692 H698 0.984 . S
N692 H699 0.984 . S
N693 C686 1.356 . S
N693 H696 0.984 . S
N693 H697 0.985 . S
H694 N689 0.984 . S
H695 N689 0.985 . S
H696 N693 0.984 . S
H697 N693 0.985 . S
H698 N692 0.984 . S
H699 N692 0.984 . S
H700 N688 0.984 . S
H701 N688 0.985 . S
C702 C703 1.363 . S
C702 C708 1.379 . S
C702 N710 1.356 . S
C703 C702 1.363 . S
C703 C709 1.363 . S
C704 C705 1.363 . S
C704 C709 1.379 . S
C704 N711 1.356 . S
C705 C704 1.363 . S
C705 C708 1.363 . S
N706 C708 1.356 . S
N706 H718 0.984 . S
N706 H719 0.985 . S
N707 C709 1.356 . S
N707 H712 0.984 . S
N707 H713 0.985 . S
C708 C702 1.379 . S
C708 C705 1.363 . S
C708 N706 1.356 . S
C709 C703 1.363 . S
C709 C704 1.379 . S
C709 N707 1.356 . S
N710 C702 1.356 . S
N710 H716 0.984 . S
N710 H717 0.984 . S
N711 C704 1.356 . S
N711 H714 0.984 . S
N711 H715 0.985 . S
H712 N707 0.984 . S
H713 N707 0.985 . S
H714 N711 0.984 . S
H715 N711 0.985 . S
H716 N710 0.984 . S
H717 N710 0.984 . S
H718 N706 0.984 . S
H719 N706 0.985 . S
C720 C721 1.363 . S
C720 C726 1.379 . S
C720 N728 1.356 . S
C721 C720 1.363 . S
C721 C727 1.363 . S
C722 C723 1.363 . S
C722 C727 1.379 . S
C722 N729 1.356 . S
C723 C722 1.363 . S
C723 C726 1.363 . S
N724 C726 1.356 1_556 S
N724 H736 0.984 . S
N724 H737 0.985 . S
N725 C727 1.356 . S
N725 H730 0.984 . S
N725 H731 0.985 . S
C726 C720 1.379 . S
C726 C723 1.363 . S
C726 N724 1.356 1_554 S
C727 C721 1.363 . S
C727 C722 1.379 . S
C727 N725 1.356 . S
N728 C720 1.356 . S
N728 H734 0.984 . S
N728 H735 0.984 . S
N729 C722 1.356 . S
N729 H732 0.984 . S
N729 H733 0.985 . S
H730 N725 0.984 . S
H731 N725 0.985 . S
H732 N729 0.984 . S
H733 N729 0.985 . S
H734 N728 0.984 . S
H735 N728 0.984 . S
H736 N724 0.984 . S
H737 N724 0.985 . S
C738 C739 1.363 . S
C738 C744 1.379 . S
C738 N746 1.356 . S
C739 C738 1.363 . S
C739 C745 1.363 . S
C740 C741 1.363 . S
C740 C745 1.379 . S
C740 N747 1.356 . S
C741 C740 1.363 . S
C741 C744 1.363 . S
N742 C744 1.356 . S
N742 H754 0.984 . S
N742 H755 0.985 . S
N743 C745 1.356 . S
N743 H748 0.984 . S
N743 H749 0.985 . S
C744 C738 1.379 . S
C744 C741 1.363 . S
C744 N742 1.356 . S
C745 C739 1.363 . S
C745 C740 1.379 . S
C745 N743 1.356 . S
N746 C738 1.356 . S
N746 H752 0.984 . S
N746 H753 0.984 . S
N747 C740 1.356 . S
N747 H750 0.984 1_554 S
N747 H751 0.986 . S
H748 N743 0.984 . S
H749 N743 0.985 . S
H750 N747 0.984 1_556 S
H751 N747 0.986 . S
H752 N746 0.984 . S
H753 N746 0.984 . S
H754 N742 0.984 . S
H755 N742 0.985 . S
C756 C757 1.363 . S
C756 C762 1.379 . S
C756 N764 1.356 . S
C757 C756 1.363 . S
C757 C763 1.363 . S
C758 C759 1.363 . S
C758 C763 1.379 . S
C758 N765 1.356 . S
C759 C758 1.363 . S
C759 C762 1.363 . S
N760 C762 1.356 1_556 S
N760 H772 0.984 . S
N760 H773 0.985 . S
N761 C763 1.356 . S
N761 H766 0.984 . S
N761 H767 0.985 . S
C762 C756 1.379 . S
C762 C759 1.363 . S
C762 N760 1.356 1_554 S
C763 C757 1.363 . S
C763 C758 1.379 . S
C763 N761 1.356 . S
N764 C756 1.356 . S
N764 H770 0.984 . S
N764 H771 0.984 . S
N765 C758 1.356 . S
N765 H768 0.984 . S
N765 H769 0.985 . S
H766 N761 0.984 . S
H767 N761 0.985 . S
H768 N765 0.984 . S
H769 N765 0.985 . S
H770 N764 0.984 . S
H771 N764 0.984 . S
H772 N760 0.984 . S
H773 N760 0.985 . S
C774 C775 1.363 . S
C774 C780 1.379 . S
C774 N782 1.356 . S
C775 C774 1.363 . S
C775 C781 1.363 . S
C776 C777 1.363 . S
C776 C781 1.379 . S
C776 N783 1.356 . S
C777 C776 1.363 . S
C777 C780 1.363 . S
N778 C780 1.356 . S
N778 H790 0.984 . S
N778 H791 0.985 . S
N779 C781 1.356 . S
N779 H784 0.984 . S
N779 H785 0.985 . S
C780 C774 1.379 . S
C780 C777 1.363 . S
C780 N778 1.356 . S
C781 C775 1.363 . S
C781 C776 1.379 . S
C781 N779 1.356 . S
N782 C774 1.356 . S
N782 H788 0.984 . S
N782 H789 0.984 . S
N783 C776 1.356 . S
N783 H786 0.984 . S
N783 H787 0.985 . S
H784 N779 0.984 . S
H785 N779 0.985 . S
H786 N783 0.984 . S
H787 N783 0.985 . S
H788 N782 0.984 . S
H789 N782 0.984 . S
H790 N778 0.984 . S
H791 N778 0.985 . S
C792 C793 1.363 1_545 S
C792 C798 1.375 1_556 S
C792 N800 1.368 . S
C793 C792 1.363 1_565 S
C793 C799 1.367 . S
C794 C795 1.363 1_565 S
C794 C799 1.375 1_554 S
C794 N801 1.368 . S
C795 C794 1.363 1_545 S
C795 C798 1.367 . S
N796 C798 1.358 . S
N796 H808 0.984 1_554 S
N796 H809 0.985 . S
N797 C799 1.358 . S
N797 H802 0.984 . S
N797 H803 0.985 1_556 S
C798 C792 1.375 1_554 S
C798 C795 1.367 . S
C798 N796 1.358 . S
C799 C793 1.367 . S
C799 C794 1.375 1_556 S
C799 N797 1.358 . S
N800 C792 1.368 . S
N800 H806 0.993 . S
N800 H807 0.966 1_545 S
N801 C794 1.368 . S
N801 H804 0.965 1_565 S
N801 H805 0.993 . S
H802 N797 0.984 . S
H803 N797 0.985 1_554 S
H804 N801 0.965 1_545 S
H805 N801 0.993 . S
H806 N800 0.993 . S
H807 N800 0.966 1_565 S
H808 N796 0.984 1_556 S
H809 N796 0.985 . S
C810 C811 1.363 . S
C810 C816 1.379 1_654 S
C810 N818 1.356 . S
C811 C810 1.363 . S
C811 C817 1.363 . S
C812 C813 1.363 . S
C812 C817 1.379 1_456 S
C812 N819 1.356 . S
C813 C812 1.363 . S
C813 C816 1.363 . S
N814 C816 1.356 . S
N814 H826 0.984 . S
N814 H827 0.985 . S
N815 C817 1.356 . S
N815 H820 0.984 . S
N815 H821 0.985 . S
C816 C810 1.379 1_456 S
C816 C813 1.363 . S
C816 N814 1.356 . S
C817 C811 1.363 . S
C817 C812 1.379 1_654 S
C817 N815 1.356 . S
N818 C810 1.356 . S
N818 H824 0.984 . S
N818 H825 0.984 . S
N819 C812 1.356 . S
N819 H822 0.984 . S
N819 H823 0.985 . S
H820 N815 0.984 . S
H821 N815 0.985 . S
H822 N819 0.984 . S
H823 N819 0.985 . S
H824 N818 0.984 . S
H825 N818 0.984 . S
H826 N814 0.984 . S
H827 N814 0.985 . S
C828 C829 1.363 . S
C828 C834 1.379 1_556 S
C828 N836 1.356 . S
C829 C828 1.363 . S
C829 C835 1.363 . S
C830 C831 1.363 . S
C830 C835 1.379 1_554 S
C830 N837 1.356 . S
C831 C830 1.363 . S
C831 C834 1.363 . S
N832 C834 1.356 . S
N832 H844 0.984 . S
N832 H845 0.985 . S
N833 C835 1.356 . S
N833 H838 0.984 . S
N833 H839 0.985 . S
C834 C828 1.379 1_554 S
C834 C831 1.363 . S
C834 N832 1.356 . S
C835 C829 1.363 . S
C835 C830 1.379 1_556 S
C835 N833 1.356 . S
N836 C828 1.356 . S
N836 H842 0.984 . S
N836 H843 0.984 . S
N837 C830 1.356 . S
N837 H840 0.984 . S
N837 H841 0.985 . S
H838 N833 0.984 . S
H839 N833 0.985 . S
H840 N837 0.984 . S
H841 N837 0.985 . S
H842 N836 0.984 . S
H843 N836 0.984 . S
H844 N832 0.984 . S
H845 N832 0.985 . S
C846 C847 1.363 1_554 S
C846 C852 1.379 . S
C846 N854 1.356 1_554 S
C847 C846 1.363 1_556 S
C847 C853 1.363 1_565 S
C848 C849 1.363 1_556 S
C848 C853 1.379 . S
C848 N855 1.356 1_556 S
C849 C848 1.363 1_554 S
C849 C852 1.363 1_545 S
N850 C852 1.356 . S
N850 H862 0.984 . S
N850 H863 0.985 1_565 S
N851 C853 1.356 . S
N851 H856 0.984 1_545 S
N851 H857 0.985 . S
C852 C846 1.379 . S
C852 C849 1.363 1_565 S
C852 N850 1.356 . S
C853 C847 1.363 1_545 S
C853 C848 1.379 . S
C853 N851 1.356 . S
N854 C846 1.356 1_556 S
N854 H860 0.984 1_556 S
N854 H861 0.984 . S
N855 C848 1.356 1_554 S
N855 H858 0.984 . S
N855 H859 0.985 1_554 S
H856 N851 0.984 1_565 S
H857 N851 0.985 . S
H858 N855 0.984 . S
H859 N855 0.985 1_556 S
H860 N854 0.984 1_554 S
H861 N854 0.984 . S
H862 N850 0.984 . S
H863 N850 0.985 1_545 S
C864 C865 1.363 1_554 S
C864 C870 1.379 . S
C864 N872 1.358 . S
C865 C864 1.363 1_556 S
C865 C871 1.363 1_455 S
C866 C867 1.363 1_556 S
C866 C871 1.379 . S
C866 N873 1.358 . S
C867 C866 1.363 1_554 S
C867 C870 1.363 1_655 S
N868 C870 1.356 . S
N868 H880 0.984 . S
N868 H881 0.985 1_455 S
N869 C871 1.356 . S
N869 H874 0.984 1_655 S
N869 H875 0.985 . S
C870 C864 1.379 . S
C870 C867 1.363 1_455 S
C870 N868 1.356 . S
C871 C865 1.363 1_655 S
C871 C866 1.379 . S
C871 N869 1.356 . S
N872 C864 1.358 . S
N872 H878 0.995 . S
N872 H879 0.972 1_554 S
N873 C866 1.358 . S
N873 H876 0.972 1_556 S
N873 H877 0.995 . S
H874 N869 0.984 1_455 S
H875 N869 0.985 . S
H876 N873 0.972 1_554 S
H877 N873 0.995 . S
H878 N872 0.995 . S
H879 N872 0.972 1_556 S
H880 N868 0.984 . S
H881 N868 0.985 1_655 S
C882 C883 1.363 . S
C882 C888 1.379 . S
C882 N890 1.356 . S
C883 C882 1.363 . S
C883 C889 1.363 1_554 S
C884 C885 1.363 . S
C884 C889 1.379 . S
C884 N891 1.356 . S
C885 C884 1.363 . S
C885 C888 1.363 1_556 S
N886 C888 1.356 1_556 S
N886 H898 0.984 1_556 S
N886 H899 0.985 . S
N887 C889 1.356 1_554 S
N887 H892 0.984 . S
N887 H893 0.985 1_554 S
C888 C882 1.379 . S
C888 C885 1.363 1_554 S
C888 N886 1.356 1_554 S
C889 C883 1.363 1_556 S
C889 C884 1.379 . S
C889 N887 1.356 1_556 S
N890 C882 1.356 . S
N890 H896 0.984 . S
N890 H897 0.984 . S
N891 C884 1.356 . S
N891 H894 0.984 . S
N891 H895 0.985 . S
H892 N887 0.984 . S
H893 N887 0.985 1_556 S
H894 N891 0.984 . S
H895 N891 0.985 . S
H896 N890 0.984 . S
H897 N890 0.984 . S
H898 N886 0.984 1_554 S
H899 N886 0.985 . S
C900 C901 1.363 . S
C900 C906 1.379 . S
C900 N908 1.356 . S
C901 C900 1.363 . S
C901 C907 1.363 . S
C902 C903 1.363 . S
C902 C907 1.379 . S
C902 N909 1.356 . S
C903 C902 1.363 . S
C903 C906 1.363 . S
N904 C906 1.356 . S
N904 H916 0.984 . S
N904 H917 0.985 . S
N905 C907 1.356 . S
N905 H910 0.984 . S
N905 H911 0.985 . S
C906 C900 1.379 . S
C906 C903 1.363 . S
C906 N904 1.356 . S
C907 C901 1.363 . S
C907 C902 1.379 . S
C907 N905 1.356 . S
N908 C900 1.356 . S
N908 H914 0.984 . S
N908 H915 0.984 . S
N909 C902 1.356 . S
N909 H912 0.984 . S
N909 H913 0.985 . S
H910 N905 0.984 . S
H911 N905 0.985 . S
H912 N909 0.984 . S
H913 N909 0.985 . S
H914 N908 0.984 . S
H915 N908 0.984 . S
H916 N904 0.984 . S
H917 N904 0.985 . S
C918 C919 1.363 . S
C918 C924 1.379 . S
C918 N926 1.356 . S
C919 C918 1.363 . S
C919 C925 1.363 . S
C920 C921 1.363 . S
C920 C925 1.379 . S
C920 N927 1.356 . S
C921 C920 1.363 . S
C921 C924 1.363 . S
N922 C924 1.356 . S
N922 H934 0.984 . S
N922 H935 0.985 . S
N923 C925 1.356 . S
N923 H928 0.984 . S
N923 H929 0.985 . S
C924 C918 1.379 . S
C924 C921 1.363 . S
C924 N922 1.356 . S
C925 C919 1.363 . S
C925 C920 1.379 . S
C925 N923 1.356 . S
N926 C918 1.356 . S
N926 H932 0.984 . S
N926 H933 0.984 . S
N927 C920 1.356 . S
N927 H930 0.984 . S
N927 H931 0.985 . S
H928 N923 0.984 . S
H929 N923 0.985 . S
H930 N927 0.984 . S
H931 N927 0.985 . S
H932 N926 0.984 . S
H933 N926 0.984 . S
H934 N922 0.984 . S
H935 N922 0.985 . S
C936 C937 1.363 . S
C936 C942 1.379 . S
C936 N944 1.356 . S
C937 C936 1.363 . S
C937 C943 1.363 . S
C938 C939 1.363 . S
C938 C943 1.379 . S
C938 N945 1.356 . S
C939 C938 1.363 . S
C939 C942 1.363 . S
N940 C942 1.356 . S
N940 H952 0.984 . S
N940 H953 0.985 . S
N941 C943 1.356 . S
N941 H946 0.984 . S
N941 H947 0.985 . S
C942 C936 1.379 . S
C942 C939 1.363 . S
C942 N940 1.356 . S
C943 C937 1.363 . S
C943 C938 1.379 . S
C943 N941 1.356 . S
N944 C936 1.356 . S
N944 H950 0.984 . S
N944 H951 0.984 . S
N945 C938 1.356 . S
N945 H948 0.984 . S
N945 H949 0.985 . S
H946 N941 0.984 . S
H947 N941 0.985 . S
H948 N945 0.984 . S
H949 N945 0.985 . S
H950 N944 0.984 . S
H951 N944 0.984 . S
H952 N940 0.984 . S
H953 N940 0.985 . S
C954 C955 1.363 . S
C954 C960 1.379 . S
C954 N962 1.356 . S
C955 C954 1.363 . S
C955 C961 1.363 . S
C956 C957 1.363 . S
C956 C961 1.379 . S
C956 N963 1.356 . S
C957 C956 1.363 . S
C957 C960 1.363 . S
N958 C960 1.356 . S
N958 H970 0.984 . S
N958 H971 0.985 . S
N959 C961 1.356 . S
N959 H964 0.984 . S
N959 H965 0.985 . S
C960 C954 1.379 . S
C960 C957 1.363 . S
C960 N958 1.356 . S
C961 C955 1.363 . S
C961 C956 1.379 . S
C961 N959 1.356 . S
N962 C954 1.356 . S
N962 H968 0.984 . S
N962 H969 0.984 . S
N963 C956 1.356 . S
N963 H966 0.984 . S
N963 H967 0.985 . S
H964 N959 0.984 . S
H965 N959 0.985 . S
H966 N963 0.984 . S
H967 N963 0.985 . S
H968 N962 0.984 . S
H969 N962 0.984 . S
H970 N958 0.984 . S
H971 N958 0.985 . S
C972 C973 1.363 . S
C972 C978 1.379 . S
C972 N980 1.356 . S
C973 C972 1.363 . S
C973 C979 1.363 . S
C974 C975 1.363 . S
C974 C979 1.379 . S
C974 N981 1.356 . S
C975 C974 1.363 . S
C975 C978 1.363 . S
N976 C978 1.356 . S
N976 H988 0.984 . S
N976 H989 0.985 . S
N977 C979 1.356 . S
N977 H982 0.984 . S
N977 H983 0.985 . S
C978 C972 1.379 . S
C978 C975 1.363 . S
C978 N976 1.356 . S
C979 C973 1.363 . S
C979 C974 1.379 . S
C979 N977 1.356 . S
N980 C972 1.356 . S
N980 H986 0.984 . S
N980 H987 0.984 . S
N981 C974 1.356 . S
N981 H984 0.984 . S
N981 H985 0.985 . S
H982 N977 0.984 . S
H983 N977 0.985 . S
H984 N981 0.984 . S
H985 N981 0.985 . S
H986 N980 0.984 . S
H987 N980 0.984 . S
H988 N976 0.984 . S
H989 N976 0.985 . S
C990 C991 1.363 . S
C990 C996 1.379 . S
C990 N998 1.356 . S
C991 C990 1.363 . S
C991 C997 1.363 . S
C992 C993 1.363 . S
C992 C997 1.379 . S
C992 N999 1.356 . S
C993 C992 1.363 . S
C993 C996 1.363 . S
N994 C996 1.356 . S
N994 H1006 0.984 . S
N994 H1007 0.985 . S
N995 C997 1.356 . S
N995 H1000 0.984 . S
N995 H1001 0.985 . S
C996 C990 1.379 . S
C996 C993 1.363 . S
C996 N994 1.356 . S
C997 C991 1.363 . S
C997 C992 1.379 . S
C997 N995 1.356 . S
N998 C990 1.356 . S
N998 H1004 0.984 . S
N998 H1005 0.984 . S
N999 C992 1.356 . S
N999 H1002 0.984 . S
N999 H1003 0.985 . S
H1000 N995 0.984 . S
H1001 N995 0.985 . S
H1002 N999 0.984 . S
H1003 N999 0.985 . S
H1004 N998 0.984 . S
H1005 N998 0.984 . S
H1006 N994 0.984 . S
H1007 N994 0.985 . S
C1008 C1009 1.363 . S
C1008 C1014 1.379 . S
C1008 N1016 1.356 . S
C1009 C1008 1.363 . S
C1009 C1015 1.363 . S
C1010 C1011 1.363 . S
C1010 C1015 1.379 . S
C1010 N1017 1.356 . S
C1011 C1010 1.363 . S
C1011 C1014 1.363 . S
N1012 C1014 1.356 . S
N1012 H1024 0.984 . S
N1012 H1025 0.985 . S
N1013 C1015 1.356 . S
N1013 H1018 0.984 . S
N1013 H1019 0.985 . S
C1014 C1008 1.379 . S
C1014 C1011 1.363 . S
C1014 N1012 1.356 . S
C1015 C1009 1.363 . S
C1015 C1010 1.379 . S
C1015 N1013 1.356 . S
N1016 C1008 1.356 . S
N1016 H1022 0.984 . S
N1016 H1023 0.984 . S
N1017 C1010 1.356 . S
N1017 H1020 0.984 . S
N1017 H1021 0.985 . S
H1018 N1013 0.984 . S
H1019 N1013 0.985 . S
H1020 N1017 0.984 . S
H1021 N1017 0.985 . S
H1022 N1016 0.984 . S
H1023 N1016 0.984 . S
H1024 N1012 0.984 . S
H1025 N1012 0.985 . S
C1026 C1027 1.363 . S
C1026 C1032 1.379 . S
C1026 N1034 1.356 . S
C1027 C1026 1.363 . S
C1027 C1033 1.363 . S
C1028 C1029 1.363 . S
C1028 C1033 1.379 . S
C1028 N1035 1.356 . S
C1029 C1028 1.363 . S
C1029 C1032 1.363 . S
N1030 C1032 1.356 . S
N1030 H1042 0.984 . S
N1030 H1043 0.985 . S
N1031 C1033 1.356 . S
N1031 H1036 0.984 . S
N1031 H1037 0.985 . S
C1032 C1026 1.379 . S
C1032 C1029 1.363 . S
C1032 N1030 1.356 . S
C1033 C1027 1.363 . S
C1033 C1028 1.379 . S
C1033 N1031 1.356 . S
N1034 C1026 1.356 . S
N1034 H1040 0.984 . S
N1034 H1041 0.984 . S
N1035 C1028 1.356 . S
N1035 H1038 0.984 . S
N1035 H1039 0.985 . S
H1036 N1031 0.984 . S
H1037 N1031 0.985 . S
H1038 N1035 0.984 . S
H1039 N1035 0.985 . S
H1040 N1034 0.984 . S
H1041 N1034 0.984 . S
H1042 N1030 0.984 . S
H1043 N1030 0.985 . S
C1044 C1045 1.363 . S
C1044 C1050 1.379 . S
C1044 N1052 1.356 . S
C1045 C1044 1.363 . S
C1045 C1051 1.363 . S
C1046 C1047 1.363 . S
C1046 C1051 1.379 . S
C1046 N1053 1.356 . S
C1047 C1046 1.363 . S
C1047 C1050 1.363 . S
N1048 C1050 1.356 . S
N1048 H1060 0.984 . S
N1048 H1061 0.985 . S
N1049 C1051 1.356 . S
N1049 H1054 0.984 . S
N1049 H1055 0.985 . S
C1050 C1044 1.379 . S
C1050 C1047 1.363 . S
C1050 N1048 1.356 . S
C1051 C1045 1.363 . S
C1051 C1046 1.379 . S
C1051 N1049 1.356 . S
N1052 C1044 1.356 . S
N1052 H1058 0.984 . S
N1052 H1059 0.984 . S
N1053 C1046 1.356 . S
N1053 H1056 0.984 . S
N1053 H1057 0.985 . S
H1054 N1049 0.984 . S
H1055 N1049 0.985 . S
H1056 N1053 0.984 . S
H1057 N1053 0.985 . S
H1058 N1052 0.984 . S
H1059 N1052 0.984 . S
H1060 N1048 0.984 . S
H1061 N1048 0.985 . S
C1062 C1063 1.363 . S
C1062 C1068 1.379 . S
C1062 N1070 1.356 . S
C1063 C1062 1.363 . S
C1063 C1069 1.363 . S
C1064 C1065 1.363 . S
C1064 C1069 1.379 . S
C1064 N1071 1.356 . S
C1065 C1064 1.363 . S
C1065 C1068 1.363 . S
N1066 C1068 1.356 . S
N1066 H1078 0.984 . S
N1066 H1079 0.985 . S
N1067 C1069 1.356 . S
N1067 H1072 0.984 . S
N1067 H1073 0.985 . S
C1068 C1062 1.379 . S
C1068 C1065 1.363 . S
C1068 N1066 1.356 . S
C1069 C1063 1.363 . S
C1069 C1064 1.379 . S
C1069 N1067 1.356 . S
N1070 C1062 1.356 . S
N1070 H1076 0.984 . S
N1070 H1077 0.984 . S
N1071 C1064 1.356 . S
N1071 H1074 0.984 . S
N1071 H1075 0.985 . S
H1072 N1067 0.984 . S
H1073 N1067 0.985 . S
H1074 N1071 0.984 . S
H1075 N1071 0.985 . S
H1076 N1070 0.984 . S
H1077 N1070 0.984 . S
H1078 N1066 0.984 . S
H1079 N1066 0.985 . S
C1080 C1081 1.363 . S
C1080 C1086 1.379 . S
C1080 N1088 1.356 . S
C1081 C1080 1.363 . S
C1081 C1087 1.363 . S
C1082 C1083 1.363 . S
C1082 C1087 1.379 . S
C1082 N1089 1.356 . S
C1083 C1082 1.363 . S
C1083 C1086 1.363 . S
N1084 C1086 1.356 . S
N1084 H1096 0.984 . S
N1084 H1097 0.985 . S
N1085 C1087 1.356 . S
N1085 H1090 0.984 . S
N1085 H1091 0.985 . S
C1086 C1080 1.379 . S
C1086 C1083 1.363 . S
C1086 N1084 1.356 . S
C1087 C1081 1.363 . S
C1087 C1082 1.379 . S
C1087 N1085 1.356 . S
N1088 C1080 1.356 . S
N1088 H1094 0.984 . S
N1088 H1095 0.984 . S
N1089 C1082 1.356 . S
N1089 H1092 0.984 . S
N1089 H1093 0.985 . S
H1090 N1085 0.984 . S
H1091 N1085 0.985 . S
H1092 N1089 0.984 . S
H1093 N1089 0.985 . S
H1094 N1088 0.984 . S
H1095 N1088 0.984 . S
H1096 N1084 0.984 . S
H1097 N1084 0.985 . S
C1098 C1099 1.363 . S
C1098 C1104 1.379 . S
C1098 N1106 1.356 . S
C1099 C1098 1.363 . S
C1099 C1105 1.363 . S
C1100 C1101 1.363 . S
C1100 C1105 1.379 . S
C1100 N1107 1.356 . S
C1101 C1100 1.363 . S
C1101 C1104 1.363 . S
N1102 C1104 1.356 . S
N1102 H1114 0.984 . S
N1102 H1115 0.985 . S
N1103 C1105 1.356 . S
N1103 H1108 0.984 . S
N1103 H1109 0.985 . S
C1104 C1098 1.379 . S
C1104 C1101 1.363 . S
C1104 N1102 1.356 . S
C1105 C1099 1.363 . S
C1105 C1100 1.379 . S
C1105 N1103 1.356 . S
N1106 C1098 1.356 . S
N1106 H1112 0.984 . S
N1106 H1113 0.984 . S
N1107 C1100 1.356 . S
N1107 H1110 0.984 . S
N1107 H1111 0.985 . S
H1108 N1103 0.984 . S
H1109 N1103 0.985 . S
H1110 N1107 0.984 . S
H1111 N1107 0.985 . S
H1112 N1106 0.984 . S
H1113 N1106 0.984 . S
H1114 N1102 0.984 . S
H1115 N1102 0.985 . S
C1116 C1117 1.363 . S
C1116 C1122 1.379 . S
C1116 N1124 1.356 . S
C1117 C1116 1.363 . S
C1117 C1123 1.363 . S
C1118 C1119 1.363 . S
C1118 C1123 1.379 . S
C1118 N1125 1.356 . S
C1119 C1118 1.363 . S
C1119 C1122 1.363 . S
N1120 C1122 1.356 . S
N1120 H1132 0.984 . S
N1120 H1133 0.985 . S
N1121 C1123 1.356 . S
N1121 H1126 0.984 . S
N1121 H1127 0.985 . S
C1122 C1116 1.379 . S
C1122 C1119 1.363 . S
C1122 N1120 1.356 . S
C1123 C1117 1.363 . S
C1123 C1118 1.379 . S
C1123 N1121 1.356 . S
N1124 C1116 1.356 . S
N1124 H1130 0.984 . S
N1124 H1131 0.984 . S
N1125 C1118 1.356 . S
N1125 H1128 0.984 . S
N1125 H1129 0.985 . S
H1126 N1121 0.984 . S
H1127 N1121 0.985 . S
H1128 N1125 0.984 . S
H1129 N1125 0.985 . S
H1130 N1124 0.984 . S
H1131 N1124 0.984 . S
H1132 N1120 0.984 . S
H1133 N1120 0.985 . S
C1134 C1135 1.363 . S
C1134 C1140 1.379 . S
C1134 N1142 1.356 . S
C1135 C1134 1.363 . S
C1135 C1141 1.363 . S
C1136 C1137 1.363 . S
C1136 C1141 1.379 . S
C1136 N1143 1.356 . S
C1137 C1136 1.363 . S
C1137 C1140 1.363 . S
N1138 C1140 1.356 . S
N1138 H1150 0.984 . S
N1138 H1151 0.985 . S
N1139 C1141 1.356 . S
N1139 H1144 0.984 . S
N1139 H1145 0.985 . S
C1140 C1134 1.379 . S
C1140 C1137 1.363 . S
C1140 N1138 1.356 . S
C1141 C1135 1.363 . S
C1141 C1136 1.379 . S
C1141 N1139 1.356 . S
N1142 C1134 1.356 . S
N1142 H1148 0.984 . S
N1142 H1149 0.984 . S
N1143 C1136 1.356 . S
N1143 H1146 0.984 . S
N1143 H1147 0.985 . S
H1144 N1139 0.984 . S
H1145 N1139 0.985 . S
H1146 N1143 0.984 . S
H1147 N1143 0.985 . S
H1148 N1142 0.984 . S
H1149 N1142 0.984 . S
H1150 N1138 0.984 . S
H1151 N1138 0.985 . S
C1152 C1153 1.363 . S
C1152 C1158 1.379 . S
C1152 N1160 1.356 . S
C1153 C1152 1.363 . S
C1153 C1159 1.363 . S
C1154 C1155 1.363 . S
C1154 C1159 1.379 . S
C1154 N1161 1.356 . S
C1155 C1154 1.363 . S
C1155 C1158 1.363 . S
N1156 C1158 1.356 . S
N1156 H1168 0.984 . S
N1156 H1169 0.985 . S
N1157 C1159 1.356 . S
N1157 H1162 0.984 . S
N1157 H1163 0.985 . S
C1158 C1152 1.379 . S
C1158 C1155 1.363 . S
C1158 N1156 1.356 . S
C1159 C1153 1.363 . S
C1159 C1154 1.379 . S
C1159 N1157 1.356 . S
N1160 C1152 1.356 . S
N1160 H1166 0.984 1_554 S
N1160 H1167 0.984 . S
N1161 C1154 1.356 . S
N1161 H1164 0.984 . S
N1161 H1165 0.985 . S
H1162 N1157 0.984 . S
H1163 N1157 0.985 . S
H1164 N1161 0.984 . S
H1165 N1161 0.985 . S
H1166 N1160 0.984 1_556 S
H1167 N1160 0.984 . S
H1168 N1156 0.984 . S
H1169 N1156 0.985 . S
C1170 C1171 1.363 . S
C1170 C1176 1.379 . S
C1170 N1178 1.356 . S
C1171 C1170 1.363 . S
C1171 C1177 1.363 . S
C1172 C1173 1.363 . S
C1172 C1177 1.379 . S
C1172 N1179 1.356 . S
C1173 C1172 1.363 . S
C1173 C1176 1.363 . S
N1174 C1176 1.356 . S
N1174 H1186 0.984 . S
N1174 H1187 0.985 . S
N1175 C1177 1.356 . S
N1175 H1180 0.984 . S
N1175 H1181 0.985 . S
C1176 C1170 1.379 . S
C1176 C1173 1.363 . S
C1176 N1174 1.356 . S
C1177 C1171 1.363 . S
C1177 C1172 1.379 . S
C1177 N1175 1.356 . S
N1178 C1170 1.356 . S
N1178 H1184 0.984 . S
N1178 H1185 0.984 . S
N1179 C1172 1.356 . S
N1179 H1182 0.984 . S
N1179 H1183 0.985 . S
H1180 N1175 0.984 . S
H1181 N1175 0.985 . S
H1182 N1179 0.984 . S
H1183 N1179 0.985 . S
H1184 N1178 0.984 . S
H1185 N1178 0.984 . S
H1186 N1174 0.984 . S
H1187 N1174 0.985 . S
C1188 C1189 1.363 . S
C1188 C1194 1.379 . S
C1188 N1196 1.356 . S
C1189 C1188 1.363 . S
C1189 C1195 1.363 . S
C1190 C1191 1.363 . S
C1190 C1195 1.379 . S
C1190 N1197 1.356 . S
C1191 C1190 1.363 . S
C1191 C1194 1.363 . S
N1192 C1194 1.356 . S
N1192 H1204 0.984 1_556 S
N1192 H1205 0.985 . S
N1193 C1195 1.356 . S
N1193 H1198 0.984 . S
N1193 H1199 0.985 . S
C1194 C1188 1.379 . S
C1194 C1191 1.363 . S
C1194 N1192 1.356 . S
C1195 C1189 1.363 . S
C1195 C1190 1.379 . S
C1195 N1193 1.356 . S
N1196 C1188 1.356 . S
N1196 H1202 0.984 . S
N1196 H1203 0.984 . S
N1197 C1190 1.356 . S
N1197 H1200 0.984 . S
N1197 H1201 0.985 . S
H1198 N1193 0.984 . S
H1199 N1193 0.985 . S
H1200 N1197 0.984 . S
H1201 N1197 0.985 . S
H1202 N1196 0.984 . S
H1203 N1196 0.984 . S
H1204 N1192 0.984 1_554 S
H1205 N1192 0.985 . S
C1206 C1207 1.363 . S
C1206 C1212 1.379 . S
C1206 N1214 1.356 . S
C1207 C1206 1.363 . S
C1207 C1213 1.363 . S
C1208 C1209 1.363 . S
C1208 C1213 1.379 . S
C1208 N1215 1.356 . S
C1209 C1208 1.363 . S
C1209 C1212 1.363 . S
N1210 C1212 1.356 . S
N1210 H1222 0.984 1_556 S
N1210 H1223 0.985 . S
N1211 C1213 1.356 . S
N1211 H1216 0.984 . S
N1211 H1217 0.985 . S
C1212 C1206 1.379 . S
C1212 C1209 1.363 . S
C1212 N1210 1.356 . S
C1213 C1207 1.363 . S
C1213 C1208 1.379 . S
C1213 N1211 1.356 . S
N1214 C1206 1.356 . S
N1214 H1220 0.984 1_556 S
N1214 H1221 0.984 . S
N1215 C1208 1.356 . S
N1215 H1218 0.984 . S
N1215 H1219 0.985 . S
H1216 N1211 0.984 . S
H1217 N1211 0.985 . S
H1218 N1215 0.984 . S
H1219 N1215 0.985 . S
H1220 N1214 0.984 1_554 S
H1221 N1214 0.984 . S
H1222 N1210 0.984 1_554 S
H1223 N1210 0.985 . S
C1224 C1225 1.363 . S
C1224 C1230 1.379 . S
C1224 N1232 1.356 . S
C1225 C1224 1.363 . S
C1225 C1231 1.363 . S
C1226 C1227 1.363 . S
C1226 C1231 1.379 . S
C1226 N1233 1.356 . S
C1227 C1226 1.363 . S
C1227 C1230 1.363 . S
N1228 C1230 1.356 . S
N1228 H1240 0.984 . S
N1228 H1241 0.985 . S
N1229 C1231 1.356 . S
N1229 H1234 0.984 . S
N1229 H1235 0.985 . S
C1230 C1224 1.379 . S
C1230 C1227 1.363 . S
C1230 N1228 1.356 . S
C1231 C1225 1.363 . S
C1231 C1226 1.379 . S
C1231 N1229 1.356 . S
N1232 C1224 1.356 . S
N1232 H1238 0.984 . S
N1232 H1239 0.984 . S
N1233 C1226 1.356 . S
N1233 H1236 0.984 . S
N1233 H1237 0.985 1_556 S
H1234 N1229 0.984 . S
H1235 N1229 0.985 . S
H1236 N1233 0.984 . S
H1237 N1233 0.985 1_554 S
H1238 N1232 0.984 . S
H1239 N1232 0.984 . S
H1240 N1228 0.984 . S
H1241 N1228 0.985 . S
C1242 C1243 1.363 . S
C1242 C1248 1.379 . S
C1242 N1250 1.356 . S
C1243 C1242 1.363 . S
C1243 C1249 1.363 . S
C1244 C1245 1.363 . S
C1244 C1249 1.379 . S
C1244 N1251 1.356 . S
C1245 C1244 1.363 . S
C1245 C1248 1.363 . S
N1246 C1248 1.356 . S
N1246 H1258 0.984 . S
N1246 H1259 0.985 . S
N1247 C1249 1.356 . S
N1247 H1252 0.984 . S
N1247 H1253 0.985 . S
C1248 C1242 1.379 . S
C1248 C1245 1.363 . S
C1248 N1246 1.356 . S
C1249 C1243 1.363 . S
C1249 C1244 1.379 . S
C1249 N1247 1.356 . S
N1250 C1242 1.356 . S
N1250 H1256 0.984 . S
N1250 H1257 0.984 . S
N1251 C1244 1.356 . S
N1251 H1254 0.984 . S
N1251 H1255 0.985 . S
H1252 N1247 0.984 . S
H1253 N1247 0.985 . S
H1254 N1251 0.984 . S
H1255 N1251 0.985 . S
H1256 N1250 0.984 . S
H1257 N1250 0.984 . S
H1258 N1246 0.984 . S
H1259 N1246 0.985 . S
C1260 C1261 1.363 . S
C1260 C1266 1.379 . S
C1260 N1268 1.356 . S
C1261 C1260 1.363 . S
C1261 C1267 1.363 . S
C1262 C1263 1.363 . S
C1262 C1267 1.379 . S
C1262 N1269 1.356 . S
C1263 C1262 1.363 . S
C1263 C1266 1.363 . S
N1264 C1266 1.356 . S
N1264 H1276 0.984 1_556 S
N1264 H1277 0.985 . S
N1265 C1267 1.356 . S
N1265 H1270 0.984 . S
N1265 H1271 0.985 . S
C1266 C1260 1.379 . S
C1266 C1263 1.363 . S
C1266 N1264 1.356 . S
C1267 C1261 1.363 . S
C1267 C1262 1.379 . S
C1267 N1265 1.356 . S
N1268 C1260 1.356 . S
N1268 H1274 0.984 . S
N1268 H1275 0.984 . S
N1269 C1262 1.356 . S
N1269 H1272 0.984 . S
N1269 H1273 0.985 . S
H1270 N1265 0.984 . S
H1271 N1265 0.985 . S
H1272 N1269 0.984 . S
H1273 N1269 0.985 . S
H1274 N1268 0.984 . S
H1275 N1268 0.984 . S
H1276 N1264 0.984 1_554 S
H1277 N1264 0.985 . S
C1278 C1279 1.363 . S
C1278 C1284 1.379 . S
C1278 N1286 1.356 . S
C1279 C1278 1.363 . S
C1279 C1285 1.363 . S
C1280 C1281 1.363 . S
C1280 C1285 1.379 . S
C1280 N1287 1.356 . S
C1281 C1280 1.363 . S
C1281 C1284 1.363 . S
N1282 C1284 1.356 . S
N1282 H1294 0.984 1_554 S
N1282 H1295 0.985 . S
N1283 C1285 1.356 . S
N1283 H1288 0.984 . S
N1283 H1289 0.985 . S
C1284 C1278 1.379 . S
C1284 C1281 1.363 . S
C1284 N1282 1.356 . S
C1285 C1279 1.363 . S
C1285 C1280 1.379 . S
C1285 N1283 1.356 . S
N1286 C1278 1.356 . S
N1286 H1292 0.984 . S
N1286 H1293 0.984 . S
N1287 C1280 1.356 . S
N1287 H1290 0.984 . S
N1287 H1291 0.985 . S
H1288 N1283 0.984 . S
H1289 N1283 0.985 . S
H1290 N1287 0.984 . S
H1291 N1287 0.985 . S
H1292 N1286 0.984 . S
H1293 N1286 0.984 . S
H1294 N1282 0.984 1_556 S
H1295 N1282 0.985 . S
C1296 C1297 1.363 . S
C1296 C1302 1.379 . S
C1296 N1304 1.356 . S
C1297 C1296 1.363 . S
C1297 C1303 1.363 . S
C1298 C1299 1.363 . S
C1298 C1303 1.379 . S
C1298 N1305 1.356 . S
C1299 C1298 1.363 . S
C1299 C1302 1.363 . S
N1300 C1302 1.356 . S
N1300 H1312 0.984 . S
N1300 H1313 0.985 . S
N1301 C1303 1.356 . S
N1301 H1306 0.984 . S
N1301 H1307 0.985 1_554 S
C1302 C1296 1.379 . S
C1302 C1299 1.363 . S
C1302 N1300 1.356 . S
C1303 C1297 1.363 . S
C1303 C1298 1.379 . S
C1303 N1301 1.356 . S
N1304 C1296 1.356 . S
N1304 H1310 0.984 . S
N1304 H1311 0.984 . S
N1305 C1298 1.356 . S
N1305 H1308 0.984 . S
N1305 H1309 0.985 . S
H1306 N1301 0.984 . S
H1307 N1301 0.985 1_556 S
H1308 N1305 0.984 . S
H1309 N1305 0.985 . S
H1310 N1304 0.984 . S
H1311 N1304 0.984 . S
H1312 N1300 0.984 . S
H1313 N1300 0.985 . S
C1314 C1315 1.363 . S
C1314 C1320 1.379 . S
C1314 N1322 1.356 . S
C1315 C1314 1.363 . S
C1315 C1321 1.363 . S
C1316 C1317 1.363 . S
C1316 C1321 1.379 . S
C1316 N1323 1.356 . S
C1317 C1316 1.363 . S
C1317 C1320 1.363 . S
N1318 C1320 1.356 . S
N1318 H1330 0.984 . S
N1318 H1331 0.985 . S
N1319 C1321 1.356 . S
N1319 H1324 0.984 . S
N1319 H1325 0.985 . S
C1320 C1314 1.379 . S
C1320 C1317 1.363 . S
C1320 N1318 1.356 . S
C1321 C1315 1.363 . S
C1321 C1316 1.379 . S
C1321 N1319 1.356 . S
N1322 C1314 1.356 . S
N1322 H1328 0.984 . S
N1322 H1329 0.984 . S
N1323 C1316 1.356 . S
N1323 H1326 0.984 . S
N1323 H1327 0.985 . S
H1324 N1319 0.984 . S
H1325 N1319 0.985 . S
H1326 N1323 0.984 . S
H1327 N1323 0.985 . S
H1328 N1322 0.984 . S
H1329 N1322 0.984 . S
H1330 N1318 0.984 . S
H1331 N1318 0.985 . S
C1332 C1333 1.363 . S
C1332 C1338 1.379 1_455 S
C1332 N1340 1.356 . S
C1333 C1332 1.363 . S
C1333 C1339 1.363 . S
C1334 C1335 1.363 . S
C1334 C1339 1.379 1_655 S
C1334 N1341 1.356 . S
C1335 C1334 1.363 . S
C1335 C1338 1.363 . S
N1336 C1338 1.356 . S
N1336 H1348 0.984 . S
N1336 H1349 0.985 . S
N1337 C1339 1.356 . S
N1337 H1342 0.984 . S
N1337 H1343 0.985 . S
C1338 C1332 1.379 1_655 S
C1338 C1335 1.363 . S
C1338 N1336 1.356 . S
C1339 C1333 1.363 . S
C1339 C1334 1.379 1_455 S
C1339 N1337 1.356 . S
N1340 C1332 1.356 . S
N1340 H1346 0.984 . S
N1340 H1347 0.984 . S
N1341 C1334 1.356 . S
N1341 H1344 0.984 . S
N1341 H1345 0.985 . S
H1342 N1337 0.984 . S
H1343 N1337 0.985 . S
H1344 N1341 0.984 . S
H1345 N1341 0.985 . S
H1346 N1340 0.984 . S
H1347 N1340 0.984 . S
H1348 N1336 0.984 . S
H1349 N1336 0.985 . S
C1350 C1351 1.363 . S
C1350 C1356 1.379 . S
C1350 N1358 1.356 . S
C1351 C1350 1.363 . S
C1351 C1357 1.363 . S
C1352 C1353 1.363 . S
C1352 C1357 1.379 . S
C1352 N1359 1.356 . S
C1353 C1352 1.363 . S
C1353 C1356 1.363 . S
N1354 C1356 1.356 . S
N1354 H1366 0.984 . S
N1354 H1367 0.985 . S
N1355 C1357 1.356 . S
N1355 H1360 0.984 . S
N1355 H1361 0.985 . S
C1356 C1350 1.379 . S
C1356 C1353 1.363 . S
C1356 N1354 1.356 . S
C1357 C1351 1.363 . S
C1357 C1352 1.379 . S
C1357 N1355 1.356 . S
N1358 C1350 1.356 . S
N1358 H1364 0.984 . S
N1358 H1365 0.984 . S
N1359 C1352 1.356 . S
N1359 H1362 0.984 . S
N1359 H1363 0.985 . S
H1360 N1355 0.984 . S
H1361 N1355 0.985 . S
H1362 N1359 0.984 . S
H1363 N1359 0.985 . S
H1364 N1358 0.984 . S
H1365 N1358 0.984 . S
H1366 N1354 0.984 . S
H1367 N1354 0.985 . S
C1368 C1369 1.363 . S
C1368 C1374 1.379 1_545 S
C1368 N1376 1.356 . S
C1369 C1368 1.363 . S
C1369 C1375 1.363 . S
C1370 C1371 1.363 . S
C1370 C1375 1.379 1_565 S
C1370 N1377 1.356 . S
C1371 C1370 1.363 . S
C1371 C1374 1.363 . S
N1372 C1374 1.356 . S
N1372 H1384 0.984 . S
N1372 H1385 0.985 . S
N1373 C1375 1.356 . S
N1373 H1378 0.984 . S
N1373 H1379 0.985 . S
C1374 C1368 1.379 1_565 S
C1374 C1371 1.363 . S
C1374 N1372 1.356 . S
C1375 C1369 1.363 . S
C1375 C1370 1.379 1_545 S
C1375 N1373 1.356 . S
N1376 C1368 1.356 . S
N1376 H1382 0.984 . S
N1376 H1383 0.984 . S
N1377 C1370 1.356 . S
N1377 H1380 0.984 . S
N1377 H1381 0.985 . S
H1378 N1373 0.984 . S
H1379 N1373 0.985 . S
H1380 N1377 0.984 . S
H1381 N1377 0.985 . S
H1382 N1376 0.984 . S
H1383 N1376 0.984 . S
H1384 N1372 0.984 . S
H1385 N1372 0.985 . S
C1386 C1387 1.363 . S
C1386 C1392 1.379 1_545 S
C1386 N1394 1.356 . S
C1387 C1386 1.363 . S
C1387 C1393 1.363 . S
C1388 C1389 1.363 . S
C1388 C1393 1.379 1_565 S
C1388 N1395 1.356 . S
C1389 C1388 1.363 . S
C1389 C1392 1.363 . S
N1390 C1392 1.356 . S
N1390 H1402 0.984 . S
N1390 H1403 0.985 . S
N1391 C1393 1.356 . S
N1391 H1396 0.984 . S
N1391 H1397 0.985 . S
C1392 C1386 1.379 1_565 S
C1392 C1389 1.363 . S
C1392 N1390 1.356 . S
C1393 C1387 1.363 . S
C1393 C1388 1.379 1_545 S
C1393 N1391 1.356 . S
N1394 C1386 1.356 . S
N1394 H1400 0.984 . S
N1394 H1401 0.984 . S
N1395 C1388 1.356 . S
N1395 H1398 0.984 . S
N1395 H1399 0.985 . S
H1396 N1391 0.984 . S
H1397 N1391 0.985 . S
H1398 N1395 0.984 . S
H1399 N1395 0.985 . S
H1400 N1394 0.984 . S
H1401 N1394 0.984 . S
H1402 N1390 0.984 . S
H1403 N1390 0.985 . S
C1404 C1405 1.363 . S
C1404 C1410 1.379 1_655 S
C1404 N1412 1.356 . S
C1405 C1404 1.363 . S
C1405 C1411 1.363 . S
C1406 C1407 1.363 . S
C1406 C1411 1.379 1_455 S
C1406 N1413 1.356 . S
C1407 C1406 1.363 . S
C1407 C1410 1.363 . S
N1408 C1410 1.356 . S
N1408 H1420 0.984 . S
N1408 H1421 0.985 . S
N1409 C1411 1.356 . S
N1409 H1414 0.984 . S
N1409 H1415 0.985 . S
C1410 C1404 1.379 1_455 S
C1410 C1407 1.363 . S
C1410 N1408 1.356 . S
C1411 C1405 1.363 . S
C1411 C1406 1.379 1_655 S
C1411 N1409 1.356 . S
N1412 C1404 1.356 . S
N1412 H1418 0.984 . S
N1412 H1419 0.984 . S
N1413 C1406 1.356 . S
N1413 H1416 0.984 . S
N1413 H1417 0.985 . S
H1414 N1409 0.984 . S
H1415 N1409 0.985 . S
H1416 N1413 0.984 . S
H1417 N1413 0.985 . S
H1418 N1412 0.984 . S
H1419 N1412 0.984 . S
H1420 N1408 0.984 . S
H1421 N1408 0.985 . S
C1422 C1423 1.363 . S
C1422 C1428 1.379 . S
C1422 N1430 1.356 . S
C1423 C1422 1.363 . S
C1423 C1429 1.363 . S
C1424 C1425 1.363 . S
C1424 C1429 1.379 . S
C1424 N1431 1.356 . S
C1425 C1424 1.363 . S
C1425 C1428 1.363 . S
N1426 C1428 1.356 . S
N1426 H1438 0.984 . S
N1426 H1439 0.985 . S
N1427 C1429 1.356 . S
N1427 H1432 0.984 . S
N1427 H1433 0.985 . S
C1428 C1422 1.379 . S
C1428 C1425 1.363 . S
C1428 N1426 1.356 . S
C1429 C1423 1.363 . S
C1429 C1424 1.379 . S
C1429 N1427 1.356 . S
N1430 C1422 1.356 . S
N1430 H1436 0.984 . S
N1430 H1437 0.984 . S
N1431 C1424 1.356 . S
N1431 H1434 0.984 . S
N1431 H1435 0.985 . S
H1432 N1427 0.984 . S
H1433 N1427 0.985 . S
H1434 N1431 0.984 . S
H1435 N1431 0.985 . S
H1436 N1430 0.984 . S
H1437 N1430 0.984 . S
H1438 N1426 0.984 . S
H1439 N1426 0.985 . S
C1440 C1441 1.363 . S
C1440 C1446 1.379 . S
C1440 N1448 1.356 . S
C1441 C1440 1.363 . S
C1441 C1447 1.363 . S
C1442 C1443 1.363 . S
C1442 C1447 1.379 . S
C1442 N1449 1.356 . S
C1443 C1442 1.363 . S
C1443 C1446 1.363 . S
N1444 C1446 1.356 . S
N1444 H1456 0.984 . S
N1444 H1457 0.985 . S
N1445 C1447 1.356 . S
N1445 H1450 0.984 . S
N1445 H1451 0.985 . S
C1446 C1440 1.379 . S
C1446 C1443 1.363 . S
C1446 N1444 1.356 . S
C1447 C1441 1.363 . S
C1447 C1442 1.379 . S
C1447 N1445 1.356 . S
N1448 C1440 1.356 . S
N1448 H1454 0.984 . S
N1448 H1455 0.984 . S
N1449 C1442 1.356 . S
N1449 H1452 0.984 . S
N1449 H1453 0.985 . S
H1450 N1445 0.984 . S
H1451 N1445 0.985 . S
H1452 N1449 0.984 . S
H1453 N1449 0.985 . S
H1454 N1448 0.984 . S
H1455 N1448 0.984 . S
H1456 N1444 0.984 . S
H1457 N1444 0.985 . S
C1458 C1459 1.363 . S
C1458 C1464 1.379 . S
C1458 N1466 1.356 . S
C1459 C1458 1.363 . S
C1459 C1465 1.363 . S
C1460 C1461 1.363 . S
C1460 C1465 1.379 . S
C1460 N1467 1.356 . S
C1461 C1460 1.363 . S
C1461 C1464 1.363 . S
N1462 C1464 1.356 . S
N1462 H1474 0.984 . S
N1462 H1475 0.985 . S
N1463 C1465 1.356 . S
N1463 H1468 0.984 . S
N1463 H1469 0.985 . S
C1464 C1458 1.379 . S
C1464 C1461 1.363 . S
C1464 N1462 1.356 . S
C1465 C1459 1.363 . S
C1465 C1460 1.379 . S
C1465 N1463 1.356 . S
N1466 C1458 1.356 . S
N1466 H1472 0.984 . S
N1466 H1473 0.984 . S
N1467 C1460 1.356 . S
N1467 H1470 0.984 . S
N1467 H1471 0.985 . S
H1468 N1463 0.984 . S
H1469 N1463 0.985 . S
H1470 N1467 0.984 . S
H1471 N1467 0.985 . S
H1472 N1466 0.984 . S
H1473 N1466 0.984 . S
H1474 N1462 0.984 . S
H1475 N1462 0.985 . S
C1476 C1477 1.363 . S
C1476 C1482 1.379 . S
C1476 N1484 1.356 . S
C1477 C1476 1.363 . S
C1477 C1483 1.363 . S
C1478 C1479 1.363 . S
C1478 C1483 1.379 . S
C1478 N1485 1.356 . S
C1479 C1478 1.363 . S
C1479 C1482 1.363 . S
N1480 C1482 1.356 . S
N1480 H1492 0.984 . S
N1480 H1493 0.985 . S
N1481 C1483 1.356 . S
N1481 H1486 0.984 . S
N1481 H1487 0.985 . S
C1482 C1476 1.379 . S
C1482 C1479 1.363 . S
C1482 N1480 1.356 . S
C1483 C1477 1.363 . S
C1483 C1478 1.379 . S
C1483 N1481 1.356 . S
N1484 C1476 1.356 . S
N1484 H1490 0.984 . S
N1484 H1491 0.984 . S
N1485 C1478 1.356 . S
N1485 H1488 0.984 . S
N1485 H1489 0.985 . S
H1486 N1481 0.984 . S
H1487 N1481 0.985 . S
H1488 N1485 0.984 . S
H1489 N1485 0.985 . S
H1490 N1484 0.984 . S
H1491 N1484 0.984 . S
H1492 N1480 0.984 . S
H1493 N1480 0.985 . S
C1494 C1495 1.363 . S
C1494 C1500 1.379 . S
C1494 N1502 1.356 . S
C1495 C1494 1.363 . S
C1495 C1501 1.363 . S
C1496 C1497 1.363 . S
C1496 C1501 1.379 . S
C1496 N1503 1.356 . S
C1497 C1496 1.363 . S
C1497 C1500 1.363 . S
N1498 C1500 1.356 . S
N1498 H1510 0.984 . S
N1498 H1511 0.985 . S
N1499 C1501 1.356 . S
N1499 H1504 0.984 . S
N1499 H1505 0.985 . S
C1500 C1494 1.379 . S
C1500 C1497 1.363 . S
C1500 N1498 1.356 . S
C1501 C1495 1.363 . S
C1501 C1496 1.379 . S
C1501 N1499 1.356 . S
N1502 C1494 1.356 . S
N1502 H1508 0.984 . S
N1502 H1509 0.984 . S
N1503 C1496 1.356 . S
N1503 H1506 0.984 . S
N1503 H1507 0.985 . S
H1504 N1499 0.984 . S
H1505 N1499 0.985 . S
H1506 N1503 0.984 . S
H1507 N1503 0.985 . S
H1508 N1502 0.984 . S
H1509 N1502 0.984 . S
H1510 N1498 0.984 . S
H1511 N1498 0.985 . S
C1512 C1513 1.363 . S
C1512 C1518 1.379 . S
C1512 N1520 1.356 . S
C1513 C1512 1.363 . S
C1513 C1519 1.363 . S
C1514 C1515 1.363 . S
C1514 C1519 1.379 . S
C1514 N1521 1.356 . S
C1515 C1514 1.363 . S
C1515 C1518 1.363 . S
N1516 C1518 1.356 . S
N1516 H1528 0.984 . S
N1516 H1529 0.985 . S
N1517 C1519 1.356 . S
N1517 H1522 0.984 . S
N1517 H1523 0.985 . S
C1518 C1512 1.379 . S
C1518 C1515 1.363 . S
C1518 N1516 1.356 . S
C1519 C1513 1.363 . S
C1519 C1514 1.379 . S
C1519 N1517 1.356 . S
N1520 C1512 1.356 . S
N1520 H1526 0.984 . S
N1520 H1527 0.984 . S
N1521 C1514 1.356 . S
N1521 H1524 0.984 . S
N1521 H1525 0.985 . S
H1522 N1517 0.984 . S
H1523 N1517 0.985 . S
H1524 N1521 0.984 . S
H1525 N1521 0.985 . S
H1526 N1520 0.984 . S
H1527 N1520 0.984 . S
H1528 N1516 0.984 . S
H1529 N1516 0.985 . S
C1530 C1531 1.363 . S
C1530 C1536 1.379 . S
C1530 N1538 1.356 . S
C1531 C1530 1.363 . S
C1531 C1537 1.363 . S
C1532 C1533 1.363 . S
C1532 C1537 1.379 . S
C1532 N1539 1.356 . S
C1533 C1532 1.363 . S
C1533 C1536 1.363 . S
N1534 C1536 1.356 . S
N1534 H1546 0.984 . S
N1534 H1547 0.985 . S
N1535 C1537 1.356 . S
N1535 H1540 0.984 . S
N1535 H1541 0.985 . S
C1536 C1530 1.379 . S
C1536 C1533 1.363 . S
C1536 N1534 1.356 . S
C1537 C1531 1.363 . S
C1537 C1532 1.379 . S
C1537 N1535 1.356 . S
N1538 C1530 1.356 . S
N1538 H1544 0.984 . S
N1538 H1545 0.984 . S
N1539 C1532 1.356 . S
N1539 H1542 0.984 . S
N1539 H1543 0.985 . S
H1540 N1535 0.984 . S
H1541 N1535 0.985 . S
H1542 N1539 0.984 . S
H1543 N1539 0.985 . S
H1544 N1538 0.984 . S
H1545 N1538 0.984 . S
H1546 N1534 0.984 . S
H1547 N1534 0.985 . S
C1548 C1549 1.363 . S
C1548 C1554 1.379 . S
C1548 N1556 1.356 . S
C1549 C1548 1.363 . S
C1549 C1555 1.363 . S
C1550 C1551 1.363 . S
C1550 C1555 1.379 . S
C1550 N1557 1.356 . S
C1551 C1550 1.363 . S
C1551 C1554 1.363 . S
N1552 C1554 1.356 . S
N1552 H1564 0.984 . S
N1552 H1565 0.985 . S
N1553 C1555 1.356 . S
N1553 H1558 0.984 . S
N1553 H1559 0.985 . S
C1554 C1548 1.379 . S
C1554 C1551 1.363 . S
C1554 N1552 1.356 . S
C1555 C1549 1.363 . S
C1555 C1550 1.379 . S
C1555 N1553 1.356 . S
N1556 C1548 1.356 . S
N1556 H1562 0.984 . S
N1556 H1563 0.984 . S
N1557 C1550 1.356 . S
N1557 H1560 0.984 . S
N1557 H1561 0.985 . S
H1558 N1553 0.984 . S
H1559 N1553 0.985 . S
H1560 N1557 0.984 . S
H1561 N1557 0.985 . S
H1562 N1556 0.984 . S
H1563 N1556 0.984 . S
H1564 N1552 0.984 . S
H1565 N1552 0.985 . S
C1566 C1567 1.363 . S
C1566 C1572 1.379 . S
C1566 N1574 1.356 . S
C1567 C1566 1.363 . S
C1567 C1573 1.363 . S
C1568 C1569 1.363 . S
C1568 C1573 1.379 . S
C1568 N1575 1.356 . S
C1569 C1568 1.363 . S
C1569 C1572 1.363 . S
N1570 C1572 1.356 . S
N1570 H1582 0.984 . S
N1570 H1583 0.985 . S
N1571 C1573 1.356 . S
N1571 H1576 0.984 . S
N1571 H1577 0.985 . S
C1572 C1566 1.379 . S
C1572 C1569 1.363 . S
C1572 N1570 1.356 . S
C1573 C1567 1.363 . S
C1573 C1568 1.379 . S
C1573 N1571 1.356 . S
N1574 C1566 1.356 . S
N1574 H1580 0.984 . S
N1574 H1581 0.984 . S
N1575 C1568 1.356 . S
N1575 H1578 0.984 . S
N1575 H1579 0.985 . S
H1576 N1571 0.984 . S
H1577 N1571 0.985 . S
H1578 N1575 0.984 . S
H1579 N1575 0.985 . S
H1580 N1574 0.984 . S
H1581 N1574 0.984 . S
H1582 N1570 0.984 . S
H1583 N1570 0.985 . S
C1584 C1585 1.363 . S
C1584 C1590 1.379 . S
C1584 N1592 1.356 . S
C1585 C1584 1.363 . S
C1585 C1591 1.363 . S
C1586 C1587 1.363 . S
C1586 C1591 1.379 . S
C1586 N1593 1.356 . S
C1587 C1586 1.363 . S
C1587 C1590 1.363 . S
N1588 C1590 1.356 . S
N1588 H1600 0.984 . S
N1588 H1601 0.985 . S
N1589 C1591 1.356 . S
N1589 H1594 0.984 . S
N1589 H1595 0.985 . S
C1590 C1584 1.379 . S
C1590 C1587 1.363 . S
C1590 N1588 1.356 . S
C1591 C1585 1.363 . S
C1591 C1586 1.379 . S
C1591 N1589 1.356 . S
N1592 C1584 1.356 . S
N1592 H1598 0.984 . S
N1592 H1599 0.984 . S
N1593 C1586 1.356 . S
N1593 H1596 0.984 . S
N1593 H1597 0.985 . S
H1594 N1589 0.984 . S
H1595 N1589 0.985 . S
H1596 N1593 0.984 . S
H1597 N1593 0.985 . S
H1598 N1592 0.984 . S
H1599 N1592 0.984 . S
H1600 N1588 0.984 . S
H1601 N1588 0.985 . S
C1602 C1603 1.363 . S
C1602 C1608 1.379 . S
C1602 N1610 1.356 . S
C1603 C1602 1.363 . S
C1603 C1609 1.363 . S
C1604 C1605 1.363 . S
C1604 C1609 1.379 . S
C1604 N1611 1.356 . S
C1605 C1604 1.363 . S
C1605 C1608 1.363 . S
N1606 C1608 1.356 . S
N1606 H1618 0.984 1_554 S
N1606 H1619 0.985 . S
N1607 C1609 1.356 . S
N1607 H1612 0.984 . S
N1607 H1613 0.985 . S
C1608 C1602 1.379 . S
C1608 C1605 1.363 . S
C1608 N1606 1.356 . S
C1609 C1603 1.363 . S
C1609 C1604 1.379 . S
C1609 N1607 1.356 . S
N1610 C1602 1.356 . S
N1610 H1616 0.984 1_554 S
N1610 H1617 0.984 . S
N1611 C1604 1.356 . S
N1611 H1614 0.984 . S
N1611 H1615 0.985 . S
H1612 N1607 0.984 . S
H1613 N1607 0.985 . S
H1614 N1611 0.984 . S
H1615 N1611 0.985 . S
H1616 N1610 0.984 1_556 S
H1617 N1610 0.984 . S
H1618 N1606 0.984 1_556 S
H1619 N1606 0.985 . S
C1620 C1621 1.363 . S
C1620 C1626 1.379 . S
C1620 N1628 1.356 . S
C1621 C1620 1.363 . S
C1621 C1627 1.363 1_554 S
C1622 C1623 1.363 1_556 S
C1622 C1627 1.379 . S
C1622 N1629 1.356 . S
C1623 C1622 1.363 1_554 S
C1623 C1626 1.363 . S
N1624 C1626 1.356 . S
N1624 H1636 0.984 . S
N1624 H1637 0.985 . S
N1625 C1627 1.356 . S
N1625 H1630 0.984 . S
N1625 H1631 0.985 . S
C1626 C1620 1.379 . S
C1626 C1623 1.363 . S
C1626 N1624 1.356 . S
C1627 C1621 1.363 1_556 S
C1627 C1622 1.379 . S
C1627 N1625 1.356 . S
N1628 C1620 1.356 . S
N1628 H1634 0.984 . S
N1628 H1635 0.984 . S
N1629 C1622 1.356 . S
N1629 H1632 0.984 . S
N1629 H1633 0.985 . S
H1630 N1625 0.984 . S
H1631 N1625 0.985 . S
H1632 N1629 0.984 . S
H1633 N1629 0.985 . S
H1634 N1628 0.984 . S
H1635 N1628 0.984 . S
H1636 N1624 0.984 . S
H1637 N1624 0.985 . S
C1638 C1639 1.363 . S
C1638 C1644 1.379 . S
C1638 N1646 1.356 . S
C1639 C1638 1.363 . S
C1639 C1645 1.363 1_554 S
C1640 C1641 1.363 1_556 S
C1640 C1645 1.379 . S
C1640 N1647 1.356 . S
C1641 C1640 1.363 1_554 S
C1641 C1644 1.363 . S
N1642 C1644 1.356 . S
N1642 H1654 0.984 . S
N1642 H1655 0.985 . S
N1643 C1645 1.356 . S
N1643 H1648 0.984 . S
N1643 H1649 0.985 . S
C1644 C1638 1.379 . S
C1644 C1641 1.363 . S
C1644 N1642 1.356 . S
C1645 C1639 1.363 1_556 S
C1645 C1640 1.379 . S
C1645 N1643 1.356 . S
N1646 C1638 1.356 . S
N1646 H1652 0.984 . S
N1646 H1653 0.984 . S
N1647 C1640 1.356 . S
N1647 H1650 0.984 . S
N1647 H1651 0.985 . S
H1648 N1643 0.984 . S
H1649 N1643 0.985 . S
H1650 N1647 0.984 . S
H1651 N1647 0.985 . S
H1652 N1646 0.984 . S
H1653 N1646 0.984 . S
H1654 N1642 0.984 . S
H1655 N1642 0.985 . S
C1656 C1657 1.363 . S
C1656 C1662 1.379 . S
C1656 N1664 1.356 . S
C1657 C1656 1.363 . S
C1657 C1663 1.363 1_556 S
C1658 C1659 1.363 1_554 S
C1658 C1663 1.379 . S
C1658 N1665 1.356 . S
C1659 C1658 1.363 1_556 S
C1659 C1662 1.363 . S
N1660 C1662 1.356 . S
N1660 H1672 0.984 . S
N1660 H1673 0.985 . S
N1661 C1663 1.356 . S
N1661 H1666 0.984 . S
N1661 H1667 0.985 . S
C1662 C1656 1.379 . S
C1662 C1659 1.363 . S
C1662 N1660 1.356 . S
C1663 C1657 1.363 1_554 S
C1663 C1658 1.379 . S
C1663 N1661 1.356 . S
N1664 C1656 1.356 . S
N1664 H1670 0.984 . S
N1664 H1671 0.984 . S
N1665 C1658 1.356 . S
N1665 H1668 0.984 . S
N1665 H1669 0.985 . S
H1666 N1661 0.984 . S
H1667 N1661 0.985 . S
H1668 N1665 0.984 . S
H1669 N1665 0.985 . S
H1670 N1664 0.984 . S
H1671 N1664 0.984 . S
H1672 N1660 0.984 . S
H1673 N1660 0.985 . S
C1674 C1675 1.363 . S
C1674 C1680 1.379 . S
C1674 N1682 1.356 . S
C1675 C1674 1.363 . S
C1675 C1681 1.363 1_556 S
C1676 C1677 1.363 1_554 S
C1676 C1681 1.379 . S
C1676 N1683 1.356 . S
C1677 C1676 1.363 1_556 S
C1677 C1680 1.363 . S
N1678 C1680 1.356 . S
N1678 H1690 0.984 . S
N1678 H1691 0.985 . S
N1679 C1681 1.356 . S
N1679 H1684 0.984 . S
N1679 H1685 0.985 . S
C1680 C1674 1.379 . S
C1680 C1677 1.363 . S
C1680 N1678 1.356 . S
C1681 C1675 1.363 1_554 S
C1681 C1676 1.379 . S
C1681 N1679 1.356 . S
N1682 C1674 1.356 . S
N1682 H1688 0.984 . S
N1682 H1689 0.984 . S
N1683 C1676 1.356 . S
N1683 H1686 0.984 . S
N1683 H1687 0.985 . S
H1684 N1679 0.984 . S
H1685 N1679 0.985 . S
H1686 N1683 0.984 . S
H1687 N1683 0.985 . S
H1688 N1682 0.984 . S
H1689 N1682 0.984 . S
H1690 N1678 0.984 . S
H1691 N1678 0.985 . S
C1692 C1693 1.363 . S
C1692 C1698 1.379 . S
C1692 N1700 1.356 . S
C1693 C1692 1.363 . S
C1693 C1699 1.363 . S
C1694 C1695 1.363 . S
C1694 C1699 1.379 . S
C1694 N1701 1.356 . S
C1695 C1694 1.363 . S
C1695 C1698 1.363 . S
N1696 C1698 1.356 . S
N1696 H1708 0.984 1_556 S
N1696 H1709 0.985 . S
N1697 C1699 1.356 . S
N1697 H1702 0.984 . S
N1697 H1703 0.985 . S
C1698 C1692 1.379 . S
C1698 C1695 1.363 . S
C1698 N1696 1.356 . S
C1699 C1693 1.363 . S
C1699 C1694 1.379 . S
C1699 N1697 1.356 . S
N1700 C1692 1.356 . S
N1700 H1706 0.984 1_556 S
N1700 H1707 0.984 . S
N1701 C1694 1.356 . S
N1701 H1704 0.984 . S
N1701 H1705 0.985 . S
H1702 N1697 0.984 . S
H1703 N1697 0.985 . S
H1704 N1701 0.984 . S
H1705 N1701 0.985 . S
H1706 N1700 0.984 1_554 S
H1707 N1700 0.984 . S
H1708 N1696 0.984 1_554 S
H1709 N1696 0.985 . S
C1710 C1711 1.363 . S
C1710 C1716 1.379 . S
C1710 N1718 1.356 . S
C1711 C1710 1.363 . S
C1711 C1717 1.363 . S
C1712 C1713 1.363 . S
C1712 C1717 1.379 . S
C1712 N1719 1.356 . S
C1713 C1712 1.363 . S
C1713 C1716 1.363 . S
N1714 C1716 1.356 . S
N1714 H1726 0.984 . S
N1714 H1727 0.985 . S
N1715 C1717 1.356 . S
N1715 H1720 0.984 . S
N1715 H1721 0.985 . S
C1716 C1710 1.379 . S
C1716 C1713 1.363 . S
C1716 N1714 1.356 . S
C1717 C1711 1.363 . S
C1717 C1712 1.379 . S
C1717 N1715 1.356 . S
N1718 C1710 1.356 . S
N1718 H1724 0.984 . S
N1718 H1725 0.984 . S
N1719 C1712 1.356 . S
N1719 H1722 0.984 . S
N1719 H1723 0.985 . S
H1720 N1715 0.984 . S
H1721 N1715 0.985 . S
H1722 N1719 0.984 . S
H1723 N1719 0.985 . S
H1724 N1718 0.984 . S
H1725 N1718 0.984 . S
H1726 N1714 0.984 . S
H1727 N1714 0.985 . S
C1728 C1729 1.363 . S
C1728 C1734 1.379 . S
C1728 N1736 1.356 . S
C1729 C1728 1.363 . S
C1729 C1735 1.363 . S
C1730 C1731 1.363 . S
C1730 C1735 1.379 . S
C1730 N1737 1.356 . S
C1731 C1730 1.363 . S
C1731 C1734 1.363 . S
N1732 C1734 1.356 . S
N1732 H1744 0.984 . S
N1732 H1745 0.985 . S
N1733 C1735 1.356 . S
N1733 H1738 0.984 . S
N1733 H1739 0.985 . S
C1734 C1728 1.379 . S
C1734 C1731 1.363 . S
C1734 N1732 1.356 . S
C1735 C1729 1.363 . S
C1735 C1730 1.379 . S
C1735 N1733 1.356 . S
N1736 C1728 1.356 . S
N1736 H1742 0.984 . S
N1736 H1743 0.984 . S
N1737 C1730 1.356 . S
N1737 H1740 0.984 . S
N1737 H1741 0.985 . S
H1738 N1733 0.984 . S
H1739 N1733 0.985 . S
H1740 N1737 0.984 . S
H1741 N1737 0.985 . S
H1742 N1736 0.984 . S
H1743 N1736 0.984 . S
H1744 N1732 0.984 . S
H1745 N1732 0.985 . S
C1746 C1747 1.363 . S
C1746 C1752 1.379 . S
C1746 N1754 1.356 . S
C1747 C1746 1.363 . S
C1747 C1753 1.363 . S
C1748 C1749 1.363 . S
C1748 C1753 1.379 . S
C1748 N1755 1.356 . S
C1749 C1748 1.363 . S
C1749 C1752 1.363 . S
N1750 C1752 1.356 . S
N1750 H1762 0.984 . S
N1750 H1763 0.985 . S
N1751 C1753 1.356 . S
N1751 H1756 0.984 . S
N1751 H1757 0.985 . S
C1752 C1746 1.379 . S
C1752 C1749 1.363 . S
C1752 N1750 1.356 . S
C1753 C1747 1.363 . S
C1753 C1748 1.379 . S
C1753 N1751 1.356 . S
N1754 C1746 1.356 . S
N1754 H1760 0.984 . S
N1754 H1761 0.984 . S
N1755 C1748 1.356 . S
N1755 H1758 0.984 . S
N1755 H1759 0.985 . S
H1756 N1751 0.984 . S
H1757 N1751 0.985 . S
H1758 N1755 0.984 . S
H1759 N1755 0.985 . S
H1760 N1754 0.984 . S
H1761 N1754 0.984 . S
H1762 N1750 0.984 . S
H1763 N1750 0.985 . S
C469 C75 1.625 . S
C471 C10 1.625 . S
C487 C43 1.625 . S
C489 C23 1.625 . S
C505 C30 1.625 . S
C507 C62 1.625 . S
C523 C82 1.625 . S
C525 C147 1.625 . S
C541 C101 1.625 . S
C543 C121 1.625 . S
C559 C140 1.625 . S
C561 C114 1.625 . S
C577 C160 1.625 . S
C579 C225 1.625 . S
C595 C173 1.625 . S
C597 C199 1.625 . S
C613 C192 1.625 . S
C615 C218 1.625 . S
C631 C309 1.625 . S
C633 C244 1.625 . S
C649 C257 1.625 . S
C651 C283 1.625 . S
C667 C290 1.625 . S
C669 C264 1.625 . S
C685 C381 1.625 . S
C687 C316 1.625 . S
C703 C355 1.625 . S
C705 C335 1.625 . S
C721 C368 1.625 . S
C723 C348 1.625 . S
C739 C400 1.625 . S
C741 C465 1.625 . S
C757 C413 1.625 . S
C759 C439 1.625 . S
C775 C426 1.625 . S
C777 C446 1.625 . S
C793 C69 1.510 . S
C795 C4 1.510 . S
C811 C17 1.510 . S
C813 C49 1.510 . S
C829 C56 1.509 . S
C831 C36 1.509 . S
C847 C88 1.510 . S
C849 C153 1.510 . S
C865 C95 1.510 . S
C867 C127 1.510 . S
C883 C134 1.509 . S
C885 C108 1.509 . S
C901 C166 1.510 . S
C903 C231 1.510 . S
C919 C205 1.510 . S
C921 C179 1.510 . S
C937 C212 1.509 . S
C939 C186 1.509 . S
C955 C238 1.510 . S
C957 C303 1.510 . S
C973 C251 1.510 . S
C975 C277 1.510 . S
C991 C296 1.509 . S
C993 C270 1.509 . S
C1009 C387 1.510 . S
C1011 C322 1.510 . S
C1027 C329 1.510 . S
C1029 C361 1.510 . S
C1045 C342 1.509 . S
C1047 C374 1.509 . S
C1063 C459 1.510 . S
C1065 C394 1.510 . S
C1081 C433 1.510 . S
C1083 C407 1.510 . S
C1099 C452 1.509 . S
C1101 C420 1.509 . S
C1117 C211 1.682 . S
C1119 C3 1.682 . S
C1135 C226 1.683 . S
C1137 C16 1.683 . S
C1153 C200 1.682 . S
C1155 C31 1.682 . S
C1171 C44 1.682 . S
C1173 C341 1.682 . S
C1189 C55 1.682 . S
C1191 C317 1.682 . S
C1207 C68 1.682 . S
C1209 C328 1.682 . S
C1225 C83 1.682 . S
C1227 C447 1.682 . S
C1243 C94 1.683 . S
C1245 C458 1.683 . S
C1261 C107 1.682 . S
C1263 C432 1.682 . S
C1279 C122 1.682 . S
C1281 C265 1.682 . S
C1297 C237 1.682 . S
C1299 C133 1.682 . S
C1315 C250 1.682 . S
C1317 C148 1.682 . S
C1333 C369 1.682 . S
C1335 C161 1.682 . S
C1351 C174 1.682 . S
C1353 C382 1.682 . S
C1369 C185 1.682 . S
C1371 C356 1.682 . S
C1387 C276 1.682 . S
C1389 C419 1.682 . S
C1405 C291 1.682 . S
C1407 C393 1.682 . S
C1423 C406 1.682 . S
C1425 C302 1.682 . S
C1441 C5 1.385 . S
C1443 C135 1.385 . S
C1459 C146 1.386 . S
C1461 C18 1.386 . S
C1477 C120 1.385 . S
C1479 C29 1.385 . S
C1495 C42 1.385 . S
C1497 C109 1.385 . S
C1513 C57 1.385 . S
C1515 C81 1.385 . S
C1531 C70 1.386 . S
C1533 C96 1.386 . S
C1549 C159 1.385 . S
C1551 C289 1.385 . S
C1567 C304 1.386 . S
C1569 C172 1.386 . S
C1585 C278 1.385 . S
C1587 C187 1.385 . S
C1603 C198 1.385 . S
C1605 C263 1.385 . S
C1621 C213 1.385 . S
C1623 C239 1.385 . S
C1639 C252 1.386 . S
C1641 C224 1.386 . S
C1657 C315 1.385 . S
C1659 C445 1.385 . S
C1675 C460 1.386 . S
C1677 C330 1.386 . S
C1693 C343 1.385 . S
C1695 C434 1.385 . S
C1711 C354 1.385 . S
C1713 C421 1.385 . S
C1729 C395 1.385 . S
C1731 C367 1.385 . S
C1747 C380 1.386 . S
C1749 C408 1.386 . S
