# Generated by pormake.
# Topology uop, (4)-cn, num edge types: 1
# Building blocks:
#     Node 0, Type 0, BuildingBlock: ICAMEG_clean_sbu_1, # of connection points: 4
#     Node 1, Type 0, BuildingBlock: ICAMEG_clean_sbu_1, # of connection points: 4
#     Node 2, Type 0, BuildingBlock: ICAMEG_clean_sbu_1, # of connection points: 4
#     Node 3, Type 0, BuildingBlock: ICAMEG_clean_sbu_1, # of connection points: 4
#     Node 4, Type 0, BuildingBlock: ICAMEG_clean_sbu_1, # of connection points: 4
#     Node 5, Type 0, BuildingBlock: ICAMEG_clean_sbu_1, # of connection points: 4
#     Node 6, Type 0, BuildingBlock: ICAMEG_clean_sbu_1, # of connection points: 4
#     Node 7, Type 0, BuildingBlock: ICAMEG_clean_sbu_1, # of connection points: 4
#     Node 8, Type 0, BuildingBlock: ICAMEG_clean_sbu_1, # of connection points: 4
#     Node 9, Type 0, BuildingBlock: ICAMEG_clean_sbu_1, # of connection points: 4
#     Node 10, Type 0, BuildingBlock: ICAMEG_clean_sbu_1, # of connection points: 4
#     Node 11, Type 0, BuildingBlock: ICAMEG_clean_sbu_1, # of connection points: 4
#     Edge 12, Type (0, 0), BuildingBlock: ZUJKAS_clean_linker_0, # of connection points: 2
#     Edge 13, Type (0, 0), BuildingBlock: ZUJKAS_clean_linker_0, # of connection points: 2
#     Edge 14, Type (0, 0), BuildingBlock: ZUJKAS_clean_linker_0, # of connection points: 2
#     Edge 15, Type (0, 0), BuildingBlock: ZUJKAS_clean_linker_0, # of connection points: 2
#     Edge 16, Type (0, 0), BuildingBlock: ZUJKAS_clean_linker_0, # of connection points: 2
#     Edge 17, Type (0, 0), BuildingBlock: ZUJKAS_clean_linker_0, # of connection points: 2
#     Edge 18, Type (0, 0), BuildingBlock: ZUJKAS_clean_linker_0, # of connection points: 2
#     Edge 19, Type (0, 0), BuildingBlock: ZUJKAS_clean_linker_0, # of connection points: 2
#     Edge 20, Type (0, 0), BuildingBlock: ZUJKAS_clean_linker_0, # of connection points: 2
#     Edge 21, Type (0, 0), BuildingBlock: ZUJKAS_clean_linker_0, # of connection points: 2
#     Edge 22, Type (0, 0), BuildingBlock: ZUJKAS_clean_linker_0, # of connection points: 2
#     Edge 23, Type (0, 0), BuildingBlock: ZUJKAS_clean_linker_0, # of connection points: 2
#     Edge 24, Type (0, 0), BuildingBlock: ZUJKAS_clean_linker_0, # of connection points: 2
#     Edge 25, Type (0, 0), BuildingBlock: ZUJKAS_clean_linker_0, # of connection points: 2
#     Edge 26, Type (0, 0), BuildingBlock: ZUJKAS_clean_linker_0, # of connection points: 2
#     Edge 27, Type (0, 0), BuildingBlock: ZUJKAS_clean_linker_0, # of connection points: 2
#     Edge 28, Type (0, 0), BuildingBlock: ZUJKAS_clean_linker_0, # of connection points: 2
#     Edge 29, Type (0, 0), BuildingBlock: ZUJKAS_clean_linker_0, # of connection points: 2
#     Edge 30, Type (0, 0), BuildingBlock: ZUJKAS_clean_linker_0, # of connection points: 2
#     Edge 31, Type (0, 0), BuildingBlock: ZUJKAS_clean_linker_0, # of connection points: 2
#     Edge 32, Type (0, 0), BuildingBlock: ZUJKAS_clean_linker_0, # of connection points: 2
#     Edge 33, Type (0, 0), BuildingBlock: ZUJKAS_clean_linker_0, # of connection points: 2
#     Edge 34, Type (0, 0), BuildingBlock: ZUJKAS_clean_linker_0, # of connection points: 2
#     Edge 35, Type (0, 0), BuildingBlock: ZUJKAS_clean_linker_0, # of connection points: 2
# Relax obj value: 0.105
# Max RMSD: 0.103
# Mean RMSD: 0.103
data_MOF--net-uop--node1-ICAMEG_clean_sbu_1--edge1-ZUJKAS_clean_linker_0
_symmetry_space_group_name_H-M    P1
_symmetry_Int_Tables_number       1
_symmetry_cell_setting            triclinic
loop_
_symmetry_equiv_pos_as_xyz
'x, y, z'
_cell_length_a     45.429167
_cell_length_b     45.436705
_cell_length_c     56.213372
_cell_angle_alpha  90.003606
_cell_angle_beta   90.000448
_cell_angle_gamma 119.99887
loop_
_atom_site_label
_atom_site_type_symbol
_atom_site_fract_x
_atom_site_fract_y
_atom_site_fract_z
_atom_type_partial_charge
Co0 Co 0.25812 0.42936 0.23229 0.0
Co1 Co 0.24729 0.37236 0.18774 0.0
O2 O 0.23731 0.40504 0.20293 0.0
C3 C 0.27331 0.48397 0.19772 0.0
O4 O 0.28332 0.46848 0.18282 0.0
C5 C 0.17444 0.33428 0.19823 0.0
O6 O 0.18298 0.34735 0.21964 0.0
O7 O 0.24412 0.34916 0.21849 0.0
O8 O 0.254 0.38768 0.24697 0.0
H9 H 0.30632 0.3045 0.1783 0.0
H10 H 0.19883 0.43104 0.21186 0.0
O11 O 0.26246 0.47164 0.21829 0.0
H12 H 0.16262 0.38181 0.29198 0.0
H13 H 0.27807 0.51282 0.29787 0.0
H14 H 0.30984 0.43162 0.26554 0.0
H15 H 0.22059 0.40015 0.27769 0.0
H16 H 0.25133 0.48073 0.26117 0.0
O17 O 0.19735 0.34122 0.18262 0.0
H18 H 0.29414 0.34609 0.1975 0.0
H19 H 0.21977 0.32807 0.14499 0.0
H20 H 0.33703 0.46297 0.3024 0.0
H21 H 0.14069 0.41328 0.22549 0.0
H22 H 0.32116 0.50392 0.31879 0.0
H23 H 0.1222 0.38831 0.26578 0.0
O24 O 0.3043 0.44229 0.22033 0.0
H25 H 0.20853 0.42438 0.12509 0.0
H26 H 0.29781 0.39841 0.14822 0.0
H27 H 0.30312 0.4282 0.1104 0.0
H28 H 0.25824 0.44133 0.09861 0.0
H29 H 0.20436 0.39486 0.16284 0.0
H30 H 0.23093 0.28606 0.12531 0.0
H31 H 0.27458 0.27416 0.14193 0.0
O32 O 0.2971 0.40305 0.19294 0.0
C33 C 0.2481 0.35847 0.2402 0.0
C34 C 0.28732 0.30955 0.17084 0.0
C35 C 0.24497 0.29917 0.14112 0.0
N36 N 0.25649 0.33969 0.17224 0.0
C37 C 0.2804 0.33315 0.18159 0.0
C38 C 0.23871 0.32292 0.15235 0.0
C39 C 0.26948 0.29251 0.15045 0.0
C40 C 0.19109 0.42051 0.22951 0.0
N41 N 0.21311 0.41668 0.24398 0.0
C42 C 0.15809 0.41038 0.23709 0.0
C43 C 0.14772 0.39632 0.25968 0.0
C44 C 0.17037 0.39264 0.27438 0.0
C45 C 0.20315 0.40299 0.26618 0.0
C46 C 0.28515 0.495 0.29093 0.0
C47 C 0.30266 0.44924 0.27266 0.0
C48 C 0.27015 0.47682 0.27013 0.0
N49 N 0.27884 0.45414 0.26134 0.0
C50 C 0.31821 0.46699 0.29349 0.0
C51 C 0.30932 0.48999 0.30266 0.0
C52 C 0.31591 0.42928 0.20552 0.0
C53 C 0.2282 0.41871 0.13 0.0
C54 C 0.27821 0.40409 0.14323 0.0
C55 C 0.28133 0.42091 0.12178 0.0
C56 C 0.25612 0.42826 0.11516 0.0
N57 N 0.2507 0.39475 0.15765 0.0
C58 C 0.22591 0.40188 0.1513 0.0
Co59 Co 0.82841 0.26217 0.55963 0.0
Co60 Co 0.8768 0.24717 0.51921 0.0
O61 O 0.83324 0.23909 0.53191 0.0
C62 C 0.79156 0.27544 0.5218 0.0
O63 O 0.81698 0.28226 0.50743 0.0
C64 C 0.83839 0.1746 0.53053 0.0
O65 O 0.83118 0.18384 0.55081 0.0
O66 O 0.89324 0.24388 0.55138 0.0
O67 O 0.86471 0.2586 0.57683 0.0
H68 H 0.00403 0.30218 0.5159 0.0
H69 H 0.76738 0.20241 0.53975 0.0
O70 O 0.79189 0.26644 0.54318 0.0
H71 H 0.77625 0.17108 0.62234 0.0
H72 H 0.76234 0.28757 0.62008 0.0
H73 H 0.87654 0.31652 0.59197 0.0
H74 H 0.81781 0.2275 0.60657 0.0
H75 H 0.76913 0.25785 0.58563 0.0
O76 O 0.85705 0.19691 0.51526 0.0
H77 H 0.94923 0.29236 0.53185 0.0
H78 H 0.89597 0.21721 0.47912 0.0
H79 H 0.87093 0.3467 0.62661 0.0
H80 H 0.72507 0.14583 0.55489 0.0
H81 H 0.81349 0.33225 0.64088 0.0
H82 H 0.72945 0.12982 0.59643 0.0
O83 O 0.86267 0.30703 0.54671 0.0
H84 H 0.79219 0.20898 0.45234 0.0
H85 H 0.90631 0.29641 0.47907 0.0
H86 H 0.88596 0.30147 0.43944 0.0
H87 H 0.82853 0.25752 0.42583 0.0
H88 H 0.81344 0.20505 0.49191 0.0
H89 H 0.95017 0.226 0.46271 0.0
H90 H 0.0047 0.26885 0.48108 0.0
O91 O 0.89717 0.2975 0.52322 0.0
C92 C 0.8871 0.25038 0.57225 0.0
C93 C 0.98044 0.28352 0.50769 0.0
C94 C 0.95021 0.24073 0.47786 0.0
N95 N 0.9195 0.25447 0.50628 0.0
C96 C 0.94935 0.27793 0.51659 0.0
C97 C 0.91961 0.23582 0.48725 0.0
C98 C 0.9808 0.26479 0.48817 0.0
C99 C 0.76921 0.19576 0.55793 0.0
N100 N 0.79491 0.21829 0.57229 0.0
C101 C 0.74527 0.16364 0.56638 0.0
C102 C 0.74778 0.15465 0.58968 0.0
C103 C 0.77405 0.17778 0.60422 0.0
C104 C 0.79755 0.20966 0.59516 0.0
C105 C 0.7875 0.29402 0.61408 0.0
C106 C 0.85146 0.30993 0.59819 0.0
C107 C 0.7915 0.27731 0.59456 0.0
N108 N 0.8232 0.28521 0.58697 0.0
C109 C 0.84844 0.32718 0.61776 0.0
C110 C 0.81621 0.31909 0.62574 0.0
C111 C 0.88884 0.31737 0.53349 0.0
C112 C 0.8173 0.22824 0.45804 0.0
C113 C 0.88126 0.27722 0.4733 0.0
C114 C 0.8699 0.28019 0.45082 0.0
C115 C 0.83768 0.25551 0.44319 0.0
N116 N 0.86113 0.25037 0.48774 0.0
C117 C 0.82952 0.22607 0.48039 0.0
Co118 Co 0.56869 0.83236 0.89554 0.0
Co119 Co 0.62558 0.87719 0.8508 0.0
O120 O 0.59382 0.83487 0.86681 0.0
C121 C 0.51551 0.78714 0.86191 0.0
O122 O 0.53035 0.81106 0.84579 0.0
C123 C 0.66565 0.84455 0.86161 0.0
O124 O 0.65458 0.84195 0.88351 0.0
O125 O 0.64936 0.89821 0.88121 0.0
O126 O 0.60878 0.87307 0.90904 0.0
H127 H 0.69194 0.00376 0.83927 0.0
H128 H 0.57139 0.77166 0.87942 0.0
O129 O 0.52782 0.79142 0.88277 0.0
H130 H 0.62231 0.79713 0.95959 0.0
H131 H 0.48726 0.77144 0.96267 0.0
H132 H 0.56144 0.88252 0.92495 0.0
H133 H 0.60032 0.83209 0.94203 0.0
H134 H 0.52041 0.77559 0.92679 0.0
O135 O 0.6569 0.85868 0.84571 0.0
H136 H 0.65136 0.95046 0.85947 0.0
H137 H 0.66881 0.89299 0.80756 0.0
H138 H 0.52897 0.87959 0.96092 0.0
H139 H 0.59286 0.73589 0.89638 0.0
H140 H 0.49155 0.82373 0.98003 0.0
H141 H 0.61865 0.74863 0.93671 0.0
O142 O 0.55285 0.8618 0.88099 0.0
H143 H 0.57314 0.78438 0.78956 0.0
H144 H 0.59794 0.89978 0.81111 0.0
H145 H 0.56737 0.87381 0.77379 0.0
H146 H 0.55482 0.81572 0.7628 0.0
H147 H 0.6034 0.81118 0.82682 0.0
H148 H 0.70981 0.94567 0.78689 0.0
H149 H 0.72147 0.00155 0.8027 0.0
O150 O 0.59453 0.89609 0.85582 0.0
C151 C 0.63866 0.89518 0.90253 0.0
C152 C 0.68698 0.97956 0.83216 0.0
C153 C 0.69704 0.94696 0.80278 0.0
N154 N 0.65753 0.91868 0.83457 0.0
C155 C 0.66396 0.94931 0.84348 0.0
C156 C 0.67387 0.91723 0.81458 0.0
C157 C 0.70357 0.9783 0.81166 0.0
C158 C 0.58224 0.77712 0.89709 0.0
N159 N 0.58441 0.80379 0.90977 0.0
C160 C 0.59449 0.75688 0.90656 0.0
C161 C 0.60901 0.76408 0.92917 0.0
C162 C 0.61109 0.79129 0.94201 0.0
C163 C 0.59863 0.81103 0.93196 0.0
C164 C 0.50356 0.79594 0.95455 0.0
C165 C 0.54541 0.85816 0.93328 0.0
C166 C 0.52234 0.79844 0.93422 0.0
N167 N 0.54311 0.82932 0.92395 0.0
C168 C 0.527 0.85664 0.95359 0.0
C169 C 0.50598 0.82529 0.96428 0.0
C170 C 0.56666 0.88707 0.86681 0.0
C171 C 0.57855 0.80975 0.79413 0.0
C172 C 0.5925 0.87445 0.80648 0.0
C173 C 0.57524 0.85991 0.7853 0.0
C174 C 0.56823 0.82732 0.77914 0.0
N175 N 0.60257 0.85707 0.82108 0.0
C176 C 0.5958 0.82511 0.81515 0.0
Co177 Co 0.73437 0.56953 0.2289 0.0
Co178 Co 0.74805 0.62725 0.18431 0.0
O179 O 0.75683 0.59397 0.19992 0.0
C180 C 0.72214 0.51542 0.19477 0.0
O181 O 0.71387 0.53144 0.17906 0.0
C182 C 0.82093 0.66374 0.19475 0.0
O183 O 0.81212 0.65155 0.21636 0.0
O184 O 0.75232 0.65127 0.21485 0.0
O185 O 0.73697 0.61095 0.24285 0.0
H186 H 0.69276 0.69847 0.174 0.0
H187 H 0.79506 0.56795 0.2113 0.0
O188 O 0.73121 0.52737 0.21564 0.0
H189 H 0.82606 0.61882 0.29135 0.0
H190 H 0.71152 0.48676 0.29553 0.0
H191 H 0.67965 0.56594 0.25963 0.0
H192 H 0.76901 0.6 0.27494 0.0
H193 H 0.7404 0.51905 0.25934 0.0
O194 O 0.79816 0.65695 0.17904 0.0
H195 H 0.70326 0.65606 0.19371 0.0
H196 H 0.77646 0.67046 0.14117 0.0
H197 H 0.65028 0.53437 0.29592 0.0
H198 H 0.85233 0.58623 0.22709 0.0
H199 H 0.6662 0.49445 0.31412 0.0
H200 H 0.86818 0.612 0.26735 0.0
O201 O 0.68911 0.55627 0.21528 0.0
H202 H 0.78386 0.57178 0.12229 0.0
H203 H 0.69726 0.60179 0.14493 0.0
H204 H 0.69072 0.57089 0.10744 0.0
H205 H 0.73424 0.55571 0.0959 0.0
H206 H 0.78928 0.60245 0.15971 0.0
H207 H 0.76698 0.71325 0.12099 0.0
H208 H 0.72476 0.72739 0.13737 0.0
O209 O 0.69786 0.59794 0.18964 0.0
C210 C 0.74544 0.64099 0.2363 0.0
C211 C 0.71113 0.69244 0.16665 0.0
C212 C 0.75283 0.70077 0.13691 0.0
N213 N 0.7402 0.66059 0.16846 0.0
C214 C 0.7171 0.66838 0.17768 0.0
C215 C 0.75813 0.67658 0.14843 0.0
C216 C 0.72912 0.70868 0.14611 0.0
C217 C 0.80164 0.57877 0.22895 0.0
N218 N 0.77866 0.58271 0.24223 0.0
C219 C 0.83416 0.58922 0.23775 0.0
C220 C 0.84305 0.60373 0.26032 0.0
C221 C 0.81944 0.60759 0.27379 0.0
C222 C 0.78719 0.59693 0.26439 0.0
C223 C 0.70442 0.50416 0.28781 0.0
C224 C 0.68687 0.5488 0.26755 0.0
C225 C 0.72065 0.52247 0.26731 0.0
N226 N 0.71195 0.54462 0.25755 0.0
C227 C 0.67008 0.53091 0.28805 0.0
C228 C 0.679 0.50849 0.29823 0.0
C229 C 0.67833 0.57073 0.20112 0.0
C230 C 0.76478 0.57834 0.12709 0.0
C231 C 0.71627 0.59522 0.14006 0.0
C232 C 0.71247 0.57778 0.11878 0.0
C233 C 0.73691 0.56929 0.11231 0.0
N234 N 0.74371 0.60405 0.15444 0.0
C235 C 0.76779 0.59583 0.14821 0.0
Co236 Co 0.16593 0.73445 0.56554 0.0
Co237 Co 0.12199 0.749 0.52139 0.0
O238 O 0.16395 0.75794 0.53716 0.0
C239 C 0.20871 0.72397 0.53115 0.0
O240 O 0.18393 0.71452 0.51568 0.0
C241 C 0.15608 0.82125 0.53383 0.0
O242 O 0.15843 0.81152 0.55538 0.0
O243 O 0.10112 0.75107 0.55207 0.0
O244 O 0.12639 0.73546 0.57969 0.0
H245 H 0.99557 0.69164 0.50962 0.0
H246 H 0.22771 0.79674 0.5492 0.0
O247 O 0.20575 0.73301 0.55202 0.0
H248 H 0.20551 0.82304 0.63008 0.0
H249 H 0.22604 0.71015 0.63127 0.0
H250 H 0.11501 0.67785 0.59514 0.0
H251 H 0.16856 0.76655 0.61241 0.0
H252 H 0.22248 0.74026 0.59584 0.0
O253 O 0.14159 0.79924 0.51743 0.0
H254 H 0.0484 0.70234 0.52958 0.0
H255 H 0.10731 0.77904 0.4791 0.0
H256 H 0.11736 0.64722 0.63067 0.0
H257 H 0.26543 0.85349 0.56625 0.0
H258 H 0.17319 0.66335 0.64898 0.0
H259 H 0.25434 0.86697 0.60694 0.0
O260 O 0.13481 0.68961 0.55096 0.0
H261 H 0.21497 0.78992 0.46026 0.0
H262 H 0.09855 0.70043 0.48068 0.0
H263 H 0.12422 0.69664 0.44297 0.0
H264 H 0.18283 0.74164 0.43254 0.0
H265 H 0.18843 0.79258 0.49787 0.0
H266 H 0.05512 0.7694 0.4587 0.0
H267 H -0.00125 0.72532 0.47391 0.0
O268 O 0.10207 0.69873 0.52539 0.0
C269 C 0.1044 0.7435 0.57336 0.0
C270 C 0.01998 0.71084 0.50277 0.0
C271 C 0.0534 0.75451 0.47421 0.0
N272 N 0.08087 0.74107 0.50538 0.0
C273 C 0.04997 0.71693 0.51396 0.0
C274 C 0.08286 0.75991 0.48586 0.0
C275 C 0.02179 0.72977 0.48275 0.0
C276 C 0.22295 0.8023 0.56702 0.0
N277 N 0.1961 0.7783 0.57984 0.0
C278 C 0.2443 0.83452 0.57654 0.0
C279 C 0.23803 0.84209 0.59935 0.0
C280 C 0.21063 0.81745 0.61234 0.0
C281 C 0.18977 0.78552 0.60223 0.0
C282 C 0.20155 0.70296 0.6235 0.0
C283 C 0.13937 0.68517 0.60312 0.0
C284 C 0.19939 0.71988 0.60343 0.0
N285 N 0.16853 0.71105 0.5936 0.0
C286 C 0.14055 0.66766 0.62318 0.0
C287 C 0.17189 0.6767 0.63343 0.0
C288 C 0.10998 0.67907 0.53644 0.0
C289 C 0.18938 0.77021 0.46458 0.0
C290 C 0.12409 0.72007 0.47629 0.0
C291 C 0.13847 0.71782 0.4549 0.0
C292 C 0.17135 0.74309 0.44905 0.0
N293 N 0.14192 0.74679 0.49141 0.0
C294 C 0.17417 0.77165 0.48581 0.0
Co295 Co 0.42753 0.16508 0.8968 0.0
Co296 Co 0.3681 0.12054 0.85319 0.0
O297 O 0.40219 0.16278 0.86821 0.0
C298 C 0.48069 0.20549 0.86162 0.0
O299 O 0.46378 0.18102 0.84621 0.0
C300 C 0.3322 0.15727 0.86445 0.0
O301 O 0.34567 0.16151 0.88571 0.0
O302 O 0.34526 0.10134 0.88419 0.0
O303 O 0.38627 0.1272 0.91162 0.0
H304 H 0.29613 0.99392 0.84405 0.0
H305 H 0.42969 0.22743 0.87878 0.0
O306 O 0.46956 0.20323 0.8827 0.0
H307 H 0.38205 0.21072 0.95972 0.0
H308 H 0.5132 0.22568 0.96178 0.0
H309 H 0.43095 0.11419 0.9279 0.0
H310 H 0.39924 0.17124 0.94327 0.0
H311 H 0.47987 0.22194 0.92609 0.0
O312 O 0.33827 0.14091 0.84863 0.0
H313 H 0.33947 0.04708 0.86298 0.0
H314 H 0.32313 0.10518 0.81095 0.0
H315 H 0.46354 0.11674 0.96371 0.0
H316 H 0.41305 0.26766 0.89461 0.0
H317 H 0.50502 0.17281 0.98088 0.0
H318 H 0.38891 0.25934 0.93532 0.0
O319 O 0.43959 0.13214 0.88321 0.0
H320 H 0.42129 0.21083 0.79031 0.0
H321 H 0.3917 0.09442 0.81315 0.0
H322 H 0.42107 0.11812 0.77508 0.0
H323 H 0.43603 0.17673 0.76344 0.0
H324 H 0.39214 0.18622 0.82831 0.0
H325 H 0.27939 0.05265 0.79156 0.0
H326 H 0.26576 0.99652 0.80807 0.0
O327 O 0.39743 0.09964 0.85777 0.0
C328 C 0.35604 0.10547 0.90554 0.0
C329 C 0.30192 0.01822 0.83664 0.0
C330 C 0.2925 0.05119 0.80719 0.0
N331 N 0.33401 0.07915 0.83794 0.0
C332 C 0.32651 0.04839 0.84724 0.0
C333 C 0.31723 0.08083 0.81827 0.0
C334 C 0.28487 0.0197 0.81647 0.0
C335 C 0.41957 0.22387 0.89661 0.0
N336 N 0.41563 0.19714 0.91013 0.0
C337 C 0.41005 0.24664 0.90544 0.0
C338 C 0.39645 0.24192 0.92827 0.0
C339 C 0.39258 0.21464 0.94196 0.0
C340 C 0.40231 0.19234 0.93254 0.0
C341 C 0.49514 0.2011 0.9545 0.0
C342 C 0.44879 0.13867 0.93537 0.0
C343 C 0.47624 0.19883 0.93428 0.0
N344 N 0.45327 0.16786 0.92507 0.0
C345 C 0.46724 0.13996 0.9556 0.0
C346 C 0.49053 0.17143 0.96521 0.0
C347 C 0.42472 0.10699 0.869 0.0
C348 C 0.41481 0.18523 0.79516 0.0
C349 C 0.39819 0.11996 0.80823 0.0
C350 C 0.41476 0.13322 0.78663 0.0
C351 C 0.42312 0.1661 0.7801 0.0
N352 N 0.39008 0.13887 0.82288 0.0
C353 C 0.39819 0.17111 0.8166 0.0
Co354 Co 0.56672 0.7347 0.43509 0.0
Co355 Co 0.62669 0.74745 0.47771 0.0
O356 O 0.59222 0.75617 0.46398 0.0
C357 C 0.51324 0.72009 0.47057 0.0
O358 O 0.52879 0.70971 0.48513 0.0
C359 C 0.66114 0.82071 0.46924 0.0
O360 O 0.64687 0.81286 0.44816 0.0
O361 O 0.6495 0.75377 0.44641 0.0
O362 O 0.60772 0.73831 0.41955 0.0
H363 H 0.69989 0.6936 0.48214 0.0
H364 H 0.56472 0.79416 0.45491 0.0
O365 O 0.52509 0.73078 0.44988 0.0
H366 H 0.61207 0.82849 0.37414 0.0
H367 H 0.48088 0.71344 0.37101 0.0
H368 H 0.56241 0.6815 0.4024 0.0
H369 H 0.59522 0.77127 0.38929 0.0
H370 H 0.51453 0.74114 0.40698 0.0
O371 O 0.65622 0.79735 0.48397 0.0
H372 H 0.65608 0.70418 0.4649 0.0
H373 H 0.67169 0.77421 0.52019 0.0
H374 H 0.52948 0.65333 0.36627 0.0
H375 H 0.58086 0.85149 0.44034 0.0
H376 H 0.48836 0.66929 0.35035 0.0
H377 H 0.60487 0.86903 0.39973 0.0
O378 O 0.55445 0.68907 0.44748 0.0
H379 H 0.57277 0.77873 0.54366 0.0
H380 H 0.60375 0.69485 0.51581 0.0
H381 H 0.57438 0.68597 0.55429 0.0
H382 H 0.55873 0.72813 0.56845 0.0
H383 H 0.60193 0.78647 0.5052 0.0
H384 H 0.71588 0.76464 0.53794 0.0
H385 H 0.73012 0.72396 0.51893 0.0
O386 O 0.59774 0.69747 0.47138 0.0
C387 C 0.63827 0.74742 0.42516 0.0
C388 C 0.69382 0.71129 0.49064 0.0
C389 C 0.70283 0.7512 0.52194 0.0
N390 N 0.66114 0.73953 0.49166 0.0
C391 C 0.66897 0.71729 0.481 0.0
C392 C 0.67784 0.75656 0.51179 0.0
C393 C 0.7108 0.72836 0.51127 0.0
C394 C 0.57476 0.80146 0.4371 0.0
N395 N 0.57886 0.77933 0.42293 0.0
C396 C 0.584 0.83401 0.429 0.0
C397 C 0.59753 0.84386 0.40622 0.0
C398 C 0.60161 0.82114 0.39187 0.0
C399 C 0.5921 0.7888 0.40057 0.0
C400 C 0.49879 0.70634 0.37773 0.0
C401 C 0.54475 0.68875 0.39547 0.0
C402 C 0.51788 0.7219 0.39811 0.0
N403 N 0.54068 0.71319 0.40662 0.0
C404 C 0.52609 0.67263 0.37506 0.0
C405 C 0.503 0.68158 0.36615 0.0
C406 C 0.56997 0.6781 0.46044 0.0
C407 C 0.57955 0.76023 0.53771 0.0
C408 C 0.59696 0.71327 0.52183 0.0
C409 C 0.58039 0.70814 0.54365 0.0
C410 C 0.57163 0.73181 0.5516 0.0
N411 N 0.6047 0.74125 0.50834 0.0
C412 C 0.59618 0.76456 0.516 0.0
Co413 Co 0.83128 0.56718 0.77156 0.0
Co414 Co 0.87377 0.62608 0.81581 0.0
O415 O 0.83223 0.5925 0.7998 0.0
C416 C 0.78791 0.51382 0.80573 0.0
O417 O 0.81149 0.53015 0.82184 0.0
C418 C 0.83874 0.6633 0.80322 0.0
O419 O 0.83654 0.65129 0.78166 0.0
O420 O 0.8947 0.64931 0.78521 0.0
O421 O 0.8707 0.60809 0.75771 0.0
H422 H -9e-05 0.69719 0.82816 0.0
H423 H 0.76855 0.56645 0.78701 0.0
O424 O 0.79164 0.52544 0.78469 0.0
H425 H 0.79177 0.61496 0.70613 0.0
H426 H 0.77382 0.48271 0.70541 0.0
H427 H 0.88348 0.56251 0.74281 0.0
H428 H 0.82912 0.59641 0.72446 0.0
H429 H 0.77591 0.51605 0.74067 0.0
O430 O 0.85335 0.65596 0.81964 0.0
H431 H 0.94765 0.65442 0.80797 0.0
H432 H 0.88718 0.6704 0.85818 0.0
H433 H 0.8826 0.52988 0.70747 0.0
H434 H 0.7304 0.58447 0.76928 0.0
H435 H 0.82746 0.48964 0.68853 0.0
H436 H 0.742 0.60904 0.72858 0.0
O437 O 0.86255 0.5541 0.78669 0.0
H438 H 0.78027 0.5725 0.87646 0.0
H439 H 0.89752 0.60153 0.8567 0.0
H440 H 0.87176 0.5717 0.89428 0.0
H441 H 0.81273 0.55701 0.90437 0.0
H442 H 0.8069 0.60208 0.83898 0.0
H443 H 0.93879 0.71357 0.87881 0.0
H444 H 0.99565 0.72709 0.86385 0.0
O445 O 0.89464 0.59658 0.81201 0.0
C446 C 0.89206 0.63834 0.764 0.0
C447 C 0.97528 0.69144 0.83489 0.0
C448 C 0.94097 0.70066 0.8633 0.0
N449 N 0.91443 0.65973 0.83202 0.0
C450 C 0.94561 0.66718 0.82358 0.0
C451 C 0.91185 0.67626 0.85153 0.0
C452 C 0.97287 0.70823 0.8549 0.0
C453 C 0.77353 0.57677 0.76919 0.0
N454 N 0.80089 0.58018 0.75674 0.0
C455 C 0.75194 0.58707 0.75929 0.0
C456 C 0.75849 0.60091 0.73647 0.0
C457 C 0.78643 0.60425 0.72386 0.0
C458 C 0.80751 0.59374 0.73435 0.0
C459 C 0.79801 0.50023 0.71346 0.0
C460 C 0.85942 0.54523 0.73455 0.0
C461 C 0.79935 0.51914 0.73344 0.0
N462 N 0.82982 0.54145 0.74362 0.0
C463 C 0.85907 0.52674 0.7146 0.0
C464 C 0.82812 0.50414 0.704 0.0
C465 C 0.88729 0.56899 0.80122 0.0
C466 C 0.80604 0.57884 0.87229 0.0
C467 C 0.87179 0.59516 0.86094 0.0
C468 C 0.85737 0.57833 0.88226 0.0
C469 C 0.82425 0.57012 0.88793 0.0
N470 N 0.85377 0.60366 0.84571 0.0
C471 C 0.8213 0.59571 0.85114 0.0
Co472 Co 0.26214 0.83174 0.10148 0.0
Co473 Co 0.24745 0.8761 0.14528 0.0
O474 O 0.23922 0.83396 0.13013 0.0
C475 C 0.27519 0.79112 0.13628 0.0
O476 O 0.28463 0.8163 0.15138 0.0
C477 C 0.17477 0.83933 0.13411 0.0
O478 O 0.18406 0.83557 0.11275 0.0
O479 O 0.24365 0.89541 0.11438 0.0
O480 O 0.25916 0.86997 0.08685 0.0
H481 H 0.30213 0.00268 0.15477 0.0
H482 H 0.20157 0.76947 0.11927 0.0
O483 O 0.26543 0.79318 0.11545 0.0
H484 H 0.17116 0.78731 0.03846 0.0
H485 H 0.28667 0.77113 0.03623 0.0
H486 H 0.31667 0.8826 0.07051 0.0
H487 H 0.22789 0.82628 0.05504 0.0
H488 H 0.25723 0.77489 0.07199 0.0
O489 O 0.1972 0.85558 0.14997 0.0
H490 H 0.29225 0.94961 0.13564 0.0
H491 H 0.21796 0.89123 0.18768 0.0
H492 H 0.34659 0.88004 0.03463 0.0
H493 H 0.14463 0.72974 0.10331 0.0
H494 H 0.33162 0.82399 0.01726 0.0
H495 H 0.12907 0.73864 0.06267 0.0
O496 O 0.30719 0.86437 0.11514 0.0
H497 H 0.21083 0.78554 0.20791 0.0
H498 H 0.29733 0.90214 0.18521 0.0
H499 H 0.30323 0.87833 0.22316 0.0
H500 H 0.25975 0.81963 0.23473 0.0
H501 H 0.20605 0.81026 0.17003 0.0
H502 H 0.2268 0.94366 0.20727 0.0
H503 H 0.26925 -0.00012 0.19085 0.0
O504 O 0.29771 0.89706 0.14054 0.0
C505 C 0.25054 0.89157 0.09302 0.0
C506 C 0.28364 0.97833 0.16214 0.0
C507 C 0.24133 0.94521 0.19159 0.0
N508 N 0.25478 0.91741 0.16067 0.0
C509 C 0.27802 0.94821 0.15143 0.0
C510 C 0.23638 0.91562 0.1804 0.0
C511 C 0.26516 0.97674 0.18237 0.0
C512 C 0.19512 0.77327 0.10146 0.0
N513 N 0.2181 0.80005 0.08806 0.0
C514 C 0.16279 0.75079 0.09256 0.0
C515 C 0.15406 0.75583 0.06977 0.0
C516 C 0.17765 0.78315 0.05619 0.0
C517 C 0.20972 0.80516 0.06568 0.0
C518 C 0.29336 0.79571 0.04359 0.0
C519 C 0.30986 0.85813 0.06295 0.0
C520 C 0.27681 0.79799 0.06385 0.0
N521 N 0.28501 0.82895 0.07317 0.0
C522 C 0.32696 0.85684 0.04268 0.0
C523 C 0.31857 0.82537 0.03296 0.0
C524 C 0.31758 0.88958 0.12932 0.0
C525 C 0.22989 0.81118 0.20309 0.0
C526 C 0.27834 0.87656 0.1901 0.0
C527 C 0.28178 0.86323 0.21163 0.0
C528 C 0.25737 0.8303 0.21812 0.0
N529 N 0.25128 0.85766 0.17548 0.0
C530 C 0.22724 0.82536 0.18171 0.0
Co531 Co 0.42647 0.25608 0.43159 0.0
Co532 Co 0.37612 0.24779 0.48023 0.0
O533 O 0.40692 0.23734 0.46262 0.0
C534 C 0.4859 0.27599 0.4625 0.0
O535 O 0.47058 0.28418 0.47881 0.0
C536 C 0.33703 0.17426 0.47196 0.0
O537 O 0.34725 0.18138 0.44981 0.0
O538 O 0.34859 0.24287 0.45126 0.0
O539 O 0.38185 0.2481 0.42 0.0
H540 H 0.30925 0.30669 0.49544 0.0
H541 H 0.43455 0.20064 0.45247 0.0
O542 O 0.47168 0.2642 0.44254 0.0
H543 H 0.37491 0.15537 0.37632 0.0
H544 H 0.50079 0.27374 0.36038 0.0
H545 H 0.42033 0.30272 0.39776 0.0
H546 H 0.39227 0.21389 0.38877 0.0
H547 H 0.47531 0.24978 0.39944 0.0
O548 O 0.34614 0.19813 0.48712 0.0
H549 H 0.34811 0.29376 0.47304 0.0
H550 H 0.33808 0.22235 0.52575 0.0
H551 H 0.44492 0.32695 0.35856 0.0
H552 H 0.41793 0.14206 0.44063 0.0
H553 H 0.48548 0.3125 0.33962 0.0
H554 H 0.38775 0.11903 0.40235 0.0
O555 O 0.43893 0.30282 0.44208 0.0
H556 H 0.43728 0.21302 0.53829 0.0
H557 H 0.40733 0.30046 0.51816 0.0
H558 H 0.44249 0.30809 0.55359 0.0
H559 H 0.45767 0.26416 0.56386 0.0
H560 H 0.40238 0.20652 0.50293 0.0
H561 H 0.29887 0.2343 0.54864 0.0
H562 H 0.28434 0.27685 0.53354 0.0
O563 O 0.40554 0.29724 0.47333 0.0
C564 C 0.35414 0.24347 0.42899 0.0
C565 C 0.31546 0.28818 0.50225 0.0
C566 C 0.30961 0.24751 0.53209 0.0
N567 N 0.34554 0.25753 0.49818 0.0
C568 C 0.33752 0.28082 0.48967 0.0
C569 C 0.33175 0.24079 0.51903 0.0
C570 C 0.30147 0.2714 0.52361 0.0
C571 C 0.42171 0.19089 0.43569 0.0
N572 N 0.41444 0.21067 0.42131 0.0
C573 C 0.41225 0.15767 0.42912 0.0
C574 C 0.39528 0.14475 0.40765 0.0
C575 C 0.38805 0.16511 0.39305 0.0
C576 C 0.39786 0.1982 0.40021 0.0
C577 C 0.48311 0.28019 0.36843 0.0
C578 C 0.4378 0.29615 0.38955 0.0
C579 C 0.46868 0.26678 0.39057 0.0
N580 N 0.44619 0.27468 0.40078 0.0
C581 C 0.45172 0.31002 0.36739 0.0
C582 C 0.4745 0.30192 0.35679 0.0
C583 C 0.42866 0.31527 0.45829 0.0
C584 C 0.43075 0.23229 0.53404 0.0
C585 C 0.41386 0.28125 0.5225 0.0
C586 C 0.43373 0.28569 0.5426 0.0
C587 C 0.44222 0.26102 0.54836 0.0
N588 N 0.40267 0.25298 0.50857 0.0
C589 C 0.41088 0.22868 0.5141 0.0
Co590 Co 0.16193 0.42643 0.7752 0.0
Co591 Co 0.11646 0.36777 0.81888 0.0
O592 O 0.15897 0.39998 0.80327 0.0
C593 C 0.20723 0.47791 0.80979 0.0
O594 O 0.1831 0.46266 0.82572 0.0
C595 C 0.14902 0.32829 0.8063 0.0
O596 O 0.15216 0.34103 0.78489 0.0
O597 O 0.0953 0.34562 0.78809 0.0
O598 O 0.12111 0.38717 0.76101 0.0
H599 H 0.98982 0.30217 0.83025 0.0
H600 H 0.22223 0.42249 0.79066 0.0
O601 O 0.20297 0.46648 0.78866 0.0
H602 H 0.197 0.37502 0.70948 0.0
H603 H 0.22393 0.5106 0.70969 0.0
H604 H 0.11233 0.43553 0.74647 0.0
H605 H 0.16229 0.39671 0.7279 0.0
H606 H 0.21917 0.47575 0.74471 0.0
O607 O 0.1344 0.33575 0.82265 0.0
H608 H 0.04335 0.34327 0.81053 0.0
H609 H 0.1001 0.32234 0.86094 0.0
H610 H 0.11588 0.46973 0.71136 0.0
H611 H 0.25772 0.40126 0.77286 0.0
H612 H 0.17201 0.5076 0.69273 0.0
H613 H 0.24509 0.3772 0.73201 0.0
O614 O 0.13264 0.44193 0.79045 0.0
H615 H 0.20927 0.41636 0.88029 0.0
H616 H 0.09431 0.3939 0.85975 0.0
H617 H 0.12045 0.4225 0.8976 0.0
H618 H 0.17833 0.43387 0.90809 0.0
H619 H 0.1823 0.38807 0.84254 0.0
H620 H 0.04718 0.28078 0.8811 0.0
H621 H 0.99155 0.2706 0.8658 0.0
O622 O 0.09815 0.39953 0.81509 0.0
C623 C 0.09858 0.3572 0.76702 0.0
C624 C 0.01391 0.30647 0.83713 0.0
C625 C 0.0461 0.29443 0.86565 0.0
N626 N 0.07478 0.33539 0.83472 0.0
C627 C 0.04429 0.32978 0.82609 0.0
C628 C 0.07597 0.31793 0.85414 0.0
C629 C 0.0149 0.28874 0.85707 0.0
C630 C 0.21684 0.41242 0.77277 0.0
N631 N 0.19036 0.41103 0.76029 0.0
C632 C 0.23691 0.4003 0.76283 0.0
C633 C 0.22978 0.38674 0.73993 0.0
C634 C 0.20278 0.38549 0.72728 0.0
C635 C 0.18319 0.39777 0.73782 0.0
C636 C 0.19932 0.49412 0.71761 0.0
C637 C 0.1368 0.45176 0.73835 0.0
C638 C 0.19647 0.47437 0.73745 0.0
N639 N 0.16545 0.45336 0.74745 0.0
C640 C 0.13867 0.47115 0.71852 0.0
C641 C 0.17018 0.49242 0.7081 0.0
C642 C 0.1074 0.42782 0.80465 0.0
C643 C 0.184 0.41145 0.87595 0.0
C644 C 0.11954 0.39883 0.86416 0.0
C645 C 0.13418 0.41497 0.88564 0.0
C646 C 0.16664 0.42132 0.89153 0.0
N647 N 0.13671 0.38919 0.849 0.0
C648 C 0.16854 0.39532 0.85464 0.0
Co649 Co 0.736 0.16737 0.10331 0.0
Co650 Co 0.74895 0.12126 0.1467 0.0
O651 O 0.75853 0.16404 0.13183 0.0
C652 C 0.72534 0.20932 0.13841 0.0
O653 O 0.71705 0.1848 0.15393 0.0
C654 C 0.82163 0.15622 0.13559 0.0
O655 O 0.8127 0.16039 0.11421 0.0
O656 O 0.75205 0.10183 0.11565 0.0
O657 O 0.73739 0.12842 0.08848 0.0
H658 H 0.69082 0.99434 0.15546 0.0
H659 H 0.79775 0.22836 0.12115 0.0
O660 O 0.73403 0.20658 0.11739 0.0
H661 H 0.82675 0.20949 0.04018 0.0
H662 H 0.7141 0.23025 0.03831 0.0
H663 H 0.68021 0.11778 0.07253 0.0
H664 H 0.76965 0.1719 0.05675 0.0
H665 H 0.74303 0.22517 0.0739 0.0
O666 O 0.79899 0.14035 0.15139 0.0
H667 H 0.70241 0.04818 0.13667 0.0
H668 H 0.77734 0.10436 0.1889 0.0
H669 H 0.65076 0.12165 0.03681 0.0
H670 H 0.85509 0.2667 0.10522 0.0
H671 H 0.66769 0.17822 0.01947 0.0
H672 H 0.86993 0.25728 0.06449 0.0
O673 O 0.69071 0.13583 0.11709 0.0
H674 H 0.78817 0.21124 0.20997 0.0
H675 H 0.69895 0.0961 0.18658 0.0
H676 H 0.694 0.12006 0.22475 0.0
H677 H 0.73885 0.17802 0.23667 0.0
H678 H 0.79198 0.18642 0.17187 0.0
H679 H 0.76679 0.05113 0.20815 0.0
H680 H 0.72314 0.99562 0.19146 0.0
O681 O 0.69883 0.10174 0.14199 0.0
C682 C 0.74519 0.10613 0.0944 0.0
C683 C 0.70981 0.01836 0.16294 0.0
C684 C 0.75249 0.05024 0.1925 0.0
N685 N 0.74029 0.07933 0.16182 0.0
C686 C 0.71641 0.04892 0.15243 0.0
C687 C 0.7584 0.08028 0.1815 0.0
C688 C 0.72799 0.0191 0.18313 0.0
C689 C 0.8039 0.22435 0.10331 0.0
N690 N 0.78032 0.19806 0.08985 0.0
C691 C 0.83645 0.24604 0.09442 0.0
C692 C 0.84478 0.24071 0.07158 0.0
C693 C 0.82057 0.21388 0.05794 0.0
C694 C 0.78829 0.19266 0.06743 0.0
C695 C 0.70656 0.20546 0.04566 0.0
C696 C 0.68787 0.14246 0.06497 0.0
C697 C 0.72281 0.20243 0.06582 0.0
N698 N 0.71354 0.17118 0.07512 0.0
C699 C 0.67104 0.1445 0.0448 0.0
C700 C 0.68053 0.17625 0.03509 0.0
C701 C 0.67961 0.11034 0.13105 0.0
C702 C 0.76851 0.18592 0.20501 0.0
C703 C 0.71853 0.12137 0.19162 0.0
C704 C 0.71562 0.13477 0.21327 0.0
C705 C 0.74081 0.16729 0.21996 0.0
N706 N 0.74581 0.13979 0.17706 0.0
C707 C 0.77061 0.17168 0.1835 0.0
H708 H 0.25408 0.73382 0.10977 0.0
H709 H 0.25466 0.68222 0.12076 0.0
H710 H 0.29768 0.72579 0.18901 0.0
H711 H 0.29733 0.77793 0.17818 0.0
H712 H 0.33036 0.69363 0.16275 0.0
H713 H 0.1902 0.61182 0.17115 0.0
H714 H 0.20476 0.63601 0.14409 0.0
H715 H 0.21132 0.65767 0.172 0.0
C716 C 0.26366 0.73254 0.12716 0.0
C717 C 0.27561 0.75997 0.14316 0.0
C718 C 0.26385 0.70297 0.1334 0.0
C719 C 0.2759 0.70021 0.15573 0.0
C720 C 0.28819 0.72756 0.1717 0.0
H721 H 0.2512 0.51967 0.22377 0.0
H722 H 0.25322 0.57262 0.21314 0.0
C723 C 0.28791 0.75722 0.16551 0.0
C724 C 0.27572 0.66868 0.16223 0.0
H725 H 0.22269 0.58417 0.17245 0.0
C726 C 0.30688 0.66968 0.16497 0.0
C727 C 0.24497 0.63766 0.16517 0.0
C728 C 0.21086 0.63558 0.16316 0.0
C729 C 0.30809 0.64014 0.17032 0.0
C730 C 0.27734 0.60898 0.17275 0.0
C731 C 0.24619 0.60812 0.17031 0.0
C732 C 0.2768 0.57715 0.1789 0.0
C733 C 0.34215 0.64249 0.17367 0.0
C734 C 0.28916 0.56207 0.16298 0.0
C735 C 0.288 0.53163 0.16897 0.0
C736 C 0.27446 0.51593 0.19095 0.0
C737 C 0.26193 0.53113 0.20673 0.0
C738 C 0.26301 0.56138 0.20071 0.0
H739 H 0.36299 0.6692 0.17576 0.0
H740 H 0.34178 0.62772 0.18953 0.0
H741 H 0.34785 0.63152 0.15789 0.0
H742 H 0.29942 0.57371 0.14589 0.0
H743 H 0.2977 0.52046 0.15641 0.0
H744 H 0.7747 0.28217 0.47604 0.0
H745 H 0.72526 0.28644 0.46315 0.0
H746 H 0.69366 0.28023 0.53617 0.0
H747 H 0.74245 0.27581 0.5492 0.0
H748 H 0.65263 0.23514 0.4763 0.0
H749 H 0.69566 0.36699 0.50664 0.0
H750 H 0.72486 0.35188 0.50033 0.0
H751 H 0.70102 0.34007 0.52755 0.0
C752 C 0.7573 0.28193 0.48932 0.0
C753 C 0.76244 0.27865 0.51362 0.0
C754 C 0.72916 0.28435 0.48194 0.0
C755 C 0.70623 0.28405 0.49879 0.0
C756 C 0.71141 0.28095 0.52299 0.0
H757 H 0.51856 0.28696 0.50529 0.0
H758 H 0.57298 0.28965 0.51291 0.0
C759 C 0.73921 0.27822 0.53035 0.0
C760 C 0.67583 0.28537 0.4913 0.0
H761 H 0.63754 0.33334 0.4958 0.0
C762 C 0.64938 0.25672 0.48023 0.0
C763 C 0.67178 0.31347 0.4968 0.0
C764 C 0.69989 0.34502 0.50834 0.0
C765 C 0.61831 0.25494 0.47517 0.0
C766 C 0.6141 0.28299 0.48083 0.0
C767 C 0.64087 0.3119 0.49153 0.0
C768 C 0.5819 0.28258 0.47606 0.0
C769 C 0.58988 0.22256 0.46469 0.0
C770 C 0.56936 0.27845 0.4528 0.0
C771 C 0.53829 0.27662 0.44843 0.0
C772 C 0.51941 0.27942 0.46724 0.0
C773 C 0.53254 0.2847 0.49046 0.0
C774 C 0.56357 0.28623 0.49483 0.0
H775 H 0.59408 0.20072 0.46745 0.0
H776 H 0.56501 0.21621 0.47263 0.0
H777 H 0.58854 0.22592 0.44525 0.0
H778 H 0.58355 0.27645 0.438 0.0
H779 H 0.52907 0.27297 0.43029 0.0
H780 H 0.48605 0.76405 0.81823 0.0
H781 H 0.43336 0.71077 0.80958 0.0
H782 H 0.42138 0.6852 0.88414 0.0
H783 H 0.47377 0.73794 0.89301 0.0
H784 H 0.41903 0.63899 0.82675 0.0
H785 H 0.32972 0.68103 0.85851 0.0
H786 H 0.37204 0.71067 0.84804 0.0
H787 H 0.36625 0.69111 0.87666 0.0
C788 C 0.47215 0.7471 0.83277 0.0
C789 C 0.484 0.75521 0.85629 0.0
C790 C 0.44218 0.71675 0.82779 0.0
C791 C 0.4236 0.69443 0.84629 0.0
C792 C 0.43538 0.70236 0.86971 0.0
H793 H 0.22916 0.50673 0.85379 0.0
H794 H 0.28269 0.55852 0.86331 0.0
C795 C 0.46536 0.73246 0.87469 0.0
C796 C 0.39196 0.66248 0.84124 0.0
H797 H 0.30585 0.62362 0.8471 0.0
C798 C 0.39422 0.63555 0.83106 0.0
C799 C 0.3599 0.65822 0.84728 0.0
C800 C 0.35653 0.68676 0.85813 0.0
C801 C 0.36498 0.60407 0.82686 0.0
C802 C 0.33275 0.59992 0.83249 0.0
C803 C 0.33061 0.6269 0.84284 0.0
C804 C 0.30085 0.56822 0.82696 0.0
C805 C 0.36896 0.5754 0.8169 0.0
C806 C 0.29328 0.55687 0.80339 0.0
C807 C 0.26299 0.52737 0.79794 0.0
C808 C 0.2394 0.50886 0.81594 0.0
C809 C 0.24683 0.52044 0.83955 0.0
C810 C 0.27735 0.54996 0.84501 0.0
H811 H 0.39472 0.57928 0.82047 0.0
H812 H 0.34979 0.55057 0.82453 0.0
H813 H 0.36537 0.5743 0.79733 0.0
H814 H 0.31065 0.57107 0.78912 0.0
H815 H 0.25793 0.51934 0.77953 0.0
H816 H 0.72713 0.47129 0.22497 0.0
H817 H 0.72647 0.41871 0.21492 0.0
H818 H 0.71431 0.43422 0.14073 0.0
H819 H 0.71482 0.48711 0.15058 0.0
H820 H 0.67159 0.35986 0.18696 0.0
H821 H 0.80137 0.42199 0.14739 0.0
H822 H 0.78819 0.44374 0.16796 0.0
H823 H 0.77313 0.43675 0.13785 0.0
C824 C 0.72431 0.4636 0.20649 0.0
C825 C 0.72112 0.48339 0.18853 0.0
C826 C 0.72385 0.43352 0.20083 0.0
C827 C 0.72055 0.42288 0.17714 0.0
C828 C 0.7171 0.44231 0.15912 0.0
H829 H 0.73019 0.25863 0.10852 0.0
H830 H 0.72773 0.30946 0.11864 0.0
C831 C 0.7173 0.47238 0.16478 0.0
C832 C 0.7209 0.39142 0.17139 0.0
H833 H 0.76995 0.36218 0.14675 0.0
C834 C 0.69301 0.36021 0.17815 0.0
C835 C 0.74898 0.39229 0.15998 0.0
C836 C 0.77981 0.42543 0.15294 0.0
C837 C 0.6922 0.32951 0.17339 0.0
C838 C 0.72046 0.33033 0.16214 0.0
C839 C 0.74838 0.36167 0.15544 0.0
C840 C 0.72126 0.29897 0.1564 0.0
C841 C 0.66079 0.29652 0.17991 0.0
C842 C 0.71868 0.2763 0.17436 0.0
C843 C 0.7198 0.24692 0.16861 0.0
C844 C 0.724 0.24011 0.14486 0.0
C845 C 0.72699 0.26313 0.12701 0.0
C846 C 0.72558 0.29223 0.13274 0.0
H847 H 0.63841 0.29991 0.18247 0.0
H848 H 0.65461 0.27694 0.16598 0.0
H849 H 0.66536 0.28694 0.19685 0.0
H850 H 0.71613 0.28148 0.19282 0.0
H851 H 0.71774 0.2298 0.18276 0.0
H852 H 0.47756 0.69632 0.5123 0.0
H853 H 0.4252 0.69599 0.52361 0.0
H854 H 0.42598 0.74275 0.45668 0.0
H855 H 0.47799 0.74339 0.44528 0.0
H856 H 0.41619 0.77391 0.49788 0.0
H857 H 0.32875 0.63397 0.49424 0.0
H858 H 0.36671 0.64854 0.51174 0.0
H859 H 0.36998 0.65452 0.48009 0.0
C860 C 0.46651 0.70645 0.49999 0.0
C861 C 0.48183 0.71973 0.47786 0.0
C862 C 0.43658 0.7061 0.50643 0.0
C863 C 0.42168 0.71903 0.49083 0.0
C864 C 0.4371 0.73256 0.46889 0.0
H865 H 0.2231 0.70223 0.48957 0.0
H866 H 0.27523 0.70131 0.47974 0.0
C867 C 0.46681 0.73283 0.46242 0.0
C868 C 0.39032 0.71923 0.49733 0.0
H869 H 0.30529 0.66759 0.50673 0.0
C870 C 0.39194 0.7507 0.49991 0.0
C871 C 0.35878 0.68885 0.49959 0.0
C872 C 0.35566 0.65448 0.49612 0.0
C873 C 0.36272 0.75263 0.50486 0.0
C874 C 0.33127 0.72227 0.50748 0.0
C875 C 0.32957 0.69077 0.50475 0.0
C876 C 0.29989 0.72278 0.51334 0.0
C877 C 0.36558 0.78709 0.50688 0.0
C878 C 0.29664 0.73494 0.5355 0.0
C879 C 0.26705 0.73548 0.54117 0.0
C880 C 0.24011 0.72376 0.52476 0.0
C881 C 0.24342 0.71149 0.50255 0.0
C882 C 0.27308 0.71086 0.49693 0.0
H883 H 0.38979 0.80751 0.49924 0.0
H884 H 0.34404 0.78729 0.49769 0.0
H885 H 0.36471 0.79302 0.52593 0.0
H886 H 0.31695 0.74384 0.54848 0.0
H887 H 0.26532 0.74502 0.55846 0.0
H888 H 0.52602 0.25503 0.89104 0.0
H889 H 0.57875 0.30619 0.88017 0.0
H890 H 0.56123 0.27666 0.80634 0.0
H891 H 0.50809 0.22503 0.81702 0.0
H892 H 0.63646 0.30895 0.85264 0.0
H893 H 0.5753 0.3763 0.81108 0.0
H894 H 0.55314 0.34174 0.83186 0.0
H895 H 0.56049 0.33312 0.80199 0.0
C896 C 0.53328 0.25932 0.87246 0.0
C897 C 0.51283 0.23603 0.85485 0.0
C898 C 0.56346 0.28852 0.86633 0.0
C899 C 0.5736 0.29514 0.84251 0.0
C900 C 0.55353 0.27195 0.82483 0.0
H901 H 0.74016 0.46948 0.77485 0.0
H902 H 0.68916 0.41579 0.78402 0.0
C903 C 0.52332 0.24249 0.83096 0.0
C904 C 0.60522 0.32657 0.83633 0.0
H905 H 0.63509 0.40454 0.81101 0.0
C906 C 0.63631 0.32989 0.84348 0.0
C907 C 0.60464 0.35362 0.82444 0.0
C908 C 0.57167 0.35135 0.81696 0.0
C909 C 0.66712 0.35968 0.83879 0.0
C910 C 0.66657 0.38704 0.82721 0.0
C911 C 0.63539 0.38354 0.81996 0.0
C912 C 0.69803 0.41936 0.822 0.0
C913 C 0.69995 0.36131 0.84586 0.0
C914 C 0.71982 0.43933 0.84038 0.0
C915 C 0.74926 0.47005 0.83519 0.0
C916 C 0.75703 0.48142 0.81156 0.0
C917 C 0.7349 0.46149 0.79326 0.0
C918 C 0.70572 0.43076 0.79844 0.0
H919 H 0.69655 0.33554 0.84846 0.0
H920 H 0.71997 0.37488 0.83224 0.0
H921 H 0.70897 0.37529 0.86293 0.0
H922 H 0.71388 0.43134 0.85875 0.0
H923 H 0.76567 0.48501 0.84967 0.0
H924 H 0.62852 0.50894 0.21728 0.0
H925 H 0.56717 0.48532 0.21513 0.0
H926 H 0.58204 0.57475 0.17789 0.0
H927 H 0.64357 0.59831 0.17938 0.0
H928 H 0.53092 0.51088 0.23473 0.0
H929 H 0.51031 0.49995 0.13714 0.0
H930 H 0.5496 0.50755 0.15056 0.0
H931 H 0.54117 0.54195 0.14669 0.0
C932 C 0.61883 0.5235 0.20837 0.0
C933 C 0.64106 0.55557 0.19849 0.0
C934 C 0.5837 0.50993 0.20718 0.0
C935 C 0.56997 0.52807 0.19613 0.0
C936 C 0.59201 0.55994 0.18604 0.0
H937 H 0.36517 0.48938 0.22468 0.0
H938 H 0.42674 0.5144 0.22162 0.0
C939 C 0.62723 0.57346 0.18704 0.0
C940 C 0.5327 0.51436 0.19649 0.0
H941 H 0.46343 0.49131 0.16109 0.0
C942 C 0.51615 0.50651 0.21861 0.0
C943 C 0.51342 0.50836 0.17544 0.0
C944 C 0.52944 0.51456 0.1511 0.0
C945 C 0.4809 0.49296 0.22031 0.0
C946 C 0.46176 0.48795 0.19933 0.0
C947 C 0.47823 0.49555 0.17717 0.0
C948 C 0.42446 0.47389 0.20001 0.0
C949 C 0.46444 0.48336 0.24455 0.0
C950 C 0.40274 0.44347 0.1881 0.0
C951 C 0.36751 0.42927 0.18955 0.0
C952 C 0.35328 0.44521 0.203 0.0
C953 C 0.37519 0.47619 0.2144 0.0
C954 C 0.41042 0.49048 0.21277 0.0
H955 H 0.48083 0.48004 0.25768 0.0
H956 H 0.46007 0.50388 0.25114 0.0
H957 H 0.43954 0.45944 0.24374 0.0
H958 H 0.41306 0.43035 0.17806 0.0
H959 H 0.35147 0.40547 0.18047 0.0
H960 H 0.05067 0.64473 0.51096 0.0
H961 H 0.01351 0.58317 0.50777 0.0
H962 H 0.08394 0.56766 0.54989 0.0
H963 H 0.12094 0.62898 0.5536 0.0
H964 H 0.02389 0.53118 0.49035 0.0
H965 H 0.99493 0.51626 0.58697 0.0
H966 H 0.01548 0.55715 0.57245 0.0
H967 H 0.03953 0.53696 0.58035 0.0
C968 C 0.05838 0.62827 0.51948 0.0
C969 C 0.08863 0.64189 0.5328 0.0
C970 C 0.03712 0.59309 0.51758 0.0
C971 C 0.0457 0.57092 0.52896 0.0
C972 C 0.07651 0.58437 0.54141 0.0
H973 H 0.9517 0.35159 0.51234 0.0
H974 H 0.98929 0.41312 0.50967 0.0
C975 C 0.09769 0.61947 0.54342 0.0
C976 C 0.02196 0.53376 0.52852 0.0
H977 H 0.97545 0.46561 0.56466 0.0
C978 C 0.01318 0.51678 0.50656 0.0
C979 C 0.00766 0.5152 0.54969 0.0
C980 C 0.01457 0.53231 0.57369 0.0
C981 C 0.99085 0.48152 0.50524 0.0
C982 C 0.97747 0.46282 0.52649 0.0
C983 C 0.98595 0.47995 0.5484 0.0
C984 C 0.95408 0.42554 0.52661 0.0
C985 C 0.98131 0.46477 0.48112 0.0
C986 C 0.92201 0.41208 0.5373 0.0
C987 C 0.90067 0.377 0.53915 0.0
C988 C 0.91094 0.35455 0.53033 0.0
C989 C 0.94289 0.3681 0.51923 0.0
C990 C 0.96435 0.4033 0.51753 0.0
H991 H 0.98613 0.48347 0.46677 0.0
H992 H 0.99686 0.45272 0.47733 0.0
H993 H 0.9541 0.44471 0.48059 0.0
H994 H 0.91362 0.42879 0.54448 0.0
H995 H 0.87623 0.36754 0.54774 0.0
H996 H 0.39788 0.04674 0.84455 0.0
H997 H 0.42076 0.00824 0.84188 0.0
H998 H 0.50803 0.07823 0.88311 0.0
H999 H 0.48519 0.11656 0.88635 0.0
H1000 H 0.48121 0.01642 0.82393 0.0
H1001 H 0.47097 0.99029 0.92083 0.0
H1002 H 0.45093 0.01137 0.90665 0.0
H1003 H 0.49549 0.0347 0.91381 0.0
C1004 C 0.422 0.05404 0.85302 0.0
C1005 C 0.43949 0.08462 0.86591 0.0
C1006 C 0.43503 0.032 0.85143 0.0
C1007 C 0.46573 0.0401 0.86269 0.0
C1008 C 0.48388 0.07113 0.87477 0.0
H1009 H 0.59156 0.94818 0.84379 0.0
H1010 H 0.5656 0.98391 0.84126 0.0
C1011 C 0.47082 0.09309 0.8765 0.0
C1012 C 0.47855 0.01586 0.86218 0.0
H1013 H 0.50181 0.97052 0.8982 0.0
C1014 C 0.48558 0.00621 0.84013 0.0
C1015 C 0.48365 0.00215 0.88334 0.0
C1016 C 0.47456 0.00985 0.90749 0.0
C1017 C 0.49835 0.98377 0.83871 0.0
C1018 C 0.50482 0.97124 0.85994 0.0
C1019 C 0.49711 0.98037 0.88194 0.0
C1020 C 0.51963 0.94863 0.85994 0.0
C1021 C 0.50429 0.97334 0.8145 0.0
C1022 C 0.50266 0.91712 0.87158 0.0
C1023 C 0.51762 0.89683 0.87337 0.0
C1024 C 0.54992 0.90764 0.86354 0.0
C1025 C 0.56659 0.93895 0.85146 0.0
C1026 C 0.55167 0.95935 0.84983 0.0
H1027 H 0.48893 0.97682 0.80058 0.0
H1028 H 0.53148 0.98943 0.80969 0.0
H1029 H 0.49799 0.94637 0.81443 0.0
H1030 H 0.47795 0.90841 0.87957 0.0
H1031 H 0.50399 0.87286 0.88276 0.0
H1032 H 0.50691 0.62833 0.44622 0.0
H1033 H 0.48336 0.56695 0.44799 0.0
H1034 H 0.57618 0.58177 0.47988 0.0
H1035 H 0.59966 0.64328 0.47885 0.0
H1036 H 0.50551 0.5295 0.42626 0.0
H1037 H 0.50617 0.51158 0.52375 0.0
H1038 H 0.51285 0.55073 0.51069 0.0
H1039 H 0.54715 0.54173 0.51214 0.0
C1040 C 0.52227 0.6186 0.45384 0.0
C1041 C 0.55519 0.64081 0.46245 0.0
C1042 C 0.50874 0.58346 0.45482 0.0
C1043 C 0.52781 0.56971 0.46434 0.0
C1044 C 0.56066 0.59175 0.47299 0.0
H1045 H 0.4847 0.36368 0.43444 0.0
H1046 H 0.50957 0.42532 0.43629 0.0
C1047 C 0.57413 0.62696 0.47224 0.0
C1048 C 0.51378 0.53237 0.46412 0.0
H1049 H 0.49492 0.46409 0.49952 0.0
C1050 C 0.50309 0.51518 0.4423 0.0
C1051 C 0.51026 0.51365 0.4851 0.0
C1052 C 0.51939 0.53029 0.50928 0.0
C1053 C 0.48917 0.47986 0.44082 0.0
C1054 C 0.48675 0.46129 0.46165 0.0
C1055 C 0.49717 0.47841 0.48352 0.0
C1056 C 0.4726 0.42396 0.46122 0.0
C1057 C 0.47641 0.46272 0.41702 0.0
C1058 C 0.44431 0.40274 0.4753 0.0
C1059 C 0.43029 0.3675 0.47456 0.0
C1060 C 0.44427 0.35273 0.45966 0.0
C1061 C 0.47304 0.37412 0.44591 0.0
C1062 C 0.4872 0.4094 0.44684 0.0
H1063 H 0.47123 0.47868 0.40466 0.0
H1064 H 0.49607 0.45836 0.40872 0.0
H1065 H 0.45279 0.43777 0.41905 0.0
H1066 H 0.43272 0.41345 0.48662 0.0
H1067 H 0.40821 0.35187 0.48545 0.0
H1068 H 0.94675 0.59569 0.82664 0.0
H1069 H 0.98521 0.57286 0.8301 0.0
H1070 H 0.91619 0.4855 0.78855 0.0
H1071 H 0.87789 0.50827 0.78455 0.0
H1072 H 0.97686 0.51195 0.84812 0.0
H1073 H 0.00508 0.52397 0.75147 0.0
H1074 H 0.98364 0.5437 0.76559 0.0
H1075 H 0.96055 0.49927 0.75809 0.0
C1076 C 0.93962 0.57154 0.81831 0.0
C1077 C 0.90937 0.55404 0.80506 0.0
C1078 C 0.96164 0.55852 0.82035 0.0
C1079 C 0.95384 0.52785 0.80919 0.0
C1080 C 0.92304 0.50962 0.79684 0.0
H1081 H 0.04618 0.40246 0.82761 0.0
H1082 H 0.01044 0.42839 0.83052 0.0
C1083 C 0.9011 0.52265 0.79466 0.0
C1084 C 0.97826 0.51528 0.80989 0.0
H1085 H 0.02481 0.49319 0.77416 0.0
C1086 C 0.98752 0.50798 0.83199 0.0
C1087 C 0.99256 0.51073 0.78883 0.0
C1088 C 0.98526 0.52013 0.76466 0.0
C1089 C 0.01012 0.49541 0.83355 0.0
C1090 C 0.02325 0.48948 0.8124 0.0
C1091 C 0.01451 0.4975 0.79036 0.0
C1092 C 0.04602 0.47487 0.81249 0.0
C1093 C 0.02007 0.48907 0.8578 0.0
C1094 C 0.07774 0.4922 0.80116 0.0
C1095 C 0.09804 0.47728 0.79915 0.0
C1096 C 0.08702 0.44464 0.80845 0.0
C1097 C 0.05557 0.42768 0.82034 0.0
C1098 C 0.03516 0.44257 0.82218 0.0
H1099 H 0.01611 0.50403 0.87179 0.0
H1100 H 0.00404 0.46176 0.86231 0.0
H1101 H 0.0471 0.49557 0.85814 0.0
H1102 H 0.08657 0.51711 0.79349 0.0
H1103 H 0.12214 0.49115 0.78994 0.0
H1104 H 0.35135 0.94987 0.15373 0.0
H1105 H 0.41281 0.98808 0.15636 0.0
H1106 H 0.42946 0.91766 0.11517 0.0
H1107 H 0.36824 0.87962 0.11199 0.0
H1108 H 0.46511 0.9795 0.17422 0.0
H1109 H 0.48044 0.00553 0.07728 0.0
H1110 H 0.43941 0.98472 0.09162 0.0
H1111 H 0.46033 0.96113 0.08437 0.0
C1112 C 0.36805 0.94242 0.14527 0.0
C1113 C 0.35477 0.91181 0.1324 0.0
C1114 C 0.40317 0.96429 0.14684 0.0
C1115 C 0.42563 0.95599 0.13558 0.0
C1116 C 0.41253 0.92491 0.12352 0.0
H1117 H 0.64405 0.04878 0.15369 0.0
H1118 H 0.58239 0.01241 0.15629 0.0
C1119 C 0.37748 0.90312 0.12182 0.0
C1120 C 0.46274 0.98009 0.13598 0.0
H1121 H 0.53114 0.02533 0.09976 0.0
C1122 C 0.47959 0.98968 0.15798 0.0
C1123 C 0.48143 0.99374 0.11477 0.0
C1124 C 0.46447 0.98606 0.09068 0.0
C1125 C 0.51483 0.01205 0.15929 0.0
C1126 C 0.5337 0.0246 0.138 0.0
C1127 C 0.51669 0.01547 0.11606 0.0
C1128 C 0.5711 0.04746 0.13789 0.0
C1129 C 0.53139 0.02245 0.18344 0.0
C1130 C 0.58528 0.07903 0.12637 0.0
C1131 C 0.62048 0.09968 0.12455 0.0
C1132 C 0.64232 0.08919 0.13422 0.0
C1133 C 0.62804 0.05777 0.14615 0.0
C1134 C 0.59275 0.03701 0.14781 0.0
H1135 H 0.51264 0.01872 0.1975 0.0
H1136 H 0.54279 0.00655 0.18805 0.0
H1137 H 0.55189 0.04949 0.18352 0.0
H1138 H 0.56904 0.08755 0.11853 0.0
H1139 H 0.63052 0.12372 0.1153 0.0
H1140 H 0.24714 0.29802 0.23422 0.0
H1141 H 0.24952 0.26166 0.26546 0.0
H1142 H 0.24729 0.32843 0.31904 0.0
H1143 H 0.24505 0.36479 0.28828 0.0
H1144 H 0.30408 0.28857 0.29796 0.0
H1145 H 0.18114 0.23323 0.34562 0.0
H1146 H 0.1867 0.24936 0.31557 0.0
H1147 H 0.20005 0.27807 0.34045 0.0
C1148 C 0.24648 0.30459 0.25266 0.0
C1149 C 0.24607 0.33443 0.25873 0.0
C1150 C 0.2477 0.28372 0.27045 0.0
C1151 C 0.24794 0.29208 0.29451 0.0
C1152 C 0.24624 0.32108 0.30058 0.0
H1153 H 0.31728 0.27565 0.42958 0.0
H1154 H 0.28442 0.27927 0.39618 0.0
C1155 C 0.24532 0.34205 0.2829 0.0
C1156 C 0.25526 0.27391 0.31325 0.0
H1157 H 0.22832 0.23643 0.3676 0.0
C1158 C 0.28724 0.27637 0.31294 0.0
C1159 C 0.23329 0.25848 0.33282 0.0
C1160 C 0.19823 0.25432 0.33359 0.0
C1161 C 0.29885 0.26579 0.33238 0.0
C1162 C 0.27732 0.25132 0.35237 0.0
C1163 C 0.24467 0.24743 0.35223 0.0
C1164 C 0.28977 0.24305 0.37422 0.0
C1165 C 0.33491 0.27234 0.33194 0.0
C1166 C 0.30185 0.22008 0.37336 0.0
C1167 C 0.3211 0.21857 0.39212 0.0
C1168 C 0.32763 0.23926 0.41222 0.0
C1169 C 0.31245 0.25948 0.4142 0.0
C1170 C 0.29374 0.26153 0.39518 0.0
H1171 H 0.35029 0.29045 0.31767 0.0
H1172 H 0.34778 0.28274 0.34923 0.0
H1173 H 0.33456 0.2481 0.32863 0.0
H1174 H 0.29829 0.205 0.35757 0.0
H1175 H 0.33218 0.20238 0.39046 0.0
H1176 H 0.89339 0.27763 0.61626 0.0
H1177 H 0.92788 0.27762 0.64916 0.0
H1178 H 0.95903 0.21777 0.60787 0.0
H1179 H 0.92537 0.21892 0.57411 0.0
H1180 H 0.92772 0.22859 0.67571 0.0
H1181 H 0.04942 0.29769 0.62528 0.0
H1182 H 0.01008 0.29211 0.61348 0.0
H1183 H 0.01792 0.25706 0.6139 0.0
C1184 C 0.90749 0.26439 0.61406 0.0
C1185 C 0.90699 0.24866 0.59243 0.0
C1186 C 0.92708 0.26423 0.633 0.0
C1187 C 0.94635 0.24801 0.63092 0.0
C1188 C 0.94494 0.23106 0.60969 0.0
H1189 H 0.06074 0.2874 0.76633 0.0
H1190 H 0.02469 0.25145 0.7337 0.0
C1191 C 0.92566 0.23169 0.59046 0.0
C1192 C 0.96918 0.25123 0.65078 0.0
H1193 H 0.05292 0.29392 0.66635 0.0
C1194 C 0.95514 0.24226 0.67371 0.0
C1195 C 0.00492 0.26879 0.648 0.0
C1196 C 0.02165 0.27971 0.62391 0.0
C1197 C 0.97576 0.25353 0.69405 0.0
C1198 C 0.01139 0.27327 0.69125 0.0
C1199 C 0.02552 0.27898 0.66834 0.0
C1200 C 0.03382 0.29371 0.71101 0.0
C1201 C 0.9591 0.24682 0.71821 0.0
C1202 C 0.05128 0.32921 0.70888 0.0
C1203 C 0.07208 0.34958 0.72715 0.0
C1204 C 0.07569 0.33496 0.74815 0.0
C1205 C 0.05812 0.29935 0.75043 0.0
C1206 C 0.03753 0.27881 0.73185 0.0
H1207 H 0.93105 0.23516 0.71695 0.0
H1208 H 0.96469 0.22917 0.72827 0.0
H1209 H 0.9693 0.2708 0.72852 0.0
H1210 H 0.04858 0.34127 0.69304 0.0
H1211 H 0.08512 0.37689 0.72481 0.0
H1212 H 0.621 0.90981 0.94506 0.0
H1213 H 0.65811 0.94526 0.97665 0.0
H1214 H 0.74606 0.96593 0.93479 0.0
H1215 H 0.70859 0.9309 0.90235 0.0
H1216 H 0.70533 0.93861 0.00253 0.0
H1217 H 0.76583 0.06077 0.95217 0.0
H1218 H 0.72908 0.02332 0.94079 0.0
H1219 H 0.76991 0.02607 0.94061 0.0
C1220 C 0.64821 0.92191 0.94243 0.0
C1221 C 0.66187 0.9177 0.92115 0.0
C1222 C 0.66944 0.94206 0.9606 0.0
C1223 C 0.70485 0.95826 0.95809 0.0
C1224 C 0.71879 0.95401 0.93696 0.0
H1225 H 0.77754 0.0686 0.09457 0.0
H1226 H 0.78012 0.03417 0.0618 0.0
C1227 C 0.6974 0.93405 0.91848 0.0
C1228 C 0.72614 0.98026 0.97774 0.0
H1229 H 0.77062 0.06382 0.99348 0.0
C1230 C 0.72041 0.966 0.00062 0.0
C1231 C 0.74613 0.01588 0.97502 0.0
C1232 C 0.75314 0.03263 0.95089 0.0
C1233 C 0.73038 0.98651 0.021 0.0
C1234 C 0.7476 0.02223 0.01828 0.0
C1235 C 0.7571 0.03638 0.99542 0.0
C1236 C 0.74919 0.04474 0.03786 0.0
C1237 C 0.71937 0.96976 0.04507 0.0
C1238 C 0.73171 0.06267 0.03506 0.0
C1239 C 0.73061 0.08254 0.05343 0.0
C1240 C 0.7467 0.08473 0.07522 0.0
C1241 C 0.76452 0.06701 0.07807 0.0
C1242 C 0.76602 0.04736 0.0594 0.0
H1243 H 0.70254 0.94179 0.04371 0.0
H1244 H 0.74211 0.97479 0.05556 0.0
H1245 H 0.70565 0.98035 0.05503 0.0
H1246 H 0.71828 0.0608 0.01868 0.0
H1247 H 0.71664 0.0958 0.05059 0.0
H1248 H 0.62085 0.7193 0.38118 0.0
H1249 H 0.65822 0.72202 0.34942 0.0
H1250 H 0.74583 0.78672 0.39246 0.0
H1251 H 0.70813 0.78284 0.4251 0.0
H1252 H 0.7062 0.77319 0.32363 0.0
H1253 H 0.76439 0.71147 0.37658 0.0
H1254 H 0.72837 0.7139 0.38745 0.0
H1255 H 0.76988 0.75115 0.38728 0.0
C1256 C 0.64804 0.73416 0.38399 0.0
C1257 C 0.66153 0.7505 0.40578 0.0
C1258 C 0.66944 0.73589 0.36571 0.0
C1259 C 0.70485 0.75433 0.3686 0.0
C1260 C 0.71858 0.77178 0.39002 0.0
H1261 H 0.77837 0.71085 0.23461 0.0
H1262 H 0.781 0.74941 0.26625 0.0
C1263 C 0.69704 0.76957 0.40861 0.0
C1264 C 0.72632 0.75284 0.34937 0.0
H1265 H 0.7708 0.71303 0.33551 0.0
C1266 C 0.72107 0.76076 0.32617 0.0
C1267 C 0.74611 0.73709 0.35288 0.0
C1268 C 0.75252 0.7277 0.37733 0.0
C1269 C 0.73123 0.74946 0.30626 0.0
C1270 C 0.74824 0.7309 0.30981 0.0
C1271 C 0.7574 0.72697 0.33296 0.0
C1272 C 0.7498 0.70907 0.2909 0.0
C1273 C 0.72064 0.75448 0.28183 0.0
C1274 C 0.73221 0.6738 0.2945 0.0
C1275 C 0.73113 0.65197 0.2768 0.0
C1276 C 0.74733 0.66483 0.25488 0.0
C1277 C 0.7653 0.70022 0.25124 0.0
C1278 C 0.76679 0.72224 0.26926 0.0
H1279 H 0.70398 0.76587 0.28256 0.0
H1280 H 0.74358 0.77169 0.27133 0.0
H1281 H 0.70689 0.72985 0.27226 0.0
H1282 H 0.71866 0.66302 0.31098 0.0
H1283 H 0.71704 0.6249 0.28023 0.0
H1284 H 0.0913 0.71299 0.61658 0.0
H1285 H 0.056 0.71502 0.64813 0.0
H1286 H 0.03347 0.78015 0.6053 0.0
H1287 H 0.06828 0.77728 0.57291 0.0
H1288 H 0.06108 0.76846 0.67354 0.0
H1289 H 0.93937 0.70429 0.62265 0.0
H1290 H 0.97735 0.70583 0.61156 0.0
H1291 H 0.97357 0.74332 0.61103 0.0
C1292 C 0.07885 0.72773 0.61373 0.0
C1293 C 0.08238 0.74477 0.59215 0.0
C1294 C 0.0588 0.72904 0.63189 0.0
C1295 C 0.04203 0.74766 0.62907 0.0
C1296 C 0.0458 0.76522 0.60771 0.0
H1297 H 0.92823 0.70832 0.76436 0.0
H1298 H 0.96333 0.74586 0.73199 0.0
C1299 C 0.06565 0.76354 0.58925 0.0
C1300 C 0.01966 0.74673 0.64855 0.0
H1301 H 0.93591 0.70649 0.66388 0.0
C1302 C 0.03368 0.7557 0.67148 0.0
C1303 C 0.98402 0.73053 0.64564 0.0
C1304 C 0.96748 0.72024 0.62147 0.0
C1305 C 0.01296 0.74509 0.69177 0.0
C1306 C 0.97731 0.72598 0.68887 0.0
C1307 C 0.96332 0.72088 0.66593 0.0
C1308 C 0.95485 0.7047 0.70835 0.0
C1309 C 0.02945 0.7514 0.71597 0.0
C1310 C 0.93809 0.66931 0.70561 0.0
C1311 C 0.91792 0.64805 0.72375 0.0
C1312 C 0.9142 0.66162 0.74524 0.0
C1313 C 0.93095 0.69715 0.74808 0.0
C1314 C 0.95097 0.71859 0.72964 0.0
H1315 H 0.05755 0.76354 0.71482 0.0
H1316 H 0.02331 0.76839 0.72635 0.0
H1317 H 0.01954 0.72714 0.72589 0.0
H1318 H 0.94099 0.65802 0.68944 0.0
H1319 H 0.9055 0.62086 0.72093 0.0
H1320 H 0.22008 0.93082 0.09499 0.0
H1321 H 0.21593 0.96503 0.06277 0.0
H1322 H 0.27189 0.93464 0.01656 0.0
H1323 H 0.27511 0.89993 0.04796 0.0
H1324 H 0.2636 0.01795 0.04127 0.0
H1325 H 0.19884 0.92211 0.97202 0.0
H1326 H 0.19923 0.91038 0.00268 0.0
H1327 H 0.23318 0.91709 0.98267 0.0
C1328 C 0.23115 0.93122 0.07785 0.0
C1329 C 0.24781 0.91254 0.07402 0.0
C1330 C 0.22858 0.95059 0.05944 0.0
C1331 C 0.24262 0.95154 0.037 0.0
C1332 C 0.25953 0.93319 0.03335 0.0
H1333 H 0.37244 0.09841 0.95085 0.0
H1334 H 0.33481 0.06353 0.9823 0.0
C1335 C 0.26179 0.91366 0.05151 0.0
C1336 C 0.24347 0.97445 0.01793 0.0
H1337 H 0.24449 0.97861 0.95743 0.0
C1338 C 0.25834 0.00924 0.02298 0.0
C1339 C 0.23532 0.96325 0.99409 0.0
C1340 C 0.21535 0.92606 0.98768 0.0
C1341 C 0.2695 0.03328 0.0046 0.0
C1342 C 0.2668 0.02216 0.98077 0.0
C1343 C 0.24767 0.9873 0.97572 0.0
C1344 C 0.28857 0.04536 0.96172 0.0
C1345 C 0.28577 0.0704 0.01102 0.0
C1346 C 0.27538 0.04575 0.93919 0.0
C1347 C 0.29718 0.06524 0.92076 0.0
C1348 C 0.33246 0.0846 0.92463 0.0
C1349 C 0.34541 0.08413 0.94724 0.0
C1350 C 0.32379 0.0645 0.96544 0.0
H1351 H 0.2728 0.07389 0.02661 0.0
H1352 H 0.31267 0.08006 0.01613 0.0
H1353 H 0.28496 0.08583 0.99599 0.0
H1354 H 0.24833 0.03071 0.93581 0.0
H1355 H 0.28643 0.06512 0.90353 0.0
H1356 H 0.84946 0.14856 0.17665 0.0
H1357 H 0.90987 0.17636 0.1871 0.0
H1358 H 0.93622 0.22614 0.1188 0.0
H1359 H 0.87605 0.19861 0.10813 0.0
H1360 H 0.96672 0.17598 0.16019 0.0
H1361 H 0.97873 0.30331 0.17102 0.0
H1362 H 0.93822 0.26437 0.17176 0.0
H1363 H 0.9593 0.28102 0.14389 0.0
C1364 C 0.86812 0.1653 0.16381 0.0
C1365 C 0.858 0.17151 0.14161 0.0
C1366 C 0.90255 0.18105 0.16979 0.0
C1367 C 0.92728 0.20342 0.15377 0.0
C1368 C 0.91736 0.20913 0.13143 0.0
H1369 H 0.14722 0.29885 0.15701 0.0
H1370 H 0.08692 0.26517 0.14651 0.0
C1371 C 0.883 0.19329 0.12538 0.0
C1372 C 0.96346 0.22163 0.16065 0.0
H1373 H 0.02918 0.30056 0.17401 0.0
C1374 C 0.98047 0.2032 0.16324 0.0
C1375 C 0.98101 0.25705 0.16478 0.0
C1376 C 0.96345 0.27771 0.16292 0.0
C1377 C 0.01496 0.21949 0.1696 0.0
C1378 C 0.03265 0.25502 0.17331 0.0
C1379 C 0.01548 0.27333 0.171 0.0
C1380 C 0.06894 0.27378 0.17999 0.0
C1381 C 0.03214 0.19865 0.17263 0.0
C1382 C 0.07862 0.28992 0.20217 0.0
C1383 C 0.11292 0.30914 0.20822 0.0
C1384 C 0.13817 0.31279 0.19206 0.0
C1385 C 0.12836 0.29644 0.16985 0.0
C1386 C 0.09397 0.27707 0.16387 0.0
H1387 H 0.01347 0.17102 0.1738 0.0
H1388 H 0.04894 0.20288 0.15713 0.0
H1389 H 0.04818 0.20654 0.18889 0.0
H1390 H 0.05958 0.2878 0.21476 0.0
H1391 H 0.11961 0.32153 0.22542 0.0
H1392 H 0.86417 0.14459 0.50177 0.0
H1393 H 0.8384 0.08403 0.49242 0.0
H1394 H 0.75196 0.06273 0.53632 0.0
H1395 H 0.77868 0.12277 0.5469 0.0
H1396 H 0.76739 0.01644 0.54327 0.0
H1397 H 0.76532 0.03321 0.44579 0.0
H1398 H 0.80759 0.05521 0.45761 0.0
H1399 H 0.77729 0.0678 0.46632 0.0
C1400 C 0.8397 0.12686 0.50942 0.0
C1401 C 0.82328 0.13824 0.52494 0.0
C1402 C 0.82486 0.09233 0.50392 0.0
C1403 C 0.79279 0.06884 0.51315 0.0
C1404 C 0.77665 0.0803 0.5289 0.0
H1405 H 0.65439 0.87333 0.45328 0.0
H1406 H 0.68733 0.93289 0.46506 0.0
C1407 C 0.79189 0.11462 0.53492 0.0
C1408 C 0.77585 0.03231 0.50659 0.0
H1409 H 0.74954 0.97791 0.45933 0.0
C1410 C 0.76335 0.00801 0.5249 0.0
C1411 C 0.77024 0.02126 0.48261 0.0
C1412 C 0.7805 0.04573 0.46198 0.0
C1413 C 0.7449 0.97308 0.51996 0.0
C1414 C 0.74023 0.96203 0.496 0.0
C1415 C 0.75331 0.98633 0.4777 0.0
C1416 C 0.72024 0.92557 0.4893 0.0
C1417 C 0.72945 0.94864 0.54051 0.0
C1418 C 0.72775 0.9015 0.49889 0.0
C1419 C 0.70821 0.86719 0.49267 0.0
C1420 C 0.68168 0.85666 0.47612 0.0
C1421 C 0.67479 0.88083 0.46604 0.0
C1422 C 0.69366 0.91488 0.47274 0.0
H1423 H 0.72646 0.96135 0.55646 0.0
H1424 H 0.70416 0.9269 0.53577 0.0
H1425 H 0.74646 0.93865 0.54545 0.0
H1426 H 0.74881 0.9092 0.51106 0.0
H1427 H 0.71425 0.84903 0.50045 0.0
H1428 H 0.83145 0.68576 0.84674 0.0
H1429 H 0.80389 0.71895 0.85562 0.0
H1430 H 0.78459 0.72267 0.78086 0.0
H1431 H 0.81129 0.68877 0.77184 0.0
H1432 H 0.81889 0.78262 0.84109 0.0
H1433 H 0.69074 0.68565 0.80943 0.0
H1434 H 0.72455 0.67632 0.81395 0.0
H1435 H 0.72342 0.69786 0.78742 0.0
C1436 C 0.82132 0.69362 0.83218 0.0
C1437 C 0.82331 0.68443 0.8086 0.0
C1438 C 0.80563 0.7126 0.83729 0.0
C1439 C 0.79169 0.72273 0.81894 0.0
C1440 C 0.79446 0.71439 0.79533 0.0
H1441 H 0.68631 0.83805 0.8172 0.0
H1442 H 0.71906 0.81054 0.80657 0.0
C1443 C 0.8099 0.69519 0.79021 0.0
C1444 C 0.77424 0.742 0.82454 0.0
H1445 H 0.69816 0.73958 0.81971 0.0
C1446 C 0.79247 0.7732 0.83648 0.0
C1447 C 0.73975 0.72955 0.81853 0.0
C1448 C 0.71834 0.69537 0.80683 0.0
C1449 C 0.77717 0.79246 0.84237 0.0
C1450 C 0.7428 0.78004 0.83625 0.0
C1451 C 0.72462 0.74901 0.8242 0.0
C1452 C 0.7248 0.79833 0.84283 0.0
C1453 C 0.79783 0.82607 0.8549 0.0
C1454 C 0.71722 0.80038 0.86673 0.0
C1455 C 0.69837 0.81584 0.87288 0.0
C1456 C 0.68687 0.82957 0.85518 0.0
C1457 C 0.69492 0.82784 0.83125 0.0
C1458 C 0.71357 0.81214 0.82513 0.0
H1459 H 0.82551 0.83518 0.85411 0.0
H1460 H 0.79306 0.84567 0.84694 0.0
H1461 H 0.79014 0.82317 0.87387 0.0
H1462 H 0.72532 0.78939 0.88058 0.0
H1463 H 0.69251 0.81668 0.89146 0.0
H1464 H 0.84875 0.6982 0.15332 0.0
H1465 H 0.90912 0.73008 0.14266 0.0
H1466 H 0.93545 0.70693 0.21108 0.0
H1467 H 0.87534 0.67506 0.22196 0.0
H1468 H 0.96576 0.78735 0.16944 0.0
H1469 H 0.97848 0.67238 0.15924 0.0
H1470 H 0.93787 0.67061 0.15832 0.0
H1471 H 0.95882 0.67518 0.18628 0.0
C1472 C 0.8674 0.69997 0.16613 0.0
C1473 C 0.85729 0.68403 0.18845 0.0
C1474 C 0.90181 0.71823 0.16002 0.0
C1475 C 0.92652 0.72052 0.17603 0.0
C1476 C 0.9166 0.70513 0.19844 0.0
H1477 H 0.14606 0.84636 0.17497 0.0
H1478 H 0.08545 0.81881 0.18467 0.0
C1479 C 0.88227 0.68705 0.20462 0.0
C1480 C 0.96274 0.73854 0.16921 0.0
H1481 H 0.02895 0.72571 0.15668 0.0
C1482 C 0.97965 0.77397 0.16659 0.0
C1483 C 0.98049 0.72081 0.16535 0.0
C1484 C 0.96305 0.68261 0.16724 0.0
C1485 C 0.01424 0.7923 0.16054 0.0
C1486 C 0.03216 0.77462 0.15718 0.0
C1487 C 0.01508 0.73913 0.15944 0.0
C1488 C 0.06866 0.79237 0.15105 0.0
C1489 C 0.03131 0.83032 0.15752 0.0
C1490 C 0.07913 0.78625 0.12906 0.0
C1491 C 0.11363 0.80188 0.12346 0.0
C1492 C 0.13828 0.82368 0.13988 0.0
C1493 C 0.12768 0.82977 0.16193 0.0
C1494 C 0.0931 0.81422 0.16746 0.0
H1495 H 0.01255 0.83911 0.1559 0.0
H1496 H 0.04756 0.84291 0.17325 0.0
H1497 H 0.04787 0.83861 0.14152 0.0
H1498 H 0.06056 0.76928 0.11625 0.0
H1499 H 0.12095 0.79651 0.10637 0.0
H1500 H 0.16394 0.85115 0.49028 0.0
H1501 H 0.19263 0.91199 0.48142 0.0
H1502 H 0.2113 0.93475 0.55625 0.0
H1503 H 0.18348 0.8741 0.56524 0.0
H1504 H 0.17929 0.96208 0.49574 0.0
H1505 H 0.30589 0.98924 0.52825 0.0
H1506 H 0.27125 0.94656 0.52356 0.0
H1507 H 0.27271 0.96954 0.55001 0.0
C1508 C 0.17412 0.86911 0.50485 0.0
C1509 C 0.1717 0.85784 0.52844 0.0
C1510 C 0.19046 0.90383 0.49976 0.0
C1511 C 0.20462 0.92783 0.51814 0.0
C1512 C 0.20128 0.91664 0.54176 0.0
H1513 H 0.31741 0.14937 0.51707 0.0
H1514 H 0.28324 0.08967 0.52901 0.0
C1515 C 0.18518 0.88196 0.54686 0.0
C1516 C 0.22311 0.96457 0.51254 0.0
H1517 H 0.30057 0.03669 0.51722 0.0
C1518 C 0.20581 0.9784 0.50041 0.0
C1519 C 0.25772 0.98576 0.51866 0.0
C1520 C 0.27812 0.97203 0.53064 0.0
C1521 C 0.22222 0.01296 0.49431 0.0
C1522 C 0.25677 0.03402 0.50039 0.0
C1523 C 0.27397 0.02036 0.51275 0.0
C1524 C 0.27604 0.07003 0.49314 0.0
C1525 C 0.20253 0.0268 0.48151 0.0
C1526 C 0.28339 0.07849 0.46906 0.0
C1527 C 0.30303 0.11242 0.46219 0.0
C1528 C 0.3156 0.13847 0.47931 0.0
C1529 C 0.30798 0.12988 0.50345 0.0
C1530 C 0.28851 0.09586 0.51032 0.0
H1531 H 0.17465 0.00924 0.48268 0.0
H1532 H 0.20861 0.05187 0.48894 0.0
H1533 H 0.20981 0.03045 0.46244 0.0
H1534 H 0.27437 0.05878 0.45562 0.0
H1535 H 0.30851 0.11817 0.44346 0.0
H1536 H 0.14365 0.29387 0.84749 0.0
H1537 H 0.17249 0.26205 0.85725 0.0
H1538 H 0.21839 0.28365 0.78762 0.0
H1539 H 0.18978 0.31548 0.77762 0.0
H1540 H 0.17144 0.20432 0.83043 0.0
H1541 H 0.29844 0.32103 0.8379 0.0
H1542 H 0.25922 0.32198 0.83967 0.0
H1543 H 0.27453 0.31702 0.81138 0.0
C1544 C 0.15971 0.29168 0.83419 0.0
C1545 C 0.16456 0.3073 0.81182 0.0
C1546 C 0.17607 0.27346 0.83979 0.0
C1547 C 0.19769 0.27086 0.8232 0.0
C1548 C 0.20196 0.28569 0.80068 0.0
H1549 H 0.29525 0.14859 0.82399 0.0
H1550 H 0.26096 0.17483 0.81439 0.0
C1551 C 0.18551 0.30375 0.79501 0.0
C1552 C 0.21668 0.25356 0.82968 0.0
H1553 H 0.29667 0.26831 0.84114 0.0
C1554 C 0.1988 0.2182 0.8328 0.0
C1555 C 0.25228 0.27197 0.83295 0.0
C1556 C 0.27237 0.31014 0.8305 0.0
C1557 C 0.21583 0.20061 0.83881 0.0
C1558 C 0.25153 0.21897 0.84162 0.0
C1559 C 0.26929 0.25438 0.83881 0.0
C1560 C 0.27103 0.20202 0.84772 0.0
C1561 C 0.19559 0.16265 0.8424 0.0
C1562 C 0.28826 0.20903 0.8695 0.0
C1563 C 0.30784 0.19415 0.87504 0.0
C1564 C 0.31076 0.17225 0.85876 0.0
C1565 C 0.29344 0.1653 0.83691 0.0
C1566 C 0.27371 0.18009 0.83145 0.0
H1567 H 0.16797 0.15339 0.84434 0.0
H1568 H 0.19915 0.14982 0.82678 0.0
H1569 H 0.20457 0.15513 0.85842 0.0
H1570 H 0.28661 0.2261 0.88219 0.0
H1571 H 0.321 0.20016 0.89196 0.0
loop_
_geom_bond_atom_site_label_1
_geom_bond_atom_site_label_2
_geom_bond_distance
_geom_bond_site_symmetry_2
_ccdc_geom_bond_type
Co0 O2 2.143 . S
Co0 O8 2.074 . S
Co0 O11 2.093 . S
Co0 O24 2.097 . S
Co0 N41 2.151 . S
Co0 N49 2.214 . S
Co1 O2 2.160 . S
Co1 O7 2.058 . S
Co1 O17 2.057 . S
Co1 O32 2.037 . S
Co1 N36 2.145 . S
Co1 N57 2.257 . S
O2 Co0 2.143 . S
O2 Co1 2.160 . S
C3 O4 1.278 . S
C3 O11 1.224 . S
O4 C3 1.278 . S
C5 O6 1.245 . S
C5 O17 1.232 . S
O6 C5 1.245 . S
O7 Co1 2.058 . S
O7 C33 1.269 . S
O8 Co0 2.074 . S
O8 C33 1.257 . S
H9 C34 0.930 . S
H10 C40 0.930 . S
O11 Co0 2.093 . S
O11 C3 1.224 . S
H12 C44 0.929 . S
H13 C46 0.930 . S
H14 C47 0.930 . S
H15 C45 0.929 . S
H16 C48 0.928 . S
O17 Co1 2.057 . S
O17 C5 1.232 . S
H18 C37 0.929 . S
H19 C38 0.929 . S
H20 C50 0.931 . S
H21 C42 0.929 . S
H22 C51 0.930 . S
H23 C43 0.931 . S
O24 Co0 2.097 . S
O24 C52 1.214 . S
H25 C53 0.929 . S
H26 C54 0.929 . S
H27 C55 0.930 . S
H28 C56 0.929 . S
H29 C58 0.930 . S
H30 C35 0.930 . S
H31 C39 0.930 . S
O32 Co1 2.037 . S
O32 C52 1.234 . S
C33 O7 1.269 . S
C33 O8 1.257 . S
C34 H9 0.930 . S
C34 C37 1.388 . S
C34 C39 1.418 . S
C35 H30 0.930 . S
C35 C38 1.404 . S
C35 C39 1.353 . S
N36 Co1 2.145 . S
N36 C37 1.397 . S
N36 C38 1.334 . S
C37 H18 0.929 . S
C37 C34 1.388 . S
C37 N36 1.397 . S
C38 H19 0.929 . S
C38 C35 1.404 . S
C38 N36 1.334 . S
C39 H31 0.930 . S
C39 C34 1.418 . S
C39 C35 1.353 . S
C40 H10 0.930 . S
C40 N41 1.330 . S
C40 C42 1.446 . S
N41 Co0 2.151 . S
N41 C40 1.330 . S
N41 C45 1.418 . S
C42 H21 0.929 . S
C42 C40 1.446 . S
C42 C43 1.332 . S
C43 H23 0.931 . S
C43 C42 1.332 . S
C43 C44 1.267 . S
C44 H12 0.929 . S
C44 C43 1.267 . S
C44 C45 1.251 . S
C45 H15 0.929 . S
C45 N41 1.418 . S
C45 C44 1.251 . S
C46 H13 0.930 . S
C46 C48 1.406 . S
C46 C51 1.261 . S
C47 H14 0.930 . S
C47 N49 1.325 . S
C47 C50 1.357 . S
C48 H16 0.928 . S
C48 C46 1.406 . S
C48 N49 1.261 . S
N49 Co0 2.214 . S
N49 C47 1.325 . S
N49 C48 1.261 . S
C50 H20 0.931 . S
C50 C47 1.357 . S
C50 C51 1.312 . S
C51 H22 0.930 . S
C51 C46 1.261 . S
C51 C50 1.312 . S
C52 O24 1.214 . S
C52 O32 1.234 . S
C53 H25 0.929 . S
C53 C56 1.391 . S
C53 C58 1.391 . S
C54 H26 0.929 . S
C54 C55 1.390 . S
C54 N57 1.391 . S
C55 H27 0.930 . S
C55 C54 1.390 . S
C55 C56 1.392 . S
C56 H28 0.929 . S
C56 C53 1.391 . S
C56 C55 1.392 . S
N57 Co1 2.257 . S
N57 C54 1.391 . S
N57 C58 1.388 . S
C58 H29 0.930 . S
C58 C53 1.391 . S
C58 N57 1.388 . S
Co59 O61 2.143 . S
Co59 O67 2.074 . S
Co59 O70 2.093 . S
Co59 O83 2.097 . S
Co59 N100 2.151 . S
Co59 N108 2.214 . S
Co60 O61 2.160 . S
Co60 O66 2.058 . S
Co60 O76 2.057 . S
Co60 O91 2.037 . S
Co60 N95 2.145 . S
Co60 N116 2.257 . S
O61 Co59 2.143 . S
O61 Co60 2.160 . S
C62 O63 1.278 . S
C62 O70 1.224 . S
O63 C62 1.278 . S
C64 O65 1.245 . S
C64 O76 1.232 . S
O65 C64 1.245 . S
O66 Co60 2.058 . S
O66 C92 1.269 . S
O67 Co59 2.074 . S
O67 C92 1.257 . S
H68 C93 0.930 . S
H69 C99 0.930 . S
O70 Co59 2.093 . S
O70 C62 1.224 . S
H71 C103 0.929 . S
H72 C105 0.930 . S
H73 C106 0.930 . S
H74 C104 0.929 . S
H75 C107 0.928 . S
O76 Co60 2.057 . S
O76 C64 1.232 . S
H77 C96 0.929 . S
H78 C97 0.929 . S
H79 C109 0.931 . S
H80 C101 0.929 . S
H81 C110 0.930 . S
H82 C102 0.931 . S
O83 Co59 2.097 . S
O83 C111 1.214 . S
H84 C112 0.929 . S
H85 C113 0.929 . S
H86 C114 0.930 . S
H87 C115 0.929 . S
H88 C117 0.930 . S
H89 C94 0.930 . S
H90 C98 0.930 . S
O91 Co60 2.037 . S
O91 C111 1.234 . S
C92 O66 1.269 . S
C92 O67 1.257 . S
C93 H68 0.930 . S
C93 C96 1.388 1_455 S
C93 C98 1.418 . S
C94 H89 0.930 . S
C94 C97 1.404 . S
C94 C98 1.353 1_655 S
N95 Co60 2.145 . S
N95 C96 1.397 . S
N95 C97 1.334 . S
C96 H77 0.929 . S
C96 C93 1.388 1_655 S
C96 N95 1.397 . S
C97 H78 0.929 . S
C97 C94 1.404 . S
C97 N95 1.334 . S
C98 H90 0.930 . S
C98 C93 1.418 . S
C98 C94 1.353 1_455 S
C99 H69 0.930 . S
C99 N100 1.330 . S
C99 C101 1.446 . S
N100 Co59 2.151 . S
N100 C99 1.330 . S
N100 C104 1.418 . S
C101 H80 0.929 . S
C101 C99 1.446 . S
C101 C102 1.332 . S
C102 H82 0.931 . S
C102 C101 1.332 . S
C102 C103 1.267 . S
C103 H71 0.929 . S
C103 C102 1.267 . S
C103 C104 1.251 . S
C104 H74 0.929 . S
C104 N100 1.418 . S
C104 C103 1.251 . S
C105 H72 0.930 . S
C105 C107 1.406 . S
C105 C110 1.261 . S
C106 H73 0.930 . S
C106 N108 1.325 . S
C106 C109 1.357 . S
C107 H75 0.928 . S
C107 C105 1.406 . S
C107 N108 1.261 . S
N108 Co59 2.214 . S
N108 C106 1.325 . S
N108 C107 1.261 . S
C109 H79 0.931 . S
C109 C106 1.357 . S
C109 C110 1.312 . S
C110 H81 0.930 . S
C110 C105 1.261 . S
C110 C109 1.312 . S
C111 O83 1.214 . S
C111 O91 1.234 . S
C112 H84 0.929 . S
C112 C115 1.391 . S
C112 C117 1.391 . S
C113 H85 0.929 . S
C113 C114 1.390 . S
C113 N116 1.391 . S
C114 H86 0.930 . S
C114 C113 1.390 . S
C114 C115 1.392 . S
C115 H87 0.929 . S
C115 C112 1.391 . S
C115 C114 1.392 . S
N116 Co60 2.257 . S
N116 C113 1.391 . S
N116 C117 1.388 . S
C117 H88 0.930 . S
C117 C112 1.391 . S
C117 N116 1.388 . S
Co118 O120 2.143 . S
Co118 O126 2.074 . S
Co118 O129 2.093 . S
Co118 O142 2.097 . S
Co118 N159 2.151 . S
Co118 N167 2.214 . S
Co119 O120 2.160 . S
Co119 O125 2.058 . S
Co119 O135 2.057 . S
Co119 O150 2.037 . S
Co119 N154 2.145 . S
Co119 N175 2.257 . S
O120 Co118 2.143 . S
O120 Co119 2.160 . S
C121 O122 1.278 . S
C121 O129 1.224 . S
O122 C121 1.278 . S
C123 O124 1.245 . S
C123 O135 1.232 . S
O124 C123 1.245 . S
O125 Co119 2.058 . S
O125 C151 1.269 . S
O126 Co118 2.074 . S
O126 C151 1.257 . S
H127 C152 0.930 . S
H128 C158 0.930 . S
O129 Co118 2.093 . S
O129 C121 1.224 . S
H130 C162 0.929 . S
H131 C164 0.930 . S
H132 C165 0.930 . S
H133 C163 0.929 . S
H134 C166 0.928 . S
O135 Co119 2.057 . S
O135 C123 1.232 . S
H136 C155 0.929 . S
H137 C156 0.929 . S
H138 C168 0.931 . S
H139 C160 0.929 . S
H140 C169 0.930 . S
H141 C161 0.931 . S
O142 Co118 2.097 . S
O142 C170 1.214 . S
H143 C171 0.929 . S
H144 C172 0.929 . S
H145 C173 0.930 . S
H146 C174 0.929 . S
H147 C176 0.930 . S
H148 C153 0.930 . S
H149 C157 0.930 . S
O150 Co119 2.037 . S
O150 C170 1.234 . S
C151 O125 1.269 . S
C151 O126 1.257 . S
C152 H127 0.930 . S
C152 C155 1.388 1_545 S
C152 C157 1.418 . S
C153 H148 0.930 . S
C153 C156 1.404 . S
C153 C157 1.353 1_565 S
N154 Co119 2.145 . S
N154 C155 1.397 . S
N154 C156 1.334 . S
C155 H136 0.929 . S
C155 C152 1.388 1_565 S
C155 N154 1.397 . S
C156 H137 0.929 . S
C156 C153 1.404 . S
C156 N154 1.334 . S
C157 H149 0.930 . S
C157 C152 1.418 . S
C157 C153 1.353 1_545 S
C158 H128 0.930 . S
C158 N159 1.330 . S
C158 C160 1.446 . S
N159 Co118 2.151 . S
N159 C158 1.330 . S
N159 C163 1.418 . S
C160 H139 0.929 . S
C160 C158 1.446 . S
C160 C161 1.332 . S
C161 H141 0.931 . S
C161 C160 1.332 . S
C161 C162 1.267 . S
C162 H130 0.929 . S
C162 C161 1.267 . S
C162 C163 1.251 . S
C163 H133 0.929 . S
C163 N159 1.418 . S
C163 C162 1.251 . S
C164 H131 0.930 . S
C164 C166 1.406 . S
C164 C169 1.261 . S
C165 H132 0.930 . S
C165 N167 1.325 . S
C165 C168 1.357 . S
C166 H134 0.928 . S
C166 C164 1.406 . S
C166 N167 1.261 . S
N167 Co118 2.214 . S
N167 C165 1.325 . S
N167 C166 1.261 . S
C168 H138 0.931 . S
C168 C165 1.357 . S
C168 C169 1.312 . S
C169 H140 0.930 . S
C169 C164 1.261 . S
C169 C168 1.312 . S
C170 O142 1.214 . S
C170 O150 1.234 . S
C171 H143 0.929 . S
C171 C174 1.391 . S
C171 C176 1.391 . S
C172 H144 0.929 . S
C172 C173 1.390 . S
C172 N175 1.391 . S
C173 H145 0.930 . S
C173 C172 1.390 . S
C173 C174 1.392 . S
C174 H146 0.929 . S
C174 C171 1.391 . S
C174 C173 1.392 . S
N175 Co119 2.257 . S
N175 C172 1.391 . S
N175 C176 1.388 . S
C176 H147 0.930 . S
C176 C171 1.391 . S
C176 N175 1.388 . S
Co177 O179 2.143 . S
Co177 O185 2.074 . S
Co177 O188 2.093 . S
Co177 O201 2.097 . S
Co177 N218 2.151 . S
Co177 N226 2.214 . S
Co178 O179 2.160 . S
Co178 O184 2.058 . S
Co178 O194 2.057 . S
Co178 O209 2.037 . S
Co178 N213 2.145 . S
Co178 N234 2.257 . S
O179 Co177 2.143 . S
O179 Co178 2.160 . S
C180 O181 1.278 . S
C180 O188 1.224 . S
O181 C180 1.278 . S
C182 O183 1.245 . S
C182 O194 1.232 . S
O183 C182 1.245 . S
O184 Co178 2.058 . S
O184 C210 1.269 . S
O185 Co177 2.074 . S
O185 C210 1.257 . S
H186 C211 0.930 . S
H187 C217 0.930 . S
O188 Co177 2.093 . S
O188 C180 1.224 . S
H189 C221 0.929 . S
H190 C223 0.930 . S
H191 C224 0.930 . S
H192 C222 0.929 . S
H193 C225 0.928 . S
O194 Co178 2.057 . S
O194 C182 1.232 . S
H195 C214 0.929 . S
H196 C215 0.929 . S
H197 C227 0.931 . S
H198 C219 0.929 . S
H199 C228 0.930 . S
H200 C220 0.931 . S
O201 Co177 2.097 . S
O201 C229 1.214 . S
H202 C230 0.929 . S
H203 C231 0.929 . S
H204 C232 0.930 . S
H205 C233 0.929 . S
H206 C235 0.930 . S
H207 C212 0.930 . S
H208 C216 0.930 . S
O209 Co178 2.037 . S
O209 C229 1.234 . S
C210 O184 1.269 . S
C210 O185 1.257 . S
C211 H186 0.930 . S
C211 C214 1.388 . S
C211 C216 1.418 . S
C212 H207 0.930 . S
C212 C215 1.404 . S
C212 C216 1.353 . S
N213 Co178 2.145 . S
N213 C214 1.397 . S
N213 C215 1.334 . S
C214 H195 0.929 . S
C214 C211 1.388 . S
C214 N213 1.397 . S
C215 H196 0.929 . S
C215 C212 1.404 . S
C215 N213 1.334 . S
C216 H208 0.930 . S
C216 C211 1.418 . S
C216 C212 1.353 . S
C217 H187 0.930 . S
C217 N218 1.330 . S
C217 C219 1.446 . S
N218 Co177 2.151 . S
N218 C217 1.330 . S
N218 C222 1.418 . S
C219 H198 0.929 . S
C219 C217 1.446 . S
C219 C220 1.332 . S
C220 H200 0.931 . S
C220 C219 1.332 . S
C220 C221 1.267 . S
C221 H189 0.929 . S
C221 C220 1.267 . S
C221 C222 1.251 . S
C222 H192 0.929 . S
C222 N218 1.418 . S
C222 C221 1.251 . S
C223 H190 0.930 . S
C223 C225 1.406 . S
C223 C228 1.261 . S
C224 H191 0.930 . S
C224 N226 1.325 . S
C224 C227 1.357 . S
C225 H193 0.928 . S
C225 C223 1.406 . S
C225 N226 1.261 . S
N226 Co177 2.214 . S
N226 C224 1.325 . S
N226 C225 1.261 . S
C227 H197 0.931 . S
C227 C224 1.357 . S
C227 C228 1.312 . S
C228 H199 0.930 . S
C228 C223 1.261 . S
C228 C227 1.312 . S
C229 O201 1.214 . S
C229 O209 1.234 . S
C230 H202 0.929 . S
C230 C233 1.391 . S
C230 C235 1.391 . S
C231 H203 0.929 . S
C231 C232 1.390 . S
C231 N234 1.391 . S
C232 H204 0.930 . S
C232 C231 1.390 . S
C232 C233 1.392 . S
C233 H205 0.929 . S
C233 C230 1.391 . S
C233 C232 1.392 . S
N234 Co178 2.257 . S
N234 C231 1.391 . S
N234 C235 1.388 . S
C235 H206 0.930 . S
C235 C230 1.391 . S
C235 N234 1.388 . S
Co236 O238 2.143 . S
Co236 O244 2.074 . S
Co236 O247 2.093 . S
Co236 O260 2.097 . S
Co236 N277 2.151 . S
Co236 N285 2.214 . S
Co237 O238 2.160 . S
Co237 O243 2.058 . S
Co237 O253 2.057 . S
Co237 O268 2.037 . S
Co237 N272 2.145 . S
Co237 N293 2.257 . S
O238 Co236 2.143 . S
O238 Co237 2.160 . S
C239 O240 1.278 . S
C239 O247 1.224 . S
O240 C239 1.278 . S
C241 O242 1.245 . S
C241 O253 1.232 . S
O242 C241 1.245 . S
O243 Co237 2.058 . S
O243 C269 1.269 . S
O244 Co236 2.074 . S
O244 C269 1.257 . S
H245 C270 0.930 . S
H246 C276 0.930 . S
O247 Co236 2.093 . S
O247 C239 1.224 . S
H248 C280 0.929 . S
H249 C282 0.930 . S
H250 C283 0.930 . S
H251 C281 0.929 . S
H252 C284 0.928 . S
O253 Co237 2.057 . S
O253 C241 1.232 . S
H254 C273 0.929 . S
H255 C274 0.929 . S
H256 C286 0.931 . S
H257 C278 0.929 . S
H258 C287 0.930 . S
H259 C279 0.931 . S
O260 Co236 2.097 . S
O260 C288 1.214 . S
H261 C289 0.929 . S
H262 C290 0.929 . S
H263 C291 0.930 . S
H264 C292 0.929 . S
H265 C294 0.930 . S
H266 C271 0.930 . S
H267 C275 0.930 . S
O268 Co237 2.037 . S
O268 C288 1.234 . S
C269 O243 1.269 . S
C269 O244 1.257 . S
C270 H245 0.930 . S
C270 C273 1.388 1_655 S
C270 C275 1.418 . S
C271 H266 0.930 . S
C271 C274 1.404 . S
C271 C275 1.353 1_455 S
N272 Co237 2.145 . S
N272 C273 1.397 . S
N272 C274 1.334 . S
C273 H254 0.929 . S
C273 C270 1.388 1_455 S
C273 N272 1.397 . S
C274 H255 0.929 . S
C274 C271 1.404 . S
C274 N272 1.334 . S
C275 H267 0.930 . S
C275 C270 1.418 . S
C275 C271 1.353 1_655 S
C276 H246 0.930 . S
C276 N277 1.330 . S
C276 C278 1.446 . S
N277 Co236 2.151 . S
N277 C276 1.330 . S
N277 C281 1.418 . S
C278 H257 0.929 . S
C278 C276 1.446 . S
C278 C279 1.332 . S
C279 H259 0.931 . S
C279 C278 1.332 . S
C279 C280 1.267 . S
C280 H248 0.929 . S
C280 C279 1.267 . S
C280 C281 1.251 . S
C281 H251 0.929 . S
C281 N277 1.418 . S
C281 C280 1.251 . S
C282 H249 0.930 . S
C282 C284 1.406 . S
C282 C287 1.261 . S
C283 H250 0.930 . S
C283 N285 1.325 . S
C283 C286 1.357 . S
C284 H252 0.928 . S
C284 C282 1.406 . S
C284 N285 1.261 . S
N285 Co236 2.214 . S
N285 C283 1.325 . S
N285 C284 1.261 . S
C286 H256 0.931 . S
C286 C283 1.357 . S
C286 C287 1.312 . S
C287 H258 0.930 . S
C287 C282 1.261 . S
C287 C286 1.312 . S
C288 O260 1.214 . S
C288 O268 1.234 . S
C289 H261 0.929 . S
C289 C292 1.391 . S
C289 C294 1.391 . S
C290 H262 0.929 . S
C290 C291 1.390 . S
C290 N293 1.391 . S
C291 H263 0.930 . S
C291 C290 1.390 . S
C291 C292 1.392 . S
C292 H264 0.929 . S
C292 C289 1.391 . S
C292 C291 1.392 . S
N293 Co237 2.257 . S
N293 C290 1.391 . S
N293 C294 1.388 . S
C294 H265 0.930 . S
C294 C289 1.391 . S
C294 N293 1.388 . S
Co295 O297 2.143 . S
Co295 O303 2.074 . S
Co295 O306 2.093 . S
Co295 O319 2.097 . S
Co295 N336 2.151 . S
Co295 N344 2.214 . S
Co296 O297 2.160 . S
Co296 O302 2.058 . S
Co296 O312 2.057 . S
Co296 O327 2.037 . S
Co296 N331 2.145 . S
Co296 N352 2.257 . S
O297 Co295 2.143 . S
O297 Co296 2.160 . S
C298 O299 1.278 . S
C298 O306 1.224 . S
O299 C298 1.278 . S
C300 O301 1.245 . S
C300 O312 1.232 . S
O301 C300 1.245 . S
O302 Co296 2.058 . S
O302 C328 1.269 . S
O303 Co295 2.074 . S
O303 C328 1.257 . S
H304 C329 0.930 . S
H305 C335 0.930 . S
O306 Co295 2.093 . S
O306 C298 1.224 . S
H307 C339 0.929 . S
H308 C341 0.930 . S
H309 C342 0.930 . S
H310 C340 0.929 . S
H311 C343 0.928 . S
O312 Co296 2.057 . S
O312 C300 1.232 . S
H313 C332 0.929 . S
H314 C333 0.929 . S
H315 C345 0.931 . S
H316 C337 0.929 . S
H317 C346 0.930 . S
H318 C338 0.931 . S
O319 Co295 2.097 . S
O319 C347 1.214 . S
H320 C348 0.929 . S
H321 C349 0.929 . S
H322 C350 0.930 . S
H323 C351 0.929 . S
H324 C353 0.930 . S
H325 C330 0.930 . S
H326 C334 0.930 . S
O327 Co296 2.037 . S
O327 C347 1.234 . S
C328 O302 1.269 . S
C328 O303 1.257 . S
C329 H304 0.930 . S
C329 C332 1.388 1_565 S
C329 C334 1.418 . S
C330 H325 0.930 . S
C330 C333 1.404 . S
C330 C334 1.353 1_545 S
N331 Co296 2.145 . S
N331 C332 1.397 . S
N331 C333 1.334 . S
C332 H313 0.929 . S
C332 C329 1.388 1_545 S
C332 N331 1.397 . S
C333 H314 0.929 . S
C333 C330 1.404 . S
C333 N331 1.334 . S
C334 H326 0.930 . S
C334 C329 1.418 . S
C334 C330 1.353 1_565 S
C335 H305 0.930 . S
C335 N336 1.330 . S
C335 C337 1.446 . S
N336 Co295 2.151 . S
N336 C335 1.330 . S
N336 C340 1.418 . S
C337 H316 0.929 . S
C337 C335 1.446 . S
C337 C338 1.332 . S
C338 H318 0.931 . S
C338 C337 1.332 . S
C338 C339 1.267 . S
C339 H307 0.929 . S
C339 C338 1.267 . S
C339 C340 1.251 . S
C340 H310 0.929 . S
C340 N336 1.418 . S
C340 C339 1.251 . S
C341 H308 0.930 . S
C341 C343 1.406 . S
C341 C346 1.261 . S
C342 H309 0.930 . S
C342 N344 1.325 . S
C342 C345 1.357 . S
C343 H311 0.928 . S
C343 C341 1.406 . S
C343 N344 1.261 . S
N344 Co295 2.214 . S
N344 C342 1.325 . S
N344 C343 1.261 . S
C345 H315 0.931 . S
C345 C342 1.357 . S
C345 C346 1.312 . S
C346 H317 0.930 . S
C346 C341 1.261 . S
C346 C345 1.312 . S
C347 O319 1.214 . S
C347 O327 1.234 . S
C348 H320 0.929 . S
C348 C351 1.391 . S
C348 C353 1.391 . S
C349 H321 0.929 . S
C349 C350 1.390 . S
C349 N352 1.391 . S
C350 H322 0.930 . S
C350 C349 1.390 . S
C350 C351 1.392 . S
C351 H323 0.929 . S
C351 C348 1.391 . S
C351 C350 1.392 . S
N352 Co296 2.257 . S
N352 C349 1.391 . S
N352 C353 1.388 . S
C353 H324 0.930 . S
C353 C348 1.391 . S
C353 N352 1.388 . S
Co354 O356 2.143 . S
Co354 O362 2.074 . S
Co354 O365 2.093 . S
Co354 O378 2.097 . S
Co354 N395 2.151 . S
Co354 N403 2.214 . S
Co355 O356 2.160 . S
Co355 O361 2.058 . S
Co355 O371 2.057 . S
Co355 O386 2.037 . S
Co355 N390 2.145 . S
Co355 N411 2.257 . S
O356 Co354 2.143 . S
O356 Co355 2.160 . S
C357 O358 1.278 . S
C357 O365 1.224 . S
O358 C357 1.278 . S
C359 O360 1.245 . S
C359 O371 1.232 . S
O360 C359 1.245 . S
O361 Co355 2.058 . S
O361 C387 1.269 . S
O362 Co354 2.074 . S
O362 C387 1.257 . S
H363 C388 0.930 . S
H364 C394 0.930 . S
O365 Co354 2.093 . S
O365 C357 1.224 . S
H366 C398 0.929 . S
H367 C400 0.930 . S
H368 C401 0.930 . S
H369 C399 0.929 . S
H370 C402 0.928 . S
O371 Co355 2.057 . S
O371 C359 1.232 . S
H372 C391 0.929 . S
H373 C392 0.929 . S
H374 C404 0.931 . S
H375 C396 0.929 . S
H376 C405 0.930 . S
H377 C397 0.931 . S
O378 Co354 2.097 . S
O378 C406 1.214 . S
H379 C407 0.929 . S
H380 C408 0.929 . S
H381 C409 0.930 . S
H382 C410 0.929 . S
H383 C412 0.930 . S
H384 C389 0.930 . S
H385 C393 0.930 . S
O386 Co355 2.037 . S
O386 C406 1.234 . S
C387 O361 1.269 . S
C387 O362 1.257 . S
C388 H363 0.930 . S
C388 C391 1.388 . S
C388 C393 1.418 . S
C389 H384 0.930 . S
C389 C392 1.404 . S
C389 C393 1.353 . S
N390 Co355 2.145 . S
N390 C391 1.397 . S
N390 C392 1.334 . S
C391 H372 0.929 . S
C391 C388 1.388 . S
C391 N390 1.397 . S
C392 H373 0.929 . S
C392 C389 1.404 . S
C392 N390 1.334 . S
C393 H385 0.930 . S
C393 C388 1.418 . S
C393 C389 1.353 . S
C394 H364 0.930 . S
C394 N395 1.330 . S
C394 C396 1.446 . S
N395 Co354 2.151 . S
N395 C394 1.330 . S
N395 C399 1.418 . S
C396 H375 0.929 . S
C396 C394 1.446 . S
C396 C397 1.332 . S
C397 H377 0.931 . S
C397 C396 1.332 . S
C397 C398 1.267 . S
C398 H366 0.929 . S
C398 C397 1.267 . S
C398 C399 1.251 . S
C399 H369 0.929 . S
C399 N395 1.418 . S
C399 C398 1.251 . S
C400 H367 0.930 . S
C400 C402 1.406 . S
C400 C405 1.261 . S
C401 H368 0.930 . S
C401 N403 1.325 . S
C401 C404 1.357 . S
C402 H370 0.928 . S
C402 C400 1.406 . S
C402 N403 1.261 . S
N403 Co354 2.214 . S
N403 C401 1.325 . S
N403 C402 1.261 . S
C404 H374 0.931 . S
C404 C401 1.357 . S
C404 C405 1.312 . S
C405 H376 0.930 . S
C405 C400 1.261 . S
C405 C404 1.312 . S
C406 O378 1.214 . S
C406 O386 1.234 . S
C407 H379 0.929 . S
C407 C410 1.391 . S
C407 C412 1.391 . S
C408 H380 0.929 . S
C408 C409 1.390 . S
C408 N411 1.391 . S
C409 H381 0.930 . S
C409 C408 1.390 . S
C409 C410 1.392 . S
C410 H382 0.929 . S
C410 C407 1.391 . S
C410 C409 1.392 . S
N411 Co355 2.257 . S
N411 C408 1.391 . S
N411 C412 1.388 . S
C412 H383 0.930 . S
C412 C407 1.391 . S
C412 N411 1.388 . S
Co413 O415 2.143 . S
Co413 O421 2.074 . S
Co413 O424 2.093 . S
Co413 O437 2.097 . S
Co413 N454 2.151 . S
Co413 N462 2.214 . S
Co414 O415 2.160 . S
Co414 O420 2.058 . S
Co414 O430 2.057 . S
Co414 O445 2.037 . S
Co414 N449 2.145 . S
Co414 N470 2.257 . S
O415 Co413 2.143 . S
O415 Co414 2.160 . S
C416 O417 1.278 . S
C416 O424 1.224 . S
O417 C416 1.278 . S
C418 O419 1.245 . S
C418 O430 1.232 . S
O419 C418 1.245 . S
O420 Co414 2.058 . S
O420 C446 1.269 . S
O421 Co413 2.074 . S
O421 C446 1.257 . S
H422 C447 0.930 . S
H423 C453 0.930 . S
O424 Co413 2.093 . S
O424 C416 1.224 . S
H425 C457 0.929 . S
H426 C459 0.930 . S
H427 C460 0.930 . S
H428 C458 0.929 . S
H429 C461 0.928 . S
O430 Co414 2.057 . S
O430 C418 1.232 . S
H431 C450 0.929 . S
H432 C451 0.929 . S
H433 C463 0.931 . S
H434 C455 0.929 . S
H435 C464 0.930 . S
H436 C456 0.931 . S
O437 Co413 2.097 . S
O437 C465 1.214 . S
H438 C466 0.929 . S
H439 C467 0.929 . S
H440 C468 0.930 . S
H441 C469 0.929 . S
H442 C471 0.930 . S
H443 C448 0.930 . S
H444 C452 0.930 . S
O445 Co414 2.037 . S
O445 C465 1.234 . S
C446 O420 1.269 . S
C446 O421 1.257 . S
C447 H422 0.930 . S
C447 C450 1.388 1_455 S
C447 C452 1.418 . S
C448 H443 0.930 . S
C448 C451 1.404 . S
C448 C452 1.353 1_655 S
N449 Co414 2.145 . S
N449 C450 1.397 . S
N449 C451 1.334 . S
C450 H431 0.929 . S
C450 C447 1.388 1_655 S
C450 N449 1.397 . S
C451 H432 0.929 . S
C451 C448 1.404 . S
C451 N449 1.334 . S
C452 H444 0.930 . S
C452 C447 1.418 . S
C452 C448 1.353 1_455 S
C453 H423 0.930 . S
C453 N454 1.330 . S
C453 C455 1.446 . S
N454 Co413 2.151 . S
N454 C453 1.330 . S
N454 C458 1.418 . S
C455 H434 0.929 . S
C455 C453 1.446 . S
C455 C456 1.332 . S
C456 H436 0.931 . S
C456 C455 1.332 . S
C456 C457 1.267 . S
C457 H425 0.929 . S
C457 C456 1.267 . S
C457 C458 1.251 . S
C458 H428 0.929 . S
C458 N454 1.418 . S
C458 C457 1.251 . S
C459 H426 0.930 . S
C459 C461 1.406 . S
C459 C464 1.261 . S
C460 H427 0.930 . S
C460 N462 1.325 . S
C460 C463 1.357 . S
C461 H429 0.928 . S
C461 C459 1.406 . S
C461 N462 1.261 . S
N462 Co413 2.214 . S
N462 C460 1.325 . S
N462 C461 1.261 . S
C463 H433 0.931 . S
C463 C460 1.357 . S
C463 C464 1.312 . S
C464 H435 0.930 . S
C464 C459 1.261 . S
C464 C463 1.312 . S
C465 O437 1.214 . S
C465 O445 1.234 . S
C466 H438 0.929 . S
C466 C469 1.391 . S
C466 C471 1.391 . S
C467 H439 0.929 . S
C467 C468 1.390 . S
C467 N470 1.391 . S
C468 H440 0.930 . S
C468 C467 1.390 . S
C468 C469 1.392 . S
C469 H441 0.929 . S
C469 C466 1.391 . S
C469 C468 1.392 . S
N470 Co414 2.257 . S
N470 C467 1.391 . S
N470 C471 1.388 . S
C471 H442 0.930 . S
C471 C466 1.391 . S
C471 N470 1.388 . S
Co472 O474 2.143 . S
Co472 O480 2.074 . S
Co472 O483 2.093 . S
Co472 O496 2.097 . S
Co472 N513 2.151 . S
Co472 N521 2.214 . S
Co473 O474 2.160 . S
Co473 O479 2.058 . S
Co473 O489 2.057 . S
Co473 O504 2.037 . S
Co473 N508 2.145 . S
Co473 N529 2.257 . S
O474 Co472 2.143 . S
O474 Co473 2.160 . S
C475 O476 1.278 . S
C475 O483 1.224 . S
O476 C475 1.278 . S
C477 O478 1.245 . S
C477 O489 1.232 . S
O478 C477 1.245 . S
O479 Co473 2.058 . S
O479 C505 1.269 . S
O480 Co472 2.074 . S
O480 C505 1.257 . S
H481 C506 0.930 . S
H482 C512 0.930 . S
O483 Co472 2.093 . S
O483 C475 1.224 . S
H484 C516 0.929 . S
H485 C518 0.930 . S
H486 C519 0.930 . S
H487 C517 0.929 . S
H488 C520 0.928 . S
O489 Co473 2.057 . S
O489 C477 1.232 . S
H490 C509 0.929 . S
H491 C510 0.929 . S
H492 C522 0.931 . S
H493 C514 0.929 . S
H494 C523 0.930 . S
H495 C515 0.931 . S
O496 Co472 2.097 . S
O496 C524 1.214 . S
H497 C525 0.929 . S
H498 C526 0.929 . S
H499 C527 0.930 . S
H500 C528 0.929 . S
H501 C530 0.930 . S
H502 C507 0.930 . S
H503 C511 0.930 . S
O504 Co473 2.037 . S
O504 C524 1.234 . S
C505 O479 1.269 . S
C505 O480 1.257 . S
C506 H481 0.930 . S
C506 C509 1.388 1_545 S
C506 C511 1.418 . S
C507 H502 0.930 . S
C507 C510 1.404 . S
C507 C511 1.353 1_565 S
N508 Co473 2.145 . S
N508 C509 1.397 . S
N508 C510 1.334 . S
C509 H490 0.929 . S
C509 C506 1.388 1_565 S
C509 N508 1.397 . S
C510 H491 0.929 . S
C510 C507 1.404 . S
C510 N508 1.334 . S
C511 H503 0.930 . S
C511 C506 1.418 . S
C511 C507 1.353 1_545 S
C512 H482 0.930 . S
C512 N513 1.330 . S
C512 C514 1.446 . S
N513 Co472 2.151 . S
N513 C512 1.330 . S
N513 C517 1.418 . S
C514 H493 0.929 . S
C514 C512 1.446 . S
C514 C515 1.332 . S
C515 H495 0.931 . S
C515 C514 1.332 . S
C515 C516 1.267 . S
C516 H484 0.929 . S
C516 C515 1.267 . S
C516 C517 1.251 . S
C517 H487 0.929 . S
C517 N513 1.418 . S
C517 C516 1.251 . S
C518 H485 0.930 . S
C518 C520 1.406 . S
C518 C523 1.261 . S
C519 H486 0.930 . S
C519 N521 1.325 . S
C519 C522 1.357 . S
C520 H488 0.928 . S
C520 C518 1.406 . S
C520 N521 1.261 . S
N521 Co472 2.214 . S
N521 C519 1.325 . S
N521 C520 1.261 . S
C522 H492 0.931 . S
C522 C519 1.357 . S
C522 C523 1.312 . S
C523 H494 0.930 . S
C523 C518 1.261 . S
C523 C522 1.312 . S
C524 O496 1.214 . S
C524 O504 1.234 . S
C525 H497 0.929 . S
C525 C528 1.391 . S
C525 C530 1.391 . S
C526 H498 0.929 . S
C526 C527 1.390 . S
C526 N529 1.391 . S
C527 H499 0.930 . S
C527 C526 1.390 . S
C527 C528 1.392 . S
C528 H500 0.929 . S
C528 C525 1.391 . S
C528 C527 1.392 . S
N529 Co473 2.257 . S
N529 C526 1.391 . S
N529 C530 1.388 . S
C530 H501 0.930 . S
C530 C525 1.391 . S
C530 N529 1.388 . S
Co531 O533 2.143 . S
Co531 O539 2.074 . S
Co531 O542 2.093 . S
Co531 O555 2.097 . S
Co531 N572 2.151 . S
Co531 N580 2.214 . S
Co532 O533 2.160 . S
Co532 O538 2.058 . S
Co532 O548 2.057 . S
Co532 O563 2.037 . S
Co532 N567 2.145 . S
Co532 N588 2.257 . S
O533 Co531 2.143 . S
O533 Co532 2.160 . S
C534 O535 1.278 . S
C534 O542 1.224 . S
O535 C534 1.278 . S
C536 O537 1.245 . S
C536 O548 1.232 . S
O537 C536 1.245 . S
O538 Co532 2.058 . S
O538 C564 1.269 . S
O539 Co531 2.074 . S
O539 C564 1.257 . S
H540 C565 0.930 . S
H541 C571 0.930 . S
O542 Co531 2.093 . S
O542 C534 1.224 . S
H543 C575 0.929 . S
H544 C577 0.930 . S
H545 C578 0.930 . S
H546 C576 0.929 . S
H547 C579 0.928 . S
O548 Co532 2.057 . S
O548 C536 1.232 . S
H549 C568 0.929 . S
H550 C569 0.929 . S
H551 C581 0.931 . S
H552 C573 0.929 . S
H553 C582 0.930 . S
H554 C574 0.931 . S
O555 Co531 2.097 . S
O555 C583 1.214 . S
H556 C584 0.929 . S
H557 C585 0.929 . S
H558 C586 0.930 . S
H559 C587 0.929 . S
H560 C589 0.930 . S
H561 C566 0.930 . S
H562 C570 0.930 . S
O563 Co532 2.037 . S
O563 C583 1.234 . S
C564 O538 1.269 . S
C564 O539 1.257 . S
C565 H540 0.930 . S
C565 C568 1.388 . S
C565 C570 1.418 . S
C566 H561 0.930 . S
C566 C569 1.404 . S
C566 C570 1.353 . S
N567 Co532 2.145 . S
N567 C568 1.397 . S
N567 C569 1.334 . S
C568 H549 0.929 . S
C568 C565 1.388 . S
C568 N567 1.397 . S
C569 H550 0.929 . S
C569 C566 1.404 . S
C569 N567 1.334 . S
C570 H562 0.930 . S
C570 C565 1.418 . S
C570 C566 1.353 . S
C571 H541 0.930 . S
C571 N572 1.330 . S
C571 C573 1.446 . S
N572 Co531 2.151 . S
N572 C571 1.330 . S
N572 C576 1.418 . S
C573 H552 0.929 . S
C573 C571 1.446 . S
C573 C574 1.332 . S
C574 H554 0.931 . S
C574 C573 1.332 . S
C574 C575 1.267 . S
C575 H543 0.929 . S
C575 C574 1.267 . S
C575 C576 1.251 . S
C576 H546 0.929 . S
C576 N572 1.418 . S
C576 C575 1.251 . S
C577 H544 0.930 . S
C577 C579 1.406 . S
C577 C582 1.261 . S
C578 H545 0.930 . S
C578 N580 1.325 . S
C578 C581 1.357 . S
C579 H547 0.928 . S
C579 C577 1.406 . S
C579 N580 1.261 . S
N580 Co531 2.214 . S
N580 C578 1.325 . S
N580 C579 1.261 . S
C581 H551 0.931 . S
C581 C578 1.357 . S
C581 C582 1.312 . S
C582 H553 0.930 . S
C582 C577 1.261 . S
C582 C581 1.312 . S
C583 O555 1.214 . S
C583 O563 1.234 . S
C584 H556 0.929 . S
C584 C587 1.391 . S
C584 C589 1.391 . S
C585 H557 0.929 . S
C585 C586 1.390 . S
C585 N588 1.391 . S
C586 H558 0.930 . S
C586 C585 1.390 . S
C586 C587 1.392 . S
C587 H559 0.929 . S
C587 C584 1.391 . S
C587 C586 1.392 . S
N588 Co532 2.257 . S
N588 C585 1.391 . S
N588 C589 1.388 . S
C589 H560 0.930 . S
C589 C584 1.391 . S
C589 N588 1.388 . S
Co590 O592 2.143 . S
Co590 O598 2.074 . S
Co590 O601 2.093 . S
Co590 O614 2.097 . S
Co590 N631 2.151 . S
Co590 N639 2.214 . S
Co591 O592 2.160 . S
Co591 O597 2.058 . S
Co591 O607 2.057 . S
Co591 O622 2.037 . S
Co591 N626 2.145 . S
Co591 N647 2.257 . S
O592 Co590 2.143 . S
O592 Co591 2.160 . S
C593 O594 1.278 . S
C593 O601 1.224 . S
O594 C593 1.278 . S
C595 O596 1.245 . S
C595 O607 1.232 . S
O596 C595 1.245 . S
O597 Co591 2.058 . S
O597 C623 1.269 . S
O598 Co590 2.074 . S
O598 C623 1.257 . S
H599 C624 0.930 . S
H600 C630 0.930 . S
O601 Co590 2.093 . S
O601 C593 1.224 . S
H602 C634 0.929 . S
H603 C636 0.930 . S
H604 C637 0.930 . S
H605 C635 0.929 . S
H606 C638 0.928 . S
O607 Co591 2.057 . S
O607 C595 1.232 . S
H608 C627 0.929 . S
H609 C628 0.929 . S
H610 C640 0.931 . S
H611 C632 0.929 . S
H612 C641 0.930 . S
H613 C633 0.931 . S
O614 Co590 2.097 . S
O614 C642 1.214 . S
H615 C643 0.929 . S
H616 C644 0.929 . S
H617 C645 0.930 . S
H618 C646 0.929 . S
H619 C648 0.930 . S
H620 C625 0.930 . S
H621 C629 0.930 . S
O622 Co591 2.037 . S
O622 C642 1.234 . S
C623 O597 1.269 . S
C623 O598 1.257 . S
C624 H599 0.930 . S
C624 C627 1.388 1_655 S
C624 C629 1.418 . S
C625 H620 0.930 . S
C625 C628 1.404 . S
C625 C629 1.353 1_455 S
N626 Co591 2.145 . S
N626 C627 1.397 . S
N626 C628 1.334 . S
C627 H608 0.929 . S
C627 C624 1.388 1_455 S
C627 N626 1.397 . S
C628 H609 0.929 . S
C628 C625 1.404 . S
C628 N626 1.334 . S
C629 H621 0.930 . S
C629 C624 1.418 . S
C629 C625 1.353 1_655 S
C630 H600 0.930 . S
C630 N631 1.330 . S
C630 C632 1.446 . S
N631 Co590 2.151 . S
N631 C630 1.330 . S
N631 C635 1.418 . S
C632 H611 0.929 . S
C632 C630 1.446 . S
C632 C633 1.332 . S
C633 H613 0.931 . S
C633 C632 1.332 . S
C633 C634 1.267 . S
C634 H602 0.929 . S
C634 C633 1.267 . S
C634 C635 1.251 . S
C635 H605 0.929 . S
C635 N631 1.418 . S
C635 C634 1.251 . S
C636 H603 0.930 . S
C636 C638 1.406 . S
C636 C641 1.261 . S
C637 H604 0.930 . S
C637 N639 1.325 . S
C637 C640 1.357 . S
C638 H606 0.928 . S
C638 C636 1.406 . S
C638 N639 1.261 . S
N639 Co590 2.214 . S
N639 C637 1.325 . S
N639 C638 1.261 . S
C640 H610 0.931 . S
C640 C637 1.357 . S
C640 C641 1.312 . S
C641 H612 0.930 . S
C641 C636 1.261 . S
C641 C640 1.312 . S
C642 O614 1.214 . S
C642 O622 1.234 . S
C643 H615 0.929 . S
C643 C646 1.391 . S
C643 C648 1.391 . S
C644 H616 0.929 . S
C644 C645 1.390 . S
C644 N647 1.391 . S
C645 H617 0.930 . S
C645 C644 1.390 . S
C645 C646 1.392 . S
C646 H618 0.929 . S
C646 C643 1.391 . S
C646 C645 1.392 . S
N647 Co591 2.257 . S
N647 C644 1.391 . S
N647 C648 1.388 . S
C648 H619 0.930 . S
C648 C643 1.391 . S
C648 N647 1.388 . S
Co649 O651 2.143 . S
Co649 O657 2.074 . S
Co649 O660 2.093 . S
Co649 O673 2.097 . S
Co649 N690 2.151 . S
Co649 N698 2.214 . S
Co650 O651 2.160 . S
Co650 O656 2.058 . S
Co650 O666 2.057 . S
Co650 O681 2.037 . S
Co650 N685 2.145 . S
Co650 N706 2.257 . S
O651 Co649 2.143 . S
O651 Co650 2.160 . S
C652 O653 1.278 . S
C652 O660 1.224 . S
O653 C652 1.278 . S
C654 O655 1.245 . S
C654 O666 1.232 . S
O655 C654 1.245 . S
O656 Co650 2.058 . S
O656 C682 1.269 . S
O657 Co649 2.074 . S
O657 C682 1.257 . S
H658 C683 0.930 . S
H659 C689 0.930 . S
O660 Co649 2.093 . S
O660 C652 1.224 . S
H661 C693 0.929 . S
H662 C695 0.930 . S
H663 C696 0.930 . S
H664 C694 0.929 . S
H665 C697 0.928 . S
O666 Co650 2.057 . S
O666 C654 1.232 . S
H667 C686 0.929 . S
H668 C687 0.929 . S
H669 C699 0.931 . S
H670 C691 0.929 . S
H671 C700 0.930 . S
H672 C692 0.931 . S
O673 Co649 2.097 . S
O673 C701 1.214 . S
H674 C702 0.929 . S
H675 C703 0.929 . S
H676 C704 0.930 . S
H677 C705 0.929 . S
H678 C707 0.930 . S
H679 C684 0.930 . S
H680 C688 0.930 . S
O681 Co650 2.037 . S
O681 C701 1.234 . S
C682 O656 1.269 . S
C682 O657 1.257 . S
C683 H658 0.930 . S
C683 C686 1.388 1_565 S
C683 C688 1.418 . S
C684 H679 0.930 . S
C684 C687 1.404 . S
C684 C688 1.353 1_545 S
N685 Co650 2.145 . S
N685 C686 1.397 . S
N685 C687 1.334 . S
C686 H667 0.929 . S
C686 C683 1.388 1_545 S
C686 N685 1.397 . S
C687 H668 0.929 . S
C687 C684 1.404 . S
C687 N685 1.334 . S
C688 H680 0.930 . S
C688 C683 1.418 . S
C688 C684 1.353 1_565 S
C689 H659 0.930 . S
C689 N690 1.330 . S
C689 C691 1.446 . S
N690 Co649 2.151 . S
N690 C689 1.330 . S
N690 C694 1.418 . S
C691 H670 0.929 . S
C691 C689 1.446 . S
C691 C692 1.332 . S
C692 H672 0.931 . S
C692 C691 1.332 . S
C692 C693 1.267 . S
C693 H661 0.929 . S
C693 C692 1.267 . S
C693 C694 1.251 . S
C694 H664 0.929 . S
C694 N690 1.418 . S
C694 C693 1.251 . S
C695 H662 0.930 . S
C695 C697 1.406 . S
C695 C700 1.261 . S
C696 H663 0.930 . S
C696 N698 1.325 . S
C696 C699 1.357 . S
C697 H665 0.928 . S
C697 C695 1.406 . S
C697 N698 1.261 . S
N698 Co649 2.214 . S
N698 C696 1.325 . S
N698 C697 1.261 . S
C699 H669 0.931 . S
C699 C696 1.357 . S
C699 C700 1.312 . S
C700 H671 0.930 . S
C700 C695 1.261 . S
C700 C699 1.312 . S
C701 O673 1.214 . S
C701 O681 1.234 . S
C702 H674 0.929 . S
C702 C705 1.391 . S
C702 C707 1.391 . S
C703 H675 0.929 . S
C703 C704 1.390 . S
C703 N706 1.391 . S
C704 H676 0.930 . S
C704 C703 1.390 . S
C704 C705 1.392 . S
C705 H677 0.929 . S
C705 C702 1.391 . S
C705 C704 1.392 . S
N706 Co650 2.257 . S
N706 C703 1.391 . S
N706 C707 1.388 . S
C707 H678 0.930 . S
C707 C702 1.391 . S
C707 N706 1.388 . S
H708 C716 0.929 . S
H709 C718 0.930 . S
H710 C720 0.930 . S
H711 C723 0.929 . S
H712 C726 0.930 . S
H713 C728 0.960 . S
H714 C728 0.960 . S
H715 C728 0.960 . S
C716 H708 0.929 . S
C716 C717 1.377 . S
C716 C718 1.384 . S
C717 C716 1.377 . S
C717 C723 1.390 . S
C718 H709 0.930 . S
C718 C716 1.384 . S
C718 C719 1.372 . S
C719 C718 1.372 . S
C719 C720 1.400 . S
C719 C724 1.490 . S
C720 H710 0.930 . S
C720 C719 1.400 . S
C720 C723 1.386 . S
H721 C737 0.930 . S
H722 C738 0.931 . S
C723 H711 0.929 . S
C723 C717 1.390 . S
C723 C720 1.386 . S
C724 C719 1.490 . S
C724 C726 1.395 . S
C724 C727 1.403 . S
H725 C731 0.930 . S
C726 H712 0.930 . S
C726 C724 1.395 . S
C726 C729 1.403 . S
C727 C724 1.403 . S
C727 C728 1.524 . S
C727 C731 1.400 . S
C728 H713 0.960 . S
C728 H714 0.960 . S
C728 H715 0.960 . S
C728 C727 1.524 . S
C729 C726 1.403 . S
C729 C730 1.392 . S
C729 C733 1.495 . S
C730 C729 1.392 . S
C730 C731 1.385 . S
C730 C732 1.478 . S
C731 H725 0.930 . S
C731 C727 1.400 . S
C731 C730 1.385 . S
C732 C730 1.478 . S
C732 C734 1.381 . S
C732 C738 1.383 . S
C733 C729 1.495 . S
C733 H739 0.959 . S
C733 H740 0.961 . S
C733 H741 0.960 . S
C734 C732 1.381 . S
C734 C735 1.394 . S
C734 H742 0.930 . S
C735 C734 1.394 . S
C735 C736 1.383 . S
C735 H743 0.929 . S
C736 C735 1.383 . S
C736 C737 1.377 . S
C737 H721 0.930 . S
C737 C736 1.377 . S
C737 C738 1.379 . S
C738 H722 0.931 . S
C738 C732 1.383 . S
C738 C737 1.379 . S
H739 C733 0.959 . S
H740 C733 0.961 . S
H741 C733 0.960 . S
H742 C734 0.930 . S
H743 C735 0.929 . S
H744 C752 0.929 . S
H745 C754 0.930 . S
H746 C756 0.930 . S
H747 C759 0.929 . S
H748 C762 0.930 . S
H749 C764 0.960 . S
H750 C764 0.960 . S
H751 C764 0.960 . S
C752 H744 0.929 . S
C752 C753 1.377 . S
C752 C754 1.384 . S
C753 C752 1.377 . S
C753 C759 1.390 . S
C754 H745 0.930 . S
C754 C752 1.384 . S
C754 C755 1.372 . S
C755 C754 1.372 . S
C755 C756 1.400 . S
C755 C760 1.490 . S
C756 H746 0.930 . S
C756 C755 1.400 . S
C756 C759 1.386 . S
H757 C773 0.930 . S
H758 C774 0.931 . S
C759 H747 0.929 . S
C759 C753 1.390 . S
C759 C756 1.386 . S
C760 C755 1.490 . S
C760 C762 1.395 . S
C760 C763 1.403 . S
H761 C767 0.930 . S
C762 H748 0.930 . S
C762 C760 1.395 . S
C762 C765 1.403 . S
C763 C760 1.403 . S
C763 C764 1.524 . S
C763 C767 1.400 . S
C764 H749 0.960 . S
C764 H750 0.960 . S
C764 H751 0.960 . S
C764 C763 1.524 . S
C765 C762 1.403 . S
C765 C766 1.392 . S
C765 C769 1.495 . S
C766 C765 1.392 . S
C766 C767 1.385 . S
C766 C768 1.478 . S
C767 H761 0.930 . S
C767 C763 1.400 . S
C767 C766 1.385 . S
C768 C766 1.478 . S
C768 C770 1.381 . S
C768 C774 1.383 . S
C769 C765 1.495 . S
C769 H775 0.959 . S
C769 H776 0.961 . S
C769 H777 0.960 . S
C770 C768 1.381 . S
C770 C771 1.394 . S
C770 H778 0.930 . S
C771 C770 1.394 . S
C771 C772 1.383 . S
C771 H779 0.929 . S
C772 C771 1.383 . S
C772 C773 1.377 . S
C773 H757 0.930 . S
C773 C772 1.377 . S
C773 C774 1.379 . S
C774 H758 0.931 . S
C774 C768 1.383 . S
C774 C773 1.379 . S
H775 C769 0.959 . S
H776 C769 0.961 . S
H777 C769 0.960 . S
H778 C770 0.930 . S
H779 C771 0.929 . S
H780 C788 0.929 . S
H781 C790 0.930 . S
H782 C792 0.930 . S
H783 C795 0.929 . S
H784 C798 0.930 . S
H785 C800 0.960 . S
H786 C800 0.960 . S
H787 C800 0.960 . S
C788 H780 0.929 . S
C788 C789 1.377 . S
C788 C790 1.384 . S
C789 C788 1.377 . S
C789 C795 1.390 . S
C790 H781 0.930 . S
C790 C788 1.384 . S
C790 C791 1.372 . S
C791 C790 1.372 . S
C791 C792 1.400 . S
C791 C796 1.490 . S
C792 H782 0.930 . S
C792 C791 1.400 . S
C792 C795 1.386 . S
H793 C809 0.930 . S
H794 C810 0.931 . S
C795 H783 0.929 . S
C795 C789 1.390 . S
C795 C792 1.386 . S
C796 C791 1.490 . S
C796 C798 1.395 . S
C796 C799 1.403 . S
H797 C803 0.930 . S
C798 H784 0.930 . S
C798 C796 1.395 . S
C798 C801 1.403 . S
C799 C796 1.403 . S
C799 C800 1.524 . S
C799 C803 1.400 . S
C800 H785 0.960 . S
C800 H786 0.960 . S
C800 H787 0.960 . S
C800 C799 1.524 . S
C801 C798 1.403 . S
C801 C802 1.392 . S
C801 C805 1.495 . S
C802 C801 1.392 . S
C802 C803 1.385 . S
C802 C804 1.478 . S
C803 H797 0.930 . S
C803 C799 1.400 . S
C803 C802 1.385 . S
C804 C802 1.478 . S
C804 C806 1.381 . S
C804 C810 1.383 . S
C805 C801 1.495 . S
C805 H811 0.959 . S
C805 H812 0.961 . S
C805 H813 0.960 . S
C806 C804 1.381 . S
C806 C807 1.394 . S
C806 H814 0.930 . S
C807 C806 1.394 . S
C807 C808 1.383 . S
C807 H815 0.929 . S
C808 C807 1.383 . S
C808 C809 1.377 . S
C809 H793 0.930 . S
C809 C808 1.377 . S
C809 C810 1.379 . S
C810 H794 0.931 . S
C810 C804 1.383 . S
C810 C809 1.379 . S
H811 C805 0.959 . S
H812 C805 0.961 . S
H813 C805 0.960 . S
H814 C806 0.930 . S
H815 C807 0.929 . S
H816 C824 0.929 . S
H817 C826 0.930 . S
H818 C828 0.930 . S
H819 C831 0.929 . S
H820 C834 0.930 . S
H821 C836 0.960 . S
H822 C836 0.960 . S
H823 C836 0.960 . S
C824 H816 0.929 . S
C824 C825 1.377 . S
C824 C826 1.384 . S
C825 C824 1.377 . S
C825 C831 1.390 . S
C826 H817 0.930 . S
C826 C824 1.384 . S
C826 C827 1.372 . S
C827 C826 1.372 . S
C827 C828 1.400 . S
C827 C832 1.490 . S
C828 H818 0.930 . S
C828 C827 1.400 . S
C828 C831 1.386 . S
H829 C845 0.930 . S
H830 C846 0.931 . S
C831 H819 0.929 . S
C831 C825 1.390 . S
C831 C828 1.386 . S
C832 C827 1.490 . S
C832 C834 1.395 . S
C832 C835 1.403 . S
H833 C839 0.930 . S
C834 H820 0.930 . S
C834 C832 1.395 . S
C834 C837 1.403 . S
C835 C832 1.403 . S
C835 C836 1.524 . S
C835 C839 1.400 . S
C836 H821 0.960 . S
C836 H822 0.960 . S
C836 H823 0.960 . S
C836 C835 1.524 . S
C837 C834 1.403 . S
C837 C838 1.392 . S
C837 C841 1.495 . S
C838 C837 1.392 . S
C838 C839 1.385 . S
C838 C840 1.478 . S
C839 H833 0.930 . S
C839 C835 1.400 . S
C839 C838 1.385 . S
C840 C838 1.478 . S
C840 C842 1.381 . S
C840 C846 1.383 . S
C841 C837 1.495 . S
C841 H847 0.959 . S
C841 H848 0.961 . S
C841 H849 0.960 . S
C842 C840 1.381 . S
C842 C843 1.394 . S
C842 H850 0.930 . S
C843 C842 1.394 . S
C843 C844 1.383 . S
C843 H851 0.929 . S
C844 C843 1.383 . S
C844 C845 1.377 . S
C845 H829 0.930 . S
C845 C844 1.377 . S
C845 C846 1.379 . S
C846 H830 0.931 . S
C846 C840 1.383 . S
C846 C845 1.379 . S
H847 C841 0.959 . S
H848 C841 0.961 . S
H849 C841 0.960 . S
H850 C842 0.930 . S
H851 C843 0.929 . S
H852 C860 0.929 . S
H853 C862 0.930 . S
H854 C864 0.930 . S
H855 C867 0.929 . S
H856 C870 0.930 . S
H857 C872 0.960 . S
H858 C872 0.960 . S
H859 C872 0.960 . S
C860 H852 0.929 . S
C860 C861 1.377 . S
C860 C862 1.384 . S
C861 C860 1.377 . S
C861 C867 1.390 . S
C862 H853 0.930 . S
C862 C860 1.384 . S
C862 C863 1.372 . S
C863 C862 1.372 . S
C863 C864 1.400 . S
C863 C868 1.490 . S
C864 H854 0.930 . S
C864 C863 1.400 . S
C864 C867 1.386 . S
H865 C881 0.930 . S
H866 C882 0.931 . S
C867 H855 0.929 . S
C867 C861 1.390 . S
C867 C864 1.386 . S
C868 C863 1.490 . S
C868 C870 1.395 . S
C868 C871 1.403 . S
H869 C875 0.930 . S
C870 H856 0.930 . S
C870 C868 1.395 . S
C870 C873 1.403 . S
C871 C868 1.403 . S
C871 C872 1.524 . S
C871 C875 1.400 . S
C872 H857 0.960 . S
C872 H858 0.960 . S
C872 H859 0.960 . S
C872 C871 1.524 . S
C873 C870 1.403 . S
C873 C874 1.392 . S
C873 C877 1.495 . S
C874 C873 1.392 . S
C874 C875 1.385 . S
C874 C876 1.478 . S
C875 H869 0.930 . S
C875 C871 1.400 . S
C875 C874 1.385 . S
C876 C874 1.478 . S
C876 C878 1.381 . S
C876 C882 1.383 . S
C877 C873 1.495 . S
C877 H883 0.959 . S
C877 H884 0.961 . S
C877 H885 0.960 . S
C878 C876 1.381 . S
C878 C879 1.394 . S
C878 H886 0.930 . S
C879 C878 1.394 . S
C879 C880 1.383 . S
C879 H887 0.929 . S
C880 C879 1.383 . S
C880 C881 1.377 . S
C881 H865 0.930 . S
C881 C880 1.377 . S
C881 C882 1.379 . S
C882 H866 0.931 . S
C882 C876 1.383 . S
C882 C881 1.379 . S
H883 C877 0.959 . S
H884 C877 0.961 . S
H885 C877 0.960 . S
H886 C878 0.930 . S
H887 C879 0.929 . S
H888 C896 0.929 . S
H889 C898 0.930 . S
H890 C900 0.930 . S
H891 C903 0.929 . S
H892 C906 0.930 . S
H893 C908 0.960 . S
H894 C908 0.960 . S
H895 C908 0.960 . S
C896 H888 0.929 . S
C896 C897 1.377 . S
C896 C898 1.384 . S
C897 C896 1.377 . S
C897 C903 1.390 . S
C898 H889 0.930 . S
C898 C896 1.384 . S
C898 C899 1.372 . S
C899 C898 1.372 . S
C899 C900 1.400 . S
C899 C904 1.490 . S
C900 H890 0.930 . S
C900 C899 1.400 . S
C900 C903 1.386 . S
H901 C917 0.930 . S
H902 C918 0.931 . S
C903 H891 0.929 . S
C903 C897 1.390 . S
C903 C900 1.386 . S
C904 C899 1.490 . S
C904 C906 1.395 . S
C904 C907 1.403 . S
H905 C911 0.930 . S
C906 H892 0.930 . S
C906 C904 1.395 . S
C906 C909 1.403 . S
C907 C904 1.403 . S
C907 C908 1.524 . S
C907 C911 1.400 . S
C908 H893 0.960 . S
C908 H894 0.960 . S
C908 H895 0.960 . S
C908 C907 1.524 . S
C909 C906 1.403 . S
C909 C910 1.392 . S
C909 C913 1.495 . S
C910 C909 1.392 . S
C910 C911 1.385 . S
C910 C912 1.478 . S
C911 H905 0.930 . S
C911 C907 1.400 . S
C911 C910 1.385 . S
C912 C910 1.478 . S
C912 C914 1.381 . S
C912 C918 1.383 . S
C913 C909 1.495 . S
C913 H919 0.959 . S
C913 H920 0.961 . S
C913 H921 0.960 . S
C914 C912 1.381 . S
C914 C915 1.394 . S
C914 H922 0.930 . S
C915 C914 1.394 . S
C915 C916 1.383 . S
C915 H923 0.929 . S
C916 C915 1.383 . S
C916 C917 1.377 . S
C917 H901 0.930 . S
C917 C916 1.377 . S
C917 C918 1.379 . S
C918 H902 0.931 . S
C918 C912 1.383 . S
C918 C917 1.379 . S
H919 C913 0.959 . S
H920 C913 0.961 . S
H921 C913 0.960 . S
H922 C914 0.930 . S
H923 C915 0.929 . S
H924 C932 0.929 . S
H925 C934 0.930 . S
H926 C936 0.930 . S
H927 C939 0.929 . S
H928 C942 0.930 . S
H929 C944 0.960 . S
H930 C944 0.960 . S
H931 C944 0.960 . S
C932 H924 0.929 . S
C932 C933 1.377 . S
C932 C934 1.384 . S
C933 C932 1.377 . S
C933 C939 1.390 . S
C934 H925 0.930 . S
C934 C932 1.384 . S
C934 C935 1.372 . S
C935 C934 1.372 . S
C935 C936 1.400 . S
C935 C940 1.490 . S
C936 H926 0.930 . S
C936 C935 1.400 . S
C936 C939 1.386 . S
H937 C953 0.930 . S
H938 C954 0.931 . S
C939 H927 0.929 . S
C939 C933 1.390 . S
C939 C936 1.386 . S
C940 C935 1.490 . S
C940 C942 1.395 . S
C940 C943 1.403 . S
H941 C947 0.930 . S
C942 H928 0.930 . S
C942 C940 1.395 . S
C942 C945 1.403 . S
C943 C940 1.403 . S
C943 C944 1.524 . S
C943 C947 1.400 . S
C944 H929 0.960 . S
C944 H930 0.960 . S
C944 H931 0.960 . S
C944 C943 1.524 . S
C945 C942 1.403 . S
C945 C946 1.392 . S
C945 C949 1.495 . S
C946 C945 1.392 . S
C946 C947 1.385 . S
C946 C948 1.478 . S
C947 H941 0.930 . S
C947 C943 1.400 . S
C947 C946 1.385 . S
C948 C946 1.478 . S
C948 C950 1.381 . S
C948 C954 1.383 . S
C949 C945 1.495 . S
C949 H955 0.959 . S
C949 H956 0.961 . S
C949 H957 0.960 . S
C950 C948 1.381 . S
C950 C951 1.394 . S
C950 H958 0.930 . S
C951 C950 1.394 . S
C951 C952 1.383 . S
C951 H959 0.929 . S
C952 C951 1.383 . S
C952 C953 1.377 . S
C953 H937 0.930 . S
C953 C952 1.377 . S
C953 C954 1.379 . S
C954 H938 0.931 . S
C954 C948 1.383 . S
C954 C953 1.379 . S
H955 C949 0.959 . S
H956 C949 0.961 . S
H957 C949 0.960 . S
H958 C950 0.930 . S
H959 C951 0.929 . S
H960 C968 0.929 . S
H961 C970 0.930 . S
H962 C972 0.930 . S
H963 C975 0.929 . S
H964 C978 0.930 . S
H965 C980 0.960 . S
H966 C980 0.960 . S
H967 C980 0.960 . S
C968 H960 0.929 . S
C968 C969 1.377 . S
C968 C970 1.384 . S
C969 C968 1.377 . S
C969 C975 1.390 . S
C970 H961 0.930 . S
C970 C968 1.384 . S
C970 C971 1.372 . S
C971 C970 1.372 . S
C971 C972 1.400 . S
C971 C976 1.490 . S
C972 H962 0.930 . S
C972 C971 1.400 . S
C972 C975 1.386 . S
H973 C989 0.930 . S
H974 C990 0.931 . S
C975 H963 0.929 . S
C975 C969 1.390 . S
C975 C972 1.386 . S
C976 C971 1.490 . S
C976 C978 1.395 . S
C976 C979 1.403 1_455 S
H977 C983 0.930 . S
C978 H964 0.930 . S
C978 C976 1.395 . S
C978 C981 1.403 . S
C979 C976 1.403 1_655 S
C979 C980 1.524 . S
C979 C983 1.400 . S
C980 H965 0.960 . S
C980 H966 0.960 . S
C980 H967 0.960 . S
C980 C979 1.524 . S
C981 C978 1.403 . S
C981 C982 1.392 1_455 S
C981 C985 1.495 . S
C982 C981 1.392 1_655 S
C982 C983 1.385 . S
C982 C984 1.478 . S
C983 H977 0.930 . S
C983 C979 1.400 . S
C983 C982 1.385 . S
C984 C982 1.478 . S
C984 C986 1.381 . S
C984 C990 1.383 . S
C985 C981 1.495 . S
C985 H991 0.959 . S
C985 H992 0.961 . S
C985 H993 0.960 . S
C986 C984 1.381 . S
C986 C987 1.394 . S
C986 H994 0.930 . S
C987 C986 1.394 . S
C987 C988 1.383 . S
C987 H995 0.929 . S
C988 C987 1.383 . S
C988 C989 1.377 . S
C989 H973 0.930 . S
C989 C988 1.377 . S
C989 C990 1.379 . S
C990 H974 0.931 . S
C990 C984 1.383 . S
C990 C989 1.379 . S
H991 C985 0.959 . S
H992 C985 0.961 . S
H993 C985 0.960 . S
H994 C986 0.930 . S
H995 C987 0.929 . S
H996 C1004 0.929 . S
H997 C1006 0.930 1_565 S
H998 C1008 0.930 . S
H999 C1011 0.929 . S
H1000 C1014 0.930 . S
H1001 C1016 0.960 . S
H1002 C1016 0.960 . S
H1003 C1016 0.960 . S
C1004 H996 0.929 . S
C1004 C1005 1.377 . S
C1004 C1006 1.384 . S
C1005 C1004 1.377 . S
C1005 C1011 1.390 . S
C1006 H997 0.930 1_545 S
C1006 C1004 1.384 . S
C1006 C1007 1.372 . S
C1007 C1006 1.372 . S
C1007 C1008 1.400 . S
C1007 C1012 1.490 . S
C1008 H998 0.930 . S
C1008 C1007 1.400 . S
C1008 C1011 1.386 . S
H1009 C1025 0.930 . S
H1010 C1026 0.931 1_545 S
C1011 H999 0.929 . S
C1011 C1005 1.390 . S
C1011 C1008 1.386 . S
C1012 C1007 1.490 . S
C1012 C1014 1.395 1_545 S
C1012 C1015 1.403 . S
H1013 C1019 0.931 . S
C1014 H1000 0.930 . S
C1014 C1012 1.395 1_565 S
C1014 C1017 1.403 . S
C1015 C1012 1.403 . S
C1015 C1016 1.524 . S
C1015 C1019 1.400 1_545 S
C1016 H1001 0.960 . S
C1016 H1002 0.960 . S
C1016 H1003 0.960 . S
C1016 C1015 1.524 . S
C1017 C1014 1.403 . S
C1017 C1018 1.392 . S
C1017 C1021 1.495 . S
C1018 C1017 1.392 . S
C1018 C1019 1.385 . S
C1018 C1020 1.478 . S
C1019 H1013 0.931 . S
C1019 C1015 1.400 1_565 S
C1019 C1018 1.385 . S
C1020 C1018 1.478 . S
C1020 C1022 1.381 . S
C1020 C1026 1.383 . S
C1021 C1017 1.495 . S
C1021 H1027 0.959 . S
C1021 H1028 0.961 . S
C1021 H1029 0.960 . S
C1022 C1020 1.381 . S
C1022 C1023 1.394 . S
C1022 H1030 0.930 . S
C1023 C1022 1.394 . S
C1023 C1024 1.383 . S
C1023 H1031 0.929 . S
C1024 C1023 1.383 . S
C1024 C1025 1.377 . S
C1025 H1009 0.930 . S
C1025 C1024 1.377 . S
C1025 C1026 1.379 . S
C1026 H1010 0.931 1_565 S
C1026 C1020 1.383 . S
C1026 C1025 1.379 . S
H1027 C1021 0.959 . S
H1028 C1021 0.961 . S
H1029 C1021 0.960 . S
H1030 C1022 0.930 . S
H1031 C1023 0.929 . S
H1032 C1040 0.929 . S
H1033 C1042 0.930 . S
H1034 C1044 0.930 . S
H1035 C1047 0.929 . S
H1036 C1050 0.930 . S
H1037 C1052 0.960 . S
H1038 C1052 0.960 . S
H1039 C1052 0.960 . S
C1040 H1032 0.929 . S
C1040 C1041 1.377 . S
C1040 C1042 1.384 . S
C1041 C1040 1.377 . S
C1041 C1047 1.390 . S
C1042 H1033 0.930 . S
C1042 C1040 1.384 . S
C1042 C1043 1.372 . S
C1043 C1042 1.372 . S
C1043 C1044 1.400 . S
C1043 C1048 1.490 . S
C1044 H1034 0.930 . S
C1044 C1043 1.400 . S
C1044 C1047 1.386 . S
H1045 C1061 0.930 . S
H1046 C1062 0.931 . S
C1047 H1035 0.929 . S
C1047 C1041 1.390 . S
C1047 C1044 1.386 . S
C1048 C1043 1.490 . S
C1048 C1050 1.395 . S
C1048 C1051 1.403 . S
H1049 C1055 0.930 . S
C1050 H1036 0.930 . S
C1050 C1048 1.395 . S
C1050 C1053 1.403 . S
C1051 C1048 1.403 . S
C1051 C1052 1.524 . S
C1051 C1055 1.400 . S
C1052 H1037 0.960 . S
C1052 H1038 0.960 . S
C1052 H1039 0.960 . S
C1052 C1051 1.524 . S
C1053 C1050 1.403 . S
C1053 C1054 1.392 . S
C1053 C1057 1.495 . S
C1054 C1053 1.392 . S
C1054 C1055 1.385 . S
C1054 C1056 1.478 . S
C1055 H1049 0.930 . S
C1055 C1051 1.400 . S
C1055 C1054 1.385 . S
C1056 C1054 1.478 . S
C1056 C1058 1.381 . S
C1056 C1062 1.383 . S
C1057 C1053 1.495 . S
C1057 H1063 0.959 . S
C1057 H1064 0.961 . S
C1057 H1065 0.960 . S
C1058 C1056 1.381 . S
C1058 C1059 1.394 . S
C1058 H1066 0.930 . S
C1059 C1058 1.394 . S
C1059 C1060 1.383 . S
C1059 H1067 0.929 . S
C1060 C1059 1.383 . S
C1060 C1061 1.377 . S
C1061 H1045 0.930 . S
C1061 C1060 1.377 . S
C1061 C1062 1.379 . S
C1062 H1046 0.931 . S
C1062 C1056 1.383 . S
C1062 C1061 1.379 . S
H1063 C1057 0.959 . S
H1064 C1057 0.961 . S
H1065 C1057 0.960 . S
H1066 C1058 0.930 . S
H1067 C1059 0.929 . S
H1068 C1076 0.929 . S
H1069 C1078 0.930 . S
H1070 C1080 0.930 . S
H1071 C1083 0.929 . S
H1072 C1086 0.930 . S
H1073 C1088 0.960 . S
H1074 C1088 0.960 . S
H1075 C1088 0.960 1_655 S
C1076 H1068 0.929 . S
C1076 C1077 1.377 . S
C1076 C1078 1.384 . S
C1077 C1076 1.377 . S
C1077 C1083 1.390 . S
C1078 H1069 0.930 . S
C1078 C1076 1.384 . S
C1078 C1079 1.372 . S
C1079 C1078 1.372 . S
C1079 C1080 1.400 . S
C1079 C1084 1.490 . S
C1080 H1070 0.930 . S
C1080 C1079 1.400 . S
C1080 C1083 1.386 . S
H1081 C1097 0.930 . S
H1082 C1098 0.931 . S
C1083 H1071 0.929 . S
C1083 C1077 1.390 . S
C1083 C1080 1.386 . S
C1084 C1079 1.490 . S
C1084 C1086 1.395 . S
C1084 C1087 1.403 1_655 S
H1085 C1091 0.930 . S
C1086 H1072 0.930 . S
C1086 C1084 1.395 . S
C1086 C1089 1.403 . S
C1087 C1084 1.403 1_455 S
C1087 C1088 1.524 . S
C1087 C1091 1.400 . S
C1088 H1073 0.960 . S
C1088 H1074 0.960 . S
C1088 H1075 0.960 1_455 S
C1088 C1087 1.524 . S
C1089 C1086 1.403 . S
C1089 C1090 1.392 1_655 S
C1089 C1093 1.495 . S
C1090 C1089 1.392 1_455 S
C1090 C1091 1.385 . S
C1090 C1092 1.478 . S
C1091 H1085 0.930 . S
C1091 C1087 1.400 . S
C1091 C1090 1.385 . S
C1092 C1090 1.478 . S
C1092 C1094 1.381 . S
C1092 C1098 1.383 . S
C1093 C1089 1.495 . S
C1093 H1099 0.959 . S
C1093 H1100 0.961 . S
C1093 H1101 0.960 1_655 S
C1094 C1092 1.381 . S
C1094 C1095 1.394 . S
C1094 H1102 0.930 . S
C1095 C1094 1.394 . S
C1095 C1096 1.383 . S
C1095 H1103 0.929 . S
C1096 C1095 1.383 . S
C1096 C1097 1.377 . S
C1097 H1081 0.930 . S
C1097 C1096 1.377 . S
C1097 C1098 1.379 . S
C1098 H1082 0.931 . S
C1098 C1092 1.383 . S
C1098 C1097 1.379 . S
H1099 C1093 0.959 . S
H1100 C1093 0.961 . S
H1101 C1093 0.960 1_455 S
H1102 C1094 0.930 . S
H1103 C1095 0.929 . S
H1104 C1112 0.929 . S
H1105 C1114 0.930 1_545 S
H1106 C1116 0.930 . S
H1107 C1119 0.929 . S
H1108 C1122 0.930 . S
H1109 C1124 0.960 . S
H1110 C1124 0.960 . S
H1111 C1124 0.960 . S
C1112 H1104 0.929 . S
C1112 C1113 1.377 . S
C1112 C1114 1.384 . S
C1113 C1112 1.377 . S
C1113 C1119 1.390 . S
C1114 H1105 0.930 1_565 S
C1114 C1112 1.384 . S
C1114 C1115 1.372 . S
C1115 C1114 1.372 . S
C1115 C1116 1.400 . S
C1115 C1120 1.490 . S
C1116 H1106 0.930 . S
C1116 C1115 1.400 . S
C1116 C1119 1.386 . S
H1117 C1133 0.930 . S
H1118 C1134 0.931 1_565 S
C1119 H1107 0.929 . S
C1119 C1113 1.390 . S
C1119 C1116 1.386 . S
C1120 C1115 1.490 . S
C1120 C1122 1.395 1_565 S
C1120 C1123 1.403 . S
H1121 C1127 0.933 . S
C1122 H1108 0.930 . S
C1122 C1120 1.395 1_545 S
C1122 C1125 1.403 . S
C1123 C1120 1.403 . S
C1123 C1124 1.524 . S
C1123 C1127 1.400 . S
C1124 H1109 0.960 . S
C1124 H1110 0.960 . S
C1124 H1111 0.960 . S
C1124 C1123 1.524 . S
C1125 C1122 1.403 . S
C1125 C1126 1.392 . S
C1125 C1129 1.495 . S
C1126 C1125 1.392 . S
C1126 C1127 1.382 1_545 S
C1126 C1128 1.478 . S
C1127 H1121 0.933 . S
C1127 C1123 1.400 . S
C1127 C1126 1.382 1_565 S
C1128 C1126 1.478 . S
C1128 C1130 1.381 . S
C1128 C1134 1.383 . S
C1129 C1125 1.495 . S
C1129 H1135 0.959 . S
C1129 H1136 0.961 . S
C1129 H1137 0.960 . S
C1130 C1128 1.381 . S
C1130 C1131 1.394 . S
C1130 H1138 0.930 . S
C1131 C1130 1.394 . S
C1131 C1132 1.383 . S
C1131 H1139 0.929 . S
C1132 C1131 1.383 . S
C1132 C1133 1.377 . S
C1133 H1117 0.930 . S
C1133 C1132 1.377 . S
C1133 C1134 1.379 . S
C1134 H1118 0.931 1_545 S
C1134 C1128 1.383 . S
C1134 C1133 1.379 . S
H1135 C1129 0.959 . S
H1136 C1129 0.961 . S
H1137 C1129 0.960 . S
H1138 C1130 0.930 . S
H1139 C1131 0.929 . S
H1140 C1148 0.929 . S
H1141 C1150 0.930 . S
H1142 C1152 0.930 . S
H1143 C1155 0.929 . S
H1144 C1158 0.930 . S
H1145 C1160 0.960 . S
H1146 C1160 0.960 . S
H1147 C1160 0.960 . S
C1148 H1140 0.929 . S
C1148 C1149 1.377 . S
C1148 C1150 1.384 . S
C1149 C1148 1.377 . S
C1149 C1155 1.390 . S
C1150 H1141 0.930 . S
C1150 C1148 1.384 . S
C1150 C1151 1.372 . S
C1151 C1150 1.372 . S
C1151 C1152 1.400 . S
C1151 C1156 1.490 . S
C1152 H1142 0.930 . S
C1152 C1151 1.400 . S
C1152 C1155 1.386 . S
H1153 C1169 0.930 . S
H1154 C1170 0.931 . S
C1155 H1143 0.929 . S
C1155 C1149 1.390 . S
C1155 C1152 1.386 . S
C1156 C1151 1.490 . S
C1156 C1158 1.395 . S
C1156 C1159 1.403 . S
H1157 C1163 0.930 . S
C1158 H1144 0.930 . S
C1158 C1156 1.395 . S
C1158 C1161 1.403 . S
C1159 C1156 1.403 . S
C1159 C1160 1.524 . S
C1159 C1163 1.400 . S
C1160 H1145 0.960 . S
C1160 H1146 0.960 . S
C1160 H1147 0.960 . S
C1160 C1159 1.524 . S
C1161 C1158 1.403 . S
C1161 C1162 1.392 . S
C1161 C1165 1.495 . S
C1162 C1161 1.392 . S
C1162 C1163 1.385 . S
C1162 C1164 1.478 . S
C1163 H1157 0.930 . S
C1163 C1159 1.400 . S
C1163 C1162 1.385 . S
C1164 C1162 1.478 . S
C1164 C1166 1.381 . S
C1164 C1170 1.383 . S
C1165 C1161 1.495 . S
C1165 H1171 0.959 . S
C1165 H1172 0.961 . S
C1165 H1173 0.960 . S
C1166 C1164 1.381 . S
C1166 C1167 1.394 . S
C1166 H1174 0.930 . S
C1167 C1166 1.394 . S
C1167 C1168 1.383 . S
C1167 H1175 0.929 . S
C1168 C1167 1.383 . S
C1168 C1169 1.377 . S
C1169 H1153 0.930 . S
C1169 C1168 1.377 . S
C1169 C1170 1.379 . S
C1170 H1154 0.931 . S
C1170 C1164 1.383 . S
C1170 C1169 1.379 . S
H1171 C1165 0.959 . S
H1172 C1165 0.961 . S
H1173 C1165 0.960 . S
H1174 C1166 0.930 . S
H1175 C1167 0.929 . S
H1176 C1184 0.929 . S
H1177 C1186 0.930 . S
H1178 C1188 0.930 . S
H1179 C1191 0.929 . S
H1180 C1194 0.930 . S
H1181 C1196 0.960 1_455 S
H1182 C1196 0.960 1_455 S
H1183 C1196 0.960 . S
C1184 H1176 0.929 . S
C1184 C1185 1.377 . S
C1184 C1186 1.384 . S
C1185 C1184 1.377 . S
C1185 C1191 1.390 . S
C1186 H1177 0.930 . S
C1186 C1184 1.384 . S
C1186 C1187 1.372 . S
C1187 C1186 1.372 . S
C1187 C1188 1.400 . S
C1187 C1192 1.490 . S
C1188 H1178 0.930 . S
C1188 C1187 1.400 . S
C1188 C1191 1.386 . S
H1189 C1205 0.930 . S
H1190 C1206 0.931 1_655 S
C1191 H1179 0.929 . S
C1191 C1185 1.390 . S
C1191 C1188 1.386 . S
C1192 C1187 1.490 . S
C1192 C1194 1.395 . S
C1192 C1195 1.403 . S
H1193 C1199 0.930 . S
C1194 H1180 0.930 . S
C1194 C1192 1.395 . S
C1194 C1197 1.403 1_655 S
C1195 C1192 1.403 . S
C1195 C1196 1.524 . S
C1195 C1199 1.400 1_655 S
C1196 H1181 0.960 1_655 S
C1196 H1182 0.960 1_655 S
C1196 H1183 0.960 . S
C1196 C1195 1.524 . S
C1197 C1194 1.403 1_455 S
C1197 C1198 1.392 . S
C1197 C1201 1.495 . S
C1198 C1197 1.392 . S
C1198 C1199 1.385 . S
C1198 C1200 1.478 . S
C1199 H1193 0.930 . S
C1199 C1195 1.400 1_455 S
C1199 C1198 1.385 . S
C1200 C1198 1.478 . S
C1200 C1202 1.381 . S
C1200 C1206 1.383 . S
C1201 C1197 1.495 . S
C1201 H1207 0.959 1_455 S
C1201 H1208 0.961 1_455 S
C1201 H1209 0.960 . S
C1202 C1200 1.381 . S
C1202 C1203 1.394 . S
C1202 H1210 0.930 . S
C1203 C1202 1.394 . S
C1203 C1204 1.383 . S
C1203 H1211 0.929 . S
C1204 C1203 1.383 . S
C1204 C1205 1.377 . S
C1205 H1189 0.930 . S
C1205 C1204 1.377 . S
C1205 C1206 1.379 . S
C1206 H1190 0.931 1_455 S
C1206 C1200 1.383 . S
C1206 C1205 1.379 . S
H1207 C1201 0.959 1_655 S
H1208 C1201 0.961 1_655 S
H1209 C1201 0.960 . S
H1210 C1202 0.930 . S
H1211 C1203 0.929 . S
H1212 C1220 0.929 . S
H1213 C1222 0.930 . S
H1214 C1224 0.930 . S
H1215 C1227 0.929 . S
H1216 C1230 0.930 . S
H1217 C1232 0.960 . S
H1218 C1232 0.960 . S
H1219 C1232 0.960 . S
C1220 H1212 0.929 . S
C1220 C1221 1.377 . S
C1220 C1222 1.384 . S
C1221 C1220 1.377 . S
C1221 C1227 1.390 . S
C1222 H1213 0.930 . S
C1222 C1220 1.384 . S
C1222 C1223 1.372 . S
C1223 C1222 1.372 . S
C1223 C1224 1.400 . S
C1223 C1228 1.490 . S
C1224 H1214 0.930 . S
C1224 C1223 1.400 . S
C1224 C1227 1.386 . S
H1225 C1241 0.930 . S
H1226 C1242 0.931 . S
C1227 H1215 0.929 . S
C1227 C1221 1.390 . S
C1227 C1224 1.386 . S
C1228 C1223 1.490 . S
C1228 C1230 1.395 . S
C1228 C1231 1.403 1_565 S
H1229 C1235 0.930 . S
C1230 H1216 0.930 . S
C1230 C1228 1.395 . S
C1230 C1233 1.403 1_556 S
C1231 C1228 1.403 1_545 S
C1231 C1232 1.524 . S
C1231 C1235 1.400 1_556 S
C1232 H1217 0.960 . S
C1232 H1218 0.960 . S
C1232 H1219 0.960 . S
C1232 C1231 1.524 . S
C1233 C1230 1.403 1_554 S
C1233 C1234 1.392 1_565 S
C1233 C1237 1.495 . S
C1234 C1233 1.392 1_545 S
C1234 C1235 1.385 . S
C1234 C1236 1.478 . S
C1235 H1229 0.930 . S
C1235 C1231 1.400 1_554 S
C1235 C1234 1.385 . S
C1236 C1234 1.478 . S
C1236 C1238 1.381 . S
C1236 C1242 1.383 . S
C1237 C1233 1.495 . S
C1237 H1243 0.959 . S
C1237 H1244 0.961 . S
C1237 H1245 0.960 . S
C1238 C1236 1.381 . S
C1238 C1239 1.394 . S
C1238 H1246 0.930 . S
C1239 C1238 1.394 . S
C1239 C1240 1.383 . S
C1239 H1247 0.929 . S
C1240 C1239 1.383 . S
C1240 C1241 1.377 . S
C1241 H1225 0.930 . S
C1241 C1240 1.377 . S
C1241 C1242 1.379 . S
C1242 H1226 0.931 . S
C1242 C1236 1.383 . S
C1242 C1241 1.379 . S
H1243 C1237 0.959 . S
H1244 C1237 0.961 . S
H1245 C1237 0.960 . S
H1246 C1238 0.930 . S
H1247 C1239 0.929 . S
H1248 C1256 0.929 . S
H1249 C1258 0.930 . S
H1250 C1260 0.930 . S
H1251 C1263 0.929 . S
H1252 C1266 0.930 . S
H1253 C1268 0.960 . S
H1254 C1268 0.960 . S
H1255 C1268 0.960 . S
C1256 H1248 0.929 . S
C1256 C1257 1.377 . S
C1256 C1258 1.384 . S
C1257 C1256 1.377 . S
C1257 C1263 1.390 . S
C1258 H1249 0.930 . S
C1258 C1256 1.384 . S
C1258 C1259 1.372 . S
C1259 C1258 1.372 . S
C1259 C1260 1.400 . S
C1259 C1264 1.490 . S
C1260 H1250 0.930 . S
C1260 C1259 1.400 . S
C1260 C1263 1.386 . S
H1261 C1277 0.930 . S
H1262 C1278 0.931 . S
C1263 H1251 0.929 . S
C1263 C1257 1.390 . S
C1263 C1260 1.386 . S
C1264 C1259 1.490 . S
C1264 C1266 1.395 . S
C1264 C1267 1.403 . S
H1265 C1271 0.930 . S
C1266 H1252 0.930 . S
C1266 C1264 1.395 . S
C1266 C1269 1.403 . S
C1267 C1264 1.403 . S
C1267 C1268 1.524 . S
C1267 C1271 1.400 . S
C1268 H1253 0.960 . S
C1268 H1254 0.960 . S
C1268 H1255 0.960 . S
C1268 C1267 1.524 . S
C1269 C1266 1.403 . S
C1269 C1270 1.392 . S
C1269 C1273 1.495 . S
C1270 C1269 1.392 . S
C1270 C1271 1.385 . S
C1270 C1272 1.478 . S
C1271 H1265 0.930 . S
C1271 C1267 1.400 . S
C1271 C1270 1.385 . S
C1272 C1270 1.478 . S
C1272 C1274 1.381 . S
C1272 C1278 1.383 . S
C1273 C1269 1.495 . S
C1273 H1279 0.959 . S
C1273 H1280 0.961 . S
C1273 H1281 0.960 . S
C1274 C1272 1.381 . S
C1274 C1275 1.394 . S
C1274 H1282 0.930 . S
C1275 C1274 1.394 . S
C1275 C1276 1.383 . S
C1275 H1283 0.929 . S
C1276 C1275 1.383 . S
C1276 C1277 1.377 . S
C1277 H1261 0.930 . S
C1277 C1276 1.377 . S
C1277 C1278 1.379 . S
C1278 H1262 0.931 . S
C1278 C1272 1.383 . S
C1278 C1277 1.379 . S
H1279 C1273 0.959 . S
H1280 C1273 0.961 . S
H1281 C1273 0.960 . S
H1282 C1274 0.930 . S
H1283 C1275 0.929 . S
H1284 C1292 0.929 . S
H1285 C1294 0.930 . S
H1286 C1296 0.930 . S
H1287 C1299 0.929 . S
H1288 C1302 0.930 . S
H1289 C1304 0.960 . S
H1290 C1304 0.960 . S
H1291 C1304 0.960 . S
C1292 H1284 0.929 . S
C1292 C1293 1.377 . S
C1292 C1294 1.384 . S
C1293 C1292 1.377 . S
C1293 C1299 1.390 . S
C1294 H1285 0.930 . S
C1294 C1292 1.384 . S
C1294 C1295 1.372 . S
C1295 C1294 1.372 . S
C1295 C1296 1.400 . S
C1295 C1300 1.490 . S
C1296 H1286 0.930 . S
C1296 C1295 1.400 . S
C1296 C1299 1.386 . S
H1297 C1313 0.930 . S
H1298 C1314 0.931 . S
C1299 H1287 0.929 . S
C1299 C1293 1.390 . S
C1299 C1296 1.386 . S
C1300 C1295 1.490 . S
C1300 C1302 1.395 . S
C1300 C1303 1.403 1_455 S
H1301 C1307 0.930 . S
C1302 H1288 0.930 . S
C1302 C1300 1.395 . S
C1302 C1305 1.403 . S
C1303 C1300 1.403 1_655 S
C1303 C1304 1.524 . S
C1303 C1307 1.400 . S
C1304 H1289 0.960 . S
C1304 H1290 0.960 . S
C1304 H1291 0.960 . S
C1304 C1303 1.524 . S
C1305 C1302 1.403 . S
C1305 C1306 1.392 1_455 S
C1305 C1309 1.495 . S
C1306 C1305 1.392 1_655 S
C1306 C1307 1.385 . S
C1306 C1308 1.478 . S
C1307 H1301 0.930 . S
C1307 C1303 1.400 . S
C1307 C1306 1.385 . S
C1308 C1306 1.478 . S
C1308 C1310 1.381 . S
C1308 C1314 1.383 . S
C1309 C1305 1.495 . S
C1309 H1315 0.959 . S
C1309 H1316 0.961 . S
C1309 H1317 0.960 . S
C1310 C1308 1.381 . S
C1310 C1311 1.394 . S
C1310 H1318 0.930 . S
C1311 C1310 1.394 . S
C1311 C1312 1.383 . S
C1311 H1319 0.929 . S
C1312 C1311 1.383 . S
C1312 C1313 1.377 . S
C1313 H1297 0.930 . S
C1313 C1312 1.377 . S
C1313 C1314 1.379 . S
C1314 H1298 0.931 . S
C1314 C1308 1.383 . S
C1314 C1313 1.379 . S
H1315 C1309 0.959 . S
H1316 C1309 0.961 . S
H1317 C1309 0.960 . S
H1318 C1310 0.930 . S
H1319 C1311 0.929 . S
H1320 C1328 0.929 . S
H1321 C1330 0.930 . S
H1322 C1332 0.930 . S
H1323 C1335 0.929 . S
H1324 C1338 0.930 . S
H1325 C1340 0.960 1_556 S
H1326 C1340 0.960 . S
H1327 C1340 0.960 . S
C1328 H1320 0.929 . S
C1328 C1329 1.377 . S
C1328 C1330 1.384 . S
C1329 C1328 1.377 . S
C1329 C1335 1.390 . S
C1330 H1321 0.930 . S
C1330 C1328 1.384 . S
C1330 C1331 1.372 . S
C1331 C1330 1.372 . S
C1331 C1332 1.400 . S
C1331 C1336 1.490 . S
C1332 H1322 0.930 . S
C1332 C1331 1.400 . S
C1332 C1335 1.386 . S
H1333 C1349 0.930 . S
H1334 C1350 0.931 . S
C1335 H1323 0.929 . S
C1335 C1329 1.390 . S
C1335 C1332 1.386 . S
C1336 C1331 1.490 . S
C1336 C1338 1.395 1_565 S
C1336 C1339 1.403 . S
H1337 C1343 0.930 . S
C1338 H1324 0.930 . S
C1338 C1336 1.395 1_545 S
C1338 C1341 1.385 1_554 S
C1339 C1336 1.403 . S
C1339 C1340 1.524 . S
C1339 C1343 1.400 1_554 S
C1340 H1325 0.960 1_554 S
C1340 H1326 0.960 . S
C1340 H1327 0.960 . S
C1340 C1339 1.524 . S
C1341 C1338 1.385 1_556 S
C1341 C1342 1.410 . S
C1341 C1345 1.495 . S
C1342 C1341 1.410 . S
C1342 C1343 1.385 1_545 S
C1342 C1344 1.478 . S
C1343 H1337 0.930 . S
C1343 C1339 1.400 1_556 S
C1343 C1342 1.385 1_565 S
C1344 C1342 1.478 . S
C1344 C1346 1.381 . S
C1344 C1350 1.383 . S
C1345 C1341 1.495 . S
C1345 H1351 0.932 1_556 S
C1345 H1352 0.968 . S
C1345 H1353 0.981 . S
C1346 C1344 1.381 . S
C1346 C1347 1.394 . S
C1346 H1354 0.930 . S
C1347 C1346 1.394 . S
C1347 C1348 1.383 . S
C1347 H1355 0.929 . S
C1348 C1347 1.383 . S
C1348 C1349 1.377 . S
C1349 H1333 0.930 . S
C1349 C1348 1.377 . S
C1349 C1350 1.379 . S
C1350 H1334 0.931 . S
C1350 C1344 1.383 . S
C1350 C1349 1.379 . S
H1351 C1345 0.932 1_554 S
H1352 C1345 0.968 . S
H1353 C1345 0.981 . S
H1354 C1346 0.930 . S
H1355 C1347 0.929 . S
H1356 C1364 0.929 . S
H1357 C1366 0.930 . S
H1358 C1368 0.930 . S
H1359 C1371 0.929 . S
H1360 C1374 0.930 . S
H1361 C1376 0.960 . S
H1362 C1376 0.960 . S
H1363 C1376 0.960 . S
C1364 H1356 0.929 . S
C1364 C1365 1.377 . S
C1364 C1366 1.384 . S
C1365 C1364 1.377 . S
C1365 C1371 1.390 . S
C1366 H1357 0.930 . S
C1366 C1364 1.384 . S
C1366 C1367 1.372 . S
C1367 C1366 1.372 . S
C1367 C1368 1.400 . S
C1367 C1372 1.490 . S
C1368 H1358 0.930 . S
C1368 C1367 1.400 . S
C1368 C1371 1.386 . S
H1369 C1385 0.930 . S
H1370 C1386 0.931 . S
C1371 H1359 0.929 . S
C1371 C1365 1.390 . S
C1371 C1368 1.386 . S
C1372 C1367 1.490 . S
C1372 C1374 1.395 . S
C1372 C1375 1.403 . S
H1373 C1379 0.930 . S
C1374 H1360 0.930 . S
C1374 C1372 1.395 . S
C1374 C1377 1.403 1_655 S
C1375 C1372 1.403 . S
C1375 C1376 1.524 . S
C1375 C1379 1.400 1_655 S
C1376 H1361 0.960 . S
C1376 H1362 0.960 . S
C1376 H1363 0.960 . S
C1376 C1375 1.524 . S
C1377 C1374 1.403 1_455 S
C1377 C1378 1.392 . S
C1377 C1381 1.495 . S
C1378 C1377 1.392 . S
C1378 C1379 1.385 . S
C1378 C1380 1.478 . S
C1379 H1373 0.930 . S
C1379 C1375 1.400 1_455 S
C1379 C1378 1.385 . S
C1380 C1378 1.478 . S
C1380 C1382 1.381 . S
C1380 C1386 1.383 . S
C1381 C1377 1.495 . S
C1381 H1387 0.959 . S
C1381 H1388 0.961 . S
C1381 H1389 0.960 . S
C1382 C1380 1.381 . S
C1382 C1383 1.394 . S
C1382 H1390 0.930 . S
C1383 C1382 1.394 . S
C1383 C1384 1.383 . S
C1383 H1391 0.929 . S
C1384 C1383 1.383 . S
C1384 C1385 1.377 . S
C1385 H1369 0.930 . S
C1385 C1384 1.377 . S
C1385 C1386 1.379 . S
C1386 H1370 0.931 . S
C1386 C1380 1.383 . S
C1386 C1385 1.379 . S
H1387 C1381 0.959 . S
H1388 C1381 0.961 . S
H1389 C1381 0.960 . S
H1390 C1382 0.930 . S
H1391 C1383 0.929 . S
H1392 C1400 0.929 . S
H1393 C1402 0.930 . S
H1394 C1404 0.930 . S
H1395 C1407 0.929 . S
H1396 C1410 0.930 . S
H1397 C1412 0.960 . S
H1398 C1412 0.960 . S
H1399 C1412 0.960 . S
C1400 H1392 0.929 . S
C1400 C1401 1.377 . S
C1400 C1402 1.384 . S
C1401 C1400 1.377 . S
C1401 C1407 1.390 . S
C1402 H1393 0.930 . S
C1402 C1400 1.384 . S
C1402 C1403 1.372 . S
C1403 C1402 1.372 . S
C1403 C1404 1.400 . S
C1403 C1408 1.490 . S
C1404 H1394 0.930 . S
C1404 C1403 1.400 . S
C1404 C1407 1.386 . S
H1405 C1421 0.930 . S
H1406 C1422 0.931 . S
C1407 H1395 0.929 . S
C1407 C1401 1.390 . S
C1407 C1404 1.386 . S
C1408 C1403 1.490 . S
C1408 C1410 1.395 . S
C1408 C1411 1.403 . S
H1409 C1415 0.930 . S
C1410 H1396 0.930 . S
C1410 C1408 1.395 . S
C1410 C1413 1.403 1_545 S
C1411 C1408 1.403 . S
C1411 C1412 1.524 . S
C1411 C1415 1.400 1_545 S
C1412 H1397 0.960 . S
C1412 H1398 0.960 . S
C1412 H1399 0.960 . S
C1412 C1411 1.524 . S
C1413 C1410 1.403 1_565 S
C1413 C1414 1.392 . S
C1413 C1417 1.495 . S
C1414 C1413 1.392 . S
C1414 C1415 1.385 . S
C1414 C1416 1.478 . S
C1415 H1409 0.930 . S
C1415 C1411 1.400 1_565 S
C1415 C1414 1.385 . S
C1416 C1414 1.478 . S
C1416 C1418 1.381 . S
C1416 C1422 1.383 . S
C1417 C1413 1.495 . S
C1417 H1423 0.959 . S
C1417 H1424 0.961 . S
C1417 H1425 0.960 . S
C1418 C1416 1.381 . S
C1418 C1419 1.394 . S
C1418 H1426 0.930 . S
C1419 C1418 1.394 . S
C1419 C1420 1.383 . S
C1419 H1427 0.929 . S
C1420 C1419 1.383 . S
C1420 C1421 1.377 . S
C1421 H1405 0.930 . S
C1421 C1420 1.377 . S
C1421 C1422 1.379 . S
C1422 H1406 0.931 . S
C1422 C1416 1.383 . S
C1422 C1421 1.379 . S
H1423 C1417 0.959 . S
H1424 C1417 0.961 . S
H1425 C1417 0.960 . S
H1426 C1418 0.930 . S
H1427 C1419 0.929 . S
H1428 C1436 0.929 . S
H1429 C1438 0.930 . S
H1430 C1440 0.930 . S
H1431 C1443 0.929 . S
H1432 C1446 0.930 . S
H1433 C1448 0.960 . S
H1434 C1448 0.960 . S
H1435 C1448 0.960 . S
C1436 H1428 0.929 . S
C1436 C1437 1.377 . S
C1436 C1438 1.384 . S
C1437 C1436 1.377 . S
C1437 C1443 1.390 . S
C1438 H1429 0.930 . S
C1438 C1436 1.384 . S
C1438 C1439 1.372 . S
C1439 C1438 1.372 . S
C1439 C1440 1.400 . S
C1439 C1444 1.490 . S
C1440 H1430 0.930 . S
C1440 C1439 1.400 . S
C1440 C1443 1.386 . S
H1441 C1457 0.930 . S
H1442 C1458 0.931 . S
C1443 H1431 0.929 . S
C1443 C1437 1.390 . S
C1443 C1440 1.386 . S
C1444 C1439 1.490 . S
C1444 C1446 1.395 . S
C1444 C1447 1.403 . S
H1445 C1451 0.930 . S
C1446 H1432 0.930 . S
C1446 C1444 1.395 . S
C1446 C1449 1.403 . S
C1447 C1444 1.403 . S
C1447 C1448 1.524 . S
C1447 C1451 1.400 . S
C1448 H1433 0.960 . S
C1448 H1434 0.960 . S
C1448 H1435 0.960 . S
C1448 C1447 1.524 . S
C1449 C1446 1.403 . S
C1449 C1450 1.392 . S
C1449 C1453 1.495 . S
C1450 C1449 1.392 . S
C1450 C1451 1.385 . S
C1450 C1452 1.478 . S
C1451 H1445 0.930 . S
C1451 C1447 1.400 . S
C1451 C1450 1.385 . S
C1452 C1450 1.478 . S
C1452 C1454 1.381 . S
C1452 C1458 1.383 . S
C1453 C1449 1.495 . S
C1453 H1459 0.959 . S
C1453 H1460 0.961 . S
C1453 H1461 0.960 . S
C1454 C1452 1.381 . S
C1454 C1455 1.394 . S
C1454 H1462 0.930 . S
C1455 C1454 1.394 . S
C1455 C1456 1.383 . S
C1455 H1463 0.929 . S
C1456 C1455 1.383 . S
C1456 C1457 1.377 . S
C1457 H1441 0.930 . S
C1457 C1456 1.377 . S
C1457 C1458 1.379 . S
C1458 H1442 0.931 . S
C1458 C1452 1.383 . S
C1458 C1457 1.379 . S
H1459 C1453 0.959 . S
H1460 C1453 0.961 . S
H1461 C1453 0.960 . S
H1462 C1454 0.930 . S
H1463 C1455 0.929 . S
H1464 C1472 0.929 . S
H1465 C1474 0.930 . S
H1466 C1476 0.930 . S
H1467 C1479 0.929 . S
H1468 C1482 0.930 . S
H1469 C1484 0.960 . S
H1470 C1484 0.960 . S
H1471 C1484 0.960 . S
C1472 H1464 0.929 . S
C1472 C1473 1.377 . S
C1472 C1474 1.384 . S
C1473 C1472 1.377 . S
C1473 C1479 1.390 . S
C1474 H1465 0.930 . S
C1474 C1472 1.384 . S
C1474 C1475 1.372 . S
C1475 C1474 1.372 . S
C1475 C1476 1.400 . S
C1475 C1480 1.490 . S
C1476 H1466 0.930 . S
C1476 C1475 1.400 . S
C1476 C1479 1.386 . S
H1477 C1493 0.930 . S
H1478 C1494 0.931 . S
C1479 H1467 0.929 . S
C1479 C1473 1.390 . S
C1479 C1476 1.386 . S
C1480 C1475 1.490 . S
C1480 C1482 1.395 . S
C1480 C1483 1.403 . S
H1481 C1487 0.930 . S
C1482 H1468 0.930 . S
C1482 C1480 1.395 . S
C1482 C1485 1.403 1_655 S
C1483 C1480 1.403 . S
C1483 C1484 1.524 . S
C1483 C1487 1.400 1_655 S
C1484 H1469 0.960 . S
C1484 H1470 0.960 . S
C1484 H1471 0.960 . S
C1484 C1483 1.524 . S
C1485 C1482 1.403 1_455 S
C1485 C1486 1.392 . S
C1485 C1489 1.495 . S
C1486 C1485 1.392 . S
C1486 C1487 1.385 . S
C1486 C1488 1.478 . S
C1487 H1481 0.930 . S
C1487 C1483 1.400 1_455 S
C1487 C1486 1.385 . S
C1488 C1486 1.478 . S
C1488 C1490 1.381 . S
C1488 C1494 1.383 . S
C1489 C1485 1.495 . S
C1489 H1495 0.959 . S
C1489 H1496 0.961 . S
C1489 H1497 0.960 . S
C1490 C1488 1.381 . S
C1490 C1491 1.394 . S
C1490 H1498 0.930 . S
C1491 C1490 1.394 . S
C1491 C1492 1.383 . S
C1491 H1499 0.929 . S
C1492 C1491 1.383 . S
C1492 C1493 1.377 . S
C1493 H1477 0.930 . S
C1493 C1492 1.377 . S
C1493 C1494 1.379 . S
C1494 H1478 0.931 . S
C1494 C1488 1.383 . S
C1494 C1493 1.379 . S
H1495 C1489 0.959 . S
H1496 C1489 0.961 . S
H1497 C1489 0.960 . S
H1498 C1490 0.930 . S
H1499 C1491 0.929 . S
H1500 C1508 0.929 . S
H1501 C1510 0.930 . S
H1502 C1512 0.930 . S
H1503 C1515 0.929 . S
H1504 C1518 0.930 . S
H1505 C1520 0.960 . S
H1506 C1520 0.960 . S
H1507 C1520 0.960 . S
C1508 H1500 0.929 . S
C1508 C1509 1.377 . S
C1508 C1510 1.384 . S
C1509 C1508 1.377 . S
C1509 C1515 1.390 . S
C1510 H1501 0.930 . S
C1510 C1508 1.384 . S
C1510 C1511 1.372 . S
C1511 C1510 1.372 . S
C1511 C1512 1.400 . S
C1511 C1516 1.490 . S
C1512 H1502 0.930 . S
C1512 C1511 1.400 . S
C1512 C1515 1.386 . S
H1513 C1529 0.930 . S
H1514 C1530 0.931 . S
C1515 H1503 0.929 . S
C1515 C1509 1.390 . S
C1515 C1512 1.386 . S
C1516 C1511 1.490 . S
C1516 C1518 1.395 . S
C1516 C1519 1.403 . S
H1517 C1523 0.930 . S
C1518 H1504 0.930 . S
C1518 C1516 1.395 . S
C1518 C1521 1.403 1_565 S
C1519 C1516 1.403 . S
C1519 C1520 1.524 . S
C1519 C1523 1.400 1_565 S
C1520 H1505 0.960 . S
C1520 H1506 0.960 . S
C1520 H1507 0.960 . S
C1520 C1519 1.524 . S
C1521 C1518 1.403 1_545 S
C1521 C1522 1.392 . S
C1521 C1525 1.495 . S
C1522 C1521 1.392 . S
C1522 C1523 1.385 . S
C1522 C1524 1.478 . S
C1523 H1517 0.930 . S
C1523 C1519 1.400 1_545 S
C1523 C1522 1.385 . S
C1524 C1522 1.478 . S
C1524 C1526 1.381 . S
C1524 C1530 1.383 . S
C1525 C1521 1.495 . S
C1525 H1531 0.959 . S
C1525 H1532 0.961 . S
C1525 H1533 0.960 . S
C1526 C1524 1.381 . S
C1526 C1527 1.394 . S
C1526 H1534 0.930 . S
C1527 C1526 1.394 . S
C1527 C1528 1.383 . S
C1527 H1535 0.929 . S
C1528 C1527 1.383 . S
C1528 C1529 1.377 . S
C1529 H1513 0.930 . S
C1529 C1528 1.377 . S
C1529 C1530 1.379 . S
C1530 H1514 0.931 . S
C1530 C1524 1.383 . S
C1530 C1529 1.379 . S
H1531 C1525 0.959 . S
H1532 C1525 0.961 . S
H1533 C1525 0.960 . S
H1534 C1526 0.930 . S
H1535 C1527 0.929 . S
H1536 C1544 0.929 . S
H1537 C1546 0.930 . S
H1538 C1548 0.930 . S
H1539 C1551 0.929 . S
H1540 C1554 0.930 . S
H1541 C1556 0.960 . S
H1542 C1556 0.960 . S
H1543 C1556 0.960 . S
C1544 H1536 0.929 . S
C1544 C1545 1.377 . S
C1544 C1546 1.384 . S
C1545 C1544 1.377 . S
C1545 C1551 1.390 . S
C1546 H1537 0.930 . S
C1546 C1544 1.384 . S
C1546 C1547 1.372 . S
C1547 C1546 1.372 . S
C1547 C1548 1.400 . S
C1547 C1552 1.490 . S
C1548 H1538 0.930 . S
C1548 C1547 1.400 . S
C1548 C1551 1.386 . S
H1549 C1565 0.930 . S
H1550 C1566 0.931 . S
C1551 H1539 0.929 . S
C1551 C1545 1.390 . S
C1551 C1548 1.386 . S
C1552 C1547 1.490 . S
C1552 C1554 1.395 . S
C1552 C1555 1.403 . S
H1553 C1559 0.930 . S
C1554 H1540 0.930 . S
C1554 C1552 1.395 . S
C1554 C1557 1.403 . S
C1555 C1552 1.403 . S
C1555 C1556 1.524 . S
C1555 C1559 1.400 . S
C1556 H1541 0.960 . S
C1556 H1542 0.960 . S
C1556 H1543 0.960 . S
C1556 C1555 1.524 . S
C1557 C1554 1.403 . S
C1557 C1558 1.392 . S
C1557 C1561 1.495 . S
C1558 C1557 1.392 . S
C1558 C1559 1.385 . S
C1558 C1560 1.478 . S
C1559 H1553 0.930 . S
C1559 C1555 1.400 . S
C1559 C1558 1.385 . S
C1560 C1558 1.478 . S
C1560 C1562 1.381 . S
C1560 C1566 1.383 . S
C1561 C1557 1.495 . S
C1561 H1567 0.959 . S
C1561 H1568 0.961 . S
C1561 H1569 0.960 . S
C1562 C1560 1.381 . S
C1562 C1563 1.394 . S
C1562 H1570 0.930 . S
C1563 C1562 1.394 . S
C1563 C1564 1.383 . S
C1563 H1571 0.929 . S
C1564 C1563 1.383 . S
C1564 C1565 1.377 . S
C1565 H1549 0.930 . S
C1565 C1564 1.377 . S
C1565 C1566 1.379 . S
C1566 H1550 0.931 . S
C1566 C1560 1.383 . S
C1566 C1565 1.379 . S
H1567 C1561 0.959 . S
H1568 C1561 0.961 . S
H1569 C1561 0.960 . S
H1570 C1562 0.930 . S
H1571 C1563 0.929 . S
C717 C475 1.710 . S
C736 C3 1.696 . S
C753 C62 1.709 . S
C772 C534 1.704 . S
C789 C121 1.711 . S
C808 C593 1.712 . S
C825 C180 1.711 . S
C844 C652 1.697 . S
C861 C357 1.713 . S
C880 C239 1.720 . S
C897 C298 1.711 . S
C916 C416 1.697 . S
C933 C229 1.205 . S
C952 C52 1.184 . S
C969 C288 1.214 . S
C988 C111 1.229 . S
C1005 C347 1.210 . S
C1024 C170 1.214 . S
C1041 C406 1.207 . S
C1060 C583 1.192 . S
C1077 C465 1.213 . S
C1096 C642 1.228 . S
C1113 C524 1.209 . S
C1132 C701 1.213 . S
C1149 C33 1.601 . S
C1168 C564 1.585 . S
C1185 C92 1.600 . S
C1204 C623 1.588 . S
C1221 C151 1.598 . S
C1240 C682 1.598 . S
C1257 C387 1.598 . S
C1276 C210 1.599 . S
C1293 C269 1.598 . S
C1312 C446 1.596 . S
C1329 C505 1.599 . S
C1348 C328 1.595 . S
C1365 C654 1.287 . S
C1384 C5 1.294 . S
C1401 C64 1.289 . S
C1420 C359 1.296 . S
C1437 C418 1.282 . S
C1456 C123 1.270 . S
C1473 C182 1.289 . S
C1492 C477 1.303 . S
C1509 C241 1.284 . S
C1528 C536 1.278 . S
C1545 C595 1.286 . S
C1564 C300 1.290 . S
