# Generated by pormake.
# Topology smd, (6)-cn, num edge types: 1
# Building blocks:
#     Node 0, Type 0, BuildingBlock: BETDEL_clean_sbu_0, # of connection points: 6
#     Node 1, Type 0, BuildingBlock: BETDEL_clean_sbu_0, # of connection points: 6
#     Node 2, Type 0, BuildingBlock: BETDEL_clean_sbu_0, # of connection points: 6
#     Node 3, Type 0, BuildingBlock: BETDEL_clean_sbu_0, # of connection points: 6
#     Node 4, Type 0, BuildingBlock: BETDEL_clean_sbu_0, # of connection points: 6
#     Node 5, Type 0, BuildingBlock: BETDEL_clean_sbu_0, # of connection points: 6
#     Node 6, Type 0, BuildingBlock: BETDEL_clean_sbu_0, # of connection points: 6
#     Node 7, Type 0, BuildingBlock: BETDEL_clean_sbu_0, # of connection points: 6
#     Node 8, Type 0, BuildingBlock: BETDEL_clean_sbu_0, # of connection points: 6
#     Node 9, Type 0, BuildingBlock: BETDEL_clean_sbu_0, # of connection points: 6
#     Node 10, Type 0, BuildingBlock: BETDEL_clean_sbu_0, # of connection points: 6
#     Node 11, Type 0, BuildingBlock: BETDEL_clean_sbu_0, # of connection points: 6
#     Node 12, Type 0, BuildingBlock: BETDEL_clean_sbu_0, # of connection points: 6
#     Node 13, Type 0, BuildingBlock: BETDEL_clean_sbu_0, # of connection points: 6
#     Node 14, Type 0, BuildingBlock: BETDEL_clean_sbu_0, # of connection points: 6
#     Node 15, Type 0, BuildingBlock: BETDEL_clean_sbu_0, # of connection points: 6
#     Node 16, Type 0, BuildingBlock: BETDEL_clean_sbu_0, # of connection points: 6
#     Node 17, Type 0, BuildingBlock: BETDEL_clean_sbu_0, # of connection points: 6
#     Edge 18, Type (0, 0), BuildingBlock: CIFDUS_clean_linker_0, # of connection points: 2
#     Edge 19, Type (0, 0), BuildingBlock: CIFDUS_clean_linker_0, # of connection points: 2
#     Edge 20, Type (0, 0), BuildingBlock: CIFDUS_clean_linker_0, # of connection points: 2
#     Edge 21, Type (0, 0), BuildingBlock: CIFDUS_clean_linker_0, # of connection points: 2
#     Edge 22, Type (0, 0), BuildingBlock: CIFDUS_clean_linker_0, # of connection points: 2
#     Edge 23, Type (0, 0), BuildingBlock: CIFDUS_clean_linker_0, # of connection points: 2
#     Edge 24, Type (0, 0), BuildingBlock: CIFDUS_clean_linker_0, # of connection points: 2
#     Edge 25, Type (0, 0), BuildingBlock: CIFDUS_clean_linker_0, # of connection points: 2
#     Edge 26, Type (0, 0), BuildingBlock: CIFDUS_clean_linker_0, # of connection points: 2
#     Edge 27, Type (0, 0), BuildingBlock: CIFDUS_clean_linker_0, # of connection points: 2
#     Edge 28, Type (0, 0), BuildingBlock: CIFDUS_clean_linker_0, # of connection points: 2
#     Edge 29, Type (0, 0), BuildingBlock: CIFDUS_clean_linker_0, # of connection points: 2
#     Edge 30, Type (0, 0), BuildingBlock: CIFDUS_clean_linker_0, # of connection points: 2
#     Edge 31, Type (0, 0), BuildingBlock: CIFDUS_clean_linker_0, # of connection points: 2
#     Edge 32, Type (0, 0), BuildingBlock: CIFDUS_clean_linker_0, # of connection points: 2
#     Edge 33, Type (0, 0), BuildingBlock: CIFDUS_clean_linker_0, # of connection points: 2
#     Edge 34, Type (0, 0), BuildingBlock: CIFDUS_clean_linker_0, # of connection points: 2
#     Edge 35, Type (0, 0), BuildingBlock: CIFDUS_clean_linker_0, # of connection points: 2
#     Edge 36, Type (0, 0), BuildingBlock: CIFDUS_clean_linker_0, # of connection points: 2
#     Edge 37, Type (0, 0), BuildingBlock: CIFDUS_clean_linker_0, # of connection points: 2
#     Edge 38, Type (0, 0), BuildingBlock: CIFDUS_clean_linker_0, # of connection points: 2
#     Edge 39, Type (0, 0), BuildingBlock: CIFDUS_clean_linker_0, # of connection points: 2
#     Edge 40, Type (0, 0), BuildingBlock: CIFDUS_clean_linker_0, # of connection points: 2
#     Edge 41, Type (0, 0), BuildingBlock: CIFDUS_clean_linker_0, # of connection points: 2
#     Edge 42, Type (0, 0), BuildingBlock: CIFDUS_clean_linker_0, # of connection points: 2
#     Edge 43, Type (0, 0), BuildingBlock: CIFDUS_clean_linker_0, # of connection points: 2
#     Edge 44, Type (0, 0), BuildingBlock: CIFDUS_clean_linker_0, # of connection points: 2
#     Edge 45, Type (0, 0), BuildingBlock: CIFDUS_clean_linker_0, # of connection points: 2
#     Edge 46, Type (0, 0), BuildingBlock: CIFDUS_clean_linker_0, # of connection points: 2
#     Edge 47, Type (0, 0), BuildingBlock: CIFDUS_clean_linker_0, # of connection points: 2
#     Edge 48, Type (0, 0), BuildingBlock: CIFDUS_clean_linker_0, # of connection points: 2
#     Edge 49, Type (0, 0), BuildingBlock: CIFDUS_clean_linker_0, # of connection points: 2
#     Edge 50, Type (0, 0), BuildingBlock: CIFDUS_clean_linker_0, # of connection points: 2
#     Edge 51, Type (0, 0), BuildingBlock: CIFDUS_clean_linker_0, # of connection points: 2
#     Edge 52, Type (0, 0), BuildingBlock: CIFDUS_clean_linker_0, # of connection points: 2
#     Edge 53, Type (0, 0), BuildingBlock: CIFDUS_clean_linker_0, # of connection points: 2
#     Edge 54, Type (0, 0), BuildingBlock: CIFDUS_clean_linker_0, # of connection points: 2
#     Edge 55, Type (0, 0), BuildingBlock: CIFDUS_clean_linker_0, # of connection points: 2
#     Edge 56, Type (0, 0), BuildingBlock: CIFDUS_clean_linker_0, # of connection points: 2
#     Edge 57, Type (0, 0), BuildingBlock: CIFDUS_clean_linker_0, # of connection points: 2
#     Edge 58, Type (0, 0), BuildingBlock: CIFDUS_clean_linker_0, # of connection points: 2
#     Edge 59, Type (0, 0), BuildingBlock: CIFDUS_clean_linker_0, # of connection points: 2
#     Edge 60, Type (0, 0), BuildingBlock: CIFDUS_clean_linker_0, # of connection points: 2
#     Edge 61, Type (0, 0), BuildingBlock: CIFDUS_clean_linker_0, # of connection points: 2
#     Edge 62, Type (0, 0), BuildingBlock: CIFDUS_clean_linker_0, # of connection points: 2
#     Edge 63, Type (0, 0), BuildingBlock: CIFDUS_clean_linker_0, # of connection points: 2
#     Edge 64, Type (0, 0), BuildingBlock: CIFDUS_clean_linker_0, # of connection points: 2
#     Edge 65, Type (0, 0), BuildingBlock: CIFDUS_clean_linker_0, # of connection points: 2
#     Edge 66, Type (0, 0), BuildingBlock: CIFDUS_clean_linker_0, # of connection points: 2
#     Edge 67, Type (0, 0), BuildingBlock: CIFDUS_clean_linker_0, # of connection points: 2
#     Edge 68, Type (0, 0), BuildingBlock: CIFDUS_clean_linker_0, # of connection points: 2
#     Edge 69, Type (0, 0), BuildingBlock: CIFDUS_clean_linker_0, # of connection points: 2
#     Edge 70, Type (0, 0), BuildingBlock: CIFDUS_clean_linker_0, # of connection points: 2
#     Edge 71, Type (0, 0), BuildingBlock: CIFDUS_clean_linker_0, # of connection points: 2
# Relax obj value: 0.243
# Max RMSD: 0.296
# Mean RMSD: 0.269
data_MOF--net-smd--node1-BETDEL_clean_sbu_0--edge1-CIFDUS_clean_linker_0
_symmetry_space_group_name_H-M    P1
_symmetry_Int_Tables_number       1
_symmetry_cell_setting            triclinic
loop_
_symmetry_equiv_pos_as_xyz
'x, y, z'
_cell_length_a     58.577477
_cell_length_b     59.065228
_cell_length_c     16.21425
_cell_angle_alpha  92.640815
_cell_angle_beta   93.003583
_cell_angle_gamma 119.95605
loop_
_atom_site_label
_atom_site_type_symbol
_atom_site_fract_x
_atom_site_fract_y
_atom_site_fract_z
_atom_type_partial_charge
Dy0 Dy 0.02669 0.25078 0.622 0.0
C1 C 0.01966 0.23717 0.26626 0.0
C2 C 0.01747 0.25231 0.78342 0.0
Dy3 Dy 0.01351 0.23829 0.43072 0.0
O4 O 0.03978 0.26827 0.75398 0.0
O5 O 1.00035 0.23643 0.72445 0.0
O6 O 0.05931 0.24125 0.63914 0.0
O7 O 0.03951 0.23493 0.52402 0.0
C8 C 0.05801 0.23337 0.56209 0.0
C9 C 0.98296 0.25344 0.5118 0.0
O10 O 0.99651 0.19836 0.47088 0.0
O11 O 0.98924 0.21053 0.59947 0.0
O12 O 0.99688 0.22658 0.29747 0.0
O13 O 0.03871 0.24732 0.32481 0.0
O14 O 0.97501 0.2388 0.44218 0.0
O15 O 1.00706 0.26121 0.52753 0.0
O16 O 0.04987 0.29211 0.57693 0.0
O17 O 0.04639 0.27891 0.43663 0.0
C18 C 0.98331 0.19245 0.53747 0.0
C19 C 0.0561 0.2972 0.49878 0.0
Dy20 Dy 0.79507 0.7844 0.41595 0.0
C21 C 0.80486 0.80455 0.76544 0.0
C22 C 0.78899 0.78123 0.24591 0.0
Dy23 Dy 0.79692 0.79998 0.59572 0.0
O24 O 0.80918 0.78314 0.28953 0.0
O25 O 0.77164 0.77983 0.29511 0.0
O26 O 0.82731 0.77588 0.44397 0.0
O27 O 0.82816 0.80773 0.51207 0.0
C28 C 0.8396 0.79436 0.50348 0.0
C29 C 0.75155 0.787 0.50334 0.0
O30 O 0.81506 0.84043 0.55605 0.0
O31 O 0.80012 0.8252 0.41882 0.0
O32 O 0.78438 0.80262 0.72343 0.0
O33 O 0.82145 0.80497 0.71463 0.0
O34 O 0.76167 0.80536 0.5639 0.0
O35 O 0.76506 0.77594 0.49969 0.0
O36 O 0.77241 0.74377 0.46105 0.0
O37 O 0.78827 0.75837 0.59812 0.0
C38 C 0.80979 0.84434 0.47953 0.0
C39 C 0.77592 0.73906 0.53892 0.0
Dy40 Dy 0.23646 0.00933 0.58914 0.0
C41 C 0.2278 0.01727 0.23781 0.0
C42 C 0.24915 0.01805 0.75612 0.0
Dy43 Dy 0.23471 0.02152 0.40731 0.0
O44 O 0.23845 0.99517 0.71461 0.0
O45 O 0.25445 0.03611 0.70546 0.0
O46 O 0.19425 0.98036 0.60206 0.0
O47 O 0.20502 0.99596 0.48785 0.0
C48 C 0.18585 0.98003 0.52646 0.0
C49 C 0.28081 0.05198 0.50271 0.0
O50 O 0.21452 0.04202 0.45657 0.0
O51 O 0.23416 0.04662 0.58832 0.0
O52 O 0.2442 0.0386 0.28339 0.0
O53 O 0.21457 0.99871 0.28502 0.0
O54 O 0.27183 0.06089 0.44548 0.0
O55 O 0.2658 0.02769 0.50247 0.0
O56 O 0.25166 0.98383 0.53175 0.0
O57 O 0.24243 0.98827 0.39365 0.0
C58 C 0.22189 0.0536 0.53252 0.0
C59 C 0.24972 0.97727 0.45052 0.0
Dy60 Dy 0.02578 0.80106 0.64948 0.0
C61 C 1.00377 0.78242 0.29692 0.0
C62 C 0.0296 0.8034 0.81958 0.0
Dy63 Dy 1.00758 0.79065 0.46576 0.0
O64 O 0.0426 0.79649 0.772 0.0
O65 O 0.01494 0.80966 0.77436 0.0
O66 O 0.06587 0.80882 0.61192 0.0
O67 O 0.03127 0.78037 0.54392 0.0
C68 C 0.056 0.79168 0.54797 0.0
C69 C 0.98281 0.81088 0.55495 0.0
O70 O 0.98118 0.74946 0.50563 0.0
O71 O 0.99441 0.75917 0.64759 0.0
O72 O 0.98426 0.77861 0.3405 0.0
O73 O 0.02481 0.78935 0.34613 0.0
O74 O 0.99103 0.81747 0.4823 0.0
O75 O 0.98993 0.79487 0.57665 0.0
O76 O 0.04254 0.84198 0.61395 0.0
O77 O 0.04453 0.83092 0.47746 0.0
C78 C 0.97941 0.74269 0.58373 0.0
C79 C 0.05192 0.84874 0.54112 0.0
Dy80 Dy 0.23661 0.22784 0.44279 0.0
C81 C 0.24541 0.25717 0.79722 0.0
C82 C 0.22798 0.22889 0.27568 0.0
Dy83 Dy 0.23549 0.24599 0.62827 0.0
O84 O 0.23968 0.21728 0.30939 0.0
O85 O 0.2201 0.23876 0.3332 0.0
O86 O 0.27736 0.23043 0.46328 0.0
O87 O 0.25987 0.23792 0.5579 0.0
C88 C 0.28028 0.23745 0.54248 0.0
C89 C 0.18876 0.22601 0.53591 0.0
O90 O 0.25082 0.28446 0.56044 0.0
O91 O 0.26556 0.26948 0.4543 0.0
O92 O 0.22441 0.25378 0.75395 0.0
O93 O 0.26174 0.25652 0.74703 0.0
O94 O 0.19186 0.22052 0.61107 0.0
O95 O 0.21177 0.24037 0.51177 0.0
O96 O 0.21165 0.18891 0.48765 0.0
O97 O 0.22759 0.20386 0.62575 0.0
C98 C 0.26205 0.28781 0.48827 0.0
C99 C 0.21512 0.18453 0.56519 0.0
Dy100 Dy 0.79583 0.01368 0.6212 0.0
C101 C 0.78567 0.01727 0.27359 0.0
C102 C 0.79987 0.01503 0.78964 0.0
Dy103 Dy 0.79633 0.02201 0.44063 0.0
O104 O 0.78339 0.01914 0.7455 0.0
O105 O 0.81428 0.0102 0.74186 0.0
O106 O 0.75835 0.97349 0.59261 0.0
O107 O 0.76528 1.00359 0.52006 0.0
C108 C 0.75038 0.97971 0.52582 0.0
C109 C 0.84527 0.05748 0.50483 0.0
O110 O 0.77733 0.04482 0.4898 0.0
O111 O 0.79564 0.05117 0.62428 0.0
O112 O 0.7838 0.03381 0.32445 0.0
O113 O 0.79233 1.00276 0.31422 0.0
O114 O 0.83673 0.05352 0.4276 0.0
O115 O 0.82719 0.04147 0.5472 0.0
O116 O 0.81761 0.99392 0.58205 0.0
O117 O 0.79887 0.98494 0.44815 0.0
C118 C 0.78274 0.05647 0.56637 0.0
C119 C 0.81175 0.98059 0.50937 0.0
Dy120 Dy 0.67195 0.56547 0.71741 0.0
C121 C 0.68846 0.58046 0.06475 0.0
C122 C 0.67553 0.56613 0.54943 0.0
Dy123 Dy 0.68765 0.57424 0.89639 0.0
O124 O 0.66214 0.57447 0.58961 0.0
O125 O 0.68644 0.5575 0.60072 0.0
O126 O 0.63199 0.53099 0.72583 0.0
O127 O 0.66324 0.53767 0.81369 0.0
C128 C 0.63846 0.52408 0.79398 0.0
C129 C 0.7176 0.61504 0.80506 0.0
O130 O 0.70885 0.55343 0.86789 0.0
O131 O 0.71023 0.56349 0.73216 0.0
O132 O 0.6847 0.59453 0.01278 0.0
O133 O 0.69266 0.56346 0.02498 0.0
O134 O 0.72746 0.60859 0.86707 0.0
O135 O 0.69307 0.60065 0.79869 0.0
O136 O 0.65324 0.5884 0.76999 0.0
O137 O 0.64738 0.56839 0.88976 0.0
C138 C 0.71852 0.5551 0.79563 0.0
C139 C 0.64184 0.5823 0.84092 0.0
Dy140 Dy 0.46605 0.12201 0.71 0.0
C141 C 0.46871 0.14235 0.0626 0.0
C142 C 0.45507 0.11293 0.54097 0.0
Dy143 Dy 0.46296 0.13891 0.8926 0.0
O144 O 0.47267 0.10941 0.58253 0.0
O145 O 0.4428 0.11955 0.59255 0.0
O146 O 0.50984 0.15045 0.72272 0.0
O147 O 0.49152 0.13289 0.82477 0.0
C148 C 0.51397 0.14816 0.80062 0.0
C149 C 0.4183 0.11892 0.78771 0.0
O150 O 0.48133 0.17802 0.84281 0.0
O151 O 0.46393 0.15953 0.70955 0.0
O152 O 0.44679 0.13541 0.01791 0.0
O153 O 0.48775 0.14909 0.01446 0.0
O154 O 0.4239 0.13672 0.8482 0.0
O155 O 0.43557 0.1124 0.79155 0.0
O156 O 0.4545 0.08316 0.76888 0.0
O157 O 0.45637 0.09924 0.9055 0.0
C158 C 0.47432 0.17995 0.76592 0.0
C159 C 0.45358 0.08054 0.85108 0.0
Dy160 Dy 0.90821 0.35886 0.70825 0.0
C161 C 0.89331 0.3407 0.05779 0.0
C162 C 0.91424 0.36032 0.54499 0.0
Dy163 Dy 0.90101 0.34432 0.89584 0.0
O164 O 0.92455 0.38085 0.59767 0.0
O165 O 0.9015 0.33891 0.58186 0.0
O166 O 0.89645 0.38971 0.71215 0.0
O167 O 0.89538 0.37071 0.81757 0.0
C168 C 0.89145 0.38824 0.78911 0.0
C169 C 0.92162 0.31866 0.80941 0.0
O170 O 0.85934 0.32097 0.8421 0.0
O171 O 0.86649 0.32344 0.70132 0.0
O172 O 0.88668 0.32087 1.00468 0.0
O173 O 0.90354 0.36254 0.02209 0.0
O174 O 0.91832 0.31708 0.88792 0.0
O175 O 0.91384 0.33378 0.78606 0.0
O176 O 0.95058 0.37927 0.77031 0.0
O177 O 0.94092 0.37956 0.90817 0.0
C178 C 0.85106 0.31337 0.76299 0.0
C179 C 0.95794 0.38732 0.85085 0.0
Dy180 Dy 0.68934 0.13716 0.92469 0.0
C181 C 0.68094 0.11593 0.57108 0.0
C182 C 0.68317 0.13916 0.08994 0.0
Dy183 Dy 0.67181 0.11795 0.73376 0.0
O184 O 0.70578 0.14734 0.05877 0.0
O185 O 0.66449 0.13164 0.03073 0.0
O186 O 0.72821 0.13867 0.90883 0.0
O187 O 0.69462 0.11241 0.83162 0.0
C188 C 0.71926 0.12206 0.84339 0.0
C189 C 0.64315 0.13863 0.79294 0.0
O190 O 0.64995 0.07839 0.7899 0.0
O191 O 0.65947 0.09503 0.92924 0.0
O192 O 0.65802 0.10144 0.5999 0.0
O193 O 0.69855 0.12978 0.63173 0.0
O194 O 0.63908 0.12753 0.71851 0.0
O195 O 0.66214 0.13757 0.82931 0.0
O196 O 0.70942 0.17629 0.87425 0.0
O197 O 0.70878 0.15826 0.74302 0.0
C198 C 0.64714 0.07545 0.87105 0.0
C199 C 0.71814 0.17857 0.79956 0.0
Dy200 Dy 0.90273 0.57326 0.9243 0.0
C201 C 0.91804 0.57655 0.58239 0.0
C202 C 0.90107 0.56856 0.09024 0.0
Dy203 Dy 0.91318 0.56627 0.74356 0.0
O204 O 0.90547 0.58959 0.05525 0.0
O205 O 0.89668 0.55006 0.03462 0.0
O206 O 0.90178 0.61036 0.88857 0.0
O207 O 0.92532 0.59843 0.83287 0.0
C208 C 0.91806 0.61493 0.83138 0.0
C209 C 0.89091 0.52059 0.81977 0.0
O210 O 0.95529 0.58359 0.80446 0.0
O211 O 0.94499 0.5836 0.94226 0.0
O212 O 0.92531 0.56128 0.61702 0.0
O213 O 0.90956 0.58673 0.63669 0.0
O214 O 0.88647 0.52251 0.7417 0.0
O215 O 0.90722 0.54358 0.85065 0.0
O216 O 0.86134 0.55301 0.86716 0.0
O217 O 0.87444 0.56645 0.73824 0.0
C218 C 0.96202 0.58721 0.88645 0.0
C219 C 0.85606 0.55753 0.7916 0.0
Dy220 Dy 0.46495 0.34733 0.92142 0.0
C221 C 0.45325 0.35729 0.57231 0.0
C222 C 0.47055 0.34776 0.09017 0.0
Dy223 Dy 0.46544 0.3627 0.73935 0.0
O224 O 0.44856 0.334 0.04372 0.0
O225 O 0.48972 0.36068 0.04407 0.0
O226 O 0.42627 0.30954 0.87796 0.0
O227 O 0.43587 0.34418 0.82453 0.0
C228 C 0.41914 0.32017 0.82109 0.0
C229 C 0.51536 0.38983 0.80867 0.0
O230 O 0.45088 0.38804 0.80538 0.0
O231 O 0.46308 0.38383 0.94068 0.0
O232 O 0.4671 0.37966 0.61642 0.0
O233 O 0.44509 0.33813 0.61999 0.0
O234 O 0.50819 0.39175 0.73372 0.0
O235 O 0.49521 0.37344 0.84289 0.0
O236 O 0.48319 0.32554 0.86947 0.0
O237 O 0.46879 0.32554 0.73308 0.0
C238 C 0.4546 0.39482 0.88739 0.0
C239 C 0.47886 0.31675 0.79065 0.0
Dy240 Dy 0.36539 0.91812 0.25638 0.0
C241 C 0.33401 0.89852 0.9011 0.0
C242 C 0.36151 0.92465 0.42361 0.0
Dy243 Dy 0.3402 0.89713 0.07065 0.0
O244 O 0.3836 0.935 0.38758 0.0
O245 O 0.3419 0.91184 0.36726 0.0
O246 O 0.39667 0.90716 0.26216 0.0
O247 O 0.37121 0.89692 0.15431 0.0
C248 C 0.39076 0.89573 0.18757 0.0
C249 C 0.31823 0.91785 0.17241 0.0
O250 O 0.31938 0.85837 0.12092 0.0
O251 O 0.32913 0.87714 0.25728 0.0
O252 O 0.32891 0.91126 0.95756 0.0
O253 O 0.34108 0.88341 0.93733 0.0
O254 O 0.30432 0.89823 0.11728 0.0
O255 O 0.34213 0.92535 0.16696 0.0
O256 O 0.38582 0.95507 0.18447 0.0
O257 O 0.38124 0.92995 0.06492 0.0
C258 C 0.31574 0.85669 0.20089 0.0
C259 C 0.39071 0.95316 0.10513 0.0
Dy260 Dy 0.13612 0.45614 0.078 0.0
C261 C 0.1335 0.47125 0.43107 0.0
C262 C 0.12643 0.44991 0.91068 0.0
Dy263 Dy 0.1327 0.46912 0.26342 0.0
O264 O 0.12403 0.4313 0.95599 0.0
O265 O 0.13365 0.47128 0.95671 0.0
O266 O 0.17838 0.46498 0.08215 0.0
O267 O 0.16343 0.47103 0.18876 0.0
C268 C 0.18392 0.47288 0.16037 0.0
C269 C 0.08958 0.45681 0.15809 0.0
O270 O 0.15217 0.50934 0.22439 0.0
O271 O 0.13843 0.49593 0.08523 0.0
O272 O 0.11545 0.45218 0.38089 0.0
O273 O 0.15092 0.4895 0.38964 0.0
O274 O 0.09643 0.47212 0.22588 0.0
O275 O 0.10427 0.44703 0.15564 0.0
O276 O 0.11575 0.41638 0.13194 0.0
O277 O 0.13611 0.43351 0.26313 0.0
C278 C 0.14762 0.51423 0.14855 0.0
C279 C 0.12186 0.41316 0.2094 0.0
Dy280 Dy 0.56916 0.67895 0.2752 0.0
C281 C 0.56824 0.68569 0.92504 0.0
C282 C 0.5809 0.68713 0.44127 0.0
Dy283 Dy 0.5733 0.69083 0.0928 0.0
O284 O 0.56923 0.66418 0.39997 0.0
O285 O 0.58696 0.70552 0.39143 0.0
O286 O 0.52614 0.64918 0.27589 0.0
O287 O 0.54132 0.66538 0.16611 0.0
C288 C 0.52063 0.64882 0.19719 0.0
C289 C 0.618 0.7192 0.19847 0.0
O290 O 0.54918 0.70767 0.12911 0.0
O291 O 0.56579 0.716 0.26549 0.0
O292 O 0.58143 0.70802 0.96947 0.0
O293 O 0.55769 0.66658 0.97216 0.0
O294 O 0.61238 0.72877 0.13499 0.0
O295 O 0.60087 0.69552 0.19649 0.0
O296 O 0.58571 0.65334 0.2249 0.0
O297 O 0.57866 0.65669 0.08437 0.0
C298 C 0.55463 0.72126 0.201 0.0
C299 C 0.58543 0.64648 0.14458 0.0
Dy300 Dy 0.36304 0.47095 0.28519 0.0
C301 C 0.34881 0.45157 0.9356 0.0
C302 C 0.35972 0.47242 0.4528 0.0
Dy303 Dy 0.34047 0.45548 0.09819 0.0
O304 O 0.37993 0.47406 0.41736 0.0
O305 O 0.34255 0.47144 0.39708 0.0
O306 O 0.39861 0.46801 0.24423 0.0
O307 O 0.36131 0.44425 0.18389 0.0
C308 C 0.38513 0.45056 0.18233 0.0
C309 C 0.31657 0.47868 0.16963 0.0
O310 O 0.31355 0.41666 0.15495 0.0
O311 O 0.32753 0.43267 0.29363 0.0
O312 O 0.32543 0.44081 0.96375 0.0
O313 O 0.36702 0.46311 0.99654 0.0
O314 O 0.31148 0.46955 0.09225 0.0
O315 O 0.33432 0.4749 0.20352 0.0
O316 O 0.38193 0.511 0.24609 0.0
O317 O 0.37679 0.4971 0.10628 0.0
C318 C 0.31112 0.4143 0.23668 0.0
C319 C 0.38753 0.51581 0.16888 0.0
Dy320 Dy 0.57449 0.90534 0.11284 0.0
C321 C 0.57859 0.92601 0.46879 0.0
C322 C 0.56976 0.90203 0.94546 0.0
Dy323 Dy 0.57199 0.91784 0.30107 0.0
O324 O 0.58703 0.92237 0.99286 0.0
O325 O 0.55498 0.88278 0.98939 0.0
O326 O 0.61802 0.9157 0.12314 0.0
O327 O 0.6001 0.91723 0.22541 0.0
C328 C 0.62169 0.92099 0.20294 0.0
C329 C 0.5248 0.89794 0.20575 0.0
O330 O 0.59652 0.95791 0.24982 0.0
O331 O 0.57447 0.94281 0.11982 0.0
O332 O 0.57576 0.94158 0.42005 0.0
O333 O 0.57864 0.90705 0.42581 0.0
O334 O 0.52734 0.89464 0.2835 0.0
O335 O 0.54785 0.91307 0.18596 0.0
O336 O 0.55611 0.86518 0.15643 0.0
O337 O 0.57059 0.87884 0.29526 0.0
C338 C 0.59081 0.96239 0.17348 0.0
C339 C 0.56099 0.86038 0.23253 0.0
Dy340 Dy 0.13299 0.68429 0.30915 0.0
C341 C 0.12727 0.69053 0.964 0.0
C342 C 0.13926 0.68658 0.47802 0.0
Dy343 Dy 0.13252 0.69358 0.13332 0.0
O344 O 0.11735 0.67161 0.43264 0.0
O345 O 0.1579 0.7002 0.43117 0.0
O346 O 0.09674 0.64383 0.27493 0.0
O347 O 0.10145 0.6757 0.21299 0.0
C348 C 0.08707 0.65148 0.21568 0.0
C349 C 0.17788 0.729 0.21987 0.0
O350 O 0.11083 0.7138 0.18221 0.0
O351 O 0.12911 0.72008 0.31631 0.0
O352 O 0.14814 0.70757 0.01033 0.0
O353 O 0.10914 0.67557 0.01005 0.0
O354 O 0.16489 0.73434 0.16445 0.0
O355 O 0.16559 0.70441 0.22777 0.0
O356 O 0.15047 0.66053 0.27177 0.0
O357 O 0.13575 0.65636 0.13433 0.0
C358 C 0.11582 0.72513 0.25917 0.0
C359 C 0.14479 0.64841 0.19711 0.0
H360 H 0.13942 0.39702 0.3394 0.0
H361 H 0.071 0.37401 0.16874 0.0
H362 H 0.04361 0.33923 0.25557 0.0
H363 H 0.03898 0.31603 0.38036 0.0
H364 H 0.1074 0.3361 0.54645 0.0
H365 H 0.13489 0.37256 0.4636 0.0
C366 C 0.1186 0.38396 0.32026 0.0
C367 C 0.10733 0.38785 0.2468 0.0
C368 C 0.1029 0.36436 0.37153 0.0
C369 C 0.08033 0.371 0.22332 0.0
C370 C 0.06457 0.3515 0.27402 0.0
C371 C 0.05983 0.32889 0.39976 0.0
C372 C 0.07106 0.32387 0.4708 0.0
C373 C 0.07558 0.34837 0.34878 0.0
C374 C 0.09814 0.34017 0.49412 0.0
C375 C 0.1139 0.36054 0.44541 0.0
H376 H 0.72143 0.74094 0.41124 0.0
H377 H 0.72743 0.81567 0.46999 0.0
H378 H 0.68778 0.80253 0.37583 0.0
H379 H 0.65026 0.76873 0.27821 0.0
H380 H 0.64387 0.69327 0.23005 0.0
H381 H 0.68453 0.70765 0.31763 0.0
C382 C 0.7141 0.75439 0.40336 0.0
C383 C 0.72734 0.77923 0.44765 0.0
C384 C 0.69111 0.74651 0.35042 0.0
C385 C 0.71746 0.79635 0.43711 0.0
C386 C 0.69484 0.78885 0.38295 0.0
C387 C 0.65807 0.75568 0.28611 0.0
C388 C 0.64418 0.73005 0.24655 0.0
C389 C 0.68135 0.76389 0.33925 0.0
C390 C 0.6542 0.71312 0.25916 0.0
C391 C 0.67747 0.7213 0.3095 0.0
H392 H 0.29916 0.98395 0.45179 0.0
H393 H 0.21793 0.93068 0.36373 0.0
H394 H 0.23138 0.90647 0.27068 0.0
H395 H 0.26686 0.90309 0.20352 0.0
H396 H 0.34824 0.95837 0.28727 0.0
H397 H 0.33434 0.97878 0.39182 0.0
C398 C 0.28441 0.96637 0.4148 0.0
C399 C 0.25751 0.95857 0.41687 0.0
C400 C 0.29243 0.95317 0.35868 0.0
C401 C 0.23868 0.93652 0.36533 0.0
C402 C 0.24642 0.92292 0.31104 0.0
C403 C 0.28149 0.91948 0.24504 0.0
C404 C 0.30859 0.92913 0.237 0.0
C405 C 0.27332 0.93149 0.30527 0.0
C406 C 0.32725 0.95048 0.29148 0.0
C407 C 0.31932 0.96221 0.35176 0.0
H408 H 0.3252 0.04866 0.51138 0.0
H409 H 0.28948 0.08834 0.62945 0.0
H410 H 0.3293 0.11454 0.723 0.0
H411 H 0.37466 0.12541 0.77506 0.0
H412 H 0.40743 0.08093 0.66731 0.0
H413 H 0.36915 0.05784 0.56691 0.0
C414 C 0.32633 0.06326 0.55714 0.0
C415 C 0.30495 0.06765 0.56021 0.0
C416 C 0.34903 0.07748 0.61323 0.0
C417 C 0.30629 0.08597 0.62149 0.0
C418 C 0.32896 0.10057 0.67651 0.0
C419 C 0.37341 0.11076 0.72935 0.0
C420 C 0.39432 0.10548 0.72775 0.0
C421 C 0.35059 0.09658 0.67302 0.0
C422 C 0.39206 0.08599 0.66895 0.0
C423 C 0.36999 0.07252 0.61161 0.0
H424 H 0.92008 0.30884 0.63948 0.0
H425 H 0.95253 0.30109 0.87434 0.0
H426 H 0.9745 0.28096 0.8038 0.0
H427 H 0.98543 0.26627 0.67568 0.0
H428 H 0.94945 0.26844 0.44055 0.0
H429 H 0.92861 0.29059 0.50953 0.0
C430 C 0.93212 0.30292 0.67489 0.0
C431 C 0.93496 0.30693 0.7623 0.0
C432 C 0.94419 0.29042 0.63362 0.0
C433 C 0.95017 0.29854 0.80724 0.0
C434 C 0.96278 0.28697 0.7669 0.0
C435 C 0.97268 0.27112 0.63969 0.0
C436 C 0.96884 0.26539 0.55327 0.0
C437 C 0.95999 0.28285 0.68023 0.0
C438 C 0.95248 0.27227 0.50735 0.0
C439 C 0.94064 0.28504 0.54687 0.0
H440 H 0.79158 0.70407 0.57989 0.0
H441 H 0.72549 0.71713 0.5735 0.0
H442 H 0.70162 0.68006 0.65662 0.0
H443 H 0.70036 0.64532 0.73753 0.0
H444 H 0.76646 0.63226 0.74845 0.0
H445 H 0.78914 0.66712 0.65526 0.0
C446 C 0.77157 0.69809 0.59432 0.0
C447 C 0.75988 0.71269 0.56818 0.0
C448 C 0.75808 0.67686 0.64357 0.0
C449 C 0.73439 0.70549 0.59001 0.0
C450 C 0.7209 0.68453 0.6386 0.0
C451 C 0.71977 0.65015 0.71953 0.0
C452 C 0.73198 0.6366 0.75102 0.0
C453 C 0.73269 0.67033 0.6668 0.0
C454 C 0.75702 0.64293 0.72685 0.0
C455 C 0.76986 0.66271 0.67306 0.0
H456 H 0.99013 0.70439 0.60858 0.0
H457 H 0.92825 0.72318 0.6192 0.0
H458 H 0.903 0.68537 0.69936 0.0
H459 H 0.90051 0.64855 0.77775 0.0
H460 H 0.96419 0.63189 0.76549 0.0
H461 H 0.98648 0.66689 0.67653 0.0
C462 C 0.9706 0.69952 0.62554 0.0
C463 C 0.96062 0.71592 0.60522 0.0
C464 C 0.95674 0.67836 0.67397 0.0
C465 C 0.93587 0.71018 0.63112 0.0
C466 C 0.92166 0.68883 0.67847 0.0
C467 C 0.91927 0.65271 0.75569 0.0
C468 C 0.93065 0.63758 0.77942 0.0
C469 C 0.93223 0.6731 0.70245 0.0
C470 C 0.95486 0.6431 0.74899 0.0
C471 C 0.96772 0.66315 0.69745 0.0
H472 H 0.32624 0.28322 0.53547 0.0
H473 H 0.28852 0.21681 0.68017 0.0
H474 H 0.3284 0.23538 0.77739 0.0
H475 H 0.37449 0.27119 0.82211 0.0
H476 H 0.40829 0.34064 0.68873 0.0
H477 H 0.37028 0.32028 0.58615 0.0
C478 C 0.32695 0.27272 0.58779 0.0
C479 C 0.30481 0.24832 0.59937 0.0
C480 C 0.34954 0.28409 0.64535 0.0
C481 C 0.30557 0.23534 0.66903 0.0
C482 C 0.32836 0.24603 0.72479 0.0
C483 C 0.37354 0.28175 0.77034 0.0
C484 C 0.39491 0.30707 0.76147 0.0
C485 C 0.35057 0.27045 0.71371 0.0
C486 C 0.39281 0.32077 0.69546 0.0
C487 C 0.37083 0.30923 0.63701 0.0
H488 H 0.70526 0.09279 0.69367 0.0
H489 H 0.76934 0.13307 0.88551 0.0
H490 H 0.79572 0.11857 0.81207 0.0
H491 H 0.79971 0.09248 0.69802 0.0
H492 H 0.73695 0.05359 0.50173 0.0
H493 H 0.71151 0.07066 0.5697 0.0
C494 C 0.72517 0.09878 0.71851 0.0
C495 C 0.7353 0.114 0.79518 0.0
C496 C 0.7406 0.09093 0.67455 0.0
C497 C 0.76105 0.12137 0.82687 0.0
C498 C 0.77619 0.11313 0.78475 0.0
C499 C 0.78067 0.08813 0.6691 0.0
C500 C 0.77024 0.07168 0.59492 0.0
C501 C 0.76609 0.09771 0.70905 0.0
C502 C 0.74559 0.06637 0.55829 0.0
C503 C 0.73088 0.07586 0.59782 0.0
H504 H 0.63098 0.92316 0.37243 0.0
H505 H 0.67034 0.9441 0.14747 0.0
H506 H 0.71333 0.96337 0.22692 0.0
H507 H 0.74007 0.9752 0.36046 0.0
H508 H 0.70172 0.9518 0.58565 0.0
H509 H 0.65819 0.93254 0.50694 0.0
C510 C 0.649 0.93193 0.34107 0.0
C511 C 0.64743 0.93235 0.254 0.0
C512 C 0.67386 0.9424 0.38731 0.0
C513 C 0.67095 0.94355 0.21421 0.0
C514 C 0.69558 0.95457 0.25965 0.0
C515 C 0.72214 0.96549 0.39199 0.0
C516 C 0.72405 0.96463 0.47847 0.0
C517 C 0.69731 0.95414 0.34611 0.0
C518 C 0.70071 0.9522 0.51887 0.0
C519 C 0.67585 0.94142 0.47387 0.0
H520 H 0.03701 0.74687 0.44799 0.0
H521 H 0.10832 0.82042 0.51956 0.0
H522 H 0.13278 0.80781 0.42735 0.0
H523 H 0.13452 0.7741 0.33451 0.0
H524 H 0.06303 0.70074 0.26425 0.0
H525 H 0.03809 0.71469 0.34856 0.0
C526 C 0.05789 0.76022 0.44301 0.0
C527 C 0.07092 0.78448 0.49115 0.0
C528 C 0.07177 0.75276 0.39014 0.0
C529 C 0.09795 0.8015 0.48416 0.0
C530 C 0.11189 0.79431 0.43116 0.0
C531 C 0.1133 0.76167 0.33536 0.0
C532 C 0.10042 0.73681 0.29073 0.0
C533 C 0.09911 0.76983 0.38464 0.0
C534 C 0.07311 0.72039 0.29493 0.0
C535 C 0.05894 0.72822 0.34423 0.0
H536 H 0.29808 0.36355 0.19779 0.0
H537 H 0.28291 0.41198 0.36604 0.0
H538 H 0.26637 0.378 0.46333 0.0
H539 H 0.26084 0.33548 0.50883 0.0
H540 H 0.27674 0.2887 0.33217 0.0
H541 H 0.28728 0.32003 0.23362 0.0
C542 C 0.28999 0.36617 0.25375 0.0
C543 C 0.29163 0.39022 0.27373 0.0
C544 C 0.28109 0.34677 0.31095 0.0
C545 C 0.28162 0.39343 0.34829 0.0
C546 C 0.27252 0.37412 0.40502 0.0
C547 C 0.26673 0.33223 0.44921 0.0
C548 C 0.26861 0.3096 0.43192 0.0
C549 C 0.2731 0.35092 0.38881 0.0
C550 C 0.27567 0.30589 0.35175 0.0
C551 C 0.28165 0.3239 0.29301 0.0
H552 H 0.97784 0.42417 0.97946 0.0
H553 H 1.00125 0.38556 0.79919 0.0
H554 H 0.0449 0.4044 0.87703 0.0
H555 H 0.07464 0.42832 1.00578 0.0
H556 H 0.04993 0.46667 0.18328 0.0
H557 H 1.00852 0.45117 0.09806 0.0
C558 C 0.99268 0.42029 0.95612 0.0
C559 C 0.98625 0.40348 0.88346 0.0
C560 C 0.01735 0.43071 1.00201 0.0
C561 C 1.00575 0.3987 0.85416 0.0
C562 C 0.03059 0.40919 0.89948 0.0
C563 C 0.06025 0.43344 0.02526 0.0
C564 C 0.06532 0.44846 0.10156 0.0
C565 C 0.03634 0.42462 0.97497 0.0
C566 C 0.04657 0.4551 0.12541 0.0
C567 C 0.02284 0.44625 0.07655 0.0
H568 H 0.6041 0.56429 0.94877 0.0
H569 H 0.65675 0.63382 0.83251 0.0
H570 H 0.64794 0.66052 0.93157 0.0
H571 H 0.62575 0.66408 0.05125 0.0
H572 H 0.56995 0.59462 0.16061 0.0
H573 H 0.58066 0.5678 0.06728 0.0
C574 C 0.61308 0.58522 0.94377 0.0
C575 C 0.63063 0.597 0.88202 0.0
C576 C 0.60828 0.60044 1.00199 0.0
C577 C 0.64252 0.62417 0.87731 0.0
C578 C 0.63796 0.63948 0.93525 0.0
C579 C 0.6165 0.6431 0.05628 0.0
C580 C 0.59763 0.63138 0.11439 0.0
C581 C 0.62123 0.62785 0.99844 0.0
C582 C 0.58524 0.60418 0.11885 0.0
C583 C 0.59088 0.58886 0.06392 0.0
H584 H 0.41593 0.02822 0.81298 0.0
H585 H 0.48138 0.08085 0.98797 0.0
H586 H 0.46684 0.04805 0.08826 0.0
H587 H 0.43363 1.00455 0.1315 0.0
H588 H 0.3712 0.95098 0.94984 0.0
H589 H 0.38632 0.98307 0.84928 0.0
C590 C 0.42766 0.03207 0.87139 0.0
C591 C 0.4498 0.057 0.89209 0.0
C592 C 0.41927 0.0129 0.92973 0.0
C593 C 0.46434 0.06168 0.96961 0.0
C594 C 0.45583 0.04304 0.028 0.0
C595 C 0.42325 1.00008 0.07036 0.0
C596 C 0.40072 0.97529 0.04996 0.0
C597 C 0.43286 0.01869 1.00995 0.0
C598 C 0.38813 0.96984 0.96889 0.0
C599 C 0.39695 0.98826 0.91024 0.0
H600 H 0.66485 0.04618 0.94236 0.0
H601 H 0.59469 0.05088 0.88923 0.0
H602 H 0.57203 0.01925 0.99093 0.0
H603 H 0.57247 0.99058 0.09707 0.0
H604 H 0.64313 0.98695 0.15339 0.0
H605 H 0.66544 0.01784 0.04945 0.0
C606 C 0.64421 0.03934 0.95056 0.0
C607 C 0.631 0.04981 0.90482 0.0
C608 C 0.63179 0.02208 0.01215 0.0
C609 C 0.60476 0.04196 0.91973 0.0
C610 C 0.59206 0.0244 0.97961 0.0
C611 C 0.59311 0.99744 0.08881 0.0
C612 C 0.60653 0.98743 0.13583 0.0
C613 C 0.60553 0.01468 0.02724 0.0
C614 C 0.63286 0.99549 0.12163 0.0
C615 C 0.64537 0.01262 0.06052 0.0
H616 H 0.06931 0.66652 0.08287 0.0
H617 H 0.05172 0.5988 0.21524 0.0
H618 H 0.0127 0.57173 0.11759 0.0
H619 H 0.98222 0.56823 0.99924 0.0
H620 H 1.00285 0.63503 0.85903 0.0
H621 H 0.04322 0.66132 0.95172 0.0
C622 C 0.05753 0.64566 0.08884 0.0
C623 C 0.06369 0.63466 0.15585 0.0
C624 C 0.036 0.63001 0.03001 0.0
C625 C 0.04749 0.60777 0.16435 0.0
C626 C 0.02526 0.59227 0.10819 0.0
C627 C 0.99616 0.58824 0.98709 0.0
C628 C 0.98984 0.59955 0.92135 0.0
C629 C 0.01926 0.60322 0.04103 0.0
C630 C 1.00764 0.62568 0.90752 0.0
C631 C 0.03046 0.64084 0.96161 0.0
H632 H 0.43666 0.46266 0.16012 0.0
H633 H 0.35626 0.41458 0.05335 0.0
H634 H 0.37091 0.39695 0.94243 0.0
H635 H 0.40609 0.39163 0.88152 0.0
H636 H 0.48599 0.43719 0.99331 0.0
H637 H 0.47228 0.45901 0.09452 0.0
C638 C 0.42238 0.44841 0.11245 0.0
C639 C 0.39531 0.4402 0.11562 0.0
C640 C 0.43095 0.43776 0.04867 0.0
C641 C 0.3772 0.42146 0.05309 0.0
C642 C 0.38558 0.4113 0.98908 0.0
C643 C 0.42066 0.40716 0.92568 0.0
C644 C 0.44727 0.41334 0.92751 0.0
C645 C 0.41237 0.41899 0.98648 0.0
C646 C 0.46557 0.43263 0.98837 0.0
C647 C 0.45764 0.44486 0.0474 0.0
H648 H 0.10913 0.26355 0.61281 0.0
H649 H 0.05666 0.19884 0.43705 0.0
H650 H 0.09352 0.19177 0.4053 0.0
H651 H 0.14003 0.20113 0.44257 0.0
H652 H 0.19134 0.26785 0.61436 0.0
H653 H 0.15565 0.27684 0.63333 0.0
C654 C 0.1058 0.24816 0.56626 0.0
C655 C 0.08017 0.2316 0.52782 0.0
C656 C 0.12694 0.24443 0.54847 0.0
C657 C 0.07623 0.2119 0.46732 0.0
C658 C 0.0973 0.20776 0.44979 0.0
C659 C 0.14352 0.21813 0.48168 0.0
C660 C 0.16847 0.234 0.52637 0.0
C661 C 0.12268 0.22349 0.4918 0.0
C662 C 0.17255 0.25567 0.57819 0.0
C663 C 0.15205 0.26071 0.58969 0.0
H664 H 0.78605 0.9352 0.40644 0.0
H665 H 0.85086 0.97719 0.59514 0.0
H666 H 0.85753 0.93963 0.59834 0.0
H667 H 0.84225 0.89318 0.55763 0.0
H668 H 0.7775 0.85099 0.36909 0.0
H669 H 0.77343 0.8899 0.35628 0.0
C670 C 0.80193 0.93627 0.4471 0.0
C671 C 0.81777 0.95895 0.50093 0.0
C672 C 0.80545 0.91432 0.44962 0.0
C673 C 0.83815 0.9599 0.55369 0.0
C674 C 0.84198 0.93838 0.55571 0.0
C675 C 0.82756 0.89268 0.51281 0.0
C676 C 0.81031 0.86922 0.46423 0.0
C677 C 0.82532 0.91522 0.50561 0.0
C678 C 0.79133 0.86888 0.40642 0.0
C679 C 0.78885 0.89111 0.39943 0.0
H680 H 0.08821 0.86914 0.42416 0.0
H681 H 0.06229 0.89115 0.64263 0.0
H682 H 0.09907 0.93581 0.6452 0.0
H683 H 0.14173 0.9669 0.59862 0.0
H684 H 0.17034 0.94578 0.38635 0.0
H685 H 0.1292 0.90298 0.36621 0.0
C686 C 0.09035 0.88385 0.47131 0.0
C687 C 0.07255 0.87657 0.53381 0.0
C688 C 0.11206 0.90976 0.47334 0.0
C689 C 0.07575 0.89596 0.59448 0.0
C690 C 0.0968 0.92161 0.59592 0.0
C691 C 0.1385 0.95329 0.54597 0.0
C692 C 0.15885 0.95957 0.49353 0.0
C693 C 0.11547 0.92852 0.53737 0.0
C694 C 0.1547 0.94165 0.42638 0.0
C695 C 0.13136 0.91698 0.41598 0.0
H696 H 0.25211 0.17169 0.59889 0.0
H697 H 0.16809 0.13841 0.55081 0.0
H698 H 0.16194 0.09401 0.54067 0.0
H699 H 0.18143 0.06483 0.53317 0.0
H700 H 0.26606 0.10033 0.5595 0.0
H701 H 0.27125 0.14329 0.59098 0.0
C702 C 0.23241 0.15461 0.58888 0.0
C703 C 0.2105 0.15808 0.57807 0.0
C704 C 0.22927 0.12943 0.57841 0.0
C705 C 0.18514 0.136 0.56135 0.0
C706 C 0.18169 0.11068 0.55457 0.0
C707 C 0.20089 0.082 0.5467 0.0
C708 C 0.22342 0.07923 0.54879 0.0
C709 C 0.20372 0.10715 0.56082 0.0
C710 C 0.24852 0.10169 0.56379 0.0
C711 C 0.25148 0.12641 0.58005 0.0
H712 H 0.87276 0.0969 0.41482 0.0
H713 H 0.87552 0.07228 0.65949 0.0
H714 H 0.9189 0.11269 0.69468 0.0
H715 H 0.95679 0.15524 0.65092 0.0
H716 H 0.95024 0.17572 0.40164 0.0
H717 H 0.90743 0.13674 0.37381 0.0
C718 C 0.88265 0.10002 0.47624 0.0
C719 C 0.87093 0.08135 0.53405 0.0
C720 C 0.90706 0.12276 0.49508 0.0
C721 C 0.88411 0.08629 0.61356 0.0
C722 C 0.90892 0.10939 0.63343 0.0
C723 C 0.94586 0.15098 0.5908 0.0
C724 C 0.95703 0.1682 0.52778 0.0
C725 C 0.92074 0.12782 0.57415 0.0
C726 C 0.94255 0.1626 0.45047 0.0
C727 C 0.91791 0.14033 0.43444 0.0
H728 H 0.9633 0.84434 0.58374 0.0
H729 H 0.94007 0.76273 0.54115 0.0
H730 H 0.89376 0.75047 0.52836 0.0
H731 H 0.85991 0.76283 0.51567 0.0
H732 H 0.88092 0.8436 0.56155 0.0
H733 H 0.92772 0.85625 0.58916 0.0
C734 C 0.94799 0.82388 0.57396 0.0
C735 C 0.95519 0.80444 0.56467 0.0
C736 C 0.92096 0.8168 0.5669 0.0
C737 C 0.93515 0.77801 0.55068 0.0
C738 C 0.90858 0.77096 0.54245 0.0
C739 C 0.87467 0.78319 0.53305 0.0
C740 C 0.86702 0.80227 0.53562 0.0
C741 C 0.90128 0.79018 0.54863 0.0
C742 C 0.88631 0.82852 0.55902 0.0
C743 C 0.9131 0.83575 0.5742 0.0
H744 H 0.81057 0.531 0.86697 0.0
H745 H 0.84348 0.58112 0.66922 0.0
H746 H 0.80292 0.58319 0.64654 0.0
H747 H 0.75916 0.57378 0.69199 0.0
H748 H 0.72725 0.52326 0.88991 0.0
H749 H 0.76591 0.51817 0.90232 0.0
C750 C 0.8088 0.54214 0.81821 0.0
C751 C 0.8302 0.55598 0.7704 0.0
C752 C 0.78545 0.5433 0.80558 0.0
C753 C 0.82735 0.57016 0.707 0.0
C754 C 0.80415 0.57147 0.69419 0.0
C755 C 0.76048 0.56126 0.73658 0.0
C756 C 0.74036 0.54918 0.79058 0.0
C757 C 0.78318 0.55852 0.74425 0.0
C758 C 0.74251 0.5331 0.84824 0.0
C759 C 0.76469 0.53015 0.85558 0.0
H760 H 0.44431 0.26779 0.71681 0.0
H761 H 0.52471 0.31689 0.82167 0.0
H762 H 0.53151 0.27921 0.81604 0.0
H763 H 0.51279 0.2312 0.79895 0.0
H764 H 0.43239 0.18177 0.69465 0.0
H765 H 0.42716 0.22021 0.68371 0.0
C766 C 0.46349 0.27028 0.7362 0.0
C767 C 0.48404 0.2951 0.7694 0.0
C768 C 0.46703 0.24825 0.73493 0.0
C769 C 0.50864 0.29797 0.7959 0.0
C770 C 0.51247 0.27639 0.79322 0.0
C771 C 0.49433 0.22898 0.7724 0.0
C772 C 0.47302 0.20372 0.74766 0.0
C773 C 0.49155 0.25126 0.76575 0.0
C774 C 0.44918 0.20106 0.71323 0.0
C775 C 0.44614 0.22305 0.70739 0.0
H776 H 0.72993 0.22816 0.76106 0.0
H777 H 0.76444 0.17997 0.80873 0.0
H778 H 0.80843 0.21667 0.79222 0.0
H779 H 0.83763 0.26322 0.77294 0.0
H780 H 0.8044 0.31231 0.72461 0.0
H781 H 0.75954 0.27474 0.7304 0.0
C782 C 0.74716 0.22586 0.76758 0.0
C783 C 0.7441 0.20156 0.78731 0.0
C784 C 0.77259 0.24715 0.75679 0.0
C785 C 0.76643 0.19859 0.79443 0.0
C786 C 0.79157 0.21953 0.78469 0.0
C787 C 0.82047 0.26545 0.76134 0.0
C788 C 0.82417 0.29026 0.74653 0.0
C789 C 0.79495 0.24395 0.76665 0.0
C790 C 0.80192 0.2932 0.73406 0.0
C791 C 0.77632 0.27179 0.73847 0.0
H792 H 0.85369 0.46917 0.84047 0.0
H793 H 0.93758 0.52219 0.84012 0.0
H794 H 0.94575 0.48567 0.84617 0.0
H795 H 0.92877 0.43821 0.83204 0.0
H796 H 0.84534 0.38441 0.83288 0.0
H797 H 0.83731 0.42133 0.84995 0.0
C798 C 0.87376 0.4727 0.8441 0.0
C799 C 0.895 0.49845 0.8402 0.0
C800 C 0.87843 0.45139 0.84839 0.0
C801 C 0.9209 0.50268 0.84411 0.0
C802 C 0.92561 0.48174 0.84717 0.0
C803 C 0.90898 0.4346 0.84008 0.0
C804 C 0.88777 0.40857 0.83343 0.0
C805 C 0.90453 0.45595 0.84725 0.0
C806 C 0.8621 0.40421 0.84045 0.0
C807 C 0.85748 0.42539 0.84856 0.0
H808 H 0.53084 0.4358 0.89571 0.0
H809 H 0.55987 0.38771 0.7918 0.0
H810 H 0.60392 0.42623 0.79017 0.0
H811 H 0.63127 0.47465 0.79064 0.0
H812 H 0.60021 0.52247 0.88227 0.0
H813 H 0.56042 0.48356 0.91768 0.0
C814 C 0.54724 0.43361 0.87744 0.0
C815 C 0.54225 0.40879 0.84623 0.0
C816 C 0.57218 0.45616 0.87244 0.0
C817 C 0.56339 0.40643 0.81878 0.0
C818 C 0.58851 0.4286 0.81622 0.0
C819 C 0.61623 0.4765 0.82157 0.0
C820 C 0.61888 0.50143 0.83552 0.0
C821 C 0.59278 0.45375 0.83891 0.0
C822 C 0.59885 0.50356 0.87268 0.0
C823 C 0.57595 0.48124 0.89222 0.0
H824 H 0.59194 0.10434 0.80343 0.0
H825 H 0.65033 0.18599 0.85393 0.0
H826 H 0.61511 0.19675 0.86783 0.0
H827 H 0.56711 0.18312 0.84452 0.0
H828 H 0.50979 0.10078 0.79663 0.0
H829 H 0.54487 0.09011 0.80242 0.0
C830 C 0.59694 0.12438 0.8206 0.0
C831 C 0.62364 0.14431 0.82878 0.0
C832 C 0.57663 0.13034 0.82709 0.0
C833 C 0.62991 0.17025 0.84917 0.0
C834 C 0.60973 0.17642 0.8558 0.0
C835 C 0.56239 0.16286 0.83768 0.0
C836 C 0.53579 0.14279 0.82074 0.0
C837 C 0.58292 0.15671 0.84179 0.0
C838 C 0.52998 0.11659 0.81099 0.0
C839 C 0.55009 0.11044 0.81378 0.0
H840 H 0.47307 0.85947 0.1647 0.0
H841 H 0.52531 0.94325 0.18468 0.0
H842 H 0.48758 0.94986 0.16284 0.0
H843 H 0.43962 0.93214 0.15817 0.0
H844 H 0.38667 0.84872 0.14023 0.0
H845 H 0.42443 0.8415 0.13638 0.0
C846 C 0.47614 0.87909 0.16178 0.0
C847 C 0.50201 0.90084 0.1758 0.0
C848 C 0.45414 0.88279 0.14853 0.0
C849 C 0.50569 0.92619 0.17286 0.0
C850 C 0.48407 0.93 0.16073 0.0
C851 C 0.4363 0.91236 0.14923 0.0
C852 C 0.41031 0.89097 0.14766 0.0
C853 C 0.45818 0.90849 0.15061 0.0
C854 C 0.40635 0.86547 0.13912 0.0
C855 C 0.42806 0.86139 0.13877 0.0
H856 H 0.15745 0.6236 0.07118 0.0
H857 H 0.12716 0.61413 0.31216 0.0
H858 H 0.12529 0.57238 0.31705 0.0
H859 H 0.13356 0.53917 0.25799 0.0
H860 H 0.16265 0.54549 0.01682 0.0
H861 H 0.164 0.5877 1.00715 0.0
C862 C 0.1504 0.61227 0.12432 0.0
C863 C 0.143 0.62236 0.192 0.0
C864 C 0.14946 0.58783 0.12736 0.0
C865 C 0.13365 0.60729 0.26015 0.0
C866 C 0.13245 0.58327 0.26309 0.0
C867 C 0.14041 0.54984 0.20337 0.0
C868 C 0.14848 0.53951 0.13896 0.0
C869 C 0.1407 0.57358 0.198 0.0
C870 C 0.15651 0.55318 0.06757 0.0
C871 C 0.15726 0.57729 0.06214 0.0
H872 H 0.47059 0.6356 0.21852 0.0
H873 H 0.51722 0.61063 0.0875 0.0
H874 H 0.47838 0.56662 0.05705 0.0
H875 H 0.43255 0.53356 0.08699 0.0
H876 H 0.38744 0.55937 0.22411 0.0
H877 H 0.4237 0.60465 0.23083 0.0
C878 C 0.47189 0.62083 0.18007 0.0
C879 C 0.4965 0.62649 0.15356 0.0
C880 C 0.44966 0.59551 0.16477 0.0
C881 C 0.49825 0.60697 0.10615 0.0
C882 C 0.4761 0.58167 0.08998 0.0
C883 C 0.43046 0.54928 0.11589 0.0
C884 C 0.40733 0.54318 0.15493 0.0
C885 C 0.45187 0.57542 0.1215 0.0
C886 C 0.40504 0.56361 0.19376 0.0
C887 C 0.42583 0.58951 0.19789 0.0
H888 H 0.56359 0.75833 0.33123 0.0
H889 H 0.53943 0.73838 0.06881 0.0
H890 H 0.53862 0.77837 0.05739 0.0
H891 H 0.54616 0.81992 0.11693 0.0
H892 H 0.56956 0.84195 0.37799 0.0
H893 H 0.56856 0.80038 0.39454 0.0
C894 C 0.55779 0.76259 0.27199 0.0
C895 C 0.55162 0.74497 0.20133 0.0
C896 C 0.5571 0.78613 0.26502 0.0
C897 C 0.54424 0.75111 0.12497 0.0
C898 C 0.54378 0.77421 0.11779 0.0
C899 C 0.55083 0.81569 0.17787 0.0
C900 C 0.55806 0.83425 0.24576 0.0
C901 C 0.55038 0.79195 0.18686 0.0
C902 C 0.56402 0.82814 0.32416 0.0
C903 C 0.56351 0.80433 0.33371 0.0
H904 H 0.28989 0.80753 0.11919 0.0
H905 H 0.29075 0.85068 0.34265 0.0
H906 H 0.24971 0.81298 0.37652 0.0
H907 H 0.21007 0.76989 0.3321 0.0
H908 H 0.20989 0.72631 0.11165 0.0
H909 H 0.25404 0.76164 0.08781 0.0
C910 C 0.28136 0.80855 0.17603 0.0
C911 C 0.29332 0.83216 0.22745 0.0
C912 C 0.25771 0.78661 0.19574 0.0
C913 C 0.28205 0.83291 0.30144 0.0
C914 C 0.25843 0.81132 0.32089 0.0
C915 C 0.22025 0.76772 0.28103 0.0
C916 C 0.20699 0.74537 0.2245 0.0
C917 C 0.24564 0.78833 0.26728 0.0
C918 C 0.22003 0.74306 0.15711 0.0
C919 C 0.24513 0.76345 0.14277 0.0
H920 H 0.27446 0.4511 0.25926 0.0
H921 H 0.31948 0.52502 0.15502 0.0
H922 H 0.28198 0.53229 0.15654 0.0
H923 H 0.23377 0.51289 0.15739 0.0
H924 H 0.18792 0.4387 0.25896 0.0
H925 H 0.22808 0.43632 0.29011 0.0
C926 C 0.27649 0.46946 0.24149 0.0
C927 C 0.29995 0.48777 0.20842 0.0
C928 C 0.25434 0.4731 0.24011 0.0
C929 C 0.30193 0.51099 0.18258 0.0
C930 C 0.28027 0.51493 0.1821 0.0
C931 C 0.23281 0.49684 0.19 0.0
C932 C 0.208 0.47619 0.20685 0.0
C933 C 0.25597 0.49548 0.20642 0.0
C934 C 0.20686 0.45511 0.24702 0.0
C935 C 0.22983 0.45361 0.26379 0.0
H936 H 0.98265 0.21593 0.1358 0.0
H937 H 0.06566 0.26962 0.2024 0.0
H938 H 0.07212 0.28086 0.05922 0.0
H939 H 0.05416 0.27515 0.91462 0.0
H940 H 0.97138 0.22054 0.8475 0.0
H941 H 0.96476 0.21002 0.9912 0.0
C942 C 1.00214 0.2299 0.11854 0.0
C943 C 0.02366 0.24178 0.1788 0.0
C944 C 1.0057 0.2363 0.03629 0.0
C945 C 0.04886 0.25997 0.15639 0.0
C946 C 0.05254 0.26657 0.0748 0.0
C947 C 0.03464 0.26128 0.93195 0.0
C948 C 0.01325 0.24884 0.87131 0.0
C949 C 0.03109 0.25493 0.01429 0.0
C950 C 0.98809 0.23056 0.89373 0.0
C951 C 0.98431 0.2244 0.97564 0.0
H952 H 0.82455 0.7856 0.13675 0.0
H953 H 0.75139 0.78568 0.15476 0.0
H954 H 0.75067 0.7945 1.00915 0.0
H955 H 0.77045 0.80162 0.87587 0.0
H956 H 0.8434 0.80127 0.85668 0.0
H957 H 0.84467 0.79324 1.00317 0.0
C958 C 0.80835 0.78733 0.10847 0.0
C959 C 0.78788 0.78467 0.15618 0.0
C960 C 0.80812 0.79252 0.02457 0.0
C961 C 0.76718 0.78726 0.11906 0.0
C962 C 0.76683 0.79247 0.03591 0.0
C963 C 0.78673 0.80002 0.90402 0.0
C964 C 0.80686 0.80217 0.85569 0.0
C965 C 0.78717 0.79512 0.98802 0.0
C966 C 0.82778 0.79991 0.8928 0.0
C967 C 0.82843 0.79516 0.97645 0.0
H968 H 0.24816 0.05435 0.12766 0.0
H969 H 0.20882 0.97086 0.14659 0.0
H970 H 0.21352 0.9637 1.00035 0.0
H971 H 0.22925 0.9812 0.86701 0.0
H972 H 0.26705 0.06456 0.84636 0.0
H973 H 0.26248 0.07176 0.99275 0.0
C974 C 0.24044 0.03461 0.09935 0.0
C975 C 0.22812 0.01317 0.14752 0.0
C976 C 0.24316 0.03063 0.01507 0.0
C977 C 0.21812 0.98766 0.11039 0.0
C978 C 0.22099 0.98356 0.02695 0.0
C979 C 0.23685 1.00095 0.89499 0.0
C980 C 0.24897 0.02235 0.8465 0.0
C981 C 0.23368 1.00491 0.97883 0.0
C982 C 0.25814 0.0478 0.88293 0.0
C983 C 0.25535 0.05193 0.96646 0.0
H984 H 0.98974 0.79494 0.91511 0.0
H985 H 0.06859 0.80657 0.92645 0.0
H986 H 0.06749 0.80069 0.07503 0.0
H987 H 0.04379 0.79154 0.20147 0.0
H988 H 0.96401 0.77756 0.18883 0.0
H989 H 0.96552 0.78452 0.04106 0.0
C990 C 1.00672 0.79637 0.95043 0.0
C991 C 0.02931 0.80139 0.91024 0.0
C992 C 1.00559 0.79211 0.0353 0.0
C993 C 0.05103 0.80278 0.95621 0.0
C994 C 0.05036 0.79933 0.04104 0.0
C995 C 0.02664 0.78975 0.16611 0.0
C996 C 1.00374 0.78387 0.20591 0.0
C997 C 0.02766 0.79374 0.08111 0.0
C998 C 0.98176 0.7818 0.15946 0.0
C999 C 0.98269 0.78597 0.07508 0.0
H1000 H 0.26 0.2286 0.16039 0.0
H1001 H 0.195 0.24187 0.19366 0.0
H1002 H 0.19507 0.25294 0.0499 0.0
H1003 H 0.21345 0.25838 0.91309 0.0
H1004 H 0.28051 0.248 0.88395 0.0
H1005 H 0.28 0.23662 0.02695 0.0
C1006 C 0.24569 0.23365 0.13575 0.0
C1007 C 0.22717 0.23389 0.18702 0.0
C1008 C 0.24645 0.24086 0.05374 0.0
C1009 C 0.20921 0.24117 0.15501 0.0
C1010 C 0.20935 0.24765 0.0729 0.0
C1011 C 0.22819 0.25402 0.93852 0.0
C1012 C 0.24708 0.2542 0.88771 0.0
C1013 C 0.22792 0.24762 0.02154 0.0
C1014 C 0.26593 0.24833 0.92166 0.0
C1015 C 0.26553 0.24158 1.00342 0.0
H1016 H 0.81009 1.00115 0.16982 0.0
H1017 H 0.7606 0.03591 0.17658 0.0
H1018 H 0.76101 0.03864 0.02629 0.0
H1019 H 0.77526 0.03083 0.89363 0.0
H1020 H 0.82692 0.9985 0.88777 0.0
H1021 H 0.82626 0.99544 0.03786 0.0
C1022 C 0.79919 0.00906 0.13804 0.0
C1023 C 0.78489 0.01787 0.1832 0.0
C1024 C 0.80016 0.01121 0.05242 0.0
C1025 C 0.77144 0.02876 0.14235 0.0
C1026 C 0.77177 0.03039 0.05676 0.0
C1027 C 0.78639 0.02316 0.92538 0.0
C1028 C 0.8009 0.01466 0.88021 0.0
C1029 C 0.78604 0.02166 0.01129 0.0
C1030 C 0.81554 1.00506 0.92167 0.0
C1031 C 0.81508 1.00323 1.00722 0.0
H1032 H 0.69995 0.5555 0.18064 0.0
H1033 H 0.66892 0.60736 0.14798 0.0
H1034 H 0.661 0.60699 0.29493 0.0
H1035 H 0.66297 0.59163 0.43387 0.0
H1036 H 0.69563 0.54094 0.46421 0.0
H1037 H 0.70271 0.54105 0.31768 0.0
C1038 C 0.69161 0.56683 0.20593 0.0
C1039 C 0.68517 0.58152 0.15408 0.0
C1040 C 0.68726 0.56662 0.29021 0.0
C1041 C 0.67429 0.59608 0.18723 0.0
C1042 C 0.66963 0.59577 0.2711 0.0
C1043 C 0.67151 0.58056 0.40803 0.0
C1044 C 0.67865 0.5662 0.45963 0.0
C1045 C 0.676 0.58105 0.32334 0.0
C1046 C 0.68993 0.55212 0.42572 0.0
C1047 C 0.69403 0.55218 0.3419 0.0
H1048 H 0.48704 0.11264 0.42191 0.0
H1049 H 0.41858 0.12023 0.45691 0.0
H1050 H 0.41718 0.13079 0.31409 0.0
H1051 H 0.43567 0.13889 0.17891 0.0
H1052 H 0.50472 0.13273 0.14236 0.0
H1053 H 0.50545 0.12038 0.28429 0.0
C1054 C 0.47158 0.11614 0.39771 0.0
C1055 C 0.4528 0.11536 0.45024 0.0
C1056 C 0.47109 0.12273 0.31497 0.0
C1057 C 0.43314 0.1204 0.41798 0.0
C1058 C 0.43238 0.12663 0.3362 0.0
C1059 C 0.451 0.13507 0.20244 0.0
C1060 C 0.47035 0.13716 0.15077 0.0
C1061 C 0.45137 0.12813 0.2843 0.0
C1062 C 0.48996 0.13189 0.18166 0.0
C1063 C 0.49024 0.12458 0.26266 0.0
H1064 H 0.89913 0.37773 0.17299 0.0
H1065 H 0.89057 0.30088 0.14086 0.0
H1066 H 0.89756 0.30065 0.29056 0.0
H1067 H 0.90661 0.32263 0.43002 0.0
H1068 H 0.91586 0.39972 0.46218 0.0
H1069 H 0.90782 0.39956 0.31258 0.0
C1070 C 0.8985 0.36087 0.1992 0.0
C1071 C 0.89416 0.3393 0.14716 0.0
C1072 C 0.9028 0.36102 0.28474 0.0
C1073 C 0.89345 0.3175 0.18068 0.0
C1074 C 0.89767 0.31745 0.26589 0.0
C1075 C 0.90712 0.33943 0.40375 0.0
C1076 C 0.91221 0.36129 0.4556 0.0
C1077 C 0.90253 0.33918 0.31832 0.0
C1078 C 0.91262 0.38298 0.42226 0.0
C1079 C 0.90778 0.38279 0.3372 0.0
H1080 H 0.71661 0.1629 0.22844 0.0
H1081 H 0.63913 0.09884 0.14251 0.0
H1082 H 0.63185 0.0844 0.28254 0.0
H1083 H 0.64732 0.09061 0.43136 0.0
H1084 H 0.72475 0.15535 0.51594 0.0
H1085 H 0.73198 0.16909 0.37601 0.0
C1086 C 0.69807 0.14598 0.24088 0.0
C1087 C 0.67829 0.13226 0.176 0.0
C1088 C 0.69397 0.13786 0.3216 0.0
C1089 C 0.6544 0.11015 0.19224 0.0
C1090 C 0.65031 0.10172 0.27212 0.0
C1091 C 0.66587 0.10746 0.41867 0.0
C1092 C 0.68557 0.12167 0.48376 0.0
C1093 C 0.66993 0.11547 0.33754 0.0
C1094 C 0.70941 0.14372 0.46672 0.0
C1095 C 0.71355 0.15177 0.38669 0.0
H1096 H 0.88886 0.591 0.21655 0.0
H1097 H 0.92429 0.54393 0.16177 0.0
H1098 H 0.93445 0.54343 0.30975 0.0
H1099 H 0.93242 0.55574 0.45547 0.0
H1100 H 0.89513 0.60129 0.50922 0.0
H1101 H 0.88605 0.60256 0.36181 0.0
C1102 C 0.89868 0.58058 0.23747 0.0
C1103 C 0.90568 0.56738 0.17929 0.0
C1104 C 0.90403 0.58001 0.3225 0.0
C1105 C 0.91836 0.55386 0.20621 0.0
C1106 C 0.92431 0.55369 0.29061 0.0
C1107 C 0.92261 0.56618 0.43463 0.0
C1108 C 0.91485 0.57871 0.49291 0.0
C1109 C 0.91716 0.56663 0.34944 0.0
C1110 C 0.90176 0.59185 0.46541 0.0
C1111 C 0.8964 0.59251 0.38108 0.0
H1112 H 0.43243 0.32051 0.19139 0.0
H1113 H 0.51264 0.38437 0.1928 0.0
H1114 H 0.51377 0.39434 0.34177 0.0
H1115 H 0.49138 0.38533 0.4715 0.0
H1116 H 0.41237 0.31947 0.47115 0.0
H1117 H 0.41103 0.31007 0.32167 0.0
C1118 C 0.45021 0.33646 0.22455 0.0
C1119 C 0.47237 0.35174 0.18137 0.0
C1120 C 0.4507 0.342 0.31003 0.0
C1121 C 0.49535 0.37229 0.22492 0.0
C1122 C 0.49593 0.37811 0.30992 0.0
C1123 C 0.47376 0.36921 0.43815 0.0
C1124 C 0.4517 0.35347 0.48132 0.0
C1125 C 0.47358 0.36331 0.35293 0.0
C1126 C 0.42934 0.33206 0.43851 0.0
C1127 C 0.42866 0.3266 0.35335 0.0
H1128 H 0.34954 0.94743 0.55277 0.0
H1129 H 0.36626 0.88597 0.48899 0.0
H1130 H 0.35812 0.87121 0.62878 0.0
H1131 H 0.34642 0.87592 0.77108 0.0
H1132 H 0.32945 0.93742 0.83382 0.0
H1133 H 0.33782 0.95212 0.69485 0.0
C1134 C 0.3518 0.93111 0.57022 0.0
C1135 C 0.35917 0.91823 0.51142 0.0
C1136 C 0.34692 0.92261 0.65101 0.0
C1137 C 0.36133 0.89664 0.53401 0.0
C1138 C 0.35646 0.88805 0.6138 0.0
C1139 C 0.34429 0.89234 0.75397 0.0
C1140 C 0.337 0.90529 0.81306 0.0
C1141 C 0.34921 0.90085 0.67311 0.0
C1142 C 0.33462 0.92675 0.78966 0.0
C1143 C 0.33958 0.93534 0.71002 0.0
H1144 H 0.15489 0.48914 0.81866 0.0
H1145 H 0.09335 0.40797 0.80086 0.0
H1146 H 0.08934 0.40766 0.64896 0.0
H1147 H 0.10361 0.43096 0.52212 0.0
H1148 H 0.16714 0.51148 0.54238 0.0
H1149 H 0.17034 0.51163 0.69325 0.0
C1150 C 0.1406 0.47138 0.78134 0.0
C1151 C 0.1243 0.44864 0.81992 0.0
C1152 C 0.13886 0.47132 0.69504 0.0
C1153 C 0.10613 0.42561 0.77169 0.0
C1154 C 0.10381 0.42551 0.68526 0.0
C1155 C 0.11803 0.44854 0.55981 0.0
C1156 C 0.13493 0.4713 0.52178 0.0
C1157 C 0.12006 0.44831 0.64636 0.0
C1158 C 0.15381 0.49385 0.57067 0.0
C1159 C 0.15567 0.49392 0.65673 0.0
H1160 H 0.5885 0.7232 0.81737 0.0
H1161 H 0.54704 0.63942 0.83249 0.0
H1162 H 0.54857 0.63243 0.68396 0.0
H1163 H 0.56187 0.65013 0.55011 0.0
H1164 H 0.60243 0.7338 0.53338 0.0
H1165 H 0.60126 0.74092 0.68245 0.0
C1166 C 0.57972 0.70347 0.78777 0.0
C1167 C 0.5677 0.68188 0.83507 0.0
C1168 C 0.58074 0.6996 0.7025 0.0
C1169 C 0.55632 0.65634 0.79673 0.0
C1170 C 0.55729 0.65232 0.71205 0.0
C1171 C 0.57073 0.66991 0.5794 0.0
C1172 C 0.58251 0.69143 0.53163 0.0
C1173 C 0.5696 0.67381 0.66449 0.0
C1174 C 0.59356 0.71697 0.5696 0.0
C1175 C 0.59275 0.72104 0.65454 0.0
H1176 H 0.31401 0.43772 0.79845 0.0
H1177 H 0.39711 0.47383 0.87693 0.0
H1178 H 0.40823 0.48388 0.73527 0.0
H1179 H 0.39446 0.48305 0.58807 0.0
H1180 H 0.31145 0.44844 0.5109 0.0
H1181 H 0.30025 0.43698 0.65156 0.0
C1182 C 0.33449 0.44741 0.78412 0.0
C1183 C 0.35464 0.45472 0.84785 0.0
C1184 C 0.34083 0.45356 0.70244 0.0
C1185 C 0.38116 0.46771 0.82873 0.0
C1186 C 0.38759 0.4736 0.74773 0.0
C1187 C 0.37399 0.47309 0.60243 0.0
C1188 C 0.35389 0.46684 0.53954 0.0
C1189 C 0.36763 0.46677 0.68401 0.0
C1190 C 0.32736 0.45387 0.55867 0.0
C1191 C 0.32088 0.44714 0.63905 0.0
H1192 H 0.58799 0.94413 0.85725 0.0
H1193 H 0.54625 0.85954 0.83221 0.0
H1194 H 0.54536 0.8599 0.68094 0.0
H1195 H 0.55802 0.88438 0.55748 0.0
H1196 H 0.59707 0.96881 0.58101 0.0
H1197 H 0.59753 0.96859 0.73271 0.0
C1198 C 0.57864 0.92578 0.81846 0.0
C1199 C 0.56746 0.9018 0.85499 0.0
C1200 C 0.57785 0.92622 0.73216 0.0
C1201 C 0.55501 0.87815 0.80485 0.0
C1202 C 0.55458 0.87839 0.71873 0.0
C1203 C 0.5666 0.90274 0.59596 0.0
C1204 C 0.57785 0.92664 0.55909 0.0
C1205 C 0.56621 0.90231 0.682 0.0
C1206 C 0.58842 0.95027 0.60873 0.0
C1207 C 0.5887 0.95009 0.69504 0.0
H1208 H 0.10089 0.6607 0.57961 0.0
H1209 H 0.18346 0.71891 0.58012 0.0
H1210 H 0.18702 0.7256 0.7314 0.0
H1211 H 0.16627 0.71555 0.8631 0.0
H1212 H 0.08374 0.65711 0.86209 0.0
H1213 H 0.08042 0.64994 0.71118 0.0
C1214 C 0.11968 0.67475 0.61298 0.0
C1215 C 0.14187 0.68936 0.56921 0.0
C1216 C 0.12149 0.67859 0.69959 0.0
C1217 C 0.16612 0.70746 0.61283 0.0
C1218 C 0.16814 0.71135 0.69915 0.0
C1219 C 0.14756 0.70137 0.8296 0.0
C1220 C 0.12522 0.68703 0.87307 0.0
C1221 C 0.14588 0.69721 0.74307 0.0
C1222 C 0.10114 0.66848 0.82952 0.0
C1223 C 0.09926 0.66433 0.74341 0.0
loop_
_geom_bond_atom_site_label_1
_geom_bond_atom_site_label_2
_geom_bond_distance
_geom_bond_site_symmetry_2
_ccdc_geom_bond_type
Dy0 O4 2.398 . S
Dy0 O5 2.491 1_455 S
Dy0 O6 2.403 . S
Dy0 O7 2.664 . S
Dy0 O11 2.326 1_455 S
Dy0 O15 2.310 1_455 S
Dy0 O16 2.351 . S
C1 O12 1.185 1_455 S
C1 O13 1.355 . S
C2 O4 1.185 . S
C2 O5 1.355 1_455 S
Dy3 O7 2.310 1_655 S
Dy3 O10 2.351 . S
Dy3 O12 2.398 . S
Dy3 O13 2.491 1_655 S
Dy3 O14 2.403 . S
Dy3 O15 2.664 . S
Dy3 O17 2.326 1_655 S
O4 Dy0 2.398 . S
O4 C2 1.185 . S
O5 Dy0 2.491 1_655 S
O5 C2 1.355 1_655 S
O6 Dy0 2.403 . S
O6 C8 1.254 . S
O7 Dy0 2.664 . S
O7 Dy3 2.310 1_455 S
O7 C8 1.268 . S
C8 O6 1.254 . S
C8 O7 1.268 . S
C9 O14 1.254 . S
C9 O15 1.268 . S
O10 Dy3 2.351 . S
O10 C18 1.249 . S
O11 Dy0 2.326 1_655 S
O11 C18 1.267 . S
O12 C1 1.185 1_655 S
O12 Dy3 2.398 . S
O13 C1 1.355 . S
O13 Dy3 2.491 1_455 S
O14 Dy3 2.403 . S
O14 C9 1.254 . S
O15 Dy0 2.310 1_655 S
O15 Dy3 2.664 . S
O15 C9 1.268 . S
O16 Dy0 2.351 . S
O16 C19 1.249 . S
O17 Dy3 2.326 1_455 S
O17 C19 1.267 . S
C18 O10 1.249 . S
C18 O11 1.267 . S
C19 O16 1.249 . S
C19 O17 1.267 . S
Dy20 O24 2.398 . S
Dy20 O25 2.491 . S
Dy20 O26 2.403 . S
Dy20 O27 2.664 . S
Dy20 O31 2.326 . S
Dy20 O35 2.310 . S
Dy20 O36 2.351 . S
C21 O32 1.185 . S
C21 O33 1.355 . S
C22 O24 1.185 . S
C22 O25 1.355 . S
Dy23 O27 2.310 . S
Dy23 O30 2.351 . S
Dy23 O32 2.398 . S
Dy23 O33 2.491 . S
Dy23 O34 2.403 . S
Dy23 O35 2.664 . S
Dy23 O37 2.326 . S
O24 Dy20 2.398 . S
O24 C22 1.185 . S
O25 Dy20 2.491 . S
O25 C22 1.355 . S
O26 Dy20 2.403 . S
O26 C28 1.254 . S
O27 Dy20 2.664 . S
O27 Dy23 2.310 . S
O27 C28 1.268 . S
C28 O26 1.254 . S
C28 O27 1.268 . S
C29 O34 1.254 . S
C29 O35 1.268 . S
O30 Dy23 2.351 . S
O30 C38 1.249 . S
O31 Dy20 2.326 . S
O31 C38 1.267 . S
O32 C21 1.185 . S
O32 Dy23 2.398 . S
O33 C21 1.355 . S
O33 Dy23 2.491 . S
O34 Dy23 2.403 . S
O34 C29 1.254 . S
O35 Dy20 2.310 . S
O35 Dy23 2.664 . S
O35 C29 1.268 . S
O36 Dy20 2.351 . S
O36 C39 1.249 . S
O37 Dy23 2.326 . S
O37 C39 1.267 . S
C38 O30 1.249 . S
C38 O31 1.267 . S
C39 O36 1.249 . S
C39 O37 1.267 . S
Dy40 O44 2.398 . S
Dy40 O45 2.491 1_565 S
Dy40 O46 2.403 . S
Dy40 O47 2.664 . S
Dy40 O51 2.326 1_565 S
Dy40 O55 2.310 1_565 S
Dy40 O56 2.351 . S
C41 O52 1.185 . S
C41 O53 1.355 1_545 S
C42 O44 1.185 1_545 S
C42 O45 1.355 . S
Dy43 O47 2.310 1_545 S
Dy43 O50 2.351 . S
Dy43 O52 2.398 . S
Dy43 O53 2.491 1_545 S
Dy43 O54 2.403 . S
Dy43 O55 2.664 . S
Dy43 O57 2.326 1_545 S
O44 Dy40 2.398 . S
O44 C42 1.185 1_565 S
O45 Dy40 2.491 1_545 S
O45 C42 1.355 . S
O46 Dy40 2.403 . S
O46 C48 1.254 . S
O47 Dy40 2.664 . S
O47 Dy43 2.310 1_565 S
O47 C48 1.268 . S
C48 O46 1.254 . S
C48 O47 1.268 . S
C49 O54 1.254 . S
C49 O55 1.268 . S
O50 Dy43 2.351 . S
O50 C58 1.249 . S
O51 Dy40 2.326 1_545 S
O51 C58 1.267 . S
O52 C41 1.185 . S
O52 Dy43 2.398 . S
O53 C41 1.355 1_565 S
O53 Dy43 2.491 1_565 S
O54 Dy43 2.403 . S
O54 C49 1.254 . S
O55 Dy40 2.310 1_545 S
O55 Dy43 2.664 . S
O55 C49 1.268 . S
O56 Dy40 2.351 . S
O56 C59 1.249 . S
O57 Dy43 2.326 1_565 S
O57 C59 1.267 . S
C58 O50 1.249 . S
C58 O51 1.267 . S
C59 O56 1.249 . S
C59 O57 1.267 . S
Dy60 O64 2.398 . S
Dy60 O65 2.491 1_455 S
Dy60 O66 2.403 . S
Dy60 O67 2.664 . S
Dy60 O71 2.326 1_455 S
Dy60 O75 2.310 1_455 S
Dy60 O76 2.351 . S
C61 O72 1.185 1_455 S
C61 O73 1.355 . S
C62 O64 1.185 . S
C62 O65 1.355 1_455 S
Dy63 O67 2.310 1_655 S
Dy63 O70 2.351 . S
Dy63 O72 2.398 . S
Dy63 O73 2.491 1_655 S
Dy63 O74 2.403 . S
Dy63 O75 2.664 . S
Dy63 O77 2.326 1_655 S
O64 Dy60 2.398 . S
O64 C62 1.185 . S
O65 Dy60 2.491 1_655 S
O65 C62 1.355 1_655 S
O66 Dy60 2.403 . S
O66 C68 1.254 . S
O67 Dy60 2.664 . S
O67 Dy63 2.310 1_455 S
O67 C68 1.268 . S
C68 O66 1.254 . S
C68 O67 1.268 . S
C69 O74 1.254 . S
C69 O75 1.268 . S
O70 Dy63 2.351 . S
O70 C78 1.249 . S
O71 Dy60 2.326 1_655 S
O71 C78 1.267 . S
O72 C61 1.185 1_655 S
O72 Dy63 2.398 . S
O73 C61 1.355 . S
O73 Dy63 2.491 1_455 S
O74 Dy63 2.403 . S
O74 C69 1.254 . S
O75 Dy60 2.310 1_655 S
O75 Dy63 2.664 . S
O75 C69 1.268 . S
O76 Dy60 2.351 . S
O76 C79 1.249 . S
O77 Dy63 2.326 1_455 S
O77 C79 1.267 . S
C78 O70 1.249 . S
C78 O71 1.267 . S
C79 O76 1.249 . S
C79 O77 1.267 . S
Dy80 O84 2.398 . S
Dy80 O85 2.491 . S
Dy80 O86 2.403 . S
Dy80 O87 2.664 . S
Dy80 O91 2.326 . S
Dy80 O95 2.310 . S
Dy80 O96 2.351 . S
C81 O92 1.185 . S
C81 O93 1.355 . S
C82 O84 1.185 . S
C82 O85 1.355 . S
Dy83 O87 2.310 . S
Dy83 O90 2.351 . S
Dy83 O92 2.398 . S
Dy83 O93 2.491 . S
Dy83 O94 2.403 . S
Dy83 O95 2.664 . S
Dy83 O97 2.326 . S
O84 Dy80 2.398 . S
O84 C82 1.185 . S
O85 Dy80 2.491 . S
O85 C82 1.355 . S
O86 Dy80 2.403 . S
O86 C88 1.254 . S
O87 Dy80 2.664 . S
O87 Dy83 2.310 . S
O87 C88 1.268 . S
C88 O86 1.254 . S
C88 O87 1.268 . S
C89 O94 1.254 . S
C89 O95 1.268 . S
O90 Dy83 2.351 . S
O90 C98 1.249 . S
O91 Dy80 2.326 . S
O91 C98 1.267 . S
O92 C81 1.185 . S
O92 Dy83 2.398 . S
O93 C81 1.355 . S
O93 Dy83 2.491 . S
O94 Dy83 2.403 . S
O94 C89 1.254 . S
O95 Dy80 2.310 . S
O95 Dy83 2.664 . S
O95 C89 1.268 . S
O96 Dy80 2.351 . S
O96 C99 1.249 . S
O97 Dy83 2.326 . S
O97 C99 1.267 . S
C98 O90 1.249 . S
C98 O91 1.267 . S
C99 O96 1.249 . S
C99 O97 1.267 . S
Dy100 O104 2.397 . S
Dy100 O105 2.489 1_565 S
Dy100 O106 2.404 . S
Dy100 O107 2.663 . S
Dy100 O111 2.322 1_565 S
Dy100 O115 2.307 1_565 S
Dy100 O116 2.354 . S
C101 O112 1.185 . S
C101 O113 1.355 1_545 S
C102 O104 1.185 1_545 S
C102 O105 1.355 . S
Dy103 O107 2.310 1_545 S
Dy103 O110 2.351 . S
Dy103 O112 2.398 . S
Dy103 O113 2.491 1_545 S
Dy103 O114 2.403 . S
Dy103 O115 2.664 . S
Dy103 O117 2.310 1_545 S
O104 Dy100 2.397 . S
O104 C102 1.185 1_565 S
O105 Dy100 2.489 1_545 S
O105 C102 1.355 . S
O106 Dy100 2.404 . S
O106 C108 1.254 . S
O107 Dy100 2.663 . S
O107 Dy103 2.310 1_565 S
O107 C108 1.268 . S
C108 O106 1.254 . S
C108 O107 1.268 . S
C109 O114 1.254 . S
C109 O115 1.268 . S
O110 Dy103 2.351 . S
O110 C118 1.249 . S
O111 Dy100 2.322 1_545 S
O111 C118 1.267 . S
O112 C101 1.185 . S
O112 Dy103 2.398 . S
O113 C101 1.355 1_565 S
O113 Dy103 2.491 1_565 S
O114 Dy103 2.403 . S
O114 C109 1.254 . S
O115 Dy100 2.307 1_545 S
O115 Dy103 2.664 . S
O115 C109 1.268 . S
O116 Dy100 2.354 . S
O116 C119 1.249 . S
O117 Dy103 2.310 1_565 S
O117 C119 1.281 . S
C118 O110 1.249 . S
C118 O111 1.267 . S
C119 O116 1.249 . S
C119 O117 1.281 . S
Dy120 O124 2.398 . S
Dy120 O125 2.491 . S
Dy120 O126 2.403 . S
Dy120 O127 2.664 . S
Dy120 O131 2.326 . S
Dy120 O135 2.310 . S
Dy120 O136 2.351 . S
C121 O132 1.185 . S
C121 O133 1.355 1_554 S
C122 O124 1.185 . S
C122 O125 1.355 . S
Dy123 O127 2.310 . S
Dy123 O130 2.351 . S
Dy123 O132 2.398 1_556 S
Dy123 O133 2.491 . S
Dy123 O134 2.403 . S
Dy123 O135 2.664 . S
Dy123 O137 2.326 . S
O124 Dy120 2.398 . S
O124 C122 1.185 . S
O125 Dy120 2.491 . S
O125 C122 1.355 . S
O126 Dy120 2.403 . S
O126 C128 1.254 . S
O127 Dy120 2.664 . S
O127 Dy123 2.310 . S
O127 C128 1.268 . S
C128 O126 1.254 . S
C128 O127 1.268 . S
C129 O134 1.254 . S
C129 O135 1.268 . S
O130 Dy123 2.351 . S
O130 C138 1.249 . S
O131 Dy120 2.326 . S
O131 C138 1.267 . S
O132 C121 1.185 . S
O132 Dy123 2.398 1_554 S
O133 C121 1.355 1_556 S
O133 Dy123 2.491 . S
O134 Dy123 2.403 . S
O134 C129 1.254 . S
O135 Dy120 2.310 . S
O135 Dy123 2.664 . S
O135 C129 1.268 . S
O136 Dy120 2.351 . S
O136 C139 1.249 . S
O137 Dy123 2.326 . S
O137 C139 1.267 . S
C138 O130 1.249 . S
C138 O131 1.267 . S
C139 O136 1.249 . S
C139 O137 1.267 . S
Dy140 O144 2.398 . S
Dy140 O145 2.491 . S
Dy140 O146 2.403 . S
Dy140 O147 2.664 . S
Dy140 O151 2.326 . S
Dy140 O155 2.310 . S
Dy140 O156 2.351 . S
C141 O152 1.185 1_554 S
C141 O153 1.355 1_554 S
C142 O144 1.185 . S
C142 O145 1.355 . S
Dy143 O147 2.310 . S
Dy143 O150 2.351 . S
Dy143 O152 2.398 . S
Dy143 O153 2.491 . S
Dy143 O154 2.403 . S
Dy143 O155 2.664 . S
Dy143 O157 2.326 . S
O144 Dy140 2.398 . S
O144 C142 1.185 . S
O145 Dy140 2.491 . S
O145 C142 1.355 . S
O146 Dy140 2.403 . S
O146 C148 1.254 . S
O147 Dy140 2.664 . S
O147 Dy143 2.310 . S
O147 C148 1.268 . S
C148 O146 1.254 . S
C148 O147 1.268 . S
C149 O154 1.254 . S
C149 O155 1.268 . S
O150 Dy143 2.351 . S
O150 C158 1.249 . S
O151 Dy140 2.326 . S
O151 C158 1.267 . S
O152 C141 1.185 1_556 S
O152 Dy143 2.398 . S
O153 C141 1.355 1_556 S
O153 Dy143 2.491 . S
O154 Dy143 2.403 . S
O154 C149 1.254 . S
O155 Dy140 2.310 . S
O155 Dy143 2.664 . S
O155 C149 1.268 . S
O156 Dy140 2.351 . S
O156 C159 1.249 . S
O157 Dy143 2.326 . S
O157 C159 1.267 . S
C158 O150 1.249 . S
C158 O151 1.267 . S
C159 O156 1.249 . S
C159 O157 1.267 . S
Dy160 O164 2.398 . S
Dy160 O165 2.491 . S
Dy160 O166 2.403 . S
Dy160 O167 2.664 . S
Dy160 O171 2.326 . S
Dy160 O175 2.310 . S
Dy160 O176 2.351 . S
C161 O172 1.185 . S
C161 O173 1.355 . S
C162 O164 1.185 . S
C162 O165 1.355 . S
Dy163 O167 2.310 . S
Dy163 O170 2.351 . S
Dy163 O172 2.398 1_556 S
Dy163 O173 2.491 1_556 S
Dy163 O174 2.403 . S
Dy163 O175 2.664 . S
Dy163 O177 2.326 . S
O164 Dy160 2.398 . S
O164 C162 1.185 . S
O165 Dy160 2.491 . S
O165 C162 1.355 . S
O166 Dy160 2.403 . S
O166 C168 1.254 . S
O167 Dy160 2.664 . S
O167 Dy163 2.310 . S
O167 C168 1.268 . S
C168 O166 1.254 . S
C168 O167 1.268 . S
C169 O174 1.254 . S
C169 O175 1.268 . S
O170 Dy163 2.351 . S
O170 C178 1.249 . S
O171 Dy160 2.326 . S
O171 C178 1.267 . S
O172 C161 1.185 . S
O172 Dy163 2.398 1_554 S
O173 C161 1.355 . S
O173 Dy163 2.491 1_554 S
O174 Dy163 2.403 . S
O174 C169 1.254 . S
O175 Dy160 2.310 . S
O175 Dy163 2.664 . S
O175 C169 1.268 . S
O176 Dy160 2.351 . S
O176 C179 1.249 . S
O177 Dy163 2.326 . S
O177 C179 1.267 . S
C178 O170 1.249 . S
C178 O171 1.267 . S
C179 O176 1.249 . S
C179 O177 1.267 . S
Dy180 O184 2.398 1_556 S
Dy180 O185 2.491 1_556 S
Dy180 O186 2.403 . S
Dy180 O187 2.664 . S
Dy180 O191 2.326 . S
Dy180 O195 2.310 . S
Dy180 O196 2.351 . S
C181 O192 1.185 . S
C181 O193 1.355 . S
C182 O184 1.185 . S
C182 O185 1.355 . S
Dy183 O187 2.310 . S
Dy183 O190 2.351 . S
Dy183 O192 2.398 . S
Dy183 O193 2.491 . S
Dy183 O194 2.403 . S
Dy183 O195 2.664 . S
Dy183 O197 2.326 . S
O184 Dy180 2.398 1_554 S
O184 C182 1.185 . S
O185 Dy180 2.491 1_554 S
O185 C182 1.355 . S
O186 Dy180 2.403 . S
O186 C188 1.254 . S
O187 Dy180 2.664 . S
O187 Dy183 2.310 . S
O187 C188 1.268 . S
C188 O186 1.254 . S
C188 O187 1.268 . S
C189 O194 1.254 . S
C189 O195 1.268 . S
O190 Dy183 2.351 . S
O190 C198 1.249 . S
O191 Dy180 2.326 . S
O191 C198 1.267 . S
O192 C181 1.185 . S
O192 Dy183 2.398 . S
O193 C181 1.355 . S
O193 Dy183 2.491 . S
O194 Dy183 2.403 . S
O194 C189 1.254 . S
O195 Dy180 2.310 . S
O195 Dy183 2.664 . S
O195 C189 1.268 . S
O196 Dy180 2.351 . S
O196 C199 1.249 . S
O197 Dy183 2.326 . S
O197 C199 1.267 . S
C198 O190 1.249 . S
C198 O191 1.267 . S
C199 O196 1.249 . S
C199 O197 1.267 . S
Dy200 O204 2.398 1_556 S
Dy200 O205 2.491 1_556 S
Dy200 O206 2.403 . S
Dy200 O207 2.664 . S
Dy200 O211 2.326 . S
Dy200 O215 2.310 . S
Dy200 O216 2.351 . S
C201 O212 1.185 . S
C201 O213 1.355 . S
C202 O204 1.185 . S
C202 O205 1.355 . S
Dy203 O207 2.310 . S
Dy203 O210 2.351 . S
Dy203 O212 2.398 . S
Dy203 O213 2.491 . S
Dy203 O214 2.403 . S
Dy203 O215 2.664 . S
Dy203 O217 2.326 . S
O204 Dy200 2.398 1_554 S
O204 C202 1.185 . S
O205 Dy200 2.491 1_554 S
O205 C202 1.355 . S
O206 Dy200 2.403 . S
O206 C208 1.254 . S
O207 Dy200 2.664 . S
O207 Dy203 2.310 . S
O207 C208 1.268 . S
C208 O206 1.254 . S
C208 O207 1.268 . S
C209 O214 1.254 . S
C209 O215 1.268 . S
O210 Dy203 2.351 . S
O210 C218 1.249 . S
O211 Dy200 2.326 . S
O211 C218 1.267 . S
O212 C201 1.185 . S
O212 Dy203 2.398 . S
O213 C201 1.355 . S
O213 Dy203 2.491 . S
O214 Dy203 2.403 . S
O214 C209 1.254 . S
O215 Dy200 2.310 . S
O215 Dy203 2.664 . S
O215 C209 1.268 . S
O216 Dy200 2.351 . S
O216 C219 1.249 . S
O217 Dy203 2.326 . S
O217 C219 1.267 . S
C218 O210 1.249 . S
C218 O211 1.267 . S
C219 O216 1.249 . S
C219 O217 1.267 . S
Dy220 O224 2.398 1_556 S
Dy220 O225 2.491 1_556 S
Dy220 O226 2.403 . S
Dy220 O227 2.664 . S
Dy220 O231 2.326 . S
Dy220 O235 2.310 . S
Dy220 O236 2.351 . S
C221 O232 1.185 . S
C221 O233 1.355 . S
C222 O224 1.185 . S
C222 O225 1.355 . S
Dy223 O227 2.310 . S
Dy223 O230 2.351 . S
Dy223 O232 2.398 . S
Dy223 O233 2.491 . S
Dy223 O234 2.403 . S
Dy223 O235 2.664 . S
Dy223 O237 2.326 . S
O224 Dy220 2.398 1_554 S
O224 C222 1.185 . S
O225 Dy220 2.491 1_554 S
O225 C222 1.355 . S
O226 Dy220 2.403 . S
O226 C228 1.254 . S
O227 Dy220 2.664 . S
O227 Dy223 2.310 . S
O227 C228 1.268 . S
C228 O226 1.254 . S
C228 O227 1.268 . S
C229 O234 1.254 . S
C229 O235 1.268 . S
O230 Dy223 2.351 . S
O230 C238 1.249 . S
O231 Dy220 2.326 . S
O231 C238 1.267 . S
O232 C221 1.185 . S
O232 Dy223 2.398 . S
O233 C221 1.355 . S
O233 Dy223 2.491 . S
O234 Dy223 2.403 . S
O234 C229 1.254 . S
O235 Dy220 2.310 . S
O235 Dy223 2.664 . S
O235 C229 1.268 . S
O236 Dy220 2.351 . S
O236 C239 1.249 . S
O237 Dy223 2.326 . S
O237 C239 1.267 . S
C238 O230 1.249 . S
C238 O231 1.267 . S
C239 O236 1.249 . S
C239 O237 1.267 . S
Dy240 O244 2.398 . S
Dy240 O245 2.491 . S
Dy240 O246 2.403 . S
Dy240 O247 2.664 . S
Dy240 O251 2.326 . S
Dy240 O255 2.310 . S
Dy240 O256 2.351 . S
C241 O252 1.185 . S
C241 O253 1.355 . S
C242 O244 1.185 . S
C242 O245 1.355 . S
Dy243 O247 2.310 . S
Dy243 O250 2.351 . S
Dy243 O252 2.398 1_554 S
Dy243 O253 2.491 1_554 S
Dy243 O254 2.403 . S
Dy243 O255 2.664 . S
Dy243 O257 2.326 . S
O244 Dy240 2.398 . S
O244 C242 1.185 . S
O245 Dy240 2.491 . S
O245 C242 1.355 . S
O246 Dy240 2.403 . S
O246 C248 1.254 . S
O247 Dy240 2.664 . S
O247 Dy243 2.310 . S
O247 C248 1.268 . S
C248 O246 1.254 . S
C248 O247 1.268 . S
C249 O254 1.254 . S
C249 O255 1.268 . S
O250 Dy243 2.351 . S
O250 C258 1.249 . S
O251 Dy240 2.326 . S
O251 C258 1.267 . S
O252 C241 1.185 . S
O252 Dy243 2.398 1_556 S
O253 C241 1.355 . S
O253 Dy243 2.491 1_556 S
O254 Dy243 2.403 . S
O254 C249 1.254 . S
O255 Dy240 2.310 . S
O255 Dy243 2.664 . S
O255 C249 1.268 . S
O256 Dy240 2.351 . S
O256 C259 1.249 . S
O257 Dy243 2.326 . S
O257 C259 1.267 . S
C258 O250 1.249 . S
C258 O251 1.267 . S
C259 O256 1.249 . S
C259 O257 1.267 . S
Dy260 O264 2.398 1_554 S
Dy260 O265 2.491 1_554 S
Dy260 O266 2.403 . S
Dy260 O267 2.664 . S
Dy260 O271 2.326 . S
Dy260 O275 2.310 . S
Dy260 O276 2.351 . S
C261 O272 1.185 . S
C261 O273 1.355 . S
C262 O264 1.185 . S
C262 O265 1.355 . S
Dy263 O267 2.310 . S
Dy263 O270 2.351 . S
Dy263 O272 2.398 . S
Dy263 O273 2.491 . S
Dy263 O274 2.403 . S
Dy263 O275 2.664 . S
Dy263 O277 2.326 . S
O264 Dy260 2.398 1_556 S
O264 C262 1.185 . S
O265 Dy260 2.491 1_556 S
O265 C262 1.355 . S
O266 Dy260 2.403 . S
O266 C268 1.254 . S
O267 Dy260 2.664 . S
O267 Dy263 2.310 . S
O267 C268 1.268 . S
C268 O266 1.254 . S
C268 O267 1.268 . S
C269 O274 1.254 . S
C269 O275 1.268 . S
O270 Dy263 2.351 . S
O270 C278 1.249 . S
O271 Dy260 2.326 . S
O271 C278 1.267 . S
O272 C261 1.185 . S
O272 Dy263 2.398 . S
O273 C261 1.355 . S
O273 Dy263 2.491 . S
O274 Dy263 2.403 . S
O274 C269 1.254 . S
O275 Dy260 2.310 . S
O275 Dy263 2.664 . S
O275 C269 1.268 . S
O276 Dy260 2.351 . S
O276 C279 1.249 . S
O277 Dy263 2.326 . S
O277 C279 1.267 . S
C278 O270 1.249 . S
C278 O271 1.267 . S
C279 O276 1.249 . S
C279 O277 1.267 . S
Dy280 O284 2.398 . S
Dy280 O285 2.491 . S
Dy280 O286 2.403 . S
Dy280 O287 2.664 . S
Dy280 O291 2.326 . S
Dy280 O295 2.310 . S
Dy280 O296 2.351 . S
C281 O292 1.185 . S
C281 O293 1.355 . S
C282 O284 1.185 . S
C282 O285 1.355 . S
Dy283 O287 2.310 . S
Dy283 O290 2.351 . S
Dy283 O292 2.398 1_554 S
Dy283 O293 2.491 1_554 S
Dy283 O294 2.403 . S
Dy283 O295 2.664 . S
Dy283 O297 2.326 . S
O284 Dy280 2.398 . S
O284 C282 1.185 . S
O285 Dy280 2.491 . S
O285 C282 1.355 . S
O286 Dy280 2.403 . S
O286 C288 1.254 . S
O287 Dy280 2.664 . S
O287 Dy283 2.310 . S
O287 C288 1.268 . S
C288 O286 1.254 . S
C288 O287 1.268 . S
C289 O294 1.254 . S
C289 O295 1.268 . S
O290 Dy283 2.351 . S
O290 C298 1.249 . S
O291 Dy280 2.326 . S
O291 C298 1.267 . S
O292 C281 1.185 . S
O292 Dy283 2.398 1_556 S
O293 C281 1.355 . S
O293 Dy283 2.491 1_556 S
O294 Dy283 2.403 . S
O294 C289 1.254 . S
O295 Dy280 2.310 . S
O295 Dy283 2.664 . S
O295 C289 1.268 . S
O296 Dy280 2.351 . S
O296 C299 1.249 . S
O297 Dy283 2.326 . S
O297 C299 1.267 . S
C298 O290 1.249 . S
C298 O291 1.267 . S
C299 O296 1.249 . S
C299 O297 1.267 . S
Dy300 O304 2.398 . S
Dy300 O305 2.491 . S
Dy300 O306 2.403 . S
Dy300 O307 2.664 . S
Dy300 O311 2.326 . S
Dy300 O315 2.310 . S
Dy300 O316 2.351 . S
C301 O312 1.185 . S
C301 O313 1.355 . S
C302 O304 1.185 . S
C302 O305 1.355 . S
Dy303 O307 2.310 . S
Dy303 O310 2.351 . S
Dy303 O312 2.398 1_554 S
Dy303 O313 2.491 1_554 S
Dy303 O314 2.403 . S
Dy303 O315 2.664 . S
Dy303 O317 2.326 . S
O304 Dy300 2.398 . S
O304 C302 1.185 . S
O305 Dy300 2.491 . S
O305 C302 1.355 . S
O306 Dy300 2.403 . S
O306 C308 1.254 . S
O307 Dy300 2.664 . S
O307 Dy303 2.310 . S
O307 C308 1.268 . S
C308 O306 1.254 . S
C308 O307 1.268 . S
C309 O314 1.254 . S
C309 O315 1.268 . S
O310 Dy303 2.351 . S
O310 C318 1.249 . S
O311 Dy300 2.326 . S
O311 C318 1.267 . S
O312 C301 1.185 . S
O312 Dy303 2.398 1_556 S
O313 C301 1.355 . S
O313 Dy303 2.491 1_556 S
O314 Dy303 2.403 . S
O314 C309 1.254 . S
O315 Dy300 2.310 . S
O315 Dy303 2.664 . S
O315 C309 1.268 . S
O316 Dy300 2.351 . S
O316 C319 1.249 . S
O317 Dy303 2.326 . S
O317 C319 1.267 . S
C318 O310 1.249 . S
C318 O311 1.267 . S
C319 O316 1.249 . S
C319 O317 1.267 . S
Dy320 O324 2.398 1_554 S
Dy320 O325 2.491 . S
Dy320 O326 2.403 . S
Dy320 O327 2.664 . S
Dy320 O331 2.326 . S
Dy320 O335 2.310 . S
Dy320 O336 2.351 . S
C321 O332 1.185 . S
C321 O333 1.355 . S
C322 O324 1.185 . S
C322 O325 1.355 1_556 S
Dy323 O327 2.310 . S
Dy323 O330 2.351 . S
Dy323 O332 2.398 . S
Dy323 O333 2.491 . S
Dy323 O334 2.403 . S
Dy323 O335 2.664 . S
Dy323 O337 2.326 . S
O324 Dy320 2.398 1_556 S
O324 C322 1.185 . S
O325 Dy320 2.491 . S
O325 C322 1.355 1_554 S
O326 Dy320 2.403 . S
O326 C328 1.254 . S
O327 Dy320 2.664 . S
O327 Dy323 2.310 . S
O327 C328 1.268 . S
C328 O326 1.254 . S
C328 O327 1.268 . S
C329 O334 1.254 . S
C329 O335 1.268 . S
O330 Dy323 2.351 . S
O330 C338 1.249 . S
O331 Dy320 2.326 . S
O331 C338 1.267 . S
O332 C321 1.185 . S
O332 Dy323 2.398 . S
O333 C321 1.355 . S
O333 Dy323 2.491 . S
O334 Dy323 2.403 . S
O334 C329 1.254 . S
O335 Dy320 2.310 . S
O335 Dy323 2.664 . S
O335 C329 1.268 . S
O336 Dy320 2.351 . S
O336 C339 1.249 . S
O337 Dy323 2.326 . S
O337 C339 1.267 . S
C338 O330 1.249 . S
C338 O331 1.267 . S
C339 O336 1.249 . S
C339 O337 1.267 . S
Dy340 O344 2.398 . S
Dy340 O345 2.491 . S
Dy340 O346 2.403 . S
Dy340 O347 2.664 . S
Dy340 O351 2.326 . S
Dy340 O355 2.310 . S
Dy340 O356 2.351 . S
C341 O352 1.185 . S
C341 O353 1.355 . S
C342 O344 1.185 . S
C342 O345 1.355 . S
Dy343 O347 2.310 . S
Dy343 O350 2.351 . S
Dy343 O352 2.398 1_554 S
Dy343 O353 2.491 1_554 S
Dy343 O354 2.403 . S
Dy343 O355 2.664 . S
Dy343 O357 2.326 . S
O344 Dy340 2.398 . S
O344 C342 1.185 . S
O345 Dy340 2.491 . S
O345 C342 1.355 . S
O346 Dy340 2.403 . S
O346 C348 1.254 . S
O347 Dy340 2.664 . S
O347 Dy343 2.310 . S
O347 C348 1.268 . S
C348 O346 1.254 . S
C348 O347 1.268 . S
C349 O354 1.254 . S
C349 O355 1.268 . S
O350 Dy343 2.351 . S
O350 C358 1.249 . S
O351 Dy340 2.326 . S
O351 C358 1.267 . S
O352 C341 1.185 . S
O352 Dy343 2.398 1_556 S
O353 C341 1.355 . S
O353 Dy343 2.491 1_556 S
O354 Dy343 2.403 . S
O354 C349 1.254 . S
O355 Dy340 2.310 . S
O355 Dy343 2.664 . S
O355 C349 1.268 . S
O356 Dy340 2.351 . S
O356 C359 1.249 . S
O357 Dy343 2.326 . S
O357 C359 1.267 . S
C358 O350 1.249 . S
C358 O351 1.267 . S
C359 O356 1.249 . S
C359 O357 1.267 . S
H360 C366 0.930 . S
H361 C369 0.930 . S
H362 C370 0.930 . S
H363 C371 0.930 . S
H364 C374 0.930 . S
H365 C375 0.930 . S
C366 H360 0.930 . S
C366 C367 1.355 . S
C366 C368 1.415 . S
C367 C366 1.355 . S
C367 C369 1.419 . S
C368 C366 1.415 . S
C368 C373 1.425 . S
C368 C375 1.409 . S
C369 H361 0.930 . S
C369 C367 1.419 . S
C369 C370 1.362 . S
C370 H362 0.930 . S
C370 C369 1.362 . S
C370 C373 1.409 . S
C371 H363 0.930 . S
C371 C372 1.355 . S
C371 C373 1.415 . S
C372 C371 1.355 . S
C372 C374 1.419 . S
C373 C368 1.425 . S
C373 C370 1.409 . S
C373 C371 1.415 . S
C374 H364 0.930 . S
C374 C372 1.419 . S
C374 C375 1.362 . S
C375 H365 0.930 . S
C375 C368 1.409 . S
C375 C374 1.362 . S
H376 C382 0.930 . S
H377 C385 0.930 . S
H378 C386 0.930 . S
H379 C387 0.930 . S
H380 C390 0.930 . S
H381 C391 0.930 . S
C382 H376 0.930 . S
C382 C383 1.355 . S
C382 C384 1.415 . S
C383 C382 1.355 . S
C383 C385 1.419 . S
C384 C382 1.415 . S
C384 C389 1.425 . S
C384 C391 1.409 . S
C385 H377 0.930 . S
C385 C383 1.419 . S
C385 C386 1.362 . S
C386 H378 0.930 . S
C386 C385 1.362 . S
C386 C389 1.409 . S
C387 H379 0.930 . S
C387 C388 1.355 . S
C387 C389 1.415 . S
C388 C387 1.355 . S
C388 C390 1.419 . S
C389 C384 1.425 . S
C389 C386 1.409 . S
C389 C387 1.415 . S
C390 H380 0.930 . S
C390 C388 1.419 . S
C390 C391 1.362 . S
C391 H381 0.930 . S
C391 C384 1.409 . S
C391 C390 1.362 . S
H392 C398 0.930 . S
H393 C401 0.930 . S
H394 C402 0.930 . S
H395 C403 0.930 . S
H396 C406 0.930 . S
H397 C407 0.930 . S
C398 H392 0.930 . S
C398 C399 1.355 . S
C398 C400 1.415 . S
C399 C398 1.355 . S
C399 C401 1.419 . S
C400 C398 1.415 . S
C400 C405 1.425 . S
C400 C407 1.409 . S
C401 H393 0.930 . S
C401 C399 1.419 . S
C401 C402 1.362 . S
C402 H394 0.930 . S
C402 C401 1.362 . S
C402 C405 1.409 . S
C403 H395 0.930 . S
C403 C404 1.355 . S
C403 C405 1.415 . S
C404 C403 1.355 . S
C404 C406 1.419 . S
C405 C400 1.425 . S
C405 C402 1.409 . S
C405 C403 1.415 . S
C406 H396 0.930 . S
C406 C404 1.419 . S
C406 C407 1.362 . S
C407 H397 0.930 . S
C407 C400 1.409 . S
C407 C406 1.362 . S
H408 C414 0.930 . S
H409 C417 0.930 . S
H410 C418 0.930 . S
H411 C419 0.930 . S
H412 C422 0.930 . S
H413 C423 0.930 . S
C414 H408 0.930 . S
C414 C415 1.355 . S
C414 C416 1.415 . S
C415 C414 1.355 . S
C415 C417 1.419 . S
C416 C414 1.415 . S
C416 C421 1.425 . S
C416 C423 1.409 . S
C417 H409 0.930 . S
C417 C415 1.419 . S
C417 C418 1.362 . S
C418 H410 0.930 . S
C418 C417 1.362 . S
C418 C421 1.409 . S
C419 H411 0.930 . S
C419 C420 1.355 . S
C419 C421 1.415 . S
C420 C419 1.355 . S
C420 C422 1.419 . S
C421 C416 1.425 . S
C421 C418 1.409 . S
C421 C419 1.415 . S
C422 H412 0.930 . S
C422 C420 1.419 . S
C422 C423 1.362 . S
C423 H413 0.930 . S
C423 C416 1.409 . S
C423 C422 1.362 . S
H424 C430 0.930 . S
H425 C433 0.930 . S
H426 C434 0.930 . S
H427 C435 0.930 . S
H428 C438 0.930 . S
H429 C439 0.930 . S
C430 H424 0.930 . S
C430 C431 1.355 . S
C430 C432 1.415 . S
C431 C430 1.355 . S
C431 C433 1.419 . S
C432 C430 1.415 . S
C432 C437 1.425 . S
C432 C439 1.409 . S
C433 H425 0.930 . S
C433 C431 1.419 . S
C433 C434 1.362 . S
C434 H426 0.930 . S
C434 C433 1.362 . S
C434 C437 1.409 . S
C435 H427 0.930 . S
C435 C436 1.355 . S
C435 C437 1.415 . S
C436 C435 1.355 . S
C436 C438 1.419 . S
C437 C432 1.425 . S
C437 C434 1.409 . S
C437 C435 1.415 . S
C438 H428 0.930 . S
C438 C436 1.419 . S
C438 C439 1.362 . S
C439 H429 0.930 . S
C439 C432 1.409 . S
C439 C438 1.362 . S
H440 C446 0.930 . S
H441 C449 0.930 . S
H442 C450 0.930 . S
H443 C451 0.930 . S
H444 C454 0.930 . S
H445 C455 0.930 . S
C446 H440 0.930 . S
C446 C447 1.355 . S
C446 C448 1.415 . S
C447 C446 1.355 . S
C447 C449 1.419 . S
C448 C446 1.415 . S
C448 C453 1.425 . S
C448 C455 1.409 . S
C449 H441 0.930 . S
C449 C447 1.419 . S
C449 C450 1.362 . S
C450 H442 0.930 . S
C450 C449 1.362 . S
C450 C453 1.409 . S
C451 H443 0.930 . S
C451 C452 1.355 . S
C451 C453 1.415 . S
C452 C451 1.355 . S
C452 C454 1.419 . S
C453 C448 1.425 . S
C453 C450 1.409 . S
C453 C451 1.415 . S
C454 H444 0.930 . S
C454 C452 1.419 . S
C454 C455 1.362 . S
C455 H445 0.930 . S
C455 C448 1.409 . S
C455 C454 1.362 . S
H456 C462 0.930 . S
H457 C465 0.930 . S
H458 C466 0.930 . S
H459 C467 0.930 . S
H460 C470 0.930 . S
H461 C471 0.930 . S
C462 H456 0.930 . S
C462 C463 1.355 . S
C462 C464 1.415 . S
C463 C462 1.355 . S
C463 C465 1.419 . S
C464 C462 1.415 . S
C464 C469 1.425 . S
C464 C471 1.409 . S
C465 H457 0.930 . S
C465 C463 1.419 . S
C465 C466 1.362 . S
C466 H458 0.930 . S
C466 C465 1.362 . S
C466 C469 1.409 . S
C467 H459 0.930 . S
C467 C468 1.355 . S
C467 C469 1.415 . S
C468 C467 1.355 . S
C468 C470 1.419 . S
C469 C464 1.425 . S
C469 C466 1.409 . S
C469 C467 1.415 . S
C470 H460 0.930 . S
C470 C468 1.419 . S
C470 C471 1.362 . S
C471 H461 0.930 . S
C471 C464 1.409 . S
C471 C470 1.362 . S
H472 C478 0.930 . S
H473 C481 0.930 . S
H474 C482 0.930 . S
H475 C483 0.930 . S
H476 C486 0.930 . S
H477 C487 0.930 . S
C478 H472 0.930 . S
C478 C479 1.355 . S
C478 C480 1.415 . S
C479 C478 1.355 . S
C479 C481 1.419 . S
C480 C478 1.415 . S
C480 C485 1.425 . S
C480 C487 1.409 . S
C481 H473 0.930 . S
C481 C479 1.419 . S
C481 C482 1.362 . S
C482 H474 0.930 . S
C482 C481 1.362 . S
C482 C485 1.409 . S
C483 H475 0.930 . S
C483 C484 1.355 . S
C483 C485 1.415 . S
C484 C483 1.355 . S
C484 C486 1.419 . S
C485 C480 1.425 . S
C485 C482 1.409 . S
C485 C483 1.415 . S
C486 H476 0.930 . S
C486 C484 1.419 . S
C486 C487 1.362 . S
C487 H477 0.930 . S
C487 C480 1.409 . S
C487 C486 1.362 . S
H488 C494 0.930 . S
H489 C497 0.930 . S
H490 C498 0.930 . S
H491 C499 0.930 . S
H492 C502 0.930 . S
H493 C503 0.930 . S
C494 H488 0.930 . S
C494 C495 1.355 . S
C494 C496 1.415 . S
C495 C494 1.355 . S
C495 C497 1.419 . S
C496 C494 1.415 . S
C496 C501 1.425 . S
C496 C503 1.409 . S
C497 H489 0.930 . S
C497 C495 1.419 . S
C497 C498 1.362 . S
C498 H490 0.930 . S
C498 C497 1.362 . S
C498 C501 1.409 . S
C499 H491 0.930 . S
C499 C500 1.355 . S
C499 C501 1.415 . S
C500 C499 1.355 . S
C500 C502 1.419 . S
C501 C496 1.425 . S
C501 C498 1.409 . S
C501 C499 1.415 . S
C502 H492 0.930 . S
C502 C500 1.419 . S
C502 C503 1.362 . S
C503 H493 0.930 . S
C503 C496 1.409 . S
C503 C502 1.362 . S
H504 C510 0.930 . S
H505 C513 0.930 . S
H506 C514 0.930 . S
H507 C515 0.930 . S
H508 C518 0.930 . S
H509 C519 0.930 . S
C510 H504 0.930 . S
C510 C511 1.355 . S
C510 C512 1.415 . S
C511 C510 1.355 . S
C511 C513 1.419 . S
C512 C510 1.415 . S
C512 C517 1.425 . S
C512 C519 1.409 . S
C513 H505 0.930 . S
C513 C511 1.419 . S
C513 C514 1.362 . S
C514 H506 0.930 . S
C514 C513 1.362 . S
C514 C517 1.409 . S
C515 H507 0.930 . S
C515 C516 1.355 . S
C515 C517 1.415 . S
C516 C515 1.355 . S
C516 C518 1.419 . S
C517 C512 1.425 . S
C517 C514 1.409 . S
C517 C515 1.415 . S
C518 H508 0.930 . S
C518 C516 1.419 . S
C518 C519 1.362 . S
C519 H509 0.930 . S
C519 C512 1.409 . S
C519 C518 1.362 . S
H520 C526 0.930 . S
H521 C529 0.930 . S
H522 C530 0.930 . S
H523 C531 0.930 . S
H524 C534 0.930 . S
H525 C535 0.930 . S
C526 H520 0.930 . S
C526 C527 1.355 . S
C526 C528 1.415 . S
C527 C526 1.355 . S
C527 C529 1.419 . S
C528 C526 1.415 . S
C528 C533 1.425 . S
C528 C535 1.409 . S
C529 H521 0.930 . S
C529 C527 1.419 . S
C529 C530 1.362 . S
C530 H522 0.930 . S
C530 C529 1.362 . S
C530 C533 1.409 . S
C531 H523 0.930 . S
C531 C532 1.355 . S
C531 C533 1.415 . S
C532 C531 1.355 . S
C532 C534 1.419 . S
C533 C528 1.425 . S
C533 C530 1.409 . S
C533 C531 1.415 . S
C534 H524 0.930 . S
C534 C532 1.419 . S
C534 C535 1.362 . S
C535 H525 0.930 . S
C535 C528 1.409 . S
C535 C534 1.362 . S
H536 C542 0.930 . S
H537 C545 0.930 . S
H538 C546 0.930 . S
H539 C547 0.930 . S
H540 C550 0.930 . S
H541 C551 0.930 . S
C542 H536 0.930 . S
C542 C543 1.355 . S
C542 C544 1.415 . S
C543 C542 1.355 . S
C543 C545 1.419 . S
C544 C542 1.415 . S
C544 C549 1.425 . S
C544 C551 1.409 . S
C545 H537 0.930 . S
C545 C543 1.419 . S
C545 C546 1.362 . S
C546 H538 0.930 . S
C546 C545 1.362 . S
C546 C549 1.409 . S
C547 H539 0.930 . S
C547 C548 1.355 . S
C547 C549 1.415 . S
C548 C547 1.355 . S
C548 C550 1.419 . S
C549 C544 1.425 . S
C549 C546 1.409 . S
C549 C547 1.415 . S
C550 H540 0.930 . S
C550 C548 1.419 . S
C550 C551 1.362 . S
C551 H541 0.930 . S
C551 C544 1.409 . S
C551 C550 1.362 . S
H552 C558 0.930 . S
H553 C561 0.930 . S
H554 C562 0.930 . S
H555 C563 0.930 1_556 S
H556 C566 0.930 . S
H557 C567 0.930 1_655 S
C558 H552 0.930 . S
C558 C559 1.355 . S
C558 C560 1.457 1_556 S
C559 C558 1.355 . S
C559 C561 1.419 . S
C560 C558 1.457 1_554 S
C560 C565 1.382 1_654 S
C560 C567 1.410 1_655 S
C561 H553 0.930 . S
C561 C559 1.419 . S
C561 C562 1.362 1_655 S
C562 H554 0.930 . S
C562 C561 1.362 1_455 S
C562 C565 1.409 . S
C563 H555 0.930 1_554 S
C563 C564 1.355 . S
C563 C565 1.415 1_554 S
C564 C563 1.355 . S
C564 C566 1.419 . S
C565 C560 1.382 1_456 S
C565 C562 1.409 . S
C565 C563 1.415 1_556 S
C566 H556 0.930 . S
C566 C564 1.419 . S
C566 C567 1.362 . S
C567 H557 0.930 1_455 S
C567 C560 1.410 1_455 S
C567 C566 1.362 . S
H568 C574 0.930 . S
H569 C577 0.930 . S
H570 C578 0.930 . S
H571 C579 0.930 . S
H572 C582 0.930 . S
H573 C583 0.930 1_556 S
C574 H568 0.930 . S
C574 C575 1.355 . S
C574 C576 1.415 . S
C575 C574 1.355 . S
C575 C577 1.419 . S
C576 C574 1.415 . S
C576 C581 1.425 . S
C576 C583 1.409 1_556 S
C577 H569 0.930 . S
C577 C575 1.419 . S
C577 C578 1.362 . S
C578 H570 0.930 . S
C578 C577 1.362 . S
C578 C581 1.409 . S
C579 H571 0.930 . S
C579 C580 1.355 . S
C579 C581 1.415 1_554 S
C580 C579 1.355 . S
C580 C582 1.419 . S
C581 C576 1.425 . S
C581 C578 1.409 . S
C581 C579 1.415 1_556 S
C582 H572 0.930 . S
C582 C580 1.419 . S
C582 C583 1.362 . S
C583 H573 0.930 1_554 S
C583 C576 1.409 1_554 S
C583 C582 1.362 . S
H584 C590 0.930 . S
H585 C593 0.930 . S
H586 C594 0.930 . S
H587 C595 0.930 1_545 S
H588 C598 0.930 . S
H589 C599 0.930 . S
C590 H584 0.930 . S
C590 C591 1.355 . S
C590 C592 1.415 . S
C591 C590 1.355 . S
C591 C593 1.419 . S
C592 C590 1.415 . S
C592 C597 1.425 . S
C592 C599 1.409 1_545 S
C593 H585 0.930 . S
C593 C591 1.419 . S
C593 C594 1.362 1_556 S
C594 H586 0.930 . S
C594 C593 1.362 1_554 S
C594 C597 1.409 1_554 S
C595 H587 0.930 1_565 S
C595 C596 1.355 . S
C595 C597 1.415 1_564 S
C596 C595 1.355 . S
C596 C598 1.419 1_554 S
C597 C592 1.425 . S
C597 C594 1.409 1_556 S
C597 C595 1.415 1_546 S
C598 H588 0.930 . S
C598 C596 1.419 1_556 S
C598 C599 1.362 . S
C599 H589 0.930 . S
C599 C592 1.409 1_565 S
C599 C598 1.362 . S
H600 C606 0.930 . S
H601 C609 0.930 . S
H602 C610 0.930 . S
H603 C611 0.906 1_545 S
H604 C614 0.930 . S
H605 C615 0.930 . S
C606 H600 0.930 . S
C606 C607 1.355 . S
C606 C608 1.415 . S
C607 C606 1.355 . S
C607 C609 1.419 . S
C608 C606 1.415 . S
C608 C613 1.425 1_556 S
C608 C615 1.409 1_545 S
C609 H601 0.930 . S
C609 C607 1.419 . S
C609 C610 1.362 1_556 S
C610 H602 0.930 . S
C610 C609 1.362 1_554 S
C610 C613 1.409 . S
C611 H603 0.906 1_565 S
C611 C612 1.355 . S
C611 C613 1.415 1_565 S
C612 C611 1.355 . S
C612 C614 1.419 . S
C613 C608 1.425 1_554 S
C613 C610 1.409 . S
C613 C611 1.415 1_545 S
C614 H604 0.930 . S
C614 C612 1.419 . S
C614 C615 1.362 1_554 S
C615 H605 0.930 . S
C615 C608 1.409 1_565 S
C615 C614 1.362 1_556 S
H616 C622 0.930 . S
H617 C625 0.930 . S
H618 C626 0.930 . S
H619 C627 0.930 . S
H620 C630 0.930 . S
H621 C631 0.930 . S
C622 H616 0.930 . S
C622 C623 1.355 . S
C622 C624 1.415 . S
C623 C622 1.355 . S
C623 C625 1.419 . S
C624 C622 1.415 . S
C624 C629 1.425 . S
C624 C631 1.409 1_554 S
C625 H617 0.930 . S
C625 C623 1.419 . S
C625 C626 1.362 . S
C626 H618 0.930 . S
C626 C625 1.362 . S
C626 C629 1.409 . S
C627 H619 0.930 . S
C627 C628 1.355 1_554 S
C627 C629 1.415 1_655 S
C628 C627 1.355 1_556 S
C628 C630 1.419 . S
C629 C624 1.425 . S
C629 C626 1.409 . S
C629 C627 1.415 1_455 S
C630 H620 0.930 . S
C630 C628 1.419 . S
C630 C631 1.362 1_655 S
C631 H621 0.930 . S
C631 C624 1.409 1_556 S
C631 C630 1.362 1_455 S
H632 C638 0.930 . S
H633 C641 0.930 . S
H634 C642 0.930 . S
H635 C643 0.930 . S
H636 C646 0.930 . S
H637 C647 0.930 . S
C638 H632 0.930 . S
C638 C639 1.355 . S
C638 C640 1.415 . S
C639 C638 1.355 . S
C639 C641 1.419 . S
C640 C638 1.415 . S
C640 C645 1.425 1_554 S
C640 C647 1.409 . S
C641 H633 0.930 . S
C641 C639 1.419 . S
C641 C642 1.362 1_554 S
C642 H634 0.930 . S
C642 C641 1.362 1_556 S
C642 C645 1.409 . S
C643 H635 0.930 . S
C643 C644 1.355 . S
C643 C645 1.415 . S
C644 C643 1.355 . S
C644 C646 1.419 1_556 S
C645 C640 1.425 1_556 S
C645 C642 1.409 . S
C645 C643 1.415 . S
C646 H636 0.930 . S
C646 C644 1.419 1_554 S
C646 C647 1.362 . S
C647 H637 0.930 . S
C647 C640 1.409 . S
C647 C646 1.362 . S
H648 C654 0.930 . S
H649 C657 0.930 . S
H650 C658 0.930 . S
H651 C659 0.930 . S
H652 C662 0.930 . S
H653 C663 0.930 . S
C654 H648 0.930 . S
C654 C655 1.355 . S
C654 C656 1.415 . S
C655 C654 1.355 . S
C655 C657 1.419 . S
C656 C654 1.415 . S
C656 C661 1.425 . S
C656 C663 1.409 . S
C657 H649 0.930 . S
C657 C655 1.419 . S
C657 C658 1.362 . S
C658 H650 0.930 . S
C658 C657 1.362 . S
C658 C661 1.409 . S
C659 H651 0.930 . S
C659 C660 1.355 . S
C659 C661 1.415 . S
C660 C659 1.355 . S
C660 C662 1.419 . S
C661 C656 1.425 . S
C661 C658 1.409 . S
C661 C659 1.415 . S
C662 H652 0.930 . S
C662 C660 1.419 . S
C662 C663 1.362 . S
C663 H653 0.930 . S
C663 C656 1.409 . S
C663 C662 1.362 . S
H664 C670 0.930 . S
H665 C673 0.930 . S
H666 C674 0.930 . S
H667 C675 0.930 . S
H668 C678 0.930 . S
H669 C679 0.930 . S
C670 H664 0.930 . S
C670 C671 1.355 . S
C670 C672 1.415 . S
C671 C670 1.355 . S
C671 C673 1.419 . S
C672 C670 1.415 . S
C672 C677 1.425 . S
C672 C679 1.409 . S
C673 H665 0.930 . S
C673 C671 1.419 . S
C673 C674 1.362 . S
C674 H666 0.930 . S
C674 C673 1.362 . S
C674 C677 1.409 . S
C675 H667 0.930 . S
C675 C676 1.355 . S
C675 C677 1.415 . S
C676 C675 1.355 . S
C676 C678 1.419 . S
C677 C672 1.425 . S
C677 C674 1.409 . S
C677 C675 1.415 . S
C678 H668 0.930 . S
C678 C676 1.419 . S
C678 C679 1.362 . S
C679 H669 0.930 . S
C679 C672 1.409 . S
C679 C678 1.362 . S
H680 C686 0.930 . S
H681 C689 0.930 . S
H682 C690 0.930 . S
H683 C691 0.930 . S
H684 C694 0.930 . S
H685 C695 0.930 . S
C686 H680 0.930 . S
C686 C687 1.355 . S
C686 C688 1.415 . S
C687 C686 1.355 . S
C687 C689 1.419 . S
C688 C686 1.415 . S
C688 C693 1.425 . S
C688 C695 1.409 . S
C689 H681 0.930 . S
C689 C687 1.419 . S
C689 C690 1.362 . S
C690 H682 0.930 . S
C690 C689 1.362 . S
C690 C693 1.409 . S
C691 H683 0.930 . S
C691 C692 1.355 . S
C691 C693 1.415 . S
C692 C691 1.355 . S
C692 C694 1.419 . S
C693 C688 1.425 . S
C693 C690 1.409 . S
C693 C691 1.415 . S
C694 H684 0.930 . S
C694 C692 1.419 . S
C694 C695 1.362 . S
C695 H685 0.930 . S
C695 C688 1.409 . S
C695 C694 1.362 . S
H696 C702 0.930 . S
H697 C705 0.930 . S
H698 C706 0.930 . S
H699 C707 0.930 . S
H700 C710 0.930 . S
H701 C711 0.930 . S
C702 H696 0.930 . S
C702 C703 1.355 . S
C702 C704 1.415 . S
C703 C702 1.355 . S
C703 C705 1.419 . S
C704 C702 1.415 . S
C704 C709 1.425 . S
C704 C711 1.409 . S
C705 H697 0.930 . S
C705 C703 1.419 . S
C705 C706 1.362 . S
C706 H698 0.930 . S
C706 C705 1.362 . S
C706 C709 1.409 . S
C707 H699 0.930 . S
C707 C708 1.355 . S
C707 C709 1.415 . S
C708 C707 1.355 . S
C708 C710 1.419 . S
C709 C704 1.425 . S
C709 C706 1.409 . S
C709 C707 1.415 . S
C710 H700 0.930 . S
C710 C708 1.419 . S
C710 C711 1.362 . S
C711 H701 0.930 . S
C711 C704 1.409 . S
C711 C710 1.362 . S
H712 C718 0.930 . S
H713 C721 0.930 . S
H714 C722 0.930 . S
H715 C723 0.930 . S
H716 C726 0.930 . S
H717 C727 0.930 . S
C718 H712 0.930 . S
C718 C719 1.355 . S
C718 C720 1.415 . S
C719 C718 1.355 . S
C719 C721 1.419 . S
C720 C718 1.415 . S
C720 C725 1.425 . S
C720 C727 1.409 . S
C721 H713 0.930 . S
C721 C719 1.419 . S
C721 C722 1.362 . S
C722 H714 0.930 . S
C722 C721 1.362 . S
C722 C725 1.409 . S
C723 H715 0.930 . S
C723 C724 1.355 . S
C723 C725 1.415 . S
C724 C723 1.355 . S
C724 C726 1.419 . S
C725 C720 1.425 . S
C725 C722 1.409 . S
C725 C723 1.415 . S
C726 H716 0.930 . S
C726 C724 1.419 . S
C726 C727 1.362 . S
C727 H717 0.930 . S
C727 C720 1.409 . S
C727 C726 1.362 . S
H728 C734 0.930 . S
H729 C737 0.930 . S
H730 C738 0.930 . S
H731 C739 0.930 . S
H732 C742 0.930 . S
H733 C743 0.930 . S
C734 H728 0.930 . S
C734 C735 1.355 . S
C734 C736 1.415 . S
C735 C734 1.355 . S
C735 C737 1.419 . S
C736 C734 1.415 . S
C736 C741 1.425 . S
C736 C743 1.409 . S
C737 H729 0.930 . S
C737 C735 1.419 . S
C737 C738 1.362 . S
C738 H730 0.930 . S
C738 C737 1.362 . S
C738 C741 1.409 . S
C739 H731 0.930 . S
C739 C740 1.355 . S
C739 C741 1.415 . S
C740 C739 1.355 . S
C740 C742 1.419 . S
C741 C736 1.425 . S
C741 C738 1.409 . S
C741 C739 1.415 . S
C742 H732 0.930 . S
C742 C740 1.419 . S
C742 C743 1.362 . S
C743 H733 0.930 . S
C743 C736 1.409 . S
C743 C742 1.362 . S
H744 C750 0.930 . S
H745 C753 0.930 . S
H746 C754 0.930 . S
H747 C755 0.930 . S
H748 C758 0.930 . S
H749 C759 0.930 . S
C750 H744 0.930 . S
C750 C751 1.355 . S
C750 C752 1.415 . S
C751 C750 1.355 . S
C751 C753 1.419 . S
C752 C750 1.415 . S
C752 C757 1.425 . S
C752 C759 1.409 . S
C753 H745 0.930 . S
C753 C751 1.419 . S
C753 C754 1.362 . S
C754 H746 0.930 . S
C754 C753 1.362 . S
C754 C757 1.409 . S
C755 H747 0.930 . S
C755 C756 1.355 . S
C755 C757 1.415 . S
C756 C755 1.355 . S
C756 C758 1.419 . S
C757 C752 1.425 . S
C757 C754 1.409 . S
C757 C755 1.415 . S
C758 H748 0.930 . S
C758 C756 1.419 . S
C758 C759 1.362 . S
C759 H749 0.930 . S
C759 C752 1.409 . S
C759 C758 1.362 . S
H760 C766 0.930 . S
H761 C769 0.930 . S
H762 C770 0.930 . S
H763 C771 0.930 . S
H764 C774 0.930 . S
H765 C775 0.930 . S
C766 H760 0.930 . S
C766 C767 1.355 . S
C766 C768 1.415 . S
C767 C766 1.355 . S
C767 C769 1.419 . S
C768 C766 1.415 . S
C768 C773 1.425 . S
C768 C775 1.409 . S
C769 H761 0.930 . S
C769 C767 1.419 . S
C769 C770 1.362 . S
C770 H762 0.930 . S
C770 C769 1.362 . S
C770 C773 1.409 . S
C771 H763 0.930 . S
C771 C772 1.355 . S
C771 C773 1.415 . S
C772 C771 1.355 . S
C772 C774 1.419 . S
C773 C768 1.425 . S
C773 C770 1.409 . S
C773 C771 1.415 . S
C774 H764 0.930 . S
C774 C772 1.419 . S
C774 C775 1.362 . S
C775 H765 0.930 . S
C775 C768 1.409 . S
C775 C774 1.362 . S
H776 C782 0.930 . S
H777 C785 0.930 . S
H778 C786 0.930 . S
H779 C787 0.930 . S
H780 C790 0.930 . S
H781 C791 0.930 . S
C782 H776 0.930 . S
C782 C783 1.355 . S
C782 C784 1.415 . S
C783 C782 1.355 . S
C783 C785 1.419 . S
C784 C782 1.415 . S
C784 C789 1.425 . S
C784 C791 1.409 . S
C785 H777 0.930 . S
C785 C783 1.419 . S
C785 C786 1.362 . S
C786 H778 0.930 . S
C786 C785 1.362 . S
C786 C789 1.409 . S
C787 H779 0.930 . S
C787 C788 1.355 . S
C787 C789 1.415 . S
C788 C787 1.355 . S
C788 C790 1.419 . S
C789 C784 1.425 . S
C789 C786 1.409 . S
C789 C787 1.415 . S
C790 H780 0.930 . S
C790 C788 1.419 . S
C790 C791 1.362 . S
C791 H781 0.930 . S
C791 C784 1.409 . S
C791 C790 1.362 . S
H792 C798 0.930 . S
H793 C801 0.930 . S
H794 C802 0.930 . S
H795 C803 0.930 . S
H796 C806 0.930 . S
H797 C807 0.930 . S
C798 H792 0.930 . S
C798 C799 1.355 . S
C798 C800 1.415 . S
C799 C798 1.355 . S
C799 C801 1.419 . S
C800 C798 1.415 . S
C800 C805 1.425 . S
C800 C807 1.409 . S
C801 H793 0.930 . S
C801 C799 1.419 . S
C801 C802 1.362 . S
C802 H794 0.930 . S
C802 C801 1.362 . S
C802 C805 1.409 . S
C803 H795 0.930 . S
C803 C804 1.355 . S
C803 C805 1.415 . S
C804 C803 1.355 . S
C804 C806 1.419 . S
C805 C800 1.425 . S
C805 C802 1.409 . S
C805 C803 1.415 . S
C806 H796 0.930 . S
C806 C804 1.419 . S
C806 C807 1.362 . S
C807 H797 0.930 . S
C807 C800 1.409 . S
C807 C806 1.362 . S
H808 C814 0.930 . S
H809 C817 0.930 . S
H810 C818 0.930 . S
H811 C819 0.930 . S
H812 C822 0.930 . S
H813 C823 0.930 . S
C814 H808 0.930 . S
C814 C815 1.355 . S
C814 C816 1.415 . S
C815 C814 1.355 . S
C815 C817 1.419 . S
C816 C814 1.415 . S
C816 C821 1.425 . S
C816 C823 1.409 . S
C817 H809 0.930 . S
C817 C815 1.419 . S
C817 C818 1.362 . S
C818 H810 0.930 . S
C818 C817 1.362 . S
C818 C821 1.409 . S
C819 H811 0.930 . S
C819 C820 1.355 . S
C819 C821 1.415 . S
C820 C819 1.355 . S
C820 C822 1.419 . S
C821 C816 1.425 . S
C821 C818 1.409 . S
C821 C819 1.415 . S
C822 H812 0.930 . S
C822 C820 1.419 . S
C822 C823 1.362 . S
C823 H813 0.930 . S
C823 C816 1.409 . S
C823 C822 1.362 . S
H824 C830 0.930 . S
H825 C833 0.930 . S
H826 C834 0.930 . S
H827 C835 0.930 . S
H828 C838 0.930 . S
H829 C839 0.930 . S
C830 H824 0.930 . S
C830 C831 1.355 . S
C830 C832 1.415 . S
C831 C830 1.355 . S
C831 C833 1.419 . S
C832 C830 1.415 . S
C832 C837 1.425 . S
C832 C839 1.409 . S
C833 H825 0.930 . S
C833 C831 1.419 . S
C833 C834 1.362 . S
C834 H826 0.930 . S
C834 C833 1.362 . S
C834 C837 1.409 . S
C835 H827 0.930 . S
C835 C836 1.355 . S
C835 C837 1.415 . S
C836 C835 1.355 . S
C836 C838 1.419 . S
C837 C832 1.425 . S
C837 C834 1.409 . S
C837 C835 1.415 . S
C838 H828 0.930 . S
C838 C836 1.419 . S
C838 C839 1.362 . S
C839 H829 0.930 . S
C839 C832 1.409 . S
C839 C838 1.362 . S
H840 C846 0.930 . S
H841 C849 0.930 . S
H842 C850 0.930 . S
H843 C851 0.930 . S
H844 C854 0.930 . S
H845 C855 0.930 . S
C846 H840 0.930 . S
C846 C847 1.355 . S
C846 C848 1.415 . S
C847 C846 1.355 . S
C847 C849 1.419 . S
C848 C846 1.415 . S
C848 C853 1.425 . S
C848 C855 1.409 . S
C849 H841 0.930 . S
C849 C847 1.419 . S
C849 C850 1.362 . S
C850 H842 0.930 . S
C850 C849 1.362 . S
C850 C853 1.409 . S
C851 H843 0.930 . S
C851 C852 1.355 . S
C851 C853 1.415 . S
C852 C851 1.355 . S
C852 C854 1.419 . S
C853 C848 1.425 . S
C853 C850 1.409 . S
C853 C851 1.415 . S
C854 H844 0.930 . S
C854 C852 1.419 . S
C854 C855 1.362 . S
C855 H845 0.930 . S
C855 C848 1.409 . S
C855 C854 1.362 . S
H856 C862 0.930 . S
H857 C865 0.930 . S
H858 C866 0.930 . S
H859 C867 0.930 . S
H860 C870 0.930 1_556 S
H861 C871 0.930 1_556 S
C862 H856 0.930 . S
C862 C863 1.355 . S
C862 C864 1.415 . S
C863 C862 1.355 . S
C863 C865 1.419 . S
C864 C862 1.415 . S
C864 C869 1.425 . S
C864 C871 1.409 . S
C865 H857 0.930 . S
C865 C863 1.419 . S
C865 C866 1.362 . S
C866 H858 0.930 . S
C866 C865 1.362 . S
C866 C869 1.409 . S
C867 H859 0.930 . S
C867 C868 1.355 . S
C867 C869 1.415 . S
C868 C867 1.355 . S
C868 C870 1.419 . S
C869 C864 1.425 . S
C869 C866 1.409 . S
C869 C867 1.415 . S
C870 H860 0.930 1_554 S
C870 C868 1.419 . S
C870 C871 1.362 . S
C871 H861 0.930 1_554 S
C871 C864 1.409 . S
C871 C870 1.362 . S
H872 C878 0.930 . S
H873 C881 0.930 . S
H874 C882 0.930 . S
H875 C883 0.930 . S
H876 C886 0.930 . S
H877 C887 0.930 . S
C878 H872 0.930 . S
C878 C879 1.355 . S
C878 C880 1.415 . S
C879 C878 1.355 . S
C879 C881 1.419 . S
C880 C878 1.415 . S
C880 C885 1.425 . S
C880 C887 1.409 . S
C881 H873 0.930 . S
C881 C879 1.419 . S
C881 C882 1.362 . S
C882 H874 0.930 . S
C882 C881 1.362 . S
C882 C885 1.409 . S
C883 H875 0.930 . S
C883 C884 1.355 . S
C883 C885 1.415 . S
C884 C883 1.355 . S
C884 C886 1.419 . S
C885 C880 1.425 . S
C885 C882 1.409 . S
C885 C883 1.415 . S
C886 H876 0.930 . S
C886 C884 1.419 . S
C886 C887 1.362 . S
C887 H877 0.930 . S
C887 C880 1.409 . S
C887 C886 1.362 . S
H888 C894 0.930 . S
H889 C897 0.930 . S
H890 C898 0.930 . S
H891 C899 0.930 . S
H892 C902 0.930 . S
H893 C903 0.930 . S
C894 H888 0.930 . S
C894 C895 1.355 . S
C894 C896 1.415 . S
C895 C894 1.355 . S
C895 C897 1.419 . S
C896 C894 1.415 . S
C896 C901 1.425 . S
C896 C903 1.409 . S
C897 H889 0.930 . S
C897 C895 1.419 . S
C897 C898 1.362 . S
C898 H890 0.930 . S
C898 C897 1.362 . S
C898 C901 1.409 . S
C899 H891 0.930 . S
C899 C900 1.355 . S
C899 C901 1.415 . S
C900 C899 1.355 . S
C900 C902 1.419 . S
C901 C896 1.425 . S
C901 C898 1.409 . S
C901 C899 1.415 . S
C902 H892 0.930 . S
C902 C900 1.419 . S
C902 C903 1.362 . S
C903 H893 0.930 . S
C903 C896 1.409 . S
C903 C902 1.362 . S
H904 C910 0.930 . S
H905 C913 0.930 . S
H906 C914 0.930 . S
H907 C915 0.930 . S
H908 C918 0.930 . S
H909 C919 0.930 . S
C910 H904 0.930 . S
C910 C911 1.355 . S
C910 C912 1.415 . S
C911 C910 1.355 . S
C911 C913 1.419 . S
C912 C910 1.415 . S
C912 C917 1.425 . S
C912 C919 1.409 . S
C913 H905 0.930 . S
C913 C911 1.419 . S
C913 C914 1.362 . S
C914 H906 0.930 . S
C914 C913 1.362 . S
C914 C917 1.409 . S
C915 H907 0.930 . S
C915 C916 1.355 . S
C915 C917 1.415 . S
C916 C915 1.355 . S
C916 C918 1.419 . S
C917 C912 1.425 . S
C917 C914 1.409 . S
C917 C915 1.415 . S
C918 H908 0.930 . S
C918 C916 1.419 . S
C918 C919 1.362 . S
C919 H909 0.930 . S
C919 C912 1.409 . S
C919 C918 1.362 . S
H920 C926 0.930 . S
H921 C929 0.930 . S
H922 C930 0.930 . S
H923 C931 0.930 . S
H924 C934 0.930 . S
H925 C935 0.930 . S
C926 H920 0.930 . S
C926 C927 1.355 . S
C926 C928 1.415 . S
C927 C926 1.355 . S
C927 C929 1.419 . S
C928 C926 1.415 . S
C928 C933 1.425 . S
C928 C935 1.409 . S
C929 H921 0.930 . S
C929 C927 1.419 . S
C929 C930 1.362 . S
C930 H922 0.930 . S
C930 C929 1.362 . S
C930 C933 1.409 . S
C931 H923 0.930 . S
C931 C932 1.355 . S
C931 C933 1.415 . S
C932 C931 1.355 . S
C932 C934 1.419 . S
C933 C928 1.425 . S
C933 C930 1.409 . S
C933 C931 1.415 . S
C934 H924 0.930 . S
C934 C932 1.419 . S
C934 C935 1.362 . S
C935 H925 0.930 . S
C935 C928 1.409 . S
C935 C934 1.362 . S
H936 C942 0.930 . S
H937 C945 0.930 . S
H938 C946 0.930 . S
H939 C947 0.930 . S
H940 C950 0.930 . S
H941 C951 0.930 1_554 S
C942 H936 0.930 . S
C942 C943 1.355 1_655 S
C942 C944 1.415 . S
C943 C942 1.355 1_455 S
C943 C945 1.419 . S
C944 C942 1.415 . S
C944 C949 1.425 1_655 S
C944 C951 1.409 1_554 S
C945 H937 0.930 . S
C945 C943 1.419 . S
C945 C946 1.362 . S
C946 H938 0.930 . S
C946 C945 1.362 . S
C946 C949 1.409 . S
C947 H939 0.930 . S
C947 C948 1.355 . S
C947 C949 1.415 1_556 S
C948 C947 1.355 . S
C948 C950 1.419 1_455 S
C949 C944 1.425 1_455 S
C949 C946 1.409 . S
C949 C947 1.415 1_554 S
C950 H940 0.930 . S
C950 C948 1.419 1_655 S
C950 C951 1.362 . S
C951 H941 0.930 1_556 S
C951 C944 1.409 1_556 S
C951 C950 1.362 . S
H952 C958 0.930 . S
H953 C961 0.930 . S
H954 C962 0.930 . S
H955 C963 0.930 . S
H956 C966 0.930 . S
H957 C967 0.930 . S
C958 H952 0.930 . S
C958 C959 1.355 . S
C958 C960 1.415 . S
C959 C958 1.355 . S
C959 C961 1.419 . S
C960 C958 1.415 . S
C960 C965 1.425 1_554 S
C960 C967 1.409 1_554 S
C961 H953 0.930 . S
C961 C959 1.419 . S
C961 C962 1.362 . S
C962 H954 0.930 . S
C962 C961 1.362 . S
C962 C965 1.409 1_554 S
C963 H955 0.930 . S
C963 C964 1.355 . S
C963 C965 1.415 . S
C964 C963 1.355 . S
C964 C966 1.419 . S
C965 C960 1.425 1_556 S
C965 C962 1.409 1_556 S
C965 C963 1.415 . S
C966 H956 0.930 . S
C966 C964 1.419 . S
C966 C967 1.362 . S
C967 H957 0.930 . S
C967 C960 1.409 1_556 S
C967 C966 1.362 . S
H968 C974 0.930 . S
H969 C977 0.930 . S
H970 C978 0.930 1_556 S
H971 C979 0.940 . S
H972 C982 0.930 . S
H973 C983 0.930 1_554 S
C974 H968 0.930 . S
C974 C975 1.333 1_545 S
C974 C976 1.415 . S
C975 C974 1.333 1_565 S
C975 C977 1.439 . S
C976 C974 1.415 . S
C976 C981 1.425 1_544 S
C976 C983 1.409 1_554 S
C977 H969 0.930 . S
C977 C975 1.439 . S
C977 C978 1.362 . S
C978 H970 0.930 1_554 S
C978 C977 1.362 . S
C978 C981 1.409 1_554 S
C979 H971 0.940 . S
C979 C980 1.343 1_565 S
C979 C981 1.416 . S
C980 C979 1.343 1_545 S
C980 C982 1.419 . S
C981 C976 1.425 1_566 S
C981 C978 1.409 1_556 S
C981 C979 1.416 . S
C982 H972 0.930 . S
C982 C980 1.419 . S
C982 C983 1.362 . S
C983 H973 0.930 1_556 S
C983 C976 1.409 1_556 S
C983 C982 1.362 . S
H984 C990 0.930 . S
H985 C993 0.930 . S
H986 C994 0.930 . S
H987 C995 0.930 . S
H988 C998 0.930 . S
H989 C999 0.930 . S
C990 H984 0.930 . S
C990 C991 1.355 1_655 S
C990 C992 1.415 1_556 S
C991 C990 1.355 1_455 S
C991 C993 1.419 . S
C992 C990 1.415 1_554 S
C992 C997 1.425 1_655 S
C992 C999 1.409 . S
C993 H985 0.930 . S
C993 C991 1.419 . S
C993 C994 1.362 1_556 S
C994 H986 0.930 . S
C994 C993 1.362 1_554 S
C994 C997 1.409 . S
C995 H987 0.930 . S
C995 C996 1.355 . S
C995 C997 1.415 . S
C996 C995 1.355 . S
C996 C998 1.419 1_455 S
C997 C992 1.425 1_455 S
C997 C994 1.409 . S
C997 C995 1.415 . S
C998 H988 0.930 . S
C998 C996 1.419 1_655 S
C998 C999 1.362 . S
C999 H989 0.930 . S
C999 C992 1.409 . S
C999 C998 1.362 . S
H1000 C1006 0.930 . S
H1001 C1009 0.930 . S
H1002 C1010 0.930 . S
H1003 C1011 0.930 . S
H1004 C1014 0.930 . S
H1005 C1015 0.930 . S
C1006 H1000 0.930 . S
C1006 C1007 1.355 . S
C1006 C1008 1.415 . S
C1007 C1006 1.355 . S
C1007 C1009 1.419 . S
C1008 C1006 1.415 . S
C1008 C1013 1.425 . S
C1008 C1015 1.409 . S
C1009 H1001 0.930 . S
C1009 C1007 1.419 . S
C1009 C1010 1.362 . S
C1010 H1002 0.930 . S
C1010 C1009 1.362 . S
C1010 C1013 1.409 . S
C1011 H1003 0.930 . S
C1011 C1012 1.355 . S
C1011 C1013 1.415 1_556 S
C1012 C1011 1.355 . S
C1012 C1014 1.419 . S
C1013 C1008 1.425 . S
C1013 C1010 1.409 . S
C1013 C1011 1.415 1_554 S
C1014 H1004 0.930 . S
C1014 C1012 1.419 . S
C1014 C1015 1.362 1_556 S
C1015 H1005 0.930 . S
C1015 C1008 1.409 . S
C1015 C1014 1.362 1_554 S
H1016 C1022 0.930 1_565 S
H1017 C1025 0.930 . S
H1018 C1026 0.930 . S
H1019 C1027 0.930 . S
H1020 C1030 0.930 . S
H1021 C1031 0.930 1_565 S
C1022 H1016 0.930 1_545 S
C1022 C1023 1.355 . S
C1022 C1024 1.415 . S
C1023 C1022 1.355 . S
C1023 C1025 1.419 . S
C1024 C1022 1.415 . S
C1024 C1029 1.425 . S
C1024 C1031 1.409 1_554 S
C1025 H1017 0.930 . S
C1025 C1023 1.419 . S
C1025 C1026 1.362 . S
C1026 H1018 0.930 . S
C1026 C1025 1.362 . S
C1026 C1029 1.409 . S
C1027 H1019 0.930 . S
C1027 C1028 1.355 . S
C1027 C1029 1.415 1_556 S
C1028 C1027 1.355 . S
C1028 C1030 1.419 . S
C1029 C1024 1.425 . S
C1029 C1026 1.409 . S
C1029 C1027 1.415 1_554 S
C1030 H1020 0.930 . S
C1030 C1028 1.419 . S
C1030 C1031 1.362 . S
C1031 H1021 0.930 1_545 S
C1031 C1024 1.409 1_556 S
C1031 C1030 1.362 . S
H1032 C1038 0.930 . S
H1033 C1041 0.930 . S
H1034 C1042 0.930 . S
H1035 C1043 0.930 . S
H1036 C1046 0.930 . S
H1037 C1047 0.930 . S
C1038 H1032 0.930 . S
C1038 C1039 1.355 . S
C1038 C1040 1.415 . S
C1039 C1038 1.355 . S
C1039 C1041 1.419 . S
C1040 C1038 1.415 . S
C1040 C1045 1.425 . S
C1040 C1047 1.409 . S
C1041 H1033 0.930 . S
C1041 C1039 1.419 . S
C1041 C1042 1.362 . S
C1042 H1034 0.930 . S
C1042 C1041 1.362 . S
C1042 C1045 1.409 . S
C1043 H1035 0.930 . S
C1043 C1044 1.355 . S
C1043 C1045 1.415 . S
C1044 C1043 1.355 . S
C1044 C1046 1.419 . S
C1045 C1040 1.425 . S
C1045 C1042 1.409 . S
C1045 C1043 1.415 . S
C1046 H1036 0.930 . S
C1046 C1044 1.419 . S
C1046 C1047 1.362 . S
C1047 H1037 0.930 . S
C1047 C1040 1.409 . S
C1047 C1046 1.362 . S
H1048 C1054 0.930 . S
H1049 C1057 0.930 . S
H1050 C1058 0.930 . S
H1051 C1059 0.930 . S
H1052 C1062 0.930 . S
H1053 C1063 0.930 . S
C1054 H1048 0.930 . S
C1054 C1055 1.355 . S
C1054 C1056 1.415 . S
C1055 C1054 1.355 . S
C1055 C1057 1.419 . S
C1056 C1054 1.415 . S
C1056 C1061 1.425 . S
C1056 C1063 1.409 . S
C1057 H1049 0.930 . S
C1057 C1055 1.419 . S
C1057 C1058 1.362 . S
C1058 H1050 0.930 . S
C1058 C1057 1.362 . S
C1058 C1061 1.409 . S
C1059 H1051 0.930 . S
C1059 C1060 1.355 . S
C1059 C1061 1.415 . S
C1060 C1059 1.355 . S
C1060 C1062 1.419 . S
C1061 C1056 1.425 . S
C1061 C1058 1.409 . S
C1061 C1059 1.415 . S
C1062 H1052 0.930 . S
C1062 C1060 1.419 . S
C1062 C1063 1.362 . S
C1063 H1053 0.930 . S
C1063 C1056 1.409 . S
C1063 C1062 1.362 . S
H1064 C1070 0.930 . S
H1065 C1073 0.930 . S
H1066 C1074 0.930 . S
H1067 C1075 0.930 . S
H1068 C1078 0.930 . S
H1069 C1079 0.930 . S
C1070 H1064 0.930 . S
C1070 C1071 1.355 . S
C1070 C1072 1.415 . S
C1071 C1070 1.355 . S
C1071 C1073 1.419 . S
C1072 C1070 1.415 . S
C1072 C1077 1.425 . S
C1072 C1079 1.409 . S
C1073 H1065 0.930 . S
C1073 C1071 1.419 . S
C1073 C1074 1.362 . S
C1074 H1066 0.930 . S
C1074 C1073 1.362 . S
C1074 C1077 1.409 . S
C1075 H1067 0.930 . S
C1075 C1076 1.355 . S
C1075 C1077 1.415 . S
C1076 C1075 1.355 . S
C1076 C1078 1.419 . S
C1077 C1072 1.425 . S
C1077 C1074 1.409 . S
C1077 C1075 1.415 . S
C1078 H1068 0.930 . S
C1078 C1076 1.419 . S
C1078 C1079 1.362 . S
C1079 H1069 0.930 . S
C1079 C1072 1.409 . S
C1079 C1078 1.362 . S
H1080 C1086 0.930 . S
H1081 C1089 0.930 . S
H1082 C1090 0.930 . S
H1083 C1091 0.930 . S
H1084 C1094 0.930 . S
H1085 C1095 0.930 . S
C1086 H1080 0.930 . S
C1086 C1087 1.355 . S
C1086 C1088 1.415 . S
C1087 C1086 1.355 . S
C1087 C1089 1.419 . S
C1088 C1086 1.415 . S
C1088 C1093 1.425 . S
C1088 C1095 1.409 . S
C1089 H1081 0.930 . S
C1089 C1087 1.419 . S
C1089 C1090 1.362 . S
C1090 H1082 0.930 . S
C1090 C1089 1.362 . S
C1090 C1093 1.409 . S
C1091 H1083 0.930 . S
C1091 C1092 1.355 . S
C1091 C1093 1.415 . S
C1092 C1091 1.355 . S
C1092 C1094 1.419 . S
C1093 C1088 1.425 . S
C1093 C1090 1.409 . S
C1093 C1091 1.415 . S
C1094 H1084 0.930 . S
C1094 C1092 1.419 . S
C1094 C1095 1.362 . S
C1095 H1085 0.930 . S
C1095 C1088 1.409 . S
C1095 C1094 1.362 . S
H1096 C1102 0.930 . S
H1097 C1105 0.930 . S
H1098 C1106 0.930 . S
H1099 C1107 0.930 . S
H1100 C1110 0.930 . S
H1101 C1111 0.930 . S
C1102 H1096 0.930 . S
C1102 C1103 1.355 . S
C1102 C1104 1.415 . S
C1103 C1102 1.355 . S
C1103 C1105 1.419 . S
C1104 C1102 1.415 . S
C1104 C1109 1.425 . S
C1104 C1111 1.409 . S
C1105 H1097 0.930 . S
C1105 C1103 1.419 . S
C1105 C1106 1.362 . S
C1106 H1098 0.930 . S
C1106 C1105 1.362 . S
C1106 C1109 1.409 . S
C1107 H1099 0.930 . S
C1107 C1108 1.355 . S
C1107 C1109 1.415 . S
C1108 C1107 1.355 . S
C1108 C1110 1.419 . S
C1109 C1104 1.425 . S
C1109 C1106 1.409 . S
C1109 C1107 1.415 . S
C1110 H1100 0.930 . S
C1110 C1108 1.419 . S
C1110 C1111 1.362 . S
C1111 H1101 0.930 . S
C1111 C1104 1.409 . S
C1111 C1110 1.362 . S
H1112 C1118 0.930 . S
H1113 C1121 0.930 . S
H1114 C1122 0.930 . S
H1115 C1123 0.930 . S
H1116 C1126 0.930 . S
H1117 C1127 0.930 . S
C1118 H1112 0.930 . S
C1118 C1119 1.355 . S
C1118 C1120 1.415 . S
C1119 C1118 1.355 . S
C1119 C1121 1.419 . S
C1120 C1118 1.415 . S
C1120 C1125 1.425 . S
C1120 C1127 1.409 . S
C1121 H1113 0.930 . S
C1121 C1119 1.419 . S
C1121 C1122 1.362 . S
C1122 H1114 0.930 . S
C1122 C1121 1.362 . S
C1122 C1125 1.409 . S
C1123 H1115 0.930 . S
C1123 C1124 1.355 . S
C1123 C1125 1.415 . S
C1124 C1123 1.355 . S
C1124 C1126 1.419 . S
C1125 C1120 1.425 . S
C1125 C1122 1.409 . S
C1125 C1123 1.415 . S
C1126 H1116 0.930 . S
C1126 C1124 1.419 . S
C1126 C1127 1.362 . S
C1127 H1117 0.930 . S
C1127 C1120 1.409 . S
C1127 C1126 1.362 . S
H1128 C1134 0.930 . S
H1129 C1137 0.930 . S
H1130 C1138 0.930 . S
H1131 C1139 0.930 . S
H1132 C1142 0.930 . S
H1133 C1143 0.930 . S
C1134 H1128 0.930 . S
C1134 C1135 1.355 . S
C1134 C1136 1.415 . S
C1135 C1134 1.355 . S
C1135 C1137 1.419 . S
C1136 C1134 1.415 . S
C1136 C1141 1.425 . S
C1136 C1143 1.409 . S
C1137 H1129 0.930 . S
C1137 C1135 1.419 . S
C1137 C1138 1.362 . S
C1138 H1130 0.930 . S
C1138 C1137 1.362 . S
C1138 C1141 1.409 . S
C1139 H1131 0.930 . S
C1139 C1140 1.355 . S
C1139 C1141 1.415 . S
C1140 C1139 1.355 . S
C1140 C1142 1.419 . S
C1141 C1136 1.425 . S
C1141 C1138 1.409 . S
C1141 C1139 1.415 . S
C1142 H1132 0.930 . S
C1142 C1140 1.419 . S
C1142 C1143 1.362 . S
C1143 H1133 0.930 . S
C1143 C1136 1.409 . S
C1143 C1142 1.362 . S
H1144 C1150 0.930 . S
H1145 C1153 0.930 . S
H1146 C1154 0.930 . S
H1147 C1155 0.930 . S
H1148 C1158 0.930 . S
H1149 C1159 0.930 . S
C1150 H1144 0.930 . S
C1150 C1151 1.355 . S
C1150 C1152 1.415 . S
C1151 C1150 1.355 . S
C1151 C1153 1.419 . S
C1152 C1150 1.415 . S
C1152 C1157 1.425 . S
C1152 C1159 1.409 . S
C1153 H1145 0.930 . S
C1153 C1151 1.419 . S
C1153 C1154 1.362 . S
C1154 H1146 0.930 . S
C1154 C1153 1.362 . S
C1154 C1157 1.409 . S
C1155 H1147 0.930 . S
C1155 C1156 1.355 . S
C1155 C1157 1.415 . S
C1156 C1155 1.355 . S
C1156 C1158 1.419 . S
C1157 C1152 1.425 . S
C1157 C1154 1.409 . S
C1157 C1155 1.415 . S
C1158 H1148 0.930 . S
C1158 C1156 1.419 . S
C1158 C1159 1.362 . S
C1159 H1149 0.930 . S
C1159 C1152 1.409 . S
C1159 C1158 1.362 . S
H1160 C1166 0.930 . S
H1161 C1169 0.930 . S
H1162 C1170 0.930 . S
H1163 C1171 0.930 . S
H1164 C1174 0.930 . S
H1165 C1175 0.930 . S
C1166 H1160 0.930 . S
C1166 C1167 1.355 . S
C1166 C1168 1.415 . S
C1167 C1166 1.355 . S
C1167 C1169 1.419 . S
C1168 C1166 1.415 . S
C1168 C1173 1.425 . S
C1168 C1175 1.409 . S
C1169 H1161 0.930 . S
C1169 C1167 1.419 . S
C1169 C1170 1.362 . S
C1170 H1162 0.930 . S
C1170 C1169 1.362 . S
C1170 C1173 1.409 . S
C1171 H1163 0.930 . S
C1171 C1172 1.355 . S
C1171 C1173 1.415 . S
C1172 C1171 1.355 . S
C1172 C1174 1.419 . S
C1173 C1168 1.425 . S
C1173 C1170 1.409 . S
C1173 C1171 1.415 . S
C1174 H1164 0.930 . S
C1174 C1172 1.419 . S
C1174 C1175 1.362 . S
C1175 H1165 0.930 . S
C1175 C1168 1.409 . S
C1175 C1174 1.362 . S
H1176 C1182 0.930 . S
H1177 C1185 0.930 . S
H1178 C1186 0.930 . S
H1179 C1187 0.930 . S
H1180 C1190 0.930 . S
H1181 C1191 0.930 . S
C1182 H1176 0.930 . S
C1182 C1183 1.355 . S
C1182 C1184 1.415 . S
C1183 C1182 1.355 . S
C1183 C1185 1.419 . S
C1184 C1182 1.415 . S
C1184 C1189 1.425 . S
C1184 C1191 1.409 . S
C1185 H1177 0.930 . S
C1185 C1183 1.419 . S
C1185 C1186 1.362 . S
C1186 H1178 0.930 . S
C1186 C1185 1.362 . S
C1186 C1189 1.409 . S
C1187 H1179 0.930 . S
C1187 C1188 1.355 . S
C1187 C1189 1.415 . S
C1188 C1187 1.355 . S
C1188 C1190 1.419 . S
C1189 C1184 1.425 . S
C1189 C1186 1.409 . S
C1189 C1187 1.415 . S
C1190 H1180 0.930 . S
C1190 C1188 1.419 . S
C1190 C1191 1.362 . S
C1191 H1181 0.930 . S
C1191 C1184 1.409 . S
C1191 C1190 1.362 . S
H1192 C1198 0.930 . S
H1193 C1201 0.930 . S
H1194 C1202 0.930 . S
H1195 C1203 0.930 . S
H1196 C1206 0.930 . S
H1197 C1207 0.930 . S
C1198 H1192 0.930 . S
C1198 C1199 1.355 . S
C1198 C1200 1.415 . S
C1199 C1198 1.355 . S
C1199 C1201 1.419 . S
C1200 C1198 1.415 . S
C1200 C1205 1.425 . S
C1200 C1207 1.409 . S
C1201 H1193 0.930 . S
C1201 C1199 1.419 . S
C1201 C1202 1.362 . S
C1202 H1194 0.930 . S
C1202 C1201 1.362 . S
C1202 C1205 1.409 . S
C1203 H1195 0.930 . S
C1203 C1204 1.355 . S
C1203 C1205 1.415 . S
C1204 C1203 1.355 . S
C1204 C1206 1.419 . S
C1205 C1200 1.425 . S
C1205 C1202 1.409 . S
C1205 C1203 1.415 . S
C1206 H1196 0.930 . S
C1206 C1204 1.419 . S
C1206 C1207 1.362 . S
C1207 H1197 0.930 . S
C1207 C1200 1.409 . S
C1207 C1206 1.362 . S
H1208 C1214 0.930 . S
H1209 C1217 0.930 . S
H1210 C1218 0.930 . S
H1211 C1219 0.930 . S
H1212 C1222 0.930 . S
H1213 C1223 0.930 . S
C1214 H1208 0.930 . S
C1214 C1215 1.355 . S
C1214 C1216 1.415 . S
C1215 C1214 1.355 . S
C1215 C1217 1.419 . S
C1216 C1214 1.415 . S
C1216 C1221 1.425 . S
C1216 C1223 1.409 . S
C1217 H1209 0.930 . S
C1217 C1215 1.419 . S
C1217 C1218 1.362 . S
C1218 H1210 0.930 . S
C1218 C1217 1.362 . S
C1218 C1221 1.409 . S
C1219 H1211 0.930 . S
C1219 C1220 1.355 . S
C1219 C1221 1.415 . S
C1220 C1219 1.355 . S
C1220 C1222 1.419 . S
C1221 C1216 1.425 . S
C1221 C1218 1.409 . S
C1221 C1219 1.415 . S
C1222 H1212 0.930 . S
C1222 C1220 1.419 . S
C1222 C1223 1.362 . S
C1223 H1213 0.930 . S
C1223 C1216 1.409 . S
C1223 C1222 1.362 . S
C367 C279 1.869 . S
C372 C19 1.911 . S
C383 C29 1.550 . S
C388 C289 1.548 . S
C399 C59 1.741 . S
C404 C249 1.777 . S
C415 C49 1.471 . S
C420 C149 1.471 . S
C431 C169 1.659 . S
C436 C9 1.661 . S
C447 C39 1.748 . S
C452 C129 1.820 . S
C463 C78 1.759 . S
C468 C208 1.770 . S
C479 C88 1.396 . S
C484 C228 1.393 . S
C495 C188 1.579 . S
C500 C118 1.525 . S
C511 C328 1.552 . S
C516 C108 1.552 . S
C527 C68 1.768 . S
C532 C358 1.701 . S
C543 C318 1.912 . S
C548 C98 1.860 . S
C559 C179 1.631 . S
C564 C269 1.686 . S
C575 C139 1.799 . S
C580 C299 1.834 . S
C591 C159 1.972 . S
C596 C259 1.992 . S
C607 C198 2.076 . S
C612 C338 2.033 . S
C623 C348 1.778 . S
C628 C218 1.722 . S
C639 C308 1.958 . S
C644 C238 1.900 . S
C655 C8 1.450 . S
C660 C89 1.375 . S
C671 C119 1.696 . S
C676 C38 1.718 . S
C687 C79 1.551 . S
C692 C48 1.490 . S
C703 C99 1.713 . S
C708 C58 1.762 . S
C719 C109 1.590 . S
C724 C18 1.579 . S
C735 C69 1.426 . S
C740 C28 1.541 . S
C751 C219 1.788 . S
C756 C138 1.723 . S
C767 C239 1.810 . S
C772 C158 1.807 . S
C783 C199 1.816 . S
C788 C178 1.757 . S
C799 C209 1.415 . S
C804 C168 1.490 . S
C815 C229 1.397 . S
C820 C128 1.478 . S
C831 C189 1.447 . S
C836 C148 1.395 . S
C847 C329 1.463 . S
C852 C248 1.489 . S
C863 C359 1.726 . S
C868 C278 1.734 . S
C879 C288 1.500 . S
C884 C319 1.598 . S
C895 C298 1.804 . S
C900 C339 1.854 . S
C911 C258 1.685 . S
C916 C349 1.511 . S
C927 C309 1.448 . S
C932 C268 1.483 . S
C943 C1 1.382 . S
C948 C2 1.382 . S
C959 C22 1.417 . S
C964 C21 1.417 . S
C975 C41 1.413 1_565 S
C980 C42 1.416 . S
C991 C62 1.355 . S
C996 C61 1.355 . S
C1007 C82 1.392 . S
C1012 C81 1.392 . S
C1023 C101 1.370 . S
C1028 C102 1.370 . S
C1039 C121 1.486 . S
C1044 C122 1.486 . S
C1055 C142 1.384 . S
C1060 C141 1.384 . S
C1071 C161 1.478 . S
C1076 C162 1.478 . S
C1087 C182 1.379 . S
C1092 C181 1.379 . S
C1103 C202 1.475 . S
C1108 C201 1.475 . S
C1119 C222 1.384 . S
C1124 C221 1.384 . S
C1135 C242 1.378 . S
C1140 C241 1.378 . S
C1151 C262 1.359 . S
C1156 C261 1.359 . S
C1167 C281 1.395 . S
C1172 C282 1.395 . S
C1183 C301 1.405 . S
C1188 C302 1.405 . S
C1199 C322 1.322 . S
C1204 C321 1.322 . S
C1215 C342 1.399 . S
C1220 C341 1.399 . S
