# Generated by pormake.
# Topology fch, (5)-cn, num edge types: 1
# Building blocks:
#     Node 0, Type 0, BuildingBlock: XOMCOT_clean_sbu_1, # of connection points: 5
#     Node 1, Type 0, BuildingBlock: XOMCOT_clean_sbu_1, # of connection points: 5
#     Node 2, Type 0, BuildingBlock: XOMCOT_clean_sbu_1, # of connection points: 5
#     Node 3, Type 0, BuildingBlock: XOMCOT_clean_sbu_1, # of connection points: 5
#     Node 4, Type 0, BuildingBlock: XOMCOT_clean_sbu_1, # of connection points: 5
#     Node 5, Type 0, BuildingBlock: XOMCOT_clean_sbu_1, # of connection points: 5
#     Node 6, Type 0, BuildingBlock: XOMCOT_clean_sbu_1, # of connection points: 5
#     Node 7, Type 0, BuildingBlock: XOMCOT_clean_sbu_1, # of connection points: 5
#     Node 8, Type 0, BuildingBlock: XOMCOT_clean_sbu_1, # of connection points: 5
#     Node 9, Type 0, BuildingBlock: XOMCOT_clean_sbu_1, # of connection points: 5
#     Node 10, Type 0, BuildingBlock: XOMCOT_clean_sbu_1, # of connection points: 5
#     Node 11, Type 0, BuildingBlock: XOMCOT_clean_sbu_1, # of connection points: 5
#     Node 12, Type 0, BuildingBlock: XOMCOT_clean_sbu_1, # of connection points: 5
#     Node 13, Type 0, BuildingBlock: XOMCOT_clean_sbu_1, # of connection points: 5
#     Node 14, Type 0, BuildingBlock: XOMCOT_clean_sbu_1, # of connection points: 5
#     Node 15, Type 0, BuildingBlock: XOMCOT_clean_sbu_1, # of connection points: 5
#     Node 16, Type 0, BuildingBlock: XOMCOT_clean_sbu_1, # of connection points: 5
#     Node 17, Type 0, BuildingBlock: XOMCOT_clean_sbu_1, # of connection points: 5
#     Node 18, Type 0, BuildingBlock: XOMCOT_clean_sbu_1, # of connection points: 5
#     Node 19, Type 0, BuildingBlock: XOMCOT_clean_sbu_1, # of connection points: 5
#     Node 20, Type 0, BuildingBlock: XOMCOT_clean_sbu_1, # of connection points: 5
#     Node 21, Type 0, BuildingBlock: XOMCOT_clean_sbu_1, # of connection points: 5
#     Node 22, Type 0, BuildingBlock: XOMCOT_clean_sbu_1, # of connection points: 5
#     Node 23, Type 0, BuildingBlock: XOMCOT_clean_sbu_1, # of connection points: 5
#     Node 24, Type 0, BuildingBlock: XOMCOT_clean_sbu_1, # of connection points: 5
#     Node 25, Type 0, BuildingBlock: XOMCOT_clean_sbu_1, # of connection points: 5
#     Node 26, Type 0, BuildingBlock: XOMCOT_clean_sbu_1, # of connection points: 5
#     Node 27, Type 0, BuildingBlock: XOMCOT_clean_sbu_1, # of connection points: 5
#     Node 28, Type 0, BuildingBlock: XOMCOT_clean_sbu_1, # of connection points: 5
#     Node 29, Type 0, BuildingBlock: XOMCOT_clean_sbu_1, # of connection points: 5
#     Node 30, Type 0, BuildingBlock: XOMCOT_clean_sbu_1, # of connection points: 5
#     Node 31, Type 0, BuildingBlock: XOMCOT_clean_sbu_1, # of connection points: 5
#     Node 32, Type 0, BuildingBlock: XOMCOT_clean_sbu_1, # of connection points: 5
#     Node 33, Type 0, BuildingBlock: XOMCOT_clean_sbu_1, # of connection points: 5
#     Node 34, Type 0, BuildingBlock: XOMCOT_clean_sbu_1, # of connection points: 5
#     Node 35, Type 0, BuildingBlock: XOMCOT_clean_sbu_1, # of connection points: 5
#     Node 36, Type 0, BuildingBlock: XOMCOT_clean_sbu_1, # of connection points: 5
#     Node 37, Type 0, BuildingBlock: XOMCOT_clean_sbu_1, # of connection points: 5
#     Node 38, Type 0, BuildingBlock: XOMCOT_clean_sbu_1, # of connection points: 5
#     Node 39, Type 0, BuildingBlock: XOMCOT_clean_sbu_1, # of connection points: 5
#     Node 40, Type 0, BuildingBlock: XOMCOT_clean_sbu_1, # of connection points: 5
#     Node 41, Type 0, BuildingBlock: XOMCOT_clean_sbu_1, # of connection points: 5
#     Node 42, Type 0, BuildingBlock: XOMCOT_clean_sbu_1, # of connection points: 5
#     Node 43, Type 0, BuildingBlock: XOMCOT_clean_sbu_1, # of connection points: 5
#     Node 44, Type 0, BuildingBlock: XOMCOT_clean_sbu_1, # of connection points: 5
#     Node 45, Type 0, BuildingBlock: XOMCOT_clean_sbu_1, # of connection points: 5
#     Node 46, Type 0, BuildingBlock: XOMCOT_clean_sbu_1, # of connection points: 5
#     Node 47, Type 0, BuildingBlock: XOMCOT_clean_sbu_1, # of connection points: 5
#     Edge 48, Type (0, 0), BuildingBlock: CIFDUS_clean_linker_0, # of connection points: 2
#     Edge 49, Type (0, 0), BuildingBlock: CIFDUS_clean_linker_0, # of connection points: 2
#     Edge 50, Type (0, 0), BuildingBlock: CIFDUS_clean_linker_0, # of connection points: 2
#     Edge 51, Type (0, 0), BuildingBlock: CIFDUS_clean_linker_0, # of connection points: 2
#     Edge 52, Type (0, 0), BuildingBlock: CIFDUS_clean_linker_0, # of connection points: 2
#     Edge 53, Type (0, 0), BuildingBlock: CIFDUS_clean_linker_0, # of connection points: 2
#     Edge 54, Type (0, 0), BuildingBlock: CIFDUS_clean_linker_0, # of connection points: 2
#     Edge 55, Type (0, 0), BuildingBlock: CIFDUS_clean_linker_0, # of connection points: 2
#     Edge 56, Type (0, 0), BuildingBlock: CIFDUS_clean_linker_0, # of connection points: 2
#     Edge 57, Type (0, 0), BuildingBlock: CIFDUS_clean_linker_0, # of connection points: 2
#     Edge 58, Type (0, 0), BuildingBlock: CIFDUS_clean_linker_0, # of connection points: 2
#     Edge 59, Type (0, 0), BuildingBlock: CIFDUS_clean_linker_0, # of connection points: 2
#     Edge 60, Type (0, 0), BuildingBlock: CIFDUS_clean_linker_0, # of connection points: 2
#     Edge 61, Type (0, 0), BuildingBlock: CIFDUS_clean_linker_0, # of connection points: 2
#     Edge 62, Type (0, 0), BuildingBlock: CIFDUS_clean_linker_0, # of connection points: 2
#     Edge 63, Type (0, 0), BuildingBlock: CIFDUS_clean_linker_0, # of connection points: 2
#     Edge 64, Type (0, 0), BuildingBlock: CIFDUS_clean_linker_0, # of connection points: 2
#     Edge 65, Type (0, 0), BuildingBlock: CIFDUS_clean_linker_0, # of connection points: 2
#     Edge 66, Type (0, 0), BuildingBlock: CIFDUS_clean_linker_0, # of connection points: 2
#     Edge 67, Type (0, 0), BuildingBlock: CIFDUS_clean_linker_0, # of connection points: 2
#     Edge 68, Type (0, 0), BuildingBlock: CIFDUS_clean_linker_0, # of connection points: 2
#     Edge 69, Type (0, 0), BuildingBlock: CIFDUS_clean_linker_0, # of connection points: 2
#     Edge 70, Type (0, 0), BuildingBlock: CIFDUS_clean_linker_0, # of connection points: 2
#     Edge 71, Type (0, 0), BuildingBlock: CIFDUS_clean_linker_0, # of connection points: 2
#     Edge 72, Type (0, 0), BuildingBlock: CIFDUS_clean_linker_0, # of connection points: 2
#     Edge 73, Type (0, 0), BuildingBlock: CIFDUS_clean_linker_0, # of connection points: 2
#     Edge 74, Type (0, 0), BuildingBlock: CIFDUS_clean_linker_0, # of connection points: 2
#     Edge 75, Type (0, 0), BuildingBlock: CIFDUS_clean_linker_0, # of connection points: 2
#     Edge 76, Type (0, 0), BuildingBlock: CIFDUS_clean_linker_0, # of connection points: 2
#     Edge 77, Type (0, 0), BuildingBlock: CIFDUS_clean_linker_0, # of connection points: 2
#     Edge 78, Type (0, 0), BuildingBlock: CIFDUS_clean_linker_0, # of connection points: 2
#     Edge 79, Type (0, 0), BuildingBlock: CIFDUS_clean_linker_0, # of connection points: 2
#     Edge 80, Type (0, 0), BuildingBlock: CIFDUS_clean_linker_0, # of connection points: 2
#     Edge 81, Type (0, 0), BuildingBlock: CIFDUS_clean_linker_0, # of connection points: 2
#     Edge 82, Type (0, 0), BuildingBlock: CIFDUS_clean_linker_0, # of connection points: 2
#     Edge 83, Type (0, 0), BuildingBlock: CIFDUS_clean_linker_0, # of connection points: 2
#     Edge 84, Type (0, 0), BuildingBlock: CIFDUS_clean_linker_0, # of connection points: 2
#     Edge 85, Type (0, 0), BuildingBlock: CIFDUS_clean_linker_0, # of connection points: 2
#     Edge 86, Type (0, 0), BuildingBlock: CIFDUS_clean_linker_0, # of connection points: 2
#     Edge 87, Type (0, 0), BuildingBlock: CIFDUS_clean_linker_0, # of connection points: 2
#     Edge 88, Type (0, 0), BuildingBlock: CIFDUS_clean_linker_0, # of connection points: 2
#     Edge 89, Type (0, 0), BuildingBlock: CIFDUS_clean_linker_0, # of connection points: 2
#     Edge 90, Type (0, 0), BuildingBlock: CIFDUS_clean_linker_0, # of connection points: 2
#     Edge 91, Type (0, 0), BuildingBlock: CIFDUS_clean_linker_0, # of connection points: 2
#     Edge 92, Type (0, 0), BuildingBlock: CIFDUS_clean_linker_0, # of connection points: 2
#     Edge 93, Type (0, 0), BuildingBlock: CIFDUS_clean_linker_0, # of connection points: 2
#     Edge 94, Type (0, 0), BuildingBlock: CIFDUS_clean_linker_0, # of connection points: 2
#     Edge 95, Type (0, 0), BuildingBlock: CIFDUS_clean_linker_0, # of connection points: 2
#     Edge 96, Type (0, 0), BuildingBlock: CIFDUS_clean_linker_0, # of connection points: 2
#     Edge 97, Type (0, 0), BuildingBlock: CIFDUS_clean_linker_0, # of connection points: 2
#     Edge 98, Type (0, 0), BuildingBlock: CIFDUS_clean_linker_0, # of connection points: 2
#     Edge 99, Type (0, 0), BuildingBlock: CIFDUS_clean_linker_0, # of connection points: 2
#     Edge 100, Type (0, 0), BuildingBlock: CIFDUS_clean_linker_0, # of connection points: 2
#     Edge 101, Type (0, 0), BuildingBlock: CIFDUS_clean_linker_0, # of connection points: 2
#     Edge 102, Type (0, 0), BuildingBlock: CIFDUS_clean_linker_0, # of connection points: 2
#     Edge 103, Type (0, 0), BuildingBlock: CIFDUS_clean_linker_0, # of connection points: 2
#     Edge 104, Type (0, 0), BuildingBlock: CIFDUS_clean_linker_0, # of connection points: 2
#     Edge 105, Type (0, 0), BuildingBlock: CIFDUS_clean_linker_0, # of connection points: 2
#     Edge 106, Type (0, 0), BuildingBlock: CIFDUS_clean_linker_0, # of connection points: 2
#     Edge 107, Type (0, 0), BuildingBlock: CIFDUS_clean_linker_0, # of connection points: 2
#     Edge 108, Type (0, 0), BuildingBlock: CIFDUS_clean_linker_0, # of connection points: 2
#     Edge 109, Type (0, 0), BuildingBlock: CIFDUS_clean_linker_0, # of connection points: 2
#     Edge 110, Type (0, 0), BuildingBlock: CIFDUS_clean_linker_0, # of connection points: 2
#     Edge 111, Type (0, 0), BuildingBlock: CIFDUS_clean_linker_0, # of connection points: 2
#     Edge 112, Type (0, 0), BuildingBlock: CIFDUS_clean_linker_0, # of connection points: 2
#     Edge 113, Type (0, 0), BuildingBlock: CIFDUS_clean_linker_0, # of connection points: 2
#     Edge 114, Type (0, 0), BuildingBlock: CIFDUS_clean_linker_0, # of connection points: 2
#     Edge 115, Type (0, 0), BuildingBlock: CIFDUS_clean_linker_0, # of connection points: 2
#     Edge 116, Type (0, 0), BuildingBlock: CIFDUS_clean_linker_0, # of connection points: 2
#     Edge 117, Type (0, 0), BuildingBlock: CIFDUS_clean_linker_0, # of connection points: 2
#     Edge 118, Type (0, 0), BuildingBlock: CIFDUS_clean_linker_0, # of connection points: 2
#     Edge 119, Type (0, 0), BuildingBlock: CIFDUS_clean_linker_0, # of connection points: 2
#     Edge 120, Type (0, 0), BuildingBlock: CIFDUS_clean_linker_0, # of connection points: 2
#     Edge 121, Type (0, 0), BuildingBlock: CIFDUS_clean_linker_0, # of connection points: 2
#     Edge 122, Type (0, 0), BuildingBlock: CIFDUS_clean_linker_0, # of connection points: 2
#     Edge 123, Type (0, 0), BuildingBlock: CIFDUS_clean_linker_0, # of connection points: 2
#     Edge 124, Type (0, 0), BuildingBlock: CIFDUS_clean_linker_0, # of connection points: 2
#     Edge 125, Type (0, 0), BuildingBlock: CIFDUS_clean_linker_0, # of connection points: 2
#     Edge 126, Type (0, 0), BuildingBlock: CIFDUS_clean_linker_0, # of connection points: 2
#     Edge 127, Type (0, 0), BuildingBlock: CIFDUS_clean_linker_0, # of connection points: 2
#     Edge 128, Type (0, 0), BuildingBlock: CIFDUS_clean_linker_0, # of connection points: 2
#     Edge 129, Type (0, 0), BuildingBlock: CIFDUS_clean_linker_0, # of connection points: 2
#     Edge 130, Type (0, 0), BuildingBlock: CIFDUS_clean_linker_0, # of connection points: 2
#     Edge 131, Type (0, 0), BuildingBlock: CIFDUS_clean_linker_0, # of connection points: 2
#     Edge 132, Type (0, 0), BuildingBlock: CIFDUS_clean_linker_0, # of connection points: 2
#     Edge 133, Type (0, 0), BuildingBlock: CIFDUS_clean_linker_0, # of connection points: 2
#     Edge 134, Type (0, 0), BuildingBlock: CIFDUS_clean_linker_0, # of connection points: 2
#     Edge 135, Type (0, 0), BuildingBlock: CIFDUS_clean_linker_0, # of connection points: 2
#     Edge 136, Type (0, 0), BuildingBlock: CIFDUS_clean_linker_0, # of connection points: 2
#     Edge 137, Type (0, 0), BuildingBlock: CIFDUS_clean_linker_0, # of connection points: 2
#     Edge 138, Type (0, 0), BuildingBlock: CIFDUS_clean_linker_0, # of connection points: 2
#     Edge 139, Type (0, 0), BuildingBlock: CIFDUS_clean_linker_0, # of connection points: 2
#     Edge 140, Type (0, 0), BuildingBlock: CIFDUS_clean_linker_0, # of connection points: 2
#     Edge 141, Type (0, 0), BuildingBlock: CIFDUS_clean_linker_0, # of connection points: 2
#     Edge 142, Type (0, 0), BuildingBlock: CIFDUS_clean_linker_0, # of connection points: 2
#     Edge 143, Type (0, 0), BuildingBlock: CIFDUS_clean_linker_0, # of connection points: 2
#     Edge 144, Type (0, 0), BuildingBlock: CIFDUS_clean_linker_0, # of connection points: 2
#     Edge 145, Type (0, 0), BuildingBlock: CIFDUS_clean_linker_0, # of connection points: 2
#     Edge 146, Type (0, 0), BuildingBlock: CIFDUS_clean_linker_0, # of connection points: 2
#     Edge 147, Type (0, 0), BuildingBlock: CIFDUS_clean_linker_0, # of connection points: 2
#     Edge 148, Type (0, 0), BuildingBlock: CIFDUS_clean_linker_0, # of connection points: 2
#     Edge 149, Type (0, 0), BuildingBlock: CIFDUS_clean_linker_0, # of connection points: 2
#     Edge 150, Type (0, 0), BuildingBlock: CIFDUS_clean_linker_0, # of connection points: 2
#     Edge 151, Type (0, 0), BuildingBlock: CIFDUS_clean_linker_0, # of connection points: 2
#     Edge 152, Type (0, 0), BuildingBlock: CIFDUS_clean_linker_0, # of connection points: 2
#     Edge 153, Type (0, 0), BuildingBlock: CIFDUS_clean_linker_0, # of connection points: 2
#     Edge 154, Type (0, 0), BuildingBlock: CIFDUS_clean_linker_0, # of connection points: 2
#     Edge 155, Type (0, 0), BuildingBlock: CIFDUS_clean_linker_0, # of connection points: 2
#     Edge 156, Type (0, 0), BuildingBlock: CIFDUS_clean_linker_0, # of connection points: 2
#     Edge 157, Type (0, 0), BuildingBlock: CIFDUS_clean_linker_0, # of connection points: 2
#     Edge 158, Type (0, 0), BuildingBlock: CIFDUS_clean_linker_0, # of connection points: 2
#     Edge 159, Type (0, 0), BuildingBlock: CIFDUS_clean_linker_0, # of connection points: 2
#     Edge 160, Type (0, 0), BuildingBlock: CIFDUS_clean_linker_0, # of connection points: 2
#     Edge 161, Type (0, 0), BuildingBlock: CIFDUS_clean_linker_0, # of connection points: 2
#     Edge 162, Type (0, 0), BuildingBlock: CIFDUS_clean_linker_0, # of connection points: 2
#     Edge 163, Type (0, 0), BuildingBlock: CIFDUS_clean_linker_0, # of connection points: 2
#     Edge 164, Type (0, 0), BuildingBlock: CIFDUS_clean_linker_0, # of connection points: 2
#     Edge 165, Type (0, 0), BuildingBlock: CIFDUS_clean_linker_0, # of connection points: 2
#     Edge 166, Type (0, 0), BuildingBlock: CIFDUS_clean_linker_0, # of connection points: 2
#     Edge 167, Type (0, 0), BuildingBlock: CIFDUS_clean_linker_0, # of connection points: 2
# Relax obj value: 0.580
# Max RMSD: 0.223
# Mean RMSD: 0.223
data_MOF--net-fch--node1-XOMCOT_clean_sbu_1--edge1-CIFDUS_clean_linker_0
_symmetry_space_group_name_H-M    P1
_symmetry_Int_Tables_number       1
_symmetry_cell_setting            triclinic
loop_
_symmetry_equiv_pos_as_xyz
'x, y, z'
_cell_length_a     69.497275
_cell_length_b     69.484731
_cell_length_c     69.5181
_cell_angle_alpha  90.013454
_cell_angle_beta   90.006528
_cell_angle_gamma 90.014931
loop_
_atom_site_label
_atom_site_type_symbol
_atom_site_fract_x
_atom_site_fract_y
_atom_site_fract_z
_atom_type_partial_charge
C0 C 0.01679 0.38763 0.13989 0.0
C1 C 0.00029 0.3819 0.13052 0.0
N2 N 2e-05 0.3902 0.11303 0.0
N3 N 0.02681 0.39971 0.12841 0.0
C4 C 0.01648 0.40037 0.11196 0.0
H5 H 0.02057 0.38372 0.15441 0.0
Co6 Co 0.04915 0.41442 0.13238 0.0
C7 C 0.01877 0.44358 0.12373 0.0
O8 O 0.00623 0.43391 0.13409 0.0
N9 N 0.07145 0.4287 0.13583 0.0
C10 C 0.09842 0.44113 0.14765 0.0
C11 C 0.08537 0.42625 0.14912 0.0
C12 C 0.07656 0.44469 0.12617 0.0
N13 N 0.09276 0.45272 0.13318 0.0
O14 O 0.05746 0.40806 0.1073 0.0
H15 H 0.08573 0.41469 0.15953 0.0
H16 H 0.0682 0.45069 0.11456 0.0
O17 O 0.03599 0.43728 0.1221 0.0
C18 C 0.06946 0.39435 0.10581 0.0
O19 O 0.0747 0.38504 0.1214 0.0
N20 N 0.04229 0.4204 0.15779 0.0
C21 C 0.04463 0.42894 0.19693 0.0
C22 C 0.03956 0.44316 0.18361 0.0
C23 C 0.03902 0.43876 0.1641 0.0
C24 C 0.04661 0.40623 0.17063 0.0
C25 C 0.04765 0.41011 0.1903 0.0
H26 H 0.03784 0.45065 0.15426 0.0
H27 H 0.05092 0.39221 0.16544 0.0
H28 H 0.0205 0.40914 0.09973 0.0
H29 H 0.98882 0.3733 0.13662 0.0
H30 H 0.11096 0.44331 0.15663 0.0
H31 H 0.03725 0.45792 0.18806 0.0
H32 H 0.05222 0.3988 0.19998 0.0
C33 C 0.6128 0.0162 0.13661 0.0
C34 C 0.61632 0.99785 0.12969 0.0
N35 N 0.60303 0.99386 0.11613 0.0
N36 N 0.59739 0.02351 0.12737 0.0
C37 C 0.59202 0.0097 0.11489 0.0
H38 H 0.62076 0.02361 0.14775 0.0
Co39 Co 0.58468 0.0468 0.12943 0.0
C40 C 0.54316 0.03542 0.13177 0.0
O41 O 0.53934 0.04931 0.14401 0.0
N42 N 0.57145 0.07066 0.13048 0.0
C43 C 0.55672 0.09824 0.13769 0.0
C44 C 0.57162 0.08606 0.14241 0.0
C45 C 0.55724 0.07474 0.11786 0.0
N46 N 0.54741 0.0908 0.12243 0.0
O47 O 0.58759 0.05039 0.10263 0.0
H48 H 0.58128 0.08838 0.15428 0.0
H49 H 0.55336 0.06525 0.10615 0.0
O50 O 0.56021 0.03324 0.1252 0.0
C51 C 0.60227 0.05984 0.09725 0.0
O52 O 0.61464 0.06573 0.11029 0.0
N53 N 0.58277 0.04334 0.15612 0.0
C54 C 0.57493 0.04592 0.19516 0.0
C55 C 0.56791 0.03036 0.18431 0.0
C56 C 0.57224 0.02919 0.16475 0.0
C57 C 0.593 0.05586 0.16711 0.0
C58 C 0.58873 0.05801 0.18658 0.0
H59 H 0.56641 0.0174 0.15648 0.0
H60 H 0.60326 0.06542 0.16037 0.0
H61 H 0.58024 0.01133 0.10485 0.0
H62 H 0.62744 0.9881 0.13457 0.0
H63 H 0.5524 0.11089 0.14567 0.0
H64 H 0.5585 0.01965 0.19059 0.0
H65 H 0.59525 0.06986 0.19427 0.0
C66 C 0.98922 0.61031 0.13285 0.0
C67 C 0.00527 0.61606 0.12274 0.0
N68 N 0.0046 0.60799 0.10513 0.0
N69 N 0.97862 0.59844 0.12173 0.0
C70 C 0.98802 0.59794 0.10474 0.0
H71 H 0.98604 0.61393 0.14762 0.0
Co72 Co 0.95645 0.58453 0.1277 0.0
C73 C 0.98556 0.55262 0.11796 0.0
O74 O 0.00114 0.56329 0.1185 0.0
N75 N 0.93393 0.57093 0.13321 0.0
C76 C 0.90606 0.56024 0.14487 0.0
C77 C 0.91922 0.57509 0.14523 0.0
C78 C 0.92894 0.554 0.12516 0.0
N79 N 0.9123 0.54701 0.13219 0.0
O80 O 0.9483 0.58617 0.10182 0.0
H81 H 0.91794 0.58806 0.15368 0.0
H82 H 0.93746 0.54679 0.11434 0.0
O83 O 0.96911 0.56001 0.12166 0.0
C84 C 0.93872 0.60048 0.09574 0.0
O85 O 0.93547 0.61505 0.10734 0.0
N86 N 0.96356 0.58305 0.15377 0.0
C87 C 0.96107 0.57665 0.19317 0.0
C88 C 0.97342 0.56553 0.18174 0.0
C89 C 0.97433 0.56884 0.16201 0.0
C90 C 0.95403 0.59592 0.16505 0.0
C91 C 0.95222 0.59278 0.1848 0.0
H92 H 0.98285 0.55911 0.15362 0.0
H93 H 0.94609 0.60753 0.15839 0.0
H94 H 0.98344 0.58918 0.09271 0.0
H95 H 0.01712 0.62443 0.12841 0.0
H96 H 0.89287 0.55934 0.1531 0.0
H97 H 0.98138 0.55355 0.18773 0.0
H98 H 0.94269 0.602 0.19296 0.0
C99 C 0.38052 0.97786 0.14332 0.0
C100 C 0.37382 0.99562 0.13764 0.0
N101 N 0.38688 0.00357 0.12567 0.0
N102 N 0.39777 0.97473 0.1351 0.0
C103 C 0.40121 0.99052 0.12437 0.0
H104 H 0.37324 0.96777 0.15266 0.0
Co105 Co 0.41249 0.95276 0.13708 0.0
C106 C 0.45326 0.9662 0.13621 0.0
O107 O 0.45832 0.95286 0.14863 0.0
N108 N 0.42714 0.92982 0.13849 0.0
C109 C 0.44132 0.90206 0.14612 0.0
C110 C 0.42708 0.91489 0.15102 0.0
C111 C 0.44071 0.9249 0.12544 0.0
N112 N 0.44994 0.90852 0.13009 0.0
O113 O 0.40872 0.94795 0.11054 0.0
H114 H 0.41753 0.91306 0.16305 0.0
H115 H 0.4446 0.93388 0.11332 0.0
O116 O 0.43572 0.96767 0.13081 0.0
C117 C 0.39657 0.93513 0.10584 0.0
O118 O 0.38633 0.92686 0.11941 0.0
N119 N 0.41552 0.95752 0.16353 0.0
C120 C 0.42513 0.95661 0.20209 0.0
C121 C 0.43193 0.97152 0.19037 0.0
C122 C 0.42649 0.972 0.17107 0.0
C123 C 0.40574 0.94555 0.17552 0.0
C124 C 0.4108 0.94436 0.19488 0.0
H125 H 0.43193 0.98345 0.16211 0.0
H126 H 0.39515 0.93573 0.16968 0.0
H127 H 0.41402 0.99236 0.11576 0.0
H128 H 0.3602 0.00196 0.14172 0.0
H129 H 0.44517 0.88911 0.15386 0.0
H130 H 0.44231 0.98187 0.19567 0.0
H131 H 0.40437 0.93334 0.20383 0.0
C132 C 0.01334 0.60854 0.86277 0.0
C133 C 0.99593 0.61294 0.8712 0.0
N134 N 0.99149 0.59883 0.88379 0.0
N135 N 0.01966 0.59168 0.86989 0.0
C136 C 0.00617 0.58621 0.88268 0.0
H137 H 0.02106 0.61723 0.85242 0.0
Co138 Co 0.04267 0.5793 0.86548 0.0
C139 C 0.03292 0.53695 0.86607 0.0
O140 O 0.0472 0.53248 0.85453 0.0
N141 N 0.06653 0.56689 0.86166 0.0
C142 C 0.09396 0.55409 0.85104 0.0
C143 C 0.07932 0.56678 0.84696 0.0
C144 C 0.07429 0.55481 0.87476 0.0
N145 N 0.09066 0.5466 0.86854 0.0
O146 O 0.04889 0.58223 0.89189 0.0
H147 H 0.0782 0.57485 0.83379 0.0
H148 H 0.06721 0.55088 0.88806 0.0
O149 O 0.0301 0.55449 0.87095 0.0
C150 C 0.06016 0.59615 0.89566 0.0
O151 O 0.06564 0.60749 0.88156 0.0
N152 N 0.03673 0.57773 0.83928 0.0
C153 C 0.0366 0.57428 0.79962 0.0
C154 C 0.02446 0.56273 0.81081 0.0
C155 C 0.02446 0.56494 0.83076 0.0
C156 C 0.04601 0.59114 0.82844 0.0
C157 C 0.04654 0.58942 0.80849 0.0
H158 H 0.0151 0.5559 0.83917 0.0
H159 H 0.05458 0.60209 0.83546 0.0
H160 H 0.00722 0.57322 0.89114 0.0
H161 H 0.98749 0.62575 0.86855 0.0
H162 H 0.10577 0.55024 0.84164 0.0
H163 H 0.016 0.55132 0.80438 0.0
H164 H 0.05552 0.5991 0.8002 0.0
C165 C 0.38073 0.02255 0.8638 0.0
C166 C 0.37361 0.00573 0.87134 0.0
N167 N 0.38788 0.99686 0.88104 0.0
N168 N 0.39944 0.02421 0.86856 0.0
C169 C 0.40339 0.00844 0.87915 0.0
H170 H 0.37269 0.03315 0.85575 0.0
Co171 Co 0.41426 0.04547 0.86297 0.0
C172 C 0.45529 0.03164 0.86191 0.0
O173 O 0.4601 0.04438 0.84881 0.0
N174 N 0.42855 0.06787 0.85762 0.0
C175 C 0.43934 0.09566 0.84578 0.0
C176 C 0.42579 0.0814 0.84389 0.0
C177 C 0.44331 0.07484 0.86819 0.0
N178 N 0.45048 0.09135 0.86096 0.0
O179 O 0.41377 0.05254 0.88929 0.0
H180 H 0.41453 0.08144 0.83326 0.0
H181 H 0.44884 0.06777 0.88092 0.0
O182 O 0.43789 0.03053 0.86787 0.0
C183 C 0.40079 0.06425 0.89462 0.0
O184 O 0.38826 0.07039 0.88187 0.0
N185 N 0.41379 0.03862 0.83685 0.0
C186 C 0.41505 0.03714 0.79703 0.0
C187 C 0.42646 0.02468 0.80804 0.0
C188 C 0.42527 0.02531 0.82806 0.0
C189 C 0.40038 0.04834 0.82642 0.0
C190 C 0.40099 0.04816 0.80639 0.0
H191 H 0.43403 0.01551 0.83624 0.0
H192 H 0.39027 0.05767 0.8337 0.0
H193 H 0.4173 0.0056 0.88551 0.0
H194 H 0.3589 0.00073 0.87022 0.0
H195 H 0.44099 0.1081 0.83655 0.0
H196 H 0.43676 0.01513 0.80127 0.0
H197 H 0.39155 0.0577 0.79846 0.0
C198 C 0.97261 0.37204 0.86562 0.0
C199 C 0.98992 0.36545 0.87258 0.0
N200 N -0.00094 0.38025 0.88119 0.0
N201 N 0.97095 0.39091 0.86969 0.0
C202 C 0.98718 0.39549 0.87926 0.0
H203 H 0.96178 0.3636 0.8583 0.0
Co204 Co 0.9497 0.40571 0.86417 0.0
C205 C 0.96367 0.44666 0.86233 0.0
O206 O 0.95092 0.45118 0.84914 0.0
N207 N 0.92735 0.42017 0.8589 0.0
C208 C 0.90001 0.43186 0.84692 0.0
C209 C 0.91394 0.41799 0.84496 0.0
C210 C 0.92063 0.43493 0.86965 0.0
N211 N 0.90437 0.44264 0.86237 0.0
O212 O 0.94286 0.40536 0.89053 0.0
H213 H 0.91381 0.40702 0.83403 0.0
H214 H 0.92776 0.4401 0.88249 0.0
O215 O 0.9647 0.42941 0.86874 0.0
C216 C 0.93027 0.39316 0.89571 0.0
O217 O 0.92302 0.38144 0.88276 0.0
N218 N 0.95638 0.40499 0.83808 0.0
C219 C 0.95782 0.40623 0.79833 0.0
C220 C 0.97068 0.41723 0.8093 0.0
C221 C 0.97005 0.41603 0.82931 0.0
C222 C 0.94638 0.39174 0.82768 0.0
C223 C 0.94652 0.39237 0.80765 0.0
H224 H 0.98012 0.42449 0.8375 0.0
H225 H 0.93683 0.38185 0.83499 0.0
H226 H 0.99023 0.40973 0.88473 0.0
H227 H 0.99514 0.3508 0.8717 0.0
H228 H 0.88782 0.43401 0.83748 0.0
H229 H 0.98045 0.42732 0.80253 0.0
H230 H 0.93671 0.38322 0.79971 0.0
C231 C 0.61601 0.9795 0.85915 0.0
C232 C 0.62181 0.99709 0.86613 0.0
N233 N 0.60958 0.00242 0.88023 0.0
N234 N 0.60012 0.97388 0.86869 0.0
C235 C 0.59661 0.98801 0.8815 0.0
H236 H 0.62292 0.97131 0.84787 0.0
Co237 Co 0.58699 0.9511 0.86535 0.0
C238 C 0.54534 0.96273 0.86554 0.0
O239 O 0.54118 0.94979 0.85239 0.0
N240 N 0.57421 0.92735 0.86245 0.0
C241 C 0.56387 0.89835 0.85348 0.0
C242 C 0.57752 0.91234 0.85049 0.0
C243 C 0.55946 0.9213 0.87355 0.0
N244 N 0.55234 0.90418 0.86786 0.0
O245 O 0.59041 0.94503 0.89173 0.0
H246 H 0.58905 0.91123 0.84023 0.0
H247 H 0.55335 0.92991 0.88498 0.0
O248 O 0.56265 0.96447 0.87165 0.0
C249 C 0.60588 0.9366 0.89662 0.0
O250 O 0.61949 0.93427 0.8837 0.0
N251 N 0.58421 0.95686 0.83901 0.0
C252 C 0.57493 0.95675 0.8003 0.0
C253 C 0.5672 0.97079 0.81253 0.0
C254 C 0.57254 0.97097 0.83187 0.0
C255 C 0.59476 0.94593 0.82668 0.0
C256 C 0.58995 0.94515 0.80723 0.0
H257 H 0.56653 0.98186 0.84114 0.0
H258 H 0.60603 0.93675 0.8322 0.0
H259 H 0.585 0.98747 0.89185 0.0
H260 H 0.63398 0.00535 0.86103 0.0
H261 H 0.5624 0.88505 0.8455 0.0
H262 H 0.55654 0.98095 0.80742 0.0
H263 H 0.59698 0.93462 0.79815 0.0
C264 C 0.14327 0.01593 0.39047 0.0
C265 C 0.13902 0.99725 0.38548 0.0
N266 N 0.12428 0.99112 0.39653 0.0
N267 N 0.1314 0.02149 0.40473 0.0
C268 C 0.12 0.00614 0.4081 0.0
H269 H 0.15407 0.02495 0.38386 0.0
Co270 Co 0.12975 0.04558 0.41584 0.0
C271 C 0.12962 0.03872 0.4583 0.0
O272 O 0.13981 0.0544 0.46113 0.0
N273 N 0.12743 0.07038 0.42685 0.0
C274 C 0.1315 0.09958 0.43933 0.0
C275 C 0.1385 0.08637 0.42637 0.0
C276 C 0.11309 0.07495 0.43912 0.0
N277 N 0.11569 0.09215 0.44771 0.0
O278 O 0.10278 0.04586 0.41138 0.0
H279 H 0.15136 0.08836 0.41797 0.0
H280 H 0.10172 0.06499 0.44277 0.0
O281 O 0.12524 0.03348 0.44116 0.0
C282 C 0.0975 0.05658 0.39756 0.0
O283 O 0.11078 0.06366 0.38611 0.0
N284 N 0.15655 0.04571 0.41932 0.0
C285 C 0.19499 0.05435 0.42588 0.0
C286 C 0.18565 0.04019 0.43686 0.0
C287 C 0.1665 0.03564 0.43293 0.0
C288 C 0.1662 0.05702 0.40659 0.0
C289 C 0.18541 0.06184 0.40977 0.0
H290 H 0.15963 0.02458 0.44136 0.0
H291 H 0.15849 0.06357 0.39476 0.0
H292 H 0.10827 0.00632 0.41834 0.0
H293 H 0.14619 0.98895 0.37443 0.0
H294 H 0.13846 0.11295 0.44324 0.0
H295 H 0.19265 0.03338 0.44899 0.0
H296 H 0.19238 0.07195 0.40019 0.0
C297 C 0.98075 0.14302 0.39437 0.0
C298 C -0.00125 0.13779 0.38826 0.0
N299 N 0.00559 0.12416 0.40025 0.0
N300 N 0.97626 0.13294 0.41028 0.0
C301 C 0.99159 0.12148 0.41353 0.0
H302 H 0.97115 0.1529 0.38715 0.0
Co303 Co 0.95208 0.13311 0.4211 0.0
C304 C 0.95644 0.13496 0.46324 0.0
O305 O 0.94265 0.14791 0.46307 0.0
N306 N 0.92679 0.13261 0.43128 0.0
C307 C 0.8971 0.13831 0.44198 0.0
C308 C 0.9114 0.14449 0.42978 0.0
C309 C 0.92082 0.11871 0.44349 0.0
N310 N 0.90317 0.12212 0.45057 0.0
O311 O 0.95002 0.10619 0.41682 0.0
H312 H 0.91045 0.15727 0.42112 0.0
H313 H 0.93 0.10718 0.44855 0.0
O314 O 0.96275 0.12802 0.44731 0.0
C315 C 0.94001 0.10107 0.4024 0.0
O316 O 0.93352 0.11441 0.39068 0.0
N317 N 0.95417 0.15995 0.42431 0.0
C318 C 0.95198 0.19942 0.43 0.0
C319 C 0.96562 0.18844 0.44001 0.0
C320 C 0.96686 0.1687 0.43653 0.0
C321 C 0.94327 0.17085 0.41224 0.0
C322 C 0.94149 0.1906 0.41518 0.0
H323 H 0.97754 0.16043 0.44419 0.0
H324 H 0.93515 0.16398 0.40087 0.0
H325 H 0.99215 0.11097 0.42499 0.0
H326 H 0.00578 0.14293 0.37536 0.0
H327 H 0.88372 0.14567 0.44506 0.0
H328 H 0.97463 0.19482 0.45101 0.0
H329 H 0.93164 0.1988 0.40632 0.0
C330 C 0.86433 0.97792 0.38364 0.0
C331 C 0.87027 0.99564 0.37715 0.0
N332 N 0.88105 0.00394 0.39099 0.0
N333 N 0.87116 0.97513 0.40155 0.0
C334 C 0.88136 0.99114 0.40561 0.0
H335 H 0.85608 0.96747 0.37558 0.0
Co336 Co 0.86908 0.95265 0.41554 0.0
C337 C 0.86846 0.96461 0.45727 0.0
O338 O 0.85803 0.94965 0.46222 0.0
N339 N 0.86746 0.92924 0.42913 0.0
C340 C 0.85884 0.90095 0.44148 0.0
C341 C 0.85426 0.91494 0.42831 0.0
C342 C 0.88041 0.92301 0.44223 0.0
N343 N 0.87523 0.90615 0.45029 0.0
O344 O 0.89608 0.94906 0.41344 0.0
H345 H 0.8419 0.91441 0.41901 0.0
H346 H 0.89278 0.93135 0.44672 0.0
O347 O 0.87308 0.96725 0.43962 0.0
C348 C 0.90183 0.93939 0.39902 0.0
O349 O 0.88909 0.93359 0.38631 0.0
N350 N 0.84226 0.9559 0.41648 0.0
C351 C 0.80252 0.95239 0.41837 0.0
C352 C 0.81224 0.96511 0.43064 0.0
C353 C 0.83217 0.96702 0.42915 0.0
C354 C 0.83277 0.94566 0.40273 0.0
C355 C 0.81285 0.94342 0.40357 0.0
H356 H 0.83926 0.97713 0.43848 0.0
H357 H 0.84091 0.93781 0.39203 0.0
H358 H 0.88913 0.9932 0.41893 0.0
H359 H 0.86742 0.0016 0.36306 0.0
H360 H 0.85059 0.8881 0.44457 0.0
H361 H 0.80458 0.97309 0.44162 0.0
H362 H 0.80586 0.93374 0.39355 0.0
C363 C 0.02701 0.8683 0.37664 0.0
C364 C 0.01113 0.87735 0.36896 0.0
N365 N 0.00136 0.88586 0.38341 0.0
N366 N 0.02714 0.87099 0.39582 0.0
C367 C 0.01146 0.88182 0.39949 0.0
H368 H 0.03771 0.86015 0.3688 0.0
Co369 Co 0.04507 0.86172 0.41318 0.0
C370 C 0.02736 0.87238 0.44993 0.0
O371 O 0.04241 0.88314 0.4538 0.0
N372 N 0.06326 0.85215 0.43121 0.0
C373 C 0.07575 0.83484 0.45516 0.0
C374 C 0.06227 0.83521 0.4408 0.0
C375 C 0.07766 0.86174 0.44016 0.0
N376 N 0.08522 0.85168 0.45499 0.0
O377 O 0.05349 0.88745 0.41761 0.0
H378 H 0.05145 0.82427 0.43878 0.0
H379 H 0.08159 0.87643 0.43695 0.0
O380 O 0.02646 0.86331 0.43399 0.0
C381 C 0.06503 0.8936 0.40481 0.0
O382 O 0.06946 0.88216 0.39041 0.0
N383 N 0.03763 0.83674 0.40725 0.0
C384 C 0.03594 0.79701 0.40577 0.0
C385 C 0.02041 0.80759 0.41321 0.0
C386 C 0.02142 0.82766 0.41361 0.0
C387 C 0.05141 0.82693 0.3974 0.0
C388 C 0.05093 0.80693 0.39659 0.0
H389 H 0.00997 0.83566 0.42037 0.0
H390 H 0.06385 0.83456 0.39199 0.0
H391 H 0.00729 0.88632 0.41378 0.0
H392 H 0.00713 0.87762 0.35392 0.0
H393 H 0.07705 0.82385 0.46613 0.0
H394 H 0.0083 0.8004 0.4199 0.0
H395 H 0.06317 0.79938 0.39058 0.0
C396 C 0.13846 0.98135 0.60833 0.0
C397 C 0.1313 -0.00067 0.61264 0.0
N398 N 0.11858 0.0044 0.59885 0.0
N399 N 0.1304 0.97516 0.59185 0.0
C400 C 0.11842 0.98943 0.58644 0.0
H401 H 0.1483 0.97302 0.61704 0.0
Co402 Co 0.1323 0.95104 0.5807 0.0
C403 C 0.13318 0.95804 0.5382 0.0
O404 O 0.14529 0.94373 0.53575 0.0
N405 N 0.13346 0.92631 0.56942 0.0
C406 C 0.14209 0.89893 0.55517 0.0
C407 C 0.14705 0.91238 0.56886 0.0
C408 C 0.11994 0.92023 0.55686 0.0
N409 N 0.1252 0.90421 0.54729 0.0
O410 O 0.10552 0.94738 0.58445 0.0
H411 H 0.16039 0.91235 0.57676 0.0
H412 H 0.10723 0.92854 0.55349 0.0
O413 O 0.12752 0.9626 0.55515 0.0
C414 C 0.10092 0.94148 0.60116 0.0
O415 O 0.11433 0.94051 0.61446 0.0
N416 N 0.15896 0.95418 0.57863 0.0
C417 C 0.19861 0.95045 0.57629 0.0
C418 C 0.18876 0.96265 0.5636 0.0
C419 C 0.16886 0.96479 0.56539 0.0
C420 C 0.16862 0.9445 0.59266 0.0
C421 C 0.18849 0.94218 0.59163 0.0
H422 H 0.16153 0.9745 0.55577 0.0
H423 H 0.1606 0.93719 0.60382 0.0
H424 H 0.10935 0.98852 0.57384 0.0
H425 H 0.13468 0.00758 0.6254 0.0
H426 H 0.15105 0.88715 0.55031 0.0
H427 H 0.19629 0.97004 0.55212 0.0
H428 H 0.19561 0.93294 0.60196 0.0
C429 C 0.01747 0.1398 0.62069 0.0
C430 C 0.00214 0.13045 0.62897 0.0
N431 N -0.00047 0.11361 0.61974 0.0
N432 N 0.02442 0.12906 0.60606 0.0
C433 C 0.01353 0.11294 0.6063 0.0
H434 H 0.02274 0.15373 0.625 0.0
Co435 Co 0.04464 0.13417 0.58892 0.0
C436 C 0.01081 0.12687 0.56285 0.0
O437 O -0.00099 0.13488 0.57526 0.0
N438 N 0.06505 0.13898 0.57251 0.0
C439 C 0.09085 0.1516 0.55849 0.0
C440 C 0.07935 0.15195 0.57462 0.0
C441 C 0.06842 0.13058 0.55542 0.0
N442 N 0.08386 0.13812 0.54646 0.0
O443 O 0.05363 0.1085 0.59209 0.0
H444 H 0.08121 0.1612 0.58698 0.0
H445 H 0.05952 0.11928 0.54953 0.0
O446 O 0.02878 0.12586 0.56676 0.0
C447 C 0.06697 0.1066 0.60448 0.0
O448 O 0.07224 0.12176 0.61447 0.0
N449 N 0.03729 0.16007 0.58613 0.0
C450 C 0.03932 0.19963 0.58041 0.0
C451 C 0.03079 0.18781 0.56661 0.0
C452 C 0.03039 0.16798 0.56948 0.0
C453 C 0.0449 0.17162 0.60007 0.0
C454 C 0.04612 0.1915 0.59749 0.0
H455 H 0.02635 0.15928 0.55736 0.0
H456 H 0.05174 0.16517 0.61248 0.0
H457 H 0.01542 0.10122 0.59621 0.0
H458 H 0.99304 0.13611 0.64026 0.0
H459 H 0.1034 0.16045 0.55589 0.0
H460 H 0.02613 0.19365 0.55292 0.0
H461 H 0.05333 0.20026 0.60818 0.0
C462 C 0.85959 0.01745 0.61886 0.0
C463 C 0.86569 -0.00038 0.6249 0.0
N464 N 0.87979 0.99362 0.61299 0.0
N465 N 0.86967 0.02254 0.60312 0.0
C466 C 0.88191 0.00787 0.59996 0.0
H467 H 0.84865 0.02621 0.6256 0.0
Co468 Co 0.86816 0.04546 0.58994 0.0
C469 C 0.86655 0.03348 0.54826 0.0
O470 O 0.85418 0.04716 0.54408 0.0
N471 N 0.86715 0.06932 0.57722 0.0
C472 C 0.86083 0.09948 0.56838 0.0
C473 C 0.85732 0.08547 0.58186 0.0
C474 C 0.87764 0.07452 0.56172 0.0
N475 N 0.87342 0.09241 0.55553 0.0
O476 O 0.89511 0.04889 0.59247 0.0
H477 H 0.84825 0.08736 0.59426 0.0
H478 H 0.88804 0.0652 0.55485 0.0
O479 O 0.87269 0.03152 0.56553 0.0
C480 C 0.90211 0.05629 0.60764 0.0
O481 O 0.89058 0.06013 0.62212 0.0
N482 N 0.8413 0.04225 0.58792 0.0
C483 C 0.80215 0.04505 0.58091 0.0
C484 C 0.81297 0.03035 0.57234 0.0
C485 C 0.83254 0.02885 0.57651 0.0
C486 C 0.83035 0.05407 0.59905 0.0
C487 C 0.81074 0.05615 0.59541 0.0
H488 H 0.84066 0.01738 0.56993 0.0
H489 H 0.83705 0.06259 0.6102 0.0
H490 H 0.89256 0.00798 0.58862 0.0
H491 H 0.86007 0.99172 0.63708 0.0
H492 H 0.85415 0.11353 0.56777 0.0
H493 H 0.80672 0.0208 0.56172 0.0
H494 H 0.80257 0.0668 0.60332 0.0
C495 C 0.98295 0.86041 0.61316 0.0
C496 C 0.00064 0.86891 0.61631 0.0
N497 N 0.00382 0.88174 0.60211 0.0
N498 N 0.9752 0.86788 0.59703 0.0
C499 C 0.98812 0.88092 0.59082 0.0
H500 H 0.97622 0.84952 0.622 0.0
Co501 Co 0.95185 0.86301 0.58532 0.0
C502 C 0.96222 0.8586 0.54344 0.0
O503 O 0.94966 0.84468 0.54086 0.0
N504 N 0.92787 0.85883 0.57333 0.0
C505 C 0.89938 0.84894 0.56237 0.0
C506 C 0.91328 0.84626 0.57625 0.0
C507 C 0.92188 0.86958 0.55832 0.0
N508 N 0.90506 0.86346 0.55093 0.0
O509 O 0.94628 0.88961 0.58564 0.0
H510 H 0.91253 0.83561 0.58747 0.0
H511 H 0.93011 0.88144 0.55248 0.0
O512 O 0.96423 0.86623 0.56008 0.0
C513 C 0.93791 0.89623 0.60045 0.0
O514 O 0.93492 0.88473 0.61516 0.0
N515 N 0.95704 0.83659 0.58598 0.0
C516 C 0.95496 0.79691 0.58371 0.0
C517 C 0.96863 0.80702 0.57282 0.0
C518 C 0.96978 0.82699 0.57454 0.0
C519 C 0.94652 0.82676 0.59924 0.0
C520 C 0.94485 0.80681 0.59809 0.0
H521 H 0.98021 0.83465 0.56598 0.0
H522 H 0.93789 0.83462 0.60955 0.0
H523 H 0.98582 0.89001 0.57841 0.0
H524 H 0.01048 0.86568 0.62794 0.0
H525 H 0.8865 0.8404 0.56043 0.0
H526 H 0.97759 0.7997 0.56237 0.0
H527 H 0.93455 0.79955 0.60725 0.0
C528 C 0.37659 0.12845 0.02322 0.0
C529 C 0.37039 0.12229 0.00548 0.0
N530 N 0.38568 0.11534 0.99577 0.0
N531 N 0.39568 0.12549 0.02464 0.0
C532 C 0.40083 0.11742 0.00776 0.0
H533 H 0.36778 0.13464 0.03446 0.0
Co534 Co 0.4099 0.13148 0.04618 0.0
C535 C 0.45056 0.13562 0.0329 0.0
O536 O 0.45262 0.15077 0.04405 0.0
N537 N 0.4239 0.1372 0.06881 0.0
C538 C 0.43609 0.14955 0.09579 0.0
C539 C 0.42149 0.15085 0.0825 0.0
C540 C 0.43941 0.12717 0.07486 0.0
N541 N 0.44745 0.13471 0.09082 0.0
O542 O 0.4096 0.10522 0.05356 0.0
H543 H 0.41001 0.16123 0.08312 0.0
H544 H 0.44533 0.1151 0.06701 0.0
O545 O 0.43426 0.12699 0.03208 0.0
C546 C 0.39708 0.10061 0.06606 0.0
O547 O 0.38523 0.11391 0.07241 0.0
N548 N 0.40895 0.15744 0.03903 0.0
C549 C 0.41009 0.1971 0.03604 0.0
C550 C 0.42008 0.18565 0.02278 0.0
C551 C 0.41881 0.16566 0.02415 0.0
C552 C 0.39637 0.16822 0.04945 0.0
C553 C 0.39702 0.18823 0.04858 0.0
H554 H 0.42646 0.15696 0.01383 0.0
H555 H 0.38688 0.16125 0.05963 0.0
H556 H 0.4154 0.11333 0.00423 0.0
H557 H 0.35572 0.12263 0.00027 0.0
H558 H 0.43823 0.1589 0.10806 0.0
H559 H 0.42947 0.19205 0.01212 0.0
H560 H 0.38852 0.19654 0.05866 0.0
C561 C 0.38301 0.86171 0.98088 0.0
C562 C 0.37658 0.86633 -0.001 0.0
N563 N 0.39006 0.87732 0.00761 0.0
N564 N 0.40052 0.86956 0.97818 0.0
C565 C 0.40442 0.87907 0.99463 0.0
H566 H 0.37521 0.85356 0.97016 0.0
Co567 Co 0.41411 0.86881 0.95548 0.0
C568 C 0.45565 0.86592 0.96578 0.0
O569 O 0.4582 0.85386 0.95145 0.0
N570 N 0.42744 0.8686 0.93181 0.0
C571 C 0.44209 0.86118 0.90436 0.0
C572 C 0.42747 0.8563 0.91675 0.0
C573 C 0.44125 0.88155 0.9274 0.0
N574 N 0.45107 0.87688 0.91134 0.0
O575 O 0.41162 0.89588 0.95309 0.0
H576 H 0.41828 0.84396 0.91498 0.0
H577 H 0.44495 0.89338 0.93679 0.0
O578 O 0.43877 0.87241 0.96955 0.0
C579 C 0.39774 0.9012 0.94246 0.0
O580 O 0.38576 0.88805 0.93602 0.0
N581 N 0.41538 0.84195 0.95752 0.0
C582 C 0.41813 0.80246 0.95324 0.0
C583 C 0.42907 0.81191 0.96727 0.0
C584 C 0.42694 0.83173 0.96968 0.0
C585 C 0.40263 0.83258 0.94597 0.0
C586 C 0.40395 0.81277 0.94332 0.0
H587 H 0.43506 0.83876 0.98087 0.0
H588 H 0.39234 0.84079 0.93765 0.0
H589 H 0.41743 0.8873 0.99692 0.0
H590 H 0.36278 0.86247 0.00507 0.0
H591 H 0.44653 0.85287 0.89198 0.0
H592 H 0.43946 0.80415 0.97591 0.0
H593 H 0.39487 0.80584 0.93271 0.0
C594 C 0.13417 0.38211 0.97788 0.0
C595 C 0.12666 0.37744 0.99562 0.0
N596 N 0.11483 0.39179 0.00119 0.0
N597 N 0.12725 0.39938 0.97248 0.0
C598 C 0.1155 0.40485 0.98687 0.0
H599 H 0.14365 0.37327 0.96928 0.0
Co600 Co 0.13067 0.41181 0.94933 0.0
C601 C 0.13375 0.45398 0.96022 0.0
O602 O 0.14585 0.45792 0.94625 0.0
N603 N 0.13355 0.42398 0.92532 0.0
C604 C 0.14202 0.43283 0.89569 0.0
C605 C 0.14491 0.41962 0.91012 0.0
C606 C 0.12309 0.43914 0.91919 0.0
N607 N 0.12846 0.44527 0.90162 0.0
O608 O 0.10382 0.41085 0.945 0.0
H609 H 0.15471 0.40765 0.90922 0.0
H610 H 0.11196 0.44591 0.92772 0.0
O611 O 0.12754 0.43678 0.96255 0.0
C612 C 0.09826 0.39643 0.93525 0.0
O613 O 0.11105 0.38353 0.93001 0.0
N614 N 0.15731 0.41166 0.95322 0.0
C615 C 0.19674 0.41388 0.9485 0.0
C616 C 0.18747 0.42566 0.96201 0.0
C617 C 0.16762 0.42398 0.96451 0.0
C618 C 0.16653 0.39782 0.9429 0.0
C619 C 0.18631 0.39889 0.93995 0.0
H620 H 0.16066 0.43319 0.97485 0.0
H621 H 0.15822 0.38695 0.93546 0.0
H622 H 0.10737 0.41812 0.98667 0.0
H623 H 0.12927 0.36426 0.00347 0.0
H624 H 0.14971 0.43359 0.88217 0.0
H625 H 0.19514 0.43693 0.96957 0.0
H626 H 0.19314 0.38887 0.93016 0.0
C627 C 0.61938 0.13348 0.97326 0.0
C628 C 0.62793 0.12582 0.98943 0.0
N629 N 0.61477 0.11497 -0.00131 0.0
N630 N 0.60093 0.12757 0.97252 0.0
C631 C 0.59858 0.11631 0.98809 0.0
H632 H 0.62615 0.14266 0.96268 0.0
Co633 Co 0.58288 0.13278 0.95379 0.0
C634 C 0.54684 0.12048 0.97202 0.0
O635 O 0.5441 0.10839 0.95776 0.0
N636 N 0.56434 0.13811 0.93484 0.0
C637 C 0.53766 0.14959 0.92149 0.0
C638 C 0.55124 0.15246 0.93547 0.0
C639 C 0.55847 0.12684 0.92011 0.0
N640 N 0.54202 0.13328 0.91201 0.0
O641 O 0.58138 0.10599 0.94816 0.0
H642 H 0.5505 0.16346 0.94643 0.0
H643 H 0.56527 0.1134 0.91631 0.0
O644 O 0.56208 0.13076 0.97249 0.0
C645 C 0.59548 0.09952 0.93845 0.0
O646 O 0.60964 0.11127 0.93408 0.0
N647 N 0.58568 0.1589 0.95848 0.0
C648 C 0.58388 0.19862 0.9575 0.0
C649 C 0.57798 0.18864 0.97401 0.0
C650 C 0.57915 0.16856 0.97429 0.0
C651 C 0.59368 0.16849 0.94343 0.0
C652 C 0.59279 0.18845 0.94255 0.0
H653 H 0.57373 0.16083 0.98662 0.0
H654 H 0.59933 0.16048 0.93134 0.0
H655 H 0.5851 0.1094 0.99166 0.0
H656 H 0.6427 0.12794 0.99387 0.0
H657 H 0.52455 0.15783 0.91984 0.0
H658 H 0.57129 0.19611 0.98594 0.0
H659 H 0.59792 0.19577 0.92978 0.0
C660 C 0.85616 0.61216 0.97658 0.0
C661 C 0.86391 0.62034 0.9929 0.0
N662 N 0.87854 0.60914 -0.00098 0.0
N663 N 0.86577 0.59581 0.97257 0.0
C664 C 0.87945 0.59455 0.98622 0.0
H665 H 0.84402 0.61753 0.96847 0.0
Co666 Co 0.86138 0.57777 0.95348 0.0
C667 C 0.88001 0.54347 0.97088 0.0
O668 O 0.89201 0.54173 0.95641 0.0
N669 N 0.857 0.55892 0.934 0.0
C670 C 0.84516 0.53347 0.91844 0.0
C671 C 0.84138 0.54748 0.93173 0.0
C672 C 0.86999 0.55147 0.92149 0.0
N673 N 0.8633 0.53577 0.91216 0.0
O674 O 0.88731 0.58057 0.94549 0.0
H675 H 0.82832 0.54805 0.94004 0.0
H676 H 0.88457 0.55662 0.9201 0.0
O677 O 0.86787 0.55724 0.97121 0.0
C678 C 0.88882 0.59442 0.93359 0.0
O679 O 0.8733 0.60434 0.92929 0.0
N680 N 0.83569 0.57675 0.96055 0.0
C681 C 0.79628 0.57104 0.96037 0.0
C682 C 0.80771 0.5627 0.97481 0.0
C683 C 0.82756 0.56591 0.97478 0.0
C684 C 0.82459 0.58683 0.94799 0.0
C685 C 0.8048 0.5841 0.94755 0.0
H686 H 0.83634 0.55857 0.98527 0.0
H687 H 0.83139 0.5956 0.93709 0.0
H688 H 0.88984 0.583 0.98669 0.0
H689 H 0.85869 0.63317 1e-05 0.0
H690 H 0.83577 0.52152 0.91505 0.0
H691 H 0.80155 0.55293 0.98527 0.0
H692 H 0.79662 0.59085 0.93615 0.0
C693 C 0.60549 0.85752 0.01635 0.0
C694 C 0.60902 0.86456 0.99818 0.0
N695 N 0.59592 0.87834 0.99433 0.0
N696 N 0.59019 0.86676 0.02383 0.0
C697 C 0.5847 0.87937 0.01013 0.0
H698 H 0.61381 0.84669 0.0238 0.0
Co699 Co 0.58063 0.86444 0.0485 0.0
C700 C 0.5377 0.86531 0.04417 0.0
O701 O 0.53575 0.85278 0.05819 0.0
N702 N 0.57132 0.86276 0.07396 0.0
C703 C 0.56164 0.85417 0.10327 0.0
C704 C 0.57358 0.84961 0.08814 0.0
C705 C 0.55901 0.87576 0.0815 0.0
N706 N 0.55216 0.87044 0.09882 0.0
O707 O 0.58566 0.89084 0.05294 0.0
H708 H 0.58259 0.83703 0.08756 0.0
H709 H 0.55399 0.88825 0.07366 0.0
O710 O 0.55453 0.87075 0.0389 0.0
C711 C 0.60241 0.89499 0.05905 0.0
O712 O 0.61549 0.88136 0.0598 0.0
N713 N 0.5769 0.83804 0.04437 0.0
C714 C 0.5715 0.79856 0.04588 0.0
C715 C 0.55946 0.81001 0.03449 0.0
C716 C 0.56281 0.82978 0.03341 0.0
C717 C 0.59038 0.82679 0.05303 0.0
C718 C 0.58778 0.80696 0.05431 0.0
H719 H 0.55374 0.83834 0.0242 0.0
H720 H 0.60249 0.83346 0.06019 0.0
H721 H 0.57319 0.88968 0.01206 0.0
H722 H 0.62042 0.85996 0.98863 0.0
H723 H 0.5591 0.8454 0.11589 0.0
H724 H 0.54732 0.80382 0.02691 0.0
H725 H 0.59774 0.79854 0.06284 0.0
C726 C 0.1431 0.61723 0.01373 0.0
C727 C 0.137 0.62328 0.99587 0.0
N728 N 0.12417 0.61036 0.98908 0.0
N729 N 0.13428 0.60051 0.01805 0.0
C730 C 0.12286 0.59675 0.00286 0.0
H731 H 0.15291 0.62476 0.02317 0.0
Co732 Co 0.13523 0.58679 0.04078 0.0
C733 C 0.13426 0.54516 0.02877 0.0
O734 O 0.1454 0.54013 0.04319 0.0
N735 N 0.13557 0.57309 0.06421 0.0
C736 C 0.14303 0.55828 0.09161 0.0
C737 C 0.14836 0.57244 0.07885 0.0
C738 C 0.12204 0.56002 0.06915 0.0
N739 N 0.12661 0.55019 0.08525 0.0
O740 O 0.10857 0.59128 0.04443 0.0
H741 H 0.16122 0.58099 0.08012 0.0
H742 H 0.10967 0.55689 0.06023 0.0
O743 O 0.12965 0.56285 0.02637 0.0
C744 C 0.10502 0.60744 0.05226 0.0
O745 O 0.11942 0.61923 0.05562 0.0
N746 N 0.16179 0.58388 0.03768 0.0
C747 C 0.20134 0.57978 0.04066 0.0
C748 C 0.19095 0.56881 0.0273 0.0
C749 C 0.17112 0.57148 0.02563 0.0
C750 C 0.17202 0.59649 0.04863 0.0
C751 C 0.19185 0.59449 0.05064 0.0
H752 H 0.16344 0.56329 0.01495 0.0
H753 H 0.16449 0.60724 0.057 0.0
H754 H 0.11355 0.58432 0.00209 0.0
H755 H 0.14127 0.63645 0.98875 0.0
H756 H 0.15134 0.5535 0.10387 0.0
H757 H 0.19801 0.55797 0.01859 0.0
H758 H 0.1994 0.60356 0.06082 0.0
C759 C 0.86086 0.37711 0.02298 0.0
C760 C 0.86519 0.37058 0.0048 0.0
N761 N 0.87668 0.38365 0.9962 0.0
N762 N 0.86949 0.39423 0.02576 0.0
C763 C 0.87908 0.39781 0.0093 0.0
H764 H 0.85215 0.36979 0.0336 0.0
Co765 Co 0.86884 0.40853 0.04809 0.0
C766 C 0.86916 0.44953 0.03567 0.0
O767 O 0.85605 0.45318 0.04881 0.0
N768 N 0.86877 0.42278 0.07131 0.0
C769 C 0.86203 0.43871 0.09829 0.0
C770 C 0.85649 0.4239 0.08637 0.0
C771 C 0.88232 0.43614 0.07531 0.0
N772 N 0.87812 0.44669 0.09105 0.0
O773 O 0.89534 0.40342 0.05212 0.0
H774 H 0.84383 0.41525 0.08854 0.0
H775 H 0.89446 0.43888 0.06598 0.0
O776 O 0.87541 0.43228 0.03355 0.0
C777 C 0.89902 0.38771 0.06076 0.0
O778 O 0.88473 0.37598 0.06475 0.0
N779 N 0.84238 0.4123 0.04435 0.0
C780 C 0.8032 0.41981 0.04488 0.0
C781 C 0.81479 0.4272 0.03011 0.0
C782 C 0.83437 0.42279 0.02979 0.0
C783 C 0.83083 0.4023 0.05657 0.0
C784 C 0.81122 0.40628 0.05755 0.0
H785 H 0.84311 0.42837 0.01823 0.0
H786 H 0.83713 0.39209 0.06648 0.0
H787 H 0.88763 0.41059 0.00699 0.0
H788 H 0.86051 0.35709 -0.00141 0.0
H789 H 0.85404 0.44393 0.11058 0.0
H790 H 0.80892 0.4367 0.01925 0.0
H791 H 0.80278 0.39966 0.06883 0.0
C792 C 0.52115 0.88287 0.63384 0.0
C793 C 0.50652 0.87376 0.624 0.0
N794 N 0.50283 0.88379 0.60781 0.0
N795 N 0.52653 0.89871 0.62397 0.0
C796 C 0.51571 0.89832 0.60784 0.0
H797 H 0.52636 0.8789 0.64792 0.0
Co798 Co 0.54203 0.91977 0.63096 0.0
C799 C 0.50273 0.93678 0.62672 0.0
O800 O 0.49461 0.92136 0.63409 0.0
N801 N 0.55731 0.94117 0.6376 0.0
C802 C 0.56548 0.96996 0.64898 0.0
C803 C 0.55095 0.95685 0.64721 0.0
C804 C 0.57581 0.94547 0.63321 0.0
N805 N 0.5811 0.96289 0.6401 0.0
O806 O 0.55119 0.92108 0.60514 0.0
H807 H 0.53631 0.95942 0.65161 0.0
H808 H 0.58499 0.93649 0.62442 0.0
O809 O 0.52103 0.9376 0.62509 0.0
C810 C 0.56486 0.90889 0.60399 0.0
O811 O 0.56932 0.89898 0.61947 0.0
N812 N 0.53534 0.91717 0.65695 0.0
C813 C 0.54371 0.9209 0.6958 0.0
C814 C 0.52786 0.93056 0.6878 0.0
C815 C 0.52372 0.92832 0.66824 0.0
C816 C 0.549 0.90575 0.66509 0.0
C817 C 0.55323 0.90714 0.68456 0.0
H818 H 0.513 0.93764 0.66211 0.0
H819 H 0.55806 0.89695 0.65601 0.0
H820 H 0.51607 0.90962 0.59715 0.0
H821 H 0.49812 0.86176 0.62928 0.0
H822 H 0.56417 0.98436 0.6548 0.0
H823 H 0.52001 0.94126 0.69595 0.0
H824 H 0.56505 0.89877 0.6903 0.0
C825 C 0.11076 0.51607 0.64011 0.0
C826 C 0.11721 0.49845 0.63389 0.0
N827 N 0.10608 0.4927 0.61905 0.0
N828 N 0.09546 0.52133 0.62945 0.0
C829 C 0.09296 0.50688 0.61674 0.0
H830 H 0.11712 0.52468 0.6514 0.0
Co831 Co 0.08262 0.5446 0.6304 0.0
C832 C 0.04089 0.53525 0.63332 0.0
O833 O 0.03886 0.54956 0.64553 0.0
N834 N 0.06998 0.5687 0.6307 0.0
C835 C 0.05625 0.59685 0.6375 0.0
C836 C 0.07038 0.58401 0.64273 0.0
C837 C 0.05641 0.57336 0.61761 0.0
N838 N 0.04719 0.58988 0.62188 0.0
O839 O 0.0854 0.54725 0.60335 0.0
H840 H 0.07959 0.58574 0.65505 0.0
H841 H 0.05246 0.56396 0.60586 0.0
O842 O 0.05759 0.53119 0.62654 0.0
C843 C 0.10014 0.55639 0.59755 0.0
O844 O 0.11319 0.56153 0.61023 0.0
N845 N 0.08097 0.5423 0.65726 0.0
C846 C 0.07788 0.54494 0.69695 0.0
C847 C 0.06756 0.53085 0.68683 0.0
C848 C 0.06975 0.5294 0.66694 0.0
C849 C 0.09321 0.55395 0.66715 0.0
C850 C 0.09162 0.55588 0.68704 0.0
H851 H 0.06206 0.51821 0.65941 0.0
H852 H 0.10349 0.56269 0.65938 0.0
H853 H 0.0822 0.50724 0.60551 0.0
H854 H 0.1293 0.49064 0.63981 0.0
H855 H 0.05217 0.60962 0.64542 0.0
H856 H 0.05761 0.52135 0.69417 0.0
H857 H 0.1003 0.56656 0.69434 0.0
C858 C 0.48417 0.10806 0.63756 0.0
C859 C 0.50272 0.11066 0.63098 0.0
N860 N 0.50635 0.0971 0.61758 0.0
N861 N 0.47631 0.09294 0.62831 0.0
C862 C 0.49009 0.08669 0.6162 0.0
H863 H 0.47683 0.11668 0.64825 0.0
Co864 Co 0.45176 0.08304 0.63005 0.0
C865 C 0.45684 0.04062 0.62954 0.0
O866 O 0.44349 0.03908 0.64284 0.0
N867 N 0.42641 0.07271 0.63087 0.0
C868 C 0.39945 0.05724 0.63869 0.0
C869 C 0.41251 0.07103 0.64439 0.0
C870 C 0.42041 0.06098 0.61657 0.0
N871 N 0.40484 0.05043 0.62135 0.0
O872 O 0.44783 0.08888 0.60375 0.0
H873 H 0.41236 0.0779 0.65827 0.0
H874 H 0.42878 0.05867 0.6037 0.0
O875 O 0.46179 0.05725 0.62331 0.0
C876 C 0.43942 0.10482 0.60068 0.0
O877 O 0.4358 0.11616 0.61538 0.0
N878 N 0.45566 0.07867 0.65636 0.0
C879 C 0.45486 0.07086 0.69537 0.0
C880 C 0.46818 0.06152 0.68347 0.0
C881 C 0.46867 0.06601 0.66391 0.0
C882 C 0.44524 0.09021 0.66824 0.0
C883 C 0.44412 0.08616 0.68783 0.0
H884 H 0.47893 0.05872 0.65481 0.0
H885 H 0.43653 0.10162 0.66221 0.0
H886 H 0.48803 0.07507 0.60604 0.0
H887 H 0.51275 0.12161 0.63572 0.0
H888 H 0.38812 0.05138 0.6476 0.0
H889 H 0.47733 0.05017 0.68897 0.0
H890 H 0.43435 0.09434 0.69681 0.0
C891 C 0.8871 0.47783 0.64061 0.0
C892 C 0.88181 0.49648 0.63686 0.0
N893 N 0.89522 0.50442 0.62532 0.0
N894 N 0.90385 0.47406 0.63165 0.0
C895 C 0.90844 0.49046 0.62233 0.0
H896 H 0.87908 0.4675 0.64904 0.0
Co897 Co 0.91541 0.45024 0.63185 0.0
C898 C 0.95779 0.45738 0.63319 0.0
O899 O 0.95974 0.44291 0.64521 0.0
N900 N 0.92628 0.42533 0.63161 0.0
C901 C 0.93431 0.3947 0.63674 0.0
C902 C 0.92219 0.40939 0.64203 0.0
C903 C 0.94 0.41938 0.6192 0.0
N904 N 0.94573 0.40116 0.62255 0.0
O905 O 0.91162 0.44806 0.60492 0.0
H906 H 0.91119 0.4081 0.65284 0.0
H907 H 0.94613 0.42856 0.60823 0.0
O908 O 0.94102 0.4621 0.62706 0.0
C909 C 0.89746 0.43795 0.5993 0.0
O910 O 0.88555 0.431 0.61224 0.0
N911 N 0.9184 0.45242 0.65864 0.0
C912 C 0.92489 0.44946 0.69781 0.0
C913 C 0.93446 0.46353 0.68703 0.0
C914 C 0.9306 0.46511 0.66741 0.0
C915 C 0.90657 0.44126 0.66953 0.0
C916 C 0.90998 0.43902 0.68915 0.0
H917 H 0.93793 0.47612 0.65928 0.0
H918 H 0.89496 0.43341 0.66278 0.0
H919 H 0.9211 0.49204 0.61341 0.0
H920 H 0.86875 0.50343 0.64172 0.0
H921 H 0.93515 0.38064 0.64339 0.0
H922 H 0.94547 0.47253 0.69341 0.0
H923 H 0.90146 0.42884 0.69732 0.0
C924 C 0.52849 0.12213 0.37072 0.0
C925 C 0.51121 0.12869 0.37791 0.0
N926 N 0.50062 0.11332 0.38315 0.0
N927 N 0.52869 0.10274 0.37126 0.0
C928 C 0.51155 0.09785 0.37894 0.0
H929 H 0.54031 0.13095 0.36576 0.0
Co930 Co 0.54937 0.08725 0.36435 0.0
C931 C 0.53244 0.05217 0.38422 0.0
O932 O 0.54252 0.05371 0.40012 0.0
N933 N 0.5705 0.07218 0.35734 0.0
C934 C 0.59604 0.06033 0.34199 0.0
C935 C 0.58264 0.07494 0.3424 0.0
C936 C 0.57714 0.05621 0.36606 0.0
N937 N 0.59251 0.04867 0.357 0.0
O938 O 0.55907 0.08911 0.38985 0.0
H939 H 0.5819 0.08681 0.3324 0.0
H940 H 0.57084 0.05006 0.3788 0.0
O941 O 0.5345 0.06432 0.37062 0.0
C942 C 0.57204 0.10191 0.39166 0.0
O943 O 0.57685 0.1121 0.37647 0.0
N944 N 0.54072 0.08633 0.33897 0.0
C945 C 0.54423 0.08308 0.2994 0.0
C946 C 0.53641 0.06795 0.31017 0.0
C947 C 0.53486 0.0698 0.33005 0.0
C948 C 0.5459 0.10204 0.32845 0.0
C949 C 0.54786 0.1007 0.30853 0.0
H950 H 0.53096 0.05714 0.33813 0.0
H951 H 0.55089 0.11486 0.3357 0.0
H952 H 0.50706 0.08326 0.38153 0.0
H953 H 0.50702 0.14359 0.37959 0.0
H954 H 0.6076 0.05857 0.3317 0.0
H955 H 0.53349 0.0541 0.30363 0.0
H956 H 0.55379 0.11275 0.30061 0.0
C957 C 0.88112 0.52281 0.35289 0.0
C958 C 0.87571 0.50429 0.35744 0.0
N959 N 0.88814 0.49733 0.37065 0.0
N960 N 0.89695 0.52741 0.36307 0.0
C961 C 0.90083 0.51171 0.37376 0.0
H962 H 0.87373 0.53247 0.3432 0.0
Co963 Co 0.90919 0.55096 0.36421 0.0
C964 C 0.95141 0.54043 0.36512 0.0
O965 O 0.95636 0.55548 0.35479 0.0
N966 N 0.9211 0.57528 0.36599 0.0
C967 C 0.92995 0.60586 0.36224 0.0
C968 C 0.91719 0.59186 0.35659 0.0
C969 C 0.93536 0.58013 0.3783 0.0
N970 N 0.9416 0.59833 0.37571 0.0
O971 O 0.90411 0.55234 0.39091 0.0
H972 H 0.90588 0.59399 0.34622 0.0
H973 H 0.94143 0.57026 0.38868 0.0
O974 O 0.93372 0.53756 0.36941 0.0
C975 C 0.8875 0.55862 0.39533 0.0
O976 O 0.87507 0.56194 0.38147 0.0
N977 N 0.91315 0.55005 0.3375 0.0
C978 C 0.92118 0.55702 0.29908 0.0
C979 C 0.93075 0.54226 0.30895 0.0
C980 C 0.92613 0.53865 0.32814 0.0
C981 C 0.90148 0.56192 0.3272 0.0
C982 C 0.90558 0.56611 0.30804 0.0
H983 H 0.93345 0.52711 0.33547 0.0
H984 H 0.88958 0.56904 0.33425 0.0
H985 H 0.91265 0.51101 0.38384 0.0
H986 H 0.86323 0.49683 0.35188 0.0
H987 H 0.93102 0.62021 0.35629 0.0
H988 H 0.94232 0.53423 0.30228 0.0
H989 H 0.89706 0.57678 0.30053 0.0
C990 C 0.47134 0.88319 0.37047 0.0
C991 C 0.48705 0.87495 0.37929 0.0
N992 N 0.49777 0.88914 0.38705 0.0
N993 N 0.47226 0.90243 0.37261 0.0
C994 C 0.48842 0.90562 0.38281 0.0
H995 H 0.46003 0.87568 0.36286 0.0
Co996 Co 0.45465 0.91984 0.36308 0.0
C997 C 0.46826 0.95731 0.37644 0.0
O998 O 0.45069 0.96089 0.38239 0.0
N999 N 0.43645 0.93734 0.35299 0.0
C1000 C 0.42373 0.96179 0.33669 0.0
C1001 C 0.43912 0.94958 0.33809 0.0
C1002 C 0.41907 0.94232 0.36016 0.0
N1003 N 0.41124 0.95747 0.35081 0.0
O1004 O 0.44411 0.92229 0.38826 0.0
H1005 H 0.45204 0.95081 0.32963 0.0
H1006 H 0.4129 0.936 0.37294 0.0
O1007 O 0.47219 0.9413 0.3683 0.0
C1008 C 0.43235 0.90917 0.39322 0.0
O1009 O 0.4278 0.8958 0.38064 0.0
N1010 N 0.46443 0.91607 0.33861 0.0
C1011 C 0.46788 0.91578 0.29908 0.0
C1012 C 0.48146 0.92562 0.31033 0.0
C1013 C 0.47973 0.92524 0.33037 0.0
C1014 C 0.45268 0.90454 0.32805 0.0
C1015 C 0.4542 0.90411 0.30814 0.0
H1016 H 0.48945 0.93383 0.33893 0.0
H1017 H 0.44089 0.89714 0.33503 0.0
H1018 H 0.49352 0.91977 0.38668 0.0
H1019 H 0.49029 0.85973 0.37991 0.0
H1020 H 0.42287 0.97422 0.32734 0.0
H1021 H 0.4923 0.93464 0.3037 0.0
H1022 H 0.44347 0.89636 0.2999 0.0
C1023 C 0.11477 0.48409 0.36431 0.0
C1024 C 0.1204 0.50051 0.37388 0.0
N1025 N 0.10585 0.50611 0.38544 0.0
N1026 N 0.09673 0.47953 0.36969 0.0
C1027 C 0.09172 0.4931 0.38259 0.0
H1028 H 0.12342 0.47575 0.35441 0.0
Co1029 Co 0.08294 0.45793 0.36285 0.0
C1030 C 0.04167 0.47098 0.36065 0.0
O1031 O 0.03766 0.45863 0.34691 0.0
N1032 N 0.06931 0.4353 0.35643 0.0
C1033 C 0.05797 0.40814 0.34364 0.0
C1034 C 0.07169 0.42231 0.34211 0.0
C1035 C 0.05466 0.42803 0.36696 0.0
N1036 N 0.04721 0.41186 0.35925 0.0
O1037 O 0.08303 0.4498 0.38882 0.0
H1038 H 0.08268 0.42262 0.33121 0.0
H1039 H 0.04897 0.43506 0.37963 0.0
O1040 O 0.05873 0.472 0.36751 0.0
C1041 C 0.09766 0.44051 0.39463 0.0
O1042 O 0.11223 0.43805 0.38284 0.0
N1043 N 0.08386 0.46573 0.3371 0.0
C1044 C 0.08221 0.46804 0.29755 0.0
C1045 C 0.07144 0.48079 0.30876 0.0
C1046 C 0.07281 0.47969 0.32876 0.0
C1047 C 0.09698 0.45593 0.32637 0.0
C1048 C 0.096 0.45636 0.30638 0.0
H1049 H 0.06431 0.48943 0.33731 0.0
H1050 H 0.10689 0.44618 0.33338 0.0
H1051 H 0.07799 0.4933 0.38989 0.0
H1052 H 0.13429 0.50744 0.37275 0.0
H1053 H 0.05612 0.39602 0.33402 0.0
H1054 H 0.0611 0.49045 0.30223 0.0
H1055 H 0.10486 0.44666 0.29799 0.0
C1056 C 0.62908 0.52315 0.8822 0.0
C1057 C 0.62093 0.50608 0.87618 0.0
N1058 N 0.60881 0.49988 0.89003 0.0
N1059 N 0.62226 0.52749 0.89981 0.0
C1060 C 0.60998 0.51314 0.90414 0.0
H1061 H 0.63889 0.53209 0.87407 0.0
Co1062 Co 0.62588 0.54951 0.91411 0.0
C1063 C 0.62866 0.53594 0.9551 0.0
O1064 O 0.64109 0.5495 0.95949 0.0
N1065 N 0.62887 0.57236 0.92852 0.0
C1066 C 0.63901 0.59899 0.9432 0.0
C1067 C 0.6421 0.58664 0.92805 0.0
C1068 C 0.61723 0.5772 0.9433 0.0
N1069 N 0.62353 0.59277 0.95302 0.0
O1070 O 0.59909 0.55425 0.91308 0.0
H1071 H 0.65365 0.58806 0.91784 0.0
H1072 H 0.60491 0.56867 0.94752 0.0
O1073 O 0.62219 0.53449 0.93791 0.0
C1074 C 0.59304 0.56388 0.89879 0.0
O1075 O 0.60541 0.56935 0.88557 0.0
N1076 N 0.65247 0.54509 0.91409 0.0
C1077 C 0.69167 0.54939 0.91908 0.0
C1078 C 0.68174 0.53473 0.92879 0.0
C1079 C 0.66208 0.53239 0.92556 0.0
C1080 C 0.66246 0.55648 0.9017 0.0
C1081 C 0.68218 0.55911 0.90413 0.0
H1082 H 0.65459 0.52117 0.9332 0.0
H1083 H 0.65475 0.56519 0.89136 0.0
H1084 H 0.60181 0.51264 0.91735 0.0
H1085 H 0.62332 0.49915 0.86245 0.0
H1086 H 0.64808 0.61101 0.94718 0.0
H1087 H 0.68859 0.52613 0.93982 0.0
H1088 H 0.68956 0.56971 0.89541 0.0
C1089 C 0.46602 0.63219 0.87916 0.0
C1090 C 0.48207 0.62379 0.87113 0.0
N1091 N 0.49236 0.61553 0.88534 0.0
N1092 N 0.46634 0.62934 0.89832 0.0
C1093 C 0.48243 0.61906 0.90164 0.0
H1094 H 0.45487 0.63995 0.87158 0.0
Co1095 Co 0.44811 0.63778 0.91562 0.0
C1096 C 0.46323 0.62557 0.95289 0.0
O1097 O 0.4468 0.61687 0.95621 0.0
N1098 N 0.42925 0.64665 0.93332 0.0
C1099 C 0.41595 0.66247 0.95784 0.0
C1100 C 0.43013 0.66281 0.94419 0.0
C1101 C 0.41399 0.63698 0.94059 0.0
N1102 N 0.40605 0.64598 0.95587 0.0
O1103 O 0.43957 0.61193 0.91844 0.0
H1104 H 0.44134 0.6735 0.94364 0.0
H1105 H 0.40987 0.6227 0.93609 0.0
O1106 O 0.46597 0.63437 0.93699 0.0
C1107 C 0.42744 0.60596 0.90613 0.0
O1108 O 0.42142 0.61789 0.89276 0.0
N1109 N 0.45612 0.6629 0.91153 0.0
C1110 C 0.45694 0.70256 0.91315 0.0
C1111 C 0.47205 0.69181 0.92117 0.0
C1112 C 0.4715 0.67174 0.91999 0.0
C1113 C 0.44319 0.67313 0.90101 0.0
C1114 C 0.44335 0.69312 0.90159 0.0
H1115 H 0.48231 0.66348 0.9275 0.0
H1116 H 0.4315 0.66572 0.89389 0.0
H1117 H 0.487 0.61455 0.9158 0.0
H1118 H 0.48581 0.62374 0.85601 0.0
H1119 H 0.41455 0.67247 0.96971 0.0
H1120 H 0.48302 0.69861 0.92991 0.0
H1121 H 0.43186 0.701 0.8946 0.0
C1122 C 0.3613 0.4781 0.88654 0.0
C1123 C 0.36424 0.49715 0.88229 0.0
N1124 N 0.37425 0.50523 0.89683 0.0
N1125 N 0.36933 0.47415 0.9037 0.0
C1126 C 0.37721 0.49088 0.90963 0.0
H1127 H 0.35408 0.46763 0.87757 0.0
Co1128 Co 0.36951 0.44981 0.91405 0.0
C1129 C 0.36999 0.45455 0.9567 0.0
O1130 O 0.35869 0.43948 0.95847 0.0
N1131 N 0.37016 0.42435 0.92368 0.0
C1132 C 0.36462 0.39375 0.93159 0.0
C1133 C 0.35856 0.40898 0.92057 0.0
C1134 C 0.38389 0.4175 0.93565 0.0
N1135 N 0.38054 0.39922 0.94103 0.0
O1136 O 0.39624 0.44793 0.90935 0.0
H1137 H 0.34629 0.40844 0.91118 0.0
H1138 H 0.39543 0.42624 0.94144 0.0
O1139 O 0.37513 0.46032 0.93994 0.0
C1140 C 0.40202 0.4395 0.89421 0.0
O1141 O 0.38926 0.43406 0.88135 0.0
N1142 N 0.34285 0.45187 0.91808 0.0
C1143 C 0.30392 0.44851 0.92623 0.0
C1144 C 0.31525 0.46213 0.93592 0.0
C1145 C 0.33468 0.46387 0.93132 0.0
C1146 C 0.33139 0.44148 0.9061 0.0
C1147 C 0.31195 0.43894 0.91034 0.0
H1148 H 0.34313 0.47453 0.9388 0.0
H1149 H 0.33766 0.43406 0.89394 0.0
H1150 H 0.38506 0.49243 0.92297 0.0
H1151 H 0.35985 0.50429 0.86917 0.0
H1152 H 0.35755 0.37994 0.93307 0.0
H1153 H 0.30932 0.47097 0.9473 0.0
H1154 H 0.30372 0.4288 0.90186 0.0
C1155 C 0.51796 0.35503 0.88204 0.0
C1156 C 0.50112 0.36223 0.87448 0.0
N1157 N 0.49808 0.37982 0.88202 0.0
N1158 N 0.52544 0.36794 0.89451 0.0
C1159 C 0.51319 0.38301 0.89377 0.0
H1160 H 0.5239 0.3411 0.87873 0.0
Co1161 Co 0.54747 0.36738 0.91018 0.0
C1162 C 0.51519 0.37195 0.93799 0.0
O1163 O 0.50472 0.35965 0.92812 0.0
N1164 N 0.56943 0.3672 0.92523 0.0
C1165 C 0.59999 0.36526 0.93425 0.0
C1166 C 0.58746 0.36389 0.91896 0.0
C1167 C 0.57126 0.37037 0.94428 0.0
N1168 N 0.58972 0.36939 0.95019 0.0
O1169 O 0.55264 0.39328 0.90362 0.0
H1170 H 0.59123 0.36086 0.90417 0.0
H1171 H 0.55927 0.37314 0.95375 0.0
O1172 O 0.53214 0.37616 0.93222 0.0
C1173 C 0.56267 0.39577 0.88853 0.0
O1174 O 0.56733 0.3807 0.87809 0.0
N1175 N 0.54406 0.34136 0.91616 0.0
C1176 C 0.54887 0.30221 0.92342 0.0
C1177 C 0.54205 0.31455 0.93782 0.0
C1178 C 0.54016 0.33415 0.93405 0.0
C1179 C 0.55103 0.3296 0.90214 0.0
C1180 C 0.55321 0.30993 0.90531 0.0
H1181 H 0.5369 0.34345 0.94599 0.0
H1182 H 0.5558 0.33573 0.88865 0.0
H1183 H 0.51518 0.39596 0.90217 0.0
H1184 H 0.49152 0.35472 0.8648 0.0
H1185 H 0.61547 0.36379 0.93353 0.0
H1186 H 0.53891 0.30923 0.95213 0.0
H1187 H 0.55924 0.30106 0.894 0.0
C1188 C 0.64314 0.4825 0.11316 0.0
C1189 C 0.63858 0.50109 0.11831 0.0
N1190 N 0.62424 0.5073 0.1068 0.0
N1191 N 0.63181 0.47711 0.09838 0.0
C1192 C 0.62042 0.49242 0.09493 0.0
H1193 H 0.65387 0.47348 0.11988 0.0
Co1194 Co 0.63073 0.45363 0.08592 0.0
C1195 C 0.63 0.46441 0.04381 0.0
O1196 O 0.63921 0.44884 0.03829 0.0
N1197 N 0.62897 0.42951 0.07361 0.0
C1198 C 0.63264 0.39933 0.06345 0.0
C1199 C 0.63918 0.41312 0.07605 0.0
C1200 C 0.61559 0.42481 0.06031 0.0
N1201 N 0.61788 0.40682 0.05343 0.0
O1202 O 0.60384 0.45279 0.0896 0.0
H1203 H 0.65066 0.41097 0.08622 0.0
H1204 H 0.60498 0.43487 0.05496 0.0
O1205 O 0.62655 0.46732 0.06164 0.0
C1206 C 0.59774 0.44343 0.10404 0.0
O1207 O 0.61026 0.43731 0.11682 0.0
N1208 N 0.65756 0.45395 0.08302 0.0
C1209 C 0.6962 0.44554 0.07752 0.0
C1210 C 0.68707 0.45954 0.06618 0.0
C1211 C 0.66776 0.4639 0.0695 0.0
C1212 C 0.66692 0.44265 0.09597 0.0
C1213 C 0.68622 0.43795 0.09332 0.0
H1214 H 0.6611 0.47483 0.06079 0.0
H1215 H 0.65895 0.43612 0.10764 0.0
H1216 H 0.60911 0.49237 0.08424 0.0
H1217 H 0.64535 0.50932 0.12966 0.0
H1218 H 0.63848 0.38501 0.06162 0.0
H1219 H 0.69439 0.46635 0.05424 0.0
H1220 H 0.69301 0.42786 0.10307 0.0
C1221 C 0.52455 0.62822 0.1201 0.0
C1222 C 0.50856 0.61924 0.12757 0.0
N1223 N 0.49896 0.61074 0.113 0.0
N1224 N 0.52497 0.62547 0.10094 0.0
C1225 C 0.5093 0.61468 0.09704 0.0
H1226 H 0.53514 0.63638 0.12808 0.0
Co1227 Co 0.54345 0.63504 0.08437 0.0
C1228 C 0.52975 0.62331 0.04625 0.0
O1229 O 0.54661 0.61559 0.04267 0.0
N1230 N 0.56247 0.64504 0.0674 0.0
C1231 C 0.57598 0.66204 0.04382 0.0
C1232 C 0.56138 0.66147 0.05699 0.0
C1233 C 0.57824 0.63607 0.06029 0.0
N1234 N 0.58636 0.64584 0.04556 0.0
O1235 O 0.55347 0.60971 0.08145 0.0
H1236 H 0.5498 0.67175 0.05748 0.0
H1237 H 0.58267 0.62178 0.06447 0.0
O1238 O 0.52645 0.63123 0.06248 0.0
C1239 C 0.56447 0.60408 0.09496 0.0
O1240 O 0.56773 0.61576 0.10947 0.0
N1241 N 0.5341 0.65973 0.08854 0.0
C1242 C 0.53195 0.69927 0.08644 0.0
C1243 C 0.51731 0.68796 0.07833 0.0
C1244 C 0.51855 0.66792 0.07972 0.0
C1245 C 0.54639 0.67052 0.09928 0.0
C1246 C 0.54562 0.69048 0.09837 0.0
H1247 H 0.50823 0.6592 0.07204 0.0
H1248 H 0.55824 0.66361 0.10664 0.0
H1249 H 0.50531 0.61016 0.08271 0.0
H1250 H 0.50437 0.619 0.14256 0.0
H1251 H 0.57741 0.67248 0.03234 0.0
H1252 H 0.50634 0.69433 0.06929 0.0
H1253 H 0.55684 0.69886 0.10525 0.0
C1254 C 0.36345 0.51587 0.11324 0.0
C1255 C 0.36927 0.4981 0.11964 0.0
N1256 N 0.38003 0.48986 0.10576 0.0
N1257 N 0.37035 0.51873 0.09538 0.0
C1258 C 0.38048 0.50273 0.0912 0.0
H1259 H 0.35508 0.52626 0.12125 0.0
Co1260 Co 0.36747 0.54132 0.08192 0.0
C1261 C 0.36414 0.53098 0.04056 0.0
O1262 O 0.35061 0.54406 0.0387 0.0
N1263 N 0.36502 0.56504 0.06882 0.0
C1264 C 0.35574 0.59299 0.0562 0.0
C1265 C 0.35226 0.57966 0.07037 0.0
C1266 C 0.37683 0.57063 0.05442 0.0
N1267 N 0.37105 0.58709 0.04593 0.0
O1268 O 0.39433 0.54584 0.08386 0.0
H1269 H 0.34082 0.58079 0.08072 0.0
H1270 H 0.38897 0.56213 0.04969 0.0
O1271 O 0.37172 0.52777 0.05709 0.0
C1272 C 0.39998 0.55577 0.09813 0.0
O1273 O 0.38724 0.56132 0.11096 0.0
N1274 N 0.34084 0.53687 0.08106 0.0
C1275 C 0.30128 0.53764 0.07703 0.0
C1276 C 0.3121 0.52348 0.06761 0.0
C1277 C 0.332 0.52302 0.07026 0.0
C1278 C 0.3302 0.54803 0.09311 0.0
C1279 C 0.31031 0.54911 0.09094 0.0
H1280 H 0.34025 0.51212 0.06289 0.0
H1281 H 0.33736 0.55726 0.1034 0.0
H1282 H 0.38815 0.50066 0.07782 0.0
H1283 H 0.36631 0.49201 0.13365 0.0
H1284 H 0.34705 0.60556 0.05324 0.0
H1285 H 0.30551 0.51375 0.05738 0.0
H1286 H 0.30224 0.55952 0.09927 0.0
C1287 C 0.48701 0.35084 0.10551 0.0
C1288 C 0.50369 0.35812 0.11328 0.0
N1289 N 0.50648 0.37591 0.1061 0.0
N1290 N 0.47943 0.36386 0.09328 0.0
C1291 C 0.49151 0.37903 0.09415 0.0
H1292 H 0.4808 0.33696 0.10878 0.0
Co1293 Co 0.4564 0.3621 0.07976 0.0
C1294 C 0.47696 0.38096 0.04602 0.0
O1295 O 0.47766 0.39845 0.05313 0.0
N1296 N 0.43303 0.36035 0.06663 0.0
C1297 C 0.40273 0.35379 0.05874 0.0
C1298 C 0.41631 0.35294 0.07314 0.0
C1299 C 0.42905 0.36619 0.04858 0.0
N1300 N 0.41087 0.36205 0.04322 0.0
O1301 O 0.45184 0.3887 0.08337 0.0
H1302 H 0.41403 0.34731 0.08744 0.0
H1303 H 0.43909 0.37389 0.03967 0.0
O1304 O 0.46945 0.36727 0.05568 0.0
C1305 C 0.44047 0.39347 0.09684 0.0
O1306 O 0.4338 0.38001 0.10833 0.0
N1307 N 0.46003 0.3356 0.07634 0.0
C1308 C 0.4557 0.29691 0.06762 0.0
C1309 C 0.4693 0.30806 0.05779 0.0
C1310 C 0.47135 0.32747 0.06246 0.0
C1311 C 0.44856 0.32439 0.08758 0.0
C1312 C 0.44593 0.30499 0.08328 0.0
H1313 H 0.48145 0.33593 0.05426 0.0
H1314 H 0.44055 0.33082 0.09925 0.0
H1315 H 0.48902 0.39239 0.08667 0.0
H1316 H 0.51307 0.35075 0.12327 0.0
H1317 H 0.38808 0.3486 0.0597 0.0
H1318 H 0.4774 0.30218 0.04585 0.0
H1319 H 0.43578 0.2966 0.09162 0.0
C1320 C 0.8857 0.63711 0.51214 0.0
C1321 C 0.87998 0.62688 0.49618 0.0
N1322 N 0.88907 0.60976 0.49633 0.0
N1323 N 0.89856 0.62659 0.52218 0.0
C1324 C 0.89977 0.60979 0.51249 0.0
H1325 H 0.88117 0.65154 0.51569 0.0
Co1326 Co 0.91238 0.63278 0.54432 0.0
C1327 C 0.94427 0.62324 0.51546 0.0
O1328 O 0.93407 0.62632 0.49986 0.0
N1329 N 0.92588 0.63862 0.56671 0.0
C1330 C 0.93772 0.65159 0.59348 0.0
C1331 C 0.92306 0.65239 0.58014 0.0
C1332 C 0.94179 0.62928 0.57256 0.0
N1333 N 0.94946 0.63698 0.58859 0.0
O1334 O 0.9101 0.6069 0.55277 0.0
H1335 H 0.91125 0.66249 0.58027 0.0
H1336 H 0.9479 0.61721 0.5649 0.0
O1337 O 0.93679 0.62584 0.53205 0.0
C1338 C 0.89935 0.60254 0.56688 0.0
O1339 O 0.88906 0.61609 0.57513 0.0
N1340 N 0.91443 0.6587 0.53681 0.0
C1341 C 0.91907 0.69836 0.5382 0.0
C1342 C 0.93271 0.68689 0.52894 0.0
C1343 C 0.9303 0.66702 0.52865 0.0
C1344 C 0.90009 0.66991 0.54413 0.0
C1345 C 0.90225 0.68986 0.54527 0.0
H1346 H 0.94208 0.65868 0.52325 0.0
H1347 H 0.88777 0.66316 0.55083 0.0
H1348 H 0.90924 0.59816 0.51669 0.0
H1349 H 0.87076 0.63213 0.48478 0.0
H1350 H 0.93959 0.66097 0.60578 0.0
H1351 H 0.946 0.69305 0.52358 0.0
H1352 H 0.89148 0.69839 0.55264 0.0
C1353 C 0.87835 0.3684 0.47264 0.0
C1354 C 0.87128 0.37461 0.49004 0.0
N1355 N 0.88539 0.38418 0.49931 0.0
N1356 N 0.89686 0.37389 0.47103 0.0
C1357 C 0.90074 0.38355 0.4874 0.0
H1358 H 0.87047 0.36063 0.4617 0.0
Co1359 Co 0.91209 0.37002 0.44969 0.0
C1360 C 0.952 0.36526 0.46405 0.0
O1361 O 0.95397 0.35067 0.45216 0.0
N1362 N 0.9274 0.36669 0.42744 0.0
C1363 C 0.94302 0.35726 0.40106 0.0
C1364 C 0.9275 0.35374 0.41289 0.0
C1365 C 0.94239 0.3784 0.42345 0.0
N1366 N 0.95252 0.37263 0.408 0.0
O1367 O 0.91101 0.39677 0.44426 0.0
H1368 H 0.91741 0.34215 0.4109 0.0
H1369 H 0.94628 0.3906 0.4323 0.0
O1370 O 0.93579 0.37403 0.46511 0.0
C1371 C 0.8987 0.40106 0.43143 0.0
O1372 O 0.88788 0.38728 0.4243 0.0
N1373 N 0.91165 0.3435 0.45465 0.0
C1374 C 0.91216 0.30364 0.45566 0.0
C1375 C 0.92144 0.3143 0.47006 0.0
C1376 C 0.9204 0.33436 0.46969 0.0
C1377 C 0.90011 0.33338 0.4425 0.0
C1378 C 0.90044 0.31334 0.44244 0.0
H1379 H 0.92726 0.34244 0.48104 0.0
H1380 H 0.8915 0.34096 0.43197 0.0
H1381 H 0.91455 0.39 0.49051 0.0
H1382 H 0.85674 0.37259 0.49524 0.0
H1383 H 0.94742 0.34865 0.38885 0.0
H1384 H 0.92982 0.30722 0.48113 0.0
H1385 H 0.89257 0.30562 0.43142 0.0
C1386 C 0.63563 0.88849 0.48025 0.0
C1387 C 0.62729 0.88511 0.49796 0.0
N1388 N 0.61473 0.89946 0.50162 0.0
N1389 N 0.62846 0.905 0.47305 0.0
C1390 C 0.61577 0.91123 0.4863 0.0
H1391 H 0.64607 0.87949 0.47304 0.0
Co1392 Co 0.63284 0.91701 0.44983 0.0
C1393 C 0.64012 0.95777 0.46053 0.0
O1394 O 0.6542 0.95847 0.44791 0.0
N1395 N 0.63631 0.92956 0.4259 0.0
C1396 C 0.64546 0.94295 0.39816 0.0
C1397 C 0.64863 0.92802 0.41087 0.0
C1398 C 0.62519 0.94478 0.42124 0.0
N1399 N 0.6309 0.95365 0.40504 0.0
O1400 O 0.60603 0.91688 0.44517 0.0
H1401 H 0.6597 0.91731 0.40918 0.0
H1402 H 0.61363 0.94998 0.43028 0.0
O1403 O 0.63054 0.9422 0.46271 0.0
C1404 C 0.59931 0.90205 0.43688 0.0
O1405 O 0.61106 0.88788 0.43257 0.0
N1406 N 0.65946 0.91595 0.4544 0.0
C1407 C 0.69926 0.91791 0.45436 0.0
C1408 C 0.68868 0.92697 0.46895 0.0
C1409 C 0.66867 0.92534 0.46902 0.0
C1410 C 0.66964 0.90416 0.44254 0.0
C1411 C 0.68964 0.90534 0.44183 0.0
H1412 H 0.6606 0.93251 0.4802 0.0
H1413 H 0.6621 0.89479 0.43267 0.0
H1414 H 0.60744 0.92429 0.48472 0.0
H1415 H 0.63004 0.8729 0.50722 0.0
H1416 H 0.65389 0.94626 0.38549 0.0
H1417 H 0.69562 0.93617 0.47945 0.0
H1418 H 0.69742 0.89722 0.43104 0.0
C1419 C 0.10916 0.64633 0.48578 0.0
C1420 C 0.11673 0.63863 0.50237 0.0
N1421 N 0.11036 0.62041 0.5041 0.0
N1422 N 0.09786 0.63309 0.47712 0.0
C1423 C 0.09932 0.61734 0.48844 0.0
H1424 H 0.11164 0.6608 0.48078 0.0
Co1425 Co 0.08309 0.63417 0.45453 0.0
C1426 C 0.05414 0.62464 0.48509 0.0
O1427 O 0.06334 0.63509 0.4979 0.0
N1428 N 0.06883 0.63474 0.43195 0.0
C1429 C 0.05375 0.64419 0.40542 0.0
C1430 C 0.06844 0.64832 0.41807 0.0
C1431 C 0.05495 0.62213 0.42699 0.0
N1432 N 0.04534 0.62772 0.41115 0.0
O1433 O 0.09135 0.60905 0.44813 0.0
H1434 H 0.07763 0.66084 0.41759 0.0
H1435 H 0.05132 0.60954 0.43536 0.0
O1436 O 0.06082 0.62326 0.46801 0.0
C1437 C 0.10571 0.60771 0.43689 0.0
O1438 O 0.11472 0.62351 0.43169 0.0
N1439 N 0.07515 0.65958 0.45951 0.0
C1440 C 0.06362 0.69757 0.45426 0.0
C1441 C 0.05059 0.68385 0.461 0.0
C1442 C 0.05649 0.66481 0.46304 0.0
C1443 C 0.08818 0.67303 0.45365 0.0
C1444 C 0.08272 0.69216 0.45093 0.0
H1445 H 0.04541 0.65431 0.46551 0.0
H1446 H 0.10246 0.66854 0.44938 0.0
H1447 H 0.09189 0.60398 0.48548 0.0
H1448 H 0.12558 0.64616 0.51274 0.0
H1449 H 0.04923 0.65289 0.39331 0.0
H1450 H 0.03555 0.68747 0.46301 0.0
H1451 H 0.09304 0.70238 0.44527 0.0
C1452 C 0.36949 0.11334 0.47547 0.0
C1453 C 0.37897 0.11875 0.49202 0.0
N1454 N 0.38935 0.1036 0.49837 0.0
N1455 N 0.37378 0.09486 0.47156 0.0
C1456 C 0.38586 0.08935 0.48565 0.0
H1457 H 0.36052 0.1224 0.46655 0.0
Co1458 Co 0.36728 0.08107 0.44993 0.0
C1459 C 0.35981 0.04131 0.46368 0.0
O1460 O 0.34471 0.04084 0.45229 0.0
N1461 N 0.36143 0.06707 0.42731 0.0
C1462 C 0.35009 0.05385 0.40032 0.0
C1463 C 0.34859 0.0692 0.4128 0.0
C1464 C 0.3712 0.05098 0.42255 0.0
N1465 N 0.36413 0.04226 0.40679 0.0
O1466 O 0.39365 0.08038 0.44284 0.0
H1467 H 0.33864 0.08093 0.41103 0.0
H1468 H 0.38313 0.04544 0.43089 0.0
O1469 O 0.37026 0.05652 0.46433 0.0
C1470 C 0.39937 0.09454 0.43277 0.0
O1471 O 0.38701 0.10817 0.4284 0.0
N1472 N 0.34121 0.08301 0.45685 0.0
C1473 C 0.30164 0.07997 0.45965 0.0
C1474 C 0.31344 0.0726 0.47428 0.0
C1475 C 0.33335 0.0748 0.47287 0.0
C1476 C 0.32995 0.09388 0.44511 0.0
C1477 C 0.30999 0.09207 0.44579 0.0
H1478 H 0.3424 0.06868 0.48392 0.0
H1479 H 0.33654 0.10276 0.43418 0.0
H1480 H 0.39221 0.07517 0.48634 0.0
H1481 H 0.37864 0.13291 0.49847 0.0
H1482 H 0.34124 0.05122 0.38778 0.0
H1483 H 0.30748 0.06427 0.48601 0.0
H1484 H 0.30147 0.09882 0.43464 0.0
C1485 C 0.11739 0.35866 0.51334 0.0
C1486 C 0.12394 0.36584 0.49607 0.0
N1487 N 0.11195 0.37999 0.49041 0.0
N1488 N 0.10123 0.36811 0.51843 0.0
C1489 C 0.09851 0.38116 0.50436 0.0
H1490 H 0.12404 0.34726 0.52153 0.0
Co1491 Co 0.0857 0.36496 0.53995 0.0
C1492 C 0.05149 0.38207 0.51906 0.0
O1493 O 0.05428 0.39969 0.5253 0.0
N1494 N 0.07015 0.36206 0.56171 0.0
C1495 C 0.05554 0.35216 0.58848 0.0
C1496 C 0.07034 0.34862 0.5758 0.0
C1497 C 0.05557 0.37388 0.56657 0.0
N1498 N 0.04643 0.36814 0.58258 0.0
O1499 O 0.08697 0.39174 0.5449 0.0
H1500 H 0.08047 0.33694 0.57701 0.0
H1501 H 0.05149 0.38645 0.55846 0.0
O1502 O 0.06287 0.36848 0.52397 0.0
C1503 C 0.10037 0.39777 0.55575 0.0
O1504 O 0.1138 0.38565 0.56125 0.0
N1505 N 0.08507 0.33824 0.53601 0.0
C1506 C 0.08135 0.29884 0.54193 0.0
C1507 C 0.06843 0.30868 0.52997 0.0
C1508 C 0.07043 0.32844 0.52729 0.0
C1509 C 0.09908 0.32853 0.54569 0.0
C1510 C 0.09744 0.30879 0.54899 0.0
H1511 H 0.0594 0.33571 0.51924 0.0
H1512 H 0.11052 0.3365 0.55263 0.0
H1513 H 0.08704 0.39162 0.50456 0.0
H1514 H 0.13637 0.36076 0.4882 0.0
H1515 H 0.05186 0.34379 0.60109 0.0
H1516 H 0.05618 0.30141 0.52365 0.0
H1517 H 0.1078 0.30181 0.5583 0.0
C1518 C 0.63797 0.11551 0.51918 0.0
C1519 C 0.62992 0.11989 0.50157 0.0
N1520 N 0.6186 0.10506 0.49615 0.0
N1521 N 0.63186 0.09796 0.52466 0.0
C1522 C 0.62006 0.09204 0.51046 0.0
H1523 H 0.64749 0.12457 0.52751 0.0
Co1524 Co 0.63684 0.08453 0.54713 0.0
C1525 C 0.64677 0.04524 0.5339 0.0
O1526 O 0.66067 0.04488 0.54671 0.0
N1527 N 0.64105 0.07049 0.5701 0.0
C1528 C 0.65044 0.05661 0.5975 0.0
C1529 C 0.65295 0.07218 0.58544 0.0
C1530 C 0.63092 0.05431 0.57381 0.0
N1531 N 0.63679 0.04524 0.58986 0.0
O1532 O 0.61 0.08364 0.55239 0.0
H1533 H 0.66303 0.08369 0.58793 0.0
H1534 H 0.61967 0.04893 0.56448 0.0
O1535 O 0.63592 0.06008 0.53246 0.0
C1536 C 0.60518 0.0993 0.5606 0.0
O1537 O 0.61829 0.11279 0.56267 0.0
N1538 N 0.6633 0.08734 0.54266 0.0
C1539 C 0.70301 0.0881 0.54368 0.0
C1540 C 0.69346 0.07891 0.52847 0.0
C1541 C 0.6734 0.0794 0.5278 0.0
C1542 C 0.67235 0.09932 0.55523 0.0
C1543 C 0.69236 0.09962 0.55632 0.0
H1544 H 0.66606 0.07242 0.51602 0.0
H1545 H 0.66395 0.10757 0.56541 0.0
H1546 H 0.6127 0.07832 0.51062 0.0
H1547 H 0.632 0.13309 0.49359 0.0
H1548 H 0.6584 0.05363 0.61055 0.0
H1549 H 0.70135 0.0707 0.51783 0.0
H1550 H 0.69926 0.10749 0.56786 0.0
C1551 C 0.36654 0.8792 0.51977 0.0
C1552 C 0.37196 0.87434 0.50137 0.0
N1553 N 0.37986 0.88997 0.49298 0.0
N1554 N 0.37092 0.89779 0.52293 0.0
C1555 C 0.3791 0.90396 0.50645 0.0
H1556 H 0.3599 0.86979 0.53025 0.0
Co1557 Co 0.36678 0.9109 0.54565 0.0
C1558 C 0.35633 0.95052 0.53349 0.0
O1559 O 0.34248 0.95039 0.54637 0.0
N1560 N 0.36324 0.92396 0.5693 0.0
C1561 C 0.35534 0.93383 0.59881 0.0
C1562 C 0.35368 0.91919 0.58559 0.0
C1563 C 0.37167 0.94093 0.57368 0.0
N1564 N 0.36658 0.94758 0.59117 0.0
O1565 O 0.39383 0.91232 0.54978 0.0
H1566 H 0.34625 0.90587 0.58825 0.0
H1567 H 0.38097 0.94863 0.56387 0.0
O1568 O 0.3673 0.93582 0.53162 0.0
C1569 C 0.40167 0.89743 0.55701 0.0
O1570 O 0.39098 0.88215 0.56015 0.0
N1571 N 0.34 0.90838 0.54163 0.0
C1572 C 0.30022 0.91037 0.54166 0.0
C1573 C 0.3107 0.91788 0.52617 0.0
C1574 C 0.3307 0.91618 0.52615 0.0
C1575 C 0.32986 0.89746 0.55433 0.0
C1576 C 0.30985 0.89881 0.5551 0.0
H1577 H 0.33873 0.92228 0.51434 0.0
H1578 H 0.33734 0.88832 0.56439 0.0
H1579 H 0.38426 0.91849 0.50435 0.0
H1580 H 0.37047 0.86027 0.49485 0.0
H1581 H 0.34896 0.93422 0.61301 0.0
H1582 H 0.30375 0.92612 0.51493 0.0
H1583 H 0.30209 0.89158 0.56652 0.0
H1584 H 0.063 0.43725 0.28538 0.0
H1585 H 0.08827 0.49032 0.26575 0.0
H1586 H 0.0783 0.483 0.2326 0.0
H1587 H 0.06331 0.46092 0.2095 0.0
H1588 H 0.03655 0.40854 0.22962 0.0
H1589 H 0.04636 0.41608 0.26252 0.0
C1590 C 0.06631 0.44713 0.27374 0.0
C1591 C 0.07649 0.46412 0.27764 0.0
C1592 C 0.06029 0.44295 0.25501 0.0
C1593 C 0.08056 0.4771 0.26279 0.0
C1594 C 0.07484 0.47291 0.24397 0.0
C1595 C 0.05923 0.45133 0.2211 0.0
C1596 C 0.04913 0.4342 0.2171 0.0
C1597 C 0.06475 0.45584 0.23994 0.0
C1598 C 0.04444 0.42172 0.23229 0.0
C1599 C 0.05 0.42604 0.25109 0.0
H1600 H 0.59263 0.06359 0.22575 0.0
H1601 H 0.53818 0.03922 0.20797 0.0
H1602 H 0.52378 0.04887 0.23829 0.0
H1603 H 0.52625 0.06501 0.26968 0.0
H1604 H 0.57991 0.09153 0.28614 0.0
H1605 H 0.59459 0.08126 0.25598 0.0
C1606 C 0.57754 0.06057 0.22825 0.0
C1607 C 0.56668 0.05053 0.21441 0.0
C1608 C 0.569 0.06698 0.24536 0.0
C1609 C 0.54721 0.04643 0.21841 0.0
C1610 C 0.53879 0.05223 0.23568 0.0
C1611 C 0.54108 0.0687 0.26651 0.0
C1612 C 0.55191 0.07917 0.27997 0.0
C1613 C 0.54949 0.06265 0.24918 0.0
C1614 C 0.57114 0.08384 0.27579 0.0
C1615 C 0.57963 0.07774 0.25867 0.0
H1616 H 0.95224 0.59859 0.22473 0.0
H1617 H 0.95677 0.53957 0.2056 0.0
H1618 H 0.94525 0.52836 0.23657 0.0
H1619 H 0.93232 0.53514 0.26863 0.0
H1620 H 0.92605 0.59402 0.28728 0.0
H1621 H 0.93899 0.6054 0.25668 0.0
C1622 C 0.95064 0.58328 0.22725 0.0
C1623 C 0.95559 0.57004 0.21277 0.0
C1624 C 0.9433 0.57685 0.24492 0.0
C1625 C 0.95362 0.5502 0.21654 0.0
C1626 C 0.94674 0.54371 0.23421 0.0
C1627 C 0.93385 0.55045 0.26599 0.0
C1628 C 0.92814 0.5637 0.28011 0.0
C1629 C 0.94134 0.5569 0.24842 0.0
C1630 C 0.93004 0.58352 0.27647 0.0
C1631 C 0.93761 0.59004 0.25906 0.0
H1632 H 0.46234 0.95114 0.28458 0.0
H1633 H 0.46532 0.89128 0.26855 0.0
H1634 H 0.45254 0.89897 0.23662 0.0
H1635 H 0.43792 0.92227 0.21458 0.0
H1636 H 0.43365 0.98198 0.23102 0.0
H1637 H 0.44955 0.97484 0.26167 0.0
C1638 C 0.46075 0.93991 0.27384 0.0
C1639 C 0.46494 0.92072 0.27868 0.0
C1640 C 0.45275 0.94435 0.25588 0.0
C1641 C 0.46236 0.90616 0.26494 0.0
C1642 C 0.45488 0.91053 0.24683 0.0
C1643 C 0.44034 0.93368 0.22497 0.0
C1644 C 0.43432 0.95254 0.22081 0.0
C1645 C 0.44948 0.92947 0.24241 0.0
C1646 C 0.43803 0.96733 0.23405 0.0
C1647 C 0.44715 0.96326 0.2515 0.0
H1648 H 0.04255 0.54802 0.71303 0.0
H1649 H 0.10309 0.55204 0.72629 0.0
H1650 H 0.09542 0.56226 0.75904 0.0
H1651 H 0.07159 0.57031 0.78367 0.0
H1652 H 0.01105 0.56581 0.77084 0.0
H1653 H 0.01862 0.55534 0.73802 0.0
C1654 C 0.05406 0.55082 0.7232 0.0
C1655 C 0.07336 0.54925 0.71729 0.0
C1656 C 0.04954 0.55675 0.74193 0.0
C1657 C 0.08813 0.55328 0.73048 0.0
C1658 C 0.08376 0.55911 0.74918 0.0
C1659 C 0.06006 0.5673 0.77357 0.0
C1660 C 0.0408 0.56909 0.77946 0.0
C1661 C 0.06453 0.56109 0.75496 0.0
C1662 C 0.02597 0.56462 0.76651 0.0
C1663 C 0.0303 0.55861 0.74782 0.0
H1664 H 0.42016 0.06261 0.71038 0.0
H1665 H 0.48074 0.0624 0.72379 0.0
H1666 H 0.47371 0.05018 0.7561 0.0
H1667 H 0.45018 0.0413 0.78086 0.0
H1668 H 0.38957 0.04135 0.76728 0.0
H1669 H 0.39678 0.0519 0.73451 0.0
C1670 C 0.4318 0.06001 0.72046 0.0
C1671 C 0.4509 0.06367 0.71494 0.0
C1672 C 0.42764 0.05289 0.73883 0.0
C1673 C 0.46593 0.05978 0.72785 0.0
C1674 C 0.4619 0.05279 0.74626 0.0
C1675 C 0.43857 0.04317 0.7706 0.0
C1676 C 0.41936 0.04054 0.77646 0.0
C1677 C 0.4428 0.04943 0.75192 0.0
C1678 C 0.40445 0.04341 0.76313 0.0
C1679 C 0.40856 0.04946 0.74443 0.0
H1680 H 0.95361 0.44173 0.78331 0.0
H1681 H 0.95289 0.38154 0.76799 0.0
H1682 H 0.94226 0.38981 0.73545 0.0
H1683 H 0.93211 0.41409 0.71191 0.0
H1684 H 0.93275 0.47422 0.72735 0.0
H1685 H 0.94467 0.46603 0.75946 0.0
C1686 C 0.95156 0.43044 0.77272 0.0
C1687 C 0.95413 0.41106 0.77796 0.0
C1688 C 0.94522 0.43528 0.75424 0.0
C1689 C 0.95096 0.39655 0.76425 0.0
C1690 C 0.94484 0.40127 0.74572 0.0
C1691 C 0.93468 0.42536 0.72241 0.0
C1692 C 0.93135 0.44469 0.71746 0.0
C1693 C 0.94162 0.42056 0.74069 0.0
C1694 C 0.93518 0.45924 0.73093 0.0
C1695 C 0.94199 0.45457 0.74923 0.0
H1696 H 0.59324 0.94805 0.76682 0.0
H1697 H 0.53676 0.95606 0.79131 0.0
H1698 H 0.52194 0.94557 0.76128 0.0
H1699 H 0.52506 0.93226 0.72863 0.0
H1700 H 0.58178 0.92471 0.70434 0.0
H1701 H 0.59635 0.93606 0.73395 0.0
C1702 C 0.57769 0.94752 0.76557 0.0
C1703 C 0.56616 0.95281 0.78127 0.0
C1704 C 0.56925 0.9411 0.74843 0.0
C1705 C 0.54601 0.95235 0.77933 0.0
C1706 C 0.53749 0.94612 0.76224 0.0
C1707 C 0.54059 0.93316 0.72979 0.0
C1708 C 0.55223 0.92719 0.71436 0.0
C1709 C 0.54898 0.94016 0.74679 0.0
C1710 C 0.57238 0.92852 0.71616 0.0
C1711 C 0.58079 0.9353 0.73302 0.0
H1712 H 0.22535 0.03485 0.44155 0.0
H1713 H 0.20714 0.09168 0.42416 0.0
H1714 H 0.23789 0.10494 0.43445 0.0
H1715 H 0.27019 0.1004 0.44787 0.0
H1716 H 0.28828 0.04356 0.46525 0.0
H1717 H 0.25694 0.03061 0.45651 0.0
C1718 C 0.22798 0.05017 0.44018 0.0
C1719 C 0.21398 0.06215 0.43184 0.0
C1720 C 0.24557 0.05782 0.44648 0.0
C1721 C 0.21782 0.08197 0.43003 0.0
C1722 C 0.23532 0.08965 0.43614 0.0
C1723 C 0.26724 0.0852 0.44983 0.0
C1724 C 0.2816 0.07303 0.45721 0.0
C1725 C 0.24934 0.0777 0.44429 0.0
C1726 C 0.27742 0.05338 0.45992 0.0
C1727 C 0.25957 0.04587 0.45467 0.0
H1728 H 0.917 0.21584 0.43417 0.0
H1729 H 0.97771 0.22792 0.43902 0.0
H1730 H 0.97052 0.26085 0.44919 0.0
H1731 H 0.94699 0.28651 0.45528 0.0
H1732 H 0.88634 0.27463 0.44949 0.0
H1733 H 0.89348 0.24119 0.44105 0.0
C1734 C 0.92866 0.22575 0.43725 0.0
C1735 C 0.94786 0.21954 0.43565 0.0
C1736 C 0.92442 0.24459 0.44301 0.0
C1737 C 0.96282 0.23237 0.44017 0.0
C1738 C 0.95872 0.25118 0.44596 0.0
C1739 C 0.93534 0.27647 0.45254 0.0
C1740 C 0.91617 0.28292 0.45309 0.0
C1741 C 0.93958 0.25745 0.44735 0.0
C1742 C 0.9012 0.26994 0.44912 0.0
C1743 C 0.90528 0.25088 0.44426 0.0
H1744 H 0.78627 0.94371 0.45263 0.0
H1745 H 0.77343 0.9488 0.39212 0.0
H1746 H 0.74055 0.93768 0.39798 0.0
H1747 H 0.71559 0.92665 0.42027 0.0
H1748 H 0.72828 0.92159 0.48081 0.0
H1749 H 0.7612 0.93272 0.475 0.0
C1750 C 0.77617 0.94267 0.44078 0.0
C1751 C 0.78219 0.94719 0.42199 0.0
C1752 C 0.7574 0.93614 0.44424 0.0
C1753 C 0.76911 0.94536 0.40669 0.0
C1754 C 0.75035 0.939 0.41004 0.0
C1755 C 0.72566 0.92767 0.43215 0.0
C1756 C 0.71962 0.92311 0.45092 0.0
C1757 C 0.74441 0.93422 0.42872 0.0
C1758 C 0.73264 0.925 0.46625 0.0
C1759 C 0.75142 0.93138 0.46293 0.0
H1760 H 0.02974 0.78028 0.44029 0.0
H1761 H 0.04895 0.76792 0.38256 0.0
H1762 H 0.05953 0.73594 0.39276 0.0
H1763 H 0.06527 0.71245 0.41861 0.0
H1764 H 0.04545 0.72453 0.47608 0.0
H1765 H 0.03307 0.75585 0.46549 0.0
C1766 C 0.03571 0.7704 0.42979 0.0
C1767 C 0.03854 0.77644 0.41068 0.0
C1768 C 0.042 0.75221 0.43582 0.0
C1769 C 0.0467 0.7636 0.39737 0.0
C1770 C 0.05283 0.74539 0.40321 0.0
C1771 C 0.05833 0.72207 0.42877 0.0
C1772 C 0.05657 0.71658 0.44812 0.0
C1773 C 0.05101 0.73977 0.42249 0.0
C1774 C 0.04713 0.72873 0.46116 0.0
C1775 C 0.04001 0.74652 0.45509 0.0
H1776 H 0.28476 0.92249 0.57508 0.0
H1777 H 0.27077 0.91244 0.51546 0.0
H1778 H 0.23834 0.92515 0.52077 0.0
H1779 H 0.21402 0.9389 0.5425 0.0
H1780 H 0.22817 0.94877 0.60211 0.0
H1781 H 0.26063 0.93631 0.59668 0.0
C1782 C 0.2745 0.92277 0.56332 0.0
C1783 C 0.28004 0.91633 0.54496 0.0
C1784 C 0.25606 0.93025 0.56644 0.0
C1785 C 0.2668 0.91728 0.52973 0.0
C1786 C 0.2483 0.92458 0.53275 0.0
C1787 C 0.22434 0.93861 0.55421 0.0
C1788 C 0.21881 0.94485 0.57264 0.0
C1789 C 0.24284 0.93121 0.55102 0.0
C1790 C 0.23214 0.94403 0.58781 0.0
C1791 C 0.25064 0.93687 0.58472 0.0
H1792 H 0.07452 0.21377 0.57345 0.0
H1793 H 0.01456 0.22938 0.57497 0.0
H1794 H 0.02244 0.26171 0.56314 0.0
H1795 H 0.0463 0.28499 0.55194 0.0
H1796 H 0.10614 0.26868 0.54815 0.0
H1797 H 0.09845 0.23705 0.56149 0.0
C1798 C 0.06329 0.22444 0.57144 0.0
C1799 C 0.04408 0.21958 0.57533 0.0
C1800 C 0.06789 0.24265 0.5641 0.0
C1801 C 0.02946 0.23311 0.57227 0.0
C1802 C 0.03396 0.25145 0.56542 0.0
C1803 C 0.05765 0.27443 0.55365 0.0
C1804 C 0.07676 0.27916 0.54885 0.0
C1805 C 0.0531 0.25627 0.56109 0.0
C1806 C 0.09133 0.26545 0.55178 0.0
C1807 C 0.08695 0.24736 0.55938 0.0
H1808 H 0.78789 0.08053 0.57387 0.0
H1809 H 0.77304 0.02027 0.57116 0.0
H1810 H 0.74171 0.02845 0.55739 0.0
H1811 H 0.71823 0.05277 0.54724 0.0
H1812 H 0.73245 0.11303 0.55134 0.0
H1813 H 0.76454 0.10483 0.56345 0.0
C1814 C 0.77769 0.06919 0.57053 0.0
C1815 C 0.78269 0.04983 0.5737 0.0
C1816 C 0.75976 0.074 0.5627 0.0
C1817 C 0.76953 0.03527 0.56882 0.0
C1818 C 0.75165 0.03994 0.56095 0.0
C1819 C 0.72854 0.06407 0.5504 0.0
C1820 C 0.7232 0.08345 0.54821 0.0
C1821 C 0.74663 0.05924 0.55784 0.0
C1822 C 0.7364 0.09802 0.55282 0.0
C1823 C 0.75464 0.09333 0.55983 0.0
H1824 H 0.92316 0.71245 0.57387 0.0
H1825 H 0.92771 0.72796 0.51404 0.0
H1826 H 0.94012 0.75978 0.523 0.0
H1827 H 0.94982 0.78281 0.54786 0.0
H1828 H 0.94672 0.76672 0.60776 0.0
H1829 H 0.93366 0.73528 0.59878 0.0
C1830 C 0.92656 0.723 0.56287 0.0
C1831 C 0.92421 0.71823 0.54338 0.0
C1832 C 0.9342 0.7409 0.56813 0.0
C1833 C 0.92917 0.73161 0.52912 0.0
C1834 C 0.93638 0.74965 0.53425 0.0
C1835 C 0.94667 0.77229 0.55895 0.0
C1836 C 0.94936 0.77703 0.57845 0.0
C1837 C 0.93913 0.75435 0.5537 0.0
C1838 C 0.94473 0.76342 0.59266 0.0
C1839 C 0.93723 0.74549 0.58754 0.0
H1840 H 0.44587 0.21196 0.03774 0.0
H1841 H 0.38595 0.22776 0.04153 0.0
H1842 H 0.39501 0.26027 0.05163 0.0
H1843 H 0.41993 0.28343 0.0611 0.0
H1844 H 0.4798 0.26749 0.05766 0.0
H1845 H 0.4708 0.23565 0.0455 0.0
C1846 C 0.4348 0.22266 0.0403 0.0
C1847 C 0.41527 0.21754 0.03884 0.0
C1848 C 0.44011 0.24111 0.04642 0.0
C1849 C 0.40107 0.23141 0.04262 0.0
C1850 C 0.40624 0.24992 0.04845 0.0
C1851 C 0.43098 0.2729 0.05783 0.0
C1852 C 0.45046 0.27758 0.06053 0.0
C1853 C 0.4257 0.25476 0.05081 0.0
C1854 C 0.46471 0.26408 0.05576 0.0
C1855 C 0.45957 0.24595 0.04881 0.0
H1856 H 0.42288 0.71696 0.92458 0.0
H1857 H 0.48261 0.73239 0.91749 0.0
H1858 H 0.47596 0.76444 0.9307 0.0
H1859 H 0.45289 0.78809 0.94368 0.0
H1860 H 0.3931 0.77254 0.94963 0.0
H1861 H 0.40004 0.74029 0.93729 0.0
C1862 C 0.43441 0.72745 0.92552 0.0
C1863 C 0.45315 0.72247 0.91971 0.0
C1864 C 0.43048 0.74566 0.93309 0.0
C1865 C 0.46805 0.73597 0.92174 0.0
C1866 C 0.46425 0.75423 0.92932 0.0
C1867 C 0.44148 0.77749 0.94252 0.0
C1868 C 0.42256 0.78248 0.94767 0.0
C1869 C 0.44552 0.75919 0.93506 0.0
C1870 C 0.40776 0.76889 0.94577 0.0
C1871 C 0.41171 0.75054 0.93868 0.0
H1872 H 0.27226 0.43846 0.90521 0.0
H1873 H 0.29185 0.44666 0.96363 0.0
H1874 H 0.26063 0.43645 0.97575 0.0
H1875 H 0.22795 0.42433 0.96985 0.0
H1876 H 0.20904 0.41486 0.91147 0.0
H1877 H 0.24015 0.42552 0.89935 0.0
C1878 C 0.26983 0.43785 0.9206 0.0
C1879 C 0.28444 0.44344 0.93341 0.0
C1880 C 0.25206 0.43136 0.92754 0.0
C1881 C 0.28079 0.44288 0.95333 0.0
C1882 C 0.26299 0.43679 0.96034 0.0
C1883 C 0.23069 0.42457 0.9545 0.0
C1884 C 0.21629 0.41867 0.94161 0.0
C1885 C 0.24857 0.43088 0.94758 0.0
C1886 C 0.22004 0.41895 0.92173 0.0
C1887 C 0.23774 0.42525 0.91476 0.0
H1888 H 0.56581 0.2875 0.95548 0.0
H1889 H 0.5416 0.2711 0.90066 0.0
H1890 H 0.55062 0.23765 0.90648 0.0
H1891 H 0.56572 0.21331 0.92679 0.0
H1892 H 0.58933 0.22912 0.98193 0.0
H1893 H 0.57985 0.26272 0.97651 0.0
C1894 C 0.56221 0.27656 0.94495 0.0
C1895 C 0.55306 0.28176 0.92765 0.0
C1896 C 0.56739 0.25737 0.94841 0.0
C1897 C 0.54882 0.26747 0.91399 0.0
C1898 C 0.55392 0.24837 0.91732 0.0
C1899 C 0.56896 0.22417 0.93754 0.0
C1900 C 0.57849 0.21895 0.95457 0.0
C1901 C 0.56337 0.24323 0.93437 0.0
C1902 C 0.58212 0.23294 0.96866 0.0
C1903 C 0.57671 0.25208 0.96555 0.0
H1904 H 0.76528 0.59241 0.94993 0.0
H1905 H 0.78306 0.53407 0.96162 0.0
H1906 H 0.75233 0.52204 0.94962 0.0
H1907 H 0.72151 0.52795 0.93337 0.0
H1908 H 0.70409 0.58647 0.92155 0.0
H1909 H 0.73405 0.5984 0.93503 0.0
C1910 C 0.76238 0.57707 0.94995 0.0
C1911 C 0.77645 0.56419 0.95661 0.0
C1912 C 0.74501 0.5702 0.94242 0.0
C1913 C 0.77237 0.54436 0.95685 0.0
C1914 C 0.75492 0.53743 0.9497 0.0
C1915 C 0.7242 0.54332 0.93382 0.0
C1916 C 0.71064 0.55621 0.92613 0.0
C1917 C 0.74132 0.5502 0.94204 0.0
C1918 C 0.71448 0.5761 0.92677 0.0
C1919 C 0.7315 0.58301 0.93478 0.0
H1920 H 0.53672 0.78514 0.05719 0.0
H1921 H 0.59496 0.76714 0.04537 0.0
H1922 H 0.58756 0.73482 0.05706 0.0
H1923 H 0.56507 0.71227 0.07175 0.0
H1924 H 0.50679 0.72969 0.08388 0.0
H1925 H 0.51358 0.76183 0.07076 0.0
C1926 C 0.54766 0.77401 0.05684 0.0
C1927 C 0.56636 0.77844 0.05044 0.0
C1928 C 0.54336 0.75557 0.06385 0.0
C1929 C 0.58051 0.76404 0.05033 0.0
C1930 C 0.5763 0.74562 0.05704 0.0
C1931 C 0.55392 0.7232 0.07177 0.0
C1932 C 0.53561 0.7189 0.07919 0.0
C1933 C 0.55791 0.74137 0.06415 0.0
C1934 C 0.52106 0.73287 0.07847 0.0
C1935 C 0.52494 0.75115 0.07095 0.0
H1936 H 0.28712 0.57258 0.06851 0.0
H1937 H 0.27153 0.51254 0.07061 0.0
H1938 H 0.23942 0.52029 0.05823 0.0
H1939 H 0.21576 0.54432 0.04753 0.0
H1940 H 0.23167 0.60431 0.04539 0.0
H1941 H 0.26387 0.5964 0.05712 0.0
C1942 C 0.27658 0.56123 0.06652 0.0
C1943 C 0.28148 0.54207 0.07073 0.0
C1944 C 0.25837 0.56577 0.05925 0.0
C1945 C 0.26796 0.5274 0.06756 0.0
C1946 C 0.24968 0.53183 0.06046 0.0
C1947 C 0.22641 0.5556 0.0493 0.0
C1948 C 0.22143 0.57486 0.04555 0.0
C1949 C 0.24476 0.55096 0.05623 0.0
C1950 C 0.2352 0.5894 0.04826 0.0
C1951 C 0.25355 0.58489 0.05499 0.0
H1952 H 0.77142 0.39966 0.05595 0.0
H1953 H 0.7908 0.4569 0.04151 0.0
H1954 H 0.75946 0.46997 0.05025 0.0
H1955 H 0.72718 0.46544 0.0638 0.0
H1956 H 0.70802 0.40819 0.07855 0.0
H1957 H 0.73895 0.39501 0.06869 0.0
C1958 C 0.76881 0.415 0.05474 0.0
C1959 C 0.78346 0.42724 0.0481 0.0
C1960 C 0.75093 0.42251 0.06025 0.0
C1961 C 0.7797 0.44706 0.04629 0.0
C1962 C 0.76185 0.45461 0.05151 0.0
C1963 C 0.72972 0.45007 0.06473 0.0
C1964 C 0.71536 0.43788 0.07211 0.0
C1965 C 0.74745 0.44251 0.05877 0.0
C1966 C 0.71897 0.41799 0.07337 0.0
C1967 C 0.73658 0.41039 0.06753 0.0
H1968 H 0.01604 0.53208 0.10461 0.0
H1969 H 0.95957 0.52552 0.12966 0.0
H1970 H 0.96404 0.49085 0.13137 0.0
H1971 H 0.98516 0.46282 0.12893 0.0
H1972 H 0.04196 0.46919 0.10464 0.0
H1973 H 0.03615 0.50338 0.09944 0.0
C1974 C 0.00464 0.52303 0.11027 0.0
C1975 C 0.9875 0.53144 0.11698 0.0
C1976 C 0.00743 0.50305 0.11155 0.0
C1977 C 0.97281 0.51949 0.12413 0.0
C1978 C 0.97541 0.49962 0.12529 0.0
C1979 C 0.99621 0.47159 0.12227 0.0
C1980 C 0.01414 0.46347 0.1176 0.0
C1981 C 0.99283 0.4913 0.11947 0.0
C1982 C 0.02816 0.47507 0.10873 0.0
C1983 C 0.02485 0.49467 0.10574 0.0
H1984 H 0.5046 0.04012 0.129 0.0
H1985 H 0.54927 0.99711 0.1275 0.0
H1986 H 0.5251 0.97158 0.12703 0.0
H1987 H 0.49135 0.96157 0.13066 0.0
H1988 H 0.4465 0.00443 0.13081 0.0
H1989 H 0.47057 0.02999 0.12795 0.0
C1990 C 0.50896 0.02515 0.12827 0.0
C1991 C 0.5286 0.02041 0.12842 0.0
C1992 C 0.49497 0.01057 0.1279 0.0
C1993 C 0.5342 0.00104 0.12725 0.0
C1994 C 0.52039 0.98645 0.12715 0.0
C1995 C 0.48689 0.97651 0.12976 0.0
C1996 C 0.4673 0.98121 0.13116 0.0
C1997 C 0.50077 0.99106 0.12799 0.0
C1998 C 0.46155 0.00053 0.12972 0.0
C1999 C 0.4753 0.01513 0.12823 0.0
H2000 H 0.95902 0.48488 0.86755 0.0
H2001 H 0.00196 0.44012 0.86758 0.0
H2002 H 0.02747 0.46427 0.87033 0.0
H2003 H 0.03756 0.49832 0.86922 0.0
H2004 H 0.99447 0.54297 0.87087 0.0
H2005 H 0.96902 0.51871 0.87126 0.0
C2006 C 0.97397 0.48046 0.86846 0.0
C2007 C 0.97869 0.46084 0.86718 0.0
C2008 C 0.9885 0.4944 0.87023 0.0
C2009 C 0.99802 0.45517 0.86862 0.0
C2010 C 0.0126 0.46897 0.87005 0.0
C2011 C 0.02259 0.50269 0.86997 0.0
C2012 C 0.01788 0.52237 0.86978 0.0
C2013 C 0.00802 0.48865 0.87035 0.0
C2014 C 0.99847 0.5279 0.87103 0.0
C2015 C 0.9839 0.51404 0.87112 0.0
H2016 H 0.50685 0.95786 0.86843 0.0
H2017 H 0.55142 0.00088 0.87226 0.0
H2018 H 0.52711 0.02634 0.87297 0.0
H2019 H 0.49332 0.03636 0.86845 0.0
H2020 H 0.44867 0.99333 0.86652 0.0
H2021 H 0.4728 0.96782 0.86932 0.0
C2022 C 0.51117 0.97281 0.86979 0.0
C2023 C 0.53083 0.97756 0.87003 0.0
C2024 C 0.49712 0.98732 0.87034 0.0
C2025 C 0.53634 0.9969 0.87206 0.0
C2026 C 0.52246 0.01146 0.87231 0.0
C2027 C 0.48892 0.02139 0.86898 0.0
C2028 C 0.46936 0.01663 0.86704 0.0
C2029 C 0.50284 0.00685 0.87084 0.0
C2030 C 0.46368 0.99727 0.86801 0.0
C2031 C 0.47747 0.9827 0.86949 0.0
H2032 H 0.12656 -0.00025 0.45831 0.0
H2033 H 0.12438 0.04944 0.49543 0.0
H2034 H 0.12263 0.0286 0.5237 0.0
H2035 H 0.12551 0.99637 0.538 0.0
H2036 H 0.13053 0.94686 0.50092 0.0
H2037 H 0.12715 0.96738 0.47257 0.0
C2038 C 0.12533 0.00597 0.47258 0.0
C2039 C 0.12571 0.02605 0.47485 0.0
C2040 C 0.12502 0.99391 0.4888 0.0
C2041 C 0.12429 0.03398 0.49339 0.0
C2042 C 0.12331 0.02209 0.50955 0.0
C2043 C 0.12548 0.99007 0.52371 0.0
C2044 C 0.12835 0.9702 0.5215 0.0
C2045 C 0.12423 0.00204 0.50747 0.0
C2046 C 0.1285 0.96219 0.50293 0.0
C2047 C 0.12659 0.9739 0.48673 0.0
H2048 H 0.97385 0.12416 0.55088 0.0
H2049 H 0.03218 0.12188 0.52986 0.0
H2050 H 0.02049 0.12164 0.49674 0.0
H2051 H 0.99357 0.12626 0.47359 0.0
H2052 H 0.93559 0.12998 0.49539 0.0
H2053 H 0.94716 0.1253 0.52812 0.0
C2054 C 0.98403 0.12335 0.53908 0.0
C2055 C 0.00388 0.12328 0.54294 0.0
C2056 C 0.97722 0.12364 0.52007 0.0
C2057 C 0.01683 0.12197 0.52741 0.0
C2058 C 0.01013 0.12196 0.50839 0.0
C2059 C 0.98352 0.12561 0.48551 0.0
C2060 C 0.96381 0.12867 0.48215 0.0
C2061 C 0.99036 0.12338 0.50451 0.0
C2062 C 0.95088 0.12792 0.49768 0.0
C2063 C 0.95747 0.12525 0.51641 0.0
H2064 H 0.86872 0.0385 0.50965 0.0
H2065 H 0.87395 0.9954 0.55399 0.0
H2066 H 0.87632 0.97019 0.52952 0.0
H2067 H 0.87375 0.9602 0.49559 0.0
H2068 H 0.8702 0.00338 0.45118 0.0
H2069 H 0.87057 0.0288 0.47555 0.0
C2070 C 0.87062 0.0236 0.51391 0.0
C2071 C 0.8709 0.01875 0.53356 0.0
C2072 C 0.87217 0.00922 0.49976 0.0
C2073 C 0.87368 -0.00054 0.53894 0.0
C2074 C 0.87492 0.98504 0.52496 0.0
C2075 C 0.87332 0.9752 0.49127 0.0
C2076 C 0.87173 0.97993 0.47166 0.0
C2077 C 0.87371 0.98971 0.50535 0.0
C2078 C 0.87145 -0.00061 0.46619 0.0
C2079 C 0.87153 0.01392 0.48013 0.0
H2080 H 0.96034 0.84743 0.50593 0.0
H2081 H 0.99298 0.88298 0.54501 0.0
H2082 H 0.01543 0.89107 0.51935 0.0
H2083 H 0.0267 0.88685 0.48624 0.0
H2084 H 0.99408 0.85144 0.44697 0.0
H2085 H 0.9707 0.8446 0.47224 0.0
C2086 C 0.97233 0.85699 0.50883 0.0
C2087 C 0.97508 0.8644 0.52747 0.0
C2088 C 0.98523 0.86159 0.49396 0.0
C2089 C 0.99057 0.87696 0.53088 0.0
C2090 C 0.00344 0.8816 0.51618 0.0
C2091 C 0.01442 0.87774 0.48312 0.0
C2092 C 0.01231 0.8695 0.46475 0.0
C2093 C 0.00104 0.87381 0.49774 0.0
C2094 C 0.99622 0.85781 0.46101 0.0
C2095 C 0.9828 0.8539 0.47546 0.0
H2096 H 0.51101 0.10449 0.97252 0.0
H2097 H 0.54764 0.14393 0.00361 0.0
H2098 H 0.52123 0.15156 0.02539 0.0
H2099 H 0.48744 0.14823 0.03472 0.0
H2100 H 0.45064 0.10877 0.00392 0.0
H2101 H 0.47747 0.09991 0.98298 0.0
C2102 C 0.51329 0.11464 0.98415 0.0
C2103 C 0.5313 0.12374 0.98628 0.0
C2104 C 0.49798 0.11905 0.99662 0.0
C2105 C 0.53394 0.13681 0.00149 0.0
C2106 C 0.51882 0.1412 0.01397 0.0
C2107 C 0.48524 0.13766 0.02345 0.0
C2108 C 0.46695 0.12936 0.02077 0.0
C2109 C 0.50072 0.13262 0.0115 0.0
C2110 C 0.4645 0.11549 0.00625 0.0
C2111 C 0.47986 0.11042 0.99425 0.0
H2112 H 0.45645 0.87052 0.00467 0.0
H2113 H 0.49234 0.87105 0.95411 0.0
H2114 H 0.52108 0.87415 0.97406 0.0
H2115 H 0.53627 0.87256 0.00587 0.0
H2116 H 0.5007 0.86816 0.05648 0.0
H2117 H 0.47172 0.87096 0.03675 0.0
C2118 C 0.47056 0.87173 0.9981 0.0
C2119 C 0.47234 0.87061 0.97801 0.0
C2120 C 0.48713 0.87261 0.00972 0.0
C2121 C 0.49067 0.87187 0.96958 0.0
C2122 C 0.50711 0.87358 0.98097 0.0
C2123 C 0.52217 0.87266 0.01258 0.0
C2124 C 0.52059 0.87019 0.03256 0.0
C2125 C 0.50557 0.87337 0.00106 0.0
C2126 C 0.50225 0.87003 0.04109 0.0
C2127 C 0.48567 0.87155 0.02981 0.0
H2128 H 0.13146 0.49262 0.95512 0.0
H2129 H 0.12773 0.44843 0.99852 0.0
H2130 H 0.12603 0.47297 0.02367 0.0
H2131 H 0.1288 0.50692 0.03347 0.0
H2132 H 0.13099 0.55124 0.99013 0.0
H2133 H 0.1298 0.52679 0.96479 0.0
C2134 C 0.13005 0.48842 0.97008 0.0
C2135 C 0.12996 0.46878 0.97501 0.0
C2136 C 0.12887 0.50262 0.98446 0.0
C2137 C 0.12781 0.46346 0.99439 0.0
C2138 C 0.12695 0.47748 0.00878 0.0
C2139 C 0.12874 0.5112 0.01846 0.0
C2140 C 0.13021 0.53079 0.01364 0.0
C2141 C 0.12794 0.49708 0.00401 0.0
C2142 C 0.12984 0.53623 0.99418 0.0
C2143 C 0.1293 0.52225 0.97969 0.0
H2144 H 0.89377 0.50669 0.96928 0.0
H2145 H 0.8641 0.54663 0.00648 0.0
H2146 H 0.85934 0.52128 0.03025 0.0
H2147 H 0.8616 0.4875 0.03955 0.0
H2148 H 0.89043 0.44695 0.00239 0.0
H2149 H 0.89773 0.47286 0.97965 0.0
C2150 C 0.88649 0.50989 0.9827 0.0
C2151 C 0.87913 0.52849 0.98601 0.0
C2152 C 0.88355 0.49512 0.99626 0.0
C2153 C 0.86968 0.53239 0.00345 0.0
C2154 C 0.86697 0.5179 0.01708 0.0
C2155 C 0.86956 0.48428 0.02652 0.0
C2156 C 0.87525 0.46524 0.02258 0.0
C2157 C 0.87349 0.49915 0.01346 0.0
C2158 C 0.88579 0.46144 0.00575 0.0
C2159 C 0.88993 0.47626 0.99271 0.0
H2160 H 0.4431 0.00445 0.62895 0.0
H2161 H 0.49418 0.03773 0.61742 0.0
H2162 H 0.51282 0.00805 0.61348 0.0
H2163 H 0.51516 0.97283 0.61723 0.0
H2164 H 0.46373 0.93991 0.62889 0.0
H2165 H 0.44461 0.96929 0.62861 0.0
C2166 C 0.45827 0.00518 0.62531 0.0
C2167 C 0.46736 0.02316 0.62375 0.0
C2168 C 0.46884 0.98815 0.62325 0.0
C2169 C 0.48691 0.024 0.61871 0.0
C2170 C 0.49757 0.00705 0.61659 0.0
C2171 C 0.49973 0.97204 0.61943 0.0
C2172 C 0.49096 0.95422 0.62349 0.0
C2173 C 0.4888 0.98905 0.61942 0.0
C2174 C 0.47092 0.95345 0.62607 0.0
C2175 C 0.45995 0.97025 0.62592 0.0
H2176 H 0.95944 0.49611 0.62795 0.0
H2177 H 0.9946 0.44503 0.62926 0.0
H2178 H 0.02371 0.46459 0.62658 0.0
H2179 H 0.03937 0.49647 0.62761 0.0
H2180 H 0.00409 0.54744 0.62995 0.0
H2181 H 0.97503 0.52789 0.62723 0.0
C2182 C 0.97347 0.4893 0.62724 0.0
C2183 C 0.9749 0.4692 0.62876 0.0
C2184 C 0.99021 0.50069 0.62654 0.0
C2185 C 0.99317 0.46052 0.62815 0.0
C2186 C 0.00983 0.47169 0.62667 0.0
C2187 C 0.02531 0.50325 0.62713 0.0
C2188 C 0.02384 0.52333 0.62892 0.0
C2189 C 0.00857 0.49183 0.62641 0.0
C2190 C 0.00556 0.53197 0.62859 0.0
C2191 C 0.98892 0.52081 0.6271 0.0
H2192 H 0.46416 0.99471 0.36769 0.0
H2193 H 0.50521 0.95372 0.38948 0.0
H2194 H 0.52856 0.97969 0.39492 0.0
H2195 H 0.53697 0.01444 0.39387 0.0
H2196 H 0.49697 0.05427 0.36812 0.0
H2197 H 0.4735 0.02855 0.36396 0.0
C2198 C 0.47827 0.99151 0.37356 0.0
C2199 C 0.48298 0.97247 0.37834 0.0
C2200 C 0.49171 0.00637 0.37609 0.0
C2201 C 0.50135 0.96833 0.38566 0.0
C2202 C 0.51463 0.98318 0.38886 0.0
C2203 C 0.52306 0.01742 0.38746 0.0
C2204 C 0.5185 0.03631 0.38177 0.0
C2205 C 0.50991 0.0023 0.38425 0.0
C2206 C 0.50068 0.03995 0.37295 0.0
C2207 C 0.48727 0.02522 0.37048 0.0
H2208 H 0.0031 0.46629 0.36275 0.0
H2209 H 0.0479 0.50865 0.36968 0.0
H2210 H 0.02371 0.53402 0.37314 0.0
H2211 H 0.98981 0.54447 0.3709 0.0
H2212 H 0.94504 0.50178 0.36577 0.0
H2213 H 0.96914 0.4762 0.36519 0.0
C2214 C 0.00751 0.48105 0.36528 0.0
C2215 C 0.02719 0.48568 0.36572 0.0
C2216 C 0.99353 0.49549 0.3675 0.0
C2217 C 0.03281 0.50477 0.3693 0.0
C2218 C 0.01899 0.51929 0.37116 0.0
C2219 C 0.98537 0.52953 0.36995 0.0
C2220 C 0.96572 0.52501 0.36817 0.0
C2221 C -0.00068 0.51487 0.3698 0.0
C2222 C 0.96008 0.50561 0.36721 0.0
C2223 C 0.97386 0.49098 0.36673 0.0
H2224 H 0.62714 0.53968 0.99371 0.0
H2225 H 0.622 0.4979 0.94812 0.0
H2226 H 0.62084 0.47186 0.97179 0.0
H2227 H 0.62436 0.46089 0.00535 0.0
H2228 H 0.62804 0.5029 0.05093 0.0
H2229 H 0.6265 0.52895 0.02741 0.0
C2230 C 0.62552 0.52487 0.98902 0.0
C2231 C 0.62489 0.52063 0.96927 0.0
C2232 C 0.62473 0.51004 0.00269 0.0
C2233 C 0.62249 0.50148 0.96329 0.0
C2234 C 0.62196 0.48659 0.9768 0.0
C2235 C 0.62463 0.47576 0.0101 0.0
C2236 C 0.62658 0.47998 0.02978 0.0
C2237 C 0.62356 0.49068 0.99651 0.0
C2238 C 0.62658 0.49928 0.03584 0.0
C2239 C 0.62579 0.51419 0.0224 0.0
H2240 H 0.4576 0.62379 0.99126 0.0
H2241 H 0.50219 0.62776 0.94829 0.0
H2242 H 0.52682 0.62675 0.97349 0.0
H2243 H 0.53557 0.62453 0.00778 0.0
H2244 H 0.49082 0.62326 0.05076 0.0
H2245 H 0.46628 0.62341 0.02552 0.0
C2246 C 0.47273 0.62439 0.98743 0.0
C2247 C 0.47814 0.62563 0.96799 0.0
C2248 C 0.48672 0.62427 0.00199 0.0
C2249 C 0.49773 0.62677 0.96319 0.0
C2250 C 0.51178 0.62615 0.97758 0.0
C2251 C 0.52043 0.6242 0.01157 0.0
C2252 C 0.51496 0.62364 0.03104 0.0
C2253 C 0.50643 0.62484 0.99701 0.0
C2254 C 0.49534 0.62363 0.03585 0.0
C2255 C 0.48133 0.6237 0.02144 0.0
H2256 H 0.37269 0.49277 0.03871 0.0
H2257 H 0.36693 0.54387 0.00404 0.0
H2258 H 0.37127 0.52494 0.97476 0.0
H2259 H 0.37279 0.49343 0.95886 0.0
H2260 H 0.37503 0.44189 0.99328 0.0
H2261 H 0.37619 0.46123 0.02268 0.0
C2262 C 0.37279 0.49973 0.02474 0.0
C2263 C 0.36952 0.51963 0.02346 0.0
C2264 C 0.37448 0.48861 0.00788 0.0
C2265 C 0.36937 0.52852 0.00531 0.0
C2266 C 0.37181 0.51771 0.98857 0.0
C2267 C 0.37399 0.48649 0.97279 0.0
C2268 C 0.37386 0.46632 0.97395 0.0
C2269 C 0.37382 0.49767 0.98964 0.0
C2270 C 0.37506 0.45745 0.99208 0.0
C2271 C 0.37566 0.46848 0.00889 0.0
H2272 H 0.50149 0.40161 0.02308 0.0
H2273 H 0.46397 0.35205 0.02317 0.0
H2274 H 0.47125 0.34606 0.98952 0.0
H2275 H 0.48877 0.35411 0.96026 0.0
H2276 H 0.5285 0.4018 0.96009 0.0
H2277 H 0.51988 0.40931 0.99346 0.0
C2278 C 0.49494 0.38952 0.0157 0.0
C2279 C 0.48218 0.37735 0.02567 0.0
C2280 C 0.49955 0.38581 0.9963 0.0
C2281 C 0.47392 0.36163 0.01594 0.0
C2282 C 0.47801 0.35819 0.99663 0.0
C2283 C 0.49539 0.36631 0.96741 0.0
C2284 C 0.50909 0.37751 0.95763 0.0
C2285 C 0.49084 0.37013 0.98669 0.0
C2286 C 0.51781 0.39302 0.96728 0.0
C2287 C 0.51292 0.39728 0.98637 0.0
H2288 H 0.96462 0.61146 0.48418 0.0
H2289 H 0.97142 0.62972 0.54314 0.0
H2290 H 0.00621 0.62921 0.53964 0.0
H2291 H 0.03461 0.6271 0.51889 0.0
H2292 H 0.02796 0.60959 0.45968 0.0
H2293 H 0.99343 0.6061 0.4643 0.0
C2294 C 0.97374 0.61513 0.49631 0.0
C2295 C 0.96536 0.62068 0.51386 0.0
C2296 C 0.99384 0.61508 0.49413 0.0
C2297 C 0.97738 0.62521 0.52951 0.0
C2298 C 0.99736 0.62507 0.52748 0.0
C2299 C 0.02568 0.62224 0.50705 0.0
C2300 C 0.03393 0.61894 0.48887 0.0
C2301 C 0.00573 0.62051 0.50972 0.0
C2302 C 0.02209 0.61241 0.47379 0.0
C2303 C 0.00225 0.61049 0.47639 0.0
H2304 H 0.01651 0.39983 0.51853 0.0
H2305 H 0.04914 0.3543 0.49175 0.0
H2306 H 0.02124 0.34524 0.47251 0.0
H2307 H 0.98764 0.34969 0.46375 0.0
H2308 H 0.95422 0.39476 0.4904 0.0
H2309 H 0.98238 0.40459 0.50923 0.0
C2310 C 0.01749 0.38803 0.50836 0.0
C2311 C 0.03479 0.37761 0.50669 0.0
C2312 C 0.00127 0.38277 0.49741 0.0
C2313 C 0.03589 0.3623 0.49355 0.0
C2314 C 0.01997 0.35717 0.48248 0.0
C2315 C 0.98641 0.36167 0.47368 0.0
C2316 C 0.96878 0.37141 0.4757 0.0
C2317 C 0.00256 0.36717 0.48443 0.0
C2318 C 0.96759 0.38695 0.4886 0.0
C2319 C 0.9837 0.3926 0.49934 0.0
H2320 H 0.61807 0.02104 0.52236 0.0
H2321 H 0.67693 0.03722 0.51134 0.0
H2322 H 0.67949 0.01255 0.48652 0.0
H2323 H 0.66576 0.98545 0.4692 0.0
H2324 H 0.60804 0.96648 0.48182 0.0
H2325 H 0.60419 0.99304 0.50479 0.0
C2326 C 0.63131 0.01918 0.51431 0.0
C2327 C 0.64724 0.03092 0.5184 0.0
C2328 C 0.63291 0.00442 0.50051 0.0
C2329 C 0.66449 0.02832 0.50827 0.0
C2330 C 0.66598 0.01423 0.49413 0.0
C2331 C 0.65224 0.98722 0.47681 0.0
C2332 C 0.63717 0.97413 0.47376 0.0
C2333 C 0.65038 0.00206 0.4903 0.0
C2334 C 0.61986 0.97642 0.48396 0.0
C2335 C 0.61766 0.99159 0.49707 0.0
H2336 H 0.38393 0.97695 0.52393 0.0
H2337 H 0.3267 0.9575 0.50997 0.0
H2338 H 0.3233 0.98317 0.48634 0.0
H2339 H 0.33568 0.01186 0.47089 0.0
H2340 H 0.3918 0.03377 0.48591 0.0
H2341 H 0.39658 0.00656 0.50794 0.0
C2342 C 0.37088 0.97831 0.51548 0.0
C2343 C 0.35564 0.96532 0.51841 0.0
C2344 C 0.36877 0.99361 0.5023 0.0
C2345 C 0.33862 0.9673 0.50776 0.0
C2346 C 0.33665 0.98199 0.49432 0.0
C2347 C 0.34906 0.0107 0.47884 0.0
C2348 C 0.36338 0.02482 0.47671 0.0
C2349 C 0.3515 0.99535 0.49165 0.0
C2350 C 0.38052 0.0231 0.48731 0.0
C2351 C 0.38326 0.00753 0.49989 0.0
H2352 H 0.12906 0.53453 0.12076 0.0
H2353 H 0.10587 0.52489 0.06389 0.0
H2354 H 0.09367 0.49376 0.07382 0.0
H2355 H 0.0904 0.46874 0.09811 0.0
H2356 H 0.11357 0.47759 0.15499 0.0
H2357 H 0.12571 0.50917 0.14531 0.0
C2358 C 0.12137 0.52562 0.11053 0.0
C2359 C 0.11829 0.53228 0.09165 0.0
C2360 C 0.11468 0.50741 0.11621 0.0
C2361 C 0.10812 0.52052 0.07864 0.0
C2362 C 0.10131 0.50252 0.08423 0.0
C2363 C 0.09795 0.47761 0.10847 0.0
C2364 C 0.10098 0.47081 0.12726 0.0
C2365 C 0.1046 0.49579 0.10291 0.0
C2366 C 0.11122 0.48236 0.14036 0.0
C2367 C 0.118 0.5005 0.13489 0.0
H2368 H 0.53087 0.12596 0.12409 0.0
H2369 H 0.52114 0.06747 0.10533 0.0
H2370 H 0.48912 0.07591 0.09453 0.0
H2371 H 0.46359 0.09965 0.09054 0.0
H2372 H 0.47262 0.1581 0.10932 0.0
H2373 H 0.50481 0.14973 0.12067 0.0
C2374 C 0.52174 0.11506 0.11768 0.0
C2375 C 0.52868 0.09619 0.11532 0.0
C2376 C 0.50304 0.11991 0.11175 0.0
C2377 C 0.51658 0.08226 0.10691 0.0
C2378 C 0.49807 0.08699 0.1009 0.0
C2379 C 0.47262 0.11058 0.09704 0.0
C2380 C 0.46573 0.12946 0.099 0.0
C2381 C 0.49117 0.10575 0.10323 0.0
C2382 C 0.47747 0.14338 0.10783 0.0
C2383 C 0.49596 0.13866 0.11415 0.0
H2384 H 0.91442 0.52879 0.09831 0.0
H2385 H 0.89126 0.52403 0.15562 0.0
H2386 H 0.87901 0.49182 0.14818 0.0
H2387 H 0.87574 0.46476 0.12546 0.0
H2388 H 0.89861 0.47065 0.06792 0.0
H2389 H 0.91085 0.50229 0.07572 0.0
C2390 C 0.90683 0.52066 0.10923 0.0
C2391 C 0.90385 0.52871 0.12751 0.0
C2392 C 0.90008 0.50219 0.10493 0.0
C2393 C 0.89356 0.51819 0.14137 0.0
C2394 C 0.88673 0.49972 0.13718 0.0
C2395 C 0.88336 0.47295 0.11461 0.0
C2396 C 0.88638 0.46503 0.09621 0.0
C2397 C 0.89003 0.49153 0.11901 0.0
C2398 C 0.89643 0.47593 0.08238 0.0
C2399 C 0.90327 0.49424 0.08672 0.0
H2400 H 0.47995 0.89233 0.14829 0.0
H2401 H 0.45901 0.90933 0.09245 0.0
H2402 H 0.48952 0.8997 0.07782 0.0
H2403 H 0.52183 0.88654 0.08102 0.0
H2404 H 0.54322 0.86945 0.1367 0.0
H2405 H 0.51265 0.87902 0.15145 0.0
C2406 C 0.482 0.89364 0.1329 0.0
C2407 C 0.46728 0.90141 0.1214 0.0
C2408 C 0.49963 0.88827 0.12467 0.0
C2409 C 0.47021 0.90344 0.10153 0.0
C2410 C 0.48762 0.89796 0.0932 0.0
C2411 C 0.52001 0.88519 0.09643 0.0
C2412 C 0.53487 0.87746 0.1078 0.0
C2413 C 0.50245 0.89052 0.10468 0.0
C2414 C 0.53198 0.87536 0.12768 0.0
C2415 C 0.51453 0.8808 0.13608 0.0
H2416 H 0.10452 0.51547 0.85041 0.0
H2417 H 0.09681 0.54115 0.90631 0.0
H2418 H 0.1083 0.51165 0.92173 0.0
H2419 H 0.1189 0.47822 0.9192 0.0
H2420 H 0.1259 0.45203 0.86341 0.0
H2421 H 0.11645 0.48222 0.84788 0.0
C2422 C 0.10578 0.5147 0.86593 0.0
C2423 C 0.09992 0.53037 0.87727 0.0
C2424 C 0.11199 0.4976 0.87463 0.0
C2425 C 0.10121 0.52915 0.89738 0.0
C2426 C 0.1077 0.51233 0.90616 0.0
C2427 C 0.11816 0.47905 0.90365 0.0
C2428 C 0.1228 0.46289 0.89243 0.0
C2429 C 0.11273 0.49635 0.89492 0.0
C2430 C 0.12235 0.46432 0.87229 0.0
C2431 C 0.11695 0.48154 0.86344 0.0
H2432 H 0.51467 0.14786 0.88896 0.0
H2433 H 0.53938 0.09437 0.90861 0.0
H2434 H 0.51347 0.07648 0.89329 0.0
H2435 H 0.48209 0.07621 0.87714 0.0
H2436 H 0.45636 0.12972 0.85914 0.0
H2437 H 0.48423 0.14747 0.8712 0.0
C2438 C 0.51443 0.13229 0.8898 0.0
C2439 C 0.52885 0.12257 0.90011 0.0
C2440 C 0.49912 0.12211 0.88154 0.0
C2441 C 0.52861 0.10232 0.90067 0.0
C2442 C 0.51363 0.09204 0.89211 0.0
C2443 C 0.48256 0.09177 0.87598 0.0
C2444 C 0.4671 0.1017 0.86755 0.0
C2445 C 0.49852 0.10184 0.88305 0.0
C2446 C 0.4681 0.12179 0.86559 0.0
C2447 C 0.48399 0.13193 0.87251 0.0
H2448 H 0.91972 0.47277 0.88131 0.0
H2449 H 0.86653 0.45066 0.85809 0.0
H2450 H 0.84948 0.47914 0.86949 0.0
H2451 H 0.84937 0.50932 0.88751 0.0
H2452 H 0.90212 0.53012 0.91299 0.0
H2453 H 0.91971 0.50343 0.89879 0.0
C2454 C 0.90437 0.47407 0.87892 0.0
C2455 C 0.89438 0.45949 0.86905 0.0
C2456 C 0.89461 0.49036 0.88574 0.0
C2457 C 0.87458 0.46169 0.86558 0.0
C2458 C 0.86481 0.47795 0.87214 0.0
C2459 C 0.8647 0.50804 0.89002 0.0
C2460 C 0.87424 0.52169 0.90154 0.0
C2461 C 0.87464 0.49224 0.88243 0.0
C2462 C 0.89427 0.52003 0.90413 0.0
C2463 C 0.90437 0.50458 0.89618 0.0
H2464 H 0.53505 0.90823 0.90215 0.0
H2465 H 0.52845 0.88227 0.84615 0.0
H2466 H 0.49594 0.872 0.85449 0.0
H2467 H 0.46893 0.87175 0.87715 0.0
H2468 H 0.476 0.89795 0.93315 0.0
H2469 H 0.50834 0.9076 0.92486 0.0
C2470 C 0.52649 0.90037 0.89174 0.0
C2471 C 0.53417 0.89611 0.87356 0.0
C2472 C 0.50769 0.89493 0.89643 0.0
C2473 C 0.52302 0.88554 0.86037 0.0
C2474 C 0.50432 0.87987 0.86503 0.0
C2475 C 0.47751 0.87948 0.88761 0.0
C2476 C 0.46975 0.88404 0.90574 0.0
C2477 C 0.49643 0.88472 0.88294 0.0
C2478 C 0.48117 0.8944 0.91894 0.0
C2479 C 0.4999 0.89978 0.91432 0.0
H2480 H 0.11663 0.12798 0.46305 0.0
H2481 H 0.0951 0.0704 0.47302 0.0
H2482 H 0.08329 0.0799 0.50418 0.0
H2483 H 0.08071 0.10363 0.52962 0.0
H2484 H 0.10261 0.16104 0.52103 0.0
H2485 H 0.11341 0.15222 0.48868 0.0
C2486 C 0.10936 0.11749 0.47199 0.0
C2487 C 0.10684 0.09849 0.46539 0.0
C2488 C 0.10299 0.12287 0.49038 0.0
C2489 C 0.09708 0.08522 0.47723 0.0
C2490 C 0.09046 0.09055 0.49533 0.0
C2491 C 0.08761 0.11431 0.52062 0.0
C2492 C 0.0908 0.13295 0.52768 0.0
C2493 C 0.09358 0.10922 0.50213 0.0
C2494 C 0.1002 0.1465 0.51598 0.0
C2495 C 0.10622 0.14152 0.49745 0.0
H2496 H 0.88214 0.07356 0.52291 0.0
H2497 H 0.87622 0.13035 0.54732 0.0
H2498 H 0.88322 0.14472 0.51601 0.0
H2499 H 0.89175 0.14104 0.4819 0.0
H2500 H 0.89941 0.08442 0.458 0.0
H2501 H 0.89086 0.06985 0.48901 0.0
C2502 C 0.88266 0.08907 0.52148 0.0
C2503 C 0.87877 0.10088 0.53745 0.0
C2504 C 0.88673 0.09718 0.50351 0.0
C2505 C 0.87907 0.12097 0.53522 0.0
C2506 C 0.88306 0.12918 0.51734 0.0
C2507 C 0.89109 0.12553 0.48347 0.0
C2508 C 0.89574 0.1137 0.4678 0.0
C2509 C 0.88683 0.11741 0.5014 0.0
C2510 C 0.89556 0.09364 0.46996 0.0
C2511 C 0.89085 0.0854 0.48765 0.0
H2512 H 0.92377 0.87746 0.52016 0.0
H2513 H 0.86729 0.86291 0.5414 0.0
H2514 H 0.85298 0.87374 0.51109 0.0
H2515 H 0.85657 0.88878 0.47926 0.0
H2516 H 0.913 0.90439 0.45879 0.0
H2517 H 0.92743 0.89189 0.48837 0.0
C2518 C 0.9083 0.87689 0.51831 0.0
C2519 C 0.89655 0.86967 0.53313 0.0
C2520 C 0.90025 0.88331 0.50103 0.0
C2521 C 0.8766 0.86842 0.5302 0.0
C2522 C 0.86844 0.87465 0.51292 0.0
C2523 C 0.87204 0.88914 0.48118 0.0
C2524 C 0.88377 0.8974 0.46692 0.0
C2525 C 0.88013 0.88224 0.49831 0.0
C2526 C 0.90375 0.89816 0.46968 0.0
C2527 C 0.91197 0.89104 0.48654 0.0
H2528 H 0.12878 0.86866 0.53195 0.0
H2529 H 0.1038 0.92467 0.52177 0.0
H2530 H 0.09049 0.91362 0.49156 0.0
H2531 H 0.08478 0.8879 0.46847 0.0
H2532 H 0.10991 0.83194 0.47759 0.0
H2533 H 0.12469 0.84325 0.50752 0.0
C2534 C 0.12051 0.87845 0.52308 0.0
C2535 C 0.11704 0.89734 0.52948 0.0
C2536 C 0.11306 0.87209 0.5054 0.0
C2537 C 0.10626 0.90986 0.51772 0.0
C2538 C 0.0988 0.90364 0.50021 0.0
C2539 C 0.09388 0.8783 0.47671 0.0
C2540 C 0.09632 0.85913 0.47079 0.0
C2541 C 0.10201 0.88478 0.49396 0.0
C2542 C 0.1078 0.84675 0.48193 0.0
C2543 C 0.11617 0.85319 0.49905 0.0
H2544 H 0.59528 0.96706 0.60461 0.0
H2545 H 0.60198 0.98565 0.66325 0.0
H2546 H 0.62249 0.01237 0.65285 0.0
H2547 H 0.63377 0.03329 0.62657 0.0
H2548 H 0.6254 0.0154 0.56778 0.0
H2549 H 0.61028 0.98564 0.57858 0.0
C2550 C 0.60187 0.97656 0.61509 0.0
C2551 C 0.59724 0.97451 0.63461 0.0
C2552 C 0.61286 0.99232 0.6089 0.0
C2553 C 0.60549 0.98707 0.64814 0.0
C2554 C 0.61701 0.00241 0.64217 0.0
C2555 C 0.62898 0.02268 0.61619 0.0
C2556 C 0.63024 0.02674 0.59645 0.0
C2557 C 0.62006 0.00567 0.62251 0.0
C2558 C 0.62402 0.01286 0.58308 0.0
C2559 C 0.61551 0.99577 0.58923 0.0
H2560 H 0.96448 0.60158 0.58873 0.0
H2561 H 0.97465 0.65965 0.60804 0.0
H2562 H 0.00646 0.65026 0.61999 0.0
H2563 H 0.03182 0.62561 0.62359 0.0
H2564 H 0.02079 0.56778 0.60345 0.0
H2565 H 0.98925 0.5773 0.59238 0.0
C2566 C 0.9737 0.61225 0.5954 0.0
C2567 C 0.96731 0.6313 0.59733 0.0
C2568 C 0.99198 0.60688 0.60175 0.0
C2569 C 0.97919 0.64483 0.60653 0.0
C2570 C 0.99744 0.63952 0.61317 0.0
C2571 C 0.02251 0.6151 0.61682 0.0
C2572 C 0.02892 0.59605 0.61427 0.0
C2573 C 0.00407 0.6206 0.61064 0.0
C2574 C 0.01663 0.58265 0.6053 0.0
C2575 C 0.99839 0.588 0.59912 0.0
H2576 H 0.39814 0.96862 0.58414 0.0
H2577 H 0.34478 0.96863 0.61576 0.0
H2578 H 0.35139 0.00124 0.62728 0.0
H2579 H 0.37224 0.02993 0.62782 0.0
H2580 H 0.42586 0.02869 0.59618 0.0
H2581 H 0.4187 0.99689 0.58463 0.0
C2582 C 0.38786 0.97579 0.59343 0.0
C2583 C 0.37099 0.96623 0.59902 0.0
C2584 C 0.39161 0.99454 0.59975 0.0
C2585 C 0.35802 0.97558 0.61142 0.0
C2586 C 0.36169 0.9943 0.61785 0.0
C2587 C 0.38237 0.02277 0.6184 0.0
C2588 C 0.3995 0.03214 0.61295 0.0
C2589 C 0.37843 0.00397 0.61202 0.0
C2590 C 0.41232 0.02246 0.6005 0.0
C2591 C 0.40839 0.00396 0.59397 0.0
H2592 H 0.97764 0.41875 0.60979 0.0
H2593 H 0.9523 0.36286 0.61921 0.0
H2594 H 0.98215 0.34741 0.60873 0.0
H2595 H 0.01539 0.34999 0.59647 0.0
H2596 H 0.0399 0.40602 0.58626 0.0
H2597 H 0.01031 0.42138 0.5975 0.0
C2598 C 0.97847 0.4032 0.60926 0.0
C2599 C 0.96271 0.39197 0.61514 0.0
C2600 C 0.99557 0.3945 0.60325 0.0
C2601 C 0.96426 0.37181 0.61482 0.0
C2602 C 0.9813 0.36299 0.60883 0.0
C2603 C 0.01423 0.36554 0.59698 0.0
C2604 C 0.02966 0.37693 0.59068 0.0
C2605 C 0.99707 0.37421 0.60309 0.0
C2606 C 0.02806 0.39706 0.59102 0.0
C2607 C 0.0112 0.4058 0.59739 0.0
H2608 H 0.6296 0.9672 0.36863 0.0
H2609 H 0.61937 0.98276 0.42787 0.0
H2610 H 0.60761 0.01411 0.41805 0.0
H2611 H 0.59893 0.03666 0.39282 0.0
H2612 H 0.60859 0.02212 0.33339 0.0
H2613 H 0.62247 0.99109 0.34302 0.0
C2614 C 0.62491 0.97755 0.37931 0.0
C2615 C 0.6249 0.97246 0.39888 0.0
C2616 C 0.61819 0.99576 0.37355 0.0
C2617 C 0.61892 0.98603 0.41266 0.0
C2618 C 0.61236 0.00407 0.4071 0.0
C2619 C 0.60405 0.02667 0.38199 0.0
C2620 C 0.60254 0.03146 0.36247 0.0
C2621 C 0.61166 0.00895 0.38761 0.0
C2622 C 0.60969 0.01868 0.34854 0.0
C2623 C 0.61747 0.00093 0.35404 0.0
H2624 H 0.01381 0.6468 0.39991 0.0
H2625 H 0.03742 0.59001 0.40754 0.0
H2626 H 0.00675 0.57562 0.39778 0.0
H2627 H 0.97349 0.57938 0.38695 0.0
H2628 H 0.94934 0.63622 0.38045 0.0
H2629 H 0.98004 0.65053 0.38991 0.0
C2630 C 0.01224 0.63129 0.39916 0.0
C2631 C 0.02779 0.61941 0.40415 0.0
C2632 C 0.99449 0.62321 0.39395 0.0
C2633 C 0.02556 0.59934 0.40365 0.0
C2634 C 0.00807 0.59117 0.39815 0.0
C2635 C 0.97477 0.59489 0.38794 0.0
C2636 C 0.95908 0.60671 0.38303 0.0
C2637 C 0.99241 0.60298 0.39338 0.0
C2638 C 0.96122 0.62681 0.384 0.0
C2639 C 0.97876 0.63499 0.38941 0.0
H2640 H 0.36315 0.03037 0.36989 0.0
H2641 H 0.37759 0.01235 0.42749 0.0
H2642 H 0.39102 0.98246 0.41514 0.0
H2643 H 0.40233 0.96365 0.38793 0.0
H2644 H 0.38847 0.98126 0.3301 0.0
H2645 H 0.37063 0.00892 0.3426 0.0
C2646 C 0.36893 0.01974 0.37971 0.0
C2647 C 0.3699 0.0238 0.39948 0.0
C2648 C 0.37671 0.00255 0.37249 0.0
C2649 C 0.37732 0.00985 0.41212 0.0
C2650 C 0.38484 0.99267 0.4051 0.0
C2651 C 0.3949 0.97311 0.37803 0.0
C2652 C 0.39692 0.97053 0.35809 0.0
C2653 C 0.38515 0.98916 0.38529 0.0
C2654 C 0.38732 0.98314 0.34551 0.0
C2655 C 0.37721 -0.00102 0.35265 0.0
H2656 H 0.03378 0.40936 0.39536 0.0
H2657 H 0.02197 0.3923 0.33689 0.0
H2658 H 0.9915 0.37796 0.34696 0.0
H2659 H 0.96736 0.37192 0.3722 0.0
H2660 H 0.97951 0.38923 0.43058 0.0
H2661 H 0.01043 0.40225 0.42065 0.0
C2662 C 0.02451 0.40256 0.38482 0.0
C2663 C 0.03008 0.40201 0.36541 0.0
C2664 C 0.00693 0.39463 0.39064 0.0
C2665 C 0.01811 0.39276 0.35196 0.0
C2666 C 0.00061 0.3847 0.35768 0.0
C2667 C 0.97685 0.37843 0.38273 0.0
C2668 C 0.97095 0.37991 0.402 0.0
C2669 C 0.99475 0.38578 0.37695 0.0
C2670 C 0.98341 0.38839 0.41553 0.0
C2671 C 0.00121 0.39569 0.40991 0.0
H2672 H 0.62834 0.62812 0.96841 0.0
H2673 H 0.60443 0.57191 0.97993 0.0
H2674 H 0.59269 0.58296 0.0109 0.0
H2675 H 0.58724 0.60902 0.03369 0.0
H2676 H 0.6112 0.66521 0.02287 0.0
H2677 H 0.62551 0.65352 0.99289 0.0
C2678 C 0.62075 0.61823 0.97776 0.0
C2679 C 0.61694 0.59934 0.97155 0.0
C2680 C 0.61422 0.6246 0.99577 0.0
C2681 C 0.60704 0.58672 0.98393 0.0
C2682 C 0.60051 0.59294 0.00182 0.0
C2683 C 0.59605 0.61859 0.02511 0.0
C2684 C 0.59813 0.63798 0.03047 0.0
C2685 C 0.60378 0.61191 0.00776 0.0
C2686 C 0.60935 0.65025 0.01895 0.0
C2687 C 0.61741 0.6436 0.00178 0.0
H2688 H 0.40703 0.60879 0.96639 0.0
H2689 H 0.38128 0.66355 0.98006 0.0
H2690 H 0.36782 0.65 0.00966 0.0
H2691 H 0.36578 0.62329 0.03268 0.0
H2692 H 0.3915 0.56853 0.01825 0.0
H2693 H 0.40288 0.58158 0.988 0.0
C2694 C 0.39803 0.61766 0.97552 0.0
C2695 C 0.3951 0.63715 0.97103 0.0
C2696 C 0.39077 0.60991 0.99261 0.0
C2697 C 0.38372 0.64851 0.98329 0.0
C2698 C 0.37616 0.6408 0.00023 0.0
C2699 C 0.37369 0.61412 0.02288 0.0
C2700 C 0.37793 0.595 0.02803 0.0
C2701 C 0.38001 0.62163 0.00525 0.0
C2702 C 0.38837 0.58343 0.01508 0.0
C2703 C 0.39473 0.59081 0.99758 0.0
H2704 H 0.42939 0.36945 0.00979 0.0
H2705 H 0.37269 0.36361 0.03469 0.0
H2706 H 0.35825 0.37238 0.004 0.0
H2707 H 0.36176 0.38451 0.97098 0.0
H2708 H 0.41826 0.39398 0.9475 0.0
H2709 H 0.43295 0.38127 0.97701 0.0
C2710 C 0.41388 0.3703 0.00874 0.0
C2711 C 0.40222 0.36613 0.0248 0.0
C2712 C 0.40569 0.37605 0.99129 0.0
C2713 C 0.3821 0.36667 0.02269 0.0
C2714 C 0.3738 0.3718 0.00514 0.0
C2715 C 0.37727 0.38337 0.97229 0.0
C2716 C 0.38904 0.38982 0.95722 0.0
C2717 C 0.38546 0.37684 0.98948 0.0
C2718 C 0.40909 0.38889 0.95903 0.0
C2719 C 0.4174 0.38172 0.97584 0.0
H2720 H 0.63376 0.38256 0.02778 0.0
H2721 H 0.58177 0.41382 0.04086 0.0
H2722 H 0.56806 0.40436 0.0099 0.0
H2723 H 0.57197 0.38945 0.9784 0.0
H2724 H 0.62371 0.35755 0.96541 0.0
H2725 H 0.63651 0.36522 0.99716 0.0
C2726 C 0.61927 0.38694 0.02406 0.0
C2727 C 0.60884 0.39898 0.03655 0.0
C2728 C 0.61159 0.38161 0.00618 0.0
C2729 C 0.59018 0.40477 0.03137 0.0
C2730 C 0.58235 0.39936 0.01369 0.0
C2731 C 0.58588 0.38379 0.98252 0.0
C2732 C 0.59687 0.37299 0.96935 0.0
C2733 C 0.5931 0.38813 0.00084 0.0
C2734 C 0.61505 0.36617 0.97504 0.0
C2735 C 0.62234 0.37044 0.99327 0.0
H2736 H 0.06058 0.40954 0.07097 0.0
H2737 H 0.09947 0.36998 0.09891 0.0
H2738 H 0.11666 0.36517 0.06868 0.0
H2739 H 0.12174 0.37364 0.03481 0.0
H2740 H 0.08226 0.41261 0.00682 0.0
H2741 H 0.06442 0.41637 0.03666 0.0
C2742 C 0.07274 0.39977 0.07043 0.0
C2743 C 0.07881 0.39024 0.08719 0.0
C2744 C 0.08261 0.39712 0.05305 0.0
C2745 C 0.09451 0.37753 0.08622 0.0
C2746 C 0.10439 0.37481 0.06895 0.0
C2747 C 0.10909 0.38274 0.03513 0.0
C2748 C 0.10359 0.39301 0.01858 0.0
C2749 C 0.09872 0.38472 0.05233 0.0
C2750 C 0.08719 0.40487 0.01939 0.0
C2751 C 0.07684 0.40694 0.03644 0.0
H2752 H 0.59427 0.08432 0.01067 0.0
H2753 H 0.64027 0.12264 0.02724 0.0
H2754 H 0.64177 0.10742 0.05882 0.0
H2755 H 0.62802 0.08529 0.08262 0.0
H2756 H 0.58059 0.04847 0.06657 0.0
H2757 H 0.5815 0.06125 0.03389 0.0
C2758 C 0.60456 0.08946 0.02118 0.0
C2759 C 0.61693 0.10483 0.01663 0.0
C2760 C 0.60499 0.08099 0.03946 0.0
C2761 C 0.6306 0.11082 0.03028 0.0
C2762 C 0.63138 0.10221 0.04842 0.0
C2763 C 0.61802 0.0799 0.07193 0.0
C2764 C 0.60417 0.06606 0.07705 0.0
C2765 C 0.61836 0.08757 0.05328 0.0
C2766 C 0.59132 0.05921 0.06302 0.0
C2767 C 0.59181 0.06652 0.04434 0.0
H2768 H 0.92033 0.6294 0.07666 0.0
H2769 H 0.93677 0.56965 0.07171 0.0
H2770 H 0.91984 0.56726 0.04116 0.0
H2771 H 0.89912 0.58143 0.01697 0.0
H2772 H 0.88339 0.64147 0.02066 0.0
H2773 H 0.90107 0.64429 0.05086 0.0
C2774 C 0.92031 0.6159 0.06882 0.0
C2775 C 0.92973 0.59972 0.07651 0.0
C2776 C 0.91054 0.6146 0.05118 0.0
C2777 C 0.92967 0.58235 0.06613 0.0
C2778 C 0.91993 0.58094 0.04867 0.0
C2779 C 0.89976 0.59529 0.02402 0.0
C2780 C 0.8898 0.61119 0.01638 0.0
C2781 C 0.91016 0.5969 0.04119 0.0
C2782 C 0.89063 0.62887 0.02623 0.0
C2783 C 0.90085 0.63055 0.04348 0.0
H2784 H 0.40727 0.91009 0.01936 0.0
H2785 H 0.37005 0.8641 0.03823 0.0
H2786 H 0.36774 0.87874 0.07002 0.0
H2787 H 0.37708 0.90397 0.09273 0.0
H2788 H 0.41521 0.94944 0.07432 0.0
H2789 H 0.41642 0.93557 0.04205 0.0
C2790 C 0.39881 0.90316 0.03046 0.0
C2791 C 0.38889 0.88598 0.02639 0.0
C2792 C 0.39766 0.91159 0.04877 0.0
C2793 C 0.37767 0.87743 0.04088 0.0
C2794 C 0.3764 0.88574 0.05911 0.0
C2795 C 0.38552 0.91096 0.08163 0.0
C2796 C 0.39602 0.92771 0.08593 0.0
C2797 C 0.38638 0.90278 0.06322 0.0
C2798 C 0.40697 0.93653 0.07139 0.0
C2799 C 0.40772 0.92858 0.05295 0.0
H2800 H 0.09089 0.61801 0.90557 0.0
H2801 H 0.04904 0.57848 0.92893 0.0
H2802 H 0.06476 0.5802 0.96034 0.0
H2803 H 0.09081 0.59214 0.98068 0.0
H2804 H 0.13389 0.63001 0.95676 0.0
H2805 H 0.11693 0.63005 0.92607 0.0
C2806 C 0.08509 0.6099 0.91757 0.0
C2807 C 0.06881 0.59815 0.91494 0.0
C2808 C 0.0944 0.61066 0.93545 0.0
C2809 C 0.06157 0.58761 0.93059 0.0
C2810 C 0.07056 0.58858 0.94853 0.0
C2811 C 0.09669 0.60025 0.96877 0.0
C2812 C 0.11378 0.61093 0.97112 0.0
C2813 C 0.08711 0.59987 0.95104 0.0
C2814 C 0.12074 0.62177 0.95552 0.0
C2815 C 0.1111 0.62171 0.93789 0.0
H2816 H 0.4105 0.08916 0.98139 0.0
H2817 H 0.36108 0.12381 0.96682 0.0
H2818 H 0.36111 0.1106 0.93434 0.0
H2819 H 0.37542 0.08965 0.90993 0.0
H2820 H 0.42522 0.05535 0.92416 0.0
H2821 H 0.42489 0.06815 0.95688 0.0
C2822 C 0.39984 0.09396 0.97107 0.0
C2823 C 0.3858 0.10747 0.97658 0.0
C2824 C 0.40001 0.08638 0.95235 0.0
C2825 C 0.37189 0.11326 0.96308 0.0
C2826 C 0.37196 0.10579 0.94445 0.0
C2827 C 0.38619 0.08492 0.92018 0.0
C2828 C 0.40031 0.07156 0.91459 0.0
C2829 C 0.38596 0.09237 0.93893 0.0
C2830 C 0.41416 0.06561 0.92808 0.0
C2831 C 0.414 0.07293 0.9468 0.0
H2832 H 0.90828 0.40223 0.98314 0.0
H2833 H 0.8632 0.36307 0.96589 0.0
H2834 H 0.87638 0.36194 0.93345 0.0
H2835 H 0.90008 0.37278 0.90972 0.0
H2836 H 0.94429 0.41305 0.92657 0.0
H2837 H 0.93183 0.41326 0.95942 0.0
C2838 C 0.90116 0.39359 0.9723 0.0
C2839 C 0.88469 0.38279 0.97707 0.0
C2840 C 0.90863 0.39325 0.95356 0.0
C2841 C 0.876 0.37136 0.96279 0.0
C2842 C 0.88346 0.3708 0.94416 0.0
C2843 C 0.90705 0.38154 0.92058 0.0
C2844 C 0.92309 0.39287 0.91571 0.0
C2845 C 0.89971 0.38175 0.93937 0.0
C2846 C 0.9319 0.40421 0.92995 0.0
C2847 C 0.92479 0.40434 0.94873 0.0
H2848 H 0.57713 0.92924 0.92213 0.0
H2849 H 0.63824 0.92231 0.91346 0.0
H2850 H 0.64059 0.90388 0.94326 0.0
H2851 H 0.62514 0.88876 0.97112 0.0
H2852 H 0.56392 0.89471 0.97932 0.0
H2853 H 0.56177 0.91462 0.95044 0.0
C2854 C 0.591 0.92392 0.92689 0.0
C2855 C 0.6075 0.92717 0.91561 0.0
C2856 C 0.59221 0.91304 0.94388 0.0
C2857 C 0.62533 0.91999 0.92187 0.0
C2858 C 0.62668 0.9094 0.93889 0.0
C2859 C 0.61131 0.89428 0.96652 0.0
C2860 C 0.59472 0.89017 0.97734 0.0
C2861 C 0.61018 0.90561 0.94985 0.0
C2862 C 0.57695 0.89779 0.97137 0.0
C2863 C 0.5757 0.90912 0.95481 0.0
H2864 H 0.01405 0.08843 0.41356 0.0
H2865 H 0.03759 0.13646 0.38191 0.0
H2866 H 0.06719 0.11872 0.37649 0.0
H2867 H 0.08686 0.09022 0.38148 0.0
H2868 H 0.06499 0.04292 0.4152 0.0
H2869 H 0.0342 0.05971 0.419 0.0
C2870 C 0.0257 0.09511 0.40566 0.0
C2871 C 0.02343 0.11377 0.39805 0.0
C2872 C 0.04294 0.0849 0.40282 0.0
C2873 C 0.0387 0.12204 0.38764 0.0
C2874 C 0.05572 0.11192 0.38458 0.0
C2875 C 0.07528 0.0834 0.38941 0.0
C2876 C 0.07812 0.06527 0.39787 0.0
C2877 C 0.05798 0.09337 0.39208 0.0
C2878 C 0.06307 0.05683 0.40842 0.0
C2879 C 0.04554 0.06647 0.41069 0.0
H2880 H 0.91174 0.08792 0.37901 0.0
H2881 H 0.95169 0.06954 0.42286 0.0
H2882 H 0.93724 0.03745 0.42277 0.0
H2883 H 0.91244 0.01514 0.41115 0.0
H2884 H 0.87145 0.03436 0.36861 0.0
H2885 H 0.88733 0.06556 0.36714 0.0
C2886 C 0.91747 0.07685 0.3884 0.0
C2887 C 0.93278 0.08112 0.40091 0.0
C2888 C 0.90884 0.05861 0.38858 0.0
C2889 C 0.93991 0.06662 0.41308 0.0
C2890 C 0.93161 0.0483 0.41308 0.0
C2891 C 0.90684 0.02616 0.40168 0.0
C2892 C 0.89067 0.02232 0.39006 0.0
C2893 C 0.91587 0.04423 0.40111 0.0
C2894 C 0.88395 0.03675 0.37757 0.0
C2895 C 0.89297 0.05467 0.37678 0.0
H2896 H 0.9177 0.91713 0.37113 0.0
H2897 H 0.93139 0.94694 0.42389 0.0
H2898 H 0.964 0.93386 0.42301 0.0
H2899 H 0.98798 0.91266 0.40816 0.0
H2900 H 0.97372 0.88179 0.35619 0.0
H2901 H 0.94209 0.89694 0.35566 0.0
C2902 C 0.92784 0.92091 0.38237 0.0
C2903 C 0.92206 0.93292 0.39761 0.0
C2904 C 0.94647 0.91315 0.38191 0.0
C2905 C 0.93543 0.93771 0.41201 0.0
C2906 C 0.95408 0.93019 0.41154 0.0
C2907 C 0.97796 0.90915 0.39675 0.0
C2908 C 0.98324 0.89593 0.38234 0.0
C2909 C 0.95964 0.91765 0.39673 0.0
C2910 C 0.97017 0.89198 0.3674 0.0
C2911 C 0.95199 0.90055 0.36716 0.0
H2912 H 0.10292 0.97393 0.42425 0.0
H2913 H 0.12302 0.96711 0.36584 0.0
H2914 H 0.10639 0.93646 0.36345 0.0
H2915 H 0.0861 0.91164 0.37764 0.0
H2916 H 0.06498 0.91828 0.43563 0.0
H2917 H 0.08172 0.9492 0.43831 0.0
C2918 C 0.10353 0.96587 0.41093 0.0
C2919 C 0.11436 0.97291 0.39529 0.0
C2920 C 0.09365 0.94826 0.40951 0.0
C2921 C 0.11515 0.96201 0.37825 0.0
C2922 C 0.10549 0.94449 0.37679 0.0
C2923 C 0.0851 0.91984 0.39088 0.0
C2924 C 0.07432 0.91267 0.40641 0.0
C2925 C 0.09472 0.93749 0.39231 0.0
C2926 C 0.07311 0.92354 0.42342 0.0
C2927 C 0.08274 0.94117 0.42498 0.0
H2928 H 0.07426 0.93087 0.57467 0.0
H2929 H 0.08516 0.93205 0.63578 0.0
H2930 H 0.05566 0.91384 0.64161 0.0
H2931 H 0.02762 0.89612 0.62917 0.0
H2932 H 0.01771 0.89402 0.56796 0.0
H2933 H 0.04588 0.91406 0.56237 0.0
C2934 C 0.07004 0.9274 0.58929 0.0
C2935 C 0.08188 0.93278 0.60476 0.0
C2936 C 0.05331 0.91659 0.59252 0.0
C2937 C 0.07629 0.92803 0.6236 0.0
C2938 C 0.05947 0.91755 0.62696 0.0
C2939 C 0.0317 0.89999 0.61464 0.0
C2940 C 0.02054 0.8936 0.59904 0.0
C2941 C 0.04806 0.91144 0.61149 0.0
C2942 C 0.02586 0.89896 0.58026 0.0
C2943 C 0.04204 0.91036 0.57703 0.0
H2944 H 0.06056 0.07271 0.58564 0.0
H2945 H 0.09784 0.09949 0.62753 0.0
H2946 H 0.11711 0.07028 0.62941 0.0
H2947 H 0.12408 0.03763 0.61846 0.0
H2948 H 0.08616 0.0103 0.57745 0.0
H2949 H 0.06681 0.03931 0.57573 0.0
C2950 C 0.07283 0.07212 0.59527 0.0
C2951 C 0.07773 0.08831 0.60638 0.0
C2952 C 0.08393 0.05523 0.59631 0.0
C2953 C 0.09369 0.08726 0.61879 0.0
C2954 C 0.10479 0.07056 0.61986 0.0
C2955 C 0.1115 0.03782 0.60929 0.0
C2956 C 0.10685 0.02161 0.59805 0.0
C2957 C 0.10013 0.05451 0.60858 0.0
C2958 C 0.0905 0.02248 0.58607 0.0
C2959 C 0.07923 0.03911 0.58516 0.0
H2960 H 0.92172 0.07202 0.63764 0.0
H2961 H 0.92783 0.05591 0.57795 0.0
H2962 H 0.95954 0.0709 0.57695 0.0
H2963 H 0.98394 0.09133 0.59201 0.0
H2964 H 0.978 0.10756 0.65163 0.0
H2965 H 0.94775 0.08979 0.65363 0.0
C2966 C 0.93008 0.07157 0.62448 0.0
C2967 C 0.92231 0.06303 0.60786 0.0
C2968 C 0.94825 0.0804 0.62392 0.0
C2969 C 0.93341 0.06244 0.59096 0.0
C2970 C 0.95154 0.07108 0.59034 0.0
C2971 C 0.97633 0.09063 0.60559 0.0
C2972 C 0.98319 0.10094 0.62161 0.0
C2973 C 0.9589 0.08047 0.6066 0.0
C2974 C 0.97289 0.10003 0.639 0.0
C2975 C 0.95561 0.08983 0.64016 0.0
H2976 H 0.89918 0.97629 0.58414 0.0
H2977 H 0.88476 0.97082 0.64432 0.0
H2978 H 0.90215 0.94044 0.64589 0.0
H2979 H 0.9208 0.91506 0.63003 0.0
H2980 H 0.93594 0.92103 0.57009 0.0
H2981 H 0.91935 0.95195 0.56877 0.0
C2982 C 0.90004 0.96868 0.5977 0.0
C2983 C 0.89053 0.9759 0.61405 0.0
C2984 C 0.9103 0.95134 0.59859 0.0
C2985 C 0.89161 0.96552 0.6314 0.0
C2986 C 0.90169 0.94819 0.63236 0.0
C2987 C 0.92061 0.92319 0.61672 0.0
C2988 C 0.92952 0.91573 0.60018 0.0
C2989 C 0.91097 0.9409 0.61602 0.0
C2990 C 0.92921 0.92647 0.58305 0.0
C2991 C 0.91966 0.94411 0.58225 0.0
H2992 H 0.40599 0.0147 0.09362 0.0
H2993 H 0.36555 0.03445 0.13647 0.0
H2994 H 0.36447 0.06594 0.12114 0.0
H2995 H 0.37583 0.08823 0.09634 0.0
H2996 H 0.41746 0.06903 0.05444 0.0
H2997 H 0.41747 0.03698 0.0689 0.0
C2998 C 0.39708 0.02588 0.0998 0.0
C2999 C 0.38593 0.02208 0.1163 0.0
C3000 C 0.39678 0.0441 0.09112 0.0
C3001 C 0.37413 0.03677 0.1237 0.0
C3002 C 0.3736 0.05488 0.11501 0.0
C3003 C 0.38484 0.07703 0.09029 0.0
C3004 C 0.39661 0.08102 0.07432 0.0
C3005 C 0.38495 0.05873 0.0988 0.0
C3006 C 0.40827 0.06634 0.06673 0.0
C3007 C 0.40829 0.04802 0.075 0.0
H3008 H 0.37317 0.91495 0.91559 0.0
H3009 H 0.42096 0.93175 0.95154 0.0
H3010 H 0.42181 0.96329 0.93594 0.0
H3011 H 0.40981 0.98547 0.9111 0.0
H3012 H 0.36301 0.96768 0.87433 0.0
H3013 H 0.36086 0.93719 0.8914 0.0
C3014 C 0.38366 0.92556 0.92019 0.0
C3015 C 0.39699 0.92098 0.9347 0.0
C3016 C 0.38431 0.94345 0.91093 0.0
C3017 C 0.41051 0.93491 0.94042 0.0
C3018 C 0.41106 0.95291 0.93145 0.0
C3019 C 0.39924 0.97489 0.90671 0.0
C3020 C 0.38663 0.97892 0.89138 0.0
C3021 C 0.39822 0.95722 0.91647 0.0
C3022 C 0.37276 0.96512 0.88618 0.0
C3023 C 0.37158 0.9476 0.89588 0.0
H3024 H 0.01189 0.40428 0.90892 0.0
H3025 H 0.02831 0.35545 0.87419 0.0
H3026 H 0.0601 0.35543 0.88892 0.0
H3027 H 0.0837 0.37013 0.91047 0.0
H3028 H 0.06794 0.41987 0.9442 0.0
H3029 H 0.03541 0.41878 0.93086 0.0
C3030 C 0.02244 0.39373 0.90443 0.0
C3031 C 0.01766 0.37995 0.89036 0.0
C3032 C 0.04082 0.39398 0.91274 0.0
C3033 C 0.03145 0.36611 0.88509 0.0
C3034 C 0.04971 0.36615 0.89343 0.0
C3035 C 0.07313 0.38067 0.91503 0.0
C3036 C 0.07824 0.39508 0.92827 0.0
C3037 C 0.05459 0.38012 0.90713 0.0
C3038 C 0.06437 0.40864 0.93399 0.0
C3039 C 0.04579 0.40805 0.92635 0.0
H3040 H 0.57998 0.01946 0.89892 0.0
H3041 H 0.64078 0.02476 0.88717 0.0
H3042 H 0.64179 0.05492 0.90492 0.0
H3043 H 0.62536 0.08028 0.92283 0.0
H3044 H 0.56477 0.07501 0.93535 0.0
H3045 H 0.56386 0.044 0.91866 0.0
C3046 C 0.59353 0.02701 0.90046 0.0
C3047 C 0.61025 0.01983 0.89151 0.0
C3048 C 0.59407 0.04431 0.91089 0.0
C3049 C 0.6276 0.03006 0.89351 0.0
C3050 C 0.62824 0.04727 0.90381 0.0
C3051 C 0.61197 0.07229 0.92204 0.0
C3052 C 0.59515 0.07994 0.93023 0.0
C3053 C 0.61154 0.05461 0.91237 0.0
C3054 C 0.57795 0.06937 0.92922 0.0
C3055 C 0.5774 0.0517 0.91959 0.0
H3056 H 0.92412 0.57892 0.94059 0.0
H3057 H 0.89421 0.6187 0.90341 0.0
H3058 H 0.92354 0.62401 0.88501 0.0
H3059 H 0.95721 0.6163 0.87852 0.0
H3060 H 0.98762 0.57763 0.91647 0.0
H3061 H 0.95855 0.57286 0.9353 0.0
C3062 C 0.92407 0.58882 0.92852 0.0
C3063 C 0.907 0.5983 0.92334 0.0
C3064 C 0.94103 0.59192 0.918 0.0
C3065 C 0.90716 0.61118 0.90773 0.0
C3066 C 0.92392 0.61422 0.89715 0.0
C3067 C 0.95763 0.60705 0.89105 0.0
C3068 C 0.97462 0.59716 0.89578 0.0
C3069 C 0.94089 0.60454 0.90204 0.0
C3070 C 0.9747 0.5851 0.91207 0.0
C3071 C 0.95808 0.58244 0.92301 0.0
H3072 H 0.63022 0.96856 0.10465 0.0
H3073 H 0.56915 0.9796 0.10373 0.0
H3074 H 0.5638 0.95076 0.08471 0.0
H3075 H 0.57618 0.92205 0.06887 0.0
H3076 H 0.63705 0.90989 0.07024 0.0
H3077 H 0.64278 0.93952 0.08836 0.0
C3078 C 0.61577 0.96454 0.10037 0.0
C3079 C 0.60015 0.9763 0.10552 0.0
C3080 C 0.61275 0.94781 0.08938 0.0
C3081 C 0.58148 0.971 0.09973 0.0
C3082 C 0.57837 0.95445 0.08889 0.0
C3083 C 0.59075 0.92597 0.07291 0.0
C3084 C 0.60616 0.91382 0.06817 0.0
C3085 C 0.59389 0.94278 0.08359 0.0
C3086 C 0.62492 0.91903 0.07371 0.0
C3087 C 0.6282 0.93593 0.08414 0.0
H3088 H 0.07322 0.58457 0.05191 0.0
H3089 H 0.09352 0.64044 0.07005 0.0
H3090 H 0.06324 0.64631 0.08672 0.0
H3091 H 0.0322 0.63436 0.09868 0.0
H3092 H 0.01246 0.57812 0.08122 0.0
H3093 H 0.04103 0.57385 0.06153 0.0
C3094 C 0.07092 0.59815 0.05927 0.0
C3095 C 0.0857 0.61192 0.05992 0.0
C3096 C 0.05355 0.60137 0.06904 0.0
C3097 C 0.08245 0.62948 0.06945 0.0
C3098 C 0.06514 0.63287 0.07904 0.0
C3099 C 0.03411 0.62125 0.09045 0.0
C3100 C 0.02023 0.6066 0.09158 0.0
C3101 C 0.05079 0.61871 0.07936 0.0
C3102 C 0.02275 0.58978 0.08056 0.0
C3103 C 0.03922 0.58721 0.06937 0.0
H3104 H 0.97275 0.36325 0.10735 0.0
H3105 H 0.99069 0.42002 0.08971 0.0
H3106 H 0.9618 0.42343 0.07025 0.0
H3107 H 0.93006 0.41157 0.06052 0.0
H3108 H 0.9114 0.35527 0.07903 0.0
H3109 H 0.94186 0.35044 0.09579 0.0
C3110 C 0.97036 0.3763 0.09916 0.0
C3111 C 0.98389 0.39131 0.10004 0.0
C3112 C 0.9535 0.37834 0.08822 0.0
C3113 C 0.98071 0.40808 0.08913 0.0
C3114 C 0.96407 0.41014 0.0781 0.0
C3115 C 0.93275 0.39813 0.06798 0.0
C3116 C 0.9184 0.38389 0.06865 0.0
C3117 C 0.95019 0.39553 0.07783 0.0
C3118 C 0.92215 0.36655 0.07838 0.0
C3119 C 0.93956 0.36377 0.08802 0.0
H3120 H 0.55674 0.92132 0.56752 0.0
H3121 H 0.59843 0.88944 0.60076 0.0
H3122 H 0.61726 0.8833 0.57199 0.0
H3123 H 0.62227 0.88712 0.53745 0.0
H3124 H 0.58057 0.91823 0.50367 0.0
H3125 H 0.56153 0.92458 0.53246 0.0
C3126 C 0.56997 0.9131 0.56842 0.0
C3127 C 0.57613 0.90587 0.58625 0.0
C3128 C 0.58078 0.90944 0.55171 0.0
C3129 C 0.59327 0.89513 0.58721 0.0
C3130 C 0.60411 0.89159 0.57075 0.0
C3131 C 0.60891 0.89507 0.53634 0.0
C3132 C 0.60296 0.90224 0.51845 0.0
C3133 C 0.59799 0.89861 0.55293 0.0
C3134 C 0.58569 0.91279 0.51732 0.0
C3135 C 0.57472 0.91636 0.53378 0.0
H3136 H 0.08568 0.59298 0.51619 0.0
H3137 H 0.14024 0.61969 0.52907 0.0
H3138 H 0.14272 0.60075 0.55856 0.0
H3139 H 0.12826 0.57843 0.58174 0.0
H3140 H 0.07345 0.55208 0.56897 0.0
H3141 H 0.07249 0.56869 0.53805 0.0
C3142 C 0.09833 0.59438 0.52519 0.0
C3143 C 0.11271 0.60785 0.52044 0.0
C3144 C 0.09961 0.58352 0.54215 0.0
C3145 C 0.12883 0.60967 0.53252 0.0
C3146 C 0.1303 0.59878 0.54934 0.0
C3147 C 0.11622 0.5761 0.57209 0.0
C3148 C 0.10089 0.56413 0.57774 0.0
C3149 C 0.11559 0.58595 0.55448 0.0
C3150 C 0.08543 0.56124 0.56501 0.0
C3151 C 0.08482 0.5708 0.54736 0.0
H3152 H 0.44387 0.08445 0.56761 0.0
H3153 H 0.41564 0.13454 0.59114 0.0
H3154 H 0.39816 0.1391 0.56108 0.0
H3155 H 0.38894 0.12731 0.52923 0.0
H3156 H 0.41801 0.07781 0.50533 0.0
H3157 H 0.43684 0.07449 0.53454 0.0
C3158 C 0.43407 0.0965 0.56609 0.0
C3159 C 0.43094 0.10901 0.58166 0.0
C3160 C 0.42396 0.09899 0.54881 0.0
C3161 C 0.41829 0.12464 0.57941 0.0
C3162 C 0.4082 0.12722 0.56224 0.0
C3163 C 0.39958 0.11597 0.53019 0.0
C3164 C 0.40165 0.10265 0.51509 0.0
C3165 C 0.41063 0.11425 0.547 0.0
C3166 C 0.41556 0.088 0.51682 0.0
C3167 C 0.42653 0.08615 0.53352 0.0
H3168 H 0.90691 0.41383 0.51241 0.0
H3169 H 0.86137 0.37476 0.5285 0.0
H3170 H 0.86002 0.38918 0.56041 0.0
H3171 H 0.87286 0.41162 0.58429 0.0
H3172 H 0.91938 0.44979 0.56884 0.0
H3173 H 0.91928 0.4369 0.53614 0.0
C3174 C 0.89678 0.40835 0.52291 0.0
C3175 C 0.88433 0.39313 0.51801 0.0
C3176 C 0.89624 0.41655 0.54137 0.0
C3177 C 0.871 0.38655 0.53174 0.0
C3178 C 0.87028 0.39473 0.55007 0.0
C3179 C 0.88286 0.41729 0.57374 0.0
C3180 C 0.89613 0.43163 0.57903 0.0
C3181 C 0.88295 0.4096 0.55509 0.0
C3182 C 0.90902 0.43874 0.56516 0.0
C3183 C 0.90901 0.43133 0.54647 0.0
H3184 H 0.56453 0.08523 0.42641 0.0
H3185 H 0.60245 0.12565 0.39833 0.0
H3186 H 0.61994 0.13052 0.42828 0.0
H3187 H 0.62513 0.12271 0.46222 0.0
H3188 H 0.58679 0.08301 0.49068 0.0
H3189 H 0.56901 0.07837 0.46085 0.0
C3190 C 0.57659 0.09513 0.42686 0.0
C3191 C 0.58217 0.105 0.41012 0.0
C3192 C 0.58662 0.09795 0.4442 0.0
C3193 C 0.59781 0.11784 0.41098 0.0
C3194 C 0.60787 0.12064 0.42812 0.0
C3195 C 0.61275 0.11324 0.462 0.0
C3196 C 0.60749 0.10314 0.47871 0.0
C3197 C 0.60246 0.11073 0.4448 0.0
C3198 C 0.59148 0.09072 0.47801 0.0
C3199 C 0.58119 0.08813 0.46094 0.0
H3200 H 0.9117 0.55859 0.42606 0.0
H3201 H 0.85392 0.57367 0.40893 0.0
H3202 H 0.84861 0.58938 0.43984 0.0
H3203 H 0.86155 0.60181 0.47031 0.0
H3204 H 0.91972 0.58764 0.48674 0.0
H3205 H 0.92352 0.56835 0.45778 0.0
C3206 C 0.89783 0.56503 0.42919 0.0
C3207 C 0.88333 0.56518 0.4151 0.0
C3208 C 0.89496 0.57432 0.44688 0.0
C3209 C 0.86541 0.5735 0.41945 0.0
C3210 C 0.86235 0.58255 0.43712 0.0
C3211 C 0.87498 0.59436 0.46759 0.0
C3212 C 0.89032 0.59632 0.48061 0.0
C3213 C 0.87723 0.58355 0.45069 0.0
C3214 C 0.90757 0.5863 0.47709 0.0
C3215 C 0.90985 0.57536 0.46042 0.0
H3216 H 0.40544 0.88443 0.40668 0.0
H3217 H 0.44025 0.93304 0.42357 0.0
H3218 H 0.42692 0.93145 0.4561 0.0
H3219 H 0.40609 0.91562 0.47984 0.0
H3220 H 0.37072 0.86757 0.4624 0.0
H3221 H 0.38387 0.86942 0.43001 0.0
C3222 C 0.41011 0.89472 0.41744 0.0
C3223 C 0.42388 0.90878 0.41272 0.0
C3224 C 0.40242 0.89373 0.43605 0.0
C3225 C 0.42969 0.92205 0.42683 0.0
C3226 C 0.42209 0.92113 0.44544 0.0
C3227 C 0.40105 0.90568 0.46895 0.0
C3228 C 0.38745 0.8914 0.47371 0.0
C3229 C 0.40852 0.90695 0.45023 0.0
C3230 C 0.38138 0.87849 0.45935 0.0
C3231 C 0.3888 0.87962 0.44074 0.0
H3232 H 0.0825 0.39872 0.47333 0.0
H3233 H 0.14315 0.38637 0.46774 0.0
H3234 H 0.14415 0.40443 0.43767 0.0
H3235 H 0.12768 0.42331 0.41275 0.0
H3236 H 0.06727 0.43637 0.4191 0.0
H3237 H 0.06648 0.41883 0.44949 0.0
C3238 C 0.09606 0.4002 0.46581 0.0
C3239 C 0.11273 0.39113 0.47291 0.0
C3240 C 0.0966 0.41081 0.44869 0.0
C3241 C 0.13003 0.39293 0.46256 0.0
C3242 C 0.13065 0.40338 0.4454 0.0
C3243 C 0.11437 0.42241 0.42083 0.0
C3244 C 0.09757 0.4311 0.41366 0.0
C3245 C 0.114 0.41228 0.43829 0.0
C3246 C 0.08044 0.42988 0.42434 0.0
C3247 C 0.07995 0.41978 0.44168 0.0
H3248 H 0.57657 0.58659 0.87163 0.0
H3249 H 0.56401 0.55537 0.92385 0.0
H3250 H 0.53114 0.56776 0.92355 0.0
H3251 H 0.50657 0.58861 0.90934 0.0
H3252 H 0.51957 0.62089 0.85793 0.0
H3253 H 0.55158 0.60654 0.8568 0.0
C3254 C 0.56662 0.58237 0.88288 0.0
C3255 C 0.57277 0.57018 0.8978 0.0
C3256 C 0.54783 0.5897 0.88275 0.0
C3257 C 0.55966 0.56481 0.91223 0.0
C3258 C 0.54087 0.57189 0.91209 0.0
C3259 C 0.51641 0.5926 0.89794 0.0
C3260 C 0.5107 0.60597 0.88386 0.0
C3261 C 0.53491 0.58458 0.89759 0.0
C3262 C 0.5235 0.61056 0.86889 0.0
C3263 C 0.54188 0.60246 0.86831 0.0
H3264 H 0.40448 0.51883 0.91737 0.0
H3265 H 0.35925 0.5361 0.87842 0.0
H3266 H 0.37188 0.56872 0.87785 0.0
H3267 H 0.39611 0.59219 0.88765 0.0
H3268 H 0.44069 0.57573 0.92758 0.0
H3269 H 0.42775 0.54298 0.92876 0.0
C3270 C 0.39721 0.52974 0.90897 0.0
C3271 C 0.38105 0.52483 0.89774 0.0
C3272 C 0.40445 0.54863 0.90884 0.0
C3273 C 0.37195 0.53926 0.88684 0.0
C3274 C 0.37909 0.558 0.88659 0.0
C3275 C 0.40302 0.58145 0.89661 0.0
C3276 C 0.41944 0.58631 0.90735 0.0
C3277 C 0.39545 0.56278 0.89733 0.0
C3278 C 0.42807 0.5723 0.91911 0.0
C3279 C 0.42068 0.55359 0.91978 0.0
H3280 H 0.48476 0.40614 0.9073 0.0
H3281 H 0.47284 0.38001 0.85222 0.0
H3282 H 0.4425 0.39761 0.85032 0.0
H3283 H 0.41839 0.41861 0.86542 0.0
H3284 H 0.4307 0.44461 0.92051 0.0
H3285 H 0.46221 0.42926 0.92094 0.0
C3286 C 0.47583 0.40456 0.89464 0.0
C3287 C 0.48111 0.39161 0.87998 0.0
C3288 C 0.45844 0.41472 0.89363 0.0
C3289 C 0.46903 0.3896 0.86388 0.0
C3290 C 0.4517 0.39974 0.86273 0.0
C3291 C 0.42807 0.42115 0.87739 0.0
C3292 C 0.42211 0.43262 0.89297 0.0
C3293 C 0.4461 0.41206 0.8777 0.0
C3294 C 0.43487 0.43581 0.90834 0.0
C3295 C 0.45288 0.42697 0.90865 0.0
H3296 H 0.55391 0.43001 0.90513 0.0
H3297 H 0.59099 0.404 0.86264 0.0
H3298 H 0.60805 0.43441 0.85858 0.0
H3299 H 0.61413 0.46757 0.86907 0.0
H3300 H 0.57631 0.49374 0.91085 0.0
H3301 H 0.55806 0.46403 0.91332 0.0
C3302 C 0.5656 0.43105 0.89484 0.0
C3303 C 0.57129 0.41473 0.88437 0.0
C3304 C 0.57542 0.44853 0.89262 0.0
C3305 C 0.58634 0.41634 0.87094 0.0
C3306 C 0.59618 0.43371 0.86866 0.0
C3307 C 0.60174 0.46692 0.87848 0.0
C3308 C 0.59696 0.48284 0.89003 0.0
C3309 C 0.59109 0.44979 0.87971 0.0
C3310 C 0.58079 0.48161 0.90219 0.0
C3311 C 0.57018 0.46464 0.90352 0.0
H3312 H 0.58133 0.41981 0.13047 0.0
H3313 H 0.57003 0.44887 0.07673 0.0
H3314 H 0.54 0.4311 0.0732 0.0
H3315 H 0.51893 0.40499 0.08357 0.0
H3316 H 0.53003 0.37583 0.13729 0.0
H3317 H 0.55841 0.3958 0.14242 0.0
C3318 C 0.57214 0.42251 0.11815 0.0
C3319 C 0.57802 0.43552 0.10381 0.0
C3320 C 0.55506 0.41197 0.116 0.0
C3321 C 0.56589 0.43891 0.08798 0.0
C3322 C 0.54876 0.42865 0.08587 0.0
C3323 C 0.52725 0.4032 0.09661 0.0
C3324 C 0.52238 0.38871 0.1099 0.0
C3325 C 0.5435 0.41478 0.09953 0.0
C3326 C 0.53362 0.38654 0.12658 0.0
C3327 C 0.5498 0.39806 0.12962 0.0
H3328 H 0.58487 0.58682 0.12324 0.0
H3329 H 0.56648 0.57928 0.06441 0.0
H3330 H 0.58381 0.54868 0.06276 0.0
H3331 H 0.60444 0.52439 0.07798 0.0
H3332 H 0.62184 0.53168 0.13718 0.0
H3333 H 0.60495 0.56233 0.13855 0.0
C3334 C 0.58462 0.57849 0.11005 0.0
C3335 C 0.57438 0.5853 0.09399 0.0
C3336 C 0.59455 0.56096 0.10922 0.0
C3337 C 0.57416 0.5743 0.07702 0.0
C3338 C 0.58411 0.55684 0.07605 0.0
C3339 C 0.60439 0.53252 0.09127 0.0
C3340 C 0.61444 0.5256 0.10746 0.0
C3341 C 0.59436 0.55004 0.09207 0.0
C3342 C 0.61449 0.53667 0.12441 0.0
C3343 C 0.60469 0.55417 0.12527 0.0
H3344 H 0.41559 0.57873 0.12558 0.0
H3345 H 0.42947 0.54857 0.07308 0.0
H3346 H 0.46185 0.56226 0.07361 0.0
H3347 H 0.48565 0.58391 0.08821 0.0
H3348 H 0.47114 0.61495 0.14001 0.0
H3349 H 0.4397 0.59949 0.14069 0.0
C3350 C 0.42572 0.57501 0.11432 0.0
C3351 C 0.42007 0.56271 0.09927 0.0
C3352 C 0.44422 0.5831 0.11458 0.0
C3353 C 0.43343 0.55803 0.08482 0.0
C3354 C 0.45194 0.56589 0.08509 0.0
C3355 C 0.47561 0.58739 0.0996 0.0
C3356 C 0.4808 0.60071 0.11396 0.0
C3357 C 0.45739 0.57866 0.09974 0.0
C3358 C 0.46769 0.60466 0.12886 0.0
C3359 C 0.44961 0.59591 0.12919 0.0
H3360 H 0.41038 0.40591 0.11822 0.0
H3361 H 0.45279 0.42522 0.07716 0.0
H3362 H 0.4379 0.45708 0.0765 0.0
H3363 H 0.41221 0.47905 0.08685 0.0
H3364 H 0.36916 0.45906 0.12689 0.0
H3365 H 0.38506 0.42788 0.12878 0.0
C3366 C 0.41651 0.41713 0.10926 0.0
C3367 C 0.43266 0.4132 0.09776 0.0
C3368 C 0.4077 0.43526 0.1087 0.0
C3369 C 0.44034 0.42788 0.08615 0.0
C3370 C 0.4318 0.44608 0.08572 0.0
C3371 C 0.4062 0.46784 0.09586 0.0
C3372 C 0.38948 0.47143 0.10669 0.0
C3373 C 0.41532 0.44984 0.09674 0.0
C3374 C 0.38212 0.4568 0.11857 0.0
C3375 C 0.39116 0.43892 0.1196 0.0
H3376 H 0.88358 0.5903 0.6004 0.0
H3377 H 0.91655 0.57068 0.55157 0.0
H3378 H 0.91853 0.53851 0.56557 0.0
H3379 H 0.91078 0.51594 0.59166 0.0
H3380 H 0.87851 0.53595 0.64076 0.0
H3381 H 0.87631 0.56795 0.62661 0.0
C3382 C 0.89111 0.57897 0.59276 0.0
C3383 C 0.89983 0.58288 0.57495 0.0
C3384 C 0.89236 0.56058 0.60095 0.0
C3385 C 0.90968 0.56806 0.56531 0.0
C3386 C 0.91085 0.54966 0.57331 0.0
C3387 C 0.90347 0.52734 0.59937 0.0
C3388 C 0.89477 0.52349 0.61722 0.0
C3389 C 0.90231 0.54577 0.59116 0.0
C3390 C 0.88509 0.53842 0.62688 0.0
C3391 C 0.88389 0.55676 0.61883 0.0
H3392 H 0.90485 0.48741 0.40446 0.0
H3393 H 0.87042 0.46498 0.35781 0.0
H3394 H 0.86982 0.43352 0.37318 0.0
H3395 H 0.87984 0.41212 0.39922 0.0
H3396 H 0.91577 0.43388 0.44498 0.0
H3397 H 0.91522 0.4659 0.43037 0.0
C3398 C 0.89738 0.47567 0.39746 0.0
C3399 C 0.88772 0.47872 0.37989 0.0
C3400 C 0.89738 0.45747 0.40621 0.0
C3401 C 0.87779 0.46325 0.3714 0.0
C3402 C 0.87753 0.44517 0.38013 0.0
C3403 C 0.88746 0.42388 0.4061 0.0
C3404 C 0.89779 0.42064 0.4232 0.0
C3405 C 0.88733 0.44211 0.39748 0.0
C3406 C 0.90771 0.436 0.43181 0.0
C3407 C 0.90741 0.4543 0.42346 0.0
H3408 H 0.51294 0.91394 0.41269 0.0
H3409 H 0.52395 0.86049 0.38301 0.0
H3410 H 0.55603 0.85906 0.39714 0.0
H3411 H 0.58172 0.87417 0.41597 0.0
H3412 H 0.57122 0.92847 0.44433 0.0
H3413 H 0.53818 0.9285 0.43241 0.0
C3414 C 0.52236 0.90202 0.40921 0.0
C3415 C 0.51607 0.88746 0.39662 0.0
C3416 C 0.54092 0.90151 0.41703 0.0
C3417 C 0.52832 0.87184 0.39273 0.0
C3418 C 0.54674 0.87108 0.4007 0.0
C3419 C 0.57218 0.88595 0.41968 0.0
C3420 C 0.57895 0.90135 0.4309 0.0
C3421 C 0.5533 0.886 0.41259 0.0
C3422 C 0.56638 0.91648 0.43562 0.0
C3423 C 0.5475 0.91651 0.42881 0.0
H3424 H 0.12702 0.53856 0.38265 0.0
H3425 H 0.08341 0.51075 0.41707 0.0
H3426 H 0.08041 0.53947 0.43686 0.0
H3427 H 0.08877 0.57308 0.44327 0.0
H3428 H 0.1327 0.60083 0.40921 0.0
H3429 H 0.13733 0.5713 0.39079 0.0
C3430 C 0.11709 0.53862 0.39465 0.0
C3431 C 0.10527 0.52255 0.39809 0.0
C3432 C 0.1155 0.55517 0.40611 0.0
C3433 C 0.09237 0.52303 0.4137 0.0
C3434 C 0.09072 0.53942 0.42516 0.0
C3435 C 0.09952 0.57262 0.43197 0.0
C3436 C 0.11024 0.58919 0.42752 0.0
C3437 C 0.10198 0.55568 0.42129 0.0
C3438 C 0.12418 0.5883 0.41289 0.0
C3439 C 0.1268 0.57144 0.40229 0.0
H3440 H 0.48575 0.08606 0.40647 0.0
H3441 H 0.47282 0.14034 0.37921 0.0
H3442 H 0.44041 0.13958 0.39276 0.0
H3443 H 0.41548 0.12299 0.41141 0.0
H3444 H 0.42821 0.0683 0.43802 0.0
H3445 H 0.46098 0.06961 0.42536 0.0
C3446 C 0.47582 0.09765 0.4033 0.0
C3447 C 0.48171 0.11318 0.39169 0.0
C3448 C 0.45717 0.09701 0.41096 0.0
C3449 C 0.46875 0.1283 0.38821 0.0
C3450 C 0.45016 0.12781 0.39585 0.0
C3451 C 0.42541 0.11135 0.41449 0.0
C3452 C 0.41938 0.09554 0.4256 0.0
C3453 C 0.44419 0.11217 0.40713 0.0
C3454 C 0.43247 0.08063 0.42949 0.0
C3455 C 0.45121 0.08137 0.42225 0.0
H3456 H 0.07942 0.47611 0.59597 0.0
H3457 H 0.13804 0.47035 0.61586 0.0
H3458 H 0.14163 0.44093 0.59734 0.0
H3459 H 0.12797 0.41625 0.5762 0.0
H3460 H 0.06975 0.42243 0.55549 0.0
H3461 H 0.06643 0.45258 0.57317 0.0
C3462 C 0.09309 0.46865 0.5961 0.0
C3463 C 0.10833 0.47552 0.60755 0.0
C3464 C 0.09521 0.45182 0.58513 0.0
C3465 C 0.12585 0.46534 0.6076 0.0
C3466 C 0.12802 0.44853 0.59684 0.0
C3467 C 0.11462 0.42428 0.5754 0.0
C3468 C 0.09915 0.41707 0.56457 0.0
C3469 C 0.11275 0.44156 0.58569 0.0
C3470 C 0.08195 0.4277 0.56362 0.0
C3471 C 0.07998 0.44489 0.57384 0.0
H3472 H 0.531 0.12451 0.60595 0.0
H3473 H 0.52046 0.06341 0.60419 0.0
H3474 H 0.5495 0.05864 0.58499 0.0
H3475 H 0.57862 0.0718 0.56959 0.0
H3476 H 0.58916 0.13298 0.57195 0.0
H3477 H 0.55944 0.13775 0.58988 0.0
C3478 C 0.53516 0.11016 0.60147 0.0
C3479 C 0.52365 0.09436 0.60653 0.0
C3480 C 0.55184 0.10753 0.59043 0.0
C3481 C 0.52901 0.07584 0.60034 0.0
C3482 C 0.54564 0.07309 0.5894 0.0
C3483 C 0.57425 0.08618 0.57381 0.0
C3484 C 0.58608 0.10199 0.56948 0.0
C3485 C 0.55721 0.08883 0.58439 0.0
C3486 C 0.58034 0.12054 0.57518 0.0
C3487 C 0.56336 0.1233 0.58548 0.0
H3488 H 0.48428 0.91321 0.59036 0.0
H3489 H 0.48201 0.85186 0.59977 0.0
H3490 H 0.4507 0.85048 0.58373 0.0
H3491 H 0.42317 0.86709 0.56901 0.0
H3492 H 0.42568 0.92848 0.55977 0.0
H3493 H 0.45803 0.92938 0.57351 0.0
C3494 C 0.47727 0.89942 0.58852 0.0
C3495 C 0.48558 0.88261 0.59628 0.0
C3496 C 0.45926 0.89878 0.57942 0.0
C3497 C 0.47589 0.865 0.59408 0.0
C3498 C 0.458 0.86422 0.5849 0.0
C3499 C 0.43085 0.88065 0.56983 0.0
C3500 C 0.42196 0.89772 0.56348 0.0
C3501 C 0.4494 0.88108 0.57785 0.0
C3502 C 0.43218 0.91514 0.56454 0.0
C3503 C 0.45065 0.91567 0.57245 0.0
loop_
_geom_bond_atom_site_label_1
_geom_bond_atom_site_label_2
_geom_bond_distance
_geom_bond_site_symmetry_2
_ccdc_geom_bond_type
C0 C1 1.351 . S
C0 N3 1.368 . S
C0 H5 0.931 . S
C1 C0 1.351 . S
C1 N2 1.373 . S
C1 H29 0.930 . S
N2 C1 1.373 . S
N2 C4 1.340 . S
N3 C0 1.368 . S
N3 C4 1.321 . S
N3 Co6 2.135 . S
C4 N2 1.340 . S
C4 N3 1.321 . S
C4 H28 0.930 . S
H5 C0 0.931 . S
Co6 N3 2.135 . S
Co6 N9 2.121 . S
Co6 O14 2.055 . S
Co6 O17 2.039 . S
Co6 N20 2.140 . S
C7 O8 1.227 . S
C7 O17 1.265 . S
O8 C7 1.227 . S
N9 Co6 2.121 . S
N9 C11 1.375 . S
N9 C12 1.313 . S
C10 C11 1.338 . S
C10 N13 1.377 . S
C10 H30 0.930 . S
C11 N9 1.375 . S
C11 C10 1.338 . S
C11 H15 0.931 . S
C12 N9 1.313 . S
C12 N13 1.344 . S
C12 H16 0.930 . S
N13 C10 1.377 . S
N13 C12 1.344 . S
O14 Co6 2.055 . S
O14 C18 1.253 . S
H15 C11 0.931 . S
H16 C12 0.930 . S
O17 Co6 2.039 . S
O17 C7 1.265 . S
C18 O14 1.253 . S
C18 O19 1.227 . S
O19 C18 1.227 . S
N20 Co6 2.140 . S
N20 C23 1.346 . S
N20 C24 1.345 . S
C21 C22 1.387 . S
C21 C25 1.391 . S
C22 C21 1.387 . S
C22 C23 1.369 . S
C22 H31 0.929 . S
C23 N20 1.346 . S
C23 C22 1.369 . S
C23 H26 0.928 . S
C24 N20 1.345 . S
C24 C25 1.371 . S
C24 H27 0.931 . S
C25 C21 1.391 . S
C25 C24 1.371 . S
C25 H32 0.930 . S
H26 C23 0.928 . S
H27 C24 0.931 . S
H28 C4 0.930 . S
H29 C1 0.930 . S
H30 C10 0.930 . S
H31 C22 0.929 . S
H32 C25 0.930 . S
C33 C34 1.351 . S
C33 N36 1.368 . S
C33 H38 0.931 . S
C34 C33 1.351 . S
C34 N35 1.373 . S
C34 H62 0.930 . S
N35 C34 1.373 . S
N35 C37 1.340 . S
N36 C33 1.368 . S
N36 C37 1.321 . S
N36 Co39 2.135 . S
C37 N35 1.340 . S
C37 N36 1.321 . S
C37 H61 0.930 . S
H38 C33 0.931 . S
Co39 N36 2.135 . S
Co39 N42 2.121 . S
Co39 O47 2.055 . S
Co39 O50 2.039 . S
Co39 N53 2.140 . S
C40 O41 1.227 . S
C40 O50 1.265 . S
O41 C40 1.227 . S
N42 Co39 2.121 . S
N42 C44 1.375 . S
N42 C45 1.313 . S
C43 C44 1.338 . S
C43 N46 1.377 . S
C43 H63 0.930 . S
C44 N42 1.375 . S
C44 C43 1.338 . S
C44 H48 0.931 . S
C45 N42 1.313 . S
C45 N46 1.344 . S
C45 H49 0.930 . S
N46 C43 1.377 . S
N46 C45 1.344 . S
O47 Co39 2.055 . S
O47 C51 1.253 . S
H48 C44 0.931 . S
H49 C45 0.930 . S
O50 Co39 2.039 . S
O50 C40 1.265 . S
C51 O47 1.253 . S
C51 O52 1.227 . S
O52 C51 1.227 . S
N53 Co39 2.140 . S
N53 C56 1.346 . S
N53 C57 1.345 . S
C54 C55 1.387 . S
C54 C58 1.391 . S
C55 C54 1.387 . S
C55 C56 1.369 . S
C55 H64 0.929 . S
C56 N53 1.346 . S
C56 C55 1.369 . S
C56 H59 0.928 . S
C57 N53 1.345 . S
C57 C58 1.371 . S
C57 H60 0.931 . S
C58 C54 1.391 . S
C58 C57 1.371 . S
C58 H65 0.930 . S
H59 C56 0.928 . S
H60 C57 0.931 . S
H61 C37 0.930 . S
H62 C34 0.930 . S
H63 C43 0.930 . S
H64 C55 0.929 . S
H65 C58 0.930 . S
C66 C67 1.351 . S
C66 N69 1.368 . S
C66 H71 0.931 . S
C67 C66 1.351 . S
C67 N68 1.373 . S
C67 H95 0.930 . S
N68 C67 1.373 . S
N68 C70 1.340 . S
N69 C66 1.368 . S
N69 C70 1.321 . S
N69 Co72 2.135 . S
C70 N68 1.340 . S
C70 N69 1.321 . S
C70 H94 0.930 . S
H71 C66 0.931 . S
Co72 N69 2.135 . S
Co72 N75 2.121 . S
Co72 O80 2.055 . S
Co72 O83 2.039 . S
Co72 N86 2.140 . S
C73 O74 1.227 . S
C73 O83 1.265 . S
O74 C73 1.227 . S
N75 Co72 2.121 . S
N75 C77 1.375 . S
N75 C78 1.313 . S
C76 C77 1.338 . S
C76 N79 1.377 . S
C76 H96 0.930 . S
C77 N75 1.375 . S
C77 C76 1.338 . S
C77 H81 0.931 . S
C78 N75 1.313 . S
C78 N79 1.344 . S
C78 H82 0.930 . S
N79 C76 1.377 . S
N79 C78 1.344 . S
O80 Co72 2.055 . S
O80 C84 1.253 . S
H81 C77 0.931 . S
H82 C78 0.930 . S
O83 Co72 2.039 . S
O83 C73 1.265 . S
C84 O80 1.253 . S
C84 O85 1.227 . S
O85 C84 1.227 . S
N86 Co72 2.140 . S
N86 C89 1.346 . S
N86 C90 1.345 . S
C87 C88 1.387 . S
C87 C91 1.391 . S
C88 C87 1.387 . S
C88 C89 1.369 . S
C88 H97 0.929 . S
C89 N86 1.346 . S
C89 C88 1.369 . S
C89 H92 0.928 . S
C90 N86 1.345 . S
C90 C91 1.371 . S
C90 H93 0.931 . S
C91 C87 1.391 . S
C91 C90 1.371 . S
C91 H98 0.930 . S
H92 C89 0.928 . S
H93 C90 0.931 . S
H94 C70 0.930 . S
H95 C67 0.930 . S
H96 C76 0.930 . S
H97 C88 0.929 . S
H98 C91 0.930 . S
C99 C100 1.351 . S
C99 N102 1.368 . S
C99 H104 0.931 . S
C100 C99 1.351 . S
C100 N101 1.373 . S
C100 H128 0.930 . S
N101 C100 1.373 . S
N101 C103 1.340 . S
N102 C99 1.368 . S
N102 C103 1.321 . S
N102 Co105 2.135 . S
C103 N101 1.340 . S
C103 N102 1.321 . S
C103 H127 0.930 . S
H104 C99 0.931 . S
Co105 N102 2.135 . S
Co105 N108 2.121 . S
Co105 O113 2.055 . S
Co105 O116 2.039 . S
Co105 N119 2.140 . S
C106 O107 1.227 . S
C106 O116 1.265 . S
O107 C106 1.227 . S
N108 Co105 2.121 . S
N108 C110 1.375 . S
N108 C111 1.313 . S
C109 C110 1.338 . S
C109 N112 1.377 . S
C109 H129 0.930 . S
C110 N108 1.375 . S
C110 C109 1.338 . S
C110 H114 0.931 . S
C111 N108 1.313 . S
C111 N112 1.344 . S
C111 H115 0.930 . S
N112 C109 1.377 . S
N112 C111 1.344 . S
O113 Co105 2.055 . S
O113 C117 1.253 . S
H114 C110 0.931 . S
H115 C111 0.930 . S
O116 Co105 2.039 . S
O116 C106 1.265 . S
C117 O113 1.253 . S
C117 O118 1.227 . S
O118 C117 1.227 . S
N119 Co105 2.140 . S
N119 C122 1.346 . S
N119 C123 1.345 . S
C120 C121 1.387 . S
C120 C124 1.391 . S
C121 C120 1.387 . S
C121 C122 1.369 . S
C121 H130 0.929 . S
C122 N119 1.346 . S
C122 C121 1.369 . S
C122 H125 0.928 . S
C123 N119 1.345 . S
C123 C124 1.371 . S
C123 H126 0.931 . S
C124 C120 1.391 . S
C124 C123 1.371 . S
C124 H131 0.930 . S
H125 C122 0.928 . S
H126 C123 0.931 . S
H127 C103 0.930 . S
H128 C100 0.930 . S
H129 C109 0.930 . S
H130 C121 0.929 . S
H131 C124 0.930 . S
C132 C133 1.351 . S
C132 N135 1.368 . S
C132 H137 0.931 . S
C133 C132 1.351 . S
C133 N134 1.373 . S
C133 H161 0.930 . S
N134 C133 1.373 . S
N134 C136 1.340 . S
N135 C132 1.368 . S
N135 C136 1.321 . S
N135 Co138 2.135 . S
C136 N134 1.340 . S
C136 N135 1.321 . S
C136 H160 0.930 . S
H137 C132 0.931 . S
Co138 N135 2.135 . S
Co138 N141 2.121 . S
Co138 O146 2.055 . S
Co138 O149 2.039 . S
Co138 N152 2.140 . S
C139 O140 1.227 . S
C139 O149 1.265 . S
O140 C139 1.227 . S
N141 Co138 2.121 . S
N141 C143 1.375 . S
N141 C144 1.313 . S
C142 C143 1.338 . S
C142 N145 1.377 . S
C142 H162 0.930 . S
C143 N141 1.375 . S
C143 C142 1.338 . S
C143 H147 0.931 . S
C144 N141 1.313 . S
C144 N145 1.344 . S
C144 H148 0.930 . S
N145 C142 1.377 . S
N145 C144 1.344 . S
O146 Co138 2.055 . S
O146 C150 1.253 . S
H147 C143 0.931 . S
H148 C144 0.930 . S
O149 Co138 2.039 . S
O149 C139 1.265 . S
C150 O146 1.253 . S
C150 O151 1.227 . S
O151 C150 1.227 . S
N152 Co138 2.140 . S
N152 C155 1.346 . S
N152 C156 1.345 . S
C153 C154 1.387 . S
C153 C157 1.391 . S
C154 C153 1.387 . S
C154 C155 1.369 . S
C154 H163 0.929 . S
C155 N152 1.346 . S
C155 C154 1.369 . S
C155 H158 0.928 . S
C156 N152 1.345 . S
C156 C157 1.371 . S
C156 H159 0.931 . S
C157 C153 1.391 . S
C157 C156 1.371 . S
C157 H164 0.930 . S
H158 C155 0.928 . S
H159 C156 0.931 . S
H160 C136 0.930 . S
H161 C133 0.930 . S
H162 C142 0.930 . S
H163 C154 0.929 . S
H164 C157 0.930 . S
C165 C166 1.351 . S
C165 N168 1.368 . S
C165 H170 0.931 . S
C166 C165 1.351 . S
C166 N167 1.373 . S
C166 H194 0.930 . S
N167 C166 1.373 . S
N167 C169 1.340 . S
N168 C165 1.368 . S
N168 C169 1.321 . S
N168 Co171 2.135 . S
C169 N167 1.340 . S
C169 N168 1.321 . S
C169 H193 0.930 . S
H170 C165 0.931 . S
Co171 N168 2.135 . S
Co171 N174 2.121 . S
Co171 O179 2.055 . S
Co171 O182 2.039 . S
Co171 N185 2.140 . S
C172 O173 1.227 . S
C172 O182 1.265 . S
O173 C172 1.227 . S
N174 Co171 2.121 . S
N174 C176 1.375 . S
N174 C177 1.313 . S
C175 C176 1.338 . S
C175 N178 1.377 . S
C175 H195 0.930 . S
C176 N174 1.375 . S
C176 C175 1.338 . S
C176 H180 0.931 . S
C177 N174 1.313 . S
C177 N178 1.344 . S
C177 H181 0.930 . S
N178 C175 1.377 . S
N178 C177 1.344 . S
O179 Co171 2.055 . S
O179 C183 1.253 . S
H180 C176 0.931 . S
H181 C177 0.930 . S
O182 Co171 2.039 . S
O182 C172 1.265 . S
C183 O179 1.253 . S
C183 O184 1.227 . S
O184 C183 1.227 . S
N185 Co171 2.140 . S
N185 C188 1.346 . S
N185 C189 1.345 . S
C186 C187 1.387 . S
C186 C190 1.391 . S
C187 C186 1.387 . S
C187 C188 1.369 . S
C187 H196 0.929 . S
C188 N185 1.346 . S
C188 C187 1.369 . S
C188 H191 0.928 . S
C189 N185 1.345 . S
C189 C190 1.371 . S
C189 H192 0.931 . S
C190 C186 1.391 . S
C190 C189 1.371 . S
C190 H197 0.930 . S
H191 C188 0.928 . S
H192 C189 0.931 . S
H193 C169 0.930 . S
H194 C166 0.930 . S
H195 C175 0.930 . S
H196 C187 0.929 . S
H197 C190 0.930 . S
C198 C199 1.351 . S
C198 N201 1.368 . S
C198 H203 0.931 . S
C199 C198 1.351 . S
C199 N200 1.373 . S
C199 H227 0.930 . S
N200 C199 1.373 . S
N200 C202 1.340 . S
N201 C198 1.368 . S
N201 C202 1.321 . S
N201 Co204 2.135 . S
C202 N200 1.340 . S
C202 N201 1.321 . S
C202 H226 0.930 . S
H203 C198 0.931 . S
Co204 N201 2.135 . S
Co204 N207 2.121 . S
Co204 O212 2.055 . S
Co204 O215 2.039 . S
Co204 N218 2.140 . S
C205 O206 1.227 . S
C205 O215 1.265 . S
O206 C205 1.227 . S
N207 Co204 2.121 . S
N207 C209 1.375 . S
N207 C210 1.313 . S
C208 C209 1.338 . S
C208 N211 1.377 . S
C208 H228 0.930 . S
C209 N207 1.375 . S
C209 C208 1.338 . S
C209 H213 0.931 . S
C210 N207 1.313 . S
C210 N211 1.344 . S
C210 H214 0.930 . S
N211 C208 1.377 . S
N211 C210 1.344 . S
O212 Co204 2.055 . S
O212 C216 1.253 . S
H213 C209 0.931 . S
H214 C210 0.930 . S
O215 Co204 2.039 . S
O215 C205 1.265 . S
C216 O212 1.253 . S
C216 O217 1.227 . S
O217 C216 1.227 . S
N218 Co204 2.140 . S
N218 C221 1.346 . S
N218 C222 1.345 . S
C219 C220 1.387 . S
C219 C223 1.391 . S
C220 C219 1.387 . S
C220 C221 1.369 . S
C220 H229 0.929 . S
C221 N218 1.346 . S
C221 C220 1.369 . S
C221 H224 0.928 . S
C222 N218 1.345 . S
C222 C223 1.371 . S
C222 H225 0.931 . S
C223 C219 1.391 . S
C223 C222 1.371 . S
C223 H230 0.930 . S
H224 C221 0.928 . S
H225 C222 0.931 . S
H226 C202 0.930 . S
H227 C199 0.930 . S
H228 C208 0.930 . S
H229 C220 0.929 . S
H230 C223 0.930 . S
C231 C232 1.351 . S
C231 N234 1.368 . S
C231 H236 0.931 . S
C232 C231 1.351 . S
C232 N233 1.373 . S
C232 H260 0.930 . S
N233 C232 1.373 . S
N233 C235 1.340 . S
N234 C231 1.368 . S
N234 C235 1.321 . S
N234 Co237 2.135 . S
C235 N233 1.340 . S
C235 N234 1.321 . S
C235 H259 0.930 . S
H236 C231 0.931 . S
Co237 N234 2.135 . S
Co237 N240 2.121 . S
Co237 O245 2.055 . S
Co237 O248 2.039 . S
Co237 N251 2.140 . S
C238 O239 1.227 . S
C238 O248 1.265 . S
O239 C238 1.227 . S
N240 Co237 2.121 . S
N240 C242 1.375 . S
N240 C243 1.313 . S
C241 C242 1.338 . S
C241 N244 1.377 . S
C241 H261 0.930 . S
C242 N240 1.375 . S
C242 C241 1.338 . S
C242 H246 0.931 . S
C243 N240 1.313 . S
C243 N244 1.344 . S
C243 H247 0.930 . S
N244 C241 1.377 . S
N244 C243 1.344 . S
O245 Co237 2.055 . S
O245 C249 1.253 . S
H246 C242 0.931 . S
H247 C243 0.930 . S
O248 Co237 2.039 . S
O248 C238 1.265 . S
C249 O245 1.253 . S
C249 O250 1.227 . S
O250 C249 1.227 . S
N251 Co237 2.140 . S
N251 C254 1.346 . S
N251 C255 1.345 . S
C252 C253 1.387 . S
C252 C256 1.391 . S
C253 C252 1.387 . S
C253 C254 1.369 . S
C253 H262 0.929 . S
C254 N251 1.346 . S
C254 C253 1.369 . S
C254 H257 0.928 . S
C255 N251 1.345 . S
C255 C256 1.371 . S
C255 H258 0.931 . S
C256 C252 1.391 . S
C256 C255 1.371 . S
C256 H263 0.930 . S
H257 C254 0.928 . S
H258 C255 0.931 . S
H259 C235 0.930 . S
H260 C232 0.930 . S
H261 C241 0.930 . S
H262 C253 0.929 . S
H263 C256 0.930 . S
C264 C265 1.351 . S
C264 N267 1.368 . S
C264 H269 0.931 . S
C265 C264 1.351 . S
C265 N266 1.373 . S
C265 H293 0.930 . S
N266 C265 1.373 . S
N266 C268 1.340 . S
N267 C264 1.368 . S
N267 C268 1.321 . S
N267 Co270 2.135 . S
C268 N266 1.340 . S
C268 N267 1.321 . S
C268 H292 0.930 . S
H269 C264 0.931 . S
Co270 N267 2.135 . S
Co270 N273 2.121 . S
Co270 O278 2.055 . S
Co270 O281 2.039 . S
Co270 N284 2.140 . S
C271 O272 1.227 . S
C271 O281 1.265 . S
O272 C271 1.227 . S
N273 Co270 2.121 . S
N273 C275 1.375 . S
N273 C276 1.313 . S
C274 C275 1.338 . S
C274 N277 1.377 . S
C274 H294 0.930 . S
C275 N273 1.375 . S
C275 C274 1.338 . S
C275 H279 0.931 . S
C276 N273 1.313 . S
C276 N277 1.344 . S
C276 H280 0.930 . S
N277 C274 1.377 . S
N277 C276 1.344 . S
O278 Co270 2.055 . S
O278 C282 1.253 . S
H279 C275 0.931 . S
H280 C276 0.930 . S
O281 Co270 2.039 . S
O281 C271 1.265 . S
C282 O278 1.253 . S
C282 O283 1.227 . S
O283 C282 1.227 . S
N284 Co270 2.140 . S
N284 C287 1.346 . S
N284 C288 1.345 . S
C285 C286 1.387 . S
C285 C289 1.391 . S
C286 C285 1.387 . S
C286 C287 1.369 . S
C286 H295 0.929 . S
C287 N284 1.346 . S
C287 C286 1.369 . S
C287 H290 0.928 . S
C288 N284 1.345 . S
C288 C289 1.371 . S
C288 H291 0.931 . S
C289 C285 1.391 . S
C289 C288 1.371 . S
C289 H296 0.930 . S
H290 C287 0.928 . S
H291 C288 0.931 . S
H292 C268 0.930 . S
H293 C265 0.930 . S
H294 C274 0.930 . S
H295 C286 0.929 . S
H296 C289 0.930 . S
C297 C298 1.351 . S
C297 N300 1.368 . S
C297 H302 0.931 . S
C298 C297 1.351 . S
C298 N299 1.373 . S
C298 H326 0.930 . S
N299 C298 1.373 . S
N299 C301 1.340 . S
N300 C297 1.368 . S
N300 C301 1.321 . S
N300 Co303 2.135 . S
C301 N299 1.340 . S
C301 N300 1.321 . S
C301 H325 0.930 . S
H302 C297 0.931 . S
Co303 N300 2.135 . S
Co303 N306 2.121 . S
Co303 O311 2.055 . S
Co303 O314 2.039 . S
Co303 N317 2.140 . S
C304 O305 1.227 . S
C304 O314 1.265 . S
O305 C304 1.227 . S
N306 Co303 2.121 . S
N306 C308 1.375 . S
N306 C309 1.313 . S
C307 C308 1.338 . S
C307 N310 1.377 . S
C307 H327 0.930 . S
C308 N306 1.375 . S
C308 C307 1.338 . S
C308 H312 0.931 . S
C309 N306 1.313 . S
C309 N310 1.344 . S
C309 H313 0.930 . S
N310 C307 1.377 . S
N310 C309 1.344 . S
O311 Co303 2.055 . S
O311 C315 1.253 . S
H312 C308 0.931 . S
H313 C309 0.930 . S
O314 Co303 2.039 . S
O314 C304 1.265 . S
C315 O311 1.253 . S
C315 O316 1.227 . S
O316 C315 1.227 . S
N317 Co303 2.140 . S
N317 C320 1.346 . S
N317 C321 1.345 . S
C318 C319 1.387 . S
C318 C322 1.391 . S
C319 C318 1.387 . S
C319 C320 1.369 . S
C319 H328 0.929 . S
C320 N317 1.346 . S
C320 C319 1.369 . S
C320 H323 0.928 . S
C321 N317 1.345 . S
C321 C322 1.371 . S
C321 H324 0.931 . S
C322 C318 1.391 . S
C322 C321 1.371 . S
C322 H329 0.930 . S
H323 C320 0.928 . S
H324 C321 0.931 . S
H325 C301 0.930 . S
H326 C298 0.930 . S
H327 C307 0.930 . S
H328 C319 0.929 . S
H329 C322 0.930 . S
C330 C331 1.351 . S
C330 N333 1.368 . S
C330 H335 0.931 . S
C331 C330 1.351 . S
C331 N332 1.373 . S
C331 H359 0.930 . S
N332 C331 1.373 . S
N332 C334 1.340 . S
N333 C330 1.368 . S
N333 C334 1.321 . S
N333 Co336 2.135 . S
C334 N332 1.340 . S
C334 N333 1.321 . S
C334 H358 0.930 . S
H335 C330 0.931 . S
Co336 N333 2.135 . S
Co336 N339 2.121 . S
Co336 O344 2.055 . S
Co336 O347 2.039 . S
Co336 N350 2.140 . S
C337 O338 1.227 . S
C337 O347 1.265 . S
O338 C337 1.227 . S
N339 Co336 2.121 . S
N339 C341 1.375 . S
N339 C342 1.313 . S
C340 C341 1.338 . S
C340 N343 1.377 . S
C340 H360 0.930 . S
C341 N339 1.375 . S
C341 C340 1.338 . S
C341 H345 0.931 . S
C342 N339 1.313 . S
C342 N343 1.344 . S
C342 H346 0.930 . S
N343 C340 1.377 . S
N343 C342 1.344 . S
O344 Co336 2.055 . S
O344 C348 1.253 . S
H345 C341 0.931 . S
H346 C342 0.930 . S
O347 Co336 2.039 . S
O347 C337 1.265 . S
C348 O344 1.253 . S
C348 O349 1.227 . S
O349 C348 1.227 . S
N350 Co336 2.140 . S
N350 C353 1.346 . S
N350 C354 1.345 . S
C351 C352 1.387 . S
C351 C355 1.391 . S
C352 C351 1.387 . S
C352 C353 1.369 . S
C352 H361 0.929 . S
C353 N350 1.346 . S
C353 C352 1.369 . S
C353 H356 0.928 . S
C354 N350 1.345 . S
C354 C355 1.371 . S
C354 H357 0.931 . S
C355 C351 1.391 . S
C355 C354 1.371 . S
C355 H362 0.930 . S
H356 C353 0.928 . S
H357 C354 0.931 . S
H358 C334 0.930 . S
H359 C331 0.930 . S
H360 C340 0.930 . S
H361 C352 0.929 . S
H362 C355 0.930 . S
C363 C364 1.351 . S
C363 N366 1.368 . S
C363 H368 0.931 . S
C364 C363 1.351 . S
C364 N365 1.373 . S
C364 H392 0.930 . S
N365 C364 1.373 . S
N365 C367 1.340 . S
N366 C363 1.368 . S
N366 C367 1.321 . S
N366 Co369 2.135 . S
C367 N365 1.340 . S
C367 N366 1.321 . S
C367 H391 0.930 . S
H368 C363 0.931 . S
Co369 N366 2.135 . S
Co369 N372 2.121 . S
Co369 O377 2.055 . S
Co369 O380 2.039 . S
Co369 N383 2.140 . S
C370 O371 1.227 . S
C370 O380 1.265 . S
O371 C370 1.227 . S
N372 Co369 2.121 . S
N372 C374 1.375 . S
N372 C375 1.313 . S
C373 C374 1.338 . S
C373 N376 1.377 . S
C373 H393 0.930 . S
C374 N372 1.375 . S
C374 C373 1.338 . S
C374 H378 0.931 . S
C375 N372 1.313 . S
C375 N376 1.344 . S
C375 H379 0.930 . S
N376 C373 1.377 . S
N376 C375 1.344 . S
O377 Co369 2.055 . S
O377 C381 1.253 . S
H378 C374 0.931 . S
H379 C375 0.930 . S
O380 Co369 2.039 . S
O380 C370 1.265 . S
C381 O377 1.253 . S
C381 O382 1.227 . S
O382 C381 1.227 . S
N383 Co369 2.140 . S
N383 C386 1.346 . S
N383 C387 1.345 . S
C384 C385 1.387 . S
C384 C388 1.391 . S
C385 C384 1.387 . S
C385 C386 1.369 . S
C385 H394 0.929 . S
C386 N383 1.346 . S
C386 C385 1.369 . S
C386 H389 0.928 . S
C387 N383 1.345 . S
C387 C388 1.371 . S
C387 H390 0.931 . S
C388 C384 1.391 . S
C388 C387 1.371 . S
C388 H395 0.930 . S
H389 C386 0.928 . S
H390 C387 0.931 . S
H391 C367 0.930 . S
H392 C364 0.930 . S
H393 C373 0.930 . S
H394 C385 0.929 . S
H395 C388 0.930 . S
C396 C397 1.351 . S
C396 N399 1.368 . S
C396 H401 0.931 . S
C397 C396 1.351 . S
C397 N398 1.373 . S
C397 H425 0.930 . S
N398 C397 1.373 . S
N398 C400 1.340 . S
N399 C396 1.368 . S
N399 C400 1.321 . S
N399 Co402 2.135 . S
C400 N398 1.340 . S
C400 N399 1.321 . S
C400 H424 0.930 . S
H401 C396 0.931 . S
Co402 N399 2.135 . S
Co402 N405 2.121 . S
Co402 O410 2.055 . S
Co402 O413 2.039 . S
Co402 N416 2.140 . S
C403 O404 1.227 . S
C403 O413 1.265 . S
O404 C403 1.227 . S
N405 Co402 2.121 . S
N405 C407 1.375 . S
N405 C408 1.313 . S
C406 C407 1.338 . S
C406 N409 1.377 . S
C406 H426 0.930 . S
C407 N405 1.375 . S
C407 C406 1.338 . S
C407 H411 0.931 . S
C408 N405 1.313 . S
C408 N409 1.344 . S
C408 H412 0.930 . S
N409 C406 1.377 . S
N409 C408 1.344 . S
O410 Co402 2.055 . S
O410 C414 1.253 . S
H411 C407 0.931 . S
H412 C408 0.930 . S
O413 Co402 2.039 . S
O413 C403 1.265 . S
C414 O410 1.253 . S
C414 O415 1.227 . S
O415 C414 1.227 . S
N416 Co402 2.140 . S
N416 C419 1.346 . S
N416 C420 1.345 . S
C417 C418 1.387 . S
C417 C421 1.391 . S
C418 C417 1.387 . S
C418 C419 1.369 . S
C418 H427 0.929 . S
C419 N416 1.346 . S
C419 C418 1.369 . S
C419 H422 0.928 . S
C420 N416 1.345 . S
C420 C421 1.371 . S
C420 H423 0.931 . S
C421 C417 1.391 . S
C421 C420 1.371 . S
C421 H428 0.930 . S
H422 C419 0.928 . S
H423 C420 0.931 . S
H424 C400 0.930 . S
H425 C397 0.930 . S
H426 C406 0.930 . S
H427 C418 0.929 . S
H428 C421 0.930 . S
C429 C430 1.351 . S
C429 N432 1.368 . S
C429 H434 0.931 . S
C430 C429 1.351 . S
C430 N431 1.373 . S
C430 H458 0.930 . S
N431 C430 1.373 . S
N431 C433 1.340 . S
N432 C429 1.368 . S
N432 C433 1.321 . S
N432 Co435 2.135 . S
C433 N431 1.340 . S
C433 N432 1.321 . S
C433 H457 0.930 . S
H434 C429 0.931 . S
Co435 N432 2.135 . S
Co435 N438 2.121 . S
Co435 O443 2.055 . S
Co435 O446 2.039 . S
Co435 N449 2.140 . S
C436 O437 1.227 . S
C436 O446 1.265 . S
O437 C436 1.227 . S
N438 Co435 2.121 . S
N438 C440 1.375 . S
N438 C441 1.313 . S
C439 C440 1.338 . S
C439 N442 1.377 . S
C439 H459 0.930 . S
C440 N438 1.375 . S
C440 C439 1.338 . S
C440 H444 0.931 . S
C441 N438 1.313 . S
C441 N442 1.344 . S
C441 H445 0.930 . S
N442 C439 1.377 . S
N442 C441 1.344 . S
O443 Co435 2.055 . S
O443 C447 1.253 . S
H444 C440 0.931 . S
H445 C441 0.930 . S
O446 Co435 2.039 . S
O446 C436 1.265 . S
C447 O443 1.253 . S
C447 O448 1.227 . S
O448 C447 1.227 . S
N449 Co435 2.140 . S
N449 C452 1.346 . S
N449 C453 1.345 . S
C450 C451 1.387 . S
C450 C454 1.391 . S
C451 C450 1.387 . S
C451 C452 1.369 . S
C451 H460 0.929 . S
C452 N449 1.346 . S
C452 C451 1.369 . S
C452 H455 0.928 . S
C453 N449 1.345 . S
C453 C454 1.371 . S
C453 H456 0.931 . S
C454 C450 1.391 . S
C454 C453 1.371 . S
C454 H461 0.930 . S
H455 C452 0.928 . S
H456 C453 0.931 . S
H457 C433 0.930 . S
H458 C430 0.930 . S
H459 C439 0.930 . S
H460 C451 0.929 . S
H461 C454 0.930 . S
C462 C463 1.351 . S
C462 N465 1.368 . S
C462 H467 0.931 . S
C463 C462 1.351 . S
C463 N464 1.373 . S
C463 H491 0.930 . S
N464 C463 1.373 . S
N464 C466 1.340 . S
N465 C462 1.368 . S
N465 C466 1.321 . S
N465 Co468 2.135 . S
C466 N464 1.340 . S
C466 N465 1.321 . S
C466 H490 0.930 . S
H467 C462 0.931 . S
Co468 N465 2.135 . S
Co468 N471 2.121 . S
Co468 O476 2.055 . S
Co468 O479 2.039 . S
Co468 N482 2.140 . S
C469 O470 1.227 . S
C469 O479 1.265 . S
O470 C469 1.227 . S
N471 Co468 2.121 . S
N471 C473 1.375 . S
N471 C474 1.313 . S
C472 C473 1.338 . S
C472 N475 1.377 . S
C472 H492 0.930 . S
C473 N471 1.375 . S
C473 C472 1.338 . S
C473 H477 0.931 . S
C474 N471 1.313 . S
C474 N475 1.344 . S
C474 H478 0.930 . S
N475 C472 1.377 . S
N475 C474 1.344 . S
O476 Co468 2.055 . S
O476 C480 1.253 . S
H477 C473 0.931 . S
H478 C474 0.930 . S
O479 Co468 2.039 . S
O479 C469 1.265 . S
C480 O476 1.253 . S
C480 O481 1.227 . S
O481 C480 1.227 . S
N482 Co468 2.140 . S
N482 C485 1.346 . S
N482 C486 1.345 . S
C483 C484 1.387 . S
C483 C487 1.391 . S
C484 C483 1.387 . S
C484 C485 1.369 . S
C484 H493 0.929 . S
C485 N482 1.346 . S
C485 C484 1.369 . S
C485 H488 0.928 . S
C486 N482 1.345 . S
C486 C487 1.371 . S
C486 H489 0.931 . S
C487 C483 1.391 . S
C487 C486 1.371 . S
C487 H494 0.930 . S
H488 C485 0.928 . S
H489 C486 0.931 . S
H490 C466 0.930 . S
H491 C463 0.930 . S
H492 C472 0.930 . S
H493 C484 0.929 . S
H494 C487 0.930 . S
C495 C496 1.351 . S
C495 N498 1.368 . S
C495 H500 0.931 . S
C496 C495 1.351 . S
C496 N497 1.373 . S
C496 H524 0.930 . S
N497 C496 1.373 . S
N497 C499 1.340 . S
N498 C495 1.368 . S
N498 C499 1.321 . S
N498 Co501 2.135 . S
C499 N497 1.340 . S
C499 N498 1.321 . S
C499 H523 0.930 . S
H500 C495 0.931 . S
Co501 N498 2.135 . S
Co501 N504 2.121 . S
Co501 O509 2.055 . S
Co501 O512 2.039 . S
Co501 N515 2.140 . S
C502 O503 1.227 . S
C502 O512 1.265 . S
O503 C502 1.227 . S
N504 Co501 2.121 . S
N504 C506 1.375 . S
N504 C507 1.313 . S
C505 C506 1.338 . S
C505 N508 1.377 . S
C505 H525 0.930 . S
C506 N504 1.375 . S
C506 C505 1.338 . S
C506 H510 0.931 . S
C507 N504 1.313 . S
C507 N508 1.344 . S
C507 H511 0.930 . S
N508 C505 1.377 . S
N508 C507 1.344 . S
O509 Co501 2.055 . S
O509 C513 1.253 . S
H510 C506 0.931 . S
H511 C507 0.930 . S
O512 Co501 2.039 . S
O512 C502 1.265 . S
C513 O509 1.253 . S
C513 O514 1.227 . S
O514 C513 1.227 . S
N515 Co501 2.140 . S
N515 C518 1.346 . S
N515 C519 1.345 . S
C516 C517 1.387 . S
C516 C520 1.391 . S
C517 C516 1.387 . S
C517 C518 1.369 . S
C517 H526 0.929 . S
C518 N515 1.346 . S
C518 C517 1.369 . S
C518 H521 0.928 . S
C519 N515 1.345 . S
C519 C520 1.371 . S
C519 H522 0.931 . S
C520 C516 1.391 . S
C520 C519 1.371 . S
C520 H527 0.930 . S
H521 C518 0.928 . S
H522 C519 0.931 . S
H523 C499 0.930 . S
H524 C496 0.930 . S
H525 C505 0.930 . S
H526 C517 0.929 . S
H527 C520 0.930 . S
C528 C529 1.351 . S
C528 N531 1.368 . S
C528 H533 0.931 . S
C529 C528 1.351 . S
C529 N530 1.373 . S
C529 H557 0.930 . S
N530 C529 1.373 . S
N530 C532 1.340 . S
N531 C528 1.368 . S
N531 C532 1.321 . S
N531 Co534 2.135 . S
C532 N530 1.340 . S
C532 N531 1.321 . S
C532 H556 0.930 . S
H533 C528 0.931 . S
Co534 N531 2.135 . S
Co534 N537 2.121 . S
Co534 O542 2.055 . S
Co534 O545 2.039 . S
Co534 N548 2.140 . S
C535 O536 1.227 . S
C535 O545 1.265 . S
O536 C535 1.227 . S
N537 Co534 2.121 . S
N537 C539 1.375 . S
N537 C540 1.313 . S
C538 C539 1.338 . S
C538 N541 1.377 . S
C538 H558 0.930 . S
C539 N537 1.375 . S
C539 C538 1.338 . S
C539 H543 0.931 . S
C540 N537 1.313 . S
C540 N541 1.344 . S
C540 H544 0.930 . S
N541 C538 1.377 . S
N541 C540 1.344 . S
O542 Co534 2.055 . S
O542 C546 1.253 . S
H543 C539 0.931 . S
H544 C540 0.930 . S
O545 Co534 2.039 . S
O545 C535 1.265 . S
C546 O542 1.253 . S
C546 O547 1.227 . S
O547 C546 1.227 . S
N548 Co534 2.140 . S
N548 C551 1.346 . S
N548 C552 1.345 . S
C549 C550 1.387 . S
C549 C553 1.391 . S
C550 C549 1.387 . S
C550 C551 1.369 . S
C550 H559 0.929 . S
C551 N548 1.346 . S
C551 C550 1.369 . S
C551 H554 0.928 . S
C552 N548 1.345 . S
C552 C553 1.371 . S
C552 H555 0.931 . S
C553 C549 1.391 . S
C553 C552 1.371 . S
C553 H560 0.930 . S
H554 C551 0.928 . S
H555 C552 0.931 . S
H556 C532 0.930 . S
H557 C529 0.930 . S
H558 C538 0.930 . S
H559 C550 0.929 . S
H560 C553 0.930 . S
C561 C562 1.351 . S
C561 N564 1.368 . S
C561 H566 0.931 . S
C562 C561 1.351 . S
C562 N563 1.373 . S
C562 H590 0.930 . S
N563 C562 1.373 . S
N563 C565 1.340 . S
N564 C561 1.368 . S
N564 C565 1.321 . S
N564 Co567 2.135 . S
C565 N563 1.340 . S
C565 N564 1.321 . S
C565 H589 0.930 . S
H566 C561 0.931 . S
Co567 N564 2.135 . S
Co567 N570 2.121 . S
Co567 O575 2.055 . S
Co567 O578 2.039 . S
Co567 N581 2.140 . S
C568 O569 1.227 . S
C568 O578 1.265 . S
O569 C568 1.227 . S
N570 Co567 2.121 . S
N570 C572 1.375 . S
N570 C573 1.313 . S
C571 C572 1.338 . S
C571 N574 1.377 . S
C571 H591 0.930 . S
C572 N570 1.375 . S
C572 C571 1.338 . S
C572 H576 0.931 . S
C573 N570 1.313 . S
C573 N574 1.344 . S
C573 H577 0.930 . S
N574 C571 1.377 . S
N574 C573 1.344 . S
O575 Co567 2.055 . S
O575 C579 1.253 . S
H576 C572 0.931 . S
H577 C573 0.930 . S
O578 Co567 2.039 . S
O578 C568 1.265 . S
C579 O575 1.253 . S
C579 O580 1.227 . S
O580 C579 1.227 . S
N581 Co567 2.140 . S
N581 C584 1.346 . S
N581 C585 1.345 . S
C582 C583 1.387 . S
C582 C586 1.391 . S
C583 C582 1.387 . S
C583 C584 1.369 . S
C583 H592 0.929 . S
C584 N581 1.346 . S
C584 C583 1.369 . S
C584 H587 0.928 . S
C585 N581 1.345 . S
C585 C586 1.371 . S
C585 H588 0.931 . S
C586 C582 1.391 . S
C586 C585 1.371 . S
C586 H593 0.930 . S
H587 C584 0.928 . S
H588 C585 0.931 . S
H589 C565 0.930 . S
H590 C562 0.930 . S
H591 C571 0.930 . S
H592 C583 0.929 . S
H593 C586 0.930 . S
C594 C595 1.351 . S
C594 N597 1.368 . S
C594 H599 0.931 . S
C595 C594 1.351 . S
C595 N596 1.373 . S
C595 H623 0.930 . S
N596 C595 1.373 . S
N596 C598 1.340 . S
N597 C594 1.368 . S
N597 C598 1.321 . S
N597 Co600 2.135 . S
C598 N596 1.340 . S
C598 N597 1.321 . S
C598 H622 0.930 . S
H599 C594 0.931 . S
Co600 N597 2.135 . S
Co600 N603 2.121 . S
Co600 O608 2.055 . S
Co600 O611 2.039 . S
Co600 N614 2.140 . S
C601 O602 1.227 . S
C601 O611 1.265 . S
O602 C601 1.227 . S
N603 Co600 2.121 . S
N603 C605 1.375 . S
N603 C606 1.313 . S
C604 C605 1.338 . S
C604 N607 1.377 . S
C604 H624 0.930 . S
C605 N603 1.375 . S
C605 C604 1.338 . S
C605 H609 0.931 . S
C606 N603 1.313 . S
C606 N607 1.344 . S
C606 H610 0.930 . S
N607 C604 1.377 . S
N607 C606 1.344 . S
O608 Co600 2.055 . S
O608 C612 1.253 . S
H609 C605 0.931 . S
H610 C606 0.930 . S
O611 Co600 2.039 . S
O611 C601 1.265 . S
C612 O608 1.253 . S
C612 O613 1.227 . S
O613 C612 1.227 . S
N614 Co600 2.140 . S
N614 C617 1.346 . S
N614 C618 1.345 . S
C615 C616 1.387 . S
C615 C619 1.391 . S
C616 C615 1.387 . S
C616 C617 1.369 . S
C616 H625 0.929 . S
C617 N614 1.346 . S
C617 C616 1.369 . S
C617 H620 0.928 . S
C618 N614 1.345 . S
C618 C619 1.371 . S
C618 H621 0.931 . S
C619 C615 1.391 . S
C619 C618 1.371 . S
C619 H626 0.930 . S
H620 C617 0.928 . S
H621 C618 0.931 . S
H622 C598 0.930 . S
H623 C595 0.930 . S
H624 C604 0.930 . S
H625 C616 0.929 . S
H626 C619 0.930 . S
C627 C628 1.351 . S
C627 N630 1.368 . S
C627 H632 0.931 . S
C628 C627 1.351 . S
C628 N629 1.373 . S
C628 H656 0.930 . S
N629 C628 1.373 . S
N629 C631 1.340 . S
N630 C627 1.368 . S
N630 C631 1.321 . S
N630 Co633 2.135 . S
C631 N629 1.340 . S
C631 N630 1.321 . S
C631 H655 0.930 . S
H632 C627 0.931 . S
Co633 N630 2.135 . S
Co633 N636 2.121 . S
Co633 O641 2.055 . S
Co633 O644 2.039 . S
Co633 N647 2.140 . S
C634 O635 1.227 . S
C634 O644 1.265 . S
O635 C634 1.227 . S
N636 Co633 2.121 . S
N636 C638 1.375 . S
N636 C639 1.313 . S
C637 C638 1.338 . S
C637 N640 1.377 . S
C637 H657 0.930 . S
C638 N636 1.375 . S
C638 C637 1.338 . S
C638 H642 0.931 . S
C639 N636 1.313 . S
C639 N640 1.344 . S
C639 H643 0.930 . S
N640 C637 1.377 . S
N640 C639 1.344 . S
O641 Co633 2.055 . S
O641 C645 1.253 . S
H642 C638 0.931 . S
H643 C639 0.930 . S
O644 Co633 2.039 . S
O644 C634 1.265 . S
C645 O641 1.253 . S
C645 O646 1.227 . S
O646 C645 1.227 . S
N647 Co633 2.140 . S
N647 C650 1.346 . S
N647 C651 1.345 . S
C648 C649 1.387 . S
C648 C652 1.391 . S
C649 C648 1.387 . S
C649 C650 1.369 . S
C649 H658 0.929 . S
C650 N647 1.346 . S
C650 C649 1.369 . S
C650 H653 0.928 . S
C651 N647 1.345 . S
C651 C652 1.371 . S
C651 H654 0.931 . S
C652 C648 1.391 . S
C652 C651 1.371 . S
C652 H659 0.930 . S
H653 C650 0.928 . S
H654 C651 0.931 . S
H655 C631 0.930 . S
H656 C628 0.930 . S
H657 C637 0.930 . S
H658 C649 0.929 . S
H659 C652 0.930 . S
C660 C661 1.351 . S
C660 N663 1.368 . S
C660 H665 0.931 . S
C661 C660 1.351 . S
C661 N662 1.373 . S
C661 H689 0.930 . S
N662 C661 1.373 . S
N662 C664 1.340 . S
N663 C660 1.368 . S
N663 C664 1.321 . S
N663 Co666 2.135 . S
C664 N662 1.340 . S
C664 N663 1.321 . S
C664 H688 0.930 . S
H665 C660 0.931 . S
Co666 N663 2.135 . S
Co666 N669 2.121 . S
Co666 O674 2.055 . S
Co666 O677 2.039 . S
Co666 N680 2.140 . S
C667 O668 1.227 . S
C667 O677 1.265 . S
O668 C667 1.227 . S
N669 Co666 2.121 . S
N669 C671 1.375 . S
N669 C672 1.313 . S
C670 C671 1.338 . S
C670 N673 1.377 . S
C670 H690 0.930 . S
C671 N669 1.375 . S
C671 C670 1.338 . S
C671 H675 0.931 . S
C672 N669 1.313 . S
C672 N673 1.344 . S
C672 H676 0.930 . S
N673 C670 1.377 . S
N673 C672 1.344 . S
O674 Co666 2.055 . S
O674 C678 1.253 . S
H675 C671 0.931 . S
H676 C672 0.930 . S
O677 Co666 2.039 . S
O677 C667 1.265 . S
C678 O674 1.253 . S
C678 O679 1.227 . S
O679 C678 1.227 . S
N680 Co666 2.140 . S
N680 C683 1.346 . S
N680 C684 1.345 . S
C681 C682 1.387 . S
C681 C685 1.391 . S
C682 C681 1.387 . S
C682 C683 1.369 . S
C682 H691 0.929 . S
C683 N680 1.346 . S
C683 C682 1.369 . S
C683 H686 0.928 . S
C684 N680 1.345 . S
C684 C685 1.371 . S
C684 H687 0.931 . S
C685 C681 1.391 . S
C685 C684 1.371 . S
C685 H692 0.930 . S
H686 C683 0.928 . S
H687 C684 0.931 . S
H688 C664 0.930 . S
H689 C661 0.930 . S
H690 C670 0.930 . S
H691 C682 0.929 . S
H692 C685 0.930 . S
C693 C694 1.351 . S
C693 N696 1.368 . S
C693 H698 0.931 . S
C694 C693 1.351 . S
C694 N695 1.373 . S
C694 H722 0.930 . S
N695 C694 1.373 . S
N695 C697 1.340 . S
N696 C693 1.368 . S
N696 C697 1.321 . S
N696 Co699 2.135 . S
C697 N695 1.340 . S
C697 N696 1.321 . S
C697 H721 0.930 . S
H698 C693 0.931 . S
Co699 N696 2.135 . S
Co699 N702 2.121 . S
Co699 O707 2.055 . S
Co699 O710 2.039 . S
Co699 N713 2.140 . S
C700 O701 1.227 . S
C700 O710 1.265 . S
O701 C700 1.227 . S
N702 Co699 2.121 . S
N702 C704 1.375 . S
N702 C705 1.313 . S
C703 C704 1.338 . S
C703 N706 1.377 . S
C703 H723 0.930 . S
C704 N702 1.375 . S
C704 C703 1.338 . S
C704 H708 0.931 . S
C705 N702 1.313 . S
C705 N706 1.344 . S
C705 H709 0.930 . S
N706 C703 1.377 . S
N706 C705 1.344 . S
O707 Co699 2.055 . S
O707 C711 1.253 . S
H708 C704 0.931 . S
H709 C705 0.930 . S
O710 Co699 2.039 . S
O710 C700 1.265 . S
C711 O707 1.253 . S
C711 O712 1.227 . S
O712 C711 1.227 . S
N713 Co699 2.140 . S
N713 C716 1.346 . S
N713 C717 1.345 . S
C714 C715 1.387 . S
C714 C718 1.391 . S
C715 C714 1.387 . S
C715 C716 1.369 . S
C715 H724 0.929 . S
C716 N713 1.346 . S
C716 C715 1.369 . S
C716 H719 0.928 . S
C717 N713 1.345 . S
C717 C718 1.371 . S
C717 H720 0.931 . S
C718 C714 1.391 . S
C718 C717 1.371 . S
C718 H725 0.930 . S
H719 C716 0.928 . S
H720 C717 0.931 . S
H721 C697 0.930 . S
H722 C694 0.930 . S
H723 C703 0.930 . S
H724 C715 0.929 . S
H725 C718 0.930 . S
C726 C727 1.351 . S
C726 N729 1.368 . S
C726 H731 0.931 . S
C727 C726 1.351 . S
C727 N728 1.373 . S
C727 H755 0.930 . S
N728 C727 1.373 . S
N728 C730 1.340 . S
N729 C726 1.368 . S
N729 C730 1.321 . S
N729 Co732 2.135 . S
C730 N728 1.340 . S
C730 N729 1.321 . S
C730 H754 0.930 . S
H731 C726 0.931 . S
Co732 N729 2.135 . S
Co732 N735 2.121 . S
Co732 O740 2.055 . S
Co732 O743 2.039 . S
Co732 N746 2.140 . S
C733 O734 1.227 . S
C733 O743 1.265 . S
O734 C733 1.227 . S
N735 Co732 2.121 . S
N735 C737 1.375 . S
N735 C738 1.313 . S
C736 C737 1.338 . S
C736 N739 1.377 . S
C736 H756 0.930 . S
C737 N735 1.375 . S
C737 C736 1.338 . S
C737 H741 0.931 . S
C738 N735 1.313 . S
C738 N739 1.344 . S
C738 H742 0.930 . S
N739 C736 1.377 . S
N739 C738 1.344 . S
O740 Co732 2.055 . S
O740 C744 1.253 . S
H741 C737 0.931 . S
H742 C738 0.930 . S
O743 Co732 2.039 . S
O743 C733 1.265 . S
C744 O740 1.253 . S
C744 O745 1.227 . S
O745 C744 1.227 . S
N746 Co732 2.140 . S
N746 C749 1.346 . S
N746 C750 1.345 . S
C747 C748 1.387 . S
C747 C751 1.391 . S
C748 C747 1.387 . S
C748 C749 1.369 . S
C748 H757 0.929 . S
C749 N746 1.346 . S
C749 C748 1.369 . S
C749 H752 0.928 . S
C750 N746 1.345 . S
C750 C751 1.371 . S
C750 H753 0.931 . S
C751 C747 1.391 . S
C751 C750 1.371 . S
C751 H758 0.930 . S
H752 C749 0.928 . S
H753 C750 0.931 . S
H754 C730 0.930 . S
H755 C727 0.930 . S
H756 C736 0.930 . S
H757 C748 0.929 . S
H758 C751 0.930 . S
C759 C760 1.351 . S
C759 N762 1.368 . S
C759 H764 0.931 . S
C760 C759 1.351 . S
C760 N761 1.373 . S
C760 H788 0.930 . S
N761 C760 1.373 . S
N761 C763 1.340 . S
N762 C759 1.368 . S
N762 C763 1.321 . S
N762 Co765 2.135 . S
C763 N761 1.340 . S
C763 N762 1.321 . S
C763 H787 0.930 . S
H764 C759 0.931 . S
Co765 N762 2.135 . S
Co765 N768 2.121 . S
Co765 O773 2.055 . S
Co765 O776 2.039 . S
Co765 N779 2.140 . S
C766 O767 1.227 . S
C766 O776 1.265 . S
O767 C766 1.227 . S
N768 Co765 2.121 . S
N768 C770 1.375 . S
N768 C771 1.313 . S
C769 C770 1.338 . S
C769 N772 1.377 . S
C769 H789 0.930 . S
C770 N768 1.375 . S
C770 C769 1.338 . S
C770 H774 0.931 . S
C771 N768 1.313 . S
C771 N772 1.344 . S
C771 H775 0.930 . S
N772 C769 1.377 . S
N772 C771 1.344 . S
O773 Co765 2.055 . S
O773 C777 1.253 . S
H774 C770 0.931 . S
H775 C771 0.930 . S
O776 Co765 2.039 . S
O776 C766 1.265 . S
C777 O773 1.253 . S
C777 O778 1.227 . S
O778 C777 1.227 . S
N779 Co765 2.140 . S
N779 C782 1.346 . S
N779 C783 1.345 . S
C780 C781 1.387 . S
C780 C784 1.391 . S
C781 C780 1.387 . S
C781 C782 1.369 . S
C781 H790 0.929 . S
C782 N779 1.346 . S
C782 C781 1.369 . S
C782 H785 0.928 . S
C783 N779 1.345 . S
C783 C784 1.371 . S
C783 H786 0.931 . S
C784 C780 1.391 . S
C784 C783 1.371 . S
C784 H791 0.930 . S
H785 C782 0.928 . S
H786 C783 0.931 . S
H787 C763 0.930 . S
H788 C760 0.930 . S
H789 C769 0.930 . S
H790 C781 0.929 . S
H791 C784 0.930 . S
C792 C793 1.351 . S
C792 N795 1.368 . S
C792 H797 0.931 . S
C793 C792 1.351 . S
C793 N794 1.373 . S
C793 H821 0.930 . S
N794 C793 1.373 . S
N794 C796 1.340 . S
N795 C792 1.368 . S
N795 C796 1.321 . S
N795 Co798 2.135 . S
C796 N794 1.340 . S
C796 N795 1.321 . S
C796 H820 0.930 . S
H797 C792 0.931 . S
Co798 N795 2.135 . S
Co798 N801 2.121 . S
Co798 O806 2.055 . S
Co798 O809 2.039 . S
Co798 N812 2.140 . S
C799 O800 1.227 . S
C799 O809 1.265 . S
O800 C799 1.227 . S
N801 Co798 2.121 . S
N801 C803 1.375 . S
N801 C804 1.313 . S
C802 C803 1.338 . S
C802 N805 1.377 . S
C802 H822 0.930 . S
C803 N801 1.375 . S
C803 C802 1.338 . S
C803 H807 0.931 . S
C804 N801 1.313 . S
C804 N805 1.344 . S
C804 H808 0.930 . S
N805 C802 1.377 . S
N805 C804 1.344 . S
O806 Co798 2.055 . S
O806 C810 1.253 . S
H807 C803 0.931 . S
H808 C804 0.930 . S
O809 Co798 2.039 . S
O809 C799 1.265 . S
C810 O806 1.253 . S
C810 O811 1.227 . S
O811 C810 1.227 . S
N812 Co798 2.140 . S
N812 C815 1.346 . S
N812 C816 1.345 . S
C813 C814 1.387 . S
C813 C817 1.391 . S
C814 C813 1.387 . S
C814 C815 1.369 . S
C814 H823 0.929 . S
C815 N812 1.346 . S
C815 C814 1.369 . S
C815 H818 0.928 . S
C816 N812 1.345 . S
C816 C817 1.371 . S
C816 H819 0.931 . S
C817 C813 1.391 . S
C817 C816 1.371 . S
C817 H824 0.930 . S
H818 C815 0.928 . S
H819 C816 0.931 . S
H820 C796 0.930 . S
H821 C793 0.930 . S
H822 C802 0.930 . S
H823 C814 0.929 . S
H824 C817 0.930 . S
C825 C826 1.351 . S
C825 N828 1.368 . S
C825 H830 0.931 . S
C826 C825 1.351 . S
C826 N827 1.373 . S
C826 H854 0.930 . S
N827 C826 1.373 . S
N827 C829 1.340 . S
N828 C825 1.368 . S
N828 C829 1.321 . S
N828 Co831 2.135 . S
C829 N827 1.340 . S
C829 N828 1.321 . S
C829 H853 0.930 . S
H830 C825 0.931 . S
Co831 N828 2.135 . S
Co831 N834 2.121 . S
Co831 O839 2.055 . S
Co831 O842 2.039 . S
Co831 N845 2.140 . S
C832 O833 1.227 . S
C832 O842 1.265 . S
O833 C832 1.227 . S
N834 Co831 2.121 . S
N834 C836 1.375 . S
N834 C837 1.313 . S
C835 C836 1.338 . S
C835 N838 1.377 . S
C835 H855 0.930 . S
C836 N834 1.375 . S
C836 C835 1.338 . S
C836 H840 0.931 . S
C837 N834 1.313 . S
C837 N838 1.344 . S
C837 H841 0.930 . S
N838 C835 1.377 . S
N838 C837 1.344 . S
O839 Co831 2.055 . S
O839 C843 1.253 . S
H840 C836 0.931 . S
H841 C837 0.930 . S
O842 Co831 2.039 . S
O842 C832 1.265 . S
C843 O839 1.253 . S
C843 O844 1.227 . S
O844 C843 1.227 . S
N845 Co831 2.140 . S
N845 C848 1.346 . S
N845 C849 1.345 . S
C846 C847 1.387 . S
C846 C850 1.391 . S
C847 C846 1.387 . S
C847 C848 1.369 . S
C847 H856 0.929 . S
C848 N845 1.346 . S
C848 C847 1.369 . S
C848 H851 0.928 . S
C849 N845 1.345 . S
C849 C850 1.371 . S
C849 H852 0.931 . S
C850 C846 1.391 . S
C850 C849 1.371 . S
C850 H857 0.930 . S
H851 C848 0.928 . S
H852 C849 0.931 . S
H853 C829 0.930 . S
H854 C826 0.930 . S
H855 C835 0.930 . S
H856 C847 0.929 . S
H857 C850 0.930 . S
C858 C859 1.351 . S
C858 N861 1.368 . S
C858 H863 0.931 . S
C859 C858 1.351 . S
C859 N860 1.373 . S
C859 H887 0.930 . S
N860 C859 1.373 . S
N860 C862 1.340 . S
N861 C858 1.368 . S
N861 C862 1.321 . S
N861 Co864 2.135 . S
C862 N860 1.340 . S
C862 N861 1.321 . S
C862 H886 0.930 . S
H863 C858 0.931 . S
Co864 N861 2.135 . S
Co864 N867 2.121 . S
Co864 O872 2.055 . S
Co864 O875 2.039 . S
Co864 N878 2.140 . S
C865 O866 1.227 . S
C865 O875 1.265 . S
O866 C865 1.227 . S
N867 Co864 2.121 . S
N867 C869 1.375 . S
N867 C870 1.313 . S
C868 C869 1.338 . S
C868 N871 1.377 . S
C868 H888 0.930 . S
C869 N867 1.375 . S
C869 C868 1.338 . S
C869 H873 0.931 . S
C870 N867 1.313 . S
C870 N871 1.344 . S
C870 H874 0.930 . S
N871 C868 1.377 . S
N871 C870 1.344 . S
O872 Co864 2.055 . S
O872 C876 1.253 . S
H873 C869 0.931 . S
H874 C870 0.930 . S
O875 Co864 2.039 . S
O875 C865 1.265 . S
C876 O872 1.253 . S
C876 O877 1.227 . S
O877 C876 1.227 . S
N878 Co864 2.140 . S
N878 C881 1.346 . S
N878 C882 1.345 . S
C879 C880 1.387 . S
C879 C883 1.391 . S
C880 C879 1.387 . S
C880 C881 1.369 . S
C880 H889 0.929 . S
C881 N878 1.346 . S
C881 C880 1.369 . S
C881 H884 0.928 . S
C882 N878 1.345 . S
C882 C883 1.371 . S
C882 H885 0.931 . S
C883 C879 1.391 . S
C883 C882 1.371 . S
C883 H890 0.930 . S
H884 C881 0.928 . S
H885 C882 0.931 . S
H886 C862 0.930 . S
H887 C859 0.930 . S
H888 C868 0.930 . S
H889 C880 0.929 . S
H890 C883 0.930 . S
C891 C892 1.351 . S
C891 N894 1.368 . S
C891 H896 0.931 . S
C892 C891 1.351 . S
C892 N893 1.373 . S
C892 H920 0.930 . S
N893 C892 1.373 . S
N893 C895 1.340 . S
N894 C891 1.368 . S
N894 C895 1.321 . S
N894 Co897 2.135 . S
C895 N893 1.340 . S
C895 N894 1.321 . S
C895 H919 0.930 . S
H896 C891 0.931 . S
Co897 N894 2.135 . S
Co897 N900 2.121 . S
Co897 O905 2.055 . S
Co897 O908 2.039 . S
Co897 N911 2.140 . S
C898 O899 1.227 . S
C898 O908 1.265 . S
O899 C898 1.227 . S
N900 Co897 2.121 . S
N900 C902 1.375 . S
N900 C903 1.313 . S
C901 C902 1.338 . S
C901 N904 1.377 . S
C901 H921 0.930 . S
C902 N900 1.375 . S
C902 C901 1.338 . S
C902 H906 0.931 . S
C903 N900 1.313 . S
C903 N904 1.344 . S
C903 H907 0.930 . S
N904 C901 1.377 . S
N904 C903 1.344 . S
O905 Co897 2.055 . S
O905 C909 1.253 . S
H906 C902 0.931 . S
H907 C903 0.930 . S
O908 Co897 2.039 . S
O908 C898 1.265 . S
C909 O905 1.253 . S
C909 O910 1.227 . S
O910 C909 1.227 . S
N911 Co897 2.140 . S
N911 C914 1.346 . S
N911 C915 1.345 . S
C912 C913 1.387 . S
C912 C916 1.391 . S
C913 C912 1.387 . S
C913 C914 1.369 . S
C913 H922 0.929 . S
C914 N911 1.346 . S
C914 C913 1.369 . S
C914 H917 0.928 . S
C915 N911 1.345 . S
C915 C916 1.371 . S
C915 H918 0.931 . S
C916 C912 1.391 . S
C916 C915 1.371 . S
C916 H923 0.930 . S
H917 C914 0.928 . S
H918 C915 0.931 . S
H919 C895 0.930 . S
H920 C892 0.930 . S
H921 C901 0.930 . S
H922 C913 0.929 . S
H923 C916 0.930 . S
C924 C925 1.351 . S
C924 N927 1.368 . S
C924 H929 0.931 . S
C925 C924 1.351 . S
C925 N926 1.373 . S
C925 H953 0.930 . S
N926 C925 1.373 . S
N926 C928 1.340 . S
N927 C924 1.368 . S
N927 C928 1.321 . S
N927 Co930 2.135 . S
C928 N926 1.340 . S
C928 N927 1.321 . S
C928 H952 0.930 . S
H929 C924 0.931 . S
Co930 N927 2.135 . S
Co930 N933 2.121 . S
Co930 O938 2.055 . S
Co930 O941 2.039 . S
Co930 N944 2.140 . S
C931 O932 1.227 . S
C931 O941 1.265 . S
O932 C931 1.227 . S
N933 Co930 2.121 . S
N933 C935 1.375 . S
N933 C936 1.313 . S
C934 C935 1.338 . S
C934 N937 1.377 . S
C934 H954 0.930 . S
C935 N933 1.375 . S
C935 C934 1.338 . S
C935 H939 0.931 . S
C936 N933 1.313 . S
C936 N937 1.344 . S
C936 H940 0.930 . S
N937 C934 1.377 . S
N937 C936 1.344 . S
O938 Co930 2.055 . S
O938 C942 1.253 . S
H939 C935 0.931 . S
H940 C936 0.930 . S
O941 Co930 2.039 . S
O941 C931 1.265 . S
C942 O938 1.253 . S
C942 O943 1.227 . S
O943 C942 1.227 . S
N944 Co930 2.140 . S
N944 C947 1.346 . S
N944 C948 1.345 . S
C945 C946 1.387 . S
C945 C949 1.391 . S
C946 C945 1.387 . S
C946 C947 1.369 . S
C946 H955 0.929 . S
C947 N944 1.346 . S
C947 C946 1.369 . S
C947 H950 0.928 . S
C948 N944 1.345 . S
C948 C949 1.371 . S
C948 H951 0.931 . S
C949 C945 1.391 . S
C949 C948 1.371 . S
C949 H956 0.930 . S
H950 C947 0.928 . S
H951 C948 0.931 . S
H952 C928 0.930 . S
H953 C925 0.930 . S
H954 C934 0.930 . S
H955 C946 0.929 . S
H956 C949 0.930 . S
C957 C958 1.351 . S
C957 N960 1.368 . S
C957 H962 0.931 . S
C958 C957 1.351 . S
C958 N959 1.373 . S
C958 H986 0.930 . S
N959 C958 1.373 . S
N959 C961 1.340 . S
N960 C957 1.368 . S
N960 C961 1.321 . S
N960 Co963 2.135 . S
C961 N959 1.340 . S
C961 N960 1.321 . S
C961 H985 0.930 . S
H962 C957 0.931 . S
Co963 N960 2.135 . S
Co963 N966 2.121 . S
Co963 O971 2.055 . S
Co963 O974 2.039 . S
Co963 N977 2.140 . S
C964 O965 1.227 . S
C964 O974 1.265 . S
O965 C964 1.227 . S
N966 Co963 2.121 . S
N966 C968 1.375 . S
N966 C969 1.313 . S
C967 C968 1.338 . S
C967 N970 1.377 . S
C967 H987 0.930 . S
C968 N966 1.375 . S
C968 C967 1.338 . S
C968 H972 0.931 . S
C969 N966 1.313 . S
C969 N970 1.344 . S
C969 H973 0.930 . S
N970 C967 1.377 . S
N970 C969 1.344 . S
O971 Co963 2.055 . S
O971 C975 1.253 . S
H972 C968 0.931 . S
H973 C969 0.930 . S
O974 Co963 2.039 . S
O974 C964 1.265 . S
C975 O971 1.253 . S
C975 O976 1.227 . S
O976 C975 1.227 . S
N977 Co963 2.140 . S
N977 C980 1.346 . S
N977 C981 1.345 . S
C978 C979 1.387 . S
C978 C982 1.391 . S
C979 C978 1.387 . S
C979 C980 1.369 . S
C979 H988 0.929 . S
C980 N977 1.346 . S
C980 C979 1.369 . S
C980 H983 0.928 . S
C981 N977 1.345 . S
C981 C982 1.371 . S
C981 H984 0.931 . S
C982 C978 1.391 . S
C982 C981 1.371 . S
C982 H989 0.930 . S
H983 C980 0.928 . S
H984 C981 0.931 . S
H985 C961 0.930 . S
H986 C958 0.930 . S
H987 C967 0.930 . S
H988 C979 0.929 . S
H989 C982 0.930 . S
C990 C991 1.351 . S
C990 N993 1.368 . S
C990 H995 0.931 . S
C991 C990 1.351 . S
C991 N992 1.373 . S
C991 H1019 0.930 . S
N992 C991 1.373 . S
N992 C994 1.340 . S
N993 C990 1.368 . S
N993 C994 1.321 . S
N993 Co996 2.135 . S
C994 N992 1.340 . S
C994 N993 1.321 . S
C994 H1018 0.930 . S
H995 C990 0.931 . S
Co996 N993 2.135 . S
Co996 N999 2.121 . S
Co996 O1004 2.055 . S
Co996 O1007 2.039 . S
Co996 N1010 2.140 . S
C997 O998 1.227 . S
C997 O1007 1.265 . S
O998 C997 1.227 . S
N999 Co996 2.121 . S
N999 C1001 1.375 . S
N999 C1002 1.313 . S
C1000 C1001 1.338 . S
C1000 N1003 1.377 . S
C1000 H1020 0.930 . S
C1001 N999 1.375 . S
C1001 C1000 1.338 . S
C1001 H1005 0.931 . S
C1002 N999 1.313 . S
C1002 N1003 1.344 . S
C1002 H1006 0.930 . S
N1003 C1000 1.377 . S
N1003 C1002 1.344 . S
O1004 Co996 2.055 . S
O1004 C1008 1.253 . S
H1005 C1001 0.931 . S
H1006 C1002 0.930 . S
O1007 Co996 2.039 . S
O1007 C997 1.265 . S
C1008 O1004 1.253 . S
C1008 O1009 1.227 . S
O1009 C1008 1.227 . S
N1010 Co996 2.140 . S
N1010 C1013 1.346 . S
N1010 C1014 1.345 . S
C1011 C1012 1.387 . S
C1011 C1015 1.391 . S
C1012 C1011 1.387 . S
C1012 C1013 1.369 . S
C1012 H1021 0.929 . S
C1013 N1010 1.346 . S
C1013 C1012 1.369 . S
C1013 H1016 0.928 . S
C1014 N1010 1.345 . S
C1014 C1015 1.371 . S
C1014 H1017 0.931 . S
C1015 C1011 1.391 . S
C1015 C1014 1.371 . S
C1015 H1022 0.930 . S
H1016 C1013 0.928 . S
H1017 C1014 0.931 . S
H1018 C994 0.930 . S
H1019 C991 0.930 . S
H1020 C1000 0.930 . S
H1021 C1012 0.929 . S
H1022 C1015 0.930 . S
C1023 C1024 1.351 . S
C1023 N1026 1.368 . S
C1023 H1028 0.931 . S
C1024 C1023 1.351 . S
C1024 N1025 1.373 . S
C1024 H1052 0.930 . S
N1025 C1024 1.373 . S
N1025 C1027 1.340 . S
N1026 C1023 1.368 . S
N1026 C1027 1.321 . S
N1026 Co1029 2.135 . S
C1027 N1025 1.340 . S
C1027 N1026 1.321 . S
C1027 H1051 0.930 . S
H1028 C1023 0.931 . S
Co1029 N1026 2.135 . S
Co1029 N1032 2.121 . S
Co1029 O1037 2.055 . S
Co1029 O1040 2.039 . S
Co1029 N1043 2.140 . S
C1030 O1031 1.227 . S
C1030 O1040 1.265 . S
O1031 C1030 1.227 . S
N1032 Co1029 2.121 . S
N1032 C1034 1.375 . S
N1032 C1035 1.313 . S
C1033 C1034 1.338 . S
C1033 N1036 1.377 . S
C1033 H1053 0.930 . S
C1034 N1032 1.375 . S
C1034 C1033 1.338 . S
C1034 H1038 0.931 . S
C1035 N1032 1.313 . S
C1035 N1036 1.344 . S
C1035 H1039 0.930 . S
N1036 C1033 1.377 . S
N1036 C1035 1.344 . S
O1037 Co1029 2.055 . S
O1037 C1041 1.253 . S
H1038 C1034 0.931 . S
H1039 C1035 0.930 . S
O1040 Co1029 2.039 . S
O1040 C1030 1.265 . S
C1041 O1037 1.253 . S
C1041 O1042 1.227 . S
O1042 C1041 1.227 . S
N1043 Co1029 2.140 . S
N1043 C1046 1.346 . S
N1043 C1047 1.345 . S
C1044 C1045 1.387 . S
C1044 C1048 1.391 . S
C1045 C1044 1.387 . S
C1045 C1046 1.369 . S
C1045 H1054 0.929 . S
C1046 N1043 1.346 . S
C1046 C1045 1.369 . S
C1046 H1049 0.928 . S
C1047 N1043 1.345 . S
C1047 C1048 1.371 . S
C1047 H1050 0.931 . S
C1048 C1044 1.391 . S
C1048 C1047 1.371 . S
C1048 H1055 0.930 . S
H1049 C1046 0.928 . S
H1050 C1047 0.931 . S
H1051 C1027 0.930 . S
H1052 C1024 0.930 . S
H1053 C1033 0.930 . S
H1054 C1045 0.929 . S
H1055 C1048 0.930 . S
C1056 C1057 1.351 . S
C1056 N1059 1.368 . S
C1056 H1061 0.931 . S
C1057 C1056 1.351 . S
C1057 N1058 1.373 . S
C1057 H1085 0.930 . S
N1058 C1057 1.373 . S
N1058 C1060 1.340 . S
N1059 C1056 1.368 . S
N1059 C1060 1.321 . S
N1059 Co1062 2.135 . S
C1060 N1058 1.340 . S
C1060 N1059 1.321 . S
C1060 H1084 0.930 . S
H1061 C1056 0.931 . S
Co1062 N1059 2.135 . S
Co1062 N1065 2.121 . S
Co1062 O1070 2.055 . S
Co1062 O1073 2.039 . S
Co1062 N1076 2.140 . S
C1063 O1064 1.227 . S
C1063 O1073 1.265 . S
O1064 C1063 1.227 . S
N1065 Co1062 2.121 . S
N1065 C1067 1.375 . S
N1065 C1068 1.313 . S
C1066 C1067 1.338 . S
C1066 N1069 1.377 . S
C1066 H1086 0.930 . S
C1067 N1065 1.375 . S
C1067 C1066 1.338 . S
C1067 H1071 0.931 . S
C1068 N1065 1.313 . S
C1068 N1069 1.344 . S
C1068 H1072 0.930 . S
N1069 C1066 1.377 . S
N1069 C1068 1.344 . S
O1070 Co1062 2.055 . S
O1070 C1074 1.253 . S
H1071 C1067 0.931 . S
H1072 C1068 0.930 . S
O1073 Co1062 2.039 . S
O1073 C1063 1.265 . S
C1074 O1070 1.253 . S
C1074 O1075 1.227 . S
O1075 C1074 1.227 . S
N1076 Co1062 2.140 . S
N1076 C1079 1.346 . S
N1076 C1080 1.345 . S
C1077 C1078 1.387 . S
C1077 C1081 1.391 . S
C1078 C1077 1.387 . S
C1078 C1079 1.369 . S
C1078 H1087 0.929 . S
C1079 N1076 1.346 . S
C1079 C1078 1.369 . S
C1079 H1082 0.928 . S
C1080 N1076 1.345 . S
C1080 C1081 1.371 . S
C1080 H1083 0.931 . S
C1081 C1077 1.391 . S
C1081 C1080 1.371 . S
C1081 H1088 0.930 . S
H1082 C1079 0.928 . S
H1083 C1080 0.931 . S
H1084 C1060 0.930 . S
H1085 C1057 0.930 . S
H1086 C1066 0.930 . S
H1087 C1078 0.929 . S
H1088 C1081 0.930 . S
C1089 C1090 1.351 . S
C1089 N1092 1.368 . S
C1089 H1094 0.931 . S
C1090 C1089 1.351 . S
C1090 N1091 1.373 . S
C1090 H1118 0.930 . S
N1091 C1090 1.373 . S
N1091 C1093 1.340 . S
N1092 C1089 1.368 . S
N1092 C1093 1.321 . S
N1092 Co1095 2.135 . S
C1093 N1091 1.340 . S
C1093 N1092 1.321 . S
C1093 H1117 0.930 . S
H1094 C1089 0.931 . S
Co1095 N1092 2.135 . S
Co1095 N1098 2.121 . S
Co1095 O1103 2.055 . S
Co1095 O1106 2.039 . S
Co1095 N1109 2.140 . S
C1096 O1097 1.227 . S
C1096 O1106 1.265 . S
O1097 C1096 1.227 . S
N1098 Co1095 2.121 . S
N1098 C1100 1.375 . S
N1098 C1101 1.313 . S
C1099 C1100 1.338 . S
C1099 N1102 1.377 . S
C1099 H1119 0.930 . S
C1100 N1098 1.375 . S
C1100 C1099 1.338 . S
C1100 H1104 0.931 . S
C1101 N1098 1.313 . S
C1101 N1102 1.344 . S
C1101 H1105 0.930 . S
N1102 C1099 1.377 . S
N1102 C1101 1.344 . S
O1103 Co1095 2.055 . S
O1103 C1107 1.253 . S
H1104 C1100 0.931 . S
H1105 C1101 0.930 . S
O1106 Co1095 2.039 . S
O1106 C1096 1.265 . S
C1107 O1103 1.253 . S
C1107 O1108 1.227 . S
O1108 C1107 1.227 . S
N1109 Co1095 2.140 . S
N1109 C1112 1.346 . S
N1109 C1113 1.345 . S
C1110 C1111 1.387 . S
C1110 C1114 1.391 . S
C1111 C1110 1.387 . S
C1111 C1112 1.369 . S
C1111 H1120 0.929 . S
C1112 N1109 1.346 . S
C1112 C1111 1.369 . S
C1112 H1115 0.928 . S
C1113 N1109 1.345 . S
C1113 C1114 1.371 . S
C1113 H1116 0.931 . S
C1114 C1110 1.391 . S
C1114 C1113 1.371 . S
C1114 H1121 0.930 . S
H1115 C1112 0.928 . S
H1116 C1113 0.931 . S
H1117 C1093 0.930 . S
H1118 C1090 0.930 . S
H1119 C1099 0.930 . S
H1120 C1111 0.929 . S
H1121 C1114 0.930 . S
C1122 C1123 1.351 . S
C1122 N1125 1.368 . S
C1122 H1127 0.931 . S
C1123 C1122 1.351 . S
C1123 N1124 1.373 . S
C1123 H1151 0.930 . S
N1124 C1123 1.373 . S
N1124 C1126 1.340 . S
N1125 C1122 1.368 . S
N1125 C1126 1.321 . S
N1125 Co1128 2.135 . S
C1126 N1124 1.340 . S
C1126 N1125 1.321 . S
C1126 H1150 0.930 . S
H1127 C1122 0.931 . S
Co1128 N1125 2.135 . S
Co1128 N1131 2.121 . S
Co1128 O1136 2.055 . S
Co1128 O1139 2.039 . S
Co1128 N1142 2.140 . S
C1129 O1130 1.227 . S
C1129 O1139 1.265 . S
O1130 C1129 1.227 . S
N1131 Co1128 2.121 . S
N1131 C1133 1.375 . S
N1131 C1134 1.313 . S
C1132 C1133 1.338 . S
C1132 N1135 1.377 . S
C1132 H1152 0.930 . S
C1133 N1131 1.375 . S
C1133 C1132 1.338 . S
C1133 H1137 0.931 . S
C1134 N1131 1.313 . S
C1134 N1135 1.344 . S
C1134 H1138 0.930 . S
N1135 C1132 1.377 . S
N1135 C1134 1.344 . S
O1136 Co1128 2.055 . S
O1136 C1140 1.253 . S
H1137 C1133 0.931 . S
H1138 C1134 0.930 . S
O1139 Co1128 2.039 . S
O1139 C1129 1.265 . S
C1140 O1136 1.253 . S
C1140 O1141 1.227 . S
O1141 C1140 1.227 . S
N1142 Co1128 2.140 . S
N1142 C1145 1.346 . S
N1142 C1146 1.345 . S
C1143 C1144 1.387 . S
C1143 C1147 1.391 . S
C1144 C1143 1.387 . S
C1144 C1145 1.369 . S
C1144 H1153 0.929 . S
C1145 N1142 1.346 . S
C1145 C1144 1.369 . S
C1145 H1148 0.928 . S
C1146 N1142 1.345 . S
C1146 C1147 1.371 . S
C1146 H1149 0.931 . S
C1147 C1143 1.391 . S
C1147 C1146 1.371 . S
C1147 H1154 0.930 . S
H1148 C1145 0.928 . S
H1149 C1146 0.931 . S
H1150 C1126 0.930 . S
H1151 C1123 0.930 . S
H1152 C1132 0.930 . S
H1153 C1144 0.929 . S
H1154 C1147 0.930 . S
C1155 C1156 1.351 . S
C1155 N1158 1.368 . S
C1155 H1160 0.931 . S
C1156 C1155 1.351 . S
C1156 N1157 1.373 . S
C1156 H1184 0.930 . S
N1157 C1156 1.373 . S
N1157 C1159 1.340 . S
N1158 C1155 1.368 . S
N1158 C1159 1.321 . S
N1158 Co1161 2.135 . S
C1159 N1157 1.340 . S
C1159 N1158 1.321 . S
C1159 H1183 0.930 . S
H1160 C1155 0.931 . S
Co1161 N1158 2.135 . S
Co1161 N1164 2.121 . S
Co1161 O1169 2.055 . S
Co1161 O1172 2.039 . S
Co1161 N1175 2.140 . S
C1162 O1163 1.227 . S
C1162 O1172 1.265 . S
O1163 C1162 1.227 . S
N1164 Co1161 2.121 . S
N1164 C1166 1.375 . S
N1164 C1167 1.313 . S
C1165 C1166 1.338 . S
C1165 N1168 1.377 . S
C1165 H1185 0.930 . S
C1166 N1164 1.375 . S
C1166 C1165 1.338 . S
C1166 H1170 0.931 . S
C1167 N1164 1.313 . S
C1167 N1168 1.344 . S
C1167 H1171 0.930 . S
N1168 C1165 1.377 . S
N1168 C1167 1.344 . S
O1169 Co1161 2.055 . S
O1169 C1173 1.253 . S
H1170 C1166 0.931 . S
H1171 C1167 0.930 . S
O1172 Co1161 2.039 . S
O1172 C1162 1.265 . S
C1173 O1169 1.253 . S
C1173 O1174 1.227 . S
O1174 C1173 1.227 . S
N1175 Co1161 2.140 . S
N1175 C1178 1.346 . S
N1175 C1179 1.345 . S
C1176 C1177 1.387 . S
C1176 C1180 1.391 . S
C1177 C1176 1.387 . S
C1177 C1178 1.369 . S
C1177 H1186 0.929 . S
C1178 N1175 1.346 . S
C1178 C1177 1.369 . S
C1178 H1181 0.928 . S
C1179 N1175 1.345 . S
C1179 C1180 1.371 . S
C1179 H1182 0.931 . S
C1180 C1176 1.391 . S
C1180 C1179 1.371 . S
C1180 H1187 0.930 . S
H1181 C1178 0.928 . S
H1182 C1179 0.931 . S
H1183 C1159 0.930 . S
H1184 C1156 0.930 . S
H1185 C1165 0.930 . S
H1186 C1177 0.929 . S
H1187 C1180 0.930 . S
C1188 C1189 1.351 . S
C1188 N1191 1.368 . S
C1188 H1193 0.931 . S
C1189 C1188 1.351 . S
C1189 N1190 1.373 . S
C1189 H1217 0.930 . S
N1190 C1189 1.373 . S
N1190 C1192 1.340 . S
N1191 C1188 1.368 . S
N1191 C1192 1.321 . S
N1191 Co1194 2.135 . S
C1192 N1190 1.340 . S
C1192 N1191 1.321 . S
C1192 H1216 0.930 . S
H1193 C1188 0.931 . S
Co1194 N1191 2.135 . S
Co1194 N1197 2.121 . S
Co1194 O1202 2.055 . S
Co1194 O1205 2.039 . S
Co1194 N1208 2.140 . S
C1195 O1196 1.227 . S
C1195 O1205 1.265 . S
O1196 C1195 1.227 . S
N1197 Co1194 2.121 . S
N1197 C1199 1.375 . S
N1197 C1200 1.313 . S
C1198 C1199 1.338 . S
C1198 N1201 1.377 . S
C1198 H1218 0.930 . S
C1199 N1197 1.375 . S
C1199 C1198 1.338 . S
C1199 H1203 0.931 . S
C1200 N1197 1.313 . S
C1200 N1201 1.344 . S
C1200 H1204 0.930 . S
N1201 C1198 1.377 . S
N1201 C1200 1.344 . S
O1202 Co1194 2.055 . S
O1202 C1206 1.253 . S
H1203 C1199 0.931 . S
H1204 C1200 0.930 . S
O1205 Co1194 2.039 . S
O1205 C1195 1.265 . S
C1206 O1202 1.253 . S
C1206 O1207 1.227 . S
O1207 C1206 1.227 . S
N1208 Co1194 2.140 . S
N1208 C1211 1.346 . S
N1208 C1212 1.345 . S
C1209 C1210 1.387 . S
C1209 C1213 1.391 . S
C1210 C1209 1.387 . S
C1210 C1211 1.369 . S
C1210 H1219 0.929 . S
C1211 N1208 1.346 . S
C1211 C1210 1.369 . S
C1211 H1214 0.928 . S
C1212 N1208 1.345 . S
C1212 C1213 1.371 . S
C1212 H1215 0.931 . S
C1213 C1209 1.391 . S
C1213 C1212 1.371 . S
C1213 H1220 0.930 . S
H1214 C1211 0.928 . S
H1215 C1212 0.931 . S
H1216 C1192 0.930 . S
H1217 C1189 0.930 . S
H1218 C1198 0.930 . S
H1219 C1210 0.929 . S
H1220 C1213 0.930 . S
C1221 C1222 1.351 . S
C1221 N1224 1.368 . S
C1221 H1226 0.931 . S
C1222 C1221 1.351 . S
C1222 N1223 1.373 . S
C1222 H1250 0.930 . S
N1223 C1222 1.373 . S
N1223 C1225 1.340 . S
N1224 C1221 1.368 . S
N1224 C1225 1.321 . S
N1224 Co1227 2.135 . S
C1225 N1223 1.340 . S
C1225 N1224 1.321 . S
C1225 H1249 0.930 . S
H1226 C1221 0.931 . S
Co1227 N1224 2.135 . S
Co1227 N1230 2.121 . S
Co1227 O1235 2.055 . S
Co1227 O1238 2.039 . S
Co1227 N1241 2.140 . S
C1228 O1229 1.227 . S
C1228 O1238 1.265 . S
O1229 C1228 1.227 . S
N1230 Co1227 2.121 . S
N1230 C1232 1.375 . S
N1230 C1233 1.313 . S
C1231 C1232 1.338 . S
C1231 N1234 1.377 . S
C1231 H1251 0.930 . S
C1232 N1230 1.375 . S
C1232 C1231 1.338 . S
C1232 H1236 0.931 . S
C1233 N1230 1.313 . S
C1233 N1234 1.344 . S
C1233 H1237 0.930 . S
N1234 C1231 1.377 . S
N1234 C1233 1.344 . S
O1235 Co1227 2.055 . S
O1235 C1239 1.253 . S
H1236 C1232 0.931 . S
H1237 C1233 0.930 . S
O1238 Co1227 2.039 . S
O1238 C1228 1.265 . S
C1239 O1235 1.253 . S
C1239 O1240 1.227 . S
O1240 C1239 1.227 . S
N1241 Co1227 2.140 . S
N1241 C1244 1.346 . S
N1241 C1245 1.345 . S
C1242 C1243 1.387 . S
C1242 C1246 1.391 . S
C1243 C1242 1.387 . S
C1243 C1244 1.369 . S
C1243 H1252 0.929 . S
C1244 N1241 1.346 . S
C1244 C1243 1.369 . S
C1244 H1247 0.928 . S
C1245 N1241 1.345 . S
C1245 C1246 1.371 . S
C1245 H1248 0.931 . S
C1246 C1242 1.391 . S
C1246 C1245 1.371 . S
C1246 H1253 0.930 . S
H1247 C1244 0.928 . S
H1248 C1245 0.931 . S
H1249 C1225 0.930 . S
H1250 C1222 0.930 . S
H1251 C1231 0.930 . S
H1252 C1243 0.929 . S
H1253 C1246 0.930 . S
C1254 C1255 1.351 . S
C1254 N1257 1.368 . S
C1254 H1259 0.931 . S
C1255 C1254 1.351 . S
C1255 N1256 1.373 . S
C1255 H1283 0.930 . S
N1256 C1255 1.373 . S
N1256 C1258 1.340 . S
N1257 C1254 1.368 . S
N1257 C1258 1.321 . S
N1257 Co1260 2.135 . S
C1258 N1256 1.340 . S
C1258 N1257 1.321 . S
C1258 H1282 0.930 . S
H1259 C1254 0.931 . S
Co1260 N1257 2.135 . S
Co1260 N1263 2.121 . S
Co1260 O1268 2.055 . S
Co1260 O1271 2.039 . S
Co1260 N1274 2.140 . S
C1261 O1262 1.227 . S
C1261 O1271 1.265 . S
O1262 C1261 1.227 . S
N1263 Co1260 2.121 . S
N1263 C1265 1.375 . S
N1263 C1266 1.313 . S
C1264 C1265 1.338 . S
C1264 N1267 1.377 . S
C1264 H1284 0.930 . S
C1265 N1263 1.375 . S
C1265 C1264 1.338 . S
C1265 H1269 0.931 . S
C1266 N1263 1.313 . S
C1266 N1267 1.344 . S
C1266 H1270 0.930 . S
N1267 C1264 1.377 . S
N1267 C1266 1.344 . S
O1268 Co1260 2.055 . S
O1268 C1272 1.253 . S
H1269 C1265 0.931 . S
H1270 C1266 0.930 . S
O1271 Co1260 2.039 . S
O1271 C1261 1.265 . S
C1272 O1268 1.253 . S
C1272 O1273 1.227 . S
O1273 C1272 1.227 . S
N1274 Co1260 2.140 . S
N1274 C1277 1.346 . S
N1274 C1278 1.345 . S
C1275 C1276 1.387 . S
C1275 C1279 1.391 . S
C1276 C1275 1.387 . S
C1276 C1277 1.369 . S
C1276 H1285 0.929 . S
C1277 N1274 1.346 . S
C1277 C1276 1.369 . S
C1277 H1280 0.928 . S
C1278 N1274 1.345 . S
C1278 C1279 1.371 . S
C1278 H1281 0.931 . S
C1279 C1275 1.391 . S
C1279 C1278 1.371 . S
C1279 H1286 0.930 . S
H1280 C1277 0.928 . S
H1281 C1278 0.931 . S
H1282 C1258 0.930 . S
H1283 C1255 0.930 . S
H1284 C1264 0.930 . S
H1285 C1276 0.929 . S
H1286 C1279 0.930 . S
C1287 C1288 1.351 . S
C1287 N1290 1.368 . S
C1287 H1292 0.931 . S
C1288 C1287 1.351 . S
C1288 N1289 1.373 . S
C1288 H1316 0.930 . S
N1289 C1288 1.373 . S
N1289 C1291 1.340 . S
N1290 C1287 1.368 . S
N1290 C1291 1.321 . S
N1290 Co1293 2.135 . S
C1291 N1289 1.340 . S
C1291 N1290 1.321 . S
C1291 H1315 0.930 . S
H1292 C1287 0.931 . S
Co1293 N1290 2.135 . S
Co1293 N1296 2.121 . S
Co1293 O1301 2.055 . S
Co1293 O1304 2.039 . S
Co1293 N1307 2.140 . S
C1294 O1295 1.227 . S
C1294 O1304 1.265 . S
O1295 C1294 1.227 . S
N1296 Co1293 2.121 . S
N1296 C1298 1.375 . S
N1296 C1299 1.313 . S
C1297 C1298 1.338 . S
C1297 N1300 1.377 . S
C1297 H1317 0.930 . S
C1298 N1296 1.375 . S
C1298 C1297 1.338 . S
C1298 H1302 0.931 . S
C1299 N1296 1.313 . S
C1299 N1300 1.344 . S
C1299 H1303 0.930 . S
N1300 C1297 1.377 . S
N1300 C1299 1.344 . S
O1301 Co1293 2.055 . S
O1301 C1305 1.253 . S
H1302 C1298 0.931 . S
H1303 C1299 0.930 . S
O1304 Co1293 2.039 . S
O1304 C1294 1.265 . S
C1305 O1301 1.253 . S
C1305 O1306 1.227 . S
O1306 C1305 1.227 . S
N1307 Co1293 2.140 . S
N1307 C1310 1.346 . S
N1307 C1311 1.345 . S
C1308 C1309 1.387 . S
C1308 C1312 1.391 . S
C1309 C1308 1.387 . S
C1309 C1310 1.369 . S
C1309 H1318 0.929 . S
C1310 N1307 1.346 . S
C1310 C1309 1.369 . S
C1310 H1313 0.928 . S
C1311 N1307 1.345 . S
C1311 C1312 1.371 . S
C1311 H1314 0.931 . S
C1312 C1308 1.391 . S
C1312 C1311 1.371 . S
C1312 H1319 0.930 . S
H1313 C1310 0.928 . S
H1314 C1311 0.931 . S
H1315 C1291 0.930 . S
H1316 C1288 0.930 . S
H1317 C1297 0.930 . S
H1318 C1309 0.929 . S
H1319 C1312 0.930 . S
C1320 C1321 1.351 . S
C1320 N1323 1.368 . S
C1320 H1325 0.931 . S
C1321 C1320 1.351 . S
C1321 N1322 1.373 . S
C1321 H1349 0.930 . S
N1322 C1321 1.373 . S
N1322 C1324 1.340 . S
N1323 C1320 1.368 . S
N1323 C1324 1.321 . S
N1323 Co1326 2.135 . S
C1324 N1322 1.340 . S
C1324 N1323 1.321 . S
C1324 H1348 0.930 . S
H1325 C1320 0.931 . S
Co1326 N1323 2.135 . S
Co1326 N1329 2.121 . S
Co1326 O1334 2.055 . S
Co1326 O1337 2.039 . S
Co1326 N1340 2.140 . S
C1327 O1328 1.227 . S
C1327 O1337 1.265 . S
O1328 C1327 1.227 . S
N1329 Co1326 2.121 . S
N1329 C1331 1.375 . S
N1329 C1332 1.313 . S
C1330 C1331 1.338 . S
C1330 N1333 1.377 . S
C1330 H1350 0.930 . S
C1331 N1329 1.375 . S
C1331 C1330 1.338 . S
C1331 H1335 0.931 . S
C1332 N1329 1.313 . S
C1332 N1333 1.344 . S
C1332 H1336 0.930 . S
N1333 C1330 1.377 . S
N1333 C1332 1.344 . S
O1334 Co1326 2.055 . S
O1334 C1338 1.253 . S
H1335 C1331 0.931 . S
H1336 C1332 0.930 . S
O1337 Co1326 2.039 . S
O1337 C1327 1.265 . S
C1338 O1334 1.253 . S
C1338 O1339 1.227 . S
O1339 C1338 1.227 . S
N1340 Co1326 2.140 . S
N1340 C1343 1.346 . S
N1340 C1344 1.345 . S
C1341 C1342 1.387 . S
C1341 C1345 1.391 . S
C1342 C1341 1.387 . S
C1342 C1343 1.369 . S
C1342 H1351 0.929 . S
C1343 N1340 1.346 . S
C1343 C1342 1.369 . S
C1343 H1346 0.928 . S
C1344 N1340 1.345 . S
C1344 C1345 1.371 . S
C1344 H1347 0.931 . S
C1345 C1341 1.391 . S
C1345 C1344 1.371 . S
C1345 H1352 0.930 . S
H1346 C1343 0.928 . S
H1347 C1344 0.931 . S
H1348 C1324 0.930 . S
H1349 C1321 0.930 . S
H1350 C1330 0.930 . S
H1351 C1342 0.929 . S
H1352 C1345 0.930 . S
C1353 C1354 1.351 . S
C1353 N1356 1.368 . S
C1353 H1358 0.931 . S
C1354 C1353 1.351 . S
C1354 N1355 1.373 . S
C1354 H1382 0.930 . S
N1355 C1354 1.373 . S
N1355 C1357 1.340 . S
N1356 C1353 1.368 . S
N1356 C1357 1.321 . S
N1356 Co1359 2.135 . S
C1357 N1355 1.340 . S
C1357 N1356 1.321 . S
C1357 H1381 0.930 . S
H1358 C1353 0.931 . S
Co1359 N1356 2.135 . S
Co1359 N1362 2.121 . S
Co1359 O1367 2.055 . S
Co1359 O1370 2.039 . S
Co1359 N1373 2.140 . S
C1360 O1361 1.227 . S
C1360 O1370 1.265 . S
O1361 C1360 1.227 . S
N1362 Co1359 2.121 . S
N1362 C1364 1.375 . S
N1362 C1365 1.313 . S
C1363 C1364 1.338 . S
C1363 N1366 1.377 . S
C1363 H1383 0.930 . S
C1364 N1362 1.375 . S
C1364 C1363 1.338 . S
C1364 H1368 0.931 . S
C1365 N1362 1.313 . S
C1365 N1366 1.344 . S
C1365 H1369 0.930 . S
N1366 C1363 1.377 . S
N1366 C1365 1.344 . S
O1367 Co1359 2.055 . S
O1367 C1371 1.253 . S
H1368 C1364 0.931 . S
H1369 C1365 0.930 . S
O1370 Co1359 2.039 . S
O1370 C1360 1.265 . S
C1371 O1367 1.253 . S
C1371 O1372 1.227 . S
O1372 C1371 1.227 . S
N1373 Co1359 2.140 . S
N1373 C1376 1.346 . S
N1373 C1377 1.345 . S
C1374 C1375 1.387 . S
C1374 C1378 1.391 . S
C1375 C1374 1.387 . S
C1375 C1376 1.369 . S
C1375 H1384 0.929 . S
C1376 N1373 1.346 . S
C1376 C1375 1.369 . S
C1376 H1379 0.928 . S
C1377 N1373 1.345 . S
C1377 C1378 1.371 . S
C1377 H1380 0.931 . S
C1378 C1374 1.391 . S
C1378 C1377 1.371 . S
C1378 H1385 0.930 . S
H1379 C1376 0.928 . S
H1380 C1377 0.931 . S
H1381 C1357 0.930 . S
H1382 C1354 0.930 . S
H1383 C1363 0.930 . S
H1384 C1375 0.929 . S
H1385 C1378 0.930 . S
C1386 C1387 1.351 . S
C1386 N1389 1.368 . S
C1386 H1391 0.931 . S
C1387 C1386 1.351 . S
C1387 N1388 1.373 . S
C1387 H1415 0.930 . S
N1388 C1387 1.373 . S
N1388 C1390 1.340 . S
N1389 C1386 1.368 . S
N1389 C1390 1.321 . S
N1389 Co1392 2.135 . S
C1390 N1388 1.340 . S
C1390 N1389 1.321 . S
C1390 H1414 0.930 . S
H1391 C1386 0.931 . S
Co1392 N1389 2.135 . S
Co1392 N1395 2.121 . S
Co1392 O1400 2.055 . S
Co1392 O1403 2.039 . S
Co1392 N1406 2.140 . S
C1393 O1394 1.227 . S
C1393 O1403 1.265 . S
O1394 C1393 1.227 . S
N1395 Co1392 2.121 . S
N1395 C1397 1.375 . S
N1395 C1398 1.313 . S
C1396 C1397 1.338 . S
C1396 N1399 1.377 . S
C1396 H1416 0.930 . S
C1397 N1395 1.375 . S
C1397 C1396 1.338 . S
C1397 H1401 0.931 . S
C1398 N1395 1.313 . S
C1398 N1399 1.344 . S
C1398 H1402 0.930 . S
N1399 C1396 1.377 . S
N1399 C1398 1.344 . S
O1400 Co1392 2.055 . S
O1400 C1404 1.253 . S
H1401 C1397 0.931 . S
H1402 C1398 0.930 . S
O1403 Co1392 2.039 . S
O1403 C1393 1.265 . S
C1404 O1400 1.253 . S
C1404 O1405 1.227 . S
O1405 C1404 1.227 . S
N1406 Co1392 2.140 . S
N1406 C1409 1.346 . S
N1406 C1410 1.345 . S
C1407 C1408 1.387 . S
C1407 C1411 1.391 . S
C1408 C1407 1.387 . S
C1408 C1409 1.369 . S
C1408 H1417 0.929 . S
C1409 N1406 1.346 . S
C1409 C1408 1.369 . S
C1409 H1412 0.928 . S
C1410 N1406 1.345 . S
C1410 C1411 1.371 . S
C1410 H1413 0.931 . S
C1411 C1407 1.391 . S
C1411 C1410 1.371 . S
C1411 H1418 0.930 . S
H1412 C1409 0.928 . S
H1413 C1410 0.931 . S
H1414 C1390 0.930 . S
H1415 C1387 0.930 . S
H1416 C1396 0.930 . S
H1417 C1408 0.929 . S
H1418 C1411 0.930 . S
C1419 C1420 1.351 . S
C1419 N1422 1.368 . S
C1419 H1424 0.931 . S
C1420 C1419 1.351 . S
C1420 N1421 1.373 . S
C1420 H1448 0.930 . S
N1421 C1420 1.373 . S
N1421 C1423 1.340 . S
N1422 C1419 1.368 . S
N1422 C1423 1.321 . S
N1422 Co1425 2.135 . S
C1423 N1421 1.340 . S
C1423 N1422 1.321 . S
C1423 H1447 0.930 . S
H1424 C1419 0.931 . S
Co1425 N1422 2.135 . S
Co1425 N1428 2.121 . S
Co1425 O1433 2.055 . S
Co1425 O1436 2.039 . S
Co1425 N1439 2.140 . S
C1426 O1427 1.227 . S
C1426 O1436 1.265 . S
O1427 C1426 1.227 . S
N1428 Co1425 2.121 . S
N1428 C1430 1.375 . S
N1428 C1431 1.313 . S
C1429 C1430 1.338 . S
C1429 N1432 1.377 . S
C1429 H1449 0.930 . S
C1430 N1428 1.375 . S
C1430 C1429 1.338 . S
C1430 H1434 0.931 . S
C1431 N1428 1.313 . S
C1431 N1432 1.344 . S
C1431 H1435 0.930 . S
N1432 C1429 1.377 . S
N1432 C1431 1.344 . S
O1433 Co1425 2.055 . S
O1433 C1437 1.253 . S
H1434 C1430 0.931 . S
H1435 C1431 0.930 . S
O1436 Co1425 2.039 . S
O1436 C1426 1.265 . S
C1437 O1433 1.253 . S
C1437 O1438 1.227 . S
O1438 C1437 1.227 . S
N1439 Co1425 2.140 . S
N1439 C1442 1.346 . S
N1439 C1443 1.345 . S
C1440 C1441 1.387 . S
C1440 C1444 1.391 . S
C1441 C1440 1.387 . S
C1441 C1442 1.369 . S
C1441 H1450 0.929 . S
C1442 N1439 1.346 . S
C1442 C1441 1.369 . S
C1442 H1445 0.928 . S
C1443 N1439 1.345 . S
C1443 C1444 1.371 . S
C1443 H1446 0.931 . S
C1444 C1440 1.391 . S
C1444 C1443 1.371 . S
C1444 H1451 0.930 . S
H1445 C1442 0.928 . S
H1446 C1443 0.931 . S
H1447 C1423 0.930 . S
H1448 C1420 0.930 . S
H1449 C1429 0.930 . S
H1450 C1441 0.929 . S
H1451 C1444 0.930 . S
C1452 C1453 1.351 . S
C1452 N1455 1.368 . S
C1452 H1457 0.931 . S
C1453 C1452 1.351 . S
C1453 N1454 1.373 . S
C1453 H1481 0.930 . S
N1454 C1453 1.373 . S
N1454 C1456 1.340 . S
N1455 C1452 1.368 . S
N1455 C1456 1.321 . S
N1455 Co1458 2.135 . S
C1456 N1454 1.340 . S
C1456 N1455 1.321 . S
C1456 H1480 0.930 . S
H1457 C1452 0.931 . S
Co1458 N1455 2.135 . S
Co1458 N1461 2.121 . S
Co1458 O1466 2.055 . S
Co1458 O1469 2.039 . S
Co1458 N1472 2.140 . S
C1459 O1460 1.227 . S
C1459 O1469 1.265 . S
O1460 C1459 1.227 . S
N1461 Co1458 2.121 . S
N1461 C1463 1.375 . S
N1461 C1464 1.313 . S
C1462 C1463 1.338 . S
C1462 N1465 1.377 . S
C1462 H1482 0.930 . S
C1463 N1461 1.375 . S
C1463 C1462 1.338 . S
C1463 H1467 0.931 . S
C1464 N1461 1.313 . S
C1464 N1465 1.344 . S
C1464 H1468 0.930 . S
N1465 C1462 1.377 . S
N1465 C1464 1.344 . S
O1466 Co1458 2.055 . S
O1466 C1470 1.253 . S
H1467 C1463 0.931 . S
H1468 C1464 0.930 . S
O1469 Co1458 2.039 . S
O1469 C1459 1.265 . S
C1470 O1466 1.253 . S
C1470 O1471 1.227 . S
O1471 C1470 1.227 . S
N1472 Co1458 2.140 . S
N1472 C1475 1.346 . S
N1472 C1476 1.345 . S
C1473 C1474 1.387 . S
C1473 C1477 1.391 . S
C1474 C1473 1.387 . S
C1474 C1475 1.369 . S
C1474 H1483 0.929 . S
C1475 N1472 1.346 . S
C1475 C1474 1.369 . S
C1475 H1478 0.928 . S
C1476 N1472 1.345 . S
C1476 C1477 1.371 . S
C1476 H1479 0.931 . S
C1477 C1473 1.391 . S
C1477 C1476 1.371 . S
C1477 H1484 0.930 . S
H1478 C1475 0.928 . S
H1479 C1476 0.931 . S
H1480 C1456 0.930 . S
H1481 C1453 0.930 . S
H1482 C1462 0.930 . S
H1483 C1474 0.929 . S
H1484 C1477 0.930 . S
C1485 C1486 1.351 . S
C1485 N1488 1.368 . S
C1485 H1490 0.931 . S
C1486 C1485 1.351 . S
C1486 N1487 1.373 . S
C1486 H1514 0.930 . S
N1487 C1486 1.373 . S
N1487 C1489 1.340 . S
N1488 C1485 1.368 . S
N1488 C1489 1.321 . S
N1488 Co1491 2.135 . S
C1489 N1487 1.340 . S
C1489 N1488 1.321 . S
C1489 H1513 0.930 . S
H1490 C1485 0.931 . S
Co1491 N1488 2.135 . S
Co1491 N1494 2.121 . S
Co1491 O1499 2.055 . S
Co1491 O1502 2.039 . S
Co1491 N1505 2.140 . S
C1492 O1493 1.227 . S
C1492 O1502 1.265 . S
O1493 C1492 1.227 . S
N1494 Co1491 2.121 . S
N1494 C1496 1.375 . S
N1494 C1497 1.313 . S
C1495 C1496 1.338 . S
C1495 N1498 1.377 . S
C1495 H1515 0.930 . S
C1496 N1494 1.375 . S
C1496 C1495 1.338 . S
C1496 H1500 0.931 . S
C1497 N1494 1.313 . S
C1497 N1498 1.344 . S
C1497 H1501 0.930 . S
N1498 C1495 1.377 . S
N1498 C1497 1.344 . S
O1499 Co1491 2.055 . S
O1499 C1503 1.253 . S
H1500 C1496 0.931 . S
H1501 C1497 0.930 . S
O1502 Co1491 2.039 . S
O1502 C1492 1.265 . S
C1503 O1499 1.253 . S
C1503 O1504 1.227 . S
O1504 C1503 1.227 . S
N1505 Co1491 2.140 . S
N1505 C1508 1.346 . S
N1505 C1509 1.345 . S
C1506 C1507 1.387 . S
C1506 C1510 1.391 . S
C1507 C1506 1.387 . S
C1507 C1508 1.369 . S
C1507 H1516 0.929 . S
C1508 N1505 1.346 . S
C1508 C1507 1.369 . S
C1508 H1511 0.928 . S
C1509 N1505 1.345 . S
C1509 C1510 1.371 . S
C1509 H1512 0.931 . S
C1510 C1506 1.391 . S
C1510 C1509 1.371 . S
C1510 H1517 0.930 . S
H1511 C1508 0.928 . S
H1512 C1509 0.931 . S
H1513 C1489 0.930 . S
H1514 C1486 0.930 . S
H1515 C1495 0.930 . S
H1516 C1507 0.929 . S
H1517 C1510 0.930 . S
C1518 C1519 1.351 . S
C1518 N1521 1.368 . S
C1518 H1523 0.931 . S
C1519 C1518 1.351 . S
C1519 N1520 1.373 . S
C1519 H1547 0.930 . S
N1520 C1519 1.373 . S
N1520 C1522 1.340 . S
N1521 C1518 1.368 . S
N1521 C1522 1.321 . S
N1521 Co1524 2.135 . S
C1522 N1520 1.340 . S
C1522 N1521 1.321 . S
C1522 H1546 0.930 . S
H1523 C1518 0.931 . S
Co1524 N1521 2.135 . S
Co1524 N1527 2.121 . S
Co1524 O1532 2.055 . S
Co1524 O1535 2.039 . S
Co1524 N1538 2.140 . S
C1525 O1526 1.227 . S
C1525 O1535 1.265 . S
O1526 C1525 1.227 . S
N1527 Co1524 2.121 . S
N1527 C1529 1.375 . S
N1527 C1530 1.313 . S
C1528 C1529 1.338 . S
C1528 N1531 1.377 . S
C1528 H1548 0.930 . S
C1529 N1527 1.375 . S
C1529 C1528 1.338 . S
C1529 H1533 0.931 . S
C1530 N1527 1.313 . S
C1530 N1531 1.344 . S
C1530 H1534 0.930 . S
N1531 C1528 1.377 . S
N1531 C1530 1.344 . S
O1532 Co1524 2.055 . S
O1532 C1536 1.253 . S
H1533 C1529 0.931 . S
H1534 C1530 0.930 . S
O1535 Co1524 2.039 . S
O1535 C1525 1.265 . S
C1536 O1532 1.253 . S
C1536 O1537 1.227 . S
O1537 C1536 1.227 . S
N1538 Co1524 2.140 . S
N1538 C1541 1.346 . S
N1538 C1542 1.345 . S
C1539 C1540 1.387 . S
C1539 C1543 1.391 . S
C1540 C1539 1.387 . S
C1540 C1541 1.369 . S
C1540 H1549 0.929 . S
C1541 N1538 1.346 . S
C1541 C1540 1.369 . S
C1541 H1544 0.928 . S
C1542 N1538 1.345 . S
C1542 C1543 1.371 . S
C1542 H1545 0.931 . S
C1543 C1539 1.391 . S
C1543 C1542 1.371 . S
C1543 H1550 0.930 . S
H1544 C1541 0.928 . S
H1545 C1542 0.931 . S
H1546 C1522 0.930 . S
H1547 C1519 0.930 . S
H1548 C1528 0.930 . S
H1549 C1540 0.929 . S
H1550 C1543 0.930 . S
C1551 C1552 1.351 . S
C1551 N1554 1.368 . S
C1551 H1556 0.931 . S
C1552 C1551 1.351 . S
C1552 N1553 1.373 . S
C1552 H1580 0.930 . S
N1553 C1552 1.373 . S
N1553 C1555 1.340 . S
N1554 C1551 1.368 . S
N1554 C1555 1.321 . S
N1554 Co1557 2.135 . S
C1555 N1553 1.340 . S
C1555 N1554 1.321 . S
C1555 H1579 0.930 . S
H1556 C1551 0.931 . S
Co1557 N1554 2.135 . S
Co1557 N1560 2.121 . S
Co1557 O1565 2.055 . S
Co1557 O1568 2.039 . S
Co1557 N1571 2.140 . S
C1558 O1559 1.227 . S
C1558 O1568 1.265 . S
O1559 C1558 1.227 . S
N1560 Co1557 2.121 . S
N1560 C1562 1.375 . S
N1560 C1563 1.313 . S
C1561 C1562 1.338 . S
C1561 N1564 1.377 . S
C1561 H1581 0.930 . S
C1562 N1560 1.375 . S
C1562 C1561 1.338 . S
C1562 H1566 0.931 . S
C1563 N1560 1.313 . S
C1563 N1564 1.344 . S
C1563 H1567 0.930 . S
N1564 C1561 1.377 . S
N1564 C1563 1.344 . S
O1565 Co1557 2.055 . S
O1565 C1569 1.253 . S
H1566 C1562 0.931 . S
H1567 C1563 0.930 . S
O1568 Co1557 2.039 . S
O1568 C1558 1.265 . S
C1569 O1565 1.253 . S
C1569 O1570 1.227 . S
O1570 C1569 1.227 . S
N1571 Co1557 2.140 . S
N1571 C1574 1.346 . S
N1571 C1575 1.345 . S
C1572 C1573 1.387 . S
C1572 C1576 1.391 . S
C1573 C1572 1.387 . S
C1573 C1574 1.369 . S
C1573 H1582 0.929 . S
C1574 N1571 1.346 . S
C1574 C1573 1.369 . S
C1574 H1577 0.928 . S
C1575 N1571 1.345 . S
C1575 C1576 1.371 . S
C1575 H1578 0.931 . S
C1576 C1572 1.391 . S
C1576 C1575 1.371 . S
C1576 H1583 0.930 . S
H1577 C1574 0.928 . S
H1578 C1575 0.931 . S
H1579 C1555 0.930 . S
H1580 C1552 0.930 . S
H1581 C1561 0.930 . S
H1582 C1573 0.929 . S
H1583 C1576 0.930 . S
H1584 C1590 0.930 . S
H1585 C1593 0.930 . S
H1586 C1594 0.930 . S
H1587 C1595 0.930 . S
H1588 C1598 0.930 . S
H1589 C1599 0.930 . S
C1590 H1584 0.930 . S
C1590 C1591 1.355 . S
C1590 C1592 1.415 . S
C1591 C1590 1.355 . S
C1591 C1593 1.419 . S
C1592 C1590 1.415 . S
C1592 C1597 1.425 . S
C1592 C1599 1.409 . S
C1593 H1585 0.930 . S
C1593 C1591 1.419 . S
C1593 C1594 1.362 . S
C1594 H1586 0.930 . S
C1594 C1593 1.362 . S
C1594 C1597 1.409 . S
C1595 H1587 0.930 . S
C1595 C1596 1.355 . S
C1595 C1597 1.415 . S
C1596 C1595 1.355 . S
C1596 C1598 1.419 . S
C1597 C1592 1.425 . S
C1597 C1594 1.409 . S
C1597 C1595 1.415 . S
C1598 H1588 0.930 . S
C1598 C1596 1.419 . S
C1598 C1599 1.362 . S
C1599 H1589 0.930 . S
C1599 C1592 1.409 . S
C1599 C1598 1.362 . S
H1600 C1606 0.930 . S
H1601 C1609 0.930 . S
H1602 C1610 0.930 . S
H1603 C1611 0.930 . S
H1604 C1614 0.930 . S
H1605 C1615 0.930 . S
C1606 H1600 0.930 . S
C1606 C1607 1.355 . S
C1606 C1608 1.415 . S
C1607 C1606 1.355 . S
C1607 C1609 1.419 . S
C1608 C1606 1.415 . S
C1608 C1613 1.425 . S
C1608 C1615 1.409 . S
C1609 H1601 0.930 . S
C1609 C1607 1.419 . S
C1609 C1610 1.362 . S
C1610 H1602 0.930 . S
C1610 C1609 1.362 . S
C1610 C1613 1.409 . S
C1611 H1603 0.930 . S
C1611 C1612 1.355 . S
C1611 C1613 1.415 . S
C1612 C1611 1.355 . S
C1612 C1614 1.419 . S
C1613 C1608 1.425 . S
C1613 C1610 1.409 . S
C1613 C1611 1.415 . S
C1614 H1604 0.930 . S
C1614 C1612 1.419 . S
C1614 C1615 1.362 . S
C1615 H1605 0.930 . S
C1615 C1608 1.409 . S
C1615 C1614 1.362 . S
H1616 C1622 0.930 . S
H1617 C1625 0.930 . S
H1618 C1626 0.930 . S
H1619 C1627 0.930 . S
H1620 C1630 0.930 . S
H1621 C1631 0.930 . S
C1622 H1616 0.930 . S
C1622 C1623 1.355 . S
C1622 C1624 1.415 . S
C1623 C1622 1.355 . S
C1623 C1625 1.419 . S
C1624 C1622 1.415 . S
C1624 C1629 1.425 . S
C1624 C1631 1.409 . S
C1625 H1617 0.930 . S
C1625 C1623 1.419 . S
C1625 C1626 1.362 . S
C1626 H1618 0.930 . S
C1626 C1625 1.362 . S
C1626 C1629 1.409 . S
C1627 H1619 0.930 . S
C1627 C1628 1.355 . S
C1627 C1629 1.415 . S
C1628 C1627 1.355 . S
C1628 C1630 1.419 . S
C1629 C1624 1.425 . S
C1629 C1626 1.409 . S
C1629 C1627 1.415 . S
C1630 H1620 0.930 . S
C1630 C1628 1.419 . S
C1630 C1631 1.362 . S
C1631 H1621 0.930 . S
C1631 C1624 1.409 . S
C1631 C1630 1.362 . S
H1632 C1638 0.930 . S
H1633 C1641 0.930 . S
H1634 C1642 0.930 . S
H1635 C1643 0.930 . S
H1636 C1646 0.930 . S
H1637 C1647 0.930 . S
C1638 H1632 0.930 . S
C1638 C1639 1.355 . S
C1638 C1640 1.415 . S
C1639 C1638 1.355 . S
C1639 C1641 1.419 . S
C1640 C1638 1.415 . S
C1640 C1645 1.425 . S
C1640 C1647 1.409 . S
C1641 H1633 0.930 . S
C1641 C1639 1.419 . S
C1641 C1642 1.362 . S
C1642 H1634 0.930 . S
C1642 C1641 1.362 . S
C1642 C1645 1.409 . S
C1643 H1635 0.930 . S
C1643 C1644 1.355 . S
C1643 C1645 1.415 . S
C1644 C1643 1.355 . S
C1644 C1646 1.419 . S
C1645 C1640 1.425 . S
C1645 C1642 1.409 . S
C1645 C1643 1.415 . S
C1646 H1636 0.930 . S
C1646 C1644 1.419 . S
C1646 C1647 1.362 . S
C1647 H1637 0.930 . S
C1647 C1640 1.409 . S
C1647 C1646 1.362 . S
H1648 C1654 0.930 . S
H1649 C1657 0.930 . S
H1650 C1658 0.930 . S
H1651 C1659 0.930 . S
H1652 C1662 0.930 . S
H1653 C1663 0.930 . S
C1654 H1648 0.930 . S
C1654 C1655 1.355 . S
C1654 C1656 1.415 . S
C1655 C1654 1.355 . S
C1655 C1657 1.419 . S
C1656 C1654 1.415 . S
C1656 C1661 1.425 . S
C1656 C1663 1.409 . S
C1657 H1649 0.930 . S
C1657 C1655 1.419 . S
C1657 C1658 1.362 . S
C1658 H1650 0.930 . S
C1658 C1657 1.362 . S
C1658 C1661 1.409 . S
C1659 H1651 0.930 . S
C1659 C1660 1.355 . S
C1659 C1661 1.415 . S
C1660 C1659 1.355 . S
C1660 C1662 1.419 . S
C1661 C1656 1.425 . S
C1661 C1658 1.409 . S
C1661 C1659 1.415 . S
C1662 H1652 0.930 . S
C1662 C1660 1.419 . S
C1662 C1663 1.362 . S
C1663 H1653 0.930 . S
C1663 C1656 1.409 . S
C1663 C1662 1.362 . S
H1664 C1670 0.930 . S
H1665 C1673 0.930 . S
H1666 C1674 0.930 . S
H1667 C1675 0.930 . S
H1668 C1678 0.930 . S
H1669 C1679 0.930 . S
C1670 H1664 0.930 . S
C1670 C1671 1.355 . S
C1670 C1672 1.415 . S
C1671 C1670 1.355 . S
C1671 C1673 1.419 . S
C1672 C1670 1.415 . S
C1672 C1677 1.425 . S
C1672 C1679 1.409 . S
C1673 H1665 0.930 . S
C1673 C1671 1.419 . S
C1673 C1674 1.362 . S
C1674 H1666 0.930 . S
C1674 C1673 1.362 . S
C1674 C1677 1.409 . S
C1675 H1667 0.930 . S
C1675 C1676 1.355 . S
C1675 C1677 1.415 . S
C1676 C1675 1.355 . S
C1676 C1678 1.419 . S
C1677 C1672 1.425 . S
C1677 C1674 1.409 . S
C1677 C1675 1.415 . S
C1678 H1668 0.930 . S
C1678 C1676 1.419 . S
C1678 C1679 1.362 . S
C1679 H1669 0.930 . S
C1679 C1672 1.409 . S
C1679 C1678 1.362 . S
H1680 C1686 0.930 . S
H1681 C1689 0.930 . S
H1682 C1690 0.930 . S
H1683 C1691 0.930 . S
H1684 C1694 0.930 . S
H1685 C1695 0.930 . S
C1686 H1680 0.930 . S
C1686 C1687 1.355 . S
C1686 C1688 1.415 . S
C1687 C1686 1.355 . S
C1687 C1689 1.419 . S
C1688 C1686 1.415 . S
C1688 C1693 1.425 . S
C1688 C1695 1.409 . S
C1689 H1681 0.930 . S
C1689 C1687 1.419 . S
C1689 C1690 1.362 . S
C1690 H1682 0.930 . S
C1690 C1689 1.362 . S
C1690 C1693 1.409 . S
C1691 H1683 0.930 . S
C1691 C1692 1.355 . S
C1691 C1693 1.415 . S
C1692 C1691 1.355 . S
C1692 C1694 1.419 . S
C1693 C1688 1.425 . S
C1693 C1690 1.409 . S
C1693 C1691 1.415 . S
C1694 H1684 0.930 . S
C1694 C1692 1.419 . S
C1694 C1695 1.362 . S
C1695 H1685 0.930 . S
C1695 C1688 1.409 . S
C1695 C1694 1.362 . S
H1696 C1702 0.930 . S
H1697 C1705 0.930 . S
H1698 C1706 0.930 . S
H1699 C1707 0.930 . S
H1700 C1710 0.930 . S
H1701 C1711 0.930 . S
C1702 H1696 0.930 . S
C1702 C1703 1.355 . S
C1702 C1704 1.415 . S
C1703 C1702 1.355 . S
C1703 C1705 1.419 . S
C1704 C1702 1.415 . S
C1704 C1709 1.425 . S
C1704 C1711 1.409 . S
C1705 H1697 0.930 . S
C1705 C1703 1.419 . S
C1705 C1706 1.362 . S
C1706 H1698 0.930 . S
C1706 C1705 1.362 . S
C1706 C1709 1.409 . S
C1707 H1699 0.930 . S
C1707 C1708 1.355 . S
C1707 C1709 1.415 . S
C1708 C1707 1.355 . S
C1708 C1710 1.419 . S
C1709 C1704 1.425 . S
C1709 C1706 1.409 . S
C1709 C1707 1.415 . S
C1710 H1700 0.930 . S
C1710 C1708 1.419 . S
C1710 C1711 1.362 . S
C1711 H1701 0.930 . S
C1711 C1704 1.409 . S
C1711 C1710 1.362 . S
H1712 C1718 0.930 . S
H1713 C1721 0.930 . S
H1714 C1722 0.930 . S
H1715 C1723 0.930 . S
H1716 C1726 0.930 . S
H1717 C1727 0.930 . S
C1718 H1712 0.930 . S
C1718 C1719 1.355 . S
C1718 C1720 1.415 . S
C1719 C1718 1.355 . S
C1719 C1721 1.419 . S
C1720 C1718 1.415 . S
C1720 C1725 1.425 . S
C1720 C1727 1.409 . S
C1721 H1713 0.930 . S
C1721 C1719 1.419 . S
C1721 C1722 1.362 . S
C1722 H1714 0.930 . S
C1722 C1721 1.362 . S
C1722 C1725 1.409 . S
C1723 H1715 0.930 . S
C1723 C1724 1.355 . S
C1723 C1725 1.415 . S
C1724 C1723 1.355 . S
C1724 C1726 1.419 . S
C1725 C1720 1.425 . S
C1725 C1722 1.409 . S
C1725 C1723 1.415 . S
C1726 H1716 0.930 . S
C1726 C1724 1.419 . S
C1726 C1727 1.362 . S
C1727 H1717 0.930 . S
C1727 C1720 1.409 . S
C1727 C1726 1.362 . S
H1728 C1734 0.930 . S
H1729 C1737 0.930 . S
H1730 C1738 0.930 . S
H1731 C1739 0.930 . S
H1732 C1742 0.930 . S
H1733 C1743 0.930 . S
C1734 H1728 0.930 . S
C1734 C1735 1.355 . S
C1734 C1736 1.415 . S
C1735 C1734 1.355 . S
C1735 C1737 1.419 . S
C1736 C1734 1.415 . S
C1736 C1741 1.425 . S
C1736 C1743 1.409 . S
C1737 H1729 0.930 . S
C1737 C1735 1.419 . S
C1737 C1738 1.362 . S
C1738 H1730 0.930 . S
C1738 C1737 1.362 . S
C1738 C1741 1.409 . S
C1739 H1731 0.930 . S
C1739 C1740 1.355 . S
C1739 C1741 1.415 . S
C1740 C1739 1.355 . S
C1740 C1742 1.419 . S
C1741 C1736 1.425 . S
C1741 C1738 1.409 . S
C1741 C1739 1.415 . S
C1742 H1732 0.930 . S
C1742 C1740 1.419 . S
C1742 C1743 1.362 . S
C1743 H1733 0.930 . S
C1743 C1736 1.409 . S
C1743 C1742 1.362 . S
H1744 C1750 0.930 . S
H1745 C1753 0.930 . S
H1746 C1754 0.930 . S
H1747 C1755 0.930 . S
H1748 C1758 0.930 . S
H1749 C1759 0.930 . S
C1750 H1744 0.930 . S
C1750 C1751 1.355 . S
C1750 C1752 1.415 . S
C1751 C1750 1.355 . S
C1751 C1753 1.419 . S
C1752 C1750 1.415 . S
C1752 C1757 1.425 . S
C1752 C1759 1.409 . S
C1753 H1745 0.930 . S
C1753 C1751 1.419 . S
C1753 C1754 1.362 . S
C1754 H1746 0.930 . S
C1754 C1753 1.362 . S
C1754 C1757 1.409 . S
C1755 H1747 0.930 . S
C1755 C1756 1.355 . S
C1755 C1757 1.415 . S
C1756 C1755 1.355 . S
C1756 C1758 1.419 . S
C1757 C1752 1.425 . S
C1757 C1754 1.409 . S
C1757 C1755 1.415 . S
C1758 H1748 0.930 . S
C1758 C1756 1.419 . S
C1758 C1759 1.362 . S
C1759 H1749 0.930 . S
C1759 C1752 1.409 . S
C1759 C1758 1.362 . S
H1760 C1766 0.930 . S
H1761 C1769 0.930 . S
H1762 C1770 0.930 . S
H1763 C1771 0.930 . S
H1764 C1774 0.930 . S
H1765 C1775 0.930 . S
C1766 H1760 0.930 . S
C1766 C1767 1.355 . S
C1766 C1768 1.415 . S
C1767 C1766 1.355 . S
C1767 C1769 1.419 . S
C1768 C1766 1.415 . S
C1768 C1773 1.425 . S
C1768 C1775 1.409 . S
C1769 H1761 0.930 . S
C1769 C1767 1.419 . S
C1769 C1770 1.362 . S
C1770 H1762 0.930 . S
C1770 C1769 1.362 . S
C1770 C1773 1.409 . S
C1771 H1763 0.930 . S
C1771 C1772 1.355 . S
C1771 C1773 1.415 . S
C1772 C1771 1.355 . S
C1772 C1774 1.419 . S
C1773 C1768 1.425 . S
C1773 C1770 1.409 . S
C1773 C1771 1.415 . S
C1774 H1764 0.930 . S
C1774 C1772 1.419 . S
C1774 C1775 1.362 . S
C1775 H1765 0.930 . S
C1775 C1768 1.409 . S
C1775 C1774 1.362 . S
H1776 C1782 0.930 . S
H1777 C1785 0.930 . S
H1778 C1786 0.930 . S
H1779 C1787 0.930 . S
H1780 C1790 0.930 . S
H1781 C1791 0.930 . S
C1782 H1776 0.930 . S
C1782 C1783 1.355 . S
C1782 C1784 1.415 . S
C1783 C1782 1.355 . S
C1783 C1785 1.419 . S
C1784 C1782 1.415 . S
C1784 C1789 1.425 . S
C1784 C1791 1.409 . S
C1785 H1777 0.930 . S
C1785 C1783 1.419 . S
C1785 C1786 1.362 . S
C1786 H1778 0.930 . S
C1786 C1785 1.362 . S
C1786 C1789 1.409 . S
C1787 H1779 0.930 . S
C1787 C1788 1.355 . S
C1787 C1789 1.415 . S
C1788 C1787 1.355 . S
C1788 C1790 1.419 . S
C1789 C1784 1.425 . S
C1789 C1786 1.409 . S
C1789 C1787 1.415 . S
C1790 H1780 0.930 . S
C1790 C1788 1.419 . S
C1790 C1791 1.362 . S
C1791 H1781 0.930 . S
C1791 C1784 1.409 . S
C1791 C1790 1.362 . S
H1792 C1798 0.930 . S
H1793 C1801 0.930 . S
H1794 C1802 0.930 . S
H1795 C1803 0.930 . S
H1796 C1806 0.930 . S
H1797 C1807 0.930 . S
C1798 H1792 0.930 . S
C1798 C1799 1.355 . S
C1798 C1800 1.415 . S
C1799 C1798 1.355 . S
C1799 C1801 1.419 . S
C1800 C1798 1.415 . S
C1800 C1805 1.425 . S
C1800 C1807 1.409 . S
C1801 H1793 0.930 . S
C1801 C1799 1.419 . S
C1801 C1802 1.362 . S
C1802 H1794 0.930 . S
C1802 C1801 1.362 . S
C1802 C1805 1.409 . S
C1803 H1795 0.930 . S
C1803 C1804 1.355 . S
C1803 C1805 1.415 . S
C1804 C1803 1.355 . S
C1804 C1806 1.419 . S
C1805 C1800 1.425 . S
C1805 C1802 1.409 . S
C1805 C1803 1.415 . S
C1806 H1796 0.930 . S
C1806 C1804 1.419 . S
C1806 C1807 1.362 . S
C1807 H1797 0.930 . S
C1807 C1800 1.409 . S
C1807 C1806 1.362 . S
H1808 C1814 0.930 . S
H1809 C1817 0.930 . S
H1810 C1818 0.930 . S
H1811 C1819 0.930 . S
H1812 C1822 0.930 . S
H1813 C1823 0.930 . S
C1814 H1808 0.930 . S
C1814 C1815 1.355 . S
C1814 C1816 1.415 . S
C1815 C1814 1.355 . S
C1815 C1817 1.419 . S
C1816 C1814 1.415 . S
C1816 C1821 1.425 . S
C1816 C1823 1.409 . S
C1817 H1809 0.930 . S
C1817 C1815 1.419 . S
C1817 C1818 1.362 . S
C1818 H1810 0.930 . S
C1818 C1817 1.362 . S
C1818 C1821 1.409 . S
C1819 H1811 0.930 . S
C1819 C1820 1.355 . S
C1819 C1821 1.415 . S
C1820 C1819 1.355 . S
C1820 C1822 1.419 . S
C1821 C1816 1.425 . S
C1821 C1818 1.409 . S
C1821 C1819 1.415 . S
C1822 H1812 0.930 . S
C1822 C1820 1.419 . S
C1822 C1823 1.362 . S
C1823 H1813 0.930 . S
C1823 C1816 1.409 . S
C1823 C1822 1.362 . S
H1824 C1830 0.930 . S
H1825 C1833 0.930 . S
H1826 C1834 0.930 . S
H1827 C1835 0.930 . S
H1828 C1838 0.930 . S
H1829 C1839 0.930 . S
C1830 H1824 0.930 . S
C1830 C1831 1.355 . S
C1830 C1832 1.415 . S
C1831 C1830 1.355 . S
C1831 C1833 1.419 . S
C1832 C1830 1.415 . S
C1832 C1837 1.425 . S
C1832 C1839 1.409 . S
C1833 H1825 0.930 . S
C1833 C1831 1.419 . S
C1833 C1834 1.362 . S
C1834 H1826 0.930 . S
C1834 C1833 1.362 . S
C1834 C1837 1.409 . S
C1835 H1827 0.930 . S
C1835 C1836 1.355 . S
C1835 C1837 1.415 . S
C1836 C1835 1.355 . S
C1836 C1838 1.419 . S
C1837 C1832 1.425 . S
C1837 C1834 1.409 . S
C1837 C1835 1.415 . S
C1838 H1828 0.930 . S
C1838 C1836 1.419 . S
C1838 C1839 1.362 . S
C1839 H1829 0.930 . S
C1839 C1832 1.409 . S
C1839 C1838 1.362 . S
H1840 C1846 0.930 . S
H1841 C1849 0.930 . S
H1842 C1850 0.930 . S
H1843 C1851 0.930 . S
H1844 C1854 0.930 . S
H1845 C1855 0.930 . S
C1846 H1840 0.930 . S
C1846 C1847 1.355 . S
C1846 C1848 1.415 . S
C1847 C1846 1.355 . S
C1847 C1849 1.419 . S
C1848 C1846 1.415 . S
C1848 C1853 1.425 . S
C1848 C1855 1.409 . S
C1849 H1841 0.930 . S
C1849 C1847 1.419 . S
C1849 C1850 1.362 . S
C1850 H1842 0.930 . S
C1850 C1849 1.362 . S
C1850 C1853 1.409 . S
C1851 H1843 0.930 . S
C1851 C1852 1.355 . S
C1851 C1853 1.415 . S
C1852 C1851 1.355 . S
C1852 C1854 1.419 . S
C1853 C1848 1.425 . S
C1853 C1850 1.409 . S
C1853 C1851 1.415 . S
C1854 H1844 0.930 . S
C1854 C1852 1.419 . S
C1854 C1855 1.362 . S
C1855 H1845 0.930 . S
C1855 C1848 1.409 . S
C1855 C1854 1.362 . S
H1856 C1862 0.930 . S
H1857 C1865 0.930 . S
H1858 C1866 0.930 . S
H1859 C1867 0.930 . S
H1860 C1870 0.930 . S
H1861 C1871 0.930 . S
C1862 H1856 0.930 . S
C1862 C1863 1.355 . S
C1862 C1864 1.415 . S
C1863 C1862 1.355 . S
C1863 C1865 1.419 . S
C1864 C1862 1.415 . S
C1864 C1869 1.425 . S
C1864 C1871 1.409 . S
C1865 H1857 0.930 . S
C1865 C1863 1.419 . S
C1865 C1866 1.362 . S
C1866 H1858 0.930 . S
C1866 C1865 1.362 . S
C1866 C1869 1.409 . S
C1867 H1859 0.930 . S
C1867 C1868 1.355 . S
C1867 C1869 1.415 . S
C1868 C1867 1.355 . S
C1868 C1870 1.419 . S
C1869 C1864 1.425 . S
C1869 C1866 1.409 . S
C1869 C1867 1.415 . S
C1870 H1860 0.930 . S
C1870 C1868 1.419 . S
C1870 C1871 1.362 . S
C1871 H1861 0.930 . S
C1871 C1864 1.409 . S
C1871 C1870 1.362 . S
H1872 C1878 0.930 . S
H1873 C1881 0.930 . S
H1874 C1882 0.930 . S
H1875 C1883 0.930 . S
H1876 C1886 0.930 . S
H1877 C1887 0.930 . S
C1878 H1872 0.930 . S
C1878 C1879 1.355 . S
C1878 C1880 1.415 . S
C1879 C1878 1.355 . S
C1879 C1881 1.419 . S
C1880 C1878 1.415 . S
C1880 C1885 1.425 . S
C1880 C1887 1.409 . S
C1881 H1873 0.930 . S
C1881 C1879 1.419 . S
C1881 C1882 1.362 . S
C1882 H1874 0.930 . S
C1882 C1881 1.362 . S
C1882 C1885 1.409 . S
C1883 H1875 0.930 . S
C1883 C1884 1.355 . S
C1883 C1885 1.415 . S
C1884 C1883 1.355 . S
C1884 C1886 1.419 . S
C1885 C1880 1.425 . S
C1885 C1882 1.409 . S
C1885 C1883 1.415 . S
C1886 H1876 0.930 . S
C1886 C1884 1.419 . S
C1886 C1887 1.362 . S
C1887 H1877 0.930 . S
C1887 C1880 1.409 . S
C1887 C1886 1.362 . S
H1888 C1894 0.930 . S
H1889 C1897 0.930 . S
H1890 C1898 0.930 . S
H1891 C1899 0.930 . S
H1892 C1902 0.930 . S
H1893 C1903 0.930 . S
C1894 H1888 0.930 . S
C1894 C1895 1.355 . S
C1894 C1896 1.415 . S
C1895 C1894 1.355 . S
C1895 C1897 1.419 . S
C1896 C1894 1.415 . S
C1896 C1901 1.425 . S
C1896 C1903 1.409 . S
C1897 H1889 0.930 . S
C1897 C1895 1.419 . S
C1897 C1898 1.362 . S
C1898 H1890 0.930 . S
C1898 C1897 1.362 . S
C1898 C1901 1.409 . S
C1899 H1891 0.930 . S
C1899 C1900 1.355 . S
C1899 C1901 1.415 . S
C1900 C1899 1.355 . S
C1900 C1902 1.419 . S
C1901 C1896 1.425 . S
C1901 C1898 1.409 . S
C1901 C1899 1.415 . S
C1902 H1892 0.930 . S
C1902 C1900 1.419 . S
C1902 C1903 1.362 . S
C1903 H1893 0.930 . S
C1903 C1896 1.409 . S
C1903 C1902 1.362 . S
H1904 C1910 0.930 . S
H1905 C1913 0.930 . S
H1906 C1914 0.930 . S
H1907 C1915 0.930 . S
H1908 C1918 0.930 . S
H1909 C1919 0.930 . S
C1910 H1904 0.930 . S
C1910 C1911 1.355 . S
C1910 C1912 1.415 . S
C1911 C1910 1.355 . S
C1911 C1913 1.419 . S
C1912 C1910 1.415 . S
C1912 C1917 1.425 . S
C1912 C1919 1.409 . S
C1913 H1905 0.930 . S
C1913 C1911 1.419 . S
C1913 C1914 1.362 . S
C1914 H1906 0.930 . S
C1914 C1913 1.362 . S
C1914 C1917 1.409 . S
C1915 H1907 0.930 . S
C1915 C1916 1.355 . S
C1915 C1917 1.415 . S
C1916 C1915 1.355 . S
C1916 C1918 1.419 . S
C1917 C1912 1.425 . S
C1917 C1914 1.409 . S
C1917 C1915 1.415 . S
C1918 H1908 0.930 . S
C1918 C1916 1.419 . S
C1918 C1919 1.362 . S
C1919 H1909 0.930 . S
C1919 C1912 1.409 . S
C1919 C1918 1.362 . S
H1920 C1926 0.930 . S
H1921 C1929 0.930 . S
H1922 C1930 0.930 . S
H1923 C1931 0.930 . S
H1924 C1934 0.930 . S
H1925 C1935 0.930 . S
C1926 H1920 0.930 . S
C1926 C1927 1.355 . S
C1926 C1928 1.415 . S
C1927 C1926 1.355 . S
C1927 C1929 1.419 . S
C1928 C1926 1.415 . S
C1928 C1933 1.425 . S
C1928 C1935 1.409 . S
C1929 H1921 0.930 . S
C1929 C1927 1.419 . S
C1929 C1930 1.362 . S
C1930 H1922 0.930 . S
C1930 C1929 1.362 . S
C1930 C1933 1.409 . S
C1931 H1923 0.930 . S
C1931 C1932 1.355 . S
C1931 C1933 1.415 . S
C1932 C1931 1.355 . S
C1932 C1934 1.419 . S
C1933 C1928 1.425 . S
C1933 C1930 1.409 . S
C1933 C1931 1.415 . S
C1934 H1924 0.930 . S
C1934 C1932 1.419 . S
C1934 C1935 1.362 . S
C1935 H1925 0.930 . S
C1935 C1928 1.409 . S
C1935 C1934 1.362 . S
H1936 C1942 0.930 . S
H1937 C1945 0.930 . S
H1938 C1946 0.930 . S
H1939 C1947 0.930 . S
H1940 C1950 0.930 . S
H1941 C1951 0.930 . S
C1942 H1936 0.930 . S
C1942 C1943 1.355 . S
C1942 C1944 1.415 . S
C1943 C1942 1.355 . S
C1943 C1945 1.419 . S
C1944 C1942 1.415 . S
C1944 C1949 1.425 . S
C1944 C1951 1.409 . S
C1945 H1937 0.930 . S
C1945 C1943 1.419 . S
C1945 C1946 1.362 . S
C1946 H1938 0.930 . S
C1946 C1945 1.362 . S
C1946 C1949 1.409 . S
C1947 H1939 0.930 . S
C1947 C1948 1.355 . S
C1947 C1949 1.415 . S
C1948 C1947 1.355 . S
C1948 C1950 1.419 . S
C1949 C1944 1.425 . S
C1949 C1946 1.409 . S
C1949 C1947 1.415 . S
C1950 H1940 0.930 . S
C1950 C1948 1.419 . S
C1950 C1951 1.362 . S
C1951 H1941 0.930 . S
C1951 C1944 1.409 . S
C1951 C1950 1.362 . S
H1952 C1958 0.930 . S
H1953 C1961 0.930 . S
H1954 C1962 0.930 . S
H1955 C1963 0.930 . S
H1956 C1966 0.930 . S
H1957 C1967 0.930 . S
C1958 H1952 0.930 . S
C1958 C1959 1.355 . S
C1958 C1960 1.415 . S
C1959 C1958 1.355 . S
C1959 C1961 1.419 . S
C1960 C1958 1.415 . S
C1960 C1965 1.425 . S
C1960 C1967 1.409 . S
C1961 H1953 0.930 . S
C1961 C1959 1.419 . S
C1961 C1962 1.362 . S
C1962 H1954 0.930 . S
C1962 C1961 1.362 . S
C1962 C1965 1.409 . S
C1963 H1955 0.930 . S
C1963 C1964 1.355 . S
C1963 C1965 1.415 . S
C1964 C1963 1.355 . S
C1964 C1966 1.419 . S
C1965 C1960 1.425 . S
C1965 C1962 1.409 . S
C1965 C1963 1.415 . S
C1966 H1956 0.930 . S
C1966 C1964 1.419 . S
C1966 C1967 1.362 . S
C1967 H1957 0.930 . S
C1967 C1960 1.409 . S
C1967 C1966 1.362 . S
H1968 C1974 0.914 1_455 S
H1969 C1977 0.930 . S
H1970 C1978 0.930 . S
H1971 C1979 0.914 1_655 S
H1972 C1982 0.930 . S
H1973 C1983 0.930 . S
C1974 H1968 0.914 1_655 S
C1974 C1975 1.379 . S
C1974 C1976 1.406 1_655 S
C1975 C1974 1.379 . S
C1975 C1977 1.419 . S
C1976 C1974 1.406 1_455 S
C1976 C1981 1.425 1_455 S
C1976 C1983 1.409 . S
C1977 H1969 0.930 . S
C1977 C1975 1.419 . S
C1977 C1978 1.362 . S
C1978 H1970 0.930 . S
C1978 C1977 1.362 . S
C1978 C1981 1.409 . S
C1979 H1971 0.914 1_455 S
C1979 C1980 1.379 . S
C1979 C1981 1.406 1_455 S
C1980 C1979 1.379 . S
C1980 C1982 1.419 . S
C1981 C1976 1.425 1_655 S
C1981 C1978 1.409 . S
C1981 C1979 1.406 1_655 S
C1982 H1972 0.930 . S
C1982 C1980 1.419 . S
C1982 C1983 1.362 . S
C1983 H1973 0.930 . S
C1983 C1976 1.409 . S
C1983 C1982 1.362 . S
H1984 C1990 0.930 . S
H1985 C1993 0.930 . S
H1986 C1994 0.930 . S
H1987 C1995 0.930 . S
H1988 C1998 0.930 . S
H1989 C1999 0.930 . S
C1990 H1984 0.930 . S
C1990 C1991 1.355 . S
C1990 C1992 1.389 1_545 S
C1991 C1990 1.355 . S
C1991 C1993 1.419 . S
C1992 C1990 1.389 1_565 S
C1992 C1997 1.420 1_565 S
C1992 C1999 1.441 . S
C1993 H1985 0.930 . S
C1993 C1991 1.419 . S
C1993 C1994 1.362 . S
C1994 H1986 0.930 . S
C1994 C1993 1.362 . S
C1994 C1997 1.441 . S
C1995 H1987 0.930 . S
C1995 C1996 1.355 . S
C1995 C1997 1.389 1_565 S
C1996 C1995 1.355 . S
C1996 C1998 1.419 . S
C1997 C1992 1.420 1_545 S
C1997 C1994 1.441 . S
C1997 C1995 1.389 1_545 S
C1998 H1988 0.930 . S
C1998 C1996 1.419 . S
C1998 C1999 1.362 . S
C1999 H1989 0.930 . S
C1999 C1992 1.441 . S
C1999 C1998 1.362 . S
H2000 C2006 0.930 . S
H2001 C2009 0.930 . S
H2002 C2010 0.930 . S
H2003 C2011 0.930 . S
H2004 C2014 0.930 . S
H2005 C2015 0.930 . S
C2006 H2000 0.930 . S
C2006 C2007 1.355 . S
C2006 C2008 1.415 . S
C2007 C2006 1.355 . S
C2007 C2009 1.419 1_655 S
C2008 C2006 1.415 . S
C2008 C2013 1.425 1_655 S
C2008 C2015 1.409 . S
C2009 H2001 0.930 . S
C2009 C2007 1.419 1_455 S
C2009 C2010 1.362 . S
C2010 H2002 0.930 . S
C2010 C2009 1.362 . S
C2010 C2013 1.409 . S
C2011 H2003 0.930 . S
C2011 C2012 1.355 . S
C2011 C2013 1.415 . S
C2012 C2011 1.355 . S
C2012 C2014 1.419 1_455 S
C2013 C2008 1.425 1_455 S
C2013 C2010 1.409 . S
C2013 C2011 1.415 . S
C2014 H2004 0.930 . S
C2014 C2012 1.419 1_655 S
C2014 C2015 1.362 . S
C2015 H2005 0.930 . S
C2015 C2008 1.409 . S
C2015 C2014 1.362 . S
H2016 C2022 0.930 . S
H2017 C2025 0.930 . S
H2018 C2026 0.930 . S
H2019 C2027 0.930 . S
H2020 C2030 0.930 . S
H2021 C2031 0.930 . S
C2022 H2016 0.930 . S
C2022 C2023 1.355 . S
C2022 C2024 1.415 . S
C2023 C2022 1.355 . S
C2023 C2025 1.419 . S
C2024 C2022 1.415 . S
C2024 C2029 1.425 1_565 S
C2024 C2031 1.409 . S
C2025 H2017 0.930 . S
C2025 C2023 1.419 . S
C2025 C2026 1.362 1_565 S
C2026 H2018 0.930 . S
C2026 C2025 1.362 1_545 S
C2026 C2029 1.409 . S
C2027 H2019 0.930 . S
C2027 C2028 1.355 . S
C2027 C2029 1.415 . S
C2028 C2027 1.355 . S
C2028 C2030 1.419 . S
C2029 C2024 1.425 1_545 S
C2029 C2026 1.409 . S
C2029 C2027 1.415 . S
C2030 H2020 0.930 . S
C2030 C2028 1.419 . S
C2030 C2031 1.362 1_545 S
C2031 H2021 0.930 . S
C2031 C2024 1.409 . S
C2031 C2030 1.362 1_565 S
H2032 C2038 0.894 1_565 S
H2033 C2041 0.930 . S
H2034 C2042 0.930 . S
H2035 C2043 0.894 1_545 S
H2036 C2046 0.930 . S
H2037 C2047 0.930 . S
C2038 H2032 0.894 1_545 S
C2038 C2039 1.413 . S
C2038 C2040 1.394 1_545 S
C2039 C2038 1.413 . S
C2039 C2041 1.419 . S
C2040 C2038 1.394 1_565 S
C2040 C2045 1.425 1_565 S
C2040 C2047 1.409 . S
C2041 H2033 0.930 . S
C2041 C2039 1.419 . S
C2041 C2042 1.362 . S
C2042 H2034 0.930 . S
C2042 C2041 1.362 . S
C2042 C2045 1.409 . S
C2043 H2035 0.894 1_565 S
C2043 C2044 1.413 . S
C2043 C2045 1.394 1_565 S
C2044 C2043 1.413 . S
C2044 C2046 1.419 . S
C2045 C2040 1.425 1_545 S
C2045 C2042 1.409 . S
C2045 C2043 1.394 1_545 S
C2046 H2036 0.930 . S
C2046 C2044 1.419 . S
C2046 C2047 1.362 . S
C2047 H2037 0.930 . S
C2047 C2040 1.409 . S
C2047 C2046 1.362 . S
H2048 C2054 0.930 1_655 S
H2049 C2057 0.930 . S
H2050 C2058 0.930 . S
H2051 C2059 0.930 1_455 S
H2052 C2062 0.930 . S
H2053 C2063 0.930 . S
C2054 H2048 0.930 1_455 S
C2054 C2055 1.355 . S
C2054 C2056 1.415 1_455 S
C2055 C2054 1.355 . S
C2055 C2057 1.419 . S
C2056 C2054 1.415 1_655 S
C2056 C2061 1.425 1_655 S
C2056 C2063 1.409 . S
C2057 H2049 0.930 . S
C2057 C2055 1.419 . S
C2057 C2058 1.362 . S
C2058 H2050 0.930 . S
C2058 C2057 1.362 . S
C2058 C2061 1.409 . S
C2059 H2051 0.930 1_655 S
C2059 C2060 1.355 . S
C2059 C2061 1.415 1_655 S
C2060 C2059 1.355 . S
C2060 C2062 1.419 . S
C2061 C2056 1.425 1_455 S
C2061 C2058 1.409 . S
C2061 C2059 1.415 1_455 S
C2062 H2052 0.930 . S
C2062 C2060 1.419 . S
C2062 C2063 1.362 . S
C2063 H2053 0.930 . S
C2063 C2056 1.409 . S
C2063 C2062 1.362 . S
H2064 C2070 0.930 1_565 S
H2065 C2073 0.930 . S
H2066 C2074 0.930 . S
H2067 C2075 0.930 1_545 S
H2068 C2078 0.930 . S
H2069 C2079 0.930 . S
C2070 H2064 0.930 1_545 S
C2070 C2071 1.355 . S
C2070 C2072 1.415 1_545 S
C2071 C2070 1.355 . S
C2071 C2073 1.419 . S
C2072 C2070 1.415 1_565 S
C2072 C2077 1.425 1_565 S
C2072 C2079 1.409 . S
C2073 H2065 0.930 . S
C2073 C2071 1.419 . S
C2073 C2074 1.362 . S
C2074 H2066 0.930 . S
C2074 C2073 1.362 . S
C2074 C2077 1.409 . S
C2075 H2067 0.930 1_565 S
C2075 C2076 1.355 . S
C2075 C2077 1.415 1_565 S
C2076 C2075 1.355 . S
C2076 C2078 1.419 . S
C2077 C2072 1.425 1_545 S
C2077 C2074 1.409 . S
C2077 C2075 1.415 1_545 S
C2078 H2068 0.930 . S
C2078 C2076 1.419 . S
C2078 C2079 1.362 . S
C2079 H2069 0.930 . S
C2079 C2072 1.409 . S
C2079 C2078 1.362 . S
H2080 C2086 0.930 . S
H2081 C2089 0.930 . S
H2082 C2090 0.930 . S
H2083 C2091 0.930 . S
H2084 C2094 0.930 . S
H2085 C2095 0.930 . S
C2086 H2080 0.930 . S
C2086 C2087 1.355 . S
C2086 C2088 1.415 . S
C2087 C2086 1.355 . S
C2087 C2089 1.419 1_655 S
C2088 C2086 1.415 . S
C2088 C2093 1.425 1_655 S
C2088 C2095 1.409 . S
C2089 H2081 0.930 . S
C2089 C2087 1.419 1_455 S
C2089 C2090 1.362 . S
C2090 H2082 0.930 . S
C2090 C2089 1.362 . S
C2090 C2093 1.409 . S
C2091 H2083 0.930 . S
C2091 C2092 1.355 . S
C2091 C2093 1.415 . S
C2092 C2091 1.355 . S
C2092 C2094 1.419 1_455 S
C2093 C2088 1.425 1_455 S
C2093 C2090 1.409 . S
C2093 C2091 1.415 . S
C2094 H2084 0.930 . S
C2094 C2092 1.419 1_655 S
C2094 C2095 1.362 . S
C2095 H2085 0.930 . S
C2095 C2088 1.409 . S
C2095 C2094 1.362 . S
H2096 C2102 0.930 . S
H2097 C2105 0.945 . S
H2098 C2106 0.930 . S
H2099 C2107 0.930 . S
H2100 C2110 0.945 . S
H2101 C2111 0.930 . S
C2102 H2096 0.930 . S
C2102 C2103 1.355 . S
C2102 C2104 1.415 . S
C2103 C2102 1.355 . S
C2103 C2105 1.372 1_556 S
C2104 C2102 1.415 . S
C2104 C2109 1.425 1_556 S
C2104 C2111 1.409 . S
C2105 H2097 0.945 . S
C2105 C2103 1.372 1_554 S
C2105 C2106 1.397 . S
C2106 H2098 0.930 . S
C2106 C2105 1.397 . S
C2106 C2109 1.409 . S
C2107 H2099 0.930 . S
C2107 C2108 1.355 . S
C2107 C2109 1.415 . S
C2108 C2107 1.355 . S
C2108 C2110 1.372 1_554 S
C2109 C2104 1.425 1_554 S
C2109 C2106 1.409 . S
C2109 C2107 1.415 . S
C2110 H2100 0.945 . S
C2110 C2108 1.372 1_556 S
C2110 C2111 1.397 . S
C2111 H2101 0.930 . S
C2111 C2104 1.409 . S
C2111 C2110 1.397 . S
H2112 C2118 0.930 1_554 S
H2113 C2121 0.930 . S
H2114 C2122 0.930 . S
H2115 C2123 0.930 1_556 S
H2116 C2126 0.930 . S
H2117 C2127 0.930 . S
C2118 H2112 0.930 1_556 S
C2118 C2119 1.355 . S
C2118 C2120 1.415 1_556 S
C2119 C2118 1.355 . S
C2119 C2121 1.419 . S
C2120 C2118 1.415 1_554 S
C2120 C2125 1.425 1_554 S
C2120 C2127 1.409 . S
C2121 H2113 0.930 . S
C2121 C2119 1.419 . S
C2121 C2122 1.362 . S
C2122 H2114 0.930 . S
C2122 C2121 1.362 . S
C2122 C2125 1.409 . S
C2123 H2115 0.930 1_554 S
C2123 C2124 1.355 . S
C2123 C2125 1.415 1_554 S
C2124 C2123 1.355 . S
C2124 C2126 1.419 . S
C2125 C2120 1.425 1_556 S
C2125 C2122 1.409 . S
C2125 C2123 1.415 1_556 S
C2126 H2116 0.930 . S
C2126 C2124 1.419 . S
C2126 C2127 1.362 . S
C2127 H2117 0.930 . S
C2127 C2120 1.409 . S
C2127 C2126 1.362 . S
H2128 C2134 0.930 . S
H2129 C2137 0.930 . S
H2130 C2138 0.930 . S
H2131 C2139 0.930 . S
H2132 C2142 0.930 . S
H2133 C2143 0.930 . S
C2134 H2128 0.930 . S
C2134 C2135 1.355 . S
C2134 C2136 1.415 . S
C2135 C2134 1.355 . S
C2135 C2137 1.419 1_556 S
C2136 C2134 1.415 . S
C2136 C2141 1.425 1_556 S
C2136 C2143 1.409 . S
C2137 H2129 0.930 . S
C2137 C2135 1.419 1_554 S
C2137 C2138 1.362 . S
C2138 H2130 0.930 . S
C2138 C2137 1.362 . S
C2138 C2141 1.409 . S
C2139 H2131 0.930 . S
C2139 C2140 1.355 . S
C2139 C2141 1.415 . S
C2140 C2139 1.355 . S
C2140 C2142 1.419 1_554 S
C2141 C2136 1.425 1_554 S
C2141 C2138 1.409 . S
C2141 C2139 1.415 . S
C2142 H2132 0.930 . S
C2142 C2140 1.419 1_556 S
C2142 C2143 1.362 . S
C2143 H2133 0.930 . S
C2143 C2136 1.409 . S
C2143 C2142 1.362 . S
H2144 C2150 0.930 . S
H2145 C2153 0.930 . S
H2146 C2154 0.930 . S
H2147 C2155 0.930 . S
H2148 C2158 0.930 . S
H2149 C2159 0.930 . S
C2150 H2144 0.930 . S
C2150 C2151 1.355 . S
C2150 C2152 1.415 . S
C2151 C2150 1.355 . S
C2151 C2153 1.419 . S
C2152 C2150 1.415 . S
C2152 C2157 1.425 1_556 S
C2152 C2159 1.409 1_556 S
C2153 H2145 0.930 . S
C2153 C2151 1.419 . S
C2153 C2154 1.362 . S
C2154 H2146 0.930 . S
C2154 C2153 1.362 . S
C2154 C2157 1.409 1_556 S
C2155 H2147 0.930 . S
C2155 C2156 1.355 . S
C2155 C2157 1.415 . S
C2156 C2155 1.355 . S
C2156 C2158 1.419 . S
C2157 C2152 1.425 1_554 S
C2157 C2154 1.409 1_554 S
C2157 C2155 1.415 . S
C2158 H2148 0.930 . S
C2158 C2156 1.419 . S
C2158 C2159 1.362 . S
C2159 H2149 0.930 . S
C2159 C2152 1.409 1_554 S
C2159 C2158 1.362 . S
H2160 C2166 0.930 . S
H2161 C2169 0.930 . S
H2162 C2170 0.930 . S
H2163 C2171 0.930 . S
H2164 C2174 0.930 . S
H2165 C2175 0.930 . S
C2166 H2160 0.930 . S
C2166 C2167 1.355 . S
C2166 C2168 1.415 . S
C2167 C2166 1.355 . S
C2167 C2169 1.419 . S
C2168 C2166 1.415 . S
C2168 C2173 1.425 1_545 S
C2168 C2175 1.409 1_545 S
C2169 H2161 0.930 . S
C2169 C2167 1.419 . S
C2169 C2170 1.362 . S
C2170 H2162 0.930 . S
C2170 C2169 1.362 . S
C2170 C2173 1.409 1_545 S
C2171 H2163 0.930 . S
C2171 C2172 1.355 . S
C2171 C2173 1.415 . S
C2172 C2171 1.355 . S
C2172 C2174 1.419 . S
C2173 C2168 1.425 1_565 S
C2173 C2170 1.409 1_565 S
C2173 C2171 1.415 . S
C2174 H2164 0.930 . S
C2174 C2172 1.419 . S
C2174 C2175 1.362 . S
C2175 H2165 0.930 . S
C2175 C2168 1.409 1_565 S
C2175 C2174 1.362 . S
H2176 C2182 0.930 . S
H2177 C2185 0.930 . S
H2178 C2186 0.930 . S
H2179 C2187 0.930 . S
H2180 C2190 0.930 . S
H2181 C2191 0.930 . S
C2182 H2176 0.930 . S
C2182 C2183 1.355 . S
C2182 C2184 1.415 . S
C2183 C2182 1.355 . S
C2183 C2185 1.419 . S
C2184 C2182 1.415 . S
C2184 C2189 1.425 1_655 S
C2184 C2191 1.409 . S
C2185 H2177 0.930 . S
C2185 C2183 1.419 . S
C2185 C2186 1.362 1_655 S
C2186 H2178 0.930 . S
C2186 C2185 1.362 1_455 S
C2186 C2189 1.409 . S
C2187 H2179 0.930 . S
C2187 C2188 1.355 . S
C2187 C2189 1.415 . S
C2188 C2187 1.355 . S
C2188 C2190 1.419 . S
C2189 C2184 1.425 1_455 S
C2189 C2186 1.409 . S
C2189 C2187 1.415 . S
C2190 H2180 0.930 . S
C2190 C2188 1.419 . S
C2190 C2191 1.362 1_455 S
C2191 H2181 0.930 . S
C2191 C2184 1.409 . S
C2191 C2190 1.362 1_655 S
H2192 C2198 0.930 . S
H2193 C2201 0.930 . S
H2194 C2202 0.930 . S
H2195 C2203 0.930 . S
H2196 C2206 0.930 . S
H2197 C2207 0.930 . S
C2198 H2192 0.930 . S
C2198 C2199 1.355 . S
C2198 C2200 1.415 1_565 S
C2199 C2198 1.355 . S
C2199 C2201 1.419 . S
C2200 C2198 1.415 1_545 S
C2200 C2205 1.425 1_545 S
C2200 C2207 1.409 . S
C2201 H2193 0.930 . S
C2201 C2199 1.419 . S
C2201 C2202 1.362 . S
C2202 H2194 0.930 . S
C2202 C2201 1.362 . S
C2202 C2205 1.409 . S
C2203 H2195 0.930 . S
C2203 C2204 1.355 . S
C2203 C2205 1.415 1_545 S
C2204 C2203 1.355 . S
C2204 C2206 1.419 . S
C2205 C2200 1.425 1_565 S
C2205 C2202 1.409 . S
C2205 C2203 1.415 1_565 S
C2206 H2196 0.930 . S
C2206 C2204 1.419 . S
C2206 C2207 1.362 . S
C2207 H2197 0.930 . S
C2207 C2200 1.409 . S
C2207 C2206 1.362 . S
H2208 C2214 0.930 . S
H2209 C2217 0.930 . S
H2210 C2218 0.930 . S
H2211 C2219 0.930 . S
H2212 C2222 0.930 . S
H2213 C2223 0.930 . S
C2214 H2208 0.930 . S
C2214 C2215 1.355 . S
C2214 C2216 1.390 1_455 S
C2215 C2214 1.355 . S
C2215 C2217 1.419 . S
C2216 C2214 1.390 1_655 S
C2216 C2221 1.423 1_655 S
C2216 C2223 1.435 . S
C2217 H2209 0.930 . S
C2217 C2215 1.419 . S
C2217 C2218 1.362 . S
C2218 H2210 0.930 . S
C2218 C2217 1.362 . S
C2218 C2221 1.435 . S
C2219 H2211 0.930 . S
C2219 C2220 1.355 . S
C2219 C2221 1.390 1_655 S
C2220 C2219 1.355 . S
C2220 C2222 1.419 . S
C2221 C2216 1.423 1_455 S
C2221 C2218 1.435 . S
C2221 C2219 1.390 1_455 S
C2222 H2212 0.930 . S
C2222 C2220 1.419 . S
C2222 C2223 1.362 . S
C2223 H2213 0.930 . S
C2223 C2216 1.435 . S
C2223 C2222 1.362 . S
H2224 C2230 0.930 . S
H2225 C2233 0.930 . S
H2226 C2234 0.930 . S
H2227 C2235 0.930 . S
H2228 C2238 0.930 . S
H2229 C2239 0.930 . S
C2230 H2224 0.930 . S
C2230 C2231 1.355 . S
C2230 C2232 1.442 . S
C2231 C2230 1.355 . S
C2231 C2233 1.419 . S
C2232 C2230 1.442 . S
C2232 C2237 1.423 1_556 S
C2232 C2239 1.384 1_556 S
C2233 H2225 0.930 . S
C2233 C2231 1.419 . S
C2233 C2234 1.362 . S
C2234 H2226 0.930 . S
C2234 C2233 1.362 . S
C2234 C2237 1.384 1_556 S
C2235 H2227 0.930 . S
C2235 C2236 1.355 . S
C2235 C2237 1.442 . S
C2236 C2235 1.355 . S
C2236 C2238 1.419 . S
C2237 C2232 1.423 1_554 S
C2237 C2234 1.384 1_554 S
C2237 C2235 1.442 . S
C2238 H2228 0.930 . S
C2238 C2236 1.419 . S
C2238 C2239 1.362 . S
C2239 H2229 0.930 . S
C2239 C2232 1.384 1_554 S
C2239 C2238 1.362 . S
H2240 C2246 0.930 . S
H2241 C2249 0.930 . S
H2242 C2250 0.930 . S
H2243 C2251 0.930 . S
H2244 C2254 0.930 . S
H2245 C2255 0.930 . S
C2246 H2240 0.930 . S
C2246 C2247 1.355 . S
C2246 C2248 1.415 1_556 S
C2247 C2246 1.355 . S
C2247 C2249 1.419 . S
C2248 C2246 1.415 1_554 S
C2248 C2253 1.425 1_554 S
C2248 C2255 1.409 . S
C2249 H2241 0.930 . S
C2249 C2247 1.419 . S
C2249 C2250 1.362 . S
C2250 H2242 0.930 . S
C2250 C2249 1.362 . S
C2250 C2253 1.409 . S
C2251 H2243 0.930 . S
C2251 C2252 1.355 . S
C2251 C2253 1.415 1_554 S
C2252 C2251 1.355 . S
C2252 C2254 1.419 . S
C2253 C2248 1.425 1_556 S
C2253 C2250 1.409 . S
C2253 C2251 1.415 1_556 S
C2254 H2244 0.930 . S
C2254 C2252 1.419 . S
C2254 C2255 1.362 . S
C2255 H2245 0.930 . S
C2255 C2248 1.409 . S
C2255 C2254 1.362 . S
H2256 C2262 0.930 . S
H2257 C2265 0.930 . S
H2258 C2266 0.930 . S
H2259 C2267 0.930 . S
H2260 C2270 0.930 . S
H2261 C2271 0.930 . S
C2262 H2256 0.930 . S
C2262 C2263 1.355 . S
C2262 C2264 1.415 . S
C2263 C2262 1.355 . S
C2263 C2265 1.419 . S
C2264 C2262 1.415 . S
C2264 C2269 1.425 1_554 S
C2264 C2271 1.409 . S
C2265 H2257 0.930 . S
C2265 C2263 1.419 . S
C2265 C2266 1.362 1_554 S
C2266 H2258 0.930 . S
C2266 C2265 1.362 1_556 S
C2266 C2269 1.409 . S
C2267 H2259 0.930 . S
C2267 C2268 1.355 . S
C2267 C2269 1.415 . S
C2268 C2267 1.355 . S
C2268 C2270 1.419 . S
C2269 C2264 1.425 1_556 S
C2269 C2266 1.409 . S
C2269 C2267 1.415 . S
C2270 H2260 0.930 . S
C2270 C2268 1.419 . S
C2270 C2271 1.362 1_556 S
C2271 H2261 0.930 . S
C2271 C2264 1.409 . S
C2271 C2270 1.362 1_554 S
H2272 C2278 0.930 . S
H2273 C2281 0.930 . S
H2274 C2282 0.930 . S
H2275 C2283 0.930 . S
H2276 C2286 0.930 . S
H2277 C2287 0.930 . S
C2278 H2272 0.930 . S
C2278 C2279 1.355 . S
C2278 C2280 1.415 . S
C2279 C2278 1.355 . S
C2279 C2281 1.419 . S
C2280 C2278 1.415 . S
C2280 C2285 1.425 1_554 S
C2280 C2287 1.409 . S
C2281 H2273 0.930 . S
C2281 C2279 1.419 . S
C2281 C2282 1.362 1_554 S
C2282 H2274 0.930 . S
C2282 C2281 1.362 1_556 S
C2282 C2285 1.409 . S
C2283 H2275 0.930 . S
C2283 C2284 1.355 . S
C2283 C2285 1.415 . S
C2284 C2283 1.355 . S
C2284 C2286 1.419 . S
C2285 C2280 1.425 1_556 S
C2285 C2282 1.409 . S
C2285 C2283 1.415 . S
C2286 H2276 0.930 . S
C2286 C2284 1.419 . S
C2286 C2287 1.362 1_556 S
C2287 H2277 0.930 . S
C2287 C2280 1.409 . S
C2287 C2286 1.362 1_554 S
H2288 C2294 0.930 . S
H2289 C2297 0.930 . S
H2290 C2298 0.930 . S
H2291 C2299 0.930 . S
H2292 C2302 0.930 . S
H2293 C2303 0.930 . S
C2294 H2288 0.930 . S
C2294 C2295 1.355 . S
C2294 C2296 1.415 . S
C2295 C2294 1.355 . S
C2295 C2297 1.419 . S
C2296 C2294 1.415 . S
C2296 C2301 1.425 1_655 S
C2296 C2303 1.409 . S
C2297 H2289 0.930 . S
C2297 C2295 1.419 . S
C2297 C2298 1.362 1_655 S
C2298 H2290 0.930 . S
C2298 C2297 1.362 1_455 S
C2298 C2301 1.409 . S
C2299 H2291 0.930 . S
C2299 C2300 1.355 . S
C2299 C2301 1.415 . S
C2300 C2299 1.355 . S
C2300 C2302 1.419 . S
C2301 C2296 1.425 1_455 S
C2301 C2298 1.409 . S
C2301 C2299 1.415 . S
C2302 H2292 0.930 . S
C2302 C2300 1.419 . S
C2302 C2303 1.362 1_455 S
C2303 H2293 0.930 . S
C2303 C2296 1.409 . S
C2303 C2302 1.362 1_655 S
H2304 C2310 0.930 . S
H2305 C2313 0.930 . S
H2306 C2314 0.930 1_655 S
H2307 C2315 0.930 . S
H2308 C2318 0.930 . S
H2309 C2319 0.930 1_455 S
C2310 H2304 0.930 . S
C2310 C2311 1.355 . S
C2310 C2312 1.415 . S
C2311 C2310 1.355 . S
C2311 C2313 1.419 . S
C2312 C2310 1.415 . S
C2312 C2317 1.425 1_455 S
C2312 C2319 1.409 1_455 S
C2313 H2305 0.930 . S
C2313 C2311 1.419 . S
C2313 C2314 1.362 . S
C2314 H2306 0.930 1_455 S
C2314 C2313 1.362 . S
C2314 C2317 1.409 1_455 S
C2315 H2307 0.930 . S
C2315 C2316 1.355 . S
C2315 C2317 1.415 . S
C2316 C2315 1.355 . S
C2316 C2318 1.419 . S
C2317 C2312 1.425 1_655 S
C2317 C2314 1.409 1_655 S
C2317 C2315 1.415 . S
C2318 H2308 0.930 . S
C2318 C2316 1.419 . S
C2318 C2319 1.362 . S
C2319 H2309 0.930 1_655 S
C2319 C2312 1.409 1_655 S
C2319 C2318 1.362 . S
H2320 C2326 0.930 . S
H2321 C2329 0.930 . S
H2322 C2330 0.930 . S
H2323 C2331 0.930 . S
H2324 C2334 0.930 . S
H2325 C2335 0.930 . S
C2326 H2320 0.930 . S
C2326 C2327 1.355 . S
C2326 C2328 1.415 . S
C2327 C2326 1.355 . S
C2327 C2329 1.419 . S
C2328 C2326 1.415 . S
C2328 C2333 1.425 1_545 S
C2328 C2335 1.409 1_545 S
C2329 H2321 0.930 . S
C2329 C2327 1.419 . S
C2329 C2330 1.362 . S
C2330 H2322 0.930 . S
C2330 C2329 1.362 . S
C2330 C2333 1.409 1_545 S
C2331 H2323 0.930 . S
C2331 C2332 1.355 . S
C2331 C2333 1.415 . S
C2332 C2331 1.355 . S
C2332 C2334 1.419 . S
C2333 C2328 1.425 1_565 S
C2333 C2330 1.409 1_565 S
C2333 C2331 1.415 . S
C2334 H2324 0.930 . S
C2334 C2332 1.419 . S
C2334 C2335 1.362 . S
C2335 H2325 0.930 . S
C2335 C2328 1.409 1_565 S
C2335 C2334 1.362 . S
H2336 C2342 0.930 . S
H2337 C2345 0.930 . S
H2338 C2346 0.930 . S
H2339 C2347 0.930 . S
H2340 C2350 0.930 . S
H2341 C2351 0.930 . S
C2342 H2336 0.930 . S
C2342 C2343 1.355 . S
C2342 C2344 1.415 . S
C2343 C2342 1.355 . S
C2343 C2345 1.419 . S
C2344 C2342 1.415 . S
C2344 C2349 1.425 1_565 S
C2344 C2351 1.409 1_565 S
C2345 H2337 0.930 . S
C2345 C2343 1.419 . S
C2345 C2346 1.362 . S
C2346 H2338 0.930 . S
C2346 C2345 1.362 . S
C2346 C2349 1.409 1_565 S
C2347 H2339 0.930 . S
C2347 C2348 1.355 . S
C2347 C2349 1.415 . S
C2348 C2347 1.355 . S
C2348 C2350 1.419 . S
C2349 C2344 1.425 1_545 S
C2349 C2346 1.409 1_545 S
C2349 C2347 1.415 . S
C2350 H2340 0.930 . S
C2350 C2348 1.419 . S
C2350 C2351 1.362 . S
C2351 H2341 0.930 . S
C2351 C2344 1.409 1_545 S
C2351 C2350 1.362 . S
H2352 C2358 0.930 . S
H2353 C2361 0.930 . S
H2354 C2362 0.930 . S
H2355 C2363 0.930 . S
H2356 C2366 0.930 . S
H2357 C2367 0.930 . S
C2358 H2352 0.930 . S
C2358 C2359 1.355 . S
C2358 C2360 1.415 . S
C2359 C2358 1.355 . S
C2359 C2361 1.419 . S
C2360 C2358 1.415 . S
C2360 C2365 1.425 . S
C2360 C2367 1.409 . S
C2361 H2353 0.930 . S
C2361 C2359 1.419 . S
C2361 C2362 1.362 . S
C2362 H2354 0.930 . S
C2362 C2361 1.362 . S
C2362 C2365 1.409 . S
C2363 H2355 0.930 . S
C2363 C2364 1.355 . S
C2363 C2365 1.415 . S
C2364 C2363 1.355 . S
C2364 C2366 1.419 . S
C2365 C2360 1.425 . S
C2365 C2362 1.409 . S
C2365 C2363 1.415 . S
C2366 H2356 0.930 . S
C2366 C2364 1.419 . S
C2366 C2367 1.362 . S
C2367 H2357 0.930 . S
C2367 C2360 1.409 . S
C2367 C2366 1.362 . S
H2368 C2374 0.930 . S
H2369 C2377 0.930 . S
H2370 C2378 0.930 . S
H2371 C2379 0.930 . S
H2372 C2382 0.930 . S
H2373 C2383 0.930 . S
C2374 H2368 0.930 . S
C2374 C2375 1.355 . S
C2374 C2376 1.415 . S
C2375 C2374 1.355 . S
C2375 C2377 1.419 . S
C2376 C2374 1.415 . S
C2376 C2381 1.425 . S
C2376 C2383 1.409 . S
C2377 H2369 0.930 . S
C2377 C2375 1.419 . S
C2377 C2378 1.362 . S
C2378 H2370 0.930 . S
C2378 C2377 1.362 . S
C2378 C2381 1.409 . S
C2379 H2371 0.930 . S
C2379 C2380 1.355 . S
C2379 C2381 1.415 . S
C2380 C2379 1.355 . S
C2380 C2382 1.419 . S
C2381 C2376 1.425 . S
C2381 C2378 1.409 . S
C2381 C2379 1.415 . S
C2382 H2372 0.930 . S
C2382 C2380 1.419 . S
C2382 C2383 1.362 . S
C2383 H2373 0.930 . S
C2383 C2376 1.409 . S
C2383 C2382 1.362 . S
H2384 C2390 0.930 . S
H2385 C2393 0.930 . S
H2386 C2394 0.930 . S
H2387 C2395 0.930 . S
H2388 C2398 0.930 . S
H2389 C2399 0.930 . S
C2390 H2384 0.930 . S
C2390 C2391 1.355 . S
C2390 C2392 1.415 . S
C2391 C2390 1.355 . S
C2391 C2393 1.419 . S
C2392 C2390 1.415 . S
C2392 C2397 1.425 . S
C2392 C2399 1.409 . S
C2393 H2385 0.930 . S
C2393 C2391 1.419 . S
C2393 C2394 1.362 . S
C2394 H2386 0.930 . S
C2394 C2393 1.362 . S
C2394 C2397 1.409 . S
C2395 H2387 0.930 . S
C2395 C2396 1.355 . S
C2395 C2397 1.415 . S
C2396 C2395 1.355 . S
C2396 C2398 1.419 . S
C2397 C2392 1.425 . S
C2397 C2394 1.409 . S
C2397 C2395 1.415 . S
C2398 H2388 0.930 . S
C2398 C2396 1.419 . S
C2398 C2399 1.362 . S
C2399 H2389 0.930 . S
C2399 C2392 1.409 . S
C2399 C2398 1.362 . S
H2400 C2406 0.930 . S
H2401 C2409 0.930 . S
H2402 C2410 0.930 . S
H2403 C2411 0.930 . S
H2404 C2414 0.930 . S
H2405 C2415 0.930 . S
C2406 H2400 0.930 . S
C2406 C2407 1.355 . S
C2406 C2408 1.415 . S
C2407 C2406 1.355 . S
C2407 C2409 1.419 . S
C2408 C2406 1.415 . S
C2408 C2413 1.425 . S
C2408 C2415 1.409 . S
C2409 H2401 0.930 . S
C2409 C2407 1.419 . S
C2409 C2410 1.362 . S
C2410 H2402 0.930 . S
C2410 C2409 1.362 . S
C2410 C2413 1.409 . S
C2411 H2403 0.930 . S
C2411 C2412 1.355 . S
C2411 C2413 1.415 . S
C2412 C2411 1.355 . S
C2412 C2414 1.419 . S
C2413 C2408 1.425 . S
C2413 C2410 1.409 . S
C2413 C2411 1.415 . S
C2414 H2404 0.930 . S
C2414 C2412 1.419 . S
C2414 C2415 1.362 . S
C2415 H2405 0.930 . S
C2415 C2408 1.409 . S
C2415 C2414 1.362 . S
H2416 C2422 0.930 . S
H2417 C2425 0.930 . S
H2418 C2426 0.930 . S
H2419 C2427 0.930 . S
H2420 C2430 0.930 . S
H2421 C2431 0.930 . S
C2422 H2416 0.930 . S
C2422 C2423 1.355 . S
C2422 C2424 1.415 . S
C2423 C2422 1.355 . S
C2423 C2425 1.419 . S
C2424 C2422 1.415 . S
C2424 C2429 1.425 . S
C2424 C2431 1.409 . S
C2425 H2417 0.930 . S
C2425 C2423 1.419 . S
C2425 C2426 1.362 . S
C2426 H2418 0.930 . S
C2426 C2425 1.362 . S
C2426 C2429 1.409 . S
C2427 H2419 0.930 . S
C2427 C2428 1.355 . S
C2427 C2429 1.415 . S
C2428 C2427 1.355 . S
C2428 C2430 1.419 . S
C2429 C2424 1.425 . S
C2429 C2426 1.409 . S
C2429 C2427 1.415 . S
C2430 H2420 0.930 . S
C2430 C2428 1.419 . S
C2430 C2431 1.362 . S
C2431 H2421 0.930 . S
C2431 C2424 1.409 . S
C2431 C2430 1.362 . S
H2432 C2438 0.930 . S
H2433 C2441 0.930 . S
H2434 C2442 0.930 . S
H2435 C2443 0.930 . S
H2436 C2446 0.930 . S
H2437 C2447 0.930 . S
C2438 H2432 0.930 . S
C2438 C2439 1.355 . S
C2438 C2440 1.415 . S
C2439 C2438 1.355 . S
C2439 C2441 1.419 . S
C2440 C2438 1.415 . S
C2440 C2445 1.425 . S
C2440 C2447 1.409 . S
C2441 H2433 0.930 . S
C2441 C2439 1.419 . S
C2441 C2442 1.362 . S
C2442 H2434 0.930 . S
C2442 C2441 1.362 . S
C2442 C2445 1.409 . S
C2443 H2435 0.930 . S
C2443 C2444 1.355 . S
C2443 C2445 1.415 . S
C2444 C2443 1.355 . S
C2444 C2446 1.419 . S
C2445 C2440 1.425 . S
C2445 C2442 1.409 . S
C2445 C2443 1.415 . S
C2446 H2436 0.930 . S
C2446 C2444 1.419 . S
C2446 C2447 1.362 . S
C2447 H2437 0.930 . S
C2447 C2440 1.409 . S
C2447 C2446 1.362 . S
H2448 C2454 0.930 . S
H2449 C2457 0.930 . S
H2450 C2458 0.930 . S
H2451 C2459 0.930 . S
H2452 C2462 0.930 . S
H2453 C2463 0.930 . S
C2454 H2448 0.930 . S
C2454 C2455 1.355 . S
C2454 C2456 1.415 . S
C2455 C2454 1.355 . S
C2455 C2457 1.419 . S
C2456 C2454 1.415 . S
C2456 C2461 1.425 . S
C2456 C2463 1.409 . S
C2457 H2449 0.930 . S
C2457 C2455 1.419 . S
C2457 C2458 1.362 . S
C2458 H2450 0.930 . S
C2458 C2457 1.362 . S
C2458 C2461 1.409 . S
C2459 H2451 0.930 . S
C2459 C2460 1.355 . S
C2459 C2461 1.415 . S
C2460 C2459 1.355 . S
C2460 C2462 1.419 . S
C2461 C2456 1.425 . S
C2461 C2458 1.409 . S
C2461 C2459 1.415 . S
C2462 H2452 0.930 . S
C2462 C2460 1.419 . S
C2462 C2463 1.362 . S
C2463 H2453 0.930 . S
C2463 C2456 1.409 . S
C2463 C2462 1.362 . S
H2464 C2470 0.930 . S
H2465 C2473 0.930 . S
H2466 C2474 0.930 . S
H2467 C2475 0.930 . S
H2468 C2478 0.930 . S
H2469 C2479 0.930 . S
C2470 H2464 0.930 . S
C2470 C2471 1.355 . S
C2470 C2472 1.415 . S
C2471 C2470 1.355 . S
C2471 C2473 1.419 . S
C2472 C2470 1.415 . S
C2472 C2477 1.425 . S
C2472 C2479 1.409 . S
C2473 H2465 0.930 . S
C2473 C2471 1.419 . S
C2473 C2474 1.362 . S
C2474 H2466 0.930 . S
C2474 C2473 1.362 . S
C2474 C2477 1.409 . S
C2475 H2467 0.930 . S
C2475 C2476 1.355 . S
C2475 C2477 1.415 . S
C2476 C2475 1.355 . S
C2476 C2478 1.419 . S
C2477 C2472 1.425 . S
C2477 C2474 1.409 . S
C2477 C2475 1.415 . S
C2478 H2468 0.930 . S
C2478 C2476 1.419 . S
C2478 C2479 1.362 . S
C2479 H2469 0.930 . S
C2479 C2472 1.409 . S
C2479 C2478 1.362 . S
H2480 C2486 0.930 . S
H2481 C2489 0.930 . S
H2482 C2490 0.930 . S
H2483 C2491 0.930 . S
H2484 C2494 0.930 . S
H2485 C2495 0.930 . S
C2486 H2480 0.930 . S
C2486 C2487 1.355 . S
C2486 C2488 1.415 . S
C2487 C2486 1.355 . S
C2487 C2489 1.419 . S
C2488 C2486 1.415 . S
C2488 C2493 1.425 . S
C2488 C2495 1.409 . S
C2489 H2481 0.930 . S
C2489 C2487 1.419 . S
C2489 C2490 1.362 . S
C2490 H2482 0.930 . S
C2490 C2489 1.362 . S
C2490 C2493 1.409 . S
C2491 H2483 0.930 . S
C2491 C2492 1.355 . S
C2491 C2493 1.415 . S
C2492 C2491 1.355 . S
C2492 C2494 1.419 . S
C2493 C2488 1.425 . S
C2493 C2490 1.409 . S
C2493 C2491 1.415 . S
C2494 H2484 0.930 . S
C2494 C2492 1.419 . S
C2494 C2495 1.362 . S
C2495 H2485 0.930 . S
C2495 C2488 1.409 . S
C2495 C2494 1.362 . S
H2496 C2502 0.930 . S
H2497 C2505 0.930 . S
H2498 C2506 0.930 . S
H2499 C2507 0.930 . S
H2500 C2510 0.930 . S
H2501 C2511 0.930 . S
C2502 H2496 0.930 . S
C2502 C2503 1.355 . S
C2502 C2504 1.415 . S
C2503 C2502 1.355 . S
C2503 C2505 1.419 . S
C2504 C2502 1.415 . S
C2504 C2509 1.425 . S
C2504 C2511 1.409 . S
C2505 H2497 0.930 . S
C2505 C2503 1.419 . S
C2505 C2506 1.362 . S
C2506 H2498 0.930 . S
C2506 C2505 1.362 . S
C2506 C2509 1.409 . S
C2507 H2499 0.930 . S
C2507 C2508 1.355 . S
C2507 C2509 1.415 . S
C2508 C2507 1.355 . S
C2508 C2510 1.419 . S
C2509 C2504 1.425 . S
C2509 C2506 1.409 . S
C2509 C2507 1.415 . S
C2510 H2500 0.930 . S
C2510 C2508 1.419 . S
C2510 C2511 1.362 . S
C2511 H2501 0.930 . S
C2511 C2504 1.409 . S
C2511 C2510 1.362 . S
H2512 C2518 0.930 . S
H2513 C2521 0.930 . S
H2514 C2522 0.930 . S
H2515 C2523 0.930 . S
H2516 C2526 0.930 . S
H2517 C2527 0.930 . S
C2518 H2512 0.930 . S
C2518 C2519 1.355 . S
C2518 C2520 1.415 . S
C2519 C2518 1.355 . S
C2519 C2521 1.419 . S
C2520 C2518 1.415 . S
C2520 C2525 1.425 . S
C2520 C2527 1.409 . S
C2521 H2513 0.930 . S
C2521 C2519 1.419 . S
C2521 C2522 1.362 . S
C2522 H2514 0.930 . S
C2522 C2521 1.362 . S
C2522 C2525 1.409 . S
C2523 H2515 0.930 . S
C2523 C2524 1.355 . S
C2523 C2525 1.415 . S
C2524 C2523 1.355 . S
C2524 C2526 1.419 . S
C2525 C2520 1.425 . S
C2525 C2522 1.409 . S
C2525 C2523 1.415 . S
C2526 H2516 0.930 . S
C2526 C2524 1.419 . S
C2526 C2527 1.362 . S
C2527 H2517 0.930 . S
C2527 C2520 1.409 . S
C2527 C2526 1.362 . S
H2528 C2534 0.930 . S
H2529 C2537 0.930 . S
H2530 C2538 0.930 . S
H2531 C2539 0.930 . S
H2532 C2542 0.930 . S
H2533 C2543 0.930 . S
C2534 H2528 0.930 . S
C2534 C2535 1.355 . S
C2534 C2536 1.415 . S
C2535 C2534 1.355 . S
C2535 C2537 1.419 . S
C2536 C2534 1.415 . S
C2536 C2541 1.425 . S
C2536 C2543 1.409 . S
C2537 H2529 0.930 . S
C2537 C2535 1.419 . S
C2537 C2538 1.362 . S
C2538 H2530 0.930 . S
C2538 C2537 1.362 . S
C2538 C2541 1.409 . S
C2539 H2531 0.930 . S
C2539 C2540 1.355 . S
C2539 C2541 1.415 . S
C2540 C2539 1.355 . S
C2540 C2542 1.419 . S
C2541 C2536 1.425 . S
C2541 C2538 1.409 . S
C2541 C2539 1.415 . S
C2542 H2532 0.930 . S
C2542 C2540 1.419 . S
C2542 C2543 1.362 . S
C2543 H2533 0.930 . S
C2543 C2536 1.409 . S
C2543 C2542 1.362 . S
H2544 C2550 0.930 . S
H2545 C2553 0.930 . S
H2546 C2554 0.905 1_545 S
H2547 C2555 0.930 . S
H2548 C2558 0.930 . S
H2549 C2559 0.905 1_565 S
C2550 H2544 0.930 . S
C2550 C2551 1.355 . S
C2550 C2552 1.415 . S
C2551 C2550 1.355 . S
C2551 C2553 1.419 . S
C2552 C2550 1.415 . S
C2552 C2557 1.425 1_565 S
C2552 C2559 1.395 1_565 S
C2553 H2545 0.930 . S
C2553 C2551 1.419 . S
C2553 C2554 1.403 . S
C2554 H2546 0.905 1_565 S
C2554 C2553 1.403 . S
C2554 C2557 1.395 1_565 S
C2555 H2547 0.930 . S
C2555 C2556 1.355 . S
C2555 C2557 1.415 . S
C2556 C2555 1.355 . S
C2556 C2558 1.419 . S
C2557 C2552 1.425 1_545 S
C2557 C2554 1.395 1_545 S
C2557 C2555 1.415 . S
C2558 H2548 0.930 . S
C2558 C2556 1.419 . S
C2558 C2559 1.403 . S
C2559 H2549 0.905 1_545 S
C2559 C2552 1.395 1_545 S
C2559 C2558 1.403 . S
H2560 C2566 0.930 . S
H2561 C2569 0.930 . S
H2562 C2570 0.929 1_455 S
H2563 C2571 0.930 . S
H2564 C2574 0.930 . S
H2565 C2575 0.929 1_655 S
C2566 H2560 0.930 . S
C2566 C2567 1.355 . S
C2566 C2568 1.415 . S
C2567 C2566 1.355 . S
C2567 C2569 1.419 . S
C2568 C2566 1.415 . S
C2568 C2573 1.425 1_655 S
C2568 C2575 1.409 1_655 S
C2569 H2561 0.930 . S
C2569 C2567 1.419 . S
C2569 C2570 1.364 . S
C2570 H2562 0.929 1_655 S
C2570 C2569 1.364 . S
C2570 C2573 1.409 1_655 S
C2571 H2563 0.930 . S
C2571 C2572 1.355 . S
C2571 C2573 1.415 . S
C2572 C2571 1.355 . S
C2572 C2574 1.419 . S
C2573 C2568 1.425 1_455 S
C2573 C2570 1.409 1_455 S
C2573 C2571 1.415 . S
C2574 H2564 0.930 . S
C2574 C2572 1.419 . S
C2574 C2575 1.364 . S
C2575 H2565 0.929 1_455 S
C2575 C2568 1.409 1_455 S
C2575 C2574 1.364 . S
H2576 C2582 0.930 . S
H2577 C2585 0.930 . S
H2578 C2586 0.945 . S
H2579 C2587 0.930 . S
H2580 C2590 0.930 . S
H2581 C2591 0.945 . S
C2582 H2576 0.930 . S
C2582 C2583 1.355 . S
C2582 C2584 1.415 . S
C2583 C2582 1.355 . S
C2583 C2585 1.419 . S
C2584 C2582 1.415 . S
C2584 C2589 1.425 1_565 S
C2584 C2591 1.409 1_565 S
C2585 H2577 0.930 . S
C2585 C2583 1.419 . S
C2585 C2586 1.362 . S
C2586 H2578 0.945 . S
C2586 C2585 1.362 . S
C2586 C2589 1.409 1_565 S
C2587 H2579 0.930 . S
C2587 C2588 1.355 . S
C2587 C2589 1.415 . S
C2588 C2587 1.355 . S
C2588 C2590 1.419 . S
C2589 C2584 1.425 1_545 S
C2589 C2586 1.409 1_545 S
C2589 C2587 1.415 . S
C2590 H2580 0.930 . S
C2590 C2588 1.419 . S
C2590 C2591 1.362 . S
C2591 H2581 0.945 . S
C2591 C2584 1.409 1_545 S
C2591 C2590 1.362 . S
H2592 C2598 0.930 . S
H2593 C2601 0.930 . S
H2594 C2602 0.930 . S
H2595 C2603 0.930 . S
H2596 C2606 0.930 . S
H2597 C2607 0.930 . S
C2598 H2592 0.930 . S
C2598 C2599 1.355 . S
C2598 C2600 1.411 1_655 S
C2599 C2598 1.355 . S
C2599 C2601 1.419 . S
C2600 C2598 1.411 1_455 S
C2600 C2605 1.425 1_455 S
C2600 C2607 1.413 . S
C2601 H2593 0.930 . S
C2601 C2599 1.419 . S
C2601 C2602 1.362 . S
C2602 H2594 0.930 . S
C2602 C2601 1.362 . S
C2602 C2605 1.413 . S
C2603 H2595 0.930 . S
C2603 C2604 1.355 . S
C2603 C2605 1.411 1_455 S
C2604 C2603 1.355 . S
C2604 C2606 1.419 . S
C2605 C2600 1.425 1_655 S
C2605 C2602 1.413 . S
C2605 C2603 1.411 1_655 S
C2606 H2596 0.930 . S
C2606 C2604 1.419 . S
C2606 C2607 1.362 . S
C2607 H2597 0.930 . S
C2607 C2600 1.413 . S
C2607 C2606 1.362 . S
H2608 C2614 0.930 . S
H2609 C2617 0.930 . S
H2610 C2618 0.930 1_545 S
H2611 C2619 0.930 . S
H2612 C2622 0.930 . S
H2613 C2623 0.930 1_565 S
C2614 H2608 0.930 . S
C2614 C2615 1.355 . S
C2614 C2616 1.415 . S
C2615 C2614 1.355 . S
C2615 C2617 1.419 . S
C2616 C2614 1.415 . S
C2616 C2621 1.425 1_565 S
C2616 C2623 1.409 1_565 S
C2617 H2609 0.930 . S
C2617 C2615 1.419 . S
C2617 C2618 1.362 . S
C2618 H2610 0.930 1_565 S
C2618 C2617 1.362 . S
C2618 C2621 1.409 1_565 S
C2619 H2611 0.930 . S
C2619 C2620 1.355 . S
C2619 C2621 1.415 . S
C2620 C2619 1.355 . S
C2620 C2622 1.419 . S
C2621 C2616 1.425 1_545 S
C2621 C2618 1.409 1_545 S
C2621 C2619 1.415 . S
C2622 H2612 0.930 . S
C2622 C2620 1.419 . S
C2622 C2623 1.362 . S
C2623 H2613 0.930 1_545 S
C2623 C2616 1.409 1_545 S
C2623 C2622 1.362 . S
H2624 C2630 0.930 . S
H2625 C2633 0.930 . S
H2626 C2634 0.930 . S
H2627 C2635 0.930 . S
H2628 C2638 0.930 . S
H2629 C2639 0.930 . S
C2630 H2624 0.930 . S
C2630 C2631 1.355 . S
C2630 C2632 1.415 . S
C2631 C2630 1.355 . S
C2631 C2633 1.419 . S
C2632 C2630 1.415 . S
C2632 C2637 1.425 1_455 S
C2632 C2639 1.409 1_455 S
C2633 H2625 0.930 . S
C2633 C2631 1.419 . S
C2633 C2634 1.362 . S
C2634 H2626 0.930 . S
C2634 C2633 1.362 . S
C2634 C2637 1.409 1_455 S
C2635 H2627 0.930 . S
C2635 C2636 1.355 . S
C2635 C2637 1.415 . S
C2636 C2635 1.355 . S
C2636 C2638 1.419 . S
C2637 C2632 1.425 1_655 S
C2637 C2634 1.409 1_655 S
C2637 C2635 1.415 . S
C2638 H2628 0.930 . S
C2638 C2636 1.419 . S
C2638 C2639 1.362 . S
C2639 H2629 0.930 . S
C2639 C2632 1.409 1_655 S
C2639 C2638 1.362 . S
H2640 C2646 0.930 . S
H2641 C2649 0.930 . S
H2642 C2650 0.930 1_565 S
H2643 C2651 0.930 . S
H2644 C2654 0.930 . S
H2645 C2655 0.930 1_545 S
C2646 H2640 0.930 . S
C2646 C2647 1.355 . S
C2646 C2648 1.415 . S
C2647 C2646 1.355 . S
C2647 C2649 1.419 . S
C2648 C2646 1.415 . S
C2648 C2653 1.425 1_545 S
C2648 C2655 1.409 1_545 S
C2649 H2641 0.930 . S
C2649 C2647 1.419 . S
C2649 C2650 1.362 . S
C2650 H2642 0.930 1_545 S
C2650 C2649 1.362 . S
C2650 C2653 1.409 1_545 S
C2651 H2643 0.930 . S
C2651 C2652 1.355 . S
C2651 C2653 1.415 . S
C2652 C2651 1.355 . S
C2652 C2654 1.419 . S
C2653 C2648 1.425 1_565 S
C2653 C2650 1.409 1_565 S
C2653 C2651 1.415 . S
C2654 H2644 0.930 . S
C2654 C2652 1.419 . S
C2654 C2655 1.362 . S
C2655 H2645 0.930 1_565 S
C2655 C2648 1.409 1_565 S
C2655 C2654 1.362 . S
H2656 C2662 0.930 . S
H2657 C2665 0.930 . S
H2658 C2666 0.930 1_655 S
H2659 C2667 0.930 . S
H2660 C2670 0.930 . S
H2661 C2671 0.930 1_455 S
C2662 H2656 0.930 . S
C2662 C2663 1.355 . S
C2662 C2664 1.415 . S
C2663 C2662 1.355 . S
C2663 C2665 1.419 . S
C2664 C2662 1.415 . S
C2664 C2669 1.425 1_455 S
C2664 C2671 1.409 1_455 S
C2665 H2657 0.930 . S
C2665 C2663 1.419 . S
C2665 C2666 1.362 . S
C2666 H2658 0.930 1_455 S
C2666 C2665 1.362 . S
C2666 C2669 1.409 1_455 S
C2667 H2659 0.930 . S
C2667 C2668 1.355 . S
C2667 C2669 1.415 . S
C2668 C2667 1.355 . S
C2668 C2670 1.419 . S
C2669 C2664 1.425 1_655 S
C2669 C2666 1.409 1_655 S
C2669 C2667 1.415 . S
C2670 H2660 0.930 . S
C2670 C2668 1.419 . S
C2670 C2671 1.362 . S
C2671 H2661 0.930 1_655 S
C2671 C2664 1.409 1_655 S
C2671 C2670 1.362 . S
H2672 C2678 0.930 . S
H2673 C2681 0.930 . S
H2674 C2682 0.930 1_554 S
H2675 C2683 0.930 . S
H2676 C2686 0.930 . S
H2677 C2687 0.930 1_556 S
C2678 H2672 0.930 . S
C2678 C2679 1.355 . S
C2678 C2680 1.415 . S
C2679 C2678 1.355 . S
C2679 C2681 1.419 . S
C2680 C2678 1.415 . S
C2680 C2685 1.425 1_556 S
C2680 C2687 1.409 1_556 S
C2681 H2673 0.930 . S
C2681 C2679 1.419 . S
C2681 C2682 1.362 . S
C2682 H2674 0.930 1_556 S
C2682 C2681 1.362 . S
C2682 C2685 1.409 1_556 S
C2683 H2675 0.930 . S
C2683 C2684 1.355 . S
C2683 C2685 1.415 . S
C2684 C2683 1.355 . S
C2684 C2686 1.419 . S
C2685 C2680 1.425 1_554 S
C2685 C2682 1.409 1_554 S
C2685 C2683 1.415 . S
C2686 H2676 0.930 . S
C2686 C2684 1.419 . S
C2686 C2687 1.362 . S
C2687 H2677 0.930 1_554 S
C2687 C2680 1.409 1_554 S
C2687 C2686 1.362 . S
H2688 C2694 0.930 . S
H2689 C2697 0.930 . S
H2690 C2698 0.930 1_554 S
H2691 C2699 0.930 . S
H2692 C2702 0.930 . S
H2693 C2703 0.930 1_556 S
C2694 H2688 0.930 . S
C2694 C2695 1.355 . S
C2694 C2696 1.415 . S
C2695 C2694 1.355 . S
C2695 C2697 1.419 . S
C2696 C2694 1.415 . S
C2696 C2701 1.425 1_556 S
C2696 C2703 1.409 1_556 S
C2697 H2689 0.930 . S
C2697 C2695 1.419 . S
C2697 C2698 1.362 . S
C2698 H2690 0.930 1_556 S
C2698 C2697 1.362 . S
C2698 C2701 1.409 1_556 S
C2699 H2691 0.930 . S
C2699 C2700 1.355 . S
C2699 C2701 1.415 . S
C2700 C2699 1.355 . S
C2700 C2702 1.419 . S
C2701 C2696 1.425 1_554 S
C2701 C2698 1.409 1_554 S
C2701 C2699 1.415 . S
C2702 H2692 0.930 . S
C2702 C2700 1.419 . S
C2702 C2703 1.362 . S
C2703 H2693 0.930 1_554 S
C2703 C2696 1.409 1_554 S
C2703 C2702 1.362 . S
H2704 C2710 0.930 . S
H2705 C2713 0.930 . S
H2706 C2714 0.930 1_556 S
H2707 C2715 0.930 . S
H2708 C2718 0.930 . S
H2709 C2719 0.930 1_554 S
C2710 H2704 0.930 . S
C2710 C2711 1.355 . S
C2710 C2712 1.415 . S
C2711 C2710 1.355 . S
C2711 C2713 1.419 . S
C2712 C2710 1.415 . S
C2712 C2717 1.425 1_554 S
C2712 C2719 1.409 1_554 S
C2713 H2705 0.930 . S
C2713 C2711 1.419 . S
C2713 C2714 1.362 . S
C2714 H2706 0.930 1_554 S
C2714 C2713 1.362 . S
C2714 C2717 1.409 1_554 S
C2715 H2707 0.930 . S
C2715 C2716 1.355 . S
C2715 C2717 1.415 . S
C2716 C2715 1.355 . S
C2716 C2718 1.419 . S
C2717 C2712 1.425 1_556 S
C2717 C2714 1.409 1_556 S
C2717 C2715 1.415 . S
C2718 H2708 0.930 . S
C2718 C2716 1.419 . S
C2718 C2719 1.362 . S
C2719 H2709 0.930 1_556 S
C2719 C2712 1.409 1_556 S
C2719 C2718 1.362 . S
H2720 C2726 0.930 . S
H2721 C2729 0.930 . S
H2722 C2730 0.922 1_556 S
H2723 C2731 0.930 . S
H2724 C2734 0.930 . S
H2725 C2735 0.922 1_554 S
C2726 H2720 0.930 . S
C2726 C2727 1.355 . S
C2726 C2728 1.415 . S
C2727 C2726 1.355 . S
C2727 C2729 1.419 . S
C2728 C2726 1.415 . S
C2728 C2733 1.425 1_554 S
C2728 C2735 1.405 1_554 S
C2729 H2721 0.930 . S
C2729 C2727 1.419 . S
C2729 C2730 1.375 . S
C2730 H2722 0.922 1_554 S
C2730 C2729 1.375 . S
C2730 C2733 1.405 1_554 S
C2731 H2723 0.930 . S
C2731 C2732 1.355 . S
C2731 C2733 1.415 . S
C2732 C2731 1.355 . S
C2732 C2734 1.419 . S
C2733 C2728 1.425 1_556 S
C2733 C2730 1.405 1_556 S
C2733 C2731 1.415 . S
C2734 H2724 0.930 . S
C2734 C2732 1.419 . S
C2734 C2735 1.375 . S
C2735 H2725 0.922 1_556 S
C2735 C2728 1.405 1_556 S
C2735 C2734 1.375 . S
H2736 C2742 0.930 . S
H2737 C2745 0.930 . S
H2738 C2746 0.930 . S
H2739 C2747 0.930 . S
H2740 C2750 0.930 . S
H2741 C2751 0.930 . S
C2742 H2736 0.930 . S
C2742 C2743 1.355 . S
C2742 C2744 1.415 . S
C2743 C2742 1.355 . S
C2743 C2745 1.419 . S
C2744 C2742 1.415 . S
C2744 C2749 1.425 . S
C2744 C2751 1.409 . S
C2745 H2737 0.930 . S
C2745 C2743 1.419 . S
C2745 C2746 1.362 . S
C2746 H2738 0.930 . S
C2746 C2745 1.362 . S
C2746 C2749 1.409 . S
C2747 H2739 0.930 . S
C2747 C2748 1.355 . S
C2747 C2749 1.415 . S
C2748 C2747 1.355 . S
C2748 C2750 1.419 . S
C2749 C2744 1.425 . S
C2749 C2746 1.409 . S
C2749 C2747 1.415 . S
C2750 H2740 0.930 . S
C2750 C2748 1.419 . S
C2750 C2751 1.362 . S
C2751 H2741 0.930 . S
C2751 C2744 1.409 . S
C2751 C2750 1.362 . S
H2752 C2758 0.930 . S
H2753 C2761 0.930 . S
H2754 C2762 0.930 . S
H2755 C2763 0.930 . S
H2756 C2766 0.930 . S
H2757 C2767 0.930 . S
C2758 H2752 0.930 . S
C2758 C2759 1.355 . S
C2758 C2760 1.415 . S
C2759 C2758 1.355 . S
C2759 C2761 1.419 . S
C2760 C2758 1.415 . S
C2760 C2765 1.425 . S
C2760 C2767 1.409 . S
C2761 H2753 0.930 . S
C2761 C2759 1.419 . S
C2761 C2762 1.362 . S
C2762 H2754 0.930 . S
C2762 C2761 1.362 . S
C2762 C2765 1.409 . S
C2763 H2755 0.930 . S
C2763 C2764 1.355 . S
C2763 C2765 1.415 . S
C2764 C2763 1.355 . S
C2764 C2766 1.419 . S
C2765 C2760 1.425 . S
C2765 C2762 1.409 . S
C2765 C2763 1.415 . S
C2766 H2756 0.930 . S
C2766 C2764 1.419 . S
C2766 C2767 1.362 . S
C2767 H2757 0.930 . S
C2767 C2760 1.409 . S
C2767 C2766 1.362 . S
H2768 C2774 0.930 . S
H2769 C2777 0.930 . S
H2770 C2778 0.930 . S
H2771 C2779 0.930 . S
H2772 C2782 0.930 . S
H2773 C2783 0.930 . S
C2774 H2768 0.930 . S
C2774 C2775 1.355 . S
C2774 C2776 1.415 . S
C2775 C2774 1.355 . S
C2775 C2777 1.419 . S
C2776 C2774 1.415 . S
C2776 C2781 1.425 . S
C2776 C2783 1.409 . S
C2777 H2769 0.930 . S
C2777 C2775 1.419 . S
C2777 C2778 1.362 . S
C2778 H2770 0.930 . S
C2778 C2777 1.362 . S
C2778 C2781 1.409 . S
C2779 H2771 0.930 . S
C2779 C2780 1.355 . S
C2779 C2781 1.415 . S
C2780 C2779 1.355 . S
C2780 C2782 1.419 . S
C2781 C2776 1.425 . S
C2781 C2778 1.409 . S
C2781 C2779 1.415 . S
C2782 H2772 0.930 . S
C2782 C2780 1.419 . S
C2782 C2783 1.362 . S
C2783 H2773 0.930 . S
C2783 C2776 1.409 . S
C2783 C2782 1.362 . S
H2784 C2790 0.930 . S
H2785 C2793 0.930 . S
H2786 C2794 0.930 . S
H2787 C2795 0.930 . S
H2788 C2798 0.930 . S
H2789 C2799 0.930 . S
C2790 H2784 0.930 . S
C2790 C2791 1.355 . S
C2790 C2792 1.415 . S
C2791 C2790 1.355 . S
C2791 C2793 1.419 . S
C2792 C2790 1.415 . S
C2792 C2797 1.425 . S
C2792 C2799 1.409 . S
C2793 H2785 0.930 . S
C2793 C2791 1.419 . S
C2793 C2794 1.362 . S
C2794 H2786 0.930 . S
C2794 C2793 1.362 . S
C2794 C2797 1.409 . S
C2795 H2787 0.930 . S
C2795 C2796 1.355 . S
C2795 C2797 1.415 . S
C2796 C2795 1.355 . S
C2796 C2798 1.419 . S
C2797 C2792 1.425 . S
C2797 C2794 1.409 . S
C2797 C2795 1.415 . S
C2798 H2788 0.930 . S
C2798 C2796 1.419 . S
C2798 C2799 1.362 . S
C2799 H2789 0.930 . S
C2799 C2792 1.409 . S
C2799 C2798 1.362 . S
H2800 C2806 0.930 . S
H2801 C2809 0.930 . S
H2802 C2810 0.930 . S
H2803 C2811 0.930 . S
H2804 C2814 0.930 . S
H2805 C2815 0.930 . S
C2806 H2800 0.930 . S
C2806 C2807 1.355 . S
C2806 C2808 1.415 . S
C2807 C2806 1.355 . S
C2807 C2809 1.419 . S
C2808 C2806 1.415 . S
C2808 C2813 1.425 . S
C2808 C2815 1.409 . S
C2809 H2801 0.930 . S
C2809 C2807 1.419 . S
C2809 C2810 1.362 . S
C2810 H2802 0.930 . S
C2810 C2809 1.362 . S
C2810 C2813 1.409 . S
C2811 H2803 0.930 . S
C2811 C2812 1.355 . S
C2811 C2813 1.415 . S
C2812 C2811 1.355 . S
C2812 C2814 1.419 . S
C2813 C2808 1.425 . S
C2813 C2810 1.409 . S
C2813 C2811 1.415 . S
C2814 H2804 0.930 . S
C2814 C2812 1.419 . S
C2814 C2815 1.362 . S
C2815 H2805 0.930 . S
C2815 C2808 1.409 . S
C2815 C2814 1.362 . S
H2816 C2822 0.930 . S
H2817 C2825 0.930 . S
H2818 C2826 0.930 . S
H2819 C2827 0.930 . S
H2820 C2830 0.930 . S
H2821 C2831 0.930 . S
C2822 H2816 0.930 . S
C2822 C2823 1.355 . S
C2822 C2824 1.415 . S
C2823 C2822 1.355 . S
C2823 C2825 1.419 . S
C2824 C2822 1.415 . S
C2824 C2829 1.425 . S
C2824 C2831 1.409 . S
C2825 H2817 0.930 . S
C2825 C2823 1.419 . S
C2825 C2826 1.362 . S
C2826 H2818 0.930 . S
C2826 C2825 1.362 . S
C2826 C2829 1.409 . S
C2827 H2819 0.930 . S
C2827 C2828 1.355 . S
C2827 C2829 1.415 . S
C2828 C2827 1.355 . S
C2828 C2830 1.419 . S
C2829 C2824 1.425 . S
C2829 C2826 1.409 . S
C2829 C2827 1.415 . S
C2830 H2820 0.930 . S
C2830 C2828 1.419 . S
C2830 C2831 1.362 . S
C2831 H2821 0.930 . S
C2831 C2824 1.409 . S
C2831 C2830 1.362 . S
H2832 C2838 0.930 . S
H2833 C2841 0.930 . S
H2834 C2842 0.930 . S
H2835 C2843 0.930 . S
H2836 C2846 0.930 . S
H2837 C2847 0.930 . S
C2838 H2832 0.930 . S
C2838 C2839 1.355 . S
C2838 C2840 1.415 . S
C2839 C2838 1.355 . S
C2839 C2841 1.419 . S
C2840 C2838 1.415 . S
C2840 C2845 1.425 . S
C2840 C2847 1.409 . S
C2841 H2833 0.930 . S
C2841 C2839 1.419 . S
C2841 C2842 1.362 . S
C2842 H2834 0.930 . S
C2842 C2841 1.362 . S
C2842 C2845 1.409 . S
C2843 H2835 0.930 . S
C2843 C2844 1.355 . S
C2843 C2845 1.415 . S
C2844 C2843 1.355 . S
C2844 C2846 1.419 . S
C2845 C2840 1.425 . S
C2845 C2842 1.409 . S
C2845 C2843 1.415 . S
C2846 H2836 0.930 . S
C2846 C2844 1.419 . S
C2846 C2847 1.362 . S
C2847 H2837 0.930 . S
C2847 C2840 1.409 . S
C2847 C2846 1.362 . S
H2848 C2854 0.930 . S
H2849 C2857 0.930 . S
H2850 C2858 0.930 . S
H2851 C2859 0.930 . S
H2852 C2862 0.930 . S
H2853 C2863 0.930 . S
C2854 H2848 0.930 . S
C2854 C2855 1.355 . S
C2854 C2856 1.415 . S
C2855 C2854 1.355 . S
C2855 C2857 1.419 . S
C2856 C2854 1.415 . S
C2856 C2861 1.425 . S
C2856 C2863 1.409 . S
C2857 H2849 0.930 . S
C2857 C2855 1.419 . S
C2857 C2858 1.362 . S
C2858 H2850 0.930 . S
C2858 C2857 1.362 . S
C2858 C2861 1.409 . S
C2859 H2851 0.930 . S
C2859 C2860 1.355 . S
C2859 C2861 1.415 . S
C2860 C2859 1.355 . S
C2860 C2862 1.419 . S
C2861 C2856 1.425 . S
C2861 C2858 1.409 . S
C2861 C2859 1.415 . S
C2862 H2852 0.930 . S
C2862 C2860 1.419 . S
C2862 C2863 1.362 . S
C2863 H2853 0.930 . S
C2863 C2856 1.409 . S
C2863 C2862 1.362 . S
H2864 C2870 0.930 . S
H2865 C2873 0.930 . S
H2866 C2874 0.930 . S
H2867 C2875 0.930 . S
H2868 C2878 0.930 . S
H2869 C2879 0.930 . S
C2870 H2864 0.930 . S
C2870 C2871 1.355 . S
C2870 C2872 1.415 . S
C2871 C2870 1.355 . S
C2871 C2873 1.419 . S
C2872 C2870 1.415 . S
C2872 C2877 1.425 . S
C2872 C2879 1.409 . S
C2873 H2865 0.930 . S
C2873 C2871 1.419 . S
C2873 C2874 1.362 . S
C2874 H2866 0.930 . S
C2874 C2873 1.362 . S
C2874 C2877 1.409 . S
C2875 H2867 0.930 . S
C2875 C2876 1.355 . S
C2875 C2877 1.415 . S
C2876 C2875 1.355 . S
C2876 C2878 1.419 . S
C2877 C2872 1.425 . S
C2877 C2874 1.409 . S
C2877 C2875 1.415 . S
C2878 H2868 0.930 . S
C2878 C2876 1.419 . S
C2878 C2879 1.362 . S
C2879 H2869 0.930 . S
C2879 C2872 1.409 . S
C2879 C2878 1.362 . S
H2880 C2886 0.930 . S
H2881 C2889 0.930 . S
H2882 C2890 0.930 . S
H2883 C2891 0.930 . S
H2884 C2894 0.930 . S
H2885 C2895 0.930 . S
C2886 H2880 0.930 . S
C2886 C2887 1.355 . S
C2886 C2888 1.415 . S
C2887 C2886 1.355 . S
C2887 C2889 1.419 . S
C2888 C2886 1.415 . S
C2888 C2893 1.425 . S
C2888 C2895 1.409 . S
C2889 H2881 0.930 . S
C2889 C2887 1.419 . S
C2889 C2890 1.362 . S
C2890 H2882 0.930 . S
C2890 C2889 1.362 . S
C2890 C2893 1.409 . S
C2891 H2883 0.930 . S
C2891 C2892 1.355 . S
C2891 C2893 1.415 . S
C2892 C2891 1.355 . S
C2892 C2894 1.419 . S
C2893 C2888 1.425 . S
C2893 C2890 1.409 . S
C2893 C2891 1.415 . S
C2894 H2884 0.930 . S
C2894 C2892 1.419 . S
C2894 C2895 1.362 . S
C2895 H2885 0.930 . S
C2895 C2888 1.409 . S
C2895 C2894 1.362 . S
H2896 C2902 0.930 . S
H2897 C2905 0.930 . S
H2898 C2906 0.930 . S
H2899 C2907 0.930 . S
H2900 C2910 0.930 . S
H2901 C2911 0.930 . S
C2902 H2896 0.930 . S
C2902 C2903 1.355 . S
C2902 C2904 1.415 . S
C2903 C2902 1.355 . S
C2903 C2905 1.419 . S
C2904 C2902 1.415 . S
C2904 C2909 1.425 . S
C2904 C2911 1.409 . S
C2905 H2897 0.930 . S
C2905 C2903 1.419 . S
C2905 C2906 1.362 . S
C2906 H2898 0.930 . S
C2906 C2905 1.362 . S
C2906 C2909 1.409 . S
C2907 H2899 0.930 . S
C2907 C2908 1.355 . S
C2907 C2909 1.415 . S
C2908 C2907 1.355 . S
C2908 C2910 1.419 . S
C2909 C2904 1.425 . S
C2909 C2906 1.409 . S
C2909 C2907 1.415 . S
C2910 H2900 0.930 . S
C2910 C2908 1.419 . S
C2910 C2911 1.362 . S
C2911 H2901 0.930 . S
C2911 C2904 1.409 . S
C2911 C2910 1.362 . S
H2912 C2918 0.930 . S
H2913 C2921 0.930 . S
H2914 C2922 0.930 . S
H2915 C2923 0.930 . S
H2916 C2926 0.930 . S
H2917 C2927 0.930 . S
C2918 H2912 0.930 . S
C2918 C2919 1.355 . S
C2918 C2920 1.415 . S
C2919 C2918 1.355 . S
C2919 C2921 1.419 . S
C2920 C2918 1.415 . S
C2920 C2925 1.425 . S
C2920 C2927 1.409 . S
C2921 H2913 0.930 . S
C2921 C2919 1.419 . S
C2921 C2922 1.362 . S
C2922 H2914 0.930 . S
C2922 C2921 1.362 . S
C2922 C2925 1.409 . S
C2923 H2915 0.930 . S
C2923 C2924 1.355 . S
C2923 C2925 1.415 . S
C2924 C2923 1.355 . S
C2924 C2926 1.419 . S
C2925 C2920 1.425 . S
C2925 C2922 1.409 . S
C2925 C2923 1.415 . S
C2926 H2916 0.930 . S
C2926 C2924 1.419 . S
C2926 C2927 1.362 . S
C2927 H2917 0.930 . S
C2927 C2920 1.409 . S
C2927 C2926 1.362 . S
H2928 C2934 0.930 . S
H2929 C2937 0.930 . S
H2930 C2938 0.930 . S
H2931 C2939 0.930 . S
H2932 C2942 0.930 . S
H2933 C2943 0.930 . S
C2934 H2928 0.930 . S
C2934 C2935 1.355 . S
C2934 C2936 1.415 . S
C2935 C2934 1.355 . S
C2935 C2937 1.419 . S
C2936 C2934 1.415 . S
C2936 C2941 1.425 . S
C2936 C2943 1.409 . S
C2937 H2929 0.930 . S
C2937 C2935 1.419 . S
C2937 C2938 1.362 . S
C2938 H2930 0.930 . S
C2938 C2937 1.362 . S
C2938 C2941 1.409 . S
C2939 H2931 0.930 . S
C2939 C2940 1.355 . S
C2939 C2941 1.415 . S
C2940 C2939 1.355 . S
C2940 C2942 1.419 . S
C2941 C2936 1.425 . S
C2941 C2938 1.409 . S
C2941 C2939 1.415 . S
C2942 H2932 0.930 . S
C2942 C2940 1.419 . S
C2942 C2943 1.362 . S
C2943 H2933 0.930 . S
C2943 C2936 1.409 . S
C2943 C2942 1.362 . S
H2944 C2950 0.930 . S
H2945 C2953 0.930 . S
H2946 C2954 0.930 . S
H2947 C2955 0.930 . S
H2948 C2958 0.930 . S
H2949 C2959 0.930 . S
C2950 H2944 0.930 . S
C2950 C2951 1.355 . S
C2950 C2952 1.415 . S
C2951 C2950 1.355 . S
C2951 C2953 1.419 . S
C2952 C2950 1.415 . S
C2952 C2957 1.425 . S
C2952 C2959 1.409 . S
C2953 H2945 0.930 . S
C2953 C2951 1.419 . S
C2953 C2954 1.362 . S
C2954 H2946 0.930 . S
C2954 C2953 1.362 . S
C2954 C2957 1.409 . S
C2955 H2947 0.930 . S
C2955 C2956 1.355 . S
C2955 C2957 1.415 . S
C2956 C2955 1.355 . S
C2956 C2958 1.419 . S
C2957 C2952 1.425 . S
C2957 C2954 1.409 . S
C2957 C2955 1.415 . S
C2958 H2948 0.930 . S
C2958 C2956 1.419 . S
C2958 C2959 1.362 . S
C2959 H2949 0.930 . S
C2959 C2952 1.409 . S
C2959 C2958 1.362 . S
H2960 C2966 0.930 . S
H2961 C2969 0.930 . S
H2962 C2970 0.930 . S
H2963 C2971 0.930 . S
H2964 C2974 0.930 . S
H2965 C2975 0.930 . S
C2966 H2960 0.930 . S
C2966 C2967 1.355 . S
C2966 C2968 1.415 . S
C2967 C2966 1.355 . S
C2967 C2969 1.419 . S
C2968 C2966 1.415 . S
C2968 C2973 1.425 . S
C2968 C2975 1.409 . S
C2969 H2961 0.930 . S
C2969 C2967 1.419 . S
C2969 C2970 1.362 . S
C2970 H2962 0.930 . S
C2970 C2969 1.362 . S
C2970 C2973 1.409 . S
C2971 H2963 0.930 . S
C2971 C2972 1.355 . S
C2971 C2973 1.415 . S
C2972 C2971 1.355 . S
C2972 C2974 1.419 . S
C2973 C2968 1.425 . S
C2973 C2970 1.409 . S
C2973 C2971 1.415 . S
C2974 H2964 0.930 . S
C2974 C2972 1.419 . S
C2974 C2975 1.362 . S
C2975 H2965 0.930 . S
C2975 C2968 1.409 . S
C2975 C2974 1.362 . S
H2976 C2982 0.930 . S
H2977 C2985 0.930 . S
H2978 C2986 0.930 . S
H2979 C2987 0.930 . S
H2980 C2990 0.930 . S
H2981 C2991 0.930 . S
C2982 H2976 0.930 . S
C2982 C2983 1.355 . S
C2982 C2984 1.415 . S
C2983 C2982 1.355 . S
C2983 C2985 1.419 . S
C2984 C2982 1.415 . S
C2984 C2989 1.425 . S
C2984 C2991 1.409 . S
C2985 H2977 0.930 . S
C2985 C2983 1.419 . S
C2985 C2986 1.362 . S
C2986 H2978 0.930 . S
C2986 C2985 1.362 . S
C2986 C2989 1.409 . S
C2987 H2979 0.930 . S
C2987 C2988 1.355 . S
C2987 C2989 1.415 . S
C2988 C2987 1.355 . S
C2988 C2990 1.419 . S
C2989 C2984 1.425 . S
C2989 C2986 1.409 . S
C2989 C2987 1.415 . S
C2990 H2980 0.930 . S
C2990 C2988 1.419 . S
C2990 C2991 1.362 . S
C2991 H2981 0.930 . S
C2991 C2984 1.409 . S
C2991 C2990 1.362 . S
H2992 C2998 0.930 . S
H2993 C3001 0.930 . S
H2994 C3002 0.930 . S
H2995 C3003 0.930 . S
H2996 C3006 0.930 . S
H2997 C3007 0.930 . S
C2998 H2992 0.930 . S
C2998 C2999 1.355 . S
C2998 C3000 1.415 . S
C2999 C2998 1.355 . S
C2999 C3001 1.419 . S
C3000 C2998 1.415 . S
C3000 C3005 1.425 . S
C3000 C3007 1.409 . S
C3001 H2993 0.930 . S
C3001 C2999 1.419 . S
C3001 C3002 1.362 . S
C3002 H2994 0.930 . S
C3002 C3001 1.362 . S
C3002 C3005 1.409 . S
C3003 H2995 0.930 . S
C3003 C3004 1.355 . S
C3003 C3005 1.415 . S
C3004 C3003 1.355 . S
C3004 C3006 1.419 . S
C3005 C3000 1.425 . S
C3005 C3002 1.409 . S
C3005 C3003 1.415 . S
C3006 H2996 0.930 . S
C3006 C3004 1.419 . S
C3006 C3007 1.362 . S
C3007 H2997 0.930 . S
C3007 C3000 1.409 . S
C3007 C3006 1.362 . S
H3008 C3014 0.930 . S
H3009 C3017 0.930 . S
H3010 C3018 0.930 . S
H3011 C3019 0.930 . S
H3012 C3022 0.930 . S
H3013 C3023 0.930 . S
C3014 H3008 0.930 . S
C3014 C3015 1.355 . S
C3014 C3016 1.415 . S
C3015 C3014 1.355 . S
C3015 C3017 1.419 . S
C3016 C3014 1.415 . S
C3016 C3021 1.425 . S
C3016 C3023 1.409 . S
C3017 H3009 0.930 . S
C3017 C3015 1.419 . S
C3017 C3018 1.362 . S
C3018 H3010 0.930 . S
C3018 C3017 1.362 . S
C3018 C3021 1.409 . S
C3019 H3011 0.930 . S
C3019 C3020 1.355 . S
C3019 C3021 1.415 . S
C3020 C3019 1.355 . S
C3020 C3022 1.419 . S
C3021 C3016 1.425 . S
C3021 C3018 1.409 . S
C3021 C3019 1.415 . S
C3022 H3012 0.930 . S
C3022 C3020 1.419 . S
C3022 C3023 1.362 . S
C3023 H3013 0.930 . S
C3023 C3016 1.409 . S
C3023 C3022 1.362 . S
H3024 C3030 0.930 . S
H3025 C3033 0.930 . S
H3026 C3034 0.930 . S
H3027 C3035 0.930 . S
H3028 C3038 0.930 . S
H3029 C3039 0.930 . S
C3030 H3024 0.930 . S
C3030 C3031 1.355 . S
C3030 C3032 1.415 . S
C3031 C3030 1.355 . S
C3031 C3033 1.419 . S
C3032 C3030 1.415 . S
C3032 C3037 1.425 . S
C3032 C3039 1.409 . S
C3033 H3025 0.930 . S
C3033 C3031 1.419 . S
C3033 C3034 1.362 . S
C3034 H3026 0.930 . S
C3034 C3033 1.362 . S
C3034 C3037 1.409 . S
C3035 H3027 0.930 . S
C3035 C3036 1.355 . S
C3035 C3037 1.415 . S
C3036 C3035 1.355 . S
C3036 C3038 1.419 . S
C3037 C3032 1.425 . S
C3037 C3034 1.409 . S
C3037 C3035 1.415 . S
C3038 H3028 0.930 . S
C3038 C3036 1.419 . S
C3038 C3039 1.362 . S
C3039 H3029 0.930 . S
C3039 C3032 1.409 . S
C3039 C3038 1.362 . S
H3040 C3046 0.930 . S
H3041 C3049 0.930 . S
H3042 C3050 0.930 . S
H3043 C3051 0.930 . S
H3044 C3054 0.930 . S
H3045 C3055 0.930 . S
C3046 H3040 0.930 . S
C3046 C3047 1.355 . S
C3046 C3048 1.415 . S
C3047 C3046 1.355 . S
C3047 C3049 1.419 . S
C3048 C3046 1.415 . S
C3048 C3053 1.425 . S
C3048 C3055 1.409 . S
C3049 H3041 0.930 . S
C3049 C3047 1.419 . S
C3049 C3050 1.362 . S
C3050 H3042 0.930 . S
C3050 C3049 1.362 . S
C3050 C3053 1.409 . S
C3051 H3043 0.930 . S
C3051 C3052 1.355 . S
C3051 C3053 1.415 . S
C3052 C3051 1.355 . S
C3052 C3054 1.419 . S
C3053 C3048 1.425 . S
C3053 C3050 1.409 . S
C3053 C3051 1.415 . S
C3054 H3044 0.930 . S
C3054 C3052 1.419 . S
C3054 C3055 1.362 . S
C3055 H3045 0.930 . S
C3055 C3048 1.409 . S
C3055 C3054 1.362 . S
H3056 C3062 0.930 . S
H3057 C3065 0.930 . S
H3058 C3066 0.930 . S
H3059 C3067 0.930 . S
H3060 C3070 0.930 . S
H3061 C3071 0.930 . S
C3062 H3056 0.930 . S
C3062 C3063 1.355 . S
C3062 C3064 1.415 . S
C3063 C3062 1.355 . S
C3063 C3065 1.419 . S
C3064 C3062 1.415 . S
C3064 C3069 1.425 . S
C3064 C3071 1.409 . S
C3065 H3057 0.930 . S
C3065 C3063 1.419 . S
C3065 C3066 1.362 . S
C3066 H3058 0.930 . S
C3066 C3065 1.362 . S
C3066 C3069 1.409 . S
C3067 H3059 0.930 . S
C3067 C3068 1.355 . S
C3067 C3069 1.415 . S
C3068 C3067 1.355 . S
C3068 C3070 1.419 . S
C3069 C3064 1.425 . S
C3069 C3066 1.409 . S
C3069 C3067 1.415 . S
C3070 H3060 0.930 . S
C3070 C3068 1.419 . S
C3070 C3071 1.362 . S
C3071 H3061 0.930 . S
C3071 C3064 1.409 . S
C3071 C3070 1.362 . S
H3072 C3078 0.930 . S
H3073 C3081 0.930 . S
H3074 C3082 0.930 . S
H3075 C3083 0.930 . S
H3076 C3086 0.930 . S
H3077 C3087 0.930 . S
C3078 H3072 0.930 . S
C3078 C3079 1.355 . S
C3078 C3080 1.415 . S
C3079 C3078 1.355 . S
C3079 C3081 1.419 . S
C3080 C3078 1.415 . S
C3080 C3085 1.425 . S
C3080 C3087 1.409 . S
C3081 H3073 0.930 . S
C3081 C3079 1.419 . S
C3081 C3082 1.362 . S
C3082 H3074 0.930 . S
C3082 C3081 1.362 . S
C3082 C3085 1.409 . S
C3083 H3075 0.930 . S
C3083 C3084 1.355 . S
C3083 C3085 1.415 . S
C3084 C3083 1.355 . S
C3084 C3086 1.419 . S
C3085 C3080 1.425 . S
C3085 C3082 1.409 . S
C3085 C3083 1.415 . S
C3086 H3076 0.930 . S
C3086 C3084 1.419 . S
C3086 C3087 1.362 . S
C3087 H3077 0.930 . S
C3087 C3080 1.409 . S
C3087 C3086 1.362 . S
H3088 C3094 0.930 . S
H3089 C3097 0.930 . S
H3090 C3098 0.930 . S
H3091 C3099 0.930 . S
H3092 C3102 0.930 . S
H3093 C3103 0.930 . S
C3094 H3088 0.930 . S
C3094 C3095 1.355 . S
C3094 C3096 1.415 . S
C3095 C3094 1.355 . S
C3095 C3097 1.419 . S
C3096 C3094 1.415 . S
C3096 C3101 1.425 . S
C3096 C3103 1.409 . S
C3097 H3089 0.930 . S
C3097 C3095 1.419 . S
C3097 C3098 1.362 . S
C3098 H3090 0.930 . S
C3098 C3097 1.362 . S
C3098 C3101 1.409 . S
C3099 H3091 0.930 . S
C3099 C3100 1.355 . S
C3099 C3101 1.415 . S
C3100 C3099 1.355 . S
C3100 C3102 1.419 . S
C3101 C3096 1.425 . S
C3101 C3098 1.409 . S
C3101 C3099 1.415 . S
C3102 H3092 0.930 . S
C3102 C3100 1.419 . S
C3102 C3103 1.362 . S
C3103 H3093 0.930 . S
C3103 C3096 1.409 . S
C3103 C3102 1.362 . S
H3104 C3110 0.930 . S
H3105 C3113 0.930 . S
H3106 C3114 0.930 . S
H3107 C3115 0.930 . S
H3108 C3118 0.930 . S
H3109 C3119 0.930 . S
C3110 H3104 0.930 . S
C3110 C3111 1.355 . S
C3110 C3112 1.415 . S
C3111 C3110 1.355 . S
C3111 C3113 1.419 . S
C3112 C3110 1.415 . S
C3112 C3117 1.425 . S
C3112 C3119 1.409 . S
C3113 H3105 0.930 . S
C3113 C3111 1.419 . S
C3113 C3114 1.362 . S
C3114 H3106 0.930 . S
C3114 C3113 1.362 . S
C3114 C3117 1.409 . S
C3115 H3107 0.930 . S
C3115 C3116 1.355 . S
C3115 C3117 1.415 . S
C3116 C3115 1.355 . S
C3116 C3118 1.419 . S
C3117 C3112 1.425 . S
C3117 C3114 1.409 . S
C3117 C3115 1.415 . S
C3118 H3108 0.930 . S
C3118 C3116 1.419 . S
C3118 C3119 1.362 . S
C3119 H3109 0.930 . S
C3119 C3112 1.409 . S
C3119 C3118 1.362 . S
H3120 C3126 0.930 . S
H3121 C3129 0.930 . S
H3122 C3130 0.930 . S
H3123 C3131 0.930 . S
H3124 C3134 0.930 . S
H3125 C3135 0.930 . S
C3126 H3120 0.930 . S
C3126 C3127 1.355 . S
C3126 C3128 1.415 . S
C3127 C3126 1.355 . S
C3127 C3129 1.419 . S
C3128 C3126 1.415 . S
C3128 C3133 1.425 . S
C3128 C3135 1.409 . S
C3129 H3121 0.930 . S
C3129 C3127 1.419 . S
C3129 C3130 1.362 . S
C3130 H3122 0.930 . S
C3130 C3129 1.362 . S
C3130 C3133 1.409 . S
C3131 H3123 0.930 . S
C3131 C3132 1.355 . S
C3131 C3133 1.415 . S
C3132 C3131 1.355 . S
C3132 C3134 1.419 . S
C3133 C3128 1.425 . S
C3133 C3130 1.409 . S
C3133 C3131 1.415 . S
C3134 H3124 0.930 . S
C3134 C3132 1.419 . S
C3134 C3135 1.362 . S
C3135 H3125 0.930 . S
C3135 C3128 1.409 . S
C3135 C3134 1.362 . S
H3136 C3142 0.930 . S
H3137 C3145 0.930 . S
H3138 C3146 0.930 . S
H3139 C3147 0.930 . S
H3140 C3150 0.930 . S
H3141 C3151 0.930 . S
C3142 H3136 0.930 . S
C3142 C3143 1.355 . S
C3142 C3144 1.415 . S
C3143 C3142 1.355 . S
C3143 C3145 1.419 . S
C3144 C3142 1.415 . S
C3144 C3149 1.425 . S
C3144 C3151 1.409 . S
C3145 H3137 0.930 . S
C3145 C3143 1.419 . S
C3145 C3146 1.362 . S
C3146 H3138 0.930 . S
C3146 C3145 1.362 . S
C3146 C3149 1.409 . S
C3147 H3139 0.930 . S
C3147 C3148 1.355 . S
C3147 C3149 1.415 . S
C3148 C3147 1.355 . S
C3148 C3150 1.419 . S
C3149 C3144 1.425 . S
C3149 C3146 1.409 . S
C3149 C3147 1.415 . S
C3150 H3140 0.930 . S
C3150 C3148 1.419 . S
C3150 C3151 1.362 . S
C3151 H3141 0.930 . S
C3151 C3144 1.409 . S
C3151 C3150 1.362 . S
H3152 C3158 0.930 . S
H3153 C3161 0.930 . S
H3154 C3162 0.930 . S
H3155 C3163 0.930 . S
H3156 C3166 0.930 . S
H3157 C3167 0.930 . S
C3158 H3152 0.930 . S
C3158 C3159 1.355 . S
C3158 C3160 1.415 . S
C3159 C3158 1.355 . S
C3159 C3161 1.419 . S
C3160 C3158 1.415 . S
C3160 C3165 1.425 . S
C3160 C3167 1.409 . S
C3161 H3153 0.930 . S
C3161 C3159 1.419 . S
C3161 C3162 1.362 . S
C3162 H3154 0.930 . S
C3162 C3161 1.362 . S
C3162 C3165 1.409 . S
C3163 H3155 0.930 . S
C3163 C3164 1.355 . S
C3163 C3165 1.415 . S
C3164 C3163 1.355 . S
C3164 C3166 1.419 . S
C3165 C3160 1.425 . S
C3165 C3162 1.409 . S
C3165 C3163 1.415 . S
C3166 H3156 0.930 . S
C3166 C3164 1.419 . S
C3166 C3167 1.362 . S
C3167 H3157 0.930 . S
C3167 C3160 1.409 . S
C3167 C3166 1.362 . S
H3168 C3174 0.930 . S
H3169 C3177 0.930 . S
H3170 C3178 0.930 . S
H3171 C3179 0.930 . S
H3172 C3182 0.930 . S
H3173 C3183 0.930 . S
C3174 H3168 0.930 . S
C3174 C3175 1.355 . S
C3174 C3176 1.415 . S
C3175 C3174 1.355 . S
C3175 C3177 1.419 . S
C3176 C3174 1.415 . S
C3176 C3181 1.425 . S
C3176 C3183 1.409 . S
C3177 H3169 0.930 . S
C3177 C3175 1.419 . S
C3177 C3178 1.362 . S
C3178 H3170 0.930 . S
C3178 C3177 1.362 . S
C3178 C3181 1.409 . S
C3179 H3171 0.930 . S
C3179 C3180 1.355 . S
C3179 C3181 1.415 . S
C3180 C3179 1.355 . S
C3180 C3182 1.419 . S
C3181 C3176 1.425 . S
C3181 C3178 1.409 . S
C3181 C3179 1.415 . S
C3182 H3172 0.930 . S
C3182 C3180 1.419 . S
C3182 C3183 1.362 . S
C3183 H3173 0.930 . S
C3183 C3176 1.409 . S
C3183 C3182 1.362 . S
H3184 C3190 0.930 . S
H3185 C3193 0.930 . S
H3186 C3194 0.930 . S
H3187 C3195 0.930 . S
H3188 C3198 0.930 . S
H3189 C3199 0.930 . S
C3190 H3184 0.930 . S
C3190 C3191 1.355 . S
C3190 C3192 1.415 . S
C3191 C3190 1.355 . S
C3191 C3193 1.419 . S
C3192 C3190 1.415 . S
C3192 C3197 1.425 . S
C3192 C3199 1.409 . S
C3193 H3185 0.930 . S
C3193 C3191 1.419 . S
C3193 C3194 1.362 . S
C3194 H3186 0.930 . S
C3194 C3193 1.362 . S
C3194 C3197 1.409 . S
C3195 H3187 0.930 . S
C3195 C3196 1.355 . S
C3195 C3197 1.415 . S
C3196 C3195 1.355 . S
C3196 C3198 1.419 . S
C3197 C3192 1.425 . S
C3197 C3194 1.409 . S
C3197 C3195 1.415 . S
C3198 H3188 0.930 . S
C3198 C3196 1.419 . S
C3198 C3199 1.362 . S
C3199 H3189 0.930 . S
C3199 C3192 1.409 . S
C3199 C3198 1.362 . S
H3200 C3206 0.930 . S
H3201 C3209 0.930 . S
H3202 C3210 0.930 . S
H3203 C3211 0.930 . S
H3204 C3214 0.930 . S
H3205 C3215 0.930 . S
C3206 H3200 0.930 . S
C3206 C3207 1.355 . S
C3206 C3208 1.415 . S
C3207 C3206 1.355 . S
C3207 C3209 1.419 . S
C3208 C3206 1.415 . S
C3208 C3213 1.425 . S
C3208 C3215 1.409 . S
C3209 H3201 0.930 . S
C3209 C3207 1.419 . S
C3209 C3210 1.362 . S
C3210 H3202 0.930 . S
C3210 C3209 1.362 . S
C3210 C3213 1.409 . S
C3211 H3203 0.930 . S
C3211 C3212 1.355 . S
C3211 C3213 1.415 . S
C3212 C3211 1.355 . S
C3212 C3214 1.419 . S
C3213 C3208 1.425 . S
C3213 C3210 1.409 . S
C3213 C3211 1.415 . S
C3214 H3204 0.930 . S
C3214 C3212 1.419 . S
C3214 C3215 1.362 . S
C3215 H3205 0.930 . S
C3215 C3208 1.409 . S
C3215 C3214 1.362 . S
H3216 C3222 0.930 . S
H3217 C3225 0.930 . S
H3218 C3226 0.930 . S
H3219 C3227 0.930 . S
H3220 C3230 0.930 . S
H3221 C3231 0.930 . S
C3222 H3216 0.930 . S
C3222 C3223 1.355 . S
C3222 C3224 1.415 . S
C3223 C3222 1.355 . S
C3223 C3225 1.419 . S
C3224 C3222 1.415 . S
C3224 C3229 1.425 . S
C3224 C3231 1.409 . S
C3225 H3217 0.930 . S
C3225 C3223 1.419 . S
C3225 C3226 1.362 . S
C3226 H3218 0.930 . S
C3226 C3225 1.362 . S
C3226 C3229 1.409 . S
C3227 H3219 0.930 . S
C3227 C3228 1.355 . S
C3227 C3229 1.415 . S
C3228 C3227 1.355 . S
C3228 C3230 1.419 . S
C3229 C3224 1.425 . S
C3229 C3226 1.409 . S
C3229 C3227 1.415 . S
C3230 H3220 0.930 . S
C3230 C3228 1.419 . S
C3230 C3231 1.362 . S
C3231 H3221 0.930 . S
C3231 C3224 1.409 . S
C3231 C3230 1.362 . S
H3232 C3238 0.930 . S
H3233 C3241 0.930 . S
H3234 C3242 0.930 . S
H3235 C3243 0.930 . S
H3236 C3246 0.930 . S
H3237 C3247 0.930 . S
C3238 H3232 0.930 . S
C3238 C3239 1.355 . S
C3238 C3240 1.415 . S
C3239 C3238 1.355 . S
C3239 C3241 1.419 . S
C3240 C3238 1.415 . S
C3240 C3245 1.425 . S
C3240 C3247 1.409 . S
C3241 H3233 0.930 . S
C3241 C3239 1.419 . S
C3241 C3242 1.362 . S
C3242 H3234 0.930 . S
C3242 C3241 1.362 . S
C3242 C3245 1.409 . S
C3243 H3235 0.930 . S
C3243 C3244 1.355 . S
C3243 C3245 1.415 . S
C3244 C3243 1.355 . S
C3244 C3246 1.419 . S
C3245 C3240 1.425 . S
C3245 C3242 1.409 . S
C3245 C3243 1.415 . S
C3246 H3236 0.930 . S
C3246 C3244 1.419 . S
C3246 C3247 1.362 . S
C3247 H3237 0.930 . S
C3247 C3240 1.409 . S
C3247 C3246 1.362 . S
H3248 C3254 0.930 . S
H3249 C3257 0.930 . S
H3250 C3258 0.930 . S
H3251 C3259 0.930 . S
H3252 C3262 0.930 . S
H3253 C3263 0.930 . S
C3254 H3248 0.930 . S
C3254 C3255 1.355 . S
C3254 C3256 1.415 . S
C3255 C3254 1.355 . S
C3255 C3257 1.419 . S
C3256 C3254 1.415 . S
C3256 C3261 1.425 . S
C3256 C3263 1.409 . S
C3257 H3249 0.930 . S
C3257 C3255 1.419 . S
C3257 C3258 1.362 . S
C3258 H3250 0.930 . S
C3258 C3257 1.362 . S
C3258 C3261 1.409 . S
C3259 H3251 0.930 . S
C3259 C3260 1.355 . S
C3259 C3261 1.415 . S
C3260 C3259 1.355 . S
C3260 C3262 1.419 . S
C3261 C3256 1.425 . S
C3261 C3258 1.409 . S
C3261 C3259 1.415 . S
C3262 H3252 0.930 . S
C3262 C3260 1.419 . S
C3262 C3263 1.362 . S
C3263 H3253 0.930 . S
C3263 C3256 1.409 . S
C3263 C3262 1.362 . S
H3264 C3270 0.930 . S
H3265 C3273 0.930 . S
H3266 C3274 0.930 . S
H3267 C3275 0.930 . S
H3268 C3278 0.930 . S
H3269 C3279 0.930 . S
C3270 H3264 0.930 . S
C3270 C3271 1.355 . S
C3270 C3272 1.415 . S
C3271 C3270 1.355 . S
C3271 C3273 1.419 . S
C3272 C3270 1.415 . S
C3272 C3277 1.425 . S
C3272 C3279 1.409 . S
C3273 H3265 0.930 . S
C3273 C3271 1.419 . S
C3273 C3274 1.362 . S
C3274 H3266 0.930 . S
C3274 C3273 1.362 . S
C3274 C3277 1.409 . S
C3275 H3267 0.930 . S
C3275 C3276 1.355 . S
C3275 C3277 1.415 . S
C3276 C3275 1.355 . S
C3276 C3278 1.419 . S
C3277 C3272 1.425 . S
C3277 C3274 1.409 . S
C3277 C3275 1.415 . S
C3278 H3268 0.930 . S
C3278 C3276 1.419 . S
C3278 C3279 1.362 . S
C3279 H3269 0.930 . S
C3279 C3272 1.409 . S
C3279 C3278 1.362 . S
H3280 C3286 0.930 . S
H3281 C3289 0.930 . S
H3282 C3290 0.930 . S
H3283 C3291 0.930 . S
H3284 C3294 0.930 . S
H3285 C3295 0.930 . S
C3286 H3280 0.930 . S
C3286 C3287 1.355 . S
C3286 C3288 1.415 . S
C3287 C3286 1.355 . S
C3287 C3289 1.419 . S
C3288 C3286 1.415 . S
C3288 C3293 1.425 . S
C3288 C3295 1.409 . S
C3289 H3281 0.930 . S
C3289 C3287 1.419 . S
C3289 C3290 1.362 . S
C3290 H3282 0.930 . S
C3290 C3289 1.362 . S
C3290 C3293 1.409 . S
C3291 H3283 0.930 . S
C3291 C3292 1.355 . S
C3291 C3293 1.415 . S
C3292 C3291 1.355 . S
C3292 C3294 1.419 . S
C3293 C3288 1.425 . S
C3293 C3290 1.409 . S
C3293 C3291 1.415 . S
C3294 H3284 0.930 . S
C3294 C3292 1.419 . S
C3294 C3295 1.362 . S
C3295 H3285 0.930 . S
C3295 C3288 1.409 . S
C3295 C3294 1.362 . S
H3296 C3302 0.930 . S
H3297 C3305 0.930 . S
H3298 C3306 0.930 . S
H3299 C3307 0.930 . S
H3300 C3310 0.930 . S
H3301 C3311 0.930 . S
C3302 H3296 0.930 . S
C3302 C3303 1.355 . S
C3302 C3304 1.415 . S
C3303 C3302 1.355 . S
C3303 C3305 1.419 . S
C3304 C3302 1.415 . S
C3304 C3309 1.425 . S
C3304 C3311 1.409 . S
C3305 H3297 0.930 . S
C3305 C3303 1.419 . S
C3305 C3306 1.362 . S
C3306 H3298 0.930 . S
C3306 C3305 1.362 . S
C3306 C3309 1.409 . S
C3307 H3299 0.930 . S
C3307 C3308 1.355 . S
C3307 C3309 1.415 . S
C3308 C3307 1.355 . S
C3308 C3310 1.419 . S
C3309 C3304 1.425 . S
C3309 C3306 1.409 . S
C3309 C3307 1.415 . S
C3310 H3300 0.930 . S
C3310 C3308 1.419 . S
C3310 C3311 1.362 . S
C3311 H3301 0.930 . S
C3311 C3304 1.409 . S
C3311 C3310 1.362 . S
H3312 C3318 0.930 . S
H3313 C3321 0.930 . S
H3314 C3322 0.930 . S
H3315 C3323 0.930 . S
H3316 C3326 0.930 . S
H3317 C3327 0.930 . S
C3318 H3312 0.930 . S
C3318 C3319 1.355 . S
C3318 C3320 1.415 . S
C3319 C3318 1.355 . S
C3319 C3321 1.419 . S
C3320 C3318 1.415 . S
C3320 C3325 1.425 . S
C3320 C3327 1.409 . S
C3321 H3313 0.930 . S
C3321 C3319 1.419 . S
C3321 C3322 1.362 . S
C3322 H3314 0.930 . S
C3322 C3321 1.362 . S
C3322 C3325 1.409 . S
C3323 H3315 0.930 . S
C3323 C3324 1.355 . S
C3323 C3325 1.415 . S
C3324 C3323 1.355 . S
C3324 C3326 1.419 . S
C3325 C3320 1.425 . S
C3325 C3322 1.409 . S
C3325 C3323 1.415 . S
C3326 H3316 0.930 . S
C3326 C3324 1.419 . S
C3326 C3327 1.362 . S
C3327 H3317 0.930 . S
C3327 C3320 1.409 . S
C3327 C3326 1.362 . S
H3328 C3334 0.930 . S
H3329 C3337 0.930 . S
H3330 C3338 0.930 . S
H3331 C3339 0.930 . S
H3332 C3342 0.930 . S
H3333 C3343 0.930 . S
C3334 H3328 0.930 . S
C3334 C3335 1.355 . S
C3334 C3336 1.415 . S
C3335 C3334 1.355 . S
C3335 C3337 1.419 . S
C3336 C3334 1.415 . S
C3336 C3341 1.425 . S
C3336 C3343 1.409 . S
C3337 H3329 0.930 . S
C3337 C3335 1.419 . S
C3337 C3338 1.362 . S
C3338 H3330 0.930 . S
C3338 C3337 1.362 . S
C3338 C3341 1.409 . S
C3339 H3331 0.930 . S
C3339 C3340 1.355 . S
C3339 C3341 1.415 . S
C3340 C3339 1.355 . S
C3340 C3342 1.419 . S
C3341 C3336 1.425 . S
C3341 C3338 1.409 . S
C3341 C3339 1.415 . S
C3342 H3332 0.930 . S
C3342 C3340 1.419 . S
C3342 C3343 1.362 . S
C3343 H3333 0.930 . S
C3343 C3336 1.409 . S
C3343 C3342 1.362 . S
H3344 C3350 0.930 . S
H3345 C3353 0.930 . S
H3346 C3354 0.930 . S
H3347 C3355 0.930 . S
H3348 C3358 0.930 . S
H3349 C3359 0.930 . S
C3350 H3344 0.930 . S
C3350 C3351 1.355 . S
C3350 C3352 1.415 . S
C3351 C3350 1.355 . S
C3351 C3353 1.419 . S
C3352 C3350 1.415 . S
C3352 C3357 1.425 . S
C3352 C3359 1.409 . S
C3353 H3345 0.930 . S
C3353 C3351 1.419 . S
C3353 C3354 1.362 . S
C3354 H3346 0.930 . S
C3354 C3353 1.362 . S
C3354 C3357 1.409 . S
C3355 H3347 0.930 . S
C3355 C3356 1.355 . S
C3355 C3357 1.415 . S
C3356 C3355 1.355 . S
C3356 C3358 1.419 . S
C3357 C3352 1.425 . S
C3357 C3354 1.409 . S
C3357 C3355 1.415 . S
C3358 H3348 0.930 . S
C3358 C3356 1.419 . S
C3358 C3359 1.362 . S
C3359 H3349 0.930 . S
C3359 C3352 1.409 . S
C3359 C3358 1.362 . S
H3360 C3366 0.930 . S
H3361 C3369 0.930 . S
H3362 C3370 0.930 . S
H3363 C3371 0.930 . S
H3364 C3374 0.930 . S
H3365 C3375 0.930 . S
C3366 H3360 0.930 . S
C3366 C3367 1.355 . S
C3366 C3368 1.415 . S
C3367 C3366 1.355 . S
C3367 C3369 1.419 . S
C3368 C3366 1.415 . S
C3368 C3373 1.425 . S
C3368 C3375 1.409 . S
C3369 H3361 0.930 . S
C3369 C3367 1.419 . S
C3369 C3370 1.362 . S
C3370 H3362 0.930 . S
C3370 C3369 1.362 . S
C3370 C3373 1.409 . S
C3371 H3363 0.930 . S
C3371 C3372 1.355 . S
C3371 C3373 1.415 . S
C3372 C3371 1.355 . S
C3372 C3374 1.419 . S
C3373 C3368 1.425 . S
C3373 C3370 1.409 . S
C3373 C3371 1.415 . S
C3374 H3364 0.930 . S
C3374 C3372 1.419 . S
C3374 C3375 1.362 . S
C3375 H3365 0.930 . S
C3375 C3368 1.409 . S
C3375 C3374 1.362 . S
H3376 C3382 0.930 . S
H3377 C3385 0.930 . S
H3378 C3386 0.930 . S
H3379 C3387 0.930 . S
H3380 C3390 0.930 . S
H3381 C3391 0.930 . S
C3382 H3376 0.930 . S
C3382 C3383 1.355 . S
C3382 C3384 1.415 . S
C3383 C3382 1.355 . S
C3383 C3385 1.419 . S
C3384 C3382 1.415 . S
C3384 C3389 1.425 . S
C3384 C3391 1.409 . S
C3385 H3377 0.930 . S
C3385 C3383 1.419 . S
C3385 C3386 1.362 . S
C3386 H3378 0.930 . S
C3386 C3385 1.362 . S
C3386 C3389 1.409 . S
C3387 H3379 0.930 . S
C3387 C3388 1.355 . S
C3387 C3389 1.415 . S
C3388 C3387 1.355 . S
C3388 C3390 1.419 . S
C3389 C3384 1.425 . S
C3389 C3386 1.409 . S
C3389 C3387 1.415 . S
C3390 H3380 0.930 . S
C3390 C3388 1.419 . S
C3390 C3391 1.362 . S
C3391 H3381 0.930 . S
C3391 C3384 1.409 . S
C3391 C3390 1.362 . S
H3392 C3398 0.930 . S
H3393 C3401 0.930 . S
H3394 C3402 0.930 . S
H3395 C3403 0.930 . S
H3396 C3406 0.930 . S
H3397 C3407 0.930 . S
C3398 H3392 0.930 . S
C3398 C3399 1.355 . S
C3398 C3400 1.415 . S
C3399 C3398 1.355 . S
C3399 C3401 1.419 . S
C3400 C3398 1.415 . S
C3400 C3405 1.425 . S
C3400 C3407 1.409 . S
C3401 H3393 0.930 . S
C3401 C3399 1.419 . S
C3401 C3402 1.362 . S
C3402 H3394 0.930 . S
C3402 C3401 1.362 . S
C3402 C3405 1.409 . S
C3403 H3395 0.930 . S
C3403 C3404 1.355 . S
C3403 C3405 1.415 . S
C3404 C3403 1.355 . S
C3404 C3406 1.419 . S
C3405 C3400 1.425 . S
C3405 C3402 1.409 . S
C3405 C3403 1.415 . S
C3406 H3396 0.930 . S
C3406 C3404 1.419 . S
C3406 C3407 1.362 . S
C3407 H3397 0.930 . S
C3407 C3400 1.409 . S
C3407 C3406 1.362 . S
H3408 C3414 0.930 . S
H3409 C3417 0.930 . S
H3410 C3418 0.930 . S
H3411 C3419 0.930 . S
H3412 C3422 0.930 . S
H3413 C3423 0.930 . S
C3414 H3408 0.930 . S
C3414 C3415 1.355 . S
C3414 C3416 1.415 . S
C3415 C3414 1.355 . S
C3415 C3417 1.419 . S
C3416 C3414 1.415 . S
C3416 C3421 1.425 . S
C3416 C3423 1.409 . S
C3417 H3409 0.930 . S
C3417 C3415 1.419 . S
C3417 C3418 1.362 . S
C3418 H3410 0.930 . S
C3418 C3417 1.362 . S
C3418 C3421 1.409 . S
C3419 H3411 0.930 . S
C3419 C3420 1.355 . S
C3419 C3421 1.415 . S
C3420 C3419 1.355 . S
C3420 C3422 1.419 . S
C3421 C3416 1.425 . S
C3421 C3418 1.409 . S
C3421 C3419 1.415 . S
C3422 H3412 0.930 . S
C3422 C3420 1.419 . S
C3422 C3423 1.362 . S
C3423 H3413 0.930 . S
C3423 C3416 1.409 . S
C3423 C3422 1.362 . S
H3424 C3430 0.930 . S
H3425 C3433 0.930 . S
H3426 C3434 0.930 . S
H3427 C3435 0.930 . S
H3428 C3438 0.930 . S
H3429 C3439 0.930 . S
C3430 H3424 0.930 . S
C3430 C3431 1.355 . S
C3430 C3432 1.415 . S
C3431 C3430 1.355 . S
C3431 C3433 1.419 . S
C3432 C3430 1.415 . S
C3432 C3437 1.425 . S
C3432 C3439 1.409 . S
C3433 H3425 0.930 . S
C3433 C3431 1.419 . S
C3433 C3434 1.362 . S
C3434 H3426 0.930 . S
C3434 C3433 1.362 . S
C3434 C3437 1.409 . S
C3435 H3427 0.930 . S
C3435 C3436 1.355 . S
C3435 C3437 1.415 . S
C3436 C3435 1.355 . S
C3436 C3438 1.419 . S
C3437 C3432 1.425 . S
C3437 C3434 1.409 . S
C3437 C3435 1.415 . S
C3438 H3428 0.930 . S
C3438 C3436 1.419 . S
C3438 C3439 1.362 . S
C3439 H3429 0.930 . S
C3439 C3432 1.409 . S
C3439 C3438 1.362 . S
H3440 C3446 0.930 . S
H3441 C3449 0.930 . S
H3442 C3450 0.930 . S
H3443 C3451 0.930 . S
H3444 C3454 0.930 . S
H3445 C3455 0.930 . S
C3446 H3440 0.930 . S
C3446 C3447 1.355 . S
C3446 C3448 1.415 . S
C3447 C3446 1.355 . S
C3447 C3449 1.419 . S
C3448 C3446 1.415 . S
C3448 C3453 1.425 . S
C3448 C3455 1.409 . S
C3449 H3441 0.930 . S
C3449 C3447 1.419 . S
C3449 C3450 1.362 . S
C3450 H3442 0.930 . S
C3450 C3449 1.362 . S
C3450 C3453 1.409 . S
C3451 H3443 0.930 . S
C3451 C3452 1.355 . S
C3451 C3453 1.415 . S
C3452 C3451 1.355 . S
C3452 C3454 1.419 . S
C3453 C3448 1.425 . S
C3453 C3450 1.409 . S
C3453 C3451 1.415 . S
C3454 H3444 0.930 . S
C3454 C3452 1.419 . S
C3454 C3455 1.362 . S
C3455 H3445 0.930 . S
C3455 C3448 1.409 . S
C3455 C3454 1.362 . S
H3456 C3462 0.930 . S
H3457 C3465 0.930 . S
H3458 C3466 0.930 . S
H3459 C3467 0.930 . S
H3460 C3470 0.930 . S
H3461 C3471 0.930 . S
C3462 H3456 0.930 . S
C3462 C3463 1.355 . S
C3462 C3464 1.415 . S
C3463 C3462 1.355 . S
C3463 C3465 1.419 . S
C3464 C3462 1.415 . S
C3464 C3469 1.425 . S
C3464 C3471 1.409 . S
C3465 H3457 0.930 . S
C3465 C3463 1.419 . S
C3465 C3466 1.362 . S
C3466 H3458 0.930 . S
C3466 C3465 1.362 . S
C3466 C3469 1.409 . S
C3467 H3459 0.930 . S
C3467 C3468 1.355 . S
C3467 C3469 1.415 . S
C3468 C3467 1.355 . S
C3468 C3470 1.419 . S
C3469 C3464 1.425 . S
C3469 C3466 1.409 . S
C3469 C3467 1.415 . S
C3470 H3460 0.930 . S
C3470 C3468 1.419 . S
C3470 C3471 1.362 . S
C3471 H3461 0.930 . S
C3471 C3464 1.409 . S
C3471 C3470 1.362 . S
H3472 C3478 0.930 . S
H3473 C3481 0.930 . S
H3474 C3482 0.930 . S
H3475 C3483 0.930 . S
H3476 C3486 0.930 . S
H3477 C3487 0.930 . S
C3478 H3472 0.930 . S
C3478 C3479 1.355 . S
C3478 C3480 1.415 . S
C3479 C3478 1.355 . S
C3479 C3481 1.419 . S
C3480 C3478 1.415 . S
C3480 C3485 1.425 . S
C3480 C3487 1.409 . S
C3481 H3473 0.930 . S
C3481 C3479 1.419 . S
C3481 C3482 1.362 . S
C3482 H3474 0.930 . S
C3482 C3481 1.362 . S
C3482 C3485 1.409 . S
C3483 H3475 0.930 . S
C3483 C3484 1.355 . S
C3483 C3485 1.415 . S
C3484 C3483 1.355 . S
C3484 C3486 1.419 . S
C3485 C3480 1.425 . S
C3485 C3482 1.409 . S
C3485 C3483 1.415 . S
C3486 H3476 0.930 . S
C3486 C3484 1.419 . S
C3486 C3487 1.362 . S
C3487 H3477 0.930 . S
C3487 C3480 1.409 . S
C3487 C3486 1.362 . S
H3488 C3494 0.930 . S
H3489 C3497 0.930 . S
H3490 C3498 0.930 . S
H3491 C3499 0.930 . S
H3492 C3502 0.930 . S
H3493 C3503 0.930 . S
C3494 H3488 0.930 . S
C3494 C3495 1.355 . S
C3494 C3496 1.415 . S
C3495 C3494 1.355 . S
C3495 C3497 1.419 . S
C3496 C3494 1.415 . S
C3496 C3501 1.425 . S
C3496 C3503 1.409 . S
C3497 H3489 0.930 . S
C3497 C3495 1.419 . S
C3497 C3498 1.362 . S
C3498 H3490 0.930 . S
C3498 C3497 1.362 . S
C3498 C3501 1.409 . S
C3499 H3491 0.930 . S
C3499 C3500 1.355 . S
C3499 C3501 1.415 . S
C3500 C3499 1.355 . S
C3500 C3502 1.419 . S
C3501 C3496 1.425 . S
C3501 C3498 1.409 . S
C3501 C3499 1.415 . S
C3502 H3492 0.930 . S
C3502 C3500 1.419 . S
C3502 C3503 1.362 . S
C3503 H3493 0.930 . S
C3503 C3496 1.409 . S
C3503 C3502 1.362 . S
C1591 C1044 1.409 . S
C1596 C21 1.352 . S
C1607 C54 1.314 . S
C1612 C945 1.365 . S
C1623 C87 1.321 . S
C1628 C978 1.384 . S
C1639 C1011 1.411 . S
C1644 C120 1.361 . S
C1655 C846 1.411 . S
C1660 C153 1.380 . S
C1671 C879 1.398 . S
C1676 C186 1.401 . S
C1687 C219 1.405 . S
C1692 C912 1.344 . S
C1703 C252 1.313 . S
C1708 C813 1.356 . S
C1719 C285 1.330 . S
C1724 C1473 1.322 . S
C1735 C318 1.335 . S
C1740 C1374 1.399 . S
C1751 C351 1.410 . S
C1756 C1407 1.359 . S
C1767 C384 1.363 . S
C1772 C1440 1.314 . S
C1783 C1572 1.406 . S
C1788 C417 1.392 . S
C1799 C450 1.404 . S
C1804 C1506 1.395 . S
C1815 C483 1.401 . S
C1820 C1539 1.398 . S
C1831 C1341 1.349 . S
C1836 C516 1.407 . S
C1847 C549 1.411 . S
C1852 C1308 1.364 . S
C1863 C1110 1.396 . S
C1868 C582 1.403 . S
C1879 C1143 1.319 . S
C1884 C615 1.380 . S
C1895 C1176 1.408 . S
C1900 C648 1.350 . S
C1911 C681 1.322 . S
C1916 C1077 1.384 . S
C1927 C714 1.409 . S
C1932 C1242 1.353 . S
C1943 C1275 1.409 . S
C1948 C747 1.385 . S
C1959 C780 1.316 . S
C1964 C1209 1.341 . S
C1975 C73 1.182 . S
C1980 C7 1.179 . S
C1991 C40 1.177 . S
C1996 C106 1.187 . S
C2007 C205 1.185 . S
C2012 C139 1.192 . S
C2023 C238 1.192 . S
C2028 C172 1.183 . S
C2039 C271 1.180 . S
C2044 C403 1.180 . S
C2055 C436 1.179 . S
C2060 C304 1.182 . S
C2071 C469 1.189 . S
C2076 C337 1.177 . S
C2087 C502 1.186 . S
C2092 C370 1.191 . S
C2103 C634 1.183 . S
C2108 C535 1.192 . S
C2119 C568 1.187 . S
C2124 C700 1.177 . S
C2135 C601 1.187 . S
C2140 C733 1.191 . S
C2151 C667 1.178 . S
C2156 C766 1.190 . S
C2167 C865 1.192 . S
C2172 C799 1.180 . S
C2183 C898 1.180 . S
C2188 C832 1.180 . S
C2199 C997 1.187 . S
C2204 C931 1.191 . S
C2215 C1030 1.191 . S
C2220 C964 1.186 . S
C2231 C1063 1.192 . S
C2236 C1195 1.184 . S
C2247 C1096 1.187 . S
C2252 C1228 1.191 . S
C2263 C1261 1.181 . S
C2268 C1129 1.179 . S
C2279 C1294 1.183 . S
C2284 C1162 1.178 . S
C2295 C1327 1.187 . S
C2300 C1426 1.177 . S
C2311 C1492 1.177 . S
C2316 C1360 1.185 . S
C2327 C1525 1.177 . S
C2332 C1393 1.189 . S
C2343 C1558 1.178 . S
C2348 C1459 1.191 . S
C2359 N739 0.700 . S
C2364 N13 0.808 . S
C2375 N46 0.710 . S
C2380 N541 0.711 . S
C2391 N79 0.837 . S
C2396 N772 0.718 . S
C2407 N112 0.798 . S
C2412 N706 0.896 . S
C2423 N145 0.725 . S
C2428 N607 0.845 . S
C2439 N640 0.828 . S
C2444 N178 0.904 . S
C2455 N211 0.902 . S
C2460 N673 0.820 . S
C2471 N244 0.792 . S
C2476 N574 0.694 . S
C2487 N277 0.691 . S
C2492 N442 0.779 . S
C2503 N475 0.892 . S
C2508 N310 0.790 . S
C2519 N508 0.905 . S
C2524 N343 0.840 . S
C2535 N409 0.690 . S
C2540 N376 0.757 . S
C2551 N805 0.774 . S
C2556 N1531 0.690 . S
C2567 N1333 0.747 . S
C2572 N838 0.691 . S
C2583 N1564 0.859 . S
C2588 N871 0.739 . S
C2599 N904 0.893 . S
C2604 N1498 0.884 . S
C2615 N1399 0.691 . S
C2620 N937 0.777 . S
C2631 N1432 0.758 . S
C2636 N970 0.874 . S
C2647 N1465 0.691 . S
C2652 N1003 0.777 . S
C2663 N1036 0.796 . S
C2668 N1366 0.695 . S
C2679 N1069 0.690 . S
C2684 N1234 0.756 . S
C2695 N1102 0.833 . S
C2700 N1267 0.715 . S
C2711 N1300 0.839 . S
C2716 N1135 0.720 . S
C2727 N1201 0.717 . S
C2732 N1168 0.705 . S
C2743 C18 2.115 . S
C2748 N596 1.895 1_554 S
C2759 N629 1.893 1_554 S
C2764 C51 2.095 . S
C2775 C84 2.101 . S
C2780 N662 1.956 1_554 S
C2791 N563 1.952 1_554 S
C2796 C117 2.116 . S
C2807 C150 2.110 . S
C2812 N728 1.961 1_556 S
C2823 N530 1.930 1_556 S
C2828 C183 2.119 . S
C2839 N761 1.955 1_556 S
C2844 C216 2.100 . S
C2855 C249 2.116 . S
C2860 N695 1.950 1_556 S
C2871 N299 1.952 1_455 S
C2876 C282 2.116 . S
C2887 C315 2.112 . S
C2892 N332 1.960 1_545 S
C2903 C348 2.104 . S
C2908 N365 1.960 1_655 S
C2919 N266 1.905 1_565 S
C2924 C381 2.093 . S
C2935 C414 2.112 . S
C2940 N497 1.884 1_455 S
C2951 C447 2.107 . S
C2956 N398 1.878 1_545 S
C2967 C480 2.103 . S
C2972 N431 1.959 1_655 S
C2983 N464 1.913 1_565 S
C2988 C513 2.093 . S
C2999 N101 1.959 1_545 S
C3004 C546 2.103 . S
C3015 C579 2.117 . S
C3020 N167 1.949 1_565 S
C3031 N200 1.937 1_455 S
C3036 C612 2.119 . S
C3047 N233 1.912 1_545 S
C3052 C645 2.093 . S
C3063 C678 2.106 . S
C3068 N134 1.877 1_655 S
C3079 N35 1.884 1_565 S
C3084 C711 2.111 . S
C3095 C744 2.111 . S
C3100 N68 1.884 1_455 S
C3111 N2 1.890 1_655 S
C3116 C777 2.096 . S
C3127 C810 2.108 . S
C3132 N1388 1.879 . S
C3143 N1421 1.902 . S
C3148 C843 2.093 . S
C3159 C876 2.109 . S
C3164 N1454 1.880 . S
C3175 N1355 1.935 . S
C3180 C909 2.119 . S
C3191 C942 2.103 . S
C3196 N1520 1.877 . S
C3207 C975 2.113 . S
C3212 N1322 1.887 . S
C3223 C1008 2.102 . S
C3228 N1553 1.958 . S
C3239 N1487 1.960 . S
C3244 C1041 2.112 . S
C3255 C1074 2.115 . S
C3260 N1091 1.953 . S
C3271 N1124 1.962 . S
C3276 C1107 2.106 . S
C3287 N1157 1.955 . S
C3292 C1140 2.115 . S
C3303 C1173 2.115 . S
C3308 N1058 1.893 . S
C3319 C1206 2.093 . S
C3324 N1289 1.916 . S
C3335 C1239 2.098 . S
C3340 N1190 1.884 . S
C3351 C1272 2.096 . S
C3356 N1223 1.942 . S
C3367 C1305 2.100 . S
C3372 N1256 1.955 . S
C3383 C1338 2.111 . S
C3388 N893 1.961 . S
C3399 N959 1.962 . S
C3404 C1371 2.106 . S
C3415 N992 1.962 . S
C3420 C1404 2.108 . S
C3431 N1025 1.881 . S
C3436 C1437 2.099 . S
C3447 N926 1.949 . S
C3452 C1470 2.117 . S
C3463 N827 1.892 . S
C3468 C1503 2.095 . S
C3479 N860 1.903 . S
C3484 C1536 2.117 . S
C3495 N794 1.936 . S
C3500 C1569 2.119 . S
