# Generated by pormake.
# Topology sms, (6)-cn, num edge types: 1
# Building blocks:
#     Node 0, Type 0, BuildingBlock: OJICUG_clean_sbu_0, # of connection points: 6
#     Node 1, Type 0, BuildingBlock: OJICUG_clean_sbu_0, # of connection points: 6
#     Node 2, Type 0, BuildingBlock: OJICUG_clean_sbu_0, # of connection points: 6
#     Node 3, Type 0, BuildingBlock: OJICUG_clean_sbu_0, # of connection points: 6
#     Node 4, Type 0, BuildingBlock: OJICUG_clean_sbu_0, # of connection points: 6
#     Node 5, Type 0, BuildingBlock: OJICUG_clean_sbu_0, # of connection points: 6
#     Node 6, Type 0, BuildingBlock: OJICUG_clean_sbu_0, # of connection points: 6
#     Node 7, Type 0, BuildingBlock: OJICUG_clean_sbu_0, # of connection points: 6
#     Node 8, Type 0, BuildingBlock: OJICUG_clean_sbu_0, # of connection points: 6
#     Node 9, Type 0, BuildingBlock: OJICUG_clean_sbu_0, # of connection points: 6
#     Node 10, Type 0, BuildingBlock: OJICUG_clean_sbu_0, # of connection points: 6
#     Node 11, Type 0, BuildingBlock: OJICUG_clean_sbu_0, # of connection points: 6
#     Node 12, Type 0, BuildingBlock: OJICUG_clean_sbu_0, # of connection points: 6
#     Node 13, Type 0, BuildingBlock: OJICUG_clean_sbu_0, # of connection points: 6
#     Node 14, Type 0, BuildingBlock: OJICUG_clean_sbu_0, # of connection points: 6
#     Node 15, Type 0, BuildingBlock: OJICUG_clean_sbu_0, # of connection points: 6
#     Node 16, Type 0, BuildingBlock: OJICUG_clean_sbu_0, # of connection points: 6
#     Node 17, Type 0, BuildingBlock: OJICUG_clean_sbu_0, # of connection points: 6
#     Edge 18, Type (0, 0), BuildingBlock: KIFKEQ_clean_linker_1, # of connection points: 2
#     Edge 19, Type (0, 0), BuildingBlock: KIFKEQ_clean_linker_1, # of connection points: 2
#     Edge 20, Type (0, 0), BuildingBlock: KIFKEQ_clean_linker_1, # of connection points: 2
#     Edge 21, Type (0, 0), BuildingBlock: KIFKEQ_clean_linker_1, # of connection points: 2
#     Edge 22, Type (0, 0), BuildingBlock: KIFKEQ_clean_linker_1, # of connection points: 2
#     Edge 23, Type (0, 0), BuildingBlock: KIFKEQ_clean_linker_1, # of connection points: 2
#     Edge 24, Type (0, 0), BuildingBlock: KIFKEQ_clean_linker_1, # of connection points: 2
#     Edge 25, Type (0, 0), BuildingBlock: KIFKEQ_clean_linker_1, # of connection points: 2
#     Edge 26, Type (0, 0), BuildingBlock: KIFKEQ_clean_linker_1, # of connection points: 2
#     Edge 27, Type (0, 0), BuildingBlock: KIFKEQ_clean_linker_1, # of connection points: 2
#     Edge 28, Type (0, 0), BuildingBlock: KIFKEQ_clean_linker_1, # of connection points: 2
#     Edge 29, Type (0, 0), BuildingBlock: KIFKEQ_clean_linker_1, # of connection points: 2
#     Edge 30, Type (0, 0), BuildingBlock: KIFKEQ_clean_linker_1, # of connection points: 2
#     Edge 31, Type (0, 0), BuildingBlock: KIFKEQ_clean_linker_1, # of connection points: 2
#     Edge 32, Type (0, 0), BuildingBlock: KIFKEQ_clean_linker_1, # of connection points: 2
#     Edge 33, Type (0, 0), BuildingBlock: KIFKEQ_clean_linker_1, # of connection points: 2
#     Edge 34, Type (0, 0), BuildingBlock: KIFKEQ_clean_linker_1, # of connection points: 2
#     Edge 35, Type (0, 0), BuildingBlock: KIFKEQ_clean_linker_1, # of connection points: 2
#     Edge 36, Type (0, 0), BuildingBlock: KIFKEQ_clean_linker_1, # of connection points: 2
#     Edge 37, Type (0, 0), BuildingBlock: KIFKEQ_clean_linker_1, # of connection points: 2
#     Edge 38, Type (0, 0), BuildingBlock: KIFKEQ_clean_linker_1, # of connection points: 2
#     Edge 39, Type (0, 0), BuildingBlock: KIFKEQ_clean_linker_1, # of connection points: 2
#     Edge 40, Type (0, 0), BuildingBlock: KIFKEQ_clean_linker_1, # of connection points: 2
#     Edge 41, Type (0, 0), BuildingBlock: KIFKEQ_clean_linker_1, # of connection points: 2
#     Edge 42, Type (0, 0), BuildingBlock: KIFKEQ_clean_linker_1, # of connection points: 2
#     Edge 43, Type (0, 0), BuildingBlock: KIFKEQ_clean_linker_1, # of connection points: 2
#     Edge 44, Type (0, 0), BuildingBlock: KIFKEQ_clean_linker_1, # of connection points: 2
#     Edge 45, Type (0, 0), BuildingBlock: KIFKEQ_clean_linker_1, # of connection points: 2
#     Edge 46, Type (0, 0), BuildingBlock: KIFKEQ_clean_linker_1, # of connection points: 2
#     Edge 47, Type (0, 0), BuildingBlock: KIFKEQ_clean_linker_1, # of connection points: 2
#     Edge 48, Type (0, 0), BuildingBlock: KIFKEQ_clean_linker_1, # of connection points: 2
#     Edge 49, Type (0, 0), BuildingBlock: KIFKEQ_clean_linker_1, # of connection points: 2
#     Edge 50, Type (0, 0), BuildingBlock: KIFKEQ_clean_linker_1, # of connection points: 2
#     Edge 51, Type (0, 0), BuildingBlock: KIFKEQ_clean_linker_1, # of connection points: 2
#     Edge 52, Type (0, 0), BuildingBlock: KIFKEQ_clean_linker_1, # of connection points: 2
#     Edge 53, Type (0, 0), BuildingBlock: KIFKEQ_clean_linker_1, # of connection points: 2
#     Edge 54, Type (0, 0), BuildingBlock: KIFKEQ_clean_linker_1, # of connection points: 2
#     Edge 55, Type (0, 0), BuildingBlock: KIFKEQ_clean_linker_1, # of connection points: 2
#     Edge 56, Type (0, 0), BuildingBlock: KIFKEQ_clean_linker_1, # of connection points: 2
#     Edge 57, Type (0, 0), BuildingBlock: KIFKEQ_clean_linker_1, # of connection points: 2
#     Edge 58, Type (0, 0), BuildingBlock: KIFKEQ_clean_linker_1, # of connection points: 2
#     Edge 59, Type (0, 0), BuildingBlock: KIFKEQ_clean_linker_1, # of connection points: 2
#     Edge 60, Type (0, 0), BuildingBlock: KIFKEQ_clean_linker_1, # of connection points: 2
#     Edge 61, Type (0, 0), BuildingBlock: KIFKEQ_clean_linker_1, # of connection points: 2
#     Edge 62, Type (0, 0), BuildingBlock: KIFKEQ_clean_linker_1, # of connection points: 2
#     Edge 63, Type (0, 0), BuildingBlock: KIFKEQ_clean_linker_1, # of connection points: 2
#     Edge 64, Type (0, 0), BuildingBlock: KIFKEQ_clean_linker_1, # of connection points: 2
#     Edge 65, Type (0, 0), BuildingBlock: KIFKEQ_clean_linker_1, # of connection points: 2
#     Edge 66, Type (0, 0), BuildingBlock: KIFKEQ_clean_linker_1, # of connection points: 2
#     Edge 67, Type (0, 0), BuildingBlock: KIFKEQ_clean_linker_1, # of connection points: 2
#     Edge 68, Type (0, 0), BuildingBlock: KIFKEQ_clean_linker_1, # of connection points: 2
#     Edge 69, Type (0, 0), BuildingBlock: KIFKEQ_clean_linker_1, # of connection points: 2
#     Edge 70, Type (0, 0), BuildingBlock: KIFKEQ_clean_linker_1, # of connection points: 2
#     Edge 71, Type (0, 0), BuildingBlock: KIFKEQ_clean_linker_1, # of connection points: 2
# Relax obj value: 0.417
# Max RMSD: 0.152
# Mean RMSD: 0.152
data_MOF--net-sms--node1-OJICUG_clean_sbu_0--edge1-KIFKEQ_clean_linker_1
_symmetry_space_group_name_H-M    P1
_symmetry_Int_Tables_number       1
_symmetry_cell_setting            triclinic
loop_
_symmetry_equiv_pos_as_xyz
'x, y, z'
_cell_length_a     41.090793
_cell_length_b     41.073056
_cell_length_c     57.988952
_cell_angle_alpha  90.077345
_cell_angle_beta   89.863579
_cell_angle_gamma 119.94295
loop_
_atom_site_label
_atom_site_type_symbol
_atom_site_fract_x
_atom_site_fract_y
_atom_site_fract_z
_atom_type_partial_charge
Sc0 Sc 0.2093 0.41627 0.03279 0.0
Sc1 Sc 0.1676 0.33549 0.0685 0.0
Sc2 Sc 0.21282 0.42529 0.09298 0.0
O3 O 0.1964 0.39235 0.06465 0.0
C4 C 0.28343 0.47216 0.05962 0.0
C5 C 0.22357 0.34696 0.02738 0.0
C6 C 0.23187 0.36185 0.10599 0.0
C7 C 0.12592 0.34841 0.02617 0.0
C8 C 0.18578 0.46914 0.06076 0.0
C9 C 0.13202 0.35882 0.10864 0.0
O10 O 0.26747 0.4547 0.04121 0.0
O11 O 0.20373 0.32909 0.04468 0.0
O12 O 0.23953 0.39588 0.10601 0.0
O13 O 0.15254 0.38091 0.02078 0.0
O14 O 0.1882 0.45762 0.08074 0.0
O15 O 0.12822 0.33643 0.09248 0.0
O16 O 0.19411 0.45798 0.0423 0.0
O17 O 0.12839 0.32876 0.0422 0.0
O18 O 0.16177 0.39014 0.11168 0.0
O19 O 0.22671 0.37773 0.02031 0.0
O20 O 0.26623 0.46538 0.07876 0.0
O21 O 0.20411 0.33573 0.09535 0.0
Sc22 Sc 0.5826 0.79132 0.03427 0.0
Sc23 Sc 0.66322 0.82685 0.06982 0.0
Sc24 Sc 0.57313 0.78366 0.09472 0.0
O25 O 0.60629 0.80066 0.06624 0.0
C26 C 0.52934 0.81279 0.06278 0.0
C27 C 0.65436 0.87275 0.02823 0.0
C28 C 0.64002 0.8644 0.10954 0.0
C29 C 0.64829 0.77163 0.02771 0.0
C30 C 0.52706 0.71481 0.0605 0.0
C31 C 0.63686 0.7654 0.10945 0.0
O32 O 0.54407 0.81065 0.0439 0.0
O33 O 0.67276 0.86847 0.04434 0.0
O34 O 0.60675 0.83684 0.11138 0.0
O35 O 0.61798 0.7701 0.02117 0.0
O36 O 0.53659 0.72866 0.08064 0.0
O37 O 0.6615 0.78795 0.09543 0.0
O38 O 0.54077 0.73404 0.04223 0.0
O39 O 0.66726 0.79085 0.04489 0.0
O40 O 0.60415 0.76104 0.11095 0.0
O41 O 0.62121 0.8477 0.02279 0.0
O42 O 0.53734 0.80397 0.08209 0.0
O43 O 0.66392 0.86561 0.09514 0.0
Sc44 Sc 0.20989 0.78984 0.03497 0.0
Sc45 Sc 0.16907 0.82911 0.07109 0.0
Sc46 Sc 0.21667 0.78684 0.09484 0.0
O47 O 0.19886 0.80226 0.06684 0.0
C48 C 0.19407 0.71655 0.06144 0.0
C49 C 0.12508 0.77278 0.03062 0.0
C50 C 0.13405 0.76483 0.10858 0.0
C51 C 0.22155 0.87129 0.02783 0.0
C52 C 0.28714 0.81526 0.06257 0.0
C53 C 0.22751 0.86655 0.11054 0.0
O54 O 0.18984 0.73165 0.04343 0.0
O55 O 0.12605 0.79042 0.0488 0.0
O56 O 0.16037 0.75718 0.10745 0.0
O57 O 0.23114 0.84685 0.02356 0.0
O58 O 0.27378 0.81453 0.08255 0.0
O59 O 0.21004 0.87039 0.09376 0.0
O60 O 0.26692 0.80482 0.0444 0.0
O61 O 0.19779 0.86705 0.04328 0.0
O62 O 0.22908 0.83681 0.114 0.0
O63 O 0.1538 0.77265 0.02237 0.0
O64 O 0.20656 0.7345 0.08019 0.0
O65 O 0.13571 0.79358 0.09926 0.0
Sc66 Sc 0.43433 0.20925 0.88674 0.0
Sc67 Sc 0.34193 0.16932 0.90735 0.0
Sc68 Sc 0.41895 0.20533 0.94641 0.0
O69 O 0.39838 0.19459 0.91358 0.0
C70 C 0.47274 0.17993 0.92222 0.0
C71 C 0.36736 0.12919 0.87084 0.0
C72 C 0.34696 0.12363 0.95037 0.0
C73 C 0.37536 0.23264 0.86909 0.0
C74 C 0.47798 0.27979 0.92029 0.0
C75 C 0.35254 0.2245 0.94878 0.0
O76 O 0.46548 0.18568 0.90187 0.0
O77 O 0.34187 0.12981 0.88286 0.0
O78 O 0.37932 0.14886 0.95708 0.0
O79 O 0.40748 0.23533 0.86934 0.0
O80 O 0.46107 0.2627 0.93865 0.0
O81 O 0.33555 0.20548 0.93108 0.0
O82 O 0.47157 0.26381 0.90073 0.0
O83 O 0.34777 0.20883 0.88097 0.0
O84 O 0.38206 0.22604 0.95681 0.0
O85 O 0.40113 0.15591 0.87034 0.0
O86 O 0.45899 0.18665 0.94006 0.0
O87 O 0.33003 0.12783 0.93333 0.0
Sc88 Sc 0.78509 0.21208 0.88197 0.0
Sc89 Sc 0.83294 0.16758 0.90356 0.0
Sc90 Sc 0.79246 0.20472 0.94193 0.0
O91 O 0.8035 0.19479 0.90918 0.0
C92 C 0.81171 0.28134 0.91666 0.0
C93 C 0.86545 0.22966 0.86407 0.0
C94 C 0.8774 0.22215 0.94509 0.0
C95 C 0.76907 0.13114 0.86574 0.0
C96 C 0.7155 0.18347 0.91654 0.0
C97 C 0.78092 0.12232 0.9464 0.0
O98 O 0.80397 0.26675 0.89663 0.0
O99 O 0.86795 0.20616 0.87704 0.0
O100 O 0.8494 0.22404 0.95286 0.0
O101 O 0.7643 0.15934 0.86466 0.0
O102 O 0.73439 0.18699 0.93465 0.0
O103 O 0.80249 0.12618 0.92962 0.0
O104 O 0.73012 0.19112 0.89654 0.0
O105 O 0.7922 0.12902 0.87926 0.0
O106 O 0.77398 0.14791 0.95265 0.0
O107 O 0.83762 0.23501 0.86421 0.0
O108 O 0.8092 0.2626 0.9347 0.0
O109 O 0.8757 0.20317 0.92737 0.0
Sc110 Sc 0.79445 0.56761 0.88557 0.0
Sc111 Sc 0.83138 0.65883 0.90776 0.0
Sc112 Sc 0.79265 0.58019 0.9454 0.0
O113 O 0.80601 0.60218 0.91297 0.0
C114 C 0.72065 0.52248 0.91646 0.0
C115 C 0.77408 0.62823 0.8662 0.0
C116 C 0.77305 0.64621 0.94782 0.0
C117 C 0.87545 0.63511 0.87284 0.0
C118 C 0.81912 0.52661 0.92248 0.0
C119 C 0.87444 0.65177 0.95148 0.0
O120 O 0.73784 0.53052 0.89718 0.0
O121 O 0.79264 0.65337 0.88111 0.0
O122 O 0.77006 0.61567 0.95509 0.0
O123 O 0.85013 0.60077 0.87241 0.0
O124 O 0.81253 0.54089 0.94009 0.0
O125 O 0.87199 0.66919 0.93406 0.0
O126 O 0.81404 0.534 0.90203 0.0
O127 O 0.87205 0.66029 0.88346 0.0
O128 O 0.8479 0.61989 0.95802 0.0
O129 O 0.77351 0.59704 0.8653 0.0
O130 O 0.73658 0.53817 0.93534 0.0
O131 O 0.79438 0.66477 0.93121 0.0
Sc132 Sc 0.86716 0.7436 0.36687 0.0
Sc133 Sc 0.8293 0.6645 0.40383 0.0
Sc134 Sc 0.87405 0.75571 0.42709 0.0
O135 O 0.85678 0.72129 0.39923 0.0
C136 C 0.9435 0.79947 0.39228 0.0
C137 C 0.88285 0.67498 0.36156 0.0
C138 C 0.89276 0.69257 0.44219 0.0
C139 C 0.78403 0.67435 0.36226 0.0
C140 C 0.84632 0.7988 0.3942 0.0
C141 C 0.79382 0.6896 0.44366 0.0
O142 O 0.92541 0.78269 0.3742 0.0
O143 O 0.86427 0.6577 0.37934 0.0
O144 O 0.89852 0.72591 0.44268 0.0
O145 O 0.80971 0.70707 0.3564 0.0
O146 O 0.85136 0.78925 0.41413 0.0
O147 O 0.79113 0.66558 0.42888 0.0
O148 O 0.8519 0.78555 0.37569 0.0
O149 O 0.78806 0.6556 0.37828 0.0
O150 O 0.82225 0.72232 0.44532 0.0
O151 O 0.88485 0.70515 0.35426 0.0
O152 O 0.92823 0.7932 0.41212 0.0
O153 O 0.86818 0.6668 0.42958 0.0
Sc154 Sc 0.24371 0.11499 0.36243 0.0
Sc155 Sc 0.32161 0.15708 0.40061 0.0
Sc156 Sc 0.23007 0.10188 0.42204 0.0
O157 O 0.26516 0.12459 0.39496 0.0
C158 C 0.18425 0.12817 0.38972 0.0
C159 C 0.30895 0.20114 0.36001 0.0
C160 C 0.2873 0.18469 0.43979 0.0
C161 C 0.31624 0.10655 0.35717 0.0
C162 C 0.1911 0.03498 0.38645 0.0
C163 C 0.29957 0.09184 0.43663 0.0
O164 O 0.20251 0.13108 0.37132 0.0
O165 O 0.3259 0.19973 0.37786 0.0
O166 O 0.2555 0.15487 0.43939 0.0
O167 O 0.283 0.09775 0.35125 0.0
O168 O 0.20048 0.04713 0.40688 0.0
O169 O 0.32395 0.11788 0.42412 0.0
O170 O 0.20308 0.0563 0.36884 0.0
O171 O 0.33374 0.12893 0.37366 0.0
O172 O 0.26558 0.08401 0.43792 0.0
O173 O 0.2804 0.1725 0.35166 0.0
O174 O 0.1903 0.11647 0.40863 0.0
O175 O 0.31519 0.18918 0.42788 0.0
Sc176 Sc 0.87139 0.11799 0.36452 0.0
Sc177 Sc 0.83059 0.15958 0.39864 0.0
Sc178 Sc 0.87939 0.11961 0.42501 0.0
O179 O 0.86046 0.13234 0.39606 0.0
C180 C 0.85247 0.04546 0.39426 0.0
C181 C 0.78662 0.1004 0.35922 0.0
C182 C 0.79872 0.10366 0.4412 0.0
C183 C 0.88341 0.19936 0.35511 0.0
C184 C 0.9484 0.14227 0.39105 0.0
C185 C 0.89381 0.202 0.43611 0.0
O186 O 0.85284 0.06094 0.37517 0.0
O187 O 0.78766 0.12022 0.37631 0.0
O188 O 0.82637 0.09801 0.44223 0.0
O189 O 0.89186 0.174 0.35113 0.0
O190 O 0.93487 0.13998 0.41111 0.0
O191 O 0.87121 0.20201 0.42124 0.0
O192 O 0.92866 0.13438 0.37287 0.0
O193 O 0.8604 0.19646 0.37071 0.0
O194 O 0.89869 0.17421 0.43963 0.0
O195 O 0.81511 0.09877 0.35218 0.0
O196 O 0.86204 0.06337 0.41327 0.0
O197 O 0.79641 0.1255 0.42672 0.0
Sc198 Sc 0.08846 0.54444 0.21374 0.0
Sc199 Sc -0.00199 0.4978 0.23739 0.0
Sc200 Sc 0.07774 0.53637 0.27391 0.0
O201 O 0.05479 0.52605 0.24178 0.0
C202 C 0.13195 0.51552 0.24518 0.0
C203 C 0.02275 0.46413 0.19674 0.0
C204 C 0.00896 0.45289 0.27866 0.0
C205 C 0.02487 0.56341 0.20087 0.0
C206 C 0.13394 0.6129 0.24867 0.0
C207 C 0.0087 0.55133 0.27973 0.0
O208 O 0.12173 0.52053 0.2254 0.0
O209 O -0.0004 0.45971 0.21259 0.0
O210 O 0.04174 0.47854 0.28442 0.0
O211 O 0.05885 0.57104 0.2009 0.0
O212 O 0.11698 0.59525 0.26688 0.0
O213 O 0.99141 0.53286 0.26191 0.0
O214 O 0.12706 0.59727 0.22902 0.0
O215 O -0.00133 0.53549 0.21131 0.0
O216 O 0.03897 0.55344 0.28696 0.0
O217 O 0.05433 0.4939 0.19439 0.0
O218 O 0.11932 0.52117 0.26397 0.0
O219 O 0.99005 0.4572 0.26294 0.0
Sc220 Sc 0.44308 0.53664 0.21508 0.0
Sc221 Sc 0.49085 0.49479 0.23976 0.0
Sc222 Sc 0.45109 0.53624 0.27535 0.0
O223 O 0.46186 0.52281 0.24349 0.0
C224 C 0.47171 0.61012 0.24574 0.0
C225 C 0.52433 0.55233 0.19881 0.0
C226 C 0.53415 0.55044 0.28148 0.0
C227 C 0.42593 0.45448 0.20293 0.0
C228 C 0.37446 0.51431 0.24979 0.0
C229 C 0.436 0.45232 0.28165 0.0
O230 O 0.46622 0.59408 0.22617 0.0
O231 O 0.52907 0.53443 0.21503 0.0
O232 O 0.50835 0.55774 0.28658 0.0
O233 O 0.41747 0.48024 0.20272 0.0
O234 O 0.39266 0.51718 0.26809 0.0
O235 O 0.45528 0.45346 0.2642 0.0
O236 O 0.38947 0.52148 0.22993 0.0
O237 O 0.45418 0.45716 0.21346 0.0
O238 O 0.43347 0.48046 0.28858 0.0
O239 O 0.49413 0.55329 0.19606 0.0
O240 O 0.46652 0.59271 0.26479 0.0
O241 O 0.53072 0.52751 0.26573 0.0
Sc242 Sc 0.4431 0.90048 0.21254 0.0
Sc243 Sc 0.49539 0.98999 0.23764 0.0
Sc244 Sc 0.45396 0.90896 0.27281 0.0
O245 O 0.46411 0.93311 0.241 0.0
C246 C 0.37518 0.85733 0.2476 0.0
C247 C 0.4321 0.97028 0.20044 0.0
C248 C 0.44439 0.98005 0.28164 0.0
C249 C 0.52456 0.96209 0.19542 0.0
C250 C 0.46911 0.85258 0.24332 0.0
C251 C 0.53944 0.97483 0.277 0.0
O252 O 0.3877 0.8681 0.22729 0.0
O253 O 0.45534 0.99285 0.21506 0.0
O254 O 0.4354 0.94622 0.28601 0.0
O255 O 0.496 0.92929 0.19481 0.0
O256 O 0.47094 0.86919 0.26224 0.0
O257 O 0.53834 0.99317 0.25974 0.0
O258 O 0.45838 0.86021 0.22453 0.0
O259 O 0.52806 0.98728 0.20951 0.0
O260 O 0.51081 0.94531 0.28447 0.0
O261 O 0.42574 0.93698 0.19741 0.0
O262 O 0.39604 0.86872 0.26536 0.0
O263 O 0.46698 -0.00079 0.26562 0.0
Sc264 Sc 0.53862 0.0856 0.69428 0.0
Sc265 Sc 0.50046 0.00772 0.73245 0.0
Sc266 Sc 0.53548 0.09911 0.75393 0.0
O267 O 0.52501 0.06419 0.72684 0.0
C268 C 0.61007 0.14372 0.72348 0.0
C269 C 0.55913 0.01999 0.69295 0.0
C270 C 0.55607 0.0395 0.77475 0.0
C271 C 0.45795 0.01317 0.68793 0.0
C272 C 0.51142 0.13935 0.71615 0.0
C273 C 0.45435 0.03099 0.76603 0.0
O274 O 0.59497 0.12721 0.70458 0.0
O275 O 0.53942 0.00258 0.71037 0.0
O276 O 0.55719 0.07098 0.77485 0.0
O277 O 0.48296 0.04613 0.68186 0.0
O278 O 0.515 0.13162 0.73683 0.0
O279 O 0.45797 0.00599 0.75532 0.0
O280 O 0.51958 0.12561 0.69895 0.0
O281 O 0.46166 0.99597 0.705 0.0
O282 O 0.4798 0.06528 0.76693 0.0
O283 O 0.56031 0.04924 0.68475 0.0
O284 O 0.59197 0.13658 0.74241 0.0
O285 O 0.53732 0.01381 0.76023 0.0
Sc286 Sc 0.90877 0.4596 0.69509 0.0
Sc287 Sc 0.98914 0.49887 0.73103 0.0
Sc288 Sc 0.89909 0.45554 0.75524 0.0
O289 O 0.93234 0.47117 0.72702 0.0
C290 C 0.85298 0.47903 0.72121 0.0
C291 C 0.97827 0.54285 0.6894 0.0
C292 C 0.96272 0.53784 0.76814 0.0
C293 C 0.97645 0.4436 0.68894 0.0
C294 C 0.85555 0.38398 0.72346 0.0
C295 C 0.96495 0.44076 0.77164 0.0
O296 O 0.87048 0.47976 0.70296 0.0
O297 O 0.99601 0.54115 0.70684 0.0
O298 O 0.9286 0.5118 0.76804 0.0
O299 O 0.94407 0.43789 0.68348 0.0
O300 O 0.86671 0.39842 0.74336 0.0
O301 O 0.98756 0.45875 0.75543 0.0
O302 O 0.86695 0.40297 0.70485 0.0
O303 O 0.99605 0.46576 0.70498 0.0
O304 O 0.93378 0.43968 0.77443 0.0
O305 O 0.94751 0.5152 0.68243 0.0
O306 O 0.85944 0.46903 0.74056 0.0
O307 O 0.9888 0.53568 0.7577 0.0
Sc308 Sc 0.53386 0.45919 0.6941 0.0
Sc309 Sc 0.49845 0.50013 0.73354 0.0
Sc310 Sc 0.54053 0.44972 0.75366 0.0
O311 O 0.52431 0.46976 0.727 0.0
C312 C 0.51359 0.38187 0.71758 0.0
C313 C 0.45133 0.44858 0.69143 0.0
C314 C 0.45996 0.43277 0.76943 0.0
C315 C 0.55245 0.54425 0.69124 0.0
C316 C 0.6103 0.4785 0.72013 0.0
C317 C 0.55883 0.52998 0.77301 0.0
O318 O 0.51275 0.39998 0.70006 0.0
O319 O 0.4545 0.46728 0.70958 0.0
O320 O 0.48527 0.42377 0.76785 0.0
O321 O 0.55655 0.51712 0.68435 0.0
O322 O 0.59673 0.47409 0.74039 0.0
O323 O 0.54053 0.53635 0.75786 0.0
O324 O 0.59063 0.47206 0.70194 0.0
O325 O 0.53128 0.5415 0.70802 0.0
O326 O 0.55884 0.49918 0.77442 0.0
O327 O 0.47799 0.44473 0.68322 0.0
O328 O 0.52469 0.39716 0.73718 0.0
O329 O 0.46224 0.4618 0.76002 0.0
Sc330 Sc 0.75657 0.88228 0.54353 0.0
Sc331 Sc 0.66756 0.83684 0.56986 0.0
Sc332 Sc 0.74965 0.87787 0.60424 0.0
O333 O 0.72465 0.8657 0.57257 0.0
C334 C 0.80356 0.85738 0.57571 0.0
C335 C 0.69121 0.80042 0.52955 0.0
C336 C 0.6815 0.79423 0.61111 0.0
C337 C 0.68971 0.89693 0.53003 0.0
C338 C 0.80254 0.95349 0.57627 0.0
C339 C 0.68111 0.89258 0.61173 0.0
O340 O 0.79421 0.86406 0.55614 0.0
O341 O 0.6674 0.79894 0.5441 0.0
O342 O 0.71322 0.82156 0.61708 0.0
O343 O 0.72273 0.90223 0.52766 0.0
O344 O 0.78961 0.93529 0.59498 0.0
O345 O 0.66164 0.87123 0.59536 0.0
O346 O 0.79257 0.93829 0.55649 0.0
O347 O 0.6664 0.87469 0.54475 0.0
O348 O 0.71318 0.89747 0.61728 0.0
O349 O 0.72413 0.82841 0.52748 0.0
O350 O 0.78949 0.86057 0.59457 0.0
O351 O 0.66229 0.79617 0.59465 0.0
Sc352 Sc 0.12749 0.89473 0.54816 0.0
Sc353 Sc 0.16155 0.839 0.572 0.0
Sc354 Sc 0.1213 0.87936 0.60805 0.0
O355 O 0.13665 0.87096 0.5761 0.0
C356 C 0.14962 0.95981 0.58513 0.0
C357 C 0.20955 0.90761 0.5386 0.0
C358 C 0.20101 0.88692 0.61716 0.0
C359 C 0.10843 0.81442 0.52838 0.0
C360 C 0.05142 0.8657 0.57708 0.0
C361 C 0.1004 0.79318 0.61021 0.0
O362 O 0.14741 0.94811 0.56462 0.0
O363 O 0.20575 0.87977 0.55023 0.0
O364 O 0.17623 0.89589 0.62194 0.0
O365 O 0.10644 0.8443 0.52786 0.0
O366 O 0.06553 0.86427 0.59636 0.0
O367 O 0.12072 0.79517 0.59319 0.0
O368 O 0.07046 0.87649 0.55847 0.0
O369 O 0.12713 0.80829 0.54333 0.0
O370 O 0.09928 0.82146 0.61817 0.0
O371 O 0.18381 0.91587 0.53626 0.0
O372 O 0.14038 0.93826 0.60255 0.0
O373 O 0.19802 0.8655 0.60052 0.0
Sc374 Sc 0.12068 0.24202 0.54369 0.0
Sc375 Sc 0.15963 0.33274 0.5671 0.0
Sc376 Sc 0.11969 0.25297 0.60381 0.0
O377 O 0.13321 0.27589 0.57159 0.0
C378 C 0.04693 0.19659 0.57432 0.0
C379 C 0.10383 0.30535 0.52486 0.0
C380 C 0.10074 0.31934 0.60696 0.0
C381 C 0.20276 0.30851 0.53175 0.0
C382 C 0.14451 0.19892 0.57986 0.0
C383 C 0.20125 0.32438 0.61109 0.0
O384 O 0.06374 0.20591 0.55493 0.0
O385 O 0.12261 0.32968 0.54008 0.0
O386 O 0.09729 0.28842 0.61389 0.0
O387 O 0.17658 0.27453 0.53065 0.0
O388 O 0.14013 0.21435 0.59771 0.0
O389 O 0.19913 0.34192 0.59369 0.0
O390 O 0.13809 0.20613 0.55965 0.0
O391 O 0.20056 0.33369 0.54321 0.0
O392 O 0.1747 0.29227 0.61729 0.0
O393 O 0.10161 0.27342 0.52381 0.0
O394 O 0.06342 0.21088 0.59336 0.0
O395 O 0.12225 0.33828 0.59048 0.0
H396 H 0.20291 0.6768 0.09606 0.0
H397 H 0.1655 0.66622 0.0254 0.0
H398 H 0.19323 0.61377 0.09475 0.0
H399 H 0.15462 0.60203 0.02435 0.0
H400 H 0.1546 0.49266 0.09397 0.0
H401 H 0.14851 0.54866 0.09324 0.0
H402 H 0.19159 0.57163 0.02351 0.0
H403 H 0.19638 0.51501 0.02394 0.0
C404 C 0.1921 0.66086 0.08028 0.0
C405 C 0.18531 0.67686 0.06075 0.0
C406 C 0.18616 0.62438 0.07962 0.0
C407 C 0.17299 0.60263 0.05947 0.0
C408 C 0.16517 0.61815 0.04008 0.0
C409 C 0.17128 0.6549 0.04071 0.0
C410 C 0.16216 0.5093 0.07834 0.0
C411 C 0.17648 0.4996 0.05914 0.0
C412 C 0.15887 0.54155 0.07796 0.0
C413 C 0.17022 0.5651 0.05846 0.0
C414 C 0.18234 0.55411 0.03877 0.0
C415 C 0.18527 0.52163 0.03907 0.0
H416 H 0.4798 0.68142 0.02405 0.0
H417 H 0.50579 0.65866 0.09219 0.0
H418 H 0.42431 0.61912 0.02291 0.0
H419 H 0.45131 0.59572 0.09068 0.0
H420 H 0.32453 0.51731 0.09519 0.0
H421 H 0.38643 0.572 0.09393 0.0
H422 H 0.39551 0.55236 0.02155 0.0
H423 H 0.33217 0.49776 0.02259 0.0
C424 C 0.47416 0.66275 0.03856 0.0
C425 C 0.49682 0.67517 0.05837 0.0
C426 C 0.4424 0.62688 0.03786 0.0
C427 C 0.4329 0.60246 0.05685 0.0
C428 C 0.45713 0.6141 0.076 0.0
C429 C 0.4885 0.65013 0.07684 0.0
C430 C 0.33966 0.52426 0.07897 0.0
C431 C 0.32305 0.50318 0.05892 0.0
C432 C 0.37555 0.55563 0.07831 0.0
C433 C 0.39619 0.56675 0.05764 0.0
C434 C 0.38022 0.54491 0.03771 0.0
C435 C 0.34399 0.51348 0.03833 0.0
H436 H 0.50375 0.83542 0.02568 0.0
H437 H 0.48636 0.81283 0.09881 0.0
H438 H 0.44974 0.845 0.02456 0.0
H439 H 0.43196 0.82084 0.09752 0.0
H440 H 0.34333 0.85189 0.09427 0.0
H441 H 0.40635 0.86031 0.09335 0.0
H442 H 0.38364 0.80745 0.02627 0.0
H443 H 0.32141 0.80055 0.0268 0.0
C444 C 0.48864 0.83276 0.04155 0.0
C445 C 0.49934 0.823 0.06228 0.0
C446 C 0.45747 0.83801 0.04088 0.0
C447 C 0.43609 0.8334 0.0609 0.0
C448 C 0.44785 0.82521 0.08178 0.0
C449 C 0.47908 0.82027 0.08248 0.0
C450 C 0.35204 0.84263 0.07916 0.0
C451 C 0.32711 0.82518 0.06072 0.0
C452 C 0.38815 0.84724 0.07868 0.0
C453 C 0.40009 0.83404 0.05989 0.0
C454 C 0.37578 0.81835 0.04095 0.0
C455 C 0.33985 0.81419 0.0413 0.0
H456 H 0.52274 0.19712 0.95742 0.0
H457 H 0.48727 0.13698 0.89288 0.0
H458 H 0.5778 0.18938 0.95757 0.0
H459 H 0.54124 0.12753 0.8935 0.0
H460 H 0.66786 0.17836 0.88222 0.0
H461 H 0.60509 0.16864 0.88596 0.0
H462 H 0.60801 0.15283 0.95947 0.0
H463 H 0.67203 0.16408 0.95582 0.0
C464 C 0.52611 0.18118 0.94365 0.0
C465 C 0.50115 0.16823 0.92494 0.0
C466 C 0.55763 0.17659 0.94375 0.0
C467 C 0.56445 0.15846 0.92529 0.0
C468 C 0.53753 0.14263 0.90764 0.0
C469 C 0.50645 0.1478 0.90735 0.0
C470 C 0.65513 0.1724 0.8992 0.0
C471 C 0.67533 0.17251 0.91876 0.0
C472 C 0.61876 0.16642 0.90133 0.0
C473 C 0.60131 0.15998 0.92305 0.0
C474 C 0.62078 0.15828 0.94252 0.0
C475 C 0.65744 0.16454 0.94041 0.0
H476 H 0.79968 0.47593 0.95764 0.0
H477 H 0.86194 0.51106 0.89375 0.0
H478 H 0.80554 0.41966 0.95785 0.0
H479 H 0.86931 0.45583 0.8944 0.0
H480 H 0.81622 0.32916 0.88255 0.0
H481 H 0.82624 0.39211 0.88649 0.0
H482 H 0.8415 0.38829 0.95997 0.0
H483 H 0.83017 0.32424 0.95612 0.0
C484 C 0.81568 0.47221 0.94405 0.0
C485 C 0.82981 0.49748 0.92549 0.0
C486 C 0.81914 0.43998 0.94417 0.0
C487 C 0.83724 0.43275 0.92586 0.0
C488 C 0.85422 0.4599 0.9084 0.0
C489 C 0.85024 0.4917 0.9081 0.0
C490 C 0.82208 0.34172 0.89956 0.0
C491 C 0.822 0.32134 0.91904 0.0
C492 C 0.8282 0.37815 0.90181 0.0
C493 C 0.83476 0.39546 0.92357 0.0
C494 C 0.83609 0.37566 0.94299 0.0
C495 C 0.82976 0.33899 0.94075 0.0
H496 H 0.6806 0.47413 0.88172 0.0
H497 H 0.67104 0.50044 0.95276 0.0
H498 H 0.61865 0.41917 0.88384 0.0
H499 H 0.60802 0.4458 0.95463 0.0
H500 H 0.52432 0.31665 0.95658 0.0
H501 H 0.57991 0.37913 0.95608 0.0
H502 H 0.55355 0.39553 0.88641 0.0
H503 H 0.49912 0.33254 0.88665 0.0
C504 C 0.66499 0.46865 0.89769 0.0
C505 C 0.68104 0.49162 0.91713 0.0
C506 C 0.62918 0.43713 0.89887 0.0
C507 C 0.6082 0.4279 0.91943 0.0
C508 C 0.6236 0.45172 0.93863 0.0
C509 C 0.65967 0.48317 0.93751 0.0
C510 C 0.53016 0.33392 0.94133 0.0
C511 C 0.50782 0.31957 0.92154 0.0
C512 C 0.56194 0.36982 0.94104 0.0
C513 C 0.57163 0.39223 0.92105 0.0
C514 C 0.54759 0.37869 0.90186 0.0
C515 C 0.51627 0.34267 0.90203 0.0
H516 H 0.85927 0.00569 0.42984 0.0
H517 H 0.82442 0.99459 0.35862 0.0
H518 H 0.85064 0.94291 0.42886 0.0
H519 H 0.81441 0.93085 0.35789 0.0
H520 H 0.81536 0.82208 0.42757 0.0
H521 H 0.80865 0.87771 0.42707 0.0
H522 H 0.85145 0.90128 0.35727 0.0
H523 H 0.85669 0.84484 0.3575 0.0
C524 C 0.84906 0.98961 0.41406 0.0
C525 C 0.8429 0.00547 0.39424 0.0
C526 C 0.84381 0.95331 0.41355 0.0
C527 C 0.83189 0.93164 0.39327 0.0
C528 C 0.82423 0.94691 0.3737 0.0
C529 C 0.82978 0.98343 0.37415 0.0
C530 C 0.82275 0.83882 0.41198 0.0
C531 C 0.83696 0.82923 0.39266 0.0
C532 C 0.81914 0.87089 0.41174 0.0
C533 C 0.83013 0.89449 0.39228 0.0
C534 C 0.84239 0.88372 0.37251 0.0
C535 C 0.84556 0.85135 0.37266 0.0
H536 H 0.99065 0.84336 0.42653 0.0
H537 H 0.98743 0.82271 0.3532 0.0
H538 H 0.05411 0.89554 0.4228 0.0
H539 H 0.05181 0.87465 0.34959 0.0
H540 H 0.17421 0.97674 0.41572 0.0
H541 H 0.11807 0.91488 0.4154 0.0
H542 H 0.08369 0.94209 0.35128 0.0
H543 H 0.14059 0.00349 0.35122 0.0
C544 C 0.00365 0.84953 0.40962 0.0
C545 C 0.98363 0.82894 0.39014 0.0
C546 C 0.04034 0.87939 0.40751 0.0
C547 C 0.05823 0.88941 0.38587 0.0
C548 C 0.03875 0.86801 0.36647 0.0
C549 C 0.00186 0.83811 0.36857 0.0
C550 C 0.15505 0.96917 0.40129 0.0
C551 C 0.16156 0.99518 0.38365 0.0
C552 C 0.12272 0.9338 0.40119 0.0
C553 C 0.09586 0.92376 0.3836 0.0
C554 C 0.10378 0.94874 0.36506 0.0
C555 C 0.13642 0.98403 0.36503 0.0
H556 H 0.13715 0.12155 0.42491 0.0
H557 H 0.16232 0.15642 0.35367 0.0
H558 H 0.08466 0.13262 0.42401 0.0
H559 H 0.10998 0.16875 0.35302 0.0
H560 H 0.98205 0.1298 0.35401 0.0
H561 H 0.04277 0.13312 0.35304 0.0
H562 H 0.06533 0.17812 0.42228 0.0
H563 H 0.0039 0.17345 0.42356 0.0
C564 C 0.13185 0.13209 0.40909 0.0
C565 C 0.15388 0.13773 0.38928 0.0
C566 C 0.10182 0.13884 0.40865 0.0
C567 C 0.09304 0.15171 0.38846 0.0
C568 C 0.11569 0.15843 0.3688 0.0
C569 C 0.14577 0.15148 0.36919 0.0
C570 C 0.0002 0.14103 0.3689 0.0
C571 C 0.98782 0.15076 0.38901 0.0
C572 C 0.0352 0.14311 0.3683 0.0
C573 C 0.05877 0.15533 0.38772 0.0
C574 C 0.04748 0.16765 0.40722 0.0
C575 C 0.01233 0.16518 0.40792 0.0
H576 H 0.33948 0.52873 0.28528 0.0
H577 H 0.31975 0.47826 0.21769 0.0
H578 H 0.27711 0.52211 0.28486 0.0
H579 H 0.25678 0.46982 0.21764 0.0
H580 H 0.17666 0.5162 0.21003 0.0
H581 H 0.23157 0.50913 0.21261 0.0
H582 H 0.21097 0.48503 0.28545 0.0
H583 H 0.15654 0.49374 0.28302 0.0
C584 C 0.32138 0.51528 0.27061 0.0
C585 C 0.33465 0.50452 0.25139 0.0
C586 C 0.2855 0.51131 0.27037 0.0
C587 C 0.26192 0.49594 0.25103 0.0
C588 C 0.27444 0.48279 0.23253 0.0
C589 C 0.31047 0.48738 0.23261 0.0
C590 C 0.18343 0.50889 0.22658 0.0
C591 C 0.16227 0.50589 0.24635 0.0
C592 C 0.21497 0.50457 0.22805 0.0
C593 C 0.22602 0.49661 0.24929 0.0
C594 C 0.2038 0.49185 0.26889 0.0
C595 C 0.1724 0.49659 0.26746 0.0
H596 H 0.49896 0.66138 0.21053 0.0
H597 H 0.46546 0.64909 0.28214 0.0
H598 H 0.50632 0.724 0.21006 0.0
H599 H 0.47137 0.71096 0.28144 0.0
H600 H 0.50024 0.83156 0.27804 0.0
H601 H 0.50931 0.77724 0.27882 0.0
H602 H 0.46486 0.74812 0.20967 0.0
H603 H 0.45714 0.80283 0.20858 0.0
C604 C 0.49342 0.67213 0.22623 0.0
C605 C 0.48124 0.65002 0.2463 0.0
C606 C 0.49741 0.70798 0.22593 0.0
C607 C 0.48889 0.72243 0.2456 0.0
C608 C 0.47856 0.70104 0.266 0.0
C609 C 0.47499 0.66536 0.26638 0.0
C610 C 0.49283 0.81379 0.26291 0.0
C611 C 0.47771 0.8215 0.24331 0.0
C612 C 0.49786 0.78251 0.26339 0.0
C613 C 0.48764 0.75805 0.24436 0.0
C614 C 0.47365 0.76653 0.22453 0.0
C615 C 0.46893 0.7979 0.22397 0.0
H616 H 0.17601 0.65752 0.21317 0.0
H617 H 0.16141 0.65886 0.28696 0.0
H618 H 0.22991 0.71976 0.21485 0.0
H619 H 0.21524 0.72272 0.28853 0.0
H620 H 0.31671 0.83852 0.21794 0.0
H621 H 0.25379 0.78406 0.22012 0.0
H622 H 0.28161 0.75303 0.28528 0.0
H623 H 0.34376 0.80845 0.28359 0.0
C624 C 0.18387 0.67133 0.2298 0.0
C625 C 0.16441 0.65279 0.24999 0.0
C626 C 0.21479 0.70749 0.23071 0.0
C627 C 0.22714 0.72658 0.25182 0.0
C628 C 0.20686 0.70871 0.27199 0.0
C629 C 0.17585 0.67216 0.27109 0.0
C630 C 0.30913 0.82041 0.23292 0.0
C631 C 0.33541 0.82757 0.25044 0.0
C632 C 0.27309 0.789 0.23413 0.0
C633 C 0.2627 0.76355 0.25266 0.0
C634 C 0.28833 0.772 0.27083 0.0
C635 C 0.32417 0.80378 0.26979 0.0
H636 H 0.46581 0.1538 0.74309 0.0
H637 H 0.53236 0.1899 0.68082 0.0
H638 H 0.45625 0.20762 0.74076 0.0
H639 H 0.52446 0.2449 0.67903 0.0
H640 H 0.49811 0.33922 0.67802 0.0
H641 H 0.48779 0.27529 0.67486 0.0
H642 H 0.49709 0.27132 0.74892 0.0
H643 H 0.50592 0.33375 0.75211 0.0
C644 C 0.47808 0.17311 0.72876 0.0
C645 C 0.50029 0.16801 0.71233 0.0
C646 C 0.4728 0.20409 0.72747 0.0
C647 C 0.49034 0.23119 0.71002 0.0
C648 C 0.51036 0.2246 0.69265 0.0
C649 C 0.51506 0.19313 0.69371 0.0
C650 C 0.49726 0.32434 0.69362 0.0
C651 C 0.50322 0.34184 0.71529 0.0
C652 C 0.49158 0.28779 0.6918 0.0
C653 C 0.49165 0.26804 0.71162 0.0
C654 C 0.49614 0.28517 0.73328 0.0
C655 C 0.50167 0.32139 0.73509 0.0
H656 H 0.64938 0.19081 0.75891 0.0
H657 H 0.66124 0.16583 0.68795 0.0
H658 H 0.71218 0.2446 0.75801 0.0
H659 H 0.72508 0.21933 0.68733 0.0
H660 H 0.83272 0.32998 0.75696 0.0
H661 H 0.77755 0.26739 0.75642 0.0
H662 H 0.7539 0.28601 0.6866 0.0
H663 H 0.80973 0.34785 0.68685 0.0
C664 C 0.66561 0.19635 0.74319 0.0
C665 C 0.64997 0.1741 0.72341 0.0
C666 C 0.70194 0.22717 0.74275 0.0
C667 C 0.72383 0.23647 0.72258 0.0
C668 C 0.7088 0.21334 0.70305 0.0
C669 C 0.67224 0.18255 0.70344 0.0
C670 C 0.81608 0.32045 0.74136 0.0
C671 C 0.8254 0.34413 0.72205 0.0
C672 C 0.7843 0.28462 0.74109 0.0
C673 C 0.76084 0.2718 0.7216 0.0
C674 C 0.7714 0.2947 0.70185 0.0
C675 C 0.80341 0.33036 0.70203 0.0
H676 H 0.80824 0.4775 0.75643 0.0
H677 H 0.8278 0.5007 0.68343 0.0
H678 H 0.75377 0.4851 0.7544 0.0
H679 H 0.77343 0.50978 0.68157 0.0
H680 H 0.64381 0.46352 0.68411 0.0
H681 H 0.7066 0.47138 0.68322 0.0
H682 H 0.73016 0.52632 0.74969 0.0
H683 H 0.66679 0.51685 0.75098 0.0
C684 C 0.80134 0.4849 0.73996 0.0
C685 C 0.8223 0.48807 0.72003 0.0
C686 C 0.77013 0.48966 0.73884 0.0
C687 C 0.75907 0.49811 0.71781 0.0
C688 C 0.78086 0.5028 0.698 0.0
C689 C 0.81214 0.49778 0.69909 0.0
C690 C 0.66265 0.47782 0.69835 0.0
C691 C 0.65018 0.48895 0.71781 0.0
C692 C 0.69878 0.48254 0.69779 0.0
C693 C 0.72332 0.49894 0.71656 0.0
C694 C 0.71166 0.51262 0.73522 0.0
C695 C 0.6754 0.50736 0.73593 0.0
H696 H -0.00249 0.83246 0.61075 0.0
H697 H 0.0151 0.87844 0.54188 0.0
H698 H 0.9337 0.82217 0.61046 0.0
H699 H 0.95223 0.86955 0.54193 0.0
H700 H 0.83092 0.83322 0.54058 0.0
H701 H 0.88706 0.82739 0.54089 0.0
H702 H 0.90377 0.85855 0.61295 0.0
H703 H 0.8469 0.86282 0.61284 0.0
C704 C 0.98778 0.84027 0.59553 0.0
C705 C 0.01161 0.85651 0.5764 0.0
C706 C 0.95121 0.83454 0.5954 0.0
C707 C 0.93771 0.84519 0.57623 0.0
C708 C 0.96125 0.86037 0.55687 0.0
C709 C -0.00242 0.86576 0.55691 0.0
C710 C 0.84627 0.83824 0.55658 0.0
C711 C 0.83459 0.84885 0.57663 0.0
C712 C 0.87864 0.83515 0.55673 0.0
C713 C 0.90042 0.84306 0.57685 0.0
C714 C 0.88764 0.85185 0.59718 0.0
C715 C 0.85501 0.85449 0.5971 0.0
H716 H 0.15374 0.15837 0.5458 0.0
H717 H 0.15878 0.17213 0.61988 0.0
H718 H 0.16298 0.10505 0.54978 0.0
H719 H 0.16955 0.11903 0.62384 0.0
H720 H 0.12712 0.98994 0.61941 0.0
H721 H 0.13382 0.05234 0.62005 0.0
H722 H 0.20351 0.08223 0.55899 0.0
H723 H 0.1952 0.01927 0.55781 0.0
C724 C 0.15753 0.1505 0.56298 0.0
C725 C 0.15506 0.16942 0.58254 0.0
C726 C 0.16324 0.11994 0.56526 0.0
C727 C 0.16703 0.10755 0.58715 0.0
C728 C 0.16623 0.12746 0.60672 0.0
C729 C 0.16027 0.15806 0.60444 0.0
C730 C 0.1445 0.01015 0.60643 0.0
C731 C 0.1601 -0.00043 0.58834 0.0
C732 C 0.14849 0.04604 0.60682 0.0
C733 C 0.16862 0.07221 0.5893 0.0
C734 C 0.18687 0.06248 0.57236 0.0
C735 C 0.18233 0.02647 0.57175 0.0
H736 H -0.00272 0.17238 0.61075 0.0
H737 H 0.00646 0.15035 0.53882 0.0
H738 H 0.93411 0.11786 0.61192 0.0
H739 H 0.94445 0.09539 0.54022 0.0
H740 H 0.82458 0.00721 0.5427 0.0
H741 H 0.87942 0.07001 0.54284 0.0
H742 H 0.90535 0.05181 0.61221 0.0
H743 H 0.8496 0.9898 0.61237 0.0
C744 C 0.98582 0.15606 0.59516 0.0
C745 C 0.00716 0.16573 0.57473 0.0
C746 C 0.94963 0.12461 0.59587 0.0
C747 C 0.93404 0.10187 0.57622 0.0
C748 C 0.95502 0.11239 0.55563 0.0
C749 C 0.99092 0.14394 0.55487 0.0
C750 C 0.84169 0.01688 0.55811 0.0
C751 C 0.83289 0.99334 0.57744 0.0
C752 C 0.87334 0.05285 0.55815 0.0
C753 C 0.89737 0.06597 0.57739 0.0
C754 C 0.88746 0.04302 0.59714 0.0
C755 C 0.85548 0.00726 0.59721 0.0
H756 H 0.06181 0.33774 0.09357 0.0
H757 H 0.12966 0.36545 0.15497 0.0
H758 H 0.01519 0.3468 0.11472 0.0
H759 H 0.08268 0.3731 0.17625 0.0
H760 H 0.0009 0.39318 0.21078 0.0
H761 H 0.01092 0.34756 0.18918 0.0
H762 H 0.03992 0.41795 0.12872 0.0
H763 H 0.03127 0.46392 0.15047 0.0
C764 C 0.0657 0.34377 0.11187 0.0
C765 C 0.09929 0.35132 0.12271 0.0
C766 C 0.03909 0.34891 0.12392 0.0
C767 C 0.04547 0.36068 0.14704 0.0
C768 C 0.07689 0.3636 0.15852 0.0
C769 C 0.10389 0.35947 0.14634 0.0
C770 C 0.00771 0.39792 0.19258 0.0
C771 C 0.01573 0.43202 0.18222 0.0
C772 C 0.01341 0.37188 0.18028 0.0
C773 C 0.02623 0.37937 0.15737 0.0
C774 C 0.0296 0.4113 0.14628 0.0
C775 C 0.02491 0.43772 0.15872 0.0
H776 H 0.65192 0.7124 0.09346 0.0
H777 H 0.63512 0.75947 0.15582 0.0
H778 H 0.63998 0.65595 0.1148 0.0
H779 H 0.62445 0.70397 0.17726 0.0
H780 H 0.52337 0.5617 0.15267 0.0
H781 H 0.57043 0.6146 0.13037 0.0
H782 H 0.64334 0.65347 0.18975 0.0
H783 H 0.59643 0.59954 0.21195 0.0
C784 C 0.64783 0.71151 0.11197 0.0
C785 C 0.64426 0.73989 0.12314 0.0
C786 C 0.64095 0.67929 0.12413 0.0
C787 C 0.63117 0.67563 0.1476 0.0
C788 C 0.63235 0.70623 0.15924 0.0
C789 C 0.63831 0.73794 0.14701 0.0
C790 C 0.55015 0.58062 0.16061 0.0
C791 C 0.55629 0.57693 0.18398 0.0
C792 C 0.57722 0.61074 0.14782 0.0
C793 C 0.61042 0.63814 0.15841 0.0
C794 C 0.61803 0.63255 0.18122 0.0
C795 C 0.59125 0.60179 0.19387 0.0
H796 H 0.42898 0.9748 0.15426 0.0
H797 H 0.38117 0.98752 0.21754 0.0
H798 H 0.37551 0.96896 0.13283 0.0
H799 H 0.32671 0.98067 0.19616 0.0
H800 H 0.23382 0.86605 0.1569 0.0
H801 H 0.28484 0.91364 0.17988 0.0
H802 H 0.32574 0.98681 0.12052 0.0
H803 H 0.27367 0.93912 0.09757 0.0
C804 C 0.40782 0.97826 0.16334 0.0
C805 C 0.40871 0.98128 0.1874 0.0
C806 C 0.37727 0.97516 0.1511 0.0
C807 C 0.34675 0.97391 0.16292 0.0
C808 C 0.34992 0.98158 0.1867 0.0
C809 C 0.38097 0.98548 0.1989 0.0
C810 C 0.25274 0.89298 0.14908 0.0
C811 C 0.25041 0.89886 0.12549 0.0
C812 C 0.28176 0.92044 0.16226 0.0
C813 C 0.30943 0.95379 0.15189 0.0
C814 C 0.30468 0.96134 0.12889 0.0
C815 C 0.27502 0.93408 0.11579 0.0
H816 H 0.40215 0.08953 0.87674 0.0
H817 H 0.31482 0.0923 0.83721 0.0
H818 H 0.40151 0.04302 0.85078 0.0
H819 H 0.31402 0.04521 0.81065 0.0
H820 H 0.40998 0.05986 0.75692 0.0
H821 H 0.36653 0.06319 0.78381 0.0
H822 H 0.37633 0.9846 0.82874 0.0
H823 H 0.42046 0.98165 0.80145 0.0
C824 C 0.38187 0.07903 0.86282 0.0
C825 C 0.35914 0.0948 0.85851 0.0
C826 C 0.38105 0.05193 0.84807 0.0
C827 C 0.358 0.04068 0.82841 0.0
C828 C 0.33225 0.05357 0.82557 0.0
C829 C 0.33274 0.08049 0.84065 0.0
C830 C 0.40137 0.04192 0.77203 0.0
C831 C 0.41887 0.02113 0.77751 0.0
C832 C 0.37615 0.04351 0.7874 0.0
C833 C 0.36872 0.02489 0.80873 0.0
C834 C 0.38205 -0.0003 0.81257 0.0
C835 C 0.40721 0.99792 0.79701 0.0
H836 H 0.95707 0.43343 0.81798 0.0
H837 H 0.98711 0.39143 0.75818 0.0
H838 H 0.95061 0.38056 0.84061 0.0
H839 H 0.97941 0.33751 0.78072 0.0
H840 H 0.86629 0.23457 0.81767 0.0
H841 H 0.91017 0.28905 0.79504 0.0
H842 H 0.97816 0.33823 0.85568 0.0
H843 H 0.93456 0.2828 0.87818 0.0
C844 C 0.96371 0.41358 0.80998 0.0
C845 C 0.97231 0.41616 0.78641 0.0
C846 C 0.96027 0.38346 0.82293 0.0
C847 C 0.96439 0.35494 0.81234 0.0
C848 C 0.97632 0.3593 0.78925 0.0
C849 C 0.98073 0.39007 0.77641 0.0
C850 C 0.89171 0.25612 0.82579 0.0
C851 C 0.89732 0.25477 0.8495 0.0
C852 C 0.9169 0.28723 0.81288 0.0
C853 C 0.94743 0.31784 0.82369 0.0
C854 C 0.95494 0.31484 0.84698 0.0
C855 C 0.93012 0.28321 0.85979 0.0
H856 H 0.61474 0.59801 0.75913 0.0
H857 H 0.56468 0.52943 0.81944 0.0
H858 H 0.67142 0.63888 0.78142 0.0
H859 H 0.62048 0.57098 0.8419 0.0
H860 H 0.76332 0.61237 0.82056 0.0
H861 H 0.71021 0.60478 0.79761 0.0
H862 H 0.67166 0.64371 0.85499 0.0
H863 H 0.72585 0.65275 0.87775 0.0
C864 C 0.61511 0.59297 0.77744 0.0
C865 C 0.58564 0.56075 0.7877 0.0
C866 C 0.64747 0.61622 0.79012 0.0
C867 C 0.65012 0.60797 0.81329 0.0
C868 C 0.61886 0.57817 0.82413 0.0
C869 C 0.58702 0.55437 0.81132 0.0
C870 C 0.74436 0.6208 0.82789 0.0
C871 C 0.74842 0.63301 0.85083 0.0
C872 C 0.71416 0.6167 0.81476 0.0
C873 C 0.68704 0.62377 0.82461 0.0
C874 C 0.6925 0.63849 0.84703 0.0
C875 C 0.7234 0.64363 0.85997 0.0
H876 H 0.92796 0.57756 0.76179 0.0
H877 H 0.01596 0.57585 0.80119 0.0
H878 H 0.92861 0.6243 0.78754 0.0
H879 H 0.01676 0.62316 0.82753 0.0
H880 H 0.92002 0.60626 0.8813 0.0
H881 H 0.96384 0.60389 0.85429 0.0
H882 H 0.95308 0.68248 0.80988 0.0
H883 H 0.90866 0.68457 0.83735 0.0
C884 C 0.9484 0.58835 0.77562 0.0
C885 C 0.97122 0.5727 0.78001 0.0
C886 C 0.94923 0.61559 0.79024 0.0
C887 C 0.97236 0.62708 0.80985 0.0
C888 C -0.00159 0.61456 0.81265 0.0
C889 C -0.00208 0.5875 0.7977 0.0
C890 C 0.92843 0.62435 0.86626 0.0
C891 C 0.91063 0.64492 0.86098 0.0
C892 C 0.95389 0.62335 0.85083 0.0
C893 C 0.96124 0.64231 0.82963 0.0
C894 C 0.94746 0.66717 0.82596 0.0
C895 C 0.92211 0.66841 0.84161 0.0
H896 H 0.3205 0.22614 0.83919 0.0
H897 H 0.42349 0.30631 0.87263 0.0
H898 H 0.32241 0.27722 0.81588 0.0
H899 H 0.4252 0.35672 0.85011 0.0
H900 H 0.43627 0.44529 0.81059 0.0
H901 H 0.39698 0.3956 0.83798 0.0
H902 H 0.3711 0.31233 0.78488 0.0
H903 H 0.41001 0.36185 0.75779 0.0
C904 C 0.34292 0.25475 0.84189 0.0
C905 C 0.37237 0.26247 0.85713 0.0
C906 C 0.3439 0.28388 0.82876 0.0
C907 C 0.37382 0.32098 0.83126 0.0
C908 C 0.4014 0.32867 0.84799 0.0
C909 C 0.40084 0.2997 0.86061 0.0
C910 C 0.42041 0.41652 0.80457 0.0
C911 C 0.42626 0.40699 0.78237 0.0
C912 C 0.39804 0.3881 0.82019 0.0
C913 C 0.38172 0.35008 0.81367 0.0
C914 C 0.38321 0.34127 0.79043 0.0
C915 C 0.40568 0.36958 0.77493 0.0
H916 H 0.59719 0.00571 0.76572 0.0
H917 H 0.57187 0.06309 0.81915 0.0
H918 H 0.64925 0.01055 0.78892 0.0
H919 H 0.62284 0.0667 0.84256 0.0
H920 H 0.71109 0.06811 0.88313 0.0
H921 H 0.6531 0.02747 0.86203 0.0
H922 H 0.70811 0.08093 0.79827 0.0
H923 H 0.76545 0.12228 0.81948 0.0
C924 C 0.60182 0.01795 0.7828 0.0
C925 C 0.58094 0.03441 0.79066 0.0
C926 C 0.63146 0.02061 0.79601 0.0
C927 C 0.63973 0.03873 0.81749 0.0
C928 C 0.6166 0.05206 0.82618 0.0
C929 C 0.58771 0.05034 0.81275 0.0
C930 C 0.71127 0.06958 0.86447 0.0
C931 C 0.74241 0.098 0.85277 0.0
C932 C 0.67815 0.0465 0.85246 0.0
C933 C 0.67629 0.05132 0.82863 0.0
C934 C 0.70904 0.07643 0.81661 0.0
C935 C 0.74183 0.10006 0.82869 0.0
H936 H 0.63992 0.87084 0.15588 0.0
H937 H 0.65628 0.93195 0.09249 0.0
H938 H 0.62927 0.91656 0.17638 0.0
H939 H 0.64411 0.97711 0.11284 0.0
H940 H 0.52284 0.9463 0.15 0.0
H941 H 0.57201 0.943 0.12832 0.0
H942 H 0.64654 0.98823 0.1867 0.0
H943 H 0.59753 0.99297 0.20815 0.0
C944 C 0.64318 0.89523 0.14666 0.0
C945 C 0.6487 0.89808 0.12275 0.0
C946 C 0.63726 0.92149 0.15835 0.0
C947 C 0.63559 0.95007 0.14607 0.0
C948 C 0.64552 0.9554 0.12263 0.0
C949 C 0.65246 0.92964 0.11103 0.0
C950 C 0.55029 0.95708 0.15777 0.0
C951 C 0.55653 0.96954 0.18067 0.0
C952 C 0.57854 0.95557 0.14534 0.0
C953 C 0.61299 0.96544 0.15591 0.0
C954 C 0.62032 0.9809 0.17818 0.0
C955 C 0.59232 0.98345 0.1904 0.0
H956 H 0.09633 0.69181 0.09806 0.0
H957 H 0.09256 0.77444 0.14221 0.0
H958 H 0.04657 0.64175 0.12013 0.0
H959 H 0.04209 0.72379 0.16489 0.0
H960 H 0.05239 0.63477 0.21394 0.0
H961 H 0.05771 0.68548 0.18998 0.0
H962 H 0.98568 0.60468 0.13905 0.0
H963 H 0.98074 0.5536 0.16342 0.0
C964 C 0.08388 0.69909 0.11221 0.0
C965 C 0.09874 0.73656 0.11904 0.0
C966 C 0.05484 0.67044 0.12467 0.0
C967 C 0.04067 0.67875 0.14452 0.0
C968 C 0.05273 0.71661 0.14977 0.0
C969 C 0.08164 0.7455 0.13697 0.0
C970 C 0.03643 0.62789 0.19806 0.0
C971 C 0.01701 0.5908 0.19005 0.0
C972 C 0.03902 0.65689 0.18441 0.0
C973 C 0.02287 0.64914 0.16232 0.0
C974 C -0.00113 0.61142 0.15587 0.0
C975 C 0.99609 0.58225 0.16969 0.0
H976 H 0.43868 0.41956 0.16676 0.0
H977 H 0.35364 0.41068 0.21414 0.0
H978 H 0.38963 0.37312 0.14147 0.0
H979 H 0.30494 0.36499 0.18929 0.0
H980 H 0.21966 0.31075 0.14001 0.0
H981 H 0.26863 0.31085 0.1643 0.0
H982 H 0.35368 0.39562 0.12018 0.0
H983 H 0.30519 0.39528 0.09644 0.0
C984 C 0.40959 0.40635 0.17219 0.0
C985 C 0.39946 0.41901 0.19188 0.0
C986 C 0.38155 0.3798 0.15782 0.0
C987 C 0.34337 0.36611 0.16307 0.0
C988 C 0.33392 0.37484 0.18462 0.0
C989 C 0.36179 0.40142 0.19878 0.0
C990 C 0.24889 0.32822 0.13521 0.0
C991 C 0.25909 0.3538 0.11695 0.0
C992 C 0.27685 0.32821 0.14897 0.0
C993 C 0.31505 0.35371 0.14443 0.0
C994 C 0.3247 0.37549 0.12423 0.0
C995 C 0.29694 0.3758 0.11077 0.0
H996 H 0.69678 0.79646 0.48336 0.0
H997 H 0.66832 0.73031 0.54558 0.0
H998 H 0.70251 0.74792 0.46264 0.0
H999 H 0.67543 0.682 0.52499 0.0
H1000 H 0.79225 0.6966 0.4899 0.0
H1001 H 0.74568 0.70467 0.51131 0.0
H1002 H 0.67685 0.67656 0.45026 0.0
H1003 H 0.72316 0.66715 0.429 0.0
C1004 C 0.69015 0.77069 0.49227 0.0
C1005 C 0.68238 0.76696 0.51595 0.0
C1006 C 0.69315 0.74277 0.48042 0.0
C1007 C 0.68955 0.71134 0.4923 0.0
C1008 C 0.67805 0.70588 0.51549 0.0
C1009 C 0.67404 0.73345 0.52722 0.0
C1010 C 0.76621 0.6902 0.48146 0.0
C1011 C 0.76117 0.68157 0.4579 0.0
C1012 C 0.73943 0.69455 0.4937 0.0
C1013 C 0.70783 0.69144 0.48233 0.0
C1014 C 0.7009 0.67887 0.45937 0.0
C1015 C 0.72733 0.67354 0.44726 0.0
H1016 H 0.26924 0.01814 0.42918 0.0
H1017 H 0.35102 0.10884 0.47104 0.0
H1018 H 0.27042 0.97268 0.45514 0.0
H1019 H 0.35253 0.06302 0.49755 0.0
H1020 H 0.24682 0.89262 0.50498 0.0
H1021 H 0.29358 0.93998 0.47897 0.0
H1022 H 0.29861 0.02776 0.52271 0.0
H1023 H 0.25263 0.98071 0.54831 0.0
C1024 C 0.28861 0.02819 0.44358 0.0
C1025 C 0.30936 0.0666 0.44859 0.0
C1026 C 0.28975 0.00217 0.45836 0.0
C1027 C 0.31108 0.01418 0.47873 0.0
C1028 C 0.3355 0.05297 0.48213 0.0
C1029 C 0.33462 0.07915 0.46708 0.0
C1030 C 0.25952 0.92208 0.50947 0.0
C1031 C 0.24586 0.93342 0.52814 0.0
C1032 C 0.28622 0.94918 0.49466 0.0
C1033 C 0.29899 0.98762 0.4984 0.0
C1034 C 0.28944 -0.00146 0.51916 0.0
C1035 C 0.26274 0.97159 0.53378 0.0
H1036 H 0.09345 0.28923 0.47929 0.0
H1037 H 0.06004 0.33575 0.5352 0.0
H1038 H 0.04209 0.28434 0.45588 0.0
H1039 H 0.00757 0.32974 0.51192 0.0
H1040 H 0.89871 0.21302 0.48212 0.0
H1041 H 0.9544 0.25996 0.50237 0.0
H1042 H 0.00372 0.31385 0.43754 0.0
H1043 H 0.94711 0.26726 0.41735 0.0
C1044 C 0.07585 0.29966 0.4862 0.0
C1045 C 0.08019 0.31238 0.50903 0.0
C1046 C 0.04668 0.29725 0.47276 0.0
C1047 C 0.02085 0.30658 0.48217 0.0
C1048 C 0.02731 0.32262 0.50428 0.0
C1049 C 0.05718 0.32595 0.51756 0.0
C1050 C 0.92056 0.23622 0.47243 0.0
C1051 C 0.91901 0.23674 0.44833 0.0
C1052 C 0.95237 0.26319 0.48397 0.0
C1053 C 0.98342 0.29026 0.47143 0.0
C1054 C 0.98004 0.2933 0.44754 0.0
C1055 C 0.94774 0.26675 0.43603 0.0
H1056 H 0.22551 0.34009 0.48955 0.0
H1057 H 0.25577 0.29368 0.5467 0.0
H1058 H 0.26489 0.32689 0.46395 0.0
H1059 H 0.29455 0.27986 0.52126 0.0
H1060 H 0.3434 0.23718 0.4676 0.0
H1061 H 0.34173 0.28847 0.48884 0.0
H1062 H 0.23444 0.2568 0.45774 0.0
H1063 H 0.23579 0.20607 0.43742 0.0
C1064 C 0.24243 0.32921 0.49684 0.0
C1065 C 0.23762 0.31751 0.51986 0.0
C1066 C 0.26485 0.32153 0.48224 0.0
C1067 C 0.28188 0.30144 0.49055 0.0
C1068 C 0.28177 0.29533 0.51437 0.0
C1069 C 0.25946 0.30311 0.52895 0.0
C1070 C 0.31986 0.24179 0.46525 0.0
C1071 C 0.28927 0.21735 0.45145 0.0
C1072 C 0.31905 0.27115 0.47716 0.0
C1073 C 0.28823 0.27694 0.47468 0.0
C1074 C 0.25898 0.2537 0.45967 0.0
C1075 C 0.25936 0.22413 0.44837 0.0
H1076 H 0.726 0.06021 0.42837 0.0
H1077 H 0.79982 0.09472 0.48725 0.0
H1078 H 0.67744 0.00776 0.45079 0.0
H1079 H 0.75117 0.04354 0.50983 0.0
H1080 H 0.67184 0.94759 0.54657 0.0
H1081 H 0.68076 0.0031 0.52542 0.0
H1082 H 0.69656 0.95647 0.46242 0.0
H1083 H 0.68908 0.90203 0.48368 0.0
C1084 C 0.73101 0.05766 0.44645 0.0
C1085 C 0.76653 0.08085 0.45617 0.0
C1086 C 0.70326 0.02785 0.45923 0.0
C1087 C 0.71065 0.02169 0.48196 0.0
C1088 C 0.74456 0.04792 0.49244 0.0
C1089 C 0.77255 0.07698 0.4795 0.0
C1090 C 0.67528 0.9485 0.528 0.0
C1091 C 0.68024 0.92112 0.51661 0.0
C1092 C 0.68029 0.98011 0.51595 0.0
C1093 C 0.68954 0.98404 0.49239 0.0
C1094 C 0.68908 0.95396 0.48053 0.0
C1095 C 0.68506 0.92292 0.49266 0.0
H1096 H 0.06891 0.73987 0.53825 0.0
H1097 H 0.09195 0.82019 0.48378 0.0
H1098 H 0.01617 0.69167 0.51602 0.0
H1099 H 0.04025 0.77181 0.46132 0.0
H1100 H 0.94836 0.68476 0.42341 0.0
H1101 H 0.0074 0.70129 0.44298 0.0
H1102 H 0.9578 0.70446 0.50804 0.0
H1103 H 0.8995 0.68941 0.48833 0.0
C1104 C 0.06373 0.74671 0.5211 0.0
C1105 C 0.08403 0.78373 0.51273 0.0
C1106 C 0.03368 0.71915 0.50844 0.0
C1107 C 0.02442 0.72811 0.48702 0.0
C1108 C 0.04724 0.7641 0.47768 0.0
C1109 C 0.07655 0.79186 0.49057 0.0
C1110 C 0.94958 0.68696 0.44205 0.0
C1111 C 0.91978 0.6859 0.45452 0.0
C1112 C 0.98327 0.69646 0.45319 0.0
C1113 C 0.98699 0.70423 0.47691 0.0
C1114 C 0.95541 0.69815 0.48977 0.0
C1115 C 0.9221 0.68958 0.47855 0.0
H1116 H 0.23803 0.29318 0.04338 0.0
H1117 H 0.25811 0.36659 0.98511 0.0
H1118 H 0.27303 0.26747 0.02435 0.0
H1119 H 0.29341 0.34066 0.9661 0.0
H1120 H 0.30313 0.24348 0.93084 0.0
H1121 H 0.27531 0.2766 0.94981 0.0
H1122 H 0.33938 0.28803 0.01125 0.0
H1123 H 0.36737 0.2546 -0.00771 0.0
C1124 C 0.24989 0.30385 0.02649 0.0
C1125 C 0.24499 0.33171 0.01564 0.0
C1126 C 0.27028 0.28938 0.01575 0.0
C1127 C 0.28596 0.30221 -0.00615 0.0
C1128 C 0.2814 0.33023 0.98299 0.0
C1129 C 0.26127 0.34505 -0.00614 0.0
C1130 C 0.31142 0.25309 0.94838 0.0
C1131 C 0.33717 0.24607 0.96018 0.0
C1132 C 0.29574 0.27239 0.95913 0.0
C1133 C 0.30522 0.28479 0.98195 0.0
C1134 C 0.33148 0.27848 -0.00634 0.0
C1135 C 0.34752 0.25947 0.98281 0.0
H1136 H 0.8005 0.06787 0.94579 0.0
H1137 H 0.71924 0.09428 0.97462 0.0
H1138 H 0.76909 0.0071 0.96514 0.0
H1139 H 0.68784 0.03323 -0.00605 0.0
H1140 H 0.62079 0.90273 0.0016 0.0
H1141 H 0.65124 0.9635 0.98185 0.0
H1142 H 0.75909 0.98496 0.0068 0.0
H1143 H 0.72898 0.92458 0.02653 0.0
C1144 C 0.77597 0.06075 0.95627 0.0
C1145 C 0.76243 0.08596 0.95873 0.0
C1146 C 0.7581 0.02602 0.96739 0.0
C1147 C 0.72607 0.01556 0.98098 0.0
C1148 C 0.71234 0.04057 0.9834 0.0
C1149 C 0.73051 0.07559 0.9725 0.0
C1150 C 0.651 0.92035 0.00277 0.0
C1151 C 0.67247 0.90883 0.01562 0.0
C1152 C 0.66834 0.95518 -0.00838 0.0
C1153 C 0.70745 0.9788 -0.00715 0.0
C1154 C 0.72891 0.96713 0.00545 0.0
C1155 C 0.7116 0.93263 0.01682 0.0
H1156 H 0.94124 0.71143 0.93776 0.0
H1157 H 0.89045 0.62917 -0.00771 0.0
H1158 H 0.00197 0.73715 0.95659 0.0
H1159 H 0.95158 0.65507 0.01102 0.0
H1160 H 0.05615 0.74768 0.04955 0.0
H1161 H 0.99558 0.71623 0.03037 0.0
H1162 H 0.04997 0.71763 0.96626 0.0
H1163 H 0.11118 0.74954 0.9855 0.0
C1164 C 0.94293 0.69889 0.95381 0.0
C1165 C 0.91086 0.66836 0.96361 0.0
C1166 C 0.97785 0.71339 0.96442 0.0
C1167 C 0.98144 0.69791 0.98513 0.0
C1168 C 0.94947 0.66757 -0.00494 0.0
C1169 C 0.91452 0.6528 0.98435 0.0
C1170 C 0.0553 0.74123 0.03136 0.0
C1171 C 0.08848 0.75146 0.01894 0.0
C1172 C 0.02053 0.7229 0.02046 0.0
C1173 C 0.01817 0.71464 -0.00314 0.0
C1174 C 0.05118 0.72403 0.98447 0.0
C1175 C 0.08609 0.74208 -0.00453 0.0
H1176 H 0.69492 0.74851 0.04457 0.0
H1177 H 0.63254 0.74386 0.98351 0.0
H1178 H 0.72037 0.71411 0.02463 0.0
H1179 H 0.65829 0.70905 0.96345 0.0
H1180 H 0.75942 0.70058 0.93152 0.0
H1181 H 0.72422 0.72649 0.95023 0.0
H1182 H 0.69949 0.65041 0.00745 0.0
H1183 H 0.7349 0.62441 -0.01117 0.0
C1184 C 0.68656 0.74006 0.02687 0.0
C1185 C 0.66204 0.74927 0.01549 0.0
C1186 C 0.70086 0.71999 0.01555 0.0
C1187 C 0.69124 0.7089 -0.00745 0.0
C1188 C 0.66624 0.71748 0.98119 0.0
C1189 C 0.65147 0.73726 -0.00735 0.0
C1190 C 0.74642 0.68925 0.94807 0.0
C1191 C 0.75039 0.66075 0.95885 0.0
C1192 C 0.72591 0.70383 0.95863 0.0
C1193 C 0.70922 0.69045 0.98025 0.0
C1194 C 0.71235 0.66137 -0.00919 0.0
C1195 C 0.73258 0.6465 0.98015 0.0
H1196 H 0.19619 0.92072 0.02368 0.0
H1197 H 0.28745 0.90288 0.00333 0.0
H1198 H 0.22719 0.98177 0.00496 0.0
H1199 H 0.31845 0.96436 0.98437 0.0
H1200 H 0.37865 0.09536 0.97992 0.0
H1201 H 0.3483 0.03304 -0.00236 0.0
H1202 H 0.24385 0.00641 0.96455 0.0
H1203 H 0.27375 0.06843 0.94699 0.0
C1204 C 0.2228 0.92974 0.0151 0.0
C1205 C 0.23943 0.90702 0.015 0.0
C1206 C 0.24042 0.96463 0.00431 0.0
C1207 C 0.27517 0.97767 -0.00669 0.0
C1208 C 0.29177 0.95494 -0.00705 0.0
C1209 C 0.2739 0.91972 0.00359 0.0
C1210 C 0.34915 0.0763 0.97657 0.0
C1211 C 0.32856 0.08688 0.96213 0.0
C1212 C 0.33196 0.04057 -0.01349 0.0
C1213 C 0.29385 0.01505 0.98235 0.0
C1214 C 0.27323 0.02572 0.96811 0.0
C1215 C 0.29042 0.0612 0.95804 0.0
H1216 H 0.89113 0.25212 -0.01146 0.0
H1217 H 0.94645 0.24126 0.92787 0.0
H1218 H 0.95184 0.2865 0.0079 0.0
H1219 H 0.00687 0.27552 0.94729 0.0
H1220 H 0.11189 0.36847 0.98383 0.0
H1221 H 0.05132 0.34101 0.96393 0.0
H1222 H -0.00202 0.26634 0.02152 0.0
H1223 H 0.05794 0.29342 0.04134 0.0
C1224 C 0.91619 0.25719 0.97932 0.0
C1225 C 0.91396 0.24364 0.95679 0.0
C1226 C 0.95085 0.27679 -0.0096 0.0
C1227 C 0.98388 0.28357 0.97903 0.0
C1228 C 0.98181 0.27092 0.95633 0.0
C1229 C 0.94717 0.25098 0.94534 0.0
C1230 C 0.08717 0.34631 -0.00777 0.0
C1231 C 0.08971 0.33286 0.01403 0.0
C1232 C 0.05265 0.3306 0.98085 0.0
C1233 C 0.02013 0.3017 -0.00872 0.0
C1234 C 0.02258 0.28886 0.01323 0.0
C1235 C 0.05701 0.30414 0.02444 0.0
H1236 H 0.89973 0.62296 0.37776 0.0
H1237 H 0.91435 0.69254 0.31832 0.0
H1238 H 0.93353 0.59647 0.35813 0.0
H1239 H 0.9485 0.66588 0.2987 0.0
H1240 H 0.95689 0.56842 0.26355 0.0
H1241 H 0.92988 0.60156 0.28333 0.0
H1242 H -0.00178 0.61538 0.34304 0.0
H1243 H 0.02546 0.58186 0.32324 0.0
C1244 C 0.91016 0.63265 0.36049 0.0
C1245 C 0.90398 0.65961 0.34948 0.0
C1246 C 0.92989 0.61773 0.34937 0.0
C1247 C 0.94365 0.62917 0.32695 0.0
C1248 C 0.93794 0.65643 0.31598 0.0
C1249 C 0.91847 0.6717 0.3272 0.0
C1250 C 0.96625 0.57846 0.28091 0.0
C1251 C 0.9931 0.57216 0.29193 0.0
C1252 C 0.95102 0.59781 0.29212 0.0
C1253 C 0.96202 0.61107 0.31466 0.0
C1254 C 0.98913 0.60521 0.32567 0.0
C1255 C 0.00474 0.58612 0.31434 0.0
H1256 H 0.42055 0.38374 0.26575 0.0
H1257 H 0.40175 0.43805 0.32413 0.0
H1258 H 0.38544 0.32337 0.28482 0.0
H1259 H 0.36616 0.37696 0.34323 0.0
H1260 H 0.35684 0.26985 0.37825 0.0
H1261 H 0.38347 0.33076 0.35953 0.0
H1262 H 0.31992 0.27765 0.29799 0.0
H1263 H 0.2932 0.21621 0.31668 0.0
C1264 C 0.40893 0.38285 0.28268 0.0
C1265 C 0.41431 0.41584 0.29354 0.0
C1266 C 0.38841 0.34812 0.29346 0.0
C1267 C 0.37297 0.34552 0.31542 0.0
C1268 C 0.37795 0.37831 0.32629 0.0
C1269 C 0.39826 0.4132 0.31537 0.0
C1270 C 0.34837 0.27104 0.36074 0.0
C1271 C 0.32326 0.2381 0.34882 0.0
C1272 C 0.36336 0.30603 0.35014 0.0
C1273 C 0.35379 0.30885 0.32734 0.0
C1274 C 0.32794 0.27612 0.31557 0.0
C1275 C 0.31262 0.24103 0.32626 0.0
H1276 H 0.55232 0.95648 0.3201 0.0
H1277 H 0.60889 0.02453 0.26038 0.0
H1278 H 0.61259 0.98264 0.34004 0.0
H1279 H 0.66872 0.05059 0.28035 0.0
H1280 H 0.71715 0.08262 0.37494 0.0
H1281 H 0.65745 0.04772 0.35496 0.0
H1282 H 0.71387 0.0319 0.29675 0.0
H1283 H 0.77401 0.06712 0.31669 0.0
C1284 C 0.57757 0.97675 0.31118 0.0
C1285 C 0.5758 0.98876 0.28878 0.0
C1286 C 0.61197 0.99176 0.3226 0.0
C1287 C 0.64519 0.01864 0.31171 0.0
C1288 C 0.64357 0.02966 0.28906 0.0
C1289 C 0.60923 0.01499 0.27773 0.0
C1290 C 0.71692 0.07167 0.3579 0.0
C1291 C 0.75038 0.07799 0.34728 0.0
C1292 C 0.68264 0.05134 0.34658 0.0
C1293 C 0.68113 0.03714 0.32436 0.0
C1294 C 0.7144 0.0428 0.31386 0.0
C1295 C 0.74874 0.06286 0.32528 0.0
H1296 H 0.39019 0.12691 0.35952 0.0
H1297 H 0.2849 0.04484 0.32879 0.0
H1298 H 0.42082 0.0949 0.3428 0.0
H1299 H 0.31606 0.01301 0.31176 0.0
H1300 H 0.37918 0.94589 0.30691 0.0
H1301 H 0.34749 0.9763 0.32529 0.0
H1302 H 0.43742 0.08467 0.30339 0.0
H1303 H 0.46913 0.05473 0.28537 0.0
C1304 C 0.37359 0.10217 0.34907 0.0
C1305 C 0.33508 0.08849 0.34543 0.0
C1306 C 0.39121 0.0839 0.33947 0.0
C1307 C 0.37076 0.05146 0.32607 0.0
C1308 C 0.33233 0.03776 0.32227 0.0
C1309 C 0.31465 0.05623 0.33178 0.0
C1310 C 0.39235 0.97623 0.30632 0.0
C1311 C 0.42662 0.99792 0.2947 0.0
C1312 C 0.37405 0.99354 0.3166 0.0
C1313 C 0.38999 0.03277 0.31563 0.0
C1314 C 0.42464 0.05441 0.30453 0.0
C1315 C 0.44271 0.03719 0.29414 0.0
H1316 H 0.04211 0.42501 0.30783 0.0
H1317 H 0.93694 0.39587 0.27443 0.0
H1318 H 0.01268 0.3621 0.32508 0.0
H1319 H 0.90832 0.33374 0.29127 0.0
H1320 H 0.85887 0.2491 0.34976 0.0
H1321 H 0.89114 0.31026 0.33142 0.0
H1322 H 0.98271 0.29221 0.31265 0.0
H1323 H 0.95031 0.23039 0.33142 0.0
C1324 C 0.01285 0.40536 0.30421 0.0
C1325 C 0.99185 0.41563 0.2899 0.0
C1326 C 0.99619 0.36932 0.31387 0.0
C1327 C 0.95826 0.34322 0.3095 0.0
C1328 C 0.93749 0.35345 0.29511 0.0
C1329 C 0.95402 0.38914 0.28544 0.0
C1330 C 0.88579 0.25794 0.34165 0.0
C1331 C 0.90203 0.23487 0.342 0.0
C1332 C 0.90421 0.29296 0.33108 0.0
C1333 C 0.93938 0.3059 0.32065 0.0
C1334 C 0.9557 0.28289 0.32076 0.0
C1335 C 0.93701 0.24745 0.33124 0.0
H1336 H 0.72859 0.60103 0.36349 0.0
H1337 H 0.75613 0.70883 0.33452 0.0
H1338 H 0.66761 0.57242 0.3448 0.0
H1339 H 0.69463 0.67973 0.31569 0.0
H1340 H 0.56305 0.61471 0.30769 0.0
H1341 H 0.62392 0.64623 0.32743 0.0
H1342 H 0.64709 0.56043 0.30313 0.0
H1343 H 0.58688 0.52905 0.28358 0.0
C1344 C 0.72168 0.61867 0.35313 0.0
C1345 C 0.74735 0.65722 0.35039 0.0
C1346 C 0.68676 0.6022 0.3424 0.0
C1347 C 0.67654 0.6239 0.32882 0.0
C1348 C 0.70184 0.66251 0.32624 0.0
C1349 C 0.73709 0.67902 0.33683 0.0
C1350 C 0.58111 0.60255 0.30669 0.0
C1351 C 0.57013 0.56937 0.29412 0.0
C1352 C 0.61596 0.62072 0.31781 0.0
C1353 C 0.64002 0.60564 0.31679 0.0
C1354 C 0.6289 0.57244 0.30435 0.0
C1355 C 0.59445 0.55459 0.29308 0.0
H1356 H 0.70212 0.92681 0.65404 0.0
H1357 H 0.62631 0.90646 0.5972 0.0
H1358 H 0.67632 0.96144 0.67415 0.0
H1359 H 0.60087 0.94088 0.61724 0.0
H1360 H 0.58971 0.03561 0.64964 0.0
H1361 H 0.62297 0.00781 0.63037 0.0
H1362 H 0.61197 0.94318 0.69151 0.0
H1363 H 0.57878 0.97083 0.71085 0.0
C1364 C 0.6801 0.92979 0.64584 0.0
C1365 C 0.66606 0.91366 0.62413 0.0
C1366 C 0.66533 0.9495 0.65734 0.0
C1367 C 0.63677 0.95389 0.64715 0.0
C1368 C 0.62318 0.93826 0.62534 0.0
C1369 C 0.63752 0.91822 0.614 0.0
C1370 C 0.59467 0.01573 0.65904 0.0
C1371 C 0.58127 0.00511 0.68167 0.0
C1372 C 0.61358 -0.00023 0.64799 0.0
C1373 C 0.61984 0.97331 0.65947 0.0
C1374 C 0.6077 0.96372 0.68235 0.0
C1375 C 0.58842 0.97931 0.69332 0.0
H1376 H 0.06971 0.77818 0.65354 0.0
H1377 H 0.07962 0.72456 0.59179 0.0
H1378 H 0.03627 0.71692 0.67254 0.0
H1379 H 0.04646 0.66371 0.61081 0.0
H1380 H 0.95786 0.55691 0.64722 0.0
H1381 H 0.98308 0.61767 0.62789 0.0
H1382 H 0.05776 0.67167 0.68528 0.0
H1383 H 0.03276 0.61138 0.70464 0.0
C1384 C 0.06443 0.75335 0.64397 0.0
C1385 C 0.07765 0.75621 0.62129 0.0
C1386 C 0.04547 0.71839 0.65486 0.0
C1387 C 0.03901 0.68574 0.64313 0.0
C1388 C 0.05087 0.68843 0.62017 0.0
C1389 C 0.07014 0.72333 0.60938 0.0
C1390 C 0.97961 0.58175 0.65571 0.0
C1391 C 0.9935 0.57926 0.67737 0.0
C1392 C 0.99401 0.61645 0.64465 0.0
C1393 C 0.02218 0.64926 0.65519 0.0
C1394 C 0.0357 0.64685 0.67693 0.0
C1395 C 0.02163 0.61222 0.68787 0.0
H1396 H 0.21563 0.30678 0.6542 0.0
H1397 H 0.26861 0.38109 0.59622 0.0
H1398 H 0.27631 0.33558 0.67408 0.0
H1399 H 0.32859 0.40939 0.61601 0.0
H1400 H 0.43541 0.41985 0.64768 0.0
H1401 H 0.37411 0.38789 0.62888 0.0
H1402 H 0.32251 0.40137 0.69035 0.0
H1403 H 0.38362 0.43334 0.70923 0.0
C1404 C 0.24009 0.32917 0.64573 0.0
C1405 C 0.23725 0.34173 0.6237 0.0
C1406 C 0.27469 0.34567 0.65711 0.0
C1407 C 0.30701 0.3745 0.64646 0.0
C1408 C 0.30416 0.38692 0.62446 0.0
C1409 C 0.26967 0.37087 0.61326 0.0
C1410 C 0.41101 0.41597 0.65719 0.0
C1411 C 0.41443 0.42939 0.67986 0.0
C1412 C 0.376 0.39776 0.64643 0.0
C1413 C 0.34372 0.39223 0.65823 0.0
C1414 C 0.34696 0.40505 0.68098 0.0
C1415 C 0.38201 0.42365 0.69166 0.0
H1416 H 0.95666 0.41044 0.64637 0.0
H1417 H 0.03091 0.42954 0.70391 0.0
H1418 H 0.9835 0.37689 0.62613 0.0
H1419 H 0.05733 0.39601 0.68374 0.0
H1420 H 0.06861 0.30159 0.6498 0.0
H1421 H 0.03505 0.32883 0.66942 0.0
H1422 H 0.04957 0.39751 0.6097 0.0
H1423 H 0.08318 0.37054 0.59006 0.0
C1424 C 0.97852 0.40734 0.65471 0.0
C1425 C 0.99188 0.42284 0.67663 0.0
C1426 C 0.99387 0.38827 0.64313 0.0
C1427 C 0.02231 0.38386 0.65347 0.0
C1428 C 0.03515 0.39874 0.67552 0.0
C1429 C 0.02025 0.41822 0.68694 0.0
C1430 C 0.06439 0.32228 0.64081 0.0
C1431 C 0.07883 0.3342 0.6185 0.0
C1432 C 0.04532 0.3379 0.65204 0.0
C1433 C 0.03988 0.36523 0.64102 0.0
C1434 C 0.05321 0.37627 0.61847 0.0
C1435 C 0.07271 0.36107 0.60735 0.0
H1436 H 0.56653 0.61252 0.70739 0.0
H1437 H 0.58799 0.55954 0.64939 0.0
H1438 H 0.60179 0.6734 0.68844 0.0
H1439 H 0.62328 0.62064 0.6305 0.0
H1440 H 0.63126 0.72552 0.59435 0.0
H1441 H 0.60342 0.66539 0.61413 0.0
H1442 H 0.669 0.7199 0.67478 0.0
H1443 H 0.69726 0.78068 0.65487 0.0
C1444 C 0.57874 0.61384 0.69061 0.0
C1445 C 0.57413 0.58113 0.67977 0.0
C1446 C 0.59927 0.64876 0.67991 0.0
C1447 C 0.61523 0.65162 0.65807 0.0
C1448 C 0.61105 0.61908 0.64732 0.0
C1449 C 0.59088 0.58417 0.65813 0.0
C1450 C 0.63986 0.7248 0.6119 0.0
C1451 C 0.6662 0.75788 0.62317 0.0
C1452 C 0.62415 0.69028 0.62312 0.0
C1453 C 0.63411 0.68808 0.64593 0.0
C1454 C 0.66077 0.721 0.65719 0.0
C1455 C 0.67699 0.75564 0.64581 0.0
H1456 H 0.23371 0.9525 0.64206 0.0
H1457 H 0.24917 0.86019 0.62073 0.0
H1458 H 0.29685 0.98392 0.65887 0.0
H1459 H 0.31184 0.89166 0.63695 0.0
H1460 H 0.40496 0.93926 0.68994 0.0
H1461 H 0.34167 0.90913 0.67473 0.0
H1462 H 0.3638 0.01406 0.64407 0.0
H1463 H 0.42756 0.04487 0.65985 0.0
C1464 C 0.25032 0.93872 0.64127 0.0
C1465 C 0.23655 0.90392 0.63011 0.0
C1466 C 0.28654 0.95689 0.65057 0.0
C1467 C 0.30924 0.94029 0.64903 0.0
C1468 C 0.2949 0.905 0.63852 0.0
C1469 C 0.259 0.88703 0.62919 0.0
C1470 C 0.39657 0.956 0.67984 0.0
C1471 C 0.42133 0.99449 0.67608 0.0
C1472 C 0.36027 0.93866 0.6711 0.0
C1473 C 0.34782 0.95931 0.65834 0.0
C1474 C 0.37263 0.99765 0.65415 0.0
C1475 C 0.40921 0.01511 0.66288 0.0
loop_
_geom_bond_atom_site_label_1
_geom_bond_atom_site_label_2
_geom_bond_distance
_geom_bond_site_symmetry_2
_ccdc_geom_bond_type
Sc0 O3 2.025 . S
Sc0 O10 2.105 . S
Sc0 O13 2.105 . S
Sc0 O16 2.105 . S
Sc0 O19 2.105 . S
Sc1 O3 2.025 . S
Sc1 O11 2.105 . S
Sc1 O15 2.105 . S
Sc1 O17 2.105 . S
Sc1 O21 2.105 . S
Sc2 O3 2.025 . S
Sc2 O12 2.105 . S
Sc2 O14 2.105 . S
Sc2 O18 2.105 . S
Sc2 O20 2.105 . S
O3 Sc0 2.025 . S
O3 Sc1 2.025 . S
O3 Sc2 2.025 . S
C4 O10 1.268 . S
C4 O20 1.268 . S
C5 O11 1.268 . S
C5 O19 1.268 . S
C6 O12 1.268 . S
C6 O21 1.268 . S
C7 O13 1.268 . S
C7 O17 1.268 . S
C8 O14 1.268 . S
C8 O16 1.268 . S
C9 O15 1.268 . S
C9 O18 1.268 . S
O10 Sc0 2.105 . S
O10 C4 1.268 . S
O11 Sc1 2.105 . S
O11 C5 1.268 . S
O12 Sc2 2.105 . S
O12 C6 1.268 . S
O13 Sc0 2.105 . S
O13 C7 1.268 . S
O14 Sc2 2.105 . S
O14 C8 1.268 . S
O15 Sc1 2.105 . S
O15 C9 1.268 . S
O16 Sc0 2.105 . S
O16 C8 1.268 . S
O17 Sc1 2.105 . S
O17 C7 1.268 . S
O18 Sc2 2.105 . S
O18 C9 1.268 . S
O19 Sc0 2.105 . S
O19 C5 1.268 . S
O20 Sc2 2.105 . S
O20 C4 1.268 . S
O21 Sc1 2.105 . S
O21 C6 1.268 . S
Sc22 O25 2.025 . S
Sc22 O32 2.105 . S
Sc22 O35 2.105 . S
Sc22 O38 2.105 . S
Sc22 O41 2.105 . S
Sc23 O25 2.025 . S
Sc23 O33 2.105 . S
Sc23 O37 2.105 . S
Sc23 O39 2.105 . S
Sc23 O43 2.105 . S
Sc24 O25 2.025 . S
Sc24 O34 2.105 . S
Sc24 O36 2.105 . S
Sc24 O40 2.105 . S
Sc24 O42 2.105 . S
O25 Sc22 2.025 . S
O25 Sc23 2.025 . S
O25 Sc24 2.025 . S
C26 O32 1.268 . S
C26 O42 1.268 . S
C27 O33 1.268 . S
C27 O41 1.268 . S
C28 O34 1.268 . S
C28 O43 1.268 . S
C29 O35 1.268 . S
C29 O39 1.268 . S
C30 O36 1.268 . S
C30 O38 1.268 . S
C31 O37 1.268 . S
C31 O40 1.268 . S
O32 Sc22 2.105 . S
O32 C26 1.268 . S
O33 Sc23 2.105 . S
O33 C27 1.268 . S
O34 Sc24 2.105 . S
O34 C28 1.268 . S
O35 Sc22 2.105 . S
O35 C29 1.268 . S
O36 Sc24 2.105 . S
O36 C30 1.268 . S
O37 Sc23 2.105 . S
O37 C31 1.268 . S
O38 Sc22 2.105 . S
O38 C30 1.268 . S
O39 Sc23 2.105 . S
O39 C29 1.268 . S
O40 Sc24 2.105 . S
O40 C31 1.268 . S
O41 Sc22 2.105 . S
O41 C27 1.268 . S
O42 Sc24 2.105 . S
O42 C26 1.268 . S
O43 Sc23 2.105 . S
O43 C28 1.268 . S
Sc44 O47 2.025 . S
Sc44 O54 2.105 . S
Sc44 O57 2.105 . S
Sc44 O60 2.105 . S
Sc44 O63 2.105 . S
Sc45 O47 2.025 . S
Sc45 O55 2.105 . S
Sc45 O59 2.105 . S
Sc45 O61 2.105 . S
Sc45 O65 2.105 . S
Sc46 O47 2.025 . S
Sc46 O56 2.105 . S
Sc46 O58 2.105 . S
Sc46 O62 2.105 . S
Sc46 O64 2.105 . S
O47 Sc44 2.025 . S
O47 Sc45 2.025 . S
O47 Sc46 2.025 . S
C48 O54 1.268 . S
C48 O64 1.268 . S
C49 O55 1.268 . S
C49 O63 1.268 . S
C50 O56 1.268 . S
C50 O65 1.268 . S
C51 O57 1.268 . S
C51 O61 1.268 . S
C52 O58 1.268 . S
C52 O60 1.268 . S
C53 O59 1.268 . S
C53 O62 1.268 . S
O54 Sc44 2.105 . S
O54 C48 1.268 . S
O55 Sc45 2.105 . S
O55 C49 1.268 . S
O56 Sc46 2.105 . S
O56 C50 1.268 . S
O57 Sc44 2.105 . S
O57 C51 1.268 . S
O58 Sc46 2.105 . S
O58 C52 1.268 . S
O59 Sc45 2.105 . S
O59 C53 1.268 . S
O60 Sc44 2.105 . S
O60 C52 1.268 . S
O61 Sc45 2.105 . S
O61 C51 1.268 . S
O62 Sc46 2.105 . S
O62 C53 1.268 . S
O63 Sc44 2.105 . S
O63 C49 1.268 . S
O64 Sc46 2.105 . S
O64 C48 1.268 . S
O65 Sc45 2.105 . S
O65 C50 1.268 . S
Sc66 O69 2.025 . S
Sc66 O76 2.105 . S
Sc66 O79 2.105 . S
Sc66 O82 2.105 . S
Sc66 O85 2.105 . S
Sc67 O69 2.025 . S
Sc67 O77 2.105 . S
Sc67 O81 2.105 . S
Sc67 O83 2.105 . S
Sc67 O87 2.105 . S
Sc68 O69 2.025 . S
Sc68 O78 2.105 . S
Sc68 O80 2.105 . S
Sc68 O84 2.105 . S
Sc68 O86 2.105 . S
O69 Sc66 2.025 . S
O69 Sc67 2.025 . S
O69 Sc68 2.025 . S
C70 O76 1.268 . S
C70 O86 1.268 . S
C71 O77 1.268 . S
C71 O85 1.268 . S
C72 O78 1.268 . S
C72 O87 1.268 . S
C73 O79 1.268 . S
C73 O83 1.268 . S
C74 O80 1.268 . S
C74 O82 1.268 . S
C75 O81 1.268 . S
C75 O84 1.268 . S
O76 Sc66 2.105 . S
O76 C70 1.268 . S
O77 Sc67 2.105 . S
O77 C71 1.268 . S
O78 Sc68 2.105 . S
O78 C72 1.268 . S
O79 Sc66 2.105 . S
O79 C73 1.268 . S
O80 Sc68 2.105 . S
O80 C74 1.268 . S
O81 Sc67 2.105 . S
O81 C75 1.268 . S
O82 Sc66 2.105 . S
O82 C74 1.268 . S
O83 Sc67 2.105 . S
O83 C73 1.268 . S
O84 Sc68 2.105 . S
O84 C75 1.268 . S
O85 Sc66 2.105 . S
O85 C71 1.268 . S
O86 Sc68 2.105 . S
O86 C70 1.268 . S
O87 Sc67 2.105 . S
O87 C72 1.268 . S
Sc88 O91 2.025 . S
Sc88 O98 2.105 . S
Sc88 O101 2.105 . S
Sc88 O104 2.105 . S
Sc88 O107 2.105 . S
Sc89 O91 2.025 . S
Sc89 O99 2.105 . S
Sc89 O103 2.105 . S
Sc89 O105 2.105 . S
Sc89 O109 2.105 . S
Sc90 O91 2.025 . S
Sc90 O100 2.105 . S
Sc90 O102 2.105 . S
Sc90 O106 2.105 . S
Sc90 O108 2.105 . S
O91 Sc88 2.025 . S
O91 Sc89 2.025 . S
O91 Sc90 2.025 . S
C92 O98 1.268 . S
C92 O108 1.268 . S
C93 O99 1.268 . S
C93 O107 1.268 . S
C94 O100 1.268 . S
C94 O109 1.268 . S
C95 O101 1.268 . S
C95 O105 1.268 . S
C96 O102 1.268 . S
C96 O104 1.268 . S
C97 O103 1.268 . S
C97 O106 1.268 . S
O98 Sc88 2.105 . S
O98 C92 1.268 . S
O99 Sc89 2.105 . S
O99 C93 1.268 . S
O100 Sc90 2.105 . S
O100 C94 1.268 . S
O101 Sc88 2.105 . S
O101 C95 1.268 . S
O102 Sc90 2.105 . S
O102 C96 1.268 . S
O103 Sc89 2.105 . S
O103 C97 1.268 . S
O104 Sc88 2.105 . S
O104 C96 1.268 . S
O105 Sc89 2.105 . S
O105 C95 1.268 . S
O106 Sc90 2.105 . S
O106 C97 1.268 . S
O107 Sc88 2.105 . S
O107 C93 1.268 . S
O108 Sc90 2.105 . S
O108 C92 1.268 . S
O109 Sc89 2.105 . S
O109 C94 1.268 . S
Sc110 O113 2.025 . S
Sc110 O120 2.105 . S
Sc110 O123 2.105 . S
Sc110 O126 2.105 . S
Sc110 O129 2.105 . S
Sc111 O113 2.025 . S
Sc111 O121 2.105 . S
Sc111 O125 2.105 . S
Sc111 O127 2.105 . S
Sc111 O131 2.105 . S
Sc112 O113 2.025 . S
Sc112 O122 2.105 . S
Sc112 O124 2.105 . S
Sc112 O128 2.105 . S
Sc112 O130 2.105 . S
O113 Sc110 2.025 . S
O113 Sc111 2.025 . S
O113 Sc112 2.025 . S
C114 O120 1.268 . S
C114 O130 1.268 . S
C115 O121 1.268 . S
C115 O129 1.268 . S
C116 O122 1.268 . S
C116 O131 1.268 . S
C117 O123 1.268 . S
C117 O127 1.268 . S
C118 O124 1.268 . S
C118 O126 1.268 . S
C119 O125 1.268 . S
C119 O128 1.268 . S
O120 Sc110 2.105 . S
O120 C114 1.268 . S
O121 Sc111 2.105 . S
O121 C115 1.268 . S
O122 Sc112 2.105 . S
O122 C116 1.268 . S
O123 Sc110 2.105 . S
O123 C117 1.268 . S
O124 Sc112 2.105 . S
O124 C118 1.268 . S
O125 Sc111 2.105 . S
O125 C119 1.268 . S
O126 Sc110 2.105 . S
O126 C118 1.268 . S
O127 Sc111 2.105 . S
O127 C117 1.268 . S
O128 Sc112 2.105 . S
O128 C119 1.268 . S
O129 Sc110 2.105 . S
O129 C115 1.268 . S
O130 Sc112 2.105 . S
O130 C114 1.268 . S
O131 Sc111 2.105 . S
O131 C116 1.268 . S
Sc132 O135 2.025 . S
Sc132 O142 2.105 . S
Sc132 O145 2.105 . S
Sc132 O148 2.105 . S
Sc132 O151 2.105 . S
Sc133 O135 2.025 . S
Sc133 O143 2.105 . S
Sc133 O147 2.105 . S
Sc133 O149 2.105 . S
Sc133 O153 2.105 . S
Sc134 O135 2.025 . S
Sc134 O144 2.105 . S
Sc134 O146 2.105 . S
Sc134 O150 2.105 . S
Sc134 O152 2.105 . S
O135 Sc132 2.025 . S
O135 Sc133 2.025 . S
O135 Sc134 2.025 . S
C136 O142 1.268 . S
C136 O152 1.268 . S
C137 O143 1.268 . S
C137 O151 1.268 . S
C138 O144 1.268 . S
C138 O153 1.268 . S
C139 O145 1.268 . S
C139 O149 1.268 . S
C140 O146 1.268 . S
C140 O148 1.268 . S
C141 O147 1.268 . S
C141 O150 1.268 . S
O142 Sc132 2.105 . S
O142 C136 1.268 . S
O143 Sc133 2.105 . S
O143 C137 1.268 . S
O144 Sc134 2.105 . S
O144 C138 1.268 . S
O145 Sc132 2.105 . S
O145 C139 1.268 . S
O146 Sc134 2.105 . S
O146 C140 1.268 . S
O147 Sc133 2.105 . S
O147 C141 1.268 . S
O148 Sc132 2.105 . S
O148 C140 1.268 . S
O149 Sc133 2.105 . S
O149 C139 1.268 . S
O150 Sc134 2.105 . S
O150 C141 1.268 . S
O151 Sc132 2.105 . S
O151 C137 1.268 . S
O152 Sc134 2.105 . S
O152 C136 1.268 . S
O153 Sc133 2.105 . S
O153 C138 1.268 . S
Sc154 O157 2.025 . S
Sc154 O164 2.105 . S
Sc154 O167 2.105 . S
Sc154 O170 2.105 . S
Sc154 O173 2.105 . S
Sc155 O157 2.025 . S
Sc155 O165 2.105 . S
Sc155 O169 2.105 . S
Sc155 O171 2.105 . S
Sc155 O175 2.105 . S
Sc156 O157 2.025 . S
Sc156 O166 2.105 . S
Sc156 O168 2.105 . S
Sc156 O172 2.105 . S
Sc156 O174 2.105 . S
O157 Sc154 2.025 . S
O157 Sc155 2.025 . S
O157 Sc156 2.025 . S
C158 O164 1.268 . S
C158 O174 1.268 . S
C159 O165 1.268 . S
C159 O173 1.268 . S
C160 O166 1.268 . S
C160 O175 1.268 . S
C161 O167 1.268 . S
C161 O171 1.268 . S
C162 O168 1.268 . S
C162 O170 1.268 . S
C163 O169 1.268 . S
C163 O172 1.268 . S
O164 Sc154 2.105 . S
O164 C158 1.268 . S
O165 Sc155 2.105 . S
O165 C159 1.268 . S
O166 Sc156 2.105 . S
O166 C160 1.268 . S
O167 Sc154 2.105 . S
O167 C161 1.268 . S
O168 Sc156 2.105 . S
O168 C162 1.268 . S
O169 Sc155 2.105 . S
O169 C163 1.268 . S
O170 Sc154 2.105 . S
O170 C162 1.268 . S
O171 Sc155 2.105 . S
O171 C161 1.268 . S
O172 Sc156 2.105 . S
O172 C163 1.268 . S
O173 Sc154 2.105 . S
O173 C159 1.268 . S
O174 Sc156 2.105 . S
O174 C158 1.268 . S
O175 Sc155 2.105 . S
O175 C160 1.268 . S
Sc176 O179 2.025 . S
Sc176 O186 2.105 . S
Sc176 O189 2.105 . S
Sc176 O192 2.105 . S
Sc176 O195 2.105 . S
Sc177 O179 2.025 . S
Sc177 O187 2.105 . S
Sc177 O191 2.105 . S
Sc177 O193 2.105 . S
Sc177 O197 2.105 . S
Sc178 O179 2.025 . S
Sc178 O188 2.105 . S
Sc178 O190 2.105 . S
Sc178 O194 2.105 . S
Sc178 O196 2.105 . S
O179 Sc176 2.025 . S
O179 Sc177 2.025 . S
O179 Sc178 2.025 . S
C180 O186 1.268 . S
C180 O196 1.268 . S
C181 O187 1.268 . S
C181 O195 1.268 . S
C182 O188 1.268 . S
C182 O197 1.268 . S
C183 O189 1.268 . S
C183 O193 1.268 . S
C184 O190 1.268 . S
C184 O192 1.268 . S
C185 O191 1.268 . S
C185 O194 1.268 . S
O186 Sc176 2.105 . S
O186 C180 1.268 . S
O187 Sc177 2.105 . S
O187 C181 1.268 . S
O188 Sc178 2.105 . S
O188 C182 1.268 . S
O189 Sc176 2.105 . S
O189 C183 1.268 . S
O190 Sc178 2.105 . S
O190 C184 1.268 . S
O191 Sc177 2.105 . S
O191 C185 1.268 . S
O192 Sc176 2.105 . S
O192 C184 1.268 . S
O193 Sc177 2.105 . S
O193 C183 1.268 . S
O194 Sc178 2.105 . S
O194 C185 1.268 . S
O195 Sc176 2.105 . S
O195 C181 1.268 . S
O196 Sc178 2.105 . S
O196 C180 1.268 . S
O197 Sc177 2.105 . S
O197 C182 1.268 . S
Sc198 O201 2.025 . S
Sc198 O208 2.105 . S
Sc198 O211 2.105 . S
Sc198 O214 2.105 . S
Sc198 O217 2.105 . S
Sc199 O201 2.025 . S
Sc199 O209 2.105 . S
Sc199 O213 2.105 . S
Sc199 O215 2.105 . S
Sc199 O219 2.105 . S
Sc200 O201 2.025 . S
Sc200 O210 2.105 . S
Sc200 O212 2.105 . S
Sc200 O216 2.105 . S
Sc200 O218 2.105 . S
O201 Sc198 2.025 . S
O201 Sc199 2.025 . S
O201 Sc200 2.025 . S
C202 O208 1.268 . S
C202 O218 1.268 . S
C203 O209 1.268 . S
C203 O217 1.268 . S
C204 O210 1.268 . S
C204 O219 1.268 . S
C205 O211 1.268 . S
C205 O215 1.268 . S
C206 O212 1.268 . S
C206 O214 1.268 . S
C207 O213 1.268 . S
C207 O216 1.268 . S
O208 Sc198 2.105 . S
O208 C202 1.268 . S
O209 Sc199 2.105 . S
O209 C203 1.268 . S
O210 Sc200 2.105 . S
O210 C204 1.268 . S
O211 Sc198 2.105 . S
O211 C205 1.268 . S
O212 Sc200 2.105 . S
O212 C206 1.268 . S
O213 Sc199 2.105 . S
O213 C207 1.268 . S
O214 Sc198 2.105 . S
O214 C206 1.268 . S
O215 Sc199 2.105 . S
O215 C205 1.268 . S
O216 Sc200 2.105 . S
O216 C207 1.268 . S
O217 Sc198 2.105 . S
O217 C203 1.268 . S
O218 Sc200 2.105 . S
O218 C202 1.268 . S
O219 Sc199 2.105 . S
O219 C204 1.268 . S
Sc220 O223 2.025 . S
Sc220 O230 2.105 . S
Sc220 O233 2.105 . S
Sc220 O236 2.105 . S
Sc220 O239 2.105 . S
Sc221 O223 2.025 . S
Sc221 O231 2.105 . S
Sc221 O235 2.105 . S
Sc221 O237 2.105 . S
Sc221 O241 2.105 . S
Sc222 O223 2.025 . S
Sc222 O232 2.105 . S
Sc222 O234 2.105 . S
Sc222 O238 2.105 . S
Sc222 O240 2.105 . S
O223 Sc220 2.025 . S
O223 Sc221 2.025 . S
O223 Sc222 2.025 . S
C224 O230 1.268 . S
C224 O240 1.268 . S
C225 O231 1.268 . S
C225 O239 1.268 . S
C226 O232 1.268 . S
C226 O241 1.268 . S
C227 O233 1.268 . S
C227 O237 1.268 . S
C228 O234 1.268 . S
C228 O236 1.268 . S
C229 O235 1.268 . S
C229 O238 1.268 . S
O230 Sc220 2.105 . S
O230 C224 1.268 . S
O231 Sc221 2.105 . S
O231 C225 1.268 . S
O232 Sc222 2.105 . S
O232 C226 1.268 . S
O233 Sc220 2.105 . S
O233 C227 1.268 . S
O234 Sc222 2.105 . S
O234 C228 1.268 . S
O235 Sc221 2.105 . S
O235 C229 1.268 . S
O236 Sc220 2.105 . S
O236 C228 1.268 . S
O237 Sc221 2.105 . S
O237 C227 1.268 . S
O238 Sc222 2.105 . S
O238 C229 1.268 . S
O239 Sc220 2.105 . S
O239 C225 1.268 . S
O240 Sc222 2.105 . S
O240 C224 1.268 . S
O241 Sc221 2.105 . S
O241 C226 1.268 . S
Sc242 O245 2.025 . S
Sc242 O252 2.105 . S
Sc242 O255 2.105 . S
Sc242 O258 2.105 . S
Sc242 O261 2.105 . S
Sc243 O245 2.025 . S
Sc243 O253 2.105 . S
Sc243 O257 2.105 . S
Sc243 O259 2.105 . S
Sc243 O263 2.105 . S
Sc244 O245 2.025 . S
Sc244 O254 2.105 . S
Sc244 O256 2.105 . S
Sc244 O260 2.105 . S
Sc244 O262 2.105 . S
O245 Sc242 2.025 . S
O245 Sc243 2.025 . S
O245 Sc244 2.025 . S
C246 O252 1.268 . S
C246 O262 1.268 . S
C247 O253 1.268 . S
C247 O261 1.268 . S
C248 O254 1.268 . S
C248 O263 1.268 . S
C249 O255 1.268 . S
C249 O259 1.268 . S
C250 O256 1.268 . S
C250 O258 1.268 . S
C251 O257 1.268 . S
C251 O260 1.268 . S
O252 Sc242 2.105 . S
O252 C246 1.268 . S
O253 Sc243 2.105 . S
O253 C247 1.268 . S
O254 Sc244 2.105 . S
O254 C248 1.268 . S
O255 Sc242 2.105 . S
O255 C249 1.268 . S
O256 Sc244 2.105 . S
O256 C250 1.268 . S
O257 Sc243 2.105 . S
O257 C251 1.268 . S
O258 Sc242 2.105 . S
O258 C250 1.268 . S
O259 Sc243 2.105 . S
O259 C249 1.268 . S
O260 Sc244 2.105 . S
O260 C251 1.268 . S
O261 Sc242 2.105 . S
O261 C247 1.268 . S
O262 Sc244 2.105 . S
O262 C246 1.268 . S
O263 Sc243 2.105 . S
O263 C248 1.268 . S
Sc264 O267 2.025 . S
Sc264 O274 2.105 . S
Sc264 O277 2.105 . S
Sc264 O280 2.105 . S
Sc264 O283 2.105 . S
Sc265 O267 2.025 . S
Sc265 O275 2.105 . S
Sc265 O279 2.105 . S
Sc265 O281 2.105 . S
Sc265 O285 2.105 . S
Sc266 O267 2.025 . S
Sc266 O276 2.105 . S
Sc266 O278 2.105 . S
Sc266 O282 2.105 . S
Sc266 O284 2.105 . S
O267 Sc264 2.025 . S
O267 Sc265 2.025 . S
O267 Sc266 2.025 . S
C268 O274 1.268 . S
C268 O284 1.268 . S
C269 O275 1.268 . S
C269 O283 1.268 . S
C270 O276 1.268 . S
C270 O285 1.268 . S
C271 O277 1.268 . S
C271 O281 1.268 . S
C272 O278 1.268 . S
C272 O280 1.268 . S
C273 O279 1.268 . S
C273 O282 1.268 . S
O274 Sc264 2.105 . S
O274 C268 1.268 . S
O275 Sc265 2.105 . S
O275 C269 1.268 . S
O276 Sc266 2.105 . S
O276 C270 1.268 . S
O277 Sc264 2.105 . S
O277 C271 1.268 . S
O278 Sc266 2.105 . S
O278 C272 1.268 . S
O279 Sc265 2.105 . S
O279 C273 1.268 . S
O280 Sc264 2.105 . S
O280 C272 1.268 . S
O281 Sc265 2.105 . S
O281 C271 1.268 . S
O282 Sc266 2.105 . S
O282 C273 1.268 . S
O283 Sc264 2.105 . S
O283 C269 1.268 . S
O284 Sc266 2.105 . S
O284 C268 1.268 . S
O285 Sc265 2.105 . S
O285 C270 1.268 . S
Sc286 O289 2.025 . S
Sc286 O296 2.105 . S
Sc286 O299 2.105 . S
Sc286 O302 2.105 . S
Sc286 O305 2.105 . S
Sc287 O289 2.025 . S
Sc287 O297 2.105 . S
Sc287 O301 2.105 . S
Sc287 O303 2.105 . S
Sc287 O307 2.105 . S
Sc288 O289 2.025 . S
Sc288 O298 2.105 . S
Sc288 O300 2.105 . S
Sc288 O304 2.105 . S
Sc288 O306 2.105 . S
O289 Sc286 2.025 . S
O289 Sc287 2.025 . S
O289 Sc288 2.025 . S
C290 O296 1.268 . S
C290 O306 1.268 . S
C291 O297 1.268 . S
C291 O305 1.268 . S
C292 O298 1.268 . S
C292 O307 1.268 . S
C293 O299 1.268 . S
C293 O303 1.268 . S
C294 O300 1.268 . S
C294 O302 1.268 . S
C295 O301 1.268 . S
C295 O304 1.268 . S
O296 Sc286 2.105 . S
O296 C290 1.268 . S
O297 Sc287 2.105 . S
O297 C291 1.268 . S
O298 Sc288 2.105 . S
O298 C292 1.268 . S
O299 Sc286 2.105 . S
O299 C293 1.268 . S
O300 Sc288 2.105 . S
O300 C294 1.268 . S
O301 Sc287 2.105 . S
O301 C295 1.268 . S
O302 Sc286 2.105 . S
O302 C294 1.268 . S
O303 Sc287 2.105 . S
O303 C293 1.268 . S
O304 Sc288 2.105 . S
O304 C295 1.268 . S
O305 Sc286 2.105 . S
O305 C291 1.268 . S
O306 Sc288 2.105 . S
O306 C290 1.268 . S
O307 Sc287 2.105 . S
O307 C292 1.268 . S
Sc308 O311 2.025 . S
Sc308 O318 2.105 . S
Sc308 O321 2.105 . S
Sc308 O324 2.105 . S
Sc308 O327 2.105 . S
Sc309 O311 2.025 . S
Sc309 O319 2.105 . S
Sc309 O323 2.105 . S
Sc309 O325 2.105 . S
Sc309 O329 2.105 . S
Sc310 O311 2.025 . S
Sc310 O320 2.105 . S
Sc310 O322 2.105 . S
Sc310 O326 2.105 . S
Sc310 O328 2.105 . S
O311 Sc308 2.025 . S
O311 Sc309 2.025 . S
O311 Sc310 2.025 . S
C312 O318 1.268 . S
C312 O328 1.268 . S
C313 O319 1.268 . S
C313 O327 1.268 . S
C314 O320 1.268 . S
C314 O329 1.268 . S
C315 O321 1.268 . S
C315 O325 1.268 . S
C316 O322 1.268 . S
C316 O324 1.268 . S
C317 O323 1.268 . S
C317 O326 1.268 . S
O318 Sc308 2.105 . S
O318 C312 1.268 . S
O319 Sc309 2.105 . S
O319 C313 1.268 . S
O320 Sc310 2.105 . S
O320 C314 1.268 . S
O321 Sc308 2.105 . S
O321 C315 1.268 . S
O322 Sc310 2.105 . S
O322 C316 1.268 . S
O323 Sc309 2.105 . S
O323 C317 1.268 . S
O324 Sc308 2.105 . S
O324 C316 1.268 . S
O325 Sc309 2.105 . S
O325 C315 1.268 . S
O326 Sc310 2.105 . S
O326 C317 1.268 . S
O327 Sc308 2.105 . S
O327 C313 1.268 . S
O328 Sc310 2.105 . S
O328 C312 1.268 . S
O329 Sc309 2.105 . S
O329 C314 1.268 . S
Sc330 O333 2.025 . S
Sc330 O340 2.105 . S
Sc330 O343 2.105 . S
Sc330 O346 2.105 . S
Sc330 O349 2.105 . S
Sc331 O333 2.025 . S
Sc331 O341 2.105 . S
Sc331 O345 2.105 . S
Sc331 O347 2.105 . S
Sc331 O351 2.105 . S
Sc332 O333 2.025 . S
Sc332 O342 2.105 . S
Sc332 O344 2.105 . S
Sc332 O348 2.105 . S
Sc332 O350 2.105 . S
O333 Sc330 2.025 . S
O333 Sc331 2.025 . S
O333 Sc332 2.025 . S
C334 O340 1.268 . S
C334 O350 1.268 . S
C335 O341 1.268 . S
C335 O349 1.268 . S
C336 O342 1.268 . S
C336 O351 1.268 . S
C337 O343 1.268 . S
C337 O347 1.268 . S
C338 O344 1.268 . S
C338 O346 1.268 . S
C339 O345 1.268 . S
C339 O348 1.268 . S
O340 Sc330 2.105 . S
O340 C334 1.268 . S
O341 Sc331 2.105 . S
O341 C335 1.268 . S
O342 Sc332 2.105 . S
O342 C336 1.268 . S
O343 Sc330 2.105 . S
O343 C337 1.268 . S
O344 Sc332 2.105 . S
O344 C338 1.268 . S
O345 Sc331 2.105 . S
O345 C339 1.268 . S
O346 Sc330 2.105 . S
O346 C338 1.268 . S
O347 Sc331 2.105 . S
O347 C337 1.268 . S
O348 Sc332 2.105 . S
O348 C339 1.268 . S
O349 Sc330 2.105 . S
O349 C335 1.268 . S
O350 Sc332 2.105 . S
O350 C334 1.268 . S
O351 Sc331 2.105 . S
O351 C336 1.268 . S
Sc352 O355 2.025 . S
Sc352 O362 2.105 . S
Sc352 O365 2.105 . S
Sc352 O368 2.105 . S
Sc352 O371 2.105 . S
Sc353 O355 2.025 . S
Sc353 O363 2.105 . S
Sc353 O367 2.105 . S
Sc353 O369 2.105 . S
Sc353 O373 2.105 . S
Sc354 O355 2.025 . S
Sc354 O364 2.105 . S
Sc354 O366 2.105 . S
Sc354 O370 2.105 . S
Sc354 O372 2.105 . S
O355 Sc352 2.025 . S
O355 Sc353 2.025 . S
O355 Sc354 2.025 . S
C356 O362 1.268 . S
C356 O372 1.268 . S
C357 O363 1.268 . S
C357 O371 1.268 . S
C358 O364 1.268 . S
C358 O373 1.268 . S
C359 O365 1.268 . S
C359 O369 1.268 . S
C360 O366 1.268 . S
C360 O368 1.268 . S
C361 O367 1.268 . S
C361 O370 1.268 . S
O362 Sc352 2.105 . S
O362 C356 1.268 . S
O363 Sc353 2.105 . S
O363 C357 1.268 . S
O364 Sc354 2.105 . S
O364 C358 1.268 . S
O365 Sc352 2.105 . S
O365 C359 1.268 . S
O366 Sc354 2.105 . S
O366 C360 1.268 . S
O367 Sc353 2.105 . S
O367 C361 1.268 . S
O368 Sc352 2.105 . S
O368 C360 1.268 . S
O369 Sc353 2.105 . S
O369 C359 1.268 . S
O370 Sc354 2.105 . S
O370 C361 1.268 . S
O371 Sc352 2.105 . S
O371 C357 1.268 . S
O372 Sc354 2.105 . S
O372 C356 1.268 . S
O373 Sc353 2.105 . S
O373 C358 1.268 . S
Sc374 O377 2.025 . S
Sc374 O384 2.105 . S
Sc374 O387 2.105 . S
Sc374 O390 2.105 . S
Sc374 O393 2.105 . S
Sc375 O377 2.025 . S
Sc375 O385 2.105 . S
Sc375 O389 2.105 . S
Sc375 O391 2.105 . S
Sc375 O395 2.105 . S
Sc376 O377 2.025 . S
Sc376 O386 2.105 . S
Sc376 O388 2.105 . S
Sc376 O392 2.105 . S
Sc376 O394 2.105 . S
O377 Sc374 2.025 . S
O377 Sc375 2.025 . S
O377 Sc376 2.025 . S
C378 O384 1.268 . S
C378 O394 1.268 . S
C379 O385 1.268 . S
C379 O393 1.268 . S
C380 O386 1.268 . S
C380 O395 1.268 . S
C381 O387 1.268 . S
C381 O391 1.268 . S
C382 O388 1.268 . S
C382 O390 1.268 . S
C383 O389 1.268 . S
C383 O392 1.268 . S
O384 Sc374 2.105 . S
O384 C378 1.268 . S
O385 Sc375 2.105 . S
O385 C379 1.268 . S
O386 Sc376 2.105 . S
O386 C380 1.268 . S
O387 Sc374 2.105 . S
O387 C381 1.268 . S
O388 Sc376 2.105 . S
O388 C382 1.268 . S
O389 Sc375 2.105 . S
O389 C383 1.268 . S
O390 Sc374 2.105 . S
O390 C382 1.268 . S
O391 Sc375 2.105 . S
O391 C381 1.268 . S
O392 Sc376 2.105 . S
O392 C383 1.268 . S
O393 Sc374 2.105 . S
O393 C379 1.268 . S
O394 Sc376 2.105 . S
O394 C378 1.268 . S
O395 Sc375 2.105 . S
O395 C380 1.268 . S
H396 C404 0.950 . S
H397 C409 0.950 . S
H398 C406 0.950 . S
H399 C408 0.950 . S
H400 C410 0.950 . S
H401 C412 0.950 . S
H402 C414 0.950 . S
H403 C415 0.950 . S
C404 H396 0.950 . S
C404 C405 1.386 . S
C404 C406 1.391 . S
C405 C404 1.386 . S
C405 C409 1.393 . S
C406 H398 0.950 . S
C406 C404 1.391 . S
C406 C407 1.400 . S
C407 C406 1.400 . S
C407 C408 1.398 . S
C407 C413 1.491 . S
C408 H399 0.950 . S
C408 C407 1.398 . S
C408 C409 1.391 . S
C409 H397 0.950 . S
C409 C405 1.393 . S
C409 C408 1.391 . S
C410 H400 0.950 . S
C410 C411 1.386 . S
C410 C412 1.391 . S
C411 C410 1.386 . S
C411 C415 1.393 . S
C412 H401 0.950 . S
C412 C410 1.391 . S
C412 C413 1.400 . S
C413 C407 1.491 . S
C413 C412 1.400 . S
C413 C414 1.398 . S
C414 H402 0.950 . S
C414 C413 1.398 . S
C414 C415 1.391 . S
C415 H403 0.950 . S
C415 C411 1.393 . S
C415 C414 1.391 . S
H416 C424 0.950 . S
H417 C429 0.950 . S
H418 C426 0.950 . S
H419 C428 0.950 . S
H420 C430 0.950 . S
H421 C432 0.950 . S
H422 C434 0.950 . S
H423 C435 0.950 . S
C424 H416 0.950 . S
C424 C425 1.386 . S
C424 C426 1.391 . S
C425 C424 1.386 . S
C425 C429 1.393 . S
C426 H418 0.950 . S
C426 C424 1.391 . S
C426 C427 1.400 . S
C427 C426 1.400 . S
C427 C428 1.398 . S
C427 C433 1.491 . S
C428 H419 0.950 . S
C428 C427 1.398 . S
C428 C429 1.391 . S
C429 H417 0.950 . S
C429 C425 1.393 . S
C429 C428 1.391 . S
C430 H420 0.950 . S
C430 C431 1.386 . S
C430 C432 1.391 . S
C431 C430 1.386 . S
C431 C435 1.393 . S
C432 H421 0.950 . S
C432 C430 1.391 . S
C432 C433 1.400 . S
C433 C427 1.491 . S
C433 C432 1.400 . S
C433 C434 1.398 . S
C434 H422 0.950 . S
C434 C433 1.398 . S
C434 C435 1.391 . S
C435 H423 0.950 . S
C435 C431 1.393 . S
C435 C434 1.391 . S
H436 C444 0.950 . S
H437 C449 0.950 . S
H438 C446 0.950 . S
H439 C448 0.950 . S
H440 C450 0.950 . S
H441 C452 0.950 . S
H442 C454 0.950 . S
H443 C455 0.950 . S
C444 H436 0.950 . S
C444 C445 1.386 . S
C444 C446 1.391 . S
C445 C444 1.386 . S
C445 C449 1.393 . S
C446 H438 0.950 . S
C446 C444 1.391 . S
C446 C447 1.400 . S
C447 C446 1.400 . S
C447 C448 1.398 . S
C447 C453 1.491 . S
C448 H439 0.950 . S
C448 C447 1.398 . S
C448 C449 1.391 . S
C449 H437 0.950 . S
C449 C445 1.393 . S
C449 C448 1.391 . S
C450 H440 0.950 . S
C450 C451 1.386 . S
C450 C452 1.391 . S
C451 C450 1.386 . S
C451 C455 1.393 . S
C452 H441 0.950 . S
C452 C450 1.391 . S
C452 C453 1.400 . S
C453 C447 1.491 . S
C453 C452 1.400 . S
C453 C454 1.398 . S
C454 H442 0.950 . S
C454 C453 1.398 . S
C454 C455 1.391 . S
C455 H443 0.950 . S
C455 C451 1.393 . S
C455 C454 1.391 . S
H456 C464 0.950 . S
H457 C469 0.950 . S
H458 C466 0.950 . S
H459 C468 0.950 . S
H460 C470 0.950 . S
H461 C472 0.950 . S
H462 C474 0.950 . S
H463 C475 0.950 . S
C464 H456 0.950 . S
C464 C465 1.386 . S
C464 C466 1.391 . S
C465 C464 1.386 . S
C465 C469 1.393 . S
C466 H458 0.950 . S
C466 C464 1.391 . S
C466 C467 1.400 . S
C467 C466 1.400 . S
C467 C468 1.398 . S
C467 C473 1.491 . S
C468 H459 0.950 . S
C468 C467 1.398 . S
C468 C469 1.391 . S
C469 H457 0.950 . S
C469 C465 1.393 . S
C469 C468 1.391 . S
C470 H460 0.950 . S
C470 C471 1.386 . S
C470 C472 1.391 . S
C471 C470 1.386 . S
C471 C475 1.393 . S
C472 H461 0.950 . S
C472 C470 1.391 . S
C472 C473 1.400 . S
C473 C467 1.491 . S
C473 C472 1.400 . S
C473 C474 1.398 . S
C474 H462 0.950 . S
C474 C473 1.398 . S
C474 C475 1.391 . S
C475 H463 0.950 . S
C475 C471 1.393 . S
C475 C474 1.391 . S
H476 C484 0.950 . S
H477 C489 0.950 . S
H478 C486 0.950 . S
H479 C488 0.950 . S
H480 C490 0.950 . S
H481 C492 0.950 . S
H482 C494 0.950 . S
H483 C495 0.950 . S
C484 H476 0.950 . S
C484 C485 1.386 . S
C484 C486 1.391 . S
C485 C484 1.386 . S
C485 C489 1.393 . S
C486 H478 0.950 . S
C486 C484 1.391 . S
C486 C487 1.400 . S
C487 C486 1.400 . S
C487 C488 1.398 . S
C487 C493 1.491 . S
C488 H479 0.950 . S
C488 C487 1.398 . S
C488 C489 1.391 . S
C489 H477 0.950 . S
C489 C485 1.393 . S
C489 C488 1.391 . S
C490 H480 0.950 . S
C490 C491 1.386 . S
C490 C492 1.391 . S
C491 C490 1.386 . S
C491 C495 1.393 . S
C492 H481 0.950 . S
C492 C490 1.391 . S
C492 C493 1.400 . S
C493 C487 1.491 . S
C493 C492 1.400 . S
C493 C494 1.398 . S
C494 H482 0.950 . S
C494 C493 1.398 . S
C494 C495 1.391 . S
C495 H483 0.950 . S
C495 C491 1.393 . S
C495 C494 1.391 . S
H496 C504 0.950 . S
H497 C509 0.950 . S
H498 C506 0.950 . S
H499 C508 0.950 . S
H500 C510 0.950 . S
H501 C512 0.950 . S
H502 C514 0.950 . S
H503 C515 0.950 . S
C504 H496 0.950 . S
C504 C505 1.386 . S
C504 C506 1.391 . S
C505 C504 1.386 . S
C505 C509 1.393 . S
C506 H498 0.950 . S
C506 C504 1.391 . S
C506 C507 1.400 . S
C507 C506 1.400 . S
C507 C508 1.398 . S
C507 C513 1.491 . S
C508 H499 0.950 . S
C508 C507 1.398 . S
C508 C509 1.391 . S
C509 H497 0.950 . S
C509 C505 1.393 . S
C509 C508 1.391 . S
C510 H500 0.950 . S
C510 C511 1.386 . S
C510 C512 1.391 . S
C511 C510 1.386 . S
C511 C515 1.393 . S
C512 H501 0.950 . S
C512 C510 1.391 . S
C512 C513 1.400 . S
C513 C507 1.491 . S
C513 C512 1.400 . S
C513 C514 1.398 . S
C514 H502 0.950 . S
C514 C513 1.398 . S
C514 C515 1.391 . S
C515 H503 0.950 . S
C515 C511 1.393 . S
C515 C514 1.391 . S
H516 C524 0.950 . S
H517 C529 0.950 . S
H518 C526 0.950 . S
H519 C528 0.950 . S
H520 C530 0.950 . S
H521 C532 0.950 . S
H522 C534 0.950 . S
H523 C535 0.950 . S
C524 H516 0.950 . S
C524 C525 1.386 . S
C524 C526 1.391 1_545 S
C525 C524 1.386 . S
C525 C529 1.393 1_545 S
C526 H518 0.950 . S
C526 C524 1.391 1_565 S
C526 C527 1.400 . S
C527 C526 1.400 . S
C527 C528 1.398 . S
C527 C533 1.491 . S
C528 H519 0.950 . S
C528 C527 1.398 . S
C528 C529 1.391 . S
C529 H517 0.950 . S
C529 C525 1.393 1_565 S
C529 C528 1.391 . S
C530 H520 0.950 . S
C530 C531 1.386 . S
C530 C532 1.391 . S
C531 C530 1.386 . S
C531 C535 1.393 . S
C532 H521 0.950 . S
C532 C530 1.391 . S
C532 C533 1.400 . S
C533 C527 1.491 . S
C533 C532 1.400 . S
C533 C534 1.398 . S
C534 H522 0.950 . S
C534 C533 1.398 . S
C534 C535 1.391 . S
C535 H523 0.950 . S
C535 C531 1.393 . S
C535 C534 1.391 . S
H536 C544 0.950 . S
H537 C549 0.950 . S
H538 C546 0.950 . S
H539 C548 0.950 . S
H540 C550 0.950 . S
H541 C552 0.950 . S
H542 C554 0.950 . S
H543 C555 0.950 . S
C544 H536 0.950 . S
C544 C545 1.386 . S
C544 C546 1.391 1_655 S
C545 C544 1.386 . S
C545 C549 1.393 1_655 S
C546 H538 0.950 . S
C546 C544 1.391 1_455 S
C546 C547 1.400 . S
C547 C546 1.400 . S
C547 C548 1.398 . S
C547 C553 1.491 . S
C548 H539 0.950 . S
C548 C547 1.398 . S
C548 C549 1.391 . S
C549 H537 0.950 . S
C549 C545 1.393 1_455 S
C549 C548 1.391 . S
C550 H540 0.950 . S
C550 C551 1.386 1_565 S
C550 C552 1.391 . S
C551 C550 1.386 1_545 S
C551 C555 1.393 . S
C552 H541 0.950 . S
C552 C550 1.391 . S
C552 C553 1.400 . S
C553 C547 1.491 . S
C553 C552 1.400 . S
C553 C554 1.398 . S
C554 H542 0.950 . S
C554 C553 1.398 . S
C554 C555 1.391 1_565 S
C555 H543 0.950 . S
C555 C551 1.393 . S
C555 C554 1.391 1_545 S
H556 C564 0.950 . S
H557 C569 0.950 . S
H558 C566 0.950 . S
H559 C568 0.950 . S
H560 C570 0.950 . S
H561 C572 0.950 . S
H562 C574 0.950 . S
H563 C575 0.950 . S
C564 H556 0.950 . S
C564 C565 1.386 . S
C564 C566 1.391 . S
C565 C564 1.386 . S
C565 C569 1.393 . S
C566 H558 0.950 . S
C566 C564 1.391 . S
C566 C567 1.400 . S
C567 C566 1.400 . S
C567 C568 1.398 . S
C567 C573 1.491 . S
C568 H559 0.950 . S
C568 C567 1.398 . S
C568 C569 1.391 . S
C569 H557 0.950 . S
C569 C565 1.393 . S
C569 C568 1.391 . S
C570 H560 0.950 . S
C570 C571 1.386 . S
C570 C572 1.391 1_655 S
C571 C570 1.386 . S
C571 C575 1.393 1_655 S
C572 H561 0.950 . S
C572 C570 1.391 1_455 S
C572 C573 1.400 . S
C573 C567 1.491 . S
C573 C572 1.400 . S
C573 C574 1.398 . S
C574 H562 0.950 . S
C574 C573 1.398 . S
C574 C575 1.391 . S
C575 H563 0.950 . S
C575 C571 1.393 1_455 S
C575 C574 1.391 . S
H576 C584 0.950 . S
H577 C589 0.950 . S
H578 C586 0.950 . S
H579 C588 0.950 . S
H580 C590 0.950 . S
H581 C592 0.950 . S
H582 C594 0.950 . S
H583 C595 0.950 . S
C584 H576 0.950 . S
C584 C585 1.386 . S
C584 C586 1.391 . S
C585 C584 1.386 . S
C585 C589 1.393 . S
C586 H578 0.950 . S
C586 C584 1.391 . S
C586 C587 1.400 . S
C587 C586 1.400 . S
C587 C588 1.398 . S
C587 C593 1.491 . S
C588 H579 0.950 . S
C588 C587 1.398 . S
C588 C589 1.391 . S
C589 H577 0.950 . S
C589 C585 1.393 . S
C589 C588 1.391 . S
C590 H580 0.950 . S
C590 C591 1.386 . S
C590 C592 1.391 . S
C591 C590 1.386 . S
C591 C595 1.393 . S
C592 H581 0.950 . S
C592 C590 1.391 . S
C592 C593 1.400 . S
C593 C587 1.491 . S
C593 C592 1.400 . S
C593 C594 1.398 . S
C594 H582 0.950 . S
C594 C593 1.398 . S
C594 C595 1.391 . S
C595 H583 0.950 . S
C595 C591 1.393 . S
C595 C594 1.391 . S
H596 C604 0.950 . S
H597 C609 0.950 . S
H598 C606 0.950 . S
H599 C608 0.950 . S
H600 C610 0.950 . S
H601 C612 0.950 . S
H602 C614 0.950 . S
H603 C615 0.950 . S
C604 H596 0.950 . S
C604 C605 1.386 . S
C604 C606 1.391 . S
C605 C604 1.386 . S
C605 C609 1.393 . S
C606 H598 0.950 . S
C606 C604 1.391 . S
C606 C607 1.400 . S
C607 C606 1.400 . S
C607 C608 1.398 . S
C607 C613 1.491 . S
C608 H599 0.950 . S
C608 C607 1.398 . S
C608 C609 1.391 . S
C609 H597 0.950 . S
C609 C605 1.393 . S
C609 C608 1.391 . S
C610 H600 0.950 . S
C610 C611 1.386 . S
C610 C612 1.391 . S
C611 C610 1.386 . S
C611 C615 1.393 . S
C612 H601 0.950 . S
C612 C610 1.391 . S
C612 C613 1.400 . S
C613 C607 1.491 . S
C613 C612 1.400 . S
C613 C614 1.398 . S
C614 H602 0.950 . S
C614 C613 1.398 . S
C614 C615 1.391 . S
C615 H603 0.950 . S
C615 C611 1.393 . S
C615 C614 1.391 . S
H616 C624 0.950 . S
H617 C629 0.950 . S
H618 C626 0.950 . S
H619 C628 0.950 . S
H620 C630 0.950 . S
H621 C632 0.950 . S
H622 C634 0.950 . S
H623 C635 0.950 . S
C624 H616 0.950 . S
C624 C625 1.386 . S
C624 C626 1.391 . S
C625 C624 1.386 . S
C625 C629 1.393 . S
C626 H618 0.950 . S
C626 C624 1.391 . S
C626 C627 1.400 . S
C627 C626 1.400 . S
C627 C628 1.398 . S
C627 C633 1.491 . S
C628 H619 0.950 . S
C628 C627 1.398 . S
C628 C629 1.391 . S
C629 H617 0.950 . S
C629 C625 1.393 . S
C629 C628 1.391 . S
C630 H620 0.950 . S
C630 C631 1.386 . S
C630 C632 1.391 . S
C631 C630 1.386 . S
C631 C635 1.393 . S
C632 H621 0.950 . S
C632 C630 1.391 . S
C632 C633 1.400 . S
C633 C627 1.491 . S
C633 C632 1.400 . S
C633 C634 1.398 . S
C634 H622 0.950 . S
C634 C633 1.398 . S
C634 C635 1.391 . S
C635 H623 0.950 . S
C635 C631 1.393 . S
C635 C634 1.391 . S
H636 C644 0.950 . S
H637 C649 0.950 . S
H638 C646 0.950 . S
H639 C648 0.950 . S
H640 C650 0.950 . S
H641 C652 0.950 . S
H642 C654 0.950 . S
H643 C655 0.950 . S
C644 H636 0.950 . S
C644 C645 1.386 . S
C644 C646 1.391 . S
C645 C644 1.386 . S
C645 C649 1.393 . S
C646 H638 0.950 . S
C646 C644 1.391 . S
C646 C647 1.400 . S
C647 C646 1.400 . S
C647 C648 1.398 . S
C647 C653 1.491 . S
C648 H639 0.950 . S
C648 C647 1.398 . S
C648 C649 1.391 . S
C649 H637 0.950 . S
C649 C645 1.393 . S
C649 C648 1.391 . S
C650 H640 0.950 . S
C650 C651 1.386 . S
C650 C652 1.391 . S
C651 C650 1.386 . S
C651 C655 1.393 . S
C652 H641 0.950 . S
C652 C650 1.391 . S
C652 C653 1.400 . S
C653 C647 1.491 . S
C653 C652 1.400 . S
C653 C654 1.398 . S
C654 H642 0.950 . S
C654 C653 1.398 . S
C654 C655 1.391 . S
C655 H643 0.950 . S
C655 C651 1.393 . S
C655 C654 1.391 . S
H656 C664 0.950 . S
H657 C669 0.950 . S
H658 C666 0.950 . S
H659 C668 0.950 . S
H660 C670 0.950 . S
H661 C672 0.950 . S
H662 C674 0.950 . S
H663 C675 0.950 . S
C664 H656 0.950 . S
C664 C665 1.386 . S
C664 C666 1.391 . S
C665 C664 1.386 . S
C665 C669 1.393 . S
C666 H658 0.950 . S
C666 C664 1.391 . S
C666 C667 1.400 . S
C667 C666 1.400 . S
C667 C668 1.398 . S
C667 C673 1.491 . S
C668 H659 0.950 . S
C668 C667 1.398 . S
C668 C669 1.391 . S
C669 H657 0.950 . S
C669 C665 1.393 . S
C669 C668 1.391 . S
C670 H660 0.950 . S
C670 C671 1.386 . S
C670 C672 1.391 . S
C671 C670 1.386 . S
C671 C675 1.393 . S
C672 H661 0.950 . S
C672 C670 1.391 . S
C672 C673 1.400 . S
C673 C667 1.491 . S
C673 C672 1.400 . S
C673 C674 1.398 . S
C674 H662 0.950 . S
C674 C673 1.398 . S
C674 C675 1.391 . S
C675 H663 0.950 . S
C675 C671 1.393 . S
C675 C674 1.391 . S
H676 C684 0.950 . S
H677 C689 0.950 . S
H678 C686 0.950 . S
H679 C688 0.950 . S
H680 C690 0.950 . S
H681 C692 0.950 . S
H682 C694 0.950 . S
H683 C695 0.950 . S
C684 H676 0.950 . S
C684 C685 1.386 . S
C684 C686 1.391 . S
C685 C684 1.386 . S
C685 C689 1.393 . S
C686 H678 0.950 . S
C686 C684 1.391 . S
C686 C687 1.400 . S
C687 C686 1.400 . S
C687 C688 1.398 . S
C687 C693 1.491 . S
C688 H679 0.950 . S
C688 C687 1.398 . S
C688 C689 1.391 . S
C689 H677 0.950 . S
C689 C685 1.393 . S
C689 C688 1.391 . S
C690 H680 0.950 . S
C690 C691 1.386 . S
C690 C692 1.391 . S
C691 C690 1.386 . S
C691 C695 1.393 . S
C692 H681 0.950 . S
C692 C690 1.391 . S
C692 C693 1.400 . S
C693 C687 1.491 . S
C693 C692 1.400 . S
C693 C694 1.398 . S
C694 H682 0.950 . S
C694 C693 1.398 . S
C694 C695 1.391 . S
C695 H683 0.950 . S
C695 C691 1.393 . S
C695 C694 1.391 . S
H696 C704 0.950 1_455 S
H697 C709 0.950 1_455 S
H698 C706 0.950 . S
H699 C708 0.950 . S
H700 C710 0.950 . S
H701 C712 0.950 . S
H702 C714 0.950 . S
H703 C715 0.950 . S
C704 H696 0.950 1_655 S
C704 C705 1.386 1_655 S
C704 C706 1.391 . S
C705 C704 1.386 1_455 S
C705 C709 1.393 1_455 S
C706 H698 0.950 . S
C706 C704 1.391 . S
C706 C707 1.400 . S
C707 C706 1.400 . S
C707 C708 1.398 . S
C707 C713 1.491 . S
C708 H699 0.950 . S
C708 C707 1.398 . S
C708 C709 1.391 . S
C709 H697 0.950 1_655 S
C709 C705 1.393 1_655 S
C709 C708 1.391 . S
C710 H700 0.950 . S
C710 C711 1.386 . S
C710 C712 1.391 . S
C711 C710 1.386 . S
C711 C715 1.393 . S
C712 H701 0.950 . S
C712 C710 1.391 . S
C712 C713 1.400 . S
C713 C707 1.491 . S
C713 C712 1.400 . S
C713 C714 1.398 . S
C714 H702 0.950 . S
C714 C713 1.398 . S
C714 C715 1.391 . S
C715 H703 0.950 . S
C715 C711 1.393 . S
C715 C714 1.391 . S
H716 C724 0.950 . S
H717 C729 0.950 . S
H718 C726 0.950 . S
H719 C728 0.950 . S
H720 C730 0.950 . S
H721 C732 0.950 . S
H722 C734 0.950 . S
H723 C735 0.950 . S
C724 H716 0.950 . S
C724 C725 1.386 . S
C724 C726 1.391 . S
C725 C724 1.386 . S
C725 C729 1.393 . S
C726 H718 0.950 . S
C726 C724 1.391 . S
C726 C727 1.400 . S
C727 C726 1.400 . S
C727 C728 1.398 . S
C727 C733 1.491 . S
C728 H719 0.950 . S
C728 C727 1.398 . S
C728 C729 1.391 . S
C729 H717 0.950 . S
C729 C725 1.393 . S
C729 C728 1.391 . S
C730 H720 0.950 . S
C730 C731 1.386 . S
C730 C732 1.391 1_565 S
C731 C730 1.386 . S
C731 C735 1.393 1_565 S
C732 H721 0.950 . S
C732 C730 1.391 1_545 S
C732 C733 1.400 . S
C733 C727 1.491 . S
C733 C732 1.400 . S
C733 C734 1.398 . S
C734 H722 0.950 . S
C734 C733 1.398 . S
C734 C735 1.391 . S
C735 H723 0.950 . S
C735 C731 1.393 1_545 S
C735 C734 1.391 . S
H736 C744 0.950 . S
H737 C749 0.950 . S
H738 C746 0.950 . S
H739 C748 0.950 . S
H740 C750 0.950 . S
H741 C752 0.950 . S
H742 C754 0.950 . S
H743 C755 0.950 . S
C744 H736 0.950 . S
C744 C745 1.386 . S
C744 C746 1.391 1_455 S
C745 C744 1.386 . S
C745 C749 1.393 1_455 S
C746 H738 0.950 . S
C746 C744 1.391 1_655 S
C746 C747 1.400 . S
C747 C746 1.400 . S
C747 C748 1.398 . S
C747 C753 1.491 . S
C748 H739 0.950 . S
C748 C747 1.398 . S
C748 C749 1.391 . S
C749 H737 0.950 . S
C749 C745 1.393 1_655 S
C749 C748 1.391 . S
C750 H740 0.950 . S
C750 C751 1.386 1_545 S
C750 C752 1.391 . S
C751 C750 1.386 1_565 S
C751 C755 1.393 . S
C752 H741 0.950 . S
C752 C750 1.391 . S
C752 C753 1.400 . S
C753 C747 1.491 . S
C753 C752 1.400 . S
C753 C754 1.398 . S
C754 H742 0.950 . S
C754 C753 1.398 . S
C754 C755 1.391 1_545 S
C755 H743 0.950 . S
C755 C751 1.393 . S
C755 C754 1.391 1_565 S
H756 C764 0.950 . S
H757 C769 0.950 . S
H758 C766 0.950 . S
H759 C768 0.950 . S
H760 C770 0.950 . S
H761 C772 0.950 . S
H762 C774 0.950 . S
H763 C775 0.950 . S
C764 H756 0.950 . S
C764 C765 1.386 . S
C764 C766 1.391 . S
C765 C764 1.386 . S
C765 C769 1.393 . S
C766 H758 0.950 . S
C766 C764 1.391 . S
C766 C767 1.400 . S
C767 C766 1.400 . S
C767 C768 1.398 . S
C767 C773 1.491 . S
C768 H759 0.950 . S
C768 C767 1.398 . S
C768 C769 1.391 . S
C769 H757 0.950 . S
C769 C765 1.393 . S
C769 C768 1.391 . S
C770 H760 0.950 . S
C770 C771 1.386 . S
C770 C772 1.391 . S
C771 C770 1.386 . S
C771 C775 1.393 . S
C772 H761 0.950 . S
C772 C770 1.391 . S
C772 C773 1.400 . S
C773 C767 1.491 . S
C773 C772 1.400 . S
C773 C774 1.398 . S
C774 H762 0.950 . S
C774 C773 1.398 . S
C774 C775 1.391 . S
C775 H763 0.950 . S
C775 C771 1.393 . S
C775 C774 1.391 . S
H776 C784 0.950 . S
H777 C789 0.950 . S
H778 C786 0.950 . S
H779 C788 0.950 . S
H780 C790 0.950 . S
H781 C792 0.950 . S
H782 C794 0.950 . S
H783 C795 0.950 . S
C784 H776 0.950 . S
C784 C785 1.386 . S
C784 C786 1.391 . S
C785 C784 1.386 . S
C785 C789 1.393 . S
C786 H778 0.950 . S
C786 C784 1.391 . S
C786 C787 1.400 . S
C787 C786 1.400 . S
C787 C788 1.398 . S
C787 C793 1.491 . S
C788 H779 0.950 . S
C788 C787 1.398 . S
C788 C789 1.391 . S
C789 H777 0.950 . S
C789 C785 1.393 . S
C789 C788 1.391 . S
C790 H780 0.950 . S
C790 C791 1.386 . S
C790 C792 1.391 . S
C791 C790 1.386 . S
C791 C795 1.393 . S
C792 H781 0.950 . S
C792 C790 1.391 . S
C792 C793 1.400 . S
C793 C787 1.491 . S
C793 C792 1.400 . S
C793 C794 1.398 . S
C794 H782 0.950 . S
C794 C793 1.398 . S
C794 C795 1.391 . S
C795 H783 0.950 . S
C795 C791 1.393 . S
C795 C794 1.391 . S
H796 C804 0.950 . S
H797 C809 0.950 . S
H798 C806 0.950 . S
H799 C808 0.950 . S
H800 C810 0.950 . S
H801 C812 0.950 . S
H802 C814 0.950 . S
H803 C815 0.950 . S
C804 H796 0.950 . S
C804 C805 1.386 . S
C804 C806 1.391 . S
C805 C804 1.386 . S
C805 C809 1.393 . S
C806 H798 0.950 . S
C806 C804 1.391 . S
C806 C807 1.400 . S
C807 C806 1.400 . S
C807 C808 1.398 . S
C807 C813 1.491 . S
C808 H799 0.950 . S
C808 C807 1.398 . S
C808 C809 1.391 . S
C809 H797 0.950 . S
C809 C805 1.393 . S
C809 C808 1.391 . S
C810 H800 0.950 . S
C810 C811 1.386 . S
C810 C812 1.391 . S
C811 C810 1.386 . S
C811 C815 1.393 . S
C812 H801 0.950 . S
C812 C810 1.391 . S
C812 C813 1.400 . S
C813 C807 1.491 . S
C813 C812 1.400 . S
C813 C814 1.398 . S
C814 H802 0.950 . S
C814 C813 1.398 . S
C814 C815 1.391 . S
C815 H803 0.950 . S
C815 C811 1.393 . S
C815 C814 1.391 . S
H816 C824 0.950 . S
H817 C829 0.950 . S
H818 C826 0.950 . S
H819 C828 0.950 . S
H820 C830 0.950 . S
H821 C832 0.950 . S
H822 C834 0.950 . S
H823 C835 0.950 . S
C824 H816 0.950 . S
C824 C825 1.386 . S
C824 C826 1.391 . S
C825 C824 1.386 . S
C825 C829 1.393 . S
C826 H818 0.950 . S
C826 C824 1.391 . S
C826 C827 1.400 . S
C827 C826 1.400 . S
C827 C828 1.398 . S
C827 C833 1.491 . S
C828 H819 0.950 . S
C828 C827 1.398 . S
C828 C829 1.391 . S
C829 H817 0.950 . S
C829 C825 1.393 . S
C829 C828 1.391 . S
C830 H820 0.950 . S
C830 C831 1.386 . S
C830 C832 1.391 . S
C831 C830 1.386 . S
C831 C835 1.393 . S
C832 H821 0.950 . S
C832 C830 1.391 . S
C832 C833 1.400 . S
C833 C827 1.491 . S
C833 C832 1.400 . S
C833 C834 1.398 . S
C834 H822 0.950 . S
C834 C833 1.398 . S
C834 C835 1.391 . S
C835 H823 0.950 . S
C835 C831 1.393 . S
C835 C834 1.391 . S
H836 C844 0.950 . S
H837 C849 0.950 . S
H838 C846 0.950 . S
H839 C848 0.950 . S
H840 C850 0.950 . S
H841 C852 0.950 . S
H842 C854 0.950 . S
H843 C855 0.950 . S
C844 H836 0.950 . S
C844 C845 1.386 . S
C844 C846 1.391 . S
C845 C844 1.386 . S
C845 C849 1.393 . S
C846 H838 0.950 . S
C846 C844 1.391 . S
C846 C847 1.400 . S
C847 C846 1.400 . S
C847 C848 1.398 . S
C847 C853 1.491 . S
C848 H839 0.950 . S
C848 C847 1.398 . S
C848 C849 1.391 . S
C849 H837 0.950 . S
C849 C845 1.393 . S
C849 C848 1.391 . S
C850 H840 0.950 . S
C850 C851 1.386 . S
C850 C852 1.391 . S
C851 C850 1.386 . S
C851 C855 1.393 . S
C852 H841 0.950 . S
C852 C850 1.391 . S
C852 C853 1.400 . S
C853 C847 1.491 . S
C853 C852 1.400 . S
C853 C854 1.398 . S
C854 H842 0.950 . S
C854 C853 1.398 . S
C854 C855 1.391 . S
C855 H843 0.950 . S
C855 C851 1.393 . S
C855 C854 1.391 . S
H856 C864 0.950 . S
H857 C869 0.950 . S
H858 C866 0.950 . S
H859 C868 0.950 . S
H860 C870 0.950 . S
H861 C872 0.950 . S
H862 C874 0.950 . S
H863 C875 0.950 . S
C864 H856 0.950 . S
C864 C865 1.386 . S
C864 C866 1.391 . S
C865 C864 1.386 . S
C865 C869 1.393 . S
C866 H858 0.950 . S
C866 C864 1.391 . S
C866 C867 1.400 . S
C867 C866 1.400 . S
C867 C868 1.398 . S
C867 C873 1.491 . S
C868 H859 0.950 . S
C868 C867 1.398 . S
C868 C869 1.391 . S
C869 H857 0.950 . S
C869 C865 1.393 . S
C869 C868 1.391 . S
C870 H860 0.950 . S
C870 C871 1.386 . S
C870 C872 1.391 . S
C871 C870 1.386 . S
C871 C875 1.393 . S
C872 H861 0.950 . S
C872 C870 1.391 . S
C872 C873 1.400 . S
C873 C867 1.491 . S
C873 C872 1.400 . S
C873 C874 1.398 . S
C874 H862 0.950 . S
C874 C873 1.398 . S
C874 C875 1.391 . S
C875 H863 0.950 . S
C875 C871 1.393 . S
C875 C874 1.391 . S
H876 C884 0.950 . S
H877 C889 0.950 . S
H878 C886 0.950 . S
H879 C888 0.950 . S
H880 C890 0.950 . S
H881 C892 0.950 . S
H882 C894 0.950 . S
H883 C895 0.950 . S
C884 H876 0.950 . S
C884 C885 1.386 . S
C884 C886 1.391 . S
C885 C884 1.386 . S
C885 C889 1.393 . S
C886 H878 0.950 . S
C886 C884 1.391 . S
C886 C887 1.400 . S
C887 C886 1.400 . S
C887 C888 1.398 . S
C887 C893 1.491 . S
C888 H879 0.950 . S
C888 C887 1.398 . S
C888 C889 1.391 . S
C889 H877 0.950 . S
C889 C885 1.393 . S
C889 C888 1.391 . S
C890 H880 0.950 . S
C890 C891 1.386 . S
C890 C892 1.391 . S
C891 C890 1.386 . S
C891 C895 1.393 . S
C892 H881 0.950 . S
C892 C890 1.391 . S
C892 C893 1.400 . S
C893 C887 1.491 . S
C893 C892 1.400 . S
C893 C894 1.398 . S
C894 H882 0.950 . S
C894 C893 1.398 . S
C894 C895 1.391 . S
C895 H883 0.950 . S
C895 C891 1.393 . S
C895 C894 1.391 . S
H896 C904 0.950 . S
H897 C909 0.950 . S
H898 C906 0.950 . S
H899 C908 0.950 . S
H900 C910 0.950 . S
H901 C912 0.950 . S
H902 C914 0.950 . S
H903 C915 0.950 . S
C904 H896 0.950 . S
C904 C905 1.386 . S
C904 C906 1.391 . S
C905 C904 1.386 . S
C905 C909 1.393 . S
C906 H898 0.950 . S
C906 C904 1.391 . S
C906 C907 1.400 . S
C907 C906 1.400 . S
C907 C908 1.398 . S
C907 C913 1.491 . S
C908 H899 0.950 . S
C908 C907 1.398 . S
C908 C909 1.391 . S
C909 H897 0.950 . S
C909 C905 1.393 . S
C909 C908 1.391 . S
C910 H900 0.950 . S
C910 C911 1.386 . S
C910 C912 1.391 . S
C911 C910 1.386 . S
C911 C915 1.393 . S
C912 H901 0.950 . S
C912 C910 1.391 . S
C912 C913 1.400 . S
C913 C907 1.491 . S
C913 C912 1.400 . S
C913 C914 1.398 . S
C914 H902 0.950 . S
C914 C913 1.398 . S
C914 C915 1.391 . S
C915 H903 0.950 . S
C915 C911 1.393 . S
C915 C914 1.391 . S
H916 C924 0.950 . S
H917 C929 0.950 . S
H918 C926 0.950 . S
H919 C928 0.950 . S
H920 C930 0.950 . S
H921 C932 0.950 . S
H922 C934 0.950 . S
H923 C935 0.950 . S
C924 H916 0.950 . S
C924 C925 1.386 . S
C924 C926 1.391 . S
C925 C924 1.386 . S
C925 C929 1.393 . S
C926 H918 0.950 . S
C926 C924 1.391 . S
C926 C927 1.400 . S
C927 C926 1.400 . S
C927 C928 1.398 . S
C927 C933 1.491 . S
C928 H919 0.950 . S
C928 C927 1.398 . S
C928 C929 1.391 . S
C929 H917 0.950 . S
C929 C925 1.393 . S
C929 C928 1.391 . S
C930 H920 0.950 . S
C930 C931 1.386 . S
C930 C932 1.391 . S
C931 C930 1.386 . S
C931 C935 1.393 . S
C932 H921 0.950 . S
C932 C930 1.391 . S
C932 C933 1.400 . S
C933 C927 1.491 . S
C933 C932 1.400 . S
C933 C934 1.398 . S
C934 H922 0.950 . S
C934 C933 1.398 . S
C934 C935 1.391 . S
C935 H923 0.950 . S
C935 C931 1.393 . S
C935 C934 1.391 . S
H936 C944 0.950 . S
H937 C949 0.950 . S
H938 C946 0.950 . S
H939 C948 0.950 . S
H940 C950 0.950 . S
H941 C952 0.950 . S
H942 C954 0.950 . S
H943 C955 0.950 . S
C944 H936 0.950 . S
C944 C945 1.386 . S
C944 C946 1.391 . S
C945 C944 1.386 . S
C945 C949 1.393 . S
C946 H938 0.950 . S
C946 C944 1.391 . S
C946 C947 1.400 . S
C947 C946 1.400 . S
C947 C948 1.398 . S
C947 C953 1.491 . S
C948 H939 0.950 . S
C948 C947 1.398 . S
C948 C949 1.391 . S
C949 H937 0.950 . S
C949 C945 1.393 . S
C949 C948 1.391 . S
C950 H940 0.950 . S
C950 C951 1.386 . S
C950 C952 1.391 . S
C951 C950 1.386 . S
C951 C955 1.393 . S
C952 H941 0.950 . S
C952 C950 1.391 . S
C952 C953 1.400 . S
C953 C947 1.491 . S
C953 C952 1.400 . S
C953 C954 1.398 . S
C954 H942 0.950 . S
C954 C953 1.398 . S
C954 C955 1.391 . S
C955 H943 0.950 . S
C955 C951 1.393 . S
C955 C954 1.391 . S
H956 C964 0.950 . S
H957 C969 0.950 . S
H958 C966 0.950 . S
H959 C968 0.950 . S
H960 C970 0.950 . S
H961 C972 0.950 . S
H962 C974 0.950 . S
H963 C975 0.950 . S
C964 H956 0.950 . S
C964 C965 1.386 . S
C964 C966 1.391 . S
C965 C964 1.386 . S
C965 C969 1.393 . S
C966 H958 0.950 . S
C966 C964 1.391 . S
C966 C967 1.400 . S
C967 C966 1.400 . S
C967 C968 1.398 . S
C967 C973 1.491 . S
C968 H959 0.950 . S
C968 C967 1.398 . S
C968 C969 1.391 . S
C969 H957 0.950 . S
C969 C965 1.393 . S
C969 C968 1.391 . S
C970 H960 0.950 . S
C970 C971 1.386 . S
C970 C972 1.391 . S
C971 C970 1.386 . S
C971 C975 1.393 . S
C972 H961 0.950 . S
C972 C970 1.391 . S
C972 C973 1.400 . S
C973 C967 1.491 . S
C973 C972 1.400 . S
C973 C974 1.398 . S
C974 H962 0.950 . S
C974 C973 1.398 . S
C974 C975 1.391 . S
C975 H963 0.950 . S
C975 C971 1.393 . S
C975 C974 1.391 . S
H976 C984 0.950 . S
H977 C989 0.950 . S
H978 C986 0.950 . S
H979 C988 0.950 . S
H980 C990 0.950 . S
H981 C992 0.950 . S
H982 C994 0.950 . S
H983 C995 0.950 . S
C984 H976 0.950 . S
C984 C985 1.386 . S
C984 C986 1.391 . S
C985 C984 1.386 . S
C985 C989 1.393 . S
C986 H978 0.950 . S
C986 C984 1.391 . S
C986 C987 1.400 . S
C987 C986 1.400 . S
C987 C988 1.398 . S
C987 C993 1.491 . S
C988 H979 0.950 . S
C988 C987 1.398 . S
C988 C989 1.391 . S
C989 H977 0.950 . S
C989 C985 1.393 . S
C989 C988 1.391 . S
C990 H980 0.950 . S
C990 C991 1.386 . S
C990 C992 1.391 . S
C991 C990 1.386 . S
C991 C995 1.393 . S
C992 H981 0.950 . S
C992 C990 1.391 . S
C992 C993 1.400 . S
C993 C987 1.491 . S
C993 C992 1.400 . S
C993 C994 1.398 . S
C994 H982 0.950 . S
C994 C993 1.398 . S
C994 C995 1.391 . S
C995 H983 0.950 . S
C995 C991 1.393 . S
C995 C994 1.391 . S
H996 C1004 0.950 . S
H997 C1009 0.950 . S
H998 C1006 0.950 . S
H999 C1008 0.950 . S
H1000 C1010 0.950 . S
H1001 C1012 0.950 . S
H1002 C1014 0.950 . S
H1003 C1015 0.950 . S
C1004 H996 0.950 . S
C1004 C1005 1.386 . S
C1004 C1006 1.391 . S
C1005 C1004 1.386 . S
C1005 C1009 1.393 . S
C1006 H998 0.950 . S
C1006 C1004 1.391 . S
C1006 C1007 1.400 . S
C1007 C1006 1.400 . S
C1007 C1008 1.398 . S
C1007 C1013 1.491 . S
C1008 H999 0.950 . S
C1008 C1007 1.398 . S
C1008 C1009 1.391 . S
C1009 H997 0.950 . S
C1009 C1005 1.393 . S
C1009 C1008 1.391 . S
C1010 H1000 0.950 . S
C1010 C1011 1.386 . S
C1010 C1012 1.391 . S
C1011 C1010 1.386 . S
C1011 C1015 1.393 . S
C1012 H1001 0.950 . S
C1012 C1010 1.391 . S
C1012 C1013 1.400 . S
C1013 C1007 1.491 . S
C1013 C1012 1.400 . S
C1013 C1014 1.398 . S
C1014 H1002 0.950 . S
C1014 C1013 1.398 . S
C1014 C1015 1.391 . S
C1015 H1003 0.950 . S
C1015 C1011 1.393 . S
C1015 C1014 1.391 . S
H1016 C1024 0.950 . S
H1017 C1029 0.950 . S
H1018 C1026 0.950 . S
H1019 C1028 0.960 . S
H1020 C1030 0.950 . S
H1021 C1032 0.950 . S
H1022 C1034 0.960 . S
H1023 C1035 0.950 . S
C1024 H1016 0.950 . S
C1024 C1025 1.386 . S
C1024 C1026 1.391 . S
C1025 C1024 1.386 . S
C1025 C1029 1.393 . S
C1026 H1018 0.950 . S
C1026 C1024 1.391 . S
C1026 C1027 1.400 . S
C1027 C1026 1.400 . S
C1027 C1028 1.398 . S
C1027 C1033 1.491 1_545 S
C1028 H1019 0.960 . S
C1028 C1027 1.398 . S
C1028 C1029 1.391 . S
C1029 H1017 0.950 . S
C1029 C1025 1.393 . S
C1029 C1028 1.391 . S
C1030 H1020 0.950 . S
C1030 C1031 1.386 . S
C1030 C1032 1.391 . S
C1031 C1030 1.386 . S
C1031 C1035 1.393 . S
C1032 H1021 0.950 . S
C1032 C1030 1.391 . S
C1032 C1033 1.400 . S
C1033 C1027 1.491 1_565 S
C1033 C1032 1.400 . S
C1033 C1034 1.398 . S
C1034 H1022 0.960 . S
C1034 C1033 1.398 . S
C1034 C1035 1.391 . S
C1035 H1023 0.950 . S
C1035 C1031 1.393 . S
C1035 C1034 1.391 . S
H1036 C1044 0.950 . S
H1037 C1049 0.950 . S
H1038 C1046 0.950 . S
H1039 C1048 0.950 1_655 S
H1040 C1050 0.950 . S
H1041 C1052 0.950 . S
H1042 C1054 0.950 1_455 S
H1043 C1055 0.950 . S
C1044 H1036 0.950 . S
C1044 C1045 1.386 . S
C1044 C1046 1.391 . S
C1045 C1044 1.386 . S
C1045 C1049 1.393 . S
C1046 H1038 0.950 . S
C1046 C1044 1.391 . S
C1046 C1047 1.400 . S
C1047 C1046 1.400 . S
C1047 C1048 1.398 . S
C1047 C1053 1.491 1_455 S
C1048 H1039 0.950 1_455 S
C1048 C1047 1.398 . S
C1048 C1049 1.391 . S
C1049 H1037 0.950 . S
C1049 C1045 1.393 . S
C1049 C1048 1.391 . S
C1050 H1040 0.950 . S
C1050 C1051 1.386 . S
C1050 C1052 1.391 . S
C1051 C1050 1.386 . S
C1051 C1055 1.393 . S
C1052 H1041 0.950 . S
C1052 C1050 1.391 . S
C1052 C1053 1.400 . S
C1053 C1047 1.491 1_655 S
C1053 C1052 1.400 . S
C1053 C1054 1.398 . S
C1054 H1042 0.950 1_655 S
C1054 C1053 1.398 . S
C1054 C1055 1.391 . S
C1055 H1043 0.950 . S
C1055 C1051 1.393 . S
C1055 C1054 1.391 . S
H1056 C1064 0.950 . S
H1057 C1069 0.950 . S
H1058 C1066 0.950 . S
H1059 C1068 0.950 . S
H1060 C1070 0.950 . S
H1061 C1072 0.950 . S
H1062 C1074 0.950 . S
H1063 C1075 0.950 . S
C1064 H1056 0.950 . S
C1064 C1065 1.386 . S
C1064 C1066 1.391 . S
C1065 C1064 1.386 . S
C1065 C1069 1.393 . S
C1066 H1058 0.950 . S
C1066 C1064 1.391 . S
C1066 C1067 1.400 . S
C1067 C1066 1.400 . S
C1067 C1068 1.398 . S
C1067 C1073 1.491 . S
C1068 H1059 0.950 . S
C1068 C1067 1.398 . S
C1068 C1069 1.391 . S
C1069 H1057 0.950 . S
C1069 C1065 1.393 . S
C1069 C1068 1.391 . S
C1070 H1060 0.950 . S
C1070 C1071 1.386 . S
C1070 C1072 1.391 . S
C1071 C1070 1.386 . S
C1071 C1075 1.393 . S
C1072 H1061 0.950 . S
C1072 C1070 1.391 . S
C1072 C1073 1.400 . S
C1073 C1067 1.491 . S
C1073 C1072 1.400 . S
C1073 C1074 1.398 . S
C1074 H1062 0.950 . S
C1074 C1073 1.398 . S
C1074 C1075 1.391 . S
C1075 H1063 0.950 . S
C1075 C1071 1.393 . S
C1075 C1074 1.391 . S
H1076 C1084 0.950 . S
H1077 C1089 0.950 . S
H1078 C1086 0.950 1_565 S
H1079 C1088 0.950 . S
H1080 C1090 0.950 . S
H1081 C1092 0.950 1_545 S
H1082 C1094 0.950 . S
H1083 C1095 0.950 . S
C1084 H1076 0.950 . S
C1084 C1085 1.386 . S
C1084 C1086 1.391 . S
C1085 C1084 1.386 . S
C1085 C1089 1.393 . S
C1086 H1078 0.950 1_545 S
C1086 C1084 1.391 . S
C1086 C1087 1.400 . S
C1087 C1086 1.400 . S
C1087 C1088 1.398 . S
C1087 C1093 1.491 1_545 S
C1088 H1079 0.950 . S
C1088 C1087 1.398 . S
C1088 C1089 1.391 . S
C1089 H1077 0.950 . S
C1089 C1085 1.393 . S
C1089 C1088 1.391 . S
C1090 H1080 0.950 . S
C1090 C1091 1.386 . S
C1090 C1092 1.391 . S
C1091 C1090 1.386 . S
C1091 C1095 1.393 . S
C1092 H1081 0.950 1_565 S
C1092 C1090 1.391 . S
C1092 C1093 1.400 . S
C1093 C1087 1.491 1_565 S
C1093 C1092 1.400 . S
C1093 C1094 1.398 . S
C1094 H1082 0.950 . S
C1094 C1093 1.398 . S
C1094 C1095 1.391 . S
C1095 H1083 0.950 . S
C1095 C1091 1.393 . S
C1095 C1094 1.391 . S
H1096 C1104 0.950 . S
H1097 C1109 0.950 . S
H1098 C1106 0.950 . S
H1099 C1108 0.950 . S
H1100 C1110 0.950 . S
H1101 C1112 0.950 . S
H1102 C1114 0.950 . S
H1103 C1115 0.950 . S
C1104 H1096 0.950 . S
C1104 C1105 1.386 . S
C1104 C1106 1.391 . S
C1105 C1104 1.386 . S
C1105 C1109 1.393 . S
C1106 H1098 0.950 . S
C1106 C1104 1.391 . S
C1106 C1107 1.400 . S
C1107 C1106 1.400 . S
C1107 C1108 1.398 . S
C1107 C1113 1.491 1_455 S
C1108 H1099 0.950 . S
C1108 C1107 1.398 . S
C1108 C1109 1.391 . S
C1109 H1097 0.950 . S
C1109 C1105 1.393 . S
C1109 C1108 1.391 . S
C1110 H1100 0.950 . S
C1110 C1111 1.386 . S
C1110 C1112 1.391 . S
C1111 C1110 1.386 . S
C1111 C1115 1.393 . S
C1112 H1101 0.950 . S
C1112 C1110 1.391 . S
C1112 C1113 1.400 . S
C1113 C1107 1.491 1_655 S
C1113 C1112 1.400 . S
C1113 C1114 1.398 . S
C1114 H1102 0.950 . S
C1114 C1113 1.398 . S
C1114 C1115 1.391 . S
C1115 H1103 0.950 . S
C1115 C1111 1.393 . S
C1115 C1114 1.391 . S
H1116 C1124 0.950 . S
H1117 C1129 0.950 1_556 S
H1118 C1126 0.950 . S
H1119 C1128 0.950 . S
H1120 C1130 0.950 . S
H1121 C1132 0.950 . S
H1122 C1134 0.950 . S
H1123 C1135 0.950 1_554 S
C1124 H1116 0.950 . S
C1124 C1125 1.386 . S
C1124 C1126 1.391 . S
C1125 C1124 1.386 . S
C1125 C1129 1.393 . S
C1126 H1118 0.950 . S
C1126 C1124 1.391 . S
C1126 C1127 1.400 . S
C1127 C1126 1.400 . S
C1127 C1128 1.398 1_554 S
C1127 C1133 1.491 1_554 S
C1128 H1119 0.950 . S
C1128 C1127 1.398 1_556 S
C1128 C1129 1.391 1_556 S
C1129 H1117 0.950 1_554 S
C1129 C1125 1.393 . S
C1129 C1128 1.391 1_554 S
C1130 H1120 0.950 . S
C1130 C1131 1.386 . S
C1130 C1132 1.391 . S
C1131 C1130 1.386 . S
C1131 C1135 1.393 . S
C1132 H1121 0.950 . S
C1132 C1130 1.391 . S
C1132 C1133 1.400 . S
C1133 C1127 1.491 1_556 S
C1133 C1132 1.400 . S
C1133 C1134 1.398 1_556 S
C1134 H1122 0.950 . S
C1134 C1133 1.398 1_554 S
C1134 C1135 1.391 1_554 S
C1135 H1123 0.950 1_556 S
C1135 C1131 1.393 . S
C1135 C1134 1.391 1_556 S
H1136 C1144 0.950 . S
H1137 C1149 0.950 . S
H1138 C1146 0.950 . S
H1139 C1148 0.950 . S
H1140 C1150 0.950 . S
H1141 C1152 0.950 . S
H1142 C1154 0.950 . S
H1143 C1155 0.950 . S
C1144 H1136 0.950 . S
C1144 C1145 1.386 . S
C1144 C1146 1.391 . S
C1145 C1144 1.386 . S
C1145 C1149 1.393 . S
C1146 H1138 0.950 . S
C1146 C1144 1.391 . S
C1146 C1147 1.400 . S
C1147 C1146 1.400 . S
C1147 C1148 1.398 . S
C1147 C1153 1.491 1_546 S
C1148 H1139 0.950 . S
C1148 C1147 1.398 . S
C1148 C1149 1.391 . S
C1149 H1137 0.950 . S
C1149 C1145 1.393 . S
C1149 C1148 1.391 . S
C1150 H1140 0.950 . S
C1150 C1151 1.386 . S
C1150 C1152 1.391 . S
C1151 C1150 1.386 . S
C1151 C1155 1.393 . S
C1152 H1141 0.950 . S
C1152 C1150 1.391 . S
C1152 C1153 1.400 . S
C1153 C1147 1.491 1_564 S
C1153 C1152 1.400 . S
C1153 C1154 1.398 . S
C1154 H1142 0.950 . S
C1154 C1153 1.398 . S
C1154 C1155 1.391 . S
C1155 H1143 0.950 . S
C1155 C1151 1.393 . S
C1155 C1154 1.391 . S
H1156 C1164 0.950 . S
H1157 C1169 0.950 1_554 S
H1158 C1166 0.950 . S
H1159 C1168 0.950 . S
H1160 C1170 0.950 . S
H1161 C1172 0.950 . S
H1162 C1174 0.950 . S
H1163 C1175 0.950 1_556 S
C1164 H1156 0.950 . S
C1164 C1165 1.386 . S
C1164 C1166 1.391 . S
C1165 C1164 1.386 . S
C1165 C1169 1.393 . S
C1166 H1158 0.950 . S
C1166 C1164 1.391 . S
C1166 C1167 1.400 . S
C1167 C1166 1.400 . S
C1167 C1168 1.398 1_556 S
C1167 C1173 1.491 1_656 S
C1168 H1159 0.950 . S
C1168 C1167 1.398 1_554 S
C1168 C1169 1.391 1_554 S
C1169 H1157 0.950 1_556 S
C1169 C1165 1.393 . S
C1169 C1168 1.391 1_556 S
C1170 H1160 0.950 . S
C1170 C1171 1.386 . S
C1170 C1172 1.391 . S
C1171 C1170 1.386 . S
C1171 C1175 1.393 . S
C1172 H1161 0.950 . S
C1172 C1170 1.391 . S
C1172 C1173 1.400 . S
C1173 C1167 1.491 1_454 S
C1173 C1172 1.400 . S
C1173 C1174 1.398 1_554 S
C1174 H1162 0.950 . S
C1174 C1173 1.398 1_556 S
C1174 C1175 1.391 1_556 S
C1175 H1163 0.950 1_554 S
C1175 C1171 1.393 . S
C1175 C1174 1.391 1_554 S
H1176 C1184 0.950 . S
H1177 C1189 0.950 1_556 S
H1178 C1186 0.950 . S
H1179 C1188 0.950 . S
H1180 C1190 0.950 . S
H1181 C1192 0.950 . S
H1182 C1194 0.950 . S
H1183 C1195 0.950 1_554 S
C1184 H1176 0.950 . S
C1184 C1185 1.386 . S
C1184 C1186 1.391 . S
C1185 C1184 1.386 . S
C1185 C1189 1.393 . S
C1186 H1178 0.950 . S
C1186 C1184 1.391 . S
C1186 C1187 1.400 . S
C1187 C1186 1.400 . S
C1187 C1188 1.398 1_554 S
C1187 C1193 1.491 1_554 S
C1188 H1179 0.950 . S
C1188 C1187 1.398 1_556 S
C1188 C1189 1.391 1_556 S
C1189 H1177 0.950 1_554 S
C1189 C1185 1.393 . S
C1189 C1188 1.391 1_554 S
C1190 H1180 0.950 . S
C1190 C1191 1.386 . S
C1190 C1192 1.391 . S
C1191 C1190 1.386 . S
C1191 C1195 1.393 . S
C1192 H1181 0.950 . S
C1192 C1190 1.391 . S
C1192 C1193 1.400 . S
C1193 C1187 1.491 1_556 S
C1193 C1192 1.400 . S
C1193 C1194 1.398 1_556 S
C1194 H1182 0.950 . S
C1194 C1193 1.398 1_554 S
C1194 C1195 1.391 1_554 S
C1195 H1183 0.950 1_556 S
C1195 C1191 1.393 . S
C1195 C1194 1.391 1_556 S
H1196 C1204 0.950 . S
H1197 C1209 0.950 . S
H1198 C1206 0.967 . S
H1199 C1208 0.950 . S
H1200 C1210 0.950 . S
H1201 C1212 0.967 . S
H1202 C1214 0.950 . S
H1203 C1215 0.950 . S
C1204 H1196 0.950 . S
C1204 C1205 1.386 . S
C1204 C1206 1.381 1_554 S
C1205 C1204 1.386 . S
C1205 C1209 1.393 . S
C1206 H1198 0.967 . S
C1206 C1204 1.381 1_556 S
C1206 C1207 1.394 1_556 S
C1207 C1206 1.394 1_554 S
C1207 C1208 1.398 . S
C1207 C1213 1.491 1_564 S
C1208 H1199 0.950 . S
C1208 C1207 1.398 . S
C1208 C1209 1.391 . S
C1209 H1197 0.950 . S
C1209 C1205 1.393 . S
C1209 C1208 1.391 . S
C1210 H1200 0.950 . S
C1210 C1211 1.386 . S
C1210 C1212 1.381 1_556 S
C1211 C1210 1.386 . S
C1211 C1215 1.393 . S
C1212 H1201 0.967 . S
C1212 C1210 1.381 1_554 S
C1212 C1213 1.394 1_554 S
C1213 C1207 1.491 1_546 S
C1213 C1212 1.394 1_556 S
C1213 C1214 1.398 . S
C1214 H1202 0.950 . S
C1214 C1213 1.398 . S
C1214 C1215 1.391 . S
C1215 H1203 0.950 . S
C1215 C1211 1.393 . S
C1215 C1214 1.391 . S
H1216 C1224 0.936 1_554 S
H1217 C1229 0.950 . S
H1218 C1226 0.950 . S
H1219 C1228 0.950 . S
H1220 C1230 0.936 1_556 S
H1221 C1232 0.950 . S
H1222 C1234 0.950 . S
H1223 C1235 0.950 . S
C1224 H1216 0.936 1_556 S
C1224 C1225 1.408 . S
C1224 C1226 1.383 1_556 S
C1225 C1224 1.408 . S
C1225 C1229 1.393 . S
C1226 H1218 0.950 . S
C1226 C1224 1.383 1_554 S
C1226 C1227 1.400 1_554 S
C1227 C1226 1.400 1_556 S
C1227 C1228 1.398 . S
C1227 C1233 1.491 1_656 S
C1228 H1219 0.950 . S
C1228 C1227 1.398 . S
C1228 C1229 1.391 . S
C1229 H1217 0.950 . S
C1229 C1225 1.393 . S
C1229 C1228 1.391 . S
C1230 H1220 0.936 1_554 S
C1230 C1231 1.408 . S
C1230 C1232 1.383 1_554 S
C1231 C1230 1.408 . S
C1231 C1235 1.393 . S
C1232 H1221 0.950 . S
C1232 C1230 1.383 1_556 S
C1232 C1233 1.400 1_556 S
C1233 C1227 1.491 1_454 S
C1233 C1232 1.400 1_554 S
C1233 C1234 1.398 . S
C1234 H1222 0.950 . S
C1234 C1233 1.398 . S
C1234 C1235 1.391 . S
C1235 H1223 0.950 . S
C1235 C1231 1.393 . S
C1235 C1234 1.391 . S
H1236 C1244 0.950 . S
H1237 C1249 0.950 . S
H1238 C1246 0.950 . S
H1239 C1248 0.950 . S
H1240 C1250 0.950 . S
H1241 C1252 0.950 . S
H1242 C1254 0.948 1_455 S
H1243 C1255 0.950 . S
C1244 H1236 0.950 . S
C1244 C1245 1.386 . S
C1244 C1246 1.391 . S
C1245 C1244 1.386 . S
C1245 C1249 1.393 . S
C1246 H1238 0.950 . S
C1246 C1244 1.391 . S
C1246 C1247 1.400 . S
C1247 C1246 1.400 . S
C1247 C1248 1.398 . S
C1247 C1253 1.491 . S
C1248 H1239 0.950 . S
C1248 C1247 1.398 . S
C1248 C1249 1.391 . S
C1249 H1237 0.950 . S
C1249 C1245 1.393 . S
C1249 C1248 1.391 . S
C1250 H1240 0.950 . S
C1250 C1251 1.386 1_655 S
C1250 C1252 1.391 . S
C1251 C1250 1.386 1_455 S
C1251 C1255 1.393 . S
C1252 H1241 0.950 . S
C1252 C1250 1.391 . S
C1252 C1253 1.400 . S
C1253 C1247 1.491 . S
C1253 C1252 1.400 . S
C1253 C1254 1.425 . S
C1254 H1242 0.948 1_655 S
C1254 C1253 1.425 . S
C1254 C1255 1.367 1_655 S
C1255 H1243 0.950 . S
C1255 C1251 1.393 . S
C1255 C1254 1.367 1_455 S
H1256 C1264 0.950 . S
H1257 C1269 0.950 . S
H1258 C1266 0.950 . S
H1259 C1268 0.950 . S
H1260 C1270 0.950 . S
H1261 C1272 0.950 . S
H1262 C1274 0.950 . S
H1263 C1275 0.950 . S
C1264 H1256 0.950 . S
C1264 C1265 1.386 . S
C1264 C1266 1.391 . S
C1265 C1264 1.386 . S
C1265 C1269 1.393 . S
C1266 H1258 0.950 . S
C1266 C1264 1.391 . S
C1266 C1267 1.400 . S
C1267 C1266 1.400 . S
C1267 C1268 1.398 . S
C1267 C1273 1.491 . S
C1268 H1259 0.950 . S
C1268 C1267 1.398 . S
C1268 C1269 1.391 . S
C1269 H1257 0.950 . S
C1269 C1265 1.393 . S
C1269 C1268 1.391 . S
C1270 H1260 0.950 . S
C1270 C1271 1.386 . S
C1270 C1272 1.391 . S
C1271 C1270 1.386 . S
C1271 C1275 1.393 . S
C1272 H1261 0.950 . S
C1272 C1270 1.391 . S
C1272 C1273 1.400 . S
C1273 C1267 1.491 . S
C1273 C1272 1.400 . S
C1273 C1274 1.398 . S
C1274 H1262 0.950 . S
C1274 C1273 1.398 . S
C1274 C1275 1.391 . S
C1275 H1263 0.950 . S
C1275 C1271 1.393 . S
C1275 C1274 1.391 . S
H1276 C1284 0.950 . S
H1277 C1289 0.950 . S
H1278 C1286 0.950 . S
H1279 C1288 0.950 . S
H1280 C1290 0.950 . S
H1281 C1292 0.950 . S
H1282 C1294 0.950 . S
H1283 C1295 0.950 . S
C1284 H1276 0.950 . S
C1284 C1285 1.386 . S
C1284 C1286 1.391 . S
C1285 C1284 1.386 . S
C1285 C1289 1.393 1_565 S
C1286 H1278 0.950 . S
C1286 C1284 1.391 . S
C1286 C1287 1.400 1_565 S
C1287 C1286 1.400 1_545 S
C1287 C1288 1.398 . S
C1287 C1293 1.491 . S
C1288 H1279 0.950 . S
C1288 C1287 1.398 . S
C1288 C1289 1.391 . S
C1289 H1277 0.950 . S
C1289 C1285 1.393 1_545 S
C1289 C1288 1.391 . S
C1290 H1280 0.950 . S
C1290 C1291 1.386 . S
C1290 C1292 1.391 . S
C1291 C1290 1.386 . S
C1291 C1295 1.393 . S
C1292 H1281 0.950 . S
C1292 C1290 1.391 . S
C1292 C1293 1.400 . S
C1293 C1287 1.491 . S
C1293 C1292 1.400 . S
C1293 C1294 1.398 . S
C1294 H1282 0.950 . S
C1294 C1293 1.398 . S
C1294 C1295 1.391 . S
C1295 H1283 0.950 . S
C1295 C1291 1.393 . S
C1295 C1294 1.391 . S
H1296 C1304 0.950 . S
H1297 C1309 0.950 . S
H1298 C1306 0.950 . S
H1299 C1308 0.950 . S
H1300 C1310 0.950 . S
H1301 C1312 0.950 . S
H1302 C1314 0.950 . S
H1303 C1315 0.950 . S
C1304 H1296 0.950 . S
C1304 C1305 1.386 . S
C1304 C1306 1.391 . S
C1305 C1304 1.386 . S
C1305 C1309 1.393 . S
C1306 H1298 0.950 . S
C1306 C1304 1.391 . S
C1306 C1307 1.400 . S
C1307 C1306 1.400 . S
C1307 C1308 1.398 . S
C1307 C1313 1.491 . S
C1308 H1299 0.950 . S
C1308 C1307 1.398 . S
C1308 C1309 1.391 . S
C1309 H1297 0.950 . S
C1309 C1305 1.393 . S
C1309 C1308 1.391 . S
C1310 H1300 0.950 . S
C1310 C1311 1.386 . S
C1310 C1312 1.391 . S
C1311 C1310 1.386 . S
C1311 C1315 1.393 1_565 S
C1312 H1301 0.950 . S
C1312 C1310 1.391 . S
C1312 C1313 1.400 1_565 S
C1313 C1307 1.491 . S
C1313 C1312 1.400 1_545 S
C1313 C1314 1.398 . S
C1314 H1302 0.950 . S
C1314 C1313 1.398 . S
C1314 C1315 1.391 . S
C1315 H1303 0.950 . S
C1315 C1311 1.393 1_545 S
C1315 C1314 1.391 . S
H1316 C1324 0.950 . S
H1317 C1329 0.950 . S
H1318 C1326 0.950 . S
H1319 C1328 0.950 . S
H1320 C1330 0.950 . S
H1321 C1332 0.950 . S
H1322 C1334 0.950 . S
H1323 C1335 0.950 . S
C1324 H1316 0.950 . S
C1324 C1325 1.386 . S
C1324 C1326 1.391 . S
C1325 C1324 1.386 . S
C1325 C1329 1.393 1_455 S
C1326 H1318 0.950 . S
C1326 C1324 1.391 . S
C1326 C1327 1.400 1_455 S
C1327 C1326 1.400 1_655 S
C1327 C1328 1.398 . S
C1327 C1333 1.491 . S
C1328 H1319 0.950 . S
C1328 C1327 1.398 . S
C1328 C1329 1.391 . S
C1329 H1317 0.950 . S
C1329 C1325 1.393 1_655 S
C1329 C1328 1.391 . S
C1330 H1320 0.950 . S
C1330 C1331 1.386 . S
C1330 C1332 1.391 . S
C1331 C1330 1.386 . S
C1331 C1335 1.393 . S
C1332 H1321 0.950 . S
C1332 C1330 1.391 . S
C1332 C1333 1.400 . S
C1333 C1327 1.491 . S
C1333 C1332 1.400 . S
C1333 C1334 1.398 . S
C1334 H1322 0.950 . S
C1334 C1333 1.398 . S
C1334 C1335 1.391 . S
C1335 H1323 0.950 . S
C1335 C1331 1.393 . S
C1335 C1334 1.391 . S
H1336 C1344 0.950 . S
H1337 C1349 0.950 . S
H1338 C1346 0.950 . S
H1339 C1348 0.950 . S
H1340 C1350 0.950 . S
H1341 C1352 0.950 . S
H1342 C1354 0.950 . S
H1343 C1355 0.950 . S
C1344 H1336 0.950 . S
C1344 C1345 1.386 . S
C1344 C1346 1.391 . S
C1345 C1344 1.386 . S
C1345 C1349 1.393 . S
C1346 H1338 0.950 . S
C1346 C1344 1.391 . S
C1346 C1347 1.400 . S
C1347 C1346 1.400 . S
C1347 C1348 1.398 . S
C1347 C1353 1.491 . S
C1348 H1339 0.950 . S
C1348 C1347 1.398 . S
C1348 C1349 1.391 . S
C1349 H1337 0.950 . S
C1349 C1345 1.393 . S
C1349 C1348 1.391 . S
C1350 H1340 0.950 . S
C1350 C1351 1.386 . S
C1350 C1352 1.391 . S
C1351 C1350 1.386 . S
C1351 C1355 1.393 . S
C1352 H1341 0.950 . S
C1352 C1350 1.391 . S
C1352 C1353 1.400 . S
C1353 C1347 1.491 . S
C1353 C1352 1.400 . S
C1353 C1354 1.398 . S
C1354 H1342 0.950 . S
C1354 C1353 1.398 . S
C1354 C1355 1.391 . S
C1355 H1343 0.950 . S
C1355 C1351 1.393 . S
C1355 C1354 1.391 . S
H1356 C1364 0.950 . S
H1357 C1369 0.950 . S
H1358 C1366 0.950 . S
H1359 C1368 0.950 . S
H1360 C1370 0.950 . S
H1361 C1372 0.950 . S
H1362 C1374 0.950 . S
H1363 C1375 0.950 . S
C1364 H1356 0.950 . S
C1364 C1365 1.386 . S
C1364 C1366 1.391 . S
C1365 C1364 1.386 . S
C1365 C1369 1.393 . S
C1366 H1358 0.950 . S
C1366 C1364 1.391 . S
C1366 C1367 1.400 . S
C1367 C1366 1.400 . S
C1367 C1368 1.398 . S
C1367 C1373 1.491 . S
C1368 H1359 0.950 . S
C1368 C1367 1.398 . S
C1368 C1369 1.391 . S
C1369 H1357 0.950 . S
C1369 C1365 1.393 . S
C1369 C1368 1.391 . S
C1370 H1360 0.950 . S
C1370 C1371 1.386 . S
C1370 C1372 1.391 . S
C1371 C1370 1.386 . S
C1371 C1375 1.393 1_545 S
C1372 H1361 0.950 . S
C1372 C1370 1.391 . S
C1372 C1373 1.400 1_545 S
C1373 C1367 1.491 . S
C1373 C1372 1.400 1_565 S
C1373 C1374 1.398 . S
C1374 H1362 0.950 . S
C1374 C1373 1.398 . S
C1374 C1375 1.391 . S
C1375 H1363 0.950 . S
C1375 C1371 1.393 1_565 S
C1375 C1374 1.391 . S
H1376 C1384 0.950 . S
H1377 C1389 0.950 . S
H1378 C1386 0.950 . S
H1379 C1388 0.950 . S
H1380 C1390 0.950 . S
H1381 C1392 0.950 1_655 S
H1382 C1394 0.950 . S
H1383 C1395 0.950 . S
C1384 H1376 0.950 . S
C1384 C1385 1.386 . S
C1384 C1386 1.391 . S
C1385 C1384 1.386 . S
C1385 C1389 1.393 . S
C1386 H1378 0.950 . S
C1386 C1384 1.391 . S
C1386 C1387 1.400 . S
C1387 C1386 1.400 . S
C1387 C1388 1.398 . S
C1387 C1393 1.491 . S
C1388 H1379 0.950 . S
C1388 C1387 1.398 . S
C1388 C1389 1.391 . S
C1389 H1377 0.950 . S
C1389 C1385 1.393 . S
C1389 C1388 1.391 . S
C1390 H1380 0.950 . S
C1390 C1391 1.386 . S
C1390 C1392 1.391 1_655 S
C1391 C1390 1.386 . S
C1391 C1395 1.393 1_655 S
C1392 H1381 0.950 1_455 S
C1392 C1390 1.391 1_455 S
C1392 C1393 1.400 . S
C1393 C1387 1.491 . S
C1393 C1392 1.400 . S
C1393 C1394 1.398 . S
C1394 H1382 0.950 . S
C1394 C1393 1.398 . S
C1394 C1395 1.391 . S
C1395 H1383 0.950 . S
C1395 C1391 1.393 1_455 S
C1395 C1394 1.391 . S
H1396 C1404 0.950 . S
H1397 C1409 0.950 . S
H1398 C1406 0.950 . S
H1399 C1408 0.950 . S
H1400 C1410 0.950 . S
H1401 C1412 0.950 . S
H1402 C1414 0.950 . S
H1403 C1415 0.950 . S
C1404 H1396 0.950 . S
C1404 C1405 1.386 . S
C1404 C1406 1.391 . S
C1405 C1404 1.386 . S
C1405 C1409 1.393 . S
C1406 H1398 0.950 . S
C1406 C1404 1.391 . S
C1406 C1407 1.400 . S
C1407 C1406 1.400 . S
C1407 C1408 1.398 . S
C1407 C1413 1.491 . S
C1408 H1399 0.950 . S
C1408 C1407 1.398 . S
C1408 C1409 1.391 . S
C1409 H1397 0.950 . S
C1409 C1405 1.393 . S
C1409 C1408 1.391 . S
C1410 H1400 0.950 . S
C1410 C1411 1.386 . S
C1410 C1412 1.391 . S
C1411 C1410 1.386 . S
C1411 C1415 1.393 . S
C1412 H1401 0.950 . S
C1412 C1410 1.391 . S
C1412 C1413 1.400 . S
C1413 C1407 1.491 . S
C1413 C1412 1.400 . S
C1413 C1414 1.398 . S
C1414 H1402 0.950 . S
C1414 C1413 1.398 . S
C1414 C1415 1.391 . S
C1415 H1403 0.950 . S
C1415 C1411 1.393 . S
C1415 C1414 1.391 . S
H1416 C1424 0.950 . S
H1417 C1429 0.950 . S
H1418 C1426 0.950 . S
H1419 C1428 0.950 . S
H1420 C1430 0.950 . S
H1421 C1432 0.950 . S
H1422 C1434 0.950 . S
H1423 C1435 0.950 . S
C1424 H1416 0.950 . S
C1424 C1425 1.386 . S
C1424 C1426 1.391 1_655 S
C1425 C1424 1.386 . S
C1425 C1429 1.393 1_655 S
C1426 H1418 0.950 . S
C1426 C1424 1.391 1_455 S
C1426 C1427 1.400 . S
C1427 C1426 1.400 . S
C1427 C1428 1.398 . S
C1427 C1433 1.491 . S
C1428 H1419 0.950 . S
C1428 C1427 1.398 . S
C1428 C1429 1.391 . S
C1429 H1417 0.950 . S
C1429 C1425 1.393 1_455 S
C1429 C1428 1.391 . S
C1430 H1420 0.950 . S
C1430 C1431 1.386 . S
C1430 C1432 1.391 . S
C1431 C1430 1.386 . S
C1431 C1435 1.393 . S
C1432 H1421 0.950 . S
C1432 C1430 1.391 . S
C1432 C1433 1.400 . S
C1433 C1427 1.491 . S
C1433 C1432 1.400 . S
C1433 C1434 1.398 . S
C1434 H1422 0.950 . S
C1434 C1433 1.398 . S
C1434 C1435 1.391 . S
C1435 H1423 0.950 . S
C1435 C1431 1.393 . S
C1435 C1434 1.391 . S
H1436 C1444 0.950 . S
H1437 C1449 0.950 . S
H1438 C1446 0.950 . S
H1439 C1448 0.950 . S
H1440 C1450 0.950 . S
H1441 C1452 0.950 . S
H1442 C1454 0.950 . S
H1443 C1455 0.950 . S
C1444 H1436 0.950 . S
C1444 C1445 1.386 . S
C1444 C1446 1.391 . S
C1445 C1444 1.386 . S
C1445 C1449 1.393 . S
C1446 H1438 0.950 . S
C1446 C1444 1.391 . S
C1446 C1447 1.400 . S
C1447 C1446 1.400 . S
C1447 C1448 1.398 . S
C1447 C1453 1.491 . S
C1448 H1439 0.950 . S
C1448 C1447 1.398 . S
C1448 C1449 1.391 . S
C1449 H1437 0.950 . S
C1449 C1445 1.393 . S
C1449 C1448 1.391 . S
C1450 H1440 0.950 . S
C1450 C1451 1.386 . S
C1450 C1452 1.391 . S
C1451 C1450 1.386 . S
C1451 C1455 1.393 . S
C1452 H1441 0.950 . S
C1452 C1450 1.391 . S
C1452 C1453 1.400 . S
C1453 C1447 1.491 . S
C1453 C1452 1.400 . S
C1453 C1454 1.398 . S
C1454 H1442 0.950 . S
C1454 C1453 1.398 . S
C1454 C1455 1.391 . S
C1455 H1443 0.950 . S
C1455 C1451 1.393 . S
C1455 C1454 1.391 . S
H1456 C1464 0.950 . S
H1457 C1469 0.950 . S
H1458 C1466 0.950 . S
H1459 C1468 0.950 . S
H1460 C1470 0.950 . S
H1461 C1472 0.950 . S
H1462 C1474 0.950 . S
H1463 C1475 0.950 . S
C1464 H1456 0.950 . S
C1464 C1465 1.386 . S
C1464 C1466 1.391 . S
C1465 C1464 1.386 . S
C1465 C1469 1.393 . S
C1466 H1458 0.950 . S
C1466 C1464 1.391 . S
C1466 C1467 1.400 . S
C1467 C1466 1.400 . S
C1467 C1468 1.398 . S
C1467 C1473 1.491 . S
C1468 H1459 0.950 . S
C1468 C1467 1.398 . S
C1468 C1469 1.391 . S
C1469 H1457 0.950 . S
C1469 C1465 1.393 . S
C1469 C1468 1.391 . S
C1470 H1460 0.950 . S
C1470 C1471 1.386 1_565 S
C1470 C1472 1.391 . S
C1471 C1470 1.386 1_545 S
C1471 C1475 1.393 . S
C1472 H1461 0.950 . S
C1472 C1470 1.391 . S
C1472 C1473 1.400 . S
C1473 C1467 1.491 . S
C1473 C1472 1.400 . S
C1473 C1474 1.398 1_565 S
C1474 H1462 0.950 . S
C1474 C1473 1.398 1_545 S
C1474 C1475 1.391 . S
C1475 H1463 0.950 . S
C1475 C1471 1.393 . S
C1475 C1474 1.391 . S
C405 C48 1.224 . S
C411 C8 1.207 . S
C425 C30 1.227 . S
C431 C4 1.204 . S
C445 C26 1.199 . S
C451 C52 1.232 . S
C465 C70 1.225 . S
C471 C96 1.206 . S
C485 C118 1.200 . S
C491 C92 1.231 . S
C505 C114 1.204 . S
C511 C74 1.228 . S
C525 C180 1.207 . S
C531 C140 1.224 . S
C545 C136 1.222 . S
C551 C162 1.210 . S
C565 C158 1.227 . S
C571 C184 1.204 . S
C585 C228 1.206 . S
C591 C202 1.225 . S
C605 C224 1.203 . S
C611 C250 1.228 . S
C625 C206 1.210 . S
C631 C246 1.221 . S
C645 C272 1.204 . S
C651 C312 1.227 . S
C665 C268 1.210 . S
C671 C294 1.221 . S
C685 C290 1.230 . S
C691 C316 1.201 . S
C705 C360 1.199 . S
C711 C334 1.232 . S
C725 C382 1.227 . S
C731 C356 1.205 . S
C745 C378 1.226 . S
C751 C338 1.205 . S
C765 C9 0.997 . S
C771 C203 0.960 . S
C785 C31 0.975 . S
C791 C225 0.962 . S
C805 C247 0.964 . S
C811 C53 0.998 . S
C825 C71 0.988 . S
C831 C273 0.957 . S
C845 C295 0.964 . S
C851 C93 0.998 . S
C865 C317 0.961 . S
C871 C115 0.978 . S
C885 C292 0.962 . S
C891 C117 0.998 . S
C905 C73 0.998 . S
C911 C314 0.963 . S
C925 C270 0.982 . S
C931 C95 0.991 . S
C945 C28 0.993 . S
C951 C249 0.979 . S
C965 C50 0.963 . S
C971 C205 0.998 . S
C985 C227 0.977 . S
C991 C6 0.961 . S
C1005 C335 0.968 . S
C1011 C141 0.997 . S
C1025 C163 0.982 . S
C1031 C357 0.990 . S
C1045 C379 0.980 . S
C1051 C185 0.992 . S
C1065 C381 0.988 . S
C1071 C160 0.956 . S
C1085 C182 0.958 . S
C1091 C337 0.982 . S
C1105 C359 0.982 . S
C1111 C138 0.991 . S
C1125 C5 1.303 . S
C1131 C75 1.306 . S
C1145 C97 1.304 . S
C1151 C27 1.304 . S
C1165 C119 1.304 . S
C1171 C49 1.310 . S
C1185 C29 1.307 . S
C1191 C116 1.303 . S
C1205 C51 1.307 . S
C1211 C72 1.310 . S
C1225 C94 1.303 . S
C1231 C7 1.309 . S
C1245 C137 1.305 . S
C1251 C207 1.310 . S
C1265 C229 1.303 . S
C1271 C159 1.307 . S
C1285 C251 1.309 . S
C1291 C181 1.309 . S
C1305 C161 1.307 . S
C1311 C248 1.309 . S
C1325 C204 1.304 . S
C1331 C183 1.304 . S
C1345 C139 1.310 . S
C1351 C226 1.307 . S
C1365 C339 1.306 . S
C1371 C269 1.302 . S
C1385 C361 1.308 . S
C1391 C291 1.303 . S
C1405 C383 1.308 . S
C1411 C313 1.303 . S
C1425 C293 1.303 . S
C1431 C380 1.308 . S
C1445 C315 1.309 . S
C1451 C336 1.304 . S
C1465 C358 1.304 . S
C1471 C271 1.303 . S
