# Generated by pormake.
# Topology npo, (4)-cn, num edge types: 1
# Building blocks:
#     Node 0, Type 0, BuildingBlock: ICAMEG_clean_sbu_1, # of connection points: 4
#     Node 1, Type 0, BuildingBlock: ICAMEG_clean_sbu_1, # of connection points: 4
#     Node 2, Type 0, BuildingBlock: ICAMEG_clean_sbu_1, # of connection points: 4
#     Node 3, Type 0, BuildingBlock: ICAMEG_clean_sbu_1, # of connection points: 4
#     Node 4, Type 0, BuildingBlock: ICAMEG_clean_sbu_1, # of connection points: 4
#     Node 5, Type 0, BuildingBlock: ICAMEG_clean_sbu_1, # of connection points: 4
#     Edge 6, Type (0, 0), BuildingBlock: XUDNAN_clean_linker_2, # of connection points: 2
#     Edge 7, Type (0, 0), BuildingBlock: XUDNAN_clean_linker_2, # of connection points: 2
#     Edge 8, Type (0, 0), BuildingBlock: XUDNAN_clean_linker_2, # of connection points: 2
#     Edge 9, Type (0, 0), BuildingBlock: XUDNAN_clean_linker_2, # of connection points: 2
#     Edge 10, Type (0, 0), BuildingBlock: XUDNAN_clean_linker_2, # of connection points: 2
#     Edge 11, Type (0, 0), BuildingBlock: XUDNAN_clean_linker_2, # of connection points: 2
#     Edge 12, Type (0, 0), BuildingBlock: XUDNAN_clean_linker_2, # of connection points: 2
#     Edge 13, Type (0, 0), BuildingBlock: XUDNAN_clean_linker_2, # of connection points: 2
#     Edge 14, Type (0, 0), BuildingBlock: XUDNAN_clean_linker_2, # of connection points: 2
#     Edge 15, Type (0, 0), BuildingBlock: XUDNAN_clean_linker_2, # of connection points: 2
#     Edge 16, Type (0, 0), BuildingBlock: XUDNAN_clean_linker_2, # of connection points: 2
#     Edge 17, Type (0, 0), BuildingBlock: XUDNAN_clean_linker_2, # of connection points: 2
# Relax obj value: 0.242
# Max RMSD: 0.245
# Mean RMSD: 0.244
data_MOF--net-npo--node1-ICAMEG_clean_sbu_1--edge1-XUDNAN_clean_linker_2
_symmetry_space_group_name_H-M    P1
_symmetry_Int_Tables_number       1
_symmetry_cell_setting            triclinic
loop_
_symmetry_equiv_pos_as_xyz
'x, y, z'
_cell_length_a     46.148062
_cell_length_b     46.109814
_cell_length_c     26.107896
_cell_angle_alpha  90.00252
_cell_angle_beta   90.24115
_cell_angle_gamma 120.00545
loop_
_atom_site_label
_atom_site_type_symbol
_atom_site_fract_x
_atom_site_fract_y
_atom_site_fract_z
_atom_type_partial_charge
Co0 Co 0.57692 0.13378 0.19278 0.0
Co1 Co 0.56059 0.13522 0.32044 0.0
O2 O 0.55585 0.10996 0.25689 0.0
C3 C 0.50878 0.07905 0.15719 0.0
O4 O 0.49509 0.07938 0.20098 0.0
C5 C 0.57242 0.08008 0.3577 0.0
O6 O 0.58811 0.08122 0.31527 0.0
O7 O 0.6103 0.1581 0.31503 0.0
O8 O 0.61554 0.17005 0.23138 0.0
H9 H 0.60887 0.23918 0.42916 0.0
H10 H 0.55688 0.0622 0.20245 0.0
O11 O 0.53987 0.09857 0.1498 0.0
H12 H 0.67844 0.12101 0.17114 0.0
H13 H 0.61317 0.14307 0.00879 0.0
H14 H 0.61024 0.20499 0.16084 0.0
H15 H 0.64812 0.15233 0.17492 0.0
H16 H 0.58746 0.11324 0.089 0.0
O17 O 0.56031 0.09926 0.36391 0.0
H18 H 0.60198 0.2066 0.35067 0.0
H19 H 0.53012 0.11745 0.42475 0.0
H20 H 0.63667 0.23586 0.08164 0.0
H21 H 0.58616 0.02982 0.1983 0.0
H22 H 0.63822 0.20486 1.00483 0.0
H23 H 0.64741 0.05928 0.18268 0.0
O24 O 0.55259 0.15926 0.19763 0.0
H25 H 0.44445 0.03546 0.31845 0.0
H26 H 0.51117 0.15818 0.33776 0.0
H27 H 0.44968 0.13008 0.34262 0.0
H28 H 0.41587 0.06825 0.33312 0.0
H29 H 0.50604 0.06467 0.31312 0.0
H30 H 0.53665 0.14901 0.50427 0.0
H31 H 0.5761 0.21037 0.50675 0.0
O32 O 0.56043 0.17229 0.28102 0.0
C33 C 0.62771 0.17443 0.27645 0.0
C34 C 0.59156 0.21247 0.42855 0.0
C35 C 0.55105 0.16186 0.4707 0.0
N36 N 0.56555 0.16017 0.38295 0.0
C37 C 0.58749 0.19388 0.38416 0.0
C38 C 0.54755 0.1441 0.42558 0.0
C39 C 0.57318 0.19628 0.47206 0.0
C40 C 0.58347 0.07514 0.19514 0.0
N41 N 0.60071 0.10908 0.18872 0.0
C42 C 0.59994 0.0567 0.19305 0.0
C43 C 0.63432 0.07325 0.18437 0.0
C44 C 0.65175 0.10789 0.17794 0.0
C45 C 0.63445 0.1255 0.1803 0.0
C46 C 0.6127 0.15687 0.04202 0.0
C47 C 0.61096 0.19132 0.1277 0.0
C48 C 0.59806 0.1401 0.08753 0.0
N49 N 0.59748 0.15736 0.12974 0.0
C50 C 0.6259 0.20894 0.0829 0.0
C51 C 0.62675 0.19154 0.03982 0.0
C52 C 0.55287 0.17669 0.23583 0.0
C53 C 0.4589 0.06241 0.32275 0.0
C54 C 0.49666 0.13131 0.33316 0.0
C55 C 0.46183 0.11551 0.33618 0.0
C56 C 0.44288 0.08082 0.33091 0.0
N57 N 0.5122 0.11306 0.32518 0.0
C58 C 0.49379 0.07906 0.31997 0.0
Co59 Co 0.43214 0.55529 0.67305 0.0
Co60 Co 0.43416 0.56275 0.80401 0.0
O61 O 0.44461 0.5462 0.74084 0.0
C62 C 0.42762 0.48726 0.65767 0.0
O63 O 0.4403 0.48725 0.70276 0.0
C64 C 0.49934 0.59176 0.85987 0.0
O65 O 0.50213 0.62141 0.85543 0.0
O66 O 0.45973 0.60973 0.77797 0.0
O67 O 0.44204 0.60073 0.6963 0.0
H68 H 0.39877 0.63298 0.90388 0.0
H69 H 0.48869 0.5418 0.69255 0.0
O70 O 0.42192 0.51057 0.64477 0.0
H71 H 0.5357 0.64048 0.58023 0.0
H72 H 0.42363 0.5519 0.48008 0.0
H73 H 0.39225 0.58616 0.63979 0.0
H74 H 0.47725 0.61416 0.60825 0.0
H75 H 0.44217 0.5422 0.56373 0.0
O76 O 0.47519 0.56632 0.83802 0.0
H77 H 0.41115 0.61111 0.82599 0.0
H78 H 0.43488 0.54909 0.91604 0.0
H79 H 0.37366 0.59679 0.55681 0.0
H80 H 0.54682 0.56671 0.66439 0.0
H81 H 0.38931 0.57958 0.47618 0.0
H82 H 0.57096 0.61656 0.60776 0.0
O83 O 0.38472 0.53479 0.69595 0.0
H84 H 0.41498 0.44739 0.83992 0.0
H85 H 0.36599 0.52089 0.84885 0.0
H86 H 0.33307 0.46246 0.8783 0.0
H87 H 0.35761 0.4253 0.87418 0.0
H88 H 0.44689 0.50588 0.81025 0.0
H89 H 0.4231 0.57051 0.99503 0.0
H90 H 0.40482 0.61276 0.98926 0.0
O91 O 0.39257 0.55871 0.77317 0.0
C92 C 0.45593 0.62016 0.73451 0.0
C93 C 0.40688 0.61471 0.90695 0.0
C94 C 0.42055 0.57968 0.95808 0.0
N95 N 0.42429 0.57921 0.86638 0.0
C96 C 0.41401 0.60227 0.86293 0.0
C97 C 0.42742 0.56778 0.91322 0.0
C98 C 0.41027 0.60335 0.95482 0.0
C99 C 0.49828 0.56277 0.66697 0.0
N100 N 0.47867 0.57551 0.65082 0.0
C101 C 0.5316 0.57713 0.65155 0.0
C102 C 0.54517 0.60514 0.61993 0.0
C103 C 0.52541 0.61855 0.6045 0.0
C104 C 0.49219 0.60347 0.62062 0.0
C105 C 0.41669 0.55956 0.51494 0.0
C106 C 0.39944 0.57885 0.60489 0.0
C107 C 0.42697 0.55398 0.56251 0.0
N108 N 0.41853 0.56383 0.60675 0.0
C109 C 0.38871 0.58483 0.558 0.0
C110 C 0.39746 0.57512 0.51278 0.0
C111 C 0.37397 0.54295 0.73513 0.0
C112 C 0.40403 0.46335 0.84201 0.0
C113 C 0.37679 0.50484 0.84655 0.0
C114 C 0.35805 0.47179 0.86347 0.0
C115 C 0.37184 0.45097 0.86118 0.0
N116 N 0.40842 0.51686 0.82798 0.0
C117 C 0.42203 0.49653 0.82539 0.0
Co118 Co 0.87555 0.44947 0.3317 0.0
Co119 Co 0.88307 0.44262 0.20082 0.0
O120 O 0.90298 0.45797 0.26968 0.0
C121 C 0.93791 0.51668 0.35401 0.0
O122 O 0.95283 0.51611 0.31166 0.0
C123 C 0.91948 0.41001 0.15868 0.0
O124 O 0.89097 0.3816 0.15758 0.0
O125 O 0.85596 0.39548 0.22653 0.0
O126 O 0.84302 0.4036 0.30626 0.0
H127 H 0.78796 0.37535 0.07908 0.0
H128 H 0.94654 0.4623 0.32907 0.0
O129 O 0.90742 0.49478 0.3621 0.0
H130 H 0.88673 0.36799 0.44763 0.0
H131 H 0.85318 0.45632 0.51929 0.0
H132 H 0.80251 0.41741 0.34838 0.0
H133 H 0.85703 0.39283 0.40449 0.0
H134 H 0.88866 0.46476 0.44421 0.0
O135 O 0.92124 0.43549 0.181 0.0
H136 H 0.81438 0.39675 0.16328 0.0
H137 H 0.90837 0.45702 0.09235 0.0
H138 H 0.76612 0.40811 0.42265 0.0
H139 H 0.9772 0.43881 0.37236 0.0
H140 H 0.79142 0.42765 0.50888 0.0
H141 H 0.94744 0.39119 0.43232 0.0
O142 O 0.84975 0.46853 0.29764 0.0
H143 H 0.98863 0.55357 0.18205 0.0
H144 H 0.8688 0.48866 0.13812 0.0
H145 H 0.90209 0.54704 0.10887 0.0
H146 H 0.96261 0.57989 0.13051 0.0
H147 H 0.95413 0.4953 0.21137 0.0
H148 H 0.88322 0.43619 0.00743 0.0
H149 H 0.82247 0.39496 1.00029 0.0
O150 O 0.84539 0.45041 0.21684 0.0
C151 C 0.83964 0.38472 0.2683 0.0
C152 C 0.81451 0.39306 0.08166 0.0
C153 C 0.86795 0.42715 0.04147 0.0
N154 N 0.86321 0.42738 0.13309 0.0
C155 C 0.82967 0.40514 0.12932 0.0
C156 C 0.88219 0.43867 0.08979 0.0
C157 C 0.83387 0.40409 0.03749 0.0
C158 C 0.93327 0.44239 0.35592 0.0
N159 N 0.90003 0.43021 0.36547 0.0
C160 C 0.95085 0.42879 0.38 0.0
C161 C 0.93415 0.40202 0.41349 0.0
C162 C 0.90013 0.38904 0.42211 0.0
C163 C 0.88342 0.40335 0.39746 0.0
C164 C 0.84185 0.44765 0.48192 0.0
C165 C 0.81374 0.42572 0.38582 0.0
C166 C 0.86184 0.45253 0.43913 0.0
N167 N 0.84771 0.44142 0.39181 0.0
C168 C 0.79299 0.4205 0.42773 0.0
C169 C 0.8072 0.43153 0.47607 0.0
C170 C 0.83682 0.46311 0.25284 0.0
C171 C 0.96227 0.53957 0.17248 0.0
C172 C 0.89481 0.50295 0.14871 0.0
C173 C 0.91369 0.53593 0.13156 0.0
C174 C 0.94765 0.55432 0.14361 0.0
N175 N 0.90928 0.48859 0.17698 0.0
C176 C 0.94258 0.50653 0.18896 0.0
Co177 Co 0.44536 0.87159 0.82058 0.0
Co178 Co 0.42744 0.87193 0.69202 0.0
O179 O 0.44827 0.89603 0.75664 0.0
C180 C 0.44124 0.93257 0.85721 0.0
O181 O 0.44513 0.94538 0.81117 0.0
C182 C 0.49197 0.93398 0.65702 0.0
O183 O 0.50049 0.9466 0.70332 0.0
O184 O 0.45204 0.8469 0.69736 0.0
O185 O 0.44905 0.83632 0.78138 0.0
H186 H 0.36783 0.76896 0.58174 0.0
H187 H 0.49819 0.94378 0.81005 0.0
O188 O 0.44097 0.90513 0.86462 0.0
H189 H 0.55897 0.88393 0.84894 0.0
H190 H 0.46999 0.86012 1.0054 0.0
H191 H 0.40862 0.79981 0.84965 0.0
H192 H 0.49752 0.85319 0.84216 0.0
H193 H 0.47441 0.89101 0.926 0.0
O194 O 0.4651 0.90635 0.64894 0.0
H195 H 0.39416 0.80046 0.66093 0.0
H196 H 0.4175 0.8917 0.58718 0.0
H197 H 0.40386 0.76794 0.92801 0.0
H198 H 0.55946 0.97549 0.81723 0.0
H199 H 0.43467 0.79812 1.00666 0.0
H200 H 0.59042 0.94559 0.83676 0.0
O201 O 0.39576 0.84548 0.81451 0.0
H202 H 0.41422 0.97406 0.69807 0.0
H203 H 0.3565 0.85201 0.67008 0.0
H204 H 0.32454 0.88154 0.66424 0.0
H205 H 0.35342 0.94307 0.67798 0.0
H206 H 0.44504 0.94352 0.70429 0.0
H207 H 0.3918 0.86119 0.50696 0.0
H208 H 0.36654 0.79935 0.50399 0.0
O209 O 0.38883 0.83572 0.73017 0.0
C210 C 0.45465 0.83114 0.73554 0.0
C211 C 0.37868 0.7959 0.58258 0.0
C212 C 0.39216 0.84766 0.54061 0.0
N213 N 0.40712 0.84787 0.62887 0.0
C214 C 0.39355 0.81388 0.62738 0.0
C215 C 0.40677 0.86481 0.58611 0.0
C216 C 0.37798 0.81296 0.53897 0.0
C217 C 0.51116 0.93054 0.81938 0.0
N218 N 0.49394 0.89668 0.82661 0.0
C219 C 0.54603 0.94866 0.82303 0.0
C220 C 0.5634 0.93187 0.83387 0.0
C221 C 0.54577 0.89729 0.84069 0.0
C222 C 0.51091 0.88002 0.83673 0.0
C223 C 0.45648 0.84668 0.97136 0.0
C224 C 0.42227 0.81314 0.8836 0.0
C225 C 0.4588 0.86404 0.92631 0.0
N226 N 0.44199 0.84722 0.88305 0.0
C227 C 0.4194 0.79495 0.92792 0.0
C228 C 0.43667 0.81189 0.97203 0.0
C229 C 0.37783 0.82973 0.77582 0.0
C230 C 0.40139 0.94728 0.69162 0.0
C231 C 0.36935 0.87878 0.67621 0.0
C232 C 0.35107 0.89537 0.67277 0.0
C233 C 0.36728 0.92988 0.68046 0.0
N234 N 0.40294 0.89604 0.68668 0.0
C235 C 0.41886 0.92983 0.69473 0.0
Co236 Co 0.56115 0.44975 0.18876 0.0
Co237 Co 0.57455 0.446 0.31831 0.0
O238 O 0.55652 0.4599 0.2606 0.0
C239 C 0.58901 0.5159 0.13755 0.0
O240 O 0.61652 0.51477 0.12982 0.0
C241 C 0.50473 0.42481 0.35474 0.0
O242 O 0.49225 0.41385 0.30887 0.0
O243 O 0.55064 0.39836 0.29373 0.0
O244 O 0.55567 0.40562 0.20858 0.0
H245 H 0.62968 0.3865 0.39797 0.0
H246 H 0.51187 0.47048 0.2153 0.0
O247 O 0.56581 0.49372 0.16547 0.0
H248 H 0.44549 0.35838 0.13778 0.0
H249 H 0.53858 0.44194 0.99839 0.0
H250 H 0.59973 0.42267 0.13721 0.0
H251 H 0.50674 0.38479 0.14592 0.0
H252 H 0.53159 0.45358 0.08812 0.0
O253 O 0.53593 0.43753 0.36301 0.0
H254 H 0.60672 0.40434 0.32718 0.0
H255 H 0.58089 0.45845 0.43141 0.0
H256 H 0.6072 0.41025 0.04803 0.0
H257 H 0.4507 0.4453 0.2071 0.0
H258 H 0.57661 0.42002 0.97779 0.0
H259 H 0.41705 0.38879 0.16825 0.0
O260 O 0.61077 0.4705 0.19784 0.0
H261 H 0.58415 0.55657 0.36217 0.0
H262 H 0.64442 0.49363 0.35359 0.0
H263 H 0.67446 0.55251 0.38199 0.0
H264 H 0.64423 0.58438 0.38666 0.0
H265 H 0.55522 0.49772 0.33327 0.0
H266 H 0.60318 0.44081 0.50344 0.0
H267 H 0.62798 0.40473 0.48692 0.0
O268 O 0.61437 0.45475 0.2777 0.0
C269 C 0.54919 0.38736 0.24826 0.0
C270 C 0.61894 0.40223 0.40569 0.0
C271 C 0.60403 0.43267 0.46487 0.0
N272 N 0.5924 0.43239 0.37507 0.0
C273 C 0.60592 0.41245 0.36573 0.0
C274 C 0.59127 0.44243 0.42394 0.0
C275 C 0.61796 0.41245 0.45557 0.0
C276 C 0.49745 0.446 0.19798 0.0
N277 N 0.51293 0.42913 0.1811 0.0
C278 C 0.46279 0.43181 0.19361 0.0
C279 C 0.44393 0.40009 0.17189 0.0
C280 C 0.45986 0.383 0.15486 0.0
C281 C 0.49456 0.39797 0.15989 0.0
C282 C 0.55222 0.43776 0.02859 0.0
C283 C 0.58639 0.4271 0.10692 0.0
C284 C 0.54852 0.44455 0.0795 0.0
N285 N 0.56567 0.43944 0.11794 0.0
C286 C 0.59068 0.41995 0.05646 0.0
C287 C 0.57352 0.42543 0.01708 0.0
C288 C 0.62714 0.46672 0.2343 0.0
C289 C 0.59759 0.54295 0.36032 0.0
C290 C 0.63119 0.50738 0.35495 0.0
C291 C 0.64829 0.5407 0.37135 0.0
C292 C 0.63131 0.55855 0.37401 0.0
N293 N 0.5981 0.49221 0.34168 0.0
C294 C 0.58133 0.5096 0.34408 0.0
Co295 Co 0.13025 0.5611 0.69386 0.0
Co296 Co 0.11535 0.55455 0.82373 0.0
O297 O 0.0989 0.54574 0.75232 0.0
C298 C 0.07789 0.57871 0.66049 0.0
O299 O 0.07452 0.5867 0.70747 0.0
C300 C 0.07612 0.48725 0.87178 0.0
O301 O 0.10399 0.48626 0.87513 0.0
O302 O 0.14201 0.53206 0.81034 0.0
O303 O 0.16259 0.55252 0.73253 0.0
H304 H 0.20407 0.58807 0.95948 0.0
H305 H 0.0596 0.50797 0.67924 0.0
O306 O 0.09886 0.56922 0.65072 0.0
H307 H 0.12664 0.45763 0.62327 0.0
H308 H 0.16221 0.57117 0.50754 0.0
H309 H 0.20374 0.60472 0.68425 0.0
H310 H 0.1542 0.5159 0.65455 0.0
H311 H 0.1232 0.55049 0.58033 0.0
O312 O 0.0756 0.51105 0.84737 0.0
H313 H 0.18174 0.57765 0.87138 0.0
H314 H 0.08562 0.55204 0.92687 0.0
H315 H 0.24364 0.62578 0.61262 0.0
H316 H 0.03099 0.44969 0.64766 0.0
H317 H 0.22294 0.60904 0.52345 0.0
H318 H 0.06458 0.42414 0.61947 0.0
O319 O 0.15303 0.60819 0.72038 0.0
H320 H 0.01148 0.5637 0.81525 0.0
H321 H 0.12954 0.61991 0.87024 0.0
H322 H 0.0968 0.64815 0.8833 0.0
H323 H 0.0372 0.61991 0.856 0.0
H324 H 0.04544 0.53671 0.80199 0.0
H325 H 0.10663 0.5616 0.01565 0.0
H326 H 0.16637 0.57987 0.03247 0.0
O327 O 0.15471 0.59837 0.80409 0.0
C328 C 0.16209 0.53736 0.77351 0.0
C329 C 0.17793 0.57987 0.95271 0.0
C330 C 0.12326 0.56497 0.98424 0.0
N331 N 0.13211 0.5634 0.89389 0.0
C332 C 0.16509 0.57383 0.90286 0.0
C333 C 0.11136 0.55924 0.93386 0.0
C334 C 0.15678 0.57528 0.99363 0.0
C335 C 0.07438 0.49708 0.6668 0.0
N336 N 0.10852 0.51536 0.6686 0.0
C337 C 0.05804 0.46405 0.64906 0.0
C338 C 0.0769 0.44972 0.63327 0.0
C339 C 0.11172 0.46849 0.63539 0.0
C340 C 0.12718 0.50145 0.6533 0.0
C341 C 0.17153 0.57868 0.54621 0.0
C342 C 0.19451 0.59724 0.64561 0.0
C343 C 0.14953 0.56718 0.58759 0.0
N344 N 0.16111 0.57646 0.63657 0.0
C345 C 0.21724 0.60928 0.60518 0.0
C346 C 0.20561 0.5999 0.55516 0.0
C347 C 0.16467 0.6179 0.76555 0.0
C348 C 0.03741 0.57626 0.82738 0.0
C349 C 0.10386 0.6077 0.85752 0.0
C350 C 0.08532 0.6237 0.86538 0.0
C351 C 0.05187 0.60781 0.85015 0.0
N352 N 0.08952 0.57673 0.83524 0.0
C353 C 0.05674 0.56104 0.82015 0.0
H354 H 0.55522 0.2209 0.30832 0.0
H355 H 0.53642 0.19683 0.14627 0.0
H356 H 0.52841 0.24556 0.13423 0.0
H357 H 0.49597 0.25076 0.32575 0.0
H358 H 0.52327 0.28367 0.36917 0.0
H359 H 0.52488 0.24544 0.36584 0.0
H360 H 0.58834 0.27958 0.34688 0.0
H361 H 0.58701 0.31789 0.35009 0.0
H362 H 0.60291 0.30822 0.29361 0.0
H363 H 0.52674 0.29871 0.13863 0.0
H364 H 0.53236 0.35324 0.15757 0.0
H365 H 0.55154 0.34302 0.31774 0.0
C366 C 0.54898 0.22546 0.27028 0.0
C367 C 0.54625 0.20477 0.22818 0.0
C368 C 0.53844 0.2121 0.17911 0.0
C369 C 0.5338 0.2397 0.17196 0.0
C370 C 0.53695 0.25962 0.21426 0.0
C371 C 0.54436 0.25286 0.26246 0.0
C372 C 0.54826 0.27927 0.30099 0.0
C373 C 0.52149 0.26386 0.34292 0.0
C374 C 0.58374 0.2973 0.32424 0.0
C375 C 0.54243 0.30239 0.26669 0.0
C376 C 0.53573 0.29035 0.21694 0.0
C377 C 0.53143 0.3081 0.17755 0.0
C378 C 0.53458 0.33917 0.18894 0.0
C379 C 0.54185 0.35246 0.23949 0.0
C380 C 0.54529 0.33339 0.27901 0.0
H381 H 0.34918 0.57739 0.78577 0.0
H382 H 0.31914 0.48998 0.68987 0.0
H383 H 0.25976 0.47494 0.69916 0.0
H384 H 0.27914 0.54173 0.87264 0.0
H385 H 0.2765 0.57939 0.87597 0.0
H386 H 0.31622 0.58202 0.86436 0.0
H387 H 0.32352 0.61562 0.78111 0.0
H388 H 0.28421 0.61364 0.793 0.0
H389 H 0.29098 0.59862 0.73304 0.0
H390 H 0.20379 0.47024 0.71822 0.0
H391 H 0.15685 0.48046 0.73493 0.0
H392 H 0.22428 0.5722 0.81501 0.0
C393 C 0.3301 0.55493 0.76696 0.0
C394 C 0.33864 0.53462 0.73744 0.0
C395 C 0.31306 0.50586 0.71257 0.0
C396 C 0.27932 0.497 0.71807 0.0
C397 C 0.27175 0.51737 0.74813 0.0
C398 C 0.29652 0.54607 0.77138 0.0
C399 C 0.28222 0.56521 0.79826 0.0
C400 C 0.28892 0.56719 0.85625 0.0
C401 C 0.29604 0.60034 0.77494 0.0
C402 C 0.24541 0.54293 0.78629 0.0
C403 C 0.23978 0.51514 0.75809 0.0
C404 C 0.20789 0.49173 0.74064 0.0
C405 C 0.18137 0.49757 0.75055 0.0
C406 C 0.18702 0.52662 0.77726 0.0
C407 C 0.21924 0.5492 0.79617 0.0
H408 H 0.66895 0.21909 0.20444 0.0
H409 H 0.66622 0.19169 0.36429 0.0
H410 H 0.72392 0.23897 0.37565 0.0
H411 H 0.7581 0.24844 0.18145 0.0
H412 H 0.763 0.28236 0.14119 0.0
H413 H 0.7232 0.2441 0.14406 0.0
H414 H 0.69433 0.27777 0.16943 0.0
H415 H 0.73391 0.31608 0.16658 0.0
H416 H 0.70945 0.30519 0.22437 0.0
H417 H 0.77946 0.29147 0.37136 0.0
H418 H 0.82745 0.34714 0.35394 0.0
H419 H 0.79406 0.34131 0.19697 0.0
C420 C 0.68055 0.22253 0.24175 0.0
C421 C 0.66299 0.20139 0.28349 0.0
C422 C 0.67913 0.20733 0.33172 0.0
C423 C 0.71195 0.23405 0.33843 0.0
C424 C 0.72828 0.25452 0.29654 0.0
C425 C 0.71309 0.24911 0.24916 0.0
C426 C 0.73489 0.27639 0.21148 0.0
C427 C 0.74542 0.26195 0.16691 0.0
C428 C 0.71708 0.29495 0.19184 0.0
C429 C 0.76448 0.29865 0.2455 0.0
C430 C 0.76029 0.28521 0.29416 0.0
C431 C 0.7831 0.30204 0.33333 0.0
C432 C 0.81027 0.33382 0.32309 0.0
C433 C 0.81453 0.34877 0.27423 0.0
C434 C 0.79182 0.33042 0.23446 0.0
H435 H 0.45715 0.78841 0.80669 0.0
H436 H 0.46886 0.81159 0.64412 0.0
H437 H 0.47727 0.76355 0.62872 0.0
H438 H 0.51787 0.7584 0.81538 0.0
H439 H 0.49232 0.72565 0.85985 0.0
H440 H 0.49103 0.76409 0.85925 0.0
H441 H 0.4268 0.73036 0.84593 0.0
H442 H 0.42788 0.69189 0.84644 0.0
H443 H 0.40967 0.70167 0.79269 0.0
H444 H 0.4779 0.7102 0.62922 0.0
H445 H 0.47059 0.65461 0.64484 0.0
H446 H 0.46044 0.66584 0.80773 0.0
C447 C 0.46213 0.78387 0.7679 0.0
C448 C 0.46252 0.80404 0.72659 0.0
C449 C 0.46862 0.79674 0.67643 0.0
C450 C 0.47351 0.76953 0.66732 0.0
C451 C 0.47244 0.74994 0.70876 0.0
C452 C 0.46701 0.75678 0.75811 0.0
C453 C 0.46456 0.73028 0.79523 0.0
C454 C 0.49316 0.74552 0.83477 0.0
C455 C 0.43018 0.71251 0.8216 0.0
C456 C 0.46859 0.70695 0.75875 0.0
C457 C 0.47335 0.71904 0.70917 0.0
C458 C 0.47487 0.70081 0.66797 0.0
C459 C 0.47072 0.66911 0.67735 0.0
C460 C 0.46532 0.65577 0.72761 0.0
C461 C 0.4651 0.67545 0.76902 0.0
H462 H 0.6716 0.4708 0.30759 0.0
H463 H 0.66146 0.47827 0.14335 0.0
H464 H 0.71695 0.48327 0.13119 0.0
H465 H 0.76298 0.53 0.31491 0.0
H466 H 0.76851 0.50568 0.36402 0.0
H467 H 0.72981 0.50627 0.35972 0.0
H468 H 0.69703 0.44151 0.3541 0.0
H469 H 0.73554 0.44067 0.35774 0.0
H470 H 0.70729 0.42091 0.30462 0.0
H471 H 0.76872 0.4787 0.13657 0.0
H472 H 0.81548 0.47008 0.15818 0.0
H473 H 0.79469 0.47039 0.32013 0.0
C474 C 0.68123 0.47441 0.26903 0.0
C475 C 0.66207 0.47431 0.22636 0.0
C476 C 0.67567 0.47851 0.17662 0.0
C477 C 0.70715 0.48133 0.1694 0.0
C478 C 0.7249 0.48053 0.21237 0.0
C479 C 0.71265 0.47772 0.26128 0.0
C480 C 0.73578 0.47581 0.30092 0.0
C481 C 0.75013 0.50626 0.33702 0.0
C482 C 0.71783 0.44276 0.33109 0.0
C483 C 0.76262 0.4769 0.26652 0.0
C484 C 0.75577 0.4796 0.21562 0.0
C485 C 0.77493 0.4777 0.17631 0.0
C486 C 0.8017 0.47291 0.18918 0.0
C487 C 0.80975 0.47068 0.24108 0.0
C488 C 0.78997 0.47305 0.28023 0.0
H489 H 0.33323 0.78809 0.70277 0.0
H490 H 0.34427 0.80695 0.86681 0.0
H491 H 0.2885 0.75748 0.88014 0.0
H492 H 0.24268 0.75683 0.69513 0.0
H493 H 0.23591 0.7255 0.6479 0.0
H494 H 0.27537 0.76416 0.65052 0.0
H495 H 0.30651 0.73074 0.65939 0.0
H496 H 0.26722 0.69202 0.65693 0.0
H497 H 0.29526 0.70065 0.71036 0.0
H498 H 0.23497 0.7037 0.87684 0.0
H499 H 0.18623 0.64907 0.85804 0.0
H500 H 0.20787 0.66471 0.69529 0.0
C501 C 0.32379 0.78224 0.74151 0.0
C502 C 0.34322 0.80167 0.78379 0.0
C503 C 0.32991 0.79271 0.83379 0.0
C504 C 0.29821 0.76464 0.84174 0.0
C505 C 0.28005 0.74586 0.79932 0.0
C506 C 0.29222 0.75429 0.75016 0.0
C507 C 0.2684 0.72871 0.71156 0.0
C508 C 0.25478 0.74477 0.67406 0.0
C509 C 0.28536 0.71205 0.68289 0.0
C510 C 0.24117 0.70415 0.74692 0.0
C511 C 0.24847 0.71476 0.7973 0.0
C512 C 0.2286 0.69546 0.8375 0.0
C513 C 0.20073 0.66434 0.8262 0.0
C514 C 0.19248 0.6526 0.77493 0.0
C515 C 0.2129 0.67315 0.73471 0.0
H516 H 0.48267 0.99922 0.87798 0.0
H517 H 0.40138 0.90784 0.94078 0.0
H518 H 0.40565 0.93725 0.02221 0.0
H519 H 0.53131 0.02176 0.98941 0.0
H520 H 0.54837 0.06628 0.98269 0.0
H521 H 0.53536 0.03985 0.92678 0.0
H522 H 0.4959 0.06222 0.90059 0.0
H523 H 0.50897 0.08888 0.95641 0.0
H524 H 0.46517 0.0598 0.94544 0.0
H525 H 0.4214 0.97586 0.09913 0.0
H526 H 0.45012 0.01891 0.16655 0.0
H527 H 0.52359 0.08366 0.05521 0.0
C528 C 0.46507 0.98582 0.90834 0.0
C529 C 0.44108 0.95154 0.9028 0.0
C530 C 0.4195 0.93429 0.94411 0.0
C531 C 0.42174 0.9508 0.99044 0.0
C532 C 0.4461 0.98448 0.99521 0.0
C533 C 0.46755 1.00176 0.95535 0.0
C534 C 0.49396 0.03662 0.97222 0.0
C535 C 0.52933 0.04138 0.9675 0.0
C536 C 0.49079 0.06347 0.94185 0.0
C537 C 0.48432 0.03606 0.02781 0.0
C538 C 0.45629 0.00605 0.04018 0.0
C539 C 0.44327 0.99954 0.08976 0.0
C540 C 0.45967 0.02415 0.12781 0.0
C541 C 0.48911 0.05459 0.11627 0.0
C542 C 0.50117 0.06061 0.06536 0.0
H543 H 0.5222 0.43827 0.45582 0.0
H544 H 0.4396 0.41213 0.3507 0.0
H545 H 0.40709 0.41764 0.42155 0.0
H546 H 0.47187 0.39681 0.57029 0.0
H547 H 0.5008 0.42978 0.61222 0.0
H548 H 0.51575 0.42001 0.55475 0.0
H549 H 0.54227 0.48174 0.52534 0.0
H550 H 0.52761 0.49174 0.58269 0.0
H551 H 0.51646 0.50082 0.52094 0.0
H552 H 0.38703 0.43365 0.50123 0.0
H553 H 0.38098 0.45802 0.58213 0.0
H554 H 0.47579 0.47132 0.63585 0.0
C555 C 0.49706 0.43312 0.44762 0.0
C556 C 0.48347 0.4247 0.39749 0.0
C557 C 0.4505 0.41838 0.38873 0.0
C558 C 0.43185 0.42144 0.42881 0.0
C559 C 0.44635 0.4304 0.47755 0.0
C560 C 0.47816 0.4359 0.48707 0.0
C561 C 0.48915 0.44756 0.54166 0.0
C562 C 0.49471 0.42201 0.57149 0.0
C563 C 0.52072 0.48253 0.54269 0.0
C564 C 0.45887 0.44865 0.56132 0.0
C565 C 0.43436 0.4385 0.52383 0.0
C566 C 0.40564 0.44076 0.53123 0.0
C567 C 0.40233 0.45449 0.57737 0.0
C568 C 0.42738 0.46549 0.61585 0.0
C569 C 0.45557 0.46171 0.60808 0.0
H570 H 0.03634 0.50544 0.92386 0.0
H571 H 0.0551 0.42301 0.90352 0.0
H572 H 0.01649 0.39284 0.97521 0.0
H573 H 0.04473 0.50558 0.05862 0.0
H574 H 0.01467 0.51875 0.07137 0.0
H575 H 0.03795 0.53071 0.01251 0.0
H576 H 0.98284 0.50416 0.95987 0.0
H577 H 0.95934 0.49269 0.01857 0.0
H578 H 0.95141 0.46113 0.97115 0.0
H579 H 0.97361 0.37165 0.0495 0.0
H580 H 0.93634 0.36426 0.12274 0.0
H581 H 0.96086 0.46771 0.10726 0.0
C582 C 0.0323 0.481 0.93407 0.0
C583 C 0.04866 0.46652 0.90781 0.0
C584 C 0.04246 0.43437 0.92268 0.0
C585 C 0.02073 0.41717 0.96351 0.0
C586 C 0.00642 0.43306 0.99033 0.0
C587 C 0.01252 0.46457 0.97658 0.0
C588 C 0.99787 0.47822 0.015 0.0
C589 C 0.02546 0.5102 0.04091 0.0
C590 C 0.97129 0.4844 0.98962 0.0
C591 C 0.98217 0.44933 0.05229 0.0
C592 C 0.98634 0.42302 0.03676 0.0
C593 C 0.97082 0.3924 0.06254 0.0
C594 C 0.94988 0.38845 0.10428 0.0
C595 C 0.94577 0.41539 0.12106 0.0
C596 C 0.96334 0.44653 0.0957 0.0
H597 H 0.55975 0.08425 0.45873 0.0
H598 H 0.57242 0.02057 0.34955 0.0
H599 H 0.5579 0.97778 0.41718 0.0
H600 H 0.59372 0.06216 0.57066 0.0
H601 H 0.56425 0.06393 0.61382 0.0
H602 H 0.57802 0.09025 0.55785 0.0
H603 H 0.51643 0.06612 0.52892 0.0
H604 H 0.50244 0.03975 0.58467 0.0
H605 H 0.48997 0.02146 0.52173 0.0
H606 H 0.53483 0.9393 0.4939 0.0
H607 H 0.50922 0.90986 0.57489 0.0
H608 H 0.51561 1.00027 0.63582 0.0
C609 C 0.55991 0.06148 0.44912 0.0
C610 C 0.56713 0.05567 0.39875 0.0
C611 C 0.56716 0.02562 0.38788 0.0
C612 C 0.55888 1.00118 0.42605 0.0
C613 C 0.55129 0.0075 0.4751 0.0
C614 C 0.55225 0.03716 0.48685 0.0
C615 C 0.54208 0.03752 0.54192 0.0
C616 C 0.57126 0.0651 0.57289 0.0
C617 C 0.51088 0.04143 0.54443 0.0
C618 C 0.53432 0.00299 0.55916 0.0
C619 C 0.53972 0.98603 0.51998 0.0
C620 C 0.53135 0.95264 0.52518 0.0
C621 C 0.51684 0.93613 0.57125 0.0
C622 C 0.51135 0.95311 0.61191 0.0
C623 C 0.52068 0.98711 0.60598 0.0
H624 H 0.47918 0.53831 0.92406 0.0
H625 H 0.56518 0.63409 0.88515 0.0
H626 H 0.59773 0.6269 0.95498 0.0
H627 H 0.49075 0.55125 0.06027 0.0
H628 H 0.47576 0.50772 0.07402 0.0
H629 H 0.46048 0.5192 0.01845 0.0
H630 H 0.47886 0.48575 0.96024 0.0
H631 H 0.49388 0.47395 0.0157 0.0
H632 H 0.5216 0.49469 0.96285 0.0
H633 H 0.62154 0.60638 0.02633 0.0
H634 H 0.63299 0.5769 0.09603 0.0
H635 H 0.52796 0.50084 0.0979 0.0
C636 C 0.50492 0.55772 0.92992 0.0
C637 C 0.51985 0.58659 0.89871 0.0
C638 C 0.55343 0.61162 0.90829 0.0
C639 C 0.57202 0.60778 0.94794 0.0
C640 C 0.55627 0.57927 0.9787 0.0
C641 C 0.52328 0.55495 0.97055 0.0
C642 C 0.51142 0.52769 0.0107 0.0
C643 C 0.48291 0.5264 0.04276 0.0
C644 C 0.50082 0.49351 0.98588 0.0
C645 C 0.54305 0.54004 0.04226 0.0
C646 C 0.56887 0.5695 0.02275 0.0
C647 C 0.6013 0.58371 0.04255 0.0
C648 C 0.60757 0.5669 0.08228 0.0
C649 C 0.58138 0.53675 0.10284 0.0
C650 C 0.54854 0.52396 0.08354 0.0
H651 H 0.08277 0.56845 0.55826 0.0
H652 H 0.022 0.58577 0.66673 0.0
H653 H 0.98246 0.57849 0.59674 0.0
H654 H 0.06935 0.60958 0.44741 0.0
H655 H 0.06792 0.57888 0.40314 0.0
H656 H 0.09291 0.58885 0.46063 0.0
H657 H 0.06166 0.52621 0.48627 0.0
H658 H 0.03672 0.51602 0.42888 0.0
H659 H 0.01664 0.50404 0.49044 0.0
H660 H 0.94618 0.56247 0.51642 0.0
H661 H 0.91704 0.53999 0.43378 0.0
H662 H 1.00273 0.53508 0.37768 0.0
C663 C 0.06147 0.57126 0.56742 0.0
C664 C 0.05561 0.57777 0.61825 0.0
C665 C 0.02723 0.58104 0.6282 0.0
C666 C 0.00462 0.57693 0.58861 0.0
C667 C 0.01091 0.56992 0.53914 0.0
C668 C 0.03883 0.56736 0.52849 0.0
C669 C 0.03898 0.55757 0.47307 0.0
C670 C 0.06908 0.58539 0.44438 0.0
C671 C 0.03846 0.52397 0.46949 0.0
C672 C 0.0064 0.55432 0.45417 0.0
C673 C 0.99058 0.56165 0.49278 0.0
C674 C 0.95872 0.55743 0.48568 0.0
C675 C 0.94238 0.54474 0.43853 0.0
C676 C 0.95793 0.5366 0.39876 0.0
C677 C 0.99069 0.54224 0.40654 0.0
loop_
_geom_bond_atom_site_label_1
_geom_bond_atom_site_label_2
_geom_bond_distance
_geom_bond_site_symmetry_2
_ccdc_geom_bond_type
Co0 O2 2.143 . S
Co0 O8 2.074 . S
Co0 O11 2.093 . S
Co0 O24 2.097 . S
Co0 N41 2.151 . S
Co0 N49 2.214 . S
Co1 O2 2.160 . S
Co1 O7 2.058 . S
Co1 O17 2.057 . S
Co1 O32 2.037 . S
Co1 N36 2.145 . S
Co1 N57 2.257 . S
O2 Co0 2.143 . S
O2 Co1 2.160 . S
C3 O4 1.278 . S
C3 O11 1.224 . S
O4 C3 1.278 . S
C5 O6 1.245 . S
C5 O17 1.232 . S
O6 C5 1.245 . S
O7 Co1 2.058 . S
O7 C33 1.269 . S
O8 Co0 2.074 . S
O8 C33 1.257 . S
H9 C34 0.930 . S
H10 C40 0.930 . S
O11 Co0 2.093 . S
O11 C3 1.224 . S
H12 C44 0.929 . S
H13 C46 0.930 . S
H14 C47 0.930 . S
H15 C45 0.929 . S
H16 C48 0.928 . S
O17 Co1 2.057 . S
O17 C5 1.232 . S
H18 C37 0.929 . S
H19 C38 0.929 . S
H20 C50 0.931 . S
H21 C42 0.929 . S
H22 C51 0.930 . S
H23 C43 0.931 . S
O24 Co0 2.097 . S
O24 C52 1.214 . S
H25 C53 0.929 . S
H26 C54 0.929 . S
H27 C55 0.930 . S
H28 C56 0.929 . S
H29 C58 0.930 . S
H30 C35 0.930 . S
H31 C39 0.930 . S
O32 Co1 2.037 . S
O32 C52 1.234 . S
C33 O7 1.269 . S
C33 O8 1.257 . S
C34 H9 0.930 . S
C34 C37 1.388 . S
C34 C39 1.418 . S
C35 H30 0.930 . S
C35 C38 1.404 . S
C35 C39 1.353 . S
N36 Co1 2.145 . S
N36 C37 1.397 . S
N36 C38 1.334 . S
C37 H18 0.929 . S
C37 C34 1.388 . S
C37 N36 1.397 . S
C38 H19 0.929 . S
C38 C35 1.404 . S
C38 N36 1.334 . S
C39 H31 0.930 . S
C39 C34 1.418 . S
C39 C35 1.353 . S
C40 H10 0.930 . S
C40 N41 1.330 . S
C40 C42 1.446 . S
N41 Co0 2.151 . S
N41 C40 1.330 . S
N41 C45 1.418 . S
C42 H21 0.929 . S
C42 C40 1.446 . S
C42 C43 1.332 . S
C43 H23 0.931 . S
C43 C42 1.332 . S
C43 C44 1.267 . S
C44 H12 0.929 . S
C44 C43 1.267 . S
C44 C45 1.251 . S
C45 H15 0.929 . S
C45 N41 1.418 . S
C45 C44 1.251 . S
C46 H13 0.930 . S
C46 C48 1.406 . S
C46 C51 1.261 . S
C47 H14 0.930 . S
C47 N49 1.325 . S
C47 C50 1.357 . S
C48 H16 0.928 . S
C48 C46 1.406 . S
C48 N49 1.261 . S
N49 Co0 2.214 . S
N49 C47 1.325 . S
N49 C48 1.261 . S
C50 H20 0.931 . S
C50 C47 1.357 . S
C50 C51 1.312 . S
C51 H22 0.930 . S
C51 C46 1.261 . S
C51 C50 1.312 . S
C52 O24 1.214 . S
C52 O32 1.234 . S
C53 H25 0.929 . S
C53 C56 1.391 . S
C53 C58 1.391 . S
C54 H26 0.929 . S
C54 C55 1.390 . S
C54 N57 1.391 . S
C55 H27 0.930 . S
C55 C54 1.390 . S
C55 C56 1.392 . S
C56 H28 0.929 . S
C56 C53 1.391 . S
C56 C55 1.392 . S
N57 Co1 2.257 . S
N57 C54 1.391 . S
N57 C58 1.388 . S
C58 H29 0.930 . S
C58 C53 1.391 . S
C58 N57 1.388 . S
Co59 O61 2.143 . S
Co59 O67 2.074 . S
Co59 O70 2.093 . S
Co59 O83 2.097 . S
Co59 N100 2.151 . S
Co59 N108 2.214 . S
Co60 O61 2.160 . S
Co60 O66 2.058 . S
Co60 O76 2.057 . S
Co60 O91 2.037 . S
Co60 N95 2.145 . S
Co60 N116 2.257 . S
O61 Co59 2.143 . S
O61 Co60 2.160 . S
C62 O63 1.278 . S
C62 O70 1.224 . S
O63 C62 1.278 . S
C64 O65 1.245 . S
C64 O76 1.232 . S
O65 C64 1.245 . S
O66 Co60 2.058 . S
O66 C92 1.269 . S
O67 Co59 2.074 . S
O67 C92 1.257 . S
H68 C93 0.930 . S
H69 C99 0.930 . S
O70 Co59 2.093 . S
O70 C62 1.224 . S
H71 C103 0.929 . S
H72 C105 0.930 . S
H73 C106 0.930 . S
H74 C104 0.929 . S
H75 C107 0.928 . S
O76 Co60 2.057 . S
O76 C64 1.232 . S
H77 C96 0.929 . S
H78 C97 0.929 . S
H79 C109 0.931 . S
H80 C101 0.929 . S
H81 C110 0.930 . S
H82 C102 0.931 . S
O83 Co59 2.097 . S
O83 C111 1.214 . S
H84 C112 0.929 . S
H85 C113 0.929 . S
H86 C114 0.930 . S
H87 C115 0.929 . S
H88 C117 0.930 . S
H89 C94 0.930 . S
H90 C98 0.930 . S
O91 Co60 2.037 . S
O91 C111 1.234 . S
C92 O66 1.269 . S
C92 O67 1.257 . S
C93 H68 0.930 . S
C93 C96 1.388 . S
C93 C98 1.418 . S
C94 H89 0.930 . S
C94 C97 1.404 . S
C94 C98 1.353 . S
N95 Co60 2.145 . S
N95 C96 1.397 . S
N95 C97 1.334 . S
C96 H77 0.929 . S
C96 C93 1.388 . S
C96 N95 1.397 . S
C97 H78 0.929 . S
C97 C94 1.404 . S
C97 N95 1.334 . S
C98 H90 0.930 . S
C98 C93 1.418 . S
C98 C94 1.353 . S
C99 H69 0.930 . S
C99 N100 1.330 . S
C99 C101 1.446 . S
N100 Co59 2.151 . S
N100 C99 1.330 . S
N100 C104 1.418 . S
C101 H80 0.929 . S
C101 C99 1.446 . S
C101 C102 1.332 . S
C102 H82 0.931 . S
C102 C101 1.332 . S
C102 C103 1.267 . S
C103 H71 0.929 . S
C103 C102 1.267 . S
C103 C104 1.251 . S
C104 H74 0.929 . S
C104 N100 1.418 . S
C104 C103 1.251 . S
C105 H72 0.930 . S
C105 C107 1.406 . S
C105 C110 1.261 . S
C106 H73 0.930 . S
C106 N108 1.325 . S
C106 C109 1.357 . S
C107 H75 0.928 . S
C107 C105 1.406 . S
C107 N108 1.261 . S
N108 Co59 2.214 . S
N108 C106 1.325 . S
N108 C107 1.261 . S
C109 H79 0.931 . S
C109 C106 1.357 . S
C109 C110 1.312 . S
C110 H81 0.930 . S
C110 C105 1.261 . S
C110 C109 1.312 . S
C111 O83 1.214 . S
C111 O91 1.234 . S
C112 H84 0.929 . S
C112 C115 1.391 . S
C112 C117 1.391 . S
C113 H85 0.929 . S
C113 C114 1.390 . S
C113 N116 1.391 . S
C114 H86 0.930 . S
C114 C113 1.390 . S
C114 C115 1.392 . S
C115 H87 0.929 . S
C115 C112 1.391 . S
C115 C114 1.392 . S
N116 Co60 2.257 . S
N116 C113 1.391 . S
N116 C117 1.388 . S
C117 H88 0.930 . S
C117 C112 1.391 . S
C117 N116 1.388 . S
Co118 O120 2.143 . S
Co118 O126 2.074 . S
Co118 O129 2.093 . S
Co118 O142 2.097 . S
Co118 N159 2.151 . S
Co118 N167 2.214 . S
Co119 O120 2.160 . S
Co119 O125 2.058 . S
Co119 O135 2.057 . S
Co119 O150 2.037 . S
Co119 N154 2.145 . S
Co119 N175 2.257 . S
O120 Co118 2.143 . S
O120 Co119 2.160 . S
C121 O122 1.278 . S
C121 O129 1.224 . S
O122 C121 1.278 . S
C123 O124 1.245 . S
C123 O135 1.232 . S
O124 C123 1.245 . S
O125 Co119 2.058 . S
O125 C151 1.269 . S
O126 Co118 2.074 . S
O126 C151 1.257 . S
H127 C152 0.930 . S
H128 C158 0.930 . S
O129 Co118 2.093 . S
O129 C121 1.224 . S
H130 C162 0.929 . S
H131 C164 0.930 . S
H132 C165 0.930 . S
H133 C163 0.929 . S
H134 C166 0.928 . S
O135 Co119 2.057 . S
O135 C123 1.232 . S
H136 C155 0.929 . S
H137 C156 0.929 . S
H138 C168 0.931 . S
H139 C160 0.929 . S
H140 C169 0.930 . S
H141 C161 0.931 . S
O142 Co118 2.097 . S
O142 C170 1.214 . S
H143 C171 0.929 . S
H144 C172 0.929 . S
H145 C173 0.930 . S
H146 C174 0.929 . S
H147 C176 0.930 . S
H148 C153 0.930 . S
H149 C157 0.930 . S
O150 Co119 2.037 . S
O150 C170 1.234 . S
C151 O125 1.269 . S
C151 O126 1.257 . S
C152 H127 0.930 . S
C152 C155 1.388 . S
C152 C157 1.418 . S
C153 H148 0.930 . S
C153 C156 1.404 . S
C153 C157 1.353 . S
N154 Co119 2.145 . S
N154 C155 1.397 . S
N154 C156 1.334 . S
C155 H136 0.929 . S
C155 C152 1.388 . S
C155 N154 1.397 . S
C156 H137 0.929 . S
C156 C153 1.404 . S
C156 N154 1.334 . S
C157 H149 0.930 . S
C157 C152 1.418 . S
C157 C153 1.353 . S
C158 H128 0.930 . S
C158 N159 1.330 . S
C158 C160 1.446 . S
N159 Co118 2.151 . S
N159 C158 1.330 . S
N159 C163 1.418 . S
C160 H139 0.929 . S
C160 C158 1.446 . S
C160 C161 1.332 . S
C161 H141 0.931 . S
C161 C160 1.332 . S
C161 C162 1.267 . S
C162 H130 0.929 . S
C162 C161 1.267 . S
C162 C163 1.251 . S
C163 H133 0.929 . S
C163 N159 1.418 . S
C163 C162 1.251 . S
C164 H131 0.930 . S
C164 C166 1.406 . S
C164 C169 1.261 . S
C165 H132 0.930 . S
C165 N167 1.325 . S
C165 C168 1.357 . S
C166 H134 0.928 . S
C166 C164 1.406 . S
C166 N167 1.261 . S
N167 Co118 2.214 . S
N167 C165 1.325 . S
N167 C166 1.261 . S
C168 H138 0.931 . S
C168 C165 1.357 . S
C168 C169 1.312 . S
C169 H140 0.930 . S
C169 C164 1.261 . S
C169 C168 1.312 . S
C170 O142 1.214 . S
C170 O150 1.234 . S
C171 H143 0.929 . S
C171 C174 1.391 . S
C171 C176 1.391 . S
C172 H144 0.929 . S
C172 C173 1.390 . S
C172 N175 1.391 . S
C173 H145 0.930 . S
C173 C172 1.390 . S
C173 C174 1.392 . S
C174 H146 0.929 . S
C174 C171 1.391 . S
C174 C173 1.392 . S
N175 Co119 2.257 . S
N175 C172 1.391 . S
N175 C176 1.388 . S
C176 H147 0.930 . S
C176 C171 1.391 . S
C176 N175 1.388 . S
Co177 O179 2.143 . S
Co177 O185 2.074 . S
Co177 O188 2.093 . S
Co177 O201 2.097 . S
Co177 N218 2.151 . S
Co177 N226 2.214 . S
Co178 O179 2.160 . S
Co178 O184 2.058 . S
Co178 O194 2.057 . S
Co178 O209 2.037 . S
Co178 N213 2.145 . S
Co178 N234 2.257 . S
O179 Co177 2.143 . S
O179 Co178 2.160 . S
C180 O181 1.278 . S
C180 O188 1.224 . S
O181 C180 1.278 . S
C182 O183 1.245 . S
C182 O194 1.232 . S
O183 C182 1.245 . S
O184 Co178 2.058 . S
O184 C210 1.269 . S
O185 Co177 2.074 . S
O185 C210 1.257 . S
H186 C211 0.930 . S
H187 C217 0.930 . S
O188 Co177 2.093 . S
O188 C180 1.224 . S
H189 C221 0.929 . S
H190 C223 0.930 . S
H191 C224 0.930 . S
H192 C222 0.929 . S
H193 C225 0.928 . S
O194 Co178 2.057 . S
O194 C182 1.232 . S
H195 C214 0.929 . S
H196 C215 0.929 . S
H197 C227 0.931 . S
H198 C219 0.929 . S
H199 C228 0.930 . S
H200 C220 0.931 . S
O201 Co177 2.097 . S
O201 C229 1.214 . S
H202 C230 0.929 . S
H203 C231 0.929 . S
H204 C232 0.930 . S
H205 C233 0.929 . S
H206 C235 0.930 . S
H207 C212 0.930 . S
H208 C216 0.930 . S
O209 Co178 2.037 . S
O209 C229 1.234 . S
C210 O184 1.269 . S
C210 O185 1.257 . S
C211 H186 0.930 . S
C211 C214 1.388 . S
C211 C216 1.418 . S
C212 H207 0.930 . S
C212 C215 1.404 . S
C212 C216 1.353 . S
N213 Co178 2.145 . S
N213 C214 1.397 . S
N213 C215 1.334 . S
C214 H195 0.929 . S
C214 C211 1.388 . S
C214 N213 1.397 . S
C215 H196 0.929 . S
C215 C212 1.404 . S
C215 N213 1.334 . S
C216 H208 0.930 . S
C216 C211 1.418 . S
C216 C212 1.353 . S
C217 H187 0.930 . S
C217 N218 1.330 . S
C217 C219 1.446 . S
N218 Co177 2.151 . S
N218 C217 1.330 . S
N218 C222 1.418 . S
C219 H198 0.929 . S
C219 C217 1.446 . S
C219 C220 1.332 . S
C220 H200 0.931 . S
C220 C219 1.332 . S
C220 C221 1.267 . S
C221 H189 0.929 . S
C221 C220 1.267 . S
C221 C222 1.251 . S
C222 H192 0.929 . S
C222 N218 1.418 . S
C222 C221 1.251 . S
C223 H190 0.930 . S
C223 C225 1.406 . S
C223 C228 1.261 . S
C224 H191 0.930 . S
C224 N226 1.325 . S
C224 C227 1.357 . S
C225 H193 0.928 . S
C225 C223 1.406 . S
C225 N226 1.261 . S
N226 Co177 2.214 . S
N226 C224 1.325 . S
N226 C225 1.261 . S
C227 H197 0.931 . S
C227 C224 1.357 . S
C227 C228 1.312 . S
C228 H199 0.930 . S
C228 C223 1.261 . S
C228 C227 1.312 . S
C229 O201 1.214 . S
C229 O209 1.234 . S
C230 H202 0.929 . S
C230 C233 1.391 . S
C230 C235 1.391 . S
C231 H203 0.929 . S
C231 C232 1.390 . S
C231 N234 1.391 . S
C232 H204 0.930 . S
C232 C231 1.390 . S
C232 C233 1.392 . S
C233 H205 0.929 . S
C233 C230 1.391 . S
C233 C232 1.392 . S
N234 Co178 2.257 . S
N234 C231 1.391 . S
N234 C235 1.388 . S
C235 H206 0.930 . S
C235 C230 1.391 . S
C235 N234 1.388 . S
Co236 O238 2.143 . S
Co236 O244 2.074 . S
Co236 O247 2.093 . S
Co236 O260 2.097 . S
Co236 N277 2.151 . S
Co236 N285 2.214 . S
Co237 O238 2.160 . S
Co237 O243 2.058 . S
Co237 O253 2.057 . S
Co237 O268 2.037 . S
Co237 N272 2.145 . S
Co237 N293 2.257 . S
O238 Co236 2.143 . S
O238 Co237 2.160 . S
C239 O240 1.278 . S
C239 O247 1.224 . S
O240 C239 1.278 . S
C241 O242 1.245 . S
C241 O253 1.232 . S
O242 C241 1.245 . S
O243 Co237 2.058 . S
O243 C269 1.269 . S
O244 Co236 2.074 . S
O244 C269 1.257 . S
H245 C270 0.930 . S
H246 C276 0.930 . S
O247 Co236 2.093 . S
O247 C239 1.224 . S
H248 C280 0.929 . S
H249 C282 0.930 . S
H250 C283 0.930 . S
H251 C281 0.929 . S
H252 C284 0.928 . S
O253 Co237 2.057 . S
O253 C241 1.232 . S
H254 C273 0.929 . S
H255 C274 0.929 . S
H256 C286 0.931 . S
H257 C278 0.929 . S
H258 C287 0.930 . S
H259 C279 0.931 . S
O260 Co236 2.097 . S
O260 C288 1.214 . S
H261 C289 0.929 . S
H262 C290 0.929 . S
H263 C291 0.930 . S
H264 C292 0.929 . S
H265 C294 0.930 . S
H266 C271 0.930 . S
H267 C275 0.930 . S
O268 Co237 2.037 . S
O268 C288 1.234 . S
C269 O243 1.269 . S
C269 O244 1.257 . S
C270 H245 0.930 . S
C270 C273 1.388 . S
C270 C275 1.418 . S
C271 H266 0.930 . S
C271 C274 1.404 . S
C271 C275 1.353 . S
N272 Co237 2.145 . S
N272 C273 1.397 . S
N272 C274 1.334 . S
C273 H254 0.929 . S
C273 C270 1.388 . S
C273 N272 1.397 . S
C274 H255 0.929 . S
C274 C271 1.404 . S
C274 N272 1.334 . S
C275 H267 0.930 . S
C275 C270 1.418 . S
C275 C271 1.353 . S
C276 H246 0.930 . S
C276 N277 1.330 . S
C276 C278 1.446 . S
N277 Co236 2.151 . S
N277 C276 1.330 . S
N277 C281 1.418 . S
C278 H257 0.929 . S
C278 C276 1.446 . S
C278 C279 1.332 . S
C279 H259 0.931 . S
C279 C278 1.332 . S
C279 C280 1.267 . S
C280 H248 0.929 . S
C280 C279 1.267 . S
C280 C281 1.251 . S
C281 H251 0.929 . S
C281 N277 1.418 . S
C281 C280 1.251 . S
C282 H249 0.930 . S
C282 C284 1.406 . S
C282 C287 1.261 . S
C283 H250 0.930 . S
C283 N285 1.325 . S
C283 C286 1.357 . S
C284 H252 0.928 . S
C284 C282 1.406 . S
C284 N285 1.261 . S
N285 Co236 2.214 . S
N285 C283 1.325 . S
N285 C284 1.261 . S
C286 H256 0.931 . S
C286 C283 1.357 . S
C286 C287 1.312 . S
C287 H258 0.930 . S
C287 C282 1.261 . S
C287 C286 1.312 . S
C288 O260 1.214 . S
C288 O268 1.234 . S
C289 H261 0.929 . S
C289 C292 1.391 . S
C289 C294 1.391 . S
C290 H262 0.929 . S
C290 C291 1.390 . S
C290 N293 1.391 . S
C291 H263 0.930 . S
C291 C290 1.390 . S
C291 C292 1.392 . S
C292 H264 0.929 . S
C292 C289 1.391 . S
C292 C291 1.392 . S
N293 Co237 2.257 . S
N293 C290 1.391 . S
N293 C294 1.388 . S
C294 H265 0.930 . S
C294 C289 1.391 . S
C294 N293 1.388 . S
Co295 O297 2.143 . S
Co295 O303 2.074 . S
Co295 O306 2.093 . S
Co295 O319 2.097 . S
Co295 N336 2.151 . S
Co295 N344 2.214 . S
Co296 O297 2.160 . S
Co296 O302 2.058 . S
Co296 O312 2.057 . S
Co296 O327 2.037 . S
Co296 N331 2.145 . S
Co296 N352 2.257 . S
O297 Co295 2.143 . S
O297 Co296 2.160 . S
C298 O299 1.278 . S
C298 O306 1.224 . S
O299 C298 1.278 . S
C300 O301 1.245 . S
C300 O312 1.232 . S
O301 C300 1.245 . S
O302 Co296 2.058 . S
O302 C328 1.269 . S
O303 Co295 2.074 . S
O303 C328 1.257 . S
H304 C329 0.930 . S
H305 C335 0.930 . S
O306 Co295 2.093 . S
O306 C298 1.224 . S
H307 C339 0.929 . S
H308 C341 0.930 . S
H309 C342 0.930 . S
H310 C340 0.929 . S
H311 C343 0.928 . S
O312 Co296 2.057 . S
O312 C300 1.232 . S
H313 C332 0.929 . S
H314 C333 0.929 . S
H315 C345 0.931 . S
H316 C337 0.929 . S
H317 C346 0.930 . S
H318 C338 0.931 . S
O319 Co295 2.097 . S
O319 C347 1.214 . S
H320 C348 0.929 . S
H321 C349 0.929 . S
H322 C350 0.930 . S
H323 C351 0.929 . S
H324 C353 0.930 . S
H325 C330 0.930 . S
H326 C334 0.930 . S
O327 Co296 2.037 . S
O327 C347 1.234 . S
C328 O302 1.269 . S
C328 O303 1.257 . S
C329 H304 0.930 . S
C329 C332 1.388 . S
C329 C334 1.418 . S
C330 H325 0.930 . S
C330 C333 1.404 . S
C330 C334 1.353 . S
N331 Co296 2.145 . S
N331 C332 1.397 . S
N331 C333 1.334 . S
C332 H313 0.929 . S
C332 C329 1.388 . S
C332 N331 1.397 . S
C333 H314 0.929 . S
C333 C330 1.404 . S
C333 N331 1.334 . S
C334 H326 0.930 . S
C334 C329 1.418 . S
C334 C330 1.353 . S
C335 H305 0.930 . S
C335 N336 1.330 . S
C335 C337 1.446 . S
N336 Co295 2.151 . S
N336 C335 1.330 . S
N336 C340 1.418 . S
C337 H316 0.929 . S
C337 C335 1.446 . S
C337 C338 1.332 . S
C338 H318 0.931 . S
C338 C337 1.332 . S
C338 C339 1.267 . S
C339 H307 0.929 . S
C339 C338 1.267 . S
C339 C340 1.251 . S
C340 H310 0.929 . S
C340 N336 1.418 . S
C340 C339 1.251 . S
C341 H308 0.930 . S
C341 C343 1.406 . S
C341 C346 1.261 . S
C342 H309 0.930 . S
C342 N344 1.325 . S
C342 C345 1.357 . S
C343 H311 0.928 . S
C343 C341 1.406 . S
C343 N344 1.261 . S
N344 Co295 2.214 . S
N344 C342 1.325 . S
N344 C343 1.261 . S
C345 H315 0.931 . S
C345 C342 1.357 . S
C345 C346 1.312 . S
C346 H317 0.930 . S
C346 C341 1.261 . S
C346 C345 1.312 . S
C347 O319 1.214 . S
C347 O327 1.234 . S
C348 H320 0.929 . S
C348 C351 1.391 . S
C348 C353 1.391 . S
C349 H321 0.929 . S
C349 C350 1.390 . S
C349 N352 1.391 . S
C350 H322 0.930 . S
C350 C349 1.390 . S
C350 C351 1.392 . S
C351 H323 0.929 . S
C351 C348 1.391 . S
C351 C350 1.392 . S
N352 Co296 2.257 . S
N352 C349 1.391 . S
N352 C353 1.388 . S
C353 H324 0.930 . S
C353 C348 1.391 . S
C353 N352 1.388 . S
H354 C366 0.930 . S
H355 C368 0.930 . S
H356 C369 0.930 . S
H357 C373 0.959 . S
H358 C373 0.959 . S
H359 C373 0.961 . S
H360 C374 0.960 . S
H361 C374 0.961 . S
H362 C374 0.959 . S
H363 C377 0.929 . S
H364 C378 0.931 . S
H365 C380 0.930 . S
C366 H354 0.930 . S
C366 C367 1.399 . S
C366 C371 1.399 . S
C367 C366 1.399 . S
C367 C368 1.376 . S
C368 H355 0.930 . S
C368 C367 1.376 . S
C368 C369 1.388 . S
C369 H356 0.930 . S
C369 C368 1.388 . S
C369 C370 1.390 . S
C370 C369 1.390 . S
C370 C371 1.394 . S
C370 C376 1.465 . S
C371 C366 1.399 . S
C371 C370 1.394 . S
C371 C372 1.516 . S
C372 C371 1.516 . S
C372 C373 1.502 . S
C372 C374 1.561 . S
C372 C375 1.526 . S
C373 H357 0.959 . S
C373 H358 0.959 . S
C373 H359 0.961 . S
C373 C372 1.502 . S
C374 H360 0.960 . S
C374 H361 0.961 . S
C374 H362 0.959 . S
C374 C372 1.561 . S
C375 C372 1.526 . S
C375 C376 1.396 . S
C375 C380 1.390 . S
C376 C370 1.465 . S
C376 C375 1.396 . S
C376 C377 1.399 . S
C377 H363 0.929 . S
C377 C376 1.399 . S
C377 C378 1.385 . S
C378 H364 0.931 . S
C378 C377 1.385 . S
C378 C379 1.389 . S
C379 C378 1.389 . S
C379 C380 1.387 . S
C380 H365 0.930 . S
C380 C375 1.390 . S
C380 C379 1.387 . S
H381 C393 0.930 . S
H382 C395 0.930 . S
H383 C396 0.930 . S
H384 C400 0.959 . S
H385 C400 0.959 . S
H386 C400 0.961 . S
H387 C401 0.960 . S
H388 C401 0.961 . S
H389 C401 0.959 . S
H390 C404 0.929 . S
H391 C405 0.931 . S
H392 C407 0.930 . S
C393 H381 0.930 . S
C393 C394 1.399 . S
C393 C398 1.399 . S
C394 C393 1.399 . S
C394 C395 1.376 . S
C395 H382 0.930 . S
C395 C394 1.376 . S
C395 C396 1.388 . S
C396 H383 0.930 . S
C396 C395 1.388 . S
C396 C397 1.390 . S
C397 C396 1.390 . S
C397 C398 1.394 . S
C397 C403 1.465 . S
C398 C393 1.399 . S
C398 C397 1.394 . S
C398 C399 1.516 . S
C399 C398 1.516 . S
C399 C400 1.502 . S
C399 C401 1.561 . S
C399 C402 1.526 . S
C400 H384 0.959 . S
C400 H385 0.959 . S
C400 H386 0.961 . S
C400 C399 1.502 . S
C401 H387 0.960 . S
C401 H388 0.961 . S
C401 H389 0.959 . S
C401 C399 1.561 . S
C402 C399 1.526 . S
C402 C403 1.396 . S
C402 C407 1.390 . S
C403 C397 1.465 . S
C403 C402 1.396 . S
C403 C404 1.399 . S
C404 H390 0.929 . S
C404 C403 1.399 . S
C404 C405 1.385 . S
C405 H391 0.931 . S
C405 C404 1.385 . S
C405 C406 1.389 . S
C406 C405 1.389 . S
C406 C407 1.387 . S
C407 H392 0.930 . S
C407 C402 1.390 . S
C407 C406 1.387 . S
H408 C420 0.930 . S
H409 C422 0.930 . S
H410 C423 0.930 . S
H411 C427 0.959 . S
H412 C427 0.959 . S
H413 C427 0.961 . S
H414 C428 0.960 . S
H415 C428 0.961 . S
H416 C428 0.959 . S
H417 C431 0.929 . S
H418 C432 0.931 . S
H419 C434 0.930 . S
C420 H408 0.930 . S
C420 C421 1.399 . S
C420 C425 1.399 . S
C421 C420 1.399 . S
C421 C422 1.376 . S
C422 H409 0.930 . S
C422 C421 1.376 . S
C422 C423 1.388 . S
C423 H410 0.930 . S
C423 C422 1.388 . S
C423 C424 1.390 . S
C424 C423 1.390 . S
C424 C425 1.394 . S
C424 C430 1.465 . S
C425 C420 1.399 . S
C425 C424 1.394 . S
C425 C426 1.516 . S
C426 C425 1.516 . S
C426 C427 1.502 . S
C426 C428 1.561 . S
C426 C429 1.526 . S
C427 H411 0.959 . S
C427 H412 0.959 . S
C427 H413 0.961 . S
C427 C426 1.502 . S
C428 H414 0.960 . S
C428 H415 0.961 . S
C428 H416 0.959 . S
C428 C426 1.561 . S
C429 C426 1.526 . S
C429 C430 1.396 . S
C429 C434 1.390 . S
C430 C424 1.465 . S
C430 C429 1.396 . S
C430 C431 1.399 . S
C431 H417 0.929 . S
C431 C430 1.399 . S
C431 C432 1.385 . S
C432 H418 0.931 . S
C432 C431 1.385 . S
C432 C433 1.389 . S
C433 C432 1.389 . S
C433 C434 1.387 . S
C434 H419 0.930 . S
C434 C429 1.390 . S
C434 C433 1.387 . S
H435 C447 0.930 . S
H436 C449 0.930 . S
H437 C450 0.930 . S
H438 C454 0.959 . S
H439 C454 0.959 . S
H440 C454 0.961 . S
H441 C455 0.960 . S
H442 C455 0.961 . S
H443 C455 0.959 . S
H444 C458 0.929 . S
H445 C459 0.931 . S
H446 C461 0.930 . S
C447 H435 0.930 . S
C447 C448 1.399 . S
C447 C452 1.399 . S
C448 C447 1.399 . S
C448 C449 1.376 . S
C449 H436 0.930 . S
C449 C448 1.376 . S
C449 C450 1.388 . S
C450 H437 0.930 . S
C450 C449 1.388 . S
C450 C451 1.390 . S
C451 C450 1.390 . S
C451 C452 1.394 . S
C451 C457 1.465 . S
C452 C447 1.399 . S
C452 C451 1.394 . S
C452 C453 1.516 . S
C453 C452 1.516 . S
C453 C454 1.502 . S
C453 C455 1.561 . S
C453 C456 1.526 . S
C454 H438 0.959 . S
C454 H439 0.959 . S
C454 H440 0.961 . S
C454 C453 1.502 . S
C455 H441 0.960 . S
C455 H442 0.961 . S
C455 H443 0.959 . S
C455 C453 1.561 . S
C456 C453 1.526 . S
C456 C457 1.396 . S
C456 C461 1.390 . S
C457 C451 1.465 . S
C457 C456 1.396 . S
C457 C458 1.399 . S
C458 H444 0.929 . S
C458 C457 1.399 . S
C458 C459 1.385 . S
C459 H445 0.931 . S
C459 C458 1.385 . S
C459 C460 1.389 . S
C460 C459 1.389 . S
C460 C461 1.387 . S
C461 H446 0.930 . S
C461 C456 1.390 . S
C461 C460 1.387 . S
H462 C474 0.930 . S
H463 C476 0.930 . S
H464 C477 0.930 . S
H465 C481 0.959 . S
H466 C481 0.959 . S
H467 C481 0.961 . S
H468 C482 0.960 . S
H469 C482 0.961 . S
H470 C482 0.959 . S
H471 C485 0.929 . S
H472 C486 0.931 . S
H473 C488 0.930 . S
C474 H462 0.930 . S
C474 C475 1.399 . S
C474 C479 1.399 . S
C475 C474 1.399 . S
C475 C476 1.376 . S
C476 H463 0.930 . S
C476 C475 1.376 . S
C476 C477 1.388 . S
C477 H464 0.930 . S
C477 C476 1.388 . S
C477 C478 1.390 . S
C478 C477 1.390 . S
C478 C479 1.394 . S
C478 C484 1.465 . S
C479 C474 1.399 . S
C479 C478 1.394 . S
C479 C480 1.516 . S
C480 C479 1.516 . S
C480 C481 1.502 . S
C480 C482 1.561 . S
C480 C483 1.526 . S
C481 H465 0.959 . S
C481 H466 0.959 . S
C481 H467 0.961 . S
C481 C480 1.502 . S
C482 H468 0.960 . S
C482 H469 0.961 . S
C482 H470 0.959 . S
C482 C480 1.561 . S
C483 C480 1.526 . S
C483 C484 1.396 . S
C483 C488 1.390 . S
C484 C478 1.465 . S
C484 C483 1.396 . S
C484 C485 1.399 . S
C485 H471 0.929 . S
C485 C484 1.399 . S
C485 C486 1.385 . S
C486 H472 0.931 . S
C486 C485 1.385 . S
C486 C487 1.389 . S
C487 C486 1.389 . S
C487 C488 1.387 . S
C488 H473 0.930 . S
C488 C483 1.390 . S
C488 C487 1.387 . S
H489 C501 0.930 . S
H490 C503 0.930 . S
H491 C504 0.930 . S
H492 C508 0.959 . S
H493 C508 0.959 . S
H494 C508 0.961 . S
H495 C509 0.960 . S
H496 C509 0.961 . S
H497 C509 0.959 . S
H498 C512 0.929 . S
H499 C513 0.931 . S
H500 C515 0.930 . S
C501 H489 0.930 . S
C501 C502 1.399 . S
C501 C506 1.399 . S
C502 C501 1.399 . S
C502 C503 1.376 . S
C503 H490 0.930 . S
C503 C502 1.376 . S
C503 C504 1.388 . S
C504 H491 0.930 . S
C504 C503 1.388 . S
C504 C505 1.390 . S
C505 C504 1.390 . S
C505 C506 1.394 . S
C505 C511 1.465 . S
C506 C501 1.399 . S
C506 C505 1.394 . S
C506 C507 1.516 . S
C507 C506 1.516 . S
C507 C508 1.502 . S
C507 C509 1.561 . S
C507 C510 1.526 . S
C508 H492 0.959 . S
C508 H493 0.959 . S
C508 H494 0.961 . S
C508 C507 1.502 . S
C509 H495 0.960 . S
C509 H496 0.961 . S
C509 H497 0.959 . S
C509 C507 1.561 . S
C510 C507 1.526 . S
C510 C511 1.396 . S
C510 C515 1.390 . S
C511 C505 1.465 . S
C511 C510 1.396 . S
C511 C512 1.399 . S
C512 H498 0.929 . S
C512 C511 1.399 . S
C512 C513 1.385 . S
C513 H499 0.931 . S
C513 C512 1.385 . S
C513 C514 1.389 . S
C514 C513 1.389 . S
C514 C515 1.387 . S
C515 H500 0.930 . S
C515 C510 1.390 . S
C515 C514 1.387 . S
H516 C528 0.930 . S
H517 C530 0.930 . S
H518 C531 0.930 1_554 S
H519 C535 0.959 . S
H520 C535 0.959 . S
H521 C535 0.961 . S
H522 C536 0.960 . S
H523 C536 0.961 . S
H524 C536 0.959 . S
H525 C539 0.929 . S
H526 C540 0.931 . S
H527 C542 0.930 . S
C528 H516 0.930 . S
C528 C529 1.399 . S
C528 C533 1.399 . S
C529 C528 1.399 . S
C529 C530 1.376 . S
C530 H517 0.930 . S
C530 C529 1.376 . S
C530 C531 1.388 . S
C531 H518 0.930 1_556 S
C531 C530 1.388 . S
C531 C532 1.390 . S
C532 C531 1.390 . S
C532 C533 1.394 . S
C532 C538 1.465 1_556 S
C533 C528 1.399 . S
C533 C532 1.394 . S
C533 C534 1.516 1_565 S
C534 C533 1.516 1_545 S
C534 C535 1.502 . S
C534 C536 1.561 . S
C534 C537 1.526 1_556 S
C535 H519 0.959 . S
C535 H520 0.959 . S
C535 H521 0.961 . S
C535 C534 1.502 . S
C536 H522 0.960 . S
C536 H523 0.961 . S
C536 H524 0.959 . S
C536 C534 1.561 . S
C537 C534 1.526 1_554 S
C537 C538 1.396 1_545 S
C537 C542 1.390 . S
C538 C532 1.465 1_554 S
C538 C537 1.396 1_565 S
C538 C539 1.399 . S
C539 H525 0.929 . S
C539 C538 1.399 . S
C539 C540 1.385 1_565 S
C540 H526 0.931 . S
C540 C539 1.385 1_545 S
C540 C541 1.389 . S
C541 C540 1.389 . S
C541 C542 1.387 . S
C542 H527 0.930 . S
C542 C537 1.390 . S
C542 C541 1.387 . S
H543 C555 0.930 . S
H544 C557 0.930 . S
H545 C558 0.930 . S
H546 C562 0.959 . S
H547 C562 0.959 . S
H548 C562 0.961 . S
H549 C563 0.960 . S
H550 C563 0.961 . S
H551 C563 0.959 . S
H552 C566 0.929 . S
H553 C567 0.931 . S
H554 C569 0.930 . S
C555 H543 0.930 . S
C555 C556 1.399 . S
C555 C560 1.399 . S
C556 C555 1.399 . S
C556 C557 1.376 . S
C557 H544 0.930 . S
C557 C556 1.376 . S
C557 C558 1.388 . S
C558 H545 0.930 . S
C558 C557 1.388 . S
C558 C559 1.390 . S
C559 C558 1.390 . S
C559 C560 1.394 . S
C559 C565 1.465 . S
C560 C555 1.399 . S
C560 C559 1.394 . S
C560 C561 1.516 . S
C561 C560 1.516 . S
C561 C562 1.502 . S
C561 C563 1.561 . S
C561 C564 1.526 . S
C562 H546 0.959 . S
C562 H547 0.959 . S
C562 H548 0.961 . S
C562 C561 1.502 . S
C563 H549 0.960 . S
C563 H550 0.961 . S
C563 H551 0.959 . S
C563 C561 1.561 . S
C564 C561 1.526 . S
C564 C565 1.396 . S
C564 C569 1.390 . S
C565 C559 1.465 . S
C565 C564 1.396 . S
C565 C566 1.399 . S
C566 H552 0.929 . S
C566 C565 1.399 . S
C566 C567 1.385 . S
C567 H553 0.931 . S
C567 C566 1.385 . S
C567 C568 1.389 . S
C568 C567 1.389 . S
C568 C569 1.387 . S
C569 H554 0.930 . S
C569 C564 1.390 . S
C569 C568 1.387 . S
H570 C582 0.930 . S
H571 C584 0.930 . S
H572 C585 0.930 1_655 S
H573 C589 0.959 . S
H574 C589 0.959 . S
H575 C589 0.961 . S
H576 C590 0.960 1_455 S
H577 C590 0.961 1_554 S
H578 C590 0.959 . S
H579 C593 0.929 . S
H580 C594 0.931 . S
H581 C596 0.930 . S
C582 H570 0.930 . S
C582 C583 1.399 . S
C582 C587 1.399 . S
C583 C582 1.399 . S
C583 C584 1.376 . S
C584 H571 0.930 . S
C584 C583 1.376 . S
C584 C585 1.388 . S
C585 H572 0.930 1_455 S
C585 C584 1.388 . S
C585 C586 1.401 . S
C586 C585 1.401 . S
C586 C587 1.397 . S
C586 C592 1.451 1_456 S
C587 C582 1.399 . S
C587 C586 1.397 . S
C587 C588 1.516 1_556 S
C588 C587 1.516 1_554 S
C588 C589 1.502 . S
C588 C590 1.561 1_454 S
C588 C591 1.526 1_455 S
C589 H573 0.959 . S
C589 H574 0.959 . S
C589 H575 0.961 . S
C589 C588 1.502 . S
C590 H576 0.960 1_655 S
C590 H577 0.961 1_556 S
C590 H578 0.959 . S
C590 C588 1.561 1_656 S
C591 C588 1.526 1_655 S
C591 C592 1.396 . S
C591 C596 1.390 . S
C592 C586 1.451 1_654 S
C592 C591 1.396 . S
C592 C593 1.399 . S
C593 H579 0.929 . S
C593 C592 1.399 . S
C593 C594 1.385 . S
C594 H580 0.931 . S
C594 C593 1.385 . S
C594 C595 1.389 . S
C595 C594 1.389 . S
C595 C596 1.387 . S
C596 H581 0.930 . S
C596 C591 1.390 . S
C596 C595 1.387 . S
H597 C609 0.930 . S
H598 C611 0.930 . S
H599 C612 0.930 . S
H600 C616 0.959 . S
H601 C616 0.959 . S
H602 C616 0.961 . S
H603 C617 0.960 . S
H604 C617 0.961 . S
H605 C617 0.959 . S
H606 C620 0.929 . S
H607 C621 0.931 . S
H608 C623 0.930 . S
C609 H597 0.930 . S
C609 C610 1.399 . S
C609 C614 1.399 . S
C610 C609 1.399 . S
C610 C611 1.376 . S
C611 H598 0.930 . S
C611 C610 1.376 . S
C611 C612 1.388 1_545 S
C612 H599 0.930 . S
C612 C611 1.388 1_565 S
C612 C613 1.390 . S
C613 C612 1.390 . S
C613 C614 1.394 1_565 S
C613 C619 1.465 . S
C614 C609 1.399 . S
C614 C613 1.394 1_545 S
C614 C615 1.516 . S
C615 C614 1.516 . S
C615 C616 1.502 . S
C615 C617 1.561 . S
C615 C618 1.526 1_545 S
C616 H600 0.959 . S
C616 H601 0.959 . S
C616 H602 0.961 . S
C616 C615 1.502 . S
C617 H603 0.960 . S
C617 H604 0.961 . S
C617 H605 0.959 . S
C617 C615 1.561 . S
C618 C615 1.526 1_565 S
C618 C619 1.396 . S
C618 C623 1.390 . S
C619 C613 1.465 . S
C619 C618 1.396 . S
C619 C620 1.399 . S
C620 H606 0.929 . S
C620 C619 1.399 . S
C620 C621 1.385 . S
C621 H607 0.931 . S
C621 C620 1.385 . S
C621 C622 1.389 . S
C622 C621 1.389 . S
C622 C623 1.387 . S
C623 H608 0.930 . S
C623 C618 1.390 . S
C623 C622 1.387 . S
H624 C636 0.930 . S
H625 C638 0.930 . S
H626 C639 0.930 . S
H627 C643 0.959 . S
H628 C643 0.959 . S
H629 C643 0.961 . S
H630 C644 0.960 . S
H631 C644 0.961 1_554 S
H632 C644 0.958 . S
H633 C647 0.929 . S
H634 C648 0.931 . S
H635 C650 0.930 . S
C636 H624 0.930 . S
C636 C637 1.399 . S
C636 C641 1.399 . S
C637 C636 1.399 . S
C637 C638 1.376 . S
C638 H625 0.930 . S
C638 C637 1.376 . S
C638 C639 1.388 . S
C639 H626 0.930 . S
C639 C638 1.388 . S
C639 C640 1.390 . S
C640 C639 1.390 . S
C640 C641 1.394 . S
C640 C646 1.465 1_556 S
C641 C636 1.399 . S
C641 C640 1.394 . S
C641 C642 1.516 1_556 S
C642 C641 1.516 1_554 S
C642 C643 1.502 . S
C642 C644 1.561 1_554 S
C642 C645 1.526 . S
C643 H627 0.959 . S
C643 H628 0.959 . S
C643 H629 0.961 . S
C643 C642 1.502 . S
C644 H630 0.960 . S
C644 H631 0.961 1_556 S
C644 H632 0.958 . S
C644 C642 1.561 1_556 S
C645 C642 1.526 . S
C645 C646 1.396 . S
C645 C650 1.390 . S
C646 C640 1.465 1_554 S
C646 C645 1.396 . S
C646 C647 1.399 . S
C647 H633 0.929 . S
C647 C646 1.399 . S
C647 C648 1.385 . S
C648 H634 0.931 . S
C648 C647 1.385 . S
C648 C649 1.389 . S
C649 C648 1.389 . S
C649 C650 1.387 . S
C650 H635 0.930 . S
C650 C645 1.390 . S
C650 C649 1.387 . S
H651 C663 0.930 . S
H652 C665 0.930 . S
H653 C666 0.930 . S
H654 C670 0.959 . S
H655 C670 0.959 . S
H656 C670 0.961 . S
H657 C671 0.960 . S
H658 C671 0.961 . S
H659 C671 0.959 . S
H660 C674 0.929 . S
H661 C675 0.931 . S
H662 C677 0.930 . S
C663 H651 0.930 . S
C663 C664 1.399 . S
C663 C668 1.399 . S
C664 C663 1.399 . S
C664 C665 1.376 . S
C665 H652 0.930 . S
C665 C664 1.376 . S
C665 C666 1.388 1_455 S
C666 H653 0.930 . S
C666 C665 1.388 1_655 S
C666 C667 1.390 . S
C667 C666 1.390 . S
C667 C668 1.394 1_655 S
C667 C673 1.465 . S
C668 C663 1.399 . S
C668 C667 1.394 1_455 S
C668 C669 1.516 . S
C669 C668 1.516 . S
C669 C670 1.502 . S
C669 C671 1.561 . S
C669 C672 1.526 1_455 S
C670 H654 0.959 . S
C670 H655 0.959 . S
C670 H656 0.961 . S
C670 C669 1.502 . S
C671 H657 0.960 . S
C671 H658 0.961 . S
C671 H659 0.959 . S
C671 C669 1.561 . S
C672 C669 1.526 1_655 S
C672 C673 1.396 . S
C672 C677 1.390 . S
C673 C667 1.465 . S
C673 C672 1.396 . S
C673 C674 1.399 . S
C674 H660 0.929 . S
C674 C673 1.399 . S
C674 C675 1.385 . S
C675 H661 0.931 . S
C675 C674 1.385 . S
C675 C676 1.389 . S
C676 C675 1.389 . S
C676 C677 1.387 . S
C677 H662 0.930 . S
C677 C672 1.390 . S
C677 C676 1.387 . S
C367 C52 1.306 . S
C379 C269 1.253 . S
C394 C111 1.335 . S
C406 C328 1.292 . S
C421 C33 1.306 . S
C433 C151 1.251 . S
C448 C210 1.305 . S
C460 C92 1.251 . S
C475 C288 1.277 . S
C487 C170 1.289 . S
C502 C229 1.300 . S
C514 C347 1.270 . S
C529 C180 1.467 . S
C541 C3 1.499 . S
C556 C241 1.499 . S
C568 C62 1.464 . S
C583 C300 1.500 . S
C595 C123 1.489 . S
C610 C5 1.492 . S
C622 C182 1.478 . S
C637 C64 1.500 . S
C649 C239 1.470 . S
C664 C298 1.498 . S
C676 C121 1.461 . S
