# Generated by pormake.
# Topology sow, (4)-cn, num edge types: 1
# Building blocks:
#     Node 0, Type 0, BuildingBlock: QUQFOY_clean_sbu_3, # of connection points: 4
#     Node 1, Type 0, BuildingBlock: QUQFOY_clean_sbu_3, # of connection points: 4
#     Node 2, Type 0, BuildingBlock: QUQFOY_clean_sbu_3, # of connection points: 4
#     Node 3, Type 0, BuildingBlock: QUQFOY_clean_sbu_3, # of connection points: 4
#     Node 4, Type 0, BuildingBlock: QUQFOY_clean_sbu_3, # of connection points: 4
#     Node 5, Type 0, BuildingBlock: QUQFOY_clean_sbu_3, # of connection points: 4
#     Node 6, Type 0, BuildingBlock: QUQFOY_clean_sbu_3, # of connection points: 4
#     Node 7, Type 0, BuildingBlock: QUQFOY_clean_sbu_3, # of connection points: 4
#     Edge 8, Type (0, 0), BuildingBlock: ZUJKAS_clean_linker_0, # of connection points: 2
#     Edge 9, Type (0, 0), BuildingBlock: ZUJKAS_clean_linker_0, # of connection points: 2
#     Edge 10, Type (0, 0), BuildingBlock: ZUJKAS_clean_linker_0, # of connection points: 2
#     Edge 11, Type (0, 0), BuildingBlock: ZUJKAS_clean_linker_0, # of connection points: 2
#     Edge 12, Type (0, 0), BuildingBlock: ZUJKAS_clean_linker_0, # of connection points: 2
#     Edge 13, Type (0, 0), BuildingBlock: ZUJKAS_clean_linker_0, # of connection points: 2
#     Edge 14, Type (0, 0), BuildingBlock: ZUJKAS_clean_linker_0, # of connection points: 2
#     Edge 15, Type (0, 0), BuildingBlock: ZUJKAS_clean_linker_0, # of connection points: 2
#     Edge 16, Type (0, 0), BuildingBlock: ZUJKAS_clean_linker_0, # of connection points: 2
#     Edge 17, Type (0, 0), BuildingBlock: ZUJKAS_clean_linker_0, # of connection points: 2
#     Edge 18, Type (0, 0), BuildingBlock: ZUJKAS_clean_linker_0, # of connection points: 2
#     Edge 19, Type (0, 0), BuildingBlock: ZUJKAS_clean_linker_0, # of connection points: 2
#     Edge 20, Type (0, 0), BuildingBlock: ZUJKAS_clean_linker_0, # of connection points: 2
#     Edge 21, Type (0, 0), BuildingBlock: ZUJKAS_clean_linker_0, # of connection points: 2
#     Edge 22, Type (0, 0), BuildingBlock: ZUJKAS_clean_linker_0, # of connection points: 2
#     Edge 23, Type (0, 0), BuildingBlock: ZUJKAS_clean_linker_0, # of connection points: 2
# Relax obj value: 0.155
# Max RMSD: 0.203
# Mean RMSD: 0.203
data_MOF--net-sow--node1-QUQFOY_clean_sbu_3--edge1-ZUJKAS_clean_linker_0
_symmetry_space_group_name_H-M    P1
_symmetry_Int_Tables_number       1
_symmetry_cell_setting            triclinic
loop_
_symmetry_equiv_pos_as_xyz
'x, y, z'
_cell_length_a     51.623209
_cell_length_b     31.589244
_cell_length_c     31.975567
_cell_angle_alpha  89.806215
_cell_angle_beta   90.19504
_cell_angle_gamma 89.906344
loop_
_atom_site_label
_atom_site_type_symbol
_atom_site_fract_x
_atom_site_fract_y
_atom_site_fract_z
_atom_type_partial_charge
C0 C 0.08402 0.12544 0.06423 0.0
O1 O 0.09244 0.11917 0.10112 0.0
Cd2 Cd 0.12281 0.16507 0.13605 0.0
O3 O 0.09263 0.15614 0.04237 0.0
Cd4 Cd 0.12468 0.21448 0.04726 0.0
C5 C 0.08865 0.25854 0.1238 0.0
O6 O 0.15776 0.17896 0.08975 0.0
O7 O 0.16165 0.24649 0.08237 0.0
O8 O 0.13807 0.19562 0.97713 0.0
C9 C 0.17068 0.21224 0.0972 0.0
O10 O 0.09823 0.23 0.14754 0.0
C11 C 0.13728 0.23296 0.96237 0.0
O12 O 0.09345 0.25901 0.08469 0.0
O13 O 0.12985 0.26207 -0.01305 0.0
C14 C 0.37475 0.37678 0.5644 0.0
O15 O 0.36624 0.38276 0.60116 0.0
Cd16 Cd 0.33545 0.33683 0.6355 0.0
O17 O 0.36639 0.346 0.54256 0.0
Cd18 Cd 0.3351 0.28688 0.54772 0.0
C19 C 0.36989 0.24381 0.62662 0.0
O20 O 0.30106 0.32166 0.58835 0.0
O21 O 0.29842 0.25385 0.58248 0.0
O22 O 0.32186 0.30476 0.4771 0.0
C23 C 0.28865 0.28791 0.59616 0.0
O24 O 0.35917 0.2715 0.64974 0.0
C25 C 0.32327 0.2674 0.46278 0.0
O26 O 0.36675 0.24408 0.58704 0.0
O27 O 0.33099 0.23868 0.48787 0.0
C28 C 0.58527 0.37498 0.8979 0.0
O29 O 0.59339 0.38139 0.86096 0.0
Cd30 Cd 0.62322 0.33474 0.82589 0.0
O31 O 0.59396 0.34401 0.91943 0.0
Cd32 Cd 0.62577 0.28534 0.91423 0.0
C33 C 0.58857 0.24205 0.83862 0.0
O34 O 0.65868 0.32046 0.87162 0.0
O35 O 0.66221 0.25276 0.87841 0.0
O36 O 0.63948 0.3049 -0.01596 0.0
C37 C 0.67139 0.28697 0.86393 0.0
O38 O 0.59809 0.27037 0.81473 0.0
C39 C 0.63899 0.26771 -0.00083 0.0
O40 O 0.59382 0.24143 0.87763 0.0
O41 O 0.63164 0.23825 0.97489 0.0
C42 C 0.87807 0.13139 0.39794 0.0
O43 O 0.86961 0.12592 0.36099 0.0
Cd44 Cd 0.83852 0.17194 0.32709 0.0
O45 O 0.86953 0.16173 0.42018 0.0
Cd46 Cd 0.83791 0.22063 0.41557 0.0
C47 C 0.87245 0.26515 0.33772 0.0
O48 O 0.80419 0.18551 0.37446 0.0
O49 O 0.80079 0.25317 0.38078 0.0
O50 O 0.82534 0.20129 0.48598 0.0
C51 C 0.79136 0.21896 0.36686 0.0
O52 O 0.86183 0.23774 0.31411 0.0
C53 C 0.82588 0.23857 0.50065 0.0
O54 O 0.86936 0.26427 0.37727 0.0
O55 O 0.83287 0.26795 0.47589 0.0
C56 C 0.87157 0.8786 0.90501 0.0
O57 O 0.8631 0.88617 0.86839 0.0
Cd58 Cd 0.8333 0.84101 0.8315 0.0
O59 O 0.8633 0.84675 0.92557 0.0
Cd60 Cd 0.83186 0.78773 0.91777 0.0
C61 C 0.86868 0.74842 0.83966 0.0
O62 O 0.79842 0.82417 0.87702 0.0
O63 O 0.7956 0.75617 0.87992 0.0
O64 O 0.8174 0.80238 -0.01156 0.0
C65 C 0.78602 0.79095 0.86738 0.0
O66 O 0.85875 0.77757 0.81704 0.0
C67 C 0.81943 0.7646 0.00173 0.0
O68 O 0.86379 0.74611 0.87867 0.0
O69 O 0.82786 0.73725 0.97605 0.0
C70 C 0.58479 0.62698 0.40211 0.0
O71 O 0.5932 0.61993 0.36549 0.0
Cd72 Cd 0.6245 0.66386 0.33007 0.0
O73 O 0.5935 0.65801 0.42327 0.0
Cd74 Cd 0.62548 0.71613 0.41631 0.0
C75 C 0.59111 0.75806 0.33618 0.0
O76 O 0.65902 0.67864 0.37714 0.0
O77 O 0.66278 0.74647 0.38034 0.0
O78 O 0.6385 0.70075 0.48778 0.0
C79 C 0.67203 0.71144 0.36815 0.0
O80 O 0.60148 0.72941 0.31379 0.0
C81 C 0.63703 0.73864 0.5007 0.0
O82 O 0.59438 0.7588 0.37572 0.0
O83 O 0.62956 0.7664 0.47441 0.0
C84 C 0.37472 0.62098 0.06392 0.0
O85 O 0.3666 0.61337 0.10064 0.0
Cd86 Cd 0.33704 0.65918 0.13709 0.0
O87 O 0.36603 0.65266 0.04341 0.0
Cd88 Cd 0.33409 0.71107 0.0505 0.0
C89 C 0.37181 0.75214 0.12656 0.0
O90 O 0.30134 0.67446 0.0921 0.0
O91 O 0.29773 0.74236 0.08796 0.0
O92 O 0.32004 0.69278 0.98057 0.0
C93 C 0.28857 0.70755 0.10101 0.0
O94 O 0.36253 0.72291 0.14961 0.0
C95 C 0.32053 0.73017 0.96594 0.0
O96 O 0.36614 0.75425 0.08776 0.0
O97 O 0.32797 0.75926 -0.00941 0.0
C98 C 0.08552 0.87337 0.56058 0.0
O99 O 0.09376 0.87923 0.5976 0.0
Cd100 Cd 0.12372 0.83282 0.63357 0.0
O101 O 0.09367 0.84214 0.53917 0.0
Cd102 Cd 0.12403 0.78167 0.54602 0.0
C103 C 0.08798 0.74133 0.62463 0.0
O104 O 0.158 0.81585 0.58725 0.0
O105 O 0.16024 0.74793 0.5823 0.0
O106 O 0.1384 0.79729 0.4755 0.0
C107 C 0.17009 0.78194 0.59595 0.0
O108 O 0.09895 0.76875 0.64781 0.0
C109 C 0.13599 0.75983 0.46177 0.0
O110 O 0.09146 0.74097 0.58516 0.0
O111 O 0.12726 0.73226 0.48711 0.0
H112 H 0.26073 0.21927 0.62105 0.0
H113 H 0.22962 0.21535 0.67826 0.0
H114 H 0.23725 0.34962 0.69847 0.0
H115 H 0.26847 0.35397 0.64101 0.0
H116 H 0.24514 0.24154 0.76129 0.0
H117 H 0.15722 0.32631 0.70403 0.0
H118 H 0.18089 0.30386 0.66891 0.0
H119 H 0.18797 0.35195 0.6963 0.0
C120 C 0.25547 0.24816 0.63711 0.0
C121 C 0.26721 0.2869 0.62671 0.0
C122 C 0.23766 0.24583 0.66975 0.0
C123 C 0.23106 0.28221 0.69237 0.0
C124 C 0.24183 0.32131 0.68095 0.0
H125 H 0.14712 0.3104 0.927 0.0
H126 H 0.16837 0.3242 0.85983 0.0
C127 C 0.25974 0.32368 0.64826 0.0
C128 C 0.21533 0.27804 0.73071 0.0
H129 H 0.15701 0.30293 0.77447 0.0
C130 C 0.22585 0.25487 0.76417 0.0
C131 C 0.19036 0.296 0.73441 0.0
C132 C 0.17824 0.32076 0.699 0.0
C133 C 0.21203 0.24896 0.80132 0.0
C134 C 0.18672 0.26581 0.80471 0.0
C135 C 0.17634 0.28977 0.77156 0.0
C136 C 0.17087 0.25819 0.84247 0.0
C137 C 0.22483 0.22515 0.83685 0.0
C138 C 0.1644 0.21669 0.85408 0.0
C139 C 0.15249 0.2087 0.89239 0.0
C140 C 0.14655 0.24215 0.91961 0.0
C141 C 0.15154 0.28397 0.90674 0.0
C142 C 0.16366 0.29192 0.86841 0.0
H143 H 0.24624 0.22447 0.83355 0.0
H144 H 0.21996 0.23955 0.86748 0.0
H145 H 0.21785 0.19194 0.83697 0.0
H146 H 0.16936 0.19031 0.83406 0.0
H147 H 0.14863 0.17618 0.90119 0.0
H148 H 0.18885 0.14635 0.14508 0.0
H149 H 0.22003 0.1504 0.20305 0.0
H150 H 0.23152 0.2831 0.1775 0.0
H151 H 0.20049 0.27951 0.11977 0.0
H152 H 0.27541 0.18562 0.20793 0.0
H153 H 0.20093 0.27141 0.30025 0.0
H154 H 0.1929 0.23997 0.25497 0.0
H155 H 0.20676 0.29167 0.24851 0.0
C156 C 0.19836 0.17621 0.15137 0.0
C157 C 0.19199 0.21275 0.12821 0.0
C158 C 0.21617 0.17841 0.18439 0.0
C159 C 0.22778 0.21713 0.19465 0.0
C160 C 0.22255 0.25303 0.17015 0.0
H161 H 0.31048 0.32359 0.40138 0.0
H162 H 0.29016 0.30842 0.33408 0.0
C163 C 0.20481 0.25089 0.13723 0.0
C164 C 0.24352 0.22125 0.23307 0.0
H165 H 0.24293 0.26723 0.32934 0.0
C166 C 0.26837 0.20322 0.23466 0.0
C167 C 0.23409 0.24404 0.26778 0.0
C168 C 0.20713 0.26266 0.26818 0.0
C169 C 0.28444 0.20872 0.26983 0.0
C170 C 0.27515 0.23229 0.30422 0.0
C171 C 0.25008 0.24947 0.30278 0.0
C172 C 0.29096 0.24039 0.34206 0.0
C173 C 0.31143 0.19039 0.2695 0.0
C174 C 0.29865 0.20707 0.36851 0.0
C175 C 0.3104 0.21566 0.40707 0.0
C176 C 0.31436 0.25772 0.41988 0.0
C177 C 0.30759 0.29087 0.39252 0.0
C178 C 0.296 0.28227 0.35402 0.0
H179 H 0.31766 0.18172 0.23742 0.0
H180 H 0.32558 0.21318 0.28278 0.0
H181 H 0.31187 0.16135 0.28911 0.0
H182 H 0.29452 0.17456 0.36021 0.0
H183 H 0.31531 0.18947 0.42758 0.0
H184 H 0.76288 0.28711 0.34149 0.0
H185 H 0.73158 0.29025 0.28412 0.0
H186 H 0.7402 0.15598 0.26467 0.0
H187 H 0.77159 0.15243 0.32227 0.0
H188 H 0.74696 0.26417 0.20145 0.0
H189 H 0.66012 0.17752 0.25854 0.0
H190 H 0.68375 0.20034 0.29366 0.0
H191 H 0.69107 0.15233 0.26632 0.0
C192 C 0.75779 0.25806 0.32556 0.0
C193 C 0.76985 0.21956 0.33621 0.0
C194 C 0.73988 0.25993 0.29284 0.0
C195 C 0.7335 0.22333 0.2704 0.0
C196 C 0.7446 0.18446 0.28206 0.0
H197 H 0.64991 0.19087 0.03524 0.0
H198 H 0.67136 0.17832 0.10276 0.0
C199 C 0.76261 0.18254 0.31483 0.0
C200 C 0.71764 0.22698 0.23197 0.0
H201 H 0.65968 0.19998 0.18776 0.0
C202 C 0.72784 0.25025 0.19847 0.0
C203 C 0.69291 0.20825 0.22814 0.0
C204 C 0.68111 0.18338 0.26358 0.0
C205 C 0.71395 0.25546 0.16113 0.0
C206 C 0.68888 0.23776 0.15758 0.0
C207 C 0.67882 0.21376 0.19079 0.0
C208 C 0.67296 0.24454 0.11957 0.0
C209 C 0.72643 0.27939 0.12556 0.0
C210 C 0.66593 0.28573 0.10755 0.0
C211 C 0.65392 0.29301 0.06905 0.0
C212 C 0.64843 0.25914 0.04206 0.0
C213 C 0.65398 0.2176 0.05533 0.0
C214 C 0.6662 0.21037 0.09385 0.0
H215 H 0.74783 0.28077 0.1291 0.0
H216 H 0.72177 0.2646 0.09499 0.0
H217 H 0.71899 0.31237 0.12511 0.0
H218 H 0.67052 0.31244 0.1274 0.0
H219 H 0.6496 0.32533 0.05994 0.0
H220 H 0.69992 0.21893 0.83924 0.0
H221 H 0.73155 0.21602 0.7827 0.0
H222 H 0.72275 0.35026 0.76225 0.0
H223 H 0.69104 0.35359 0.81905 0.0
H224 H 0.71702 0.24182 0.69945 0.0
H225 H 0.80288 0.32953 0.75912 0.0
H226 H 0.77893 0.30664 0.79351 0.0
H227 H 0.77178 0.3545 0.76539 0.0
C228 C 0.70501 0.24801 0.82324 0.0
C229 C 0.69285 0.28645 0.83342 0.0
C230 C 0.72311 0.24628 0.791 0.0
C231 C 0.72957 0.28295 0.76856 0.0
C232 C 0.7183 0.32174 0.77967 0.0
H233 H 0.81464 0.3155 0.5356 0.0
H234 H 0.79291 0.32816 0.60254 0.0
C235 C 0.7001 0.32352 0.81196 0.0
C236 C 0.74584 0.27945 0.73075 0.0
H237 H 0.80416 0.30697 0.68855 0.0
C238 C 0.7361 0.25596 0.69709 0.0
C239 C 0.77053 0.29844 0.72771 0.0
C240 C 0.78185 0.32352 0.76337 0.0
C241 C 0.75042 0.25077 0.66036 0.0
C242 C 0.77545 0.26875 0.65762 0.0
C243 C 0.78505 0.29297 0.69097 0.0
C244 C 0.79178 0.26204 0.62028 0.0
C245 C 0.73846 0.22654 0.62456 0.0
C246 C 0.79921 0.22092 0.60905 0.0
C247 C 0.81139 0.21357 0.57088 0.0
C248 C 0.81664 0.24733 0.54346 0.0
C249 C 0.81077 0.28886 0.55604 0.0
C250 C 0.79838 0.29615 0.59423 0.0
H251 H 0.71704 0.22474 0.62735 0.0
H252 H 0.7433 0.24137 0.59404 0.0
H253 H 0.74615 0.19371 0.62465 0.0
H254 H 0.79472 0.19428 0.62917 0.0
H255 H 0.81594 0.18127 0.56229 0.0
H256 H 0.81611 0.68527 0.03634 0.0
H257 H 0.79785 0.66629 0.10461 0.0
H258 H 0.78497 0.79836 0.13121 0.0
H259 H 0.80326 0.81763 0.06345 0.0
H260 H 0.80565 0.74856 0.2003 0.0
H261 H 0.71855 0.67704 0.12535 0.0
H262 H 0.74965 0.65776 0.10878 0.0
H263 H 0.74035 0.71128 0.09709 0.0
C264 C 0.80966 0.71027 0.05695 0.0
C265 C 0.8109 0.75293 0.04436 0.0
C266 C 0.79917 0.69936 0.09583 0.0
C267 C 0.7898 0.73093 0.12263 0.0
C268 C 0.79207 0.77355 0.11089 0.0
H269 H 0.7004 0.77784 0.33873 0.0
H270 H 0.73238 0.77698 0.28282 0.0
C271 C 0.80245 0.78448 0.0721 0.0
C272 C 0.77621 0.71995 0.16187 0.0
H273 H 0.71907 0.68066 0.19849 0.0
C274 C 0.78685 0.73324 0.20005 0.0
C275 C 0.75177 0.69982 0.16136 0.0
C276 C 0.7392 0.6858 0.12103 0.0
C277 C 0.77336 0.72787 0.23776 0.0
C278 C 0.74836 0.70957 0.237 0.0
C279 C 0.73824 0.69466 0.19901 0.0
C280 C 0.73133 0.70904 0.27426 0.0
C281 C 0.78592 0.74219 0.27794 0.0
C282 C 0.7199 0.67115 0.28792 0.0
C283 C 0.70134 0.6716 0.31971 0.0
C284 C 0.69376 0.71002 0.33813 0.0
C285 C 0.70586 0.7477 0.32528 0.0
C286 C 0.72434 0.74722 0.29351 0.0
H287 H 0.80739 0.7414 0.2756 0.0
H288 H 0.78009 0.77536 0.28435 0.0
H289 H 0.7799 0.72215 0.30478 0.0
H290 H 0.72488 0.64137 0.27326 0.0
H291 H 0.69235 0.64205 0.32888 0.0
H292 H 0.65028 0.68482 0.56404 0.0
H293 H 0.66839 0.70301 0.63221 0.0
H294 H 0.66091 0.8358 0.60277 0.0
H295 H 0.64283 0.81784 0.53408 0.0
H296 H 0.71055 0.81136 0.6285 0.0
H297 H 0.6369 0.75152 0.73929 0.0
H298 H 0.64585 0.71328 0.70052 0.0
H299 H 0.62986 0.76142 0.68473 0.0
C300 C 0.65207 0.71793 0.57227 0.0
C301 C 0.64519 0.74991 0.54362 0.0
C302 C 0.66224 0.72826 0.61141 0.0
C303 C 0.66566 0.77074 0.62276 0.0
C304 C 0.6582 0.80282 0.5947 0.0
H305 H 0.76373 0.86029 0.83016 0.0
H306 H 0.73155 0.8608 0.77365 0.0
C307 C 0.64788 0.7925 0.55552 0.0
C308 C 0.67954 0.78116 0.662 0.0
H309 H 0.67973 0.76218 0.76716 0.0
C310 C 0.70363 0.80141 0.65898 0.0
C311 C 0.67045 0.76794 0.70159 0.0
C312 C 0.64422 0.74769 0.70688 0.0
C313 C 0.71958 0.80664 0.69418 0.0
C314 C 0.7109 0.79204 0.73361 0.0
C315 C 0.68634 0.77333 0.7369 0.0
C316 C 0.72797 0.79262 0.77095 0.0
C317 C 0.74618 0.82558 0.68841 0.0
C318 C 0.73569 0.75425 0.78939 0.0
C319 C 0.75383 0.75386 0.82186 0.0
C320 C 0.76463 0.79189 0.83649 0.0
C321 C 0.75594 0.83045 0.81932 0.0
C322 C 0.73767 0.8308 0.78691 0.0
H323 H 0.75186 0.82698 0.65496 0.0
H324 H 0.74627 0.85834 0.70081 0.0
H325 H 0.761 0.80699 0.70582 0.0
H326 H 0.72835 0.72443 0.77765 0.0
H327 H 0.76 0.72364 0.83456 0.0
H328 H 0.30824 0.67314 0.90549 0.0
H329 H 0.28797 0.68714 0.83781 0.0
H330 H 0.29046 0.82131 0.86197 0.0
H331 H 0.31121 0.80758 0.92977 0.0
H332 H 0.2403 0.72697 0.83099 0.0
H333 H 0.31507 0.81365 0.74003 0.0
H334 H 0.32282 0.78288 0.78615 0.0
H335 H 0.30841 0.83439 0.79117 0.0
C336 C 0.30491 0.7057 0.89616 0.0
C337 C 0.31121 0.73927 0.92306 0.0
C338 C 0.29334 0.71363 0.85744 0.0
C339 C 0.28786 0.75524 0.84475 0.0
C340 C 0.29495 0.78899 0.87083 0.0
H341 H 0.18923 0.84786 0.64213 0.0
H342 H 0.21965 0.84347 0.70109 0.0
C343 C 0.30667 0.78108 0.90964 0.0
C344 C 0.27238 0.76257 0.80632 0.0
H345 H 0.27321 0.80849 0.7094 0.0
C346 C 0.24755 0.74469 0.80437 0.0
C347 C 0.28179 0.78609 0.77186 0.0
C348 C 0.30856 0.80514 0.77206 0.0
C349 C 0.23188 0.74945 0.76884 0.0
C350 C 0.24145 0.7722 0.73405 0.0
C351 C 0.26607 0.79087 0.73614 0.0
C352 C 0.22602 0.77608 0.69519 0.0
C353 C 0.20509 0.73036 0.76891 0.0
C354 C 0.22031 0.73988 0.67166 0.0
C355 C 0.20297 0.74222 0.63816 0.0
C356 C 0.19108 0.78088 0.62752 0.0
C357 C 0.198 0.8176 0.64967 0.0
C358 C 0.21537 0.81519 0.68329 0.0
H359 H 0.19849 0.72256 0.80106 0.0
H360 H 0.19083 0.75228 0.7543 0.0
H361 H 0.20527 0.70067 0.75046 0.0
H362 H 0.22862 0.70951 0.68013 0.0
H363 H 0.19823 0.71344 0.62149 0.0
H364 H 0.26744 0.63842 0.13984 0.0
H365 H 0.23411 0.63806 0.1942 0.0
H366 H 0.22785 0.77395 0.18487 0.0
H367 H 0.26065 0.77451 0.13018 0.0
H368 H 0.23876 0.67646 0.26939 0.0
H369 H 0.15245 0.74014 0.18791 0.0
H370 H 0.18037 0.72049 0.16013 0.0
H371 H 0.18018 0.77347 0.18077 0.0
C372 C 0.2586 0.66813 0.14884 0.0
C373 C 0.26671 0.70651 0.13077 0.0
C374 C 0.23957 0.66786 0.17988 0.0
C375 C 0.22821 0.7059 0.19316 0.0
C376 C 0.23583 0.7441 0.1744 0.0
H377 H 0.15295 0.81341 0.40081 0.0
H378 H 0.17209 0.79465 0.33364 0.0
C379 C 0.25478 0.7444 0.14336 0.0
C380 C 0.21045 0.70646 0.2295 0.0
H381 H 0.15264 0.74616 0.26327 0.0
C382 C 0.21969 0.69087 0.26791 0.0
C383 C 0.18558 0.72529 0.22748 0.0
C384 C 0.17396 0.74039 0.18673 0.0
C385 C 0.20541 0.69583 0.30482 0.0
C386 C 0.18109 0.71644 0.30309 0.0
C387 C 0.17133 0.73045 0.26444 0.0
C388 C 0.16677 0.72721 0.34163 0.0
C389 C 0.21707 0.68109 0.34573 0.0
C390 C 0.15678 0.6955 0.3678 0.0
C391 C 0.14579 0.70611 0.40634 0.0
C392 C 0.14467 0.74862 0.41919 0.0
C393 C 0.15365 0.78036 0.39195 0.0
C394 C 0.16453 0.76973 0.35349 0.0
H395 H 0.23777 0.67204 0.34248 0.0
H396 H 0.21553 0.70628 0.36974 0.0
H397 H 0.20626 0.65307 0.35722 0.0
H398 H 0.15806 0.66251 0.35888 0.0
H399 H 0.13895 0.68097 0.42657 0.0
H400 H 0.05209 0.30588 0.08227 0.0
H401 H 0.01423 0.34018 0.1134 0.0
H402 H 0.04349 0.3108 0.23665 0.0
H403 H 0.08126 0.27703 0.20601 0.0
H404 H -0.01701 0.28806 0.15803 0.0
H405 H 0.00878 0.42426 0.25718 0.0
H406 H 0.02959 0.4053 0.21585 0.0
H407 H 0.03 0.3802 0.26652 0.0
C408 C 0.05092 0.30814 0.11601 0.0
C409 C 0.06941 0.28808 0.1417 0.0
C410 C 0.0293 0.32787 0.13375 0.0
C411 C 0.02609 0.32831 0.17737 0.0
C412 C 0.04574 0.31168 0.20299 0.0
H413 H 0.92061 0.28466 0.36616 0.0
H414 H 0.95582 0.31401 0.32404 0.0
C415 C 0.06721 0.29182 0.18535 0.0
C416 C 0.0003 0.33667 0.1958 0.0
H417 H 0.97081 0.38381 0.279 0.0
C418 C -0.02 0.30994 0.18366 0.0
C419 C -0.00339 0.36487 0.2295 0.0
C420 C 0.01738 0.39556 0.24273 0.0
C421 C 0.95693 0.30785 0.20645 0.0
C422 C 0.95365 0.33457 0.2416 0.0
C423 C 0.9733 0.36342 0.25209 0.0
C424 C 0.93153 0.32865 0.27052 0.0
C425 C 0.93734 0.27439 0.19461 0.0
C426 C 0.90594 0.32986 0.25556 0.0
C427 C 0.886 0.31195 0.2791 0.0
C428 C 0.89122 0.29429 0.3186 0.0
C429 C 0.91614 0.29818 0.33579 0.0
C430 C 0.93625 0.31496 0.31172 0.0
H431 H 0.94544 0.25078 0.17252 0.0
H432 H 0.93036 0.25722 0.22273 0.0
H433 H 0.92048 0.28967 0.17911 0.0
H434 H 0.90174 0.34148 0.22437 0.0
H435 H 0.86682 0.30963 0.26544 0.0
H436 H 0.36463 0.20155 0.70017 0.0
H437 H 0.39953 0.16904 0.74128 0.0
H438 H 0.45289 0.19211 0.6402 0.0
H439 H 0.41765 0.22216 0.59809 0.0
H440 H 0.46707 0.12213 0.68586 0.0
H441 H 0.44557 0.25785 0.79109 0.0
H442 H 0.41978 0.22035 0.78554 0.0
H443 H 0.42975 0.25161 0.74128 0.0
C444 C 0.38363 0.19822 0.68628 0.0
C445 C 0.38866 0.21479 0.64632 0.0
C446 C 0.40357 0.17991 0.70982 0.0
C447 C 0.42899 0.17959 0.69439 0.0
C448 C 0.43346 0.19233 0.65288 0.0
H449 H 0.58028 0.22326 0.75664 0.0
H450 H 0.54164 0.19135 0.72661 0.0
C451 C 0.41333 0.20952 0.62883 0.0
C452 C 0.45132 0.17279 0.72296 0.0
H453 H 0.48243 0.21836 0.8056 0.0
C454 C 0.47026 0.14265 0.7125 0.0
C455 C 0.45551 0.19968 0.75775 0.0
C456 C 0.43674 0.23442 0.7695 0.0
C457 C 0.49374 0.14001 0.73478 0.0
C458 C 0.49834 0.16831 0.76813 0.0
C459 C 0.47874 0.19641 0.78025 0.0
C460 C 0.52444 0.17518 0.7862 0.0
C461 C 0.51373 0.10795 0.72159 0.0
C462 C 0.52805 0.17566 0.82977 0.0
C463 C 0.55018 0.19427 0.84715 0.0
C464 C 0.56879 0.21321 0.82113 0.0
C465 C 0.56616 0.20932 0.77753 0.0
C466 C 0.54418 0.19054 0.76025 0.0
H467 H 0.50443 0.07972 0.70738 0.0
H468 H 0.52652 0.12237 0.69764 0.0
H469 H 0.52591 0.09761 0.74846 0.0
H470 H 0.51293 0.16432 0.85035 0.0
H471 H 0.55167 0.1967 0.88085 0.0
H472 H 0.03978 0.72323 0.59537 0.0
H473 H 0.00371 0.69596 0.63698 0.0
H474 H 0.05629 0.66886 0.73883 0.0
H475 H 0.09207 0.69867 0.69822 0.0
H476 H -0.01243 0.62733 0.68213 0.0
H477 H 0.01253 0.76067 0.78833 0.0
H478 H 0.02826 0.75339 0.73875 0.0
H479 H 0.03738 0.72138 0.78312 0.0
C480 C 0.04372 0.71028 0.62616 0.0
C481 C 0.06849 0.71364 0.644 0.0
C482 C 0.02312 0.69469 0.64994 0.0
C483 C 0.02719 0.68166 0.69152 0.0
C484 C 0.05258 0.68003 0.70731 0.0
H485 H 0.90587 0.70098 0.87954 0.0
H486 H 0.94404 0.6687 0.84729 0.0
C487 C 0.07301 0.69676 0.68405 0.0
C488 C 0.00466 0.67644 0.71977 0.0
H489 H 0.97498 0.72316 0.80294 0.0
C490 C -0.01503 0.64779 0.70896 0.0
C491 C 0.00121 0.70331 0.75477 0.0
C492 C 0.02081 0.73667 0.76683 0.0
C493 C 0.96154 0.64649 0.73124 0.0
C494 C 0.95779 0.67459 0.765 0.0
C495 C 0.97804 0.70134 0.77729 0.0
C496 C 0.93203 0.68239 0.78376 0.0
C497 C 0.94074 0.61598 0.71774 0.0
C498 C 0.91227 0.69952 0.75868 0.0
C499 C 0.89063 0.71828 0.77697 0.0
C500 C 0.88836 0.72035 0.82073 0.0
C501 C 0.90707 0.69995 0.84575 0.0
C502 C 0.92887 0.6814 0.82737 0.0
H503 H 0.94923 0.58767 0.70243 0.0
H504 H 0.92879 0.60556 0.74469 0.0
H505 H 0.92785 0.63186 0.69466 0.0
H506 H 0.9145 0.70147 0.72506 0.0
H507 H 0.87644 0.7334 0.75681 0.0
H508 H 0.40561 0.80465 0.08518 0.0
H509 H 0.44448 0.8377 0.11474 0.0
H510 H 0.42225 0.79561 0.23788 0.0
H511 H 0.38338 0.76325 0.20899 0.0
H512 H 0.44957 0.87633 0.236 0.0
H513 H 0.49864 0.7467 0.1482 0.0
H514 H 0.47947 0.78388 0.11874 0.0
H515 H 0.46398 0.74809 0.15447 0.0
C516 C 0.40861 0.80355 0.1187 0.0
C517 C 0.39175 0.78041 0.14461 0.0
C518 C 0.43083 0.82243 0.13552 0.0
C519 C 0.43643 0.81835 0.17835 0.0
C520 C 0.41831 0.79901 0.20472 0.0
H521 H 0.54476 0.78527 0.36622 0.0
H522 H 0.50946 0.81556 0.32487 0.0
C523 C 0.39619 0.78019 0.18804 0.0
C524 C 0.46269 0.82687 0.19496 0.0
H525 H 0.52244 0.78131 0.19909 0.0
C526 C 0.46579 0.85634 0.22736 0.0
C527 C 0.48379 0.8008 0.18352 0.0
C528 C 0.48146 0.76788 0.14953 0.0
C529 C 0.48913 0.85897 0.25001 0.0
C530 C 0.50953 0.83058 0.24065 0.0
C531 C 0.5069 0.80319 0.20637 0.0
C532 C 0.53227 0.82401 0.26862 0.0
C533 C 0.4914 0.89147 0.28423 0.0
C534 C 0.5571 0.8194 0.25135 0.0
C535 C 0.57702 0.80068 0.27458 0.0
C536 C 0.57263 0.78721 0.31583 0.0
C537 C 0.54867 0.79579 0.33458 0.0
C538 C 0.52851 0.8135 0.31096 0.0
H539 H 0.48023 0.92048 0.27611 0.0
H540 H 0.48305 0.87838 0.31347 0.0
H541 H 0.51187 0.90038 0.29019 0.0
H542 H 0.56054 0.82728 0.21883 0.0
H543 H 0.59542 0.79454 0.25954 0.0
H544 H 0.06014 0.0582 0.1023 0.0
H545 H 0.02442 0.01546 0.07514 0.0
H546 H 0.02451 0.08858 0.96103 0.0
H547 H 0.0604 0.13114 -0.01242 0.0
H548 H 0.97532 0.04369 0.05099 0.0
H549 H 0.02585 0.96679 0.91842 0.0
H550 H 0.04301 0.99321 0.9601 0.0
H551 H 0.02832 0.02348 0.9186 0.0
C552 C 0.05276 0.06496 0.07125 0.0
C553 C 0.06325 0.09805 0.04708 0.0
C554 C 0.0323 0.04055 0.05582 0.0
C555 C 0.02203 0.04851 0.01588 0.0
C556 C 0.03248 0.08134 -0.0084 0.0
H557 H 0.89531 0.94702 0.86894 0.0
H558 H 0.93098 0.98904 0.89725 0.0
C559 C 0.05294 0.10577 0.00696 0.0
C560 C -0.0003 0.02358 0.00026 0.0
H561 H -0.01987 0.95873 0.92104 0.0
C562 C 0.97639 0.02488 0.02272 0.0
C563 C 0.00116 0.9992 0.96332 0.0
C564 C 0.02598 0.99517 0.93886 0.0
C565 C 0.95431 0.0031 0.00877 0.0
C566 C 0.95574 0.97887 0.97173 0.0
C567 C 0.97907 0.97747 0.94935 0.0
C568 C 0.93331 0.95452 0.95568 0.0
C569 C 0.92949 0.00697 0.03324 0.0
C570 C 0.92279 0.92115 0.97917 0.0
C571 C 0.90237 0.89707 0.96313 0.0
C572 C 0.89215 0.90575 0.92313 0.0
C573 C 0.90262 0.9395 0.89986 0.0
C574 C 0.92306 0.96351 0.91594 0.0
H575 H 0.92976 0.03479 0.05441 0.0
H576 H 0.91252 0.00977 0.01196 0.0
H577 H 0.9269 0.97816 0.05273 0.0
H578 H 0.93073 0.91319 0.00959 0.0
H579 H 0.89489 0.8712 0.98183 0.0
H580 H 0.5623 0.63272 0.47937 0.0
H581 H 0.52697 0.58982 0.50743 0.0
H582 H 0.52437 0.51812 0.393 0.0
H583 H 0.5599 0.5604 0.36481 0.0
H584 H 0.47709 0.58071 0.47491 0.0
H585 H 0.52771 0.42574 0.48268 0.0
H586 H 0.54477 0.47516 0.47621 0.0
H587 H 0.52895 0.45085 0.43227 0.0
C588 C 0.55439 0.60759 0.46024 0.0
C589 C 0.56405 0.59992 0.41985 0.0
C590 C 0.53415 0.58317 0.47634 0.0
C591 C 0.52327 0.55045 0.45253 0.0
C592 C 0.53284 0.54265 0.41225 0.0
H593 H 0.39737 0.37299 0.4872 0.0
H594 H 0.43262 0.4167 0.46024 0.0
C595 C 0.55309 0.56702 0.39611 0.0
C596 C 0.5013 0.52547 0.46928 0.0
H597 H 0.4823 0.42505 0.49422 0.0
C598 C 0.47825 0.54671 0.47937 0.0
C599 C 0.50287 0.48111 0.47498 0.0
C600 C 0.52747 0.45684 0.46635 0.0
C601 C 0.45653 0.52465 0.49425 0.0
C602 C 0.45807 0.48027 0.49979 0.0
C603 C 0.48115 0.45906 0.48982 0.0
C604 C 0.43598 0.45512 0.51585 0.0
C605 C 0.43192 0.54888 0.50295 0.0
C606 C 0.4262 0.46219 0.55613 0.0
C607 C 0.40599 0.43731 0.57167 0.0
C608 C 0.39528 0.40467 0.54729 0.0
C609 C 0.40509 0.39787 0.50684 0.0
C610 C 0.42528 0.42277 0.49136 0.0
H611 H 0.43181 0.58029 0.48719 0.0
H612 H 0.41466 0.5308 0.49249 0.0
H613 H 0.43024 0.5542 0.53711 0.0
H614 H 0.43452 0.48647 0.57587 0.0
H615 H 0.39904 0.44327 0.60303 0.0
H616 H 0.39707 0.62855 -0.01331 0.0
H617 H 0.43235 0.58616 0.95775 0.0
H618 H 0.43467 0.51093 0.07046 0.0
H619 H 0.3992 0.55272 0.09954 0.0
H620 H 0.48213 0.57609 -0.00918 0.0
H621 H 0.43186 0.42143 0.97839 0.0
H622 H 0.41467 0.47065 -0.01425 0.0
H623 H 0.43024 0.44496 0.02936 0.0
C624 C 0.40488 0.60272 0.00523 0.0
C625 C 0.3952 0.59397 0.04543 0.0
C626 C 0.42509 0.5786 -0.01137 0.0
C627 C 0.43591 0.5451 0.01174 0.0
C628 C 0.42625 0.53611 0.05176 0.0
H629 H 0.56261 0.36926 0.97499 0.0
H630 H 0.52713 0.41212 0.0025 0.0
C631 C 0.40603 0.56019 0.0684 0.0
C632 C 0.458 0.52068 -0.00534 0.0
H633 H 0.47738 0.42109 0.96764 0.0
C634 C 0.48107 0.54224 -0.0145 0.0
C635 C 0.45655 0.47653 -0.01215 0.0
C636 C 0.43194 0.45201 -0.00453 0.0
C637 C 0.50293 0.52066 0.97048 0.0
C638 C 0.50151 0.47649 0.96386 0.0
C639 C 0.47842 0.45496 0.97288 0.0
C640 C 0.52375 0.45189 0.94756 0.0
C641 C 0.52754 0.54515 0.96277 0.0
C642 C 0.53361 0.46005 0.90749 0.0
C643 C 0.55394 0.43566 0.89163 0.0
C644 C 0.5647 0.40245 0.91549 0.0
C645 C 0.55486 0.39462 0.95577 0.0
C646 C 0.53453 0.41901 0.97156 0.0
H647 H 0.52745 0.57614 0.9791 0.0
H648 H 0.54476 0.5268 0.97324 0.0
H649 H 0.52949 0.55134 0.92874 0.0
H650 H 0.52525 0.48479 0.88815 0.0
H651 H 0.56092 0.44243 0.86043 0.0
H652 H 0.06388 0.87072 0.48232 0.0
H653 H 0.02929 0.91552 0.45418 0.0
H654 H 0.02644 0.98437 0.57029 0.0
H655 H 0.06127 0.94015 0.59859 0.0
H656 H 0.97938 0.92475 0.48555 0.0
H657 H 0.03073 0.07898 0.48317 0.0
H658 H 0.04753 0.02911 0.48891 0.0
H659 H 0.03147 0.05255 0.53296 0.0
C660 C 0.05611 0.89565 0.5018 0.0
C661 C 0.06545 0.9019 0.54271 0.0
C662 C 0.03629 0.92117 0.48565 0.0
C663 C 0.02552 0.95359 0.50994 0.0
C664 C 0.03484 0.96008 0.55069 0.0
H665 H 0.90038 0.13365 0.4757 0.0
H666 H 0.93546 0.08915 0.50265 0.0
C667 C 0.05469 0.93462 0.56688 0.0
C668 C 0.00379 0.97941 0.49323 0.0
H669 H -0.01459 0.08074 0.47019 0.0
C670 C -0.01928 0.95884 0.48194 0.0
C671 C 0.0056 0.02386 0.48869 0.0
C672 C 0.03023 0.04747 0.49869 0.0
C673 C 0.95922 0.98162 0.46696 0.0
C674 C 0.96101 0.02609 0.46252 0.0
C675 C -0.01591 0.04665 0.47373 0.0
C676 C 0.93916 0.05195 0.44632 0.0
C677 C 0.93458 0.95803 0.45695 0.0
C678 C 0.92966 0.04587 0.40561 0.0
C679 C 0.90953 0.07118 0.39008 0.0
C680 C 0.89865 0.10328 0.4149 0.0
C681 C 0.90823 0.10919 0.45572 0.0
C682 C 0.92833 0.08385 0.4712 0.0
H683 H 0.9342 0.9263 0.47203 0.0
H684 H 0.91731 0.97619 0.46721 0.0
H685 H 0.93317 0.95347 0.42262 0.0
H686 H 0.93808 0.02197 0.38559 0.0
H687 H 0.90277 0.06592 0.35843 0.0
loop_
_geom_bond_atom_site_label_1
_geom_bond_atom_site_label_2
_geom_bond_distance
_geom_bond_site_symmetry_2
_ccdc_geom_bond_type
C0 O1 1.306 . S
C0 O3 1.160 . S
O1 C0 1.306 . S
O1 Cd2 2.228 . S
Cd2 O1 2.228 . S
Cd2 O6 2.273 . S
Cd2 O10 2.277 . S
O3 C0 1.160 . S
O3 Cd4 2.203 . S
Cd4 O3 2.203 . S
Cd4 O6 2.411 . S
Cd4 O7 2.333 . S
Cd4 O8 2.352 . S
Cd4 O12 2.277 . S
Cd4 O13 2.356 . S
C5 O10 1.209 . S
C5 O12 1.226 . S
O6 Cd2 2.273 . S
O6 Cd4 2.411 . S
O6 C9 1.320 . S
O7 Cd4 2.333 . S
O7 C9 1.214 . S
O8 Cd4 2.352 . S
O8 C11 1.259 . S
C9 O6 1.320 . S
C9 O7 1.214 . S
O10 Cd2 2.277 . S
O10 C5 1.209 . S
C11 O8 1.259 . S
C11 O13 1.283 . S
O12 Cd4 2.277 . S
O12 C5 1.226 . S
O13 Cd4 2.356 . S
O13 C11 1.283 . S
C14 O15 1.306 . S
C14 O17 1.160 . S
O15 C14 1.306 . S
O15 Cd16 2.228 . S
Cd16 O15 2.228 . S
Cd16 O20 2.273 . S
Cd16 O24 2.277 . S
O17 C14 1.160 . S
O17 Cd18 2.203 . S
Cd18 O17 2.203 . S
Cd18 O20 2.411 . S
Cd18 O21 2.333 . S
Cd18 O22 2.352 . S
Cd18 O26 2.277 . S
Cd18 O27 2.356 . S
C19 O24 1.209 . S
C19 O26 1.226 . S
O20 Cd16 2.273 . S
O20 Cd18 2.411 . S
O20 C23 1.320 . S
O21 Cd18 2.333 . S
O21 C23 1.214 . S
O22 Cd18 2.352 . S
O22 C25 1.258 . S
C23 O20 1.320 . S
C23 O21 1.214 . S
O24 Cd16 2.277 . S
O24 C19 1.209 . S
C25 O22 1.258 . S
C25 O27 1.282 . S
O26 Cd18 2.277 . S
O26 C19 1.226 . S
O27 Cd18 2.356 . S
O27 C25 1.282 . S
C28 O29 1.306 . S
C28 O31 1.160 . S
O29 C28 1.306 . S
O29 Cd30 2.228 . S
Cd30 O29 2.228 . S
Cd30 O34 2.273 . S
Cd30 O38 2.277 . S
O31 C28 1.160 . S
O31 Cd32 2.203 . S
Cd32 O31 2.203 . S
Cd32 O34 2.411 . S
Cd32 O35 2.333 . S
Cd32 O36 2.352 . S
Cd32 O40 2.277 . S
Cd32 O41 2.356 . S
C33 O38 1.209 . S
C33 O40 1.226 . S
O34 Cd30 2.273 . S
O34 Cd32 2.411 . S
O34 C37 1.320 . S
O35 Cd32 2.333 . S
O35 C37 1.214 . S
O36 Cd32 2.352 . S
O36 C39 1.259 . S
C37 O34 1.320 . S
C37 O35 1.214 . S
O38 Cd30 2.277 . S
O38 C33 1.209 . S
C39 O36 1.259 . S
C39 O41 1.283 . S
O40 Cd32 2.277 . S
O40 C33 1.226 . S
O41 Cd32 2.356 . S
O41 C39 1.283 . S
C42 O43 1.306 . S
C42 O45 1.160 . S
O43 C42 1.306 . S
O43 Cd44 2.228 . S
Cd44 O43 2.228 . S
Cd44 O48 2.273 . S
Cd44 O52 2.277 . S
O45 C42 1.160 . S
O45 Cd46 2.203 . S
Cd46 O45 2.203 . S
Cd46 O48 2.411 . S
Cd46 O49 2.333 . S
Cd46 O50 2.352 . S
Cd46 O54 2.277 . S
Cd46 O55 2.356 . S
C47 O52 1.209 . S
C47 O54 1.226 . S
O48 Cd44 2.273 . S
O48 Cd46 2.411 . S
O48 C51 1.320 . S
O49 Cd46 2.333 . S
O49 C51 1.214 . S
O50 Cd46 2.352 . S
O50 C53 1.258 . S
C51 O48 1.320 . S
C51 O49 1.214 . S
O52 Cd44 2.277 . S
O52 C47 1.209 . S
C53 O50 1.258 . S
C53 O55 1.282 . S
O54 Cd46 2.277 . S
O54 C47 1.226 . S
O55 Cd46 2.356 . S
O55 C53 1.282 . S
C56 O57 1.306 . S
C56 O59 1.160 . S
O57 C56 1.306 . S
O57 Cd58 2.228 . S
Cd58 O57 2.228 . S
Cd58 O62 2.273 . S
Cd58 O66 2.277 . S
O59 C56 1.160 . S
O59 Cd60 2.203 . S
Cd60 O59 2.203 . S
Cd60 O62 2.411 . S
Cd60 O63 2.333 . S
Cd60 O64 2.352 . S
Cd60 O68 2.277 . S
Cd60 O69 2.356 . S
C61 O66 1.209 . S
C61 O68 1.226 . S
O62 Cd58 2.273 . S
O62 Cd60 2.411 . S
O62 C65 1.320 . S
O63 Cd60 2.333 . S
O63 C65 1.214 . S
O64 Cd60 2.352 . S
O64 C67 1.259 . S
C65 O62 1.320 . S
C65 O63 1.214 . S
O66 Cd58 2.277 . S
O66 C61 1.209 . S
C67 O64 1.259 . S
C67 O69 1.283 . S
O68 Cd60 2.277 . S
O68 C61 1.226 . S
O69 Cd60 2.356 . S
O69 C67 1.283 . S
C70 O71 1.306 . S
C70 O73 1.160 . S
O71 C70 1.306 . S
O71 Cd72 2.228 . S
Cd72 O71 2.228 . S
Cd72 O76 2.273 . S
Cd72 O80 2.277 . S
O73 C70 1.160 . S
O73 Cd74 2.203 . S
Cd74 O73 2.203 . S
Cd74 O76 2.411 . S
Cd74 O77 2.333 . S
Cd74 O78 2.352 . S
Cd74 O82 2.277 . S
Cd74 O83 2.356 . S
C75 O80 1.209 . S
C75 O82 1.226 . S
O76 Cd72 2.273 . S
O76 Cd74 2.411 . S
O76 C79 1.320 . S
O77 Cd74 2.333 . S
O77 C79 1.214 . S
O78 Cd74 2.352 . S
O78 C81 1.258 . S
C79 O76 1.320 . S
C79 O77 1.214 . S
O80 Cd72 2.277 . S
O80 C75 1.209 . S
C81 O78 1.258 . S
C81 O83 1.282 . S
O82 Cd74 2.277 . S
O82 C75 1.226 . S
O83 Cd74 2.356 . S
O83 C81 1.282 . S
C84 O85 1.306 . S
C84 O87 1.160 . S
O85 C84 1.306 . S
O85 Cd86 2.228 . S
Cd86 O85 2.228 . S
Cd86 O90 2.273 . S
Cd86 O94 2.277 . S
O87 C84 1.160 . S
O87 Cd88 2.203 . S
Cd88 O87 2.203 . S
Cd88 O90 2.411 . S
Cd88 O91 2.333 . S
Cd88 O92 2.352 . S
Cd88 O96 2.277 . S
Cd88 O97 2.356 . S
C89 O94 1.209 . S
C89 O96 1.226 . S
O90 Cd86 2.273 . S
O90 Cd88 2.411 . S
O90 C93 1.320 . S
O91 Cd88 2.333 . S
O91 C93 1.214 . S
O92 Cd88 2.352 . S
O92 C95 1.259 . S
C93 O90 1.320 . S
C93 O91 1.214 . S
O94 Cd86 2.277 . S
O94 C89 1.209 . S
C95 O92 1.259 . S
C95 O97 1.283 . S
O96 Cd88 2.277 . S
O96 C89 1.226 . S
O97 Cd88 2.356 . S
O97 C95 1.283 . S
C98 O99 1.306 . S
C98 O101 1.160 . S
O99 C98 1.306 . S
O99 Cd100 2.228 . S
Cd100 O99 2.228 . S
Cd100 O104 2.273 . S
Cd100 O108 2.277 . S
O101 C98 1.160 . S
O101 Cd102 2.203 . S
Cd102 O101 2.203 . S
Cd102 O104 2.411 . S
Cd102 O105 2.333 . S
Cd102 O106 2.352 . S
Cd102 O110 2.277 . S
Cd102 O111 2.356 . S
C103 O108 1.209 . S
C103 O110 1.226 . S
O104 Cd100 2.273 . S
O104 Cd102 2.411 . S
O104 C107 1.320 . S
O105 Cd102 2.333 . S
O105 C107 1.214 . S
O106 Cd102 2.352 . S
O106 C109 1.258 . S
C107 O104 1.320 . S
C107 O105 1.214 . S
O108 Cd100 2.277 . S
O108 C103 1.209 . S
C109 O106 1.258 . S
C109 O111 1.282 . S
O110 Cd102 2.277 . S
O110 C103 1.226 . S
O111 Cd102 2.356 . S
O111 C109 1.282 . S
H112 C120 0.929 . S
H113 C122 0.930 . S
H114 C124 0.930 . S
H115 C127 0.929 . S
H116 C130 0.930 . S
H117 C132 0.960 . S
H118 C132 0.960 . S
H119 C132 0.960 . S
C120 H112 0.929 . S
C120 C121 1.377 . S
C120 C122 1.384 . S
C121 C120 1.377 . S
C121 C127 1.390 . S
C122 H113 0.930 . S
C122 C120 1.384 . S
C122 C123 1.372 . S
C123 C122 1.372 . S
C123 C124 1.400 . S
C123 C128 1.490 . S
C124 H114 0.930 . S
C124 C123 1.400 . S
C124 C127 1.386 . S
H125 C141 0.930 . S
H126 C142 0.931 . S
C127 H115 0.929 . S
C127 C121 1.390 . S
C127 C124 1.386 . S
C128 C123 1.490 . S
C128 C130 1.395 . S
C128 C131 1.403 . S
H129 C135 0.930 . S
C130 H116 0.930 . S
C130 C128 1.395 . S
C130 C133 1.403 . S
C131 C128 1.403 . S
C131 C132 1.524 . S
C131 C135 1.400 . S
C132 H117 0.960 . S
C132 H118 0.960 . S
C132 H119 0.960 . S
C132 C131 1.524 . S
C133 C130 1.403 . S
C133 C134 1.392 . S
C133 C137 1.495 . S
C134 C133 1.392 . S
C134 C135 1.385 . S
C134 C136 1.478 . S
C135 H129 0.930 . S
C135 C131 1.400 . S
C135 C134 1.385 . S
C136 C134 1.478 . S
C136 C138 1.381 . S
C136 C142 1.383 . S
C137 C133 1.495 . S
C137 H143 0.959 . S
C137 H144 0.961 . S
C137 H145 0.960 . S
C138 C136 1.381 . S
C138 C139 1.394 . S
C138 H146 0.930 . S
C139 C138 1.394 . S
C139 C140 1.383 . S
C139 H147 0.929 . S
C140 C139 1.383 . S
C140 C141 1.377 . S
C141 H125 0.930 . S
C141 C140 1.377 . S
C141 C142 1.379 . S
C142 H126 0.931 . S
C142 C136 1.383 . S
C142 C141 1.379 . S
H143 C137 0.959 . S
H144 C137 0.961 . S
H145 C137 0.960 . S
H146 C138 0.930 . S
H147 C139 0.929 . S
H148 C156 0.929 . S
H149 C158 0.930 . S
H150 C160 0.930 . S
H151 C163 0.929 . S
H152 C166 0.930 . S
H153 C168 0.960 . S
H154 C168 0.960 . S
H155 C168 0.960 . S
C156 H148 0.929 . S
C156 C157 1.377 . S
C156 C158 1.384 . S
C157 C156 1.377 . S
C157 C163 1.390 . S
C158 H149 0.930 . S
C158 C156 1.384 . S
C158 C159 1.372 . S
C159 C158 1.372 . S
C159 C160 1.400 . S
C159 C164 1.490 . S
C160 H150 0.930 . S
C160 C159 1.400 . S
C160 C163 1.386 . S
H161 C177 0.930 . S
H162 C178 0.931 . S
C163 H151 0.929 . S
C163 C157 1.390 . S
C163 C160 1.386 . S
C164 C159 1.490 . S
C164 C166 1.395 . S
C164 C167 1.403 . S
H165 C171 0.930 . S
C166 H152 0.930 . S
C166 C164 1.395 . S
C166 C169 1.403 . S
C167 C164 1.403 . S
C167 C168 1.524 . S
C167 C171 1.400 . S
C168 H153 0.960 . S
C168 H154 0.960 . S
C168 H155 0.960 . S
C168 C167 1.524 . S
C169 C166 1.403 . S
C169 C170 1.392 . S
C169 C173 1.495 . S
C170 C169 1.392 . S
C170 C171 1.385 . S
C170 C172 1.478 . S
C171 H165 0.930 . S
C171 C167 1.400 . S
C171 C170 1.385 . S
C172 C170 1.478 . S
C172 C174 1.381 . S
C172 C178 1.383 . S
C173 C169 1.495 . S
C173 H179 0.959 . S
C173 H180 0.961 . S
C173 H181 0.960 . S
C174 C172 1.381 . S
C174 C175 1.394 . S
C174 H182 0.930 . S
C175 C174 1.394 . S
C175 C176 1.383 . S
C175 H183 0.929 . S
C176 C175 1.383 . S
C176 C177 1.377 . S
C177 H161 0.930 . S
C177 C176 1.377 . S
C177 C178 1.379 . S
C178 H162 0.931 . S
C178 C172 1.383 . S
C178 C177 1.379 . S
H179 C173 0.959 . S
H180 C173 0.961 . S
H181 C173 0.960 . S
H182 C174 0.930 . S
H183 C175 0.929 . S
H184 C192 0.929 . S
H185 C194 0.930 . S
H186 C196 0.930 . S
H187 C199 0.929 . S
H188 C202 0.930 . S
H189 C204 0.960 . S
H190 C204 0.960 . S
H191 C204 0.960 . S
C192 H184 0.929 . S
C192 C193 1.377 . S
C192 C194 1.384 . S
C193 C192 1.377 . S
C193 C199 1.390 . S
C194 H185 0.930 . S
C194 C192 1.384 . S
C194 C195 1.372 . S
C195 C194 1.372 . S
C195 C196 1.400 . S
C195 C200 1.490 . S
C196 H186 0.930 . S
C196 C195 1.400 . S
C196 C199 1.386 . S
H197 C213 0.930 . S
H198 C214 0.931 . S
C199 H187 0.929 . S
C199 C193 1.390 . S
C199 C196 1.386 . S
C200 C195 1.490 . S
C200 C202 1.395 . S
C200 C203 1.403 . S
H201 C207 0.930 . S
C202 H188 0.930 . S
C202 C200 1.395 . S
C202 C205 1.403 . S
C203 C200 1.403 . S
C203 C204 1.524 . S
C203 C207 1.400 . S
C204 H189 0.960 . S
C204 H190 0.960 . S
C204 H191 0.960 . S
C204 C203 1.524 . S
C205 C202 1.403 . S
C205 C206 1.392 . S
C205 C209 1.495 . S
C206 C205 1.392 . S
C206 C207 1.385 . S
C206 C208 1.478 . S
C207 H201 0.930 . S
C207 C203 1.400 . S
C207 C206 1.385 . S
C208 C206 1.478 . S
C208 C210 1.381 . S
C208 C214 1.383 . S
C209 C205 1.495 . S
C209 H215 0.959 . S
C209 H216 0.961 . S
C209 H217 0.960 . S
C210 C208 1.381 . S
C210 C211 1.394 . S
C210 H218 0.930 . S
C211 C210 1.394 . S
C211 C212 1.383 . S
C211 H219 0.929 . S
C212 C211 1.383 . S
C212 C213 1.377 . S
C213 H197 0.930 . S
C213 C212 1.377 . S
C213 C214 1.379 . S
C214 H198 0.931 . S
C214 C208 1.383 . S
C214 C213 1.379 . S
H215 C209 0.959 . S
H216 C209 0.961 . S
H217 C209 0.960 . S
H218 C210 0.930 . S
H219 C211 0.929 . S
H220 C228 0.929 . S
H221 C230 0.930 . S
H222 C232 0.930 . S
H223 C235 0.929 . S
H224 C238 0.930 . S
H225 C240 0.960 . S
H226 C240 0.960 . S
H227 C240 0.960 . S
C228 H220 0.929 . S
C228 C229 1.377 . S
C228 C230 1.384 . S
C229 C228 1.377 . S
C229 C235 1.390 . S
C230 H221 0.930 . S
C230 C228 1.384 . S
C230 C231 1.372 . S
C231 C230 1.372 . S
C231 C232 1.400 . S
C231 C236 1.490 . S
C232 H222 0.930 . S
C232 C231 1.400 . S
C232 C235 1.386 . S
H233 C249 0.930 . S
H234 C250 0.931 . S
C235 H223 0.929 . S
C235 C229 1.390 . S
C235 C232 1.386 . S
C236 C231 1.490 . S
C236 C238 1.395 . S
C236 C239 1.403 . S
H237 C243 0.930 . S
C238 H224 0.930 . S
C238 C236 1.395 . S
C238 C241 1.403 . S
C239 C236 1.403 . S
C239 C240 1.524 . S
C239 C243 1.400 . S
C240 H225 0.960 . S
C240 H226 0.960 . S
C240 H227 0.960 . S
C240 C239 1.524 . S
C241 C238 1.403 . S
C241 C242 1.392 . S
C241 C245 1.495 . S
C242 C241 1.392 . S
C242 C243 1.385 . S
C242 C244 1.478 . S
C243 H237 0.930 . S
C243 C239 1.400 . S
C243 C242 1.385 . S
C244 C242 1.478 . S
C244 C246 1.381 . S
C244 C250 1.383 . S
C245 C241 1.495 . S
C245 H251 0.959 . S
C245 H252 0.961 . S
C245 H253 0.960 . S
C246 C244 1.381 . S
C246 C247 1.394 . S
C246 H254 0.930 . S
C247 C246 1.394 . S
C247 C248 1.383 . S
C247 H255 0.929 . S
C248 C247 1.383 . S
C248 C249 1.377 . S
C249 H233 0.930 . S
C249 C248 1.377 . S
C249 C250 1.379 . S
C250 H234 0.931 . S
C250 C244 1.383 . S
C250 C249 1.379 . S
H251 C245 0.959 . S
H252 C245 0.961 . S
H253 C245 0.960 . S
H254 C246 0.930 . S
H255 C247 0.929 . S
H256 C264 0.929 . S
H257 C266 0.930 . S
H258 C268 0.930 . S
H259 C271 0.929 . S
H260 C274 0.930 . S
H261 C276 0.960 . S
H262 C276 0.960 . S
H263 C276 0.960 . S
C264 H256 0.929 . S
C264 C265 1.377 . S
C264 C266 1.384 . S
C265 C264 1.377 . S
C265 C271 1.390 . S
C266 H257 0.930 . S
C266 C264 1.384 . S
C266 C267 1.372 . S
C267 C266 1.372 . S
C267 C268 1.400 . S
C267 C272 1.490 . S
C268 H258 0.930 . S
C268 C267 1.400 . S
C268 C271 1.386 . S
H269 C285 0.930 . S
H270 C286 0.931 . S
C271 H259 0.929 . S
C271 C265 1.390 . S
C271 C268 1.386 . S
C272 C267 1.490 . S
C272 C274 1.395 . S
C272 C275 1.403 . S
H273 C279 0.930 . S
C274 H260 0.930 . S
C274 C272 1.395 . S
C274 C277 1.403 . S
C275 C272 1.403 . S
C275 C276 1.524 . S
C275 C279 1.400 . S
C276 H261 0.960 . S
C276 H262 0.960 . S
C276 H263 0.960 . S
C276 C275 1.524 . S
C277 C274 1.403 . S
C277 C278 1.392 . S
C277 C281 1.495 . S
C278 C277 1.392 . S
C278 C279 1.385 . S
C278 C280 1.478 . S
C279 H273 0.930 . S
C279 C275 1.400 . S
C279 C278 1.385 . S
C280 C278 1.478 . S
C280 C282 1.381 . S
C280 C286 1.383 . S
C281 C277 1.495 . S
C281 H287 0.959 . S
C281 H288 0.961 . S
C281 H289 0.960 . S
C282 C280 1.381 . S
C282 C283 1.394 . S
C282 H290 0.930 . S
C283 C282 1.394 . S
C283 C284 1.383 . S
C283 H291 0.929 . S
C284 C283 1.383 . S
C284 C285 1.377 . S
C285 H269 0.930 . S
C285 C284 1.377 . S
C285 C286 1.379 . S
C286 H270 0.931 . S
C286 C280 1.383 . S
C286 C285 1.379 . S
H287 C281 0.959 . S
H288 C281 0.961 . S
H289 C281 0.960 . S
H290 C282 0.930 . S
H291 C283 0.929 . S
H292 C300 0.929 . S
H293 C302 0.930 . S
H294 C304 0.930 . S
H295 C307 0.929 . S
H296 C310 0.930 . S
H297 C312 0.960 . S
H298 C312 0.960 . S
H299 C312 0.960 . S
C300 H292 0.929 . S
C300 C301 1.377 . S
C300 C302 1.384 . S
C301 C300 1.377 . S
C301 C307 1.390 . S
C302 H293 0.930 . S
C302 C300 1.384 . S
C302 C303 1.372 . S
C303 C302 1.372 . S
C303 C304 1.400 . S
C303 C308 1.490 . S
C304 H294 0.930 . S
C304 C303 1.400 . S
C304 C307 1.386 . S
H305 C321 0.930 . S
H306 C322 0.931 . S
C307 H295 0.929 . S
C307 C301 1.390 . S
C307 C304 1.386 . S
C308 C303 1.490 . S
C308 C310 1.395 . S
C308 C311 1.403 . S
H309 C315 0.930 . S
C310 H296 0.930 . S
C310 C308 1.395 . S
C310 C313 1.403 . S
C311 C308 1.403 . S
C311 C312 1.524 . S
C311 C315 1.400 . S
C312 H297 0.960 . S
C312 H298 0.960 . S
C312 H299 0.960 . S
C312 C311 1.524 . S
C313 C310 1.403 . S
C313 C314 1.392 . S
C313 C317 1.495 . S
C314 C313 1.392 . S
C314 C315 1.385 . S
C314 C316 1.478 . S
C315 H309 0.930 . S
C315 C311 1.400 . S
C315 C314 1.385 . S
C316 C314 1.478 . S
C316 C318 1.381 . S
C316 C322 1.383 . S
C317 C313 1.495 . S
C317 H323 0.959 . S
C317 H324 0.961 . S
C317 H325 0.960 . S
C318 C316 1.381 . S
C318 C319 1.394 . S
C318 H326 0.930 . S
C319 C318 1.394 . S
C319 C320 1.383 . S
C319 H327 0.929 . S
C320 C319 1.383 . S
C320 C321 1.377 . S
C321 H305 0.930 . S
C321 C320 1.377 . S
C321 C322 1.379 . S
C322 H306 0.931 . S
C322 C316 1.383 . S
C322 C321 1.379 . S
H323 C317 0.959 . S
H324 C317 0.961 . S
H325 C317 0.960 . S
H326 C318 0.930 . S
H327 C319 0.929 . S
H328 C336 0.929 . S
H329 C338 0.930 . S
H330 C340 0.930 . S
H331 C343 0.929 . S
H332 C346 0.930 . S
H333 C348 0.960 . S
H334 C348 0.960 . S
H335 C348 0.960 . S
C336 H328 0.929 . S
C336 C337 1.377 . S
C336 C338 1.384 . S
C337 C336 1.377 . S
C337 C343 1.390 . S
C338 H329 0.930 . S
C338 C336 1.384 . S
C338 C339 1.372 . S
C339 C338 1.372 . S
C339 C340 1.400 . S
C339 C344 1.490 . S
C340 H330 0.930 . S
C340 C339 1.400 . S
C340 C343 1.386 . S
H341 C357 0.930 . S
H342 C358 0.931 . S
C343 H331 0.929 . S
C343 C337 1.390 . S
C343 C340 1.386 . S
C344 C339 1.490 . S
C344 C346 1.395 . S
C344 C347 1.403 . S
H345 C351 0.930 . S
C346 H332 0.930 . S
C346 C344 1.395 . S
C346 C349 1.403 . S
C347 C344 1.403 . S
C347 C348 1.524 . S
C347 C351 1.400 . S
C348 H333 0.960 . S
C348 H334 0.960 . S
C348 H335 0.960 . S
C348 C347 1.524 . S
C349 C346 1.403 . S
C349 C350 1.392 . S
C349 C353 1.495 . S
C350 C349 1.392 . S
C350 C351 1.385 . S
C350 C352 1.478 . S
C351 H345 0.930 . S
C351 C347 1.400 . S
C351 C350 1.385 . S
C352 C350 1.478 . S
C352 C354 1.381 . S
C352 C358 1.383 . S
C353 C349 1.495 . S
C353 H359 0.959 . S
C353 H360 0.961 . S
C353 H361 0.960 . S
C354 C352 1.381 . S
C354 C355 1.394 . S
C354 H362 0.930 . S
C355 C354 1.394 . S
C355 C356 1.383 . S
C355 H363 0.929 . S
C356 C355 1.383 . S
C356 C357 1.377 . S
C357 H341 0.930 . S
C357 C356 1.377 . S
C357 C358 1.379 . S
C358 H342 0.931 . S
C358 C352 1.383 . S
C358 C357 1.379 . S
H359 C353 0.959 . S
H360 C353 0.961 . S
H361 C353 0.960 . S
H362 C354 0.930 . S
H363 C355 0.929 . S
H364 C372 0.929 . S
H365 C374 0.930 . S
H366 C376 0.930 . S
H367 C379 0.929 . S
H368 C382 0.930 . S
H369 C384 0.960 . S
H370 C384 0.960 . S
H371 C384 0.960 . S
C372 H364 0.929 . S
C372 C373 1.377 . S
C372 C374 1.384 . S
C373 C372 1.377 . S
C373 C379 1.390 . S
C374 H365 0.930 . S
C374 C372 1.384 . S
C374 C375 1.372 . S
C375 C374 1.372 . S
C375 C376 1.400 . S
C375 C380 1.490 . S
C376 H366 0.930 . S
C376 C375 1.400 . S
C376 C379 1.386 . S
H377 C393 0.930 . S
H378 C394 0.931 . S
C379 H367 0.929 . S
C379 C373 1.390 . S
C379 C376 1.386 . S
C380 C375 1.490 . S
C380 C382 1.395 . S
C380 C383 1.403 . S
H381 C387 0.930 . S
C382 H368 0.930 . S
C382 C380 1.395 . S
C382 C385 1.403 . S
C383 C380 1.403 . S
C383 C384 1.524 . S
C383 C387 1.400 . S
C384 H369 0.960 . S
C384 H370 0.960 . S
C384 H371 0.960 . S
C384 C383 1.524 . S
C385 C382 1.403 . S
C385 C386 1.392 . S
C385 C389 1.495 . S
C386 C385 1.392 . S
C386 C387 1.385 . S
C386 C388 1.478 . S
C387 H381 0.930 . S
C387 C383 1.400 . S
C387 C386 1.385 . S
C388 C386 1.478 . S
C388 C390 1.381 . S
C388 C394 1.383 . S
C389 C385 1.495 . S
C389 H395 0.959 . S
C389 H396 0.961 . S
C389 H397 0.960 . S
C390 C388 1.381 . S
C390 C391 1.394 . S
C390 H398 0.930 . S
C391 C390 1.394 . S
C391 C392 1.383 . S
C391 H399 0.929 . S
C392 C391 1.383 . S
C392 C393 1.377 . S
C393 H377 0.930 . S
C393 C392 1.377 . S
C393 C394 1.379 . S
C394 H378 0.931 . S
C394 C388 1.383 . S
C394 C393 1.379 . S
H395 C389 0.959 . S
H396 C389 0.961 . S
H397 C389 0.960 . S
H398 C390 0.930 . S
H399 C391 0.929 . S
H400 C408 0.929 . S
H401 C410 0.930 . S
H402 C412 0.930 . S
H403 C415 0.929 . S
H404 C418 0.930 . S
H405 C420 0.960 . S
H406 C420 0.960 . S
H407 C420 0.960 . S
C408 H400 0.929 . S
C408 C409 1.377 . S
C408 C410 1.384 . S
C409 C408 1.377 . S
C409 C415 1.390 . S
C410 H401 0.930 . S
C410 C408 1.384 . S
C410 C411 1.372 . S
C411 C410 1.372 . S
C411 C412 1.400 . S
C411 C416 1.490 . S
C412 H402 0.930 . S
C412 C411 1.400 . S
C412 C415 1.386 . S
H413 C429 0.930 . S
H414 C430 0.931 . S
C415 H403 0.929 . S
C415 C409 1.390 . S
C415 C412 1.386 . S
C416 C411 1.490 . S
C416 C418 1.395 1_455 S
C416 C419 1.403 . S
H417 C423 0.930 . S
C418 H404 0.930 . S
C418 C416 1.395 1_655 S
C418 C421 1.403 . S
C419 C416 1.403 . S
C419 C420 1.524 . S
C419 C423 1.400 . S
C420 H405 0.960 . S
C420 H406 0.960 . S
C420 H407 0.960 . S
C420 C419 1.524 . S
C421 C418 1.403 . S
C421 C422 1.392 . S
C421 C425 1.495 . S
C422 C421 1.392 . S
C422 C423 1.385 1_655 S
C422 C424 1.478 . S
C423 H417 0.930 . S
C423 C419 1.400 . S
C423 C422 1.385 1_455 S
C424 C422 1.478 . S
C424 C426 1.381 . S
C424 C430 1.383 . S
C425 C421 1.495 . S
C425 H431 0.959 . S
C425 H432 0.961 . S
C425 H433 0.960 . S
C426 C424 1.381 . S
C426 C427 1.394 . S
C426 H434 0.930 . S
C427 C426 1.394 . S
C427 C428 1.383 . S
C427 H435 0.929 . S
C428 C427 1.383 . S
C428 C429 1.377 . S
C429 H413 0.930 . S
C429 C428 1.377 . S
C429 C430 1.379 . S
C430 H414 0.931 . S
C430 C424 1.383 . S
C430 C429 1.379 . S
H431 C425 0.959 . S
H432 C425 0.961 . S
H433 C425 0.960 . S
H434 C426 0.930 . S
H435 C427 0.929 . S
H436 C444 0.929 . S
H437 C446 0.930 . S
H438 C448 0.930 . S
H439 C451 0.929 . S
H440 C454 0.930 . S
H441 C456 0.960 . S
H442 C456 0.960 . S
H443 C456 0.960 . S
C444 H436 0.929 . S
C444 C445 1.377 . S
C444 C446 1.384 . S
C445 C444 1.377 . S
C445 C451 1.390 . S
C446 H437 0.930 . S
C446 C444 1.384 . S
C446 C447 1.372 . S
C447 C446 1.372 . S
C447 C448 1.400 . S
C447 C452 1.490 . S
C448 H438 0.930 . S
C448 C447 1.400 . S
C448 C451 1.386 . S
H449 C465 0.930 . S
H450 C466 0.931 . S
C451 H439 0.929 . S
C451 C445 1.390 . S
C451 C448 1.386 . S
C452 C447 1.490 . S
C452 C454 1.395 . S
C452 C455 1.403 . S
H453 C459 0.930 . S
C454 H440 0.930 . S
C454 C452 1.395 . S
C454 C457 1.403 . S
C455 C452 1.403 . S
C455 C456 1.524 . S
C455 C459 1.400 . S
C456 H441 0.960 . S
C456 H442 0.960 . S
C456 H443 0.960 . S
C456 C455 1.524 . S
C457 C454 1.403 . S
C457 C458 1.392 . S
C457 C461 1.495 . S
C458 C457 1.392 . S
C458 C459 1.385 . S
C458 C460 1.478 . S
C459 H453 0.930 . S
C459 C455 1.400 . S
C459 C458 1.385 . S
C460 C458 1.478 . S
C460 C462 1.381 . S
C460 C466 1.383 . S
C461 C457 1.495 . S
C461 H467 0.959 . S
C461 H468 0.961 . S
C461 H469 0.960 . S
C462 C460 1.381 . S
C462 C463 1.394 . S
C462 H470 0.930 . S
C463 C462 1.394 . S
C463 C464 1.383 . S
C463 H471 0.929 . S
C464 C463 1.383 . S
C464 C465 1.377 . S
C465 H449 0.930 . S
C465 C464 1.377 . S
C465 C466 1.379 . S
C466 H450 0.931 . S
C466 C460 1.383 . S
C466 C465 1.379 . S
H467 C461 0.959 . S
H468 C461 0.961 . S
H469 C461 0.960 . S
H470 C462 0.930 . S
H471 C463 0.929 . S
H472 C480 0.929 . S
H473 C482 0.930 . S
H474 C484 0.930 . S
H475 C487 0.929 . S
H476 C490 0.930 . S
H477 C492 0.960 . S
H478 C492 0.960 . S
H479 C492 0.960 . S
C480 H472 0.929 . S
C480 C481 1.377 . S
C480 C482 1.384 . S
C481 C480 1.377 . S
C481 C487 1.390 . S
C482 H473 0.930 . S
C482 C480 1.384 . S
C482 C483 1.372 . S
C483 C482 1.372 . S
C483 C484 1.400 . S
C483 C488 1.490 . S
C484 H474 0.930 . S
C484 C483 1.400 . S
C484 C487 1.386 . S
H485 C501 0.930 . S
H486 C502 0.931 . S
C487 H475 0.929 . S
C487 C481 1.390 . S
C487 C484 1.386 . S
C488 C483 1.490 . S
C488 C490 1.395 1_455 S
C488 C491 1.403 . S
H489 C495 0.930 . S
C490 H476 0.930 . S
C490 C488 1.395 1_655 S
C490 C493 1.403 . S
C491 C488 1.403 . S
C491 C492 1.524 . S
C491 C495 1.400 . S
C492 H477 0.960 . S
C492 H478 0.960 . S
C492 H479 0.960 . S
C492 C491 1.524 . S
C493 C490 1.403 . S
C493 C494 1.392 . S
C493 C497 1.495 . S
C494 C493 1.392 . S
C494 C495 1.385 1_655 S
C494 C496 1.478 . S
C495 H489 0.930 . S
C495 C491 1.400 . S
C495 C494 1.385 1_455 S
C496 C494 1.478 . S
C496 C498 1.381 . S
C496 C502 1.383 . S
C497 C493 1.495 . S
C497 H503 0.959 . S
C497 H504 0.961 . S
C497 H505 0.960 . S
C498 C496 1.381 . S
C498 C499 1.394 . S
C498 H506 0.930 . S
C499 C498 1.394 . S
C499 C500 1.383 . S
C499 H507 0.929 . S
C500 C499 1.383 . S
C500 C501 1.377 . S
C501 H485 0.930 . S
C501 C500 1.377 . S
C501 C502 1.379 . S
C502 H486 0.931 . S
C502 C496 1.383 . S
C502 C501 1.379 . S
H503 C497 0.959 . S
H504 C497 0.961 . S
H505 C497 0.960 . S
H506 C498 0.930 . S
H507 C499 0.929 . S
H508 C516 0.929 . S
H509 C518 0.930 . S
H510 C520 0.930 . S
H511 C523 0.929 . S
H512 C526 0.930 . S
H513 C528 0.960 . S
H514 C528 0.960 . S
H515 C528 0.960 . S
C516 H508 0.929 . S
C516 C517 1.377 . S
C516 C518 1.384 . S
C517 C516 1.377 . S
C517 C523 1.390 . S
C518 H509 0.930 . S
C518 C516 1.384 . S
C518 C519 1.372 . S
C519 C518 1.372 . S
C519 C520 1.400 . S
C519 C524 1.490 . S
C520 H510 0.930 . S
C520 C519 1.400 . S
C520 C523 1.386 . S
H521 C537 0.930 . S
H522 C538 0.931 . S
C523 H511 0.929 . S
C523 C517 1.390 . S
C523 C520 1.386 . S
C524 C519 1.490 . S
C524 C526 1.395 . S
C524 C527 1.403 . S
H525 C531 0.930 . S
C526 H512 0.930 . S
C526 C524 1.395 . S
C526 C529 1.403 . S
C527 C524 1.403 . S
C527 C528 1.524 . S
C527 C531 1.400 . S
C528 H513 0.960 . S
C528 H514 0.960 . S
C528 H515 0.960 . S
C528 C527 1.524 . S
C529 C526 1.403 . S
C529 C530 1.392 . S
C529 C533 1.495 . S
C530 C529 1.392 . S
C530 C531 1.385 . S
C530 C532 1.478 . S
C531 H525 0.930 . S
C531 C527 1.400 . S
C531 C530 1.385 . S
C532 C530 1.478 . S
C532 C534 1.381 . S
C532 C538 1.383 . S
C533 C529 1.495 . S
C533 H539 0.959 . S
C533 H540 0.961 . S
C533 H541 0.960 . S
C534 C532 1.381 . S
C534 C535 1.394 . S
C534 H542 0.930 . S
C535 C534 1.394 . S
C535 C536 1.383 . S
C535 H543 0.929 . S
C536 C535 1.383 . S
C536 C537 1.377 . S
C537 H521 0.930 . S
C537 C536 1.377 . S
C537 C538 1.379 . S
C538 H522 0.931 . S
C538 C532 1.383 . S
C538 C537 1.379 . S
H539 C533 0.959 . S
H540 C533 0.961 . S
H541 C533 0.960 . S
H542 C534 0.930 . S
H543 C535 0.929 . S
H544 C552 0.929 . S
H545 C554 0.930 . S
H546 C556 0.930 . S
H547 C559 0.929 . S
H548 C562 0.930 . S
H549 C564 0.960 . S
H550 C564 0.960 1_554 S
H551 C564 0.960 . S
C552 H544 0.929 . S
C552 C553 1.377 . S
C552 C554 1.384 . S
C553 C552 1.377 . S
C553 C559 1.390 1_554 S
C554 H545 0.930 . S
C554 C552 1.384 . S
C554 C555 1.372 . S
C555 C554 1.372 . S
C555 C556 1.400 1_554 S
C555 C560 1.490 . S
C556 H546 0.930 . S
C556 C555 1.400 1_556 S
C556 C559 1.386 . S
H557 C573 0.930 . S
H558 C574 0.931 . S
C559 H547 0.929 . S
C559 C553 1.390 1_556 S
C559 C556 1.386 . S
C560 C555 1.490 . S
C560 C562 1.395 1_455 S
C560 C563 1.403 1_544 S
H561 C567 0.930 . S
C562 H548 0.930 . S
C562 C560 1.395 1_655 S
C562 C565 1.403 . S
C563 C560 1.403 1_566 S
C563 C564 1.524 . S
C563 C567 1.400 . S
C564 H549 0.960 . S
C564 H550 0.960 1_556 S
C564 H551 0.960 . S
C564 C563 1.524 . S
C565 C562 1.403 . S
C565 C566 1.392 1_544 S
C565 C569 1.495 . S
C566 C565 1.392 1_566 S
C566 C567 1.385 1_655 S
C566 C568 1.478 . S
C567 H561 0.930 . S
C567 C563 1.400 . S
C567 C566 1.385 1_455 S
C568 C566 1.478 . S
C568 C570 1.381 1_556 S
C568 C574 1.383 . S
C569 C565 1.495 . S
C569 H575 0.959 . S
C569 H576 0.961 1_554 S
C569 H577 0.960 . S
C570 C568 1.381 1_554 S
C570 C571 1.394 . S
C570 H578 0.930 . S
C571 C570 1.394 . S
C571 C572 1.383 1_554 S
C571 H579 0.929 . S
C572 C571 1.383 1_556 S
C572 C573 1.377 . S
C573 H557 0.930 . S
C573 C572 1.377 . S
C573 C574 1.379 . S
C574 H558 0.931 . S
C574 C568 1.383 . S
C574 C573 1.379 . S
H575 C569 0.959 . S
H576 C569 0.961 1_556 S
H577 C569 0.960 . S
H578 C570 0.930 . S
H579 C571 0.929 . S
H580 C588 0.929 . S
H581 C590 0.930 . S
H582 C592 0.930 . S
H583 C595 0.929 . S
H584 C598 0.930 . S
H585 C600 0.960 . S
H586 C600 0.960 . S
H587 C600 0.960 . S
C588 H580 0.929 . S
C588 C589 1.377 . S
C588 C590 1.384 . S
C589 C588 1.377 . S
C589 C595 1.390 . S
C590 H581 0.930 . S
C590 C588 1.384 . S
C590 C591 1.372 . S
C591 C590 1.372 . S
C591 C592 1.400 . S
C591 C596 1.490 . S
C592 H582 0.930 . S
C592 C591 1.400 . S
C592 C595 1.386 . S
H593 C609 0.930 . S
H594 C610 0.931 . S
C595 H583 0.929 . S
C595 C589 1.390 . S
C595 C592 1.386 . S
C596 C591 1.490 . S
C596 C598 1.395 . S
C596 C599 1.403 . S
H597 C603 0.930 . S
C598 H584 0.930 . S
C598 C596 1.395 . S
C598 C601 1.403 . S
C599 C596 1.403 . S
C599 C600 1.524 . S
C599 C603 1.400 . S
C600 H585 0.960 . S
C600 H586 0.960 . S
C600 H587 0.960 . S
C600 C599 1.524 . S
C601 C598 1.403 . S
C601 C602 1.392 . S
C601 C605 1.495 . S
C602 C601 1.392 . S
C602 C603 1.385 . S
C602 C604 1.478 . S
C603 H597 0.930 . S
C603 C599 1.400 . S
C603 C602 1.385 . S
C604 C602 1.478 . S
C604 C606 1.381 . S
C604 C610 1.383 . S
C605 C601 1.495 . S
C605 H611 0.959 . S
C605 H612 0.961 . S
C605 H613 0.960 . S
C606 C604 1.381 . S
C606 C607 1.394 . S
C606 H614 0.930 . S
C607 C606 1.394 . S
C607 C608 1.383 . S
C607 H615 0.929 . S
C608 C607 1.383 . S
C608 C609 1.377 . S
C609 H593 0.930 . S
C609 C608 1.377 . S
C609 C610 1.379 . S
C610 H594 0.931 . S
C610 C604 1.383 . S
C610 C609 1.379 . S
H611 C605 0.959 . S
H612 C605 0.961 . S
H613 C605 0.960 . S
H614 C606 0.930 . S
H615 C607 0.929 . S
H616 C624 0.929 . S
H617 C626 0.930 1_556 S
H618 C628 0.930 . S
H619 C631 0.929 . S
H620 C634 0.930 . S
H621 C636 0.960 . S
H622 C636 0.960 . S
H623 C636 0.960 . S
C624 H616 0.929 . S
C624 C625 1.377 . S
C624 C626 1.384 . S
C625 C624 1.377 . S
C625 C631 1.390 . S
C626 H617 0.930 1_554 S
C626 C624 1.384 . S
C626 C627 1.372 . S
C627 C626 1.372 . S
C627 C628 1.400 . S
C627 C632 1.490 . S
C628 H618 0.930 . S
C628 C627 1.400 . S
C628 C631 1.386 . S
H629 C645 0.930 1_554 S
H630 C646 0.931 . S
C631 H619 0.929 . S
C631 C625 1.390 . S
C631 C628 1.386 . S
C632 C627 1.490 . S
C632 C634 1.395 . S
C632 C635 1.403 1_554 S
H633 C639 0.930 . S
C634 H620 0.930 . S
C634 C632 1.395 . S
C634 C637 1.403 . S
C635 C632 1.403 1_556 S
C635 C636 1.524 . S
C635 C639 1.400 . S
C636 H621 0.960 . S
C636 H622 0.960 . S
C636 H623 0.960 . S
C636 C635 1.524 . S
C637 C634 1.403 . S
C637 C638 1.392 1_554 S
C637 C641 1.495 . S
C638 C637 1.392 1_556 S
C638 C639 1.385 . S
C638 C640 1.478 . S
C639 H633 0.930 . S
C639 C635 1.400 . S
C639 C638 1.385 . S
C640 C638 1.478 . S
C640 C642 1.381 . S
C640 C646 1.383 1_556 S
C641 C637 1.495 . S
C641 H647 0.959 . S
C641 H648 0.961 . S
C641 H649 0.960 . S
C642 C640 1.381 . S
C642 C643 1.394 . S
C642 H650 0.930 . S
C643 C642 1.394 . S
C643 C644 1.383 . S
C643 H651 0.929 . S
C644 C643 1.383 . S
C644 C645 1.377 . S
C645 H629 0.930 1_556 S
C645 C644 1.377 . S
C645 C646 1.379 1_556 S
C646 H630 0.931 . S
C646 C640 1.383 1_554 S
C646 C645 1.379 1_554 S
H647 C641 0.959 . S
H648 C641 0.961 . S
H649 C641 0.960 . S
H650 C642 0.930 . S
H651 C643 0.929 . S
H652 C660 0.929 . S
H653 C662 0.930 . S
H654 C664 0.930 . S
H655 C667 0.929 . S
H656 C670 0.930 . S
H657 C672 0.960 1_655 S
H658 C672 0.960 . S
H659 C672 0.960 . S
C660 H652 0.929 . S
C660 C661 1.377 . S
C660 C662 1.384 . S
C661 C660 1.377 . S
C661 C667 1.390 . S
C662 H653 0.930 . S
C662 C660 1.384 . S
C662 C663 1.372 . S
C663 C662 1.372 . S
C663 C664 1.400 . S
C663 C668 1.490 . S
C664 H654 0.930 . S
C664 C663 1.400 . S
C664 C667 1.386 . S
H665 C681 0.930 . S
H666 C682 0.931 . S
C667 H655 0.929 . S
C667 C661 1.390 . S
C667 C664 1.386 . S
C668 C663 1.490 . S
C668 C670 1.395 . S
C668 C671 1.403 . S
H669 C675 0.930 . S
C670 H656 0.930 . S
C670 C668 1.395 . S
C670 C673 1.403 1_565 S
C671 C668 1.403 . S
C671 C672 1.524 . S
C671 C675 1.400 1_465 S
C672 H657 0.960 1_455 S
C672 H658 0.960 . S
C672 H659 0.960 . S
C672 C671 1.524 . S
C673 C670 1.403 1_545 S
C673 C674 1.393 1_455 S
C673 C677 1.494 1_455 S
C674 C673 1.393 1_655 S
C674 C675 1.385 . S
C674 C676 1.478 . S
C675 H669 0.930 . S
C675 C671 1.400 1_645 S
C675 C674 1.385 . S
C676 C674 1.478 . S
C676 C678 1.381 . S
C676 C682 1.383 . S
C677 C673 1.494 1_655 S
C677 H683 0.931 1_655 S
C677 H684 1.000 . S
C677 H685 0.952 1_655 S
C678 C676 1.381 . S
C678 C679 1.394 . S
C678 H686 0.930 . S
C679 C678 1.394 . S
C679 C680 1.383 . S
C679 H687 0.929 . S
C680 C679 1.383 . S
C680 C681 1.377 . S
C681 H665 0.930 . S
C681 C680 1.377 . S
C681 C682 1.379 . S
C682 H666 0.931 . S
C682 C676 1.383 . S
C682 C681 1.379 . S
H683 C677 0.931 1_455 S
H684 C677 1.000 . S
H685 C677 0.952 1_455 S
H686 C678 0.930 . S
H687 C679 0.929 . S
C121 C23 1.659 . S
C140 C11 1.637 1_556 S
C157 C9 1.660 . S
C176 C25 1.647 . S
C193 C51 1.659 . S
C212 C39 1.634 1_554 S
C229 C37 1.659 . S
C248 C53 1.636 . S
C265 C67 1.648 1_554 S
C284 C79 1.654 . S
C301 C81 1.644 . S
C320 C65 1.658 . S
C337 C95 1.645 1_556 S
C356 C107 1.656 . S
C373 C93 1.659 . S
C392 C109 1.652 . S
C409 C5 0.417 . S
C428 C47 0.331 . S
C445 C19 0.389 . S
C464 C33 0.471 . S
C481 C103 0.379 . S
C500 C61 0.353 . S
C517 C89 0.417 . S
C536 C75 0.483 . S
C553 C0 1.531 . S
C572 C56 1.542 . S
C589 C70 1.536 . S
C608 C14 1.538 . S
C625 C84 1.536 . S
C644 C28 1.547 . S
C661 C98 1.532 . S
C680 C42 1.512 . S
