# Generated by pormake.
# Topology uob, (4)-cn, num edge types: 1
# Building blocks:
#     Node 0, Type 0, BuildingBlock: TATPOV_clean_sbu_0, # of connection points: 4
#     Node 1, Type 0, BuildingBlock: TATPOV_clean_sbu_0, # of connection points: 4
#     Node 2, Type 0, BuildingBlock: TATPOV_clean_sbu_0, # of connection points: 4
#     Node 3, Type 0, BuildingBlock: TATPOV_clean_sbu_0, # of connection points: 4
#     Node 4, Type 0, BuildingBlock: TATPOV_clean_sbu_0, # of connection points: 4
#     Node 5, Type 0, BuildingBlock: TATPOV_clean_sbu_0, # of connection points: 4
#     Node 6, Type 0, BuildingBlock: TATPOV_clean_sbu_0, # of connection points: 4
#     Node 7, Type 0, BuildingBlock: TATPOV_clean_sbu_0, # of connection points: 4
#     Node 8, Type 0, BuildingBlock: TATPOV_clean_sbu_0, # of connection points: 4
#     Node 9, Type 0, BuildingBlock: TATPOV_clean_sbu_0, # of connection points: 4
#     Node 10, Type 0, BuildingBlock: TATPOV_clean_sbu_0, # of connection points: 4
#     Node 11, Type 0, BuildingBlock: TATPOV_clean_sbu_0, # of connection points: 4
#     Node 12, Type 0, BuildingBlock: TATPOV_clean_sbu_0, # of connection points: 4
#     Node 13, Type 0, BuildingBlock: TATPOV_clean_sbu_0, # of connection points: 4
#     Node 14, Type 0, BuildingBlock: TATPOV_clean_sbu_0, # of connection points: 4
#     Node 15, Type 0, BuildingBlock: TATPOV_clean_sbu_0, # of connection points: 4
#     Edge 16, Type (0, 0), BuildingBlock: ZUJKAS_clean_linker_0, # of connection points: 2
#     Edge 17, Type (0, 0), BuildingBlock: ZUJKAS_clean_linker_0, # of connection points: 2
#     Edge 18, Type (0, 0), BuildingBlock: ZUJKAS_clean_linker_0, # of connection points: 2
#     Edge 19, Type (0, 0), BuildingBlock: ZUJKAS_clean_linker_0, # of connection points: 2
#     Edge 20, Type (0, 0), BuildingBlock: ZUJKAS_clean_linker_0, # of connection points: 2
#     Edge 21, Type (0, 0), BuildingBlock: ZUJKAS_clean_linker_0, # of connection points: 2
#     Edge 22, Type (0, 0), BuildingBlock: ZUJKAS_clean_linker_0, # of connection points: 2
#     Edge 23, Type (0, 0), BuildingBlock: ZUJKAS_clean_linker_0, # of connection points: 2
#     Edge 24, Type (0, 0), BuildingBlock: ZUJKAS_clean_linker_0, # of connection points: 2
#     Edge 25, Type (0, 0), BuildingBlock: ZUJKAS_clean_linker_0, # of connection points: 2
#     Edge 26, Type (0, 0), BuildingBlock: ZUJKAS_clean_linker_0, # of connection points: 2
#     Edge 27, Type (0, 0), BuildingBlock: ZUJKAS_clean_linker_0, # of connection points: 2
#     Edge 28, Type (0, 0), BuildingBlock: ZUJKAS_clean_linker_0, # of connection points: 2
#     Edge 29, Type (0, 0), BuildingBlock: ZUJKAS_clean_linker_0, # of connection points: 2
#     Edge 30, Type (0, 0), BuildingBlock: ZUJKAS_clean_linker_0, # of connection points: 2
#     Edge 31, Type (0, 0), BuildingBlock: ZUJKAS_clean_linker_0, # of connection points: 2
#     Edge 32, Type (0, 0), BuildingBlock: ZUJKAS_clean_linker_0, # of connection points: 2
#     Edge 33, Type (0, 0), BuildingBlock: ZUJKAS_clean_linker_0, # of connection points: 2
#     Edge 34, Type (0, 0), BuildingBlock: ZUJKAS_clean_linker_0, # of connection points: 2
#     Edge 35, Type (0, 0), BuildingBlock: ZUJKAS_clean_linker_0, # of connection points: 2
#     Edge 36, Type (0, 0), BuildingBlock: ZUJKAS_clean_linker_0, # of connection points: 2
#     Edge 37, Type (0, 0), BuildingBlock: ZUJKAS_clean_linker_0, # of connection points: 2
#     Edge 38, Type (0, 0), BuildingBlock: ZUJKAS_clean_linker_0, # of connection points: 2
#     Edge 39, Type (0, 0), BuildingBlock: ZUJKAS_clean_linker_0, # of connection points: 2
#     Edge 40, Type (0, 0), BuildingBlock: ZUJKAS_clean_linker_0, # of connection points: 2
#     Edge 41, Type (0, 0), BuildingBlock: ZUJKAS_clean_linker_0, # of connection points: 2
#     Edge 42, Type (0, 0), BuildingBlock: ZUJKAS_clean_linker_0, # of connection points: 2
#     Edge 43, Type (0, 0), BuildingBlock: ZUJKAS_clean_linker_0, # of connection points: 2
#     Edge 44, Type (0, 0), BuildingBlock: ZUJKAS_clean_linker_0, # of connection points: 2
#     Edge 45, Type (0, 0), BuildingBlock: ZUJKAS_clean_linker_0, # of connection points: 2
#     Edge 46, Type (0, 0), BuildingBlock: ZUJKAS_clean_linker_0, # of connection points: 2
#     Edge 47, Type (0, 0), BuildingBlock: ZUJKAS_clean_linker_0, # of connection points: 2
# Relax obj value: 0.256
# Max RMSD: 0.952
# Mean RMSD: 0.346
data_MOF--net-uob--node1-TATPOV_clean_sbu_0--edge1-ZUJKAS_clean_linker_0
_symmetry_space_group_name_H-M    P1
_symmetry_Int_Tables_number       1
_symmetry_cell_setting            triclinic
loop_
_symmetry_equiv_pos_as_xyz
'x, y, z'
_cell_length_a     62.196894
_cell_length_b     62.115977
_cell_length_c     32.702919
_cell_angle_alpha  90.260326
_cell_angle_beta   89.734244
_cell_angle_gamma 136.57028
loop_
_atom_site_label
_atom_site_type_symbol
_atom_site_fract_x
_atom_site_fract_y
_atom_site_fract_z
_atom_type_partial_charge
Zn0 Zn 0.9986 0.9703 0.29079 0.0
Zn1 Zn 0.0404 0.96891 0.3071 0.0
O2 O 0.04965 0.98117 0.24647 0.0
O3 O 0.01382 0.97951 0.23219 0.0
O4 O 0.07163 0.96967 0.32661 0.0
O5 O 0.02051 0.00694 0.32893 0.0
O6 O 0.05319 0.00421 0.3416 0.0
C7 C 0.03657 0.98431 0.22107 0.0
C8 C 0.97025 0.91103 0.32211 0.0
O9 O 0.99799 0.92382 0.32051 0.0
O10 O 0.9645 0.92601 0.31172 0.0
C11 C 0.078 0.95617 0.31052 0.0
O12 O 0.06407 0.94027 0.27641 0.0
C13 C 0.04445 0.01724 0.3471 0.0
Zn14 Zn 0.84387 0.50469 0.46014 0.0
Zn15 Zn 0.884 0.55794 0.50701 0.0
O16 O 0.90303 0.58065 0.45364 0.0
O17 O 0.86177 0.53997 0.4182 0.0
O18 O 0.90044 0.58886 0.5528 0.0
O19 O 0.81325 0.48883 0.50841 0.0
O20 O 0.83998 0.53757 0.50544 0.0
C21 C 0.88755 0.569 0.42043 0.0
C22 C 0.88802 0.51115 0.50304 0.0
O23 O 0.89292 0.53241 0.52214 0.0
O24 O 0.87072 0.49826 0.4716 0.0
C25 C 0.89692 0.60633 0.54622 0.0
O26 O 0.88916 0.60681 0.50918 0.0
C27 C 0.81758 0.51097 0.521 0.0
Zn28 Zn 0.53562 0.56312 0.76968 0.0
Zn29 Zn 0.4941 0.56311 0.78138 0.0
O30 O 0.47649 0.5338 0.73071 0.0
O31 O 0.50899 0.52997 0.72796 0.0
O32 O 0.46345 0.56501 0.79309 0.0
O33 O 0.53124 0.55086 0.82814 0.0
O34 O 0.49117 0.54373 0.83419 0.0
C35 C 0.48465 0.52164 0.71535 0.0
C36 C 0.56461 0.6238 0.76662 0.0
O37 O 0.53742 0.60951 0.77886 0.0
O38 O 0.56956 0.60834 0.75466 0.0
C39 C 0.46976 0.58951 0.78924 0.0
O40 O 0.49687 0.61493 0.77376 0.0
C41 C 0.50892 0.54224 0.84914 0.0
Zn42 Zn 0.69452 1.0008 0.16769 0.0
Zn43 Zn 0.63443 0.94 0.15783 0.0
O44 O 0.65233 0.94252 0.10514 0.0
O45 O 0.68584 0.99366 0.10329 0.0
O46 O 0.5899 0.89619 0.16005 0.0
O47 O 0.67009 0.98486 0.22368 0.0
O48 O 0.65464 0.9417 0.2075 0.0
C49 C 0.67079 0.96782 0.08509 0.0
C50 C 0.6497 0.99829 0.14054 0.0
O51 O 0.63065 0.97092 0.15643 0.0
O52 O 0.67763 0.01288 0.13241 0.0
C53 C 0.58283 0.87229 0.17276 0.0
O54 O 0.5533 0.84557 0.1774 0.0
C55 C 0.65867 0.95874 0.23473 0.0
Zn56 Zn 0.14774 0.53053 0.10223 0.0
Zn57 Zn 0.23528 0.58915 0.06135 0.0
O58 O 0.24216 0.58849 0.12287 0.0
O59 O 0.19481 0.56436 0.11335 0.0
O60 O 0.27067 0.60267 0.02774 0.0
O61 O 0.14458 0.50308 0.0614 0.0
O62 O 0.19574 0.54176 0.0451 0.0
C63 C 0.21444 0.56945 0.13647 0.0
C64 C 0.19929 0.5987 0.05945 0.0
O65 O 0.22716 0.61555 0.04782 0.0
O66 O 0.18652 0.57397 0.0785 0.0
C67 C 0.27697 0.58752 0.03374 0.0
O68 O 0.26198 0.56632 0.06281 0.0
C69 C 0.16845 0.51344 0.0415 0.0
Zn70 Zn 0.94186 0.94896 0.2856 0.0
Zn71 Zn 0.89984 0.94903 0.29417 0.0
O72 O 0.91551 0.95756 0.35369 0.0
O73 O 0.95064 0.95749 0.3452 0.0
O74 O 0.86542 0.9464 0.29458 0.0
O75 O 0.9678 0.98485 0.24782 0.0
O76 O 0.93138 0.98333 0.25071 0.0
C77 C 0.93616 0.95993 0.36831 0.0
C78 C 0.88146 0.88961 0.26725 0.0
O79 O 0.87495 0.90402 0.27838 0.0
O80 O 0.90972 0.90419 0.26509 0.0
C81 C 0.85322 0.94134 0.2599 0.0
O82 O 0.86461 0.9398 0.22746 0.0
C83 C 0.95734 0.99528 0.23652 0.0
Zn84 Zn 0.43051 0.09249 0.56193 0.0
Zn85 Zn 0.36866 0.04634 0.55604 0.0
O86 O 0.37457 0.06739 0.61018 0.0
O87 O 0.42553 0.10991 0.60794 0.0
O88 O 0.32246 0.01497 0.54457 0.0
O89 O 0.43612 0.10844 0.50577 0.0
O90 O 0.38493 0.07437 0.50584 0.0
C91 C 0.39917 0.09417 0.62427 0.0
C92 C 0.40571 0.0314 0.56541 0.0
O93 O 0.37982 0.02189 0.55742 0.0
O94 O 0.43022 0.06025 0.57123 0.0
C95 C 0.31269 0.00147 0.50986 0.0
O96 O 0.33201 0.00493 0.48578 0.0
C97 C 0.4113 0.09695 0.48901 0.0
Zn98 Zn 0.68199 0.67935 0.78633 0.0
Zn99 Zn 0.7183 0.67049 0.78569 0.0
O100 O 0.70001 0.65601 0.84442 0.0
O101 O 0.6693 0.66222 0.84304 0.0
O102 O 0.74838 0.66727 0.7797 0.0
O103 O 0.6565 0.6492 0.74064 0.0
O104 O 0.68558 0.64108 0.73974 0.0
C105 C 0.68 0.65378 0.86165 0.0
C106 C 0.74535 0.73605 0.77218 0.0
O107 O 0.74819 0.71779 0.77594 0.0
O108 O 0.71871 0.72535 0.77526 0.0
C109 C 0.74775 0.64862 0.79738 0.0
O110 O 0.72534 0.62814 0.8237 0.0
C111 C 0.66258 0.63523 0.72595 0.0
Zn112 Zn 0.92314 0.89636 0.83379 0.0
Zn113 Zn 0.92717 0.86238 0.85327 0.0
O114 O 0.93759 0.86863 0.79114 0.0
O115 O 0.91553 0.88342 0.77566 0.0
O116 O 0.92802 0.83192 0.87232 0.0
O117 O 0.96575 0.93608 0.85106 0.0
O118 O 0.95973 0.903 0.88895 0.0
C119 C 0.92746 0.87444 0.76452 0.0
C120 C 0.86963 0.84751 0.874 0.0
O121 O 0.88089 0.83729 0.86479 0.0
O122 O 0.8866 0.87632 0.86995 0.0
C123 C 0.91136 0.80606 0.85325 0.0
O124 O 0.89551 0.80079 0.82104 0.0
C125 C 0.97414 0.93108 0.88134 0.0
Zn126 Zn 0.50669 0.13441 0.04196 0.0
Zn127 Zn 0.55323 0.19566 0.0651 0.0
O128 O 0.54532 0.19935 0.00598 0.0
O129 O 0.50725 0.14963 0.98773 0.0
O130 O 0.58283 0.2398 0.0871 0.0
O131 O 0.47798 0.12445 0.08667 0.0
O132 O 0.51534 0.17492 0.10039 0.0
C133 C 0.52567 0.17839 0.9796 0.0
C134 C 0.56331 0.15385 0.06566 0.0
O135 O 0.57358 0.18019 0.07379 0.0
O136 O 0.53611 0.13142 0.05136 0.0
C137 C 0.58571 0.24369 0.12568 0.0
O138 O 0.57361 0.21989 0.14909 0.0
C139 C 0.48792 0.1478 0.10652 0.0
Zn140 Zn 0.57634 0.57834 0.32158 0.0
Zn141 Zn 0.57304 0.6395 0.32893 0.0
O142 O 0.56478 0.62993 0.26668 0.0
O143 O 0.56646 0.59974 0.29318 0.0
O144 O 0.58172 0.67711 0.34381 0.0
O145 O 0.54608 0.58142 0.33049 0.0
O146 O 0.53807 0.60347 0.36762 0.0
C147 C 0.56739 0.61172 0.26101 0.0
C148 C 0.62967 0.64528 0.34941 0.0
O149 O 0.61375 0.65097 0.34264 0.0
O150 O 0.61851 0.61812 0.34525 0.0
C151 C 0.58542 0.69559 0.31955 0.0
O152 O 0.58375 0.69107 0.27991 0.0
C153 C 0.53628 0.58189 0.36423 0.0
Zn154 Zn 0.11492 0.46194 0.58447 0.0
Zn155 Zn 0.06915 0.40004 0.58731 0.0
O156 O 0.0904 0.40882 0.53195 0.0
O157 O 0.13268 0.45973 0.53546 0.0
O158 O 0.0402 0.35373 0.59621 0.0
O159 O 0.13149 0.46706 0.63991 0.0
O160 O 0.09675 0.41577 0.63803 0.0
C161 C 0.11651 0.4339 0.51706 0.0
C162 C 0.0526 0.43544 0.58037 0.0
O163 O 0.04293 0.40922 0.58649 0.0
O164 O 0.08162 0.46032 0.57718 0.0
C165 C 0.02785 0.3425 0.63138 0.0
O166 O 0.02944 0.35974 0.65755 0.0
C167 C 0.11939 0.44171 0.65573 0.0
Zn168 Zn 0.46918 0.81576 0.65097 0.0
Zn169 Zn 0.5279 0.86007 0.60265 0.0
O170 O 0.5484 0.87772 0.65729 0.0
O171 O 0.50619 0.83683 0.69216 0.0
O172 O 0.55925 0.87387 0.55912 0.0
O173 O 0.45284 0.78465 0.60245 0.0
O174 O 0.50164 0.81479 0.6097 0.0
C175 C 0.53539 0.86252 0.69065 0.0
C176 C 0.4821 0.86507 0.60523 0.0
O177 O 0.5048 0.87167 0.58777 0.0
O178 O 0.46662 0.84503 0.63385 0.0
C179 C 0.57479 0.86833 0.5678 0.0
O180 O 0.57228 0.85865 0.6049 0.0
C181 C 0.47769 0.79495 0.58785 0.0
Zn182 Zn 0.10345 0.10529 0.76023 0.0
Zn183 Zn 0.08031 0.12734 0.77823 0.0
O184 O 0.10093 0.13245 0.83263 0.0
O185 O 0.12131 0.11583 0.81604 0.0
O186 O 0.06757 0.14938 0.78539 0.0
O187 O 0.13007 0.13554 0.71451 0.0
O188 O 0.10687 0.14968 0.72592 0.0
C189 C 0.11615 0.12659 0.84242 0.0
C190 C 0.03548 0.05844 0.75659 0.0
O191 O 0.04001 0.08118 0.76767 0.0
O192 O 0.05858 0.0628 0.75057 0.0
C193 C 0.03977 0.13631 0.78223 0.0
O194 O 0.01648 0.1057 0.77897 0.0
C195 C 0.12554 0.15168 0.70488 0.0
Zn196 Zn 0.99029 0.67396 0.95156 0.0
Zn197 Zn 0.94222 0.61467 0.9859 0.0
O198 O 0.95736 0.64657 0.02851 0.0
O199 O 0.99202 0.69437 0.00335 0.0
O200 O 0.90249 0.57382 0.01087 0.0
O201 O 0.9621 0.66035 0.90215 0.0
O202 O 0.92676 0.61424 0.9315 0.0
C203 C 0.9754 0.67573 0.0329 0.0
C204 C 1.0021 0.63534 0.96689 0.0
O205 O 0.97401 0.6138 0.97987 0.0
O206 O 0.01309 0.66111 0.95403 0.0
C207 C 0.87761 0.56701 0.01305 0.0
O208 O 0.85167 0.53938 0.02657 0.0
C209 C 0.9353 0.63212 0.90175 0.0
Zn210 Zn 0.56392 0.52155 0.34084 0.0
Zn211 Zn 0.56991 0.48681 0.31302 0.0
O212 O 0.53712 0.45891 0.35963 0.0
O213 O 0.52796 0.48631 0.37444 0.0
O214 O 0.57539 0.46077 0.28956 0.0
O215 O 0.55385 0.52571 0.28567 0.0
O216 O 0.55192 0.49065 0.26448 0.0
C217 C 0.5215 0.46194 0.37864 0.0
C218 C 0.62581 0.55293 0.34913 0.0
O219 O 0.61503 0.52945 0.32801 0.0
O220 O 0.60754 0.55403 0.36263 0.0
C221 C 0.59581 0.46233 0.30218 0.0
O222 O 0.61447 0.48159 0.33221 0.0
C223 C 0.54783 0.50771 0.25797 0.0
H224 H 0.27294 0.00195 0.54486 0.0
H225 H 0.22913 0.98843 0.512 0.0
H226 H 0.24133 0.9579 0.40433 0.0
H227 H 0.28522 0.97135 0.43682 0.0
H228 H 0.23939 0.01837 0.43485 0.0
H229 H 0.14449 0.8883 0.42499 0.0
H230 H 0.17568 0.90933 0.46209 0.0
H231 H 0.18296 0.90768 0.40962 0.0
C232 C 0.26587 0.99165 0.51457 0.0
C233 C 0.28273 0.9879 0.49338 0.0
C234 C 0.24086 0.98401 0.49583 0.0
C235 C 0.23196 0.97208 0.45583 0.0
C236 C 0.2476 0.96671 0.43541 0.0
H237 H 0.10222 0.93558 0.28203 0.0
H238 H 0.13982 0.93934 0.31648 0.0
C239 C 0.27275 0.97453 0.45402 0.0
C240 C 0.2088 0.96862 0.43393 0.0
H241 H 0.13639 0.91525 0.39007 0.0
C242 C 0.21679 0.99582 0.42522 0.0
C243 C 0.17962 0.93923 0.42089 0.0
C244 C 0.16991 0.90936 0.43001 0.0
C245 C 0.19643 0.99449 0.40358 0.0
C246 C 0.16687 0.96503 0.39129 0.0
C247 C 0.159 0.9378 0.39962 0.0
C248 C 0.14362 0.96207 0.37065 0.0
C249 C 0.20711 0.02478 0.39337 0.0
C250 C 0.13291 0.97312 0.38993 0.0
C251 C 0.11175 0.97128 0.37025 0.0
C252 C 0.10044 0.95791 0.33103 0.0
C253 C 0.11059 0.94614 0.31213 0.0
C254 C 0.132 0.9482 0.3318 0.0
H255 H 0.23303 0.04494 0.39365 0.0
H256 H 0.1985 0.02355 0.36286 0.0
H257 H 0.1978 0.02939 0.41662 0.0
H258 H 0.14092 0.98318 0.42032 0.0
H259 H 0.10415 0.98023 0.38597 0.0
H260 H 0.79938 0.69069 0.74879 0.0
H261 H 0.83265 0.68642 0.7209 0.0
H262 H 0.78167 0.60205 0.79029 0.0
H263 H 0.74801 0.60602 0.81842 0.0
H264 H 0.87062 0.67829 0.75624 0.0
H265 H 0.7664 0.5766 0.66626 0.0
H266 H 0.7679 0.60348 0.69183 0.0
H267 H 0.76238 0.57533 0.72092 0.0
C268 C 0.79545 0.67143 0.75867 0.0
C269 C 0.77059 0.64834 0.78524 0.0
C270 C 0.81469 0.66918 0.7429 0.0
C271 C 0.80942 0.64377 0.75321 0.0
C272 C 0.78596 0.62174 0.78175 0.0
H273 H 0.9041 0.60428 0.62893 0.0
H274 H 0.88829 0.61711 0.68479 0.0
C275 C 0.76673 0.62403 0.79772 0.0
C276 C 0.82571 0.63843 0.72981 0.0
H277 H 0.81426 0.59555 0.64993 0.0
C278 C 0.85828 0.65974 0.73363 0.0
C279 C 0.80954 0.61445 0.70001 0.0
C280 C 0.77466 0.59118 0.69411 0.0
C281 C 0.87514 0.65805 0.70762 0.0
C282 C 0.85901 0.63479 0.67689 0.0
C283 C 0.82645 0.6131 0.67389 0.0
C284 C 0.87525 0.63373 0.64502 0.0
C285 C 0.91019 0.68211 0.71134 0.0
C286 C 0.87451 0.64029 0.60443 0.0
C287 C 0.88395 0.63358 0.57264 0.0
C288 C 0.89386 0.61963 0.58066 0.0
C289 C 0.89654 0.61495 0.62164 0.0
C290 C 0.88743 0.62213 0.6536 0.0
H291 H 0.91934 0.69892 0.73668 0.0
H292 H 0.91721 0.67027 0.71674 0.0
H293 H 0.92124 0.6953 0.68223 0.0
H294 H 0.86518 0.64925 0.59718 0.0
H295 H 0.8817 0.63769 0.54157 0.0
H296 H 0.47937 0.63999 0.79507 0.0
H297 H 0.44696 0.64286 0.83124 0.0
H298 H 0.37998 0.54459 0.86 0.0
H299 H 0.4121 0.54138 0.82382 0.0
H300 H 0.35348 0.56634 0.83416 0.0
H301 H 0.44139 0.63801 0.95873 0.0
H302 H 0.45553 0.65238 0.90752 0.0
H303 H 0.44184 0.61631 0.92253 0.0
C304 C 0.45756 0.61887 0.80864 0.0
C305 C 0.44847 0.5905 0.80685 0.0
C306 C 0.43915 0.62061 0.82943 0.0
C307 C 0.41134 0.59404 0.84874 0.0
C308 C 0.40145 0.56539 0.8454 0.0
H309 H 0.30004 0.56378 0.0441 0.0
H310 H 0.33338 0.56749 -0.0027 0.0
C311 C 0.41987 0.56362 0.82475 0.0
C312 C 0.39331 0.59632 0.87427 0.0
H313 H 0.39595 0.62621 0.96438 0.0
C314 C 0.36281 0.57964 0.86244 0.0
C315 C 0.40551 0.61343 0.91136 0.0
C316 C 0.43777 0.63091 0.92614 0.0
C317 C 0.34409 0.57951 0.88694 0.0
C318 C 0.3563 0.59656 0.92403 0.0
C319 C 0.38685 0.6134 0.9357 0.0
C320 C 0.33697 0.59547 0.95249 0.0
C321 C 0.31105 0.56039 0.87382 0.0
C322 C 0.32844 0.61046 0.94299 0.0
C323 C 0.30956 0.60862 0.96986 0.0
C324 C 0.2988 0.59159 0.00652 0.0
C325 C 0.30787 0.57704 0.01611 0.0
C326 C 0.32691 0.57912 0.98943 0.0
H327 H 0.30382 0.54542 0.84684 0.0
H328 H 0.2945 0.54523 0.89932 0.0
H329 H 0.30916 0.57632 0.86585 0.0
H330 H 0.33624 0.62342 0.91472 0.0
H331 H 0.30291 0.62001 0.96154 0.0
H332 H 0.62895 0.88967 0.1247 0.0
H333 H 0.67333 0.8997 0.14589 0.0
H334 H 0.63566 0.86971 0.26837 0.0
H335 H 0.59127 0.85964 0.24676 0.0
H336 H 0.71653 0.94197 0.20137 0.0
H337 H 0.65815 0.82414 0.25141 0.0
H338 H 0.63792 0.82987 0.22272 0.0
H339 H 0.64437 0.83798 0.2767 0.0
C340 C 0.63037 0.88544 0.15612 0.0
C341 C 0.60742 0.87485 0.18449 0.0
C342 C 0.65549 0.89086 0.16817 0.0
C343 C 0.65793 0.8855 0.20878 0.0
C344 C 0.63414 0.87355 0.23674 0.0
H345 H 0.81586 0.93092 0.32078 0.0
H346 H 0.76855 0.91855 0.31246 0.0
C347 C 0.60887 0.86795 0.22451 0.0
C348 C 0.68645 0.89448 0.22194 0.0
H349 H 0.7128 0.86637 0.26252 0.0
C350 C 0.71564 0.92538 0.21474 0.0
C351 C 0.68533 0.87299 0.24003 0.0
C352 C 0.65479 0.83932 0.24789 0.0
C353 C 0.74367 0.93517 0.22407 0.0
C354 C 0.74257 0.91347 0.24085 0.0
C355 C 0.71348 0.88291 0.24958 0.0
C356 C 0.77137 0.9215 0.24645 0.0
C357 C 0.77433 0.96862 0.21558 0.0
C358 C 0.78845 0.92711 0.21211 0.0
C359 C 0.81525 0.93402 0.2167 0.0
C360 C 0.82561 0.93553 0.25579 0.0
C361 C 0.8086 0.93013 0.29028 0.0
C362 C 0.78153 0.92294 0.2856 0.0
H363 H 0.77131 0.98411 0.21257 0.0
H364 H 0.79148 0.97787 0.24026 0.0
H365 H 0.78422 0.96957 0.18645 0.0
H366 H 0.78078 0.92577 0.18162 0.0
H367 H 0.82772 0.93798 0.18948 0.0
H368 H 0.88273 0.75125 0.81516 0.0
H369 H 0.87572 0.70959 0.84088 0.0
H370 H 0.92489 0.76256 0.95134 0.0
H371 H 0.93281 0.80479 0.92529 0.0
H372 H 0.94354 0.73752 0.92244 0.0
H373 H 0.81382 0.64534 0.92578 0.0
H374 H 0.83021 0.66244 0.87626 0.0
H375 H 0.83708 0.68607 0.91757 0.0
C376 C 0.89212 0.7541 0.84493 0.0
C377 C 0.90822 0.78134 0.86826 0.0
C378 C 0.88783 0.73008 0.85975 0.0
C379 C 0.8991 0.73254 0.89852 0.0
C380 C 0.91576 0.76 0.92149 0.0
H381 H 0.9028 0.6204 0.05035 0.0
H382 H 0.90701 0.66003 0.02279 0.0
C383 C 0.9203 0.78415 0.90653 0.0
C384 C 0.89413 0.70687 0.91497 0.0
H385 H 0.83775 0.62924 0.94047 0.0
C386 C 0.92039 0.71387 0.92649 0.0
C387 C 0.86391 0.6759 0.92003 0.0
C388 C 0.83463 0.66698 0.90961 0.0
C389 C 0.91738 0.69087 0.94267 0.0
C390 C 0.88716 0.65999 0.94828 0.0
C391 C 0.86089 0.65287 0.93628 0.0
C392 C 0.88237 0.63485 0.96663 0.0
C393 C 0.94679 0.69998 0.95292 0.0
C394 C 0.86514 0.60645 0.94572 0.0
C395 C 0.86235 0.58365 0.96185 0.0
C396 C 0.87735 0.58923 -0.00147 0.0
C397 C 0.89259 0.61649 0.02085 0.0
C398 C 0.89498 0.63907 0.00512 0.0
H399 H 0.9669 0.72007 0.93408 0.0
H400 H 0.95278 0.70725 0.98548 0.0
H401 H 0.94374 0.68021 0.94826 0.0
H402 H 0.85462 0.60229 0.91638 0.0
H403 H 0.84947 0.56216 0.94496 0.0
H404 H 0.63756 0.4607 0.3206 0.0
H405 H 0.64093 0.42712 0.29035 0.0
H406 H 0.56352 0.38558 0.21099 0.0
H407 H 0.55974 0.41881 0.24124 0.0
H408 H 0.55736 0.34187 0.25128 0.0
H409 H 0.67372 0.4333 0.17665 0.0
H410 H 0.67306 0.43979 0.23004 0.0
H411 H 0.65187 0.44059 0.19413 0.0
C412 C 0.62133 0.44454 0.29657 0.0
C413 C 0.59838 0.44248 0.28335 0.0
C414 C 0.62345 0.42551 0.27912 0.0
C415 C 0.60275 0.40415 0.24804 0.0
C416 C 0.57983 0.40202 0.2348 0.0
H417 H 0.60169 0.29269 0.08638 0.0
H418 H 0.60868 0.33338 0.11736 0.0
C419 C 0.57772 0.42106 0.25215 0.0
C420 C 0.60398 0.38296 0.2305 0.0
H421 H 0.65019 0.38156 0.17661 0.0
C422 C 0.57766 0.35054 0.23497 0.0
C423 C 0.63039 0.39434 0.20892 0.0
C424 C 0.6588 0.42889 0.20174 0.0
C425 C 0.57705 0.32917 0.21867 0.0
C426 C 0.60371 0.34053 0.19785 0.0
C427 C 0.62996 0.37295 0.19302 0.0
C428 C 0.60405 0.31885 0.17963 0.0
C429 C 0.54758 0.29455 0.22309 0.0
C430 C 0.60054 0.29809 0.20445 0.0
C431 C 0.5965 0.27478 0.18687 0.0
C432 C 0.59605 0.27189 0.1441 0.0
C433 C 0.60179 0.29415 0.1194 0.0
C434 C 0.60576 0.31743 0.13705 0.0
H435 H 0.52708 0.2898 0.23123 0.0
H436 H 0.54228 0.28184 0.19434 0.0
H437 H 0.55083 0.28493 0.24777 0.0
H438 H 0.5998 0.2992 0.23742 0.0
H439 H 0.59241 0.25822 0.20684 0.0
H440 H 0.59179 0.71205 0.39963 0.0
H441 H 0.59992 0.75398 0.42759 0.0
H442 H 0.6005 0.78071 0.30583 0.0
H443 H 0.59214 0.73846 0.27734 0.0
H444 H 0.64987 0.81989 0.41174 0.0
H445 H 0.53379 0.76862 0.36659 0.0
H446 H 0.54152 0.74567 0.36594 0.0
H447 H 0.55816 0.77475 0.32737 0.0
C448 C 0.59364 0.72679 0.37865 0.0
C449 C 0.59112 0.7217 0.3362 0.0
C450 C 0.59839 0.75085 0.39472 0.0
C451 C 0.60058 0.77035 0.36886 0.0
C452 C 0.59851 0.76573 0.3264 0.0
H453 H 0.58721 0.88829 0.48773 0.0
H454 H 0.60083 0.87332 0.43168 0.0
C455 C 0.59383 0.74161 0.31019 0.0
C456 C 0.60466 0.79507 0.38724 0.0
H457 H 0.56397 0.81106 0.41187 0.0
C458 C 0.63135 0.81836 0.4111 0.0
C459 C 0.58082 0.79352 0.38577 0.0
C460 C 0.55183 0.76928 0.36024 0.0
C461 C 0.63383 0.83865 0.43574 0.0
C462 C 0.60867 0.83511 0.4373 0.0
C463 C 0.58318 0.81365 0.41081 0.0
C464 C 0.60574 0.84911 0.4708 0.0
C465 C 0.66289 0.86289 0.46114 0.0
C466 C 0.60472 0.84116 0.51138 0.0
C467 C 0.59684 0.84948 0.54312 0.0
C468 C 0.58937 0.86565 0.53507 0.0
C469 C 0.59235 0.87542 0.49476 0.0
C470 C 0.6002 0.86695 0.46277 0.0
H471 H 0.68362 0.87076 0.44578 0.0
H472 H 0.66756 0.88361 0.46708 0.0
H473 H 0.65982 0.85241 0.49091 0.0
H474 H 0.60831 0.82692 0.51835 0.0
H475 H 0.59484 0.84155 0.57371 0.0
H476 H 0.9986 0.31075 0.70307 0.0
H477 H 0.99297 0.27076 0.73268 0.0
H478 H 0.03307 0.27179 0.62376 0.0
H479 H 0.03785 0.31097 0.59345 0.0
H480 H 0.98671 0.21334 0.65353 0.0
H481 H 0.06808 0.29476 0.77891 0.0
H482 H 0.03362 0.28613 0.77664 0.0
H483 H 0.06151 0.3071 0.73541 0.0
C484 C 0.00568 0.30204 0.6851 0.0
C485 C 0.019 0.31433 0.64606 0.0
C486 C 1.00273 0.27938 0.70225 0.0
C487 C 0.01349 0.26896 0.68097 0.0
C488 C 0.02487 0.27968 0.64095 0.0
H489 H 0.08354 0.19953 0.76939 0.0
H490 H 0.07448 0.22995 0.74774 0.0
C491 C 0.02753 0.30207 0.6236 0.0
C492 C 0.01447 0.24819 0.70086 0.0
H493 H 0.04666 0.24421 0.78086 0.0
C494 C 0.99966 0.21998 0.6815 0.0
C495 C 0.03182 0.25714 0.73705 0.0
C496 C 0.04992 0.28805 0.75806 0.0
C497 C 1.00201 0.20067 0.69695 0.0
C498 C 0.01895 0.20938 0.73348 0.0
C499 C 0.0334 0.23738 0.75314 0.0
C500 C 0.02398 0.19103 0.75008 0.0
C501 C 0.98745 0.17186 0.67294 0.0
C502 C 0.99865 0.15921 0.76005 0.0
C503 C 1.00377 0.14162 0.77213 0.0
C504 C 0.03435 0.15565 0.7751 0.0
C505 C 0.05968 0.18793 0.7674 0.0
C506 C 0.05453 0.20539 0.75495 0.0
H507 H 0.98241 0.1729 0.64088 0.0
H508 H 1.00299 0.16884 0.67243 0.0
H509 H 0.96501 0.1509 0.68751 0.0
H510 H 0.97488 0.14781 0.75772 0.0
H511 H 0.98373 0.11688 0.77819 0.0
H512 H 0.9402 0.86196 0.27146 0.0
H513 H 0.88814 0.80971 0.28125 0.0
H514 H 0.88847 0.83228 0.4064 0.0
H515 H 0.94056 0.88572 0.3955 0.0
H516 H 0.85187 0.75933 0.30714 0.0
H517 H 0.82426 0.82577 0.38607 0.0
H518 H 0.86084 0.84352 0.36505 0.0
H519 H 0.84901 0.82709 0.41624 0.0
C520 C 0.92919 0.85556 0.3012 0.0
C521 C 0.94376 0.87785 0.33238 0.0
C522 C 0.89898 0.82566 0.30682 0.0
C523 C 0.8824 0.81784 0.34328 0.0
C524 C 0.89916 0.83863 0.37656 0.0
H525 H 0.66395 0.65334 0.41187 0.0
H526 H 0.72137 0.69126 0.413 0.0
C527 C 0.92928 0.86888 0.37076 0.0
C528 C 0.84765 0.78956 0.34474 0.0
H529 H 0.77509 0.77137 0.38649 0.0
C530 C 0.83484 0.75797 0.31986 0.0
C531 C 0.82519 0.79285 0.36807 0.0
C532 C 0.84087 0.82414 0.38461 0.0
C533 C 0.79611 0.72393 0.31422 0.0
C534 C 0.7621 0.72937 0.35007 0.0
C535 C 0.78577 0.76543 0.3714 0.0
C536 C 0.72804 0.71091 0.35409 0.0
C537 C 0.79125 0.6993 0.28955 0.0
C538 C 0.71425 0.71475 0.32545 0.0
C539 C 0.68204 0.69493 0.32616 0.0
C540 C 0.66346 0.67153 0.356 0.0
C541 C 0.67785 0.67068 0.38786 0.0
C542 C 0.7103 0.69144 0.38784 0.0
H543 H 0.8141 0.70919 0.27975 0.0
H544 H 0.78006 0.67843 0.30817 0.0
H545 H 0.77773 0.69183 0.26103 0.0
H546 H 0.728 0.73188 0.30123 0.0
H547 H 0.67143 0.69635 0.30168 0.0
H548 H 0.89686 0.48081 0.45894 0.0
H549 H 0.91922 0.46315 0.48165 0.0
H550 H 0.93209 0.49906 0.6026 0.0
H551 H 0.91085 0.51816 0.57935 0.0
H552 H 0.98141 0.51398 0.58222 0.0
H553 H 0.88224 0.38872 0.54565 0.0
H554 H 0.89359 0.41136 0.5007 0.0
H555 H 0.87879 0.41515 0.54455 0.0
C556 C 0.90429 0.48486 0.49047 0.0
C557 C 0.90197 0.50082 0.51739 0.0
C558 C 0.91676 0.47436 0.50358 0.0
C559 C 0.92648 0.47881 0.54424 0.0
C560 C 0.92443 0.49499 0.57119 0.0
H561 H 0.99305 0.39681 0.61224 0.0
H562 H 0.96006 0.40534 0.60963 0.0
C563 C 0.9124 0.50601 0.55786 0.0
C564 C 0.94084 0.46854 0.55741 0.0
H565 H 0.93318 0.40832 0.54909 0.0
C566 C 0.97053 0.49067 0.57562 0.0
C567 C 0.92649 0.43787 0.55001 0.0
C568 C 0.89336 0.41187 0.53461 0.0
C569 C 0.98704 0.48367 0.58402 0.0
C570 C 0.97406 0.45411 0.57254 0.0
C571 C 0.9435 0.43124 0.55701 0.0
C572 C 0.99288 0.44765 0.57339 0.0
C573 C 0.01844 0.50829 0.60478 0.0
C574 C 0.0216 0.4678 0.55267 0.0
C575 C 0.04041 0.46321 0.55453 0.0
C576 C 0.03071 0.43788 0.57635 0.0
C577 C 1.00116 0.41659 0.59532 0.0
C578 C 0.98239 0.4215 0.59394 0.0
H579 H 0.01953 0.5236 0.6247 0.0
H580 H 0.02354 0.49761 0.62365 0.0
H581 H 0.03699 0.5234 0.58122 0.0
H582 H 0.02968 0.48739 0.53524 0.0
H583 H 0.06276 0.47972 0.53887 0.0
H584 H 0.57132 0.65589 0.83131 0.0
H585 H 0.62133 0.70273 0.86174 0.0
H586 H 0.66985 0.71292 0.75608 0.0
H587 H 0.62019 0.66566 0.72626 0.0
H588 H 0.6631 0.69824 0.87746 0.0
H589 H 0.72133 0.80429 0.78647 0.0
H590 H 0.67926 0.77132 0.7906 0.0
H591 H 0.70064 0.76947 0.75671 0.0
C592 C 0.59256 0.66896 0.81374 0.0
C593 C 0.59198 0.65711 0.77652 0.0
C594 C 0.62111 0.69557 0.83133 0.0
C595 C 0.64926 0.71112 0.81133 0.0
C596 C 0.64842 0.70134 0.77204 0.0
H597 H 0.82266 0.78366 0.86609 0.0
H598 H 0.7668 0.75072 0.86243 0.0
C599 C 0.62001 0.6744 0.75487 0.0
C600 C 0.6792 0.7334 0.83384 0.0
H601 H 0.75444 0.80544 0.82557 0.0
C602 C 0.68303 0.72189 0.86661 0.0
C603 C 0.70487 0.76435 0.82022 0.0
C604 C 0.70142 0.77832 0.78682 0.0
C605 C 0.71255 0.73973 0.88392 0.0
C606 C 0.7388 0.76974 0.86784 0.0
C607 C 0.7344 0.78219 0.83744 0.0
C608 C 0.7713 0.78765 0.87913 0.0
C609 C 0.71545 0.72613 0.91875 0.0
C610 C 0.79239 0.81917 0.89072 0.0
C611 C 0.82436 0.83809 0.89251 0.0
C612 C 0.83589 0.8259 0.88237 0.0
C613 C 0.81453 0.79373 0.87418 0.0
C614 C 0.78249 0.7748 0.87229 0.0
H615 H 0.69284 0.70767 0.9351 0.0
H616 H 0.72243 0.71523 0.90653 0.0
H617 H 0.73353 0.7446 0.94092 0.0
H618 H 0.78428 0.82956 0.8962 0.0
H619 H 0.84019 0.86274 0.89933 0.0
H620 H 0.60018 0.98472 0.17316 0.0
H621 H 0.58822 0.01432 0.16406 0.0
H622 H 0.66619 0.07696 0.08096 0.0
H623 H 0.67872 0.04814 0.09072 0.0
H624 H 0.66538 0.10902 0.13567 0.0
H625 H 0.54755 0.01318 0.06726 0.0
H626 H 0.55168 0.00391 0.11651 0.0
H627 H 0.57411 0.01025 0.07385 0.0
C628 C 0.61451 0.00457 0.15259 0.0
C629 C 0.64033 0.01402 0.13258 0.0
C630 C 0.60766 0.02147 0.14738 0.0
C631 C 0.62616 0.04774 0.12153 0.0
C632 C 0.65166 0.05688 0.10117 0.0
H633 H 0.57299 0.12846 0.01248 0.0
H634 H 0.59239 0.10656 0.02781 0.0
C635 C 0.6587 0.04026 0.10666 0.0
C636 C 0.61939 0.06607 0.11569 0.0
H637 H 0.56364 0.06044 0.08191 0.0
C638 C 0.64312 0.09842 0.12392 0.0
C639 C 0.59045 0.05229 0.10005 0.0
C640 C 0.56458 0.01808 0.08852 0.0
C641 C 0.63882 0.11739 0.11651 0.0
C642 C 0.60977 0.1035 0.10126 0.0
C643 C 0.58592 0.07109 0.09366 0.0
C644 C 0.60367 0.12196 0.0909 0.0
C645 C 0.66571 0.15219 0.12382 0.0
C646 C 0.60486 0.1392 0.12076 0.0
C647 C 0.59438 0.15244 0.11166 0.0
C648 C 0.58211 0.14805 0.07285 0.0
C649 C 0.58252 0.13228 0.04256 0.0
C650 C 0.5934 0.11958 0.05139 0.0
H651 H 0.68843 0.16007 0.12542 0.0
H652 H 0.66713 0.16548 0.09928 0.0
H653 H 0.66207 0.15805 0.15336 0.0
H654 H 0.61217 0.14091 0.15165 0.0
H655 H 0.5937 0.164 0.13568 0.0
H656 H 0.21925 0.64791 0.01469 0.0
H657 H 0.18811 0.65651 0.99353 0.0
H658 H 0.10785 0.57236 0.05655 0.0
H659 H 0.13855 0.56353 0.07755 0.0
H660 H 0.0962 0.57736 0.97454 0.0
H661 H 0.15709 0.68443 0.06659 0.0
H662 H 0.18142 0.68533 0.03487 0.0
H663 H 0.16084 0.65878 0.07729 0.0
C664 C 0.19503 0.63139 0.02423 0.0
C665 C 0.18137 0.60506 0.04781 0.0
C666 C 0.17732 0.63637 0.01224 0.0
C667 C 0.14575 0.61518 0.02375 0.0
C668 C 0.13217 0.589 0.04738 0.0
H669 H 0.98832 0.58569 -0.00139 0.0
H670 H 0.02387 0.58125 0.00837 0.0
C671 C 0.1498 0.58404 0.05942 0.0
C672 C 0.12639 0.6196 0.01058 0.0
H673 H 0.11602 0.66611 0.02407 0.0
C674 C 0.10058 0.59683 0.98519 0.0
C675 C 0.13229 0.64509 0.02439 0.0
C676 C 0.15925 0.66976 0.05253 0.0
C677 C 0.08032 0.59874 0.97346 0.0
C678 C 0.08567 0.62375 0.98822 0.0
C679 C 0.11194 0.64694 0.01282 0.0
C680 C 0.06366 0.62568 0.97997 0.0
C681 C 0.05351 0.57406 0.94515 0.0
C682 C 0.07426 0.65231 0.9612 0.0
C683 C 0.05403 0.65504 0.95582 0.0
C684 C 0.02278 0.63124 0.96933 0.0
C685 C 0.01213 0.60436 0.98755 0.0
C686 C 0.0324 0.6017 0.99298 0.0
H687 H 0.05816 0.5626 0.92702 0.0
H688 H 0.03208 0.55569 0.96356 0.0
H689 H 0.04892 0.58419 0.92377 0.0
H690 H 0.09833 0.67116 0.9511 0.0
H691 H 0.06308 0.6761 0.94176 0.0
H692 H 0.65763 0.59382 0.41275 0.0
H693 H 0.70895 0.64775 0.40915 0.0
H694 H 0.72172 0.63166 0.2874 0.0
H695 H 0.67056 0.57694 0.29157 0.0
H696 H 0.76713 0.68796 0.40365 0.0
H697 H 0.71193 0.68302 0.24741 0.0
H698 H 0.69323 0.65244 0.28457 0.0
H699 H 0.7186 0.65946 0.24574 0.0
C700 C 0.67168 0.60169 0.38548 0.0
C701 C 0.6597 0.58159 0.35187 0.0
C702 C 0.70088 0.63285 0.38301 0.0
C703 C 0.71775 0.64488 0.34611 0.0
C704 C 0.70798 0.62362 0.31496 0.0
H705 H 0.88392 0.85064 0.23415 0.0
H706 H 0.8473 0.79457 0.24961 0.0
C707 C 0.67899 0.59215 0.31768 0.0
C708 C 0.74348 0.67935 0.33912 0.0
H709 H 0.76456 0.73586 0.2494 0.0
C710 C 0.77004 0.70036 0.3773 0.0
C711 C 0.7428 0.69331 0.29433 0.0
C712 C 0.71497 0.67071 0.26663 0.0
C713 C 0.80119 0.74026 0.37573 0.0
C714 C 0.7999 0.76124 0.30669 0.0
C715 C 0.76863 0.73084 0.27826 0.0
C716 C 0.81714 0.79237 0.28707 0.0
C717 C 0.82125 0.75349 0.41505 0.0
C718 C 0.80772 0.80684 0.29454 0.0
C719 C 0.82745 0.8382 0.28419 0.0
C720 C 0.85636 0.85506 0.2652 0.0
C721 C 0.86256 0.83864 0.25071 0.0
C722 C 0.84225 0.80699 0.26041 0.0
H723 H 0.81177 0.73411 0.43581 0.0
H724 H 0.84579 0.76658 0.40883 0.0
H725 H 0.82098 0.76851 0.43291 0.0
H726 H 0.78642 0.79482 0.31123 0.0
H727 H 0.82126 0.84978 0.29427 0.0
H728 H 0.44678 0.03752 0.60918 0.0
H729 H 0.4562 0.00576 0.60478 0.0
H730 H 0.38157 0.94519 0.51694 0.0
H731 H 0.37115 0.97646 0.52257 0.0
H732 H 0.38081 0.91178 0.56778 0.0
H733 H 0.5021 0.0098 0.51402 0.0
H734 H 0.49697 0.02007 0.56155 0.0
H735 H 0.47519 0.01256 0.51714 0.0
C736 C 0.43219 0.0173 0.58912 0.0
C737 C 0.40841 0.00962 0.56593 0.0
C738 C 0.43785 0.99935 0.58626 0.0
C739 C 0.42044 0.97379 0.55932 0.0
C740 C 0.39565 0.96513 0.53745 0.0
H741 H 0.49579 0.89648 0.5336 0.0
H742 H 0.47833 0.92008 0.51412 0.0
C743 C 0.3896 0.98287 0.54084 0.0
C744 C 0.42809 0.95609 0.55498 0.0
H745 H 0.49004 0.96672 0.54562 0.0
C746 C 0.40459 0.92371 0.56222 0.0
C747 C 0.45888 0.97129 0.54628 0.0
C748 C 0.48458 0.00527 0.53382 0.0
C749 C 0.41154 0.90668 0.56412 0.0
C750 C 0.44301 0.92266 0.56008 0.0
C751 C 0.46603 0.95452 0.54967 0.0
C752 C 0.45291 0.90758 0.57041 0.0
C753 C 0.38505 0.87179 0.57093 0.0
C754 C 0.44515 0.89346 0.60877 0.0
C755 C 0.45481 0.8799 0.61971 0.0
C756 C 0.47311 0.88063 0.59294 0.0
C757 C 0.48172 0.89554 0.55488 0.0
C758 C 0.47165 0.90889 0.54368 0.0
H759 H 0.36299 0.86186 0.55735 0.0
H760 H 0.39026 0.85952 0.55752 0.0
H761 H 0.38102 0.86701 0.60427 0.0
H762 H 0.43186 0.89323 0.63065 0.0
H763 H 0.44814 0.86906 0.64954 0.0
H764 H 0.98036 0.04082 0.76091 0.0
H765 H 0.92715 0.98751 0.7584 0.0
H766 H 0.96441 0.95067 0.74201 0.0
H767 H 0.01757 0.0037 0.74365 0.0
H768 H 0.90934 0.92664 0.68636 0.0
H769 H 0.89178 0.92255 0.85484 0.0
H770 H 0.90955 0.95683 0.82599 0.0
H771 H 0.9306 0.94757 0.83369 0.0
C772 C 0.97726 0.02142 0.75639 0.0
C773 C 1.00324 0.02654 0.7526 0.0
C774 C 0.94687 0.99103 0.75499 0.0
C775 C 0.94204 0.96534 0.75007 0.0
C776 C 0.9678 0.97033 0.74557 0.0
H777 H 0.80686 0.76992 0.78193 0.0
H778 H 0.85239 0.82659 0.77474 0.0
C779 C 0.99814 1.00065 0.74661 0.0
C780 C 0.91024 0.93303 0.75133 0.0
H781 H 0.85313 0.87575 0.81772 0.0
C782 C 0.89704 0.91548 0.71504 0.0
C783 C 0.89392 0.91895 0.78867 0.0
C784 C 0.907 0.93724 0.82819 0.0
C785 C 0.86838 0.88363 0.71551 0.0
C786 C 0.85319 0.86912 0.75324 0.0
C787 C 0.86552 0.88701 0.78914 0.0
C788 C 0.82559 0.83496 0.75643 0.0
C789 C 0.85432 0.86559 0.67591 0.0
C790 C 0.79565 0.82115 0.74834 0.0
C791 C 0.7696 0.78884 0.7526 0.0
C792 C 0.77314 0.76991 0.76517 0.0
C793 C 0.80335 0.78385 0.77221 0.0
C794 C 0.82936 0.81618 0.76824 0.0
H795 H 0.87043 0.87954 0.64956 0.0
H796 H 0.84787 0.84364 0.67816 0.0
H797 H 0.83247 0.85879 0.66992 0.0
H798 H 0.79242 0.83539 0.73913 0.0
H799 H 0.74666 0.7787 0.74635 0.0
H800 H 0.09393 0.15467 0.65287 0.0
H801 H 0.09698 0.15355 0.57875 0.0
H802 H 0.1828 0.18003 0.58973 0.0
H803 H 0.17898 0.17955 0.66421 0.0
H804 H 0.13497 0.1815 0.5056 0.0
H805 H 0.11403 0.08453 0.56992 0.0
H806 H 0.11469 0.10879 0.60153 0.0
H807 H 0.15069 0.12331 0.5834 0.0
C808 C 0.11434 0.16187 0.63951 0.0
C809 C 0.13565 0.1661 0.66408 0.0
C810 C 0.11609 0.16129 0.59701 0.0
C811 C 0.13947 0.16553 0.57904 0.0
C812 C 0.16418 0.17597 0.60327 0.0
H813 H 0.10327 0.05318 0.37579 0.0
H814 H 0.13233 0.0963 0.42457 0.0
C815 C 0.16199 0.17571 0.6458 0.0
C816 C 0.13284 0.15028 0.53931 0.0
H817 H 0.10879 0.08468 0.49989 0.0
C818 C 0.12978 0.16065 0.50401 0.0
C819 C 0.1254 0.12264 0.53768 0.0
C820 C 0.12606 0.10891 0.57512 0.0
C821 C 0.11921 0.14386 0.46706 0.0
C822 C 0.11129 0.11601 0.46588 0.0
C823 C 0.11523 0.10626 0.50085 0.0
C824 C 0.0966 0.09484 0.4301 0.0
C825 C 0.11628 0.15583 0.42987 0.0
C826 C 0.06702 0.08001 0.41658 0.0
C827 C 0.05032 0.05532 0.38855 0.0
C828 C 0.06275 0.04476 0.37426 0.0
C829 C 0.09287 0.06047 0.38668 0.0
C830 C 0.10965 0.08533 0.41423 0.0
H831 H 0.13192 0.18145 0.43196 0.0
H832 H 0.12189 0.15081 0.40148 0.0
H833 H 0.09185 0.14397 0.4276 0.0
H834 H 0.05615 0.08641 0.42926 0.0
H835 H 0.0272 0.04372 0.37939 0.0
H836 H 0.79783 0.47149 0.5846 0.0
H837 H 0.80237 0.48495 0.65665 0.0
H838 H 0.82014 0.56359 0.62196 0.0
H839 H 0.8153 0.55018 0.55026 0.0
H840 H 0.86404 0.5459 0.67082 0.0
H841 H 0.77655 0.54073 0.73233 0.0
H842 H 0.76471 0.50851 0.70372 0.0
H843 H 0.78296 0.54372 0.67795 0.0
C844 C 0.80086 0.49053 0.59238 0.0
C845 C 0.80669 0.51008 0.5618 0.0
C846 C 0.80357 0.49828 0.63362 0.0
C847 C 0.81165 0.52532 0.64466 0.0
C848 C 0.81337 0.54237 0.6143 0.0
H849 H 0.94289 0.66212 0.83223 0.0
H850 H 0.91035 0.63727 0.77027 0.0
C851 C 0.81072 0.5347 0.57318 0.0
C852 C 0.82627 0.54022 0.68484 0.0
H853 H 0.82248 0.56871 0.77099 0.0
C854 C 0.85473 0.55053 0.69293 0.0
C855 C 0.81434 0.54672 0.71315 0.0
C856 C 0.78296 0.5344 0.70675 0.0
C857 C 0.87182 0.56753 0.72834 0.0
C858 C 0.86022 0.57449 0.75636 0.0
C859 C 0.83154 0.56386 0.74879 0.0
C860 C 0.87671 0.59043 0.79525 0.0
C861 C 0.90243 0.57832 0.73549 0.0
C862 C 0.86825 0.57225 0.82953 0.0
C863 C 0.88695 0.58613 0.86433 0.0
C864 C 0.91432 0.61862 0.86588 0.0
C865 C 0.92199 0.63708 0.83205 0.0
C866 C 0.90334 0.623 0.79682 0.0
H867 H 0.90745 0.56969 0.71156 0.0
H868 H 0.92178 0.60431 0.73576 0.0
H869 H 0.90209 0.57006 0.76577 0.0
H870 H 0.84805 0.54703 0.82855 0.0
H871 H 0.88056 0.57103 0.88936 0.0
H872 H 0.52927 0.53489 0.23872 0.0
H873 H 0.51007 0.53381 0.17312 0.0
H874 H 0.51937 0.47659 0.12256 0.0
H875 H 0.53803 0.47701 0.18837 0.0
H876 H 0.54286 0.55809 0.10591 0.0
H877 H 0.4361 0.4331 0.07618 0.0
H878 H 0.45372 0.44756 0.12626 0.0
H879 H 0.4681 0.43902 0.08889 0.0
C880 C 0.52685 0.52171 0.2138 0.0
C881 C 0.53529 0.50612 0.21861 0.0
C882 C 0.51561 0.52091 0.17645 0.0
C883 C 0.51251 0.50444 0.14329 0.0
C884 C 0.52047 0.48846 0.14818 0.0
H885 H 0.54889 0.54679 0.89383 0.0
H886 H 0.54556 0.53621 0.96653 0.0
C887 C 0.5316 0.48913 0.18562 0.0
C888 C 0.50546 0.50772 0.1022 0.0
H889 H 0.46282 0.46661 0.01617 0.0
C890 C 0.52508 0.53807 0.08656 0.0
C891 C 0.48176 0.48159 0.0772 0.0
C892 C 0.45852 0.44851 0.09321 0.0
C893 C 0.52337 0.54302 0.04566 0.0
C894 C 0.50127 0.51688 0.01994 0.0
C895 C 0.48004 0.48653 0.03609 0.0
C896 C 0.50158 0.52081 0.97564 0.0
C897 C 0.54617 0.57617 0.02992 0.0
C898 C 0.47748 0.51485 0.95688 0.0
C899 C 0.47933 0.52099 0.91527 0.0
C900 C 0.50517 0.53285 0.89202 0.0
C901 C 0.52864 0.53761 0.91084 0.0
C902 C 0.52687 0.53169 0.95235 0.0
H903 H 0.5551 0.5931 0.05496 0.0
H904 H 0.56647 0.5825 0.01602 0.0
H905 H 0.53532 0.57859 0.00621 0.0
H906 H 0.45779 0.50634 0.97465 0.0
H907 H 0.46088 0.51705 0.90155 0.0
H908 H 0.51243 0.79159 0.54539 0.0
H909 H 0.53329 0.81158 0.47651 0.0
H910 H 0.47637 0.82696 0.46176 0.0
H911 H 0.45495 0.80633 0.53064 0.0
H912 H 0.51721 0.80535 0.3977 0.0
H913 H 0.56239 0.9154 0.46128 0.0
H914 H 0.5406 0.88086 0.49204 0.0
H915 H 0.52064 0.88354 0.45666 0.0
C916 C 0.50355 0.79818 0.52683 0.0
C917 C 0.48234 0.79769 0.54328 0.0
C918 C 0.51567 0.80987 0.48761 0.0
C919 C 0.50756 0.82222 0.4648 0.0
C920 C 0.48374 0.81852 0.47941 0.0
H921 H 0.61612 0.95635 0.26387 0.0
H922 H 0.57731 0.9218 0.31767 0.0
C923 C 0.47122 0.80637 0.51854 0.0
C924 C 0.52696 0.84226 0.42887 0.0
H925 H 0.58013 0.91818 0.3963 0.0
C926 C 0.53075 0.82995 0.39714 0.0
C927 C 0.54455 0.87441 0.42806 0.0
C928 C 0.54211 0.88947 0.46142 0.0
C929 C 0.55197 0.84893 0.36502 0.0
C930 C 0.57065 0.88137 0.36532 0.0
C931 C 0.56607 0.89342 0.39629 0.0
C932 C 0.59516 0.90334 0.33399 0.0
C933 C 0.55366 0.83388 0.33073 0.0
C934 C 0.61899 0.90555 0.32642 0.0
C935 C 0.64102 0.92515 0.29551 0.0
C936 C 0.6401 0.94346 0.27247 0.0
C937 C 0.61756 0.94278 0.28171 0.0
C938 C 0.5952 0.92279 0.31211 0.0
H939 H 0.53228 0.80819 0.32938 0.0
H940 H 0.55661 0.84419 0.30088 0.0
H941 H 0.5739 0.83775 0.33561 0.0
H942 H 0.62032 0.89182 0.34399 0.0
H943 H 0.65835 0.9255 0.28894 0.0
H944 H 0.11367 0.39715 0.68829 0.0
H945 H 0.13009 0.39743 0.75656 0.0
H946 H 0.16459 0.48659 0.78159 0.0
H947 H 0.15016 0.48728 0.71319 0.0
H948 H 0.20273 0.48548 0.81213 0.0
H949 H 0.08087 0.37468 0.85637 0.0
H950 H 0.09922 0.37303 0.81585 0.0
H951 H 0.08906 0.39343 0.80825 0.0
C952 C 0.12509 0.41691 0.70839 0.0
C953 C 0.13048 0.44212 0.69568 0.0
C954 C 0.13429 0.41695 0.74741 0.0
C955 C 0.14806 0.44174 0.77455 0.0
C956 C 0.15416 0.46723 0.76121 0.0
H957 H 0.12062 0.47444 0.98831 0.0
H958 H 0.11878 0.4496 0.92867 0.0
C959 C 0.14575 0.46757 0.72211 0.0
C960 C 0.1545 0.44117 0.81789 0.0
H961 H 0.11594 0.40761 0.90853 0.0
C962 C 0.18399 0.46821 0.83342 0.0
C963 C 0.13019 0.41803 0.84539 0.0
C964 C 0.098 0.38818 0.83086 0.0
C965 C 0.1884 0.47537 0.87523 0.0
C966 C 0.1629 0.45376 0.90241 0.0
C967 C 0.13513 0.42438 0.88747 0.0
C968 C 0.1617 0.46373 0.94294 0.0
C969 C 0.21915 0.50745 0.88869 0.0
C970 C 0.18562 0.47883 0.97197 0.0
C971 C 0.18732 0.49422 0.00525 0.0
C972 C 0.16425 0.49329 0.01096 0.0
C973 C 0.13865 0.47545 0.98445 0.0
C974 C 0.13759 0.46114 0.95044 0.0
H975 H 0.23461 0.52267 0.86244 0.0
H976 H 0.21515 0.51952 0.90657 0.0
H977 H 0.23184 0.50506 0.90823 0.0
H978 H 0.20376 0.48006 0.96791 0.0
H979 H 0.20703 0.5075 0.0259 0.0
H980 H 0.01719 0.03323 0.211 0.0
H981 H 0.03388 0.04793 0.14067 0.0
H982 H 0.94948 0.02125 0.11101 0.0
H983 H 0.93192 0.00511 0.1818 0.0
H984 H 0.94765 0.98317 0.07748 0.0
H985 H 0.06732 0.08592 0.08807 0.0
H986 H 0.04309 0.09198 0.08638 0.0
H987 H 0.06439 0.0988 0.04163 0.0
C988 C 1.00279 0.03184 0.18998 0.0
C989 C 0.97268 0.01681 0.20137 0.0
C990 C 0.01262 0.0407 0.14955 0.0
C991 C 0.99264 0.03503 0.1201 0.0
C992 C 0.9651 0.02542 0.13315 0.0
H993 H 0.00784 0.99277 0.87352 0.0
H994 H 0.01955 0.02588 0.92981 0.0
C995 C 0.95505 0.01619 0.17369 0.0
C996 C 0.99543 0.0292 0.07738 0.0
H997 H 0.05009 0.05378 0.00664 0.0
C998 C 0.96992 0.99912 0.06155 0.0
C999 C 0.02415 0.04988 0.05585 0.0
C1000 C 0.05112 0.08355 0.06871 0.0
C1001 C 0.97315 0.98818 0.0273 0.0
C1002 C 1.003 0.00735 0.00922 0.0
C1003 C 0.02775 0.03856 0.02211 0.0
C1004 C 0.00792 0.99451 0.97698 0.0
C1005 C 0.94455 0.95572 0.01155 0.0
C1006 C 1.00051 0.96752 0.98506 0.0
C1007 C 0.99355 0.94834 0.95301 0.0
C1008 C 0.99395 0.95606 0.91256 0.0
C1009 C 0.00655 0.98578 0.9045 0.0
C1010 C 0.01336 0.00486 0.93663 0.0
H1011 H 0.92268 0.94834 0.02033 0.0
H1012 H 0.94515 0.95452 0.97773 0.0
H1013 H 0.94363 0.93871 0.02507 0.0
H1014 H 0.99676 0.9595 0.01621 0.0
H1015 H 0.98446 0.92592 0.96028 0.0
H1016 H 0.46018 0.13294 0.43608 0.0
H1017 H 0.46173 0.14942 0.36817 0.0
H1018 H 0.36819 0.10631 0.38436 0.0
H1019 H 0.36594 0.08822 0.45228 0.0
H1020 H 0.37056 0.08952 0.3158 0.0
H1021 H 0.47493 0.21575 0.31896 0.0
H1022 H 0.48683 0.19923 0.34008 0.0
H1023 H 0.45706 0.19338 0.36571 0.0
C1024 C 0.4401 0.12739 0.42555 0.0
C1025 C 0.41291 0.10921 0.44938 0.0
C1026 C 0.44117 0.13726 0.38683 0.0
C1027 C 0.41543 0.12997 0.37147 0.0
C1028 C 0.38848 0.11256 0.39574 0.0
H1029 H 0.48621 0.18903 0.12637 0.0
H1030 H 0.45794 0.18525 0.18325 0.0
C1031 C 0.38718 0.10214 0.4344 0.0
C1032 C 0.4156 0.13668 0.32802 0.0
H1033 H 0.46913 0.1886 0.25544 0.0
C1034 C 0.39164 0.11159 0.30252 0.0
C1035 C 0.44209 0.16581 0.31024 0.0
C1036 C 0.46638 0.19508 0.33546 0.0
C1037 C 0.39584 0.1135 0.26008 0.0
C1038 C 0.42522 0.14054 0.24333 0.0
C1039 C 0.44699 0.16722 0.26813 0.0
C1040 C 0.43619 0.1398 0.2035 0.0
C1041 C 0.36933 0.08589 0.23411 0.0
C1042 C 0.43276 0.11519 0.19504 0.0
C1043 C 0.44815 0.11695 0.16191 0.0
C1044 C 0.46821 0.14388 0.1376 0.0
C1045 C 0.47097 0.16809 0.14504 0.0
C1046 C 0.45477 0.1659 0.17742 0.0
H1047 H 0.34674 0.07619 0.24509 0.0
H1048 H 0.37236 0.0923 0.20138 0.0
H1049 H 0.36782 0.06703 0.23712 0.0
H1050 H 0.41975 0.09538 0.21545 0.0
H1051 H 0.44594 0.09815 0.15694 0.0
H1052 H 0.60609 0.60943 0.70251 0.0
H1053 H 0.577 0.57933 0.64138 0.0
H1054 H 0.64486 0.57976 0.61058 0.0
H1055 H 0.67484 0.61084 0.67226 0.0
H1056 H 0.63742 0.6015 0.54987 0.0
H1057 H 0.55225 0.51625 0.63414 0.0
H1058 H 0.51969 0.49236 0.59899 0.0
H1059 H 0.52976 0.52405 0.62533 0.0
C1060 C 0.61463 0.60266 0.68329 0.0
C1061 C 0.64302 0.61288 0.69198 0.0
C1062 C 0.59761 0.58493 0.64851 0.0
C1063 C 0.60835 0.57671 0.62163 0.0
C1064 C 0.63594 0.58553 0.63118 0.0
H1065 H 0.53941 0.54016 0.36907 0.0
H1066 H 0.55355 0.52948 0.4297 0.0
C1067 C 0.65307 0.60333 0.66631 0.0
C1068 C 0.59359 0.56408 0.58078 0.0
H1069 H 0.52196 0.51598 0.53549 0.0
C1070 C 0.61225 0.58203 0.54644 0.0
C1071 C 0.56076 0.53848 0.57603 0.0
C1072 C 0.53961 0.51654 0.6107 0.0
C1073 C 0.59871 0.5774 0.50878 0.0
C1074 C 0.5658 0.55432 0.50563 0.0
C1075 C 0.54719 0.53416 0.5385 0.0
C1076 C 0.55102 0.5547 0.47102 0.0
C1077 C 0.61953 0.59901 0.47357 0.0
C1078 C 0.54401 0.57156 0.47491 0.0
C1079 C 0.53691 0.57856 0.44039 0.0
C1080 C 0.53668 0.56871 0.40145 0.0
C1081 C 0.54058 0.54908 0.3984 0.0
C1082 C 0.54816 0.5425 0.43293 0.0
H1083 H 0.64472 0.61491 0.48041 0.0
H1084 H 0.61348 0.58509 0.4459 0.0
H1085 H 0.61566 0.61344 0.46628 0.0
H1086 H 0.54607 0.58107 0.50429 0.0
H1087 H 0.53351 0.59327 0.44397 0.0
H1088 H 0.09087 0.1267 0.91114 0.0
H1089 H 0.09011 0.11025 0.97924 0.0
H1090 H 0.15452 0.1079 0.93933 0.0
H1091 H 0.1556 0.12448 0.87119 0.0
H1092 H 0.09631 0.05002 0.96669 0.0
H1093 H 0.14827 0.14453 0.07923 0.0
H1094 H 0.12299 0.13852 0.04232 0.0
H1095 H 0.15872 0.1521 0.02561 0.0
C1096 C 0.10589 0.12397 0.91727 0.0
C1097 C 0.12296 0.12649 0.88563 0.0
C1098 C 0.10541 0.11451 0.9563 0.0
C1099 C 0.12216 0.10772 0.96428 0.0
C1100 C 0.14141 0.11299 0.93376 0.0
H1101 H 0.0959 0.01797 0.19496 0.0
H1102 H 0.12067 0.04781 0.13109 0.0
C1103 C 0.14198 0.12249 0.89484 0.0
C1104 C 0.11553 0.09036 0.00164 0.0
H1105 H 0.11385 0.09253 0.10575 0.0
C1106 C 0.10059 0.05947 -0.00287 0.0
C1107 C 0.1215 0.10288 0.04121 0.0
C1108 C 0.139 0.13642 0.04761 0.0
C1109 C 0.0897 0.04016 0.03121 0.0
C1110 C 0.09389 0.05208 0.07056 0.0
C1111 C 0.1105 0.08349 0.07532 0.0
C1112 C 0.0786 0.03153 0.10673 0.0
C1113 C 0.07376 0.00714 0.02526 0.0
C1114 C 0.0467 0.01214 0.11347 0.0
C1115 C 0.03259 0.99536 0.14983 0.0
C1116 C 0.05011 0.99747 0.17997 0.0
C1117 C 0.08174 0.01566 0.17217 0.0
C1118 C 0.09597 0.03285 0.1359 0.0
H1119 H 0.07121 1.00095 0.99243 0.0
H1120 H 0.08757 0.00448 0.04075 0.0
H1121 H 0.05029 0.99027 0.0397 0.0
H1122 H 0.03298 0.01089 0.09121 0.0
H1123 H 0.00822 0.98161 0.15494 0.0
H1124 H 0.92917 0.63274 0.41859 0.0
H1125 H 0.94798 0.66598 0.35847 0.0
H1126 H 0.89269 0.58443 0.28065 0.0
H1127 H 0.87277 0.55113 0.34051 0.0
H1128 H 0.9816 0.679 0.29729 0.0
H1129 H 0.86927 0.62356 0.23346 0.0
H1130 H 0.87215 0.6146 0.28424 0.0
H1131 H 0.86779 0.59393 0.24035 0.0
C1132 C 0.92085 0.62193 0.38862 0.0
C1133 C 0.89933 0.58929 0.38426 0.0
C1134 C 0.93156 0.64094 0.35431 0.0
C1135 C 0.92114 0.6277 0.31498 0.0
C1136 C 0.90015 0.59516 0.31066 0.0
H1137 H 0.00424 0.67591 0.09296 0.0
H1138 H 0.99612 0.67559 0.16566 0.0
C1139 C 0.88901 0.57613 0.34492 0.0
C1140 C 0.93365 0.64778 0.27806 0.0
H1141 H 0.9114 0.6486 0.18355 0.0
C1142 C 0.96621 0.67282 0.2728 0.0
C1143 C 0.91384 0.64086 0.24652 0.0
C1144 C 0.87885 0.61701 0.25174 0.0
C1145 C 0.97931 0.68888 0.23545 0.0
C1146 C 0.95936 0.67885 0.20203 0.0
C1147 C 0.92691 0.65603 0.20869 0.0
C1148 C 0.97087 0.68728 0.15905 0.0
C1149 C 0.01443 0.71579 0.23198 0.0
C1150 C 0.95989 0.69447 0.13055 0.0
C1151 C 0.96432 0.69428 0.08848 0.0
C1152 C 0.97983 0.68702 0.07465 0.0
C1153 C 0.99285 0.68231 0.10313 0.0
C1154 C 0.9883 0.68228 0.14484 0.0
H1155 H 0.02468 0.72942 0.26094 0.0
H1156 H 0.02413 0.70648 0.22676 0.0
H1157 H 0.02186 0.73183 0.20655 0.0
H1158 H 0.94615 0.69815 0.14066 0.0
H1159 H 0.9536 0.69739 0.06691 0.0
H1160 H 0.48694 0.48127 0.6947 0.0
H1161 H 0.46556 0.44856 0.63466 0.0
H1162 H 0.41804 0.47286 0.60256 0.0
H1163 H 0.4409 0.50736 0.66285 0.0
H1164 H 0.41263 0.40055 0.59913 0.0
H1165 H 0.47475 0.508 0.5067 0.0
H1166 H 0.47849 0.50985 0.56142 0.0
H1167 H 0.44308 0.49397 0.53853 0.0
C1168 C 0.47175 0.47961 0.67517 0.0
C1169 C 0.46649 0.49777 0.6827 0.0
C1170 C 0.45917 0.46049 0.64094 0.0
C1171 C 0.44091 0.4589 0.61331 0.0
C1172 C 0.43291 0.47452 0.62279 0.0
H1173 H 0.46121 0.42794 0.36673 0.0
H1174 H 0.42556 0.41164 0.42228 0.0
C1175 C 0.44582 0.49406 0.65729 0.0
C1176 C 0.43479 0.44457 0.57274 0.0
H1177 H 0.46257 0.46692 0.47506 0.0
C1178 C 0.42269 0.41467 0.57159 0.0
C1179 C 0.44786 0.46296 0.5367 0.0
C1180 C 0.46194 0.49551 0.53565 0.0
C1181 C 0.42646 0.40426 0.53692 0.0
C1182 C 0.4419 0.42385 0.50243 0.0
C1183 C 0.45071 0.452 0.50184 0.0
C1184 C 0.45458 0.41918 0.46964 0.0
C1185 C 0.4159 0.37346 0.53822 0.0
C1186 C 0.48155 0.4266 0.47775 0.0
C1187 C 0.50202 0.43599 0.44596 0.0
C1188 C 0.49548 0.43788 0.40601 0.0
C1189 C 0.46639 0.42616 0.39735 0.0
C1190 C 0.44605 0.41694 0.42905 0.0
H1191 H 0.39783 0.35776 0.56218 0.0
H1192 H 0.40639 0.36144 0.50812 0.0
H1193 H 0.43627 0.37786 0.54525 0.0
H1194 H 0.48878 0.42899 0.509 0.0
H1195 H 0.52462 0.44561 0.45337 0.0
H1196 H 0.59874 0.90348 0.69797 0.0
H1197 H 0.62938 0.92445 0.76119 0.0
H1198 H 0.54517 0.87322 0.8317 0.0
H1199 H 0.5144 0.85107 0.769 0.0
H1200 H 0.6405 0.96041 0.81902 0.0
H1201 H 0.57913 0.84722 0.88949 0.0
H1202 H 0.57286 0.85014 0.83695 0.0
H1203 H 0.55179 0.84822 0.8776 0.0
C1204 C 0.58678 0.89649 0.72704 0.0
C1205 C 0.55412 0.8753 0.72859 0.0
C1206 C 0.60431 0.90853 0.76312 0.0
C1207 C 0.58954 0.89986 0.80136 0.0
C1208 C 0.55702 0.8794 0.80276 0.0
H1209 H 0.66519 0.99673 0.03141 0.0
H1210 H 0.65063 0.98323 0.95937 0.0
C1211 C 0.53945 0.86688 0.76683 0.0
C1212 C 0.608 0.91265 0.83984 0.0
H1213 H 0.60816 0.89109 0.93537 0.0
C1214 C 0.63375 0.94525 0.8443 0.0
C1215 C 0.59984 0.89295 0.87253 0.0
C1216 C 0.57463 0.8577 0.8687 0.0
C1217 C 0.65061 0.95867 0.88113 0.0
C1218 C 0.6407 0.93903 0.91497 0.0
C1219 C 0.61574 0.90638 0.90981 0.0
C1220 C 0.65461 0.95134 0.95655 0.0
C1221 C 0.67898 0.99371 0.88299 0.0
C1222 C 0.66172 0.93801 0.97938 0.0
C1223 C 0.66889 0.94487 0.02092 0.0
C1224 C 0.67002 0.96589 0.04018 0.0
C1225 C 0.66512 0.98095 0.01693 0.0
C1226 C 0.65694 0.97333 0.97562 0.0
H1227 H 0.69025 0.00326 0.85247 0.0
H1228 H 0.67166 0.0048 0.89245 0.0
H1229 H 0.69658 1.00047 0.90507 0.0
H1230 H 0.66019 0.92105 0.96554 0.0
H1231 H 0.67238 0.93283 0.03841 0.0
H1232 H 0.07994 0.39322 0.45382 0.0
H1233 H 0.09517 0.40351 0.38155 0.0
H1234 H 0.19064 0.48659 0.41526 0.0
H1235 H 0.17569 0.47643 0.48708 0.0
H1236 H 0.11772 0.45884 0.35362 0.0
H1237 H 0.2024 0.45601 0.31588 0.0
H1238 H 0.17614 0.43537 0.35918 0.0
H1239 H 0.21183 0.47657 0.36268 0.0
C1240 C 0.10439 0.4129 0.44587 0.0
C1241 C 0.12657 0.43434 0.47589 0.0
C1242 C 0.11305 0.41875 0.40461 0.0
C1243 C 0.14404 0.44577 0.39308 0.0
C1244 C 0.16673 0.46534 0.42342 0.0
H1245 H 0.24846 0.58299 0.20376 0.0
H1246 H 0.22998 0.54928 0.26351 0.0
C1247 C 0.15807 0.45967 0.46449 0.0
C1248 C 0.15138 0.45758 0.3507 0.0
H1249 H 0.20479 0.48978 0.27398 0.0
C1250 C 0.13624 0.46492 0.33568 0.0
C1251 C 0.17593 0.46599 0.32787 0.0
C1252 C 0.19232 0.45781 0.34207 0.0
C1253 C 0.14607 0.48199 0.29956 0.0
C1254 C 0.17119 0.49117 0.27716 0.0
C1255 C 0.18562 0.48281 0.29132 0.0
C1256 C 0.18328 0.51036 0.23974 0.0
C1257 C 0.13057 0.49153 0.28704 0.0
C1258 C 0.1634 0.49932 0.2064 0.0
C1259 C 0.17365 0.51867 0.17296 0.0
C1260 C 0.20419 0.54919 0.17182 0.0
C1261 C 0.22469 0.55968 0.2042 0.0
C1262 C 0.21422 0.54042 0.2381 0.0
H1263 H 0.11765 0.48974 0.31284 0.0
H1264 H 0.14804 0.51595 0.27543 0.0
H1265 H 0.11351 0.4758 0.26229 0.0
H1266 H 0.13974 0.47589 0.20656 0.0
H1267 H 0.15765 0.50952 0.14787 0.0
H1268 H 0.98277 0.91096 0.72431 0.0
H1269 H 0.99063 0.92655 0.65239 0.0
H1270 H 0.89067 0.85605 0.63533 0.0
H1271 H 0.88292 0.84051 0.70682 0.0
H1272 H 0.91965 0.86581 0.56584 0.0
H1273 H 0.97542 0.97898 0.63406 0.0
H1274 H 0.99645 0.96968 0.64273 0.0
H1275 H 0.95826 0.94557 0.66466 0.0
C1276 C 0.96261 0.89785 0.70452 0.0
C1277 C 0.93225 0.87468 0.72069 0.0
C1278 C 0.96707 0.90708 0.66373 0.0
C1279 C 0.94117 0.8933 0.63916 0.0
C1280 C 0.91094 0.86744 0.65405 0.0
H1281 H 0.89204 0.93244 0.42807 0.0
H1282 H 0.89501 0.91901 0.4968 0.0
C1283 C 0.9065 0.85838 0.69472 0.0
C1284 C 0.94485 0.90803 0.60051 0.0
H1285 H 0.96913 0.97409 0.56238 0.0
C1286 C 0.93068 0.88956 0.56502 0.0
C1287 C 0.95882 0.93892 0.59972 0.0
C1288 C 0.97287 0.95941 0.63735 0.0
C1289 C 0.92996 0.90104 0.52886 0.0
C1290 C 0.9437 0.93171 0.52833 0.0
C1291 C 0.95848 0.9505 0.56331 0.0
C1292 C 0.94349 0.94472 0.49102 0.0
C1293 C 0.91438 0.88035 0.49141 0.0
C1294 C 0.97024 0.9649 0.46639 0.0
C1295 C 0.96859 0.9725 0.42736 0.0
C1296 C 0.94023 0.96026 0.41263 0.0
C1297 C 0.91425 0.94246 0.43886 0.0
C1298 C 0.91582 0.93454 0.47786 0.0
H1299 H 0.90878 0.85892 0.49508 0.0
H1300 H 0.8923 0.87312 0.48541 0.0
H1301 H 0.92967 0.89342 0.46422 0.0
H1302 H 0.99178 0.97302 0.47626 0.0
H1303 H 0.98892 0.98617 0.40765 0.0
H1304 H 0.41721 0.14876 0.63173 0.0
H1305 H 0.43547 0.17893 0.69518 0.0
H1306 H 0.40166 0.09974 0.76334 0.0
H1307 H 0.38204 0.06916 0.7002 0.0
H1308 H 0.40366 0.13918 0.81022 0.0
H1309 H 0.51546 0.20596 0.72587 0.0
H1310 H 0.48853 0.20538 0.70448 0.0
H1311 H 0.47849 0.16999 0.706 0.0
C1312 C 0.41224 0.13738 0.66063 0.0
C1313 C 0.39851 0.10687 0.66145 0.0
C1314 C 0.42287 0.15466 0.69673 0.0
C1315 C 0.42086 0.1419 0.73364 0.0
C1316 C 0.4036 0.11009 0.73507 0.0
H1317 H 0.51271 0.15095 0.90653 0.0
H1318 H 0.49232 0.15442 0.84641 0.0
C1319 C 0.39232 0.09257 0.69906 0.0
C1320 C 0.44187 0.16243 0.76816 0.0
H1321 H 0.51804 0.21093 0.79641 0.0
C1322 C 0.42881 0.15578 0.80719 0.0
C1323 C 0.47476 0.18407 0.76399 0.0
C1324 C 0.49029 0.19178 0.72296 0.0
C1325 C 0.4474 0.16786 0.84239 0.0
C1326 C 0.47969 0.18703 0.83814 0.0
C1327 C 0.49325 0.19633 0.79921 0.0
C1328 C 0.49734 0.19009 0.87193 0.0
C1329 C 0.43201 0.1575 0.88391 0.0
C1330 C 0.5082 0.21011 0.90528 0.0
C1331 C 0.52042 0.20851 0.93957 0.0
C1332 C 0.5213 0.18653 0.94075 0.0
C1333 C 0.51226 0.16807 0.90622 0.0
C1334 C 0.50058 0.17 0.872 0.0
H1335 H 0.40691 0.14375 0.88205 0.0
H1336 H 0.43387 0.14286 0.89876 0.0
H1337 H 0.44424 0.17825 0.9037 0.0
H1338 H 0.50588 0.22579 0.90552 0.0
H1339 H 0.52695 0.2227 0.96614 0.0
H1340 H 0.55865 0.62236 0.1854 0.0
H1341 H 0.57953 0.62416 0.12052 0.0
H1342 H 0.62196 0.60139 0.18301 0.0
H1343 H 0.59985 0.59816 0.24768 0.0
H1344 H 0.63766 0.66315 0.09959 0.0
H1345 H 0.61242 0.56486 0.12864 0.0
H1346 H 0.58377 0.54328 0.08869 0.0
H1347 H 0.57783 0.55589 0.1328 0.0
C1348 C 0.57196 0.6172 0.18511 0.0
C1349 C 0.57752 0.61001 0.22142 0.0
C1350 C 0.58398 0.61831 0.14808 0.0
C1351 C 0.60213 0.61262 0.14666 0.0
C1352 C 0.60748 0.60516 0.18302 0.0
H1353 H 0.7117 0.65834 0.92564 0.0
H1354 H 0.6952 0.64636 -0.00205 0.0
C1355 C 0.59491 0.60343 0.21999 0.0
C1356 C 0.61695 0.61672 0.10744 0.0
H1357 H 0.62204 0.57976 0.03678 0.0
C1358 C 0.63428 0.64489 0.0861 0.0
C1359 C 0.61321 0.59319 0.09 0.0
C1360 C 0.59558 0.56257 0.11118 0.0
C1361 C 0.64679 0.64967 0.04733 0.0
C1362 C 0.64183 0.62569 0.02929 0.0
C1363 C 0.62573 0.59805 0.05098 0.0
C1364 C 0.65008 0.62795 0.98605 0.0
C1365 C 0.66438 0.67994 0.0251 0.0
C1366 C 0.62981 0.62081 0.95585 0.0
C1367 C 0.6392 0.62786 0.91512 0.0
C1368 C 0.66897 0.64196 0.90374 0.0
C1369 C 0.68858 0.6473 0.93366 0.0
C1370 C 0.67922 0.64051 0.9748 0.0
H1371 H 0.68682 0.68987 0.01298 0.0
H1372 H 0.65032 0.67528 -0.00134 0.0
H1373 H 0.66936 0.69765 0.04511 0.0
H1374 H 0.60731 0.61122 0.96403 0.0
H1375 H 0.6235 0.62325 0.89264 0.0
loop_
_geom_bond_atom_site_label_1
_geom_bond_atom_site_label_2
_geom_bond_distance
_geom_bond_site_symmetry_2
_ccdc_geom_bond_type
Zn0 O3 2.031 . S
Zn0 O5 2.049 . S
Zn0 O10 2.067 1_445 S
Zn1 O2 1.962 . S
Zn1 O4 1.986 . S
Zn1 O6 1.996 . S
Zn1 O9 1.943 1_545 S
O2 Zn1 1.962 . S
O2 C7 1.254 . S
O3 Zn0 2.031 . S
O3 C7 1.269 . S
O4 Zn1 1.986 . S
O4 C11 1.262 1_545 S
O5 Zn0 2.049 . S
O5 C13 1.260 . S
O6 Zn1 1.996 . S
O6 C13 1.257 . S
C7 O2 1.254 . S
C7 O3 1.269 . S
C8 O9 1.249 1_655 S
C8 O10 1.270 . S
O9 Zn1 1.943 1_565 S
O9 C8 1.249 1_455 S
O10 Zn0 2.067 1_665 S
O10 C8 1.270 . S
C11 O4 1.262 1_565 S
C11 O12 1.232 . S
O12 C11 1.232 . S
C13 O5 1.260 . S
C13 O6 1.257 . S
Zn14 O17 2.031 . S
Zn14 O19 2.049 . S
Zn14 O24 2.067 . S
Zn15 O16 1.962 . S
Zn15 O18 1.986 . S
Zn15 O20 1.996 . S
Zn15 O23 1.943 . S
O16 Zn15 1.962 . S
O16 C21 1.254 . S
O17 Zn14 2.031 . S
O17 C21 1.269 . S
O18 Zn15 1.986 . S
O18 C25 1.262 . S
O19 Zn14 2.049 . S
O19 C27 1.260 . S
O20 Zn15 1.996 . S
O20 C27 1.257 . S
C21 O16 1.254 . S
C21 O17 1.269 . S
C22 O23 1.249 . S
C22 O24 1.270 . S
O23 Zn15 1.943 . S
O23 C22 1.249 . S
O24 Zn14 2.067 . S
O24 C22 1.270 . S
C25 O18 1.262 . S
C25 O26 1.232 . S
O26 C25 1.232 . S
C27 O19 1.260 . S
C27 O20 1.257 . S
Zn28 O31 2.031 . S
Zn28 O33 2.049 . S
Zn28 O38 2.067 . S
Zn29 O30 1.962 . S
Zn29 O32 1.986 . S
Zn29 O34 1.996 . S
Zn29 O37 1.943 . S
O30 Zn29 1.962 . S
O30 C35 1.254 . S
O31 Zn28 2.031 . S
O31 C35 1.269 . S
O32 Zn29 1.986 . S
O32 C39 1.262 . S
O33 Zn28 2.049 . S
O33 C41 1.260 . S
O34 Zn29 1.996 . S
O34 C41 1.257 . S
C35 O30 1.254 . S
C35 O31 1.269 . S
C36 O37 1.249 . S
C36 O38 1.270 . S
O37 Zn29 1.943 . S
O37 C36 1.249 . S
O38 Zn28 2.067 . S
O38 C36 1.270 . S
C39 O32 1.262 . S
C39 O40 1.232 . S
O40 C39 1.232 . S
C41 O33 1.260 . S
C41 O34 1.257 . S
Zn42 O45 2.031 . S
Zn42 O47 2.049 . S
Zn42 O52 2.067 . S
Zn43 O44 1.962 1_565 S
Zn43 O46 1.986 . S
Zn43 O48 1.996 1_565 S
Zn43 O51 1.943 . S
O44 Zn43 1.962 1_545 S
O44 C49 1.254 . S
O45 Zn42 2.031 . S
O45 C49 1.269 . S
O46 Zn43 1.986 . S
O46 C53 1.262 . S
O47 Zn42 2.049 . S
O47 C55 1.260 . S
O48 Zn43 1.996 1_545 S
O48 C55 1.257 . S
C49 O44 1.254 . S
C49 O45 1.269 . S
C50 O51 1.249 . S
C50 O52 1.270 1_565 S
O51 Zn43 1.943 . S
O51 C50 1.249 . S
O52 Zn42 2.067 . S
O52 C50 1.270 1_545 S
C53 O46 1.262 . S
C53 O54 1.232 . S
O54 C53 1.232 . S
C55 O47 1.260 . S
C55 O48 1.257 . S
Zn56 O59 2.031 . S
Zn56 O61 2.049 1_554 S
Zn56 O66 2.067 . S
Zn57 O58 1.962 . S
Zn57 O60 1.986 . S
Zn57 O62 1.996 . S
Zn57 O65 1.943 . S
O58 Zn57 1.962 . S
O58 C63 1.254 . S
O59 Zn56 2.031 . S
O59 C63 1.269 . S
O60 Zn57 1.986 . S
O60 C67 1.262 . S
O61 Zn56 2.049 1_556 S
O61 C69 1.260 . S
O62 Zn57 1.996 . S
O62 C69 1.257 1_554 S
C63 O58 1.254 . S
C63 O59 1.269 . S
C64 O65 1.249 . S
C64 O66 1.270 . S
O65 Zn57 1.943 . S
O65 C64 1.249 . S
O66 Zn56 2.067 . S
O66 C64 1.270 . S
C67 O60 1.262 . S
C67 O68 1.232 . S
O68 C67 1.232 . S
C69 O61 1.260 . S
C69 O62 1.257 1_556 S
Zn70 O73 2.031 . S
Zn70 O75 2.049 . S
Zn70 O80 2.067 . S
Zn71 O72 1.962 1_565 S
Zn71 O74 1.986 1_565 S
Zn71 O76 1.996 1_565 S
Zn71 O79 1.943 . S
O72 Zn71 1.962 1_545 S
O72 C77 1.254 1_545 S
O73 Zn70 2.031 . S
O73 C77 1.269 . S
O74 Zn71 1.986 1_545 S
O74 C81 1.262 . S
O75 Zn70 2.049 . S
O75 C83 1.260 . S
O76 Zn71 1.996 1_545 S
O76 C83 1.257 1_545 S
C77 O72 1.254 1_565 S
C77 O73 1.269 . S
C78 O79 1.249 . S
C78 O80 1.270 . S
O79 Zn71 1.943 . S
O79 C78 1.249 . S
O80 Zn70 2.067 . S
O80 C78 1.270 . S
C81 O74 1.262 . S
C81 O82 1.232 1_545 S
O82 C81 1.232 1_565 S
C83 O75 1.260 . S
C83 O76 1.257 1_565 S
Zn84 O87 2.031 . S
Zn84 O89 2.049 . S
Zn84 O94 2.067 . S
Zn85 O86 1.962 . S
Zn85 O88 1.986 . S
Zn85 O90 1.996 . S
Zn85 O93 1.943 1_545 S
O86 Zn85 1.962 . S
O86 C91 1.254 . S
O87 Zn84 2.031 . S
O87 C91 1.269 . S
O88 Zn85 1.986 . S
O88 C95 1.262 . S
O89 Zn84 2.049 . S
O89 C97 1.260 . S
O90 Zn85 1.996 . S
O90 C97 1.257 . S
C91 O86 1.254 . S
C91 O87 1.269 . S
C92 O93 1.249 . S
C92 O94 1.270 1_565 S
O93 Zn85 1.943 1_565 S
O93 C92 1.249 . S
O94 Zn84 2.067 . S
O94 C92 1.270 1_545 S
C95 O88 1.262 . S
C95 O96 1.232 1_545 S
O96 C95 1.232 1_565 S
C97 O89 1.260 . S
C97 O90 1.257 . S
Zn98 O101 2.031 . S
Zn98 O103 2.049 . S
Zn98 O108 2.067 . S
Zn99 O100 1.962 . S
Zn99 O102 1.986 . S
Zn99 O104 1.996 . S
Zn99 O107 1.943 . S
O100 Zn99 1.962 . S
O100 C105 1.254 . S
O101 Zn98 2.031 . S
O101 C105 1.269 . S
O102 Zn99 1.986 . S
O102 C109 1.262 . S
O103 Zn98 2.049 . S
O103 C111 1.260 . S
O104 Zn99 1.996 . S
O104 C111 1.257 . S
C105 O100 1.254 . S
C105 O101 1.269 . S
C106 O107 1.249 . S
C106 O108 1.270 . S
O107 Zn99 1.943 . S
O107 C106 1.249 . S
O108 Zn98 2.067 . S
O108 C106 1.270 . S
C109 O102 1.262 . S
C109 O110 1.232 . S
O110 C109 1.232 . S
C111 O103 1.260 . S
C111 O104 1.257 . S
Zn112 O115 2.031 . S
Zn112 O117 2.049 . S
Zn112 O122 2.067 . S
Zn113 O114 1.962 1_655 S
Zn113 O116 1.986 1_655 S
Zn113 O118 1.996 1_655 S
Zn113 O121 1.943 . S
O114 Zn113 1.962 1_455 S
O114 C119 1.254 1_455 S
O115 Zn112 2.031 . S
O115 C119 1.269 . S
O116 Zn113 1.986 1_455 S
O116 C123 1.262 . S
O117 Zn112 2.049 . S
O117 C125 1.260 . S
O118 Zn113 1.996 1_455 S
O118 C125 1.257 1_455 S
C119 O114 1.254 1_655 S
C119 O115 1.269 . S
C120 O121 1.249 . S
C120 O122 1.270 . S
O121 Zn113 1.943 . S
O121 C120 1.249 . S
O122 Zn112 2.067 . S
O122 C120 1.270 . S
C123 O116 1.262 . S
C123 O124 1.232 1_455 S
O124 C123 1.232 1_655 S
C125 O117 1.260 . S
C125 O118 1.257 1_655 S
Zn126 O129 2.031 . S
Zn126 O131 2.049 . S
Zn126 O136 2.067 . S
Zn127 O128 1.962 . S
Zn127 O130 1.986 . S
Zn127 O132 1.996 . S
Zn127 O135 1.943 . S
O128 Zn127 1.962 . S
O128 C133 1.254 . S
O129 Zn126 2.031 . S
O129 C133 1.269 . S
O130 Zn127 1.986 . S
O130 C137 1.262 . S
O131 Zn126 2.049 . S
O131 C139 1.260 . S
O132 Zn127 1.996 . S
O132 C139 1.257 . S
C133 O128 1.254 . S
C133 O129 1.269 . S
C134 O135 1.249 . S
C134 O136 1.270 . S
O135 Zn127 1.943 . S
O135 C134 1.249 . S
O136 Zn126 2.067 . S
O136 C134 1.270 . S
C137 O130 1.262 . S
C137 O138 1.232 . S
O138 C137 1.232 . S
C139 O131 1.260 . S
C139 O132 1.257 . S
Zn140 O143 2.031 . S
Zn140 O145 2.049 . S
Zn140 O150 2.067 . S
Zn141 O142 1.962 . S
Zn141 O144 1.986 . S
Zn141 O146 1.996 . S
Zn141 O149 1.943 . S
O142 Zn141 1.962 . S
O142 C147 1.254 . S
O143 Zn140 2.031 . S
O143 C147 1.269 . S
O144 Zn141 1.986 . S
O144 C151 1.262 . S
O145 Zn140 2.049 . S
O145 C153 1.260 . S
O146 Zn141 1.996 . S
O146 C153 1.257 . S
C147 O142 1.254 . S
C147 O143 1.269 . S
C148 O149 1.249 . S
C148 O150 1.270 . S
O149 Zn141 1.943 . S
O149 C148 1.249 . S
O150 Zn140 2.067 . S
O150 C148 1.270 . S
C151 O144 1.262 . S
C151 O152 1.232 . S
O152 C151 1.232 . S
C153 O145 1.260 . S
C153 O146 1.257 . S
Zn154 O157 2.031 . S
Zn154 O159 2.049 . S
Zn154 O164 2.067 . S
Zn155 O156 1.962 . S
Zn155 O158 1.986 . S
Zn155 O160 1.996 . S
Zn155 O163 1.943 1_455 S
O156 Zn155 1.962 . S
O156 C161 1.254 . S
O157 Zn154 2.031 . S
O157 C161 1.269 . S
O158 Zn155 1.986 . S
O158 C165 1.262 . S
O159 Zn154 2.049 . S
O159 C167 1.260 . S
O160 Zn155 1.996 . S
O160 C167 1.257 . S
C161 O156 1.254 . S
C161 O157 1.269 . S
C162 O163 1.249 . S
C162 O164 1.270 1_655 S
O163 Zn155 1.943 1_655 S
O163 C162 1.249 . S
O164 Zn154 2.067 . S
O164 C162 1.270 1_455 S
C165 O158 1.262 . S
C165 O166 1.232 1_455 S
O166 C165 1.232 1_655 S
C167 O159 1.260 . S
C167 O160 1.257 . S
Zn168 O171 2.031 . S
Zn168 O173 2.049 . S
Zn168 O178 2.067 . S
Zn169 O170 1.962 . S
Zn169 O172 1.986 . S
Zn169 O174 1.996 . S
Zn169 O177 1.943 . S
O170 Zn169 1.962 . S
O170 C175 1.254 . S
O171 Zn168 2.031 . S
O171 C175 1.269 . S
O172 Zn169 1.986 . S
O172 C179 1.262 . S
O173 Zn168 2.049 . S
O173 C181 1.260 . S
O174 Zn169 1.996 . S
O174 C181 1.257 . S
C175 O170 1.254 . S
C175 O171 1.269 . S
C176 O177 1.249 . S
C176 O178 1.270 . S
O177 Zn169 1.943 . S
O177 C176 1.249 . S
O178 Zn168 2.067 . S
O178 C176 1.270 . S
C179 O172 1.262 . S
C179 O180 1.232 . S
O180 C179 1.232 . S
C181 O173 1.260 . S
C181 O174 1.257 . S
Zn182 O185 2.031 . S
Zn182 O187 2.049 . S
Zn182 O192 2.067 1_445 S
Zn183 O184 1.962 . S
Zn183 O186 1.986 . S
Zn183 O188 1.996 . S
Zn183 O191 1.943 1_455 S
O184 Zn183 1.962 . S
O184 C189 1.254 . S
O185 Zn182 2.031 . S
O185 C189 1.269 . S
O186 Zn183 1.986 . S
O186 C193 1.262 1_455 S
O187 Zn182 2.049 . S
O187 C195 1.260 . S
O188 Zn183 1.996 . S
O188 C195 1.257 . S
C189 O184 1.254 . S
C189 O185 1.269 . S
C190 O191 1.249 1_565 S
C190 O192 1.270 . S
O191 Zn183 1.943 1_655 S
O191 C190 1.249 1_545 S
O192 Zn182 2.067 1_665 S
O192 C190 1.270 . S
C193 O186 1.262 1_655 S
C193 O194 1.232 . S
O194 C193 1.232 . S
C195 O187 1.260 . S
C195 O188 1.257 . S
Zn196 O199 2.031 . S
Zn196 O201 2.049 1_554 S
Zn196 O206 2.067 . S
Zn197 O198 1.962 1_655 S
Zn197 O200 1.986 1_554 S
Zn197 O202 1.996 1_654 S
Zn197 O205 1.943 . S
O198 Zn197 1.962 1_455 S
O198 C203 1.254 . S
O199 Zn196 2.031 . S
O199 C203 1.269 . S
O200 Zn197 1.986 1_556 S
O200 C207 1.262 1_556 S
O201 Zn196 2.049 1_556 S
O201 C209 1.260 . S
O202 Zn197 1.996 1_456 S
O202 C209 1.257 . S
C203 O198 1.254 . S
C203 O199 1.269 . S
C204 O205 1.249 . S
C204 O206 1.270 1_655 S
O205 Zn197 1.943 . S
O205 C204 1.249 . S
O206 Zn196 2.067 . S
O206 C204 1.270 1_455 S
C207 O200 1.262 1_554 S
C207 O208 1.232 . S
O208 C207 1.232 . S
C209 O201 1.260 . S
C209 O202 1.257 . S
Zn210 O213 2.031 . S
Zn210 O215 2.049 . S
Zn210 O220 2.067 . S
Zn211 O212 1.962 . S
Zn211 O214 1.986 . S
Zn211 O216 1.996 . S
Zn211 O219 1.943 . S
O212 Zn211 1.962 . S
O212 C217 1.254 . S
O213 Zn210 2.031 . S
O213 C217 1.269 . S
O214 Zn211 1.986 . S
O214 C221 1.262 . S
O215 Zn210 2.049 . S
O215 C223 1.260 . S
O216 Zn211 1.996 . S
O216 C223 1.257 . S
C217 O212 1.254 . S
C217 O213 1.269 . S
C218 O219 1.249 . S
C218 O220 1.270 . S
O219 Zn211 1.943 . S
O219 C218 1.249 . S
O220 Zn210 2.067 . S
O220 C218 1.270 . S
C221 O214 1.262 . S
C221 O222 1.232 . S
O222 C221 1.232 . S
C223 O215 1.260 . S
C223 O216 1.257 . S
H224 C232 0.929 . S
H225 C234 0.930 . S
H226 C236 0.930 . S
H227 C239 0.929 . S
H228 C242 0.930 . S
H229 C244 0.960 . S
H230 C244 0.960 . S
H231 C244 0.960 . S
C232 H224 0.929 . S
C232 C233 1.375 . S
C232 C234 1.384 . S
C233 C232 1.375 . S
C233 C239 1.390 1_545 S
C234 H225 0.930 . S
C234 C232 1.384 . S
C234 C235 1.375 . S
C235 C234 1.375 . S
C235 C236 1.391 1_545 S
C235 C240 1.468 . S
C236 H226 0.930 . S
C236 C235 1.391 1_565 S
C236 C239 1.386 . S
H237 C253 0.930 . S
H238 C254 0.931 . S
C239 H227 0.929 . S
C239 C233 1.390 1_565 S
C239 C236 1.386 . S
C240 C235 1.468 . S
C240 C242 1.427 . S
C240 C243 1.400 1_545 S
H241 C247 0.930 . S
C242 H228 0.930 . S
C242 C240 1.427 . S
C242 C245 1.403 . S
C243 C240 1.400 1_565 S
C243 C244 1.524 . S
C243 C247 1.400 . S
C244 H229 0.960 . S
C244 H230 0.960 . S
C244 H231 0.960 . S
C244 C243 1.524 . S
C245 C242 1.403 . S
C245 C246 1.392 . S
C245 C249 1.495 . S
C246 C245 1.392 . S
C246 C247 1.385 1_545 S
C246 C248 1.478 . S
C247 H241 0.930 . S
C247 C243 1.400 . S
C247 C246 1.385 1_565 S
C248 C246 1.478 . S
C248 C250 1.381 . S
C248 C254 1.383 1_545 S
C249 C245 1.495 . S
C249 H255 0.959 . S
C249 H256 0.961 . S
C249 H257 0.960 . S
C250 C248 1.381 . S
C250 C251 1.394 . S
C250 H258 0.930 . S
C251 C250 1.394 . S
C251 C252 1.383 1_545 S
C251 H259 0.929 . S
C252 C251 1.383 1_565 S
C252 C253 1.377 . S
C253 H237 0.930 . S
C253 C252 1.377 . S
C253 C254 1.379 . S
C254 H238 0.931 . S
C254 C248 1.383 1_565 S
C254 C253 1.379 . S
H255 C249 0.959 . S
H256 C249 0.961 . S
H257 C249 0.960 . S
H258 C250 0.930 . S
H259 C251 0.929 . S
H260 C268 0.929 . S
H261 C270 0.930 . S
H262 C272 0.930 . S
H263 C275 0.929 . S
H264 C278 0.930 . S
H265 C280 0.960 . S
H266 C280 0.960 . S
H267 C280 0.960 . S
C268 H260 0.929 . S
C268 C269 1.377 . S
C268 C270 1.384 . S
C269 C268 1.377 . S
C269 C275 1.390 . S
C270 H261 0.930 . S
C270 C268 1.384 . S
C270 C271 1.372 . S
C271 C270 1.372 . S
C271 C272 1.400 . S
C271 C276 1.490 . S
C272 H262 0.930 . S
C272 C271 1.400 . S
C272 C275 1.386 . S
H273 C289 0.930 . S
H274 C290 0.931 . S
C275 H263 0.929 . S
C275 C269 1.390 . S
C275 C272 1.386 . S
C276 C271 1.490 . S
C276 C278 1.395 . S
C276 C279 1.403 . S
H277 C283 0.930 . S
C278 H264 0.930 . S
C278 C276 1.395 . S
C278 C281 1.403 . S
C279 C276 1.403 . S
C279 C280 1.524 . S
C279 C283 1.400 . S
C280 H265 0.960 . S
C280 H266 0.960 . S
C280 H267 0.960 . S
C280 C279 1.524 . S
C281 C278 1.403 . S
C281 C282 1.392 . S
C281 C285 1.495 . S
C282 C281 1.392 . S
C282 C283 1.385 . S
C282 C284 1.478 . S
C283 H277 0.930 . S
C283 C279 1.400 . S
C283 C282 1.385 . S
C284 C282 1.478 . S
C284 C286 1.381 . S
C284 C290 1.383 . S
C285 C281 1.495 . S
C285 H291 0.959 . S
C285 H292 0.961 . S
C285 H293 0.960 . S
C286 C284 1.381 . S
C286 C287 1.394 . S
C286 H294 0.930 . S
C287 C286 1.394 . S
C287 C288 1.383 . S
C287 H295 0.929 . S
C288 C287 1.383 . S
C288 C289 1.377 . S
C289 H273 0.930 . S
C289 C288 1.377 . S
C289 C290 1.379 . S
C290 H274 0.931 . S
C290 C284 1.383 . S
C290 C289 1.379 . S
H291 C285 0.959 . S
H292 C285 0.961 . S
H293 C285 0.960 . S
H294 C286 0.930 . S
H295 C287 0.929 . S
H296 C304 0.929 . S
H297 C306 0.930 . S
H298 C308 0.930 . S
H299 C311 0.929 . S
H300 C314 0.930 . S
H301 C316 0.960 . S
H302 C316 0.960 . S
H303 C316 0.960 . S
C304 H296 0.929 . S
C304 C305 1.377 . S
C304 C306 1.384 . S
C305 C304 1.377 . S
C305 C311 1.390 . S
C306 H297 0.930 . S
C306 C304 1.384 . S
C306 C307 1.372 . S
C307 C306 1.372 . S
C307 C308 1.400 . S
C307 C312 1.490 . S
C308 H298 0.930 . S
C308 C307 1.400 . S
C308 C311 1.386 . S
H309 C325 0.930 . S
H310 C326 0.931 . S
C311 H299 0.929 . S
C311 C305 1.390 . S
C311 C308 1.386 . S
C312 C307 1.490 . S
C312 C314 1.395 . S
C312 C315 1.403 . S
H313 C319 0.930 . S
C314 H300 0.930 . S
C314 C312 1.395 . S
C314 C317 1.403 . S
C315 C312 1.403 . S
C315 C316 1.524 . S
C315 C319 1.400 . S
C316 H301 0.960 . S
C316 H302 0.960 . S
C316 H303 0.960 . S
C316 C315 1.524 . S
C317 C314 1.403 . S
C317 C318 1.392 . S
C317 C321 1.495 . S
C318 C317 1.392 . S
C318 C319 1.385 . S
C318 C320 1.478 . S
C319 H313 0.930 . S
C319 C315 1.400 . S
C319 C318 1.385 . S
C320 C318 1.478 . S
C320 C322 1.381 . S
C320 C326 1.383 1_556 S
C321 C317 1.495 . S
C321 H327 0.959 . S
C321 H328 0.961 . S
C321 H329 0.960 . S
C322 C320 1.381 . S
C322 C323 1.394 . S
C322 H330 0.930 . S
C323 C322 1.394 . S
C323 C324 1.383 1_556 S
C323 H331 0.929 . S
C324 C323 1.383 1_554 S
C324 C325 1.377 . S
C325 H309 0.930 . S
C325 C324 1.377 . S
C325 C326 1.379 . S
C326 H310 0.931 . S
C326 C320 1.383 1_554 S
C326 C325 1.379 . S
H327 C321 0.959 . S
H328 C321 0.961 . S
H329 C321 0.960 . S
H330 C322 0.930 . S
H331 C323 0.929 . S
H332 C340 0.929 . S
H333 C342 0.930 . S
H334 C344 0.930 . S
H335 C347 0.929 . S
H336 C350 0.930 . S
H337 C352 0.960 . S
H338 C352 0.960 . S
H339 C352 0.960 . S
C340 H332 0.929 . S
C340 C341 1.377 . S
C340 C342 1.384 . S
C341 C340 1.377 . S
C341 C347 1.390 . S
C342 H333 0.930 . S
C342 C340 1.384 . S
C342 C343 1.372 . S
C343 C342 1.372 . S
C343 C344 1.400 . S
C343 C348 1.490 . S
C344 H334 0.930 . S
C344 C343 1.400 . S
C344 C347 1.386 . S
H345 C361 0.930 . S
H346 C362 0.931 . S
C347 H335 0.929 . S
C347 C341 1.390 . S
C347 C344 1.386 . S
C348 C343 1.490 . S
C348 C350 1.395 . S
C348 C351 1.403 . S
H349 C355 0.930 . S
C350 H336 0.930 . S
C350 C348 1.395 . S
C350 C353 1.403 . S
C351 C348 1.403 . S
C351 C352 1.524 . S
C351 C355 1.400 . S
C352 H337 0.960 . S
C352 H338 0.960 . S
C352 H339 0.960 . S
C352 C351 1.524 . S
C353 C350 1.403 . S
C353 C354 1.392 . S
C353 C357 1.495 1_565 S
C354 C353 1.392 . S
C354 C355 1.385 . S
C354 C356 1.478 . S
C355 H349 0.930 . S
C355 C351 1.400 . S
C355 C354 1.385 . S
C356 C354 1.478 . S
C356 C358 1.381 . S
C356 C362 1.383 1_565 S
C357 C353 1.495 1_545 S
C357 H363 0.959 . S
C357 H364 0.961 . S
C357 H365 0.960 . S
C358 C356 1.381 . S
C358 C359 1.394 . S
C358 H366 0.930 . S
C359 C358 1.394 . S
C359 C360 1.383 1_565 S
C359 H367 0.929 . S
C360 C359 1.383 1_545 S
C360 C361 1.377 . S
C361 H345 0.930 . S
C361 C360 1.377 . S
C361 C362 1.379 . S
C362 H346 0.931 . S
C362 C356 1.383 1_545 S
C362 C361 1.379 . S
H363 C357 0.959 . S
H364 C357 0.961 . S
H365 C357 0.960 . S
H366 C358 0.930 . S
H367 C359 0.929 . S
H368 C376 0.929 . S
H369 C378 0.930 . S
H370 C380 0.930 . S
H371 C383 0.929 . S
H372 C386 0.930 . S
H373 C388 0.960 . S
H374 C388 0.960 . S
H375 C388 0.960 . S
C376 H368 0.929 . S
C376 C377 1.377 . S
C376 C378 1.384 . S
C377 C376 1.377 . S
C377 C383 1.390 1_455 S
C378 H369 0.930 . S
C378 C376 1.384 . S
C378 C379 1.372 1_455 S
C379 C378 1.372 1_655 S
C379 C380 1.400 . S
C379 C384 1.490 . S
C380 H370 0.930 . S
C380 C379 1.400 . S
C380 C383 1.386 . S
H381 C397 0.930 . S
H382 C398 0.931 . S
C383 H371 0.929 . S
C383 C377 1.390 1_655 S
C383 C380 1.386 . S
C384 C379 1.490 . S
C384 C386 1.395 1_655 S
C384 C387 1.403 . S
H385 C391 0.930 . S
C386 H372 0.930 . S
C386 C384 1.395 1_455 S
C386 C389 1.403 1_455 S
C387 C384 1.403 . S
C387 C388 1.524 . S
C387 C391 1.400 . S
C388 H373 0.960 . S
C388 H374 0.960 . S
C388 H375 0.960 . S
C388 C387 1.524 . S
C389 C386 1.403 1_655 S
C389 C390 1.392 . S
C389 C393 1.495 1_656 S
C390 C389 1.392 . S
C390 C391 1.385 . S
C390 C392 1.478 . S
C391 H385 0.930 . S
C391 C387 1.400 . S
C391 C390 1.385 . S
C392 C390 1.478 . S
C392 C394 1.381 . S
C392 C398 1.383 . S
C393 C389 1.495 1_454 S
C393 H399 0.959 . S
C393 H400 0.961 . S
C393 H401 0.961 . S
C394 C392 1.381 . S
C394 C395 1.394 . S
C394 H402 0.930 1_655 S
C395 C394 1.394 . S
C395 C396 1.383 . S
C395 H403 0.929 . S
C396 C395 1.383 . S
C396 C397 1.377 1_556 S
C397 H381 0.930 . S
C397 C396 1.377 1_554 S
C397 C398 1.379 1_554 S
C398 H382 0.931 . S
C398 C392 1.383 . S
C398 C397 1.379 1_556 S
H399 C393 0.959 . S
H400 C393 0.961 . S
H401 C393 0.961 . S
H402 C394 0.930 1_455 S
H403 C395 0.929 . S
H404 C412 0.929 . S
H405 C414 0.930 . S
H406 C416 0.930 . S
H407 C419 0.929 . S
H408 C422 0.930 . S
H409 C424 0.960 . S
H410 C424 0.960 . S
H411 C424 0.960 . S
C412 H404 0.929 . S
C412 C413 1.377 . S
C412 C414 1.384 . S
C413 C412 1.377 . S
C413 C419 1.390 . S
C414 H405 0.930 . S
C414 C412 1.384 . S
C414 C415 1.372 . S
C415 C414 1.372 . S
C415 C416 1.400 . S
C415 C420 1.490 . S
C416 H406 0.930 . S
C416 C415 1.400 . S
C416 C419 1.386 . S
H417 C433 0.930 . S
H418 C434 0.931 . S
C419 H407 0.929 . S
C419 C413 1.390 . S
C419 C416 1.386 . S
C420 C415 1.490 . S
C420 C422 1.395 . S
C420 C423 1.403 . S
H421 C427 0.930 . S
C422 H408 0.930 . S
C422 C420 1.395 . S
C422 C425 1.403 . S
C423 C420 1.403 . S
C423 C424 1.524 . S
C423 C427 1.400 . S
C424 H409 0.960 . S
C424 H410 0.960 . S
C424 H411 0.960 . S
C424 C423 1.524 . S
C425 C422 1.403 . S
C425 C426 1.392 . S
C425 C429 1.495 . S
C426 C425 1.392 . S
C426 C427 1.385 . S
C426 C428 1.478 . S
C427 H421 0.930 . S
C427 C423 1.400 . S
C427 C426 1.385 . S
C428 C426 1.478 . S
C428 C430 1.381 . S
C428 C434 1.383 . S
C429 C425 1.495 . S
C429 H435 0.959 . S
C429 H436 0.961 . S
C429 H437 0.960 . S
C430 C428 1.381 . S
C430 C431 1.394 . S
C430 H438 0.930 . S
C431 C430 1.394 . S
C431 C432 1.383 . S
C431 H439 0.929 . S
C432 C431 1.383 . S
C432 C433 1.377 . S
C433 H417 0.930 . S
C433 C432 1.377 . S
C433 C434 1.379 . S
C434 H418 0.931 . S
C434 C428 1.383 . S
C434 C433 1.379 . S
H435 C429 0.959 . S
H436 C429 0.961 . S
H437 C429 0.960 . S
H438 C430 0.930 . S
H439 C431 0.929 . S
H440 C448 0.929 . S
H441 C450 0.930 . S
H442 C452 0.930 . S
H443 C455 0.929 . S
H444 C458 0.930 . S
H445 C460 0.960 . S
H446 C460 0.960 . S
H447 C460 0.960 . S
C448 H440 0.929 . S
C448 C449 1.377 . S
C448 C450 1.384 . S
C449 C448 1.377 . S
C449 C455 1.390 . S
C450 H441 0.930 . S
C450 C448 1.384 . S
C450 C451 1.372 . S
C451 C450 1.372 . S
C451 C452 1.400 . S
C451 C456 1.490 . S
C452 H442 0.930 . S
C452 C451 1.400 . S
C452 C455 1.386 . S
H453 C469 0.930 . S
H454 C470 0.931 . S
C455 H443 0.929 . S
C455 C449 1.390 . S
C455 C452 1.386 . S
C456 C451 1.490 . S
C456 C458 1.395 . S
C456 C459 1.403 . S
H457 C463 0.930 . S
C458 H444 0.930 . S
C458 C456 1.395 . S
C458 C461 1.403 . S
C459 C456 1.403 . S
C459 C460 1.524 . S
C459 C463 1.400 . S
C460 H445 0.960 . S
C460 H446 0.960 . S
C460 H447 0.960 . S
C460 C459 1.524 . S
C461 C458 1.403 . S
C461 C462 1.392 . S
C461 C465 1.495 . S
C462 C461 1.392 . S
C462 C463 1.385 . S
C462 C464 1.478 . S
C463 H457 0.930 . S
C463 C459 1.400 . S
C463 C462 1.385 . S
C464 C462 1.478 . S
C464 C466 1.381 . S
C464 C470 1.383 . S
C465 C461 1.495 . S
C465 H471 0.959 . S
C465 H472 0.961 . S
C465 H473 0.960 . S
C466 C464 1.381 . S
C466 C467 1.394 . S
C466 H474 0.930 . S
C467 C466 1.394 . S
C467 C468 1.383 . S
C467 H475 0.929 . S
C468 C467 1.383 . S
C468 C469 1.377 . S
C469 H453 0.930 . S
C469 C468 1.377 . S
C469 C470 1.379 . S
C470 H454 0.931 . S
C470 C464 1.383 . S
C470 C469 1.379 . S
H471 C465 0.959 . S
H472 C465 0.961 . S
H473 C465 0.960 . S
H474 C466 0.930 . S
H475 C467 0.929 . S
H476 C484 0.929 . S
H477 C486 0.930 . S
H478 C488 0.930 . S
H479 C491 0.929 . S
H480 C494 0.930 . S
H481 C496 0.960 . S
H482 C496 0.960 1_655 S
H483 C496 0.960 . S
C484 H476 0.929 . S
C484 C485 1.379 . S
C484 C486 1.384 . S
C485 C484 1.379 . S
C485 C491 1.386 1_655 S
C486 H477 0.930 . S
C486 C484 1.384 . S
C486 C487 1.372 . S
C487 C486 1.372 . S
C487 C488 1.400 1_655 S
C487 C492 1.490 . S
C488 H478 0.930 . S
C488 C487 1.400 1_455 S
C488 C491 1.386 . S
H489 C505 0.930 . S
H490 C506 0.931 . S
C491 H479 0.929 . S
C491 C485 1.386 1_455 S
C491 C488 1.386 . S
C492 C487 1.490 . S
C492 C494 1.395 . S
C492 C495 1.403 1_655 S
H493 C499 0.930 . S
C494 H480 0.930 . S
C494 C492 1.395 . S
C494 C497 1.403 . S
C495 C492 1.403 1_455 S
C495 C496 1.524 . S
C495 C499 1.400 . S
C496 H481 0.960 . S
C496 H482 0.960 1_455 S
C496 H483 0.960 . S
C496 C495 1.524 . S
C497 C494 1.403 . S
C497 C498 1.392 . S
C497 C501 1.495 . S
C498 C497 1.392 . S
C498 C499 1.385 1_655 S
C498 C500 1.478 . S
C499 H493 0.930 . S
C499 C495 1.400 . S
C499 C498 1.385 1_455 S
C500 C498 1.478 . S
C500 C502 1.381 . S
C500 C506 1.383 1_655 S
C501 C497 1.495 . S
C501 H507 0.959 . S
C501 H508 0.961 . S
C501 H509 0.960 . S
C502 C500 1.381 . S
C502 C503 1.394 . S
C502 H510 0.930 . S
C503 C502 1.394 . S
C503 C504 1.383 . S
C503 H511 0.929 . S
C504 C503 1.383 . S
C504 C505 1.377 1_655 S
C505 H489 0.930 . S
C505 C504 1.377 1_455 S
C505 C506 1.379 . S
C506 H490 0.931 . S
C506 C500 1.383 1_455 S
C506 C505 1.379 . S
H507 C501 0.959 . S
H508 C501 0.961 . S
H509 C501 0.960 . S
H510 C502 0.930 . S
H511 C503 0.929 . S
H512 C520 0.929 . S
H513 C522 0.930 . S
H514 C524 0.930 . S
H515 C527 0.929 . S
H516 C530 0.930 . S
H517 C532 0.960 . S
H518 C532 0.960 . S
H519 C532 0.960 . S
C520 H512 0.929 . S
C520 C521 1.377 . S
C520 C522 1.384 . S
C521 C520 1.377 . S
C521 C527 1.390 . S
C522 H513 0.930 . S
C522 C520 1.384 . S
C522 C523 1.372 . S
C523 C522 1.372 . S
C523 C524 1.400 . S
C523 C528 1.490 . S
C524 H514 0.930 . S
C524 C523 1.400 . S
C524 C527 1.386 . S
H525 C541 0.930 . S
H526 C542 0.931 . S
C527 H515 0.929 . S
C527 C521 1.390 . S
C527 C524 1.386 . S
C528 C523 1.490 . S
C528 C530 1.395 . S
C528 C531 1.403 . S
H529 C535 0.930 . S
C530 H516 0.930 . S
C530 C528 1.395 . S
C530 C533 1.403 . S
C531 C528 1.403 . S
C531 C532 1.524 . S
C531 C535 1.400 . S
C532 H517 0.960 . S
C532 H518 0.960 . S
C532 H519 0.960 . S
C532 C531 1.524 . S
C533 C530 1.403 . S
C533 C534 1.392 . S
C533 C537 1.495 . S
C534 C533 1.392 . S
C534 C535 1.385 . S
C534 C536 1.478 . S
C535 H529 0.930 . S
C535 C531 1.400 . S
C535 C534 1.385 . S
C536 C534 1.478 . S
C536 C538 1.381 . S
C536 C542 1.383 . S
C537 C533 1.495 . S
C537 H543 0.959 . S
C537 H544 0.961 . S
C537 H545 0.960 . S
C538 C536 1.381 . S
C538 C539 1.394 . S
C538 H546 0.930 . S
C539 C538 1.394 . S
C539 C540 1.383 . S
C539 H547 0.929 . S
C540 C539 1.383 . S
C540 C541 1.377 . S
C541 H525 0.930 . S
C541 C540 1.377 . S
C541 C542 1.379 . S
C542 H526 0.931 . S
C542 C536 1.383 . S
C542 C541 1.379 . S
H543 C537 0.959 . S
H544 C537 0.961 . S
H545 C537 0.960 . S
H546 C538 0.930 . S
H547 C539 0.929 . S
H548 C556 0.929 . S
H549 C558 0.930 . S
H550 C560 0.930 . S
H551 C563 0.929 . S
H552 C566 0.930 . S
H553 C568 0.960 . S
H554 C568 0.960 . S
H555 C568 0.960 . S
C556 H548 0.929 . S
C556 C557 1.377 . S
C556 C558 1.384 . S
C557 C556 1.377 . S
C557 C563 1.390 . S
C558 H549 0.930 . S
C558 C556 1.384 . S
C558 C559 1.372 . S
C559 C558 1.372 . S
C559 C560 1.400 . S
C559 C564 1.490 . S
C560 H550 0.930 . S
C560 C559 1.400 . S
C560 C563 1.386 . S
H561 C577 0.930 . S
H562 C578 0.931 . S
C563 H551 0.929 . S
C563 C557 1.390 . S
C563 C560 1.386 . S
C564 C559 1.490 . S
C564 C566 1.395 . S
C564 C567 1.403 . S
H565 C571 0.930 . S
C566 H552 0.930 . S
C566 C564 1.395 . S
C566 C569 1.403 . S
C567 C564 1.403 . S
C567 C568 1.524 . S
C567 C571 1.400 . S
C568 H553 0.960 . S
C568 H554 0.960 . S
C568 H555 0.960 . S
C568 C567 1.524 . S
C569 C566 1.403 . S
C569 C570 1.392 . S
C569 C573 1.495 . S
C570 C569 1.392 . S
C570 C571 1.385 . S
C570 C572 1.478 . S
C571 H565 0.930 . S
C571 C567 1.400 . S
C571 C570 1.385 . S
C572 C570 1.478 . S
C572 C574 1.381 . S
C572 C578 1.383 . S
C573 C569 1.495 . S
C573 H579 0.959 . S
C573 H580 0.961 . S
C573 H581 0.960 . S
C574 C572 1.381 . S
C574 C575 1.394 . S
C574 H582 0.930 . S
C575 C574 1.394 . S
C575 C576 1.383 . S
C575 H583 0.929 . S
C576 C575 1.383 . S
C576 C577 1.377 . S
C577 H561 0.930 . S
C577 C576 1.377 . S
C577 C578 1.379 . S
C578 H562 0.931 . S
C578 C572 1.383 . S
C578 C577 1.379 . S
H579 C573 0.959 . S
H580 C573 0.961 . S
H581 C573 0.960 . S
H582 C574 0.930 . S
H583 C575 0.929 . S
H584 C592 0.929 . S
H585 C594 0.930 . S
H586 C596 0.930 . S
H587 C599 0.929 . S
H588 C602 0.930 . S
H589 C604 0.960 . S
H590 C604 0.960 . S
H591 C604 0.960 . S
C592 H584 0.929 . S
C592 C593 1.377 . S
C592 C594 1.384 . S
C593 C592 1.377 . S
C593 C599 1.390 . S
C594 H585 0.930 . S
C594 C592 1.384 . S
C594 C595 1.372 . S
C595 C594 1.372 . S
C595 C596 1.400 . S
C595 C600 1.490 . S
C596 H586 0.930 . S
C596 C595 1.400 . S
C596 C599 1.386 . S
H597 C613 0.930 . S
H598 C614 0.931 . S
C599 H587 0.929 . S
C599 C593 1.390 . S
C599 C596 1.386 . S
C600 C595 1.490 . S
C600 C602 1.395 . S
C600 C603 1.403 . S
H601 C607 0.930 . S
C602 H588 0.930 . S
C602 C600 1.395 . S
C602 C605 1.403 . S
C603 C600 1.403 . S
C603 C604 1.524 . S
C603 C607 1.400 . S
C604 H589 0.960 . S
C604 H590 0.960 . S
C604 H591 0.960 . S
C604 C603 1.524 . S
C605 C602 1.403 . S
C605 C606 1.392 . S
C605 C609 1.495 . S
C606 C605 1.392 . S
C606 C607 1.385 . S
C606 C608 1.478 . S
C607 H601 0.930 . S
C607 C603 1.400 . S
C607 C606 1.385 . S
C608 C606 1.478 . S
C608 C610 1.381 . S
C608 C614 1.383 . S
C609 C605 1.495 . S
C609 H615 0.959 . S
C609 H616 0.961 . S
C609 H617 0.960 . S
C610 C608 1.381 . S
C610 C611 1.394 . S
C610 H618 0.930 . S
C611 C610 1.394 . S
C611 C612 1.383 . S
C611 H619 0.929 . S
C612 C611 1.383 . S
C612 C613 1.377 . S
C613 H597 0.930 . S
C613 C612 1.377 . S
C613 C614 1.379 . S
C614 H598 0.931 . S
C614 C608 1.383 . S
C614 C613 1.379 . S
H615 C609 0.959 . S
H616 C609 0.961 . S
H617 C609 0.960 . S
H618 C610 0.930 . S
H619 C611 0.929 . S
H620 C628 0.929 . S
H621 C630 0.930 . S
H622 C632 0.930 . S
H623 C635 0.929 . S
H624 C638 0.930 . S
H625 C640 0.960 . S
H626 C640 0.960 . S
H627 C640 0.960 . S
C628 H620 0.929 . S
C628 C629 1.377 1_545 S
C628 C630 1.384 . S
C629 C628 1.377 1_565 S
C629 C635 1.390 . S
C630 H621 0.930 . S
C630 C628 1.384 . S
C630 C631 1.372 . S
C631 C630 1.372 . S
C631 C632 1.400 . S
C631 C636 1.490 . S
C632 H622 0.930 . S
C632 C631 1.400 . S
C632 C635 1.386 1_545 S
H633 C649 0.930 . S
H634 C650 0.931 . S
C635 H623 0.929 . S
C635 C629 1.390 . S
C635 C632 1.386 1_565 S
C636 C631 1.490 . S
C636 C638 1.395 . S
C636 C639 1.403 . S
H637 C643 0.930 . S
C638 H624 0.930 . S
C638 C636 1.395 . S
C638 C641 1.403 . S
C639 C636 1.403 . S
C639 C640 1.524 . S
C639 C643 1.400 . S
C640 H625 0.960 . S
C640 H626 0.960 . S
C640 H627 0.960 . S
C640 C639 1.524 . S
C641 C638 1.403 . S
C641 C642 1.392 . S
C641 C645 1.495 . S
C642 C641 1.392 . S
C642 C643 1.385 . S
C642 C644 1.478 . S
C643 H637 0.930 . S
C643 C639 1.400 . S
C643 C642 1.385 . S
C644 C642 1.478 . S
C644 C646 1.381 . S
C644 C650 1.383 . S
C645 C641 1.495 . S
C645 H651 0.959 . S
C645 H652 0.961 . S
C645 H653 0.960 . S
C646 C644 1.381 . S
C646 C647 1.394 . S
C646 H654 0.930 . S
C647 C646 1.394 . S
C647 C648 1.383 . S
C647 H655 0.929 . S
C648 C647 1.383 . S
C648 C649 1.377 . S
C649 H633 0.930 . S
C649 C648 1.377 . S
C649 C650 1.379 . S
C650 H634 0.931 . S
C650 C644 1.383 . S
C650 C649 1.379 . S
H651 C645 0.959 . S
H652 C645 0.961 . S
H653 C645 0.960 . S
H654 C646 0.930 . S
H655 C647 0.929 . S
H656 C664 0.929 . S
H657 C666 0.930 . S
H658 C668 0.930 . S
H659 C671 0.929 . S
H660 C674 0.930 . S
H661 C676 0.960 . S
H662 C676 0.960 . S
H663 C676 0.960 1_554 S
C664 H656 0.929 . S
C664 C665 1.377 . S
C664 C666 1.384 . S
C665 C664 1.377 . S
C665 C671 1.390 . S
C666 H657 0.930 . S
C666 C664 1.384 . S
C666 C667 1.372 . S
C667 C666 1.372 . S
C667 C668 1.400 . S
C667 C672 1.490 . S
C668 H658 0.930 . S
C668 C667 1.400 . S
C668 C671 1.386 . S
H669 C685 0.930 . S
H670 C686 0.931 . S
C671 H659 0.929 . S
C671 C665 1.390 . S
C671 C668 1.386 . S
C672 C667 1.490 . S
C672 C674 1.395 . S
C672 C675 1.403 . S
H673 C679 0.930 . S
C674 H660 0.930 . S
C674 C672 1.395 . S
C674 C677 1.403 . S
C675 C672 1.403 . S
C675 C676 1.524 1_554 S
C675 C679 1.400 . S
C676 H661 0.960 . S
C676 H662 0.960 . S
C676 H663 0.960 1_556 S
C676 C675 1.524 1_556 S
C677 C674 1.403 . S
C677 C678 1.392 . S
C677 C681 1.495 . S
C678 C677 1.392 . S
C678 C679 1.385 . S
C678 C680 1.478 . S
C679 H673 0.930 . S
C679 C675 1.400 . S
C679 C678 1.385 . S
C680 C678 1.478 . S
C680 C682 1.381 . S
C680 C686 1.383 . S
C681 C677 1.495 . S
C681 H687 0.959 . S
C681 H688 0.961 . S
C681 H689 0.960 . S
C682 C680 1.381 . S
C682 C683 1.394 1_455 S
C682 H690 0.930 . S
C683 C682 1.394 1_655 S
C683 C684 1.383 . S
C683 H691 0.929 . S
C684 C683 1.383 . S
C684 C685 1.377 1_655 S
C685 H669 0.930 . S
C685 C684 1.377 1_455 S
C685 C686 1.379 . S
C686 H670 0.931 . S
C686 C680 1.383 . S
C686 C685 1.379 . S
H687 C681 0.959 . S
H688 C681 0.961 . S
H689 C681 0.960 . S
H690 C682 0.930 . S
H691 C683 0.929 . S
H692 C700 0.929 . S
H693 C702 0.930 . S
H694 C704 0.930 . S
H695 C707 0.929 . S
H696 C710 0.930 . S
H697 C712 0.960 . S
H698 C712 0.960 . S
H699 C712 0.960 . S
C700 H692 0.929 . S
C700 C701 1.377 . S
C700 C702 1.384 . S
C701 C700 1.377 . S
C701 C707 1.390 . S
C702 H693 0.930 . S
C702 C700 1.384 . S
C702 C703 1.372 . S
C703 C702 1.372 . S
C703 C704 1.400 . S
C703 C708 1.490 . S
C704 H694 0.930 . S
C704 C703 1.400 . S
C704 C707 1.386 . S
H705 C721 0.930 . S
H706 C722 0.931 . S
C707 H695 0.929 . S
C707 C701 1.390 . S
C707 C704 1.386 . S
C708 C703 1.490 . S
C708 C710 1.395 . S
C708 C711 1.403 . S
H709 C715 0.930 . S
C710 H696 0.930 . S
C710 C708 1.395 . S
C710 C713 1.403 . S
C711 C708 1.403 . S
C711 C712 1.524 . S
C711 C715 1.400 . S
C712 H697 0.960 . S
C712 H698 0.960 . S
C712 H699 0.960 . S
C712 C711 1.524 . S
C713 C710 1.403 . S
C713 C714 1.392 . S
C713 C717 1.495 . S
C714 C713 1.392 . S
C714 C715 1.385 . S
C714 C716 1.478 . S
C715 H709 0.930 . S
C715 C711 1.400 . S
C715 C714 1.385 . S
C716 C714 1.478 . S
C716 C718 1.381 . S
C716 C722 1.383 . S
C717 C713 1.495 . S
C717 H723 0.959 . S
C717 H724 0.961 . S
C717 H725 0.960 . S
C718 C716 1.381 . S
C718 C719 1.394 . S
C718 H726 0.930 . S
C719 C718 1.394 . S
C719 C720 1.383 . S
C719 H727 0.929 . S
C720 C719 1.383 . S
C720 C721 1.377 . S
C721 H705 0.930 . S
C721 C720 1.377 . S
C721 C722 1.379 . S
C722 H706 0.931 . S
C722 C716 1.383 . S
C722 C721 1.379 . S
H723 C717 0.959 . S
H724 C717 0.961 . S
H725 C717 0.960 . S
H726 C718 0.930 . S
H727 C719 0.929 . S
H728 C736 0.929 . S
H729 C738 0.930 . S
H730 C740 0.930 . S
H731 C743 0.936 . S
H732 C746 0.930 . S
H733 C748 0.960 . S
H734 C748 0.960 . S
H735 C748 0.960 . S
C736 H728 0.929 . S
C736 C737 1.377 . S
C736 C738 1.384 . S
C737 C736 1.377 . S
C737 C743 1.390 . S
C738 H729 0.930 . S
C738 C736 1.384 . S
C738 C739 1.372 . S
C739 C738 1.372 . S
C739 C740 1.400 . S
C739 C744 1.490 . S
C740 H730 0.930 . S
C740 C739 1.400 . S
C740 C743 1.386 . S
H741 C757 0.930 . S
H742 C758 0.931 . S
C743 H731 0.936 . S
C743 C737 1.390 . S
C743 C740 1.386 . S
C744 C739 1.490 . S
C744 C746 1.395 . S
C744 C747 1.403 . S
H745 C751 0.930 . S
C746 H732 0.930 . S
C746 C744 1.395 . S
C746 C749 1.403 . S
C747 C744 1.403 . S
C747 C748 1.524 . S
C747 C751 1.400 . S
C748 H733 0.960 . S
C748 H734 0.960 . S
C748 H735 0.960 . S
C748 C747 1.524 . S
C749 C746 1.403 . S
C749 C750 1.392 . S
C749 C753 1.495 . S
C750 C749 1.392 . S
C750 C751 1.385 . S
C750 C752 1.478 . S
C751 H745 0.930 . S
C751 C747 1.400 . S
C751 C750 1.385 . S
C752 C750 1.478 . S
C752 C754 1.381 . S
C752 C758 1.383 . S
C753 C749 1.495 . S
C753 H759 0.959 . S
C753 H760 0.961 . S
C753 H761 0.960 . S
C754 C752 1.381 . S
C754 C755 1.394 . S
C754 H762 0.930 . S
C755 C754 1.394 . S
C755 C756 1.383 . S
C755 H763 0.929 . S
C756 C755 1.383 . S
C756 C757 1.377 . S
C757 H741 0.930 . S
C757 C756 1.377 . S
C757 C758 1.379 . S
C758 H742 0.931 . S
C758 C752 1.383 . S
C758 C757 1.379 . S
H759 C753 0.959 . S
H760 C753 0.961 . S
H761 C753 0.960 . S
H762 C754 0.930 . S
H763 C755 0.929 . S
H764 C772 0.929 . S
H765 C774 0.930 . S
H766 C776 0.930 . S
H767 C779 0.929 . S
H768 C782 0.930 . S
H769 C784 0.960 . S
H770 C784 0.960 . S
H771 C784 0.960 . S
C772 H764 0.929 . S
C772 C773 1.377 . S
C772 C774 1.384 . S
C773 C772 1.377 . S
C773 C779 1.390 . S
C774 H765 0.930 . S
C774 C772 1.384 . S
C774 C775 1.372 . S
C775 C774 1.372 . S
C775 C776 1.400 . S
C775 C780 1.490 . S
C776 H766 0.930 . S
C776 C775 1.400 . S
C776 C779 1.386 . S
H777 C793 0.930 . S
H778 C794 0.931 . S
C779 H767 0.929 . S
C779 C773 1.390 . S
C779 C776 1.386 . S
C780 C775 1.490 . S
C780 C782 1.395 . S
C780 C783 1.403 . S
H781 C787 0.930 . S
C782 H768 0.930 . S
C782 C780 1.395 . S
C782 C785 1.403 . S
C783 C780 1.403 . S
C783 C784 1.524 . S
C783 C787 1.400 . S
C784 H769 0.960 . S
C784 H770 0.960 . S
C784 H771 0.960 . S
C784 C783 1.524 . S
C785 C782 1.403 . S
C785 C786 1.392 . S
C785 C789 1.495 . S
C786 C785 1.392 . S
C786 C787 1.385 . S
C786 C788 1.478 . S
C787 H781 0.930 . S
C787 C783 1.400 . S
C787 C786 1.385 . S
C788 C786 1.478 . S
C788 C790 1.381 . S
C788 C794 1.383 . S
C789 C785 1.495 . S
C789 H795 0.959 . S
C789 H796 0.961 . S
C789 H797 0.960 . S
C790 C788 1.381 . S
C790 C791 1.394 . S
C790 H798 0.930 . S
C791 C790 1.394 . S
C791 C792 1.383 . S
C791 H799 0.929 . S
C792 C791 1.383 . S
C792 C793 1.377 . S
C793 H777 0.930 . S
C793 C792 1.377 . S
C793 C794 1.379 . S
C794 H778 0.931 . S
C794 C788 1.383 . S
C794 C793 1.379 . S
H795 C789 0.959 . S
H796 C789 0.961 . S
H797 C789 0.960 . S
H798 C790 0.930 . S
H799 C791 0.929 . S
H800 C808 0.929 1_655 S
H801 C810 0.967 . S
H802 C812 0.930 . S
H803 C815 0.929 . S
H804 C818 0.930 . S
H805 C820 0.960 1_565 S
H806 C820 0.960 1_565 S
H807 C820 0.960 . S
C808 H800 0.929 1_455 S
C808 C809 1.377 . S
C808 C810 1.384 . S
C809 C808 1.377 . S
C809 C815 1.390 . S
C810 H801 0.967 . S
C810 C808 1.384 . S
C810 C811 1.372 . S
C811 C810 1.372 . S
C811 C812 1.400 . S
C811 C816 1.490 . S
C812 H802 0.930 . S
C812 C811 1.400 . S
C812 C815 1.386 . S
H813 C829 0.930 . S
H814 C830 0.931 . S
C815 H803 0.929 . S
C815 C809 1.390 . S
C815 C812 1.386 . S
C816 C811 1.490 . S
C816 C818 1.395 . S
C816 C819 1.403 . S
H817 C823 0.930 . S
C818 H804 0.930 . S
C818 C816 1.395 . S
C818 C821 1.403 . S
C819 C816 1.403 . S
C819 C820 1.524 . S
C819 C823 1.400 . S
C820 H805 0.960 1_545 S
C820 H806 0.960 1_545 S
C820 H807 0.960 . S
C820 C819 1.524 . S
C821 C818 1.403 . S
C821 C822 1.392 . S
C821 C825 1.495 . S
C822 C821 1.392 . S
C822 C823 1.385 . S
C822 C824 1.478 . S
C823 H817 0.930 . S
C823 C819 1.400 . S
C823 C822 1.385 . S
C824 C822 1.478 . S
C824 C826 1.381 . S
C824 C830 1.383 . S
C825 C821 1.495 . S
C825 H831 0.959 . S
C825 H832 0.961 . S
C825 H833 0.960 . S
C826 C824 1.381 . S
C826 C827 1.394 . S
C826 H834 0.930 . S
C827 C826 1.394 . S
C827 C828 1.383 . S
C827 H835 0.929 . S
C828 C827 1.383 . S
C828 C829 1.377 . S
C829 H813 0.930 . S
C829 C828 1.377 . S
C829 C830 1.379 . S
C830 H814 0.931 . S
C830 C824 1.383 . S
C830 C829 1.379 . S
H831 C825 0.959 . S
H832 C825 0.961 . S
H833 C825 0.960 . S
H834 C826 0.930 . S
H835 C827 0.929 . S
H836 C844 0.929 . S
H837 C846 0.930 . S
H838 C848 0.930 . S
H839 C851 0.929 . S
H840 C854 0.930 . S
H841 C856 0.960 . S
H842 C856 0.960 . S
H843 C856 0.960 . S
C844 H836 0.929 . S
C844 C845 1.377 . S
C844 C846 1.384 . S
C845 C844 1.377 . S
C845 C851 1.390 . S
C846 H837 0.930 . S
C846 C844 1.384 . S
C846 C847 1.372 . S
C847 C846 1.372 . S
C847 C848 1.400 . S
C847 C852 1.490 . S
C848 H838 0.930 . S
C848 C847 1.400 . S
C848 C851 1.386 . S
H849 C865 0.930 . S
H850 C866 0.931 . S
C851 H839 0.929 . S
C851 C845 1.390 . S
C851 C848 1.386 . S
C852 C847 1.490 . S
C852 C854 1.395 . S
C852 C855 1.403 . S
H853 C859 0.930 . S
C854 H840 0.930 . S
C854 C852 1.395 . S
C854 C857 1.403 . S
C855 C852 1.403 . S
C855 C856 1.524 . S
C855 C859 1.400 . S
C856 H841 0.960 . S
C856 H842 0.960 . S
C856 H843 0.960 . S
C856 C855 1.524 . S
C857 C854 1.403 . S
C857 C858 1.392 . S
C857 C861 1.495 . S
C858 C857 1.392 . S
C858 C859 1.385 . S
C858 C860 1.478 . S
C859 H853 0.930 . S
C859 C855 1.400 . S
C859 C858 1.385 . S
C860 C858 1.478 . S
C860 C862 1.381 . S
C860 C866 1.383 . S
C861 C857 1.495 . S
C861 H867 0.959 . S
C861 H868 0.961 . S
C861 H869 0.960 . S
C862 C860 1.381 . S
C862 C863 1.394 . S
C862 H870 0.930 . S
C863 C862 1.394 . S
C863 C864 1.383 1_655 S
C863 H871 0.929 1_655 S
C864 C863 1.383 1_455 S
C864 C865 1.377 1_455 S
C865 H849 0.930 . S
C865 C864 1.377 1_655 S
C865 C866 1.379 . S
C866 H850 0.931 . S
C866 C860 1.383 . S
C866 C865 1.379 . S
H867 C861 0.959 . S
H868 C861 0.961 . S
H869 C861 0.960 . S
H870 C862 0.930 . S
H871 C863 0.929 1_455 S
H872 C880 0.929 . S
H873 C882 0.930 . S
H874 C884 0.930 . S
H875 C887 0.929 . S
H876 C890 0.930 . S
H877 C892 0.960 . S
H878 C892 0.960 . S
H879 C892 0.960 . S
C880 H872 0.929 . S
C880 C881 1.377 . S
C880 C882 1.384 . S
C881 C880 1.377 . S
C881 C887 1.390 . S
C882 H873 0.930 . S
C882 C880 1.384 . S
C882 C883 1.372 . S
C883 C882 1.372 . S
C883 C884 1.400 . S
C883 C888 1.490 . S
C884 H874 0.930 . S
C884 C883 1.400 . S
C884 C887 1.386 . S
H885 C901 0.930 . S
H886 C902 0.931 . S
C887 H875 0.929 . S
C887 C881 1.390 . S
C887 C884 1.386 . S
C888 C883 1.490 . S
C888 C890 1.395 . S
C888 C891 1.403 . S
H889 C895 0.930 . S
C890 H876 0.930 . S
C890 C888 1.395 . S
C890 C893 1.403 . S
C891 C888 1.403 . S
C891 C892 1.524 . S
C891 C895 1.400 . S
C892 H877 0.960 . S
C892 H878 0.960 . S
C892 H879 0.960 . S
C892 C891 1.524 . S
C893 C890 1.403 . S
C893 C894 1.392 . S
C893 C897 1.495 . S
C894 C893 1.392 . S
C894 C895 1.385 . S
C894 C896 1.478 1_554 S
C895 H889 0.930 . S
C895 C891 1.400 . S
C895 C894 1.385 . S
C896 C894 1.478 1_556 S
C896 C898 1.381 . S
C896 C902 1.383 . S
C897 C893 1.495 . S
C897 H903 0.959 . S
C897 H904 0.961 . S
C897 H905 0.960 . S
C898 C896 1.381 . S
C898 C899 1.394 . S
C898 H906 0.930 . S
C899 C898 1.394 . S
C899 C900 1.383 . S
C899 H907 0.929 . S
C900 C899 1.383 . S
C900 C901 1.377 . S
C901 H885 0.930 . S
C901 C900 1.377 . S
C901 C902 1.379 . S
C902 H886 0.931 . S
C902 C896 1.383 . S
C902 C901 1.379 . S
H903 C897 0.959 . S
H904 C897 0.961 . S
H905 C897 0.960 . S
H906 C898 0.930 . S
H907 C899 0.929 . S
H908 C916 0.929 . S
H909 C918 0.930 . S
H910 C920 0.930 . S
H911 C923 0.929 . S
H912 C926 0.930 . S
H913 C928 0.960 . S
H914 C928 0.960 . S
H915 C928 0.960 . S
C916 H908 0.929 . S
C916 C917 1.377 . S
C916 C918 1.384 . S
C917 C916 1.377 . S
C917 C923 1.390 . S
C918 H909 0.930 . S
C918 C916 1.384 . S
C918 C919 1.372 . S
C919 C918 1.372 . S
C919 C920 1.400 . S
C919 C924 1.490 . S
C920 H910 0.930 . S
C920 C919 1.400 . S
C920 C923 1.386 . S
H921 C937 0.930 . S
H922 C938 0.931 . S
C923 H911 0.929 . S
C923 C917 1.390 . S
C923 C920 1.386 . S
C924 C919 1.490 . S
C924 C926 1.395 . S
C924 C927 1.403 . S
H925 C931 0.930 . S
C926 H912 0.930 . S
C926 C924 1.395 . S
C926 C929 1.403 . S
C927 C924 1.403 . S
C927 C928 1.524 . S
C927 C931 1.400 . S
C928 H913 0.960 . S
C928 H914 0.960 . S
C928 H915 0.960 . S
C928 C927 1.524 . S
C929 C926 1.403 . S
C929 C930 1.392 . S
C929 C933 1.495 . S
C930 C929 1.392 . S
C930 C931 1.385 . S
C930 C932 1.478 . S
C931 H925 0.930 . S
C931 C927 1.400 . S
C931 C930 1.385 . S
C932 C930 1.478 . S
C932 C934 1.381 . S
C932 C938 1.383 . S
C933 C929 1.495 . S
C933 H939 0.959 . S
C933 H940 0.961 . S
C933 H941 0.960 . S
C934 C932 1.381 . S
C934 C935 1.394 . S
C934 H942 0.930 . S
C935 C934 1.394 . S
C935 C936 1.383 . S
C935 H943 0.929 1_565 S
C936 C935 1.383 . S
C936 C937 1.377 . S
C937 H921 0.930 . S
C937 C936 1.377 . S
C937 C938 1.379 . S
C938 H922 0.931 . S
C938 C932 1.383 . S
C938 C937 1.379 . S
H939 C933 0.959 . S
H940 C933 0.961 . S
H941 C933 0.960 . S
H942 C934 0.930 . S
H943 C935 0.929 1_545 S
H944 C952 0.929 . S
H945 C954 0.930 . S
H946 C956 0.930 . S
H947 C959 0.929 . S
H948 C962 0.930 . S
H949 C964 0.960 . S
H950 C964 0.960 . S
H951 C964 0.960 . S
C952 H944 0.929 . S
C952 C953 1.377 . S
C952 C954 1.384 . S
C953 C952 1.377 . S
C953 C959 1.390 . S
C954 H945 0.930 . S
C954 C952 1.384 . S
C954 C955 1.372 . S
C955 C954 1.372 . S
C955 C956 1.400 . S
C955 C960 1.490 . S
C956 H946 0.930 . S
C956 C955 1.400 . S
C956 C959 1.386 . S
H957 C973 0.930 . S
H958 C974 0.931 . S
C959 H947 0.929 . S
C959 C953 1.390 . S
C959 C956 1.386 . S
C960 C955 1.490 . S
C960 C962 1.395 . S
C960 C963 1.403 . S
H961 C967 0.930 . S
C962 H948 0.930 . S
C962 C960 1.395 . S
C962 C965 1.403 . S
C963 C960 1.403 . S
C963 C964 1.524 . S
C963 C967 1.400 . S
C964 H949 0.960 . S
C964 H950 0.960 . S
C964 H951 0.960 . S
C964 C963 1.524 . S
C965 C962 1.403 . S
C965 C966 1.392 . S
C965 C969 1.495 . S
C966 C965 1.392 . S
C966 C967 1.385 . S
C966 C968 1.478 . S
C967 H961 0.930 . S
C967 C963 1.400 . S
C967 C966 1.385 . S
C968 C966 1.478 . S
C968 C970 1.381 . S
C968 C974 1.383 . S
C969 C965 1.495 . S
C969 H975 0.959 . S
C969 H976 0.961 . S
C969 H977 0.960 . S
C970 C968 1.381 . S
C970 C971 1.394 . S
C970 H978 0.930 . S
C971 C970 1.394 . S
C971 C972 1.383 . S
C971 H979 0.929 . S
C972 C971 1.383 . S
C972 C973 1.377 . S
C973 H957 0.930 . S
C973 C972 1.377 . S
C973 C974 1.379 . S
C974 H958 0.931 . S
C974 C968 1.383 . S
C974 C973 1.379 . S
H975 C969 0.959 . S
H976 C969 0.961 . S
H977 C969 0.960 . S
H978 C970 0.930 . S
H979 C971 0.929 . S
H980 C988 0.929 1_455 S
H981 C990 0.894 1_455 S
H982 C992 0.930 . S
H983 C995 0.929 . S
H984 C998 0.930 . S
H985 C1000 0.960 . S
H986 C1000 0.960 1_455 S
H987 C1000 0.960 . S
C988 H980 0.929 1_655 S
C988 C989 1.377 . S
C988 C990 1.398 . S
C989 C988 1.377 . S
C989 C995 1.390 1_545 S
C990 H981 0.894 1_655 S
C990 C988 1.398 . S
C990 C991 1.394 1_545 S
C991 C990 1.394 1_565 S
C991 C992 1.400 . S
C991 C996 1.490 . S
C992 H982 0.930 . S
C992 C991 1.400 . S
C992 C995 1.386 . S
H993 C1009 0.930 . S
H994 C1010 0.931 . S
C995 H983 0.929 . S
C995 C989 1.390 1_565 S
C995 C992 1.386 . S
C996 C991 1.490 . S
C996 C998 1.395 . S
C996 C999 1.403 1_565 S
H997 C1003 0.930 . S
C998 H984 0.930 . S
C998 C996 1.395 . S
C998 C1001 1.403 . S
C999 C996 1.403 1_545 S
C999 C1000 1.524 . S
C999 C1003 1.400 . S
C1000 H985 0.960 . S
C1000 H986 0.960 1_655 S
C1000 H987 0.960 . S
C1000 C999 1.524 . S
C1001 C998 1.403 . S
C1001 C1002 1.392 . S
C1001 C1005 1.495 . S
C1002 C1001 1.392 . S
C1002 C1003 1.385 1_565 S
C1002 C1004 1.478 1_554 S
C1003 H997 0.930 . S
C1003 C999 1.400 . S
C1003 C1002 1.385 1_545 S
C1004 C1002 1.478 1_556 S
C1004 C1006 1.381 1_655 S
C1004 C1010 1.383 . S
C1005 C1001 1.495 . S
C1005 H1011 0.959 . S
C1005 H1012 0.961 . S
C1005 H1013 0.960 1_655 S
C1006 C1004 1.381 1_455 S
C1006 C1007 1.394 . S
C1006 H1014 0.930 . S
C1007 C1006 1.394 . S
C1007 C1008 1.383 . S
C1007 H1015 0.929 . S
C1008 C1007 1.383 . S
C1008 C1009 1.377 1_455 S
C1009 H993 0.930 . S
C1009 C1008 1.377 1_655 S
C1009 C1010 1.379 . S
C1010 H994 0.931 . S
C1010 C1004 1.383 . S
C1010 C1009 1.379 . S
H1011 C1005 0.959 . S
H1012 C1005 0.961 . S
H1013 C1005 0.960 1_455 S
H1014 C1006 0.930 . S
H1015 C1007 0.929 . S
H1016 C1024 0.929 . S
H1017 C1026 0.930 . S
H1018 C1028 0.930 . S
H1019 C1031 0.929 . S
H1020 C1034 0.930 . S
H1021 C1036 0.960 . S
H1022 C1036 0.960 . S
H1023 C1036 0.960 . S
C1024 H1016 0.929 . S
C1024 C1025 1.377 . S
C1024 C1026 1.384 . S
C1025 C1024 1.377 . S
C1025 C1031 1.390 . S
C1026 H1017 0.930 . S
C1026 C1024 1.384 . S
C1026 C1027 1.372 . S
C1027 C1026 1.372 . S
C1027 C1028 1.400 . S
C1027 C1032 1.490 . S
C1028 H1018 0.930 . S
C1028 C1027 1.400 . S
C1028 C1031 1.386 . S
H1029 C1045 0.930 . S
H1030 C1046 0.931 . S
C1031 H1019 0.929 . S
C1031 C1025 1.390 . S
C1031 C1028 1.386 . S
C1032 C1027 1.490 . S
C1032 C1034 1.395 . S
C1032 C1035 1.403 . S
H1033 C1039 0.930 . S
C1034 H1020 0.930 . S
C1034 C1032 1.395 . S
C1034 C1037 1.403 . S
C1035 C1032 1.403 . S
C1035 C1036 1.524 . S
C1035 C1039 1.400 . S
C1036 H1021 0.960 . S
C1036 H1022 0.960 . S
C1036 H1023 0.960 . S
C1036 C1035 1.524 . S
C1037 C1034 1.403 . S
C1037 C1038 1.392 . S
C1037 C1041 1.495 . S
C1038 C1037 1.392 . S
C1038 C1039 1.385 . S
C1038 C1040 1.478 . S
C1039 H1033 0.930 . S
C1039 C1035 1.400 . S
C1039 C1038 1.385 . S
C1040 C1038 1.478 . S
C1040 C1042 1.381 . S
C1040 C1046 1.383 . S
C1041 C1037 1.495 . S
C1041 H1047 0.959 . S
C1041 H1048 0.961 . S
C1041 H1049 0.960 . S
C1042 C1040 1.381 . S
C1042 C1043 1.394 . S
C1042 H1050 0.930 . S
C1043 C1042 1.394 . S
C1043 C1044 1.383 . S
C1043 H1051 0.929 . S
C1044 C1043 1.383 . S
C1044 C1045 1.377 . S
C1045 H1029 0.930 . S
C1045 C1044 1.377 . S
C1045 C1046 1.379 . S
C1046 H1030 0.931 . S
C1046 C1040 1.383 . S
C1046 C1045 1.379 . S
H1047 C1041 0.959 . S
H1048 C1041 0.961 . S
H1049 C1041 0.960 . S
H1050 C1042 0.930 . S
H1051 C1043 0.929 . S
H1052 C1060 0.929 . S
H1053 C1062 0.930 . S
H1054 C1064 0.930 . S
H1055 C1067 0.929 . S
H1056 C1070 0.930 . S
H1057 C1072 0.960 . S
H1058 C1072 0.960 . S
H1059 C1072 0.960 . S
C1060 H1052 0.929 . S
C1060 C1061 1.377 . S
C1060 C1062 1.384 . S
C1061 C1060 1.377 . S
C1061 C1067 1.390 . S
C1062 H1053 0.930 . S
C1062 C1060 1.384 . S
C1062 C1063 1.372 . S
C1063 C1062 1.372 . S
C1063 C1064 1.400 . S
C1063 C1068 1.490 . S
C1064 H1054 0.930 . S
C1064 C1063 1.400 . S
C1064 C1067 1.386 . S
H1065 C1081 0.930 . S
H1066 C1082 0.931 . S
C1067 H1055 0.929 . S
C1067 C1061 1.390 . S
C1067 C1064 1.386 . S
C1068 C1063 1.490 . S
C1068 C1070 1.395 . S
C1068 C1071 1.403 . S
H1069 C1075 0.930 . S
C1070 H1056 0.930 . S
C1070 C1068 1.395 . S
C1070 C1073 1.403 . S
C1071 C1068 1.403 . S
C1071 C1072 1.524 . S
C1071 C1075 1.400 . S
C1072 H1057 0.960 . S
C1072 H1058 0.960 . S
C1072 H1059 0.960 . S
C1072 C1071 1.524 . S
C1073 C1070 1.403 . S
C1073 C1074 1.392 . S
C1073 C1077 1.495 . S
C1074 C1073 1.392 . S
C1074 C1075 1.385 . S
C1074 C1076 1.478 . S
C1075 H1069 0.930 . S
C1075 C1071 1.400 . S
C1075 C1074 1.385 . S
C1076 C1074 1.478 . S
C1076 C1078 1.381 . S
C1076 C1082 1.383 . S
C1077 C1073 1.495 . S
C1077 H1083 0.959 . S
C1077 H1084 0.961 . S
C1077 H1085 0.960 . S
C1078 C1076 1.381 . S
C1078 C1079 1.394 . S
C1078 H1086 0.930 . S
C1079 C1078 1.394 . S
C1079 C1080 1.383 . S
C1079 H1087 0.929 . S
C1080 C1079 1.383 . S
C1080 C1081 1.377 . S
C1081 H1065 0.930 . S
C1081 C1080 1.377 . S
C1081 C1082 1.379 . S
C1082 H1066 0.931 . S
C1082 C1076 1.383 . S
C1082 C1081 1.379 . S
H1083 C1077 0.959 . S
H1084 C1077 0.961 . S
H1085 C1077 0.960 . S
H1086 C1078 0.930 . S
H1087 C1079 0.929 . S
H1088 C1096 0.929 1_655 S
H1089 C1098 0.930 1_655 S
H1090 C1100 0.930 . S
H1091 C1103 0.929 . S
H1092 C1106 0.930 1_565 S
H1093 C1108 0.960 . S
H1094 C1108 0.960 . S
H1095 C1108 0.960 . S
C1096 H1088 0.929 1_455 S
C1096 C1097 1.377 . S
C1096 C1098 1.384 . S
C1097 C1096 1.377 . S
C1097 C1103 1.390 . S
C1098 H1089 0.930 1_455 S
C1098 C1096 1.384 . S
C1098 C1099 1.372 . S
C1099 C1098 1.372 . S
C1099 C1100 1.400 . S
C1099 C1104 1.490 1_556 S
C1100 H1090 0.930 . S
C1100 C1099 1.400 . S
C1100 C1103 1.386 . S
H1101 C1117 0.930 . S
H1102 C1118 0.931 . S
C1103 H1091 0.929 . S
C1103 C1097 1.390 . S
C1103 C1100 1.386 . S
C1104 C1099 1.490 1_554 S
C1104 C1106 1.395 . S
C1104 C1107 1.403 . S
H1105 C1111 0.930 . S
C1106 H1092 0.930 1_545 S
C1106 C1104 1.395 . S
C1106 C1109 1.403 . S
C1107 C1104 1.403 . S
C1107 C1108 1.524 . S
C1107 C1111 1.400 . S
C1108 H1093 0.960 . S
C1108 H1094 0.960 . S
C1108 H1095 0.960 . S
C1108 C1107 1.524 . S
C1109 C1106 1.403 . S
C1109 C1110 1.392 . S
C1109 C1113 1.495 1_545 S
C1110 C1109 1.392 . S
C1110 C1111 1.385 . S
C1110 C1112 1.478 . S
C1111 H1105 0.930 . S
C1111 C1107 1.400 . S
C1111 C1110 1.385 . S
C1112 C1110 1.478 . S
C1112 C1114 1.381 . S
C1112 C1118 1.383 . S
C1113 C1109 1.495 1_565 S
C1113 H1119 0.959 1_455 S
C1113 H1120 0.961 . S
C1113 H1121 0.960 1_455 S
C1114 C1112 1.381 . S
C1114 C1115 1.394 . S
C1114 H1122 0.930 . S
C1115 C1114 1.394 . S
C1115 C1116 1.383 . S
C1115 H1123 0.929 . S
C1116 C1115 1.383 . S
C1116 C1117 1.377 . S
C1117 H1101 0.930 . S
C1117 C1116 1.377 . S
C1117 C1118 1.379 . S
C1118 H1102 0.931 . S
C1118 C1112 1.383 . S
C1118 C1117 1.379 . S
H1119 C1113 0.959 1_655 S
H1120 C1113 0.961 . S
H1121 C1113 0.960 1_655 S
H1122 C1114 0.930 . S
H1123 C1115 0.929 . S
H1124 C1132 0.929 . S
H1125 C1134 0.930 . S
H1126 C1136 0.930 . S
H1127 C1139 0.929 . S
H1128 C1142 0.930 . S
H1129 C1144 0.960 . S
H1130 C1144 0.960 . S
H1131 C1144 0.960 . S
C1132 H1124 0.929 . S
C1132 C1133 1.377 . S
C1132 C1134 1.384 . S
C1133 C1132 1.377 . S
C1133 C1139 1.390 . S
C1134 H1125 0.930 . S
C1134 C1132 1.384 . S
C1134 C1135 1.372 . S
C1135 C1134 1.372 . S
C1135 C1136 1.400 . S
C1135 C1140 1.490 . S
C1136 H1126 0.930 . S
C1136 C1135 1.400 . S
C1136 C1139 1.386 . S
H1137 C1153 0.930 . S
H1138 C1154 0.931 . S
C1139 H1127 0.929 . S
C1139 C1133 1.390 . S
C1139 C1136 1.386 . S
C1140 C1135 1.490 . S
C1140 C1142 1.395 . S
C1140 C1143 1.403 . S
H1141 C1147 0.930 . S
C1142 H1128 0.930 . S
C1142 C1140 1.395 . S
C1142 C1145 1.403 . S
C1143 C1140 1.403 . S
C1143 C1144 1.524 . S
C1143 C1147 1.400 . S
C1144 H1129 0.960 . S
C1144 H1130 0.960 . S
C1144 H1131 0.960 . S
C1144 C1143 1.524 . S
C1145 C1142 1.403 . S
C1145 C1146 1.392 . S
C1145 C1149 1.495 . S
C1146 C1145 1.392 . S
C1146 C1147 1.385 . S
C1146 C1148 1.478 . S
C1147 H1141 0.930 . S
C1147 C1143 1.400 . S
C1147 C1146 1.385 . S
C1148 C1146 1.478 . S
C1148 C1150 1.381 . S
C1148 C1154 1.383 . S
C1149 C1145 1.495 . S
C1149 H1155 0.959 . S
C1149 H1156 0.961 . S
C1149 H1157 0.960 . S
C1150 C1148 1.381 . S
C1150 C1151 1.394 . S
C1150 H1158 0.930 . S
C1151 C1150 1.394 . S
C1151 C1152 1.383 . S
C1151 H1159 0.929 . S
C1152 C1151 1.383 . S
C1152 C1153 1.377 . S
C1153 H1137 0.930 . S
C1153 C1152 1.377 . S
C1153 C1154 1.379 . S
C1154 H1138 0.931 . S
C1154 C1148 1.383 . S
C1154 C1153 1.379 . S
H1155 C1149 0.959 . S
H1156 C1149 0.961 . S
H1157 C1149 0.960 . S
H1158 C1150 0.930 . S
H1159 C1151 0.929 . S
H1160 C1168 0.929 . S
H1161 C1170 0.930 . S
H1162 C1172 0.930 . S
H1163 C1175 0.929 . S
H1164 C1178 0.930 . S
H1165 C1180 0.960 . S
H1166 C1180 0.960 . S
H1167 C1180 0.960 . S
C1168 H1160 0.929 . S
C1168 C1169 1.377 . S
C1168 C1170 1.384 . S
C1169 C1168 1.377 . S
C1169 C1175 1.390 . S
C1170 H1161 0.930 . S
C1170 C1168 1.384 . S
C1170 C1171 1.372 . S
C1171 C1170 1.372 . S
C1171 C1172 1.400 . S
C1171 C1176 1.490 . S
C1172 H1162 0.930 . S
C1172 C1171 1.400 . S
C1172 C1175 1.386 . S
H1173 C1189 0.930 . S
H1174 C1190 0.931 . S
C1175 H1163 0.929 . S
C1175 C1169 1.390 . S
C1175 C1172 1.386 . S
C1176 C1171 1.490 . S
C1176 C1178 1.395 . S
C1176 C1179 1.403 . S
H1177 C1183 0.930 . S
C1178 H1164 0.930 . S
C1178 C1176 1.395 . S
C1178 C1181 1.403 . S
C1179 C1176 1.403 . S
C1179 C1180 1.524 . S
C1179 C1183 1.400 . S
C1180 H1165 0.960 . S
C1180 H1166 0.960 . S
C1180 H1167 0.960 . S
C1180 C1179 1.524 . S
C1181 C1178 1.403 . S
C1181 C1182 1.392 . S
C1181 C1185 1.495 . S
C1182 C1181 1.392 . S
C1182 C1183 1.385 . S
C1182 C1184 1.478 . S
C1183 H1177 0.930 . S
C1183 C1179 1.400 . S
C1183 C1182 1.385 . S
C1184 C1182 1.478 . S
C1184 C1186 1.381 . S
C1184 C1190 1.383 . S
C1185 C1181 1.495 . S
C1185 H1191 0.959 . S
C1185 H1192 0.961 . S
C1185 H1193 0.960 . S
C1186 C1184 1.381 . S
C1186 C1187 1.394 . S
C1186 H1194 0.930 . S
C1187 C1186 1.394 . S
C1187 C1188 1.383 . S
C1187 H1195 0.929 . S
C1188 C1187 1.383 . S
C1188 C1189 1.377 . S
C1189 H1173 0.930 . S
C1189 C1188 1.377 . S
C1189 C1190 1.379 . S
C1190 H1174 0.931 . S
C1190 C1184 1.383 . S
C1190 C1189 1.379 . S
H1191 C1185 0.959 . S
H1192 C1185 0.961 . S
H1193 C1185 0.960 . S
H1194 C1186 0.930 . S
H1195 C1187 0.929 . S
H1196 C1204 0.929 . S
H1197 C1206 0.930 . S
H1198 C1208 0.930 . S
H1199 C1211 0.929 . S
H1200 C1214 0.930 . S
H1201 C1216 0.960 . S
H1202 C1216 0.960 . S
H1203 C1216 0.960 . S
C1204 H1196 0.929 . S
C1204 C1205 1.377 . S
C1204 C1206 1.384 . S
C1205 C1204 1.377 . S
C1205 C1211 1.390 . S
C1206 H1197 0.930 . S
C1206 C1204 1.384 . S
C1206 C1207 1.372 . S
C1207 C1206 1.372 . S
C1207 C1208 1.400 . S
C1207 C1212 1.490 . S
C1208 H1198 0.930 . S
C1208 C1207 1.400 . S
C1208 C1211 1.386 . S
H1209 C1225 0.930 . S
H1210 C1226 0.931 . S
C1211 H1199 0.929 . S
C1211 C1205 1.390 . S
C1211 C1208 1.386 . S
C1212 C1207 1.490 . S
C1212 C1214 1.395 . S
C1212 C1215 1.403 . S
H1213 C1219 0.930 . S
C1214 H1200 0.930 . S
C1214 C1212 1.395 . S
C1214 C1217 1.403 . S
C1215 C1212 1.403 . S
C1215 C1216 1.524 . S
C1215 C1219 1.400 . S
C1216 H1201 0.960 . S
C1216 H1202 0.960 . S
C1216 H1203 0.960 . S
C1216 C1215 1.524 . S
C1217 C1214 1.403 . S
C1217 C1218 1.392 . S
C1217 C1221 1.495 . S
C1218 C1217 1.392 . S
C1218 C1219 1.385 . S
C1218 C1220 1.478 . S
C1219 H1213 0.930 . S
C1219 C1215 1.400 . S
C1219 C1218 1.385 . S
C1220 C1218 1.478 . S
C1220 C1222 1.381 . S
C1220 C1226 1.383 . S
C1221 C1217 1.495 . S
C1221 H1227 0.959 . S
C1221 H1228 0.961 . S
C1221 H1229 0.960 . S
C1222 C1220 1.381 . S
C1222 C1223 1.394 . S
C1222 H1230 0.930 . S
C1223 C1222 1.394 . S
C1223 C1224 1.383 . S
C1223 H1231 0.929 . S
C1224 C1223 1.383 . S
C1224 C1225 1.377 . S
C1225 H1209 0.930 . S
C1225 C1224 1.377 . S
C1225 C1226 1.379 . S
C1226 H1210 0.931 . S
C1226 C1220 1.383 . S
C1226 C1225 1.379 . S
H1227 C1221 0.959 . S
H1228 C1221 0.961 . S
H1229 C1221 0.960 . S
H1230 C1222 0.930 . S
H1231 C1223 0.929 . S
H1232 C1240 0.929 . S
H1233 C1242 0.930 . S
H1234 C1244 0.930 . S
H1235 C1247 0.929 . S
H1236 C1250 0.930 . S
H1237 C1252 0.960 . S
H1238 C1252 0.960 . S
H1239 C1252 0.960 . S
C1240 H1232 0.929 . S
C1240 C1241 1.377 . S
C1240 C1242 1.384 . S
C1241 C1240 1.377 . S
C1241 C1247 1.390 . S
C1242 H1233 0.930 . S
C1242 C1240 1.384 . S
C1242 C1243 1.372 . S
C1243 C1242 1.372 . S
C1243 C1244 1.400 . S
C1243 C1248 1.490 . S
C1244 H1234 0.930 . S
C1244 C1243 1.400 . S
C1244 C1247 1.386 . S
H1245 C1261 0.930 . S
H1246 C1262 0.931 . S
C1247 H1235 0.929 . S
C1247 C1241 1.390 . S
C1247 C1244 1.386 . S
C1248 C1243 1.490 . S
C1248 C1250 1.395 . S
C1248 C1251 1.403 . S
H1249 C1255 0.930 . S
C1250 H1236 0.930 . S
C1250 C1248 1.395 . S
C1250 C1253 1.403 . S
C1251 C1248 1.403 . S
C1251 C1252 1.524 . S
C1251 C1255 1.400 . S
C1252 H1237 0.960 . S
C1252 H1238 0.960 . S
C1252 H1239 0.960 . S
C1252 C1251 1.524 . S
C1253 C1250 1.403 . S
C1253 C1254 1.392 . S
C1253 C1257 1.495 . S
C1254 C1253 1.392 . S
C1254 C1255 1.385 . S
C1254 C1256 1.478 . S
C1255 H1249 0.930 . S
C1255 C1251 1.400 . S
C1255 C1254 1.385 . S
C1256 C1254 1.478 . S
C1256 C1258 1.381 . S
C1256 C1262 1.383 . S
C1257 C1253 1.495 . S
C1257 H1263 0.959 . S
C1257 H1264 0.961 . S
C1257 H1265 0.960 . S
C1258 C1256 1.381 . S
C1258 C1259 1.394 . S
C1258 H1266 0.930 . S
C1259 C1258 1.394 . S
C1259 C1260 1.383 . S
C1259 H1267 0.929 . S
C1260 C1259 1.383 . S
C1260 C1261 1.377 . S
C1261 H1245 0.930 . S
C1261 C1260 1.377 . S
C1261 C1262 1.379 . S
C1262 H1246 0.931 . S
C1262 C1256 1.383 . S
C1262 C1261 1.379 . S
H1263 C1257 0.959 . S
H1264 C1257 0.961 . S
H1265 C1257 0.960 . S
H1266 C1258 0.930 . S
H1267 C1259 0.929 . S
H1268 C1276 0.931 1_545 S
H1269 C1278 0.930 1_545 S
H1270 C1280 0.930 . S
H1271 C1283 0.929 . S
H1272 C1286 0.930 . S
H1273 C1288 0.960 . S
H1274 C1288 0.960 1_545 S
H1275 C1288 0.960 . S
C1276 H1268 0.931 1_565 S
C1276 C1277 1.378 . S
C1276 C1278 1.384 . S
C1277 C1276 1.378 . S
C1277 C1283 1.388 1_455 S
C1278 H1269 0.930 1_565 S
C1278 C1276 1.384 . S
C1278 C1279 1.372 1_455 S
C1279 C1278 1.372 1_655 S
C1279 C1280 1.400 . S
C1279 C1284 1.490 . S
C1280 H1270 0.930 . S
C1280 C1279 1.400 . S
C1280 C1283 1.386 . S
H1281 C1297 0.930 . S
H1282 C1298 0.931 . S
C1283 H1271 0.929 . S
C1283 C1277 1.388 1_655 S
C1283 C1280 1.386 . S
C1284 C1279 1.490 . S
C1284 C1286 1.395 1_655 S
C1284 C1287 1.403 . S
H1285 C1291 0.930 . S
C1286 H1272 0.930 . S
C1286 C1284 1.395 1_455 S
C1286 C1289 1.403 1_455 S
C1287 C1284 1.403 . S
C1287 C1288 1.524 . S
C1287 C1291 1.400 . S
C1288 H1273 0.960 . S
C1288 H1274 0.960 1_565 S
C1288 H1275 0.960 . S
C1288 C1287 1.524 . S
C1289 C1286 1.403 1_655 S
C1289 C1290 1.392 . S
C1289 C1293 1.495 1_655 S
C1290 C1289 1.392 . S
C1290 C1291 1.385 . S
C1290 C1292 1.478 . S
C1291 H1285 0.930 . S
C1291 C1287 1.400 . S
C1291 C1290 1.385 . S
C1292 C1290 1.478 . S
C1292 C1294 1.381 1_565 S
C1292 C1298 1.383 . S
C1293 C1289 1.495 1_455 S
C1293 H1299 0.959 . S
C1293 H1300 0.961 1_455 S
C1293 H1301 0.960 . S
C1294 C1292 1.381 1_545 S
C1294 C1295 1.394 . S
C1294 H1302 0.930 1_655 S
C1295 C1294 1.394 . S
C1295 C1296 1.384 1_545 S
C1295 H1303 0.929 1_655 S
C1296 C1295 1.384 1_565 S
C1296 C1297 1.387 . S
C1297 H1281 0.930 . S
C1297 C1296 1.387 . S
C1297 C1298 1.379 . S
C1298 H1282 0.931 . S
C1298 C1292 1.383 . S
C1298 C1297 1.379 . S
H1299 C1293 0.959 . S
H1300 C1293 0.961 1_655 S
H1301 C1293 0.960 . S
H1302 C1294 0.930 1_455 S
H1303 C1295 0.929 1_455 S
H1304 C1312 0.929 . S
H1305 C1314 0.930 . S
H1306 C1316 0.930 . S
H1307 C1319 0.929 . S
H1308 C1322 0.930 . S
H1309 C1324 0.960 . S
H1310 C1324 0.960 . S
H1311 C1324 0.960 . S
C1312 H1304 0.929 . S
C1312 C1313 1.377 . S
C1312 C1314 1.384 . S
C1313 C1312 1.377 . S
C1313 C1319 1.390 . S
C1314 H1305 0.930 . S
C1314 C1312 1.384 . S
C1314 C1315 1.372 . S
C1315 C1314 1.372 . S
C1315 C1316 1.400 . S
C1315 C1320 1.490 . S
C1316 H1306 0.930 . S
C1316 C1315 1.400 . S
C1316 C1319 1.386 . S
H1317 C1333 0.930 . S
H1318 C1334 0.931 . S
C1319 H1307 0.929 . S
C1319 C1313 1.390 . S
C1319 C1316 1.386 . S
C1320 C1315 1.490 . S
C1320 C1322 1.395 . S
C1320 C1323 1.403 . S
H1321 C1327 0.930 . S
C1322 H1308 0.930 . S
C1322 C1320 1.395 . S
C1322 C1325 1.403 . S
C1323 C1320 1.403 . S
C1323 C1324 1.524 . S
C1323 C1327 1.400 . S
C1324 H1309 0.960 . S
C1324 H1310 0.960 . S
C1324 H1311 0.960 . S
C1324 C1323 1.524 . S
C1325 C1322 1.403 . S
C1325 C1326 1.392 . S
C1325 C1329 1.495 . S
C1326 C1325 1.392 . S
C1326 C1327 1.385 . S
C1326 C1328 1.478 . S
C1327 H1321 0.930 . S
C1327 C1323 1.400 . S
C1327 C1326 1.385 . S
C1328 C1326 1.478 . S
C1328 C1330 1.381 . S
C1328 C1334 1.383 . S
C1329 C1325 1.495 . S
C1329 H1335 0.959 . S
C1329 H1336 0.961 . S
C1329 H1337 0.960 . S
C1330 C1328 1.381 . S
C1330 C1331 1.394 . S
C1330 H1338 0.930 . S
C1331 C1330 1.394 . S
C1331 C1332 1.383 . S
C1331 H1339 0.929 . S
C1332 C1331 1.383 . S
C1332 C1333 1.377 . S
C1333 H1317 0.930 . S
C1333 C1332 1.377 . S
C1333 C1334 1.379 . S
C1334 H1318 0.931 . S
C1334 C1328 1.383 . S
C1334 C1333 1.379 . S
H1335 C1329 0.959 . S
H1336 C1329 0.961 . S
H1337 C1329 0.960 . S
H1338 C1330 0.930 . S
H1339 C1331 0.929 . S
H1340 C1348 0.929 . S
H1341 C1350 0.930 . S
H1342 C1352 0.930 . S
H1343 C1355 0.929 . S
H1344 C1358 0.930 . S
H1345 C1360 0.960 . S
H1346 C1360 0.960 . S
H1347 C1360 0.960 . S
C1348 H1340 0.929 . S
C1348 C1349 1.377 . S
C1348 C1350 1.384 . S
C1349 C1348 1.377 . S
C1349 C1355 1.390 . S
C1350 H1341 0.930 . S
C1350 C1348 1.384 . S
C1350 C1351 1.372 . S
C1351 C1350 1.372 . S
C1351 C1352 1.400 . S
C1351 C1356 1.490 . S
C1352 H1342 0.930 . S
C1352 C1351 1.400 . S
C1352 C1355 1.386 . S
H1353 C1369 0.930 . S
H1354 C1370 0.931 . S
C1355 H1343 0.929 . S
C1355 C1349 1.390 . S
C1355 C1352 1.386 . S
C1356 C1351 1.490 . S
C1356 C1358 1.395 . S
C1356 C1359 1.403 . S
H1357 C1363 0.930 . S
C1358 H1344 0.930 . S
C1358 C1356 1.395 . S
C1358 C1361 1.403 . S
C1359 C1356 1.403 . S
C1359 C1360 1.524 . S
C1359 C1363 1.400 . S
C1360 H1345 0.960 . S
C1360 H1346 0.960 . S
C1360 H1347 0.960 . S
C1360 C1359 1.524 . S
C1361 C1358 1.403 . S
C1361 C1362 1.392 . S
C1361 C1365 1.506 . S
C1362 C1361 1.392 . S
C1362 C1363 1.385 . S
C1362 C1364 1.478 1_554 S
C1363 H1357 0.930 . S
C1363 C1359 1.400 . S
C1363 C1362 1.385 . S
C1364 C1362 1.478 1_556 S
C1364 C1366 1.381 . S
C1364 C1370 1.383 . S
C1365 C1361 1.506 . S
C1365 H1371 0.967 . S
C1365 H1372 0.954 1_554 S
C1365 H1373 0.948 1_554 S
C1366 C1364 1.381 . S
C1366 C1367 1.394 . S
C1366 H1374 0.930 . S
C1367 C1366 1.394 . S
C1367 C1368 1.383 . S
C1367 H1375 0.929 . S
C1368 C1367 1.383 . S
C1368 C1369 1.377 . S
C1369 H1353 0.930 . S
C1369 C1368 1.377 . S
C1369 C1370 1.379 . S
C1370 H1354 0.931 . S
C1370 C1364 1.383 . S
C1370 C1369 1.379 . S
H1371 C1365 0.967 . S
H1372 C1365 0.954 1_556 S
H1373 C1365 0.948 1_556 S
H1374 C1366 0.930 . S
H1375 C1367 0.929 . S
C233 C95 1.278 . S
C252 C11 1.286 . S
C269 C109 1.488 . S
C288 C25 1.459 . S
C305 C39 1.431 . S
C324 C67 1.346 . S
C341 C53 1.898 . S
C360 C81 2.080 . S
C377 C123 2.080 . S
C396 C207 1.860 1_556 S
C413 C221 1.428 . S
C432 C137 1.381 . S
C449 C151 1.490 . S
C468 C179 1.461 . S
C485 C165 1.279 1_655 S
C504 C193 1.280 . S
C521 C8 1.633 . S
C540 C148 1.646 . S
C557 C22 0.974 . S
C576 C162 0.982 . S
C593 C36 1.150 . S
C612 C120 1.188 . S
C629 C50 1.270 . S
C648 C134 1.576 . S
C665 C64 1.523 . S
C684 C204 1.333 . S
C701 C218 1.131 . S
C720 C78 1.206 . S
C737 C92 1.030 . S
C756 C176 0.914 . S
C773 C190 1.641 . S
C792 C106 1.652 . S
C809 C195 0.494 . S
C828 C13 0.511 . S
C845 C27 2.866 . S
C864 C209 2.874 . S
C881 C223 0.495 . S
C900 C41 0.514 . S
C917 C181 2.857 . S
C936 C55 2.870 1_565 S
C953 C167 0.679 . S
C972 C69 0.715 . S
C989 C83 0.548 1_545 S
C1008 C125 0.599 1_455 S
C1025 C97 0.656 . S
C1044 C139 0.628 . S
C1061 C111 0.519 . S
C1080 C153 0.528 . S
C1097 C189 1.086 . S
C1116 C7 1.070 . S
C1133 C21 3.635 . S
C1152 C203 3.611 1_655 S
C1169 C35 1.254 . S
C1188 C217 1.278 . S
C1205 C175 3.636 . S
C1224 C49 3.612 1_566 S
C1241 C161 1.963 . S
C1260 C63 1.946 . S
C1277 C119 1.410 1_455 S
C1296 C77 1.386 . S
C1313 C91 1.958 . S
C1332 C133 1.953 1_556 S
C1349 C147 1.263 . S
C1368 C105 1.236 . S
