# Generated by pormake.
# Topology ukp, (4)-cn, num edge types: 1
# Building blocks:
#     Node 0, Type 0, BuildingBlock: GALJAG_clean_sbu_0, # of connection points: 4
#     Node 1, Type 0, BuildingBlock: GALJAG_clean_sbu_0, # of connection points: 4
#     Node 2, Type 0, BuildingBlock: GALJAG_clean_sbu_0, # of connection points: 4
#     Node 3, Type 0, BuildingBlock: GALJAG_clean_sbu_0, # of connection points: 4
#     Node 4, Type 0, BuildingBlock: GALJAG_clean_sbu_0, # of connection points: 4
#     Node 5, Type 0, BuildingBlock: GALJAG_clean_sbu_0, # of connection points: 4
#     Node 6, Type 0, BuildingBlock: GALJAG_clean_sbu_0, # of connection points: 4
#     Node 7, Type 0, BuildingBlock: GALJAG_clean_sbu_0, # of connection points: 4
#     Node 8, Type 0, BuildingBlock: GALJAG_clean_sbu_0, # of connection points: 4
#     Node 9, Type 0, BuildingBlock: GALJAG_clean_sbu_0, # of connection points: 4
#     Node 10, Type 0, BuildingBlock: GALJAG_clean_sbu_0, # of connection points: 4
#     Node 11, Type 0, BuildingBlock: GALJAG_clean_sbu_0, # of connection points: 4
#     Node 12, Type 0, BuildingBlock: GALJAG_clean_sbu_0, # of connection points: 4
#     Node 13, Type 0, BuildingBlock: GALJAG_clean_sbu_0, # of connection points: 4
#     Node 14, Type 0, BuildingBlock: GALJAG_clean_sbu_0, # of connection points: 4
#     Node 15, Type 0, BuildingBlock: GALJAG_clean_sbu_0, # of connection points: 4
#     Node 16, Type 0, BuildingBlock: GALJAG_clean_sbu_0, # of connection points: 4
#     Node 17, Type 0, BuildingBlock: GALJAG_clean_sbu_0, # of connection points: 4
#     Node 18, Type 0, BuildingBlock: GALJAG_clean_sbu_0, # of connection points: 4
#     Node 19, Type 0, BuildingBlock: GALJAG_clean_sbu_0, # of connection points: 4
#     Node 20, Type 0, BuildingBlock: GALJAG_clean_sbu_0, # of connection points: 4
#     Node 21, Type 0, BuildingBlock: GALJAG_clean_sbu_0, # of connection points: 4
#     Node 22, Type 0, BuildingBlock: GALJAG_clean_sbu_0, # of connection points: 4
#     Node 23, Type 0, BuildingBlock: GALJAG_clean_sbu_0, # of connection points: 4
#     Node 24, Type 0, BuildingBlock: GALJAG_clean_sbu_0, # of connection points: 4
#     Node 25, Type 0, BuildingBlock: GALJAG_clean_sbu_0, # of connection points: 4
#     Node 26, Type 0, BuildingBlock: GALJAG_clean_sbu_0, # of connection points: 4
#     Node 27, Type 0, BuildingBlock: GALJAG_clean_sbu_0, # of connection points: 4
#     Node 28, Type 0, BuildingBlock: GALJAG_clean_sbu_0, # of connection points: 4
#     Node 29, Type 0, BuildingBlock: GALJAG_clean_sbu_0, # of connection points: 4
#     Node 30, Type 0, BuildingBlock: GALJAG_clean_sbu_0, # of connection points: 4
#     Node 31, Type 0, BuildingBlock: GALJAG_clean_sbu_0, # of connection points: 4
#     Node 32, Type 0, BuildingBlock: GALJAG_clean_sbu_0, # of connection points: 4
#     Node 33, Type 0, BuildingBlock: GALJAG_clean_sbu_0, # of connection points: 4
#     Node 34, Type 0, BuildingBlock: GALJAG_clean_sbu_0, # of connection points: 4
#     Node 35, Type 0, BuildingBlock: GALJAG_clean_sbu_0, # of connection points: 4
#     Node 36, Type 0, BuildingBlock: GALJAG_clean_sbu_0, # of connection points: 4
#     Node 37, Type 0, BuildingBlock: GALJAG_clean_sbu_0, # of connection points: 4
#     Node 38, Type 0, BuildingBlock: GALJAG_clean_sbu_0, # of connection points: 4
#     Node 39, Type 0, BuildingBlock: GALJAG_clean_sbu_0, # of connection points: 4
#     Node 40, Type 0, BuildingBlock: GALJAG_clean_sbu_0, # of connection points: 4
#     Node 41, Type 0, BuildingBlock: GALJAG_clean_sbu_0, # of connection points: 4
#     Node 42, Type 0, BuildingBlock: GALJAG_clean_sbu_0, # of connection points: 4
#     Node 43, Type 0, BuildingBlock: GALJAG_clean_sbu_0, # of connection points: 4
#     Node 44, Type 0, BuildingBlock: GALJAG_clean_sbu_0, # of connection points: 4
#     Node 45, Type 0, BuildingBlock: GALJAG_clean_sbu_0, # of connection points: 4
#     Node 46, Type 0, BuildingBlock: GALJAG_clean_sbu_0, # of connection points: 4
#     Node 47, Type 0, BuildingBlock: GALJAG_clean_sbu_0, # of connection points: 4
#     Edge 48, Type (0, 0), BuildingBlock: CIFDUS_clean_linker_0, # of connection points: 2
#     Edge 49, Type (0, 0), BuildingBlock: CIFDUS_clean_linker_0, # of connection points: 2
#     Edge 50, Type (0, 0), BuildingBlock: CIFDUS_clean_linker_0, # of connection points: 2
#     Edge 51, Type (0, 0), BuildingBlock: CIFDUS_clean_linker_0, # of connection points: 2
#     Edge 52, Type (0, 0), BuildingBlock: CIFDUS_clean_linker_0, # of connection points: 2
#     Edge 53, Type (0, 0), BuildingBlock: CIFDUS_clean_linker_0, # of connection points: 2
#     Edge 54, Type (0, 0), BuildingBlock: CIFDUS_clean_linker_0, # of connection points: 2
#     Edge 55, Type (0, 0), BuildingBlock: CIFDUS_clean_linker_0, # of connection points: 2
#     Edge 56, Type (0, 0), BuildingBlock: CIFDUS_clean_linker_0, # of connection points: 2
#     Edge 57, Type (0, 0), BuildingBlock: CIFDUS_clean_linker_0, # of connection points: 2
#     Edge 58, Type (0, 0), BuildingBlock: CIFDUS_clean_linker_0, # of connection points: 2
#     Edge 59, Type (0, 0), BuildingBlock: CIFDUS_clean_linker_0, # of connection points: 2
#     Edge 60, Type (0, 0), BuildingBlock: CIFDUS_clean_linker_0, # of connection points: 2
#     Edge 61, Type (0, 0), BuildingBlock: CIFDUS_clean_linker_0, # of connection points: 2
#     Edge 62, Type (0, 0), BuildingBlock: CIFDUS_clean_linker_0, # of connection points: 2
#     Edge 63, Type (0, 0), BuildingBlock: CIFDUS_clean_linker_0, # of connection points: 2
#     Edge 64, Type (0, 0), BuildingBlock: CIFDUS_clean_linker_0, # of connection points: 2
#     Edge 65, Type (0, 0), BuildingBlock: CIFDUS_clean_linker_0, # of connection points: 2
#     Edge 66, Type (0, 0), BuildingBlock: CIFDUS_clean_linker_0, # of connection points: 2
#     Edge 67, Type (0, 0), BuildingBlock: CIFDUS_clean_linker_0, # of connection points: 2
#     Edge 68, Type (0, 0), BuildingBlock: CIFDUS_clean_linker_0, # of connection points: 2
#     Edge 69, Type (0, 0), BuildingBlock: CIFDUS_clean_linker_0, # of connection points: 2
#     Edge 70, Type (0, 0), BuildingBlock: CIFDUS_clean_linker_0, # of connection points: 2
#     Edge 71, Type (0, 0), BuildingBlock: CIFDUS_clean_linker_0, # of connection points: 2
#     Edge 72, Type (0, 0), BuildingBlock: CIFDUS_clean_linker_0, # of connection points: 2
#     Edge 73, Type (0, 0), BuildingBlock: CIFDUS_clean_linker_0, # of connection points: 2
#     Edge 74, Type (0, 0), BuildingBlock: CIFDUS_clean_linker_0, # of connection points: 2
#     Edge 75, Type (0, 0), BuildingBlock: CIFDUS_clean_linker_0, # of connection points: 2
#     Edge 76, Type (0, 0), BuildingBlock: CIFDUS_clean_linker_0, # of connection points: 2
#     Edge 77, Type (0, 0), BuildingBlock: CIFDUS_clean_linker_0, # of connection points: 2
#     Edge 78, Type (0, 0), BuildingBlock: CIFDUS_clean_linker_0, # of connection points: 2
#     Edge 79, Type (0, 0), BuildingBlock: CIFDUS_clean_linker_0, # of connection points: 2
#     Edge 80, Type (0, 0), BuildingBlock: CIFDUS_clean_linker_0, # of connection points: 2
#     Edge 81, Type (0, 0), BuildingBlock: CIFDUS_clean_linker_0, # of connection points: 2
#     Edge 82, Type (0, 0), BuildingBlock: CIFDUS_clean_linker_0, # of connection points: 2
#     Edge 83, Type (0, 0), BuildingBlock: CIFDUS_clean_linker_0, # of connection points: 2
#     Edge 84, Type (0, 0), BuildingBlock: CIFDUS_clean_linker_0, # of connection points: 2
#     Edge 85, Type (0, 0), BuildingBlock: CIFDUS_clean_linker_0, # of connection points: 2
#     Edge 86, Type (0, 0), BuildingBlock: CIFDUS_clean_linker_0, # of connection points: 2
#     Edge 87, Type (0, 0), BuildingBlock: CIFDUS_clean_linker_0, # of connection points: 2
#     Edge 88, Type (0, 0), BuildingBlock: CIFDUS_clean_linker_0, # of connection points: 2
#     Edge 89, Type (0, 0), BuildingBlock: CIFDUS_clean_linker_0, # of connection points: 2
#     Edge 90, Type (0, 0), BuildingBlock: CIFDUS_clean_linker_0, # of connection points: 2
#     Edge 91, Type (0, 0), BuildingBlock: CIFDUS_clean_linker_0, # of connection points: 2
#     Edge 92, Type (0, 0), BuildingBlock: CIFDUS_clean_linker_0, # of connection points: 2
#     Edge 93, Type (0, 0), BuildingBlock: CIFDUS_clean_linker_0, # of connection points: 2
#     Edge 94, Type (0, 0), BuildingBlock: CIFDUS_clean_linker_0, # of connection points: 2
#     Edge 95, Type (0, 0), BuildingBlock: CIFDUS_clean_linker_0, # of connection points: 2
#     Edge 96, Type (0, 0), BuildingBlock: CIFDUS_clean_linker_0, # of connection points: 2
#     Edge 97, Type (0, 0), BuildingBlock: CIFDUS_clean_linker_0, # of connection points: 2
#     Edge 98, Type (0, 0), BuildingBlock: CIFDUS_clean_linker_0, # of connection points: 2
#     Edge 99, Type (0, 0), BuildingBlock: CIFDUS_clean_linker_0, # of connection points: 2
#     Edge 100, Type (0, 0), BuildingBlock: CIFDUS_clean_linker_0, # of connection points: 2
#     Edge 101, Type (0, 0), BuildingBlock: CIFDUS_clean_linker_0, # of connection points: 2
#     Edge 102, Type (0, 0), BuildingBlock: CIFDUS_clean_linker_0, # of connection points: 2
#     Edge 103, Type (0, 0), BuildingBlock: CIFDUS_clean_linker_0, # of connection points: 2
#     Edge 104, Type (0, 0), BuildingBlock: CIFDUS_clean_linker_0, # of connection points: 2
#     Edge 105, Type (0, 0), BuildingBlock: CIFDUS_clean_linker_0, # of connection points: 2
#     Edge 106, Type (0, 0), BuildingBlock: CIFDUS_clean_linker_0, # of connection points: 2
#     Edge 107, Type (0, 0), BuildingBlock: CIFDUS_clean_linker_0, # of connection points: 2
#     Edge 108, Type (0, 0), BuildingBlock: CIFDUS_clean_linker_0, # of connection points: 2
#     Edge 109, Type (0, 0), BuildingBlock: CIFDUS_clean_linker_0, # of connection points: 2
#     Edge 110, Type (0, 0), BuildingBlock: CIFDUS_clean_linker_0, # of connection points: 2
#     Edge 111, Type (0, 0), BuildingBlock: CIFDUS_clean_linker_0, # of connection points: 2
#     Edge 112, Type (0, 0), BuildingBlock: CIFDUS_clean_linker_0, # of connection points: 2
#     Edge 113, Type (0, 0), BuildingBlock: CIFDUS_clean_linker_0, # of connection points: 2
#     Edge 114, Type (0, 0), BuildingBlock: CIFDUS_clean_linker_0, # of connection points: 2
#     Edge 115, Type (0, 0), BuildingBlock: CIFDUS_clean_linker_0, # of connection points: 2
#     Edge 116, Type (0, 0), BuildingBlock: CIFDUS_clean_linker_0, # of connection points: 2
#     Edge 117, Type (0, 0), BuildingBlock: CIFDUS_clean_linker_0, # of connection points: 2
#     Edge 118, Type (0, 0), BuildingBlock: CIFDUS_clean_linker_0, # of connection points: 2
#     Edge 119, Type (0, 0), BuildingBlock: CIFDUS_clean_linker_0, # of connection points: 2
#     Edge 120, Type (0, 0), BuildingBlock: CIFDUS_clean_linker_0, # of connection points: 2
#     Edge 121, Type (0, 0), BuildingBlock: CIFDUS_clean_linker_0, # of connection points: 2
#     Edge 122, Type (0, 0), BuildingBlock: CIFDUS_clean_linker_0, # of connection points: 2
#     Edge 123, Type (0, 0), BuildingBlock: CIFDUS_clean_linker_0, # of connection points: 2
#     Edge 124, Type (0, 0), BuildingBlock: CIFDUS_clean_linker_0, # of connection points: 2
#     Edge 125, Type (0, 0), BuildingBlock: CIFDUS_clean_linker_0, # of connection points: 2
#     Edge 126, Type (0, 0), BuildingBlock: CIFDUS_clean_linker_0, # of connection points: 2
#     Edge 127, Type (0, 0), BuildingBlock: CIFDUS_clean_linker_0, # of connection points: 2
#     Edge 128, Type (0, 0), BuildingBlock: CIFDUS_clean_linker_0, # of connection points: 2
#     Edge 129, Type (0, 0), BuildingBlock: CIFDUS_clean_linker_0, # of connection points: 2
#     Edge 130, Type (0, 0), BuildingBlock: CIFDUS_clean_linker_0, # of connection points: 2
#     Edge 131, Type (0, 0), BuildingBlock: CIFDUS_clean_linker_0, # of connection points: 2
#     Edge 132, Type (0, 0), BuildingBlock: CIFDUS_clean_linker_0, # of connection points: 2
#     Edge 133, Type (0, 0), BuildingBlock: CIFDUS_clean_linker_0, # of connection points: 2
#     Edge 134, Type (0, 0), BuildingBlock: CIFDUS_clean_linker_0, # of connection points: 2
#     Edge 135, Type (0, 0), BuildingBlock: CIFDUS_clean_linker_0, # of connection points: 2
#     Edge 136, Type (0, 0), BuildingBlock: CIFDUS_clean_linker_0, # of connection points: 2
#     Edge 137, Type (0, 0), BuildingBlock: CIFDUS_clean_linker_0, # of connection points: 2
#     Edge 138, Type (0, 0), BuildingBlock: CIFDUS_clean_linker_0, # of connection points: 2
#     Edge 139, Type (0, 0), BuildingBlock: CIFDUS_clean_linker_0, # of connection points: 2
#     Edge 140, Type (0, 0), BuildingBlock: CIFDUS_clean_linker_0, # of connection points: 2
#     Edge 141, Type (0, 0), BuildingBlock: CIFDUS_clean_linker_0, # of connection points: 2
#     Edge 142, Type (0, 0), BuildingBlock: CIFDUS_clean_linker_0, # of connection points: 2
#     Edge 143, Type (0, 0), BuildingBlock: CIFDUS_clean_linker_0, # of connection points: 2
# Relax obj value: 0.196
# Max RMSD: 0.253
# Mean RMSD: 0.253
data_MOF--net-ukp--node1-GALJAG_clean_sbu_0--edge1-CIFDUS_clean_linker_0
_symmetry_space_group_name_H-M    P1
_symmetry_Int_Tables_number       1
_symmetry_cell_setting            triclinic
loop_
_symmetry_equiv_pos_as_xyz
'x, y, z'
_cell_length_a     54.734692
_cell_length_b     54.711586
_cell_length_c     54.715418
_cell_angle_alpha  89.962409
_cell_angle_beta   90.041498
_cell_angle_gamma 90.06058
loop_
_atom_site_label
_atom_site_type_symbol
_atom_site_fract_x
_atom_site_fract_y
_atom_site_fract_z
_atom_type_partial_charge
In0 In 0.21498 0.28106 0.4109 0.0
O1 O 0.17456 0.27044 0.41341 0.0
O2 O 0.20013 0.2502 0.43459 0.0
C3 C 0.20973 0.3129 0.37295 0.0
C4 C 0.22312 0.31263 0.44798 0.0
C5 C 0.25055 0.25026 0.39568 0.0
O6 O 0.20077 0.29164 0.37236 0.0
O7 O 0.22022 0.31809 0.3927 0.0
O8 O 0.25245 0.2628 0.41494 0.0
O9 O 0.23058 0.25285 0.38455 0.0
C10 C 0.17806 0.25339 0.42864 0.0
O11 O 0.23968 0.30647 0.43314 0.0
O12 O 0.20283 0.30215 0.44465 0.0
In13 In 0.97666 0.96162 0.64865 0.0
O14 O 0.99128 0.92269 0.64918 0.0
O15 O 0.00733 0.94837 0.67368 0.0
C16 C 0.95017 0.95595 0.60722 0.0
C17 C 0.93961 0.96227 0.68136 0.0
C18 C 0.00556 0.00038 0.63797 0.0
O19 O 0.96981 0.94439 0.61086 0.0
O20 O 0.94398 0.96979 0.62446 0.0
O21 O 0.99302 0.99934 0.65732 0.0
O22 O 0.00395 0.98173 0.62458 0.0
C23 C 0.00692 0.92667 0.66574 0.0
O24 O 0.94587 0.98093 0.66933 0.0
O25 O 0.95284 0.94374 0.67789 0.0
In26 In 0.29999 0.73094 0.8903 0.0
O27 O 0.33746 0.7496 0.89219 0.0
O28 O 0.31207 0.75659 0.92075 0.0
C29 C 0.29902 0.70604 0.84792 0.0
C30 C 0.30481 0.69011 0.9171 0.0
C31 C 0.26094 0.75888 0.8794 0.0
O32 O 0.31367 0.72375 0.85109 0.0
O33 O 0.28513 0.70156 0.86573 0.0
O34 O 0.26066 0.74345 0.89665 0.0
O35 O 0.2812 0.76091 0.86859 0.0
C36 C 0.33314 0.76036 0.91218 0.0
O37 O 0.28701 0.7045 0.92049 0.0
O38 O 0.32023 0.69709 0.90146 0.0
In39 In 0.52185 0.04832 0.14436 0.0
O40 O 0.54873 0.02618 0.16763 0.0
O41 O 0.54626 0.06446 0.17382 0.0
C42 C 0.49108 0.01381 0.12703 0.0
C43 C 0.49146 0.08188 0.16334 0.0
C44 C 0.55231 0.05368 0.10593 0.0
O45 O 0.50227 0.01126 0.14711 0.0
O46 O 0.49513 0.03376 0.11626 0.0
O47 O 0.53414 0.06762 0.10899 0.0
O48 O 0.55501 0.03771 0.12225 0.0
C49 C 0.55679 0.04462 0.17897 0.0
O50 O 0.50696 0.08705 0.14697 0.0
O51 O 0.49133 0.05976 0.17005 0.0
In52 In 0.20389 0.7214 0.1021 0.0
O53 O 0.23081 0.70036 0.07803 0.0
O54 O 0.19273 0.69547 0.0717 0.0
C55 C 0.2321 0.75324 0.12708 0.0
C56 C 0.17028 0.7507 0.0812 0.0
C57 C 0.20019 0.68628 0.13655 0.0
O58 O 0.23831 0.74534 0.10623 0.0
O59 O 0.21181 0.74542 0.13467 0.0
O60 O 0.18433 0.70305 0.13485 0.0
O61 O 0.21716 0.68745 0.12113 0.0
C62 C 0.21425 0.68896 0.06654 0.0
O63 O 0.16456 0.73396 0.09614 0.0
O64 O 0.19288 0.75247 0.07679 0.0
In65 In 0.51431 0.9566 0.35588 0.0
O66 O 0.49301 0.92082 0.35973 0.0
O67 O 0.48901 0.94152 0.32683 0.0
C68 C 0.54234 0.96662 0.39484 0.0
C69 C 0.55445 0.94404 0.33119 0.0
C70 C 0.48528 0.99543 0.36257 0.0
O71 O 0.5263 0.94981 0.39574 0.0
O72 O 0.54331 0.97823 0.37494 0.0
O73 O 0.50051 0.99446 0.34511 0.0
O74 O 0.48414 0.97642 0.37567 0.0
C75 C 0.48327 0.92256 0.33876 0.0
O76 O 0.54199 0.96255 0.32478 0.0
O77 O 0.54547 0.93153 0.3484 0.0
In78 In 0.2837 0.26922 0.60675 0.0
O79 O 0.25822 0.29711 0.58877 0.0
O80 O 0.29201 0.28951 0.57127 0.0
C81 C 0.24903 0.23858 0.62439 0.0
C82 C 0.31929 0.24196 0.58647 0.0
C83 C 0.29377 0.2988 0.64533 0.0
O84 O 0.24602 0.2507 0.60498 0.0
O85 O 0.26954 0.24154 0.63434 0.0
O86 O 0.30168 0.2772 0.64404 0.0
O87 O 0.2819 0.30561 0.62688 0.0
C88 C 0.27259 0.30193 0.57135 0.0
O89 O 0.32379 0.25977 0.6005 0.0
O90 O 0.29686 0.23789 0.58284 0.0
In91 In 0.97099 0.03867 0.84089 0.0
O92 O 0.989 0.07618 0.83782 0.0
O93 O 1e-05 0.04835 0.81287 0.0
C94 C 0.94329 0.04429 0.88138 0.0
C95 C 0.9341 0.03957 0.80818 0.0
C96 C 0.00018 0.00128 0.85466 0.0
O97 O 0.96234 0.05693 0.87792 0.0
O98 O 0.93842 0.02947 0.86449 0.0
O99 O 0.98641 -2e-05 0.83613 0.0
O100 O -0.00052 0.02146 0.86573 0.0
C101 C 0.00235 0.07024 0.8199 0.0
O102 O 0.94137 0.01989 0.81787 0.0
O103 O 0.94611 0.05833 0.81415 0.0
In104 In 0.38415 0.20042 0.27211 0.0
O105 O 0.40945 0.2243 0.29553 0.0
O106 O 0.41518 0.1858 0.29521 0.0
C107 C 0.36263 0.23233 0.24124 0.0
C108 C 0.40331 0.16616 0.24267 0.0
C109 C 0.34871 0.19643 0.30618 0.0
O110 O 0.38336 0.23663 0.25062 0.0
O111 O 0.35351 0.21199 0.24702 0.0
O112 O 0.34937 0.18237 0.28783 0.0
O113 O 0.36591 0.21164 0.30728 0.0
C114 C 0.42133 0.20627 0.30384 0.0
O115 O 0.38777 0.16104 0.25903 0.0
O116 O 0.40868 0.18858 0.24094 0.0
In117 In 0.04805 0.15083 0.53185 0.0
O118 O 0.08857 0.15756 0.52419 0.0
O119 O 0.06272 0.17638 0.50219 0.0
C120 C 0.0557 0.11144 0.56116 0.0
C121 C 0.03251 0.1837 0.56528 0.0
C122 C 0.01509 0.13302 0.49954 0.0
O123 O 0.06392 0.11257 0.53964 0.0
O124 O 0.04503 0.13053 0.56812 0.0
O125 O 0.01228 0.1533 0.51018 0.0
O126 O 0.03481 0.12232 0.50455 0.0
C127 C 0.08494 0.17243 0.5069 0.0
O128 O 0.01848 0.16808 0.55565 0.0
O129 O 0.05412 0.18348 0.55716 0.0
In130 In 0.11168 0.7996 0.76786 0.0
O131 O 0.08982 0.77805 0.7963 0.0
O132 O 0.08089 0.81545 0.79083 0.0
C133 C 0.12377 0.76209 0.73802 0.0
C134 C 0.09379 0.83576 0.73947 0.0
C135 C 0.1516 0.80425 0.79691 0.0
O136 O 0.10407 0.76241 0.75003 0.0
O137 O 0.13685 0.78087 0.7406 0.0
O138 O 0.15029 0.81462 0.7763 0.0
O139 O 0.13281 0.79242 0.80277 0.0
C140 C 0.07696 0.79609 0.80272 0.0
O141 O 0.10993 0.83951 0.7556 0.0
O142 O 0.08723 0.81371 0.73731 0.0
In143 In 0.45162 0.85267 0.03592 0.0
O144 O 0.47366 0.82679 0.06035 0.0
O145 O 0.43495 0.82323 0.06008 0.0
C146 C 0.48856 0.86988 0.00798 0.0
C147 C 0.41746 0.83547 0.00464 0.0
C148 C 0.44741 0.89008 0.06804 0.0
O149 O 0.48968 0.84943 0.01872 0.0
O150 O 0.46866 0.88109 0.0108 0.0
O151 O 0.43681 0.89054 0.0475 0.0
O152 O 0.45914 0.87083 0.07226 0.0
C153 C 0.455 0.81636 0.06919 0.0
O154 O 0.41244 0.85034 0.0216 0.0
O155 O 0.43971 0.82952 0.00335 0.0
In156 In 0.37963 0.79619 0.23259 0.0
O157 O 0.38489 0.83652 0.24255 0.0
O158 O 0.40563 0.8103 0.26219 0.0
C159 C 0.3416 0.8077 0.20293 0.0
C160 C 0.40911 0.77832 0.19715 0.0
C161 C 0.3628 0.76167 0.26369 0.0
O162 O 0.3388 0.80091 0.22477 0.0
O163 O 0.36354 0.81089 0.19684 0.0
O164 O 0.38148 0.75837 0.25051 0.0
O165 O 0.35338 0.78262 0.26184 0.0
C166 C 0.40064 0.83256 0.25894 0.0
O167 O 0.38935 0.76818 0.20336 0.0
O168 O 0.4151 0.79629 0.21035 0.0
In169 In 0.44124 0.14338 0.47254 0.0
O170 O 0.40219 0.14508 0.48686 0.0
O171 O 0.42878 0.16866 0.50293 0.0
C172 C 0.43735 0.1054 0.44117 0.0
C173 C 0.44448 0.17957 0.43919 0.0
C174 C 0.47518 0.12647 0.50421 0.0
O175 O 0.42323 0.10765 0.4593 0.0
O176 O 0.45278 0.1223 0.43889 0.0
O177 O 0.47808 0.14624 0.49256 0.0
O178 O 0.45525 0.11572 0.50004 0.0
C179 C 0.40679 0.16158 0.50241 0.0
O180 O 0.46317 0.16847 0.44705 0.0
O181 O 0.4246 0.17305 0.44885 0.0
In182 In 0.09378 0.21444 0.72676 0.0
O183 O 0.08623 0.17531 0.7391 0.0
O184 O 0.06903 0.20428 0.75857 0.0
C185 C 0.12711 0.2063 0.6913 0.0
C186 C 0.0581 0.2268 0.69508 0.0
C187 C 0.12012 0.24372 0.75655 0.0
O188 O 0.12626 0.19303 0.71024 0.0
O189 O 0.11129 0.22289 0.69045 0.0
O190 O 0.09897 0.24962 0.74929 0.0
O191 O 0.12732 0.22311 0.74928 0.0
C192 C 0.07204 0.1815 0.75624 0.0
O193 O 0.07181 0.24261 0.70498 0.0
O194 O 0.06118 0.20528 0.70286 0.0
In195 In 0.0564 0.86248 0.971 0.0
O196 O 0.09484 0.85931 0.98709 0.0
O197 O 0.06676 0.8365 0.00164 0.0
C198 C 0.0587 0.89971 0.93854 0.0
C199 C 0.05473 0.82599 0.93822 0.0
C200 C 0.02114 0.88097 -9e-05 0.0
O201 O 0.07227 0.89925 0.95729 0.0
O202 O 0.04509 0.88134 0.93615 0.0
O203 O 0.01818 0.86147 0.98781 0.0
O204 O 0.04212 0.89035 0.99816 0.0
C205 C 0.08906 0.84252 0.00199 0.0
O206 O 0.0355 0.83493 0.94742 0.0
O207 O 0.07448 0.83494 0.94613 0.0
In208 In 0.26649 0.38942 0.2069 0.0
O209 O 0.29865 0.40206 0.23014 0.0
O210 O 0.28526 0.4266 0.20322 0.0
C211 C 0.23848 0.37385 0.24479 0.0
C212 C 0.23937 0.409 0.17038 0.0
C213 C 0.29527 0.35079 0.19519 0.0
O214 O 0.25271 0.39196 0.24657 0.0
O215 O 0.23763 0.36453 0.22377 0.0
O216 O 0.27276 0.34861 0.19957 0.0
O217 O 0.30271 0.37254 0.1948 0.0
C218 C 0.3014 0.42217 0.21912 0.0
O219 O 0.25533 0.39278 0.16667 0.0
O220 O 0.23667 0.41482 0.19253 0.0
In221 In 0.76899 0.11576 0.80141 0.0
O222 O 0.79085 0.08941 0.77732 0.0
O223 O 0.7913 0.08391 0.81584 0.0
C224 C 0.73847 0.13596 0.7683 0.0
C225 C 0.73901 0.09844 0.83652 0.0
C226 C 0.80343 0.15129 0.80424 0.0
O227 O 0.74811 0.11521 0.76503 0.0
O228 O 0.74386 0.14599 0.78833 0.0
O229 O 0.78477 0.15139 0.81787 0.0
O230 O 0.80477 0.13322 0.79013 0.0
C231 C 0.79911 0.07729 0.79519 0.0
O232 O 0.75708 0.11209 0.84132 0.0
O233 O 0.73597 0.09392 0.81409 0.0
In234 In 0.14588 0.52276 0.04256 0.0
O235 O 0.168 0.54594 0.01559 0.0
O236 O 0.17584 0.54957 0.05345 0.0
C237 C 0.12436 0.4901 0.01227 0.0
C238 C 0.1659 0.49554 0.07848 0.0
C239 C 0.10848 0.55459 0.04722 0.0
O240 O 0.14534 0.49881 0.00783 0.0
O241 O 0.11508 0.49727 0.03205 0.0
O242 O 0.11166 0.53736 0.0623 0.0
O243 O 0.12424 0.55578 0.03055 0.0
C244 C 0.17985 0.55708 0.03201 0.0
O245 O 0.15034 0.51212 0.08253 0.0
O246 O 0.1715 0.49277 0.05624 0.0
In247 In 0.73378 0.8808 0.30017 0.0
O248 O 0.70177 0.90641 0.29169 0.0
O249 O 0.70551 0.89161 0.32771 0.0
C250 C 0.75722 0.87163 0.25804 0.0
C251 C 0.7653 0.90704 0.3272 0.0
C252 C 0.70988 0.83804 0.30261 0.0
O253 O 0.74079 0.88785 0.25963 0.0
O254 O 0.76259 0.86129 0.27794 0.0
O255 O 0.72864 0.84186 0.31575 0.0
O256 O 0.704 0.85536 0.28862 0.0
C257 C 0.69305 0.9045 0.3131 0.0
O258 O 0.76239 0.88434 0.33074 0.0
O259 O 0.75299 0.91596 0.30983 0.0
In260 In 0.85845 0.97792 0.03734 0.0
O261 O 0.82811 0.94955 0.03069 0.0
O262 O 0.84469 0.95211 0.06596 0.0
C263 C 0.86684 0.00355 0.99635 0.0
C264 C 0.84144 0.01228 0.06799 0.0
C265 C 0.89742 0.94838 0.03316 0.0
O266 O 0.84868 0.98926 0.99834 0.0
O267 O 0.87993 0.00541 0.01528 0.0
O268 O 0.89783 0.96668 0.04742 0.0
O269 O 0.87783 0.94564 0.02135 0.0
C270 C 0.82968 0.94116 0.05227 0.0
O271 O 0.86172 0.00164 0.07151 0.0
O272 O 0.83028 0.00598 0.04874 0.0
In273 In 0.22686 0.60965 0.69986 0.0
O274 O 0.23567 0.60459 0.65936 0.0
O275 O 0.25735 0.58525 0.68514 0.0
C276 C 0.20126 0.65096 0.68996 0.0
C277 C 0.19137 0.57666 0.70979 0.0
C278 C 0.25511 0.62243 0.73854 0.0
O279 O 0.22409 0.64963 0.68711 0.0
O280 O 0.19139 0.63115 0.69619 0.0
O281 O 0.2415 0.6038 0.73873 0.0
O282 O 0.2553 0.6338 0.71854 0.0
C283 C 0.2529 0.58965 0.66292 0.0
O284 O 0.19498 0.59542 0.72274 0.0
O285 O 0.20638 0.57397 0.6925 0.0
In286 In 0.16112 0.47734 0.47373 0.0
O287 O 0.1869 0.45265 0.49554 0.0
O288 O 0.19323 0.45673 0.4574 0.0
C289 C 0.14311 0.50387 0.51125 0.0
C290 C 0.17739 0.5103 0.44076 0.0
C291 C 0.12523 0.4437 0.46699 0.0
O292 O 0.16371 0.49353 0.51226 0.0
O293 O 0.13204 0.50126 0.49123 0.0
O294 O 0.12436 0.46454 0.45704 0.0
O295 O 0.14416 0.43995 0.47944 0.0
C296 C 0.19938 0.44645 0.47713 0.0
O297 O 0.16283 0.49325 0.43507 0.0
O298 O 0.18344 0.51078 0.46304 0.0
In299 In 0.36556 0.51355 0.95328 0.0
O300 O 0.36694 0.49102 0.9183 0.0
O301 O 0.33629 0.48622 0.94182 0.0
C302 C 0.40782 0.53884 0.95332 0.0
C303 C 0.33733 0.5517 0.94055 0.0
C304 C 0.37282 0.48967 0.99579 0.0
O305 O 0.40581 0.51875 0.94201 0.0
O306 O 0.38876 0.54577 0.96413 0.0
O307 O 0.35573 0.50502 0.99307 0.0
O308 O 0.38522 0.48564 0.97679 0.0
C309 C 0.34657 0.48069 0.92189 0.0
O310 O 0.33748 0.54359 0.96226 0.0
O311 O 0.35058 0.54003 0.92574 0.0
In312 In 0.69846 0.76714 0.88398 0.0
O313 O 0.71041 0.7934 0.91461 0.0
O314 O 0.67657 0.79954 0.89619 0.0
C315 C 0.73925 0.74231 0.87262 0.0
C316 C 0.66711 0.7352 0.90489 0.0
C317 C 0.69821 0.79303 0.84214 0.0
O318 O 0.73836 0.75706 0.8904 0.0
O319 O 0.71925 0.73922 0.86156 0.0
O320 O 0.68485 0.77423 0.84465 0.0
O321 O 0.71136 0.79814 0.86034 0.0
C322 C 0.69193 0.80699 0.9117 0.0
O323 O 0.66199 0.7466 0.88543 0.0
O324 O 0.68806 0.73966 0.91344 0.0
In325 In 0.47431 0.45573 0.15479 0.0
O326 O 0.44487 0.47107 0.18037 0.0
O327 O 0.44723 0.43241 0.17538 0.0
C328 C 0.50294 0.49422 0.14292 0.0
C329 C 0.50508 0.42576 0.17872 0.0
C330 C 0.44755 0.45154 0.11348 0.0
O331 O 0.48733 0.49527 0.15993 0.0
O332 O 0.50454 0.47365 0.13269 0.0
O333 O 0.46523 0.4373 0.11794 0.0
O334 O 0.44358 0.46728 0.12977 0.0
C335 C 0.43648 0.4501 0.18554 0.0
O336 O 0.49889 0.4218 0.15677 0.0
O337 O 0.49636 0.44494 0.18809 0.0
In338 In 0.81662 0.23421 0.36969 0.0
O339 O 0.85384 0.25344 0.37157 0.0
O340 O 0.82832 0.25958 0.4003 0.0
C341 C 0.81348 0.20932 0.32748 0.0
C342 C 0.82319 0.1934 0.39594 0.0
C343 C 0.77701 0.26141 0.35974 0.0
O344 O 0.82798 0.22733 0.32958 0.0
O345 O 0.80108 0.2045 0.34626 0.0
O346 O 0.77697 0.24502 0.37609 0.0
O347 O 0.79741 0.26497 0.34958 0.0
C348 C 0.84933 0.2638 0.39176 0.0
O349 O 0.80532 0.20752 0.40017 0.0
O350 O 0.83798 0.20081 0.37985 0.0
In351 In 0.0218 0.53913 0.65346 0.0
O352 O 0.04975 0.52209 0.67961 0.0
O353 O 0.04366 0.56045 0.68151 0.0
C354 C 0.99664 0.49919 0.63908 0.0
C355 C 0.98767 0.57018 0.67034 0.0
C356 C 0.05195 0.54513 0.61476 0.0
O357 O 0.00898 0.49953 0.65863 0.0
O358 O 0.99657 0.51905 0.6274 0.0
O359 O 0.03112 0.55507 0.61547 0.0
O360 O 0.05736 0.53294 0.63347 0.0
C361 C 0.05569 0.54232 0.68911 0.0
O362 O 0.00326 0.5764 0.65445 0.0
O363 O 0.98913 0.54823 0.67741 0.0
In364 In 0.70448 0.23241 0.60985 0.0
O365 O 0.72452 0.20614 0.58421 0.0
O366 O 0.68628 0.21123 0.57914 0.0
C367 C 0.74272 0.25774 0.62822 0.0
C368 C 0.67374 0.26661 0.59207 0.0
C369 C 0.69708 0.19997 0.64653 0.0
O370 O 0.74396 0.24664 0.60798 0.0
O371 O 0.72223 0.25642 0.63862 0.0
O372 O 0.68795 0.22118 0.64717 0.0
O373 O 0.70889 0.1953 0.62743 0.0
C374 C 0.70538 0.20001 0.57275 0.0
O375 O 0.6667 0.25004 0.60662 0.0
O376 O 0.69621 0.26599 0.58684 0.0
In377 In 0.02819 0.45019 0.85586 0.0
O378 O 0.05762 0.47717 0.84384 0.0
O379 O 0.0511 0.44641 0.82114 0.0
C380 C 0.99876 0.4875 0.86936 0.0
C381 C 0.00122 0.41347 0.83603 0.0
C382 C 0.0566 0.44012 0.89531 0.0
O383 O 0.0116 0.48811 0.85019 0.0
O384 O 4e-05 0.46771 0.88111 0.0
O385 O 0.06413 0.43838 0.87366 0.0
O386 O 0.03415 0.44495 0.89708 0.0
C387 C 0.06393 0.46519 0.82519 0.0
O388 O 0.01717 0.40982 0.85229 0.0
O389 O 0.99861 0.43558 0.83012 0.0
In390 In 0.79 0.7627 0.10352 0.0
O391 O 0.82619 0.74195 0.10042 0.0
O392 O 0.79894 0.73581 0.07328 0.0
C393 C 0.79163 0.7883 0.14535 0.0
C394 C 0.79522 0.80307 0.07612 0.0
C395 C 0.75127 0.7353 0.11642 0.0
O396 O 0.8066 0.77109 0.14125 0.0
O397 O 0.77601 0.79183 0.12878 0.0
O398 O 0.75036 0.75049 0.09897 0.0
O399 O 0.77186 0.73353 0.12668 0.0
C400 C 0.82005 0.7308 0.08111 0.0
O401 O 0.77641 0.7897 0.07414 0.0
O402 O 0.81143 0.79515 0.09046 0.0
In403 In 0.46566 0.54318 0.35776 0.0
O404 O 0.43995 0.52239 0.33211 0.0
O405 O 0.44318 0.5609 0.32764 0.0
C406 C 0.49349 0.50571 0.37374 0.0
C407 C 0.49775 0.5766 0.34105 0.0
C408 C 0.43429 0.54795 0.39571 0.0
O409 O 0.48213 0.50492 0.35363 0.0
O410 O 0.49123 0.52549 0.38527 0.0
O411 O 0.45457 0.559 0.39528 0.0
O412 O 0.42983 0.53548 0.37695 0.0
C413 C 0.43292 0.54135 0.32094 0.0
O414 O 0.48118 0.5819 0.35626 0.0
O415 O 0.49818 0.55446 0.33452 0.0
In416 In 0.89363 0.71161 0.76327 0.0
O417 O 0.89678 0.67464 0.74401 0.0
O418 O 0.92363 0.70173 0.73636 0.0
C419 C 0.85163 0.70908 0.7886 0.0
C420 C 0.92202 0.70753 0.80311 0.0
C421 C 0.88126 0.75076 0.73608 0.0
O422 O 0.85549 0.69532 0.77038 0.0
O423 O 0.86856 0.72395 0.79338 0.0
O424 O 0.89871 0.75126 0.75124 0.0
O425 O 0.87073 0.73032 0.73413 0.0
C426 C 0.91601 0.68029 0.73254 0.0
O427 O 0.92288 0.72638 0.7897 0.0
O428 O 0.90786 0.69088 0.79578 0.0
In429 In 0.55395 0.63706 0.02809 0.0
O430 O 0.59285 0.63939 0.01289 0.0
O431 O 0.56498 0.66012 0.99533 0.0
C432 C 0.55694 0.59882 0.05943 0.0
C433 C 0.55221 0.67329 0.06134 0.0
C434 C 0.51638 0.62183 0.00013 0.0
O435 O 0.56903 0.59927 0.03973 0.0
O436 O 0.54441 0.61766 0.06328 0.0
O437 O 0.51612 0.6421 0.0112 0.0
O438 O 0.53582 0.60974 0.00263 0.0
C439 C 0.58729 0.6543 0.99609 0.0
O440 O 0.53314 0.66321 0.05308 0.0
O441 O 0.57193 0.66588 0.05199 0.0
In442 In 0.60619 0.28935 0.27269 0.0
O443 O 0.57487 0.27901 0.29883 0.0
O444 O 0.5988 0.30858 0.30808 0.0
C445 C 0.61286 0.25192 0.24136 0.0
C446 C 0.58703 0.32524 0.24492 0.0
C447 C 0.64771 0.28318 0.29818 0.0
O448 O 0.5968 0.25121 0.258 0.0
O449 O 0.62439 0.27183 0.23997 0.0
O450 O 0.64445 0.302 0.28499 0.0
O451 O 0.63055 0.26779 0.29765 0.0
C452 C 0.5811 0.29512 0.31431 0.0
O453 O 0.6098 0.3235 0.24852 0.0
O454 O 0.57423 0.30906 0.25523 0.0
In455 In 0.96427 0.35531 0.51954 0.0
O456 O 0.92552 0.35163 0.50471 0.0
O457 O 0.95387 0.33279 0.4859 0.0
C458 C 0.95627 0.3921 0.55169 0.0
C459 C 0.96874 0.31815 0.55186 0.0
C460 C 0.00069 0.3752 0.49262 0.0
O461 O 0.94537 0.39112 0.53135 0.0
O462 O 0.97026 0.37437 0.55583 0.0
O463 O 0.00285 0.35458 0.50286 0.0
O464 O 0.98009 0.38507 0.49533 0.0
C465 C 0.93134 0.33772 0.48721 0.0
O466 O 0.98672 0.33116 0.54543 0.0
O467 O 0.949 0.32304 0.54101 0.0
In468 In 0.9084 0.28692 0.72086 0.0
O469 O 0.93482 0.26724 0.69491 0.0
O470 O 0.93672 0.30602 0.69727 0.0
C471 C 0.89353 0.25027 0.7506 0.0
C472 C 0.92497 0.32203 0.75133 0.0
C473 C 0.87031 0.2889 0.68923 0.0
O474 O 0.91297 0.24889 0.73818 0.0
O475 O 0.88228 0.27024 0.74851 0.0
O476 O 0.87065 0.30155 0.70857 0.0
O477 O 0.88905 0.27608 0.68596 0.0
C478 C 0.94446 0.2868 0.6872 0.0
O479 O 0.90824 0.32587 0.73581 0.0
O480 O 0.93306 0.30039 0.75167 0.0
In481 In 0.95403 0.63936 0.97647 0.0
O482 O 0.91847 0.64063 0.9983 0.0
O483 O 0.94627 0.66667 0.00667 0.0
C484 C 0.9522 0.59723 0.95078 0.0
C485 C 0.94358 0.67056 0.93994 0.0
C486 C 0.99594 0.63073 0.00063 0.0
O487 O 0.94124 0.59947 0.97103 0.0
O488 O 0.96339 0.61607 0.94378 0.0
O489 O 0.9941 0.64764 0.98492 0.0
O490 O 0.97656 0.61881 0.00441 0.0
C491 C 0.92503 0.65877 0.01108 0.0
O492 O 0.96526 0.66762 0.94747 0.0
O493 O 0.9276 0.65846 0.95136 0.0
In494 In 0.60758 0.69355 0.23271 0.0
O495 O 0.58441 0.71612 0.20627 0.0
O496 O 0.57743 0.67793 0.20874 0.0
C497 C 0.62383 0.73033 0.26131 0.0
C498 C 0.58815 0.65988 0.26299 0.0
C499 C 0.6457 0.68778 0.20181 0.0
O500 O 0.60351 0.73116 0.25036 0.0
O501 O 0.63546 0.71068 0.25844 0.0
O502 O 0.64479 0.67661 0.22204 0.0
O503 O 0.62741 0.70089 0.19733 0.0
C504 C 0.57247 0.69796 0.19843 0.0
O505 O 0.60424 0.65455 0.24728 0.0
O506 O 0.58236 0.68221 0.26368 0.0
In507 In 0.54071 0.36042 0.48814 0.0
O508 O 0.57474 0.35883 0.51224 0.0
O509 O 0.5478 0.3308 0.51622 0.0
C510 C 0.54173 0.40095 0.46043 0.0
C511 C 0.55368 0.33083 0.4513 0.0
C512 C 0.50018 0.37289 0.51286 0.0
O513 O 0.55459 0.39931 0.47966 0.0
O514 O 0.52894 0.38241 0.45562 0.0
O515 O 0.5002 0.35545 0.49759 0.0
O516 O 0.52066 0.38304 0.51612 0.0
C517 C 0.56834 0.33919 0.52278 0.0
O518 O 0.53176 0.33151 0.45885 0.0
O519 O 0.56848 0.34419 0.46294 0.0
In520 In 0.76753 0.89741 0.69753 0.0
O521 O 0.79451 0.92111 0.719 0.0
O522 O 0.79133 0.92711 0.6807 0.0
C523 C 0.74048 0.88091 0.73542 0.0
C524 C 0.73578 0.9166 0.66499 0.0
C525 C 0.7977 0.85881 0.69078 0.0
O526 O 0.75174 0.90109 0.7361 0.0
O527 O 0.7422 0.86967 0.71541 0.0
O528 O 0.77718 0.8601 0.68023 0.0
O529 O 0.80291 0.87705 0.70372 0.0
C530 C 0.80201 0.93259 0.70041 0.0
O531 O 0.75145 0.90067 0.65914 0.0
O532 O 0.73592 0.92251 0.68731 0.0
In533 In 0.26474 0.60116 0.29364 0.0
O534 O 0.28978 0.57575 0.27177 0.0
O535 O 0.28816 0.57143 0.31043 0.0
C536 C 0.23494 0.61907 0.25856 0.0
C537 C 0.23435 0.58145 0.327 0.0
C538 C 0.29765 0.63791 0.29791 0.0
O539 O 0.24689 0.5995 0.25573 0.0
O540 O 0.23765 0.62905 0.27914 0.0
O541 O 0.27822 0.63771 0.31044 0.0
O542 O 0.3002 0.61981 0.28403 0.0
C543 C 0.29771 0.56479 0.29054 0.0
O544 O 0.24976 0.59784 0.33251 0.0
O545 O 0.23401 0.57557 0.30467 0.0
In546 In 0.63277 0.03449 0.55062 0.0
O547 O 0.63544 0.01912 0.58937 0.0
O548 O 0.65677 0.0024 0.56139 0.0
C549 C 0.59677 0.06816 0.55378 0.0
C550 C 0.67063 0.06582 0.54818 0.0
C551 C 0.61297 0.00589 0.51563 0.0
O552 O 0.59612 0.04865 0.56618 0.0
O553 O 0.6156 0.07071 0.54092 0.0
O554 O 0.63262 0.01763 0.51224 0.0
O555 O 0.60402 0.00802 0.53674 0.0
C556 C 0.6509 0.00286 0.58373 0.0
O557 O 0.66043 0.05751 0.52914 0.0
O558 O 0.66237 0.05756 0.56808 0.0
In559 In 0.22706 0.39448 0.79496 0.0
O560 O 0.19777 0.40913 0.76929 0.0
O561 O 0.2058 0.42998 0.80097 0.0
C562 C 0.25478 0.38158 0.75623 0.0
C563 C 0.25635 0.41038 0.83169 0.0
C564 C 0.19733 0.35586 0.80435 0.0
O565 O 0.24252 0.40113 0.75669 0.0
O566 O 0.25371 0.36911 0.7756 0.0
O567 O 0.19103 0.37768 0.80786 0.0
O568 O 0.21928 0.35335 0.79785 0.0
C569 C 0.19237 0.42732 0.78237 0.0
O570 O 0.23867 0.39602 0.83521 0.0
O571 O 0.25933 0.41663 0.80971 0.0
In572 In 0.3343 0.46734 0.53615 0.0
O573 O 0.3373 0.4832 0.57461 0.0
O574 O 0.31179 0.49939 0.54999 0.0
C575 C 0.37138 0.43454 0.53622 0.0
C576 C 0.29666 0.43547 0.53822 0.0
C577 C 0.34849 0.49693 0.49928 0.0
O578 O 0.37094 0.45239 0.55089 0.0
O579 O 0.35318 0.43327 0.52222 0.0
O580 O 0.32847 0.48537 0.49874 0.0
O581 O 0.36079 0.49395 0.51853 0.0
C582 C 0.3211 0.49934 0.57115 0.0
O583 O 0.30546 0.44267 0.51811 0.0
O584 O 0.30619 0.44503 0.5569 0.0
In585 In 0.72611 0.10953 0.18923 0.0
O586 O 0.70196 0.08431 0.21233 0.0
O587 O 0.70281 0.07867 0.17389 0.0
C588 C 0.75662 0.12569 0.22452 0.0
C589 C 0.75573 0.09263 0.15363 0.0
C590 C 0.69396 0.14706 0.18638 0.0
O591 O 0.74588 0.10526 0.22581 0.0
O592 O 0.75236 0.13758 0.20524 0.0
O593 O 0.71314 0.14657 0.17351 0.0
O594 O 0.69104 0.12864 0.1998 0.0
C595 C 0.69377 0.07257 0.19421 0.0
O596 O 0.73798 0.10678 0.14925 0.0
O597 O 0.75863 0.08734 0.17591 0.0
In598 In 0.63305 0.98354 0.95078 0.0
O599 O 0.66194 0.95387 0.95759 0.0
O600 O 0.64569 0.95714 0.92222 0.0
C601 C 0.62719 0.00923 0.9921 0.0
C602 C 0.65159 0.01723 0.9201 0.0
C603 C 0.59173 0.95707 0.95504 0.0
O604 O 0.64393 0.99338 0.98989 0.0
O605 O 0.61428 0.01249 0.97324 0.0
O606 O 0.59257 0.97593 0.94156 0.0
O607 O 0.6114 0.95204 0.9659 0.0
C608 C 0.66017 0.9456 0.936 0.0
O609 O 0.63106 0.00714 0.91635 0.0
O610 O 0.66231 0.01064 0.93949 0.0
In611 In 0.87549 0.01541 0.44374 0.0
O612 O 0.84831 0.04702 0.44681 0.0
O613 O 0.86754 0.04148 0.41319 0.0
C614 C 0.8797 0.9925 0.48693 0.0
C615 C 0.85435 0.98143 0.41536 0.0
C616 C 0.91697 0.0413 0.44716 0.0
O617 O 0.8635 0.00863 0.48322 0.0
O618 O 0.89269 0.98741 0.46858 0.0
O619 O 0.91584 0.02249 0.4336 0.0
O620 O 0.8977 0.0462 0.45875 0.0
C621 C 0.85273 0.05447 0.42526 0.0
O622 O 0.87717 0.98542 0.41449 0.0
O623 O 0.84271 0.99417 0.43068 0.0
H624 H 0.08133 0.20549 0.46987 0.0
H625 H 0.1339 0.16686 0.51419 0.0
H626 H 0.1673 0.18783 0.49327 0.0
H627 H 0.18159 0.21796 0.46321 0.0
H628 H 0.12917 0.25703 0.41914 0.0
H629 H 0.09573 0.23499 0.43903 0.0
C630 C 0.1001 0.20161 0.47489 0.0
C631 C 0.10511 0.18468 0.49362 0.0
C632 C 0.11925 0.21382 0.46283 0.0
C633 C 0.12953 0.17983 0.49988 0.0
C634 C 0.14865 0.19182 0.48792 0.0
C635 C 0.16285 0.22156 0.45786 0.0
C636 C 0.15788 0.23914 0.43974 0.0
C637 C 0.14373 0.20896 0.46949 0.0
C638 C 0.1335 0.2436 0.43304 0.0
C639 C 0.11436 0.23103 0.44443 0.0
H640 H 0.06028 0.83158 0.70313 0.0
H641 H 0.10016 0.88492 0.74538 0.0
H642 H 0.07734 0.91792 0.7257 0.0
H643 H 0.04443 0.93146 0.6981 0.0
H644 H 0.00485 0.87796 0.65573 0.0
H645 H 0.02919 0.84523 0.6738 0.0
C646 C 0.06414 0.85044 0.70787 0.0
C647 C 0.0818 0.85577 0.72578 0.0
C648 C 0.05088 0.86929 0.69657 0.0
C649 C 0.08665 0.88031 0.73165 0.0
C650 C 0.07354 0.89919 0.72047 0.0
C651 C 0.04123 0.91265 0.69274 0.0
C652 C 0.02274 0.90714 0.67573 0.0
C653 C 0.05535 0.89388 0.70318 0.0
C654 C 0.01893 0.88269 0.66883 0.0
C655 C 0.03282 0.86395 0.67918 0.0
H656 H 0.42454 0.80936 0.96296 0.0
H657 H 0.368 0.83763 0.00997 0.0
H658 H 0.33684 0.8176 0.98497 0.0
H659 H 0.32579 0.79044 0.95092 0.0
H660 H 0.38214 0.76303 0.90319 0.0
H661 H 0.41321 0.78447 0.92717 0.0
C662 C 0.40538 0.81124 0.96764 0.0
C663 C 0.3986 0.82481 0.9884 0.0
C664 C 0.38754 0.7998 0.95308 0.0
C665 C 0.3737 0.82727 0.9941 0.0
C666 C 0.35587 0.81577 0.97985 0.0
C667 C 0.34486 0.78929 0.94567 0.0
C668 C 0.35167 0.77502 0.9254 0.0
C669 C 0.3626 0.80175 0.95948 0.0
C670 C 0.37642 0.77389 0.91871 0.0
C671 C 0.39421 0.78607 0.93247 0.0
H672 H 0.43612 0.17327 0.20623 0.0
H673 H 0.39871 0.1166 0.2464 0.0
H674 H 0.42214 0.0854 0.22471 0.0
H675 H 0.45477 0.07436 0.19589 0.0
H676 H 0.4921 0.13112 0.15575 0.0
H677 H 0.46714 0.16215 0.17585 0.0
C678 C 0.43295 0.15408 0.2101 0.0
C679 C 0.4158 0.14726 0.22798 0.0
C680 C 0.44657 0.13627 0.19767 0.0
C681 C 0.41182 0.12233 0.23273 0.0
C682 C 0.42527 0.10448 0.22039 0.0
C683 C 0.45735 0.09352 0.19146 0.0
C684 C 0.47536 0.10045 0.17449 0.0
C685 C 0.44294 0.11126 0.20309 0.0
C686 C 0.47839 0.12532 0.1688 0.0
C687 C 0.46415 0.14307 0.1803 0.0
H688 H 0.17881 0.79011 0.05212 0.0
H689 H 0.1206 0.74736 0.08383 0.0
H690 H 0.09032 0.77284 0.06311 0.0
H691 H 0.08042 0.80619 0.03471 0.0
H692 H 0.13856 0.84903 0.00299 0.0
H693 H 0.16881 0.82475 0.02518 0.0
C694 C 0.15949 0.78642 0.05456 0.0
C695 C 0.15197 0.76676 0.06938 0.0
C696 C 0.14217 0.80118 0.04262 0.0
C697 C 0.12688 0.76232 0.07248 0.0
C698 C 0.10955 0.77689 0.06063 0.0
C699 C 0.09971 0.81036 0.0328 0.0
C700 C 0.10723 0.82936 0.01715 0.0
C701 C 0.11699 0.79622 0.04549 0.0
C702 C 0.13228 0.83453 0.01492 0.0
C703 C 0.14959 0.82059 0.02754 0.0
H704 H 0.45292 0.92689 0.29985 0.0
H705 H 0.47788 0.87527 0.35397 0.0
H706 H 0.45407 0.84283 0.33434 0.0
H707 H 0.42763 0.82879 0.30057 0.0
H708 H 0.40156 0.88098 0.2475 0.0
H709 H 0.42425 0.91356 0.26798 0.0
C710 C 0.45304 0.90856 0.30744 0.0
C711 C 0.46729 0.90343 0.32822 0.0
C712 C 0.43917 0.8901 0.29618 0.0
C713 C 0.46705 0.87968 0.33799 0.0
C714 C 0.45351 0.86111 0.32672 0.0
C715 C 0.42684 0.84733 0.29359 0.0
C716 C 0.4131 0.85244 0.27244 0.0
C717 C 0.43975 0.86605 0.30562 0.0
C718 C 0.41202 0.87657 0.26373 0.0
C719 C 0.42504 0.8952 0.27539 0.0
H720 H 0.31365 0.20357 0.55557 0.0
H721 H 0.36856 0.24876 0.58974 0.0
H722 H 0.40059 0.22711 0.56748 0.0
H723 H 0.41283 0.19661 0.53696 0.0
H724 H 0.35793 0.15161 0.50253 0.0
H725 H 0.32606 0.17185 0.52634 0.0
C726 C 0.33264 0.20858 0.55825 0.0
C727 C 0.33872 0.22782 0.57418 0.0
C728 C 0.35095 0.19614 0.5453 0.0
C729 C 0.3634 0.23405 0.57753 0.0
C730 C 0.38173 0.22171 0.56479 0.0
C731 C 0.3939 0.19113 0.53477 0.0
C732 C 0.38773 0.17272 0.51793 0.0
C733 C 0.37568 0.20292 0.54842 0.0
C734 C 0.36315 0.16576 0.51536 0.0
C735 C 0.34491 0.17735 0.52893 0.0
H736 H 0.07204 0.13202 0.75182 0.0
H737 H 0.0427 0.19076 0.79539 0.0
H738 H 0.01947 0.16143 0.81977 0.0
H739 H 0.00614 0.1192 0.82765 0.0
H740 H 0.03467 0.06062 0.78333 0.0
H741 H 0.05962 0.08971 0.76044 0.0
C742 C 0.06069 0.13838 0.76675 0.0
C743 C 0.05906 0.16353 0.77174 0.0
C744 C 0.04717 0.12143 0.78054 0.0
C745 C 0.04423 0.17149 0.79112 0.0
C746 C 0.03092 0.15473 0.80508 0.0
C747 C 0.01796 0.1128 0.8131 0.0
C748 C 0.01852 0.0878 0.80718 0.0
C749 C 0.03205 0.12968 0.7998 0.0
C750 C 0.03387 0.07978 0.78823 0.0
C751 C 0.04813 0.09641 0.7751 0.0
H752 H 0.20542 0.44492 0.1744 0.0
H753 H 0.24398 0.40136 0.12127 0.0
H754 H 0.2244 0.42403 0.08808 0.0
H755 H 0.19734 0.45722 0.07417 0.0
H756 H 0.15889 0.50068 0.12749 0.0
H757 H 0.17742 0.47709 0.16054 0.0
C758 C 0.20942 0.44027 0.15556 0.0
C759 C 0.22616 0.4215 0.15033 0.0
C760 C 0.19821 0.45347 0.13658 0.0
C761 C 0.23114 0.41571 0.12581 0.0
C762 C 0.22001 0.42871 0.10681 0.0
C763 C 0.193 0.46149 0.09302 0.0
C764 C 0.17685 0.48076 0.09835 0.0
C765 C 0.2037 0.4478 0.11198 0.0
C766 C 0.1713 0.48598 0.12287 0.0
C767 C 0.18189 0.4725 0.1418 0.0
H768 H 0.69561 0.07503 0.83055 0.0
H769 H 0.74809 0.09616 0.8855 0.0
H770 H 0.72491 0.07388 0.91655 0.0
H771 H 0.6912 0.0462 0.9275 0.0
H772 H 0.63819 0.0258 0.8728 0.0
H773 H 0.65997 0.05015 0.84227 0.0
C774 C 0.70185 0.07493 0.84937 0.0
C775 C 0.72365 0.08706 0.85568 0.0
C776 C 0.68838 0.06214 0.86713 0.0
C777 C 0.73139 0.08696 0.88016 0.0
C778 C 0.71819 0.07415 0.89791 0.0
C779 C 0.6843 0.04726 0.90894 0.0
C780 C 0.66322 0.03405 0.90236 0.0
C781 C 0.69689 0.06134 0.89152 0.0
C782 C 0.65437 0.03579 0.87832 0.0
C783 C 0.66688 0.04963 0.86084 0.0
H784 H 0.81057 0.89882 0.34692 0.0
H785 H 0.75157 0.95092 0.34412 0.0
H786 H 0.77359 0.97803 0.37184 0.0
H787 H 0.80947 0.98713 0.39673 0.0
H788 H 0.87086 0.93794 0.3967 0.0
H789 H 0.84831 0.90951 0.37016 0.0
C790 C 0.80266 0.91611 0.35249 0.0
C791 C 0.77948 0.92289 0.34372 0.0
C792 C 0.81587 0.93209 0.36782 0.0
C793 C 0.76944 0.94543 0.35066 0.0
C794 C 0.78198 0.9609 0.36652 0.0
C795 C 0.81788 0.97014 0.39093 0.0
C796 C 0.84159 0.96441 0.39879 0.0
C797 C 0.80517 0.95444 0.37518 0.0
C798 C 0.85255 0.94263 0.39083 0.0
C799 C 0.83965 0.9264 0.37574 0.0
H800 H 0.80226 0.04192 0.06133 0.0
H801 H 0.85568 0.02027 0.11514 0.0
H802 H 0.83448 0.04429 0.14625 0.0
H803 H 0.79906 0.06902 0.15879 0.0
H804 H 0.74619 0.09141 0.10473 0.0
H805 H 0.76894 0.06965 0.07306 0.0
C806 C 0.8094 0.04267 0.07981 0.0
C807 C 0.83039 0.02917 0.08597 0.0
C808 C 0.79713 0.05653 0.09758 0.0
C809 C 0.83955 0.03048 0.10993 0.0
C810 C 0.82737 0.04413 0.12775 0.0
C811 C 0.79265 0.0693 0.14002 0.0
C812 C 0.77086 0.08161 0.13414 0.0
C813 C 0.80588 0.05684 0.12189 0.0
C814 C 0.7629 0.08204 0.10973 0.0
C815 C 0.77585 0.06954 0.09163 0.0
H816 H 0.28984 0.55656 0.66632 0.0
H817 H 0.24373 0.59355 0.61409 0.0
H818 H 0.26155 0.56961 0.58094 0.0
H819 H 0.28856 0.53658 0.56706 0.0
H820 H 0.33466 0.49947 0.61919 0.0
H821 H 0.31861 0.5251 0.65205 0.0
C822 C 0.28386 0.55954 0.64765 0.0
C823 C 0.2654 0.57674 0.64271 0.0
C824 C 0.29409 0.54559 0.62867 0.0
C825 C 0.25789 0.58042 0.61841 0.0
C826 C 0.26802 0.56668 0.59944 0.0
C827 C 0.29522 0.53421 0.58559 0.0
C828 C 0.31266 0.51604 0.5907 0.0
C829 C 0.28587 0.54896 0.6044 0.0
C830 C 0.3212 0.51329 0.61477 0.0
C831 C 0.312 0.52791 0.63359 0.0
H832 H 0.23639 0.5859 0.37653 0.0
H833 H 0.19882 0.54755 0.31875 0.0
H834 H 0.17676 0.52309 0.34886 0.0
H835 H 0.17002 0.51076 0.39156 0.0
H836 H 0.20834 0.5484 0.44931 0.0
H837 H 0.22807 0.57497 0.41935 0.0
C838 C 0.22317 0.57239 0.37055 0.0
C839 C 0.21933 0.56851 0.34543 0.0
C840 C 0.21077 0.55811 0.38798 0.0
C841 C 0.20218 0.55087 0.33798 0.0
C842 C 0.18958 0.53682 0.35519 0.0
C843 C 0.18253 0.52491 0.39759 0.0
C844 C 0.18779 0.5275 0.42262 0.0
C845 C 0.19402 0.53999 0.38023 0.0
C846 C 0.20403 0.54595 0.43014 0.0
C847 C 0.21535 0.56116 0.41301 0.0
H848 H 0.30538 0.45326 0.9269 0.0
H849 H 0.36023 0.47457 0.87442 0.0
H850 H 0.33751 0.45402 0.84194 0.0
H851 H 0.30069 0.43232 0.82793 0.0
H852 H 0.2464 0.40992 0.88049 0.0
H853 H 0.27026 0.4285 0.91344 0.0
C854 C 0.31249 0.45315 0.9084 0.0
C855 C 0.33438 0.46556 0.90306 0.0
C856 C 0.29933 0.44128 0.88979 0.0
C857 C 0.34344 0.46514 0.87903 0.0
C858 C 0.33039 0.4535 0.86041 0.0
C859 C 0.29417 0.4314 0.84663 0.0
C860 C 0.27171 0.42 0.85175 0.0
C861 C 0.3081 0.4419 0.86549 0.0
C862 C 0.26362 0.41865 0.87608 0.0
C863 C 0.27723 0.42931 0.89492 0.0
H864 H 0.57871 0.68063 0.95491 0.0
H865 H 0.63696 0.65323 0.00044 0.0
H866 H 0.66699 0.67502 0.9755 0.0
H867 H 0.6764 0.70388 0.94227 0.0
H868 H 0.61824 0.73053 0.89619 0.0
H869 H 0.58847 0.70689 0.91972 0.0
C870 C 0.598 0.67928 0.95925 0.0
C871 C 0.60559 0.66551 0.97962 0.0
C872 C 0.61515 0.6918 0.94479 0.0
C873 C 0.63065 0.66373 0.98488 0.0
C874 C 0.64782 0.67626 0.97068 0.0
C875 C 0.65723 0.70436 0.93727 0.0
C876 C 0.6495 0.7191 0.91765 0.0
C877 C 0.64024 0.69065 0.95083 0.0
C878 C 0.62465 0.71936 0.91123 0.0
C879 C 0.60761 0.7059 0.92473 0.0
H880 H 0.54494 0.34866 0.25414 0.0
H881 H 0.6042 0.34529 0.20252 0.0
H882 H 0.58371 0.37566 0.17653 0.0
H883 H 0.54806 0.40267 0.16829 0.0
H884 H 0.4915 0.40881 0.22269 0.0
H885 H 0.51164 0.37789 0.24785 0.0
C886 C 0.55337 0.35469 0.23723 0.0
C887 C 0.57584 0.34472 0.23004 0.0
C888 C 0.54188 0.37258 0.2229 0.0
C889 C 0.58686 0.35284 0.20834 0.0
C890 C 0.57512 0.37009 0.19348 0.0
C891 C 0.54031 0.39718 0.18568 0.0
C892 C 0.51832 0.40772 0.19365 0.0
C893 C 0.5525 0.37999 0.2005 0.0
C894 C 0.50847 0.40087 0.21632 0.0
C895 C 0.51993 0.38319 0.23065 0.0
H896 H 0.93955 0.31262 0.44496 0.0
H897 H 0.88186 0.33892 0.49175 0.0
H898 H 0.85139 0.31926 0.46574 0.0
H899 H 0.8412 0.29299 0.43088 0.0
H900 H 0.89847 0.2673 0.38331 0.0
H901 H 0.92901 0.28849 0.40828 0.0
C902 C 0.9203 0.31414 0.44936 0.0
C903 C 0.913 0.32706 0.47038 0.0
C904 C 0.9028 0.30289 0.4342 0.0
C905 C 0.88798 0.32905 0.47573 0.0
C906 C 0.87053 0.31778 0.46088 0.0
C907 C 0.86035 0.29217 0.42587 0.0
C908 C 0.86758 0.27846 0.40537 0.0
C909 C 0.87775 0.30441 0.44025 0.0
C910 C 0.89244 0.27774 0.399 0.0
C911 C 0.90991 0.28977 0.41333 0.0
H912 H 0.91047 0.63097 0.73044 0.0
H913 H 0.95212 0.69064 0.70002 0.0
H914 H 0.97679 0.66185 0.67653 0.0
H915 H 0.98819 0.61962 0.66658 0.0
H916 H 0.94818 0.5598 0.69883 0.0
H917 H 0.92114 0.58867 0.71952 0.0
C918 C 0.92478 0.63765 0.71846 0.0
C919 C 0.92949 0.66287 0.71697 0.0
C920 C 0.93926 0.62095 0.70542 0.0
C921 C 0.9482 0.67129 0.70152 0.0
C922 C 0.96232 0.65484 0.6881 0.0
C923 C 0.97338 0.61292 0.67792 0.0
C924 C 0.97018 0.58764 0.68119 0.0
C925 C 0.95827 0.62962 0.69019 0.0
C926 C 0.95104 0.5792 0.69609 0.0
C927 C 0.93559 0.5957 0.70794 0.0
H928 H 0.61706 0.34568 0.53013 0.0
H929 H 0.55563 0.30209 0.55343 0.0
H930 H 0.58258 0.27691 0.57859 0.0
H931 H 0.62404 0.2654 0.59167 0.0
H932 H 0.68571 0.30757 0.56645 0.0
H933 H 0.65833 0.33518 0.54453 0.0
C934 C 0.60955 0.33088 0.54099 0.0
C935 C 0.58439 0.32576 0.53991 0.0
C936 C 0.62526 0.31608 0.55496 0.0
C937 C 0.57495 0.30637 0.5539 0.0
C938 C 0.59036 0.29193 0.56827 0.0
C939 C 0.63144 0.28081 0.58161 0.0
C940 C 0.65686 0.2844 0.58065 0.0
C941 C 0.61561 0.29633 0.56859 0.0
C942 C 0.6662 0.30435 0.5674 0.0
C943 C 0.65056 0.32015 0.55484 0.0
H944 H 0.95884 0.31756 0.78753 0.0
H945 H 0.91445 0.37074 0.74986 0.0
H946 H 0.93347 0.40362 0.77335 0.0
H947 H 0.96403 0.41749 0.8033 0.0
H948 H 0.00815 0.36434 0.8413 0.0
H949 H 0.98785 0.33127 0.81911 0.0
C950 C 0.95322 0.33633 0.78458 0.0
C951 C 0.93533 0.34168 0.76686 0.0
C952 C 0.96424 0.35518 0.79817 0.0
C953 C 0.92818 0.3661 0.76335 0.0
C954 C 0.93909 0.38494 0.77675 0.0
C955 C 0.96909 0.39866 0.80683 0.0
C956 C 0.98767 0.39341 0.82385 0.0
C957 C 0.95734 0.37973 0.794 0.0
C958 C 0.99393 0.3689 0.8283 0.0
C959 C 0.98236 0.34997 0.81557 0.0
H960 H 0.86933 0.7265 0.08572 0.0
H961 H 0.80727 0.69698 0.04706 0.0
H962 H 0.83415 0.67028 0.02354 0.0
H963 H 0.87552 0.65713 0.01212 0.0
H964 H 0.93781 0.68887 0.04853 0.0
H965 H 0.91073 0.71268 0.07487 0.0
C966 C 0.86172 0.71404 0.0723 0.0
C967 C 0.83639 0.71372 0.0681 0.0
C968 C 0.87736 0.69917 0.05839 0.0
C969 C 0.82675 0.69764 0.05054 0.0
C970 C 0.8421 0.68235 0.03709 0.0
C971 C 0.88312 0.66901 0.02606 0.0
C972 C 0.90858 0.67122 0.02845 0.0
C973 C 0.86746 0.6832 0.04061 0.0
C974 C 0.91824 0.68691 0.04635 0.0
C975 C 0.90277 0.70055 0.06138 0.0
H976 H 0.53615 0.56873 0.31068 0.0
H977 H 0.49678 0.62599 0.34785 0.0
H978 H 0.52235 0.65681 0.32803 0.0
H979 H 0.55423 0.66756 0.29831 0.0
H980 H 0.59357 0.61033 0.26107 0.0
H981 H 0.56981 0.57942 0.28292 0.0
C982 C 0.53328 0.58795 0.31457 0.0
C983 C 0.51448 0.59508 0.33057 0.0
C984 C 0.54801 0.60557 0.30307 0.0
C985 C 0.51109 0.62003 0.33556 0.0
C986 C 0.52567 0.63767 0.3242 0.0
C987 C 0.55776 0.64832 0.29514 0.0
C988 C 0.57553 0.64124 0.27798 0.0
C989 C 0.54394 0.63066 0.30765 0.0
C990 C 0.57997 0.61625 0.27416 0.0
C991 C 0.56634 0.59857 0.28659 0.0
H992 H 0.69973 0.94965 0.67373 0.0
H993 H 0.73588 0.91075 0.61549 0.0
H994 H 0.71183 0.93313 0.58524 0.0
H995 H 0.68229 0.96542 0.57524 0.0
H996 H 0.64604 0.00432 0.63339 0.0
H997 H 0.66824 0.98016 0.66374 0.0
C998 C 0.70221 0.94594 0.65442 0.0
C999 C 0.71969 0.92867 0.64687 0.0
C1000 C 0.68836 0.95893 0.6371 0.0
C1001 C 0.72258 0.92398 0.6218 0.0
C1002 C 0.70888 0.93681 0.60447 0.0
C1003 C 0.6791 0.96848 0.59456 0.0
C1004 C 0.66265 0.98675 0.60204 0.0
C1005 C 0.69198 0.95458 0.6119 0.0
C1006 C 0.65862 0.9904 0.62714 0.0
C1007 C 0.67136 0.97663 0.64451 0.0
H1008 H 0.2393 0.38902 0.29216 0.0
H1009 H 0.21101 0.33226 0.24531 0.0
H1010 H 0.19695 0.30935 0.28093 0.0
H1011 H 0.19696 0.30319 0.32562 0.0
H1012 H 0.22597 0.3598 0.37226 0.0
H1013 H 0.23511 0.38501 0.33667 0.0
C1014 C 0.22967 0.37185 0.28974 0.0
C1015 C 0.22644 0.36228 0.26613 0.0
C1016 C 0.2219 0.35858 0.31035 0.0
C1017 C 0.21385 0.34003 0.2633 0.0
C1018 C 0.20587 0.32683 0.28368 0.0
C1019 C 0.20482 0.32124 0.32799 0.0
C1020 C 0.211 0.32946 0.35155 0.0
C1021 C 0.21041 0.33558 0.30734 0.0
C1022 C 0.2212 0.35292 0.35431 0.0
C1023 C 0.22651 0.36736 0.33395 0.0
H1024 H 0.91434 0.95907 0.49831 0.0
H1025 H 0.8591 0.00502 0.53067 0.0
H1026 H 0.87464 0.99526 0.57144 0.0
H1027 H 0.90701 0.97793 0.59723 0.0
H1028 H 0.96321 0.93331 0.56468 0.0
H1029 H 0.94404 0.93811 0.52457 0.0
C1030 C 0.9054 0.96661 0.5143 0.0
C1031 C 0.88576 0.98297 0.51148 0.0
C1032 C 0.91478 0.96137 0.53759 0.0
C1033 C 0.87429 0.99246 0.53236 0.0
C1034 C 0.88326 0.98699 0.55566 0.0
C1035 C 0.91488 0.96896 0.58141 0.0
C1036 C 0.93668 0.95555 0.58382 0.0
C1037 C 0.90399 0.97215 0.5584 0.0
C1038 C 0.94652 0.94383 0.56325 0.0
C1039 C 0.93561 0.94665 0.54031 0.0
H1040 H 0.28154 0.66033 0.84338 0.0
H1041 H 0.31249 0.71957 0.80159 0.0
H1042 H 0.30392 0.69738 0.76355 0.0
H1043 H 0.28357 0.66308 0.74238 0.0
H1044 H 0.25257 0.60415 0.78478 0.0
H1045 H 0.26558 0.62414 0.82248 0.0
C1046 C 0.28664 0.66828 0.82593 0.0
C1047 C 0.29727 0.69167 0.82516 0.0
C1048 C 0.28159 0.6555 0.80432 0.0
C1049 C 0.30421 0.7016 0.80256 0.0
C1050 C 0.29921 0.68897 0.78086 0.0
C1051 C 0.28005 0.65441 0.75986 0.0
C1052 C 0.26688 0.63228 0.7608 0.0
C1053 C 0.28732 0.66618 0.78152 0.0
C1054 C 0.26257 0.6212 0.78355 0.0
C1055 C 0.2699 0.63268 0.80513 0.0
H1056 H 0.594 0.04509 -0.00015 0.0
H1057 H 0.64538 0.99845 0.03731 0.0
H1058 H 0.62849 0.01104 0.07668 0.0
H1059 H 0.59543 0.03058 0.09974 0.0
H1060 H 0.54324 0.07628 0.06229 0.0
H1061 H 0.5644 0.06909 0.02356 0.0
C1062 C 0.60181 0.03804 0.01665 0.0
C1063 C 0.62066 0.02057 0.01569 0.0
C1064 C 0.59171 0.04502 0.03915 0.0
C1065 C 0.63079 0.0118 0.03758 0.0
C1066 C 0.62105 0.0189 0.06008 0.0
C1067 C 0.58894 0.03931 0.08316 0.0
C1068 C 0.5676 0.05362 0.08373 0.0
C1069 C 0.60093 0.03476 0.06099 0.0
C1070 C 0.55957 0.06511 0.06224 0.0
C1071 C 0.57158 0.06088 0.0401 0.0
H1072 H 0.18624 0.69168 0.18396 0.0
H1073 H 0.21726 0.64018 0.13314 0.0
H1074 H 0.22782 0.61273 0.1667 0.0
H1075 H 0.23368 0.60624 0.21064 0.0
H1076 H 0.20553 0.65912 0.26179 0.0
H1077 H 0.18826 0.68293 0.22819 0.0
C1078 C 0.19464 0.67411 0.18028 0.0
C1079 C 0.201 0.6679 0.15623 0.0
C1080 C 0.20158 0.65883 0.1998 0.0
C1081 C 0.21225 0.6453 0.15161 0.0
C1082 C 0.21842 0.62966 0.17078 0.0
C1083 C 0.22334 0.62271 0.21445 0.0
C1084 C 0.22112 0.63102 0.23862 0.0
C1085 C 0.21404 0.63667 0.195 0.0
C1086 C 0.20768 0.65242 0.24329 0.0
C1087 C 0.19783 0.66609 0.22408 0.0
H1088 H 0.62171 0.00827 0.46694 0.0
H1089 H 0.5741 0.97499 0.52019 0.0
H1090 H 0.54878 0.95802 0.48749 0.0
H1091 H 0.5382 0.95555 0.44355 0.0
H1092 H 0.58505 0.99101 0.39093 0.0
H1093 H 0.61251 0.00404 0.4234 0.0
C1094 C 0.60603 0.99697 0.47137 0.0
C1095 C 0.59978 0.99294 0.4959 0.0
C1096 C 0.59118 0.98785 0.45252 0.0
C1097 C 0.57927 0.97841 0.50138 0.0
C1098 C 0.56472 0.96876 0.4827 0.0
C1099 C 0.55455 0.96591 0.43926 0.0
C1100 C 0.55944 0.9725 0.41493 0.0
C1101 C 0.57017 0.97382 0.45817 0.0
C1102 C 0.58069 0.98596 0.40958 0.0
C1103 C 0.59648 0.99339 0.42812 0.0
H1104 H 0.28061 0.34621 0.65046 0.0
H1105 H 0.30819 0.28443 0.69095 0.0
H1106 H 0.30124 0.30618 0.72936 0.0
H1107 H 0.28204 0.34039 0.75134 0.0
H1108 H 0.25362 0.40169 0.71064 0.0
H1109 H 0.26645 0.38262 0.67241 0.0
C1110 C 0.28556 0.33769 0.66767 0.0
C1111 C 0.29461 0.31363 0.6679 0.0
C1112 C 0.2811 0.35012 0.68965 0.0
C1113 C 0.30114 0.3029 0.6903 0.0
C1114 C 0.29701 0.31528 0.71227 0.0
C1115 C 0.27907 0.34978 0.73413 0.0
C1116 C 0.26659 0.37226 0.73379 0.0
C1117 C 0.28618 0.33853 0.71218 0.0
C1118 C 0.26305 0.38431 0.71139 0.0
C1119 C 0.27029 0.37336 0.6895 0.0
H1120 H 0.90406 0.03547 0.98869 0.0
H1121 H 0.84688 0.99605 0.95123 0.0
H1122 H 0.8642 0.008 0.91184 0.0
H1123 H 0.89843 0.02497 0.88841 0.0
H1124 H 0.9562 0.06361 0.92567 0.0
H1125 H 0.93561 0.05694 0.96485 0.0
C1126 C 0.89514 0.02985 0.9719 0.0
C1127 C 0.87441 0.0146 0.97286 0.0
C1128 C 0.90543 0.03646 0.94934 0.0
C1129 C 0.86291 0.00768 0.95098 0.0
C1130 C 0.87288 0.0144 0.92845 0.0
C1131 C 0.90633 0.03227 0.90508 0.0
C1132 C 0.92897 0.04445 0.90426 0.0
C1133 C 0.89458 0.02806 0.92746 0.0
C1134 C 0.93884 0.0541 0.92588 0.0
C1135 C 0.92713 0.05016 0.94828 0.0
H1136 H 0.34984 0.21423 0.35201 0.0
H1137 H 0.30132 0.18253 0.2986 0.0
H1138 H 0.26598 0.19418 0.32348 0.0
H1139 H 0.24911 0.21866 0.35737 0.0
H1140 H 0.29804 0.25044 0.41048 0.0
H1141 H 0.33306 0.23324 0.38891 0.0
C1142 C 0.33152 0.20941 0.3461 0.0
C1143 C 0.32807 0.19784 0.32342 0.0
C1144 C 0.31142 0.21645 0.36029 0.0
C1145 C 0.30437 0.19141 0.31603 0.0
C1146 C 0.28419 0.19827 0.33014 0.0
C1147 C 0.26742 0.22144 0.36445 0.0
C1148 C 0.27104 0.23613 0.38526 0.0
C1149 C 0.2875 0.21162 0.35183 0.0
C1150 C 0.2948 0.23934 0.39442 0.0
C1151 C 0.31484 0.22958 0.38204 0.0
H1152 H 0.0355 0.00518 0.59875 0.0
H1153 H 0.00497 0.04556 0.65914 0.0
H1154 H 0.02108 0.08362 0.64212 0.0
H1155 H 0.03911 0.10578 0.60748 0.0
H1156 H 0.06871 0.06552 0.54655 0.0
H1157 H 0.05813 0.02699 0.56661 0.0
C1158 C 0.03272 0.02226 0.6084 0.0
C1159 C 0.01877 0.0226 0.63 0.0
C1160 C 0.04178 0.04409 0.59834 0.0
C1161 C 0.01553 0.04482 0.64242 0.0
C1162 C 0.02466 0.06661 0.63264 0.0
C1163 C 0.04372 0.08857 0.59881 0.0
C1164 C 0.05443 0.0885 0.57543 0.0
C1165 C 0.03712 0.06653 0.61023 0.0
C1166 C 0.06042 0.06607 0.56451 0.0
C1167 C 0.05421 0.04403 0.5759 0.0
H1168 H 0.15592 0.78653 0.84282 0.0
H1169 H 0.19776 0.8191 0.78446 0.0
H1170 H 0.23567 0.81047 0.80664 0.0
H1171 H 0.25686 0.78914 0.84017 0.0
H1172 H 0.21471 0.75535 0.89767 0.0
H1173 H 0.17693 0.76927 0.8784 0.0
C1174 C 0.17332 0.79209 0.83511 0.0
C1175 C 0.17408 0.80318 0.8119 0.0
C1176 C 0.19496 0.78668 0.84774 0.0
C1177 C 0.19671 0.81049 0.80226 0.0
C1178 C 0.21838 0.80543 0.81489 0.0
C1179 C 0.23942 0.7852 0.84873 0.0
C1180 C 0.23858 0.771 0.8702 0.0
C1181 C 0.21774 0.79286 0.83728 0.0
C1182 C 0.21586 0.76614 0.8811 0.0
C1183 C 0.19424 0.774 0.87003 0.0
H1184 H 0.48346 0.96762 0.14385 0.0
H1185 H 0.46597 0.01608 0.08413 0.0
H1186 H 0.44713 0.98237 0.06181 0.0
H1187 H 0.44059 0.9381 0.05694 0.0
H1188 H 0.45987 0.88951 0.11596 0.0
H1189 H 0.47251 0.92419 0.14096 0.0
C1190 C 0.47514 0.97087 0.12615 0.0
C1191 C 0.4764 0.99422 0.11555 0.0
C1192 C 0.46471 0.9513 0.11318 0.0
C1193 C 0.46544 0.99819 0.09262 0.0
C1194 C 0.45468 0.97892 0.0798 0.0
C1195 C 0.44693 0.93522 0.07551 0.0
C1196 C 0.44947 0.91133 0.08453 0.0
C1197 C 0.4549 0.95523 0.08955 0.0
C1198 C 0.4579 0.90778 0.10856 0.0
C1199 C 0.46525 0.92758 0.12284 0.0
H1200 H 0.29329 0.80094 0.21154 0.0
H1201 H 0.3457 0.80896 0.15325 0.0
H1202 H 0.31544 0.79472 0.12366 0.0
H1203 H 0.27594 0.77433 0.11543 0.0
H1204 H 0.22392 0.76635 0.17416 0.0
H1205 H 0.25204 0.78624 0.20231 0.0
C1206 C 0.29789 0.80019 0.19227 0.0
C1207 C 0.32176 0.80575 0.18467 0.0
C1208 C 0.28056 0.79152 0.17543 0.0
C1209 C 0.32742 0.80478 0.15961 0.0
C1210 C 0.31019 0.79639 0.14269 0.0
C1211 C 0.27066 0.77731 0.1343 0.0
C1212 C 0.24805 0.7685 0.14275 0.0
C1213 C 0.28701 0.78878 0.15054 0.0
C1214 C 0.24131 0.77273 0.16719 0.0
C1215 C 0.2574 0.78411 0.18337 0.0
H1216 H 0.4501 0.00061 0.39707 0.0
H1217 H 0.49272 0.04144 0.34472 0.0
H1218 H 0.4788 0.07975 0.3629 0.0
H1219 H 0.45947 0.10117 0.39723 0.0
H1220 H 0.4174 0.06046 0.45004 0.0
H1221 H 0.42589 0.02253 0.42792 0.0
C1222 C 0.45594 0.01791 0.38932 0.0
C1223 C 0.47271 0.0182 0.36981 0.0
C1224 C 0.44819 0.03984 0.40012 0.0
C1225 C 0.47991 0.04072 0.35979 0.0
C1226 C 0.47208 0.06263 0.37028 0.0
C1227 C 0.45179 0.08404 0.40364 0.0
C1228 C 0.43816 0.0835 0.42542 0.0
C1229 C 0.45699 0.06236 0.39101 0.0
C1230 C 0.42803 0.06129 0.43337 0.0
C1231 C 0.433 0.0396 0.4208 0.0
H1232 H 0.17432 0.19252 0.69804 0.0
H1233 H 0.12388 0.21944 0.64382 0.0
H1234 H 0.15767 0.22852 0.61618 0.0
H1235 H 0.20157 0.23512 0.61033 0.0
H1236 H 0.25223 0.21089 0.66567 0.0
H1237 H 0.21856 0.19425 0.68976 0.0
C1238 C 0.17077 0.19963 0.67987 0.0
C1239 C 0.14677 0.20543 0.67296 0.0
C1240 C 0.19039 0.20574 0.66443 0.0
C1241 C 0.1423 0.21494 0.64951 0.0
C1242 C 0.16161 0.22027 0.63377 0.0
C1243 C 0.20527 0.22573 0.6274 0.0
C1244 C 0.22928 0.22456 0.63636 0.0
C1245 C 0.18577 0.21677 0.64147 0.0
C1246 C 0.23383 0.21225 0.65848 0.0
C1247 C 0.21458 0.20277 0.67231 0.0
H1248 H 0.03816 0.90034 0.89374 0.0
H1249 H 0.07202 0.94718 0.94735 0.0
H1250 H 0.05878 0.98329 0.92437 0.0
H1251 H 0.03298 0.00122 0.89201 0.0
H1252 H 0.99864 0.954 0.83896 0.0
H1253 H 0.01682 0.9183 0.85867 0.0
C1254 C 0.04305 0.91846 0.90015 0.0
C1255 C 0.0558 0.92115 0.92233 0.0
C1256 C 0.03502 0.93902 0.8871 0.0
C1257 C 0.06224 0.94467 0.93031 0.0
C1258 C 0.05448 0.9653 0.91728 0.0
C1259 C 0.02978 0.98314 0.88455 0.0
C1260 C 0.01419 0.98022 0.86425 0.0
C1261 C 0.04014 0.96267 0.89612 0.0
C1262 C 0.01042 0.95673 0.85463 0.0
C1263 C 0.02076 0.9363 0.86595 0.0
H1264 H 0.28383 0.30253 0.19663 0.0
H1265 H 0.34503 0.35228 0.197 0.0
H1266 H 0.3723 0.31913 0.20913 0.0
H1267 H 0.37753 0.27732 0.22535 0.0
H1268 H 0.31603 0.22788 0.22489 0.0
H1269 H 0.2903 0.25944 0.20699 0.0
C1270 C 0.30324 0.30598 0.19877 0.0
C1271 C 0.31231 0.32986 0.19622 0.0
C1272 C 0.31876 0.28693 0.20615 0.0
C1273 C 0.33754 0.33404 0.19891 0.0
C1274 C 0.35314 0.31513 0.20606 0.0
C1275 C 0.35862 0.27338 0.22093 0.0
C1276 C 0.34864 0.25043 0.22684 0.0
C1277 C 0.34378 0.2917 0.21067 0.0
C1278 C 0.32415 0.24547 0.22077 0.0
C1279 C 0.30935 0.26353 0.21055 0.0
H1280 H 0.84859 0.15025 0.78434 0.0
H1281 H 0.79686 0.19868 0.81868 0.0
H1282 H 0.82195 0.23395 0.80718 0.0
H1283 H 0.85573 0.25105 0.78274 0.0
H1284 H 0.90734 0.20242 0.74841 0.0
H1285 H 0.88531 0.16713 0.76479 0.0
C1286 C 0.84305 0.16851 0.78972 0.0
C1287 C 0.82077 0.17193 0.80208 0.0
C1288 C 0.85743 0.18863 0.78283 0.0
C1289 C 0.81393 0.1956 0.80916 0.0
C1290 C 0.82818 0.21577 0.80243 0.0
C1291 C 0.86239 0.23273 0.7792 0.0
C1292 C 0.88295 0.22933 0.7641 0.0
C1293 C 0.84953 0.21253 0.78854 0.0
C1294 C 0.89152 0.20552 0.75989 0.0
C1295 C 0.87886 0.18534 0.76915 0.0
H1296 H 0.00312 0.59778 0.03699 0.0
H1297 H 0.04152 0.64701 0.98875 0.0
H1298 H 0.08053 0.62961 0.00173 0.0
H1299 H 0.10301 0.59691 0.02253 0.0
H1300 H 0.06477 0.54708 0.07021 0.0
H1301 H 0.02636 0.56852 0.06206 0.0
C1302 C 0.02006 0.60497 0.02963 0.0
C1303 C 0.01945 0.62339 0.01166 0.0
C1304 C 0.04238 0.59468 0.03696 0.0
C1305 C 0.04152 0.63275 0.00249 0.0
C1306 C 0.06381 0.62274 0.00983 0.0
C1307 C 0.08633 0.59102 0.03149 0.0
C1308 C 0.08658 0.57027 0.04667 0.0
C1309 C 0.06436 0.60317 0.02641 0.0
C1310 C 0.06498 0.563 0.05842 0.0
C1311 C 0.04301 0.57514 0.05362 0.0
H1312 H 0.66755 0.73291 0.28501 0.0
H1313 H 0.60438 0.77587 0.26534 0.0
H1314 H 0.62486 0.81287 0.27944 0.0
H1315 H 0.66229 0.83348 0.29236 0.0
H1316 H 0.72594 0.7914 0.31175 0.0
H1317 H 0.70358 0.7534 0.30313 0.0
C1318 C 0.65812 0.75032 0.28422 0.0
C1319 C 0.6346 0.75171 0.27382 0.0
C1320 C 0.67015 0.77162 0.29212 0.0
C1321 C 0.62253 0.77433 0.2731 0.0
C1322 C 0.63426 0.79551 0.28108 0.0
C1323 C 0.67115 0.81595 0.29507 0.0
C1324 C 0.69576 0.8151 0.30232 0.0
C1325 C 0.65831 0.79444 0.28984 0.0
C1326 C 0.70698 0.79239 0.30616 0.0
C1327 C 0.69425 0.77074 0.30106 0.0
H1328 H 0.97304 0.86937 0.9986 0.0
H1329 H 0.02384 0.92163 0.02869 0.0
H1330 H 0.98991 0.94634 0.0439 0.0
H1331 H 0.94558 0.95516 0.045 0.0
H1332 H 0.89541 0.90343 0.01288 0.0
H1333 H 0.92916 0.87654 0.0023 0.0
C1334 C 0.97669 0.88594 0.00887 0.0
C1335 C 0.00088 0.8937 0.01241 0.0
C1336 C 0.95713 0.90036 0.017 0.0
C1337 C 0.00533 0.91528 0.02566 0.0
C1338 C 0.98594 0.92949 0.03428 0.0
C1339 C 0.94209 0.93784 0.03602 0.0
C1340 C 0.91808 0.93141 0.02955 0.0
C1341 C 0.96173 0.92255 0.0295 0.0
C1342 C 0.91378 0.90893 0.01784 0.0
C1343 C 0.93306 0.89349 0.01178 0.0
H1344 H 0.15346 0.6578 0.70085 0.0
H1345 H 0.21935 0.69684 0.68199 0.0
H1346 H 0.19974 0.73555 0.69255 0.0
H1347 H 0.166 0.75739 0.7125 0.0
H1348 H 0.10086 0.718 0.73315 0.0
H1349 H 0.11798 0.68035 0.71634 0.0
C1350 C 0.16336 0.67483 0.69853 0.0
C1351 C 0.18791 0.67444 0.69089 0.0
C1352 C 0.15221 0.69691 0.70529 0.0
C1353 C 0.20047 0.69665 0.68791 0.0
C1354 C 0.18931 0.71877 0.6941 0.0
C1355 C 0.15538 0.74065 0.71295 0.0
C1356 C 0.13232 0.74041 0.72433 0.0
C1357 C 0.16552 0.719 0.70367 0.0
C1358 C 0.11871 0.71863 0.72463 0.0
C1359 C 0.12852 0.69708 0.71509 0.0
H1360 H 0.04859 0.36194 0.49161 0.0
H1361 H 0.99896 0.41842 0.46798 0.0
H1362 H 0.03332 0.44365 0.45478 0.0
H1363 H 0.07762 0.45177 0.45463 0.0
H1364 H 0.12707 0.39591 0.48005 0.0
H1365 H 0.09282 0.36835 0.48748 0.0
C1366 C 0.0453 0.37957 0.48314 0.0
C1367 C 0.02129 0.38836 0.481 0.0
C1368 C 0.06518 0.39424 0.47606 0.0
C1369 C 0.0173 0.41127 0.46999 0.0
C1370 C 0.03695 0.42577 0.46249 0.0
C1371 C 0.08089 0.43338 0.46127 0.0
C1372 C 0.1048 0.42597 0.46696 0.0
C1373 C 0.06101 0.41777 0.46611 0.0
C1374 C 0.10879 0.40212 0.47569 0.0
C1375 C 0.0892 0.38635 0.48002 0.0
H1376 H 0.41274 0.58582 0.96703 0.0
H1377 H 0.45446 0.52268 0.94521 0.0
H1378 H 0.49247 0.54405 0.95562 0.0
H1379 H 0.51317 0.57902 0.97515 0.0
H1380 H 0.47091 0.64178 0.9973 0.0
H1381 H 0.43369 0.62228 0.98225 0.0
C1382 C 0.43019 0.57684 0.96426 0.0
C1383 C 0.43087 0.55263 0.95568 0.0
C1384 C 0.45178 0.58911 0.97048 0.0
C1385 C 0.45353 0.54131 0.95184 0.0
C1386 C 0.47522 0.55347 0.95791 0.0
C1387 C 0.49586 0.58857 0.97634 0.0
C1388 C 0.49473 0.61169 0.98758 0.0
C1389 C 0.47448 0.57713 0.96788 0.0
C1390 C 0.47223 0.62393 0.98884 0.0
C1391 C 0.45094 0.61276 0.98032 0.0
H1392 H 0.71238 0.83995 0.83875 0.0
H1393 H 0.68747 0.77919 0.79518 0.0
H1394 H 0.69621 0.80232 0.75773 0.0
H1395 H 0.71513 0.83815 0.73776 0.0
H1396 H 0.74005 0.8986 0.78193 0.0
H1397 H 0.7268 0.87734 0.81887 0.0
C1398 C 0.7086 0.83187 0.82104 0.0
C1399 C 0.69964 0.80782 0.81962 0.0
C1400 C 0.71378 0.84518 0.79977 0.0
C1401 C 0.69442 0.79768 0.79665 0.0
C1402 C 0.69954 0.81085 0.77529 0.0
C1403 C 0.7173 0.84683 0.75545 0.0
C1404 C 0.72883 0.86981 0.75714 0.0
C1405 C 0.70985 0.83437 0.77666 0.0
C1406 C 0.73135 0.8809 0.78014 0.0
C1407 C 0.72387 0.86871 0.80128 0.0
H1408 H 0.40433 0.47374 0.10489 0.0
H1409 H 0.45956 0.42966 0.07013 0.0
H1410 H 0.43939 0.43534 0.03054 0.0
H1411 H 0.40875 0.45675 0.0054 0.0
H1412 H 0.35393 0.50122 0.04044 0.0
H1413 H 0.37105 0.49116 0.08044 0.0
C1414 C 0.41179 0.4651 0.08869 0.0
C1415 C 0.43358 0.45157 0.09034 0.0
C1416 C 0.40022 0.46862 0.06607 0.0
C1417 C 0.44285 0.44021 0.0693 0.0
C1418 C 0.43138 0.44356 0.04666 0.0
C1419 C 0.40028 0.46389 0.02182 0.0
C1420 C 0.38024 0.47994 0.01993 0.0
C1421 C 0.41044 0.4583 0.04475 0.0
C1422 C 0.36938 0.4889 0.04137 0.0
C1423 C 0.37926 0.48327 0.06425 0.0
H1424 H 0.79881 0.16267 0.32448 0.0
H1425 H 0.81929 0.22441 0.27999 0.0
H1426 H 0.80532 0.20271 0.24325 0.0
H1427 H 0.78287 0.16802 0.22484 0.0
H1428 H 0.7625 0.10662 0.27008 0.0
H1429 H 0.78106 0.1263 0.30555 0.0
C1430 C 0.80055 0.17123 0.30667 0.0
C1431 C 0.80974 0.19517 0.30486 0.0
C1432 C 0.79231 0.15879 0.28587 0.0
C1433 C 0.81227 0.20597 0.28174 0.0
C1434 C 0.80411 0.19364 0.26082 0.0
C1435 C 0.78281 0.15881 0.2424 0.0
C1436 C 0.77103 0.13603 0.24492 0.0
C1437 C 0.79342 0.17033 0.26279 0.0
C1438 C 0.77131 0.1242 0.2677 0.0
C1439 C 0.78186 0.13547 0.288 0.0
H1440 H 0.09961 0.53287 0.61314 0.0
H1441 H 0.03973 0.5563 0.56755 0.0
H1442 H 0.06405 0.54792 0.53093 0.0
H1443 H 0.10036 0.52903 0.5122 0.0
H1444 H 0.15984 0.50509 0.55816 0.0
H1445 H 0.13772 0.51881 0.59439 0.0
C1446 C 0.09203 0.53653 0.59518 0.0
C1447 C 0.06783 0.54488 0.59297 0.0
C1448 C 0.10596 0.53135 0.57433 0.0
C1449 C 0.05831 0.54984 0.56967 0.0
C1450 C 0.07215 0.54488 0.54875 0.0
C1451 C 0.10863 0.52717 0.53012 0.0
C1452 C 0.13155 0.51575 0.53255 0.0
C1453 C 0.09569 0.53487 0.55089 0.0
C1454 C 0.14216 0.51368 0.55583 0.0
C1455 C 0.12949 0.52144 0.57655 0.0
H1456 H 0.692 0.21095 0.69477 0.0
H1457 H 0.70478 0.15112 0.64515 0.0
H1458 H 0.71594 0.12465 0.67927 0.0
H1459 H 0.72789 0.12035 0.7223 0.0
H1460 H 0.7171 0.18076 0.77175 0.0
H1461 H 0.69922 0.20497 0.73883 0.0
C1462 C 0.69654 0.19193 0.69156 0.0
C1463 C 0.69773 0.18303 0.66753 0.0
C1464 C 0.70375 0.17699 0.71123 0.0
C1465 C 0.70386 0.1584 0.66354 0.0
C1466 C 0.71039 0.14328 0.68302 0.0
C1467 C 0.72122 0.13865 0.72596 0.0
C1468 C 0.72413 0.14884 0.74933 0.0
C1469 C 0.71135 0.15267 0.70682 0.0
C1470 C 0.71528 0.17254 0.75383 0.0
C1471 C 0.70507 0.18645 0.735 0.0
H1472 H 0.045 0.44412 0.9434 0.0
H1473 H 0.1064 0.44121 0.89412 0.0
H1474 H 0.13375 0.45428 0.92689 0.0
H1475 H 0.13916 0.47205 0.96805 0.0
H1476 H 0.07746 0.47474 0.01705 0.0
H1477 H 0.0515 0.45614 0.98607 0.0
C1478 C 0.06445 0.44577 0.93999 0.0
C1479 C 0.07357 0.44197 0.91631 0.0
C1480 C 0.08004 0.45364 0.95882 0.0
C1481 C 0.09886 0.44406 0.9122 0.0
C1482 C 0.11452 0.45174 0.9309 0.0
C1483 C 0.12015 0.46815 0.97206 0.0
C1484 C 0.11021 0.47514 0.9947 0.0
C1485 C 0.10516 0.45747 0.95405 0.0
C1486 C 0.08557 0.46976 -0.00029 0.0
C1487 C 0.07064 0.45914 0.98197 0.0
H1488 H 0.78912 0.8344 0.25062 0.0
H1489 H 0.74538 0.88776 0.21237 0.0
H1490 H 0.75411 0.86747 0.1736 0.0
H1491 H 0.77016 0.83212 0.15144 0.0
H1492 H 0.81323 0.77812 0.1894 0.0
H1493 H 0.80887 0.80121 0.22755 0.0
C1494 C 0.78188 0.84186 0.23374 0.0
C1495 C 0.76642 0.86243 0.23438 0.0
C1496 C 0.78656 0.8298 0.21159 0.0
C1497 C 0.75725 0.87193 0.21237 0.0
C1498 C 0.76211 0.86025 0.19022 0.0
C1499 C 0.77875 0.82549 0.16804 0.0
C1500 C 0.79164 0.80326 0.16779 0.0
C1501 C 0.77606 0.83875 0.18976 0.0
C1502 C 0.80309 0.79511 0.18924 0.0
C1503 C 0.80055 0.80828 0.21102 0.0
H1504 H 0.38842 0.52636 0.49831 0.0
H1505 H 0.33079 0.49774 0.45267 0.0
H1506 H 0.35104 0.5142 0.41641 0.0
H1507 H 0.38765 0.53185 0.39745 0.0
H1508 H 0.44565 0.55999 0.44287 0.0
H1509 H 0.42251 0.549 0.47954 0.0
C1510 C 0.38009 0.52408 0.48046 0.0
C1511 C 0.35833 0.51054 0.47811 0.0
C1512 C 0.39197 0.53338 0.45969 0.0
C1513 C 0.34759 0.50797 0.45493 0.0
C1514 C 0.35922 0.51729 0.43419 0.0
C1515 C 0.39501 0.53601 0.41539 0.0
C1516 C 0.41844 0.54642 0.4175 0.0
C1517 C 0.38179 0.5293 0.4363 0.0
C1518 C 0.42767 0.55196 0.4408 0.0
C1519 C 0.41452 0.5455 0.46175 0.0
H1520 H 0.74565 0.71359 0.83262 0.0
H1521 H 0.78508 0.74974 0.89064 0.0
H1522 H 0.82374 0.74053 0.87045 0.0
H1523 H 0.8458 0.72654 0.83419 0.0
H1524 H 0.8068 0.69086 0.77569 0.0
H1525 H 0.76839 0.6954 0.79829 0.0
C1526 C 0.76273 0.71904 0.84108 0.0
C1527 C 0.76249 0.73257 0.86297 0.0
C1528 C 0.78488 0.71406 0.82913 0.0
C1529 C 0.78476 0.73941 0.87376 0.0
C1530 C 0.80686 0.73427 0.86216 0.0
C1531 C 0.82891 0.71955 0.82648 0.0
C1532 C 0.82897 0.70875 0.80317 0.0
C1533 C 0.80705 0.72234 0.83948 0.0
C1534 C 0.80711 0.69936 0.79357 0.0
C1535 C 0.78519 0.70203 0.80645 0.0
H1536 H 0.53573 0.49591 0.10566 0.0
H1537 H 0.49942 0.54133 0.15887 0.0
H1538 H 0.5159 0.5779 0.13921 0.0
H1539 H 0.53633 0.59693 0.10421 0.0
H1540 H 0.57157 0.55185 0.05007 0.0
H1541 H 0.56017 0.51511 0.07304 0.0
C1542 C 0.53175 0.5138 0.1132 0.0
C1543 C 0.51613 0.51592 0.13355 0.0
C1544 C 0.54098 0.53477 0.10154 0.0
C1545 C 0.51127 0.5392 0.14318 0.0
C1546 C 0.52063 0.56012 0.13188 0.0
C1547 C 0.54189 0.57908 0.09763 0.0
C1548 C 0.55454 0.57706 0.07533 0.0
C1549 C 0.53485 0.55813 0.11065 0.0
C1550 C 0.56181 0.55387 0.06716 0.0
C1551 C 0.55514 0.53287 0.08021 0.0
H1552 H 0.6921 0.30631 0.29631 0.0
H1553 H 0.65154 0.25116 0.33557 0.0
H1554 H 0.68719 0.24199 0.36048 0.0
H1555 H 0.7307 0.24691 0.36882 0.0
H1556 H 0.77259 0.29991 0.3282 0.0
H1557 H 0.73569 0.31295 0.30655 0.0
C1558 C 0.69109 0.29246 0.31047 0.0
C1559 C 0.66932 0.27926 0.31388 0.0
C1560 C 0.71191 0.2869 0.32455 0.0
C1561 C 0.6682 0.26137 0.33232 0.0
C1562 C 0.68856 0.25615 0.34668 0.0
C1563 C 0.73167 0.26167 0.35561 0.0
C1564 C 0.7543 0.27241 0.35012 0.0
C1565 C 0.71062 0.26844 0.34265 0.0
C1566 C 0.75533 0.29135 0.33275 0.0
C1567 C 0.73427 0.29871 0.32026 0.0
H1568 H 0.96674 0.49555 0.59967 0.0
H1569 H 0.00193 0.45239 0.65554 0.0
H1570 H 0.98951 0.41489 0.63467 0.0
H1571 H 0.97333 0.39477 0.59799 0.0
H1572 H 0.93879 0.43782 0.54167 0.0
H1573 H 0.94589 0.47501 0.56551 0.0
C1574 C 0.97134 0.47792 0.60749 0.0
C1575 C 0.98553 0.47673 0.62894 0.0
C1576 C 0.96438 0.45647 0.59524 0.0
C1577 C 0.99113 0.45379 0.639 0.0
C1578 C 0.98413 0.43235 0.62702 0.0
C1579 C 0.96696 0.41225 0.59113 0.0
C1580 C 0.95584 0.41363 0.56798 0.0
C1581 C 0.97145 0.43351 0.60474 0.0
C1582 C 0.94743 0.43631 0.55943 0.0
C1583 C 0.95164 0.45758 0.57297 0.0
H1584 H 0.82293 0.30096 0.69873 0.0
H1585 H 0.87001 0.27149 0.64289 0.0
H1586 H 0.83461 0.26145 0.61771 0.0
H1587 H 0.79017 0.25697 0.61346 0.0
H1588 H 0.74292 0.28462 0.67009 0.0
H1589 H 0.77828 0.29957 0.69284 0.0
C1590 C 0.8254 0.29281 0.68084 0.0
C1591 C 0.849 0.28686 0.67274 0.0
C1592 C 0.80487 0.28648 0.66666 0.0
C1593 C 0.85198 0.27612 0.64959 0.0
C1594 C 0.83174 0.2703 0.63519 0.0
C1595 C 0.78761 0.2666 0.63058 0.0
C1596 C 0.76398 0.2695 0.64013 0.0
C1597 C 0.80808 0.27474 0.64383 0.0
C1598 C 0.76095 0.28201 0.66238 0.0
C1599 C 0.78118 0.29054 0.67545 0.0
H1600 H 0.96615 0.59175 0.90388 0.0
H1601 H 0.9429 0.55075 0.96707 0.0
H1602 H 0.95292 0.51244 0.94613 0.0
H1603 H 0.97276 0.49119 0.91163 0.0
H1604 H 0.99649 0.53282 0.84894 0.0
H1605 H 0.98154 0.57032 0.86782 0.0
C1606 C 0.96294 0.5744 0.91296 0.0
C1607 C 0.95409 0.57404 0.93708 0.0
C1608 C 0.96899 0.55261 0.90094 0.0
C1609 C 0.94973 0.55147 0.94851 0.0
C1610 C 0.95559 0.5296 0.93659 0.0
C1611 C 0.97426 0.50841 0.90193 0.0
C1612 C 0.98597 0.50926 0.87902 0.0
C1613 C 0.9659 0.53 0.91306 0.0
C1614 C 0.98769 0.53168 0.86663 0.0
C1615 C 0.97922 0.55316 0.87745 0.0
H1616 H 0.64801 0.70558 0.15592 0.0
H1617 H 0.69219 0.67231 0.21213 0.0
H1618 H 0.7292 0.68163 0.18871 0.0
H1619 H 0.74894 0.70414 0.15506 0.0
H1620 H 0.70439 0.73874 0.09987 0.0
H1621 H 0.66749 0.72378 0.12002 0.0
C1622 C 0.66572 0.69998 0.16287 0.0
C1623 C 0.66745 0.68856 0.18585 0.0
C1624 C 0.68682 0.70588 0.14961 0.0
C1625 C 0.69043 0.68116 0.1945 0.0
C1626 C 0.71158 0.68665 0.18119 0.0
C1627 C 0.73117 0.70805 0.14721 0.0
C1628 C 0.72938 0.72281 0.12617 0.0
C1629 C 0.71001 0.69976 0.15915 0.0
C1630 C 0.70625 0.72758 0.11613 0.0
C1631 C 0.68515 0.71909 0.12768 0.0
H1632 H 0.5207 0.50435 0.41528 0.0
H1633 H 0.4945 0.45914 0.35617 0.0
H1634 H 0.50987 0.42273 0.37693 0.0
H1635 H 0.52635 0.40351 0.4138 0.0
H1636 H 0.55231 0.4482 0.47331 0.0
H1637 H 0.54177 0.48521 0.45029 0.0
C1638 C 0.51869 0.48656 0.40678 0.0
C1639 C 0.50619 0.48438 0.38437 0.0
C1640 C 0.52738 0.46567 0.41895 0.0
C1641 C 0.50393 0.46127 0.37345 0.0
C1642 C 0.51263 0.44045 0.38535 0.0
C1643 C 0.53004 0.42138 0.42159 0.0
C1644 C 0.53977 0.42321 0.44531 0.0
C1645 C 0.52371 0.44239 0.4084 0.0
C1646 C 0.5448 0.44639 0.45508 0.0
C1647 C 0.53862 0.4675 0.44199 0.0
H1648 H 0.84378 0.85523 0.70791 0.0
H1649 H 0.78602 0.81268 0.67516 0.0
H1650 H 0.80865 0.77503 0.6838 0.0
H1651 H 0.84217 0.75426 0.70558 0.0
H1652 H 0.89896 0.79721 0.73961 0.0
H1653 H 0.87947 0.83472 0.72534 0.0
C1654 C 0.83632 0.83774 0.70226 0.0
C1655 C 0.81314 0.83667 0.69119 0.0
C1656 C 0.84915 0.81627 0.70776 0.0
C1657 C 0.80382 0.81395 0.68375 0.0
C1658 C 0.81668 0.79243 0.68884 0.0
C1659 C 0.85051 0.77182 0.7095 0.0
C1660 C 0.87182 0.77298 0.7239 0.0
C1661 C 0.83895 0.79335 0.7016 0.0
C1662 C 0.88249 0.79583 0.72871 0.0
C1663 C 0.87131 0.81729 0.72062 0.0
H1664 H 0.28963 0.68578 0.30956 0.0
H1665 H 0.34475 0.63604 0.28331 0.0
H1666 H 0.3715 0.67025 0.27331 0.0
H1667 H 0.3769 0.7142 0.26672 0.0
H1668 H 0.32122 0.76429 0.29107 0.0
H1669 H 0.29728 0.73027 0.30735 0.0
C1670 C 0.30774 0.68249 0.30225 0.0
C1671 C 0.31513 0.65848 0.29698 0.0
C1672 C 0.32284 0.70236 0.29586 0.0
C1673 C 0.33858 0.65441 0.28733 0.0
C1674 C 0.35387 0.67397 0.28153 0.0
C1675 C 0.35976 0.71771 0.27602 0.0
C1676 C 0.35075 0.74169 0.27743 0.0
C1677 C 0.34584 0.69802 0.28487 0.0
C1678 C 0.32853 0.74596 0.2896 0.0
C1679 C 0.31476 0.72649 0.29885 0.0
H1680 H 0.52139 0.14308 0.51223 0.0
H1681 H 0.47176 0.08476 0.53115 0.0
H1682 H 0.50459 0.06311 0.55215 0.0
H1683 H 0.54855 0.05815 0.56032 0.0
H1684 H 0.59843 0.11549 0.53937 0.0
H1685 H 0.56444 0.14027 0.52458 0.0
C1686 C 0.51769 0.12584 0.52131 0.0
C1687 C 0.49427 0.11541 0.51984 0.0
C1688 C 0.53677 0.11324 0.53299 0.0
C1689 C 0.48971 0.09309 0.53179 0.0
C1690 C 0.50848 0.08066 0.54381 0.0
C1691 C 0.55184 0.07637 0.55319 0.0
C1692 C 0.5759 0.08496 0.55083 0.0
C1693 C 0.53226 0.09019 0.54389 0.0
C1694 C 0.58001 0.10847 0.54128 0.0
C1695 C 0.56061 0.1226 0.53267 0.0
H1696 H 0.20635 0.30762 0.79724 0.0
H1697 H 0.14773 0.3593 0.80714 0.0
H1698 H 0.11793 0.3283 0.79515 0.0
H1699 H 0.10915 0.28808 0.77667 0.0
H1700 H 0.16805 0.23659 0.76704 0.0
H1701 H 0.19693 0.2658 0.78418 0.0
C1702 C 0.187 0.31192 0.79731 0.0
C1703 C 0.17931 0.33577 0.8028 0.0
C1704 C 0.16998 0.29412 0.79007 0.0
C1705 C 0.15416 0.34106 0.80295 0.0
C1706 C 0.13709 0.32339 0.79589 0.0
C1707 C 0.12824 0.28316 0.77868 0.0
C1708 C 0.13647 0.26035 0.77025 0.0
C1709 C 0.14488 0.30011 0.78857 0.0
C1710 C 0.16122 0.25411 0.77321 0.0
C1711 C 0.17782 0.27082 0.78298 0.0
H1712 H 0.41661 0.43823 0.55693 0.0
H1713 H 0.37304 0.39288 0.50934 0.0
H1714 H 0.40862 0.36779 0.50003 0.0
H1715 H 0.45301 0.36139 0.50188 0.0
H1716 H 0.49693 0.40761 0.5483 0.0
H1717 H 0.46046 0.42935 0.56178 0.0
C1718 C 0.41485 0.42261 0.54486 0.0
C1719 C 0.39228 0.41759 0.53368 0.0
C1720 C 0.43554 0.40845 0.53921 0.0
C1721 C 0.39027 0.39728 0.51804 0.0
C1722 C 0.41063 0.38291 0.51266 0.0
C1723 C 0.45453 0.3759 0.5153 0.0
C1724 C 0.47766 0.38297 0.52391 0.0
C1725 C 0.4335 0.38871 0.52261 0.0
C1726 C 0.47933 0.40187 0.54125 0.0
C1727 C 0.45848 0.4144 0.54894 0.0
H1728 H 0.64736 0.24978 0.20582 0.0
H1729 H 0.59633 0.20502 0.24603 0.0
H1730 H 0.61528 0.16815 0.22948 0.0
H1731 H 0.64985 0.14887 0.20849 0.0
H1732 H 0.70186 0.1935 0.16947 0.0
H1733 H 0.6788 0.23024 0.18036 0.0
C1734 C 0.64005 0.23196 0.21057 0.0
C1735 C 0.62066 0.23012 0.22739 0.0
C1736 C 0.65139 0.21085 0.2014 0.0
C1737 C 0.61129 0.20694 0.23322 0.0
C1738 C 0.62222 0.18584 0.22387 0.0
C1739 C 0.6559 0.16661 0.20198 0.0
C1740 C 0.67771 0.16854 0.18848 0.0
C1741 C 0.64283 0.1876 0.20871 0.0
C1742 C 0.68518 0.19156 0.17995 0.0
C1743 C 0.67208 0.21257 0.1863 0.0
H1744 H 0.48911 0.91207 0.98161 0.0
H1745 H 0.53536 0.85306 0.00607 0.0
H1746 H 0.5712 0.87424 0.98994 0.0
H1747 H 0.58971 0.911 0.97232 0.0
H1748 H 0.54395 0.97016 0.94756 0.0
H1749 H 0.50746 0.94732 0.96014 0.0
C1750 C 0.507 0.90371 0.98312 0.0
C1751 C 0.50961 0.88111 0.99524 0.0
C1752 C 0.52756 0.91607 0.9739 0.0
C1753 C 0.53286 0.87043 0.9969 0.0
C1754 C 0.55337 0.88258 0.98776 0.0
C1755 C 0.57172 0.9188 0.96944 0.0
C1756 C 0.56948 0.94233 0.95929 0.0
C1757 C 0.55099 0.90563 0.97677 0.0
C1758 C 0.5461 0.95209 0.95535 0.0
C1759 C 0.52528 0.93908 0.96266 0.0
H1760 H 0.01724 0.08943 0.47566 0.0
H1761 H 0.96903 0.14983 0.4913 0.0
H1762 H 0.93477 0.12731 0.47374 0.0
H1763 H 0.91772 0.08888 0.45864 0.0
H1764 H 0.96516 0.02803 0.44305 0.0
H1765 H 0.00072 0.05243 0.45561 0.0
C1766 C -0.00068 0.09781 0.47483 0.0
C1767 C 0.9956 0.12115 0.48506 0.0
C1768 C 0.9796 0.08461 0.46493 0.0
C1769 C 0.97234 0.13187 0.48369 0.0
C1770 C 0.95272 0.11895 0.47374 0.0
C1771 C 0.93591 0.08107 0.45768 0.0
C1772 C 0.9389 0.05664 0.45031 0.0
C1773 C 0.95602 0.09507 0.46506 0.0
C1774 C 0.9625 0.04681 0.44872 0.0
C1775 C 0.98275 0.0607 0.45603 0.0
H1776 H 0.19402 0.40586 0.50457 0.0
H1777 H 0.23878 0.43774 0.44816 0.0
H1778 H 0.25563 0.39753 0.43843 0.0
H1779 H 0.24986 0.3531 0.43931 0.0
H1780 H 0.19969 0.32126 0.49099 0.0
H1781 H 0.19314 0.36132 0.50971 0.0
C1782 C 0.20819 0.40408 0.49083 0.0
C1783 C 0.2151 0.4246 0.47697 0.0
C1784 C 0.21645 0.3807 0.48421 0.0
C1785 C 0.23318 0.42211 0.45897 0.0
C1786 C 0.24264 0.3991 0.45329 0.0
C1787 C 0.23823 0.35483 0.45526 0.0
C1788 C 0.22513 0.33441 0.46371 0.0
C1789 C 0.23328 0.37815 0.46477 0.0
C1790 C 0.20984 0.33684 0.48415 0.0
C1791 C 0.20598 0.35976 0.49472 0.0
H1792 H 0.898 0.98587 0.66966 0.0
H1793 H 0.9279 0.93323 0.72006 0.0
H1794 H 0.88675 0.923 0.73431 0.0
H1795 H 0.84241 0.92403 0.72725 0.0
H1796 H 0.81292 0.97208 0.67224 0.0
H1797 H 0.85353 0.98949 0.66519 0.0
C1798 C 0.8955 0.97274 0.68431 0.0
C1799 C 0.91586 0.96037 0.69393 0.0
C1800 C 0.87176 0.96595 0.69132 0.0
C1801 C 0.91243 0.94299 0.71249 0.0
C1802 C 0.88892 0.93706 0.72051 0.0
C1803 C 0.84482 0.93887 0.71431 0.0
C1804 C 0.8248 0.94695 0.70038 0.0
C1805 C 0.86842 0.94769 0.70934 0.0
C1806 C 0.82813 0.96572 0.68322 0.0
C1807 C 0.85135 0.97554 0.67909 0.0
H1808 H 0.31026 0.65036 0.89008 0.0
H1809 H 0.30064 0.6737 0.96456 0.0
H1810 H 0.30717 0.63146 0.97884 0.0
H1811 H 0.32009 0.5887 0.96972 0.0
H1812 H 0.32875 0.56677 0.89442 0.0
H1813 H 0.3176 0.60754 0.88079 0.0
C1814 C 0.30936 0.64609 0.90944 0.0
C1815 C 0.30546 0.6649 0.92635 0.0
C1816 C 0.31293 0.62204 0.91729 0.0
C1817 C 0.3038 0.65934 0.95132 0.0
C1818 C 0.30759 0.63527 0.95941 0.0
C1819 C 0.31895 0.59276 0.95036 0.0
C1820 C 0.32555 0.57482 0.9331 0.0
C1821 C 0.31277 0.61654 0.94255 0.0
C1822 C 0.32402 0.5803 0.90806 0.0
C1823 C 0.31773 0.60365 0.90022 0.0
H1824 H 0.65501 0.0796 0.22367 0.0
H1825 H 0.6822 0.03309 0.16632 0.0
H1826 H 0.64143 0.01553 0.16073 0.0
H1827 H 0.59715 0.01958 0.1665 0.0
H1828 H 0.56943 0.07123 0.21898 0.0
H1829 H 0.61107 0.08029 0.23262 0.0
C1830 C 0.65212 0.06498 0.21059 0.0
C1831 C 0.67147 0.0575 0.19548 0.0
C1832 C 0.62835 0.05617 0.20643 0.0
C1833 C 0.6675 0.039 0.17817 0.0
C1834 C 0.64418 0.02911 0.17488 0.0
C1835 C 0.60025 0.0321 0.18157 0.0
C1836 C 0.58038 0.04461 0.19191 0.0
C1837 C 0.62428 0.0384 0.18809 0.0
C1838 C 0.58454 0.0613 0.21093 0.0
C1839 C 0.60833 0.06662 0.21856 0.0
H1840 H 0.19055 0.66953 0.02746 0.0
H1841 H 0.2467 0.65448 0.0806 0.0
H1842 H 0.24383 0.61083 0.0718 0.0
H1843 H 0.21912 0.57681 0.05522 0.0
H1844 H 0.16465 0.59188 0.00034 0.0
H1845 H 0.17344 0.63556 0.0031 0.0
C1846 C 0.20285 0.65675 0.03632 0.0
C1847 C 0.21864 0.66511 0.05477 0.0
C1848 C 0.20112 0.63163 0.03112 0.0
C1849 C 0.23451 0.64847 0.06619 0.0
C1850 C 0.23266 0.62344 0.06139 0.0
C1851 C 0.2099 0.58961 0.0432 0.0
C1852 C 0.19112 0.58124 0.02781 0.0
C1853 C 0.21514 0.61474 0.04481 0.0
C1854 C 0.17928 0.59791 0.01226 0.0
C1855 C 0.18411 0.62294 0.01402 0.0
H1856 H 0.6592 0.92835 0.2846 0.0
H1857 H 0.6721 0.90103 0.3576 0.0
H1858 H 0.63038 0.91067 0.36899 0.0
H1859 H 0.58994 0.9247 0.35814 0.0
H1860 H 0.57573 0.95428 0.28652 0.0
H1861 H 0.61831 0.94586 0.27456 0.0
C1862 C 0.65291 0.92484 0.30306 0.0
C1863 C 0.66872 0.9138 0.32016 0.0
C1864 C 0.62866 0.93049 0.30962 0.0
C1865 C 0.66035 0.9094 0.34404 0.0
C1866 C 0.63644 0.91481 0.35058 0.0
C1867 C 0.59607 0.92917 0.3398 0.0
C1868 C 0.57969 0.93952 0.323 0.0
C1869 C 0.62038 0.92488 0.33343 0.0
C1870 C 0.58804 0.94597 0.29962 0.0
C1871 C 0.61233 0.94122 0.29286 0.0
H1872 H 0.29816 0.39442 0.51093 0.0
H1873 H 0.26095 0.42777 0.5717 0.0
H1874 H 0.2445 0.38805 0.58392 0.0
H1875 H 0.24881 0.34352 0.58285 0.0
H1876 H 0.29161 0.30993 0.526 0.0
H1877 H 0.2973 0.34971 0.50632 0.0
C1878 C 0.28566 0.39304 0.52625 0.0
C1879 C 0.28077 0.41384 0.54049 0.0
C1880 C 0.27768 0.3699 0.53412 0.0
C1881 C 0.26492 0.41191 0.56054 0.0
C1882 C 0.2557 0.38918 0.56763 0.0
C1883 C 0.25864 0.34482 0.56569 0.0
C1884 C 0.26995 0.32394 0.55595 0.0
C1885 C 0.26315 0.36792 0.55542 0.0
C1886 C 0.28288 0.32584 0.53387 0.0
C1887 C 0.28626 0.3486 0.52272 0.0
H1888 H 0.89208 0.01708 0.82032 0.0
H1889 H 0.92299 0.06874 0.76957 0.0
H1890 H 0.88201 0.08113 0.75663 0.0
H1891 H 0.83813 0.08294 0.76577 0.0
H1892 H 0.80809 0.03615 0.82154 0.0
H1893 H 0.84761 0.01578 0.82628 0.0
C1894 C 0.88975 0.03037 0.80577 0.0
C1895 C 0.91037 0.04188 0.79571 0.0
C1896 C 0.86617 0.03851 0.79966 0.0
C1897 C 0.90728 0.05957 0.77739 0.0
C1898 C 0.88387 0.06677 0.77016 0.0
C1899 C 0.84009 0.06766 0.77828 0.0
C1900 C 0.82032 0.06086 0.79318 0.0
C1901 C 0.86323 0.0572 0.782 0.0
C1902 C 0.82311 0.04153 0.80982 0.0
C1903 C 0.84574 0.03004 0.81264 0.0
H1904 H 0.47253 0.17348 0.39916 0.0
H1905 H 0.41552 0.21857 0.42923 0.0
H1906 H 0.40756 0.23609 0.38886 0.0
H1907 H 0.41093 0.2319 0.34436 0.0
H1908 H 0.46316 0.1816 0.31396 0.0
H1909 H 0.47941 0.17321 0.3548 0.0
C1910 C 0.45903 0.18783 0.39695 0.0
C1911 C 0.44465 0.19484 0.41701 0.0
C1912 C 0.45354 0.19662 0.37344 0.0
C1913 C 0.42681 0.213 0.41396 0.0
C1914 C 0.42216 0.22287 0.39087 0.0
C1915 C 0.42656 0.21993 0.34666 0.0
C1916 C 0.43605 0.20752 0.32632 0.0
C1917 C 0.43457 0.21392 0.37032 0.0
C1918 C 0.45579 0.19147 0.32945 0.0
C1919 C 0.46488 0.1865 0.3528 0.0
H1920 H 0.05247 0.22554 0.58333 0.0
H1921 H 0.99889 0.16987 0.59898 0.0
H1922 H 0.9978 0.18243 0.64173 0.0
H1923 H 0.01941 0.20261 0.67572 0.0
H1924 H 0.07216 0.25901 0.66006 0.0
H1925 H 0.06565 0.25343 0.61631 0.0
C1926 C 0.03994 0.21677 0.59596 0.0
C1927 C 0.02621 0.19648 0.5882 0.0
C1928 C 0.03943 0.22407 0.62059 0.0
C1929 C 0.00977 0.18545 0.60457 0.0
C1930 C 0.00927 0.1925 0.62909 0.0
C1931 C 0.02863 0.21441 0.66271 0.0
C1932 C 0.04655 0.23083 0.67103 0.0
C1933 C 0.02506 0.21084 0.63753 0.0
C1934 C 0.05828 0.24619 0.6541 0.0
C1935 C 0.05483 0.24277 0.62902 0.0
H1936 H 0.02699 0.83193 0.89812 0.0
H1937 H 0.08373 0.78695 0.92892 0.0
H1938 H 0.09167 0.76891 0.88878 0.0
H1939 H 0.08801 0.77219 0.84425 0.0
H1940 H 0.03615 0.82248 0.81296 0.0
H1941 H 0.02029 0.83191 0.8537 0.0
C1942 C 0.04041 0.81749 0.8961 0.0
C1943 C 0.05463 0.81051 0.91629 0.0
C1944 C 0.04595 0.80849 0.87272 0.0
C1945 C 0.07249 0.79236 0.91353 0.0
C1946 C 0.07714 0.78223 0.89058 0.0
C1947 C 0.07264 0.78452 0.84635 0.0
C1948 C 0.06312 0.79658 0.82577 0.0
C1949 C 0.06479 0.79102 0.86989 0.0
C1950 C 0.04363 0.81297 0.82864 0.0
C1951 C 0.03472 0.81847 0.85192 0.0
H1952 H 0.42289 0.78199 0.08481 0.0
H1953 H 0.48801 0.82094 0.10601 0.0
H1954 H 0.48182 0.80883 0.14855 0.0
H1955 H 0.45325 0.79424 0.18032 0.0
H1956 H 0.38872 0.75434 0.15875 0.0
H1957 H 0.39961 0.75919 0.11587 0.0
C1958 C 0.43616 0.78708 0.09864 0.0
C1959 C 0.45565 0.80259 0.0924 0.0
C1960 C 0.4324 0.78015 0.12309 0.0
C1961 C 0.47286 0.80896 0.11038 0.0
C1962 C 0.46918 0.80225 0.13478 0.0
C1963 C 0.44204 0.7859 0.16625 0.0
C1964 C 0.41999 0.77438 0.17271 0.0
C1965 C 0.44834 0.78889 0.14149 0.0
C1966 C 0.40575 0.76342 0.15431 0.0
C1967 C 0.41184 0.76637 0.1297 0.0
H1968 H 0.39553 0.47805 0.18703 0.0
H1969 H 0.42793 0.41255 0.21643 0.0
H1970 H 0.38889 0.40084 0.23461 0.0
H1971 H 0.34462 0.40561 0.23596 0.0
H1972 H 0.3109 0.46819 0.20198 0.0
H1973 H 0.35123 0.48505 0.19237 0.0
C1974 C 0.39409 0.4616 0.19803 0.0
C1975 C 0.41442 0.44611 0.20042 0.0
C1976 C 0.37125 0.45439 0.20741 0.0
C1977 C 0.4124 0.42465 0.21433 0.0
C1978 C 0.39009 0.41793 0.22466 0.0
C1979 C 0.34608 0.42333 0.22715 0.0
C1980 C 0.32483 0.43561 0.2196 0.0
C1981 C 0.36921 0.43214 0.22046 0.0
C1982 C 0.32703 0.4584 0.20794 0.0
C1983 C 0.35008 0.46793 0.20226 0.0
H1984 H 0.80816 0.90539 0.02432 0.0
H1985 H 0.82582 0.9251 0.0987 0.0
H1986 H 0.81536 0.88419 0.11247 0.0
H1987 H 0.80573 0.84186 0.10307 0.0
H1988 H 0.78672 0.8208 0.02968 0.0
H1989 H 0.79306 0.8632 0.01571 0.0
C1990 C 0.80912 0.90084 0.04359 0.0
C1991 C 0.81804 0.91818 0.06043 0.0
C1992 C 0.80327 0.87698 0.05146 0.0
C1993 C 0.81923 0.91205 0.08534 0.0
C1994 C 0.81336 0.88861 0.09325 0.0
C1995 C 0.80283 0.84664 0.08401 0.0
C1996 C 0.79632 0.82841 0.06725 0.0
C1997 C 0.80619 0.87079 0.07639 0.0
C1998 C 0.79198 0.83469 0.04277 0.0
C1999 C 0.79563 0.85885 0.03486 0.0
H2000 H 0.14944 0.58904 0.73278 0.0
H2001 H 0.18232 0.53197 0.68961 0.0
H2002 H 0.14235 0.51275 0.68399 0.0
H2003 H 0.09762 0.5167 0.68486 0.0
H2004 H 0.06477 0.57684 0.72358 0.0
H2005 H 0.10499 0.59005 0.73794 0.0
C2006 C 0.14794 0.57201 0.72275 0.0
C2007 C 0.16873 0.56202 0.71145 0.0
C2008 C 0.12477 0.56176 0.71861 0.0
C2009 C 0.16653 0.54006 0.69835 0.0
C2010 C 0.14366 0.52914 0.69505 0.0
C2011 C 0.09925 0.53216 0.69717 0.0
C2012 C 0.07837 0.5458 0.70322 0.0
C2013 C 0.12254 0.54044 0.70415 0.0
C2014 C 0.08066 0.56608 0.71876 0.0
C2015 C 0.10366 0.57373 0.7268 0.0
H2016 H 0.67982 0.90901 0.96412 0.0
H2017 H 0.66442 0.92983 0.88953 0.0
H2018 H 0.67408 0.88878 0.87566 0.0
H2019 H 0.68252 0.84619 0.88492 0.0
H2020 H 0.69924 0.82402 0.95856 0.0
H2021 H 0.69347 0.86639 0.97277 0.0
C2022 C 0.67915 0.90464 0.9448 0.0
C2023 C 0.67113 0.92234 0.9279 0.0
C2024 C 0.68449 0.88072 0.93689 0.0
C2025 C 0.67031 0.91647 0.90292 0.0
C2026 C 0.67572 0.89297 0.89496 0.0
C2027 C 0.68497 0.8507 0.9041 0.0
C2028 C 0.69068 0.83219 0.92086 0.0
C2029 C 0.68201 0.87483 0.91185 0.0
C2030 C 0.69455 0.83813 0.94549 0.0
C2031 C 0.69125 0.86227 0.95353 0.0
H2032 H 0.83996 0.15472 0.37175 0.0
H2033 H 0.80923 0.17582 0.44105 0.0
H2034 H 0.81376 0.13362 0.45608 0.0
H2035 H 0.82903 0.09121 0.44977 0.0
H2036 H 0.85807 0.07127 0.37915 0.0
H2037 H 0.85118 0.11251 0.3642 0.0
C2038 C 0.83432 0.15011 0.39021 0.0
C2039 C 0.82485 0.16831 0.40554 0.0
C2040 C 0.83649 0.126 0.39835 0.0
C2041 C 0.81688 0.16204 0.4291 0.0
C2042 C 0.81943 0.13797 0.43761 0.0
C2043 C 0.83341 0.09583 0.431 0.0
C2044 C 0.84427 0.07824 0.41567 0.0
C2045 C 0.82951 0.11982 0.42245 0.0
C2046 C 0.84985 0.08447 0.39139 0.0
C2047 C 0.84603 0.10809 0.38282 0.0
H2048 H 0.72865 0.1576 0.58147 0.0
H2049 H 0.67685 0.1916 0.5329 0.0
H2050 H 0.66544 0.15156 0.51647 0.0
H2051 H 0.66447 0.10695 0.52194 0.0
H2052 H 0.71122 0.07342 0.57565 0.0
H2053 H 0.73074 0.11287 0.58383 0.0
C2054 C 0.71556 0.15624 0.56662 0.0
C2055 C 0.70373 0.17742 0.55818 0.0
C2056 C 0.70795 0.13308 0.55851 0.0
C2057 C 0.68628 0.17548 0.53948 0.0
C2058 C 0.67963 0.15259 0.53026 0.0
C2059 C 0.67958 0.10822 0.53472 0.0
C2060 C 0.68668 0.08742 0.54801 0.0
C2061 C 0.68951 0.13122 0.54046 0.0
C2062 C 0.70571 0.08925 0.5651 0.0
C2063 C 0.71669 0.11182 0.5699 0.0
H2064 H 0.0806 0.44413 0.78341 0.0
H2065 H 0.10125 0.49427 0.84064 0.0
H2066 H 0.14407 0.49059 0.82895 0.0
H2067 H 0.17582 0.46632 0.80839 0.0
H2068 H 0.15512 0.41594 0.75137 0.0
H2069 H 0.11233 0.42699 0.75661 0.0
C2070 C 0.0944 0.45484 0.7928 0.0
C2071 C 0.08784 0.46899 0.81319 0.0
C2072 C 0.11909 0.45233 0.78624 0.0
C2073 C 0.10584 0.48305 0.825 0.0
C2074 C 0.1304 0.48081 0.81845 0.0
C2075 C 0.16202 0.45837 0.79657 0.0
C2076 C 0.16858 0.43991 0.77995 0.0
C2077 C 0.13732 0.46447 0.79999 0.0
C2078 C 0.15056 0.43001 0.76451 0.0
C2079 C 0.126 0.43617 0.76762 0.0
H2080 H 0.33916 0.57572 0.26669 0.0
H2081 H 0.3074 0.52342 0.31624 0.0
H2082 H 0.348 0.50732 0.32586 0.0
H2083 H 0.39238 0.51392 0.3264 0.0
H2084 H 0.42374 0.57108 0.28218 0.0
H2085 H 0.38377 0.57931 0.26386 0.0
C2086 C 0.34115 0.56015 0.27882 0.0
C2087 C 0.32046 0.55051 0.29057 0.0
C2088 C 0.36463 0.55222 0.28552 0.0
C2089 C 0.32316 0.53088 0.30685 0.0
C2090 C 0.34637 0.52186 0.3125 0.0
C2091 C 0.39055 0.52757 0.31211 0.0
C2092 C 0.41086 0.54183 0.3055 0.0
C2093 C 0.36727 0.5332 0.30287 0.0
C2094 C 0.40828 0.55986 0.28743 0.0
C2095 C 0.38542 0.56466 0.2771 0.0
H2096 H 0.97394 0.68485 0.90288 0.0
H2097 H 0.89872 0.68617 0.92654 0.0
H2098 H 0.88596 0.70067 0.88645 0.0
H2099 H 0.89531 0.70739 0.84339 0.0
H2100 H 0.96979 0.70553 0.81833 0.0
H2101 H 0.98391 0.697 0.86024 0.0
C2102 C 0.95487 0.68892 0.89938 0.0
C2103 C 0.93725 0.6842 0.91753 0.0
C2104 C 0.94754 0.6968 0.87598 0.0
C2105 C 0.91258 0.68945 0.91279 0.0
C2106 C 0.90524 0.69766 0.88985 0.0
C2107 C 0.91468 0.70559 0.8473 0.0
C2108 C 0.93157 0.7069 0.82813 0.0
C2109 C 0.92242 0.70051 0.87112 0.0
C2110 C 0.95659 0.70463 0.83305 0.0
C2111 C 0.96457 0.69964 0.85692 0.0
H2112 H 0.52388 0.66623 0.10084 0.0
H2113 H 0.58201 0.71138 0.07282 0.0
H2114 H 0.58946 0.72781 0.11377 0.0
H2115 H 0.58472 0.72311 0.15809 0.0
H2116 H 0.53154 0.6724 0.18643 0.0
H2117 H 0.51639 0.66464 0.14503 0.0
C2118 C 0.53756 0.68033 0.10363 0.0
C2119 C 0.55229 0.6878 0.08397 0.0
C2120 C 0.54277 0.68839 0.12743 0.0
C2121 C 0.57041 0.70555 0.08777 0.0
C2122 C 0.57476 0.71477 0.11118 0.0
C2123 C 0.56921 0.71108 0.15521 0.0
C2124 C 0.55904 0.69847 0.17514 0.0
C2125 C 0.56182 0.70548 0.13128 0.0
C2126 C 0.53945 0.68239 0.17126 0.0
C2127 C 0.53096 0.67783 0.14761 0.0
H2128 H 0.60685 0.30059 0.35513 0.0
H2129 H 0.53303 0.29278 0.32904 0.0
H2130 H 0.51741 0.30046 0.37056 0.0
H2131 H 0.52532 0.31381 0.41346 0.0
H2132 H 0.59996 0.3204 0.43823 0.0
H2133 H 0.61473 0.30826 0.39818 0.0
C2134 C 0.58732 0.30036 0.35861 0.0
C2135 C 0.57102 0.29664 0.3392 0.0
C2136 C 0.57869 0.30452 0.38229 0.0
C2137 C 0.54583 0.2958 0.34384 0.0
C2138 C 0.53697 0.30024 0.36751 0.0
C2139 C 0.54476 0.31198 0.41019 0.0
C2140 C 0.56153 0.3183 0.42871 0.0
C2141 C 0.55326 0.30521 0.38681 0.0
C2142 C 0.58669 0.31589 0.42423 0.0
C2143 C 0.59519 0.30905 0.40129 0.0
H2144 H 0.9363 0.26207 0.64545 0.0
H2145 H 0.98356 0.31598 0.678 0.0
H2146 H -0.00016 0.32659 0.6377 0.0
H2147 H 0.99447 0.32618 0.59314 0.0
H2148 H 0.94214 0.27704 0.56072 0.0
H2149 H 0.93425 0.25853 0.60069 0.0
C2150 C 0.95083 0.27546 0.64371 0.0
C2151 C 0.95894 0.28812 0.66454 0.0
C2152 C 0.95885 0.28257 0.62035 0.0
C2153 C 0.97724 0.30593 0.66214 0.0
C2154 C 0.98637 0.31212 0.6391 0.0
C2155 C 0.982 0.31083 0.59475 0.0
C2156 C 0.96896 0.30286 0.57409 0.0
C2157 C 0.97645 0.3014 0.618 0.0
C2158 C 0.95242 0.28337 0.57642 0.0
C2159 C 0.9478 0.27293 0.59929 0.0
loop_
_geom_bond_atom_site_label_1
_geom_bond_atom_site_label_2
_geom_bond_distance
_geom_bond_site_symmetry_2
_ccdc_geom_bond_type
In0 O1 2.294 . S
In0 O2 2.326 . S
In0 O6 2.266 . S
In0 O7 2.326 . S
In0 O8 2.266 . S
In0 O9 2.326 . S
In0 O11 2.294 . S
In0 O12 2.326 . S
O1 In0 2.294 . S
O1 C10 1.240 . S
O2 In0 2.326 . S
O2 C10 1.252 . S
C3 O6 1.252 . S
C3 O7 1.260 . S
C4 O11 1.240 . S
C4 O12 1.252 . S
C5 O8 1.252 . S
C5 O9 1.260 . S
O6 In0 2.266 . S
O6 C3 1.252 . S
O7 In0 2.326 . S
O7 C3 1.260 . S
O8 In0 2.266 . S
O8 C5 1.252 . S
O9 In0 2.326 . S
O9 C5 1.260 . S
C10 O1 1.240 . S
C10 O2 1.252 . S
O11 In0 2.294 . S
O11 C4 1.240 . S
O12 In0 2.326 . S
O12 C4 1.252 . S
In13 O14 2.294 1_655 S
In13 O15 2.326 . S
In13 O19 2.266 . S
In13 O20 2.326 . S
In13 O21 2.266 . S
In13 O22 2.326 1_655 S
In13 O24 2.294 . S
In13 O25 2.326 . S
O14 In13 2.294 1_455 S
O14 C23 1.240 . S
O15 In13 2.326 . S
O15 C23 1.252 1_655 S
C16 O19 1.252 . S
C16 O20 1.260 . S
C17 O24 1.240 . S
C17 O25 1.252 . S
C18 O21 1.252 1_455 S
C18 O22 1.260 . S
O19 In13 2.266 . S
O19 C16 1.252 . S
O20 In13 2.326 . S
O20 C16 1.260 . S
O21 In13 2.266 . S
O21 C18 1.252 1_655 S
O22 In13 2.326 1_455 S
O22 C18 1.260 . S
C23 O14 1.240 . S
C23 O15 1.252 1_455 S
O24 In13 2.294 . S
O24 C17 1.240 . S
O25 In13 2.326 . S
O25 C17 1.252 . S
In26 O27 2.294 . S
In26 O28 2.326 . S
In26 O32 2.266 . S
In26 O33 2.326 . S
In26 O34 2.266 . S
In26 O35 2.326 . S
In26 O37 2.294 . S
In26 O38 2.326 . S
O27 In26 2.294 . S
O27 C36 1.240 . S
O28 In26 2.326 . S
O28 C36 1.252 . S
C29 O32 1.252 . S
C29 O33 1.260 . S
C30 O37 1.240 . S
C30 O38 1.252 . S
C31 O34 1.252 . S
C31 O35 1.260 . S
O32 In26 2.266 . S
O32 C29 1.252 . S
O33 In26 2.326 . S
O33 C29 1.260 . S
O34 In26 2.266 . S
O34 C31 1.252 . S
O35 In26 2.326 . S
O35 C31 1.260 . S
C36 O27 1.240 . S
C36 O28 1.252 . S
O37 In26 2.294 . S
O37 C30 1.240 . S
O38 In26 2.326 . S
O38 C30 1.252 . S
In39 O40 2.294 . S
In39 O41 2.326 . S
In39 O45 2.266 . S
In39 O46 2.326 . S
In39 O47 2.266 . S
In39 O48 2.326 . S
In39 O50 2.294 . S
In39 O51 2.326 . S
O40 In39 2.294 . S
O40 C49 1.240 . S
O41 In39 2.326 . S
O41 C49 1.252 . S
C42 O45 1.252 . S
C42 O46 1.260 . S
C43 O50 1.240 . S
C43 O51 1.252 . S
C44 O47 1.252 . S
C44 O48 1.260 . S
O45 In39 2.266 . S
O45 C42 1.252 . S
O46 In39 2.326 . S
O46 C42 1.260 . S
O47 In39 2.266 . S
O47 C44 1.252 . S
O48 In39 2.326 . S
O48 C44 1.260 . S
C49 O40 1.240 . S
C49 O41 1.252 . S
O50 In39 2.294 . S
O50 C43 1.240 . S
O51 In39 2.326 . S
O51 C43 1.252 . S
In52 O53 2.294 . S
In52 O54 2.326 . S
In52 O58 2.266 . S
In52 O59 2.326 . S
In52 O60 2.266 . S
In52 O61 2.326 . S
In52 O63 2.294 . S
In52 O64 2.326 . S
O53 In52 2.294 . S
O53 C62 1.240 . S
O54 In52 2.326 . S
O54 C62 1.252 . S
C55 O58 1.252 . S
C55 O59 1.260 . S
C56 O63 1.240 . S
C56 O64 1.252 . S
C57 O60 1.252 . S
C57 O61 1.260 . S
O58 In52 2.266 . S
O58 C55 1.252 . S
O59 In52 2.326 . S
O59 C55 1.260 . S
O60 In52 2.266 . S
O60 C57 1.252 . S
O61 In52 2.326 . S
O61 C57 1.260 . S
C62 O53 1.240 . S
C62 O54 1.252 . S
O63 In52 2.294 . S
O63 C56 1.240 . S
O64 In52 2.326 . S
O64 C56 1.252 . S
In65 O66 2.294 . S
In65 O67 2.326 . S
In65 O71 2.266 . S
In65 O72 2.326 . S
In65 O73 2.266 . S
In65 O74 2.326 . S
In65 O76 2.294 . S
In65 O77 2.326 . S
O66 In65 2.294 . S
O66 C75 1.240 . S
O67 In65 2.326 . S
O67 C75 1.252 . S
C68 O71 1.252 . S
C68 O72 1.260 . S
C69 O76 1.240 . S
C69 O77 1.252 . S
C70 O73 1.252 . S
C70 O74 1.260 . S
O71 In65 2.266 . S
O71 C68 1.252 . S
O72 In65 2.326 . S
O72 C68 1.260 . S
O73 In65 2.266 . S
O73 C70 1.252 . S
O74 In65 2.326 . S
O74 C70 1.260 . S
C75 O66 1.240 . S
C75 O67 1.252 . S
O76 In65 2.294 . S
O76 C69 1.240 . S
O77 In65 2.326 . S
O77 C69 1.252 . S
In78 O79 2.294 . S
In78 O80 2.326 . S
In78 O84 2.266 . S
In78 O85 2.326 . S
In78 O86 2.266 . S
In78 O87 2.326 . S
In78 O89 2.294 . S
In78 O90 2.326 . S
O79 In78 2.294 . S
O79 C88 1.240 . S
O80 In78 2.326 . S
O80 C88 1.252 . S
C81 O84 1.252 . S
C81 O85 1.260 . S
C82 O89 1.240 . S
C82 O90 1.252 . S
C83 O86 1.252 . S
C83 O87 1.260 . S
O84 In78 2.266 . S
O84 C81 1.252 . S
O85 In78 2.326 . S
O85 C81 1.260 . S
O86 In78 2.266 . S
O86 C83 1.252 . S
O87 In78 2.326 . S
O87 C83 1.260 . S
C88 O79 1.240 . S
C88 O80 1.252 . S
O89 In78 2.294 . S
O89 C82 1.240 . S
O90 In78 2.326 . S
O90 C82 1.252 . S
In91 O92 2.294 1_655 S
In91 O93 2.326 . S
In91 O97 2.266 . S
In91 O98 2.326 . S
In91 O99 2.266 . S
In91 O100 2.326 1_655 S
In91 O102 2.294 . S
In91 O103 2.326 . S
O92 In91 2.294 1_455 S
O92 C101 1.240 . S
O93 In91 2.326 . S
O93 C101 1.252 1_655 S
C94 O97 1.252 . S
C94 O98 1.260 . S
C95 O102 1.240 . S
C95 O103 1.252 . S
C96 O99 1.252 1_455 S
C96 O100 1.260 . S
O97 In91 2.266 . S
O97 C94 1.252 . S
O98 In91 2.326 . S
O98 C94 1.260 . S
O99 In91 2.266 . S
O99 C96 1.252 1_655 S
O100 In91 2.326 1_455 S
O100 C96 1.260 . S
C101 O92 1.240 . S
C101 O93 1.252 1_455 S
O102 In91 2.294 . S
O102 C95 1.240 . S
O103 In91 2.326 . S
O103 C95 1.252 . S
In104 O105 2.294 . S
In104 O106 2.326 . S
In104 O110 2.266 . S
In104 O111 2.326 . S
In104 O112 2.266 . S
In104 O113 2.326 . S
In104 O115 2.294 . S
In104 O116 2.326 . S
O105 In104 2.294 . S
O105 C114 1.240 . S
O106 In104 2.326 . S
O106 C114 1.252 . S
C107 O110 1.252 . S
C107 O111 1.260 . S
C108 O115 1.240 . S
C108 O116 1.252 . S
C109 O112 1.252 . S
C109 O113 1.260 . S
O110 In104 2.266 . S
O110 C107 1.252 . S
O111 In104 2.326 . S
O111 C107 1.260 . S
O112 In104 2.266 . S
O112 C109 1.252 . S
O113 In104 2.326 . S
O113 C109 1.260 . S
C114 O105 1.240 . S
C114 O106 1.252 . S
O115 In104 2.294 . S
O115 C108 1.240 . S
O116 In104 2.326 . S
O116 C108 1.252 . S
In117 O118 2.294 . S
In117 O119 2.326 . S
In117 O123 2.266 . S
In117 O124 2.326 . S
In117 O125 2.266 . S
In117 O126 2.326 . S
In117 O128 2.294 . S
In117 O129 2.326 . S
O118 In117 2.294 . S
O118 C127 1.240 . S
O119 In117 2.326 . S
O119 C127 1.252 . S
C120 O123 1.252 . S
C120 O124 1.260 . S
C121 O128 1.240 . S
C121 O129 1.252 . S
C122 O125 1.252 . S
C122 O126 1.260 . S
O123 In117 2.266 . S
O123 C120 1.252 . S
O124 In117 2.326 . S
O124 C120 1.260 . S
O125 In117 2.266 . S
O125 C122 1.252 . S
O126 In117 2.326 . S
O126 C122 1.260 . S
C127 O118 1.240 . S
C127 O119 1.252 . S
O128 In117 2.294 . S
O128 C121 1.240 . S
O129 In117 2.326 . S
O129 C121 1.252 . S
In130 O131 2.294 . S
In130 O132 2.326 . S
In130 O136 2.266 . S
In130 O137 2.326 . S
In130 O138 2.266 . S
In130 O139 2.326 . S
In130 O141 2.294 . S
In130 O142 2.326 . S
O131 In130 2.294 . S
O131 C140 1.240 . S
O132 In130 2.326 . S
O132 C140 1.252 . S
C133 O136 1.252 . S
C133 O137 1.260 . S
C134 O141 1.240 . S
C134 O142 1.252 . S
C135 O138 1.252 . S
C135 O139 1.260 . S
O136 In130 2.266 . S
O136 C133 1.252 . S
O137 In130 2.326 . S
O137 C133 1.260 . S
O138 In130 2.266 . S
O138 C135 1.252 . S
O139 In130 2.326 . S
O139 C135 1.260 . S
C140 O131 1.240 . S
C140 O132 1.252 . S
O141 In130 2.294 . S
O141 C134 1.240 . S
O142 In130 2.326 . S
O142 C134 1.252 . S
In143 O144 2.294 . S
In143 O145 2.326 . S
In143 O149 2.266 . S
In143 O150 2.326 1_554 S
In143 O151 2.266 . S
In143 O152 2.326 . S
In143 O154 2.294 1_554 S
In143 O155 2.326 . S
O144 In143 2.294 . S
O144 C153 1.240 . S
O145 In143 2.326 . S
O145 C153 1.252 . S
C146 O149 1.252 1_556 S
C146 O150 1.260 . S
C147 O154 1.240 . S
C147 O155 1.252 1_556 S
C148 O151 1.252 . S
C148 O152 1.260 . S
O149 In143 2.266 . S
O149 C146 1.252 1_554 S
O150 In143 2.326 1_556 S
O150 C146 1.260 . S
O151 In143 2.266 . S
O151 C148 1.252 . S
O152 In143 2.326 . S
O152 C148 1.260 . S
C153 O144 1.240 . S
C153 O145 1.252 . S
O154 In143 2.294 1_556 S
O154 C147 1.240 . S
O155 In143 2.326 . S
O155 C147 1.252 1_554 S
In156 O157 2.294 . S
In156 O158 2.326 . S
In156 O162 2.266 . S
In156 O163 2.326 . S
In156 O164 2.266 . S
In156 O165 2.326 . S
In156 O167 2.294 . S
In156 O168 2.326 . S
O157 In156 2.294 . S
O157 C166 1.240 . S
O158 In156 2.326 . S
O158 C166 1.252 . S
C159 O162 1.252 . S
C159 O163 1.260 . S
C160 O167 1.240 . S
C160 O168 1.252 . S
C161 O164 1.252 . S
C161 O165 1.260 . S
O162 In156 2.266 . S
O162 C159 1.252 . S
O163 In156 2.326 . S
O163 C159 1.260 . S
O164 In156 2.266 . S
O164 C161 1.252 . S
O165 In156 2.326 . S
O165 C161 1.260 . S
C166 O157 1.240 . S
C166 O158 1.252 . S
O167 In156 2.294 . S
O167 C160 1.240 . S
O168 In156 2.326 . S
O168 C160 1.252 . S
In169 O170 2.294 . S
In169 O171 2.326 . S
In169 O175 2.266 . S
In169 O176 2.326 . S
In169 O177 2.266 . S
In169 O178 2.326 . S
In169 O180 2.294 . S
In169 O181 2.326 . S
O170 In169 2.294 . S
O170 C179 1.240 . S
O171 In169 2.326 . S
O171 C179 1.252 . S
C172 O175 1.252 . S
C172 O176 1.260 . S
C173 O180 1.240 . S
C173 O181 1.252 . S
C174 O177 1.252 . S
C174 O178 1.260 . S
O175 In169 2.266 . S
O175 C172 1.252 . S
O176 In169 2.326 . S
O176 C172 1.260 . S
O177 In169 2.266 . S
O177 C174 1.252 . S
O178 In169 2.326 . S
O178 C174 1.260 . S
C179 O170 1.240 . S
C179 O171 1.252 . S
O180 In169 2.294 . S
O180 C173 1.240 . S
O181 In169 2.326 . S
O181 C173 1.252 . S
In182 O183 2.294 . S
In182 O184 2.326 . S
In182 O188 2.266 . S
In182 O189 2.326 . S
In182 O190 2.266 . S
In182 O191 2.326 . S
In182 O193 2.294 . S
In182 O194 2.326 . S
O183 In182 2.294 . S
O183 C192 1.240 . S
O184 In182 2.326 . S
O184 C192 1.252 . S
C185 O188 1.252 . S
C185 O189 1.260 . S
C186 O193 1.240 . S
C186 O194 1.252 . S
C187 O190 1.252 . S
C187 O191 1.260 . S
O188 In182 2.266 . S
O188 C185 1.252 . S
O189 In182 2.326 . S
O189 C185 1.260 . S
O190 In182 2.266 . S
O190 C187 1.252 . S
O191 In182 2.326 . S
O191 C187 1.260 . S
C192 O183 1.240 . S
C192 O184 1.252 . S
O193 In182 2.294 . S
O193 C186 1.240 . S
O194 In182 2.326 . S
O194 C186 1.252 . S
In195 O196 2.294 1_556 S
In195 O197 2.326 . S
In195 O201 2.266 . S
In195 O202 2.326 . S
In195 O203 2.266 . S
In195 O204 2.326 1_556 S
In195 O206 2.294 . S
In195 O207 2.326 . S
O196 In195 2.294 1_554 S
O196 C205 1.240 . S
O197 In195 2.326 . S
O197 C205 1.252 1_556 S
C198 O201 1.252 . S
C198 O202 1.260 . S
C199 O206 1.240 . S
C199 O207 1.252 . S
C200 O203 1.252 1_554 S
C200 O204 1.260 . S
O201 In195 2.266 . S
O201 C198 1.252 . S
O202 In195 2.326 . S
O202 C198 1.260 . S
O203 In195 2.266 . S
O203 C200 1.252 1_556 S
O204 In195 2.326 1_554 S
O204 C200 1.260 . S
C205 O196 1.240 . S
C205 O197 1.252 1_554 S
O206 In195 2.294 . S
O206 C199 1.240 . S
O207 In195 2.326 . S
O207 C199 1.252 . S
In208 O209 2.294 . S
In208 O210 2.326 . S
In208 O214 2.266 . S
In208 O215 2.326 . S
In208 O216 2.266 . S
In208 O217 2.326 . S
In208 O219 2.294 . S
In208 O220 2.326 . S
O209 In208 2.294 . S
O209 C218 1.240 . S
O210 In208 2.326 . S
O210 C218 1.252 . S
C211 O214 1.252 . S
C211 O215 1.260 . S
C212 O219 1.240 . S
C212 O220 1.252 . S
C213 O216 1.252 . S
C213 O217 1.260 . S
O214 In208 2.266 . S
O214 C211 1.252 . S
O215 In208 2.326 . S
O215 C211 1.260 . S
O216 In208 2.266 . S
O216 C213 1.252 . S
O217 In208 2.326 . S
O217 C213 1.260 . S
C218 O209 1.240 . S
C218 O210 1.252 . S
O219 In208 2.294 . S
O219 C212 1.240 . S
O220 In208 2.326 . S
O220 C212 1.252 . S
In221 O222 2.294 . S
In221 O223 2.326 . S
In221 O227 2.266 . S
In221 O228 2.326 . S
In221 O229 2.266 . S
In221 O230 2.326 . S
In221 O232 2.294 . S
In221 O233 2.326 . S
O222 In221 2.294 . S
O222 C231 1.240 . S
O223 In221 2.326 . S
O223 C231 1.252 . S
C224 O227 1.252 . S
C224 O228 1.260 . S
C225 O232 1.240 . S
C225 O233 1.252 . S
C226 O229 1.252 . S
C226 O230 1.260 . S
O227 In221 2.266 . S
O227 C224 1.252 . S
O228 In221 2.326 . S
O228 C224 1.260 . S
O229 In221 2.266 . S
O229 C226 1.252 . S
O230 In221 2.326 . S
O230 C226 1.260 . S
C231 O222 1.240 . S
C231 O223 1.252 . S
O232 In221 2.294 . S
O232 C225 1.240 . S
O233 In221 2.326 . S
O233 C225 1.252 . S
In234 O235 2.294 . S
In234 O236 2.326 . S
In234 O240 2.266 . S
In234 O241 2.326 . S
In234 O242 2.266 . S
In234 O243 2.326 . S
In234 O245 2.294 . S
In234 O246 2.326 . S
O235 In234 2.294 . S
O235 C244 1.240 . S
O236 In234 2.326 . S
O236 C244 1.252 . S
C237 O240 1.252 . S
C237 O241 1.260 . S
C238 O245 1.240 . S
C238 O246 1.252 . S
C239 O242 1.252 . S
C239 O243 1.260 . S
O240 In234 2.266 . S
O240 C237 1.252 . S
O241 In234 2.326 . S
O241 C237 1.260 . S
O242 In234 2.266 . S
O242 C239 1.252 . S
O243 In234 2.326 . S
O243 C239 1.260 . S
C244 O235 1.240 . S
C244 O236 1.252 . S
O245 In234 2.294 . S
O245 C238 1.240 . S
O246 In234 2.326 . S
O246 C238 1.252 . S
In247 O248 2.294 . S
In247 O249 2.326 . S
In247 O253 2.266 . S
In247 O254 2.326 . S
In247 O255 2.266 . S
In247 O256 2.326 . S
In247 O258 2.294 . S
In247 O259 2.326 . S
O248 In247 2.294 . S
O248 C257 1.240 . S
O249 In247 2.326 . S
O249 C257 1.252 . S
C250 O253 1.252 . S
C250 O254 1.260 . S
C251 O258 1.240 . S
C251 O259 1.252 . S
C252 O255 1.252 . S
C252 O256 1.260 . S
O253 In247 2.266 . S
O253 C250 1.252 . S
O254 In247 2.326 . S
O254 C250 1.260 . S
O255 In247 2.266 . S
O255 C252 1.252 . S
O256 In247 2.326 . S
O256 C252 1.260 . S
C257 O248 1.240 . S
C257 O249 1.252 . S
O258 In247 2.294 . S
O258 C251 1.240 . S
O259 In247 2.326 . S
O259 C251 1.252 . S
In260 O261 2.294 . S
In260 O262 2.326 . S
In260 O266 2.266 . S
In260 O267 2.326 1_565 S
In260 O268 2.266 . S
In260 O269 2.326 . S
In260 O271 2.294 1_565 S
In260 O272 2.326 . S
O261 In260 2.294 . S
O261 C270 1.240 . S
O262 In260 2.326 . S
O262 C270 1.252 . S
C263 O266 1.252 1_545 S
C263 O267 1.260 . S
C264 O271 1.240 . S
C264 O272 1.252 1_545 S
C265 O268 1.252 . S
C265 O269 1.260 . S
O266 In260 2.266 . S
O266 C263 1.252 1_565 S
O267 In260 2.326 1_545 S
O267 C263 1.260 . S
O268 In260 2.266 . S
O268 C265 1.252 . S
O269 In260 2.326 . S
O269 C265 1.260 . S
C270 O261 1.240 . S
C270 O262 1.252 . S
O271 In260 2.294 1_545 S
O271 C264 1.240 . S
O272 In260 2.326 . S
O272 C264 1.252 1_565 S
In273 O274 2.294 . S
In273 O275 2.326 . S
In273 O279 2.266 . S
In273 O280 2.326 . S
In273 O281 2.266 . S
In273 O282 2.326 . S
In273 O284 2.294 . S
In273 O285 2.326 . S
O274 In273 2.294 . S
O274 C283 1.240 . S
O275 In273 2.326 . S
O275 C283 1.252 . S
C276 O279 1.252 . S
C276 O280 1.260 . S
C277 O284 1.240 . S
C277 O285 1.252 . S
C278 O281 1.252 . S
C278 O282 1.260 . S
O279 In273 2.266 . S
O279 C276 1.252 . S
O280 In273 2.326 . S
O280 C276 1.260 . S
O281 In273 2.266 . S
O281 C278 1.252 . S
O282 In273 2.326 . S
O282 C278 1.260 . S
C283 O274 1.240 . S
C283 O275 1.252 . S
O284 In273 2.294 . S
O284 C277 1.240 . S
O285 In273 2.326 . S
O285 C277 1.252 . S
In286 O287 2.294 . S
In286 O288 2.326 . S
In286 O292 2.266 . S
In286 O293 2.326 . S
In286 O294 2.266 . S
In286 O295 2.326 . S
In286 O297 2.294 . S
In286 O298 2.326 . S
O287 In286 2.294 . S
O287 C296 1.240 . S
O288 In286 2.326 . S
O288 C296 1.252 . S
C289 O292 1.252 . S
C289 O293 1.260 . S
C290 O297 1.240 . S
C290 O298 1.252 . S
C291 O294 1.252 . S
C291 O295 1.260 . S
O292 In286 2.266 . S
O292 C289 1.252 . S
O293 In286 2.326 . S
O293 C289 1.260 . S
O294 In286 2.266 . S
O294 C291 1.252 . S
O295 In286 2.326 . S
O295 C291 1.260 . S
C296 O287 1.240 . S
C296 O288 1.252 . S
O297 In286 2.294 . S
O297 C290 1.240 . S
O298 In286 2.326 . S
O298 C290 1.252 . S
In299 O300 2.294 . S
In299 O301 2.326 . S
In299 O305 2.266 . S
In299 O306 2.326 . S
In299 O307 2.266 . S
In299 O308 2.326 . S
In299 O310 2.294 . S
In299 O311 2.326 . S
O300 In299 2.294 . S
O300 C309 1.240 . S
O301 In299 2.326 . S
O301 C309 1.252 . S
C302 O305 1.252 . S
C302 O306 1.260 . S
C303 O310 1.240 . S
C303 O311 1.252 . S
C304 O307 1.252 . S
C304 O308 1.260 . S
O305 In299 2.266 . S
O305 C302 1.252 . S
O306 In299 2.326 . S
O306 C302 1.260 . S
O307 In299 2.266 . S
O307 C304 1.252 . S
O308 In299 2.326 . S
O308 C304 1.260 . S
C309 O300 1.240 . S
C309 O301 1.252 . S
O310 In299 2.294 . S
O310 C303 1.240 . S
O311 In299 2.326 . S
O311 C303 1.252 . S
In312 O313 2.294 . S
In312 O314 2.326 . S
In312 O318 2.266 . S
In312 O319 2.326 . S
In312 O320 2.266 . S
In312 O321 2.326 . S
In312 O323 2.294 . S
In312 O324 2.326 . S
O313 In312 2.294 . S
O313 C322 1.240 . S
O314 In312 2.326 . S
O314 C322 1.252 . S
C315 O318 1.252 . S
C315 O319 1.260 . S
C316 O323 1.240 . S
C316 O324 1.252 . S
C317 O320 1.252 . S
C317 O321 1.260 . S
O318 In312 2.266 . S
O318 C315 1.252 . S
O319 In312 2.326 . S
O319 C315 1.260 . S
O320 In312 2.266 . S
O320 C317 1.252 . S
O321 In312 2.326 . S
O321 C317 1.260 . S
C322 O313 1.240 . S
C322 O314 1.252 . S
O323 In312 2.294 . S
O323 C316 1.240 . S
O324 In312 2.326 . S
O324 C316 1.252 . S
In325 O326 2.294 . S
In325 O327 2.326 . S
In325 O331 2.266 . S
In325 O332 2.326 . S
In325 O333 2.266 . S
In325 O334 2.326 . S
In325 O336 2.294 . S
In325 O337 2.326 . S
O326 In325 2.294 . S
O326 C335 1.240 . S
O327 In325 2.326 . S
O327 C335 1.252 . S
C328 O331 1.252 . S
C328 O332 1.260 . S
C329 O336 1.240 . S
C329 O337 1.252 . S
C330 O333 1.252 . S
C330 O334 1.260 . S
O331 In325 2.266 . S
O331 C328 1.252 . S
O332 In325 2.326 . S
O332 C328 1.260 . S
O333 In325 2.266 . S
O333 C330 1.252 . S
O334 In325 2.326 . S
O334 C330 1.260 . S
C335 O326 1.240 . S
C335 O327 1.252 . S
O336 In325 2.294 . S
O336 C329 1.240 . S
O337 In325 2.326 . S
O337 C329 1.252 . S
In338 O339 2.294 . S
In338 O340 2.326 . S
In338 O344 2.266 . S
In338 O345 2.326 . S
In338 O346 2.266 . S
In338 O347 2.326 . S
In338 O349 2.294 . S
In338 O350 2.326 . S
O339 In338 2.294 . S
O339 C348 1.240 . S
O340 In338 2.326 . S
O340 C348 1.252 . S
C341 O344 1.252 . S
C341 O345 1.260 . S
C342 O349 1.240 . S
C342 O350 1.252 . S
C343 O346 1.252 . S
C343 O347 1.260 . S
O344 In338 2.266 . S
O344 C341 1.252 . S
O345 In338 2.326 . S
O345 C341 1.260 . S
O346 In338 2.266 . S
O346 C343 1.252 . S
O347 In338 2.326 . S
O347 C343 1.260 . S
C348 O339 1.240 . S
C348 O340 1.252 . S
O349 In338 2.294 . S
O349 C342 1.240 . S
O350 In338 2.326 . S
O350 C342 1.252 . S
In351 O352 2.294 . S
In351 O353 2.326 . S
In351 O357 2.266 . S
In351 O358 2.326 1_455 S
In351 O359 2.266 . S
In351 O360 2.326 . S
In351 O362 2.294 1_455 S
In351 O363 2.326 . S
O352 In351 2.294 . S
O352 C361 1.240 . S
O353 In351 2.326 . S
O353 C361 1.252 . S
C354 O357 1.252 1_655 S
C354 O358 1.260 . S
C355 O362 1.240 . S
C355 O363 1.252 1_655 S
C356 O359 1.252 . S
C356 O360 1.260 . S
O357 In351 2.266 . S
O357 C354 1.252 1_455 S
O358 In351 2.326 1_655 S
O358 C354 1.260 . S
O359 In351 2.266 . S
O359 C356 1.252 . S
O360 In351 2.326 . S
O360 C356 1.260 . S
C361 O352 1.240 . S
C361 O353 1.252 . S
O362 In351 2.294 1_655 S
O362 C355 1.240 . S
O363 In351 2.326 . S
O363 C355 1.252 1_455 S
In364 O365 2.294 . S
In364 O366 2.326 . S
In364 O370 2.266 . S
In364 O371 2.326 . S
In364 O372 2.266 . S
In364 O373 2.326 . S
In364 O375 2.294 . S
In364 O376 2.326 . S
O365 In364 2.294 . S
O365 C374 1.240 . S
O366 In364 2.326 . S
O366 C374 1.252 . S
C367 O370 1.252 . S
C367 O371 1.260 . S
C368 O375 1.240 . S
C368 O376 1.252 . S
C369 O372 1.252 . S
C369 O373 1.260 . S
O370 In364 2.266 . S
O370 C367 1.252 . S
O371 In364 2.326 . S
O371 C367 1.260 . S
O372 In364 2.266 . S
O372 C369 1.252 . S
O373 In364 2.326 . S
O373 C369 1.260 . S
C374 O365 1.240 . S
C374 O366 1.252 . S
O375 In364 2.294 . S
O375 C368 1.240 . S
O376 In364 2.326 . S
O376 C368 1.252 . S
In377 O378 2.294 . S
In377 O379 2.326 . S
In377 O383 2.266 . S
In377 O384 2.326 1_455 S
In377 O385 2.266 . S
In377 O386 2.326 . S
In377 O388 2.294 1_455 S
In377 O389 2.326 . S
O378 In377 2.294 . S
O378 C387 1.240 . S
O379 In377 2.326 . S
O379 C387 1.252 . S
C380 O383 1.252 1_655 S
C380 O384 1.260 . S
C381 O388 1.240 . S
C381 O389 1.252 1_655 S
C382 O385 1.252 . S
C382 O386 1.260 . S
O383 In377 2.266 . S
O383 C380 1.252 1_455 S
O384 In377 2.326 1_655 S
O384 C380 1.260 . S
O385 In377 2.266 . S
O385 C382 1.252 . S
O386 In377 2.326 . S
O386 C382 1.260 . S
C387 O378 1.240 . S
C387 O379 1.252 . S
O388 In377 2.294 1_655 S
O388 C381 1.240 . S
O389 In377 2.326 . S
O389 C381 1.252 1_455 S
In390 O391 2.294 . S
In390 O392 2.326 . S
In390 O396 2.266 . S
In390 O397 2.326 . S
In390 O398 2.266 . S
In390 O399 2.326 . S
In390 O401 2.294 . S
In390 O402 2.326 . S
O391 In390 2.294 . S
O391 C400 1.240 . S
O392 In390 2.326 . S
O392 C400 1.252 . S
C393 O396 1.252 . S
C393 O397 1.260 . S
C394 O401 1.240 . S
C394 O402 1.252 . S
C395 O398 1.252 . S
C395 O399 1.260 . S
O396 In390 2.266 . S
O396 C393 1.252 . S
O397 In390 2.326 . S
O397 C393 1.260 . S
O398 In390 2.266 . S
O398 C395 1.252 . S
O399 In390 2.326 . S
O399 C395 1.260 . S
C400 O391 1.240 . S
C400 O392 1.252 . S
O401 In390 2.294 . S
O401 C394 1.240 . S
O402 In390 2.326 . S
O402 C394 1.252 . S
In403 O404 2.294 . S
In403 O405 2.326 . S
In403 O409 2.266 . S
In403 O410 2.326 . S
In403 O411 2.266 . S
In403 O412 2.326 . S
In403 O414 2.294 . S
In403 O415 2.326 . S
O404 In403 2.294 . S
O404 C413 1.240 . S
O405 In403 2.326 . S
O405 C413 1.252 . S
C406 O409 1.252 . S
C406 O410 1.260 . S
C407 O414 1.240 . S
C407 O415 1.252 . S
C408 O411 1.252 . S
C408 O412 1.260 . S
O409 In403 2.266 . S
O409 C406 1.252 . S
O410 In403 2.326 . S
O410 C406 1.260 . S
O411 In403 2.266 . S
O411 C408 1.252 . S
O412 In403 2.326 . S
O412 C408 1.260 . S
C413 O404 1.240 . S
C413 O405 1.252 . S
O414 In403 2.294 . S
O414 C407 1.240 . S
O415 In403 2.326 . S
O415 C407 1.252 . S
In416 O417 2.294 . S
In416 O418 2.326 . S
In416 O422 2.266 . S
In416 O423 2.326 . S
In416 O424 2.266 . S
In416 O425 2.326 . S
In416 O427 2.294 . S
In416 O428 2.326 . S
O417 In416 2.294 . S
O417 C426 1.240 . S
O418 In416 2.326 . S
O418 C426 1.252 . S
C419 O422 1.252 . S
C419 O423 1.260 . S
C420 O427 1.240 . S
C420 O428 1.252 . S
C421 O424 1.252 . S
C421 O425 1.260 . S
O422 In416 2.266 . S
O422 C419 1.252 . S
O423 In416 2.326 . S
O423 C419 1.260 . S
O424 In416 2.266 . S
O424 C421 1.252 . S
O425 In416 2.326 . S
O425 C421 1.260 . S
C426 O417 1.240 . S
C426 O418 1.252 . S
O427 In416 2.294 . S
O427 C420 1.240 . S
O428 In416 2.326 . S
O428 C420 1.252 . S
In429 O430 2.294 1_554 S
In429 O431 2.326 . S
In429 O435 2.266 . S
In429 O436 2.326 . S
In429 O437 2.266 . S
In429 O438 2.326 1_554 S
In429 O440 2.294 . S
In429 O441 2.326 . S
O430 In429 2.294 1_556 S
O430 C439 1.240 . S
O431 In429 2.326 . S
O431 C439 1.252 1_554 S
C432 O435 1.252 . S
C432 O436 1.260 . S
C433 O440 1.240 . S
C433 O441 1.252 . S
C434 O437 1.252 1_556 S
C434 O438 1.260 . S
O435 In429 2.266 . S
O435 C432 1.252 . S
O436 In429 2.326 . S
O436 C432 1.260 . S
O437 In429 2.266 . S
O437 C434 1.252 1_554 S
O438 In429 2.326 1_556 S
O438 C434 1.260 . S
C439 O430 1.240 . S
C439 O431 1.252 1_556 S
O440 In429 2.294 . S
O440 C433 1.240 . S
O441 In429 2.326 . S
O441 C433 1.252 . S
In442 O443 2.294 . S
In442 O444 2.326 . S
In442 O448 2.266 . S
In442 O449 2.326 . S
In442 O450 2.266 . S
In442 O451 2.326 . S
In442 O453 2.294 . S
In442 O454 2.326 . S
O443 In442 2.294 . S
O443 C452 1.240 . S
O444 In442 2.326 . S
O444 C452 1.252 . S
C445 O448 1.252 . S
C445 O449 1.260 . S
C446 O453 1.240 . S
C446 O454 1.252 . S
C447 O450 1.252 . S
C447 O451 1.260 . S
O448 In442 2.266 . S
O448 C445 1.252 . S
O449 In442 2.326 . S
O449 C445 1.260 . S
O450 In442 2.266 . S
O450 C447 1.252 . S
O451 In442 2.326 . S
O451 C447 1.260 . S
C452 O443 1.240 . S
C452 O444 1.252 . S
O453 In442 2.294 . S
O453 C446 1.240 . S
O454 In442 2.326 . S
O454 C446 1.252 . S
In455 O456 2.294 . S
In455 O457 2.326 . S
In455 O461 2.266 . S
In455 O462 2.326 . S
In455 O463 2.266 . S
In455 O464 2.326 . S
In455 O466 2.294 . S
In455 O467 2.326 . S
O456 In455 2.294 . S
O456 C465 1.240 . S
O457 In455 2.326 . S
O457 C465 1.252 . S
C458 O461 1.252 . S
C458 O462 1.260 . S
C459 O466 1.240 . S
C459 O467 1.252 . S
C460 O463 1.252 . S
C460 O464 1.260 . S
O461 In455 2.266 . S
O461 C458 1.252 . S
O462 In455 2.326 . S
O462 C458 1.260 . S
O463 In455 2.266 . S
O463 C460 1.252 . S
O464 In455 2.326 . S
O464 C460 1.260 . S
C465 O456 1.240 . S
C465 O457 1.252 . S
O466 In455 2.294 . S
O466 C459 1.240 . S
O467 In455 2.326 . S
O467 C459 1.252 . S
In468 O469 2.294 . S
In468 O470 2.326 . S
In468 O474 2.266 . S
In468 O475 2.326 . S
In468 O476 2.266 . S
In468 O477 2.326 . S
In468 O479 2.294 . S
In468 O480 2.326 . S
O469 In468 2.294 . S
O469 C478 1.240 . S
O470 In468 2.326 . S
O470 C478 1.252 . S
C471 O474 1.252 . S
C471 O475 1.260 . S
C472 O479 1.240 . S
C472 O480 1.252 . S
C473 O476 1.252 . S
C473 O477 1.260 . S
O474 In468 2.266 . S
O474 C471 1.252 . S
O475 In468 2.326 . S
O475 C471 1.260 . S
O476 In468 2.266 . S
O476 C473 1.252 . S
O477 In468 2.326 . S
O477 C473 1.260 . S
C478 O469 1.240 . S
C478 O470 1.252 . S
O479 In468 2.294 . S
O479 C472 1.240 . S
O480 In468 2.326 . S
O480 C472 1.252 . S
In481 O482 2.294 1_556 S
In481 O483 2.326 . S
In481 O487 2.266 . S
In481 O488 2.326 . S
In481 O489 2.266 . S
In481 O490 2.326 1_556 S
In481 O492 2.294 . S
In481 O493 2.326 . S
O482 In481 2.294 1_554 S
O482 C491 1.240 . S
O483 In481 2.326 . S
O483 C491 1.252 1_556 S
C484 O487 1.252 . S
C484 O488 1.260 . S
C485 O492 1.240 . S
C485 O493 1.252 . S
C486 O489 1.252 1_554 S
C486 O490 1.260 . S
O487 In481 2.266 . S
O487 C484 1.252 . S
O488 In481 2.326 . S
O488 C484 1.260 . S
O489 In481 2.266 . S
O489 C486 1.252 1_556 S
O490 In481 2.326 1_554 S
O490 C486 1.260 . S
C491 O482 1.240 . S
C491 O483 1.252 1_554 S
O492 In481 2.294 . S
O492 C485 1.240 . S
O493 In481 2.326 . S
O493 C485 1.252 . S
In494 O495 2.294 . S
In494 O496 2.326 . S
In494 O500 2.266 . S
In494 O501 2.326 . S
In494 O502 2.266 . S
In494 O503 2.326 . S
In494 O505 2.294 . S
In494 O506 2.326 . S
O495 In494 2.294 . S
O495 C504 1.240 . S
O496 In494 2.326 . S
O496 C504 1.252 . S
C497 O500 1.252 . S
C497 O501 1.260 . S
C498 O505 1.240 . S
C498 O506 1.252 . S
C499 O502 1.252 . S
C499 O503 1.260 . S
O500 In494 2.266 . S
O500 C497 1.252 . S
O501 In494 2.326 . S
O501 C497 1.260 . S
O502 In494 2.266 . S
O502 C499 1.252 . S
O503 In494 2.326 . S
O503 C499 1.260 . S
C504 O495 1.240 . S
C504 O496 1.252 . S
O505 In494 2.294 . S
O505 C498 1.240 . S
O506 In494 2.326 . S
O506 C498 1.252 . S
In507 O508 2.294 . S
In507 O509 2.326 . S
In507 O513 2.266 . S
In507 O514 2.326 . S
In507 O515 2.266 . S
In507 O516 2.326 . S
In507 O518 2.294 . S
In507 O519 2.326 . S
O508 In507 2.294 . S
O508 C517 1.240 . S
O509 In507 2.326 . S
O509 C517 1.252 . S
C510 O513 1.252 . S
C510 O514 1.260 . S
C511 O518 1.240 . S
C511 O519 1.252 . S
C512 O515 1.252 . S
C512 O516 1.260 . S
O513 In507 2.266 . S
O513 C510 1.252 . S
O514 In507 2.326 . S
O514 C510 1.260 . S
O515 In507 2.266 . S
O515 C512 1.252 . S
O516 In507 2.326 . S
O516 C512 1.260 . S
C517 O508 1.240 . S
C517 O509 1.252 . S
O518 In507 2.294 . S
O518 C511 1.240 . S
O519 In507 2.326 . S
O519 C511 1.252 . S
In520 O521 2.294 . S
In520 O522 2.326 . S
In520 O526 2.266 . S
In520 O527 2.326 . S
In520 O528 2.266 . S
In520 O529 2.326 . S
In520 O531 2.294 . S
In520 O532 2.326 . S
O521 In520 2.294 . S
O521 C530 1.240 . S
O522 In520 2.326 . S
O522 C530 1.252 . S
C523 O526 1.252 . S
C523 O527 1.260 . S
C524 O531 1.240 . S
C524 O532 1.252 . S
C525 O528 1.252 . S
C525 O529 1.260 . S
O526 In520 2.266 . S
O526 C523 1.252 . S
O527 In520 2.326 . S
O527 C523 1.260 . S
O528 In520 2.266 . S
O528 C525 1.252 . S
O529 In520 2.326 . S
O529 C525 1.260 . S
C530 O521 1.240 . S
C530 O522 1.252 . S
O531 In520 2.294 . S
O531 C524 1.240 . S
O532 In520 2.326 . S
O532 C524 1.252 . S
In533 O534 2.294 . S
In533 O535 2.326 . S
In533 O539 2.266 . S
In533 O540 2.326 . S
In533 O541 2.266 . S
In533 O542 2.326 . S
In533 O544 2.294 . S
In533 O545 2.326 . S
O534 In533 2.294 . S
O534 C543 1.240 . S
O535 In533 2.326 . S
O535 C543 1.252 . S
C536 O539 1.252 . S
C536 O540 1.260 . S
C537 O544 1.240 . S
C537 O545 1.252 . S
C538 O541 1.252 . S
C538 O542 1.260 . S
O539 In533 2.266 . S
O539 C536 1.252 . S
O540 In533 2.326 . S
O540 C536 1.260 . S
O541 In533 2.266 . S
O541 C538 1.252 . S
O542 In533 2.326 . S
O542 C538 1.260 . S
C543 O534 1.240 . S
C543 O535 1.252 . S
O544 In533 2.294 . S
O544 C537 1.240 . S
O545 In533 2.326 . S
O545 C537 1.252 . S
In546 O547 2.294 1_545 S
In546 O548 2.326 . S
In546 O552 2.266 . S
In546 O553 2.326 . S
In546 O554 2.266 . S
In546 O555 2.326 1_545 S
In546 O557 2.294 . S
In546 O558 2.326 . S
O547 In546 2.294 1_565 S
O547 C556 1.240 . S
O548 In546 2.326 . S
O548 C556 1.252 1_545 S
C549 O552 1.252 . S
C549 O553 1.260 . S
C550 O557 1.240 . S
C550 O558 1.252 . S
C551 O554 1.252 1_565 S
C551 O555 1.260 . S
O552 In546 2.266 . S
O552 C549 1.252 . S
O553 In546 2.326 . S
O553 C549 1.260 . S
O554 In546 2.266 . S
O554 C551 1.252 1_545 S
O555 In546 2.326 1_565 S
O555 C551 1.260 . S
C556 O547 1.240 . S
C556 O548 1.252 1_565 S
O557 In546 2.294 . S
O557 C550 1.240 . S
O558 In546 2.326 . S
O558 C550 1.252 . S
In559 O560 2.294 . S
In559 O561 2.326 . S
In559 O565 2.266 . S
In559 O566 2.326 . S
In559 O567 2.266 . S
In559 O568 2.326 . S
In559 O570 2.294 . S
In559 O571 2.326 . S
O560 In559 2.294 . S
O560 C569 1.240 . S
O561 In559 2.326 . S
O561 C569 1.252 . S
C562 O565 1.252 . S
C562 O566 1.260 . S
C563 O570 1.240 . S
C563 O571 1.252 . S
C564 O567 1.252 . S
C564 O568 1.260 . S
O565 In559 2.266 . S
O565 C562 1.252 . S
O566 In559 2.326 . S
O566 C562 1.260 . S
O567 In559 2.266 . S
O567 C564 1.252 . S
O568 In559 2.326 . S
O568 C564 1.260 . S
C569 O560 1.240 . S
C569 O561 1.252 . S
O570 In559 2.294 . S
O570 C563 1.240 . S
O571 In559 2.326 . S
O571 C563 1.252 . S
In572 O573 2.294 . S
In572 O574 2.326 . S
In572 O578 2.266 . S
In572 O579 2.326 . S
In572 O580 2.266 . S
In572 O581 2.326 . S
In572 O583 2.294 . S
In572 O584 2.326 . S
O573 In572 2.294 . S
O573 C582 1.240 . S
O574 In572 2.326 . S
O574 C582 1.252 . S
C575 O578 1.252 . S
C575 O579 1.260 . S
C576 O583 1.240 . S
C576 O584 1.252 . S
C577 O580 1.252 . S
C577 O581 1.260 . S
O578 In572 2.266 . S
O578 C575 1.252 . S
O579 In572 2.326 . S
O579 C575 1.260 . S
O580 In572 2.266 . S
O580 C577 1.252 . S
O581 In572 2.326 . S
O581 C577 1.260 . S
C582 O573 1.240 . S
C582 O574 1.252 . S
O583 In572 2.294 . S
O583 C576 1.240 . S
O584 In572 2.326 . S
O584 C576 1.252 . S
In585 O586 2.294 . S
In585 O587 2.326 . S
In585 O591 2.266 . S
In585 O592 2.326 . S
In585 O593 2.266 . S
In585 O594 2.326 . S
In585 O596 2.294 . S
In585 O597 2.326 . S
O586 In585 2.294 . S
O586 C595 1.240 . S
O587 In585 2.326 . S
O587 C595 1.252 . S
C588 O591 1.252 . S
C588 O592 1.260 . S
C589 O596 1.240 . S
C589 O597 1.252 . S
C590 O593 1.252 . S
C590 O594 1.260 . S
O591 In585 2.266 . S
O591 C588 1.252 . S
O592 In585 2.326 . S
O592 C588 1.260 . S
O593 In585 2.266 . S
O593 C590 1.252 . S
O594 In585 2.326 . S
O594 C590 1.260 . S
C595 O586 1.240 . S
C595 O587 1.252 . S
O596 In585 2.294 . S
O596 C589 1.240 . S
O597 In585 2.326 . S
O597 C589 1.252 . S
In598 O599 2.294 . S
In598 O600 2.326 . S
In598 O604 2.266 . S
In598 O605 2.326 1_565 S
In598 O606 2.266 . S
In598 O607 2.326 . S
In598 O609 2.294 1_565 S
In598 O610 2.326 . S
O599 In598 2.294 . S
O599 C608 1.240 . S
O600 In598 2.326 . S
O600 C608 1.252 . S
C601 O604 1.252 1_545 S
C601 O605 1.260 . S
C602 O609 1.240 . S
C602 O610 1.252 1_545 S
C603 O606 1.252 . S
C603 O607 1.260 . S
O604 In598 2.266 . S
O604 C601 1.252 1_565 S
O605 In598 2.326 1_545 S
O605 C601 1.260 . S
O606 In598 2.266 . S
O606 C603 1.252 . S
O607 In598 2.326 . S
O607 C603 1.260 . S
C608 O599 1.240 . S
C608 O600 1.252 . S
O609 In598 2.294 1_545 S
O609 C602 1.240 . S
O610 In598 2.326 . S
O610 C602 1.252 1_565 S
In611 O612 2.294 . S
In611 O613 2.326 . S
In611 O617 2.266 . S
In611 O618 2.326 1_545 S
In611 O619 2.266 . S
In611 O620 2.326 . S
In611 O622 2.294 1_545 S
In611 O623 2.326 . S
O612 In611 2.294 . S
O612 C621 1.240 . S
O613 In611 2.326 . S
O613 C621 1.252 . S
C614 O617 1.252 1_565 S
C614 O618 1.260 . S
C615 O622 1.240 . S
C615 O623 1.252 1_565 S
C616 O619 1.252 . S
C616 O620 1.260 . S
O617 In611 2.266 . S
O617 C614 1.252 1_545 S
O618 In611 2.326 1_565 S
O618 C614 1.260 . S
O619 In611 2.266 . S
O619 C616 1.252 . S
O620 In611 2.326 . S
O620 C616 1.260 . S
C621 O612 1.240 . S
C621 O613 1.252 . S
O622 In611 2.294 1_565 S
O622 C615 1.240 . S
O623 In611 2.326 . S
O623 C615 1.252 1_545 S
H624 C630 0.930 . S
H625 C633 0.930 . S
H626 C634 0.930 . S
H627 C635 0.930 . S
H628 C638 0.930 . S
H629 C639 0.930 . S
C630 H624 0.930 . S
C630 C631 1.355 . S
C630 C632 1.415 . S
C631 C630 1.355 . S
C631 C633 1.419 . S
C632 C630 1.415 . S
C632 C637 1.425 . S
C632 C639 1.409 . S
C633 H625 0.930 . S
C633 C631 1.419 . S
C633 C634 1.362 . S
C634 H626 0.930 . S
C634 C633 1.362 . S
C634 C637 1.409 . S
C635 H627 0.930 . S
C635 C636 1.355 . S
C635 C637 1.415 . S
C636 C635 1.355 . S
C636 C638 1.419 . S
C637 C632 1.425 . S
C637 C634 1.409 . S
C637 C635 1.415 . S
C638 H628 0.930 . S
C638 C636 1.419 . S
C638 C639 1.362 . S
C639 H629 0.930 . S
C639 C632 1.409 . S
C639 C638 1.362 . S
H640 C646 0.930 . S
H641 C649 0.930 . S
H642 C650 0.930 . S
H643 C651 0.930 . S
H644 C654 0.930 . S
H645 C655 0.930 . S
C646 H640 0.930 . S
C646 C647 1.355 . S
C646 C648 1.415 . S
C647 C646 1.355 . S
C647 C649 1.419 . S
C648 C646 1.415 . S
C648 C653 1.425 . S
C648 C655 1.409 . S
C649 H641 0.930 . S
C649 C647 1.419 . S
C649 C650 1.362 . S
C650 H642 0.930 . S
C650 C649 1.362 . S
C650 C653 1.409 . S
C651 H643 0.930 . S
C651 C652 1.355 . S
C651 C653 1.415 . S
C652 C651 1.355 . S
C652 C654 1.419 . S
C653 C648 1.425 . S
C653 C650 1.409 . S
C653 C651 1.415 . S
C654 H644 0.930 . S
C654 C652 1.419 . S
C654 C655 1.362 . S
C655 H645 0.930 . S
C655 C648 1.409 . S
C655 C654 1.362 . S
H656 C662 0.930 . S
H657 C665 0.930 . S
H658 C666 0.930 . S
H659 C667 0.930 . S
H660 C670 0.930 . S
H661 C671 0.930 . S
C662 H656 0.930 . S
C662 C663 1.355 . S
C662 C664 1.415 . S
C663 C662 1.355 . S
C663 C665 1.419 . S
C664 C662 1.415 . S
C664 C669 1.425 . S
C664 C671 1.409 . S
C665 H657 0.930 . S
C665 C663 1.419 . S
C665 C666 1.362 . S
C666 H658 0.930 . S
C666 C665 1.362 . S
C666 C669 1.409 . S
C667 H659 0.930 . S
C667 C668 1.355 . S
C667 C669 1.415 . S
C668 C667 1.355 . S
C668 C670 1.419 . S
C669 C664 1.425 . S
C669 C666 1.409 . S
C669 C667 1.415 . S
C670 H660 0.930 . S
C670 C668 1.419 . S
C670 C671 1.362 . S
C671 H661 0.930 . S
C671 C664 1.409 . S
C671 C670 1.362 . S
H672 C678 0.930 . S
H673 C681 0.930 . S
H674 C682 0.930 . S
H675 C683 0.930 . S
H676 C686 0.930 . S
H677 C687 0.930 . S
C678 H672 0.930 . S
C678 C679 1.355 . S
C678 C680 1.415 . S
C679 C678 1.355 . S
C679 C681 1.419 . S
C680 C678 1.415 . S
C680 C685 1.425 . S
C680 C687 1.409 . S
C681 H673 0.930 . S
C681 C679 1.419 . S
C681 C682 1.362 . S
C682 H674 0.930 . S
C682 C681 1.362 . S
C682 C685 1.409 . S
C683 H675 0.930 . S
C683 C684 1.355 . S
C683 C685 1.415 . S
C684 C683 1.355 . S
C684 C686 1.419 . S
C685 C680 1.425 . S
C685 C682 1.409 . S
C685 C683 1.415 . S
C686 H676 0.930 . S
C686 C684 1.419 . S
C686 C687 1.362 . S
C687 H677 0.930 . S
C687 C680 1.409 . S
C687 C686 1.362 . S
H688 C694 0.930 . S
H689 C697 0.930 . S
H690 C698 0.930 . S
H691 C699 0.930 . S
H692 C702 0.930 . S
H693 C703 0.930 . S
C694 H688 0.930 . S
C694 C695 1.355 . S
C694 C696 1.415 . S
C695 C694 1.355 . S
C695 C697 1.419 . S
C696 C694 1.415 . S
C696 C701 1.425 . S
C696 C703 1.409 . S
C697 H689 0.930 . S
C697 C695 1.419 . S
C697 C698 1.362 . S
C698 H690 0.930 . S
C698 C697 1.362 . S
C698 C701 1.409 . S
C699 H691 0.930 . S
C699 C700 1.355 . S
C699 C701 1.415 . S
C700 C699 1.355 . S
C700 C702 1.419 . S
C701 C696 1.425 . S
C701 C698 1.409 . S
C701 C699 1.415 . S
C702 H692 0.930 . S
C702 C700 1.419 . S
C702 C703 1.362 . S
C703 H693 0.930 . S
C703 C696 1.409 . S
C703 C702 1.362 . S
H704 C710 0.930 . S
H705 C713 0.930 . S
H706 C714 0.930 . S
H707 C715 0.930 . S
H708 C718 0.930 . S
H709 C719 0.930 . S
C710 H704 0.930 . S
C710 C711 1.355 . S
C710 C712 1.415 . S
C711 C710 1.355 . S
C711 C713 1.419 . S
C712 C710 1.415 . S
C712 C717 1.425 . S
C712 C719 1.409 . S
C713 H705 0.930 . S
C713 C711 1.419 . S
C713 C714 1.362 . S
C714 H706 0.930 . S
C714 C713 1.362 . S
C714 C717 1.409 . S
C715 H707 0.930 . S
C715 C716 1.355 . S
C715 C717 1.415 . S
C716 C715 1.355 . S
C716 C718 1.419 . S
C717 C712 1.425 . S
C717 C714 1.409 . S
C717 C715 1.415 . S
C718 H708 0.930 . S
C718 C716 1.419 . S
C718 C719 1.362 . S
C719 H709 0.930 . S
C719 C712 1.409 . S
C719 C718 1.362 . S
H720 C726 0.930 . S
H721 C729 0.930 . S
H722 C730 0.930 . S
H723 C731 0.930 . S
H724 C734 0.930 . S
H725 C735 0.930 . S
C726 H720 0.930 . S
C726 C727 1.355 . S
C726 C728 1.415 . S
C727 C726 1.355 . S
C727 C729 1.419 . S
C728 C726 1.415 . S
C728 C733 1.425 . S
C728 C735 1.409 . S
C729 H721 0.930 . S
C729 C727 1.419 . S
C729 C730 1.362 . S
C730 H722 0.930 . S
C730 C729 1.362 . S
C730 C733 1.409 . S
C731 H723 0.930 . S
C731 C732 1.355 . S
C731 C733 1.415 . S
C732 C731 1.355 . S
C732 C734 1.419 . S
C733 C728 1.425 . S
C733 C730 1.409 . S
C733 C731 1.415 . S
C734 H724 0.930 . S
C734 C732 1.419 . S
C734 C735 1.362 . S
C735 H725 0.930 . S
C735 C728 1.409 . S
C735 C734 1.362 . S
H736 C742 0.930 . S
H737 C745 0.930 . S
H738 C746 0.930 . S
H739 C747 0.930 . S
H740 C750 0.930 . S
H741 C751 0.930 . S
C742 H736 0.930 . S
C742 C743 1.355 . S
C742 C744 1.415 . S
C743 C742 1.355 . S
C743 C745 1.419 . S
C744 C742 1.415 . S
C744 C749 1.425 . S
C744 C751 1.409 . S
C745 H737 0.930 . S
C745 C743 1.419 . S
C745 C746 1.362 . S
C746 H738 0.930 . S
C746 C745 1.362 . S
C746 C749 1.409 . S
C747 H739 0.930 . S
C747 C748 1.355 . S
C747 C749 1.415 . S
C748 C747 1.355 . S
C748 C750 1.419 . S
C749 C744 1.425 . S
C749 C746 1.409 . S
C749 C747 1.415 . S
C750 H740 0.930 . S
C750 C748 1.419 . S
C750 C751 1.362 . S
C751 H741 0.930 . S
C751 C744 1.409 . S
C751 C750 1.362 . S
H752 C758 0.930 . S
H753 C761 0.930 . S
H754 C762 0.930 . S
H755 C763 0.930 . S
H756 C766 0.930 . S
H757 C767 0.930 . S
C758 H752 0.930 . S
C758 C759 1.355 . S
C758 C760 1.415 . S
C759 C758 1.355 . S
C759 C761 1.419 . S
C760 C758 1.415 . S
C760 C765 1.425 . S
C760 C767 1.409 . S
C761 H753 0.930 . S
C761 C759 1.419 . S
C761 C762 1.362 . S
C762 H754 0.930 . S
C762 C761 1.362 . S
C762 C765 1.409 . S
C763 H755 0.930 . S
C763 C764 1.355 . S
C763 C765 1.415 . S
C764 C763 1.355 . S
C764 C766 1.419 . S
C765 C760 1.425 . S
C765 C762 1.409 . S
C765 C763 1.415 . S
C766 H756 0.930 . S
C766 C764 1.419 . S
C766 C767 1.362 . S
C767 H757 0.930 . S
C767 C760 1.409 . S
C767 C766 1.362 . S
H768 C774 0.930 . S
H769 C777 0.930 . S
H770 C778 0.930 . S
H771 C779 0.930 . S
H772 C782 0.930 . S
H773 C783 0.930 . S
C774 H768 0.930 . S
C774 C775 1.355 . S
C774 C776 1.415 . S
C775 C774 1.355 . S
C775 C777 1.419 . S
C776 C774 1.415 . S
C776 C781 1.425 . S
C776 C783 1.409 . S
C777 H769 0.930 . S
C777 C775 1.419 . S
C777 C778 1.362 . S
C778 H770 0.930 . S
C778 C777 1.362 . S
C778 C781 1.409 . S
C779 H771 0.930 . S
C779 C780 1.355 . S
C779 C781 1.415 . S
C780 C779 1.355 . S
C780 C782 1.419 . S
C781 C776 1.425 . S
C781 C778 1.409 . S
C781 C779 1.415 . S
C782 H772 0.930 . S
C782 C780 1.419 . S
C782 C783 1.362 . S
C783 H773 0.930 . S
C783 C776 1.409 . S
C783 C782 1.362 . S
H784 C790 0.930 . S
H785 C793 0.930 . S
H786 C794 0.930 . S
H787 C795 0.930 . S
H788 C798 0.930 . S
H789 C799 0.930 . S
C790 H784 0.930 . S
C790 C791 1.355 . S
C790 C792 1.415 . S
C791 C790 1.355 . S
C791 C793 1.419 . S
C792 C790 1.415 . S
C792 C797 1.425 . S
C792 C799 1.409 . S
C793 H785 0.930 . S
C793 C791 1.419 . S
C793 C794 1.362 . S
C794 H786 0.930 . S
C794 C793 1.362 . S
C794 C797 1.409 . S
C795 H787 0.930 . S
C795 C796 1.355 . S
C795 C797 1.415 . S
C796 C795 1.355 . S
C796 C798 1.419 . S
C797 C792 1.425 . S
C797 C794 1.409 . S
C797 C795 1.415 . S
C798 H788 0.930 . S
C798 C796 1.419 . S
C798 C799 1.362 . S
C799 H789 0.930 . S
C799 C792 1.409 . S
C799 C798 1.362 . S
H800 C806 0.930 . S
H801 C809 0.930 . S
H802 C810 0.930 . S
H803 C811 0.930 . S
H804 C814 0.930 . S
H805 C815 0.930 . S
C806 H800 0.930 . S
C806 C807 1.355 . S
C806 C808 1.415 . S
C807 C806 1.355 . S
C807 C809 1.419 . S
C808 C806 1.415 . S
C808 C813 1.425 . S
C808 C815 1.409 . S
C809 H801 0.930 . S
C809 C807 1.419 . S
C809 C810 1.362 . S
C810 H802 0.930 . S
C810 C809 1.362 . S
C810 C813 1.409 . S
C811 H803 0.930 . S
C811 C812 1.355 . S
C811 C813 1.415 . S
C812 C811 1.355 . S
C812 C814 1.419 . S
C813 C808 1.425 . S
C813 C810 1.409 . S
C813 C811 1.415 . S
C814 H804 0.930 . S
C814 C812 1.419 . S
C814 C815 1.362 . S
C815 H805 0.930 . S
C815 C808 1.409 . S
C815 C814 1.362 . S
H816 C822 0.930 . S
H817 C825 0.930 . S
H818 C826 0.930 . S
H819 C827 0.930 . S
H820 C830 0.930 . S
H821 C831 0.930 . S
C822 H816 0.930 . S
C822 C823 1.355 . S
C822 C824 1.415 . S
C823 C822 1.355 . S
C823 C825 1.419 . S
C824 C822 1.415 . S
C824 C829 1.425 . S
C824 C831 1.409 . S
C825 H817 0.930 . S
C825 C823 1.419 . S
C825 C826 1.362 . S
C826 H818 0.930 . S
C826 C825 1.362 . S
C826 C829 1.409 . S
C827 H819 0.930 . S
C827 C828 1.355 . S
C827 C829 1.415 . S
C828 C827 1.355 . S
C828 C830 1.419 . S
C829 C824 1.425 . S
C829 C826 1.409 . S
C829 C827 1.415 . S
C830 H820 0.930 . S
C830 C828 1.419 . S
C830 C831 1.362 . S
C831 H821 0.930 . S
C831 C824 1.409 . S
C831 C830 1.362 . S
H832 C838 0.930 . S
H833 C841 0.930 . S
H834 C842 0.930 . S
H835 C843 0.930 . S
H836 C846 0.930 . S
H837 C847 0.930 . S
C838 H832 0.930 . S
C838 C839 1.355 . S
C838 C840 1.415 . S
C839 C838 1.355 . S
C839 C841 1.419 . S
C840 C838 1.415 . S
C840 C845 1.425 . S
C840 C847 1.409 . S
C841 H833 0.930 . S
C841 C839 1.419 . S
C841 C842 1.362 . S
C842 H834 0.930 . S
C842 C841 1.362 . S
C842 C845 1.409 . S
C843 H835 0.930 . S
C843 C844 1.355 . S
C843 C845 1.415 . S
C844 C843 1.355 . S
C844 C846 1.419 . S
C845 C840 1.425 . S
C845 C842 1.409 . S
C845 C843 1.415 . S
C846 H836 0.930 . S
C846 C844 1.419 . S
C846 C847 1.362 . S
C847 H837 0.930 . S
C847 C840 1.409 . S
C847 C846 1.362 . S
H848 C854 0.930 . S
H849 C857 0.930 . S
H850 C858 0.930 . S
H851 C859 0.930 . S
H852 C862 0.930 . S
H853 C863 0.930 . S
C854 H848 0.930 . S
C854 C855 1.355 . S
C854 C856 1.415 . S
C855 C854 1.355 . S
C855 C857 1.419 . S
C856 C854 1.415 . S
C856 C861 1.425 . S
C856 C863 1.409 . S
C857 H849 0.930 . S
C857 C855 1.419 . S
C857 C858 1.362 . S
C858 H850 0.930 . S
C858 C857 1.362 . S
C858 C861 1.409 . S
C859 H851 0.930 . S
C859 C860 1.355 . S
C859 C861 1.415 . S
C860 C859 1.355 . S
C860 C862 1.419 . S
C861 C856 1.425 . S
C861 C858 1.409 . S
C861 C859 1.415 . S
C862 H852 0.930 . S
C862 C860 1.419 . S
C862 C863 1.362 . S
C863 H853 0.930 . S
C863 C856 1.409 . S
C863 C862 1.362 . S
H864 C870 0.930 . S
H865 C873 0.930 . S
H866 C874 0.930 . S
H867 C875 0.930 . S
H868 C878 0.930 . S
H869 C879 0.930 . S
C870 H864 0.930 . S
C870 C871 1.355 . S
C870 C872 1.415 . S
C871 C870 1.355 . S
C871 C873 1.419 . S
C872 C870 1.415 . S
C872 C877 1.425 . S
C872 C879 1.409 . S
C873 H865 0.930 . S
C873 C871 1.419 . S
C873 C874 1.362 . S
C874 H866 0.930 . S
C874 C873 1.362 . S
C874 C877 1.409 . S
C875 H867 0.930 . S
C875 C876 1.355 . S
C875 C877 1.415 . S
C876 C875 1.355 . S
C876 C878 1.419 . S
C877 C872 1.425 . S
C877 C874 1.409 . S
C877 C875 1.415 . S
C878 H868 0.930 . S
C878 C876 1.419 . S
C878 C879 1.362 . S
C879 H869 0.930 . S
C879 C872 1.409 . S
C879 C878 1.362 . S
H880 C886 0.930 . S
H881 C889 0.930 . S
H882 C890 0.930 . S
H883 C891 0.930 . S
H884 C894 0.930 . S
H885 C895 0.930 . S
C886 H880 0.930 . S
C886 C887 1.355 . S
C886 C888 1.415 . S
C887 C886 1.355 . S
C887 C889 1.419 . S
C888 C886 1.415 . S
C888 C893 1.425 . S
C888 C895 1.409 . S
C889 H881 0.930 . S
C889 C887 1.419 . S
C889 C890 1.362 . S
C890 H882 0.930 . S
C890 C889 1.362 . S
C890 C893 1.409 . S
C891 H883 0.930 . S
C891 C892 1.355 . S
C891 C893 1.415 . S
C892 C891 1.355 . S
C892 C894 1.419 . S
C893 C888 1.425 . S
C893 C890 1.409 . S
C893 C891 1.415 . S
C894 H884 0.930 . S
C894 C892 1.419 . S
C894 C895 1.362 . S
C895 H885 0.930 . S
C895 C888 1.409 . S
C895 C894 1.362 . S
H896 C902 0.930 . S
H897 C905 0.930 . S
H898 C906 0.930 . S
H899 C907 0.930 . S
H900 C910 0.930 . S
H901 C911 0.930 . S
C902 H896 0.930 . S
C902 C903 1.355 . S
C902 C904 1.415 . S
C903 C902 1.355 . S
C903 C905 1.419 . S
C904 C902 1.415 . S
C904 C909 1.425 . S
C904 C911 1.409 . S
C905 H897 0.930 . S
C905 C903 1.419 . S
C905 C906 1.362 . S
C906 H898 0.930 . S
C906 C905 1.362 . S
C906 C909 1.409 . S
C907 H899 0.930 . S
C907 C908 1.355 . S
C907 C909 1.415 . S
C908 C907 1.355 . S
C908 C910 1.419 . S
C909 C904 1.425 . S
C909 C906 1.409 . S
C909 C907 1.415 . S
C910 H900 0.930 . S
C910 C908 1.419 . S
C910 C911 1.362 . S
C911 H901 0.930 . S
C911 C904 1.409 . S
C911 C910 1.362 . S
H912 C918 0.930 . S
H913 C921 0.930 . S
H914 C922 0.930 . S
H915 C923 0.930 . S
H916 C926 0.930 . S
H917 C927 0.930 . S
C918 H912 0.930 . S
C918 C919 1.355 . S
C918 C920 1.415 . S
C919 C918 1.355 . S
C919 C921 1.419 . S
C920 C918 1.415 . S
C920 C925 1.425 . S
C920 C927 1.409 . S
C921 H913 0.930 . S
C921 C919 1.419 . S
C921 C922 1.362 . S
C922 H914 0.930 . S
C922 C921 1.362 . S
C922 C925 1.409 . S
C923 H915 0.930 . S
C923 C924 1.355 . S
C923 C925 1.415 . S
C924 C923 1.355 . S
C924 C926 1.419 . S
C925 C920 1.425 . S
C925 C922 1.409 . S
C925 C923 1.415 . S
C926 H916 0.930 . S
C926 C924 1.419 . S
C926 C927 1.362 . S
C927 H917 0.930 . S
C927 C920 1.409 . S
C927 C926 1.362 . S
H928 C934 0.930 . S
H929 C937 0.930 . S
H930 C938 0.930 . S
H931 C939 0.930 . S
H932 C942 0.930 . S
H933 C943 0.930 . S
C934 H928 0.930 . S
C934 C935 1.355 . S
C934 C936 1.415 . S
C935 C934 1.355 . S
C935 C937 1.419 . S
C936 C934 1.415 . S
C936 C941 1.425 . S
C936 C943 1.409 . S
C937 H929 0.930 . S
C937 C935 1.419 . S
C937 C938 1.362 . S
C938 H930 0.930 . S
C938 C937 1.362 . S
C938 C941 1.409 . S
C939 H931 0.930 . S
C939 C940 1.355 . S
C939 C941 1.415 . S
C940 C939 1.355 . S
C940 C942 1.419 . S
C941 C936 1.425 . S
C941 C938 1.409 . S
C941 C939 1.415 . S
C942 H932 0.930 . S
C942 C940 1.419 . S
C942 C943 1.362 . S
C943 H933 0.930 . S
C943 C936 1.409 . S
C943 C942 1.362 . S
H944 C950 0.930 . S
H945 C953 0.930 . S
H946 C954 0.930 . S
H947 C955 0.930 . S
H948 C958 0.930 . S
H949 C959 0.930 . S
C950 H944 0.930 . S
C950 C951 1.355 . S
C950 C952 1.415 . S
C951 C950 1.355 . S
C951 C953 1.419 . S
C952 C950 1.415 . S
C952 C957 1.425 . S
C952 C959 1.409 . S
C953 H945 0.930 . S
C953 C951 1.419 . S
C953 C954 1.362 . S
C954 H946 0.930 . S
C954 C953 1.362 . S
C954 C957 1.409 . S
C955 H947 0.930 . S
C955 C956 1.355 . S
C955 C957 1.415 . S
C956 C955 1.355 . S
C956 C958 1.419 . S
C957 C952 1.425 . S
C957 C954 1.409 . S
C957 C955 1.415 . S
C958 H948 0.930 . S
C958 C956 1.419 . S
C958 C959 1.362 . S
C959 H949 0.930 . S
C959 C952 1.409 . S
C959 C958 1.362 . S
H960 C966 0.930 . S
H961 C969 0.930 . S
H962 C970 0.930 . S
H963 C971 0.930 . S
H964 C974 0.930 . S
H965 C975 0.930 . S
C966 H960 0.930 . S
C966 C967 1.355 . S
C966 C968 1.415 . S
C967 C966 1.355 . S
C967 C969 1.419 . S
C968 C966 1.415 . S
C968 C973 1.425 . S
C968 C975 1.409 . S
C969 H961 0.930 . S
C969 C967 1.419 . S
C969 C970 1.362 . S
C970 H962 0.930 . S
C970 C969 1.362 . S
C970 C973 1.409 . S
C971 H963 0.930 . S
C971 C972 1.355 . S
C971 C973 1.415 . S
C972 C971 1.355 . S
C972 C974 1.419 . S
C973 C968 1.425 . S
C973 C970 1.409 . S
C973 C971 1.415 . S
C974 H964 0.930 . S
C974 C972 1.419 . S
C974 C975 1.362 . S
C975 H965 0.930 . S
C975 C968 1.409 . S
C975 C974 1.362 . S
H976 C982 0.930 . S
H977 C985 0.930 . S
H978 C986 0.930 . S
H979 C987 0.930 . S
H980 C990 0.930 . S
H981 C991 0.930 . S
C982 H976 0.930 . S
C982 C983 1.355 . S
C982 C984 1.415 . S
C983 C982 1.355 . S
C983 C985 1.419 . S
C984 C982 1.415 . S
C984 C989 1.425 . S
C984 C991 1.409 . S
C985 H977 0.930 . S
C985 C983 1.419 . S
C985 C986 1.362 . S
C986 H978 0.930 . S
C986 C985 1.362 . S
C986 C989 1.409 . S
C987 H979 0.930 . S
C987 C988 1.355 . S
C987 C989 1.415 . S
C988 C987 1.355 . S
C988 C990 1.419 . S
C989 C984 1.425 . S
C989 C986 1.409 . S
C989 C987 1.415 . S
C990 H980 0.930 . S
C990 C988 1.419 . S
C990 C991 1.362 . S
C991 H981 0.930 . S
C991 C984 1.409 . S
C991 C990 1.362 . S
H992 C998 0.930 . S
H993 C1001 0.930 . S
H994 C1002 0.930 . S
H995 C1003 0.930 . S
H996 C1006 0.930 . S
H997 C1007 0.930 . S
C998 H992 0.930 . S
C998 C999 1.355 . S
C998 C1000 1.415 . S
C999 C998 1.355 . S
C999 C1001 1.419 . S
C1000 C998 1.415 . S
C1000 C1005 1.425 . S
C1000 C1007 1.409 . S
C1001 H993 0.930 . S
C1001 C999 1.419 . S
C1001 C1002 1.362 . S
C1002 H994 0.930 . S
C1002 C1001 1.362 . S
C1002 C1005 1.409 . S
C1003 H995 0.930 . S
C1003 C1004 1.355 . S
C1003 C1005 1.415 . S
C1004 C1003 1.355 . S
C1004 C1006 1.419 . S
C1005 C1000 1.425 . S
C1005 C1002 1.409 . S
C1005 C1003 1.415 . S
C1006 H996 0.930 . S
C1006 C1004 1.419 . S
C1006 C1007 1.362 . S
C1007 H997 0.930 . S
C1007 C1000 1.409 . S
C1007 C1006 1.362 . S
H1008 C1014 0.930 . S
H1009 C1017 0.930 . S
H1010 C1018 0.930 . S
H1011 C1019 0.930 . S
H1012 C1022 0.930 . S
H1013 C1023 0.930 . S
C1014 H1008 0.930 . S
C1014 C1015 1.355 . S
C1014 C1016 1.415 . S
C1015 C1014 1.355 . S
C1015 C1017 1.419 . S
C1016 C1014 1.415 . S
C1016 C1021 1.425 . S
C1016 C1023 1.409 . S
C1017 H1009 0.930 . S
C1017 C1015 1.419 . S
C1017 C1018 1.362 . S
C1018 H1010 0.930 . S
C1018 C1017 1.362 . S
C1018 C1021 1.409 . S
C1019 H1011 0.930 . S
C1019 C1020 1.355 . S
C1019 C1021 1.415 . S
C1020 C1019 1.355 . S
C1020 C1022 1.419 . S
C1021 C1016 1.425 . S
C1021 C1018 1.409 . S
C1021 C1019 1.415 . S
C1022 H1012 0.930 . S
C1022 C1020 1.419 . S
C1022 C1023 1.362 . S
C1023 H1013 0.930 . S
C1023 C1016 1.409 . S
C1023 C1022 1.362 . S
H1024 C1030 0.930 . S
H1025 C1033 0.908 1_545 S
H1026 C1034 0.930 . S
H1027 C1035 0.930 . S
H1028 C1038 0.930 . S
H1029 C1039 0.930 . S
C1030 H1024 0.930 . S
C1030 C1031 1.355 . S
C1030 C1032 1.415 . S
C1031 C1030 1.355 . S
C1031 C1033 1.430 . S
C1032 C1030 1.415 . S
C1032 C1037 1.425 . S
C1032 C1039 1.409 . S
C1033 H1025 0.908 1_565 S
C1033 C1031 1.430 . S
C1033 C1034 1.374 . S
C1034 H1026 0.930 . S
C1034 C1033 1.374 . S
C1034 C1037 1.409 . S
C1035 H1027 0.930 . S
C1035 C1036 1.355 . S
C1035 C1037 1.415 . S
C1036 C1035 1.355 . S
C1036 C1038 1.419 . S
C1037 C1032 1.425 . S
C1037 C1034 1.409 . S
C1037 C1035 1.415 . S
C1038 H1028 0.930 . S
C1038 C1036 1.419 . S
C1038 C1039 1.362 . S
C1039 H1029 0.930 . S
C1039 C1032 1.409 . S
C1039 C1038 1.362 . S
H1040 C1046 0.930 . S
H1041 C1049 0.930 . S
H1042 C1050 0.930 . S
H1043 C1051 0.930 . S
H1044 C1054 0.930 . S
H1045 C1055 0.930 . S
C1046 H1040 0.930 . S
C1046 C1047 1.355 . S
C1046 C1048 1.415 . S
C1047 C1046 1.355 . S
C1047 C1049 1.419 . S
C1048 C1046 1.415 . S
C1048 C1053 1.425 . S
C1048 C1055 1.409 . S
C1049 H1041 0.930 . S
C1049 C1047 1.419 . S
C1049 C1050 1.362 . S
C1050 H1042 0.930 . S
C1050 C1049 1.362 . S
C1050 C1053 1.409 . S
C1051 H1043 0.930 . S
C1051 C1052 1.355 . S
C1051 C1053 1.415 . S
C1052 C1051 1.355 . S
C1052 C1054 1.419 . S
C1053 C1048 1.425 . S
C1053 C1050 1.409 . S
C1053 C1051 1.415 . S
C1054 H1044 0.930 . S
C1054 C1052 1.419 . S
C1054 C1055 1.362 . S
C1055 H1045 0.930 . S
C1055 C1048 1.409 . S
C1055 C1054 1.362 . S
H1056 C1062 0.930 . S
H1057 C1065 0.930 . S
H1058 C1066 0.930 . S
H1059 C1067 0.930 . S
H1060 C1070 0.930 . S
H1061 C1071 0.930 1_556 S
C1062 H1056 0.930 . S
C1062 C1063 1.355 . S
C1062 C1064 1.415 1_556 S
C1063 C1062 1.355 . S
C1063 C1065 1.419 1_556 S
C1064 C1062 1.415 1_554 S
C1064 C1069 1.425 . S
C1064 C1071 1.409 . S
C1065 H1057 0.930 . S
C1065 C1063 1.419 1_554 S
C1065 C1066 1.362 . S
C1066 H1058 0.930 . S
C1066 C1065 1.362 . S
C1066 C1069 1.409 . S
C1067 H1059 0.930 . S
C1067 C1068 1.355 . S
C1067 C1069 1.415 . S
C1068 C1067 1.355 . S
C1068 C1070 1.419 . S
C1069 C1064 1.425 . S
C1069 C1066 1.409 . S
C1069 C1067 1.415 . S
C1070 H1060 0.930 . S
C1070 C1068 1.419 . S
C1070 C1071 1.362 . S
C1071 H1061 0.930 1_554 S
C1071 C1064 1.409 . S
C1071 C1070 1.362 . S
H1072 C1078 0.930 . S
H1073 C1081 0.930 . S
H1074 C1082 0.930 . S
H1075 C1083 0.930 . S
H1076 C1086 0.930 . S
H1077 C1087 0.930 . S
C1078 H1072 0.930 . S
C1078 C1079 1.355 . S
C1078 C1080 1.415 . S
C1079 C1078 1.355 . S
C1079 C1081 1.419 . S
C1080 C1078 1.415 . S
C1080 C1085 1.425 . S
C1080 C1087 1.409 . S
C1081 H1073 0.930 . S
C1081 C1079 1.419 . S
C1081 C1082 1.362 . S
C1082 H1074 0.930 . S
C1082 C1081 1.362 . S
C1082 C1085 1.409 . S
C1083 H1075 0.930 . S
C1083 C1084 1.355 . S
C1083 C1085 1.415 . S
C1084 C1083 1.355 . S
C1084 C1086 1.419 . S
C1085 C1080 1.425 . S
C1085 C1082 1.409 . S
C1085 C1083 1.415 . S
C1086 H1076 0.930 . S
C1086 C1084 1.419 . S
C1086 C1087 1.362 . S
C1087 H1077 0.930 . S
C1087 C1080 1.409 . S
C1087 C1086 1.362 . S
H1088 C1094 0.930 . S
H1089 C1097 0.930 . S
H1090 C1098 0.930 . S
H1091 C1099 0.930 . S
H1092 C1102 0.930 . S
H1093 C1103 0.930 . S
C1094 H1088 0.930 . S
C1094 C1095 1.355 . S
C1094 C1096 1.415 . S
C1095 C1094 1.355 . S
C1095 C1097 1.419 . S
C1096 C1094 1.415 . S
C1096 C1101 1.425 . S
C1096 C1103 1.409 . S
C1097 H1089 0.930 . S
C1097 C1095 1.419 . S
C1097 C1098 1.362 . S
C1098 H1090 0.930 . S
C1098 C1097 1.362 . S
C1098 C1101 1.409 . S
C1099 H1091 0.930 . S
C1099 C1100 1.355 . S
C1099 C1101 1.415 . S
C1100 C1099 1.355 . S
C1100 C1102 1.419 . S
C1101 C1096 1.425 . S
C1101 C1098 1.409 . S
C1101 C1099 1.415 . S
C1102 H1092 0.930 . S
C1102 C1100 1.419 . S
C1102 C1103 1.362 . S
C1103 H1093 0.930 . S
C1103 C1096 1.409 . S
C1103 C1102 1.362 . S
H1104 C1110 0.930 . S
H1105 C1113 0.930 . S
H1106 C1114 0.930 . S
H1107 C1115 0.930 . S
H1108 C1118 0.930 . S
H1109 C1119 0.930 . S
C1110 H1104 0.930 . S
C1110 C1111 1.355 . S
C1110 C1112 1.415 . S
C1111 C1110 1.355 . S
C1111 C1113 1.419 . S
C1112 C1110 1.415 . S
C1112 C1117 1.425 . S
C1112 C1119 1.409 . S
C1113 H1105 0.930 . S
C1113 C1111 1.419 . S
C1113 C1114 1.362 . S
C1114 H1106 0.930 . S
C1114 C1113 1.362 . S
C1114 C1117 1.409 . S
C1115 H1107 0.930 . S
C1115 C1116 1.355 . S
C1115 C1117 1.415 . S
C1116 C1115 1.355 . S
C1116 C1118 1.419 . S
C1117 C1112 1.425 . S
C1117 C1114 1.409 . S
C1117 C1115 1.415 . S
C1118 H1108 0.930 . S
C1118 C1116 1.419 . S
C1118 C1119 1.362 . S
C1119 H1109 0.930 . S
C1119 C1112 1.409 . S
C1119 C1118 1.362 . S
H1120 C1126 0.930 . S
H1121 C1129 0.930 . S
H1122 C1130 0.930 1_565 S
H1123 C1131 0.930 . S
H1124 C1134 0.930 . S
H1125 C1135 0.930 1_554 S
C1126 H1120 0.930 . S
C1126 C1127 1.355 . S
C1126 C1128 1.415 1_554 S
C1127 C1126 1.355 . S
C1127 C1129 1.419 1_544 S
C1128 C1126 1.415 1_556 S
C1128 C1133 1.425 . S
C1128 C1135 1.409 . S
C1129 H1121 0.930 . S
C1129 C1127 1.419 1_566 S
C1129 C1130 1.362 1_565 S
C1130 H1122 0.930 1_545 S
C1130 C1129 1.362 1_545 S
C1130 C1133 1.409 . S
C1131 H1123 0.930 . S
C1131 C1132 1.355 . S
C1131 C1133 1.415 . S
C1132 C1131 1.355 . S
C1132 C1134 1.419 . S
C1133 C1128 1.425 . S
C1133 C1130 1.409 . S
C1133 C1131 1.415 . S
C1134 H1124 0.930 . S
C1134 C1132 1.419 . S
C1134 C1135 1.362 . S
C1135 H1125 0.930 1_556 S
C1135 C1128 1.409 . S
C1135 C1134 1.362 . S
H1136 C1142 0.930 . S
H1137 C1145 0.930 . S
H1138 C1146 0.930 . S
H1139 C1147 0.930 . S
H1140 C1150 0.930 . S
H1141 C1151 0.930 . S
C1142 H1136 0.930 . S
C1142 C1143 1.355 . S
C1142 C1144 1.415 . S
C1143 C1142 1.355 . S
C1143 C1145 1.419 . S
C1144 C1142 1.415 . S
C1144 C1149 1.425 . S
C1144 C1151 1.409 . S
C1145 H1137 0.930 . S
C1145 C1143 1.419 . S
C1145 C1146 1.362 . S
C1146 H1138 0.930 . S
C1146 C1145 1.362 . S
C1146 C1149 1.409 . S
C1147 H1139 0.930 . S
C1147 C1148 1.355 . S
C1147 C1149 1.415 . S
C1148 C1147 1.355 . S
C1148 C1150 1.419 . S
C1149 C1144 1.425 . S
C1149 C1146 1.409 . S
C1149 C1147 1.415 . S
C1150 H1140 0.930 . S
C1150 C1148 1.419 . S
C1150 C1151 1.362 . S
C1151 H1141 0.930 . S
C1151 C1144 1.409 . S
C1151 C1150 1.362 . S
H1152 C1158 0.930 . S
H1153 C1161 0.930 . S
H1154 C1162 0.930 . S
H1155 C1163 0.930 . S
H1156 C1166 0.930 . S
H1157 C1167 0.930 1_565 S
C1158 H1152 0.930 . S
C1158 C1159 1.355 . S
C1158 C1160 1.415 1_565 S
C1159 C1158 1.355 . S
C1159 C1161 1.419 1_565 S
C1160 C1158 1.415 1_545 S
C1160 C1165 1.425 . S
C1160 C1167 1.409 . S
C1161 H1153 0.930 . S
C1161 C1159 1.419 1_545 S
C1161 C1162 1.362 . S
C1162 H1154 0.930 . S
C1162 C1161 1.362 . S
C1162 C1165 1.409 . S
C1163 H1155 0.930 . S
C1163 C1164 1.355 . S
C1163 C1165 1.415 . S
C1164 C1163 1.355 . S
C1164 C1166 1.419 . S
C1165 C1160 1.425 . S
C1165 C1162 1.409 . S
C1165 C1163 1.415 . S
C1166 H1156 0.930 . S
C1166 C1164 1.419 . S
C1166 C1167 1.362 . S
C1167 H1157 0.930 1_545 S
C1167 C1160 1.409 . S
C1167 C1166 1.362 . S
H1168 C1174 0.930 . S
H1169 C1177 0.930 . S
H1170 C1178 0.930 . S
H1171 C1179 0.930 . S
H1172 C1182 0.930 . S
H1173 C1183 0.930 . S
C1174 H1168 0.930 . S
C1174 C1175 1.355 . S
C1174 C1176 1.415 . S
C1175 C1174 1.355 . S
C1175 C1177 1.419 . S
C1176 C1174 1.415 . S
C1176 C1181 1.425 . S
C1176 C1183 1.409 . S
C1177 H1169 0.930 . S
C1177 C1175 1.419 . S
C1177 C1178 1.362 . S
C1178 H1170 0.930 . S
C1178 C1177 1.362 . S
C1178 C1181 1.409 . S
C1179 H1171 0.930 . S
C1179 C1180 1.355 . S
C1179 C1181 1.415 . S
C1180 C1179 1.355 . S
C1180 C1182 1.419 . S
C1181 C1176 1.425 . S
C1181 C1178 1.409 . S
C1181 C1179 1.415 . S
C1182 H1172 0.930 . S
C1182 C1180 1.419 . S
C1182 C1183 1.362 . S
C1183 H1173 0.930 . S
C1183 C1176 1.409 . S
C1183 C1182 1.362 . S
H1184 C1190 0.930 . S
H1185 C1193 0.930 . S
H1186 C1194 0.930 . S
H1187 C1195 0.930 . S
H1188 C1198 0.930 . S
H1189 C1199 0.930 . S
C1190 H1184 0.930 . S
C1190 C1191 1.355 1_565 S
C1190 C1192 1.415 . S
C1191 C1190 1.355 1_545 S
C1191 C1193 1.419 . S
C1192 C1190 1.415 . S
C1192 C1197 1.425 . S
C1192 C1199 1.409 . S
C1193 H1185 0.930 . S
C1193 C1191 1.419 . S
C1193 C1194 1.362 . S
C1194 H1186 0.930 . S
C1194 C1193 1.362 . S
C1194 C1197 1.409 1_545 S
C1195 H1187 0.930 . S
C1195 C1196 1.355 . S
C1195 C1197 1.415 . S
C1196 C1195 1.355 . S
C1196 C1198 1.419 . S
C1197 C1192 1.425 . S
C1197 C1194 1.409 1_565 S
C1197 C1195 1.415 . S
C1198 H1188 0.930 . S
C1198 C1196 1.419 . S
C1198 C1199 1.362 . S
C1199 H1189 0.930 . S
C1199 C1192 1.409 . S
C1199 C1198 1.362 . S
H1200 C1206 0.930 . S
H1201 C1209 0.930 . S
H1202 C1210 0.930 . S
H1203 C1211 0.930 . S
H1204 C1214 0.930 . S
H1205 C1215 0.930 . S
C1206 H1200 0.930 . S
C1206 C1207 1.355 . S
C1206 C1208 1.415 . S
C1207 C1206 1.355 . S
C1207 C1209 1.419 . S
C1208 C1206 1.415 . S
C1208 C1213 1.425 . S
C1208 C1215 1.409 . S
C1209 H1201 0.930 . S
C1209 C1207 1.419 . S
C1209 C1210 1.362 . S
C1210 H1202 0.930 . S
C1210 C1209 1.362 . S
C1210 C1213 1.409 . S
C1211 H1203 0.930 . S
C1211 C1212 1.355 . S
C1211 C1213 1.415 . S
C1212 C1211 1.355 . S
C1212 C1214 1.419 . S
C1213 C1208 1.425 . S
C1213 C1210 1.409 . S
C1213 C1211 1.415 . S
C1214 H1204 0.930 . S
C1214 C1212 1.419 . S
C1214 C1215 1.362 . S
C1215 H1205 0.930 . S
C1215 C1208 1.409 . S
C1215 C1214 1.362 . S
H1216 C1222 0.930 . S
H1217 C1225 0.930 . S
H1218 C1226 0.930 . S
H1219 C1227 0.930 . S
H1220 C1230 0.930 . S
H1221 C1231 0.930 1_565 S
C1222 H1216 0.930 . S
C1222 C1223 1.355 . S
C1222 C1224 1.415 1_565 S
C1223 C1222 1.355 . S
C1223 C1225 1.419 1_565 S
C1224 C1222 1.415 1_545 S
C1224 C1229 1.425 . S
C1224 C1231 1.409 . S
C1225 H1217 0.930 . S
C1225 C1223 1.419 1_545 S
C1225 C1226 1.362 . S
C1226 H1218 0.930 . S
C1226 C1225 1.362 . S
C1226 C1229 1.409 . S
C1227 H1219 0.930 . S
C1227 C1228 1.355 . S
C1227 C1229 1.415 . S
C1228 C1227 1.355 . S
C1228 C1230 1.419 . S
C1229 C1224 1.425 . S
C1229 C1226 1.409 . S
C1229 C1227 1.415 . S
C1230 H1220 0.930 . S
C1230 C1228 1.419 . S
C1230 C1231 1.362 . S
C1231 H1221 0.930 1_545 S
C1231 C1224 1.409 . S
C1231 C1230 1.362 . S
H1232 C1238 0.930 . S
H1233 C1241 0.930 . S
H1234 C1242 0.930 . S
H1235 C1243 0.930 . S
H1236 C1246 0.930 . S
H1237 C1247 0.930 . S
C1238 H1232 0.930 . S
C1238 C1239 1.355 . S
C1238 C1240 1.415 . S
C1239 C1238 1.355 . S
C1239 C1241 1.419 . S
C1240 C1238 1.415 . S
C1240 C1245 1.425 . S
C1240 C1247 1.409 . S
C1241 H1233 0.930 . S
C1241 C1239 1.419 . S
C1241 C1242 1.362 . S
C1242 H1234 0.930 . S
C1242 C1241 1.362 . S
C1242 C1245 1.409 . S
C1243 H1235 0.930 . S
C1243 C1244 1.355 . S
C1243 C1245 1.415 . S
C1244 C1243 1.355 . S
C1244 C1246 1.419 . S
C1245 C1240 1.425 . S
C1245 C1242 1.409 . S
C1245 C1243 1.415 . S
C1246 H1236 0.930 . S
C1246 C1244 1.419 . S
C1246 C1247 1.362 . S
C1247 H1237 0.930 . S
C1247 C1240 1.409 . S
C1247 C1246 1.362 . S
H1248 C1254 0.930 . S
H1249 C1257 0.930 . S
H1250 C1258 0.930 . S
H1251 C1259 0.930 . S
H1252 C1262 0.930 . S
H1253 C1263 0.930 1_655 S
C1254 H1248 0.930 . S
C1254 C1255 1.355 . S
C1254 C1256 1.415 . S
C1255 C1254 1.355 . S
C1255 C1257 1.419 . S
C1256 C1254 1.415 . S
C1256 C1261 1.425 . S
C1256 C1263 1.409 . S
C1257 H1249 0.930 . S
C1257 C1255 1.419 . S
C1257 C1258 1.362 . S
C1258 H1250 0.930 . S
C1258 C1257 1.362 . S
C1258 C1261 1.409 . S
C1259 H1251 0.930 . S
C1259 C1260 1.355 . S
C1259 C1261 1.415 1_545 S
C1260 C1259 1.355 . S
C1260 C1262 1.419 1_455 S
C1261 C1256 1.425 . S
C1261 C1258 1.409 . S
C1261 C1259 1.415 1_565 S
C1262 H1252 0.930 . S
C1262 C1260 1.419 1_655 S
C1262 C1263 1.362 1_645 S
C1263 H1253 0.930 1_455 S
C1263 C1256 1.409 . S
C1263 C1262 1.362 1_465 S
H1264 C1270 0.930 . S
H1265 C1273 0.930 . S
H1266 C1274 0.930 . S
H1267 C1275 0.930 . S
H1268 C1278 0.930 . S
H1269 C1279 0.930 . S
C1270 H1264 0.930 . S
C1270 C1271 1.355 . S
C1270 C1272 1.415 . S
C1271 C1270 1.355 . S
C1271 C1273 1.419 . S
C1272 C1270 1.415 . S
C1272 C1277 1.425 . S
C1272 C1279 1.409 . S
C1273 H1265 0.930 . S
C1273 C1271 1.419 . S
C1273 C1274 1.362 . S
C1274 H1266 0.930 . S
C1274 C1273 1.362 . S
C1274 C1277 1.409 . S
C1275 H1267 0.930 . S
C1275 C1276 1.355 . S
C1275 C1277 1.415 . S
C1276 C1275 1.355 . S
C1276 C1278 1.419 . S
C1277 C1272 1.425 . S
C1277 C1274 1.409 . S
C1277 C1275 1.415 . S
C1278 H1268 0.930 . S
C1278 C1276 1.419 . S
C1278 C1279 1.362 . S
C1279 H1269 0.930 . S
C1279 C1272 1.409 . S
C1279 C1278 1.362 . S
H1280 C1286 0.930 . S
H1281 C1289 0.930 . S
H1282 C1290 0.930 . S
H1283 C1291 0.930 . S
H1284 C1294 0.930 . S
H1285 C1295 0.930 . S
C1286 H1280 0.930 . S
C1286 C1287 1.355 . S
C1286 C1288 1.415 . S
C1287 C1286 1.355 . S
C1287 C1289 1.419 . S
C1288 C1286 1.415 . S
C1288 C1293 1.425 . S
C1288 C1295 1.409 . S
C1289 H1281 0.930 . S
C1289 C1287 1.419 . S
C1289 C1290 1.362 . S
C1290 H1282 0.930 . S
C1290 C1289 1.362 . S
C1290 C1293 1.409 . S
C1291 H1283 0.930 . S
C1291 C1292 1.355 . S
C1291 C1293 1.415 . S
C1292 C1291 1.355 . S
C1292 C1294 1.419 . S
C1293 C1288 1.425 . S
C1293 C1290 1.409 . S
C1293 C1291 1.415 . S
C1294 H1284 0.930 . S
C1294 C1292 1.419 . S
C1294 C1295 1.362 . S
C1295 H1285 0.930 . S
C1295 C1288 1.409 . S
C1295 C1294 1.362 . S
H1296 C1302 0.930 . S
H1297 C1305 0.924 1_556 S
H1298 C1306 0.930 . S
H1299 C1307 0.930 . S
H1300 C1310 0.930 . S
H1301 C1311 0.887 1_655 S
C1302 H1296 0.930 . S
C1302 C1303 1.355 . S
C1302 C1304 1.415 1_655 S
C1303 C1302 1.355 . S
C1303 C1305 1.422 1_655 S
C1304 C1302 1.415 1_455 S
C1304 C1309 1.425 . S
C1304 C1311 1.417 . S
C1305 H1297 0.924 1_554 S
C1305 C1303 1.422 1_455 S
C1305 C1306 1.365 . S
C1306 H1298 0.930 . S
C1306 C1305 1.365 . S
C1306 C1309 1.409 . S
C1307 H1299 0.930 . S
C1307 C1308 1.355 . S
C1307 C1309 1.415 . S
C1308 C1307 1.355 . S
C1308 C1310 1.419 . S
C1309 C1304 1.425 . S
C1309 C1306 1.409 . S
C1309 C1307 1.415 . S
C1310 H1300 0.930 . S
C1310 C1308 1.419 . S
C1310 C1311 1.397 . S
C1311 H1301 0.887 1_455 S
C1311 C1304 1.417 . S
C1311 C1310 1.397 . S
H1312 C1318 0.930 . S
H1313 C1321 0.930 . S
H1314 C1322 0.930 . S
H1315 C1323 0.930 . S
H1316 C1326 0.930 . S
H1317 C1327 0.930 . S
C1318 H1312 0.930 . S
C1318 C1319 1.355 . S
C1318 C1320 1.415 . S
C1319 C1318 1.355 . S
C1319 C1321 1.419 . S
C1320 C1318 1.415 . S
C1320 C1325 1.425 . S
C1320 C1327 1.409 . S
C1321 H1313 0.930 . S
C1321 C1319 1.419 . S
C1321 C1322 1.362 . S
C1322 H1314 0.930 . S
C1322 C1321 1.362 . S
C1322 C1325 1.409 . S
C1323 H1315 0.930 . S
C1323 C1324 1.355 . S
C1323 C1325 1.415 . S
C1324 C1323 1.355 . S
C1324 C1326 1.419 . S
C1325 C1320 1.425 . S
C1325 C1322 1.409 . S
C1325 C1323 1.415 . S
C1326 H1316 0.930 . S
C1326 C1324 1.419 . S
C1326 C1327 1.362 . S
C1327 H1317 0.930 . S
C1327 C1320 1.409 . S
C1327 C1326 1.362 . S
H1328 C1334 0.930 1_556 S
H1329 C1337 0.930 . S
H1330 C1338 0.930 . S
H1331 C1339 0.930 . S
H1332 C1342 0.930 . S
H1333 C1343 0.930 . S
C1334 H1328 0.930 1_554 S
C1334 C1335 1.355 1_655 S
C1334 C1336 1.415 . S
C1335 C1334 1.355 1_455 S
C1335 C1337 1.419 . S
C1336 C1334 1.415 . S
C1336 C1341 1.425 . S
C1336 C1343 1.409 . S
C1337 H1329 0.930 . S
C1337 C1335 1.419 . S
C1337 C1338 1.362 . S
C1338 H1330 0.930 . S
C1338 C1337 1.362 . S
C1338 C1341 1.409 1_455 S
C1339 H1331 0.930 . S
C1339 C1340 1.355 . S
C1339 C1341 1.415 . S
C1340 C1339 1.355 . S
C1340 C1342 1.419 . S
C1341 C1336 1.425 . S
C1341 C1338 1.409 1_655 S
C1341 C1339 1.415 . S
C1342 H1332 0.930 . S
C1342 C1340 1.419 . S
C1342 C1343 1.362 . S
C1343 H1333 0.930 . S
C1343 C1336 1.409 . S
C1343 C1342 1.362 . S
H1344 C1350 0.930 . S
H1345 C1353 0.930 . S
H1346 C1354 0.930 . S
H1347 C1355 0.930 . S
H1348 C1358 0.930 . S
H1349 C1359 0.930 . S
C1350 H1344 0.930 . S
C1350 C1351 1.355 . S
C1350 C1352 1.415 . S
C1351 C1350 1.355 . S
C1351 C1353 1.419 . S
C1352 C1350 1.415 . S
C1352 C1357 1.425 . S
C1352 C1359 1.409 . S
C1353 H1345 0.930 . S
C1353 C1351 1.419 . S
C1353 C1354 1.362 . S
C1354 H1346 0.930 . S
C1354 C1353 1.362 . S
C1354 C1357 1.409 . S
C1355 H1347 0.930 . S
C1355 C1356 1.355 . S
C1355 C1357 1.415 . S
C1356 C1355 1.355 . S
C1356 C1358 1.419 . S
C1357 C1352 1.425 . S
C1357 C1354 1.409 . S
C1357 C1355 1.415 . S
C1358 H1348 0.930 . S
C1358 C1356 1.419 . S
C1358 C1359 1.362 . S
C1359 H1349 0.930 . S
C1359 C1352 1.409 . S
C1359 C1358 1.362 . S
H1360 C1366 0.930 . S
H1361 C1369 0.930 . S
H1362 C1370 0.930 . S
H1363 C1371 0.930 . S
H1364 C1374 0.930 . S
H1365 C1375 0.930 . S
C1366 H1360 0.930 . S
C1366 C1367 1.355 1_455 S
C1366 C1368 1.415 . S
C1367 C1366 1.355 1_655 S
C1367 C1369 1.419 . S
C1368 C1366 1.415 . S
C1368 C1373 1.425 . S
C1368 C1375 1.409 . S
C1369 H1361 0.930 . S
C1369 C1367 1.419 . S
C1369 C1370 1.362 . S
C1370 H1362 0.930 . S
C1370 C1369 1.362 . S
C1370 C1373 1.409 1_655 S
C1371 H1363 0.930 . S
C1371 C1372 1.355 . S
C1371 C1373 1.415 . S
C1372 C1371 1.355 . S
C1372 C1374 1.419 . S
C1373 C1368 1.425 . S
C1373 C1370 1.409 1_455 S
C1373 C1371 1.415 . S
C1374 H1364 0.930 . S
C1374 C1372 1.419 . S
C1374 C1375 1.362 . S
C1375 H1365 0.930 . S
C1375 C1368 1.409 . S
C1375 C1374 1.362 . S
H1376 C1382 0.930 . S
H1377 C1385 0.930 . S
H1378 C1386 0.930 . S
H1379 C1387 0.930 . S
H1380 C1390 0.930 . S
H1381 C1391 0.951 . S
C1382 H1376 0.930 . S
C1382 C1383 1.355 . S
C1382 C1384 1.415 . S
C1383 C1382 1.355 . S
C1383 C1385 1.419 . S
C1384 C1382 1.415 . S
C1384 C1389 1.425 . S
C1384 C1391 1.409 . S
C1385 H1377 0.930 . S
C1385 C1383 1.419 . S
C1385 C1386 1.362 . S
C1386 H1378 0.930 . S
C1386 C1385 1.362 . S
C1386 C1389 1.409 . S
C1387 H1379 0.930 . S
C1387 C1388 1.355 . S
C1387 C1389 1.415 . S
C1388 C1387 1.355 . S
C1388 C1390 1.419 1_556 S
C1389 C1384 1.425 . S
C1389 C1386 1.409 . S
C1389 C1387 1.415 . S
C1390 H1380 0.930 . S
C1390 C1388 1.419 1_554 S
C1390 C1391 1.362 1_554 S
C1391 H1381 0.951 . S
C1391 C1384 1.409 . S
C1391 C1390 1.362 1_556 S
H1392 C1398 0.930 . S
H1393 C1401 0.930 . S
H1394 C1402 0.930 . S
H1395 C1403 0.930 . S
H1396 C1406 0.930 . S
H1397 C1407 0.930 . S
C1398 H1392 0.930 . S
C1398 C1399 1.355 . S
C1398 C1400 1.415 . S
C1399 C1398 1.355 . S
C1399 C1401 1.419 . S
C1400 C1398 1.415 . S
C1400 C1405 1.425 . S
C1400 C1407 1.409 . S
C1401 H1393 0.930 . S
C1401 C1399 1.419 . S
C1401 C1402 1.362 . S
C1402 H1394 0.930 . S
C1402 C1401 1.362 . S
C1402 C1405 1.409 . S
C1403 H1395 0.930 . S
C1403 C1404 1.355 . S
C1403 C1405 1.415 . S
C1404 C1403 1.355 . S
C1404 C1406 1.419 . S
C1405 C1400 1.425 . S
C1405 C1402 1.409 . S
C1405 C1403 1.415 . S
C1406 H1396 0.930 . S
C1406 C1404 1.419 . S
C1406 C1407 1.362 . S
C1407 H1397 0.930 . S
C1407 C1400 1.409 . S
C1407 C1406 1.362 . S
H1408 C1414 0.930 . S
H1409 C1417 0.930 . S
H1410 C1418 0.929 1_556 S
H1411 C1419 0.930 . S
H1412 C1422 0.930 . S
H1413 C1423 0.930 . S
C1414 H1408 0.930 . S
C1414 C1415 1.355 . S
C1414 C1416 1.415 . S
C1415 C1414 1.355 . S
C1415 C1417 1.419 . S
C1416 C1414 1.415 . S
C1416 C1421 1.425 . S
C1416 C1423 1.409 . S
C1417 H1409 0.930 . S
C1417 C1415 1.419 . S
C1417 C1418 1.363 . S
C1418 H1410 0.929 1_554 S
C1418 C1417 1.363 . S
C1418 C1421 1.409 . S
C1419 H1411 0.930 . S
C1419 C1420 1.355 . S
C1419 C1421 1.415 1_556 S
C1420 C1419 1.355 . S
C1420 C1422 1.419 1_556 S
C1421 C1416 1.425 . S
C1421 C1418 1.409 . S
C1421 C1419 1.415 1_554 S
C1422 H1412 0.930 . S
C1422 C1420 1.419 1_554 S
C1422 C1423 1.362 . S
C1423 H1413 0.930 . S
C1423 C1416 1.409 . S
C1423 C1422 1.362 . S
H1424 C1430 0.930 . S
H1425 C1433 0.930 . S
H1426 C1434 0.930 . S
H1427 C1435 0.930 . S
H1428 C1438 0.930 . S
H1429 C1439 0.930 . S
C1430 H1424 0.930 . S
C1430 C1431 1.355 . S
C1430 C1432 1.415 . S
C1431 C1430 1.355 . S
C1431 C1433 1.419 . S
C1432 C1430 1.415 . S
C1432 C1437 1.425 . S
C1432 C1439 1.409 . S
C1433 H1425 0.930 . S
C1433 C1431 1.419 . S
C1433 C1434 1.362 . S
C1434 H1426 0.930 . S
C1434 C1433 1.362 . S
C1434 C1437 1.409 . S
C1435 H1427 0.930 . S
C1435 C1436 1.355 . S
C1435 C1437 1.415 . S
C1436 C1435 1.355 . S
C1436 C1438 1.419 . S
C1437 C1432 1.425 . S
C1437 C1434 1.409 . S
C1437 C1435 1.415 . S
C1438 H1428 0.930 . S
C1438 C1436 1.419 . S
C1438 C1439 1.362 . S
C1439 H1429 0.930 . S
C1439 C1432 1.409 . S
C1439 C1438 1.362 . S
H1440 C1446 0.930 . S
H1441 C1449 0.930 . S
H1442 C1450 0.930 . S
H1443 C1451 0.930 . S
H1444 C1454 0.930 . S
H1445 C1455 0.930 . S
C1446 H1440 0.930 . S
C1446 C1447 1.355 . S
C1446 C1448 1.415 . S
C1447 C1446 1.355 . S
C1447 C1449 1.419 . S
C1448 C1446 1.415 . S
C1448 C1453 1.425 . S
C1448 C1455 1.409 . S
C1449 H1441 0.930 . S
C1449 C1447 1.419 . S
C1449 C1450 1.362 . S
C1450 H1442 0.930 . S
C1450 C1449 1.362 . S
C1450 C1453 1.409 . S
C1451 H1443 0.930 . S
C1451 C1452 1.355 . S
C1451 C1453 1.415 . S
C1452 C1451 1.355 . S
C1452 C1454 1.419 . S
C1453 C1448 1.425 . S
C1453 C1450 1.409 . S
C1453 C1451 1.415 . S
C1454 H1444 0.930 . S
C1454 C1452 1.419 . S
C1454 C1455 1.362 . S
C1455 H1445 0.930 . S
C1455 C1448 1.409 . S
C1455 C1454 1.362 . S
H1456 C1462 0.930 . S
H1457 C1465 0.930 . S
H1458 C1466 0.930 . S
H1459 C1467 0.930 . S
H1460 C1470 0.930 . S
H1461 C1471 0.930 . S
C1462 H1456 0.930 . S
C1462 C1463 1.355 . S
C1462 C1464 1.415 . S
C1463 C1462 1.355 . S
C1463 C1465 1.419 . S
C1464 C1462 1.415 . S
C1464 C1469 1.425 . S
C1464 C1471 1.409 . S
C1465 H1457 0.930 . S
C1465 C1463 1.419 . S
C1465 C1466 1.362 . S
C1466 H1458 0.930 . S
C1466 C1465 1.362 . S
C1466 C1469 1.409 . S
C1467 H1459 0.930 . S
C1467 C1468 1.355 . S
C1467 C1469 1.415 . S
C1468 C1467 1.355 . S
C1468 C1470 1.419 . S
C1469 C1464 1.425 . S
C1469 C1466 1.409 . S
C1469 C1467 1.415 . S
C1470 H1460 0.930 . S
C1470 C1468 1.419 . S
C1470 C1471 1.362 . S
C1471 H1461 0.930 . S
C1471 C1464 1.409 . S
C1471 C1470 1.362 . S
H1472 C1478 0.930 . S
H1473 C1481 0.930 . S
H1474 C1482 0.930 . S
H1475 C1483 0.930 . S
H1476 C1486 0.930 . S
H1477 C1487 0.930 . S
C1478 H1472 0.930 . S
C1478 C1479 1.355 . S
C1478 C1480 1.415 . S
C1479 C1478 1.355 . S
C1479 C1481 1.419 . S
C1480 C1478 1.415 . S
C1480 C1485 1.425 . S
C1480 C1487 1.409 1_556 S
C1481 H1473 0.930 . S
C1481 C1479 1.419 . S
C1481 C1482 1.362 . S
C1482 H1474 0.930 . S
C1482 C1481 1.362 . S
C1482 C1485 1.409 . S
C1483 H1475 0.930 . S
C1483 C1484 1.355 1_556 S
C1483 C1485 1.415 . S
C1484 C1483 1.355 1_554 S
C1484 C1486 1.419 . S
C1485 C1480 1.425 . S
C1485 C1482 1.409 . S
C1485 C1483 1.415 . S
C1486 H1476 0.930 . S
C1486 C1484 1.419 . S
C1486 C1487 1.362 . S
C1487 H1477 0.930 . S
C1487 C1480 1.409 1_554 S
C1487 C1486 1.362 . S
H1488 C1494 0.930 . S
H1489 C1497 0.930 . S
H1490 C1498 0.930 . S
H1491 C1499 0.930 . S
H1492 C1502 0.930 . S
H1493 C1503 0.930 . S
C1494 H1488 0.930 . S
C1494 C1495 1.355 . S
C1494 C1496 1.415 . S
C1495 C1494 1.355 . S
C1495 C1497 1.419 . S
C1496 C1494 1.415 . S
C1496 C1501 1.425 . S
C1496 C1503 1.409 . S
C1497 H1489 0.930 . S
C1497 C1495 1.419 . S
C1497 C1498 1.362 . S
C1498 H1490 0.930 . S
C1498 C1497 1.362 . S
C1498 C1501 1.409 . S
C1499 H1491 0.930 . S
C1499 C1500 1.355 . S
C1499 C1501 1.415 . S
C1500 C1499 1.355 . S
C1500 C1502 1.419 . S
C1501 C1496 1.425 . S
C1501 C1498 1.409 . S
C1501 C1499 1.415 . S
C1502 H1492 0.930 . S
C1502 C1500 1.419 . S
C1502 C1503 1.362 . S
C1503 H1493 0.930 . S
C1503 C1496 1.409 . S
C1503 C1502 1.362 . S
H1504 C1510 0.930 . S
H1505 C1513 0.930 . S
H1506 C1514 0.930 . S
H1507 C1515 0.930 . S
H1508 C1518 0.930 . S
H1509 C1519 0.930 . S
C1510 H1504 0.930 . S
C1510 C1511 1.355 . S
C1510 C1512 1.415 . S
C1511 C1510 1.355 . S
C1511 C1513 1.419 . S
C1512 C1510 1.415 . S
C1512 C1517 1.425 . S
C1512 C1519 1.409 . S
C1513 H1505 0.930 . S
C1513 C1511 1.419 . S
C1513 C1514 1.362 . S
C1514 H1506 0.930 . S
C1514 C1513 1.362 . S
C1514 C1517 1.409 . S
C1515 H1507 0.930 . S
C1515 C1516 1.355 . S
C1515 C1517 1.415 . S
C1516 C1515 1.355 . S
C1516 C1518 1.419 . S
C1517 C1512 1.425 . S
C1517 C1514 1.409 . S
C1517 C1515 1.415 . S
C1518 H1508 0.930 . S
C1518 C1516 1.419 . S
C1518 C1519 1.362 . S
C1519 H1509 0.930 . S
C1519 C1512 1.409 . S
C1519 C1518 1.362 . S
H1520 C1526 0.930 . S
H1521 C1529 0.930 . S
H1522 C1530 0.930 . S
H1523 C1531 0.930 . S
H1524 C1534 0.930 . S
H1525 C1535 0.930 . S
C1526 H1520 0.930 . S
C1526 C1527 1.355 . S
C1526 C1528 1.415 . S
C1527 C1526 1.355 . S
C1527 C1529 1.419 . S
C1528 C1526 1.415 . S
C1528 C1533 1.425 . S
C1528 C1535 1.409 . S
C1529 H1521 0.930 . S
C1529 C1527 1.419 . S
C1529 C1530 1.362 . S
C1530 H1522 0.930 . S
C1530 C1529 1.362 . S
C1530 C1533 1.409 . S
C1531 H1523 0.930 . S
C1531 C1532 1.355 . S
C1531 C1533 1.415 . S
C1532 C1531 1.355 . S
C1532 C1534 1.419 . S
C1533 C1528 1.425 . S
C1533 C1530 1.409 . S
C1533 C1531 1.415 . S
C1534 H1524 0.930 . S
C1534 C1532 1.419 . S
C1534 C1535 1.362 . S
C1535 H1525 0.930 . S
C1535 C1528 1.409 . S
C1535 C1534 1.362 . S
H1536 C1542 0.930 . S
H1537 C1545 0.930 . S
H1538 C1546 0.930 . S
H1539 C1547 0.930 . S
H1540 C1550 0.930 . S
H1541 C1551 0.930 . S
C1542 H1536 0.930 . S
C1542 C1543 1.355 . S
C1542 C1544 1.415 . S
C1543 C1542 1.355 . S
C1543 C1545 1.419 . S
C1544 C1542 1.415 . S
C1544 C1549 1.425 . S
C1544 C1551 1.409 . S
C1545 H1537 0.930 . S
C1545 C1543 1.419 . S
C1545 C1546 1.362 . S
C1546 H1538 0.930 . S
C1546 C1545 1.362 . S
C1546 C1549 1.409 . S
C1547 H1539 0.930 . S
C1547 C1548 1.355 . S
C1547 C1549 1.415 . S
C1548 C1547 1.355 . S
C1548 C1550 1.419 . S
C1549 C1544 1.425 . S
C1549 C1546 1.409 . S
C1549 C1547 1.415 . S
C1550 H1540 0.930 . S
C1550 C1548 1.419 . S
C1550 C1551 1.362 . S
C1551 H1541 0.930 . S
C1551 C1544 1.409 . S
C1551 C1550 1.362 . S
H1552 C1558 0.930 . S
H1553 C1561 0.930 . S
H1554 C1562 0.930 . S
H1555 C1563 0.930 . S
H1556 C1566 0.930 . S
H1557 C1567 0.930 . S
C1558 H1552 0.930 . S
C1558 C1559 1.355 . S
C1558 C1560 1.415 . S
C1559 C1558 1.355 . S
C1559 C1561 1.419 . S
C1560 C1558 1.415 . S
C1560 C1565 1.425 . S
C1560 C1567 1.409 . S
C1561 H1553 0.930 . S
C1561 C1559 1.419 . S
C1561 C1562 1.362 . S
C1562 H1554 0.930 . S
C1562 C1561 1.362 . S
C1562 C1565 1.409 . S
C1563 H1555 0.930 . S
C1563 C1564 1.355 . S
C1563 C1565 1.415 . S
C1564 C1563 1.355 . S
C1564 C1566 1.419 . S
C1565 C1560 1.425 . S
C1565 C1562 1.409 . S
C1565 C1563 1.415 . S
C1566 H1556 0.930 . S
C1566 C1564 1.419 . S
C1566 C1567 1.362 . S
C1567 H1557 0.930 . S
C1567 C1560 1.409 . S
C1567 C1566 1.362 . S
H1568 C1574 0.930 . S
H1569 C1577 0.930 . S
H1570 C1578 0.954 . S
H1571 C1579 0.930 . S
H1572 C1582 0.930 . S
H1573 C1583 0.930 . S
C1574 H1568 0.930 . S
C1574 C1575 1.355 . S
C1574 C1576 1.415 . S
C1575 C1574 1.355 . S
C1575 C1577 1.419 1_655 S
C1576 C1574 1.415 . S
C1576 C1581 1.425 . S
C1576 C1583 1.409 . S
C1577 H1569 0.930 . S
C1577 C1575 1.419 1_455 S
C1577 C1578 1.362 1_455 S
C1578 H1570 0.954 . S
C1578 C1577 1.362 1_655 S
C1578 C1581 1.409 . S
C1579 H1571 0.930 . S
C1579 C1580 1.355 . S
C1579 C1581 1.415 . S
C1580 C1579 1.355 . S
C1580 C1582 1.419 . S
C1581 C1576 1.425 . S
C1581 C1578 1.409 . S
C1581 C1579 1.415 . S
C1582 H1572 0.930 . S
C1582 C1580 1.419 . S
C1582 C1583 1.362 . S
C1583 H1573 0.930 . S
C1583 C1576 1.409 . S
C1583 C1582 1.362 . S
H1584 C1590 0.930 . S
H1585 C1593 0.930 . S
H1586 C1594 0.930 . S
H1587 C1595 0.930 . S
H1588 C1598 0.930 . S
H1589 C1599 0.930 . S
C1590 H1584 0.930 . S
C1590 C1591 1.355 . S
C1590 C1592 1.415 . S
C1591 C1590 1.355 . S
C1591 C1593 1.419 . S
C1592 C1590 1.415 . S
C1592 C1597 1.425 . S
C1592 C1599 1.409 . S
C1593 H1585 0.930 . S
C1593 C1591 1.419 . S
C1593 C1594 1.362 . S
C1594 H1586 0.930 . S
C1594 C1593 1.362 . S
C1594 C1597 1.409 . S
C1595 H1587 0.930 . S
C1595 C1596 1.355 . S
C1595 C1597 1.415 . S
C1596 C1595 1.355 . S
C1596 C1598 1.419 . S
C1597 C1592 1.425 . S
C1597 C1594 1.409 . S
C1597 C1595 1.415 . S
C1598 H1588 0.930 . S
C1598 C1596 1.419 . S
C1598 C1599 1.362 . S
C1599 H1589 0.930 . S
C1599 C1592 1.409 . S
C1599 C1598 1.362 . S
H1600 C1606 0.930 . S
H1601 C1609 0.930 . S
H1602 C1610 0.930 . S
H1603 C1611 0.930 . S
H1604 C1614 0.930 . S
H1605 C1615 0.930 . S
C1606 H1600 0.930 . S
C1606 C1607 1.355 . S
C1606 C1608 1.415 . S
C1607 C1606 1.355 . S
C1607 C1609 1.419 . S
C1608 C1606 1.415 . S
C1608 C1613 1.425 . S
C1608 C1615 1.409 . S
C1609 H1601 0.930 . S
C1609 C1607 1.419 . S
C1609 C1610 1.362 . S
C1610 H1602 0.930 . S
C1610 C1609 1.362 . S
C1610 C1613 1.409 . S
C1611 H1603 0.930 . S
C1611 C1612 1.355 . S
C1611 C1613 1.415 . S
C1612 C1611 1.355 . S
C1612 C1614 1.419 . S
C1613 C1608 1.425 . S
C1613 C1610 1.409 . S
C1613 C1611 1.415 . S
C1614 H1604 0.930 . S
C1614 C1612 1.419 . S
C1614 C1615 1.362 . S
C1615 H1605 0.930 . S
C1615 C1608 1.409 . S
C1615 C1614 1.362 . S
H1616 C1622 0.930 . S
H1617 C1625 0.930 . S
H1618 C1626 0.930 . S
H1619 C1627 0.930 . S
H1620 C1630 0.930 . S
H1621 C1631 0.930 . S
C1622 H1616 0.930 . S
C1622 C1623 1.355 . S
C1622 C1624 1.415 . S
C1623 C1622 1.355 . S
C1623 C1625 1.419 . S
C1624 C1622 1.415 . S
C1624 C1629 1.425 . S
C1624 C1631 1.409 . S
C1625 H1617 0.930 . S
C1625 C1623 1.419 . S
C1625 C1626 1.362 . S
C1626 H1618 0.930 . S
C1626 C1625 1.362 . S
C1626 C1629 1.409 . S
C1627 H1619 0.930 . S
C1627 C1628 1.355 . S
C1627 C1629 1.415 . S
C1628 C1627 1.355 . S
C1628 C1630 1.419 . S
C1629 C1624 1.425 . S
C1629 C1626 1.409 . S
C1629 C1627 1.415 . S
C1630 H1620 0.930 . S
C1630 C1628 1.419 . S
C1630 C1631 1.362 . S
C1631 H1621 0.930 . S
C1631 C1624 1.409 . S
C1631 C1630 1.362 . S
H1632 C1638 0.930 . S
H1633 C1641 0.930 . S
H1634 C1642 0.930 . S
H1635 C1643 0.930 . S
H1636 C1646 0.930 . S
H1637 C1647 0.930 . S
C1638 H1632 0.930 . S
C1638 C1639 1.355 . S
C1638 C1640 1.415 . S
C1639 C1638 1.355 . S
C1639 C1641 1.419 . S
C1640 C1638 1.415 . S
C1640 C1645 1.425 . S
C1640 C1647 1.409 . S
C1641 H1633 0.930 . S
C1641 C1639 1.419 . S
C1641 C1642 1.362 . S
C1642 H1634 0.930 . S
C1642 C1641 1.362 . S
C1642 C1645 1.409 . S
C1643 H1635 0.930 . S
C1643 C1644 1.355 . S
C1643 C1645 1.415 . S
C1644 C1643 1.355 . S
C1644 C1646 1.419 . S
C1645 C1640 1.425 . S
C1645 C1642 1.409 . S
C1645 C1643 1.415 . S
C1646 H1636 0.930 . S
C1646 C1644 1.419 . S
C1646 C1647 1.362 . S
C1647 H1637 0.930 . S
C1647 C1640 1.409 . S
C1647 C1646 1.362 . S
H1648 C1654 0.930 . S
H1649 C1657 0.930 . S
H1650 C1658 0.930 . S
H1651 C1659 0.930 . S
H1652 C1662 0.930 . S
H1653 C1663 0.930 . S
C1654 H1648 0.930 . S
C1654 C1655 1.355 . S
C1654 C1656 1.415 . S
C1655 C1654 1.355 . S
C1655 C1657 1.419 . S
C1656 C1654 1.415 . S
C1656 C1661 1.425 . S
C1656 C1663 1.409 . S
C1657 H1649 0.930 . S
C1657 C1655 1.419 . S
C1657 C1658 1.362 . S
C1658 H1650 0.930 . S
C1658 C1657 1.362 . S
C1658 C1661 1.409 . S
C1659 H1651 0.930 . S
C1659 C1660 1.355 . S
C1659 C1661 1.415 . S
C1660 C1659 1.355 . S
C1660 C1662 1.419 . S
C1661 C1656 1.425 . S
C1661 C1658 1.409 . S
C1661 C1659 1.415 . S
C1662 H1652 0.930 . S
C1662 C1660 1.419 . S
C1662 C1663 1.362 . S
C1663 H1653 0.930 . S
C1663 C1656 1.409 . S
C1663 C1662 1.362 . S
H1664 C1670 0.930 . S
H1665 C1673 0.930 . S
H1666 C1674 0.930 . S
H1667 C1675 0.930 . S
H1668 C1678 0.930 . S
H1669 C1679 0.930 . S
C1670 H1664 0.930 . S
C1670 C1671 1.355 . S
C1670 C1672 1.415 . S
C1671 C1670 1.355 . S
C1671 C1673 1.419 . S
C1672 C1670 1.415 . S
C1672 C1677 1.425 . S
C1672 C1679 1.409 . S
C1673 H1665 0.930 . S
C1673 C1671 1.419 . S
C1673 C1674 1.362 . S
C1674 H1666 0.930 . S
C1674 C1673 1.362 . S
C1674 C1677 1.409 . S
C1675 H1667 0.930 . S
C1675 C1676 1.355 . S
C1675 C1677 1.415 . S
C1676 C1675 1.355 . S
C1676 C1678 1.419 . S
C1677 C1672 1.425 . S
C1677 C1674 1.409 . S
C1677 C1675 1.415 . S
C1678 H1668 0.930 . S
C1678 C1676 1.419 . S
C1678 C1679 1.362 . S
C1679 H1669 0.930 . S
C1679 C1672 1.409 . S
C1679 C1678 1.362 . S
H1680 C1686 0.930 . S
H1681 C1689 0.930 . S
H1682 C1690 0.930 . S
H1683 C1691 0.930 . S
H1684 C1694 0.930 . S
H1685 C1695 0.930 . S
C1686 H1680 0.930 . S
C1686 C1687 1.355 . S
C1686 C1688 1.415 . S
C1687 C1686 1.355 . S
C1687 C1689 1.419 . S
C1688 C1686 1.415 . S
C1688 C1693 1.425 . S
C1688 C1695 1.409 . S
C1689 H1681 0.930 . S
C1689 C1687 1.419 . S
C1689 C1690 1.362 . S
C1690 H1682 0.930 . S
C1690 C1689 1.362 . S
C1690 C1693 1.409 . S
C1691 H1683 0.930 . S
C1691 C1692 1.355 . S
C1691 C1693 1.415 . S
C1692 C1691 1.355 . S
C1692 C1694 1.419 . S
C1693 C1688 1.425 . S
C1693 C1690 1.409 . S
C1693 C1691 1.415 . S
C1694 H1684 0.930 . S
C1694 C1692 1.419 . S
C1694 C1695 1.362 . S
C1695 H1685 0.930 . S
C1695 C1688 1.409 . S
C1695 C1694 1.362 . S
H1696 C1702 0.930 . S
H1697 C1705 0.930 . S
H1698 C1706 0.930 . S
H1699 C1707 0.930 . S
H1700 C1710 0.930 . S
H1701 C1711 0.930 . S
C1702 H1696 0.930 . S
C1702 C1703 1.355 . S
C1702 C1704 1.415 . S
C1703 C1702 1.355 . S
C1703 C1705 1.419 . S
C1704 C1702 1.415 . S
C1704 C1709 1.425 . S
C1704 C1711 1.409 . S
C1705 H1697 0.930 . S
C1705 C1703 1.419 . S
C1705 C1706 1.362 . S
C1706 H1698 0.930 . S
C1706 C1705 1.362 . S
C1706 C1709 1.409 . S
C1707 H1699 0.930 . S
C1707 C1708 1.355 . S
C1707 C1709 1.415 . S
C1708 C1707 1.355 . S
C1708 C1710 1.419 . S
C1709 C1704 1.425 . S
C1709 C1706 1.409 . S
C1709 C1707 1.415 . S
C1710 H1700 0.930 . S
C1710 C1708 1.419 . S
C1710 C1711 1.362 . S
C1711 H1701 0.930 . S
C1711 C1704 1.409 . S
C1711 C1710 1.362 . S
H1712 C1718 0.930 . S
H1713 C1721 0.930 . S
H1714 C1722 0.930 . S
H1715 C1723 0.930 . S
H1716 C1726 0.930 . S
H1717 C1727 0.930 . S
C1718 H1712 0.930 . S
C1718 C1719 1.355 . S
C1718 C1720 1.415 . S
C1719 C1718 1.355 . S
C1719 C1721 1.419 . S
C1720 C1718 1.415 . S
C1720 C1725 1.425 . S
C1720 C1727 1.409 . S
C1721 H1713 0.930 . S
C1721 C1719 1.419 . S
C1721 C1722 1.362 . S
C1722 H1714 0.930 . S
C1722 C1721 1.362 . S
C1722 C1725 1.409 . S
C1723 H1715 0.930 . S
C1723 C1724 1.355 . S
C1723 C1725 1.415 . S
C1724 C1723 1.355 . S
C1724 C1726 1.419 . S
C1725 C1720 1.425 . S
C1725 C1722 1.409 . S
C1725 C1723 1.415 . S
C1726 H1716 0.930 . S
C1726 C1724 1.419 . S
C1726 C1727 1.362 . S
C1727 H1717 0.930 . S
C1727 C1720 1.409 . S
C1727 C1726 1.362 . S
H1728 C1734 0.930 . S
H1729 C1737 0.930 . S
H1730 C1738 0.930 . S
H1731 C1739 0.930 . S
H1732 C1742 0.930 . S
H1733 C1743 0.930 . S
C1734 H1728 0.930 . S
C1734 C1735 1.355 . S
C1734 C1736 1.415 . S
C1735 C1734 1.355 . S
C1735 C1737 1.419 . S
C1736 C1734 1.415 . S
C1736 C1741 1.425 . S
C1736 C1743 1.409 . S
C1737 H1729 0.930 . S
C1737 C1735 1.419 . S
C1737 C1738 1.362 . S
C1738 H1730 0.930 . S
C1738 C1737 1.362 . S
C1738 C1741 1.409 . S
C1739 H1731 0.930 . S
C1739 C1740 1.355 . S
C1739 C1741 1.415 . S
C1740 C1739 1.355 . S
C1740 C1742 1.419 . S
C1741 C1736 1.425 . S
C1741 C1738 1.409 . S
C1741 C1739 1.415 . S
C1742 H1732 0.930 . S
C1742 C1740 1.419 . S
C1742 C1743 1.362 . S
C1743 H1733 0.930 . S
C1743 C1736 1.409 . S
C1743 C1742 1.362 . S
H1744 C1750 0.930 . S
H1745 C1753 0.961 . S
H1746 C1754 0.930 . S
H1747 C1755 0.930 . S
H1748 C1758 0.930 . S
H1749 C1759 0.930 . S
C1750 H1744 0.930 . S
C1750 C1751 1.355 . S
C1750 C1752 1.415 . S
C1751 C1750 1.355 . S
C1751 C1753 1.403 1_556 S
C1752 C1750 1.415 . S
C1752 C1757 1.425 . S
C1752 C1759 1.409 . S
C1753 H1745 0.961 . S
C1753 C1751 1.403 1_554 S
C1753 C1754 1.348 1_554 S
C1754 H1746 0.930 . S
C1754 C1753 1.348 1_556 S
C1754 C1757 1.409 . S
C1755 H1747 0.930 . S
C1755 C1756 1.355 . S
C1755 C1757 1.415 . S
C1756 C1755 1.355 . S
C1756 C1758 1.419 . S
C1757 C1752 1.425 . S
C1757 C1754 1.409 . S
C1757 C1755 1.415 . S
C1758 H1748 0.930 . S
C1758 C1756 1.419 . S
C1758 C1759 1.362 . S
C1759 H1749 0.930 . S
C1759 C1752 1.409 . S
C1759 C1758 1.362 . S
H1760 C1766 0.930 . S
H1761 C1769 0.930 . S
H1762 C1770 0.930 . S
H1763 C1771 0.930 . S
H1764 C1774 0.930 . S
H1765 C1775 0.930 1_455 S
C1766 H1760 0.930 . S
C1766 C1767 1.355 . S
C1766 C1768 1.415 1_455 S
C1767 C1766 1.355 . S
C1767 C1769 1.419 1_455 S
C1768 C1766 1.415 1_655 S
C1768 C1773 1.425 . S
C1768 C1775 1.409 . S
C1769 H1761 0.930 . S
C1769 C1767 1.419 1_655 S
C1769 C1770 1.362 . S
C1770 H1762 0.930 . S
C1770 C1769 1.362 . S
C1770 C1773 1.409 . S
C1771 H1763 0.930 . S
C1771 C1772 1.355 . S
C1771 C1773 1.415 . S
C1772 C1771 1.355 . S
C1772 C1774 1.419 . S
C1773 C1768 1.425 . S
C1773 C1770 1.409 . S
C1773 C1771 1.415 . S
C1774 H1764 0.930 . S
C1774 C1772 1.419 . S
C1774 C1775 1.362 . S
C1775 H1765 0.930 1_655 S
C1775 C1768 1.409 . S
C1775 C1774 1.362 . S
H1776 C1782 0.930 . S
H1777 C1785 0.930 . S
H1778 C1786 0.930 . S
H1779 C1787 0.930 . S
H1780 C1790 0.930 . S
H1781 C1791 0.930 . S
C1782 H1776 0.930 . S
C1782 C1783 1.355 . S
C1782 C1784 1.415 . S
C1783 C1782 1.355 . S
C1783 C1785 1.419 . S
C1784 C1782 1.415 . S
C1784 C1789 1.425 . S
C1784 C1791 1.409 . S
C1785 H1777 0.930 . S
C1785 C1783 1.419 . S
C1785 C1786 1.362 . S
C1786 H1778 0.930 . S
C1786 C1785 1.362 . S
C1786 C1789 1.409 . S
C1787 H1779 0.930 . S
C1787 C1788 1.355 . S
C1787 C1789 1.415 . S
C1788 C1787 1.355 . S
C1788 C1790 1.419 . S
C1789 C1784 1.425 . S
C1789 C1786 1.409 . S
C1789 C1787 1.415 . S
C1790 H1780 0.930 . S
C1790 C1788 1.419 . S
C1790 C1791 1.362 . S
C1791 H1781 0.930 . S
C1791 C1784 1.409 . S
C1791 C1790 1.362 . S
H1792 C1798 0.930 . S
H1793 C1801 0.930 . S
H1794 C1802 0.930 . S
H1795 C1803 0.930 . S
H1796 C1806 0.930 . S
H1797 C1807 0.930 . S
C1798 H1792 0.930 . S
C1798 C1799 1.355 . S
C1798 C1800 1.415 . S
C1799 C1798 1.355 . S
C1799 C1801 1.419 . S
C1800 C1798 1.415 . S
C1800 C1805 1.425 . S
C1800 C1807 1.409 . S
C1801 H1793 0.930 . S
C1801 C1799 1.419 . S
C1801 C1802 1.362 . S
C1802 H1794 0.930 . S
C1802 C1801 1.362 . S
C1802 C1805 1.409 . S
C1803 H1795 0.930 . S
C1803 C1804 1.355 . S
C1803 C1805 1.415 . S
C1804 C1803 1.355 . S
C1804 C1806 1.419 . S
C1805 C1800 1.425 . S
C1805 C1802 1.409 . S
C1805 C1803 1.415 . S
C1806 H1796 0.930 . S
C1806 C1804 1.419 . S
C1806 C1807 1.362 . S
C1807 H1797 0.930 . S
C1807 C1800 1.409 . S
C1807 C1806 1.362 . S
H1808 C1814 0.930 . S
H1809 C1817 0.930 . S
H1810 C1818 0.930 . S
H1811 C1819 0.930 . S
H1812 C1822 0.930 . S
H1813 C1823 0.930 . S
C1814 H1808 0.930 . S
C1814 C1815 1.355 . S
C1814 C1816 1.415 . S
C1815 C1814 1.355 . S
C1815 C1817 1.419 . S
C1816 C1814 1.415 . S
C1816 C1821 1.425 . S
C1816 C1823 1.409 . S
C1817 H1809 0.930 . S
C1817 C1815 1.419 . S
C1817 C1818 1.362 . S
C1818 H1810 0.930 . S
C1818 C1817 1.362 . S
C1818 C1821 1.409 . S
C1819 H1811 0.930 . S
C1819 C1820 1.355 . S
C1819 C1821 1.415 . S
C1820 C1819 1.355 . S
C1820 C1822 1.419 . S
C1821 C1816 1.425 . S
C1821 C1818 1.409 . S
C1821 C1819 1.415 . S
C1822 H1812 0.930 . S
C1822 C1820 1.419 . S
C1822 C1823 1.362 . S
C1823 H1813 0.930 . S
C1823 C1816 1.409 . S
C1823 C1822 1.362 . S
H1824 C1830 0.930 . S
H1825 C1833 0.930 . S
H1826 C1834 0.930 . S
H1827 C1835 0.930 . S
H1828 C1838 0.930 . S
H1829 C1839 0.930 . S
C1830 H1824 0.930 . S
C1830 C1831 1.355 . S
C1830 C1832 1.415 . S
C1831 C1830 1.355 . S
C1831 C1833 1.419 . S
C1832 C1830 1.415 . S
C1832 C1837 1.425 . S
C1832 C1839 1.409 . S
C1833 H1825 0.930 . S
C1833 C1831 1.419 . S
C1833 C1834 1.362 . S
C1834 H1826 0.930 . S
C1834 C1833 1.362 . S
C1834 C1837 1.409 . S
C1835 H1827 0.930 . S
C1835 C1836 1.355 . S
C1835 C1837 1.415 . S
C1836 C1835 1.355 . S
C1836 C1838 1.419 . S
C1837 C1832 1.425 . S
C1837 C1834 1.409 . S
C1837 C1835 1.415 . S
C1838 H1828 0.930 . S
C1838 C1836 1.419 . S
C1838 C1839 1.362 . S
C1839 H1829 0.930 . S
C1839 C1832 1.409 . S
C1839 C1838 1.362 . S
H1840 C1846 0.930 . S
H1841 C1849 0.930 . S
H1842 C1850 0.930 . S
H1843 C1851 0.930 . S
H1844 C1854 0.930 . S
H1845 C1855 0.930 . S
C1846 H1840 0.930 . S
C1846 C1847 1.355 . S
C1846 C1848 1.415 . S
C1847 C1846 1.355 . S
C1847 C1849 1.419 . S
C1848 C1846 1.415 . S
C1848 C1853 1.425 . S
C1848 C1855 1.409 . S
C1849 H1841 0.930 . S
C1849 C1847 1.419 . S
C1849 C1850 1.362 . S
C1850 H1842 0.930 . S
C1850 C1849 1.362 . S
C1850 C1853 1.409 . S
C1851 H1843 0.930 . S
C1851 C1852 1.355 . S
C1851 C1853 1.415 . S
C1852 C1851 1.355 . S
C1852 C1854 1.419 . S
C1853 C1848 1.425 . S
C1853 C1850 1.409 . S
C1853 C1851 1.415 . S
C1854 H1844 0.930 . S
C1854 C1852 1.419 . S
C1854 C1855 1.362 . S
C1855 H1845 0.930 . S
C1855 C1848 1.409 . S
C1855 C1854 1.362 . S
H1856 C1862 0.930 . S
H1857 C1865 0.930 . S
H1858 C1866 0.930 . S
H1859 C1867 0.930 . S
H1860 C1870 0.930 . S
H1861 C1871 0.930 . S
C1862 H1856 0.930 . S
C1862 C1863 1.355 . S
C1862 C1864 1.415 . S
C1863 C1862 1.355 . S
C1863 C1865 1.419 . S
C1864 C1862 1.415 . S
C1864 C1869 1.425 . S
C1864 C1871 1.409 . S
C1865 H1857 0.930 . S
C1865 C1863 1.419 . S
C1865 C1866 1.362 . S
C1866 H1858 0.930 . S
C1866 C1865 1.362 . S
C1866 C1869 1.409 . S
C1867 H1859 0.930 . S
C1867 C1868 1.355 . S
C1867 C1869 1.415 . S
C1868 C1867 1.355 . S
C1868 C1870 1.419 . S
C1869 C1864 1.425 . S
C1869 C1866 1.409 . S
C1869 C1867 1.415 . S
C1870 H1860 0.930 . S
C1870 C1868 1.419 . S
C1870 C1871 1.362 . S
C1871 H1861 0.930 . S
C1871 C1864 1.409 . S
C1871 C1870 1.362 . S
H1872 C1878 0.930 . S
H1873 C1881 0.930 . S
H1874 C1882 0.930 . S
H1875 C1883 0.930 . S
H1876 C1886 0.930 . S
H1877 C1887 0.930 . S
C1878 H1872 0.930 . S
C1878 C1879 1.355 . S
C1878 C1880 1.415 . S
C1879 C1878 1.355 . S
C1879 C1881 1.419 . S
C1880 C1878 1.415 . S
C1880 C1885 1.425 . S
C1880 C1887 1.409 . S
C1881 H1873 0.930 . S
C1881 C1879 1.419 . S
C1881 C1882 1.362 . S
C1882 H1874 0.930 . S
C1882 C1881 1.362 . S
C1882 C1885 1.409 . S
C1883 H1875 0.930 . S
C1883 C1884 1.355 . S
C1883 C1885 1.415 . S
C1884 C1883 1.355 . S
C1884 C1886 1.419 . S
C1885 C1880 1.425 . S
C1885 C1882 1.409 . S
C1885 C1883 1.415 . S
C1886 H1876 0.930 . S
C1886 C1884 1.419 . S
C1886 C1887 1.362 . S
C1887 H1877 0.930 . S
C1887 C1880 1.409 . S
C1887 C1886 1.362 . S
H1888 C1894 0.930 . S
H1889 C1897 0.930 . S
H1890 C1898 0.930 . S
H1891 C1899 0.930 . S
H1892 C1902 0.930 . S
H1893 C1903 0.930 . S
C1894 H1888 0.930 . S
C1894 C1895 1.355 . S
C1894 C1896 1.415 . S
C1895 C1894 1.355 . S
C1895 C1897 1.419 . S
C1896 C1894 1.415 . S
C1896 C1901 1.425 . S
C1896 C1903 1.409 . S
C1897 H1889 0.930 . S
C1897 C1895 1.419 . S
C1897 C1898 1.362 . S
C1898 H1890 0.930 . S
C1898 C1897 1.362 . S
C1898 C1901 1.409 . S
C1899 H1891 0.930 . S
C1899 C1900 1.355 . S
C1899 C1901 1.415 . S
C1900 C1899 1.355 . S
C1900 C1902 1.419 . S
C1901 C1896 1.425 . S
C1901 C1898 1.409 . S
C1901 C1899 1.415 . S
C1902 H1892 0.930 . S
C1902 C1900 1.419 . S
C1902 C1903 1.362 . S
C1903 H1893 0.930 . S
C1903 C1896 1.409 . S
C1903 C1902 1.362 . S
H1904 C1910 0.930 . S
H1905 C1913 0.930 . S
H1906 C1914 0.930 . S
H1907 C1915 0.930 . S
H1908 C1918 0.930 . S
H1909 C1919 0.930 . S
C1910 H1904 0.930 . S
C1910 C1911 1.355 . S
C1910 C1912 1.415 . S
C1911 C1910 1.355 . S
C1911 C1913 1.419 . S
C1912 C1910 1.415 . S
C1912 C1917 1.425 . S
C1912 C1919 1.409 . S
C1913 H1905 0.930 . S
C1913 C1911 1.419 . S
C1913 C1914 1.362 . S
C1914 H1906 0.930 . S
C1914 C1913 1.362 . S
C1914 C1917 1.409 . S
C1915 H1907 0.930 . S
C1915 C1916 1.355 . S
C1915 C1917 1.415 . S
C1916 C1915 1.355 . S
C1916 C1918 1.419 . S
C1917 C1912 1.425 . S
C1917 C1914 1.409 . S
C1917 C1915 1.415 . S
C1918 H1908 0.930 . S
C1918 C1916 1.419 . S
C1918 C1919 1.362 . S
C1919 H1909 0.930 . S
C1919 C1912 1.409 . S
C1919 C1918 1.362 . S
H1920 C1926 0.930 . S
H1921 C1929 0.930 . S
H1922 C1930 0.930 . S
H1923 C1931 0.930 . S
H1924 C1934 0.930 . S
H1925 C1935 0.930 . S
C1926 H1920 0.930 . S
C1926 C1927 1.355 . S
C1926 C1928 1.415 . S
C1927 C1926 1.355 . S
C1927 C1929 1.419 . S
C1928 C1926 1.415 . S
C1928 C1933 1.425 . S
C1928 C1935 1.409 . S
C1929 H1921 0.930 . S
C1929 C1927 1.419 . S
C1929 C1930 1.362 . S
C1930 H1922 0.930 . S
C1930 C1929 1.362 . S
C1930 C1933 1.409 . S
C1931 H1923 0.930 . S
C1931 C1932 1.355 . S
C1931 C1933 1.415 . S
C1932 C1931 1.355 . S
C1932 C1934 1.419 . S
C1933 C1928 1.425 . S
C1933 C1930 1.409 . S
C1933 C1931 1.415 . S
C1934 H1924 0.930 . S
C1934 C1932 1.419 . S
C1934 C1935 1.362 . S
C1935 H1925 0.930 . S
C1935 C1928 1.409 . S
C1935 C1934 1.362 . S
H1936 C1942 0.930 . S
H1937 C1945 0.930 . S
H1938 C1946 0.930 . S
H1939 C1947 0.930 . S
H1940 C1950 0.930 . S
H1941 C1951 0.930 . S
C1942 H1936 0.930 . S
C1942 C1943 1.355 . S
C1942 C1944 1.415 . S
C1943 C1942 1.355 . S
C1943 C1945 1.419 . S
C1944 C1942 1.415 . S
C1944 C1949 1.425 . S
C1944 C1951 1.409 . S
C1945 H1937 0.930 . S
C1945 C1943 1.419 . S
C1945 C1946 1.362 . S
C1946 H1938 0.930 . S
C1946 C1945 1.362 . S
C1946 C1949 1.409 . S
C1947 H1939 0.930 . S
C1947 C1948 1.355 . S
C1947 C1949 1.415 . S
C1948 C1947 1.355 . S
C1948 C1950 1.419 . S
C1949 C1944 1.425 . S
C1949 C1946 1.409 . S
C1949 C1947 1.415 . S
C1950 H1940 0.930 . S
C1950 C1948 1.419 . S
C1950 C1951 1.362 . S
C1951 H1941 0.930 . S
C1951 C1944 1.409 . S
C1951 C1950 1.362 . S
H1952 C1958 0.930 . S
H1953 C1961 0.930 . S
H1954 C1962 0.930 . S
H1955 C1963 0.930 . S
H1956 C1966 0.930 . S
H1957 C1967 0.930 . S
C1958 H1952 0.930 . S
C1958 C1959 1.355 . S
C1958 C1960 1.415 . S
C1959 C1958 1.355 . S
C1959 C1961 1.419 . S
C1960 C1958 1.415 . S
C1960 C1965 1.425 . S
C1960 C1967 1.409 . S
C1961 H1953 0.930 . S
C1961 C1959 1.419 . S
C1961 C1962 1.362 . S
C1962 H1954 0.930 . S
C1962 C1961 1.362 . S
C1962 C1965 1.409 . S
C1963 H1955 0.930 . S
C1963 C1964 1.355 . S
C1963 C1965 1.415 . S
C1964 C1963 1.355 . S
C1964 C1966 1.419 . S
C1965 C1960 1.425 . S
C1965 C1962 1.409 . S
C1965 C1963 1.415 . S
C1966 H1956 0.930 . S
C1966 C1964 1.419 . S
C1966 C1967 1.362 . S
C1967 H1957 0.930 . S
C1967 C1960 1.409 . S
C1967 C1966 1.362 . S
H1968 C1974 0.930 . S
H1969 C1977 0.930 . S
H1970 C1978 0.930 . S
H1971 C1979 0.930 . S
H1972 C1982 0.930 . S
H1973 C1983 0.930 . S
C1974 H1968 0.930 . S
C1974 C1975 1.355 . S
C1974 C1976 1.415 . S
C1975 C1974 1.355 . S
C1975 C1977 1.419 . S
C1976 C1974 1.415 . S
C1976 C1981 1.425 . S
C1976 C1983 1.409 . S
C1977 H1969 0.930 . S
C1977 C1975 1.419 . S
C1977 C1978 1.362 . S
C1978 H1970 0.930 . S
C1978 C1977 1.362 . S
C1978 C1981 1.409 . S
C1979 H1971 0.930 . S
C1979 C1980 1.355 . S
C1979 C1981 1.415 . S
C1980 C1979 1.355 . S
C1980 C1982 1.419 . S
C1981 C1976 1.425 . S
C1981 C1978 1.409 . S
C1981 C1979 1.415 . S
C1982 H1972 0.930 . S
C1982 C1980 1.419 . S
C1982 C1983 1.362 . S
C1983 H1973 0.930 . S
C1983 C1976 1.409 . S
C1983 C1982 1.362 . S
H1984 C1990 0.930 . S
H1985 C1993 0.930 . S
H1986 C1994 0.930 . S
H1987 C1995 0.930 . S
H1988 C1998 0.930 . S
H1989 C1999 0.930 . S
C1990 H1984 0.930 . S
C1990 C1991 1.355 . S
C1990 C1992 1.415 . S
C1991 C1990 1.355 . S
C1991 C1993 1.419 . S
C1992 C1990 1.415 . S
C1992 C1997 1.425 . S
C1992 C1999 1.409 . S
C1993 H1985 0.930 . S
C1993 C1991 1.419 . S
C1993 C1994 1.362 . S
C1994 H1986 0.930 . S
C1994 C1993 1.362 . S
C1994 C1997 1.409 . S
C1995 H1987 0.930 . S
C1995 C1996 1.355 . S
C1995 C1997 1.415 . S
C1996 C1995 1.355 . S
C1996 C1998 1.419 . S
C1997 C1992 1.425 . S
C1997 C1994 1.409 . S
C1997 C1995 1.415 . S
C1998 H1988 0.930 . S
C1998 C1996 1.419 . S
C1998 C1999 1.362 . S
C1999 H1989 0.930 . S
C1999 C1992 1.409 . S
C1999 C1998 1.362 . S
H2000 C2006 0.930 . S
H2001 C2009 0.930 . S
H2002 C2010 0.930 . S
H2003 C2011 0.930 . S
H2004 C2014 0.930 . S
H2005 C2015 0.930 . S
C2006 H2000 0.930 . S
C2006 C2007 1.355 . S
C2006 C2008 1.415 . S
C2007 C2006 1.355 . S
C2007 C2009 1.419 . S
C2008 C2006 1.415 . S
C2008 C2013 1.425 . S
C2008 C2015 1.409 . S
C2009 H2001 0.930 . S
C2009 C2007 1.419 . S
C2009 C2010 1.362 . S
C2010 H2002 0.930 . S
C2010 C2009 1.362 . S
C2010 C2013 1.409 . S
C2011 H2003 0.930 . S
C2011 C2012 1.355 . S
C2011 C2013 1.415 . S
C2012 C2011 1.355 . S
C2012 C2014 1.419 . S
C2013 C2008 1.425 . S
C2013 C2010 1.409 . S
C2013 C2011 1.415 . S
C2014 H2004 0.930 . S
C2014 C2012 1.419 . S
C2014 C2015 1.362 . S
C2015 H2005 0.930 . S
C2015 C2008 1.409 . S
C2015 C2014 1.362 . S
H2016 C2022 0.930 . S
H2017 C2025 0.930 . S
H2018 C2026 0.930 . S
H2019 C2027 0.930 . S
H2020 C2030 0.930 . S
H2021 C2031 0.930 . S
C2022 H2016 0.930 . S
C2022 C2023 1.355 . S
C2022 C2024 1.415 . S
C2023 C2022 1.355 . S
C2023 C2025 1.419 . S
C2024 C2022 1.415 . S
C2024 C2029 1.425 . S
C2024 C2031 1.409 . S
C2025 H2017 0.930 . S
C2025 C2023 1.419 . S
C2025 C2026 1.362 . S
C2026 H2018 0.930 . S
C2026 C2025 1.362 . S
C2026 C2029 1.409 . S
C2027 H2019 0.930 . S
C2027 C2028 1.355 . S
C2027 C2029 1.415 . S
C2028 C2027 1.355 . S
C2028 C2030 1.419 . S
C2029 C2024 1.425 . S
C2029 C2026 1.409 . S
C2029 C2027 1.415 . S
C2030 H2020 0.930 . S
C2030 C2028 1.419 . S
C2030 C2031 1.362 . S
C2031 H2021 0.930 . S
C2031 C2024 1.409 . S
C2031 C2030 1.362 . S
H2032 C2038 0.930 . S
H2033 C2041 0.930 . S
H2034 C2042 0.930 . S
H2035 C2043 0.930 . S
H2036 C2046 0.930 . S
H2037 C2047 0.930 . S
C2038 H2032 0.930 . S
C2038 C2039 1.355 . S
C2038 C2040 1.415 . S
C2039 C2038 1.355 . S
C2039 C2041 1.419 . S
C2040 C2038 1.415 . S
C2040 C2045 1.425 . S
C2040 C2047 1.409 . S
C2041 H2033 0.930 . S
C2041 C2039 1.419 . S
C2041 C2042 1.362 . S
C2042 H2034 0.930 . S
C2042 C2041 1.362 . S
C2042 C2045 1.409 . S
C2043 H2035 0.930 . S
C2043 C2044 1.355 . S
C2043 C2045 1.415 . S
C2044 C2043 1.355 . S
C2044 C2046 1.419 . S
C2045 C2040 1.425 . S
C2045 C2042 1.409 . S
C2045 C2043 1.415 . S
C2046 H2036 0.930 . S
C2046 C2044 1.419 . S
C2046 C2047 1.362 . S
C2047 H2037 0.930 . S
C2047 C2040 1.409 . S
C2047 C2046 1.362 . S
H2048 C2054 0.930 . S
H2049 C2057 0.930 . S
H2050 C2058 0.930 . S
H2051 C2059 0.930 . S
H2052 C2062 0.930 . S
H2053 C2063 0.930 . S
C2054 H2048 0.930 . S
C2054 C2055 1.355 . S
C2054 C2056 1.415 . S
C2055 C2054 1.355 . S
C2055 C2057 1.419 . S
C2056 C2054 1.415 . S
C2056 C2061 1.425 . S
C2056 C2063 1.409 . S
C2057 H2049 0.930 . S
C2057 C2055 1.419 . S
C2057 C2058 1.362 . S
C2058 H2050 0.930 . S
C2058 C2057 1.362 . S
C2058 C2061 1.409 . S
C2059 H2051 0.930 . S
C2059 C2060 1.355 . S
C2059 C2061 1.415 . S
C2060 C2059 1.355 . S
C2060 C2062 1.419 . S
C2061 C2056 1.425 . S
C2061 C2058 1.409 . S
C2061 C2059 1.415 . S
C2062 H2052 0.930 . S
C2062 C2060 1.419 . S
C2062 C2063 1.362 . S
C2063 H2053 0.930 . S
C2063 C2056 1.409 . S
C2063 C2062 1.362 . S
H2064 C2070 0.930 . S
H2065 C2073 0.930 . S
H2066 C2074 0.930 . S
H2067 C2075 0.930 . S
H2068 C2078 0.930 . S
H2069 C2079 0.930 . S
C2070 H2064 0.930 . S
C2070 C2071 1.355 . S
C2070 C2072 1.415 . S
C2071 C2070 1.355 . S
C2071 C2073 1.419 . S
C2072 C2070 1.415 . S
C2072 C2077 1.425 . S
C2072 C2079 1.409 . S
C2073 H2065 0.930 . S
C2073 C2071 1.419 . S
C2073 C2074 1.362 . S
C2074 H2066 0.930 . S
C2074 C2073 1.362 . S
C2074 C2077 1.409 . S
C2075 H2067 0.930 . S
C2075 C2076 1.355 . S
C2075 C2077 1.415 . S
C2076 C2075 1.355 . S
C2076 C2078 1.419 . S
C2077 C2072 1.425 . S
C2077 C2074 1.409 . S
C2077 C2075 1.415 . S
C2078 H2068 0.930 . S
C2078 C2076 1.419 . S
C2078 C2079 1.362 . S
C2079 H2069 0.930 . S
C2079 C2072 1.409 . S
C2079 C2078 1.362 . S
H2080 C2086 0.930 . S
H2081 C2089 0.930 . S
H2082 C2090 0.930 . S
H2083 C2091 0.930 . S
H2084 C2094 0.930 . S
H2085 C2095 0.930 . S
C2086 H2080 0.930 . S
C2086 C2087 1.355 . S
C2086 C2088 1.415 . S
C2087 C2086 1.355 . S
C2087 C2089 1.419 . S
C2088 C2086 1.415 . S
C2088 C2093 1.425 . S
C2088 C2095 1.409 . S
C2089 H2081 0.930 . S
C2089 C2087 1.419 . S
C2089 C2090 1.362 . S
C2090 H2082 0.930 . S
C2090 C2089 1.362 . S
C2090 C2093 1.409 . S
C2091 H2083 0.930 . S
C2091 C2092 1.355 . S
C2091 C2093 1.415 . S
C2092 C2091 1.355 . S
C2092 C2094 1.419 . S
C2093 C2088 1.425 . S
C2093 C2090 1.409 . S
C2093 C2091 1.415 . S
C2094 H2084 0.930 . S
C2094 C2092 1.419 . S
C2094 C2095 1.362 . S
C2095 H2085 0.930 . S
C2095 C2088 1.409 . S
C2095 C2094 1.362 . S
H2096 C2102 0.930 . S
H2097 C2105 0.930 . S
H2098 C2106 0.930 . S
H2099 C2107 0.930 . S
H2100 C2110 0.930 . S
H2101 C2111 0.930 . S
C2102 H2096 0.930 . S
C2102 C2103 1.355 . S
C2102 C2104 1.415 . S
C2103 C2102 1.355 . S
C2103 C2105 1.419 . S
C2104 C2102 1.415 . S
C2104 C2109 1.425 . S
C2104 C2111 1.409 . S
C2105 H2097 0.930 . S
C2105 C2103 1.419 . S
C2105 C2106 1.362 . S
C2106 H2098 0.930 . S
C2106 C2105 1.362 . S
C2106 C2109 1.409 . S
C2107 H2099 0.930 . S
C2107 C2108 1.355 . S
C2107 C2109 1.415 . S
C2108 C2107 1.355 . S
C2108 C2110 1.419 . S
C2109 C2104 1.425 . S
C2109 C2106 1.409 . S
C2109 C2107 1.415 . S
C2110 H2100 0.930 . S
C2110 C2108 1.419 . S
C2110 C2111 1.362 . S
C2111 H2101 0.930 . S
C2111 C2104 1.409 . S
C2111 C2110 1.362 . S
H2112 C2118 0.930 . S
H2113 C2121 0.930 . S
H2114 C2122 0.930 . S
H2115 C2123 0.930 . S
H2116 C2126 0.930 . S
H2117 C2127 0.930 . S
C2118 H2112 0.930 . S
C2118 C2119 1.355 . S
C2118 C2120 1.415 . S
C2119 C2118 1.355 . S
C2119 C2121 1.419 . S
C2120 C2118 1.415 . S
C2120 C2125 1.425 . S
C2120 C2127 1.409 . S
C2121 H2113 0.930 . S
C2121 C2119 1.419 . S
C2121 C2122 1.362 . S
C2122 H2114 0.930 . S
C2122 C2121 1.362 . S
C2122 C2125 1.409 . S
C2123 H2115 0.930 . S
C2123 C2124 1.355 . S
C2123 C2125 1.415 . S
C2124 C2123 1.355 . S
C2124 C2126 1.419 . S
C2125 C2120 1.425 . S
C2125 C2122 1.409 . S
C2125 C2123 1.415 . S
C2126 H2116 0.930 . S
C2126 C2124 1.419 . S
C2126 C2127 1.362 . S
C2127 H2117 0.930 . S
C2127 C2120 1.409 . S
C2127 C2126 1.362 . S
H2128 C2134 0.930 . S
H2129 C2137 0.930 . S
H2130 C2138 0.930 . S
H2131 C2139 0.930 . S
H2132 C2142 0.930 . S
H2133 C2143 0.930 . S
C2134 H2128 0.930 . S
C2134 C2135 1.355 . S
C2134 C2136 1.415 . S
C2135 C2134 1.355 . S
C2135 C2137 1.419 . S
C2136 C2134 1.415 . S
C2136 C2141 1.425 . S
C2136 C2143 1.409 . S
C2137 H2129 0.930 . S
C2137 C2135 1.419 . S
C2137 C2138 1.362 . S
C2138 H2130 0.930 . S
C2138 C2137 1.362 . S
C2138 C2141 1.409 . S
C2139 H2131 0.930 . S
C2139 C2140 1.355 . S
C2139 C2141 1.415 . S
C2140 C2139 1.355 . S
C2140 C2142 1.419 . S
C2141 C2136 1.425 . S
C2141 C2138 1.409 . S
C2141 C2139 1.415 . S
C2142 H2132 0.930 . S
C2142 C2140 1.419 . S
C2142 C2143 1.362 . S
C2143 H2133 0.930 . S
C2143 C2136 1.409 . S
C2143 C2142 1.362 . S
H2144 C2150 0.930 . S
H2145 C2153 0.930 . S
H2146 C2154 0.930 . S
H2147 C2155 0.930 . S
H2148 C2158 0.930 . S
H2149 C2159 0.930 . S
C2150 H2144 0.930 . S
C2150 C2151 1.355 . S
C2150 C2152 1.415 . S
C2151 C2150 1.355 . S
C2151 C2153 1.419 . S
C2152 C2150 1.415 . S
C2152 C2157 1.425 . S
C2152 C2159 1.409 . S
C2153 H2145 0.930 . S
C2153 C2151 1.419 . S
C2153 C2154 1.362 . S
C2154 H2146 0.930 . S
C2154 C2153 1.362 . S
C2154 C2157 1.409 . S
C2155 H2147 0.930 . S
C2155 C2156 1.355 . S
C2155 C2157 1.415 . S
C2156 C2155 1.355 . S
C2156 C2158 1.419 . S
C2157 C2152 1.425 . S
C2157 C2154 1.409 . S
C2157 C2155 1.415 . S
C2158 H2148 0.930 . S
C2158 C2156 1.419 . S
C2158 C2159 1.362 . S
C2159 H2149 0.930 . S
C2159 C2152 1.409 . S
C2159 C2158 1.362 . S
C631 C127 1.975 . S
C636 C10 1.971 . S
C647 C134 1.951 . S
C652 C23 1.942 . S
C663 C147 1.958 . S
C668 C36 1.947 . S
C679 C108 1.976 . S
C684 C43 1.973 . S
C695 C56 1.974 . S
C700 C205 1.967 . S
C711 C75 1.965 . S
C716 C166 1.973 . S
C727 C82 1.976 . S
C732 C179 1.974 . S
C743 C192 1.940 . S
C748 C101 1.948 . S
C759 C212 1.975 . S
C764 C238 1.975 . S
C775 C225 1.964 . S
C780 C602 1.972 . S
C791 C251 1.963 . S
C796 C615 1.972 . S
C807 C264 1.964 . S
C812 C589 1.953 . S
C823 C283 1.951 . S
C828 C582 1.942 . S
C839 C537 1.937 . S
C844 C290 1.941 . S
C855 C309 1.956 . S
C860 C563 1.945 . S
C871 C439 1.975 . S
C876 C316 1.970 . S
C887 C446 1.948 . S
C892 C329 1.940 . S
C903 C465 1.969 . S
C908 C348 1.959 . S
C919 C426 1.941 . S
C924 C355 1.937 . S
C935 C517 1.938 . S
C940 C368 1.937 . S
C951 C472 1.958 . S
C956 C381 1.968 . S
C967 C400 1.940 . S
C972 C491 1.937 . S
C983 C407 1.973 . S
C988 C498 1.976 . S
C999 C524 1.952 . S
C1004 C556 1.963 . S
C1015 C211 0.975 . S
C1020 C3 0.954 . S
C1031 C614 1.073 . S
C1036 C16 1.072 . S
C1047 C29 1.041 . S
C1052 C278 1.078 . S
C1063 C601 1.077 . S
C1068 C44 1.037 . S
C1079 C57 0.990 . S
C1084 C536 1.051 . S
C1095 C551 0.971 . S
C1100 C68 0.970 . S
C1111 C83 1.003 . S
C1116 C562 0.981 . S
C1127 C263 1.063 . S
C1132 C94 1.074 . S
C1143 C109 1.068 . S
C1148 C5 1.077 . S
C1159 C18 1.070 . S
C1164 C120 1.021 . S
C1175 C135 1.068 . S
C1180 C31 1.076 . S
C1191 C42 0.974 . S
C1196 C148 0.955 . S
C1207 C159 0.959 . S
C1212 C55 0.973 . S
C1223 C70 1.056 . S
C1228 C172 1.074 . S
C1239 C185 0.947 . S
C1244 C81 0.986 . S
C1255 C198 1.005 . S
C1260 C96 0.982 . S
C1271 C213 0.956 . S
C1276 C107 0.974 . S
C1287 C226 1.074 . S
C1292 C471 1.070 . S
C1303 C486 1.073 . S
C1308 C239 1.072 . S
C1319 C497 1.062 . S
C1324 C252 1.074 . S
C1335 C200 0.990 . S
C1340 C265 0.947 . S
C1351 C276 1.062 . S
C1356 C133 1.079 . S
C1367 C460 0.973 . S
C1372 C291 0.957 . S
C1383 C302 1.069 . S
C1388 C434 1.044 . S
C1399 C317 1.065 . S
C1404 C523 1.036 . S
C1415 C330 1.074 . S
C1420 C304 1.066 . S
C1431 C341 1.068 . S
C1436 C588 1.077 . S
C1447 C356 1.071 . S
C1452 C289 1.048 . S
C1463 C369 0.961 . S
C1468 C224 1.022 . S
C1479 C382 0.983 . S
C1484 C237 0.973 . S
C1495 C250 1.055 . S
C1500 C393 1.073 . S
C1511 C577 1.079 . S
C1516 C408 1.047 . S
C1527 C315 1.074 . S
C1532 C419 1.031 . S
C1543 C328 1.022 . S
C1548 C432 1.055 . S
C1559 C447 0.947 . S
C1564 C343 0.987 . S
C1575 C354 1.006 . S
C1580 C458 1.038 . S
C1591 C473 0.948 . S
C1596 C367 0.996 . S
C1607 C484 1.072 . S
C1612 C380 1.072 . S
C1623 C499 1.020 . S
C1628 C395 1.070 . S
C1639 C406 1.078 . S
C1644 C510 1.066 . S
C1655 C525 1.028 . S
C1660 C421 0.997 . S
C1671 C538 0.954 . S
C1676 C161 1.012 . S
C1687 C174 1.018 . S
C1692 C549 0.958 . S
C1703 C564 0.998 . S
C1708 C187 0.979 . S
C1719 C575 0.952 . S
C1724 C512 0.977 . S
C1735 C445 1.035 . S
C1740 C590 1.064 . S
C1751 C146 1.071 . S
C1756 C603 1.073 . S
C1767 C122 1.068 . S
C1772 C616 1.017 . S
C1783 C296 1.376 . S
C1788 C4 1.353 . S
C1799 C17 1.364 . S
C1804 C530 1.383 . S
C1815 C30 1.338 . S
C1820 C303 1.327 . S
C1831 C595 1.385 . S
C1836 C49 1.370 . S
C1847 C62 1.328 . S
C1852 C244 1.343 . S
C1863 C257 1.331 . S
C1868 C69 1.350 . S
C1879 C576 1.372 . S
C1884 C88 1.349 . S
C1895 C95 1.386 . S
C1900 C231 1.379 . S
C1911 C173 1.348 . S
C1916 C114 1.371 . S
C1927 C121 1.327 . S
C1932 C186 1.339 . S
C1943 C199 1.375 . S
C1948 C140 1.386 . S
C1959 C153 1.332 . S
C1964 C160 1.327 . S
C1975 C335 1.386 . S
C1980 C218 1.380 . S
C1991 C270 1.328 . S
C1996 C394 1.342 . S
C2007 C277 1.386 . S
C2012 C361 1.373 . S
C2023 C608 1.329 . S
C2028 C322 1.346 . S
C2039 C342 1.355 . S
C2044 C621 1.334 . S
C2055 C374 1.347 . S
C2060 C550 1.370 . S
C2071 C387 1.327 . S
C2076 C569 1.333 . S
C2087 C543 1.385 . S
C2092 C413 1.383 . S
C2103 C485 1.346 . S
C2108 C420 1.370 . S
C2119 C433 1.336 . S
C2124 C504 1.358 . S
C2135 C452 1.349 . S
C2140 C511 1.330 . S
C2151 C478 1.376 . S
C2156 C459 1.353 . S
