# Generated by pormake.
# Topology vbw, (6)-cn, num edge types: 1
# Building blocks:
#     Node 0, Type 0, BuildingBlock: OJICUG_clean_sbu_0, # of connection points: 6
#     Node 1, Type 0, BuildingBlock: OJICUG_clean_sbu_0, # of connection points: 6
#     Node 2, Type 0, BuildingBlock: OJICUG_clean_sbu_0, # of connection points: 6
#     Node 3, Type 0, BuildingBlock: OJICUG_clean_sbu_0, # of connection points: 6
#     Node 4, Type 0, BuildingBlock: OJICUG_clean_sbu_0, # of connection points: 6
#     Node 5, Type 0, BuildingBlock: OJICUG_clean_sbu_0, # of connection points: 6
#     Node 6, Type 0, BuildingBlock: OJICUG_clean_sbu_0, # of connection points: 6
#     Node 7, Type 0, BuildingBlock: OJICUG_clean_sbu_0, # of connection points: 6
#     Node 8, Type 0, BuildingBlock: OJICUG_clean_sbu_0, # of connection points: 6
#     Node 9, Type 0, BuildingBlock: OJICUG_clean_sbu_0, # of connection points: 6
#     Node 10, Type 0, BuildingBlock: OJICUG_clean_sbu_0, # of connection points: 6
#     Node 11, Type 0, BuildingBlock: OJICUG_clean_sbu_0, # of connection points: 6
#     Node 12, Type 0, BuildingBlock: OJICUG_clean_sbu_0, # of connection points: 6
#     Node 13, Type 0, BuildingBlock: OJICUG_clean_sbu_0, # of connection points: 6
#     Node 14, Type 0, BuildingBlock: OJICUG_clean_sbu_0, # of connection points: 6
#     Node 15, Type 0, BuildingBlock: OJICUG_clean_sbu_0, # of connection points: 6
#     Edge 16, Type (0, 0), BuildingBlock: UVAHIK_clean_linker_0, # of connection points: 2
#     Edge 17, Type (0, 0), BuildingBlock: UVAHIK_clean_linker_0, # of connection points: 2
#     Edge 18, Type (0, 0), BuildingBlock: UVAHIK_clean_linker_0, # of connection points: 2
#     Edge 19, Type (0, 0), BuildingBlock: UVAHIK_clean_linker_0, # of connection points: 2
#     Edge 20, Type (0, 0), BuildingBlock: UVAHIK_clean_linker_0, # of connection points: 2
#     Edge 21, Type (0, 0), BuildingBlock: UVAHIK_clean_linker_0, # of connection points: 2
#     Edge 22, Type (0, 0), BuildingBlock: UVAHIK_clean_linker_0, # of connection points: 2
#     Edge 23, Type (0, 0), BuildingBlock: UVAHIK_clean_linker_0, # of connection points: 2
#     Edge 24, Type (0, 0), BuildingBlock: UVAHIK_clean_linker_0, # of connection points: 2
#     Edge 25, Type (0, 0), BuildingBlock: UVAHIK_clean_linker_0, # of connection points: 2
#     Edge 26, Type (0, 0), BuildingBlock: UVAHIK_clean_linker_0, # of connection points: 2
#     Edge 27, Type (0, 0), BuildingBlock: UVAHIK_clean_linker_0, # of connection points: 2
#     Edge 28, Type (0, 0), BuildingBlock: UVAHIK_clean_linker_0, # of connection points: 2
#     Edge 29, Type (0, 0), BuildingBlock: UVAHIK_clean_linker_0, # of connection points: 2
#     Edge 30, Type (0, 0), BuildingBlock: UVAHIK_clean_linker_0, # of connection points: 2
#     Edge 31, Type (0, 0), BuildingBlock: UVAHIK_clean_linker_0, # of connection points: 2
#     Edge 32, Type (0, 0), BuildingBlock: UVAHIK_clean_linker_0, # of connection points: 2
#     Edge 33, Type (0, 0), BuildingBlock: UVAHIK_clean_linker_0, # of connection points: 2
#     Edge 34, Type (0, 0), BuildingBlock: UVAHIK_clean_linker_0, # of connection points: 2
#     Edge 35, Type (0, 0), BuildingBlock: UVAHIK_clean_linker_0, # of connection points: 2
#     Edge 36, Type (0, 0), BuildingBlock: UVAHIK_clean_linker_0, # of connection points: 2
#     Edge 37, Type (0, 0), BuildingBlock: UVAHIK_clean_linker_0, # of connection points: 2
#     Edge 38, Type (0, 0), BuildingBlock: UVAHIK_clean_linker_0, # of connection points: 2
#     Edge 39, Type (0, 0), BuildingBlock: UVAHIK_clean_linker_0, # of connection points: 2
#     Edge 40, Type (0, 0), BuildingBlock: UVAHIK_clean_linker_0, # of connection points: 2
#     Edge 41, Type (0, 0), BuildingBlock: UVAHIK_clean_linker_0, # of connection points: 2
#     Edge 42, Type (0, 0), BuildingBlock: UVAHIK_clean_linker_0, # of connection points: 2
#     Edge 43, Type (0, 0), BuildingBlock: UVAHIK_clean_linker_0, # of connection points: 2
#     Edge 44, Type (0, 0), BuildingBlock: UVAHIK_clean_linker_0, # of connection points: 2
#     Edge 45, Type (0, 0), BuildingBlock: UVAHIK_clean_linker_0, # of connection points: 2
#     Edge 46, Type (0, 0), BuildingBlock: UVAHIK_clean_linker_0, # of connection points: 2
#     Edge 47, Type (0, 0), BuildingBlock: UVAHIK_clean_linker_0, # of connection points: 2
#     Edge 48, Type (0, 0), BuildingBlock: UVAHIK_clean_linker_0, # of connection points: 2
#     Edge 49, Type (0, 0), BuildingBlock: UVAHIK_clean_linker_0, # of connection points: 2
#     Edge 50, Type (0, 0), BuildingBlock: UVAHIK_clean_linker_0, # of connection points: 2
#     Edge 51, Type (0, 0), BuildingBlock: UVAHIK_clean_linker_0, # of connection points: 2
#     Edge 52, Type (0, 0), BuildingBlock: UVAHIK_clean_linker_0, # of connection points: 2
#     Edge 53, Type (0, 0), BuildingBlock: UVAHIK_clean_linker_0, # of connection points: 2
#     Edge 54, Type (0, 0), BuildingBlock: UVAHIK_clean_linker_0, # of connection points: 2
#     Edge 55, Type (0, 0), BuildingBlock: UVAHIK_clean_linker_0, # of connection points: 2
#     Edge 56, Type (0, 0), BuildingBlock: UVAHIK_clean_linker_0, # of connection points: 2
#     Edge 57, Type (0, 0), BuildingBlock: UVAHIK_clean_linker_0, # of connection points: 2
#     Edge 58, Type (0, 0), BuildingBlock: UVAHIK_clean_linker_0, # of connection points: 2
#     Edge 59, Type (0, 0), BuildingBlock: UVAHIK_clean_linker_0, # of connection points: 2
#     Edge 60, Type (0, 0), BuildingBlock: UVAHIK_clean_linker_0, # of connection points: 2
#     Edge 61, Type (0, 0), BuildingBlock: UVAHIK_clean_linker_0, # of connection points: 2
#     Edge 62, Type (0, 0), BuildingBlock: UVAHIK_clean_linker_0, # of connection points: 2
#     Edge 63, Type (0, 0), BuildingBlock: UVAHIK_clean_linker_0, # of connection points: 2
# Relax obj value: 0.200
# Max RMSD: 0.231
# Mean RMSD: 0.231
data_MOF--net-vbw--node1-OJICUG_clean_sbu_0--edge1-UVAHIK_clean_linker_0
_symmetry_space_group_name_H-M    P1
_symmetry_Int_Tables_number       1
_symmetry_cell_setting            triclinic
loop_
_symmetry_equiv_pos_as_xyz
'x, y, z'
_cell_length_a     73.547874
_cell_length_b     58.975706
_cell_length_c     36.7339
_cell_angle_alpha  89.974477
_cell_angle_beta   89.933981
_cell_angle_gamma 90.003778
loop_
_atom_site_label
_atom_site_type_symbol
_atom_site_fract_x
_atom_site_fract_y
_atom_site_fract_z
_atom_type_partial_charge
Sc0 Sc 0.14655 0.15209 0.07087 0.0
Sc1 Sc 0.12398 0.20026 0.10301 0.0
Sc2 Sc 0.11547 0.14722 0.14293 0.0
O3 O 0.12867 0.16655 0.10559 0.0
C4 C 0.11637 0.11452 0.07299 0.0
C5 C 0.12762 0.18925 0.01926 0.0
C6 C 0.08435 0.17916 0.11428 0.0
C7 C 0.16691 0.19742 0.09036 0.0
C8 C 0.15495 0.12716 0.14699 0.0
C9 C 0.12261 0.19316 0.18782 0.0
O10 O 0.12735 0.12673 0.05491 0.0
O11 O 0.12018 0.19986 0.04535 0.0
O12 O 0.08975 0.15971 0.12462 0.0
O13 O 0.16716 0.17632 0.08358 0.0
O14 O 0.14056 0.13372 0.16306 0.0
O15 O 0.12748 0.20451 0.16018 0.0
O16 O 0.1579 0.13071 0.11325 0.0
O17 O 0.15231 0.20841 0.09609 0.0
O18 O 0.11664 0.17293 0.18555 0.0
O19 O 0.13804 0.17227 0.02427 0.0
O20 O 0.11225 0.1186 0.10604 0.0
O21 O 0.09506 0.19575 0.10872 0.0
Sc22 Sc 0.3301 0.85083 0.57052 0.0
Sc23 Sc 0.35387 0.80308 0.59884 0.0
Sc24 Sc 0.36141 0.85537 0.64112 0.0
O25 O 0.34849 0.83637 0.60357 0.0
C26 C 0.35989 0.88819 0.5713 0.0
C27 C 0.34862 0.81448 0.51685 0.0
C28 C 0.39305 0.82502 0.61126 0.0
C29 C 0.31063 0.80548 0.58856 0.0
C30 C 0.32236 0.87541 0.64674 0.0
C31 C 0.35521 0.80832 0.68368 0.0
O32 O 0.34962 0.87531 0.55274 0.0
O33 O 0.35835 0.80542 0.54135 0.0
O34 O 0.38724 0.84435 0.6212 0.0
O35 O 0.30981 0.82696 0.58659 0.0
O36 O 0.33613 0.86725 0.66299 0.0
O37 O 0.34987 0.79758 0.65575 0.0
O38 O 0.32 0.8734 0.61254 0.0
O39 O 0.32562 0.79467 0.59004 0.0
O40 O 0.36126 0.82857 0.68209 0.0
O41 O 0.33689 0.82975 0.52389 0.0
O42 O 0.36339 0.88463 0.60486 0.0
O43 O 0.38268 0.80804 0.60612 0.0
Sc44 Sc 0.1477 0.85861 0.92669 0.0
Sc45 Sc 0.12419 0.81134 0.89266 0.0
Sc46 Sc 0.12234 0.86348 0.8457 0.0
O47 O 0.1314 0.84445 0.88833 0.0
C48 C 0.11985 0.89855 0.9126 0.0
C49 C 0.12352 0.82549 0.97611 0.0
C50 C 0.08725 0.83521 0.8677 0.0
C51 C 0.16604 0.81041 0.91564 0.0
C52 C 0.16299 0.88042 0.85257 0.0
C53 C 0.12917 0.81544 0.80685 0.0
O54 O 0.12999 0.88711 0.93368 0.0
O55 O 0.1181 0.81364 0.94945 0.0
O56 O 0.09483 0.8527 0.85429 0.0
O57 O 0.16675 0.83138 0.92333 0.0
O58 O 0.14907 0.87587 0.8335 0.0
O59 O 0.12929 0.80442 0.83649 0.0
O60 O 0.16394 0.87619 0.88649 0.0
O61 O 0.1516 0.80058 0.90484 0.0
O62 O 0.12666 0.8368 0.80565 0.0
O63 O 0.13427 0.84223 0.97227 0.0
O64 O 0.1167 0.89278 0.87977 0.0
O65 O 0.09611 0.81883 0.88162 0.0
Sc66 Sc 0.35523 0.1397 0.34448 0.0
Sc67 Sc 0.35519 0.19167 0.39195 0.0
Sc68 Sc 0.33049 0.14534 0.42593 0.0
O69 O 0.34698 0.15895 0.38743 0.0
C70 C 0.31439 0.12408 0.35214 0.0
C71 C 0.34971 0.18816 0.30626 0.0
C72 C 0.31332 0.1941 0.41527 0.0
C73 C 0.39128 0.16608 0.36591 0.0
C74 C 0.35729 0.1046 0.4115 0.0
C75 C 0.35532 0.17778 0.47529 0.0
O76 O 0.32805 0.12895 0.33246 0.0
O77 O 0.34989 0.19909 0.33598 0.0
O78 O 0.3119 0.17302 0.42186 0.0
O79 O 0.3831 0.14894 0.35282 0.0
O80 O 0.34794 0.11666 0.4332 0.0
O81 O 0.36161 0.18893 0.44858 0.0
O82 O 0.35993 0.11 0.37831 0.0
O83 O 0.383 0.18293 0.37987 0.0
O84 O 0.34387 0.1618 0.47134 0.0
O85 O 0.35174 0.16674 0.30485 0.0
O86 O 0.31404 0.1276 0.38631 0.0
O87 O 0.32813 0.20345 0.40528 0.0
Sc88 Sc 0.8567 0.86244 0.85873 0.0
Sc89 Sc 0.85598 0.80987 0.9046 0.0
Sc90 Sc 0.83081 0.85571 0.93868 0.0
O91 O 0.84785 0.84265 0.90064 0.0
C92 C 0.85802 0.89651 0.92695 0.0
C93 C 0.89238 0.83534 0.88026 0.0
C94 C 0.85535 0.82292 0.98818 0.0
C95 C 0.85113 0.81449 0.81891 0.0
C96 C 0.81574 0.87805 0.86484 0.0
C97 C 0.81389 0.80706 0.92609 0.0
O98 O 0.86126 0.89159 0.89379 0.0
O99 O 0.88389 0.81846 0.89354 0.0
O100 O 0.8438 0.8388 0.98421 0.0
O101 O 0.8533 0.83592 0.81812 0.0
O102 O 0.8147 0.87369 0.89871 0.0
O103 O 0.82885 0.7979 0.91669 0.0
O104 O 0.82981 0.87381 0.846 0.0
O105 O 0.85105 0.80322 0.84832 0.0
O106 O 0.8123 0.82807 0.93305 0.0
O107 O 0.88442 0.85276 0.86757 0.0
O108 O 0.84815 0.88433 0.94755 0.0
O109 O 0.86196 0.8121 0.96144 0.0
Sc110 Sc 0.6466 0.1426 0.43659 0.0
Sc111 Sc 0.62223 0.1885 0.40038 0.0
Sc112 Sc 0.62265 0.136 0.35432 0.0
O113 O 0.63046 0.15573 0.39708 0.0
C114 C 0.66367 0.12117 0.36378 0.0
C115 C 0.66385 0.19137 0.42424 0.0
C116 C 0.62795 0.18408 0.31477 0.0
C117 C 0.62129 0.17526 0.48426 0.0
C118 C 0.62028 0.10132 0.42194 0.0
C119 C 0.58636 0.16247 0.37464 0.0
O120 O 0.66369 0.12518 0.3978 0.0
O121 O 0.64928 0.20054 0.41266 0.0
O122 O 0.62637 0.16259 0.31387 0.0
O123 O 0.63237 0.15883 0.48116 0.0
O124 O 0.6177 0.10657 0.38868 0.0
O125 O 0.59454 0.17933 0.3888 0.0
O126 O 0.6295 0.11355 0.44356 0.0
O127 O 0.61586 0.18668 0.45714 0.0
O128 O 0.59463 0.14535 0.36158 0.0
O129 O 0.66496 0.17057 0.433 0.0
O130 O 0.65006 0.12529 0.34355 0.0
O131 O 0.62735 0.19526 0.34419 0.0
Sc132 Sc 0.8302 0.15206 0.08015 0.0
Sc133 Sc 0.85392 0.201 0.10405 0.0
Sc134 Sc 0.86277 0.14988 0.14908 0.0
O135 O 0.84898 0.16768 0.11112 0.0
C136 C 0.82372 0.12977 0.15882 0.0
C137 C 0.81064 0.19791 0.09591 0.0
C138 C 0.85667 0.1978 0.18904 0.0
C139 C 0.84799 0.18688 0.02294 0.0
C140 C 0.86025 0.11472 0.08239 0.0
C141 C 0.89354 0.18014 0.11526 0.0
O142 O 0.82047 0.13136 0.12485 0.0
O143 O 0.82552 0.20894 0.09665 0.0
O144 O 0.86279 0.17758 0.18827 0.0
O145 O 0.8367 0.17135 0.03137 0.0
O146 O 0.86472 0.11982 0.11491 0.0
O147 O 0.88286 0.19674 0.10964 0.0
O148 O 0.84928 0.12661 0.06371 0.0
O149 O 0.85743 0.19732 0.04647 0.0
O150 O 0.88816 0.16097 0.12689 0.0
O151 O 0.81 0.17642 0.09455 0.0
O152 O 0.83803 0.1378 0.17329 0.0
O153 O 0.85086 0.20789 0.16084 0.0
Sc154 Sc 0.64747 0.84663 0.58127 0.0
Sc155 Sc 0.62358 0.79907 0.61271 0.0
Sc156 Sc 0.61673 0.85235 0.6539 0.0
O157 O 0.62927 0.83262 0.61603 0.0
C158 C 0.6566 0.87137 0.65713 0.0
C159 C 0.66667 0.80044 0.60238 0.0
C160 C 0.62163 0.80575 0.69814 0.0
C161 C 0.62849 0.81023 0.52884 0.0
C162 C 0.61792 0.88507 0.58379 0.0
C163 C 0.58464 0.82188 0.62352 0.0
O164 O 0.65941 0.86742 0.6235 0.0
O165 O 0.6519 0.78992 0.60889 0.0
O166 O 0.61803 0.82685 0.69672 0.0
O167 O 0.63863 0.8274 0.53409 0.0
O168 O 0.61357 0.88088 0.61671 0.0
O169 O 0.59487 0.80525 0.61539 0.0
O170 O 0.62894 0.87284 0.56583 0.0
O171 O 0.62127 0.7993 0.55479 0.0
O172 O 0.59054 0.84044 0.63669 0.0
O173 O 0.66728 0.82131 0.59376 0.0
O174 O 0.64214 0.86536 0.67345 0.0
O175 O 0.62493 0.79401 0.67005 0.0
Sc176 Sc 0.64872 0.64055 0.07708 0.0
Sc177 Sc 0.62588 0.68782 0.11107 0.0
Sc178 Sc 0.62174 0.63526 0.15484 0.0
O179 O 0.63208 0.6546 0.11436 0.0
C180 C 0.61994 0.6021 0.0855 0.0
C181 C 0.62646 0.67623 0.02816 0.0
C182 C 0.58795 0.66484 0.13305 0.0
C183 C 0.66832 0.68669 0.09063 0.0
C184 C 0.66143 0.61655 0.15116 0.0
C185 C 0.6296 0.68242 0.1958 0.0
O186 O 0.62904 0.61501 0.06463 0.0
O187 O 0.61846 0.68556 0.05484 0.0
O188 O 0.59469 0.64578 0.14193 0.0
O189 O 0.66925 0.6653 0.08719 0.0
O190 O 0.64824 0.62378 0.17024 0.0
O191 O 0.63276 0.69349 0.16686 0.0
O192 O 0.66207 0.61894 0.11671 0.0
O193 O 0.65343 0.69717 0.09642 0.0
O194 O 0.62409 0.66192 0.19557 0.0
O195 O 0.63848 0.6609 0.03226 0.0
O196 O 0.61795 0.60596 0.11945 0.0
O197 O 0.59764 0.68196 0.12452 0.0
Sc198 Sc 0.83298 0.35833 0.56968 0.0
Sc199 Sc 0.85453 0.30942 0.60295 0.0
Sc200 Sc 0.8576 0.36076 0.65162 0.0
O201 O 0.84837 0.34279 0.6081 0.0
C202 C 0.86156 0.39679 0.58633 0.0
C203 C 0.85671 0.32477 0.52021 0.0
C204 C 0.89198 0.33133 0.62961 0.0
C205 C 0.81289 0.31112 0.57817 0.0
C206 C 0.81755 0.37936 0.64431 0.0
C207 C 0.84913 0.31246 0.68848 0.0
O208 O 0.85181 0.38574 0.56406 0.0
O209 O 0.86161 0.3124 0.54669 0.0
O210 O 0.88489 0.3493 0.6425 0.0
O211 O 0.81288 0.33226 0.57164 0.0
O212 O 0.83095 0.37335 0.66388 0.0
O213 O 0.84835 0.30187 0.6585 0.0
O214 O 0.81714 0.37643 0.60998 0.0
O215 O 0.82695 0.30037 0.58878 0.0
O216 O 0.85274 0.33353 0.69038 0.0
O217 O 0.84619 0.34172 0.5241 0.0
O218 O 0.86382 0.39068 0.61928 0.0
O219 O 0.88269 0.31525 0.61593 0.0
Sc220 Sc 0.64879 0.3458 0.92663 0.0
Sc221 Sc 0.62236 0.29961 0.89977 0.0
Sc222 Sc 0.61804 0.35184 0.85481 0.0
O223 O 0.62967 0.3324 0.89371 0.0
C224 C 0.62065 0.38561 0.92349 0.0
C225 C 0.62797 0.31204 0.98157 0.0
C226 C 0.58447 0.32404 0.88356 0.0
C227 C 0.66553 0.29822 0.91064 0.0
C228 C 0.65825 0.36911 0.84999 0.0
C229 C 0.62246 0.30387 0.81422 0.0
O230 O 0.63102 0.37293 0.94226 0.0
O231 O 0.6181 0.30303 0.95724 0.0
O232 O 0.5914 0.34247 0.87223 0.0
O233 O 0.66755 0.31957 0.91282 0.0
O234 O 0.64383 0.36273 0.83407 0.0
O235 O 0.62599 0.29284 0.84305 0.0
O236 O 0.66088 0.36615 0.88389 0.0
O237 O 0.65001 0.28873 0.90882 0.0
O238 O 0.61818 0.32482 0.81444 0.0
O239 O 0.64024 0.32658 0.97416 0.0
O240 O 0.61632 0.38114 0.89063 0.0
O241 O 0.59391 0.30676 0.89195 0.0
Sc242 Sc 0.85908 0.64533 0.35935 0.0
Sc243 Sc 0.85357 0.6979 0.4026 0.0
Sc244 Sc 0.82874 0.65107 0.43187 0.0
O245 O 0.84718 0.66479 0.39785 0.0
C246 C 0.81943 0.62619 0.35656 0.0
C247 C 0.85272 0.69262 0.31742 0.0
C248 C 0.81048 0.69748 0.41606 0.0
C249 C 0.89201 0.67504 0.38533 0.0
C250 C 0.85813 0.61277 0.42961 0.0
C251 C 0.8492 0.68634 0.48472 0.0
O252 O 0.83347 0.63315 0.33983 0.0
O253 O 0.84878 0.70373 0.34597 0.0
O254 O 0.80905 0.67604 0.41748 0.0
O255 O 0.88552 0.65602 0.37569 0.0
O256 O 0.84761 0.6254 0.44812 0.0
O257 O 0.85887 0.69512 0.45979 0.0
O258 O 0.86185 0.61649 0.39617 0.0
O259 O 0.88213 0.69211 0.3929 0.0
O260 O 0.83702 0.67154 0.47815 0.0
O261 O 0.85795 0.67199 0.31821 0.0
O262 O 0.81703 0.62935 0.3905 0.0
O263 O 0.82575 0.7076 0.41373 0.0
Sc264 Sc 0.35778 0.35572 0.84464 0.0
Sc265 Sc 0.35214 0.30365 0.88939 0.0
Sc266 Sc 0.32818 0.35134 0.91866 0.0
O267 O 0.34607 0.33685 0.88419 0.0
C268 C 0.35757 0.38946 0.91356 0.0
C269 C 0.39066 0.32607 0.87132 0.0
C270 C 0.34849 0.3161 0.97173 0.0
C271 C 0.35126 0.3081 0.80402 0.0
C272 C 0.31827 0.3752 0.84276 0.0
C273 C 0.30917 0.30498 0.9039 0.0
O274 O 0.3609 0.38504 0.8802 0.0
O275 O 0.3807 0.30921 0.8797 0.0
O276 O 0.33674 0.33144 0.96534 0.0
O277 O 0.35644 0.32873 0.80429 0.0
O278 O 0.31636 0.37272 0.87698 0.0
O279 O 0.32424 0.29455 0.90045 0.0
O280 O 0.33197 0.36764 0.82555 0.0
O281 O 0.34734 0.29728 0.83287 0.0
O282 O 0.30805 0.32643 0.90625 0.0
O283 O 0.38428 0.34498 0.86078 0.0
O284 O 0.34735 0.37708 0.9332 0.0
O285 O 0.35749 0.30649 0.94659 0.0
Sc286 Sc 0.14971 0.6528 0.41808 0.0
Sc287 Sc 0.12424 0.69993 0.39135 0.0
Sc288 Sc 0.11897 0.64803 0.34581 0.0
O289 O 0.13092 0.66694 0.38507 0.0
C290 C 0.159 0.62986 0.34103 0.0
C291 C 0.16738 0.70009 0.40301 0.0
C292 C 0.12436 0.69604 0.30572 0.0
C293 C 0.12931 0.68679 0.47324 0.0
C294 C 0.12086 0.6137 0.4139 0.0
C295 C 0.08589 0.67669 0.37486 0.0
O296 O 0.1617 0.63269 0.37495 0.0
O297 O 0.15206 0.70999 0.40046 0.0
O298 O 0.11974 0.6752 0.3057 0.0
O299 O 0.14116 0.67172 0.46589 0.0
O300 O 0.11655 0.61858 0.38118 0.0
O301 O 0.09567 0.69362 0.38359 0.0
O302 O 0.13151 0.6259 0.43283 0.0
O303 O 0.11993 0.69652 0.44882 0.0
O304 O 0.09246 0.65817 0.36311 0.0
O305 O 0.169 0.6787 0.40548 0.0
O306 O 0.1446 0.63645 0.32521 0.0
O307 O 0.12799 0.70685 0.33469 0.0
Sc308 Sc 0.33338 0.64433 0.06182 0.0
Sc309 Sc 0.35617 0.6916 0.09723 0.0
Sc310 Sc 0.35848 0.63899 0.14259 0.0
O311 O 0.34937 0.65837 0.10058 0.0
C312 C 0.31829 0.62132 0.13523 0.0
C313 C 0.31414 0.69151 0.07456 0.0
C314 C 0.35107 0.68658 0.18257 0.0
C315 C 0.35701 0.67891 0.01362 0.0
C316 C 0.36162 0.60511 0.07427 0.0
C317 C 0.39332 0.66785 0.12174 0.0
O318 O 0.31791 0.62475 0.10102 0.0
O319 O 0.32866 0.70173 0.08401 0.0
O320 O 0.3545 0.66541 0.18321 0.0
O321 O 0.34588 0.66253 0.01697 0.0
O322 O 0.36374 0.60974 0.1079 0.0
O323 O 0.3843 0.68463 0.10952 0.0
O324 O 0.3522 0.61729 0.05293 0.0
O325 O 0.36304 0.68987 0.04072 0.0
O326 O 0.38592 0.64974 0.13336 0.0
O327 O 0.31352 0.67043 0.06763 0.0
O328 O 0.33168 0.62705 0.15499 0.0
O329 O 0.35023 0.69783 0.15322 0.0
Sc330 Sc 0.14636 0.35852 0.56516 0.0
Sc331 Sc 0.12462 0.31105 0.60252 0.0
Sc332 Sc 0.1201 0.36438 0.64437 0.0
O333 O 0.13035 0.34461 0.60401 0.0
C334 C 0.15992 0.38325 0.63828 0.0
C335 C 0.16667 0.31238 0.57989 0.0
C336 C 0.12877 0.31806 0.68721 0.0
C337 C 0.12357 0.32222 0.5185 0.0
C338 C 0.11742 0.3972 0.57471 0.0
C339 C 0.08651 0.33363 0.62451 0.0
O340 O 0.16092 0.37927 0.60423 0.0
O341 O 0.1523 0.30177 0.5891 0.0
O342 O 0.1236 0.33867 0.68634 0.0
O343 O 0.13453 0.33887 0.52111 0.0
O344 O 0.11504 0.39302 0.60841 0.0
O345 O 0.09624 0.31675 0.61509 0.0
O346 O 0.12706 0.38478 0.55413 0.0
O347 O 0.11752 0.3117 0.54609 0.0
O348 O 0.09316 0.35268 0.63368 0.0
O349 O 0.16689 0.33344 0.57275 0.0
O350 O 0.14642 0.37733 0.65767 0.0
O351 O 0.13126 0.3064 0.65865 0.0
C352 C 0.18695 0.11318 0.15417 0.0
C353 C 0.16959 0.11681 0.16918 0.0
C354 C 0.20149 0.10683 0.17636 0.0
C355 C 0.21611 0.11357 0.27076 0.0
H356 H 0.25727 0.07749 0.23914 0.0
C357 C 0.28186 0.1112 0.3545 0.0
C358 C 0.29775 0.11534 0.3342 0.0
C359 C 0.26563 0.10548 0.33703 0.0
C360 C 0.24586 0.08759 0.24835 0.0
H361 H 0.15364 0.11481 0.21887 0.0
H362 H 0.17899 0.10347 0.25739 0.0
H363 H 0.22932 0.0775 0.20319 0.0
H364 H 0.3092 0.11544 0.27967 0.0
H365 H 0.2809 0.10582 0.24933 0.0
H366 H 0.23275 0.12435 0.31508 0.0
C367 C 0.18141 0.10603 0.22859 0.0
C368 C 0.22987 0.0876 0.22779 0.0
C369 C 0.16687 0.11245 0.20644 0.0
C370 C 0.29723 0.11248 0.29621 0.0
C371 C 0.28101 0.10677 0.27877 0.0
C372 C 0.23205 0.11355 0.29129 0.0
C373 C 0.199 0.10388 0.21401 0.0
C374 C 0.21497 0.10103 0.2383 0.0
C375 C 0.26493 0.10375 0.2989 0.0
C376 C 0.24727 0.10102 0.27984 0.0
H377 H 0.18955 0.11632 0.12558 0.0
H378 H 0.21489 0.10551 0.16426 0.0
H379 H 0.20502 0.1244 0.27937 0.0
H380 H 0.28178 0.11305 0.38384 0.0
H381 H 0.25352 0.10293 0.35333 0.0
C382 C 0.19653 0.88784 0.85004 0.0
C383 C 0.17927 0.88949 0.83384 0.0
C384 C 0.21216 0.89344 0.83033 0.0
C385 C 0.22744 0.89519 0.73538 0.0
H386 H 0.27215 0.9181 0.77742 0.0
C387 C 0.29271 0.89612 0.65136 0.0
C388 C 0.30769 0.88594 0.66862 0.0
C389 C 0.27758 0.9029 0.67156 0.0
C390 C 0.25974 0.91172 0.76531 0.0
H391 H 0.16479 0.90005 0.78526 0.0
H392 H 0.192 0.91028 0.75123 0.0
H393 H 0.2441 0.91876 0.81326 0.0
H394 H 0.319 0.87639 0.72101 0.0
H395 H 0.29247 0.88786 0.75609 0.0
H396 H 0.24303 0.88745 0.68799 0.0
C397 C 0.19351 0.90404 0.7788 0.0
C398 C 0.2437 0.91207 0.78582 0.0
C399 C 0.1779 0.89824 0.79836 0.0
C400 C 0.30767 0.88409 0.70679 0.0
C401 C 0.29249 0.8908 0.72698 0.0
C402 C 0.2434 0.8949 0.71493 0.0
C403 C 0.21085 0.90099 0.79411 0.0
C404 C 0.22743 0.90338 0.7713 0.0
C405 C 0.27704 0.89957 0.70942 0.0
C406 C 0.25981 0.90275 0.72986 0.0
H407 H 0.19807 0.88114 0.87733 0.0
H408 H 0.22529 0.89068 0.84288 0.0
H409 H 0.21528 0.88793 0.72353 0.0
H410 H 0.29236 0.89811 0.62206 0.0
H411 H 0.26601 0.91002 0.65734 0.0
C412 C 0.67116 0.88083 0.71692 0.0
C413 C 0.67149 0.88163 0.67865 0.0
C414 C 0.68639 0.88736 0.73707 0.0
C415 C 0.73578 0.88973 0.72612 0.0
H416 H 0.73467 0.91573 0.82304 0.0
C417 C 0.80088 0.89515 0.81007 0.0
C418 C 0.79945 0.88682 0.84582 0.0
C419 C 0.78532 0.90049 0.79015 0.0
C420 C 0.73518 0.90844 0.796 0.0
H421 H 0.68755 0.89171 0.63174 0.0
H422 H 0.71394 0.90345 0.66693 0.0
H423 H 0.70686 0.91473 0.7866 0.0
H424 H 0.78056 0.87884 0.8894 0.0
H425 H 0.75338 0.8877 0.85434 0.0
H426 H 0.7638 0.88269 0.73569 0.0
C427 C 0.70209 0.89721 0.68131 0.0
C428 C 0.71927 0.90788 0.77515 0.0
C429 C 0.68693 0.89055 0.66114 0.0
C430 C 0.78215 0.88521 0.86192 0.0
C431 C 0.76655 0.8904 0.84186 0.0
C432 C 0.75162 0.8903 0.74687 0.0
C433 C 0.70222 0.89496 0.7194 0.0
C434 C 0.71934 0.89816 0.74019 0.0
C435 C 0.76795 0.89744 0.80539 0.0
C436 C 0.75146 0.89931 0.78227 0.0
H437 H 0.65949 0.87409 0.73131 0.0
H438 H 0.68607 0.88525 0.76635 0.0
H439 H 0.73627 0.88169 0.69964 0.0
H440 H 0.81402 0.89693 0.79702 0.0
H441 H 0.78687 0.90634 0.76237 0.0
C442 C 0.69671 0.11079 0.36746 0.0
C443 C 0.68075 0.11305 0.34667 0.0
C444 C 0.71331 0.10604 0.35065 0.0
C445 C 0.73475 0.08716 0.26432 0.0
H446 H 0.77278 0.12935 0.29175 0.0
C447 C 0.79257 0.11356 0.16812 0.0
C448 C 0.80954 0.11979 0.18264 0.0
C449 C 0.77831 0.10713 0.191 0.0
C450 C 0.76253 0.11704 0.28422 0.0
H451 H 0.66963 0.11067 0.29206 0.0
H452 H 0.69861 0.10256 0.26282 0.0
H453 H 0.74486 0.12791 0.32698 0.0
H454 H 0.82515 0.12255 0.23257 0.0
H455 H 0.80031 0.11098 0.27242 0.0
H456 H 0.75229 0.07678 0.22084 0.0
C457 C 0.69825 0.10435 0.29215 0.0
C458 C 0.74647 0.11624 0.30444 0.0
C459 C 0.68164 0.10917 0.30893 0.0
C460 C 0.81222 0.11811 0.22045 0.0
C461 C 0.79795 0.11157 0.24334 0.0
C462 C 0.75088 0.08788 0.24415 0.0
C463 C 0.71434 0.10335 0.31271 0.0
C464 C 0.73223 0.10171 0.29419 0.0
C465 C 0.78068 0.10665 0.22896 0.0
C466 C 0.76476 0.10326 0.25331 0.0
H467 H 0.69654 0.1135 0.39662 0.0
H468 H 0.72545 0.10506 0.36725 0.0
H469 H 0.7241 0.07557 0.25609 0.0
H470 H 0.79 0.11459 0.13914 0.0
H471 H 0.76516 0.1037 0.17897 0.0
C472 C 0.80752 0.60951 0.29853 0.0
C473 C 0.80472 0.61538 0.33521 0.0
C474 C 0.79307 0.60193 0.27712 0.0
C475 C 0.74472 0.58289 0.28011 0.0
H476 H 0.74197 0.61456 0.18777 0.0
C477 C 0.6778 0.60547 0.20828 0.0
C478 C 0.67742 0.60678 0.17005 0.0
C479 C 0.69381 0.5997 0.22644 0.0
C480 C 0.74265 0.60512 0.21303 0.0
H481 H 0.7847 0.61665 0.37864 0.0
H482 H 0.75948 0.60395 0.34114 0.0
H483 H 0.76956 0.61685 0.22361 0.0
H484 H 0.69325 0.60125 0.1209 0.0
H485 H 0.72113 0.59105 0.15269 0.0
H486 H 0.71737 0.57206 0.27002 0.0
C487 C 0.77288 0.60487 0.329 0.0
C488 C 0.75851 0.60643 0.23366 0.0
C489 C 0.78735 0.61232 0.35048 0.0
C490 C 0.69308 0.60066 0.15037 0.0
C491 C 0.7091 0.59489 0.16856 0.0
C492 C 0.72879 0.58162 0.25946 0.0
C493 C 0.77547 0.60017 0.29182 0.0
C494 C 0.75959 0.59582 0.26786 0.0
C495 C 0.70979 0.59508 0.2068 0.0
C496 C 0.72744 0.59321 0.22612 0.0
H497 H 0.82078 0.61137 0.286 0.0
H498 H 0.79559 0.59804 0.24875 0.0
H499 H 0.74523 0.57422 0.30608 0.0
H500 H 0.66597 0.60993 0.22435 0.0
H501 H 0.69391 0.60018 0.25591 0.0
C502 C 0.67035 0.38389 0.79067 0.0
C503 C 0.67305 0.37913 0.8278 0.0
C504 C 0.68483 0.39098 0.76883 0.0
C505 C 0.73277 0.41134 0.77103 0.0
H506 H 0.73661 0.37749 0.68089 0.0
C507 C 0.80055 0.39038 0.70079 0.0
C508 C 0.80109 0.38833 0.66265 0.0
C509 C 0.78429 0.39555 0.71858 0.0
C510 C 0.73562 0.38752 0.70551 0.0
H511 H 0.69296 0.37924 0.87141 0.0
H512 H 0.71822 0.39114 0.83322 0.0
H513 H 0.70894 0.37508 0.71669 0.0
H514 H 0.78517 0.39182 0.6132 0.0
H515 H 0.75685 0.40101 0.64435 0.0
H516 H 0.75987 0.42298 0.76038 0.0
C517 C 0.70486 0.3897 0.82104 0.0
C518 C 0.71972 0.38613 0.7261 0.0
C519 C 0.69037 0.38271 0.84293 0.0
C520 C 0.78524 0.39302 0.64262 0.0
C521 C 0.76897 0.39821 0.66045 0.0
C522 C 0.74873 0.4127 0.75041 0.0
C523 C 0.70236 0.39339 0.78357 0.0
C524 C 0.71826 0.39757 0.75954 0.0
C525 C 0.7682 0.39883 0.69867 0.0
C526 C 0.75048 0.40035 0.71787 0.0
H527 H 0.65715 0.38158 0.77819 0.0
H528 H 0.68239 0.39406 0.74018 0.0
H529 H 0.73196 0.42065 0.79638 0.0
H530 H 0.8125 0.38701 0.71713 0.0
H531 H 0.78415 0.39572 0.74807 0.0
C532 C 0.30325 0.38533 0.7837 0.0
C533 C 0.30332 0.38592 0.82197 0.0
C534 C 0.28806 0.39275 0.76424 0.0
C535 C 0.23897 0.39712 0.77664 0.0
H536 H 0.24023 0.42383 0.68018 0.0
C537 C 0.17408 0.40184 0.69246 0.0
C538 C 0.1758 0.39334 0.65688 0.0
C539 C 0.18946 0.40791 0.7124 0.0
C540 C 0.23967 0.41638 0.70711 0.0
H541 H 0.28799 0.39642 0.86964 0.0
H542 H 0.26163 0.40955 0.83563 0.0
H543 H 0.26811 0.4219 0.71631 0.0
H544 H 0.19494 0.38603 0.61345 0.0
H545 H 0.2218 0.39607 0.64853 0.0
H546 H 0.21085 0.39066 0.76716 0.0
C547 C 0.27317 0.4029 0.82073 0.0
C548 C 0.25561 0.41528 0.72778 0.0
C549 C 0.28832 0.39541 0.84021 0.0
C550 C 0.19314 0.3925 0.64081 0.0
C551 C 0.20856 0.39838 0.6609 0.0
C552 C 0.22309 0.39818 0.75604 0.0
C553 C 0.27265 0.401 0.78261 0.0
C554 C 0.25549 0.40518 0.76246 0.0
C555 C 0.20693 0.40539 0.69735 0.0
C556 C 0.22331 0.40737 0.72073 0.0
H557 H 0.31458 0.37821 0.76873 0.0
H558 H 0.28805 0.39086 0.73491 0.0
H559 H 0.23843 0.38885 0.80295 0.0
H560 H 0.16088 0.40304 0.70543 0.0
H561 H 0.18772 0.41375 0.74013 0.0
C562 C 0.28593 0.60783 0.13311 0.0
C563 C 0.3018 0.61216 0.15327 0.0
C564 C 0.26965 0.60249 0.15079 0.0
C565 C 0.2494 0.58694 0.24038 0.0
H566 H 0.20963 0.62498 0.20773 0.0
C567 C 0.19106 0.61605 0.33371 0.0
C568 C 0.17375 0.61986 0.31867 0.0
C569 C 0.20554 0.60922 0.31166 0.0
C570 C 0.2204 0.61382 0.21683 0.0
H571 H 0.31323 0.61267 0.20776 0.0
H572 H 0.28487 0.6037 0.23844 0.0
H573 H 0.23729 0.62295 0.17186 0.0
H574 H 0.15785 0.61795 0.269 0.0
H575 H 0.18306 0.60576 0.23071 0.0
H576 H 0.23263 0.5785 0.28615 0.0
C577 C 0.285 0.60426 0.20897 0.0
C578 C 0.2363 0.61265 0.1962 0.0
C579 C 0.30127 0.60959 0.19133 0.0
C580 C 0.17104 0.61546 0.28144 0.0
C581 C 0.18551 0.60853 0.25943 0.0
C582 C 0.23344 0.5881 0.26105 0.0
C583 C 0.26888 0.60135 0.18899 0.0
C584 C 0.25116 0.59965 0.20817 0.0
C585 C 0.20303 0.60593 0.2741 0.0
C586 C 0.21894 0.602 0.24995 0.0
H587 H 0.28586 0.60944 0.10374 0.0
H588 H 0.25751 0.59998 0.13461 0.0
H589 H 0.26052 0.57653 0.25005 0.0
H590 H 0.19365 0.61924 0.36228 0.0
H591 H 0.21889 0.60762 0.3238 0.0
C592 C 0.13654 0.19162 0.95311 0.0
C593 C 0.12554 0.19893 0.98215 0.0
C594 C 0.13653 0.20336 0.91994 0.0
C595 C 0.11116 0.24711 0.86677 0.0
H596 H 0.15819 0.25785 0.82213 0.0
C597 C 0.12139 0.314 0.75371 0.0
C598 C 0.1307 0.30629 0.72266 0.0
C599 C 0.12127 0.30101 0.78565 0.0
C600 C 0.14495 0.2549 0.8342 0.0
H601 H 0.10513 0.22364 0.99818 0.0
H602 H 0.10535 0.24412 0.94109 0.0
H603 H 0.156 0.23336 0.8755 0.0
H604 H 0.14798 0.27954 0.70143 0.0
H605 H 0.14795 0.25716 0.75717 0.0
H606 H 0.10022 0.26904 0.82579 0.0
C607 C 0.11389 0.22924 0.94357 0.0
C608 C 0.14366 0.24072 0.86463 0.0
C609 C 0.11386 0.21751 0.97655 0.0
C610 C 0.1406 0.28592 0.72482 0.0
C611 C 0.14065 0.27312 0.7568 0.0
C612 C 0.11249 0.26144 0.83657 0.0
C613 C 0.12552 0.22267 0.91508 0.0
C614 C 0.12675 0.23669 0.8814 0.0
C615 C 0.13066 0.28025 0.78729 0.0
C616 C 0.1294 0.26553 0.82001 0.0
H617 H 0.14568 0.17737 0.95639 0.0
H618 H 0.1454 0.19755 0.89832 0.0
H619 H 0.09787 0.24412 0.87854 0.0
H620 H 0.11359 0.32957 0.75292 0.0
H621 H 0.11362 0.30706 0.80892 0.0
C622 C 0.33411 0.80546 0.45697 0.0
C623 C 0.34941 0.80467 0.47979 0.0
C624 C 0.33371 0.79303 0.42457 0.0
C625 C 0.33844 0.77271 0.34948 0.0
H626 H 0.36308 0.71459 0.34828 0.0
C627 C 0.34908 0.72316 0.2167 0.0
C628 C 0.349 0.6993 0.21722 0.0
C629 C 0.34818 0.73556 0.24893 0.0
C630 C 0.3559 0.73061 0.34824 0.0
H631 H 0.3767 0.79124 0.48551 0.0
H632 H 0.37637 0.77046 0.42825 0.0
H633 H 0.36354 0.7375 0.40324 0.0
H634 H 0.34748 0.66981 0.25235 0.0
H635 H 0.34536 0.69155 0.30888 0.0
H636 H 0.33015 0.76542 0.29503 0.0
C637 C 0.36437 0.77995 0.43595 0.0
C638 C 0.35644 0.744 0.37964 0.0
C639 C 0.36465 0.79209 0.46861 0.0
C640 C 0.34764 0.68815 0.25096 0.0
C641 C 0.34655 0.70064 0.28337 0.0
C642 C 0.33771 0.75921 0.31827 0.0
C643 C 0.34872 0.77977 0.41392 0.0
C644 C 0.3479 0.76537 0.38057 0.0
C645 C 0.34695 0.72454 0.28276 0.0
C646 C 0.34663 0.7381 0.31702 0.0
H647 H 0.32205 0.81475 0.46502 0.0
H648 H 0.32133 0.79317 0.40865 0.0
H649 H 0.33181 0.78909 0.34893 0.0
H650 H 0.35028 0.73241 0.19134 0.0
H651 H 0.34894 0.75386 0.24724 0.0
C652 C 0.11482 0.70124 0.24057 0.0
C653 C 0.12455 0.70891 0.27107 0.0
C654 C 0.11353 0.71472 0.20929 0.0
C655 C 0.11871 0.77457 0.1787 0.0
H656 H 0.11894 0.74759 0.08254 0.0
C657 C 0.12916 0.82437 0.0436 0.0
C658 C 0.11913 0.81709 0.01318 0.0
C659 C 0.12786 0.81275 0.07676 0.0
C660 C 0.11862 0.75536 0.10925 0.0
H661 H 0.14126 0.7363 0.29197 0.0
H662 H 0.13951 0.75934 0.23726 0.0
H663 H 0.12159 0.72335 0.13591 0.0
H664 H 0.0986 0.79319 0.99488 0.0
H665 H 0.09635 0.77314 0.05256 0.0
H666 H 0.11622 0.80667 0.15167 0.0
C667 C 0.13235 0.7433 0.2378 0.0
C668 C 0.12013 0.74145 0.13988 0.0
C669 C 0.13349 0.72996 0.2691 0.0
C670 C 0.10673 0.7991 0.01754 0.0
C671 C 0.1055 0.78749 0.05054 0.0
C672 C 0.11736 0.7885 0.14799 0.0
C673 C 0.1221 0.73606 0.2077 0.0
C674 C 0.12025 0.75086 0.17503 0.0
C675 C 0.11653 0.79364 0.08007 0.0
C676 C 0.1173 0.77903 0.11295 0.0
H677 H 0.10767 0.68519 0.24129 0.0
H678 H 0.10538 0.70866 0.18677 0.0
H679 H 0.1184 0.7824 0.20534 0.0
H680 H 0.13884 0.83813 0.04125 0.0
H681 H 0.13652 0.81789 0.09911 0.0
C682 C 0.36103 0.30296 0.73895 0.0
C683 C 0.35104 0.29536 0.76922 0.0
C684 C 0.3625 0.28948 0.70773 0.0
C685 C 0.35759 0.22959 0.67742 0.0
H686 H 0.35865 0.25628 0.58103 0.0
C687 C 0.34904 0.17919 0.54257 0.0
C688 C 0.35936 0.18637 0.51241 0.0
C689 C 0.34992 0.19098 0.5756 0.0
C690 C 0.35862 0.24859 0.60781 0.0
H691 H 0.334 0.26812 0.78967 0.0
H692 H 0.33609 0.24506 0.73502 0.0
H693 H 0.35526 0.28067 0.63404 0.0
H694 H 0.37996 0.21035 0.49457 0.0
H695 H 0.38149 0.2307 0.55205 0.0
H696 H 0.36049 0.19742 0.65083 0.0
C697 C 0.3433 0.26106 0.73573 0.0
C698 C 0.35668 0.26259 0.63824 0.0
C699 C 0.34197 0.27441 0.76699 0.0
C700 C 0.37163 0.20447 0.517 0.0
C701 C 0.37244 0.21628 0.54989 0.0
C702 C 0.35938 0.21557 0.64692 0.0
C703 C 0.35387 0.26819 0.70594 0.0
C704 C 0.35608 0.25329 0.67346 0.0
C705 C 0.36111 0.21019 0.57908 0.0
C706 C 0.35992 0.22492 0.61179 0.0
H707 H 0.36829 0.31893 0.73986 0.0
H708 H 0.37089 0.29547 0.68546 0.0
H709 H 0.35755 0.22184 0.70414 0.0
H710 H 0.33945 0.16534 0.54009 0.0
H711 H 0.34104 0.18588 0.59767 0.0
C712 C 0.84868 0.82088 0.05528 0.0
C713 C 0.85926 0.81411 0.02524 0.0
C714 C 0.84966 0.80898 0.08822 0.0
C715 C 0.85953 0.75161 0.12056 0.0
H716 H 0.8576 0.77841 0.21676 0.0
C717 C 0.86266 0.69765 0.25239 0.0
C718 C 0.85235 0.70505 0.28234 0.0
C719 C 0.86397 0.71103 0.22098 0.0
C720 C 0.85789 0.77063 0.19007 0.0
H721 H 0.88031 0.79074 0.00748 0.0
H722 H 0.882 0.77022 0.0648 0.0
H723 H 0.86014 0.80286 0.1634 0.0
H724 H 0.83453 0.73172 0.302 0.0
H725 H 0.83635 0.75457 0.24708 0.0
H726 H 0.85685 0.71943 0.14692 0.0
C727 C 0.87269 0.78439 0.06262 0.0
C728 C 0.85944 0.78468 0.15954 0.0
C729 C 0.87179 0.7963 0.02983 0.0
C730 C 0.84277 0.72562 0.27958 0.0
C731 C 0.84394 0.73885 0.24816 0.0
C732 C 0.85783 0.73757 0.15104 0.0
C733 C 0.86119 0.79008 0.09173 0.0
C734 C 0.86026 0.77531 0.12445 0.0
C735 C 0.85486 0.73199 0.21873 0.0
C736 C 0.85691 0.74689 0.1862 0.0
H737 H 0.83888 0.83449 0.05278 0.0
H738 H 0.84062 0.81377 0.11022 0.0
H739 H 0.8598 0.74389 0.09381 0.0
H740 H 0.8703 0.68197 0.25373 0.0
H741 H 0.8726 0.70526 0.19896 0.0
C742 C 0.60443 0.20218 0.52471 0.0
C743 C 0.61655 0.18385 0.52105 0.0
C744 C 0.60294 0.21381 0.55765 0.0
C745 C 0.61362 0.21229 0.65575 0.0
H746 H 0.61926 0.27732 0.64419 0.0
C747 C 0.63082 0.2698 0.77729 0.0
C748 C 0.62234 0.29114 0.77945 0.0
C749 C 0.62937 0.25663 0.74588 0.0
C750 C 0.61739 0.25926 0.64799 0.0
H751 H 0.63545 0.16222 0.55025 0.0
H752 H 0.6327 0.18249 0.60792 0.0
H753 H 0.6165 0.25332 0.59058 0.0
H754 H 0.60597 0.31554 0.7499 0.0
H755 H 0.60318 0.29237 0.69516 0.0
H756 H 0.61443 0.2182 0.71316 0.0
C757 C 0.62445 0.1879 0.5851 0.0
C758 C 0.61581 0.24549 0.61723 0.0
C759 C 0.62601 0.17627 0.55203 0.0
C760 C 0.61277 0.29925 0.74904 0.0
C761 C 0.61119 0.28595 0.71764 0.0
C762 C 0.61505 0.22609 0.68656 0.0
C763 C 0.61343 0.20732 0.5878 0.0
C764 C 0.61403 0.22185 0.62076 0.0
C765 C 0.61928 0.26433 0.71587 0.0
C766 C 0.61714 0.24974 0.68307 0.0
H767 H 0.59674 0.20835 0.50161 0.0
H768 H 0.59404 0.22842 0.55917 0.0
H769 H 0.6121 0.19416 0.65929 0.0
H770 H 0.63847 0.26311 0.80008 0.0
H771 H 0.63618 0.24036 0.7452 0.0
C772 C 0.84818 0.2752 0.72098 0.0
C773 C 0.84705 0.29903 0.72242 0.0
C774 C 0.84771 0.26229 0.75276 0.0
C775 C 0.8327 0.26112 0.84704 0.0
H776 H 0.87178 0.21769 0.86069 0.0
C777 C 0.86417 0.20663 0.97207 0.0
C778 C 0.84864 0.1953 0.98503 0.0
C779 C 0.86386 0.21774 0.93847 0.0
C780 C 0.86078 0.22971 0.85716 0.0
H781 H 0.84391 0.32783 0.75859 0.0
H782 H 0.84268 0.30499 0.8144 0.0
H783 H 0.87097 0.24104 0.80561 0.0
H784 H 0.82074 0.18631 0.97257 0.0
H785 H 0.82015 0.20611 0.91399 0.0
H786 H 0.82244 0.24959 0.89852 0.0
C787 C 0.8441 0.29651 0.78841 0.0
C788 C 0.86028 0.24299 0.82568 0.0
C789 C 0.84485 0.30955 0.75651 0.0
C790 C 0.83298 0.19469 0.96314 0.0
C791 C 0.83256 0.2062 0.92984 0.0
C792 C 0.83303 0.24752 0.87826 0.0
C793 C 0.84584 0.27278 0.78679 0.0
C794 C 0.84628 0.25888 0.82039 0.0
C795 C 0.84791 0.21812 0.9175 0.0
C796 C 0.84712 0.23177 0.88367 0.0
H797 H 0.84991 0.26645 0.69529 0.0
H798 H 0.8489 0.24402 0.75075 0.0
H799 H 0.82173 0.27317 0.84348 0.0
H800 H 0.87642 0.20743 0.98838 0.0
H801 H 0.87587 0.22686 0.9296 0.0
C802 C 0.62228 0.68694 0.26222 0.0
C803 C 0.63134 0.69463 0.23088 0.0
C804 C 0.62235 0.69994 0.2941 0.0
C805 C 0.62975 0.75908 0.32574 0.0
H806 H 0.63002 0.73093 0.42108 0.0
C807 C 0.63764 0.80807 0.46279 0.0
C808 C 0.62652 0.8007 0.49166 0.0
C809 C 0.63782 0.79628 0.42965 0.0
C810 C 0.62979 0.73902 0.39461 0.0
H811 H 0.64839 0.72145 0.20905 0.0
H812 H 0.64897 0.74366 0.26477 0.0
H813 H 0.63225 0.7073 0.36691 0.0
H814 H 0.60592 0.77608 0.50724 0.0
H815 H 0.6063 0.75576 0.44977 0.0
H816 H 0.62757 0.79087 0.3538 0.0
C817 C 0.6413 0.72799 0.2645 0.0
C818 C 0.63103 0.72547 0.36354 0.0
C819 C 0.64108 0.71514 0.23259 0.0
C820 C 0.61485 0.78213 0.48585 0.0
C821 C 0.61511 0.77035 0.45296 0.0
C822 C 0.62867 0.77265 0.3569 0.0
C823 C 0.63165 0.7208 0.29547 0.0
C824 C 0.6309 0.73529 0.32866 0.0
C825 C 0.62695 0.77689 0.42489 0.0
C826 C 0.6285 0.76274 0.39163 0.0
H827 H 0.61455 0.67131 0.26176 0.0
H828 H 0.6146 0.69395 0.31726 0.0
H829 H 0.6293 0.76724 0.29935 0.0
H830 H 0.64681 0.82227 0.46629 0.0
H831 H 0.64707 0.80171 0.40841 0.0
C832 C 0.60784 0.699 0.98431 0.0
C833 C 0.62351 0.68608 0.99157 0.0
C834 C 0.60648 0.71164 0.95222 0.0
C835 C 0.60495 0.72744 0.87221 0.0
H836 H 0.64612 0.76651 0.85095 0.0
C837 C 0.61671 0.7703 0.73362 0.0
C838 C 0.62089 0.79359 0.73336 0.0
C839 C 0.61594 0.75826 0.7662 0.0
C840 C 0.63449 0.75583 0.85678 0.0
H841 H 0.64974 0.6757 0.97023 0.0
H842 H 0.64738 0.698 0.91436 0.0
H843 H 0.64685 0.74176 0.90455 0.0
H844 H 0.62752 0.82251 0.7672 0.0
H845 H 0.62668 0.80105 0.82468 0.0
H846 H 0.59278 0.74109 0.82394 0.0
C847 C 0.6362 0.69828 0.93357 0.0
C848 C 0.63498 0.74152 0.88713 0.0
C849 C 0.63744 0.68533 0.96535 0.0
C850 C 0.62426 0.8046 0.7666 0.0
C851 C 0.62383 0.79235 0.79935 0.0
C852 C 0.60459 0.74146 0.84153 0.0
C853 C 0.62088 0.71191 0.92709 0.0
C854 C 0.62026 0.7271 0.89499 0.0
C855 C 0.61959 0.76909 0.79935 0.0
C856 C 0.61939 0.75569 0.83344 0.0
H857 H 0.59689 0.69993 0.00399 0.0
H858 H 0.59452 0.722 0.94784 0.0
H859 H 0.59344 0.7165 0.87769 0.0
H860 H 0.61389 0.76133 0.70853 0.0
H861 H 0.6128 0.74032 0.76541 0.0
C862 C 0.87433 0.29937 0.47867 0.0
C863 C 0.86154 0.31689 0.48311 0.0
C864 C 0.8761 0.28823 0.44536 0.0
C865 C 0.86437 0.28987 0.34758 0.0
H866 H 0.86199 0.22447 0.35816 0.0
C867 C 0.8478 0.23151 0.22648 0.0
C868 C 0.8572 0.21082 0.22355 0.0
C869 C 0.84932 0.24481 0.25775 0.0
C870 C 0.86295 0.24266 0.35462 0.0
H871 H 0.84165 0.33767 0.45502 0.0
H872 H 0.84481 0.3182 0.39671 0.0
H873 H 0.86425 0.24826 0.41205 0.0
H874 H 0.87542 0.18777 0.25156 0.0
H875 H 0.87829 0.21115 0.30601 0.0
H876 H 0.86305 0.28427 0.2901 0.0
C877 C 0.85343 0.31307 0.41915 0.0
C878 C 0.86425 0.25631 0.38554 0.0
C879 C 0.85163 0.32425 0.45258 0.0
C880 C 0.8679 0.20353 0.253 0.0
C881 C 0.86952 0.21695 0.28425 0.0
C882 C 0.86319 0.27619 0.31658 0.0
C883 C 0.86517 0.29437 0.41565 0.0
C884 C 0.86487 0.28007 0.3824 0.0
C885 C 0.86038 0.23786 0.28685 0.0
C886 C 0.8623 0.25241 0.31974 0.0
H887 H 0.88239 0.29345 0.50144 0.0
H888 H 0.88557 0.27422 0.44323 0.0
H889 H 0.86498 0.30811 0.34431 0.0
H890 H 0.83931 0.23758 0.20446 0.0
H891 H 0.84175 0.26053 0.25911 0.0
C892 C 0.61131 0.29062 0.03023 0.0
C893 C 0.6268 0.30274 0.01898 0.0
C894 C 0.61133 0.27863 0.06308 0.0
C895 C 0.61314 0.26445 0.1435 0.0
H896 H 0.65419 0.22437 0.16 0.0
C897 C 0.62606 0.22074 0.28081 0.0
C898 C 0.6292 0.19718 0.2803 0.0
C899 C 0.62594 0.23329 0.24866 0.0
C900 C 0.64263 0.2354 0.15561 0.0
H901 H 0.65428 0.31227 0.03402 0.0
H902 H 0.65431 0.29115 0.09127 0.0
H903 H 0.65338 0.24824 0.10536 0.0
H904 H 0.63517 0.16851 0.24532 0.0
H905 H 0.63535 0.19077 0.18877 0.0
H906 H 0.60249 0.25185 0.1939 0.0
C907 C 0.64218 0.29098 0.07456 0.0
C908 C 0.64223 0.2492 0.1246 0.0
C909 C 0.64207 0.30328 0.042 0.0
C910 C 0.63268 0.18659 0.24669 0.0
C911 C 0.63283 0.19931 0.21438 0.0
C912 C 0.61367 0.25093 0.17474 0.0
C913 C 0.62693 0.27821 0.0851 0.0
C914 C 0.62749 0.26387 0.11828 0.0
C915 C 0.62918 0.22273 0.2151 0.0
C916 C 0.62842 0.2363 0.18113 0.0
H917 H 0.59934 0.28983 0.0131 0.0
H918 H 0.59939 0.26891 0.07053 0.0
H919 H 0.60163 0.2756 0.13932 0.0
H920 H 0.62328 0.22956 0.30608 0.0
H921 H 0.62331 0.25134 0.25005 0.0
C922 C 0.8655 0.70943 0.53181 0.0
C923 C 0.85047 0.69609 0.52181 0.0
C924 C 0.86544 0.72153 0.56455 0.0
C925 C 0.85715 0.75704 0.62161 0.0
H926 H 0.83341 0.73392 0.70819 0.0
C927 C 0.84724 0.81247 0.75065 0.0
C928 C 0.8496 0.80156 0.78436 0.0
C929 C 0.84652 0.79983 0.71834 0.0
C930 C 0.84025 0.74062 0.68439 0.0
H931 H 0.82379 0.68455 0.53891 0.0
H932 H 0.82349 0.70595 0.59539 0.0
H933 H 0.83518 0.71032 0.65422 0.0
H934 H 0.85319 0.76872 0.81027 0.0
H935 H 0.85248 0.74706 0.75453 0.0
H936 H 0.86294 0.78696 0.65242 0.0
C937 C 0.83552 0.70677 0.57844 0.0
C938 C 0.84105 0.72714 0.65316 0.0
C939 C 0.83568 0.69445 0.54594 0.0
C940 C 0.85116 0.77778 0.78494 0.0
C941 C 0.85064 0.76525 0.75282 0.0
C942 C 0.85653 0.77043 0.65301 0.0
C943 C 0.85026 0.72081 0.58789 0.0
C944 C 0.84956 0.73512 0.62135 0.0
C945 C 0.84831 0.77603 0.71904 0.0
C946 C 0.84817 0.76235 0.68491 0.0
H947 H 0.87715 0.71097 0.51392 0.0
H948 H 0.87723 0.73167 0.57129 0.0
H949 H 0.86351 0.76398 0.59746 0.0
H950 H 0.84595 0.83074 0.74921 0.0
H951 H 0.84449 0.80871 0.69287 0.0
C952 C 0.35022 0.22516 0.27296 0.0
C953 C 0.34817 0.20144 0.27203 0.0
C954 C 0.34987 0.23791 0.241 0.0
C955 C 0.35536 0.23284 0.14095 0.0
H956 H 0.3357 0.29384 0.14262 0.0
C957 C 0.36479 0.29292 0.01874 0.0
C958 C 0.35 0.30677 0.00909 0.0
C959 C 0.3648 0.28112 0.05177 0.0
C960 C 0.3411 0.27678 0.14145 0.0
H961 H 0.34374 0.17263 0.2365 0.0
H962 H 0.34254 0.19504 0.18055 0.0
H963 H 0.33362 0.27031 0.19668 0.0
H964 H 0.32387 0.31959 0.02717 0.0
H965 H 0.32367 0.29869 0.08418 0.0
H966 H 0.36213 0.23898 0.08522 0.0
C967 C 0.34487 0.2037 0.2061 0.0
C968 C 0.34013 0.26333 0.17272 0.0
C969 C 0.34543 0.19084 0.23821 0.0
C970 C 0.33558 0.30927 0.0339 0.0
C971 C 0.33548 0.29724 0.0667 0.0
C972 C 0.35615 0.24621 0.10953 0.0
C973 C 0.34723 0.22741 0.20708 0.0
C974 C 0.34739 0.24124 0.17305 0.0
C975 C 0.34992 0.28263 0.07577 0.0
C976 C 0.34915 0.26844 0.1094 0.0
H977 H 0.35255 0.23396 0.2984 0.0
H978 H 0.35213 0.25601 0.24294 0.0
H979 H 0.36129 0.21605 0.14018 0.0
H980 H 0.37617 0.29073 0.00033 0.0
H981 H 0.37639 0.27054 0.05818 0.0
C982 C 0.13273 0.81295 0.73852 0.0
C983 C 0.1309 0.80225 0.77254 0.0
C984 C 0.13337 0.80008 0.70642 0.0
C985 C 0.13993 0.74068 0.67298 0.0
H986 H 0.11537 0.76331 0.58712 0.0
C987 C 0.11315 0.70899 0.52163 0.0
C988 C 0.12816 0.69586 0.51081 0.0
C989 C 0.11342 0.7209 0.55453 0.0
C990 C 0.12208 0.75654 0.61098 0.0
H991 H 0.12832 0.7695 0.79923 0.0
H992 H 0.12888 0.74744 0.7439 0.0
H993 H 0.11644 0.78655 0.64169 0.0
H994 H 0.15501 0.6844 0.52672 0.0
H995 H 0.1557 0.7055 0.58352 0.0
H996 H 0.14485 0.71028 0.6429 0.0
C997 C 0.13035 0.76566 0.74174 0.0
C998 C 0.123 0.77011 0.64216 0.0
C999 C 0.12991 0.77843 0.77365 0.0
C1000 C 0.14313 0.69413 0.5344 0.0
C1001 C 0.14351 0.7063 0.56708 0.0
C1002 C 0.13883 0.72702 0.64197 0.0
C1003 C 0.13203 0.77624 0.70763 0.0
C1004 C 0.13185 0.76233 0.67368 0.0
C1005 C 0.12882 0.72026 0.57722 0.0
C1006 C 0.12983 0.73471 0.61054 0.0
H1007 H 0.13359 0.83125 0.73664 0.0
H1008 H 0.13493 0.80884 0.6807 0.0
H1009 H 0.14714 0.73419 0.69646 0.0
H1010 H 0.10135 0.71058 0.50417 0.0
H1011 H 0.10164 0.73093 0.56183 0.0
C1012 C 0.35106 0.68105 0.94633 0.0
C1013 C 0.36122 0.6879 0.97681 0.0
C1014 C 0.35243 0.69289 0.9134 0.0
C1015 C 0.36301 0.75015 0.88091 0.0
H1016 H 0.3611 0.72285 0.78508 0.0
C1017 C 0.36621 0.80323 0.74801 0.0
C1018 C 0.35539 0.79591 0.71879 0.0
C1019 C 0.36777 0.78998 0.77952 0.0
C1020 C 0.36143 0.73076 0.81167 0.0
H1021 H 0.38197 0.71138 0.99551 0.0
H1022 H 0.38442 0.73177 0.93815 0.0
H1023 H 0.36336 0.69865 0.83878 0.0
H1024 H 0.33701 0.76944 0.70053 0.0
H1025 H 0.33936 0.74679 0.75552 0.0
H1026 H 0.36069 0.78221 0.85402 0.0
C1027 C 0.37508 0.7176 0.93996 0.0
C1028 C 0.3628 0.71687 0.8424 0.0
C1029 C 0.37375 0.70578 0.97278 0.0
C1030 C 0.34564 0.77549 0.72233 0.0
C1031 C 0.34711 0.76237 0.75379 0.0
C1032 C 0.36155 0.76404 0.85021 0.0
C1033 C 0.364 0.71179 0.91031 0.0
C1034 C 0.36352 0.72641 0.87737 0.0
C1035 C 0.35844 0.7692 0.78252 0.0
C1036 C 0.36059 0.75451 0.81521 0.0
H1037 H 0.34127 0.66738 0.94842 0.0
H1038 H 0.34369 0.68801 0.89103 0.0
H1039 H 0.36322 0.75803 0.90754 0.0
H1040 H 0.37397 0.81879 0.74609 0.0
H1041 H 0.37671 0.7957 0.80104 0.0
C1042 C 0.1294 0.31927 0.4512 0.0
C1043 C 0.11943 0.31261 0.4821 0.0
C1044 C 0.12789 0.30717 0.41857 0.0
C1045 C 0.11684 0.24979 0.38663 0.0
H1046 H 0.11815 0.27728 0.29085 0.0
C1047 C 0.1122 0.19747 0.25281 0.0
C1048 C 0.12295 0.20492 0.22348 0.0
C1049 C 0.11102 0.21041 0.28474 0.0
C1050 C 0.11798 0.26931 0.31742 0.0
H1051 H 0.09898 0.28903 0.50192 0.0
H1052 H 0.09628 0.2682 0.44506 0.0
H1053 H 0.11644 0.30137 0.34466 0.0
H1054 H 0.14167 0.23113 0.20554 0.0
H1055 H 0.13993 0.25321 0.26114 0.0
H1056 H 0.1187 0.21775 0.35949 0.0
C1057 C 0.10557 0.28244 0.44631 0.0
C1058 C 0.11694 0.28315 0.34823 0.0
C1059 C 0.10704 0.29451 0.47885 0.0
C1060 C 0.13306 0.22502 0.22739 0.0
C1061 C 0.13196 0.23782 0.25921 0.0
C1062 C 0.11795 0.23595 0.35582 0.0
C1063 C 0.11637 0.28818 0.41615 0.0
C1064 C 0.11648 0.27356 0.3832 0.0
C1065 C 0.12062 0.23097 0.28799 0.0
C1066 C 0.11871 0.24555 0.32084 0.0
H1067 H 0.13909 0.33307 0.45269 0.0
H1068 H 0.13644 0.31199 0.39582 0.0
H1069 H 0.11679 0.24187 0.41324 0.0
H1070 H 0.10418 0.18213 0.25061 0.0
H1071 H 0.10211 0.20468 0.30636 0.0
C1072 C 0.05785 0.20415 0.09954 0.0
C1073 C 0.06482 0.18244 0.10716 0.0
C1074 C 0.03939 0.20707 0.09219 0.0
C1075 C -0.0016 0.17582 0.06447 0.0
H1076 H 0.97233 0.21998 0.1228 0.0
C1077 C 0.92468 0.16433 0.10676 0.0
C1078 C 0.91301 0.18316 0.10715 0.0
C1079 C 0.94306 0.16705 0.09891 0.0
C1080 C 0.97945 0.20793 0.10569 0.0
H1081 H 0.05793 0.14678 0.11257 0.0
H1082 H 0.0258 0.15196 0.10012 0.0
H1083 H 0.0055 0.21982 0.12309 0.0
H1084 H 0.91141 0.21962 0.09918 0.0
H1085 H 0.94372 0.22432 0.08583 0.0
H1086 H 0.97235 0.16327 0.04836 0.0
C1087 C 0.03464 0.16665 0.09941 0.0
C1088 C -0.0016 0.20784 0.10586 0.0
C1089 C 0.05301 0.16373 0.10697 0.0
C1090 C 0.92007 0.20477 0.09919 0.0
C1091 C 0.93853 0.2075 0.09156 0.0
C1092 C 0.97948 0.17591 0.0643 0.0
C1093 C 0.02767 0.18832 0.09201 0.0
C1094 C 0.00798 0.19121 0.08636 0.0
C1095 C 0.95015 0.18865 0.09143 0.0
C1096 C 0.96987 0.1914 0.086 0.0
H1097 H 0.06661 0.21892 0.0994 0.0
H1098 H 0.0343 0.22394 0.08655 0.0
H1099 H 0.00554 0.16312 0.04864 0.0
H1100 H 0.91967 0.14744 0.11258 0.0
H1101 H 0.95181 0.15228 0.09962 0.0
C1102 C 0.42432 0.84111 0.6068 0.0
C1103 C 0.41271 0.82225 0.60486 0.0
C1104 C 0.44289 0.8386 0.6009 0.0
C1105 C 0.48031 0.83079 0.57041 0.0
H1106 H 0.50464 0.78421 0.62683 0.0
C1107 C 0.55755 0.79871 0.60602 0.0
C1108 C 0.56504 0.81975 0.61606 0.0
C1109 C 0.53908 0.79685 0.59815 0.0
C1110 C 0.49802 0.797 0.61034 0.0
H1111 H 0.41144 0.78599 0.59457 0.0
H1112 H 0.44405 0.78169 0.58444 0.0
H1113 H 0.47151 0.78467 0.6238 0.0
H1114 H 0.55905 0.85535 0.62541 0.0
H1115 H 0.52681 0.85199 0.61196 0.0
H1116 H 0.50681 0.84368 0.55825 0.0
C1117 C 0.43868 0.79835 0.59064 0.0
C1118 C 0.47909 0.79725 0.60856 0.0
C1119 C 0.42004 0.80085 0.59643 0.0
C1120 C 0.55371 0.83888 0.61791 0.0
C1121 C 0.53529 0.83703 0.60981 0.0
C1122 C 0.49921 0.83057 0.57225 0.0
C1123 C 0.45024 0.81721 0.59297 0.0
C1124 C 0.4701 0.8146 0.58958 0.0
C1125 C 0.52783 0.81602 0.5999 0.0
C1126 C 0.50816 0.81412 0.59321 0.0
H1127 H 0.41913 0.85784 0.61311 0.0
H1128 H 0.45156 0.85336 0.60351 0.0
H1129 H 0.47367 0.84409 0.55502 0.0
H1130 H 0.56593 0.78365 0.6043 0.0
H1131 H 0.53359 0.78048 0.59052 0.0
C1132 C 0.92193 0.81575 0.89277 0.0
C1133 C 0.91244 0.83461 0.87908 0.0
C1134 C 0.94086 0.81497 0.89107 0.0
C1135 C 0.9797 0.83911 0.84169 0.0
H1136 H 0.00746 0.81927 0.92558 0.0
C1137 C 0.05689 0.85195 0.85305 0.0
C1138 C 0.0672 0.83403 0.86757 0.0
C1139 C 0.03796 0.8511 0.85365 0.0
C1140 C -0.00013 0.82456 0.90179 0.0
H1141 H 0.91545 0.86754 0.85318 0.0
H1142 H 0.94846 0.86618 0.85055 0.0
H1143 H 0.97432 0.81958 0.92851 0.0
H1144 H 0.06566 0.80103 0.89374 0.0
H1145 H 0.03258 0.79955 0.89444 0.0
H1146 H 0.00523 0.84422 0.81503 0.0
C1147 C 0.94121 0.8519 0.86213 0.0
C1148 C 0.98093 0.82475 0.90348 0.0
C1149 C 0.9223 0.85271 0.86386 0.0
C1150 C 0.05815 0.81516 0.88241 0.0
C1151 C 0.0392 0.81434 0.88301 0.0
C1152 C -0.00138 0.83891 0.83999 0.0
C1153 C 0.95065 0.833 0.87561 0.0
C1154 C 0.97069 0.83217 0.87353 0.0
C1155 C 0.02895 0.83234 0.86875 0.0
C1156 C 0.00888 0.83177 0.8701 0.0
H1157 H 0.91476 0.80151 0.90465 0.0
H1158 H 0.94782 0.80011 0.90138 0.0
H1159 H 0.97211 0.84456 0.818 0.0
H1160 H 0.0634 0.86677 0.84149 0.0
H1161 H 0.03038 0.86535 0.84289 0.0
C1162 C 0.42103 0.14785 0.35055 0.0
C1163 C 0.41136 0.16622 0.36542 0.0
C1164 C 0.43997 0.14768 0.35088 0.0
C1165 C 0.47901 0.17214 0.39877 0.0
H1166 H 0.50607 0.15206 0.314 0.0
C1167 C 0.55661 0.18142 0.38755 0.0
C1168 C 0.56629 0.16287 0.37332 0.0
C1169 C 0.53768 0.18184 0.38631 0.0
C1170 C 0.49867 0.15748 0.33799 0.0
H1171 H 0.41408 0.19897 0.39192 0.0
H1172 H 0.44718 0.19869 0.39217 0.0
H1173 H 0.47292 0.15306 0.31194 0.0
H1174 H 0.5636 0.13015 0.34668 0.0
H1175 H 0.53051 0.13088 0.34483 0.0
H1176 H 0.50474 0.17653 0.42484 0.0
C1177 C 0.44004 0.18432 0.38067 0.0
C1178 C 0.47973 0.15807 0.3368 0.0
C1179 C 0.42108 0.18452 0.38033 0.0
C1180 C 0.55659 0.14474 0.35781 0.0
C1181 C 0.53764 0.14519 0.35656 0.0
C1182 C 0.49794 0.17155 0.39995 0.0
C1183 C 0.44965 0.16586 0.3661 0.0
C1184 C 0.46973 0.16541 0.36718 0.0
C1185 C 0.52802 0.16374 0.37081 0.0
C1186 C 0.50795 0.16423 0.36957 0.0
H1187 H 0.41399 0.13344 0.33891 0.0
H1188 H 0.44704 0.13311 0.33983 0.0
H1189 H 0.47162 0.17752 0.42279 0.0
H1190 H 0.56363 0.1957 0.39962 0.0
H1191 H 0.53061 0.19649 0.3971 0.0
C1192 C 0.5597 0.68743 0.12093 0.0
C1193 C 0.56795 0.66698 0.13167 0.0
C1194 C 0.5408 0.68899 0.11828 0.0
C1195 C 0.50035 0.65332 0.1065 0.0
H1196 H 0.47397 0.70457 0.14641 0.0
C1197 C 0.42378 0.65029 0.13209 0.0
C1198 C 0.41337 0.66924 0.1219 0.0
C1199 C 0.44268 0.65127 0.13147 0.0
C1200 C 0.4812 0.69032 0.13472 0.0
H1201 H 0.56277 0.63228 0.14876 0.0
H1202 H 0.52993 0.63515 0.14443 0.0
H1203 H 0.5072 0.7041 0.14882 0.0
H1204 H 0.41473 0.70421 0.10346 0.0
H1205 H 0.44789 0.70583 0.10241 0.0
H1206 H 0.47443 0.63937 0.09283 0.0
C1207 C 0.53807 0.64984 0.13751 0.0
C1208 C 0.50017 0.69005 0.1361 0.0
C1209 C 0.55691 0.64827 0.14022 0.0
C1210 C 0.42234 0.6893 0.11144 0.0
C1211 C 0.4413 0.69028 0.11097 0.0
C1212 C 0.48144 0.65358 0.10515 0.0
C1213 C 0.52985 0.67012 0.1262 0.0
C1214 C 0.50988 0.67135 0.12256 0.0
C1215 C 0.45162 0.67121 0.12072 0.0
C1216 C 0.47168 0.67189 0.1198 0.0
H1217 H 0.56781 0.70217 0.11414 0.0
H1218 H 0.53479 0.7048 0.10933 0.0
H1219 H 0.50752 0.63892 0.09514 0.0
H1220 H 0.41736 0.63458 0.14037 0.0
H1221 H 0.45033 0.63642 0.13968 0.0
C1222 C 0.92055 0.30941 0.61741 0.0
C1223 C 0.912 0.32941 0.62937 0.0
C1224 C 0.93948 0.30811 0.61558 0.0
C1225 C 0.97947 0.34448 0.60673 0.0
H1226 H 0.00639 0.2934 0.64573 0.0
C1227 C 0.05553 0.34973 0.63435 0.0
C1228 C 0.06652 0.33127 0.62427 0.0
C1229 C 0.03669 0.34799 0.63319 0.0
C1230 C -0.00098 0.3076 0.63426 0.0
H1231 H 0.91668 0.36356 0.64952 0.0
H1232 H 0.94962 0.3612 0.64637 0.0
H1233 H 0.97311 0.29303 0.64731 0.0
H1234 H 0.06626 0.29634 0.60555 0.0
H1235 H 0.03313 0.2934 0.60344 0.0
H1236 H 0.00523 0.35919 0.59394 0.0
C1237 C 0.94165 0.34664 0.63805 0.0
C1238 C 0.98003 0.3074 0.63521 0.0
C1239 C 0.92278 0.34791 0.64007 0.0
C1240 C 0.05819 0.31088 0.61347 0.0
C1241 C 0.03925 0.30915 0.61237 0.0
C1242 C -0.00162 0.34466 0.60571 0.0
C1243 C 0.95016 0.32684 0.62542 0.0
C1244 C 0.97014 0.32606 0.6221 0.0
C1245 C 0.02836 0.32778 0.6219 0.0
C1246 C 0.00833 0.32645 0.62013 0.0
H1247 H 0.91264 0.29482 0.60907 0.0
H1248 H 0.94575 0.29268 0.60565 0.0
H1249 H 0.97214 0.35886 0.59572 0.0
H1250 H 0.06144 0.36566 0.64302 0.0
H1251 H 0.02861 0.36249 0.64136 0.0
C1252 C 0.55375 0.34109 0.87544 0.0
C1253 C 0.5645 0.32243 0.8855 0.0
C1254 C 0.53492 0.33925 0.87464 0.0
C1255 C 0.49774 0.32511 0.84986 0.0
H1256 H 0.46954 0.30093 0.9303 0.0
C1257 C 0.41845 0.3031 0.88519 0.0
C1258 C 0.41056 0.32358 0.87352 0.0
C1259 C 0.43732 0.30081 0.8866 0.0
C1260 C 0.47729 0.30739 0.90745 0.0
H1261 H 0.56386 0.28742 0.90396 0.0
H1262 H 0.53076 0.2843 0.9025 0.0
H1263 H 0.50279 0.30088 0.93364 0.0
H1264 H 0.4163 0.3578 0.85472 0.0
H1265 H 0.44907 0.35379 0.85744 0.0
H1266 H 0.47239 0.33192 0.82382 0.0
C1267 C 0.53705 0.30028 0.89523 0.0
C1268 C 0.49624 0.30738 0.90938 0.0
C1269 C 0.55596 0.30209 0.89594 0.0
C1270 C 0.42189 0.34174 0.86362 0.0
C1271 C 0.44068 0.33942 0.86496 0.0
C1272 C 0.47887 0.32509 0.84791 0.0
C1273 C 0.52644 0.31874 0.88393 0.0
C1274 C 0.50655 0.31673 0.88092 0.0
C1275 C 0.44855 0.31892 0.8762 0.0
C1276 C 0.46849 0.31671 0.87701 0.0
H1277 H 0.55984 0.35708 0.86757 0.0
H1278 H 0.52697 0.35387 0.86653 0.0
H1279 H 0.50545 0.33196 0.82723 0.0
H1280 H 0.41009 0.28879 0.89307 0.0
H1281 H 0.44311 0.28481 0.89524 0.0
C1282 C 0.05481 0.66037 0.36805 0.0
C1283 C 0.06596 0.67875 0.37767 0.0
C1284 C 0.036 0.66244 0.36924 0.0
C1285 C -0.00123 0.69444 0.40999 0.0
H1286 H 0.97161 0.66927 0.32903 0.0
C1287 C 0.92007 0.69818 0.39645 0.0
C1288 C 0.91195 0.67748 0.38655 0.0
C1289 C 0.93895 0.70056 0.39573 0.0
C1290 C 0.97904 0.67631 0.35184 0.0
H1291 H 0.06607 0.7136 0.39688 0.0
H1292 H 0.033 0.71715 0.39879 0.0
H1293 H 0.00469 0.66952 0.32693 0.0
H1294 H 0.91734 0.64287 0.36921 0.0
H1295 H 0.95012 0.64709 0.36813 0.0
H1296 H 0.97295 0.70089 0.43507 0.0
C1297 C 0.03896 0.70117 0.39045 0.0
C1298 C -0.00208 0.67644 0.35066 0.0
C1299 C 0.05785 0.69913 0.38921 0.0
C1300 C 0.92309 0.65912 0.37673 0.0
C1301 C 0.94188 0.66154 0.37589 0.0
C1302 C 0.97979 0.69434 0.41115 0.0
C1303 C 0.02791 0.68291 0.38004 0.0
C1304 C 0.00795 0.68499 0.38008 0.0
C1305 C 0.94995 0.68233 0.3849 0.0
C1306 C 0.96983 0.68476 0.38243 0.0
H1307 H 0.06058 0.64437 0.35931 0.0
H1308 H 0.02775 0.64795 0.36176 0.0
H1309 H 0.00624 0.70106 0.43305 0.0
H1310 H 0.91186 0.71263 0.40427 0.0
H1311 H 0.94493 0.71676 0.40279 0.0
C1312 C 0.10566 0.07419 0.07553 0.0
C1313 C 0.1093 0.09384 0.05519 0.0
C1314 C 0.10184 0.05369 0.05794 0.0
C1315 C 0.11004 0.0261 0.96885 0.0
H1316 H 0.08197 0.97727 0.01178 0.0
C1317 C 0.10736 0.93772 0.90269 0.0
C1318 C 0.1124 0.9202 0.9266 0.0
C1319 C 0.10272 0.95914 0.91622 0.0
C1320 C 0.08979 0.99081 -0.00059 0.0
H1321 H 0.11027 0.10794 0.00073 0.0
H1322 H 0.10283 0.07255 0.97014 0.0
H1323 H 0.08119 0.01496 0.0394 0.0
H1324 H 0.1153 0.91099 0.98352 0.0
H1325 H 0.10707 0.94821 0.00697 0.0
H1326 H 0.11878 0.00191 0.92917 0.0
C1327 C 0.10367 0.07261 -0.00043 0.0
C1328 C 0.08943 0.01238 0.01532 0.0
C1329 C 0.1078 0.09296 0.0171 0.0
C1330 C 0.11163 0.92417 0.96433 0.0
C1331 C 0.10678 0.94546 0.97783 0.0
C1332 C 0.11022 0.00467 0.95277 0.0
C1333 C 0.10129 0.0525 0.01964 0.0
C1334 C 0.09987 0.0302 0.00069 0.0
C1335 C 0.10275 0.96334 0.95391 0.0
C1336 C 0.10042 0.98667 0.96829 0.0
H1337 H 0.1068 0.07435 0.10493 0.0
H1338 H 0.10027 0.03858 0.07439 0.0
H1339 H 0.11857 0.03916 0.95711 0.0
H1340 H 0.1078 0.93521 0.8735 0.0
H1341 H 0.09954 0.9726 0.89719 0.0
C1342 C 0.36846 0.90982 0.51541 0.0
C1343 C 0.36679 0.90897 0.55349 0.0
C1344 C 0.37261 0.93018 0.49788 0.0
C1345 C 0.38696 0.99027 0.5135 0.0
H1346 H 0.35751 0.00102 0.42769 0.0
C1347 C 0.36538 0.07873 0.463 0.0
C1348 C 0.36443 0.08274 0.4253 0.0
C1349 C 0.37007 0.05736 0.47634 0.0
C1350 C 0.36611 0.99818 0.45118 0.0
H1351 H 0.36901 0.92852 0.60321 0.0
H1352 H 0.37561 0.96428 0.57262 0.0
H1353 H 0.35761 0.96373 0.45559 0.0
H1354 H 0.36855 0.06769 0.37206 0.0
H1355 H 0.37657 0.03017 0.39549 0.0
H1356 H 0.39461 0.02529 0.50987 0.0
C1357 C 0.37413 0.94915 0.55622 0.0
C1358 C 0.36621 0.97673 0.46723 0.0
C1359 C 0.37026 0.92866 0.57382 0.0
C1360 C 0.36911 0.06515 0.40124 0.0
C1361 C 0.37363 0.04365 0.41463 0.0
C1362 C 0.3867 0.01183 0.4976 0.0
C1363 C 0.37487 0.95029 0.51794 0.0
C1364 C 0.3764 0.97255 0.49897 0.0
C1365 C 0.37378 0.03944 0.45231 0.0
C1366 C 0.37603 0.01608 0.46662 0.0
H1367 H 0.36615 0.89483 0.49904 0.0
H1368 H 0.37357 0.93024 0.46846 0.0
H1369 H 0.39521 0.98759 0.53752 0.0
H1370 H 0.362 0.09196 0.48231 0.0
H1371 H 0.36993 0.0546 0.5055 0.0
C1372 C 0.86525 0.08919 0.02881 0.0
C1373 C 0.8669 0.09319 0.06641 0.0
C1374 C 0.86936 0.06793 0.01422 0.0
C1375 C 0.86786 0.00886 0.04048 0.0
H1376 H 0.89186 0.99801 0.94806 0.0
C1377 C 0.86854 0.91964 0.97969 0.0
C1378 C 0.86514 0.91792 0.9422 0.0
C1379 C 0.87303 0.94048 0.99525 0.0
C1380 C 0.88501 0.00075 0.97378 0.0
H1381 H 0.87508 0.0783 0.11787 0.0
H1382 H 0.88203 0.04104 0.09234 0.0
H1383 H 0.89217 0.03603 0.97459 0.0
H1384 H 0.8645 0.93641 0.89127 0.0
H1385 H 0.87158 0.97307 0.91855 0.0
H1386 H 0.85975 0.97419 0.03912 0.0
C1387 C 0.87752 0.05442 0.07426 0.0
C1388 C 0.88528 0.0225 0.98902 0.0
C1389 C 0.87361 0.07578 0.08882 0.0
C1390 C 0.86713 0.93726 0.92025 0.0
C1391 C 0.87127 0.95826 0.93595 0.0
C1392 C 0.86738 0.98725 0.02509 0.0
C1393 C 0.87503 0.05015 0.03695 0.0
C1394 C 0.87653 0.0268 0.02234 0.0
C1395 C 0.87381 0.96024 0.97383 0.0
C1396 C 0.87576 0.98291 0.99133 0.0
H1397 H 0.86025 0.10229 0.01073 0.0
H1398 H 0.86719 0.0651 0.98541 0.0
H1399 H 0.86071 0.01174 0.06585 0.0
H1400 H 0.86739 0.90491 0.99719 0.0
H1401 H 0.87542 0.94115 0.02431 0.0
C1402 C 0.60891 0.0616 0.41215 0.0
C1403 C 0.61325 0.07944 0.43598 0.0
C1404 C 0.60457 0.04011 0.42584 0.0
C1405 C 0.59129 0.00861 0.50912 0.0
H1406 H 0.6209 0.9606 0.46824 0.0
C1407 C 0.60721 0.92542 0.58614 0.0
C1408 C 0.61097 0.90578 0.56588 0.0
C1409 C 0.60346 0.94593 0.56844 0.0
C1410 C 0.61216 0.97357 0.47958 0.0
H1411 H 0.61524 0.08908 0.49286 0.0
H1412 H 0.60759 0.05174 0.51658 0.0
H1413 H 0.62098 0.99777 0.43996 0.0
H1414 H 0.61226 0.89172 0.51143 0.0
H1415 H 0.605 0.9271 0.48067 0.0
H1416 H 0.58263 0.98445 0.54908 0.0
C1417 C 0.60759 0.0543 0.48737 0.0
C1418 C 0.61226 0.99496 0.46331 0.0
C1419 C 0.61213 0.07566 0.47373 0.0
C1420 C 0.6097 0.90668 0.52775 0.0
C1421 C 0.60566 0.92703 0.51012 0.0
C1422 C 0.59104 0.9871 0.52524 0.0
C1423 C 0.60423 0.03614 0.4636 0.0
C1424 C 0.60212 0.01283 0.47829 0.0
C1425 C 0.60314 0.94712 0.53012 0.0
C1426 C 0.60176 0.9694 0.51109 0.0
H1427 H 0.60962 0.06395 0.38294 0.0
H1428 H 0.60189 0.02645 0.40689 0.0
H1429 H 0.58321 0.02205 0.52107 0.0
H1430 H 0.60816 0.92524 0.61556 0.0
H1431 H 0.60176 0.96103 0.58482 0.0
C1432 C 0.6088 0.57963 0.03246 0.0
C1433 C 0.61274 0.58086 0.0698 0.0
C1434 C 0.60459 0.55888 0.01626 0.0
C1435 C 0.59457 0.4978 0.03572 0.0
H1436 H 0.61864 0.48917 0.94276 0.0
C1437 C 0.61607 0.41079 0.9777 0.0
C1438 C 0.61426 0.40711 0.94004 0.0
C1439 C 0.61177 0.43182 0.99291 0.0
C1440 C 0.61156 0.49138 0.96839 0.0
H1441 H 0.6145 0.56154 0.11985 0.0
H1442 H 0.60784 0.52514 0.09145 0.0
H1443 H 0.61852 0.52643 0.97067 0.0
H1444 H 0.60572 0.4224 0.8891 0.0
H1445 H 0.5984 0.45923 0.91572 0.0
H1446 H 0.58852 0.46222 0.03393 0.0
C1447 C 0.60755 0.54024 0.07468 0.0
C1448 C 0.61142 0.51281 0.98444 0.0
C1449 C 0.61145 0.56111 0.09102 0.0
C1450 C 0.60733 0.42467 0.91818 0.0
C1451 C 0.6032 0.44579 0.93336 0.0
C1452 C 0.5949 0.47625 0.01978 0.0
C1453 C 0.60459 0.53877 0.03687 0.0
C1454 C 0.60312 0.51629 0.01855 0.0
C1455 C 0.60571 0.4497 0.97076 0.0
C1456 C 0.6036 0.47279 0.98616 0.0
H1457 H 0.60943 0.59465 0.01552 0.0
H1458 H 0.60185 0.55855 0.98731 0.0
H1459 H 0.5878 0.49988 0.06169 0.0
H1460 H 0.62124 0.39759 0.99539 0.0
H1461 H 0.61397 0.43439 0.02177 0.0
C1462 C 0.87002 0.57291 0.42736 0.0
C1463 C 0.8655 0.5923 0.44762 0.0
C1464 C 0.87475 0.55272 0.44503 0.0
C1465 C 0.86778 0.52444 0.5338 0.0
H1466 H 0.899 0.47844 0.49164 0.0
C1467 C 0.87328 0.43606 0.59837 0.0
C1468 C 0.86929 0.41858 0.57363 0.0
C1469 C 0.8776 0.4578 0.58573 0.0
C1470 C 0.89033 0.4912 0.50382 0.0
H1471 H 0.86376 0.60628 0.5021 0.0
H1472 H 0.87261 0.57145 0.53279 0.0
H1473 H 0.8978 0.51618 0.46421 0.0
H1474 H 0.86816 0.40972 0.51634 0.0
H1475 H 0.87576 0.44749 0.49444 0.0
H1476 H 0.86006 0.49939 0.57294 0.0
C1477 C 0.87186 0.57147 0.50336 0.0
C1478 C 0.88954 0.51277 0.48801 0.0
C1479 C 0.86687 0.59149 0.48575 0.0
C1480 C 0.87099 0.42288 0.53612 0.0
C1481 C 0.87549 0.44449 0.52353 0.0
C1482 C 0.8687 0.50299 0.54974 0.0
C1483 C 0.8753 0.55161 0.48332 0.0
C1484 C 0.87793 0.52952 0.50231 0.0
C1485 C 0.87825 0.46236 0.54815 0.0
C1486 C 0.87964 0.48597 0.53445 0.0
H1487 H 0.86904 0.573 0.39793 0.0
H1488 H 0.87712 0.53776 0.42865 0.0
H1489 H 0.85841 0.53667 0.54527 0.0
H1490 H 0.87212 0.43328 0.62743 0.0
H1491 H 0.87982 0.47124 0.60532 0.0
C1492 C 0.36366 0.41424 0.9676 0.0
C1493 C 0.36488 0.41059 0.92982 0.0
C1494 C 0.36864 0.43506 0.98268 0.0
C1495 C 0.36997 0.49467 0.95795 0.0
H1496 H 0.39342 0.50233 0.05166 0.0
C1497 C 0.3737 0.5826 0.02221 0.0
C1498 C 0.36919 0.58387 0.05931 0.0
C1499 C 0.37796 0.56181 0.00622 0.0
C1500 C 0.38677 0.50047 0.02555 0.0
H1501 H 0.3732 0.42566 0.87853 0.0
H1502 H 0.38178 0.46211 0.90495 0.0
H1503 H 0.39219 0.46475 0.02364 0.0
H1504 H 0.36657 0.56464 0.10927 0.0
H1505 H 0.37335 0.5281 0.08116 0.0
H1506 H 0.36367 0.52989 0.96032 0.0
C1507 C 0.37685 0.44882 0.92279 0.0
C1508 C 0.38613 0.47897 0.00946 0.0
C1509 C 0.372 0.42791 0.9077 0.0
C1510 C 0.37007 0.56414 0.08062 0.0
C1511 C 0.37401 0.5432 0.06446 0.0
C1512 C 0.37045 0.51605 0.9741 0.0
C1513 C 0.37485 0.45277 0.96033 0.0
C1514 C 0.37749 0.47581 0.97572 0.0
C1515 C 0.37743 0.5417 0.02678 0.0
C1516 C 0.37863 0.51923 0.00836 0.0
H1517 H 0.35837 0.40121 0.98552 0.0
H1518 H 0.3668 0.43762 0.01165 0.0
H1519 H 0.36291 0.49272 0.93227 0.0
H1520 H 0.3734 0.59763 0.00524 0.0
H1521 H 0.38106 0.56144 0.97741 0.0
C1522 C 0.10699 0.57496 0.40797 0.0
C1523 C 0.11406 0.59228 0.43012 0.0
C1524 C 0.10249 0.55387 0.42289 0.0
C1525 C 0.09327 0.52327 0.50888 0.0
H1526 H 0.11661 0.47281 0.4601 0.0
C1527 C 0.10864 0.43808 0.58026 0.0
C1528 C 0.11008 0.41838 0.55901 0.0
C1529 C 0.10489 0.459 0.56389 0.0
C1530 C 0.10957 0.4865 0.47377 0.0
H1531 H 0.12089 0.60143 0.48569 0.0
H1532 H 0.11294 0.56471 0.51161 0.0
H1533 H 0.11732 0.51011 0.43238 0.0
H1534 H 0.10713 0.40469 0.50461 0.0
H1535 H 0.09974 0.44085 0.47632 0.0
H1536 H 0.08564 0.49967 0.5505 0.0
C1537 C 0.11093 0.56742 0.48273 0.0
C1538 C 0.11006 0.50797 0.45782 0.0
C1539 C 0.11562 0.58841 0.46778 0.0
C1540 C 0.10637 0.41968 0.52158 0.0
C1541 C 0.10228 0.44046 0.50534 0.0
C1542 C 0.09259 0.50169 0.5247 0.0
C1543 C 0.10473 0.54977 0.46032 0.0
C1544 C 0.10222 0.52666 0.4755 0.0
C1545 C 0.1022 0.46055 0.52599 0.0
C1546 C 0.10104 0.48308 0.50767 0.0
H1547 H 0.10557 0.57737 0.37888 0.0
H1548 H 0.0976 0.54059 0.40503 0.0
H1549 H 0.08697 0.53738 0.52295 0.0
H1550 H 0.11153 0.43759 0.60916 0.0
H1551 H 0.1051 0.47406 0.58072 0.0
C1552 C 0.20021 0.19849 0.07781 0.0
C1553 C 0.1839 0.21019 0.08461 0.0
C1554 C 0.2148 0.20956 0.06137 0.0
C1555 C 0.22021 0.25432 0.9953 0.0
H1556 H 0.27185 0.24466 0.00927 0.0
C1557 C 0.27615 0.30282 0.91887 0.0
C1558 C 0.29272 0.29166 0.91228 0.0
C1559 C 0.26208 0.29165 0.93681 0.0
C1560 C 0.25744 0.24715 0.00471 0.0
H1561 H 0.17101 0.24334 0.08432 0.0
H1562 H 0.1966 0.26264 0.05587 0.0
H1563 H 0.25034 0.22988 0.05401 0.0
H1564 H 0.30663 0.2592 0.91501 0.0
H1565 H 0.28186 0.23964 0.94579 0.0
H1566 H 0.22723 0.27138 0.94588 0.0
C1567 C 0.19785 0.24479 0.06237 0.0
C1568 C 0.24519 0.23892 0.03051 0.0
C1569 C 0.18328 0.23375 0.07891 0.0
C1570 C 0.29415 0.2684 0.92018 0.0
C1571 C 0.28005 0.25724 0.93812 0.0
C1572 C 0.23244 0.26247 0.96946 0.0
C1573 C 0.21328 0.23248 0.05162 0.0
C1574 C 0.22649 0.24252 0.02607 0.0
C1575 C 0.26429 0.26911 0.94823 0.0
C1576 C 0.25116 0.25899 0.97394 0.0
H1577 H 0.20123 0.18039 0.08247 0.0
H1578 H 0.22661 0.19971 0.05357 0.0
H1579 H 0.20579 0.25681 0.99076 0.0
H1580 H 0.2745 0.32066 0.91266 0.0
H1581 H 0.25004 0.30122 0.94411 0.0
C1582 C 0.27724 0.80425 0.57709 0.0
C1583 C 0.2938 0.79265 0.58152 0.0
C1584 C 0.26269 0.79379 0.55961 0.0
C1585 C 0.25701 0.75223 0.48814 0.0
H1586 H 0.20547 0.75936 0.507 0.0
C1587 C 0.20069 0.70342 0.41414 0.0
C1588 C 0.18368 0.71396 0.40999 0.0
C1589 C 0.21493 0.71489 0.43092 0.0
C1590 C 0.21983 0.75764 0.50106 0.0
H1591 H 0.30721 0.76002 0.57579 0.0
H1592 H 0.28168 0.74174 0.54566 0.0
H1593 H 0.22745 0.77315 0.55148 0.0
H1594 H 0.169 0.74574 0.41569 0.0
H1595 H 0.19404 0.76582 0.44457 0.0
H1596 H 0.24943 0.73674 0.43776 0.0
C1597 C 0.28021 0.75913 0.55473 0.0
C1598 C 0.23236 0.7653 0.52669 0.0
C1599 C 0.29475 0.76956 0.57226 0.0
C1600 C 0.18186 0.73701 0.41899 0.0
C1601 C 0.19612 0.74848 0.43581 0.0
C1602 C 0.24449 0.74462 0.4625 0.0
C1603 C 0.26448 0.77157 0.54649 0.0
C1604 C 0.25105 0.76249 0.52055 0.0
C1605 C 0.21242 0.73711 0.44363 0.0
C1606 C 0.22579 0.74715 0.4688 0.0
H1607 H 0.27595 0.82197 0.58447 0.0
H1608 H 0.25064 0.80371 0.55382 0.0
H1609 H 0.27138 0.75041 0.48233 0.0
H1610 H 0.20262 0.68576 0.40697 0.0
H1611 H 0.22739 0.70572 0.43647 0.0
C1612 C 0.19906 0.8074 0.92969 0.0
C1613 C 0.18223 0.79667 0.92405 0.0
C1614 C 0.21351 0.79554 0.94502 0.0
C1615 C 0.23067 0.73875 0.96853 0.0
H1616 H 0.25422 0.77098 0.04767 0.0
C1617 C 0.28088 0.69373 0.0623 0.0
C1618 C 0.29761 0.70486 0.06704 0.0
C1619 C 0.26601 0.70529 0.04796 0.0
C1620 C 0.24784 0.76184 0.02552 0.0
H1621 H 0.16777 0.76467 0.92749 0.0
H1622 H 0.19308 0.74393 0.95448 0.0
H1623 H 0.23067 0.78984 0.01212 0.0
H1624 H 0.3115 0.73723 0.06315 0.0
H1625 H 0.28549 0.75742 0.03788 0.0
H1626 H 0.24788 0.71077 0.98187 0.0
C1627 C 0.19506 0.76152 0.94697 0.0
C1628 C 0.23444 0.77264 0.00506 0.0
C1629 C 0.18058 0.77339 0.93147 0.0
C1630 C 0.29879 0.7282 0.0598 0.0
C1631 C 0.28389 0.73976 0.04532 0.0
C1632 C 0.24408 0.72795 0.989 0.0
C1633 C 0.21142 0.77274 0.95509 0.0
C1634 C 0.2258 0.76124 0.97625 0.0
C1635 C 0.26759 0.72818 0.03805 0.0
C1636 C 0.25281 0.73941 0.01764 0.0
H1637 H 0.20084 0.82526 0.92372 0.0
H1638 H 0.22614 0.80443 0.95011 0.0
H1639 H 0.22433 0.72964 0.94632 0.0
H1640 H 0.27946 0.67581 0.06818 0.0
H1641 H 0.25346 0.69611 0.04348 0.0
C1642 C 0.28045 0.19838 0.42998 0.0
C1643 C 0.29755 0.20845 0.42445 0.0
C1644 C 0.26647 0.21052 0.44651 0.0
C1645 C 0.25075 0.26717 0.47353 0.0
H1646 H 0.22755 0.23414 0.55237 0.0
C1647 C 0.20003 0.31104 0.56797 0.0
C1648 C 0.18346 0.29949 0.57265 0.0
C1649 C 0.21512 0.29985 0.55372 0.0
C1650 C 0.23383 0.24353 0.53034 0.0
H1651 H 0.31296 0.2397 0.42917 0.0
H1652 H 0.28841 0.26096 0.45809 0.0
H1653 H 0.25068 0.21552 0.5154 0.0
H1654 H 0.17013 0.26676 0.56879 0.0
H1655 H 0.19646 0.24726 0.5436 0.0
H1656 H 0.23374 0.2951 0.48815 0.0
C1657 C 0.2859 0.24364 0.44969 0.0
C1658 C 0.24701 0.23286 0.5091 0.0
C1659 C 0.29993 0.23148 0.43306 0.0
C1660 C 0.1827 0.27612 0.5655 0.0
C1661 C 0.1978 0.26494 0.55107 0.0
C1662 C 0.23753 0.27783 0.49473 0.0
C1663 C 0.26931 0.23296 0.45783 0.0
C1664 C 0.25545 0.24451 0.48028 0.0
C1665 C 0.21393 0.27692 0.54381 0.0
C1666 C 0.22885 0.26605 0.52319 0.0
H1667 H 0.2781 0.18076 0.42313 0.0
H1668 H 0.25363 0.20209 0.45162 0.0
H1669 H 0.257 0.27648 0.45138 0.0
H1670 H 0.20112 0.329 0.57378 0.0
H1671 H 0.22753 0.30935 0.54926 0.0
C1672 C 0.78086 0.80235 0.93889 0.0
C1673 C 0.79811 0.79251 0.9342 0.0
C1674 C 0.76679 0.79 0.95469 0.0
C1675 C 0.75144 0.73313 0.98199 0.0
H1676 H 0.72768 0.76612 0.06014 0.0
C1677 C 0.70165 0.68881 0.0782 0.0
C1678 C 0.68487 0.69992 0.08256 0.0
C1679 C 0.71648 0.70024 0.0633 0.0
C1680 C 0.73412 0.75675 0.03829 0.0
H1681 H 0.81368 0.76142 0.93941 0.0
H1682 H 0.789 0.73981 0.96713 0.0
H1683 H 0.75058 0.78504 0.02295 0.0
H1684 H 0.67092 0.7322 0.07741 0.0
H1685 H 0.69678 0.75207 0.05122 0.0
H1686 H 0.73486 0.70488 0.99715 0.0
C1687 C 0.78643 0.75711 0.95863 0.0
C1688 C 0.74715 0.76758 0.0169 0.0
C1689 C 0.80055 0.76947 0.9427 0.0
C1690 C 0.68364 0.72314 0.07436 0.0
C1691 C 0.69847 0.73454 0.05937 0.0
C1692 C 0.73837 0.72229 0.00336 0.0
C1693 C 0.76969 0.76759 0.96611 0.0
C1694 C 0.75581 0.75593 0.98836 0.0
C1695 C 0.71482 0.72297 0.05251 0.0
C1696 C 0.72952 0.73405 0.03158 0.0
H1697 H 0.77848 0.81998 0.93205 0.0
H1698 H 0.75384 0.79828 0.95928 0.0
H1699 H 0.75787 0.72381 0.96006 0.0
H1700 H 0.70314 0.671 0.08474 0.0
H1701 H 0.72907 0.69106 0.0591 0.0
C1702 C 0.77999 0.31002 0.56193 0.0
C1703 C 0.79629 0.29834 0.56891 0.0
C1704 C 0.76521 0.2988 0.54659 0.0
C1705 C 0.75594 0.25071 0.48728 0.0
H1706 H 0.70563 0.26084 0.51443 0.0
C1707 C 0.69688 0.19549 0.43742 0.0
C1708 C 0.67989 0.20569 0.4313 0.0
C1709 C 0.7114 0.20823 0.45046 0.0
C1710 C 0.7196 0.25819 0.50613 0.0
H1711 H 0.80942 0.26539 0.5677 0.0
H1712 H 0.78343 0.24572 0.54117 0.0
H1713 H 0.72982 0.279 0.54923 0.0
H1714 H 0.66514 0.23756 0.43154 0.0
H1715 H 0.6907 0.25994 0.45414 0.0
H1716 H 0.74575 0.22984 0.44429 0.0
C1717 C 0.78229 0.26367 0.54701 0.0
C1718 C 0.73343 0.26843 0.52621 0.0
C1719 C 0.79708 0.27488 0.56253 0.0
C1720 C 0.67806 0.22922 0.43612 0.0
C1721 C 0.69262 0.24198 0.44935 0.0
C1722 C 0.74212 0.24051 0.46717 0.0
C1723 C 0.76644 0.2757 0.53789 0.0
C1724 C 0.75172 0.2646 0.51717 0.0
C1725 C 0.70924 0.23145 0.45765 0.0
C1726 C 0.72383 0.24399 0.4766 0.0
H1727 H 0.7789 0.32809 0.56684 0.0
H1728 H 0.75316 0.30849 0.53981 0.0
H1729 H 0.76993 0.2479 0.47919 0.0
H1730 H 0.69878 0.17743 0.43363 0.0
H1731 H 0.72402 0.19961 0.45676 0.0
C1732 C 0.69895 0.29404 0.91895 0.0
C1733 C 0.68165 0.28398 0.91716 0.0
C1734 C 0.7133 0.28261 0.93545 0.0
C1735 C 0.71861 0.24224 0.00899 0.0
H1736 H 0.76993 0.24801 0.98675 0.0
C1737 C 0.77708 0.19853 0.08659 0.0
C1738 C 0.79363 0.21038 0.08895 0.0
C1739 C 0.76225 0.20822 0.06892 0.0
C1740 C 0.75563 0.24659 0.99349 0.0
H1741 H 0.66644 0.25295 0.9267 0.0
H1742 H 0.69166 0.23292 0.9551 0.0
H1743 H 0.74748 0.2601 0.942 0.0
H1744 H 0.80679 0.24284 0.07938 0.0
H1745 H 0.78077 0.25976 0.04886 0.0
H1746 H 0.72682 0.22872 0.06052 0.0
C1747 C 0.69392 0.24988 0.94469 0.0
C1748 C 0.74282 0.25329 0.96777 0.0
C1749 C 0.67954 0.2613 0.92814 0.0
C1750 C 0.79433 0.23311 0.0775 0.0
C1751 C 0.77951 0.24275 0.05974 0.0
C1752 C 0.73143 0.23546 0.03468 0.0
C1753 C 0.71059 0.26092 0.95024 0.0
C1754 C 0.7242 0.25136 0.9754 0.0
C1755 C 0.76376 0.2299 0.05352 0.0
C1756 C 0.75004 0.23783 0.02728 0.0
H1757 H 0.70108 0.31138 0.91017 0.0
H1758 H 0.72603 0.29153 0.93922 0.0
H1759 H 0.70432 0.24102 0.01591 0.0
H1760 H 0.77601 0.1811 0.09571 0.0
H1761 H 0.75018 0.19803 0.06472 0.0
C1762 C 0.77724 0.70004 0.4284 0.0
C1763 C 0.79414 0.71093 0.42469 0.0
C1764 C 0.76306 0.71063 0.44688 0.0
C1765 C 0.758 0.75139 0.52057 0.0
H1766 H 0.70649 0.74407 0.50182 0.0
C1767 C 0.70022 0.79862 0.59396 0.0
C1768 C 0.68353 0.78726 0.59791 0.0
C1769 C 0.715 0.78766 0.57804 0.0
C1770 C 0.72086 0.74585 0.50769 0.0
H1771 H 0.80865 0.74257 0.43318 0.0
H1772 H 0.78369 0.7612 0.46483 0.0
H1773 H 0.72847 0.73124 0.45666 0.0
H1774 H 0.66997 0.75468 0.59314 0.0
H1775 H 0.69589 0.73555 0.56554 0.0
H1776 H 0.7503 0.76633 0.57144 0.0
C1777 C 0.78167 0.74419 0.45449 0.0
C1778 C 0.7334 0.73871 0.4817 0.0
C1779 C 0.79588 0.73359 0.43601 0.0
C1780 C 0.68258 0.76398 0.59006 0.0
C1781 C 0.69735 0.75306 0.57397 0.0
C1782 C 0.74544 0.75864 0.54651 0.0
C1783 C 0.7655 0.73234 0.46173 0.0
C1784 C 0.75209 0.74141 0.48788 0.0
C1785 C 0.71326 0.76522 0.56591 0.0
C1786 C 0.72676 0.75586 0.54031 0.0
H1787 H 0.77537 0.68268 0.41952 0.0
H1788 H 0.75072 0.7011 0.45189 0.0
H1789 H 0.77236 0.75321 0.52644 0.0
H1790 H 0.70143 0.81649 0.60034 0.0
H1791 H 0.72717 0.79739 0.57234 0.0
loop_
_geom_bond_atom_site_label_1
_geom_bond_atom_site_label_2
_geom_bond_distance
_geom_bond_site_symmetry_2
_ccdc_geom_bond_type
Sc0 O3 2.025 . S
Sc0 O10 2.105 . S
Sc0 O13 2.105 . S
Sc0 O16 2.105 . S
Sc0 O19 2.105 1_554 S
Sc1 O3 2.025 . S
Sc1 O11 2.105 . S
Sc1 O15 2.105 . S
Sc1 O17 2.105 . S
Sc1 O21 2.105 . S
Sc2 O3 2.025 . S
Sc2 O12 2.105 . S
Sc2 O14 2.105 . S
Sc2 O18 2.105 . S
Sc2 O20 2.105 . S
O3 Sc0 2.025 . S
O3 Sc1 2.025 . S
O3 Sc2 2.025 . S
C4 O10 1.268 . S
C4 O20 1.268 . S
C5 O11 1.268 1_556 S
C5 O19 1.268 . S
C6 O12 1.268 . S
C6 O21 1.268 . S
C7 O13 1.268 . S
C7 O17 1.268 . S
C8 O14 1.268 . S
C8 O16 1.268 . S
C9 O15 1.268 . S
C9 O18 1.268 . S
O10 Sc0 2.105 . S
O10 C4 1.268 . S
O11 Sc1 2.105 . S
O11 C5 1.268 1_554 S
O12 Sc2 2.105 . S
O12 C6 1.268 . S
O13 Sc0 2.105 . S
O13 C7 1.268 . S
O14 Sc2 2.105 . S
O14 C8 1.268 . S
O15 Sc1 2.105 . S
O15 C9 1.268 . S
O16 Sc0 2.105 . S
O16 C8 1.268 . S
O17 Sc1 2.105 . S
O17 C7 1.268 . S
O18 Sc2 2.105 . S
O18 C9 1.268 . S
O19 Sc0 2.105 1_556 S
O19 C5 1.268 . S
O20 Sc2 2.105 . S
O20 C4 1.268 . S
O21 Sc1 2.105 . S
O21 C6 1.268 . S
Sc22 O25 2.025 . S
Sc22 O32 2.105 . S
Sc22 O35 2.105 . S
Sc22 O38 2.105 . S
Sc22 O41 2.105 . S
Sc23 O25 2.025 . S
Sc23 O33 2.105 . S
Sc23 O37 2.105 . S
Sc23 O39 2.105 . S
Sc23 O43 2.105 . S
Sc24 O25 2.025 . S
Sc24 O34 2.105 . S
Sc24 O36 2.105 . S
Sc24 O40 2.105 . S
Sc24 O42 2.105 . S
O25 Sc22 2.025 . S
O25 Sc23 2.025 . S
O25 Sc24 2.025 . S
C26 O32 1.268 . S
C26 O42 1.268 . S
C27 O33 1.268 . S
C27 O41 1.268 . S
C28 O34 1.268 . S
C28 O43 1.268 . S
C29 O35 1.268 . S
C29 O39 1.268 . S
C30 O36 1.268 . S
C30 O38 1.268 . S
C31 O37 1.268 . S
C31 O40 1.268 . S
O32 Sc22 2.105 . S
O32 C26 1.268 . S
O33 Sc23 2.105 . S
O33 C27 1.268 . S
O34 Sc24 2.105 . S
O34 C28 1.268 . S
O35 Sc22 2.105 . S
O35 C29 1.268 . S
O36 Sc24 2.105 . S
O36 C30 1.268 . S
O37 Sc23 2.105 . S
O37 C31 1.268 . S
O38 Sc22 2.105 . S
O38 C30 1.268 . S
O39 Sc23 2.105 . S
O39 C29 1.268 . S
O40 Sc24 2.105 . S
O40 C31 1.268 . S
O41 Sc22 2.105 . S
O41 C27 1.268 . S
O42 Sc24 2.105 . S
O42 C26 1.268 . S
O43 Sc23 2.105 . S
O43 C28 1.268 . S
Sc44 O47 2.025 . S
Sc44 O54 2.105 . S
Sc44 O57 2.105 . S
Sc44 O60 2.105 . S
Sc44 O63 2.105 1_556 S
Sc45 O47 2.025 . S
Sc45 O55 2.105 . S
Sc45 O59 2.105 . S
Sc45 O61 2.105 . S
Sc45 O65 2.105 . S
Sc46 O47 2.025 . S
Sc46 O56 2.105 . S
Sc46 O58 2.105 . S
Sc46 O62 2.105 . S
Sc46 O64 2.105 . S
O47 Sc44 2.025 . S
O47 Sc45 2.025 . S
O47 Sc46 2.025 . S
C48 O54 1.268 . S
C48 O64 1.268 . S
C49 O55 1.268 1_554 S
C49 O63 1.268 . S
C50 O56 1.268 . S
C50 O65 1.268 . S
C51 O57 1.268 . S
C51 O61 1.268 . S
C52 O58 1.268 . S
C52 O60 1.268 . S
C53 O59 1.268 . S
C53 O62 1.268 . S
O54 Sc44 2.105 . S
O54 C48 1.268 . S
O55 Sc45 2.105 . S
O55 C49 1.268 1_556 S
O56 Sc46 2.105 . S
O56 C50 1.268 . S
O57 Sc44 2.105 . S
O57 C51 1.268 . S
O58 Sc46 2.105 . S
O58 C52 1.268 . S
O59 Sc45 2.105 . S
O59 C53 1.268 . S
O60 Sc44 2.105 . S
O60 C52 1.268 . S
O61 Sc45 2.105 . S
O61 C51 1.268 . S
O62 Sc46 2.105 . S
O62 C53 1.268 . S
O63 Sc44 2.105 1_554 S
O63 C49 1.268 . S
O64 Sc46 2.105 . S
O64 C48 1.268 . S
O65 Sc45 2.105 . S
O65 C50 1.268 . S
Sc66 O69 2.025 . S
Sc66 O76 2.105 . S
Sc66 O79 2.105 . S
Sc66 O82 2.105 . S
Sc66 O85 2.105 . S
Sc67 O69 2.025 . S
Sc67 O77 2.105 . S
Sc67 O81 2.105 . S
Sc67 O83 2.105 . S
Sc67 O87 2.105 . S
Sc68 O69 2.025 . S
Sc68 O78 2.105 . S
Sc68 O80 2.105 . S
Sc68 O84 2.105 . S
Sc68 O86 2.105 . S
O69 Sc66 2.025 . S
O69 Sc67 2.025 . S
O69 Sc68 2.025 . S
C70 O76 1.268 . S
C70 O86 1.268 . S
C71 O77 1.268 . S
C71 O85 1.268 . S
C72 O78 1.268 . S
C72 O87 1.268 . S
C73 O79 1.268 . S
C73 O83 1.268 . S
C74 O80 1.268 . S
C74 O82 1.268 . S
C75 O81 1.268 . S
C75 O84 1.268 . S
O76 Sc66 2.105 . S
O76 C70 1.268 . S
O77 Sc67 2.105 . S
O77 C71 1.268 . S
O78 Sc68 2.105 . S
O78 C72 1.268 . S
O79 Sc66 2.105 . S
O79 C73 1.268 . S
O80 Sc68 2.105 . S
O80 C74 1.268 . S
O81 Sc67 2.105 . S
O81 C75 1.268 . S
O82 Sc66 2.105 . S
O82 C74 1.268 . S
O83 Sc67 2.105 . S
O83 C73 1.268 . S
O84 Sc68 2.105 . S
O84 C75 1.268 . S
O85 Sc66 2.105 . S
O85 C71 1.268 . S
O86 Sc68 2.105 . S
O86 C70 1.268 . S
O87 Sc67 2.105 . S
O87 C72 1.268 . S
Sc88 O91 2.025 . S
Sc88 O98 2.105 . S
Sc88 O101 2.105 . S
Sc88 O104 2.105 . S
Sc88 O107 2.105 . S
Sc89 O91 2.025 . S
Sc89 O99 2.105 . S
Sc89 O103 2.105 . S
Sc89 O105 2.105 . S
Sc89 O109 2.105 . S
Sc90 O91 2.025 . S
Sc90 O100 2.105 1_556 S
Sc90 O102 2.105 . S
Sc90 O106 2.105 . S
Sc90 O108 2.105 . S
O91 Sc88 2.025 . S
O91 Sc89 2.025 . S
O91 Sc90 2.025 . S
C92 O98 1.268 . S
C92 O108 1.268 . S
C93 O99 1.268 . S
C93 O107 1.268 . S
C94 O100 1.268 . S
C94 O109 1.268 1_554 S
C95 O101 1.268 . S
C95 O105 1.268 . S
C96 O102 1.268 . S
C96 O104 1.268 . S
C97 O103 1.268 . S
C97 O106 1.268 . S
O98 Sc88 2.105 . S
O98 C92 1.268 . S
O99 Sc89 2.105 . S
O99 C93 1.268 . S
O100 Sc90 2.105 1_554 S
O100 C94 1.268 . S
O101 Sc88 2.105 . S
O101 C95 1.268 . S
O102 Sc90 2.105 . S
O102 C96 1.268 . S
O103 Sc89 2.105 . S
O103 C97 1.268 . S
O104 Sc88 2.105 . S
O104 C96 1.268 . S
O105 Sc89 2.105 . S
O105 C95 1.268 . S
O106 Sc90 2.105 . S
O106 C97 1.268 . S
O107 Sc88 2.105 . S
O107 C93 1.268 . S
O108 Sc90 2.105 . S
O108 C92 1.268 . S
O109 Sc89 2.105 . S
O109 C94 1.268 1_556 S
Sc110 O113 2.025 . S
Sc110 O120 2.105 . S
Sc110 O123 2.105 . S
Sc110 O126 2.105 . S
Sc110 O129 2.105 . S
Sc111 O113 2.025 . S
Sc111 O121 2.105 . S
Sc111 O125 2.105 . S
Sc111 O127 2.105 . S
Sc111 O131 2.105 . S
Sc112 O113 2.025 . S
Sc112 O122 2.105 . S
Sc112 O124 2.105 . S
Sc112 O128 2.105 . S
Sc112 O130 2.105 . S
O113 Sc110 2.025 . S
O113 Sc111 2.025 . S
O113 Sc112 2.025 . S
C114 O120 1.268 . S
C114 O130 1.268 . S
C115 O121 1.268 . S
C115 O129 1.268 . S
C116 O122 1.268 . S
C116 O131 1.268 . S
C117 O123 1.268 . S
C117 O127 1.268 . S
C118 O124 1.268 . S
C118 O126 1.268 . S
C119 O125 1.268 . S
C119 O128 1.268 . S
O120 Sc110 2.105 . S
O120 C114 1.268 . S
O121 Sc111 2.105 . S
O121 C115 1.268 . S
O122 Sc112 2.105 . S
O122 C116 1.268 . S
O123 Sc110 2.105 . S
O123 C117 1.268 . S
O124 Sc112 2.105 . S
O124 C118 1.268 . S
O125 Sc111 2.105 . S
O125 C119 1.268 . S
O126 Sc110 2.105 . S
O126 C118 1.268 . S
O127 Sc111 2.105 . S
O127 C117 1.268 . S
O128 Sc112 2.105 . S
O128 C119 1.268 . S
O129 Sc110 2.105 . S
O129 C115 1.268 . S
O130 Sc112 2.105 . S
O130 C114 1.268 . S
O131 Sc111 2.105 . S
O131 C116 1.268 . S
Sc132 O135 2.025 . S
Sc132 O142 2.105 . S
Sc132 O145 2.105 1_554 S
Sc132 O148 2.105 . S
Sc132 O151 2.105 . S
Sc133 O135 2.025 . S
Sc133 O143 2.105 . S
Sc133 O147 2.105 . S
Sc133 O149 2.105 . S
Sc133 O153 2.105 . S
Sc134 O135 2.025 . S
Sc134 O144 2.105 . S
Sc134 O146 2.105 . S
Sc134 O150 2.105 . S
Sc134 O152 2.105 . S
O135 Sc132 2.025 . S
O135 Sc133 2.025 . S
O135 Sc134 2.025 . S
C136 O142 1.268 . S
C136 O152 1.268 . S
C137 O143 1.268 . S
C137 O151 1.268 . S
C138 O144 1.268 . S
C138 O153 1.268 . S
C139 O145 1.268 . S
C139 O149 1.268 1_556 S
C140 O146 1.268 . S
C140 O148 1.268 . S
C141 O147 1.268 . S
C141 O150 1.268 . S
O142 Sc132 2.105 . S
O142 C136 1.268 . S
O143 Sc133 2.105 . S
O143 C137 1.268 . S
O144 Sc134 2.105 . S
O144 C138 1.268 . S
O145 Sc132 2.105 1_556 S
O145 C139 1.268 . S
O146 Sc134 2.105 . S
O146 C140 1.268 . S
O147 Sc133 2.105 . S
O147 C141 1.268 . S
O148 Sc132 2.105 . S
O148 C140 1.268 . S
O149 Sc133 2.105 . S
O149 C139 1.268 1_554 S
O150 Sc134 2.105 . S
O150 C141 1.268 . S
O151 Sc132 2.105 . S
O151 C137 1.268 . S
O152 Sc134 2.105 . S
O152 C136 1.268 . S
O153 Sc133 2.105 . S
O153 C138 1.268 . S
Sc154 O157 2.025 . S
Sc154 O164 2.105 . S
Sc154 O167 2.105 . S
Sc154 O170 2.105 . S
Sc154 O173 2.105 . S
Sc155 O157 2.025 . S
Sc155 O165 2.105 . S
Sc155 O169 2.105 . S
Sc155 O171 2.105 . S
Sc155 O175 2.105 . S
Sc156 O157 2.025 . S
Sc156 O166 2.105 . S
Sc156 O168 2.105 . S
Sc156 O172 2.105 . S
Sc156 O174 2.105 . S
O157 Sc154 2.025 . S
O157 Sc155 2.025 . S
O157 Sc156 2.025 . S
C158 O164 1.268 . S
C158 O174 1.268 . S
C159 O165 1.268 . S
C159 O173 1.268 . S
C160 O166 1.268 . S
C160 O175 1.268 . S
C161 O167 1.268 . S
C161 O171 1.268 . S
C162 O168 1.268 . S
C162 O170 1.268 . S
C163 O169 1.268 . S
C163 O172 1.268 . S
O164 Sc154 2.105 . S
O164 C158 1.268 . S
O165 Sc155 2.105 . S
O165 C159 1.268 . S
O166 Sc156 2.105 . S
O166 C160 1.268 . S
O167 Sc154 2.105 . S
O167 C161 1.268 . S
O168 Sc156 2.105 . S
O168 C162 1.268 . S
O169 Sc155 2.105 . S
O169 C163 1.268 . S
O170 Sc154 2.105 . S
O170 C162 1.268 . S
O171 Sc155 2.105 . S
O171 C161 1.268 . S
O172 Sc156 2.105 . S
O172 C163 1.268 . S
O173 Sc154 2.105 . S
O173 C159 1.268 . S
O174 Sc156 2.105 . S
O174 C158 1.268 . S
O175 Sc155 2.105 . S
O175 C160 1.268 . S
Sc176 O179 2.025 . S
Sc176 O186 2.105 . S
Sc176 O189 2.105 . S
Sc176 O192 2.105 . S
Sc176 O195 2.105 1_554 S
Sc177 O179 2.025 . S
Sc177 O187 2.105 . S
Sc177 O191 2.105 . S
Sc177 O193 2.105 . S
Sc177 O197 2.105 . S
Sc178 O179 2.025 . S
Sc178 O188 2.105 . S
Sc178 O190 2.105 . S
Sc178 O194 2.105 . S
Sc178 O196 2.105 . S
O179 Sc176 2.025 . S
O179 Sc177 2.025 . S
O179 Sc178 2.025 . S
C180 O186 1.268 . S
C180 O196 1.268 . S
C181 O187 1.268 1_556 S
C181 O195 1.268 . S
C182 O188 1.268 . S
C182 O197 1.268 . S
C183 O189 1.268 . S
C183 O193 1.268 . S
C184 O190 1.268 . S
C184 O192 1.268 . S
C185 O191 1.268 . S
C185 O194 1.268 . S
O186 Sc176 2.105 . S
O186 C180 1.268 . S
O187 Sc177 2.105 . S
O187 C181 1.268 1_554 S
O188 Sc178 2.105 . S
O188 C182 1.268 . S
O189 Sc176 2.105 . S
O189 C183 1.268 . S
O190 Sc178 2.105 . S
O190 C184 1.268 . S
O191 Sc177 2.105 . S
O191 C185 1.268 . S
O192 Sc176 2.105 . S
O192 C184 1.268 . S
O193 Sc177 2.105 . S
O193 C183 1.268 . S
O194 Sc178 2.105 . S
O194 C185 1.268 . S
O195 Sc176 2.105 1_556 S
O195 C181 1.268 . S
O196 Sc178 2.105 . S
O196 C180 1.268 . S
O197 Sc177 2.105 . S
O197 C182 1.268 . S
Sc198 O201 2.025 . S
Sc198 O208 2.105 . S
Sc198 O211 2.105 . S
Sc198 O214 2.105 . S
Sc198 O217 2.105 . S
Sc199 O201 2.025 . S
Sc199 O209 2.105 . S
Sc199 O213 2.105 . S
Sc199 O215 2.105 . S
Sc199 O219 2.105 . S
Sc200 O201 2.025 . S
Sc200 O210 2.105 . S
Sc200 O212 2.105 . S
Sc200 O216 2.105 . S
Sc200 O218 2.105 . S
O201 Sc198 2.025 . S
O201 Sc199 2.025 . S
O201 Sc200 2.025 . S
C202 O208 1.268 . S
C202 O218 1.268 . S
C203 O209 1.268 . S
C203 O217 1.268 . S
C204 O210 1.268 . S
C204 O219 1.268 . S
C205 O211 1.268 . S
C205 O215 1.268 . S
C206 O212 1.268 . S
C206 O214 1.268 . S
C207 O213 1.268 . S
C207 O216 1.268 . S
O208 Sc198 2.105 . S
O208 C202 1.268 . S
O209 Sc199 2.105 . S
O209 C203 1.268 . S
O210 Sc200 2.105 . S
O210 C204 1.268 . S
O211 Sc198 2.105 . S
O211 C205 1.268 . S
O212 Sc200 2.105 . S
O212 C206 1.268 . S
O213 Sc199 2.105 . S
O213 C207 1.268 . S
O214 Sc198 2.105 . S
O214 C206 1.268 . S
O215 Sc199 2.105 . S
O215 C205 1.268 . S
O216 Sc200 2.105 . S
O216 C207 1.268 . S
O217 Sc198 2.105 . S
O217 C203 1.268 . S
O218 Sc200 2.105 . S
O218 C202 1.268 . S
O219 Sc199 2.105 . S
O219 C204 1.268 . S
Sc220 O223 2.025 . S
Sc220 O230 2.105 . S
Sc220 O233 2.105 . S
Sc220 O236 2.105 . S
Sc220 O239 2.105 1_556 S
Sc221 O223 2.025 . S
Sc221 O231 2.105 . S
Sc221 O235 2.105 . S
Sc221 O237 2.105 . S
Sc221 O241 2.105 . S
Sc222 O223 2.025 . S
Sc222 O232 2.105 . S
Sc222 O234 2.105 . S
Sc222 O238 2.105 . S
Sc222 O240 2.105 . S
O223 Sc220 2.025 . S
O223 Sc221 2.025 . S
O223 Sc222 2.025 . S
C224 O230 1.268 . S
C224 O240 1.268 . S
C225 O231 1.268 1_554 S
C225 O239 1.268 . S
C226 O232 1.268 . S
C226 O241 1.268 . S
C227 O233 1.268 . S
C227 O237 1.268 . S
C228 O234 1.268 . S
C228 O236 1.268 . S
C229 O235 1.268 . S
C229 O238 1.268 . S
O230 Sc220 2.105 . S
O230 C224 1.268 . S
O231 Sc221 2.105 . S
O231 C225 1.268 1_556 S
O232 Sc222 2.105 . S
O232 C226 1.268 . S
O233 Sc220 2.105 . S
O233 C227 1.268 . S
O234 Sc222 2.105 . S
O234 C228 1.268 . S
O235 Sc221 2.105 . S
O235 C229 1.268 . S
O236 Sc220 2.105 . S
O236 C228 1.268 . S
O237 Sc221 2.105 . S
O237 C227 1.268 . S
O238 Sc222 2.105 . S
O238 C229 1.268 . S
O239 Sc220 2.105 1_554 S
O239 C225 1.268 . S
O240 Sc222 2.105 . S
O240 C224 1.268 . S
O241 Sc221 2.105 . S
O241 C226 1.268 . S
Sc242 O245 2.025 . S
Sc242 O252 2.105 . S
Sc242 O255 2.105 . S
Sc242 O258 2.105 . S
Sc242 O261 2.105 . S
Sc243 O245 2.025 . S
Sc243 O253 2.105 . S
Sc243 O257 2.105 . S
Sc243 O259 2.105 . S
Sc243 O263 2.105 . S
Sc244 O245 2.025 . S
Sc244 O254 2.105 . S
Sc244 O256 2.105 . S
Sc244 O260 2.105 . S
Sc244 O262 2.105 . S
O245 Sc242 2.025 . S
O245 Sc243 2.025 . S
O245 Sc244 2.025 . S
C246 O252 1.268 . S
C246 O262 1.268 . S
C247 O253 1.268 . S
C247 O261 1.268 . S
C248 O254 1.268 . S
C248 O263 1.268 . S
C249 O255 1.268 . S
C249 O259 1.268 . S
C250 O256 1.268 . S
C250 O258 1.268 . S
C251 O257 1.268 . S
C251 O260 1.268 . S
O252 Sc242 2.105 . S
O252 C246 1.268 . S
O253 Sc243 2.105 . S
O253 C247 1.268 . S
O254 Sc244 2.105 . S
O254 C248 1.268 . S
O255 Sc242 2.105 . S
O255 C249 1.268 . S
O256 Sc244 2.105 . S
O256 C250 1.268 . S
O257 Sc243 2.105 . S
O257 C251 1.268 . S
O258 Sc242 2.105 . S
O258 C250 1.268 . S
O259 Sc243 2.105 . S
O259 C249 1.268 . S
O260 Sc244 2.105 . S
O260 C251 1.268 . S
O261 Sc242 2.105 . S
O261 C247 1.268 . S
O262 Sc244 2.105 . S
O262 C246 1.268 . S
O263 Sc243 2.105 . S
O263 C248 1.268 . S
Sc264 O267 2.025 . S
Sc264 O274 2.105 . S
Sc264 O277 2.105 . S
Sc264 O280 2.105 . S
Sc264 O283 2.105 . S
Sc265 O267 2.025 . S
Sc265 O275 2.105 . S
Sc265 O279 2.105 . S
Sc265 O281 2.105 . S
Sc265 O285 2.105 . S
Sc266 O267 2.025 . S
Sc266 O276 2.105 1_556 S
Sc266 O278 2.105 . S
Sc266 O282 2.105 . S
Sc266 O284 2.105 . S
O267 Sc264 2.025 . S
O267 Sc265 2.025 . S
O267 Sc266 2.025 . S
C268 O274 1.268 . S
C268 O284 1.268 . S
C269 O275 1.268 . S
C269 O283 1.268 . S
C270 O276 1.268 . S
C270 O285 1.268 1_554 S
C271 O277 1.268 . S
C271 O281 1.268 . S
C272 O278 1.268 . S
C272 O280 1.268 . S
C273 O279 1.268 . S
C273 O282 1.268 . S
O274 Sc264 2.105 . S
O274 C268 1.268 . S
O275 Sc265 2.105 . S
O275 C269 1.268 . S
O276 Sc266 2.105 1_554 S
O276 C270 1.268 . S
O277 Sc264 2.105 . S
O277 C271 1.268 . S
O278 Sc266 2.105 . S
O278 C272 1.268 . S
O279 Sc265 2.105 . S
O279 C273 1.268 . S
O280 Sc264 2.105 . S
O280 C272 1.268 . S
O281 Sc265 2.105 . S
O281 C271 1.268 . S
O282 Sc266 2.105 . S
O282 C273 1.268 . S
O283 Sc264 2.105 . S
O283 C269 1.268 . S
O284 Sc266 2.105 . S
O284 C268 1.268 . S
O285 Sc265 2.105 . S
O285 C270 1.268 1_556 S
Sc286 O289 2.025 . S
Sc286 O296 2.105 . S
Sc286 O299 2.105 . S
Sc286 O302 2.105 . S
Sc286 O305 2.105 . S
Sc287 O289 2.025 . S
Sc287 O297 2.105 . S
Sc287 O301 2.105 . S
Sc287 O303 2.105 . S
Sc287 O307 2.105 . S
Sc288 O289 2.025 . S
Sc288 O298 2.105 . S
Sc288 O300 2.105 . S
Sc288 O304 2.105 . S
Sc288 O306 2.105 . S
O289 Sc286 2.025 . S
O289 Sc287 2.025 . S
O289 Sc288 2.025 . S
C290 O296 1.268 . S
C290 O306 1.268 . S
C291 O297 1.268 . S
C291 O305 1.268 . S
C292 O298 1.268 . S
C292 O307 1.268 . S
C293 O299 1.268 . S
C293 O303 1.268 . S
C294 O300 1.268 . S
C294 O302 1.268 . S
C295 O301 1.268 . S
C295 O304 1.268 . S
O296 Sc286 2.105 . S
O296 C290 1.268 . S
O297 Sc287 2.105 . S
O297 C291 1.268 . S
O298 Sc288 2.105 . S
O298 C292 1.268 . S
O299 Sc286 2.105 . S
O299 C293 1.268 . S
O300 Sc288 2.105 . S
O300 C294 1.268 . S
O301 Sc287 2.105 . S
O301 C295 1.268 . S
O302 Sc286 2.105 . S
O302 C294 1.268 . S
O303 Sc287 2.105 . S
O303 C293 1.268 . S
O304 Sc288 2.105 . S
O304 C295 1.268 . S
O305 Sc286 2.105 . S
O305 C291 1.268 . S
O306 Sc288 2.105 . S
O306 C290 1.268 . S
O307 Sc287 2.105 . S
O307 C292 1.268 . S
Sc308 O311 2.025 . S
Sc308 O318 2.105 . S
Sc308 O321 2.105 1_554 S
Sc308 O324 2.105 . S
Sc308 O327 2.105 . S
Sc309 O311 2.025 . S
Sc309 O319 2.105 . S
Sc309 O323 2.105 . S
Sc309 O325 2.105 . S
Sc309 O329 2.105 . S
Sc310 O311 2.025 . S
Sc310 O320 2.105 . S
Sc310 O322 2.105 . S
Sc310 O326 2.105 . S
Sc310 O328 2.105 . S
O311 Sc308 2.025 . S
O311 Sc309 2.025 . S
O311 Sc310 2.025 . S
C312 O318 1.268 . S
C312 O328 1.268 . S
C313 O319 1.268 . S
C313 O327 1.268 . S
C314 O320 1.268 . S
C314 O329 1.268 . S
C315 O321 1.268 . S
C315 O325 1.268 1_556 S
C316 O322 1.268 . S
C316 O324 1.268 . S
C317 O323 1.268 . S
C317 O326 1.268 . S
O318 Sc308 2.105 . S
O318 C312 1.268 . S
O319 Sc309 2.105 . S
O319 C313 1.268 . S
O320 Sc310 2.105 . S
O320 C314 1.268 . S
O321 Sc308 2.105 1_556 S
O321 C315 1.268 . S
O322 Sc310 2.105 . S
O322 C316 1.268 . S
O323 Sc309 2.105 . S
O323 C317 1.268 . S
O324 Sc308 2.105 . S
O324 C316 1.268 . S
O325 Sc309 2.105 . S
O325 C315 1.268 1_554 S
O326 Sc310 2.105 . S
O326 C317 1.268 . S
O327 Sc308 2.105 . S
O327 C313 1.268 . S
O328 Sc310 2.105 . S
O328 C312 1.268 . S
O329 Sc309 2.105 . S
O329 C314 1.268 . S
Sc330 O333 2.025 . S
Sc330 O340 2.105 . S
Sc330 O343 2.105 . S
Sc330 O346 2.105 . S
Sc330 O349 2.105 . S
Sc331 O333 2.025 . S
Sc331 O341 2.105 . S
Sc331 O345 2.105 . S
Sc331 O347 2.105 . S
Sc331 O351 2.105 . S
Sc332 O333 2.025 . S
Sc332 O342 2.105 . S
Sc332 O344 2.105 . S
Sc332 O348 2.105 . S
Sc332 O350 2.105 . S
O333 Sc330 2.025 . S
O333 Sc331 2.025 . S
O333 Sc332 2.025 . S
C334 O340 1.268 . S
C334 O350 1.268 . S
C335 O341 1.268 . S
C335 O349 1.268 . S
C336 O342 1.268 . S
C336 O351 1.268 . S
C337 O343 1.268 . S
C337 O347 1.268 . S
C338 O344 1.268 . S
C338 O346 1.268 . S
C339 O345 1.268 . S
C339 O348 1.268 . S
O340 Sc330 2.105 . S
O340 C334 1.268 . S
O341 Sc331 2.105 . S
O341 C335 1.268 . S
O342 Sc332 2.105 . S
O342 C336 1.268 . S
O343 Sc330 2.105 . S
O343 C337 1.268 . S
O344 Sc332 2.105 . S
O344 C338 1.268 . S
O345 Sc331 2.105 . S
O345 C339 1.268 . S
O346 Sc330 2.105 . S
O346 C338 1.268 . S
O347 Sc331 2.105 . S
O347 C337 1.268 . S
O348 Sc332 2.105 . S
O348 C339 1.268 . S
O349 Sc330 2.105 . S
O349 C335 1.268 . S
O350 Sc332 2.105 . S
O350 C334 1.268 . S
O351 Sc331 2.105 . S
O351 C336 1.268 . S
C352 C353 1.349 . S
C352 C354 1.327 . S
C352 H377 0.950 . S
C353 C352 1.349 . S
C353 C369 1.349 . S
C354 C352 1.327 . S
C354 C373 1.429 . S
C354 H378 0.950 . S
C355 C372 1.574 . S
C355 C374 1.368 . S
C355 H379 0.949 . S
H356 C360 0.949 . S
C357 C358 1.349 . S
C357 C359 1.327 . S
C357 H380 0.950 . S
C358 C357 1.349 . S
C358 C370 1.349 . S
C359 C357 1.327 . S
C359 C375 1.429 . S
C359 H381 0.950 . S
C360 H356 0.949 . S
C360 C368 1.574 . S
C360 C376 1.368 . S
H361 C369 0.950 . S
H362 C367 0.950 . S
H363 C368 0.949 . S
H364 C370 0.950 . S
H365 C371 0.950 . S
H366 C372 0.949 . S
C367 H362 0.950 . S
C367 C369 1.327 . S
C367 C373 1.429 . S
C368 C360 1.574 . S
C368 H363 0.949 . S
C368 C374 1.368 . S
C369 C353 1.349 . S
C369 H361 0.950 . S
C369 C367 1.327 . S
C370 C358 1.349 . S
C370 H364 0.950 . S
C370 C371 1.327 . S
C371 H365 0.950 . S
C371 C370 1.327 . S
C371 C375 1.429 . S
C372 C355 1.574 . S
C372 H366 0.949 . S
C372 C376 1.368 . S
C373 C354 1.429 . S
C373 C367 1.429 . S
C373 C374 1.523 . S
C374 C355 1.368 . S
C374 C368 1.368 . S
C374 C373 1.523 . S
C375 C359 1.429 . S
C375 C371 1.429 . S
C375 C376 1.523 . S
C376 C360 1.368 . S
C376 C372 1.368 . S
C376 C375 1.523 . S
H377 C352 0.950 . S
H378 C354 0.950 . S
H379 C355 0.949 . S
H380 C357 0.950 . S
H381 C359 0.950 . S
C382 C383 1.349 . S
C382 C384 1.327 . S
C382 H407 0.950 . S
C383 C382 1.349 . S
C383 C399 1.349 . S
C384 C382 1.327 . S
C384 C403 1.429 . S
C384 H408 0.950 . S
C385 C402 1.574 . S
C385 C404 1.368 . S
C385 H409 0.949 . S
H386 C390 0.949 . S
C387 C388 1.349 . S
C387 C389 1.327 . S
C387 H410 0.950 . S
C388 C387 1.349 . S
C388 C400 1.349 . S
C389 C387 1.327 . S
C389 C405 1.429 . S
C389 H411 0.950 . S
C390 H386 0.949 . S
C390 C398 1.574 . S
C390 C406 1.368 . S
H391 C399 0.950 . S
H392 C397 0.950 . S
H393 C398 0.949 . S
H394 C400 0.950 . S
H395 C401 0.950 . S
H396 C402 0.949 . S
C397 H392 0.950 . S
C397 C399 1.327 . S
C397 C403 1.429 . S
C398 C390 1.574 . S
C398 H393 0.949 . S
C398 C404 1.368 . S
C399 C383 1.349 . S
C399 H391 0.950 . S
C399 C397 1.327 . S
C400 C388 1.349 . S
C400 H394 0.950 . S
C400 C401 1.327 . S
C401 H395 0.950 . S
C401 C400 1.327 . S
C401 C405 1.429 . S
C402 C385 1.574 . S
C402 H396 0.949 . S
C402 C406 1.368 . S
C403 C384 1.429 . S
C403 C397 1.429 . S
C403 C404 1.523 . S
C404 C385 1.368 . S
C404 C398 1.368 . S
C404 C403 1.523 . S
C405 C389 1.429 . S
C405 C401 1.429 . S
C405 C406 1.523 . S
C406 C390 1.368 . S
C406 C402 1.368 . S
C406 C405 1.523 . S
H407 C382 0.950 . S
H408 C384 0.950 . S
H409 C385 0.949 . S
H410 C387 0.950 . S
H411 C389 0.950 . S
C412 C413 1.349 . S
C412 C414 1.327 . S
C412 H437 0.950 . S
C413 C412 1.349 . S
C413 C429 1.349 . S
C414 C412 1.327 . S
C414 C433 1.429 . S
C414 H438 0.950 . S
C415 C432 1.574 . S
C415 C434 1.368 . S
C415 H439 0.949 . S
H416 C420 0.949 . S
C417 C418 1.349 . S
C417 C419 1.327 . S
C417 H440 0.950 . S
C418 C417 1.349 . S
C418 C430 1.349 . S
C419 C417 1.327 . S
C419 C435 1.429 . S
C419 H441 0.950 . S
C420 H416 0.949 . S
C420 C428 1.574 . S
C420 C436 1.368 . S
H421 C429 0.950 . S
H422 C427 0.950 . S
H423 C428 0.949 . S
H424 C430 0.950 . S
H425 C431 0.950 . S
H426 C432 0.949 . S
C427 H422 0.950 . S
C427 C429 1.327 . S
C427 C433 1.429 . S
C428 C420 1.574 . S
C428 H423 0.949 . S
C428 C434 1.368 . S
C429 C413 1.349 . S
C429 H421 0.950 . S
C429 C427 1.327 . S
C430 C418 1.349 . S
C430 H424 0.950 . S
C430 C431 1.327 . S
C431 H425 0.950 . S
C431 C430 1.327 . S
C431 C435 1.429 . S
C432 C415 1.574 . S
C432 H426 0.949 . S
C432 C436 1.368 . S
C433 C414 1.429 . S
C433 C427 1.429 . S
C433 C434 1.523 . S
C434 C415 1.368 . S
C434 C428 1.368 . S
C434 C433 1.523 . S
C435 C419 1.429 . S
C435 C431 1.429 . S
C435 C436 1.523 . S
C436 C420 1.368 . S
C436 C432 1.368 . S
C436 C435 1.523 . S
H437 C412 0.950 . S
H438 C414 0.950 . S
H439 C415 0.949 . S
H440 C417 0.950 . S
H441 C419 0.950 . S
C442 C443 1.349 . S
C442 C444 1.327 . S
C442 H467 0.950 . S
C443 C442 1.349 . S
C443 C459 1.349 . S
C444 C442 1.327 . S
C444 C463 1.429 . S
C444 H468 0.950 . S
C445 C462 1.574 . S
C445 C464 1.368 . S
C445 H469 0.949 . S
H446 C450 0.949 . S
C447 C448 1.349 . S
C447 C449 1.327 . S
C447 H470 0.950 . S
C448 C447 1.349 . S
C448 C460 1.349 . S
C449 C447 1.327 . S
C449 C465 1.429 . S
C449 H471 0.950 . S
C450 H446 0.949 . S
C450 C458 1.574 . S
C450 C466 1.368 . S
H451 C459 0.950 . S
H452 C457 0.950 . S
H453 C458 0.949 . S
H454 C460 0.950 . S
H455 C461 0.950 . S
H456 C462 0.949 . S
C457 H452 0.950 . S
C457 C459 1.327 . S
C457 C463 1.429 . S
C458 C450 1.574 . S
C458 H453 0.949 . S
C458 C464 1.368 . S
C459 C443 1.349 . S
C459 H451 0.950 . S
C459 C457 1.327 . S
C460 C448 1.349 . S
C460 H454 0.950 . S
C460 C461 1.327 . S
C461 H455 0.950 . S
C461 C460 1.327 . S
C461 C465 1.429 . S
C462 C445 1.574 . S
C462 H456 0.949 . S
C462 C466 1.368 . S
C463 C444 1.429 . S
C463 C457 1.429 . S
C463 C464 1.523 . S
C464 C445 1.368 . S
C464 C458 1.368 . S
C464 C463 1.523 . S
C465 C449 1.429 . S
C465 C461 1.429 . S
C465 C466 1.523 . S
C466 C450 1.368 . S
C466 C462 1.368 . S
C466 C465 1.523 . S
H467 C442 0.950 . S
H468 C444 0.950 . S
H469 C445 0.949 . S
H470 C447 0.950 . S
H471 C449 0.950 . S
C472 C473 1.349 . S
C472 C474 1.327 . S
C472 H497 0.950 . S
C473 C472 1.349 . S
C473 C489 1.349 . S
C474 C472 1.327 . S
C474 C493 1.429 . S
C474 H498 0.950 . S
C475 C492 1.574 . S
C475 C494 1.368 . S
C475 H499 0.949 . S
H476 C480 0.949 . S
C477 C478 1.349 . S
C477 C479 1.327 . S
C477 H500 0.950 . S
C478 C477 1.349 . S
C478 C490 1.349 . S
C479 C477 1.327 . S
C479 C495 1.429 . S
C479 H501 0.950 . S
C480 H476 0.949 . S
C480 C488 1.574 . S
C480 C496 1.368 . S
H481 C489 0.950 . S
H482 C487 0.950 . S
H483 C488 0.949 . S
H484 C490 0.950 . S
H485 C491 0.950 . S
H486 C492 0.949 . S
C487 H482 0.950 . S
C487 C489 1.327 . S
C487 C493 1.429 . S
C488 C480 1.574 . S
C488 H483 0.949 . S
C488 C494 1.368 . S
C489 C473 1.349 . S
C489 H481 0.950 . S
C489 C487 1.327 . S
C490 C478 1.349 . S
C490 H484 0.950 . S
C490 C491 1.327 . S
C491 H485 0.950 . S
C491 C490 1.327 . S
C491 C495 1.429 . S
C492 C475 1.574 . S
C492 H486 0.949 . S
C492 C496 1.368 . S
C493 C474 1.429 . S
C493 C487 1.429 . S
C493 C494 1.523 . S
C494 C475 1.368 . S
C494 C488 1.368 . S
C494 C493 1.523 . S
C495 C479 1.429 . S
C495 C491 1.429 . S
C495 C496 1.523 . S
C496 C480 1.368 . S
C496 C492 1.368 . S
C496 C495 1.523 . S
H497 C472 0.950 . S
H498 C474 0.950 . S
H499 C475 0.949 . S
H500 C477 0.950 . S
H501 C479 0.950 . S
C502 C503 1.349 . S
C502 C504 1.327 . S
C502 H527 0.950 . S
C503 C502 1.349 . S
C503 C519 1.349 . S
C504 C502 1.327 . S
C504 C523 1.429 . S
C504 H528 0.950 . S
C505 C522 1.574 . S
C505 C524 1.368 . S
C505 H529 0.949 . S
H506 C510 0.949 . S
C507 C508 1.349 . S
C507 C509 1.327 . S
C507 H530 0.950 . S
C508 C507 1.349 . S
C508 C520 1.349 . S
C509 C507 1.327 . S
C509 C525 1.429 . S
C509 H531 0.950 . S
C510 H506 0.949 . S
C510 C518 1.574 . S
C510 C526 1.368 . S
H511 C519 0.950 . S
H512 C517 0.950 . S
H513 C518 0.949 . S
H514 C520 0.950 . S
H515 C521 0.950 . S
H516 C522 0.949 . S
C517 H512 0.950 . S
C517 C519 1.327 . S
C517 C523 1.429 . S
C518 C510 1.574 . S
C518 H513 0.949 . S
C518 C524 1.368 . S
C519 C503 1.349 . S
C519 H511 0.950 . S
C519 C517 1.327 . S
C520 C508 1.349 . S
C520 H514 0.950 . S
C520 C521 1.327 . S
C521 H515 0.950 . S
C521 C520 1.327 . S
C521 C525 1.429 . S
C522 C505 1.574 . S
C522 H516 0.949 . S
C522 C526 1.368 . S
C523 C504 1.429 . S
C523 C517 1.429 . S
C523 C524 1.523 . S
C524 C505 1.368 . S
C524 C518 1.368 . S
C524 C523 1.523 . S
C525 C509 1.429 . S
C525 C521 1.429 . S
C525 C526 1.523 . S
C526 C510 1.368 . S
C526 C522 1.368 . S
C526 C525 1.523 . S
H527 C502 0.950 . S
H528 C504 0.950 . S
H529 C505 0.949 . S
H530 C507 0.950 . S
H531 C509 0.950 . S
C532 C533 1.349 . S
C532 C534 1.327 . S
C532 H557 0.950 . S
C533 C532 1.349 . S
C533 C549 1.349 . S
C534 C532 1.327 . S
C534 C553 1.429 . S
C534 H558 0.950 . S
C535 C552 1.574 . S
C535 C554 1.368 . S
C535 H559 0.949 . S
H536 C540 0.949 . S
C537 C538 1.349 . S
C537 C539 1.327 . S
C537 H560 0.950 . S
C538 C537 1.349 . S
C538 C550 1.349 . S
C539 C537 1.327 . S
C539 C555 1.429 . S
C539 H561 0.950 . S
C540 H536 0.949 . S
C540 C548 1.574 . S
C540 C556 1.368 . S
H541 C549 0.950 . S
H542 C547 0.950 . S
H543 C548 0.949 . S
H544 C550 0.950 . S
H545 C551 0.950 . S
H546 C552 0.949 . S
C547 H542 0.950 . S
C547 C549 1.327 . S
C547 C553 1.429 . S
C548 C540 1.574 . S
C548 H543 0.949 . S
C548 C554 1.368 . S
C549 C533 1.349 . S
C549 H541 0.950 . S
C549 C547 1.327 . S
C550 C538 1.349 . S
C550 H544 0.950 . S
C550 C551 1.327 . S
C551 H545 0.950 . S
C551 C550 1.327 . S
C551 C555 1.429 . S
C552 C535 1.574 . S
C552 H546 0.949 . S
C552 C556 1.368 . S
C553 C534 1.429 . S
C553 C547 1.429 . S
C553 C554 1.523 . S
C554 C535 1.368 . S
C554 C548 1.368 . S
C554 C553 1.523 . S
C555 C539 1.429 . S
C555 C551 1.429 . S
C555 C556 1.523 . S
C556 C540 1.368 . S
C556 C552 1.368 . S
C556 C555 1.523 . S
H557 C532 0.950 . S
H558 C534 0.950 . S
H559 C535 0.949 . S
H560 C537 0.950 . S
H561 C539 0.950 . S
C562 C563 1.349 . S
C562 C564 1.327 . S
C562 H587 0.950 . S
C563 C562 1.349 . S
C563 C579 1.349 . S
C564 C562 1.327 . S
C564 C583 1.429 . S
C564 H588 0.950 . S
C565 C582 1.574 . S
C565 C584 1.368 . S
C565 H589 0.949 . S
H566 C570 0.949 . S
C567 C568 1.349 . S
C567 C569 1.327 . S
C567 H590 0.950 . S
C568 C567 1.349 . S
C568 C580 1.349 . S
C569 C567 1.327 . S
C569 C585 1.429 . S
C569 H591 0.950 . S
C570 H566 0.949 . S
C570 C578 1.574 . S
C570 C586 1.368 . S
H571 C579 0.950 . S
H572 C577 0.950 . S
H573 C578 0.949 . S
H574 C580 0.950 . S
H575 C581 0.950 . S
H576 C582 0.949 . S
C577 H572 0.950 . S
C577 C579 1.327 . S
C577 C583 1.429 . S
C578 C570 1.574 . S
C578 H573 0.949 . S
C578 C584 1.368 . S
C579 C563 1.349 . S
C579 H571 0.950 . S
C579 C577 1.327 . S
C580 C568 1.349 . S
C580 H574 0.950 . S
C580 C581 1.327 . S
C581 H575 0.950 . S
C581 C580 1.327 . S
C581 C585 1.429 . S
C582 C565 1.574 . S
C582 H576 0.949 . S
C582 C586 1.368 . S
C583 C564 1.429 . S
C583 C577 1.429 . S
C583 C584 1.523 . S
C584 C565 1.368 . S
C584 C578 1.368 . S
C584 C583 1.523 . S
C585 C569 1.429 . S
C585 C581 1.429 . S
C585 C586 1.523 . S
C586 C570 1.368 . S
C586 C582 1.368 . S
C586 C585 1.523 . S
H587 C562 0.950 . S
H588 C564 0.950 . S
H589 C565 0.949 . S
H590 C567 0.950 . S
H591 C569 0.950 . S
C592 C593 1.349 . S
C592 C594 1.327 . S
C592 H617 0.950 . S
C593 C592 1.349 . S
C593 C609 1.349 . S
C594 C592 1.327 . S
C594 C613 1.429 . S
C594 H618 0.950 . S
C595 C612 1.574 . S
C595 C614 1.368 . S
C595 H619 0.949 . S
H596 C600 0.949 . S
C597 C598 1.349 . S
C597 C599 1.327 . S
C597 H620 0.950 . S
C598 C597 1.349 . S
C598 C610 1.349 . S
C599 C597 1.327 . S
C599 C615 1.429 . S
C599 H621 0.950 . S
C600 H596 0.949 . S
C600 C608 1.574 . S
C600 C616 1.368 . S
H601 C609 0.950 . S
H602 C607 0.950 . S
H603 C608 0.949 . S
H604 C610 0.950 . S
H605 C611 0.950 . S
H606 C612 0.949 . S
C607 H602 0.950 . S
C607 C609 1.327 . S
C607 C613 1.429 . S
C608 C600 1.574 . S
C608 H603 0.949 . S
C608 C614 1.368 . S
C609 C593 1.349 . S
C609 H601 0.950 . S
C609 C607 1.327 . S
C610 C598 1.349 . S
C610 H604 0.950 . S
C610 C611 1.327 . S
C611 H605 0.950 . S
C611 C610 1.327 . S
C611 C615 1.429 . S
C612 C595 1.574 . S
C612 H606 0.949 . S
C612 C616 1.368 . S
C613 C594 1.429 . S
C613 C607 1.429 . S
C613 C614 1.523 . S
C614 C595 1.368 . S
C614 C608 1.368 . S
C614 C613 1.523 . S
C615 C599 1.429 . S
C615 C611 1.429 . S
C615 C616 1.523 . S
C616 C600 1.368 . S
C616 C612 1.368 . S
C616 C615 1.523 . S
H617 C592 0.950 . S
H618 C594 0.950 . S
H619 C595 0.949 . S
H620 C597 0.950 . S
H621 C599 0.950 . S
C622 C623 1.349 . S
C622 C624 1.327 . S
C622 H647 0.950 . S
C623 C622 1.349 . S
C623 C639 1.349 . S
C624 C622 1.327 . S
C624 C643 1.429 . S
C624 H648 0.950 . S
C625 C642 1.574 . S
C625 C644 1.368 . S
C625 H649 0.949 . S
H626 C630 0.949 . S
C627 C628 1.349 . S
C627 C629 1.327 . S
C627 H650 0.950 . S
C628 C627 1.349 . S
C628 C640 1.349 . S
C629 C627 1.327 . S
C629 C645 1.429 . S
C629 H651 0.950 . S
C630 H626 0.949 . S
C630 C638 1.574 . S
C630 C646 1.368 . S
H631 C639 0.950 . S
H632 C637 0.950 . S
H633 C638 0.949 . S
H634 C640 0.950 . S
H635 C641 0.950 . S
H636 C642 0.949 . S
C637 H632 0.950 . S
C637 C639 1.327 . S
C637 C643 1.429 . S
C638 C630 1.574 . S
C638 H633 0.949 . S
C638 C644 1.368 . S
C639 C623 1.349 . S
C639 H631 0.950 . S
C639 C637 1.327 . S
C640 C628 1.349 . S
C640 H634 0.950 . S
C640 C641 1.327 . S
C641 H635 0.950 . S
C641 C640 1.327 . S
C641 C645 1.429 . S
C642 C625 1.574 . S
C642 H636 0.949 . S
C642 C646 1.368 . S
C643 C624 1.429 . S
C643 C637 1.429 . S
C643 C644 1.523 . S
C644 C625 1.368 . S
C644 C638 1.368 . S
C644 C643 1.523 . S
C645 C629 1.429 . S
C645 C641 1.429 . S
C645 C646 1.523 . S
C646 C630 1.368 . S
C646 C642 1.368 . S
C646 C645 1.523 . S
H647 C622 0.950 . S
H648 C624 0.950 . S
H649 C625 0.949 . S
H650 C627 0.950 . S
H651 C629 0.950 . S
C652 C653 1.349 . S
C652 C654 1.327 . S
C652 H677 0.950 . S
C653 C652 1.349 . S
C653 C669 1.349 . S
C654 C652 1.327 . S
C654 C673 1.429 . S
C654 H678 0.950 . S
C655 C672 1.574 . S
C655 C674 1.368 . S
C655 H679 0.949 . S
H656 C660 0.949 . S
C657 C658 1.349 . S
C657 C659 1.327 . S
C657 H680 0.950 . S
C658 C657 1.349 . S
C658 C670 1.349 . S
C659 C657 1.327 . S
C659 C675 1.429 . S
C659 H681 0.950 . S
C660 H656 0.949 . S
C660 C668 1.574 . S
C660 C676 1.368 . S
H661 C669 0.950 . S
H662 C667 0.950 . S
H663 C668 0.949 . S
H664 C670 0.950 . S
H665 C671 0.950 . S
H666 C672 0.949 . S
C667 H662 0.950 . S
C667 C669 1.327 . S
C667 C673 1.429 . S
C668 C660 1.574 . S
C668 H663 0.949 . S
C668 C674 1.368 . S
C669 C653 1.349 . S
C669 H661 0.950 . S
C669 C667 1.327 . S
C670 C658 1.349 . S
C670 H664 0.950 . S
C670 C671 1.327 . S
C671 H665 0.950 . S
C671 C670 1.327 . S
C671 C675 1.429 . S
C672 C655 1.574 . S
C672 H666 0.949 . S
C672 C676 1.368 . S
C673 C654 1.429 . S
C673 C667 1.429 . S
C673 C674 1.523 . S
C674 C655 1.368 . S
C674 C668 1.368 . S
C674 C673 1.523 . S
C675 C659 1.429 . S
C675 C671 1.429 . S
C675 C676 1.523 . S
C676 C660 1.368 . S
C676 C672 1.368 . S
C676 C675 1.523 . S
H677 C652 0.950 . S
H678 C654 0.950 . S
H679 C655 0.949 . S
H680 C657 0.950 . S
H681 C659 0.950 . S
C682 C683 1.349 . S
C682 C684 1.327 . S
C682 H707 0.950 . S
C683 C682 1.349 . S
C683 C699 1.349 . S
C684 C682 1.327 . S
C684 C703 1.429 . S
C684 H708 0.950 . S
C685 C702 1.574 . S
C685 C704 1.368 . S
C685 H709 0.949 . S
H686 C690 0.949 . S
C687 C688 1.349 . S
C687 C689 1.327 . S
C687 H710 0.950 . S
C688 C687 1.349 . S
C688 C700 1.349 . S
C689 C687 1.327 . S
C689 C705 1.429 . S
C689 H711 0.950 . S
C690 H686 0.949 . S
C690 C698 1.574 . S
C690 C706 1.368 . S
H691 C699 0.950 . S
H692 C697 0.950 . S
H693 C698 0.949 . S
H694 C700 0.950 . S
H695 C701 0.950 . S
H696 C702 0.949 . S
C697 H692 0.950 . S
C697 C699 1.327 . S
C697 C703 1.429 . S
C698 C690 1.574 . S
C698 H693 0.949 . S
C698 C704 1.368 . S
C699 C683 1.349 . S
C699 H691 0.950 . S
C699 C697 1.327 . S
C700 C688 1.349 . S
C700 H694 0.950 . S
C700 C701 1.327 . S
C701 H695 0.950 . S
C701 C700 1.327 . S
C701 C705 1.429 . S
C702 C685 1.574 . S
C702 H696 0.949 . S
C702 C706 1.368 . S
C703 C684 1.429 . S
C703 C697 1.429 . S
C703 C704 1.523 . S
C704 C685 1.368 . S
C704 C698 1.368 . S
C704 C703 1.523 . S
C705 C689 1.429 . S
C705 C701 1.429 . S
C705 C706 1.523 . S
C706 C690 1.368 . S
C706 C702 1.368 . S
C706 C705 1.523 . S
H707 C682 0.950 . S
H708 C684 0.950 . S
H709 C685 0.949 . S
H710 C687 0.950 . S
H711 C689 0.950 . S
C712 C713 1.349 . S
C712 C714 1.327 . S
C712 H737 0.950 . S
C713 C712 1.349 . S
C713 C729 1.349 . S
C714 C712 1.327 . S
C714 C733 1.429 . S
C714 H738 0.950 . S
C715 C732 1.574 . S
C715 C734 1.368 . S
C715 H739 0.949 . S
H716 C720 0.949 . S
C717 C718 1.349 . S
C717 C719 1.327 . S
C717 H740 0.950 . S
C718 C717 1.349 . S
C718 C730 1.349 . S
C719 C717 1.327 . S
C719 C735 1.429 . S
C719 H741 0.950 . S
C720 H716 0.949 . S
C720 C728 1.574 . S
C720 C736 1.368 . S
H721 C729 0.950 . S
H722 C727 0.950 . S
H723 C728 0.949 . S
H724 C730 0.950 . S
H725 C731 0.950 . S
H726 C732 0.949 . S
C727 H722 0.950 . S
C727 C729 1.327 . S
C727 C733 1.429 . S
C728 C720 1.574 . S
C728 H723 0.949 . S
C728 C734 1.368 . S
C729 C713 1.349 . S
C729 H721 0.950 . S
C729 C727 1.327 . S
C730 C718 1.349 . S
C730 H724 0.950 . S
C730 C731 1.327 . S
C731 H725 0.950 . S
C731 C730 1.327 . S
C731 C735 1.429 . S
C732 C715 1.574 . S
C732 H726 0.949 . S
C732 C736 1.368 . S
C733 C714 1.429 . S
C733 C727 1.429 . S
C733 C734 1.523 . S
C734 C715 1.368 . S
C734 C728 1.368 . S
C734 C733 1.523 . S
C735 C719 1.429 . S
C735 C731 1.429 . S
C735 C736 1.523 . S
C736 C720 1.368 . S
C736 C732 1.368 . S
C736 C735 1.523 . S
H737 C712 0.950 . S
H738 C714 0.950 . S
H739 C715 0.949 . S
H740 C717 0.950 . S
H741 C719 0.950 . S
C742 C743 1.349 . S
C742 C744 1.327 . S
C742 H767 0.950 . S
C743 C742 1.349 . S
C743 C759 1.349 . S
C744 C742 1.327 . S
C744 C763 1.429 . S
C744 H768 0.950 . S
C745 C762 1.574 . S
C745 C764 1.368 . S
C745 H769 0.949 . S
H746 C750 0.949 . S
C747 C748 1.349 . S
C747 C749 1.327 . S
C747 H770 0.950 . S
C748 C747 1.349 . S
C748 C760 1.349 . S
C749 C747 1.327 . S
C749 C765 1.429 . S
C749 H771 0.950 . S
C750 H746 0.949 . S
C750 C758 1.574 . S
C750 C766 1.368 . S
H751 C759 0.950 . S
H752 C757 0.950 . S
H753 C758 0.949 . S
H754 C760 0.950 . S
H755 C761 0.950 . S
H756 C762 0.949 . S
C757 H752 0.950 . S
C757 C759 1.327 . S
C757 C763 1.429 . S
C758 C750 1.574 . S
C758 H753 0.949 . S
C758 C764 1.368 . S
C759 C743 1.349 . S
C759 H751 0.950 . S
C759 C757 1.327 . S
C760 C748 1.349 . S
C760 H754 0.950 . S
C760 C761 1.327 . S
C761 H755 0.950 . S
C761 C760 1.327 . S
C761 C765 1.429 . S
C762 C745 1.574 . S
C762 H756 0.949 . S
C762 C766 1.368 . S
C763 C744 1.429 . S
C763 C757 1.429 . S
C763 C764 1.523 . S
C764 C745 1.368 . S
C764 C758 1.368 . S
C764 C763 1.523 . S
C765 C749 1.429 . S
C765 C761 1.429 . S
C765 C766 1.523 . S
C766 C750 1.368 . S
C766 C762 1.368 . S
C766 C765 1.523 . S
H767 C742 0.950 . S
H768 C744 0.950 . S
H769 C745 0.949 . S
H770 C747 0.950 . S
H771 C749 0.950 . S
C772 C773 1.349 . S
C772 C774 1.327 . S
C772 H797 0.950 . S
C773 C772 1.349 . S
C773 C789 1.349 . S
C774 C772 1.327 . S
C774 C793 1.429 . S
C774 H798 0.950 . S
C775 C792 1.574 . S
C775 C794 1.368 . S
C775 H799 0.949 . S
H776 C780 0.949 . S
C777 C778 1.349 . S
C777 C779 1.327 . S
C777 H800 0.950 . S
C778 C777 1.349 . S
C778 C790 1.349 . S
C779 C777 1.327 . S
C779 C795 1.429 . S
C779 H801 0.950 . S
C780 H776 0.949 . S
C780 C788 1.574 . S
C780 C796 1.368 . S
H781 C789 0.950 . S
H782 C787 0.950 . S
H783 C788 0.949 . S
H784 C790 0.950 . S
H785 C791 0.950 . S
H786 C792 0.949 . S
C787 H782 0.950 . S
C787 C789 1.327 . S
C787 C793 1.429 . S
C788 C780 1.574 . S
C788 H783 0.949 . S
C788 C794 1.368 . S
C789 C773 1.349 . S
C789 H781 0.950 . S
C789 C787 1.327 . S
C790 C778 1.349 . S
C790 H784 0.950 . S
C790 C791 1.327 . S
C791 H785 0.950 . S
C791 C790 1.327 . S
C791 C795 1.429 . S
C792 C775 1.574 . S
C792 H786 0.949 . S
C792 C796 1.368 . S
C793 C774 1.429 . S
C793 C787 1.429 . S
C793 C794 1.523 . S
C794 C775 1.368 . S
C794 C788 1.368 . S
C794 C793 1.523 . S
C795 C779 1.429 . S
C795 C791 1.429 . S
C795 C796 1.523 . S
C796 C780 1.368 . S
C796 C792 1.368 . S
C796 C795 1.523 . S
H797 C772 0.950 . S
H798 C774 0.950 . S
H799 C775 0.949 . S
H800 C777 0.950 . S
H801 C779 0.950 . S
C802 C803 1.349 . S
C802 C804 1.327 . S
C802 H827 0.950 . S
C803 C802 1.349 . S
C803 C819 1.349 . S
C804 C802 1.327 . S
C804 C823 1.429 . S
C804 H828 0.950 . S
C805 C822 1.574 . S
C805 C824 1.368 . S
C805 H829 0.949 . S
H806 C810 0.949 . S
C807 C808 1.349 . S
C807 C809 1.327 . S
C807 H830 0.950 . S
C808 C807 1.349 . S
C808 C820 1.349 . S
C809 C807 1.327 . S
C809 C825 1.429 . S
C809 H831 0.950 . S
C810 H806 0.949 . S
C810 C818 1.574 . S
C810 C826 1.368 . S
H811 C819 0.950 . S
H812 C817 0.950 . S
H813 C818 0.949 . S
H814 C820 0.950 . S
H815 C821 0.950 . S
H816 C822 0.949 . S
C817 H812 0.950 . S
C817 C819 1.327 . S
C817 C823 1.429 . S
C818 C810 1.574 . S
C818 H813 0.949 . S
C818 C824 1.368 . S
C819 C803 1.349 . S
C819 H811 0.950 . S
C819 C817 1.327 . S
C820 C808 1.349 . S
C820 H814 0.950 . S
C820 C821 1.327 . S
C821 H815 0.950 . S
C821 C820 1.327 . S
C821 C825 1.429 . S
C822 C805 1.574 . S
C822 H816 0.949 . S
C822 C826 1.368 . S
C823 C804 1.429 . S
C823 C817 1.429 . S
C823 C824 1.523 . S
C824 C805 1.368 . S
C824 C818 1.368 . S
C824 C823 1.523 . S
C825 C809 1.429 . S
C825 C821 1.429 . S
C825 C826 1.523 . S
C826 C810 1.368 . S
C826 C822 1.368 . S
C826 C825 1.523 . S
H827 C802 0.950 . S
H828 C804 0.950 . S
H829 C805 0.949 . S
H830 C807 0.950 . S
H831 C809 0.950 . S
C832 C833 1.349 . S
C832 C834 1.327 . S
C832 H857 0.950 . S
C833 C832 1.349 . S
C833 C849 1.349 . S
C834 C832 1.327 . S
C834 C853 1.429 . S
C834 H858 0.950 . S
C835 C852 1.574 . S
C835 C854 1.368 . S
C835 H859 0.949 . S
H836 C840 0.949 . S
C837 C838 1.349 . S
C837 C839 1.327 . S
C837 H860 0.950 . S
C838 C837 1.349 . S
C838 C850 1.349 . S
C839 C837 1.327 . S
C839 C855 1.429 . S
C839 H861 0.950 . S
C840 H836 0.949 . S
C840 C848 1.574 . S
C840 C856 1.368 . S
H841 C849 0.950 . S
H842 C847 0.950 . S
H843 C848 0.949 . S
H844 C850 0.950 . S
H845 C851 0.950 . S
H846 C852 0.949 . S
C847 H842 0.950 . S
C847 C849 1.327 . S
C847 C853 1.429 . S
C848 C840 1.574 . S
C848 H843 0.949 . S
C848 C854 1.368 . S
C849 C833 1.349 . S
C849 H841 0.950 . S
C849 C847 1.327 . S
C850 C838 1.349 . S
C850 H844 0.950 . S
C850 C851 1.327 . S
C851 H845 0.950 . S
C851 C850 1.327 . S
C851 C855 1.429 . S
C852 C835 1.574 . S
C852 H846 0.949 . S
C852 C856 1.368 . S
C853 C834 1.429 . S
C853 C847 1.429 . S
C853 C854 1.523 . S
C854 C835 1.368 . S
C854 C848 1.368 . S
C854 C853 1.523 . S
C855 C839 1.429 . S
C855 C851 1.429 . S
C855 C856 1.523 . S
C856 C840 1.368 . S
C856 C852 1.368 . S
C856 C855 1.523 . S
H857 C832 0.950 . S
H858 C834 0.950 . S
H859 C835 0.949 . S
H860 C837 0.950 . S
H861 C839 0.950 . S
C862 C863 1.349 . S
C862 C864 1.327 . S
C862 H887 0.950 . S
C863 C862 1.349 . S
C863 C879 1.349 . S
C864 C862 1.327 . S
C864 C883 1.429 . S
C864 H888 0.950 . S
C865 C882 1.574 . S
C865 C884 1.368 . S
C865 H889 0.949 . S
H866 C870 0.949 . S
C867 C868 1.349 . S
C867 C869 1.327 . S
C867 H890 0.950 . S
C868 C867 1.349 . S
C868 C880 1.349 . S
C869 C867 1.327 . S
C869 C885 1.429 . S
C869 H891 0.950 . S
C870 H866 0.949 . S
C870 C878 1.574 . S
C870 C886 1.368 . S
H871 C879 0.950 . S
H872 C877 0.950 . S
H873 C878 0.949 . S
H874 C880 0.950 . S
H875 C881 0.950 . S
H876 C882 0.949 . S
C877 H872 0.950 . S
C877 C879 1.327 . S
C877 C883 1.429 . S
C878 C870 1.574 . S
C878 H873 0.949 . S
C878 C884 1.368 . S
C879 C863 1.349 . S
C879 H871 0.950 . S
C879 C877 1.327 . S
C880 C868 1.349 . S
C880 H874 0.950 . S
C880 C881 1.327 . S
C881 H875 0.950 . S
C881 C880 1.327 . S
C881 C885 1.429 . S
C882 C865 1.574 . S
C882 H876 0.949 . S
C882 C886 1.368 . S
C883 C864 1.429 . S
C883 C877 1.429 . S
C883 C884 1.523 . S
C884 C865 1.368 . S
C884 C878 1.368 . S
C884 C883 1.523 . S
C885 C869 1.429 . S
C885 C881 1.429 . S
C885 C886 1.523 . S
C886 C870 1.368 . S
C886 C882 1.368 . S
C886 C885 1.523 . S
H887 C862 0.950 . S
H888 C864 0.950 . S
H889 C865 0.949 . S
H890 C867 0.950 . S
H891 C869 0.950 . S
C892 C893 1.349 . S
C892 C894 1.327 . S
C892 H917 0.950 . S
C893 C892 1.349 . S
C893 C909 1.349 . S
C894 C892 1.327 . S
C894 C913 1.429 . S
C894 H918 0.950 . S
C895 C912 1.574 . S
C895 C914 1.368 . S
C895 H919 0.949 . S
H896 C900 0.949 . S
C897 C898 1.349 . S
C897 C899 1.327 . S
C897 H920 0.950 . S
C898 C897 1.349 . S
C898 C910 1.349 . S
C899 C897 1.327 . S
C899 C915 1.429 . S
C899 H921 0.950 . S
C900 H896 0.949 . S
C900 C908 1.574 . S
C900 C916 1.368 . S
H901 C909 0.950 . S
H902 C907 0.950 . S
H903 C908 0.949 . S
H904 C910 0.950 . S
H905 C911 0.950 . S
H906 C912 0.949 . S
C907 H902 0.950 . S
C907 C909 1.327 . S
C907 C913 1.429 . S
C908 C900 1.574 . S
C908 H903 0.949 . S
C908 C914 1.368 . S
C909 C893 1.349 . S
C909 H901 0.950 . S
C909 C907 1.327 . S
C910 C898 1.349 . S
C910 H904 0.950 . S
C910 C911 1.327 . S
C911 H905 0.950 . S
C911 C910 1.327 . S
C911 C915 1.429 . S
C912 C895 1.574 . S
C912 H906 0.949 . S
C912 C916 1.368 . S
C913 C894 1.429 . S
C913 C907 1.429 . S
C913 C914 1.523 . S
C914 C895 1.368 . S
C914 C908 1.368 . S
C914 C913 1.523 . S
C915 C899 1.429 . S
C915 C911 1.429 . S
C915 C916 1.523 . S
C916 C900 1.368 . S
C916 C912 1.368 . S
C916 C915 1.523 . S
H917 C892 0.950 . S
H918 C894 0.950 . S
H919 C895 0.949 . S
H920 C897 0.950 . S
H921 C899 0.950 . S
C922 C923 1.349 . S
C922 C924 1.327 . S
C922 H947 0.950 . S
C923 C922 1.349 . S
C923 C939 1.349 . S
C924 C922 1.327 . S
C924 C943 1.429 . S
C924 H948 0.950 . S
C925 C942 1.574 . S
C925 C944 1.368 . S
C925 H949 0.949 . S
H926 C930 0.949 . S
C927 C928 1.349 . S
C927 C929 1.327 . S
C927 H950 0.950 . S
C928 C927 1.349 . S
C928 C940 1.349 . S
C929 C927 1.327 . S
C929 C945 1.429 . S
C929 H951 0.950 . S
C930 H926 0.949 . S
C930 C938 1.574 . S
C930 C946 1.368 . S
H931 C939 0.950 . S
H932 C937 0.950 . S
H933 C938 0.949 . S
H934 C940 0.950 . S
H935 C941 0.950 . S
H936 C942 0.949 . S
C937 H932 0.950 . S
C937 C939 1.327 . S
C937 C943 1.429 . S
C938 C930 1.574 . S
C938 H933 0.949 . S
C938 C944 1.368 . S
C939 C923 1.349 . S
C939 H931 0.950 . S
C939 C937 1.327 . S
C940 C928 1.349 . S
C940 H934 0.950 . S
C940 C941 1.327 . S
C941 H935 0.950 . S
C941 C940 1.327 . S
C941 C945 1.429 . S
C942 C925 1.574 . S
C942 H936 0.949 . S
C942 C946 1.368 . S
C943 C924 1.429 . S
C943 C937 1.429 . S
C943 C944 1.523 . S
C944 C925 1.368 . S
C944 C938 1.368 . S
C944 C943 1.523 . S
C945 C929 1.429 . S
C945 C941 1.429 . S
C945 C946 1.523 . S
C946 C930 1.368 . S
C946 C942 1.368 . S
C946 C945 1.523 . S
H947 C922 0.950 . S
H948 C924 0.950 . S
H949 C925 0.949 . S
H950 C927 0.950 . S
H951 C929 0.950 . S
C952 C953 1.349 . S
C952 C954 1.327 . S
C952 H977 0.950 . S
C953 C952 1.349 . S
C953 C969 1.349 . S
C954 C952 1.327 . S
C954 C973 1.429 . S
C954 H978 0.950 . S
C955 C972 1.574 . S
C955 C974 1.368 . S
C955 H979 0.949 . S
H956 C960 0.949 . S
C957 C958 1.349 . S
C957 C959 1.327 . S
C957 H980 0.950 . S
C958 C957 1.349 . S
C958 C970 1.349 . S
C959 C957 1.327 . S
C959 C975 1.429 . S
C959 H981 0.950 . S
C960 H956 0.949 . S
C960 C968 1.574 . S
C960 C976 1.368 . S
H961 C969 0.950 . S
H962 C967 0.950 . S
H963 C968 0.949 . S
H964 C970 0.950 . S
H965 C971 0.950 . S
H966 C972 0.949 . S
C967 H962 0.950 . S
C967 C969 1.327 . S
C967 C973 1.429 . S
C968 C960 1.574 . S
C968 H963 0.949 . S
C968 C974 1.368 . S
C969 C953 1.349 . S
C969 H961 0.950 . S
C969 C967 1.327 . S
C970 C958 1.349 . S
C970 H964 0.950 . S
C970 C971 1.327 . S
C971 H965 0.950 . S
C971 C970 1.327 . S
C971 C975 1.429 . S
C972 C955 1.574 . S
C972 H966 0.949 . S
C972 C976 1.368 . S
C973 C954 1.429 . S
C973 C967 1.429 . S
C973 C974 1.523 . S
C974 C955 1.368 . S
C974 C968 1.368 . S
C974 C973 1.523 . S
C975 C959 1.429 . S
C975 C971 1.429 . S
C975 C976 1.523 . S
C976 C960 1.368 . S
C976 C972 1.368 . S
C976 C975 1.523 . S
H977 C952 0.950 . S
H978 C954 0.950 . S
H979 C955 0.949 . S
H980 C957 0.950 . S
H981 C959 0.950 . S
C982 C983 1.349 . S
C982 C984 1.327 . S
C982 H1007 0.950 . S
C983 C982 1.349 . S
C983 C999 1.349 . S
C984 C982 1.327 . S
C984 C1003 1.429 . S
C984 H1008 0.950 . S
C985 C1002 1.574 . S
C985 C1004 1.368 . S
C985 H1009 0.949 . S
H986 C990 0.949 . S
C987 C988 1.349 . S
C987 C989 1.327 . S
C987 H1010 0.950 . S
C988 C987 1.349 . S
C988 C1000 1.349 . S
C989 C987 1.327 . S
C989 C1005 1.429 . S
C989 H1011 0.950 . S
C990 H986 0.949 . S
C990 C998 1.574 . S
C990 C1006 1.368 . S
H991 C999 0.950 . S
H992 C997 0.950 . S
H993 C998 0.949 . S
H994 C1000 0.950 . S
H995 C1001 0.950 . S
H996 C1002 0.949 . S
C997 H992 0.950 . S
C997 C999 1.327 . S
C997 C1003 1.429 . S
C998 C990 1.574 . S
C998 H993 0.949 . S
C998 C1004 1.368 . S
C999 C983 1.349 . S
C999 H991 0.950 . S
C999 C997 1.327 . S
C1000 C988 1.349 . S
C1000 H994 0.950 . S
C1000 C1001 1.327 . S
C1001 H995 0.950 . S
C1001 C1000 1.327 . S
C1001 C1005 1.429 . S
C1002 C985 1.574 . S
C1002 H996 0.949 . S
C1002 C1006 1.368 . S
C1003 C984 1.429 . S
C1003 C997 1.429 . S
C1003 C1004 1.523 . S
C1004 C985 1.368 . S
C1004 C998 1.368 . S
C1004 C1003 1.523 . S
C1005 C989 1.429 . S
C1005 C1001 1.429 . S
C1005 C1006 1.523 . S
C1006 C990 1.368 . S
C1006 C1002 1.368 . S
C1006 C1005 1.523 . S
H1007 C982 0.950 . S
H1008 C984 0.950 . S
H1009 C985 0.949 . S
H1010 C987 0.950 . S
H1011 C989 0.950 . S
C1012 C1013 1.349 . S
C1012 C1014 1.327 . S
C1012 H1037 0.950 . S
C1013 C1012 1.349 . S
C1013 C1029 1.349 . S
C1014 C1012 1.327 . S
C1014 C1033 1.429 . S
C1014 H1038 0.950 . S
C1015 C1032 1.574 . S
C1015 C1034 1.368 . S
C1015 H1039 0.949 . S
H1016 C1020 0.949 . S
C1017 C1018 1.349 . S
C1017 C1019 1.327 . S
C1017 H1040 0.950 . S
C1018 C1017 1.349 . S
C1018 C1030 1.349 . S
C1019 C1017 1.327 . S
C1019 C1035 1.429 . S
C1019 H1041 0.950 . S
C1020 H1016 0.949 . S
C1020 C1028 1.574 . S
C1020 C1036 1.368 . S
H1021 C1029 0.950 . S
H1022 C1027 0.950 . S
H1023 C1028 0.949 . S
H1024 C1030 0.950 . S
H1025 C1031 0.950 . S
H1026 C1032 0.949 . S
C1027 H1022 0.950 . S
C1027 C1029 1.327 . S
C1027 C1033 1.429 . S
C1028 C1020 1.574 . S
C1028 H1023 0.949 . S
C1028 C1034 1.368 . S
C1029 C1013 1.349 . S
C1029 H1021 0.950 . S
C1029 C1027 1.327 . S
C1030 C1018 1.349 . S
C1030 H1024 0.950 . S
C1030 C1031 1.327 . S
C1031 H1025 0.950 . S
C1031 C1030 1.327 . S
C1031 C1035 1.429 . S
C1032 C1015 1.574 . S
C1032 H1026 0.949 . S
C1032 C1036 1.368 . S
C1033 C1014 1.429 . S
C1033 C1027 1.429 . S
C1033 C1034 1.523 . S
C1034 C1015 1.368 . S
C1034 C1028 1.368 . S
C1034 C1033 1.523 . S
C1035 C1019 1.429 . S
C1035 C1031 1.429 . S
C1035 C1036 1.523 . S
C1036 C1020 1.368 . S
C1036 C1032 1.368 . S
C1036 C1035 1.523 . S
H1037 C1012 0.950 . S
H1038 C1014 0.950 . S
H1039 C1015 0.949 . S
H1040 C1017 0.950 . S
H1041 C1019 0.950 . S
C1042 C1043 1.349 . S
C1042 C1044 1.327 . S
C1042 H1067 0.950 . S
C1043 C1042 1.349 . S
C1043 C1059 1.349 . S
C1044 C1042 1.327 . S
C1044 C1063 1.429 . S
C1044 H1068 0.950 . S
C1045 C1062 1.574 . S
C1045 C1064 1.368 . S
C1045 H1069 0.949 . S
H1046 C1050 0.949 . S
C1047 C1048 1.349 . S
C1047 C1049 1.327 . S
C1047 H1070 0.950 . S
C1048 C1047 1.349 . S
C1048 C1060 1.349 . S
C1049 C1047 1.327 . S
C1049 C1065 1.429 . S
C1049 H1071 0.950 . S
C1050 H1046 0.949 . S
C1050 C1058 1.574 . S
C1050 C1066 1.368 . S
H1051 C1059 0.950 . S
H1052 C1057 0.950 . S
H1053 C1058 0.949 . S
H1054 C1060 0.950 . S
H1055 C1061 0.950 . S
H1056 C1062 0.949 . S
C1057 H1052 0.950 . S
C1057 C1059 1.327 . S
C1057 C1063 1.429 . S
C1058 C1050 1.574 . S
C1058 H1053 0.949 . S
C1058 C1064 1.368 . S
C1059 C1043 1.349 . S
C1059 H1051 0.950 . S
C1059 C1057 1.327 . S
C1060 C1048 1.349 . S
C1060 H1054 0.950 . S
C1060 C1061 1.327 . S
C1061 H1055 0.950 . S
C1061 C1060 1.327 . S
C1061 C1065 1.429 . S
C1062 C1045 1.574 . S
C1062 H1056 0.949 . S
C1062 C1066 1.368 . S
C1063 C1044 1.429 . S
C1063 C1057 1.429 . S
C1063 C1064 1.523 . S
C1064 C1045 1.368 . S
C1064 C1058 1.368 . S
C1064 C1063 1.523 . S
C1065 C1049 1.429 . S
C1065 C1061 1.429 . S
C1065 C1066 1.523 . S
C1066 C1050 1.368 . S
C1066 C1062 1.368 . S
C1066 C1065 1.523 . S
H1067 C1042 0.950 . S
H1068 C1044 0.950 . S
H1069 C1045 0.949 . S
H1070 C1047 0.950 . S
H1071 C1049 0.950 . S
C1072 C1073 1.349 . S
C1072 C1074 1.327 . S
C1072 H1097 0.950 . S
C1073 C1072 1.349 . S
C1073 C1089 1.349 . S
C1074 C1072 1.327 . S
C1074 C1093 1.429 . S
C1074 H1098 0.950 . S
C1075 C1092 1.574 1_455 S
C1075 C1094 1.368 . S
C1075 H1099 0.949 . S
H1076 C1080 0.949 . S
C1077 C1078 1.349 . S
C1077 C1079 1.327 . S
C1077 H1100 0.950 . S
C1078 C1077 1.349 . S
C1078 C1090 1.349 . S
C1079 C1077 1.327 . S
C1079 C1095 1.429 . S
C1079 H1101 0.950 . S
C1080 H1076 0.949 . S
C1080 C1088 1.574 1_655 S
C1080 C1096 1.368 . S
H1081 C1089 0.950 . S
H1082 C1087 0.950 . S
H1083 C1088 0.949 . S
H1084 C1090 0.950 . S
H1085 C1091 0.950 . S
H1086 C1092 0.949 . S
C1087 H1082 0.950 . S
C1087 C1089 1.327 . S
C1087 C1093 1.429 . S
C1088 C1080 1.574 1_455 S
C1088 H1083 0.949 . S
C1088 C1094 1.368 . S
C1089 C1073 1.349 . S
C1089 H1081 0.950 . S
C1089 C1087 1.327 . S
C1090 C1078 1.349 . S
C1090 H1084 0.950 . S
C1090 C1091 1.327 . S
C1091 H1085 0.950 . S
C1091 C1090 1.327 . S
C1091 C1095 1.429 . S
C1092 C1075 1.574 1_655 S
C1092 H1086 0.949 . S
C1092 C1096 1.368 . S
C1093 C1074 1.429 . S
C1093 C1087 1.429 . S
C1093 C1094 1.523 . S
C1094 C1075 1.368 . S
C1094 C1088 1.368 . S
C1094 C1093 1.523 . S
C1095 C1079 1.429 . S
C1095 C1091 1.429 . S
C1095 C1096 1.523 . S
C1096 C1080 1.368 . S
C1096 C1092 1.368 . S
C1096 C1095 1.523 . S
H1097 C1072 0.950 . S
H1098 C1074 0.950 . S
H1099 C1075 0.949 . S
H1100 C1077 0.950 . S
H1101 C1079 0.950 . S
C1102 C1103 1.349 . S
C1102 C1104 1.327 . S
C1102 H1127 0.950 . S
C1103 C1102 1.349 . S
C1103 C1119 1.349 . S
C1104 C1102 1.327 . S
C1104 C1123 1.429 . S
C1104 H1128 0.950 . S
C1105 C1122 1.574 . S
C1105 C1124 1.368 . S
C1105 H1129 0.949 . S
H1106 C1110 0.949 . S
C1107 C1108 1.349 . S
C1107 C1109 1.327 . S
C1107 H1130 0.950 . S
C1108 C1107 1.349 . S
C1108 C1120 1.349 . S
C1109 C1107 1.327 . S
C1109 C1125 1.429 . S
C1109 H1131 0.950 . S
C1110 H1106 0.949 . S
C1110 C1118 1.574 . S
C1110 C1126 1.368 . S
H1111 C1119 0.950 . S
H1112 C1117 0.950 . S
H1113 C1118 0.949 . S
H1114 C1120 0.950 . S
H1115 C1121 0.950 . S
H1116 C1122 0.949 . S
C1117 H1112 0.950 . S
C1117 C1119 1.327 . S
C1117 C1123 1.429 . S
C1118 C1110 1.574 . S
C1118 H1113 0.949 . S
C1118 C1124 1.368 . S
C1119 C1103 1.349 . S
C1119 H1111 0.950 . S
C1119 C1117 1.327 . S
C1120 C1108 1.349 . S
C1120 H1114 0.950 . S
C1120 C1121 1.327 . S
C1121 H1115 0.950 . S
C1121 C1120 1.327 . S
C1121 C1125 1.429 . S
C1122 C1105 1.574 . S
C1122 H1116 0.949 . S
C1122 C1126 1.368 . S
C1123 C1104 1.429 . S
C1123 C1117 1.429 . S
C1123 C1124 1.523 . S
C1124 C1105 1.368 . S
C1124 C1118 1.368 . S
C1124 C1123 1.523 . S
C1125 C1109 1.429 . S
C1125 C1121 1.429 . S
C1125 C1126 1.523 . S
C1126 C1110 1.368 . S
C1126 C1122 1.368 . S
C1126 C1125 1.523 . S
H1127 C1102 0.950 . S
H1128 C1104 0.950 . S
H1129 C1105 0.949 . S
H1130 C1107 0.950 . S
H1131 C1109 0.950 . S
C1132 C1133 1.349 . S
C1132 C1134 1.327 . S
C1132 H1157 0.950 . S
C1133 C1132 1.349 . S
C1133 C1149 1.349 . S
C1134 C1132 1.327 . S
C1134 C1153 1.429 . S
C1134 H1158 0.950 . S
C1135 C1152 1.574 1_655 S
C1135 C1154 1.368 . S
C1135 H1159 0.949 . S
H1136 C1140 0.949 . S
C1137 C1138 1.349 . S
C1137 C1139 1.327 . S
C1137 H1160 0.950 . S
C1138 C1137 1.349 . S
C1138 C1150 1.349 . S
C1139 C1137 1.327 . S
C1139 C1155 1.429 . S
C1139 H1161 0.950 . S
C1140 H1136 0.949 . S
C1140 C1148 1.574 1_455 S
C1140 C1156 1.368 . S
H1141 C1149 0.950 . S
H1142 C1147 0.950 . S
H1143 C1148 0.949 . S
H1144 C1150 0.950 . S
H1145 C1151 0.950 . S
H1146 C1152 0.949 . S
C1147 H1142 0.950 . S
C1147 C1149 1.327 . S
C1147 C1153 1.429 . S
C1148 C1140 1.574 1_655 S
C1148 H1143 0.949 . S
C1148 C1154 1.368 . S
C1149 C1133 1.349 . S
C1149 H1141 0.950 . S
C1149 C1147 1.327 . S
C1150 C1138 1.349 . S
C1150 H1144 0.950 . S
C1150 C1151 1.327 . S
C1151 H1145 0.950 . S
C1151 C1150 1.327 . S
C1151 C1155 1.429 . S
C1152 C1135 1.574 1_455 S
C1152 H1146 0.949 . S
C1152 C1156 1.368 . S
C1153 C1134 1.429 . S
C1153 C1147 1.429 . S
C1153 C1154 1.523 . S
C1154 C1135 1.368 . S
C1154 C1148 1.368 . S
C1154 C1153 1.523 . S
C1155 C1139 1.429 . S
C1155 C1151 1.429 . S
C1155 C1156 1.523 . S
C1156 C1140 1.368 . S
C1156 C1152 1.368 . S
C1156 C1155 1.523 . S
H1157 C1132 0.950 . S
H1158 C1134 0.950 . S
H1159 C1135 0.949 . S
H1160 C1137 0.950 . S
H1161 C1139 0.950 . S
C1162 C1163 1.349 . S
C1162 C1164 1.327 . S
C1162 H1187 0.950 . S
C1163 C1162 1.349 . S
C1163 C1179 1.349 . S
C1164 C1162 1.327 . S
C1164 C1183 1.429 . S
C1164 H1188 0.950 . S
C1165 C1182 1.574 . S
C1165 C1184 1.368 . S
C1165 H1189 0.949 . S
H1166 C1170 0.949 . S
C1167 C1168 1.349 . S
C1167 C1169 1.327 . S
C1167 H1190 0.950 . S
C1168 C1167 1.349 . S
C1168 C1180 1.349 . S
C1169 C1167 1.327 . S
C1169 C1185 1.429 . S
C1169 H1191 0.950 . S
C1170 H1166 0.949 . S
C1170 C1178 1.574 . S
C1170 C1186 1.368 . S
H1171 C1179 0.950 . S
H1172 C1177 0.950 . S
H1173 C1178 0.949 . S
H1174 C1180 0.950 . S
H1175 C1181 0.950 . S
H1176 C1182 0.949 . S
C1177 H1172 0.950 . S
C1177 C1179 1.327 . S
C1177 C1183 1.429 . S
C1178 C1170 1.574 . S
C1178 H1173 0.949 . S
C1178 C1184 1.368 . S
C1179 C1163 1.349 . S
C1179 H1171 0.950 . S
C1179 C1177 1.327 . S
C1180 C1168 1.349 . S
C1180 H1174 0.950 . S
C1180 C1181 1.327 . S
C1181 H1175 0.950 . S
C1181 C1180 1.327 . S
C1181 C1185 1.429 . S
C1182 C1165 1.574 . S
C1182 H1176 0.949 . S
C1182 C1186 1.368 . S
C1183 C1164 1.429 . S
C1183 C1177 1.429 . S
C1183 C1184 1.523 . S
C1184 C1165 1.368 . S
C1184 C1178 1.368 . S
C1184 C1183 1.523 . S
C1185 C1169 1.429 . S
C1185 C1181 1.429 . S
C1185 C1186 1.523 . S
C1186 C1170 1.368 . S
C1186 C1182 1.368 . S
C1186 C1185 1.523 . S
H1187 C1162 0.950 . S
H1188 C1164 0.950 . S
H1189 C1165 0.949 . S
H1190 C1167 0.950 . S
H1191 C1169 0.950 . S
C1192 C1193 1.349 . S
C1192 C1194 1.327 . S
C1192 H1217 0.950 . S
C1193 C1192 1.349 . S
C1193 C1209 1.349 . S
C1194 C1192 1.327 . S
C1194 C1213 1.429 . S
C1194 H1218 0.950 . S
C1195 C1212 1.574 . S
C1195 C1214 1.368 . S
C1195 H1219 0.949 . S
H1196 C1200 0.949 . S
C1197 C1198 1.349 . S
C1197 C1199 1.327 . S
C1197 H1220 0.950 . S
C1198 C1197 1.349 . S
C1198 C1210 1.349 . S
C1199 C1197 1.327 . S
C1199 C1215 1.429 . S
C1199 H1221 0.950 . S
C1200 H1196 0.949 . S
C1200 C1208 1.574 . S
C1200 C1216 1.368 . S
H1201 C1209 0.950 . S
H1202 C1207 0.950 . S
H1203 C1208 0.949 . S
H1204 C1210 0.950 . S
H1205 C1211 0.950 . S
H1206 C1212 0.949 . S
C1207 H1202 0.950 . S
C1207 C1209 1.327 . S
C1207 C1213 1.429 . S
C1208 C1200 1.574 . S
C1208 H1203 0.949 . S
C1208 C1214 1.368 . S
C1209 C1193 1.349 . S
C1209 H1201 0.950 . S
C1209 C1207 1.327 . S
C1210 C1198 1.349 . S
C1210 H1204 0.950 . S
C1210 C1211 1.327 . S
C1211 H1205 0.950 . S
C1211 C1210 1.327 . S
C1211 C1215 1.429 . S
C1212 C1195 1.574 . S
C1212 H1206 0.949 . S
C1212 C1216 1.368 . S
C1213 C1194 1.429 . S
C1213 C1207 1.429 . S
C1213 C1214 1.523 . S
C1214 C1195 1.368 . S
C1214 C1208 1.368 . S
C1214 C1213 1.523 . S
C1215 C1199 1.429 . S
C1215 C1211 1.429 . S
C1215 C1216 1.523 . S
C1216 C1200 1.368 . S
C1216 C1212 1.368 . S
C1216 C1215 1.523 . S
H1217 C1192 0.950 . S
H1218 C1194 0.950 . S
H1219 C1195 0.949 . S
H1220 C1197 0.950 . S
H1221 C1199 0.950 . S
C1222 C1223 1.349 . S
C1222 C1224 1.327 . S
C1222 H1247 0.950 . S
C1223 C1222 1.349 . S
C1223 C1239 1.349 . S
C1224 C1222 1.327 . S
C1224 C1243 1.429 . S
C1224 H1248 0.950 . S
C1225 C1242 1.574 1_655 S
C1225 C1244 1.368 . S
C1225 H1249 0.949 . S
H1226 C1230 0.949 . S
C1227 C1228 1.349 . S
C1227 C1229 1.327 . S
C1227 H1250 0.950 . S
C1228 C1227 1.349 . S
C1228 C1240 1.349 . S
C1229 C1227 1.327 . S
C1229 C1245 1.429 . S
C1229 H1251 0.950 . S
C1230 H1226 0.949 . S
C1230 C1238 1.574 1_455 S
C1230 C1246 1.368 . S
H1231 C1239 0.950 . S
H1232 C1237 0.950 . S
H1233 C1238 0.949 . S
H1234 C1240 0.950 . S
H1235 C1241 0.950 . S
H1236 C1242 0.949 . S
C1237 H1232 0.950 . S
C1237 C1239 1.327 . S
C1237 C1243 1.429 . S
C1238 C1230 1.574 1_655 S
C1238 H1233 0.949 . S
C1238 C1244 1.368 . S
C1239 C1223 1.349 . S
C1239 H1231 0.950 . S
C1239 C1237 1.327 . S
C1240 C1228 1.349 . S
C1240 H1234 0.950 . S
C1240 C1241 1.327 . S
C1241 H1235 0.950 . S
C1241 C1240 1.327 . S
C1241 C1245 1.429 . S
C1242 C1225 1.574 1_455 S
C1242 H1236 0.949 . S
C1242 C1246 1.368 . S
C1243 C1224 1.429 . S
C1243 C1237 1.429 . S
C1243 C1244 1.523 . S
C1244 C1225 1.368 . S
C1244 C1238 1.368 . S
C1244 C1243 1.523 . S
C1245 C1229 1.429 . S
C1245 C1241 1.429 . S
C1245 C1246 1.523 . S
C1246 C1230 1.368 . S
C1246 C1242 1.368 . S
C1246 C1245 1.523 . S
H1247 C1222 0.950 . S
H1248 C1224 0.950 . S
H1249 C1225 0.949 . S
H1250 C1227 0.950 . S
H1251 C1229 0.950 . S
C1252 C1253 1.349 . S
C1252 C1254 1.327 . S
C1252 H1277 0.950 . S
C1253 C1252 1.349 . S
C1253 C1269 1.349 . S
C1254 C1252 1.327 . S
C1254 C1273 1.429 . S
C1254 H1278 0.950 . S
C1255 C1272 1.574 . S
C1255 C1274 1.368 . S
C1255 H1279 0.949 . S
H1256 C1260 0.949 . S
C1257 C1258 1.349 . S
C1257 C1259 1.327 . S
C1257 H1280 0.950 . S
C1258 C1257 1.349 . S
C1258 C1270 1.349 . S
C1259 C1257 1.327 . S
C1259 C1275 1.429 . S
C1259 H1281 0.950 . S
C1260 H1256 0.949 . S
C1260 C1268 1.574 . S
C1260 C1276 1.368 . S
H1261 C1269 0.950 . S
H1262 C1267 0.950 . S
H1263 C1268 0.949 . S
H1264 C1270 0.950 . S
H1265 C1271 0.950 . S
H1266 C1272 0.949 . S
C1267 H1262 0.950 . S
C1267 C1269 1.327 . S
C1267 C1273 1.429 . S
C1268 C1260 1.574 . S
C1268 H1263 0.949 . S
C1268 C1274 1.368 . S
C1269 C1253 1.349 . S
C1269 H1261 0.950 . S
C1269 C1267 1.327 . S
C1270 C1258 1.349 . S
C1270 H1264 0.950 . S
C1270 C1271 1.327 . S
C1271 H1265 0.950 . S
C1271 C1270 1.327 . S
C1271 C1275 1.429 . S
C1272 C1255 1.574 . S
C1272 H1266 0.949 . S
C1272 C1276 1.368 . S
C1273 C1254 1.429 . S
C1273 C1267 1.429 . S
C1273 C1274 1.523 . S
C1274 C1255 1.368 . S
C1274 C1268 1.368 . S
C1274 C1273 1.523 . S
C1275 C1259 1.429 . S
C1275 C1271 1.429 . S
C1275 C1276 1.523 . S
C1276 C1260 1.368 . S
C1276 C1272 1.368 . S
C1276 C1275 1.523 . S
H1277 C1252 0.950 . S
H1278 C1254 0.950 . S
H1279 C1255 0.949 . S
H1280 C1257 0.950 . S
H1281 C1259 0.950 . S
C1282 C1283 1.349 . S
C1282 C1284 1.327 . S
C1282 H1307 0.950 . S
C1283 C1282 1.349 . S
C1283 C1299 1.349 . S
C1284 C1282 1.327 . S
C1284 C1303 1.429 . S
C1284 H1308 0.950 . S
C1285 C1302 1.574 1_455 S
C1285 C1304 1.368 . S
C1285 H1309 0.949 . S
H1286 C1290 0.949 . S
C1287 C1288 1.349 . S
C1287 C1289 1.327 . S
C1287 H1310 0.950 . S
C1288 C1287 1.349 . S
C1288 C1300 1.349 . S
C1289 C1287 1.327 . S
C1289 C1305 1.429 . S
C1289 H1311 0.950 . S
C1290 H1286 0.949 . S
C1290 C1298 1.574 1_655 S
C1290 C1306 1.368 . S
H1291 C1299 0.950 . S
H1292 C1297 0.950 . S
H1293 C1298 0.949 . S
H1294 C1300 0.950 . S
H1295 C1301 0.950 . S
H1296 C1302 0.949 . S
C1297 H1292 0.950 . S
C1297 C1299 1.327 . S
C1297 C1303 1.429 . S
C1298 C1290 1.574 1_455 S
C1298 H1293 0.949 . S
C1298 C1304 1.368 . S
C1299 C1283 1.349 . S
C1299 H1291 0.950 . S
C1299 C1297 1.327 . S
C1300 C1288 1.349 . S
C1300 H1294 0.950 . S
C1300 C1301 1.327 . S
C1301 H1295 0.950 . S
C1301 C1300 1.327 . S
C1301 C1305 1.429 . S
C1302 C1285 1.574 1_655 S
C1302 H1296 0.949 . S
C1302 C1306 1.368 . S
C1303 C1284 1.429 . S
C1303 C1297 1.429 . S
C1303 C1304 1.523 . S
C1304 C1285 1.368 . S
C1304 C1298 1.368 . S
C1304 C1303 1.523 . S
C1305 C1289 1.429 . S
C1305 C1301 1.429 . S
C1305 C1306 1.523 . S
C1306 C1290 1.368 . S
C1306 C1302 1.368 . S
C1306 C1305 1.523 . S
H1307 C1282 0.950 . S
H1308 C1284 0.950 . S
H1309 C1285 0.949 . S
H1310 C1287 0.950 . S
H1311 C1289 0.950 . S
C1312 C1313 1.349 . S
C1312 C1314 1.327 . S
C1312 H1337 0.950 . S
C1313 C1312 1.349 . S
C1313 C1329 1.349 . S
C1314 C1312 1.327 . S
C1314 C1333 1.429 . S
C1314 H1338 0.950 . S
C1315 C1332 1.574 1_545 S
C1315 C1334 1.368 1_556 S
C1315 H1339 0.949 . S
H1316 C1320 0.949 . S
C1317 C1318 1.349 . S
C1317 C1319 1.327 . S
C1317 H1340 0.950 . S
C1318 C1317 1.349 . S
C1318 C1330 1.349 . S
C1319 C1317 1.327 . S
C1319 C1335 1.429 . S
C1319 H1341 0.950 . S
C1320 H1316 0.949 . S
C1320 C1328 1.574 1_565 S
C1320 C1336 1.368 1_554 S
H1321 C1329 0.950 1_556 S
H1322 C1327 0.950 1_556 S
H1323 C1328 0.949 . S
H1324 C1330 0.950 1_554 S
H1325 C1331 0.950 1_554 S
H1326 C1332 0.949 . S
C1327 H1322 0.950 1_554 S
C1327 C1329 1.327 . S
C1327 C1333 1.429 . S
C1328 C1320 1.574 1_545 S
C1328 H1323 0.949 . S
C1328 C1334 1.368 . S
C1329 C1313 1.349 . S
C1329 H1321 0.950 1_554 S
C1329 C1327 1.327 . S
C1330 C1318 1.349 . S
C1330 H1324 0.950 1_556 S
C1330 C1331 1.327 . S
C1331 H1325 0.950 1_556 S
C1331 C1330 1.327 . S
C1331 C1335 1.429 . S
C1332 C1315 1.574 1_565 S
C1332 H1326 0.949 . S
C1332 C1336 1.368 . S
C1333 C1314 1.429 . S
C1333 C1327 1.429 . S
C1333 C1334 1.523 . S
C1334 C1315 1.368 1_554 S
C1334 C1328 1.368 . S
C1334 C1333 1.523 . S
C1335 C1319 1.429 . S
C1335 C1331 1.429 . S
C1335 C1336 1.523 . S
C1336 C1320 1.368 1_556 S
C1336 C1332 1.368 . S
C1336 C1335 1.523 . S
H1337 C1312 0.950 . S
H1338 C1314 0.950 . S
H1339 C1315 0.949 . S
H1340 C1317 0.950 . S
H1341 C1319 0.950 . S
C1342 C1343 1.349 . S
C1342 C1344 1.327 . S
C1342 H1367 0.950 . S
C1343 C1342 1.349 . S
C1343 C1359 1.349 . S
C1344 C1342 1.327 . S
C1344 C1363 1.429 . S
C1344 H1368 0.950 . S
C1345 C1362 1.574 1_565 S
C1345 C1364 1.368 . S
C1345 H1369 0.949 . S
H1346 C1350 0.949 . S
C1347 C1348 1.349 . S
C1347 C1349 1.327 . S
C1347 H1370 0.950 . S
C1348 C1347 1.349 . S
C1348 C1360 1.349 . S
C1349 C1347 1.327 . S
C1349 C1365 1.429 . S
C1349 H1371 0.950 . S
C1350 H1346 0.949 . S
C1350 C1358 1.574 1_545 S
C1350 C1366 1.368 . S
H1351 C1359 0.950 . S
H1352 C1357 0.950 . S
H1353 C1358 0.949 . S
H1354 C1360 0.950 . S
H1355 C1361 0.950 . S
H1356 C1362 0.949 . S
C1357 H1352 0.950 . S
C1357 C1359 1.327 . S
C1357 C1363 1.429 . S
C1358 C1350 1.574 1_565 S
C1358 H1353 0.949 . S
C1358 C1364 1.368 . S
C1359 C1343 1.349 . S
C1359 H1351 0.950 . S
C1359 C1357 1.327 . S
C1360 C1348 1.349 . S
C1360 H1354 0.950 . S
C1360 C1361 1.327 . S
C1361 H1355 0.950 . S
C1361 C1360 1.327 . S
C1361 C1365 1.429 . S
C1362 C1345 1.574 1_545 S
C1362 H1356 0.949 . S
C1362 C1366 1.368 . S
C1363 C1344 1.429 . S
C1363 C1357 1.429 . S
C1363 C1364 1.523 . S
C1364 C1345 1.368 . S
C1364 C1358 1.368 . S
C1364 C1363 1.523 . S
C1365 C1349 1.429 . S
C1365 C1361 1.429 . S
C1365 C1366 1.523 . S
C1366 C1350 1.368 . S
C1366 C1362 1.368 . S
C1366 C1365 1.523 . S
H1367 C1342 0.950 . S
H1368 C1344 0.950 . S
H1369 C1345 0.949 . S
H1370 C1347 0.950 . S
H1371 C1349 0.950 . S
C1372 C1373 1.349 . S
C1372 C1374 1.327 . S
C1372 H1397 0.955 . S
C1373 C1372 1.349 . S
C1373 C1389 1.349 . S
C1374 C1372 1.327 . S
C1374 C1393 1.429 . S
C1374 H1398 0.950 1_554 S
C1375 C1392 1.574 1_545 S
C1375 C1394 1.368 . S
C1375 H1399 0.949 . S
H1376 C1380 0.949 . S
C1377 C1378 1.349 . S
C1377 C1379 1.327 . S
C1377 H1400 0.955 . S
C1378 C1377 1.349 . S
C1378 C1390 1.349 . S
C1379 C1377 1.327 . S
C1379 C1395 1.429 . S
C1379 H1401 0.950 1_556 S
C1380 H1376 0.949 . S
C1380 C1388 1.574 1_565 S
C1380 C1396 1.368 . S
H1381 C1389 0.950 . S
H1382 C1387 0.950 . S
H1383 C1388 0.949 . S
H1384 C1390 0.950 . S
H1385 C1391 0.950 . S
H1386 C1392 0.949 . S
C1387 H1382 0.950 . S
C1387 C1389 1.327 . S
C1387 C1393 1.429 . S
C1388 C1380 1.574 1_545 S
C1388 H1383 0.949 . S
C1388 C1394 1.368 1_556 S
C1389 C1373 1.349 . S
C1389 H1381 0.950 . S
C1389 C1387 1.327 . S
C1390 C1378 1.349 . S
C1390 H1384 0.950 . S
C1390 C1391 1.327 . S
C1391 H1385 0.950 . S
C1391 C1390 1.327 . S
C1391 C1395 1.429 . S
C1392 C1375 1.574 1_565 S
C1392 H1386 0.949 . S
C1392 C1396 1.368 1_554 S
C1393 C1374 1.429 . S
C1393 C1387 1.429 . S
C1393 C1394 1.523 . S
C1394 C1375 1.368 . S
C1394 C1388 1.368 1_554 S
C1394 C1393 1.523 . S
C1395 C1379 1.429 . S
C1395 C1391 1.429 . S
C1395 C1396 1.523 . S
C1396 C1380 1.368 . S
C1396 C1392 1.368 1_556 S
C1396 C1395 1.523 . S
H1397 C1372 0.955 . S
H1398 C1374 0.950 1_556 S
H1399 C1375 0.949 . S
H1400 C1377 0.955 . S
H1401 C1379 0.950 1_554 S
C1402 C1403 1.349 . S
C1402 C1404 1.327 . S
C1402 H1427 0.950 . S
C1403 C1402 1.349 . S
C1403 C1419 1.349 . S
C1404 C1402 1.327 . S
C1404 C1423 1.429 . S
C1404 H1428 0.950 . S
C1405 C1422 1.574 1_545 S
C1405 C1424 1.368 . S
C1405 H1429 0.949 . S
H1406 C1410 0.949 . S
C1407 C1408 1.349 . S
C1407 C1409 1.327 . S
C1407 H1430 0.950 . S
C1408 C1407 1.349 . S
C1408 C1420 1.349 . S
C1409 C1407 1.327 . S
C1409 C1425 1.429 . S
C1409 H1431 0.950 . S
C1410 H1406 0.949 . S
C1410 C1418 1.574 1_565 S
C1410 C1426 1.368 . S
H1411 C1419 0.950 . S
H1412 C1417 0.950 . S
H1413 C1418 0.949 . S
H1414 C1420 0.950 . S
H1415 C1421 0.950 . S
H1416 C1422 0.949 . S
C1417 H1412 0.950 . S
C1417 C1419 1.327 . S
C1417 C1423 1.429 . S
C1418 C1410 1.574 1_545 S
C1418 H1413 0.949 . S
C1418 C1424 1.368 . S
C1419 C1403 1.349 . S
C1419 H1411 0.950 . S
C1419 C1417 1.327 . S
C1420 C1408 1.349 . S
C1420 H1414 0.950 . S
C1420 C1421 1.327 . S
C1421 H1415 0.950 . S
C1421 C1420 1.327 . S
C1421 C1425 1.429 . S
C1422 C1405 1.574 1_565 S
C1422 H1416 0.949 . S
C1422 C1426 1.368 . S
C1423 C1404 1.429 . S
C1423 C1417 1.429 . S
C1423 C1424 1.523 . S
C1424 C1405 1.368 . S
C1424 C1418 1.368 . S
C1424 C1423 1.523 . S
C1425 C1409 1.429 . S
C1425 C1421 1.429 . S
C1425 C1426 1.523 . S
C1426 C1410 1.368 . S
C1426 C1422 1.368 . S
C1426 C1425 1.523 . S
H1427 C1402 0.950 . S
H1428 C1404 0.950 . S
H1429 C1405 0.949 . S
H1430 C1407 0.950 . S
H1431 C1409 0.950 . S
C1432 C1433 1.349 . S
C1432 C1434 1.327 1_554 S
C1432 H1457 0.950 1_554 S
C1433 C1432 1.349 . S
C1433 C1449 1.349 . S
C1434 C1432 1.327 1_556 S
C1434 C1453 1.429 1_556 S
C1434 H1458 0.950 . S
C1435 C1452 1.574 . S
C1435 C1454 1.368 . S
C1435 H1459 0.949 . S
H1436 C1440 0.949 . S
C1437 C1438 1.349 . S
C1437 C1439 1.327 1_556 S
C1437 H1460 0.950 1_556 S
C1438 C1437 1.349 . S
C1438 C1450 1.349 . S
C1439 C1437 1.327 1_554 S
C1439 C1455 1.429 1_554 S
C1439 H1461 0.950 . S
C1440 H1436 0.949 . S
C1440 C1448 1.574 . S
C1440 C1456 1.368 . S
H1441 C1449 0.950 . S
H1442 C1447 0.950 . S
H1443 C1448 0.949 . S
H1444 C1450 0.950 . S
H1445 C1451 0.950 . S
H1446 C1452 0.949 . S
C1447 H1442 0.950 . S
C1447 C1449 1.327 . S
C1447 C1453 1.429 . S
C1448 C1440 1.574 . S
C1448 H1443 0.949 . S
C1448 C1454 1.368 1_556 S
C1449 C1433 1.349 . S
C1449 H1441 0.950 . S
C1449 C1447 1.327 . S
C1450 C1438 1.349 . S
C1450 H1444 0.950 . S
C1450 C1451 1.327 . S
C1451 H1445 0.950 . S
C1451 C1450 1.327 . S
C1451 C1455 1.429 . S
C1452 C1435 1.574 . S
C1452 H1446 0.949 . S
C1452 C1456 1.368 1_554 S
C1453 C1434 1.429 1_554 S
C1453 C1447 1.429 . S
C1453 C1454 1.523 . S
C1454 C1435 1.368 . S
C1454 C1448 1.368 1_554 S
C1454 C1453 1.523 . S
C1455 C1439 1.429 1_556 S
C1455 C1451 1.429 . S
C1455 C1456 1.523 . S
C1456 C1440 1.368 . S
C1456 C1452 1.368 1_556 S
C1456 C1455 1.523 . S
H1457 C1432 0.950 1_556 S
H1458 C1434 0.950 . S
H1459 C1435 0.949 . S
H1460 C1437 0.950 1_554 S
H1461 C1439 0.950 . S
C1462 C1463 1.349 . S
C1462 C1464 1.327 . S
C1462 H1487 0.950 . S
C1463 C1462 1.349 . S
C1463 C1479 1.349 . S
C1464 C1462 1.327 . S
C1464 C1483 1.429 . S
C1464 H1488 0.950 . S
C1465 C1482 1.574 . S
C1465 C1484 1.368 . S
C1465 H1489 0.949 . S
H1466 C1470 0.949 . S
C1467 C1468 1.349 . S
C1467 C1469 1.327 . S
C1467 H1490 0.950 . S
C1468 C1467 1.349 . S
C1468 C1480 1.349 . S
C1469 C1467 1.327 . S
C1469 C1485 1.429 . S
C1469 H1491 0.950 . S
C1470 H1466 0.949 . S
C1470 C1478 1.574 . S
C1470 C1486 1.368 . S
H1471 C1479 0.950 . S
H1472 C1477 0.950 . S
H1473 C1478 0.949 . S
H1474 C1480 0.950 . S
H1475 C1481 0.950 . S
H1476 C1482 0.949 . S
C1477 H1472 0.950 . S
C1477 C1479 1.327 . S
C1477 C1483 1.429 . S
C1478 C1470 1.574 . S
C1478 H1473 0.949 . S
C1478 C1484 1.368 . S
C1479 C1463 1.349 . S
C1479 H1471 0.950 . S
C1479 C1477 1.327 . S
C1480 C1468 1.349 . S
C1480 H1474 0.950 . S
C1480 C1481 1.327 . S
C1481 H1475 0.950 . S
C1481 C1480 1.327 . S
C1481 C1485 1.429 . S
C1482 C1465 1.574 . S
C1482 H1476 0.949 . S
C1482 C1486 1.368 . S
C1483 C1464 1.429 . S
C1483 C1477 1.429 . S
C1483 C1484 1.523 . S
C1484 C1465 1.368 . S
C1484 C1478 1.368 . S
C1484 C1483 1.523 . S
C1485 C1469 1.429 . S
C1485 C1481 1.429 . S
C1485 C1486 1.523 . S
C1486 C1470 1.368 . S
C1486 C1482 1.368 . S
C1486 C1485 1.523 . S
H1487 C1462 0.950 . S
H1488 C1464 0.950 . S
H1489 C1465 0.949 . S
H1490 C1467 0.950 . S
H1491 C1469 0.950 . S
C1492 C1493 1.349 . S
C1492 C1494 1.330 . S
C1492 H1517 0.950 1_556 S
C1493 C1492 1.349 . S
C1493 C1509 1.349 . S
C1494 C1492 1.330 . S
C1494 C1513 1.434 . S
C1494 H1518 0.941 1_556 S
C1495 C1512 1.574 . S
C1495 C1514 1.368 . S
C1495 H1519 0.949 . S
H1496 C1500 0.949 . S
C1497 C1498 1.349 . S
C1497 C1499 1.330 . S
C1497 H1520 0.950 1_554 S
C1498 C1497 1.349 . S
C1498 C1510 1.349 . S
C1499 C1497 1.330 . S
C1499 C1515 1.434 . S
C1499 H1521 0.941 1_554 S
C1500 H1496 0.949 . S
C1500 C1508 1.574 . S
C1500 C1516 1.368 . S
H1501 C1509 0.950 . S
H1502 C1507 0.950 . S
H1503 C1508 0.949 . S
H1504 C1510 0.950 . S
H1505 C1511 0.950 . S
H1506 C1512 0.949 . S
C1507 H1502 0.950 . S
C1507 C1509 1.327 . S
C1507 C1513 1.429 . S
C1508 C1500 1.574 . S
C1508 H1503 0.949 . S
C1508 C1514 1.368 1_554 S
C1509 C1493 1.349 . S
C1509 H1501 0.950 . S
C1509 C1507 1.327 . S
C1510 C1498 1.349 . S
C1510 H1504 0.950 . S
C1510 C1511 1.327 . S
C1511 H1505 0.950 . S
C1511 C1510 1.327 . S
C1511 C1515 1.429 . S
C1512 C1495 1.574 . S
C1512 H1506 0.949 . S
C1512 C1516 1.368 1_556 S
C1513 C1494 1.434 . S
C1513 C1507 1.429 . S
C1513 C1514 1.523 . S
C1514 C1495 1.368 . S
C1514 C1508 1.368 1_556 S
C1514 C1513 1.523 . S
C1515 C1499 1.434 . S
C1515 C1511 1.429 . S
C1515 C1516 1.523 . S
C1516 C1500 1.368 . S
C1516 C1512 1.368 1_554 S
C1516 C1515 1.523 . S
H1517 C1492 0.950 1_554 S
H1518 C1494 0.941 1_554 S
H1519 C1495 0.949 . S
H1520 C1497 0.950 1_556 S
H1521 C1499 0.941 1_556 S
C1522 C1523 1.349 . S
C1522 C1524 1.327 . S
C1522 H1547 0.950 . S
C1523 C1522 1.349 . S
C1523 C1539 1.349 . S
C1524 C1522 1.327 . S
C1524 C1543 1.429 . S
C1524 H1548 0.950 . S
C1525 C1542 1.574 . S
C1525 C1544 1.368 . S
C1525 H1549 0.949 . S
H1526 C1530 0.949 . S
C1527 C1528 1.349 . S
C1527 C1529 1.327 . S
C1527 H1550 0.950 . S
C1528 C1527 1.349 . S
C1528 C1540 1.349 . S
C1529 C1527 1.327 . S
C1529 C1545 1.429 . S
C1529 H1551 0.950 . S
C1530 H1526 0.949 . S
C1530 C1538 1.574 . S
C1530 C1546 1.368 . S
H1531 C1539 0.950 . S
H1532 C1537 0.950 . S
H1533 C1538 0.949 . S
H1534 C1540 0.950 . S
H1535 C1541 0.950 . S
H1536 C1542 0.949 . S
C1537 H1532 0.950 . S
C1537 C1539 1.327 . S
C1537 C1543 1.429 . S
C1538 C1530 1.574 . S
C1538 H1533 0.949 . S
C1538 C1544 1.368 . S
C1539 C1523 1.349 . S
C1539 H1531 0.950 . S
C1539 C1537 1.327 . S
C1540 C1528 1.349 . S
C1540 H1534 0.950 . S
C1540 C1541 1.327 . S
C1541 H1535 0.950 . S
C1541 C1540 1.327 . S
C1541 C1545 1.429 . S
C1542 C1525 1.574 . S
C1542 H1536 0.949 . S
C1542 C1546 1.368 . S
C1543 C1524 1.429 . S
C1543 C1537 1.429 . S
C1543 C1544 1.523 . S
C1544 C1525 1.368 . S
C1544 C1538 1.368 . S
C1544 C1543 1.523 . S
C1545 C1529 1.429 . S
C1545 C1541 1.429 . S
C1545 C1546 1.523 . S
C1546 C1530 1.368 . S
C1546 C1542 1.368 . S
C1546 C1545 1.523 . S
H1547 C1522 0.950 . S
H1548 C1524 0.950 . S
H1549 C1525 0.949 . S
H1550 C1527 0.950 . S
H1551 C1529 0.950 . S
C1552 C1553 1.349 . S
C1552 C1554 1.327 . S
C1552 H1577 0.950 . S
C1553 C1552 1.349 . S
C1553 C1569 1.349 . S
C1554 C1552 1.327 . S
C1554 C1573 1.429 . S
C1554 H1578 0.950 . S
C1555 C1572 1.574 . S
C1555 C1574 1.368 1_556 S
C1555 H1579 0.949 . S
H1556 C1560 0.949 . S
C1557 C1558 1.349 . S
C1557 C1559 1.327 . S
C1557 H1580 0.950 . S
C1558 C1557 1.349 . S
C1558 C1570 1.349 . S
C1559 C1557 1.327 . S
C1559 C1575 1.429 . S
C1559 H1581 0.950 . S
C1560 H1556 0.949 . S
C1560 C1568 1.574 . S
C1560 C1576 1.368 1_554 S
H1561 C1569 0.950 . S
H1562 C1567 0.950 1_556 S
H1563 C1568 0.949 . S
H1564 C1570 0.950 . S
H1565 C1571 0.950 1_554 S
H1566 C1572 0.949 . S
C1567 H1562 0.950 1_554 S
C1567 C1569 1.327 . S
C1567 C1573 1.429 . S
C1568 C1560 1.574 . S
C1568 H1563 0.949 . S
C1568 C1574 1.368 . S
C1569 C1553 1.349 . S
C1569 H1561 0.950 . S
C1569 C1567 1.327 . S
C1570 C1558 1.349 . S
C1570 H1564 0.950 . S
C1570 C1571 1.327 . S
C1571 H1565 0.950 1_556 S
C1571 C1570 1.327 . S
C1571 C1575 1.429 . S
C1572 C1555 1.574 . S
C1572 H1566 0.949 . S
C1572 C1576 1.368 . S
C1573 C1554 1.429 . S
C1573 C1567 1.429 . S
C1573 C1574 1.523 . S
C1574 C1555 1.368 1_554 S
C1574 C1568 1.368 . S
C1574 C1573 1.523 . S
C1575 C1559 1.429 . S
C1575 C1571 1.429 . S
C1575 C1576 1.523 . S
C1576 C1560 1.368 1_556 S
C1576 C1572 1.368 . S
C1576 C1575 1.523 . S
H1577 C1552 0.950 . S
H1578 C1554 0.950 . S
H1579 C1555 0.949 . S
H1580 C1557 0.950 . S
H1581 C1559 0.950 . S
C1582 C1583 1.349 . S
C1582 C1584 1.327 . S
C1582 H1607 0.950 . S
C1583 C1582 1.349 . S
C1583 C1599 1.349 . S
C1584 C1582 1.327 . S
C1584 C1603 1.429 . S
C1584 H1608 0.950 . S
C1585 C1602 1.574 . S
C1585 C1604 1.368 . S
C1585 H1609 0.949 . S
H1586 C1590 0.949 . S
C1587 C1588 1.349 . S
C1587 C1589 1.327 . S
C1587 H1610 0.950 . S
C1588 C1587 1.349 . S
C1588 C1600 1.349 . S
C1589 C1587 1.327 . S
C1589 C1605 1.429 . S
C1589 H1611 0.950 . S
C1590 H1586 0.949 . S
C1590 C1598 1.574 . S
C1590 C1606 1.368 . S
H1591 C1599 0.950 . S
H1592 C1597 0.950 . S
H1593 C1598 0.949 . S
H1594 C1600 0.950 . S
H1595 C1601 0.950 . S
H1596 C1602 0.949 . S
C1597 H1592 0.950 . S
C1597 C1599 1.327 . S
C1597 C1603 1.429 . S
C1598 C1590 1.574 . S
C1598 H1593 0.949 . S
C1598 C1604 1.368 . S
C1599 C1583 1.349 . S
C1599 H1591 0.950 . S
C1599 C1597 1.327 . S
C1600 C1588 1.349 . S
C1600 H1594 0.950 . S
C1600 C1601 1.327 . S
C1601 H1595 0.950 . S
C1601 C1600 1.327 . S
C1601 C1605 1.429 . S
C1602 C1585 1.574 . S
C1602 H1596 0.949 . S
C1602 C1606 1.368 . S
C1603 C1584 1.429 . S
C1603 C1597 1.429 . S
C1603 C1604 1.523 . S
C1604 C1585 1.368 . S
C1604 C1598 1.368 . S
C1604 C1603 1.523 . S
C1605 C1589 1.429 . S
C1605 C1601 1.429 . S
C1605 C1606 1.523 . S
C1606 C1590 1.368 . S
C1606 C1602 1.368 . S
C1606 C1605 1.523 . S
H1607 C1582 0.950 . S
H1608 C1584 0.950 . S
H1609 C1585 0.949 . S
H1610 C1587 0.950 . S
H1611 C1589 0.950 . S
C1612 C1613 1.349 . S
C1612 C1614 1.327 . S
C1612 H1637 0.950 . S
C1613 C1612 1.349 . S
C1613 C1629 1.349 . S
C1614 C1612 1.327 . S
C1614 C1633 1.429 . S
C1614 H1638 0.950 . S
C1615 C1632 1.574 . S
C1615 C1634 1.368 1_554 S
C1615 H1639 0.949 . S
H1616 C1620 0.949 . S
C1617 C1618 1.349 . S
C1617 C1619 1.327 . S
C1617 H1640 0.950 . S
C1618 C1617 1.349 . S
C1618 C1630 1.349 . S
C1619 C1617 1.327 . S
C1619 C1635 1.429 . S
C1619 H1641 0.950 . S
C1620 H1616 0.949 . S
C1620 C1628 1.574 . S
C1620 C1636 1.368 1_556 S
H1621 C1629 0.950 . S
H1622 C1627 0.945 1_554 S
H1623 C1628 0.949 . S
H1624 C1630 0.950 . S
H1625 C1631 0.945 1_556 S
H1626 C1632 0.949 . S
C1627 H1622 0.945 1_556 S
C1627 C1629 1.327 . S
C1627 C1633 1.429 . S
C1628 C1620 1.574 . S
C1628 H1623 0.949 . S
C1628 C1634 1.368 . S
C1629 C1613 1.349 . S
C1629 H1621 0.950 . S
C1629 C1627 1.327 . S
C1630 C1618 1.349 . S
C1630 H1624 0.950 . S
C1630 C1631 1.327 . S
C1631 H1625 0.945 1_554 S
C1631 C1630 1.327 . S
C1631 C1635 1.429 . S
C1632 C1615 1.574 . S
C1632 H1626 0.949 . S
C1632 C1636 1.368 . S
C1633 C1614 1.429 . S
C1633 C1627 1.429 . S
C1633 C1634 1.523 . S
C1634 C1615 1.368 1_556 S
C1634 C1628 1.368 . S
C1634 C1633 1.523 . S
C1635 C1619 1.429 . S
C1635 C1631 1.429 . S
C1635 C1636 1.523 . S
C1636 C1620 1.368 1_554 S
C1636 C1632 1.368 . S
C1636 C1635 1.523 . S
H1637 C1612 0.950 . S
H1638 C1614 0.950 . S
H1639 C1615 0.949 . S
H1640 C1617 0.950 . S
H1641 C1619 0.950 . S
C1642 C1643 1.349 . S
C1642 C1644 1.327 . S
C1642 H1667 0.950 . S
C1643 C1642 1.349 . S
C1643 C1659 1.349 . S
C1644 C1642 1.327 . S
C1644 C1663 1.429 . S
C1644 H1668 0.950 . S
C1645 C1662 1.574 . S
C1645 C1664 1.368 . S
C1645 H1669 0.949 . S
H1646 C1650 0.949 . S
C1647 C1648 1.349 . S
C1647 C1649 1.327 . S
C1647 H1670 0.950 . S
C1648 C1647 1.349 . S
C1648 C1660 1.349 . S
C1649 C1647 1.327 . S
C1649 C1665 1.429 . S
C1649 H1671 0.950 . S
C1650 H1646 0.949 . S
C1650 C1658 1.574 . S
C1650 C1666 1.368 . S
H1651 C1659 0.950 . S
H1652 C1657 0.950 . S
H1653 C1658 0.949 . S
H1654 C1660 0.950 . S
H1655 C1661 0.950 . S
H1656 C1662 0.949 . S
C1657 H1652 0.950 . S
C1657 C1659 1.327 . S
C1657 C1663 1.429 . S
C1658 C1650 1.574 . S
C1658 H1653 0.949 . S
C1658 C1664 1.368 . S
C1659 C1643 1.349 . S
C1659 H1651 0.950 . S
C1659 C1657 1.327 . S
C1660 C1648 1.349 . S
C1660 H1654 0.950 . S
C1660 C1661 1.327 . S
C1661 H1655 0.950 . S
C1661 C1660 1.327 . S
C1661 C1665 1.429 . S
C1662 C1645 1.574 . S
C1662 H1656 0.949 . S
C1662 C1666 1.368 . S
C1663 C1644 1.429 . S
C1663 C1657 1.429 . S
C1663 C1664 1.523 . S
C1664 C1645 1.368 . S
C1664 C1658 1.368 . S
C1664 C1663 1.523 . S
C1665 C1649 1.429 . S
C1665 C1661 1.429 . S
C1665 C1666 1.523 . S
C1666 C1650 1.368 . S
C1666 C1662 1.368 . S
C1666 C1665 1.523 . S
H1667 C1642 0.950 . S
H1668 C1644 0.950 . S
H1669 C1645 0.949 . S
H1670 C1647 0.950 . S
H1671 C1649 0.950 . S
C1672 C1673 1.349 . S
C1672 C1674 1.327 . S
C1672 H1697 0.950 . S
C1673 C1672 1.349 . S
C1673 C1689 1.349 . S
C1674 C1672 1.327 . S
C1674 C1693 1.429 . S
C1674 H1698 0.950 . S
C1675 C1692 1.574 1_556 S
C1675 C1694 1.368 . S
C1675 H1699 0.949 . S
H1676 C1680 0.949 . S
C1677 C1678 1.349 . S
C1677 C1679 1.327 . S
C1677 H1700 0.950 . S
C1678 C1677 1.349 . S
C1678 C1690 1.349 . S
C1679 C1677 1.327 . S
C1679 C1695 1.429 . S
C1679 H1701 0.950 . S
C1680 H1676 0.949 . S
C1680 C1688 1.574 1_554 S
C1680 C1696 1.368 . S
H1681 C1689 0.950 . S
H1682 C1687 0.950 . S
H1683 C1688 0.949 . S
H1684 C1690 0.950 . S
H1685 C1691 0.950 . S
H1686 C1692 0.949 . S
C1687 H1682 0.950 . S
C1687 C1689 1.327 . S
C1687 C1693 1.429 . S
C1688 C1680 1.574 1_556 S
C1688 H1683 0.949 . S
C1688 C1694 1.368 . S
C1689 C1673 1.349 . S
C1689 H1681 0.950 . S
C1689 C1687 1.327 . S
C1690 C1678 1.349 . S
C1690 H1684 0.950 . S
C1690 C1691 1.327 . S
C1691 H1685 0.950 . S
C1691 C1690 1.327 . S
C1691 C1695 1.429 . S
C1692 C1675 1.574 1_554 S
C1692 H1686 0.949 . S
C1692 C1696 1.368 . S
C1693 C1674 1.429 . S
C1693 C1687 1.429 . S
C1693 C1694 1.523 . S
C1694 C1675 1.368 . S
C1694 C1688 1.368 . S
C1694 C1693 1.523 . S
C1695 C1679 1.429 . S
C1695 C1691 1.429 . S
C1695 C1696 1.523 . S
C1696 C1680 1.368 . S
C1696 C1692 1.368 . S
C1696 C1695 1.523 . S
H1697 C1672 0.950 . S
H1698 C1674 0.950 . S
H1699 C1675 0.949 . S
H1700 C1677 0.950 . S
H1701 C1679 0.950 . S
C1702 C1703 1.349 . S
C1702 C1704 1.327 . S
C1702 H1727 0.950 . S
C1703 C1702 1.349 . S
C1703 C1719 1.349 . S
C1704 C1702 1.327 . S
C1704 C1723 1.429 . S
C1704 H1728 0.950 . S
C1705 C1722 1.574 . S
C1705 C1724 1.368 . S
C1705 H1729 0.949 . S
H1706 C1710 0.949 . S
C1707 C1708 1.349 . S
C1707 C1709 1.327 . S
C1707 H1730 0.950 . S
C1708 C1707 1.349 . S
C1708 C1720 1.349 . S
C1709 C1707 1.327 . S
C1709 C1725 1.429 . S
C1709 H1731 0.950 . S
C1710 H1706 0.949 . S
C1710 C1718 1.574 . S
C1710 C1726 1.368 . S
H1711 C1719 0.950 . S
H1712 C1717 0.950 . S
H1713 C1718 0.949 . S
H1714 C1720 0.950 . S
H1715 C1721 0.950 . S
H1716 C1722 0.949 . S
C1717 H1712 0.950 . S
C1717 C1719 1.327 . S
C1717 C1723 1.429 . S
C1718 C1710 1.574 . S
C1718 H1713 0.949 . S
C1718 C1724 1.368 . S
C1719 C1703 1.349 . S
C1719 H1711 0.950 . S
C1719 C1717 1.327 . S
C1720 C1708 1.349 . S
C1720 H1714 0.950 . S
C1720 C1721 1.327 . S
C1721 H1715 0.950 . S
C1721 C1720 1.327 . S
C1721 C1725 1.429 . S
C1722 C1705 1.574 . S
C1722 H1716 0.949 . S
C1722 C1726 1.368 . S
C1723 C1704 1.429 . S
C1723 C1717 1.429 . S
C1723 C1724 1.523 . S
C1724 C1705 1.368 . S
C1724 C1718 1.368 . S
C1724 C1723 1.523 . S
C1725 C1709 1.429 . S
C1725 C1721 1.429 . S
C1725 C1726 1.523 . S
C1726 C1710 1.368 . S
C1726 C1722 1.368 . S
C1726 C1725 1.523 . S
H1727 C1702 0.950 . S
H1728 C1704 0.950 . S
H1729 C1705 0.949 . S
H1730 C1707 0.950 . S
H1731 C1709 0.950 . S
C1732 C1733 1.349 . S
C1732 C1734 1.327 . S
C1732 H1757 0.950 . S
C1733 C1732 1.349 . S
C1733 C1749 1.349 . S
C1734 C1732 1.327 . S
C1734 C1753 1.429 . S
C1734 H1758 0.950 . S
C1735 C1752 1.574 . S
C1735 C1754 1.368 1_554 S
C1735 H1759 0.949 . S
H1736 C1740 0.949 . S
C1737 C1738 1.349 . S
C1737 C1739 1.327 . S
C1737 H1760 0.950 . S
C1738 C1737 1.349 . S
C1738 C1750 1.349 . S
C1739 C1737 1.327 . S
C1739 C1755 1.429 . S
C1739 H1761 0.950 . S
C1740 H1736 0.949 . S
C1740 C1748 1.574 . S
C1740 C1756 1.368 1_556 S
H1741 C1749 0.950 . S
H1742 C1747 0.950 1_554 S
H1743 C1748 0.949 . S
H1744 C1750 0.950 . S
H1745 C1751 0.950 1_556 S
H1746 C1752 0.949 . S
C1747 H1742 0.950 1_556 S
C1747 C1749 1.327 . S
C1747 C1753 1.429 . S
C1748 C1740 1.574 . S
C1748 H1743 0.949 . S
C1748 C1754 1.368 . S
C1749 C1733 1.349 . S
C1749 H1741 0.950 . S
C1749 C1747 1.327 . S
C1750 C1738 1.349 . S
C1750 H1744 0.950 . S
C1750 C1751 1.327 . S
C1751 H1745 0.950 1_554 S
C1751 C1750 1.327 . S
C1751 C1755 1.429 . S
C1752 C1735 1.574 . S
C1752 H1746 0.949 . S
C1752 C1756 1.368 . S
C1753 C1734 1.429 . S
C1753 C1747 1.429 . S
C1753 C1754 1.523 . S
C1754 C1735 1.368 1_556 S
C1754 C1748 1.368 . S
C1754 C1753 1.523 . S
C1755 C1739 1.429 . S
C1755 C1751 1.429 . S
C1755 C1756 1.523 . S
C1756 C1740 1.368 1_554 S
C1756 C1752 1.368 . S
C1756 C1755 1.523 . S
H1757 C1732 0.950 . S
H1758 C1734 0.950 . S
H1759 C1735 0.949 . S
H1760 C1737 0.950 . S
H1761 C1739 0.950 . S
C1762 C1763 1.349 . S
C1762 C1764 1.327 . S
C1762 H1787 0.950 . S
C1763 C1762 1.349 . S
C1763 C1779 1.349 . S
C1764 C1762 1.327 . S
C1764 C1783 1.429 . S
C1764 H1788 0.950 . S
C1765 C1782 1.574 . S
C1765 C1784 1.368 . S
C1765 H1789 0.949 . S
H1766 C1770 0.949 . S
C1767 C1768 1.349 . S
C1767 C1769 1.327 . S
C1767 H1790 0.950 . S
C1768 C1767 1.349 . S
C1768 C1780 1.349 . S
C1769 C1767 1.327 . S
C1769 C1785 1.429 . S
C1769 H1791 0.950 . S
C1770 H1766 0.949 . S
C1770 C1778 1.574 . S
C1770 C1786 1.368 . S
H1771 C1779 0.950 . S
H1772 C1777 0.950 . S
H1773 C1778 0.949 . S
H1774 C1780 0.950 . S
H1775 C1781 0.950 . S
H1776 C1782 0.949 . S
C1777 H1772 0.950 . S
C1777 C1779 1.327 . S
C1777 C1783 1.429 . S
C1778 C1770 1.574 . S
C1778 H1773 0.949 . S
C1778 C1784 1.368 . S
C1779 C1763 1.349 . S
C1779 H1771 0.950 . S
C1779 C1777 1.327 . S
C1780 C1768 1.349 . S
C1780 H1774 0.950 . S
C1780 C1781 1.327 . S
C1781 H1775 0.950 . S
C1781 C1780 1.327 . S
C1781 C1785 1.429 . S
C1782 C1765 1.574 . S
C1782 H1776 0.949 . S
C1782 C1786 1.368 . S
C1783 C1764 1.429 . S
C1783 C1777 1.429 . S
C1783 C1784 1.523 . S
C1784 C1765 1.368 . S
C1784 C1778 1.368 . S
C1784 C1783 1.523 . S
C1785 C1769 1.429 . S
C1785 C1781 1.429 . S
C1785 C1786 1.523 . S
C1786 C1770 1.368 . S
C1786 C1782 1.368 . S
C1786 C1785 1.523 . S
H1787 C1762 0.950 . S
H1788 C1764 0.950 . S
H1789 C1765 0.949 . S
H1790 C1767 0.950 . S
H1791 C1769 0.950 . S
C353 C8 1.520 . S
C358 C70 1.520 . S
C383 C52 1.520 . S
C388 C30 1.520 . S
C413 C158 1.520 . S
C418 C96 1.520 . S
C443 C114 1.520 . S
C448 C136 1.520 . S
C473 C246 1.520 . S
C478 C184 1.520 . S
C503 C228 1.520 . S
C508 C206 1.520 . S
C533 C272 1.520 . S
C538 C334 1.520 . S
C563 C312 1.520 . S
C568 C290 1.520 . S
C593 C5 1.478 . S
C598 C336 1.579 . S
C623 C27 1.478 . S
C628 C314 1.579 . S
C653 C292 1.579 . S
C658 C49 1.478 . S
C683 C271 1.579 . S
C688 C75 1.478 . S
C713 C94 1.478 . S
C718 C247 1.579 . S
C743 C117 1.478 . S
C748 C229 1.579 . S
C773 C207 1.579 . S
C778 C139 1.478 . S
C803 C185 1.579 . S
C808 C161 1.478 . S
C833 C181 1.478 . S
C838 C160 1.579 . S
C863 C203 1.478 . S
C868 C138 1.579 . S
C893 C225 1.478 . S
C898 C116 1.579 . S
C923 C251 1.478 . S
C928 C95 1.579 . S
C953 C71 1.579 . S
C958 C270 1.478 . S
C983 C53 1.579 . S
C988 C293 1.478 . S
C1013 C315 1.478 . S
C1018 C31 1.579 . S
C1043 C337 1.478 . S
C1048 C9 1.579 . S
C1073 C6 1.425 . S
C1078 C141 1.425 . S
C1103 C28 1.425 . S
C1108 C163 1.425 . S
C1133 C93 1.425 . S
C1138 C50 1.425 . S
C1163 C73 1.425 . S
C1168 C119 1.425 . S
C1193 C182 1.425 . S
C1198 C317 1.425 . S
C1223 C204 1.425 . S
C1228 C339 1.425 . S
C1253 C226 1.425 . S
C1258 C269 1.425 . S
C1283 C295 1.425 . S
C1288 C249 1.425 . S
C1313 C4 1.534 . S
C1318 C48 1.534 . S
C1343 C26 1.534 . S
C1348 C74 1.534 . S
C1373 C140 1.534 . S
C1378 C92 1.534 . S
C1403 C118 1.534 . S
C1408 C162 1.534 . S
C1433 C180 1.534 . S
C1438 C224 1.534 . S
C1463 C250 1.534 . S
C1468 C202 1.534 . S
C1493 C268 1.534 . S
C1498 C316 1.534 . S
C1523 C294 1.534 . S
C1528 C338 1.534 . S
C1553 C7 0.723 . S
C1558 C273 0.723 . S
C1583 C29 0.723 . S
C1588 C291 0.723 . S
C1613 C51 0.723 . S
C1618 C313 0.723 . S
C1643 C72 0.723 . S
C1648 C335 0.723 . S
C1673 C97 0.723 . S
C1678 C183 0.723 . S
C1703 C205 0.723 . S
C1708 C115 0.723 . S
C1733 C227 0.723 . S
C1738 C137 0.723 . S
C1763 C248 0.723 . S
C1768 C159 0.723 . S
