# Generated by pormake.
# Topology sve, (7)-cn, num edge types: 1
# Building blocks:
#     Node 0, Type 0, BuildingBlock: HICVOG_clean_sbu_0, # of connection points: 7
#     Node 1, Type 0, BuildingBlock: HICVOG_clean_sbu_0, # of connection points: 7
#     Node 2, Type 0, BuildingBlock: HICVOG_clean_sbu_0, # of connection points: 7
#     Node 3, Type 0, BuildingBlock: HICVOG_clean_sbu_0, # of connection points: 7
#     Edge 4, Type (0, 0), BuildingBlock: FUNLAD_clean_linker_1, # of connection points: 2
#     Edge 5, Type (0, 0), BuildingBlock: FUNLAD_clean_linker_1, # of connection points: 2
#     Edge 6, Type (0, 0), BuildingBlock: FUNLAD_clean_linker_1, # of connection points: 2
#     Edge 7, Type (0, 0), BuildingBlock: FUNLAD_clean_linker_1, # of connection points: 2
#     Edge 8, Type (0, 0), BuildingBlock: FUNLAD_clean_linker_1, # of connection points: 2
#     Edge 9, Type (0, 0), BuildingBlock: FUNLAD_clean_linker_1, # of connection points: 2
#     Edge 10, Type (0, 0), BuildingBlock: FUNLAD_clean_linker_1, # of connection points: 2
#     Edge 11, Type (0, 0), BuildingBlock: FUNLAD_clean_linker_1, # of connection points: 2
#     Edge 12, Type (0, 0), BuildingBlock: FUNLAD_clean_linker_1, # of connection points: 2
#     Edge 13, Type (0, 0), BuildingBlock: FUNLAD_clean_linker_1, # of connection points: 2
#     Edge 14, Type (0, 0), BuildingBlock: FUNLAD_clean_linker_1, # of connection points: 2
#     Edge 15, Type (0, 0), BuildingBlock: FUNLAD_clean_linker_1, # of connection points: 2
#     Edge 16, Type (0, 0), BuildingBlock: FUNLAD_clean_linker_1, # of connection points: 2
#     Edge 17, Type (0, 0), BuildingBlock: FUNLAD_clean_linker_1, # of connection points: 2
# Relax obj value: 0.265
# Max RMSD: 0.295
# Mean RMSD: 0.258
data_MOF--net-sve--node1-HICVOG_clean_sbu_0--edge1-FUNLAD_clean_linker_1
_symmetry_space_group_name_H-M    P1
_symmetry_Int_Tables_number       1
_symmetry_cell_setting            triclinic
loop_
_symmetry_equiv_pos_as_xyz
'x, y, z'
_cell_length_a     32.805898
_cell_length_b     29.587452
_cell_length_c     21.198052
_cell_angle_alpha  96.036572
_cell_angle_beta   84.306188
_cell_angle_gamma 89.096406
loop_
_atom_site_label
_atom_site_type_symbol
_atom_site_fract_x
_atom_site_fract_y
_atom_site_fract_z
_atom_type_partial_charge
Zn0 Zn 0.15786 0.29808 0.12886 0.0
C1 C 0.09844 0.38638 0.04425 0.0
N2 N 0.06505 0.36409 0.06418 0.0
C3 C 0.08067 0.32542 0.08114 0.0
N4 N 0.12224 0.32462 0.07347 0.0
N5 N 0.13322 0.36196 0.04718 0.0
C6 C 0.21073 0.45701 0.03656 0.0
O7 O 0.21449 0.43657 0.08777 0.0
O8 O 0.14089 0.23528 0.14897 0.0
Zn9 Zn 0.18551 0.36854 0.99681 0.0
N10 N 0.15462 0.33926 0.20714 0.0
C11 C 0.15107 0.41593 0.25505 0.0
C12 C 0.15284 0.38455 0.2011 0.0
C13 C 0.15515 0.32406 0.26553 0.0
N14 N 0.15165 0.40085 0.31315 0.0
C15 C 0.15377 0.35568 0.32018 0.0
O16 O 0.23684 0.33928 0.02454 0.0
C17 C 0.24601 0.30895 0.05955 0.0
O18 O 0.21875 0.29177 0.09621 0.0
H19 H 0.15308 0.39641 0.15475 0.0
H20 H 0.15701 0.28789 0.26922 0.0
C21 C 0.17765 0.35245 0.85926 0.0
C22 C 0.17367 0.32303 0.80367 0.0
C23 C 0.17392 0.25987 0.86413 0.0
C24 C 0.17792 0.28903 0.9189 0.0
N25 N 0.17979 0.33457 0.91552 0.0
N26 N 0.17193 0.27747 0.80799 0.0
H27 H 0.17913 0.38886 0.85788 0.0
C28 C 0.15698 0.20264 0.11038 0.0
O29 O 0.17875 0.21187 0.05807 0.0
O30 O 0.19761 0.43479 0.98831 0.0
H31 H 0.17956 0.27559 0.96411 0.0
H32 H 0.14954 0.45202 0.25079 0.0
H33 H 0.17243 0.22355 0.86613 0.0
Zn34 Zn 0.7201 0.18096 0.06244 0.0
C35 C 0.6476 0.10521 0.95284 0.0
N36 N 0.67164 0.06995 0.96197 0.0
C37 C 0.70128 0.08955 0.99413 0.0
N38 N 0.69532 0.13547 0.00477 0.0
N39 N 0.66153 0.1449 0.97814 0.0
C40 C 0.56311 0.24427 0.93751 0.0
O41 O 0.5877 0.27319 0.91139 0.0
O42 O 0.78016 0.16828 0.07707 0.0
Zn43 Zn 0.64212 0.20272 0.95279 0.0
N44 N 0.68406 0.18727 0.14217 0.0
C45 C 0.61483 0.20121 0.18631 0.0
C46 C 0.64421 0.19588 0.13392 0.0
C47 C 0.69584 0.1841 0.20162 0.0
N48 N 0.6264 0.19804 0.24533 0.0
C49 C 0.66612 0.18969 0.25502 0.0
O50 O 0.66111 0.26075 1.00046 0.0
C51 C 0.69589 0.27265 0.01717 0.0
O52 O 0.72192 0.24426 0.03222 0.0
H53 H 0.63533 0.1987 0.08674 0.0
H54 H 0.72775 0.17747 0.20724 0.0
C55 C 0.65224 0.20145 0.80997 0.0
C56 C 0.67819 0.2005 0.75239 0.0
C57 C 0.73616 0.20306 0.81138 0.0
C58 C 0.7106 0.20372 0.86775 0.0
N59 N 0.66927 0.20321 0.86647 0.0
N60 N 0.71946 0.20147 0.75536 0.0
H61 H 0.61929 0.2004 0.80975 0.0
C62 C 0.80689 0.17487 0.03124 0.0
O63 O 0.79438 0.18203 0.97612 0.0
O64 O 0.57871 0.20927 0.95735 0.0
H65 H 0.72366 0.20415 0.91259 0.0
H66 H 0.58304 0.20799 0.18021 0.0
H67 H 0.76908 0.20353 0.81203 0.0
Zn68 Zn 0.87232 0.7082 0.0955 0.0
C69 C 0.83539 0.58715 0.03381 0.0
N70 N 0.86572 0.57383 0.06655 0.0
C71 C 0.88669 0.61188 0.07724 0.0
N72 N 0.86957 0.64725 0.05324 0.0
N73 N 0.83813 0.63153 0.0237 0.0
C74 C 0.73196 0.66786 0.99331 0.0
O75 O 0.74628 0.68843 0.04421 0.0
O76 O 0.93044 0.72189 0.10604 0.0
Zn77 Zn 0.81549 0.66353 0.95872 0.0
N78 N 0.84074 0.70977 0.17799 0.0
C79 C 0.77533 0.72487 0.2363 0.0
C80 C 0.80072 0.72275 0.17939 0.0
C81 C 0.85657 0.69862 0.23156 0.0
N82 N 0.79099 0.71394 0.28972 0.0
C83 C 0.83102 0.70083 0.2893 0.0
O84 O 0.81344 0.73306 0.97541 0.0
C85 C 0.82649 0.76646 0.01004 0.0
O86 O 0.84912 0.76039 0.0539 0.0
H87 H 0.78867 0.73145 0.13647 0.0
H88 H 0.88853 0.68825 0.22914 0.0
C89 C 0.83583 0.65769 0.82192 0.0
C90 C 0.86158 0.64735 0.76488 0.0
C91 C 0.91149 0.61661 0.82329 0.0
C92 C 0.88599 0.62718 0.87967 0.0
N93 N 0.84869 0.64742 0.87805 0.0
N94 N 0.8988 0.62697 0.76743 0.0
H95 H 0.80617 0.67426 0.82193 0.0
C96 C 0.95145 0.73117 0.05573 0.0
O97 O 0.93428 0.73008 0.00225 0.0
O98 O 0.75704 0.64805 0.94928 0.0
H99 H 0.89602 0.61973 0.92449 0.0
H100 H 0.74341 0.73517 0.23807 0.0
H101 H 0.94131 0.60064 0.82387 0.0
Zn102 Zn 0.38178 0.85601 0.94314 0.0
C103 C 0.33327 0.94665 0.08783 0.0
N104 N 0.35963 0.9744 0.05936 0.0
C105 C 0.38065 0.94582 0.01362 0.0
N106 N 0.36748 0.90292 0.01365 0.0
N107 N 0.33848 0.90298 0.06159 0.0
C108 C 0.24088 0.84553 0.10317 0.0
O109 O 0.2542 0.84422 0.04241 0.0
O110 O 0.44226 0.83925 0.93815 0.0
Zn111 Zn 0.32377 0.84893 0.10196 0.0
N112 N 0.36709 0.88273 0.8685 0.0
C113 C 0.3212 0.93371 0.82936 0.0
C114 C 0.33514 0.91338 0.87964 0.0
C115 C 0.38512 0.87067 0.80826 0.0
N116 N 0.3389 0.92157 0.7694 0.0
C117 C 0.37037 0.89031 0.75702 0.0
O118 O 0.32261 0.79264 0.0419 0.0
C119 C 0.33154 0.7749 0.98511 0.0
O120 O 0.35135 0.7963 0.94355 0.0
H121 H 0.32012 0.92167 0.92725 0.0
H122 H 0.40981 0.84538 0.80032 0.0
C123 C 0.35897 0.85168 0.22252 0.0
C124 C 0.38883 0.83986 0.2615 0.0
C125 C 0.42667 0.79914 0.17149 0.0
C126 C 0.3967 0.81036 0.13326 0.0
N127 N 0.36363 0.83653 0.15933 0.0
N128 N 0.422 0.81394 0.23462 0.0
H129 H 0.3321 0.87208 0.24216 0.0
C130 C 0.46158 0.84717 0.98717 0.0
O131 O 0.44298 0.86908 0.03931 0.0
O132 O 0.26628 0.85196 0.14454 0.0
H133 H 0.39967 0.79825 0.08303 0.0
H134 H 0.29599 0.95832 0.83769 0.0
H135 H 0.45327 0.77854 0.15131 0.0
H136 H 0.11796 0.44658 0.9938 0.0
C137 C 0.09547 0.43383 0.02811 0.0
H138 H 0.04262 0.44742 0.09282 0.0
H139 H 1.00367 0.64711 0.13856 0.0
H140 H 0.04925 0.6444 0.22223 0.0
H141 H 0.09629 0.57845 0.22269 0.0
H142 H 0.09843 0.51495 0.13889 0.0
C143 C 0.06332 0.46026 0.05591 0.0
C144 C 0.0517 0.50629 0.03987 0.0
C145 C 0.05122 0.54343 0.08789 0.0
C146 C 0.02387 0.5813 0.08789 0.0
C147 C 0.02357 0.61743 0.13715 0.0
C148 C 0.0496 0.61627 0.18512 0.0
C149 C 0.07609 0.57911 0.18538 0.0
C150 C 0.07695 0.54292 0.13746 0.0
H151 H 0.93467 0.58683 0.12963 0.0
C152 C 0.9294 0.60872 0.09298 0.0
H153 H 0.95444 0.63268 0.00827 0.0
H154 H 0.05216 0.44602 0.93293 0.0
H155 H 1.01079 0.45112 0.84522 0.0
H156 H 0.96307 0.51631 0.84484 0.0
H157 H 0.95656 0.57654 0.93183 0.0
C158 C 0.96045 0.61398 0.04792 0.0
C159 C 0.99697 0.58194 0.03971 0.0
C160 C 1.00177 0.54783 0.98673 0.0
C161 C 0.02921 0.51 0.9869 0.0
C162 C 0.03177 0.4753 0.93525 0.0
C163 C 1.00827 0.47787 0.88449 0.0
C164 C 0.98145 0.51459 0.88425 0.0
C165 C 0.978 0.54908 0.93469 0.0
H166 H 0.58219 0.12323 0.95409 0.0
C167 C 0.60606 0.09891 0.93297 0.0
H168 H 0.61982 0.03407 0.88416 0.0
H169 H 0.47397 0.95242 0.04743 0.0
H170 H 0.53326 0.91891 0.08515 0.0
H171 H 0.60289 0.94 0.04633 0.0
H172 H 0.61357 0.99523 0.97084 0.0
C173 C 0.59574 0.0586 0.90426 0.0
C174 C 0.55389 0.04102 0.91816 0.0
C175 C 0.54838 1.00672 0.96013 0.0
C176 C 0.50824 0.99324 0.98063 0.0
C177 C 0.50361 0.96205 0.02713 0.0
C178 C 0.53748 0.94293 0.05004 0.0
C179 C 0.57666 0.95495 0.02847 0.0
C180 C 0.58227 0.98669 0.98461 0.0
H181 H 0.43368 0.93336 0.94031 0.0
C182 C 0.41649 0.95934 0.97267 0.0
H183 H 0.41438 0.0277 0.01385 0.0
H184 H 0.55422 0.10448 0.83346 0.0
H185 H 0.49467 0.1362 0.7923 0.0
H186 H 0.42507 0.11144 0.82571 0.0
H187 H 0.41451 0.05476 0.90033 0.0
C188 C 0.43157 1.00128 0.98217 0.0
C189 C 0.47372 1.01236 0.95653 0.0
C190 C 0.4794 0.04544 0.91289 0.0
C191 C 0.51953 0.05988 0.89378 0.0
C192 C 0.52433 0.09282 0.85003 0.0
C193 C 0.49046 0.11113 0.82591 0.0
C194 C 0.45126 0.09719 0.84471 0.0
C195 C 0.44561 0.06473 0.88766 0.0
H196 H 0.15638 0.30439 0.38917 0.0
C197 C 0.15514 0.34062 0.38444 0.0
H198 H 0.15553 0.40692 0.43289 0.0
H199 H 0.09568 0.29041 0.67386 0.0
H200 H 0.03303 0.27883 0.62318 0.0
H201 H 0.02676 0.30319 0.51671 0.0
H202 H 0.08316 0.33901 0.46016 0.0
C203 C 0.15537 0.3706 0.43679 0.0
C204 C 0.15873 0.35579 0.50101 0.0
C205 C 0.1253 0.33516 0.53353 0.0
C206 C 0.12878 0.32157 0.5952 0.0
C207 C 0.09487 0.30114 0.62675 0.0
C208 C 0.05863 0.29444 0.59832 0.0
C209 C 0.05511 0.30813 0.53837 0.0
C210 C 0.08786 0.32844 0.50625 0.0
H211 H 0.17145 0.37717 0.73875 0.0
C212 C 0.17137 0.34064 0.74117 0.0
H213 H 0.16814 0.27588 0.68934 0.0
H214 H 0.22804 0.39555 0.45227 0.0
H215 H 0.29076 0.4071 0.50281 0.0
H216 H 0.29735 0.38208 0.6088 0.0
H217 H 0.24122 0.34576 0.66509 0.0
C218 C 0.16933 0.3124 0.6875 0.0
C219 C 0.16544 0.32914 0.62457 0.0
C220 C 0.1988 0.35003 0.59218 0.0
C221 C 0.19524 0.36378 0.53059 0.0
C222 C 0.22901 0.38453 0.49919 0.0
C223 C 0.26526 0.39124 0.52755 0.0
C224 C 0.26896 0.3772 0.58725 0.0
C225 C 0.23633 0.35662 0.61926 0.0
H226 H 0.70911 0.18208 0.32855 0.0
C227 C 0.67714 0.18724 0.32107 0.0
H228 H 0.61653 0.19815 0.36506 0.0
H229 H 0.70114 0.11112 0.59793 0.0
H230 H 0.71163 0.04181 0.52559 0.0
H231 H 0.69681 0.04017 0.41356 0.0
H232 H 0.67183 0.10783 0.37296 0.0
C233 C 0.64842 0.19177 0.3718 0.0
C234 C 0.65839 0.19229 0.43915 0.0
C235 C 0.67256 0.15221 0.46231 0.0
C236 C 0.68055 0.15299 0.52729 0.0
C237 C 0.69483 0.11252 0.54901 0.0
C238 C 0.7008 0.07244 0.50808 0.0
C239 C 0.69247 0.07152 0.445 0.0
C240 C 0.67836 0.11075 0.42219 0.0
H241 H 0.62909 0.20005 0.68651 0.0
C242 C 0.66201 0.19856 0.68898 0.0
H243 H 0.72055 0.19232 0.63649 0.0
H244 H 0.63026 0.27471 0.41117 0.0
H245 H 0.61888 0.34359 0.48395 0.0
H246 H 0.63306 0.34495 0.59622 0.0
H247 H 0.65839 0.27739 0.63654 0.0
C248 C 0.68767 0.19541 0.6346 0.0
C249 C 0.67377 0.19354 0.56945 0.0
C250 C 0.65875 0.23335 0.54666 0.0
C251 C 0.65088 0.23263 0.48163 0.0
C252 C 0.63642 0.27311 0.4601 0.0
C253 C 0.62992 0.313 0.50131 0.0
C254 C 0.6379 0.31376 0.56452 0.0
C255 C 0.65232 0.27461 0.58711 0.0
H256 H 0.87885 0.67856 0.3477 0.0
C257 C 0.84689 0.68926 0.34899 0.0
H258 H 0.79104 0.70376 0.40714 0.0
H259 H 0.87718 0.5723 0.59115 0.0
H260 H 0.87197 0.51147 0.50659 0.0
H261 H 0.85051 0.52759 0.40278 0.0
H262 H 0.83435 0.60464 0.38278 0.0
C263 C 0.82269 0.69176 0.40454 0.0
C264 C 0.83818 0.6818 0.46551 0.0
C265 C 0.84749 0.63647 0.47642 0.0
C266 C 0.8595 0.62713 0.53658 0.0
C267 C 0.8682 0.58146 0.54633 0.0
C268 C 0.86518 0.54614 0.49825 0.0
C269 C 0.85312 0.55522 0.4398 0.0
C270 C 0.84413 0.59972 0.42885 0.0
H271 H 0.81829 0.67297 0.70175 0.0
C272 C 0.84894 0.65879 0.703 0.0
H273 H 0.90487 0.6376 0.64882 0.0
H274 H 0.8231 0.77242 0.45995 0.0
H275 H 0.82955 0.83354 0.54374 0.0
H276 H 0.85213 0.81764 0.64694 0.0
H277 H 0.86799 0.74061 0.66724 0.0
C278 C 0.87446 0.65265 0.64873 0.0
C279 C 0.86172 0.66301 0.58604 0.0
C280 C 0.85324 0.70847 0.57462 0.0
C281 C 0.841 0.71775 0.5146 0.0
C282 C 0.83241 0.7634 0.50466 0.0
C283 C 0.83615 0.79886 0.55225 0.0
C284 C 0.84882 0.7899 0.61038 0.0
C285 C 0.85751 0.74538 0.62158 0.0
H286 H 0.41291 0.85219 0.6808 0.0
C287 C 0.387 0.87615 0.69021 0.0
H288 H 0.34393 0.91536 0.64975 0.0
H289 H 0.43417 0.92276 0.37873 0.0
H290 H 0.44458 0.99935 0.42656 0.0
H291 H 0.42769 0.02034 0.54207 0.0
H292 H 0.4004 0.96484 0.61045 0.0
C293 C 0.36933 0.89075 0.64111 0.0
C294 C 0.3839 0.87613 0.57331 0.0
C295 C 0.39986 0.90897 0.53403 0.0
C296 C 0.40941 0.89698 0.46745 0.0
C297 C 0.42575 0.93029 0.42945 0.0
C298 C 0.43207 0.97432 0.45633 0.0
C299 C 0.42257 0.98613 0.52136 0.0
C300 C 0.40676 0.95398 0.56002 0.0
H301 H 0.35785 0.87617 0.35065 0.0
C302 C 0.38398 0.85432 0.33085 0.0
H303 H 0.43556 0.81692 0.35212 0.0
H304 H 0.35201 0.80501 0.63423 0.0
H305 H 0.34331 0.72828 0.58652 0.0
H306 H 0.36225 0.70697 0.47159 0.0
H307 H 0.38964 0.7626 0.40359 0.0
C308 C 0.41009 0.84014 0.3702 0.0
C309 C 0.40278 0.85221 0.44027 0.0
C310 C 0.38832 0.81889 0.47978 0.0
C311 C 0.37826 0.83096 0.54631 0.0
C312 C 0.36146 0.79759 0.58387 0.0
C313 C 0.35601 0.75336 0.55697 0.0
C314 C 0.36662 0.74137 0.49226 0.0
C315 C 0.38239 0.77364 0.45381 0.0
H316 H 0.13573 0.14785 0.16884 0.0
C317 C 0.15656 0.15578 0.12862 0.0
H318 H 0.20476 0.1325 0.05908 0.0
H319 H 0.24776 0.98251 0.245 0.0
H320 H 0.24963 0.0435 0.33199 0.0
H321 H 0.22579 0.12138 0.31969 0.0
H322 H 0.19832 0.13847 0.22251 0.0
C323 C 0.18427 0.12444 0.09965 0.0
C324 C 0.18863 0.07754 0.1179 0.0
C325 C 0.20594 0.06925 0.17449 0.0
C326 C 0.22236 0.02522 0.18015 0.0
C327 C 0.23706 0.01628 0.23806 0.0
C328 C 0.23801 0.05074 0.28798 0.0
C329 C 0.22445 0.09457 0.2811 0.0
C330 C 0.2087 0.10397 0.22498 0.0
H331 H 0.30293 0.99709 0.15929 0.0
C332 C 0.29746 0.96588 0.13007 0.0
H333 H 0.25731 0.92892 0.07841 0.0
H334 H 0.14569 0.07891 0.01443 0.0
H335 H 0.13462 1.01453 0.93718 0.0
H336 H 0.16194 0.93803 0.94915 0.0
H337 H 0.20077 0.92554 0.03746 0.0
C338 C 0.25929 0.95662 0.11505 0.0
C339 C 0.22455 0.99132 0.12742 0.0
C340 C 0.19901 0.99673 0.07832 0.0
C341 C 0.182 0.04043 0.07261 0.0
C342 C 0.1592 0.04625 0.02064 0.0
C343 C 0.15244 1.00961 0.97635 0.0
C344 C 0.16795 0.96657 0.98298 0.0
C345 C 0.19091 0.95999 0.03331 0.0
H346 H 0.0657 0.26047 0.12364 0.0
C347 C 0.0536 0.28824 0.1009 0.0
H348 H 1.00281 0.31729 0.06471 0.0
H349 H 0.91682 0.12304 0.04002 0.0
H350 H 0.979 0.0912 0.97837 0.0
H351 H 0.04254 0.13477 0.97309 0.0
H352 H 0.04462 0.21003 0.03016 0.0
C353 C 0.01398 0.28899 0.0876 0.0
C354 C 0.98142 0.25619 0.10492 0.0
C355 C 0.98063 0.21228 0.071 0.0
C356 C 0.94343 0.18765 0.07229 0.0
C357 C 0.9438 0.14364 0.0389 0.0
C358 C 0.97931 0.12491 0.0037 0.0
C359 C 0.01512 0.14943 1.00082 0.0
C360 C 0.01591 0.19266 0.03381 0.0
H361 H 0.87029 0.19109 0.99926 0.0
C362 C 0.85064 0.18277 0.0406 0.0
H363 H 0.84598 0.18005 0.13989 0.0
H364 H 0.97416 0.33516 0.18415 0.0
H365 H 0.91222 0.36705 0.24627 0.0
H366 H 0.84726 0.3263 0.24502 0.0
H367 H 0.84369 0.2536 0.18218 0.0
C368 C 0.86577 0.18639 0.09772 0.0
C369 C 0.90669 0.20743 0.10587 0.0
C370 C 0.90845 0.24962 0.1441 0.0
C371 C 0.94579 0.27366 0.14391 0.0
C372 C 0.94639 0.31603 0.1817 0.0
C373 C 0.91117 0.33457 0.2178 0.0
C374 C 0.87462 0.31158 0.2172 0.0
C375 C 0.87306 0.26969 0.18088 0.0
H376 H 0.78889 0.81647 0.96886 0.0
C377 C 0.81145 0.81315 0.00249 0.0
H378 H 0.845 0.84845 0.07159 0.0
H379 H 0.81203 0.04082 0.9694 0.0
H380 H 0.88459 0.02878 0.93479 0.0
H381 H 0.91987 0.95636 0.94667 0.0
H382 H 0.88283 0.8953 0.99297 0.0
C383 C 0.82199 0.85077 0.03852 0.0
C384 C 0.8016 0.89629 0.03617 0.0
C385 C 0.82378 0.93212 0.01044 0.0
C386 C 0.8034 0.97417 0.00375 0.0
C387 C 0.82602 1.00848 0.97567 0.0
C388 C 0.86766 1.00199 0.9557 0.0
C389 C 0.88754 0.9612 0.96246 0.0
C390 C 0.86598 0.92648 0.98919 0.0
H391 H 0.75204 0.076 0.05401 0.0
C392 C 0.73305 0.06119 0.01854 0.0
H393 H 0.71639 1.00222 0.96275 0.0
H394 H 0.75191 0.83901 0.10019 0.0
H395 H 0.6807 0.85312 0.14088 0.0
H396 H 0.64565 0.92561 0.12937 0.0
H397 H 0.68148 0.98442 0.07578 0.0
C398 C 0.73615 0.01611 0.99781 0.0
C399 C 0.76094 0.98058 0.02336 0.0
C400 C 0.73977 0.94627 0.05437 0.0
C401 C 0.76003 0.9043 0.06098 0.0
C402 C 0.73793 0.87111 0.09272 0.0
C403 C 0.69706 0.87887 0.11671 0.0
C404 C 0.67728 0.91966 0.10998 0.0
C405 C 0.69814 0.95301 0.07901 0.0
H406 H 1.00971 0.75506 0.01311 0.0
C407 C 0.99414 0.7447 0.05679 0.0
H408 H 0.99847 0.73676 0.15395 0.0
H409 H 0.18584 0.75862 0.99953 0.0
H410 H 0.17473 0.68515 0.94284 0.0
H411 H 0.11014 0.64527 0.96446 0.0
H412 H 0.0558 0.6796 0.04141 0.0
C413 C 0.01386 0.7458 0.10942 0.0
C414 C 0.0558 0.76384 0.10868 0.0
C415 C 0.08795 0.74235 0.06589 0.0
C416 C 0.1256 0.7646 0.05532 0.0
C417 C 0.15649 0.74338 0.00974 0.0
C418 C 0.1506 0.70104 0.9769 0.0
C419 C 0.11427 0.67859 0.98904 0.0
C420 C 0.08326 0.69878 0.03309 0.0
H421 H 0.18977 0.82627 0.17009 0.0
C422 C 0.19822 0.83446 0.12181 0.0
H423 H 0.18001 0.83719 0.02954 0.0
H424 H 1.00168 0.81167 0.19927 0.0
H425 H 0.013 0.88451 0.25788 0.0
H426 H 0.07845 0.92334 0.23962 0.0
H427 H 0.13297 0.88948 0.1629 0.0
C428 C 0.1712 0.82982 0.07812 0.0
C429 C 0.13177 0.80707 0.09038 0.0
C430 C 0.10035 0.82749 0.13562 0.0
C431 C 0.06237 0.80554 0.14523 0.0
C432 C 0.03113 0.82687 0.18991 0.0
C433 C 0.0372 0.86873 0.22388 0.0
C434 C 0.07408 0.89054 0.2137 0.0
C435 C 0.10529 0.87048 0.16988 0.0
H436 H 0.80132 0.55111 0.95859 0.0
C437 C 0.80635 0.55368 0.00867 0.0
H438 H 0.79972 0.52581 0.0959 0.0
H439 H 0.68644 0.37785 0.93768 0.0
H440 H 0.64482 0.44123 0.9141 0.0
H441 H 0.66463 0.52033 0.94221 0.0
H442 H 0.72689 0.53653 0.99238 0.0
C443 C 0.79366 0.52129 0.04608 0.0
C444 C 0.78225 0.47422 0.02236 0.0
C445 C 0.74495 0.46535 0.99547 0.0
C446 C 0.73229 0.41958 0.98261 0.0
C447 C 0.69633 0.41178 0.95175 0.0
C448 C 0.67236 0.44788 0.93736 0.0
C449 C 0.6836 0.49243 0.95297 0.0
C450 C 0.71946 0.50127 0.98166 0.0
H451 H 0.6838 0.34623 0.04491 0.0
C452 C 0.70608 0.32125 0.02023 0.0
H453 H 0.76308 0.30904 0.96639 0.0
H454 H 0.8588 0.4782 0.06387 0.0
H455 H 0.89969 0.41527 0.08993 0.0
H456 H 0.87497 0.33693 0.07705 0.0
H457 H 0.80951 0.32103 0.03785 0.0
C458 C 0.74179 0.33472 0.9921 0.0
C459 C 0.75574 0.38285 1.00026 0.0
C460 C 0.79377 0.39177 0.02517 0.0
C461 C 0.80735 0.4372 0.03486 0.0
C462 C 0.84619 0.44468 0.05767 0.0
C463 C 0.87019 0.40879 0.07246 0.0
C464 C 0.85632 0.3647 0.06512 0.0
C465 C 0.81862 0.35608 0.04201 0.0
H466 H 0.51824 0.83782 0.03183 0.0
C467 C 0.50317 0.82849 0.98908 0.0
H468 H 0.50563 0.78557 0.90251 0.0
H469 H 0.69624 0.78604 0.99227 0.0
H470 H 0.69865 0.86292 0.96259 0.0
H471 H 0.63777 0.89962 0.92845 0.0
H472 H 0.57385 0.85964 0.92406 0.0
C473 C 0.52115 0.79735 0.9439 0.0
C474 C 0.55953 0.77342 0.95516 0.0
C475 C 0.59658 0.79726 0.95739 0.0
C476 C 0.63174 0.77593 0.9766 0.0
C477 C 0.66843 0.80057 0.9784 0.0
C478 C 0.67032 0.84474 0.96131 0.0
C479 C 0.63601 0.86542 0.94214 0.0
C480 C 0.59948 0.84216 0.94014 0.0
H481 H 0.67976 0.66275 0.93494 0.0
C482 C 0.68973 0.67764 0.97976 0.0
H483 H 0.67713 0.72682 0.05922 0.0
H484 H 0.49413 0.71708 0.95092 0.0
H485 H 0.49217 0.63932 0.97739 0.0
H486 H 0.55295 0.60257 0.01202 0.0
H487 H 0.61607 0.64335 0.02028 0.0
C488 C 0.66627 0.70992 0.01623 0.0
C489 C 0.62986 0.7306 0.99283 0.0
C490 C 0.59332 0.70613 0.98807 0.0
C491 C 0.55816 0.72749 0.96871 0.0
C492 C 0.52179 0.70255 0.96525 0.0
C493 C 0.52021 0.65788 0.98039 0.0
C494 C 0.55444 0.63718 0.99983 0.0
C495 C 0.59058 0.66091 0.00403 0.0
H496 H 0.23561 0.52047 0.07852 0.0
C497 C 0.22393 0.50441 0.03565 0.0
H498 H 0.2137 0.5117 0.94035 0.0
H499 H 0.24061 0.72089 0.08692 0.0
H500 H 0.17636 0.71014 0.14928 0.0
H501 H 0.13989 0.63825 0.13444 0.0
H502 H 0.16821 0.57596 0.05832 0.0
C503 C 0.22383 0.52763 0.98444 0.0
C504 C 0.242 0.57367 0.9853 0.0
C505 C 0.22431 0.61045 0.02808 0.0
C506 C 0.245 0.65232 0.03546 0.0
C507 C 0.22686 0.688 0.07984 0.0
C508 C 0.18975 0.68242 0.11585 0.0
C509 C 0.16921 0.64192 0.10751 0.0
C510 C 0.18595 0.60638 0.06389 0.0
H511 H 0.31136 0.71945 0.9172 0.0
C512 C 0.3158 0.72927 0.96684 0.0
H513 H 0.31032 0.71143 0.06077 0.0
H514 H 0.28234 0.51148 0.89497 0.0
H515 H 0.34785 0.52075 0.83477 0.0
H516 H 0.38543 0.59188 0.85089 0.0
H517 H 0.35756 0.65425 0.92641 0.0
C518 C 0.30544 0.70098 0.01142 0.0
C519 C 0.28301 0.65788 0.99891 0.0
C520 C 0.30022 0.62135 0.95495 0.0
C521 C 0.27921 0.5796 0.94725 0.0
C522 C 0.29704 0.54375 0.90308 0.0
C523 C 0.3347 0.54856 0.86825 0.0
C524 C 0.35579 0.58865 0.87719 0.0
C525 C 0.3391 0.62453 0.92028 0.0
H526 H 0.5079 0.28277 0.9205 0.0
C527 C 0.51819 0.25458 0.94447 0.0
H528 H 0.49996 0.20691 0.00846 0.0
H529 H 0.34352 0.32886 0.12917 0.0
H530 H 0.38689 0.33623 0.21541 0.0
H531 H 0.4573 0.30377 0.20071 0.0
H532 H 0.48498 0.26411 0.09926 0.0
C533 C 0.49017 0.23354 0.98128 0.0
C534 C 0.44593 0.24965 0.99129 0.0
C535 C 0.42937 0.27141 0.05154 0.0
C536 C 0.38818 0.28932 0.0605 0.0
C537 C 0.3738 0.31319 0.12017 0.0
C538 C 0.39854 0.31802 0.17006 0.0
C539 C 0.43821 0.29981 0.16176 0.0
C540 C 0.45368 0.27699 0.10326 0.0
H541 H 0.29543 0.26497 0.08645 0.0
C542 C 0.28914 0.29131 0.05639 0.0
H543 H 0.31378 0.33018 0.98464 0.0
H544 H 0.46602 0.20664 0.87163 0.0
H545 H 0.42229 0.19741 0.78576 0.0
H546 H 0.35098 0.22724 0.80134 0.0
H547 H 0.32294 0.26653 0.90282 0.0
C548 C 0.32015 0.30521 0.0167 0.0
C549 C 0.36282 0.28432 0.00966 0.0
C550 C 0.3791 0.26143 0.94991 0.0
C551 C 0.42045 0.24417 0.94078 0.0
C552 C 0.43525 0.22099 0.88087 0.0
C553 C 0.41038 0.21526 0.83122 0.0
C554 C 0.37023 0.23205 0.84001 0.0
C555 C 0.35458 0.25474 0.89851 0.0
loop_
_geom_bond_atom_site_label_1
_geom_bond_atom_site_label_2
_geom_bond_distance
_geom_bond_site_symmetry_2
_ccdc_geom_bond_type
Zn0 N4 2.020 . S
Zn0 O8 2.019 . S
Zn0 N10 2.119 . S
Zn0 O18 1.975 . S
C1 N2 1.334 . S
C1 N5 1.336 . S
N2 C1 1.334 . S
N2 C3 1.334 . S
C3 N2 1.334 . S
C3 N4 1.336 . S
N4 Zn0 2.020 . S
N4 C3 1.336 . S
N4 N5 1.354 . S
N5 C1 1.336 . S
N5 N4 1.354 . S
N5 Zn9 2.020 . S
C6 O7 1.244 . S
C6 O30 1.257 1_554 S
O7 C6 1.244 . S
O8 Zn0 2.019 . S
O8 C28 1.257 . S
Zn9 N5 2.020 . S
Zn9 O16 1.975 . S
Zn9 N25 2.119 1_554 S
Zn9 O30 2.019 1_554 S
N10 Zn0 2.119 . S
N10 C12 1.334 . S
N10 C13 1.328 . S
C11 C12 1.391 . S
C11 N14 1.329 . S
C11 H32 0.930 . S
C12 N10 1.334 . S
C12 C11 1.391 . S
C12 H19 0.930 . S
C13 N10 1.328 . S
C13 C15 1.392 . S
C13 H20 0.930 . S
N14 C11 1.329 . S
N14 C15 1.331 . S
C15 C13 1.392 . S
C15 N14 1.331 . S
O16 Zn9 1.975 . S
O16 C17 1.252 . S
C17 O16 1.252 . S
C17 O18 1.252 . S
O18 Zn0 1.975 . S
O18 C17 1.252 . S
H19 C12 0.930 . S
H20 C13 0.930 . S
C21 C22 1.392 . S
C21 N25 1.328 . S
C21 H27 0.930 . S
C22 C21 1.392 . S
C22 N26 1.331 . S
C23 C24 1.391 . S
C23 N26 1.329 . S
C23 H33 0.930 . S
C24 C23 1.391 . S
C24 N25 1.334 . S
C24 H31 0.930 . S
N25 Zn9 2.119 1_556 S
N25 C21 1.328 . S
N25 C24 1.334 . S
N26 C22 1.331 . S
N26 C23 1.329 . S
H27 C21 0.930 . S
C28 O8 1.257 . S
C28 O29 1.244 . S
O29 C28 1.244 . S
O30 C6 1.257 1_556 S
O30 Zn9 2.019 1_556 S
H31 C24 0.930 . S
H32 C11 0.930 . S
H33 C23 0.930 . S
Zn34 N38 2.020 . S
Zn34 O42 2.019 . S
Zn34 N44 2.119 . S
Zn34 O52 1.975 . S
C35 N36 1.334 1_556 S
C35 N39 1.336 . S
N36 C35 1.334 1_554 S
N36 C37 1.334 . S
C37 N36 1.334 . S
C37 N38 1.336 . S
N38 Zn34 2.020 . S
N38 C37 1.336 . S
N38 N39 1.354 1_554 S
N39 C35 1.336 . S
N39 N38 1.354 1_556 S
N39 Zn43 2.020 . S
C40 O41 1.244 1_556 S
C40 O64 1.257 . S
O41 C40 1.244 1_554 S
O42 Zn34 2.019 . S
O42 C62 1.257 . S
Zn43 N39 2.020 . S
Zn43 O50 1.975 1_556 S
Zn43 N59 2.119 . S
Zn43 O64 2.019 . S
N44 Zn34 2.119 . S
N44 C46 1.334 . S
N44 C47 1.328 . S
C45 C46 1.391 . S
C45 N48 1.329 . S
C45 H66 0.930 . S
C46 N44 1.334 . S
C46 C45 1.391 . S
C46 H53 0.930 . S
C47 N44 1.328 . S
C47 C49 1.392 . S
C47 H54 0.930 . S
N48 C45 1.329 . S
N48 C49 1.331 . S
C49 C47 1.392 . S
C49 N48 1.331 . S
O50 Zn43 1.975 1_554 S
O50 C51 1.252 . S
C51 O50 1.252 . S
C51 O52 1.252 . S
O52 Zn34 1.975 . S
O52 C51 1.252 . S
H53 C46 0.930 . S
H54 C47 0.930 . S
C55 C56 1.392 . S
C55 N59 1.328 . S
C55 H61 0.930 . S
C56 C55 1.392 . S
C56 N60 1.331 . S
C57 C58 1.391 . S
C57 N60 1.329 . S
C57 H67 0.930 . S
C58 C57 1.391 . S
C58 N59 1.334 . S
C58 H65 0.930 . S
N59 Zn43 2.119 . S
N59 C55 1.328 . S
N59 C58 1.334 . S
N60 C56 1.331 . S
N60 C57 1.329 . S
H61 C55 0.930 . S
C62 O42 1.257 . S
C62 O63 1.244 1_554 S
O63 C62 1.244 1_556 S
O64 C40 1.257 . S
O64 Zn43 2.019 . S
H65 C58 0.930 . S
H66 C45 0.930 . S
H67 C57 0.930 . S
Zn68 N72 2.020 . S
Zn68 O76 2.019 . S
Zn68 N78 2.119 . S
Zn68 O86 1.975 . S
C69 N70 1.334 1_556 S
C69 N73 1.336 1_556 S
N70 C69 1.334 1_554 S
N70 C71 1.334 . S
C71 N70 1.334 . S
C71 N72 1.336 . S
N72 Zn68 2.020 . S
N72 C71 1.336 . S
N72 N73 1.354 . S
N73 C69 1.336 1_554 S
N73 N72 1.354 . S
N73 Zn77 2.020 1_554 S
C74 O75 1.251 . S
C74 O98 1.250 1_554 S
O75 C74 1.251 . S
O76 Zn68 2.019 . S
O76 C96 1.257 . S
Zn77 N73 2.020 1_556 S
Zn77 O84 1.975 1_556 S
Zn77 N93 2.119 . S
Zn77 O98 2.019 . S
N78 Zn68 2.119 . S
N78 C80 1.334 . S
N78 C81 1.328 . S
C79 C80 1.391 . S
C79 N82 1.329 . S
C79 H100 0.930 . S
C80 N78 1.334 . S
C80 C79 1.391 . S
C80 H87 0.930 . S
C81 N78 1.328 . S
C81 C83 1.392 . S
C81 H88 0.930 . S
N82 C79 1.329 . S
N82 C83 1.331 . S
C83 C81 1.392 . S
C83 N82 1.331 . S
O84 Zn77 1.975 1_554 S
O84 C85 1.252 . S
C85 O84 1.252 . S
C85 O86 1.252 . S
O86 Zn68 1.975 . S
O86 C85 1.252 . S
H87 C80 0.930 . S
H88 C81 0.930 . S
C89 C90 1.392 . S
C89 N93 1.328 . S
C89 H95 0.930 . S
C90 C89 1.392 . S
C90 N94 1.331 . S
C91 C92 1.391 . S
C91 N94 1.329 . S
C91 H101 0.930 . S
C92 C91 1.391 . S
C92 N93 1.334 . S
C92 H99 0.930 . S
N93 Zn77 2.119 . S
N93 C89 1.328 . S
N93 C92 1.334 . S
N94 C90 1.331 . S
N94 C91 1.329 . S
H95 C89 0.930 . S
C96 O76 1.257 . S
C96 O97 1.244 . S
O97 C96 1.244 . S
O98 C74 1.250 1_556 S
O98 Zn77 2.019 . S
H99 C92 0.930 . S
H100 C79 0.930 . S
H101 C91 0.930 . S
Zn102 N106 2.020 . S
Zn102 O110 2.019 . S
Zn102 N112 2.119 . S
Zn102 O120 1.975 . S
C103 N104 1.334 . S
C103 N107 1.336 . S
N104 C103 1.334 . S
N104 C105 1.334 1_554 S
C105 N104 1.334 1_556 S
C105 N106 1.336 . S
N106 Zn102 2.020 . S
N106 C105 1.336 . S
N106 N107 1.354 1_556 S
N107 C103 1.336 . S
N107 N106 1.354 1_554 S
N107 Zn111 2.020 . S
C108 O109 1.244 1_554 S
C108 O132 1.257 . S
O109 C108 1.244 1_556 S
O110 Zn102 2.019 . S
O110 C130 1.257 . S
Zn111 N107 2.020 . S
Zn111 O118 1.975 . S
Zn111 N127 2.119 . S
Zn111 O132 2.019 . S
N112 Zn102 2.119 . S
N112 C114 1.334 . S
N112 C115 1.328 . S
C113 C114 1.391 . S
C113 N116 1.329 . S
C113 H134 0.930 . S
C114 N112 1.334 . S
C114 C113 1.391 . S
C114 H121 0.930 . S
C115 N112 1.328 . S
C115 C117 1.392 . S
C115 H122 0.930 . S
N116 C113 1.329 . S
N116 C117 1.331 . S
C117 C115 1.392 . S
C117 N116 1.331 . S
O118 Zn111 1.975 . S
O118 C119 1.252 1_554 S
C119 O118 1.252 1_556 S
C119 O120 1.252 . S
O120 Zn102 1.975 . S
O120 C119 1.252 . S
H121 C114 0.930 . S
H122 C115 0.930 . S
C123 C124 1.392 . S
C123 N127 1.328 . S
C123 H129 0.930 . S
C124 C123 1.392 . S
C124 N128 1.331 . S
C125 C126 1.391 . S
C125 N128 1.329 . S
C125 H135 0.930 . S
C126 C125 1.391 . S
C126 N127 1.334 . S
C126 H133 0.930 . S
N127 Zn111 2.119 . S
N127 C123 1.328 . S
N127 C126 1.334 . S
N128 C124 1.331 . S
N128 C125 1.329 . S
H129 C123 0.930 . S
C130 O110 1.257 . S
C130 O131 1.244 1_556 S
O131 C130 1.244 1_554 S
O132 C108 1.257 . S
O132 Zn111 2.019 . S
H133 C126 0.930 . S
H134 C113 0.930 . S
H135 C125 0.930 . S
H136 C137 0.951 . S
C137 H136 0.951 . S
C137 C143 1.265 . S
H138 C143 0.950 . S
H139 C147 0.949 . S
H140 C148 0.950 . S
H141 C149 0.951 . S
H142 C150 0.955 . S
C143 C137 1.265 . S
C143 H138 0.950 . S
C143 C144 1.478 . S
C144 C143 1.478 . S
C144 C145 1.397 1_455 S
C144 C161 1.394 1_554 S
C145 C144 1.397 1_655 S
C145 C146 1.438 . S
C145 C150 1.429 . S
C146 C145 1.438 . S
C146 C147 1.428 . S
C146 C159 1.394 . S
C147 H139 0.949 . S
C147 C146 1.428 . S
C147 C148 1.345 . S
C148 H140 0.950 . S
C148 C147 1.345 . S
C148 C149 1.424 . S
C149 H141 0.951 . S
C149 C148 1.424 . S
C149 C150 1.347 . S
C150 H142 0.955 . S
C150 C145 1.429 . S
C150 C149 1.347 . S
H151 C152 0.951 . S
C152 H151 0.951 . S
C152 C158 1.265 . S
H153 C158 0.950 . S
H154 C162 0.949 . S
H155 C163 0.950 . S
H156 C164 0.951 . S
H157 C165 0.951 . S
C158 C152 1.265 . S
C158 H153 0.950 . S
C158 C159 1.478 . S
C159 C146 1.394 . S
C159 C158 1.478 . S
C159 C160 1.397 1_554 S
C160 C159 1.397 1_556 S
C160 C161 1.438 1_655 S
C160 C165 1.429 . S
C161 C144 1.394 1_556 S
C161 C160 1.438 1_455 S
C161 C162 1.428 . S
C162 H154 0.949 . S
C162 C161 1.428 . S
C162 C163 1.345 . S
C163 H155 0.950 . S
C163 C162 1.345 . S
C163 C164 1.424 . S
C164 H156 0.951 . S
C164 C163 1.424 . S
C164 C165 1.347 1_455 S
C165 H157 0.951 . S
C165 C160 1.429 . S
C165 C164 1.347 1_655 S
H166 C167 0.951 . S
C167 H166 0.951 . S
C167 C173 1.265 . S
H168 C173 0.950 . S
H169 C177 0.949 . S
H170 C178 0.950 . S
H171 C179 0.951 . S
H172 C180 0.951 1_545 S
C173 C167 1.265 . S
C173 H168 0.950 . S
C173 C174 1.478 . S
C174 C173 1.478 . S
C174 C175 1.397 1_546 S
C174 C191 1.394 . S
C175 C174 1.397 1_564 S
C175 C176 1.438 . S
C175 C180 1.429 . S
C176 C175 1.438 . S
C176 C177 1.428 . S
C176 C189 1.394 1_554 S
C177 H169 0.949 . S
C177 C176 1.428 . S
C177 C178 1.345 . S
C178 H170 0.950 . S
C178 C177 1.345 . S
C178 C179 1.424 . S
C179 H171 0.951 . S
C179 C178 1.424 . S
C179 C180 1.347 . S
C180 H172 0.951 1_565 S
C180 C175 1.429 . S
C180 C179 1.347 . S
H181 C182 0.951 . S
C182 H181 0.951 . S
C182 C188 1.265 . S
H183 C188 0.950 . S
H184 C192 0.949 . S
H185 C193 0.950 . S
H186 C194 0.951 . S
H187 C195 0.951 . S
C188 C182 1.265 . S
C188 H183 0.950 . S
C188 C189 1.478 . S
C189 C176 1.394 1_556 S
C189 C188 1.478 . S
C189 C190 1.397 . S
C190 C189 1.397 . S
C190 C191 1.438 1_565 S
C190 C195 1.429 . S
C191 C174 1.394 . S
C191 C190 1.438 1_545 S
C191 C192 1.428 . S
C192 H184 0.949 . S
C192 C191 1.428 . S
C192 C193 1.345 . S
C193 H185 0.950 . S
C193 C192 1.345 . S
C193 C194 1.424 . S
C194 H186 0.951 . S
C194 C193 1.424 . S
C194 C195 1.347 1_545 S
C195 H187 0.951 . S
C195 C190 1.429 . S
C195 C194 1.347 1_565 S
H196 C197 0.951 . S
C197 H196 0.951 . S
C197 C203 1.265 . S
H198 C203 0.950 . S
H199 C207 0.949 . S
H200 C208 0.950 . S
H201 C209 0.951 . S
H202 C210 0.951 . S
C203 C197 1.265 . S
C203 H198 0.950 . S
C203 C204 1.478 . S
C204 C203 1.478 . S
C204 C205 1.397 . S
C204 C221 1.394 . S
C205 C204 1.397 . S
C205 C206 1.438 . S
C205 C210 1.429 . S
C206 C205 1.438 . S
C206 C207 1.428 . S
C206 C219 1.394 . S
C207 H199 0.949 . S
C207 C206 1.428 . S
C207 C208 1.345 . S
C208 H200 0.950 . S
C208 C207 1.345 . S
C208 C209 1.424 . S
C209 H201 0.951 . S
C209 C208 1.424 . S
C209 C210 1.347 . S
C210 H202 0.951 . S
C210 C205 1.429 . S
C210 C209 1.347 . S
H211 C212 0.951 . S
C212 H211 0.951 . S
C212 C218 1.265 . S
H213 C218 0.950 . S
H214 C222 0.949 . S
H215 C223 0.950 . S
H216 C224 0.951 . S
H217 C225 0.951 . S
C218 C212 1.265 . S
C218 H213 0.950 . S
C218 C219 1.478 . S
C219 C206 1.394 . S
C219 C218 1.478 . S
C219 C220 1.397 . S
C220 C219 1.397 . S
C220 C221 1.438 . S
C220 C225 1.429 . S
C221 C204 1.394 . S
C221 C220 1.438 . S
C221 C222 1.428 . S
C222 H214 0.949 . S
C222 C221 1.428 . S
C222 C223 1.345 . S
C223 H215 0.950 . S
C223 C222 1.345 . S
C223 C224 1.424 . S
C224 H216 0.951 . S
C224 C223 1.424 . S
C224 C225 1.347 . S
C225 H217 0.951 . S
C225 C220 1.429 . S
C225 C224 1.347 . S
H226 C227 0.951 . S
C227 H226 0.951 . S
C227 C233 1.265 . S
H228 C233 0.950 . S
H229 C237 0.949 . S
H230 C238 0.950 . S
H231 C239 0.951 . S
H232 C240 0.951 . S
C233 C227 1.265 . S
C233 H228 0.950 . S
C233 C234 1.478 . S
C234 C233 1.478 . S
C234 C235 1.397 . S
C234 C251 1.394 . S
C235 C234 1.397 . S
C235 C236 1.438 . S
C235 C240 1.429 . S
C236 C235 1.438 . S
C236 C237 1.428 . S
C236 C249 1.394 . S
C237 H229 0.949 . S
C237 C236 1.428 . S
C237 C238 1.345 . S
C238 H230 0.950 . S
C238 C237 1.345 . S
C238 C239 1.424 . S
C239 H231 0.951 . S
C239 C238 1.424 . S
C239 C240 1.347 . S
C240 H232 0.951 . S
C240 C235 1.429 . S
C240 C239 1.347 . S
H241 C242 0.951 . S
C242 H241 0.951 . S
C242 C248 1.265 . S
H243 C248 0.950 . S
H244 C252 0.949 . S
H245 C253 0.950 . S
H246 C254 0.951 . S
H247 C255 0.951 . S
C248 C242 1.265 . S
C248 H243 0.950 . S
C248 C249 1.478 . S
C249 C236 1.394 . S
C249 C248 1.478 . S
C249 C250 1.397 . S
C250 C249 1.397 . S
C250 C251 1.438 . S
C250 C255 1.429 . S
C251 C234 1.394 . S
C251 C250 1.438 . S
C251 C252 1.428 . S
C252 H244 0.949 . S
C252 C251 1.428 . S
C252 C253 1.345 . S
C253 H245 0.950 . S
C253 C252 1.345 . S
C253 C254 1.424 . S
C254 H246 0.951 . S
C254 C253 1.424 . S
C254 C255 1.347 . S
C255 H247 0.951 . S
C255 C250 1.429 . S
C255 C254 1.347 . S
H256 C257 0.951 . S
C257 H256 0.951 . S
C257 C263 1.265 . S
H258 C263 0.950 . S
H259 C267 0.949 . S
H260 C268 0.950 . S
H261 C269 0.951 . S
H262 C270 0.951 . S
C263 C257 1.265 . S
C263 H258 0.950 . S
C263 C264 1.478 . S
C264 C263 1.478 . S
C264 C265 1.397 . S
C264 C281 1.394 . S
C265 C264 1.397 . S
C265 C266 1.438 . S
C265 C270 1.429 . S
C266 C265 1.438 . S
C266 C267 1.428 . S
C266 C279 1.394 . S
C267 H259 0.949 . S
C267 C266 1.428 . S
C267 C268 1.345 . S
C268 H260 0.950 . S
C268 C267 1.345 . S
C268 C269 1.424 . S
C269 H261 0.951 . S
C269 C268 1.424 . S
C269 C270 1.347 . S
C270 H262 0.951 . S
C270 C265 1.429 . S
C270 C269 1.347 . S
H271 C272 0.951 . S
C272 H271 0.951 . S
C272 C278 1.265 . S
H273 C278 0.950 . S
H274 C282 0.949 . S
H275 C283 0.950 . S
H276 C284 0.951 . S
H277 C285 0.951 . S
C278 C272 1.265 . S
C278 H273 0.950 . S
C278 C279 1.478 . S
C279 C266 1.394 . S
C279 C278 1.478 . S
C279 C280 1.397 . S
C280 C279 1.397 . S
C280 C281 1.438 . S
C280 C285 1.429 . S
C281 C264 1.394 . S
C281 C280 1.438 . S
C281 C282 1.428 . S
C282 H274 0.949 . S
C282 C281 1.428 . S
C282 C283 1.345 . S
C283 H275 0.950 . S
C283 C282 1.345 . S
C283 C284 1.424 . S
C284 H276 0.951 . S
C284 C283 1.424 . S
C284 C285 1.347 . S
C285 H277 0.951 . S
C285 C280 1.429 . S
C285 C284 1.347 . S
H286 C287 0.951 . S
C287 H286 0.951 . S
C287 C293 1.265 . S
H288 C293 0.950 . S
H289 C297 0.949 . S
H290 C298 0.950 . S
H291 C299 0.951 . S
H292 C300 0.951 . S
C293 C287 1.265 . S
C293 H288 0.950 . S
C293 C294 1.478 . S
C294 C293 1.478 . S
C294 C295 1.397 . S
C294 C311 1.394 . S
C295 C294 1.397 . S
C295 C296 1.438 . S
C295 C300 1.429 . S
C296 C295 1.438 . S
C296 C297 1.428 . S
C296 C309 1.394 . S
C297 H289 0.949 . S
C297 C296 1.428 . S
C297 C298 1.345 . S
C298 H290 0.950 . S
C298 C297 1.345 . S
C298 C299 1.424 . S
C299 H291 0.951 . S
C299 C298 1.424 . S
C299 C300 1.347 . S
C300 H292 0.951 . S
C300 C295 1.429 . S
C300 C299 1.347 . S
H301 C302 0.951 . S
C302 H301 0.951 . S
C302 C308 1.265 . S
H303 C308 0.950 . S
H304 C312 0.949 . S
H305 C313 0.950 . S
H306 C314 0.951 . S
H307 C315 0.951 . S
C308 C302 1.265 . S
C308 H303 0.950 . S
C308 C309 1.478 . S
C309 C296 1.394 . S
C309 C308 1.478 . S
C309 C310 1.397 . S
C310 C309 1.397 . S
C310 C311 1.438 . S
C310 C315 1.429 . S
C311 C294 1.394 . S
C311 C310 1.438 . S
C311 C312 1.428 . S
C312 H304 0.949 . S
C312 C311 1.428 . S
C312 C313 1.345 . S
C313 H305 0.950 . S
C313 C312 1.345 . S
C313 C314 1.424 . S
C314 H306 0.951 . S
C314 C313 1.424 . S
C314 C315 1.347 . S
C315 H307 0.951 . S
C315 C310 1.429 . S
C315 C314 1.347 . S
H316 C317 0.951 . S
C317 H316 0.951 . S
C317 C323 1.265 . S
H318 C323 0.950 . S
H319 C327 0.937 1_565 S
H320 C328 0.950 . S
H321 C329 0.951 . S
H322 C330 0.951 . S
C323 C317 1.265 . S
C323 H318 0.950 . S
C323 C324 1.478 . S
C324 C323 1.478 . S
C324 C325 1.397 . S
C324 C341 1.394 . S
C325 C324 1.397 . S
C325 C326 1.438 . S
C325 C330 1.429 . S
C326 C325 1.438 . S
C326 C327 1.433 . S
C326 C339 1.394 1_545 S
C327 H319 0.937 1_545 S
C327 C326 1.433 . S
C327 C328 1.351 . S
C328 H320 0.950 . S
C328 C327 1.351 . S
C328 C329 1.424 . S
C329 H321 0.951 . S
C329 C328 1.424 . S
C329 C330 1.347 . S
C330 H322 0.951 . S
C330 C325 1.429 . S
C330 C329 1.347 . S
H331 C332 0.951 . S
C332 H331 0.951 . S
C332 C338 1.265 . S
H333 C338 0.950 . S
H334 C342 0.949 . S
H335 C343 0.950 . S
H336 C344 0.951 . S
H337 C345 0.951 . S
C338 C332 1.265 . S
C338 H333 0.950 . S
C338 C339 1.478 . S
C339 C326 1.394 1_565 S
C339 C338 1.478 . S
C339 C340 1.397 1_565 S
C340 C339 1.397 1_545 S
C340 C341 1.438 . S
C340 C345 1.429 1_544 S
C341 C324 1.394 . S
C341 C340 1.438 . S
C341 C342 1.428 1_554 S
C342 H334 0.949 . S
C342 C341 1.428 1_556 S
C342 C343 1.345 . S
C343 H335 0.950 . S
C343 C342 1.345 . S
C343 C344 1.424 1_545 S
C344 H336 0.951 . S
C344 C343 1.424 1_565 S
C344 C345 1.347 . S
C345 H337 0.951 . S
C345 C340 1.429 1_566 S
C345 C344 1.347 . S
H346 C347 0.951 . S
C347 H346 0.951 . S
C347 C353 1.265 . S
H348 C353 0.950 . S
H349 C357 0.949 . S
H350 C358 0.950 . S
H351 C359 0.951 1_455 S
H352 C360 0.951 . S
C353 C347 1.265 . S
C353 H348 0.950 . S
C353 C354 1.478 1_455 S
C354 C353 1.478 1_655 S
C354 C355 1.397 . S
C354 C371 1.394 . S
C355 C354 1.397 . S
C355 C356 1.438 . S
C355 C360 1.429 1_655 S
C356 C355 1.438 . S
C356 C357 1.428 . S
C356 C369 1.394 . S
C357 H349 0.949 . S
C357 C356 1.428 . S
C357 C358 1.345 . S
C358 H350 0.950 . S
C358 C357 1.345 . S
C358 C359 1.424 . S
C359 H351 0.951 1_655 S
C359 C358 1.424 . S
C359 C360 1.347 1_655 S
C360 H352 0.951 . S
C360 C355 1.429 1_455 S
C360 C359 1.347 1_455 S
H361 C362 0.951 . S
C362 H361 0.951 . S
C362 C368 1.265 . S
H363 C368 0.950 . S
H364 C372 0.949 1_455 S
H365 C373 0.950 . S
H366 C374 0.951 . S
H367 C375 0.951 . S
C368 C362 1.265 . S
C368 H363 0.950 . S
C368 C369 1.478 . S
C369 C356 1.394 . S
C369 C368 1.478 . S
C369 C370 1.397 . S
C370 C369 1.397 . S
C370 C371 1.438 . S
C370 C375 1.429 . S
C371 C354 1.394 . S
C371 C370 1.438 . S
C371 C372 1.428 . S
C372 H364 0.949 1_655 S
C372 C371 1.428 . S
C372 C373 1.345 . S
C373 H365 0.950 . S
C373 C372 1.345 . S
C373 C374 1.424 . S
C374 H366 0.951 . S
C374 C373 1.424 . S
C374 C375 1.347 . S
C375 H367 0.951 . S
C375 C370 1.429 . S
C375 C374 1.347 . S
H376 C377 0.951 . S
C377 H376 0.951 . S
C377 C383 1.265 . S
H378 C383 0.950 . S
H379 C387 0.949 1_545 S
H380 C388 0.950 1_545 S
H381 C389 0.951 . S
H382 C390 0.951 . S
C383 C377 1.265 . S
C383 H378 0.950 . S
C383 C384 1.478 . S
C384 C383 1.478 . S
C384 C385 1.397 1_554 S
C384 C401 1.394 . S
C385 C384 1.397 1_556 S
C385 C386 1.438 . S
C385 C390 1.429 . S
C386 C385 1.438 . S
C386 C387 1.428 . S
C386 C399 1.394 1_556 S
C387 H379 0.949 1_565 S
C387 C386 1.428 . S
C387 C388 1.345 . S
C388 H380 0.950 1_565 S
C388 C387 1.345 . S
C388 C389 1.424 . S
C389 H381 0.951 . S
C389 C388 1.424 . S
C389 C390 1.347 . S
C390 H382 0.951 . S
C390 C385 1.429 . S
C390 C389 1.347 . S
H391 C392 0.951 . S
C392 H391 0.951 . S
C392 C398 1.265 . S
H393 C398 0.950 . S
H394 C402 0.949 . S
H395 C403 0.950 . S
H396 C404 0.951 . S
H397 C405 0.951 . S
C398 C392 1.265 . S
C398 H393 0.950 . S
C398 C399 1.478 1_545 S
C399 C386 1.394 1_554 S
C399 C398 1.478 1_565 S
C399 C400 1.397 . S
C400 C399 1.397 . S
C400 C401 1.438 . S
C400 C405 1.429 . S
C401 C384 1.394 . S
C401 C400 1.438 . S
C401 C402 1.428 . S
C402 H394 0.949 . S
C402 C401 1.428 . S
C402 C403 1.345 . S
C403 H395 0.950 . S
C403 C402 1.345 . S
C403 C404 1.424 . S
C404 H396 0.951 . S
C404 C403 1.424 . S
C404 C405 1.347 . S
C405 H397 0.951 . S
C405 C400 1.429 . S
C405 C404 1.347 . S
H406 C407 0.951 . S
C407 H406 0.951 . S
C407 C413 1.265 1_655 S
H408 C413 0.950 . S
H409 C417 0.949 . S
H410 C418 0.950 . S
H411 C419 0.951 . S
H412 C420 0.951 . S
C413 C407 1.265 1_455 S
C413 H408 0.950 . S
C413 C414 1.478 . S
C414 C413 1.478 . S
C414 C415 1.397 1_554 S
C414 C431 1.394 . S
C415 C414 1.397 1_556 S
C415 C416 1.438 . S
C415 C420 1.429 . S
C416 C415 1.438 . S
C416 C417 1.428 . S
C416 C429 1.394 1_556 S
C417 H409 0.949 . S
C417 C416 1.428 . S
C417 C418 1.345 . S
C418 H410 0.950 . S
C418 C417 1.345 . S
C418 C419 1.424 . S
C419 H411 0.951 . S
C419 C418 1.424 . S
C419 C420 1.347 . S
C420 H412 0.951 . S
C420 C415 1.429 . S
C420 C419 1.347 . S
H421 C422 0.951 . S
C422 H421 0.951 . S
C422 C428 1.265 . S
H423 C428 0.950 . S
H424 C432 0.949 1_655 S
H425 C433 0.950 . S
H426 C434 0.951 . S
H427 C435 0.951 . S
C428 C422 1.265 . S
C428 H423 0.950 . S
C428 C429 1.478 . S
C429 C416 1.394 1_554 S
C429 C428 1.478 . S
C429 C430 1.397 . S
C430 C429 1.397 . S
C430 C431 1.438 . S
C430 C435 1.429 . S
C431 C414 1.394 . S
C431 C430 1.438 . S
C431 C432 1.428 . S
C432 H424 0.949 1_455 S
C432 C431 1.428 . S
C432 C433 1.345 . S
C433 H425 0.950 . S
C433 C432 1.345 . S
C433 C434 1.424 . S
C434 H426 0.951 . S
C434 C433 1.424 . S
C434 C435 1.347 . S
C435 H427 0.951 . S
C435 C430 1.429 . S
C435 C434 1.347 . S
H436 C437 0.951 . S
C437 H436 0.951 . S
C437 C443 1.265 . S
H438 C443 0.950 . S
H439 C447 0.949 . S
H440 C448 0.950 . S
H441 C449 0.951 . S
H442 C450 0.951 . S
C443 C437 1.265 . S
C443 H438 0.950 . S
C443 C444 1.478 . S
C444 C443 1.478 . S
C444 C445 1.397 . S
C444 C461 1.394 1_556 S
C445 C444 1.397 . S
C445 C446 1.438 . S
C445 C450 1.429 . S
C446 C445 1.438 . S
C446 C447 1.428 . S
C446 C459 1.394 1_556 S
C447 H439 0.949 . S
C447 C446 1.428 . S
C447 C448 1.345 . S
C448 H440 0.950 . S
C448 C447 1.345 . S
C448 C449 1.424 . S
C449 H441 0.951 . S
C449 C448 1.424 . S
C449 C450 1.347 . S
C450 H442 0.951 . S
C450 C445 1.429 . S
C450 C449 1.347 . S
H451 C452 0.951 . S
C452 H451 0.951 . S
C452 C458 1.265 . S
H453 C458 0.950 . S
H454 C462 0.949 . S
H455 C463 0.950 . S
H456 C464 0.951 . S
H457 C465 0.951 . S
C458 C452 1.265 . S
C458 H453 0.950 . S
C458 C459 1.478 . S
C459 C446 1.394 1_554 S
C459 C458 1.478 . S
C459 C460 1.397 . S
C460 C459 1.397 . S
C460 C461 1.438 . S
C460 C465 1.429 . S
C461 C444 1.394 1_554 S
C461 C460 1.438 . S
C461 C462 1.428 . S
C462 H454 0.949 . S
C462 C461 1.428 . S
C462 C463 1.345 . S
C463 H455 0.950 . S
C463 C462 1.345 . S
C463 C464 1.424 . S
C464 H456 0.951 . S
C464 C463 1.424 . S
C464 C465 1.347 . S
C465 H457 0.951 . S
C465 C460 1.429 . S
C465 C464 1.347 . S
H466 C467 0.951 1_554 S
C467 H466 0.951 1_556 S
C467 C473 1.265 . S
H468 C473 0.950 . S
H469 C477 0.949 . S
H470 C478 0.950 . S
H471 C479 0.951 . S
H472 C480 0.951 . S
C473 C467 1.265 . S
C473 H468 0.950 . S
C473 C474 1.478 . S
C474 C473 1.478 . S
C474 C475 1.397 . S
C474 C491 1.394 . S
C475 C474 1.397 . S
C475 C476 1.438 . S
C475 C480 1.429 . S
C476 C475 1.438 . S
C476 C477 1.428 . S
C476 C489 1.394 . S
C477 H469 0.949 . S
C477 C476 1.428 . S
C477 C478 1.345 . S
C478 H470 0.950 . S
C478 C477 1.345 . S
C478 C479 1.424 . S
C479 H471 0.951 . S
C479 C478 1.424 . S
C479 C480 1.347 . S
C480 H472 0.951 . S
C480 C475 1.429 . S
C480 C479 1.347 . S
H481 C482 0.951 . S
C482 H481 0.951 . S
C482 C488 1.265 1_556 S
H483 C488 0.950 . S
H484 C492 0.949 1_556 S
H485 C493 0.950 . S
H486 C494 0.951 . S
H487 C495 0.951 . S
C488 C482 1.265 1_554 S
C488 H483 0.950 . S
C488 C489 1.478 1_554 S
C489 C476 1.394 . S
C489 C488 1.478 1_556 S
C489 C490 1.397 1_556 S
C490 C489 1.397 1_554 S
C490 C491 1.438 1_554 S
C490 C495 1.429 . S
C491 C474 1.394 . S
C491 C490 1.438 1_556 S
C491 C492 1.428 1_556 S
C492 H484 0.949 1_554 S
C492 C491 1.428 1_554 S
C492 C493 1.345 . S
C493 H485 0.950 . S
C493 C492 1.345 . S
C493 C494 1.424 . S
C494 H486 0.951 . S
C494 C493 1.424 . S
C494 C495 1.347 . S
C495 H487 0.951 . S
C495 C490 1.429 . S
C495 C494 1.347 . S
H496 C497 0.951 . S
C497 H496 0.951 . S
C497 C503 1.265 . S
H498 C503 0.950 . S
H499 C507 0.949 . S
H500 C508 0.950 . S
H501 C509 0.951 . S
H502 C510 0.951 . S
C503 C497 1.265 . S
C503 H498 0.950 . S
C503 C504 1.478 . S
C504 C503 1.478 . S
C504 C505 1.397 . S
C504 C521 1.394 1_554 S
C505 C504 1.397 . S
C505 C506 1.438 . S
C505 C510 1.429 . S
C506 C505 1.438 . S
C506 C507 1.428 . S
C506 C519 1.394 . S
C507 H499 0.949 . S
C507 C506 1.428 . S
C507 C508 1.345 . S
C508 H500 0.950 . S
C508 C507 1.345 . S
C508 C509 1.424 . S
C509 H501 0.951 . S
C509 C508 1.424 . S
C509 C510 1.347 . S
C510 H502 0.951 . S
C510 C505 1.429 . S
C510 C509 1.347 . S
H511 C512 0.951 1_554 S
C512 H511 0.951 1_556 S
C512 C518 1.265 . S
H513 C518 0.950 . S
H514 C522 0.949 . S
H515 C523 0.950 . S
H516 C524 0.951 . S
H517 C525 0.951 . S
C518 C512 1.265 . S
C518 H513 0.950 . S
C518 C519 1.478 1_556 S
C519 C506 1.394 . S
C519 C518 1.478 1_554 S
C519 C520 1.397 1_554 S
C520 C519 1.397 1_556 S
C520 C521 1.438 . S
C520 C525 1.429 . S
C521 C504 1.394 1_556 S
C521 C520 1.438 . S
C521 C522 1.428 . S
C522 H514 0.949 . S
C522 C521 1.428 . S
C522 C523 1.345 . S
C523 H515 0.950 . S
C523 C522 1.345 . S
C523 C524 1.424 . S
C524 H516 0.951 . S
C524 C523 1.424 . S
C524 C525 1.347 . S
C525 H517 0.951 . S
C525 C520 1.429 . S
C525 C524 1.347 . S
H526 C527 0.951 . S
C527 H526 0.951 . S
C527 C533 1.263 1_554 S
H528 C533 0.952 . S
H529 C537 0.949 . S
H530 C538 0.950 . S
H531 C539 0.951 . S
H532 C540 0.951 . S
C533 C527 1.263 1_556 S
C533 H528 0.952 . S
C533 C534 1.477 1_556 S
C534 C533 1.477 1_554 S
C534 C535 1.397 . S
C534 C551 1.394 1_554 S
C535 C534 1.397 . S
C535 C536 1.438 . S
C535 C540 1.429 . S
C536 C535 1.438 . S
C536 C537 1.428 . S
C536 C549 1.394 . S
C537 H529 0.949 . S
C537 C536 1.428 . S
C537 C538 1.345 . S
C538 H530 0.950 . S
C538 C537 1.345 . S
C538 C539 1.424 . S
C539 H531 0.951 . S
C539 C538 1.424 . S
C539 C540 1.347 . S
C540 H532 0.951 . S
C540 C535 1.429 . S
C540 C539 1.347 . S
H541 C542 0.951 . S
C542 H541 0.951 . S
C542 C548 1.265 . S
H543 C548 0.950 . S
H544 C552 0.949 . S
H545 C553 0.950 . S
H546 C554 0.951 . S
H547 C555 0.951 . S
C548 C542 1.265 . S
C548 H543 0.950 . S
C548 C549 1.478 . S
C549 C536 1.394 . S
C549 C548 1.478 . S
C549 C550 1.397 1_554 S
C550 C549 1.397 1_556 S
C550 C551 1.438 . S
C550 C555 1.429 . S
C551 C534 1.394 1_556 S
C551 C550 1.438 . S
C551 C552 1.428 . S
C552 H544 0.949 . S
C552 C551 1.428 . S
C552 C553 1.345 . S
C553 H545 0.950 . S
C553 C552 1.345 . S
C553 C554 1.424 . S
C554 H546 0.951 . S
C554 C553 1.424 . S
C554 C555 1.347 . S
C555 H547 0.951 . S
C555 C550 1.429 . S
C555 C554 1.347 . S
C137 C1 1.805 . S
C152 C71 1.743 . S
C167 C35 1.892 . S
C182 C105 1.873 . S
C197 C15 1.651 . S
C212 C22 1.642 . S
C227 C49 1.708 . S
C242 C56 1.708 . S
C257 C83 1.659 . S
C272 C90 1.661 . S
C287 C117 1.984 . S
C302 C124 1.988 . S
C317 C28 1.296 . S
C332 C103 1.158 . S
C347 C3 1.566 . S
C362 C62 1.762 . S
C377 C85 1.806 . S
C392 C37 1.741 . S
C407 C96 0.742 . S
C422 C108 0.686 . S
C437 C69 1.670 . S
C452 C51 1.907 . S
C467 C130 0.722 . S
C482 C74 0.743 1_556 S
C497 C6 0.892 . S
C512 C119 0.873 . S
C527 C40 1.516 1_554 S
C542 C17 1.508 . S
