# Generated by pormake.
# Topology xfz, (5)-cn, num edge types: 1
# Building blocks:
#     Node 0, Type 0, BuildingBlock: BEQFEK_clean_sbu_0, # of connection points: 5
#     Node 1, Type 0, BuildingBlock: BEQFEK_clean_sbu_0, # of connection points: 5
#     Node 2, Type 0, BuildingBlock: BEQFEK_clean_sbu_0, # of connection points: 5
#     Node 3, Type 0, BuildingBlock: BEQFEK_clean_sbu_0, # of connection points: 5
#     Node 4, Type 0, BuildingBlock: BEQFEK_clean_sbu_0, # of connection points: 5
#     Node 5, Type 0, BuildingBlock: BEQFEK_clean_sbu_0, # of connection points: 5
#     Node 6, Type 0, BuildingBlock: BEQFEK_clean_sbu_0, # of connection points: 5
#     Node 7, Type 0, BuildingBlock: BEQFEK_clean_sbu_0, # of connection points: 5
#     Node 8, Type 0, BuildingBlock: BEQFEK_clean_sbu_0, # of connection points: 5
#     Node 9, Type 0, BuildingBlock: BEQFEK_clean_sbu_0, # of connection points: 5
#     Node 10, Type 0, BuildingBlock: BEQFEK_clean_sbu_0, # of connection points: 5
#     Node 11, Type 0, BuildingBlock: BEQFEK_clean_sbu_0, # of connection points: 5
#     Node 12, Type 0, BuildingBlock: BEQFEK_clean_sbu_0, # of connection points: 5
#     Node 13, Type 0, BuildingBlock: BEQFEK_clean_sbu_0, # of connection points: 5
#     Node 14, Type 0, BuildingBlock: BEQFEK_clean_sbu_0, # of connection points: 5
#     Node 15, Type 0, BuildingBlock: BEQFEK_clean_sbu_0, # of connection points: 5
#     Edge 16, Type (0, 0), BuildingBlock: UVAHIK_clean_linker_0, # of connection points: 2
#     Edge 17, Type (0, 0), BuildingBlock: UVAHIK_clean_linker_0, # of connection points: 2
#     Edge 18, Type (0, 0), BuildingBlock: UVAHIK_clean_linker_0, # of connection points: 2
#     Edge 19, Type (0, 0), BuildingBlock: UVAHIK_clean_linker_0, # of connection points: 2
#     Edge 20, Type (0, 0), BuildingBlock: UVAHIK_clean_linker_0, # of connection points: 2
#     Edge 21, Type (0, 0), BuildingBlock: UVAHIK_clean_linker_0, # of connection points: 2
#     Edge 22, Type (0, 0), BuildingBlock: UVAHIK_clean_linker_0, # of connection points: 2
#     Edge 23, Type (0, 0), BuildingBlock: UVAHIK_clean_linker_0, # of connection points: 2
#     Edge 24, Type (0, 0), BuildingBlock: UVAHIK_clean_linker_0, # of connection points: 2
#     Edge 25, Type (0, 0), BuildingBlock: UVAHIK_clean_linker_0, # of connection points: 2
#     Edge 26, Type (0, 0), BuildingBlock: UVAHIK_clean_linker_0, # of connection points: 2
#     Edge 27, Type (0, 0), BuildingBlock: UVAHIK_clean_linker_0, # of connection points: 2
#     Edge 28, Type (0, 0), BuildingBlock: UVAHIK_clean_linker_0, # of connection points: 2
#     Edge 29, Type (0, 0), BuildingBlock: UVAHIK_clean_linker_0, # of connection points: 2
#     Edge 30, Type (0, 0), BuildingBlock: UVAHIK_clean_linker_0, # of connection points: 2
#     Edge 31, Type (0, 0), BuildingBlock: UVAHIK_clean_linker_0, # of connection points: 2
#     Edge 32, Type (0, 0), BuildingBlock: UVAHIK_clean_linker_0, # of connection points: 2
#     Edge 33, Type (0, 0), BuildingBlock: UVAHIK_clean_linker_0, # of connection points: 2
#     Edge 34, Type (0, 0), BuildingBlock: UVAHIK_clean_linker_0, # of connection points: 2
#     Edge 35, Type (0, 0), BuildingBlock: UVAHIK_clean_linker_0, # of connection points: 2
#     Edge 36, Type (0, 0), BuildingBlock: UVAHIK_clean_linker_0, # of connection points: 2
#     Edge 37, Type (0, 0), BuildingBlock: UVAHIK_clean_linker_0, # of connection points: 2
#     Edge 38, Type (0, 0), BuildingBlock: UVAHIK_clean_linker_0, # of connection points: 2
#     Edge 39, Type (0, 0), BuildingBlock: UVAHIK_clean_linker_0, # of connection points: 2
#     Edge 40, Type (0, 0), BuildingBlock: UVAHIK_clean_linker_0, # of connection points: 2
#     Edge 41, Type (0, 0), BuildingBlock: UVAHIK_clean_linker_0, # of connection points: 2
#     Edge 42, Type (0, 0), BuildingBlock: UVAHIK_clean_linker_0, # of connection points: 2
#     Edge 43, Type (0, 0), BuildingBlock: UVAHIK_clean_linker_0, # of connection points: 2
#     Edge 44, Type (0, 0), BuildingBlock: UVAHIK_clean_linker_0, # of connection points: 2
#     Edge 45, Type (0, 0), BuildingBlock: UVAHIK_clean_linker_0, # of connection points: 2
#     Edge 46, Type (0, 0), BuildingBlock: UVAHIK_clean_linker_0, # of connection points: 2
#     Edge 47, Type (0, 0), BuildingBlock: UVAHIK_clean_linker_0, # of connection points: 2
#     Edge 48, Type (0, 0), BuildingBlock: UVAHIK_clean_linker_0, # of connection points: 2
#     Edge 49, Type (0, 0), BuildingBlock: UVAHIK_clean_linker_0, # of connection points: 2
#     Edge 50, Type (0, 0), BuildingBlock: UVAHIK_clean_linker_0, # of connection points: 2
#     Edge 51, Type (0, 0), BuildingBlock: UVAHIK_clean_linker_0, # of connection points: 2
#     Edge 52, Type (0, 0), BuildingBlock: UVAHIK_clean_linker_0, # of connection points: 2
#     Edge 53, Type (0, 0), BuildingBlock: UVAHIK_clean_linker_0, # of connection points: 2
#     Edge 54, Type (0, 0), BuildingBlock: UVAHIK_clean_linker_0, # of connection points: 2
#     Edge 55, Type (0, 0), BuildingBlock: UVAHIK_clean_linker_0, # of connection points: 2
# Relax obj value: 0.368
# Max RMSD: 0.176
# Mean RMSD: 0.176
data_MOF--net-xfz--node1-BEQFEK_clean_sbu_0--edge1-UVAHIK_clean_linker_0
_symmetry_space_group_name_H-M    P1
_symmetry_Int_Tables_number       1
_symmetry_cell_setting            triclinic
loop_
_symmetry_equiv_pos_as_xyz
'x, y, z'
_cell_length_a     58.389339
_cell_length_b     58.379985
_cell_length_c     64.688313
_cell_angle_alpha  89.994279
_cell_angle_beta   90.005448
_cell_angle_gamma 90.005199
loop_
_atom_site_label
_atom_site_type_symbol
_atom_site_fract_x
_atom_site_fract_y
_atom_site_fract_z
_atom_type_partial_charge
Co0 Co 0.15161 0.47486 0.36268 0.0
Co1 Co 0.19979 0.46474 0.34374 0.0
C2 C 0.15858 0.43483 0.33483 0.0
O3 O 0.14592 0.44657 0.34677 0.0
O4 O 0.17959 0.43997 0.33221 0.0
C5 C 0.11182 0.46522 0.38625 0.0
O6 O 0.11929 0.44407 0.38457 0.0
C7 C 0.24131 0.43688 0.34103 0.0
C8 C 0.26472 0.45883 0.32296 0.0
C9 C 0.2632 0.43765 0.33259 0.0
N10 N 0.23059 0.45671 0.33675 0.0
N11 N 0.24469 0.46979 0.32599 0.0
C12 C 0.23008 0.41714 0.3518 0.0
H13 H 0.23612 0.41633 0.36803 0.0
H14 H 0.23466 0.40078 0.34409 0.0
H15 H 0.21124 0.41925 0.35207 0.0
C16 C 0.17832 0.4764 0.4013 0.0
N17 N 0.17667 0.47216 0.3809 0.0
N18 N 0.19724 0.46858 0.37323 0.0
C19 C 0.21273 0.47074 0.3887 0.0
C20 C 0.2012 0.4757 0.40699 0.0
C21 C 0.1583 0.48165 0.41497 0.0
H22 H 0.14914 0.49692 0.40899 0.0
H23 H 0.14633 0.46693 0.41474 0.0
H24 H 0.16347 0.48469 0.43123 0.0
O25 O 0.15678 0.50055 0.34308 0.0
O26 O 0.19094 0.49368 0.32912 0.0
H27 H 0.24251 0.47982 0.37107 0.0
H28 H 0.24699 0.47931 0.39878 0.0
C29 C 0.23813 0.47085 0.38565 0.0
H30 H 0.24434 0.45296 0.38456 0.0
H31 H 0.24054 0.48608 0.32049 0.0
O32 O 0.12332 0.4814 0.37819 0.0
C33 C 0.17285 0.50587 0.33062 0.0
Co34 Co 0.47676 0.84897 0.66294 0.0
Co35 Co 0.46544 0.8013 0.68243 0.0
C36 C 0.43591 0.84327 0.68987 0.0
O37 O 0.44806 0.85554 0.67791 0.0
O38 O 0.44076 0.82228 0.69309 0.0
C39 C 0.47036 0.89044 0.64014 0.0
O40 O 0.44854 0.88676 0.64384 0.0
C41 C 0.43698 0.7601 0.68527 0.0
C42 C 0.4585 0.73672 0.70378 0.0
C43 C 0.43748 0.73829 0.6939 0.0
N44 N 0.45682 0.77074 0.6897 0.0
N45 N 0.46963 0.75665 0.70074 0.0
C46 C 0.41752 0.77134 0.67411 0.0
H47 H 0.41713 0.76533 0.65786 0.0
H48 H 0.40097 0.76677 0.68148 0.0
H49 H 0.41965 0.79019 0.6739 0.0
C50 C 0.4782 0.82178 0.62477 0.0
N51 N 0.47392 0.82367 0.64513 0.0
N52 N 0.47004 0.80324 0.65297 0.0
C53 C 0.47217 0.78756 0.63765 0.0
C54 C 0.47739 0.79886 0.61928 0.0
C55 C 0.48345 0.84165 0.61091 0.0
H56 H 0.49983 0.84965 0.61578 0.0
H57 H 0.46968 0.85459 0.61238 0.0
H58 H 0.48466 0.83648 0.59446 0.0
O59 O 0.50171 0.84366 0.68326 0.0
O60 O 0.4941 0.80986 0.69758 0.0
H61 H 0.48036 0.75782 0.6557 0.0
H62 H 0.48047 0.75309 0.62801 0.0
C63 C 0.47183 0.76219 0.6409 0.0
H64 H 0.45382 0.75625 0.64167 0.0
H65 H 0.48588 0.76073 0.70637 0.0
O66 O 0.48518 0.87639 0.6469 0.0
C67 C 0.50653 0.82777 0.69606 0.0
Co68 Co 0.8469 0.52241 0.36181 0.0
Co69 Co 0.79993 0.53619 0.34234 0.0
C70 C 0.84262 0.56401 0.33488 0.0
O71 O 0.85433 0.55048 0.3461 0.0
O72 O 0.8212 0.56086 0.33228 0.0
C73 C 0.8876 0.52884 0.38547 0.0
O74 O 0.88316 0.55068 0.38264 0.0
C75 C 0.76023 0.56602 0.33688 0.0
C76 C 0.73388 0.54233 0.32493 0.0
C77 C 0.73747 0.56498 0.3306 0.0
N78 N 0.76953 0.54507 0.33494 0.0
N79 N 0.75375 0.531 0.32766 0.0
C80 C 0.77261 0.5859 0.34629 0.0
H81 H 0.78689 0.57978 0.35618 0.0
H82 H 0.76073 0.59655 0.35562 0.0
H83 H 0.77993 0.59664 0.33378 0.0
C84 C 0.81984 0.52368 0.40024 0.0
N85 N 0.8218 0.52657 0.37967 0.0
N86 N 0.80166 0.53172 0.37182 0.0
C87 C 0.7861 0.53197 0.38735 0.0
C88 C 0.79724 0.52712 0.40587 0.0
C89 C 0.83899 0.51609 0.41404 0.0
H90 H 0.85165 0.53017 0.41546 0.0
H91 H 0.83281 0.51143 0.4297 0.0
H92 H 0.84768 0.50104 0.40714 0.0
O93 O 0.84082 0.49733 0.34204 0.0
O94 O 0.80808 0.50734 0.32699 0.0
H95 H 0.75131 0.5328 0.39888 0.0
H96 H 0.7586 0.5548 0.38049 0.0
C97 C 0.76109 0.53653 0.38456 0.0
H98 H 0.75437 0.52594 0.3717 0.0
H99 H 0.75642 0.5136 0.32491 0.0
O100 O 0.87424 0.51388 0.37787 0.0
C101 C 0.82506 0.4937 0.32883 0.0
Co102 Co 0.52613 0.15215 0.66089 0.0
Co103 Co 0.53637 0.1998 0.68084 0.0
C104 C 0.56633 0.15839 0.68867 0.0
O105 O 0.55454 0.14608 0.67647 0.0
O106 O 0.56118 0.17929 0.6919 0.0
C107 C 0.53558 0.11297 0.63642 0.0
O108 O 0.55674 0.12043 0.63802 0.0
C109 C 0.56436 0.24117 0.68384 0.0
C110 C 0.54267 0.26445 0.70229 0.0
C111 C 0.56371 0.26299 0.69241 0.0
N112 N 0.54459 0.23041 0.68827 0.0
N113 N 0.53167 0.24443 0.69928 0.0
C114 C 0.58393 0.23004 0.67274 0.0
H115 H 0.58438 0.23606 0.6565 0.0
H116 H 0.60042 0.23469 0.68018 0.0
H117 H 0.58191 0.21118 0.6725 0.0
C118 C 0.5245 0.17972 0.62283 0.0
N119 N 0.52879 0.17759 0.64319 0.0
N120 N 0.53239 0.19797 0.65126 0.0
C121 C 0.5302 0.21382 0.63609 0.0
C122 C 0.52523 0.20271 0.61758 0.0
C123 C 0.51902 0.16006 0.60881 0.0
H124 H 0.50391 0.15067 0.61483 0.0
H125 H 0.53378 0.14815 0.6085 0.0
H126 H 0.51561 0.16567 0.59273 0.0
O127 O 0.50046 0.15697 0.68057 0.0
O128 O 0.50749 0.19066 0.69544 0.0
H129 H 0.52128 0.24322 0.65431 0.0
H130 H 0.52145 0.24826 0.62668 0.0
C131 C 0.53008 0.23916 0.63957 0.0
H132 H 0.54797 0.24539 0.64057 0.0
H133 H 0.51544 0.24026 0.70489 0.0
O134 O 0.51949 0.12424 0.64488 0.0
C135 C 0.49521 0.17268 0.69342 0.0
Co136 Co 0.15294 0.5239 0.66291 0.0
Co137 Co 0.20057 0.53463 0.6827 0.0
C138 C 0.15891 0.56431 0.69043 0.0
O139 O 0.14667 0.55242 0.67826 0.0
O140 O 0.17983 0.55926 0.69371 0.0
C141 C 0.11437 0.5331 0.63771 0.0
O142 O 0.12244 0.55409 0.63854 0.0
C143 C 0.24157 0.56325 0.68608 0.0
C144 C 0.26544 0.54122 0.70356 0.0
C145 C 0.26354 0.56258 0.69431 0.0
N146 N 0.23114 0.54318 0.69008 0.0
N147 N 0.24551 0.53008 0.70052 0.0
C148 C 0.23004 0.58312 0.67575 0.0
H149 H 0.21124 0.58076 0.67537 0.0
H150 H 0.23606 0.58454 0.65955 0.0
H151 H 0.23437 0.59931 0.68385 0.0
C152 C 0.18035 0.52363 0.62456 0.0
N153 N 0.17831 0.52679 0.6451 0.0
N154 N 0.19868 0.53052 0.65315 0.0
C155 C 0.21444 0.52935 0.63781 0.0
C156 C 0.20323 0.52535 0.61918 0.0
C157 C 0.16104 0.51699 0.61054 0.0
H158 H 0.14992 0.5321 0.60791 0.0
H159 H 0.16733 0.51075 0.59537 0.0
H160 H 0.1507 0.50328 0.61785 0.0
O161 O 0.15787 0.49853 0.68293 0.0
O162 O 0.19166 0.50581 0.69747 0.0
H163 H 0.24477 0.5219 0.65529 0.0
H164 H 0.24927 0.52375 0.62763 0.0
C165 C 0.23977 0.53102 0.64095 0.0
H166 H 0.24465 0.54926 0.64252 0.0
H167 H 0.24167 0.51359 0.7057 0.0
O168 O 0.12501 0.51714 0.64699 0.0
C169 C 0.17367 0.49349 0.69577 0.0
Co170 Co 0.52734 0.85045 0.3641 0.0
Co171 Co 0.53551 0.80263 0.34385 0.0
C172 C 0.56686 0.84316 0.33602 0.0
O173 O 0.55594 0.85575 0.34865 0.0
O174 O 0.56065 0.82258 0.33254 0.0
C175 C 0.53725 0.88921 0.38929 0.0
O176 O 0.55832 0.88141 0.38819 0.0
C177 C 0.56386 0.7623 0.33788 0.0
C178 C 0.53969 0.7365 0.32577 0.0
C179 C 0.56244 0.73967 0.33132 0.0
N180 N 0.54306 0.77196 0.33617 0.0
N181 N 0.52868 0.75651 0.32882 0.0
C182 C 0.58398 0.77421 0.34738 0.0
H183 H 0.57813 0.78833 0.35759 0.0
H184 H 0.59457 0.762 0.35641 0.0
H185 H 0.59469 0.78172 0.33494 0.0
C186 C 0.52666 0.82269 0.40228 0.0
N187 N 0.5294 0.82482 0.3817 0.0
N188 N 0.53246 0.80444 0.37347 0.0
C189 C 0.53151 0.78859 0.38873 0.0
C190 C 0.52807 0.79972 0.40751 0.0
C191 C 0.52079 0.84208 0.41648 0.0
H192 H 0.53621 0.85286 0.41884 0.0
H193 H 0.51474 0.83589 0.43174 0.0
H194 H 0.50719 0.85279 0.40944 0.0
O195 O 0.50179 0.84666 0.34414 0.0
O196 O 0.50642 0.81234 0.32987 0.0
H197 H 0.52931 0.75358 0.39964 0.0
H198 H 0.55132 0.75917 0.38079 0.0
C199 C 0.53352 0.76332 0.38541 0.0
H200 H 0.52193 0.75798 0.37271 0.0
H201 H 0.51131 0.75953 0.32616 0.0
O202 O 0.52127 0.8784 0.38021 0.0
C203 C 0.49532 0.8311 0.3316 0.0
Co204 Co 0.84905 0.47716 0.66201 0.0
Co205 Co 0.80117 0.46618 0.68123 0.0
C206 C 0.8429 0.43638 0.68895 0.0
O207 O 0.85534 0.44843 0.67705 0.0
O208 O 0.82192 0.44137 0.69202 0.0
C209 C 0.89067 0.4704 0.63959 0.0
O210 O 0.8867 0.44863 0.64328 0.0
C211 C 0.75991 0.43784 0.68367 0.0
C212 C 0.73653 0.45916 0.70236 0.0
C213 C 0.7381 0.43825 0.69228 0.0
N214 N 0.77055 0.45762 0.68831 0.0
N215 N 0.75646 0.47033 0.69944 0.0
C216 C 0.77117 0.41849 0.67238 0.0
H217 H 0.79002 0.42066 0.67216 0.0
H218 H 0.76513 0.41822 0.65614 0.0
H219 H 0.76664 0.40187 0.67966 0.0
C220 C 0.82211 0.47878 0.62368 0.0
N221 N 0.82385 0.47447 0.64405 0.0
N222 N 0.80335 0.47078 0.65179 0.0
C223 C 0.78777 0.47308 0.63641 0.0
C224 C 0.79921 0.47822 0.61808 0.0
C225 C 0.84213 0.48375 0.60991 0.0
H226 H 0.85016 0.50015 0.61465 0.0
H227 H 0.85499 0.46994 0.61163 0.0
H228 H 0.83711 0.48474 0.5934 0.0
O229 O 0.84373 0.50217 0.6823 0.0
O230 O 0.80977 0.49478 0.69641 0.0
H231 H 0.75807 0.48142 0.65444 0.0
H232 H 0.75346 0.48198 0.62675 0.0
C233 C 0.76239 0.47304 0.63957 0.0
H234 H 0.75621 0.4551 0.64011 0.0
H235 H 0.76054 0.4865 0.70523 0.0
O236 O 0.87669 0.48539 0.64616 0.0
C237 C 0.82777 0.5071 0.695 0.0
Co238 Co 0.47665 0.15233 0.36316 0.0
Co239 Co 0.46569 0.19945 0.34245 0.0
C240 C 0.43648 0.15709 0.33532 0.0
O241 O 0.44837 0.14511 0.34773 0.0
O242 O 0.44139 0.17802 0.33182 0.0
C243 C 0.47024 0.11155 0.38711 0.0
O244 O 0.44837 0.11524 0.38368 0.0
C245 C 0.43669 0.24017 0.33868 0.0
C246 C 0.45845 0.26393 0.3208 0.0
C247 C 0.43721 0.26206 0.33025 0.0
N248 N 0.45676 0.22977 0.33461 0.0
N249 N 0.46969 0.24407 0.32391 0.0
C250 C 0.41704 0.22869 0.34937 0.0
H251 H 0.41922 0.20985 0.34941 0.0
H252 H 0.41623 0.23445 0.36567 0.0
H253 H 0.40064 0.2333 0.34175 0.0
C254 C 0.47565 0.18029 0.40101 0.0
N255 N 0.47296 0.17796 0.38045 0.0
N256 N 0.46959 0.1982 0.37204 0.0
C257 C 0.47072 0.21423 0.38716 0.0
C258 C 0.47421 0.2033 0.40602 0.0
C259 C 0.48156 0.16102 0.41533 0.0
H260 H 0.4672 0.14859 0.41564 0.0
H261 H 0.48492 0.16708 0.43129 0.0
H262 H 0.49702 0.15206 0.40954 0.0
O263 O 0.50213 0.15754 0.34335 0.0
O264 O 0.49473 0.19082 0.32795 0.0
H265 H 0.47734 0.24911 0.39665 0.0
H266 H 0.45146 0.24481 0.3822 0.0
C267 C 0.46961 0.23952 0.38359 0.0
H268 H 0.47859 0.24401 0.36904 0.0
H269 H 0.48616 0.24024 0.31867 0.0
O270 O 0.48499 0.12531 0.37978 0.0
C271 C 0.50723 0.17307 0.33028 0.0
Co272 Co 0.65369 0.97741 0.86225 0.0
Co273 Co 0.70099 0.96566 0.84236 0.0
C274 C 0.65899 0.93639 0.83519 0.0
O275 O 0.64689 0.94882 0.84707 0.0
O276 O 0.68005 0.94092 0.83193 0.0
C277 C 0.61297 0.97068 0.88605 0.0
O278 O 0.61725 0.94883 0.88308 0.0
C279 C 0.74086 0.93628 0.83676 0.0
C280 C 0.76699 0.96006 0.82458 0.0
C281 C 0.76355 0.93742 0.83032 0.0
N282 N 0.73144 0.95717 0.83482 0.0
N283 N 0.74709 0.9713 0.82741 0.0
C284 C 0.72868 0.91638 0.84633 0.0
H285 H 0.71447 0.92246 0.85632 0.0
H286 H 0.7407 0.90581 0.85559 0.0
H287 H 0.72127 0.90556 0.83392 0.0
C288 C 0.68109 0.97681 0.90049 0.0
N289 N 0.67907 0.97407 0.87991 0.0
N290 N 0.69931 0.96973 0.87189 0.0
C291 C 0.715 0.9699 0.88731 0.0
C292 C 0.70386 0.97413 0.90594 0.0
C293 C 0.66178 0.98351 0.91448 0.0
H294 H 0.64946 0.96911 0.91555 0.0
H295 H 0.66785 0.98789 0.93024 0.0
H296 H 0.65273 0.99855 0.90793 0.0
O297 O 0.6589 0.00253 0.84214 0.0
O298 O 0.69234 0.99445 0.8274 0.0
H299 H 0.7463 0.97716 0.87138 0.0
H300 H 0.74992 0.97037 0.89853 0.0
C301 C 0.74013 0.9663 0.88429 0.0
H302 H 0.74327 0.94814 0.88017 0.0
H303 H 0.74429 0.98869 0.82462 0.0
O304 O 0.62638 0.98561 0.87848 0.0
C305 C 0.67465 0.00715 0.82915 0.0
Co306 Co 0.97425 0.34931 0.16134 0.0
Co307 Co 0.96416 0.30177 0.18152 0.0
C308 C 0.93383 0.34313 0.1888 0.0
O309 O 0.94566 0.35542 0.17661 0.0
O310 O 0.93911 0.32228 0.19221 0.0
C311 C 0.96549 0.38866 0.13665 0.0
O312 O 0.94413 0.3818 0.13824 0.0
C313 C 0.93644 0.2602 0.18451 0.0
C314 C 0.95811 0.23725 0.20333 0.0
C315 C 0.93718 0.23845 0.19322 0.0
N316 N 0.95606 0.27117 0.18908 0.0
N317 N 0.96896 0.25735 0.20031 0.0
C318 C 0.91694 0.27109 0.17313 0.0
H319 H 0.91685 0.26505 0.15689 0.0
H320 H 0.90037 0.26624 0.18033 0.0
H321 H 0.91874 0.28997 0.17291 0.0
C322 C 0.97627 0.32151 0.12346 0.0
N323 N 0.97184 0.32373 0.14378 0.0
N324 N 0.96843 0.30338 0.15196 0.0
C325 C 0.97095 0.28743 0.13691 0.0
C326 C 0.97593 0.29846 0.11836 0.0
C327 C 0.98138 0.34116 0.10931 0.0
H328 H 0.99668 0.3505 0.115 0.0
H329 H 0.96664 0.35309 0.10934 0.0
H330 H 0.98433 0.33554 0.09317 0.0
O331 O 0.99976 0.3447 0.18122 0.0
O332 O 0.99288 0.31109 0.19627 0.0
H333 H 0.98001 0.25833 0.15547 0.0
H334 H 0.98035 0.25305 0.12787 0.0
C335 C 0.97139 0.26213 0.14059 0.0
H336 H 0.95358 0.25564 0.1414 0.0
H337 H 0.98509 0.2617 0.20606 0.0
O338 O 0.98125 0.37704 0.14521 0.0
C339 C 0.00505 0.32912 0.19418 0.0
Co340 Co 0.34977 0.02656 0.86186 0.0
Co341 Co 0.30156 0.03694 0.84318 0.0
C342 C 0.3424 0.06718 0.83455 0.0
O343 O 0.35519 0.0551 0.84613 0.0
O344 O 0.32133 0.06219 0.83207 0.0
C345 C 0.38954 0.03611 0.88558 0.0
O346 O 0.38205 0.05727 0.88411 0.0
C347 C 0.26093 0.06534 0.83877 0.0
C348 C 0.23515 0.04142 0.8262 0.0
C349 C 0.23824 0.06398 0.83238 0.0
N350 N 0.27071 0.04468 0.83635 0.0
N351 N 0.25526 0.03045 0.82875 0.0
C352 C 0.27287 0.08523 0.8486 0.0
H353 H 0.28715 0.07915 0.85851 0.0
H354 H 0.26072 0.0955 0.858 0.0
H355 H 0.28016 0.09633 0.83633 0.0
C356 C 0.32315 0.02446 0.90055 0.0
N357 N 0.32477 0.02886 0.88017 0.0
N358 N 0.30424 0.03291 0.87263 0.0
C359 C 0.28881 0.03117 0.88818 0.0
C360 C 0.30033 0.0257 0.90638 0.0
C361 C 0.34316 0.01872 0.91408 0.0
H362 H 0.35232 0.00366 0.90768 0.0
H363 H 0.35513 0.03343 0.91427 0.0
H364 H 0.33798 0.01514 0.93024 0.0
O365 O 0.34473 0.00106 0.84212 0.0
O366 O 0.31065 0.00829 0.82815 0.0
H367 H 0.25824 0.02167 0.87206 0.0
H368 H 0.25414 0.02689 0.8994 0.0
C369 C 0.26343 0.03251 0.88533 0.0
H370 H 0.25859 0.05046 0.88179 0.0
H371 H 0.25837 0.01322 0.82553 0.0
O372 O 0.37811 0.02002 0.8773 0.0
C373 C 0.32869 0.996 0.82955 0.0
Co374 Co 0.02736 0.6508 0.16179 0.0
Co375 Co 0.03547 0.6987 0.1819 0.0
C376 C 0.06675 0.65771 0.18967 0.0
O377 O 0.05604 0.64513 0.17689 0.0
O378 O 0.06038 0.67824 0.19322 0.0
C379 C 0.03477 0.60926 0.13905 0.0
O380 O 0.05646 0.61266 0.1435 0.0
C381 C 0.06313 0.7402 0.18462 0.0
C382 C 0.0418 0.76323 0.20365 0.0
C383 C 0.06263 0.76194 0.19338 0.0
N384 N 0.0435 0.72935 0.18933 0.0
N385 N 0.03078 0.74322 0.20067 0.0
C386 C 0.08244 0.72918 0.17308 0.0
H387 H 0.08048 0.71031 0.17286 0.0
H388 H 0.08237 0.73523 0.15683 0.0
H389 H 0.09912 0.73388 0.18014 0.0
C390 C 0.02553 0.67828 0.12381 0.0
N391 N 0.02945 0.67637 0.14423 0.0
N392 N 0.03189 0.69687 0.15235 0.0
C393 C 0.0291 0.71262 0.13717 0.0
C394 C 0.025 0.70129 0.11858 0.0
C395 C 0.02173 0.65834 0.10967 0.0
H396 H 0.00534 0.64982 0.11372 0.0
H397 H 0.03579 0.64581 0.11172 0.0
H398 H 0.02127 0.66362 0.0932 0.0
O399 O 0.00209 0.65494 0.18204 0.0
O400 O 0.00642 0.68942 0.19607 0.0
H401 H 0.01887 0.7414 0.15565 0.0
H402 H 0.01819 0.74651 0.12802 0.0
C403 C 0.02758 0.73789 0.14075 0.0
H404 H 0.0451 0.74514 0.14149 0.0
H405 H 0.0147 0.73893 0.20656 0.0
O406 O 0.01982 0.6234 0.1454 0.0
C407 C 0.99549 0.67055 0.19448 0.0
Co408 Co 0.65228 0.02505 0.16239 0.0
Co409 Co 0.70052 0.03506 0.18124 0.0
C410 C 0.65947 0.06523 0.19003 0.0
O411 O 0.64673 0.05346 0.17816 0.0
O412 O 0.68046 0.06001 0.19264 0.0
C413 C 0.61261 0.03482 0.13874 0.0
O414 O 0.62025 0.05592 0.14036 0.0
C415 C 0.74212 0.06277 0.18365 0.0
C416 C 0.76545 0.04101 0.20198 0.0
C417 C 0.76399 0.06206 0.19211 0.0
N418 N 0.73133 0.04304 0.18815 0.0
N419 N 0.74539 0.03007 0.19907 0.0
C420 C 0.73095 0.0824 0.17266 0.0
H421 H 0.73701 0.083 0.15644 0.0
H422 H 0.73555 0.09884 0.18022 0.0
H423 H 0.7121 0.08032 0.17238 0.0
C424 C 0.67895 0.0231 0.12376 0.0
N425 N 0.67734 0.0275 0.14414 0.0
N426 N 0.69793 0.03101 0.15178 0.0
C427 C 0.71341 0.02862 0.13633 0.0
C428 C 0.70183 0.02359 0.11806 0.0
C429 C 0.65888 0.01792 0.11011 0.0
H430 H 0.64962 0.00274 0.11616 0.0
H431 H 0.64703 0.03272 0.11028 0.0
H432 H 0.66401 0.01477 0.09387 0.0
O433 O 0.65734 0.99944 0.18212 0.0
O434 O 0.69154 0.00628 0.19603 0.0
H435 H 0.74312 0.01955 0.15406 0.0
H436 H 0.74759 0.01962 0.12635 0.0
C437 C 0.7388 0.02834 0.13937 0.0
H438 H 0.74517 0.04619 0.14024 0.0
H439 H 0.74119 0.01388 0.20476 0.0
O440 O 0.62395 0.01859 0.1469 0.0
C441 C 0.67341 0.99415 0.19461 0.0
Co442 Co 0.02281 0.34803 0.86284 0.0
Co443 Co 0.03432 0.3006 0.84304 0.0
C444 C 0.06372 0.34248 0.83567 0.0
O445 O 0.05139 0.35468 0.84756 0.0
O446 O 0.05909 0.32142 0.83251 0.0
C447 C 0.02986 0.38874 0.88653 0.0
O448 O 0.05165 0.38421 0.88356 0.0
C449 C 0.06366 0.26069 0.83767 0.0
C450 C 0.03998 0.23453 0.82537 0.0
C451 C 0.06257 0.23798 0.83126 0.0
N452 N 0.04279 0.27011 0.83558 0.0
N453 N 0.02871 0.25445 0.8281 0.0
C454 C 0.08347 0.2729 0.84736 0.0
H455 H 0.0773 0.28715 0.85727 0.0
H456 H 0.09394 0.2609 0.85674 0.0
H457 H 0.09441 0.28026 0.83501 0.0
C458 C 0.02329 0.32067 0.90114 0.0
N459 N 0.02606 0.32266 0.88056 0.0
N460 N 0.03027 0.30238 0.87255 0.0
C461 C 0.02996 0.2867 0.88798 0.0
C462 C 0.02578 0.29787 0.90661 0.0
C463 C 0.01666 0.34003 0.9151 0.0
H464 H 0.03113 0.35228 0.91617 0.0
H465 H 0.01224 0.334 0.93086 0.0
H466 H 0.00169 0.34917 0.90852 0.0
O467 O 0.99765 0.34285 0.84274 0.0
O468 O 0.00557 0.30931 0.82807 0.0
H469 H 0.02913 0.25177 0.89918 0.0
H470 H 0.05149 0.25823 0.88091 0.0
C471 C 0.03334 0.26153 0.88497 0.0
H472 H 0.02249 0.25546 0.87202 0.0
H473 H 0.01136 0.25724 0.82519 0.0
O474 O 0.01477 0.37546 0.87902 0.0
C475 C 0.99296 0.32708 0.82979 0.0
Co476 Co 0.34791 0.97829 0.1623 0.0
Co477 Co 0.30084 0.96496 0.1819 0.0
C478 C 0.3438 0.93722 0.18959 0.0
O479 O 0.35555 0.95037 0.17805 0.0
O480 O 0.32244 0.94067 0.19227 0.0
C481 C 0.3886 0.97194 0.13867 0.0
O482 O 0.38421 0.95011 0.14161 0.0
C483 C 0.26029 0.93545 0.18547 0.0
C484 C 0.23617 0.95734 0.20283 0.0
C485 C 0.23831 0.93594 0.19372 0.0
N486 N 0.27048 0.95568 0.18933 0.0
N487 N 0.25596 0.96868 0.19971 0.0
C488 C 0.27201 0.91566 0.17521 0.0
H489 H 0.2908 0.91811 0.17504 0.0
H490 H 0.26616 0.91426 0.15896 0.0
H491 H 0.26765 0.89943 0.18325 0.0
C492 C 0.32078 0.97708 0.12393 0.0
N493 N 0.32277 0.97402 0.14448 0.0
N494 N 0.30251 0.96954 0.15243 0.0
C495 C 0.28682 0.9702 0.13701 0.0
C496 C 0.298 0.97463 0.11844 0.0
C497 C 0.34005 0.98417 0.11006 0.0
H498 H 0.3487 0.99943 0.11663 0.0
H499 H 0.35271 0.97005 0.10913 0.0
H500 H 0.33403 0.98833 0.09424 0.0
O501 O 0.34178 0.0034 0.18212 0.0
O502 O 0.30884 0.99387 0.19711 0.0
H503 H 0.25617 0.97654 0.15438 0.0
H504 H 0.2519 0.97475 0.12668 0.0
C505 C 0.26154 0.96769 0.14002 0.0
H506 H 0.25726 0.94928 0.14147 0.0
H507 H 0.2596 0.98527 0.20475 0.0
O508 O 0.37519 0.98691 0.1462 0.0
C509 C 0.32599 0.0073 0.19526 0.0
Co510 Co 0.97662 0.65193 0.86288 0.0
Co511 Co 0.96571 0.69959 0.84327 0.0
C512 C 0.93588 0.65829 0.83549 0.0
O513 O 0.94806 0.64594 0.84737 0.0
O514 O 0.94072 0.6793 0.83241 0.0
C515 C 0.96729 0.61321 0.88799 0.0
O516 O 0.9463 0.6213 0.88726 0.0
C517 C 0.93688 0.73976 0.83749 0.0
C518 C 0.96103 0.76581 0.82578 0.0
C519 C 0.93825 0.76248 0.83115 0.0
N520 N 0.95774 0.73022 0.83585 0.0
N521 N 0.9721 0.74583 0.82873 0.0
C522 C 0.91673 0.72764 0.84671 0.0
H523 H 0.92255 0.71341 0.8568 0.0
H524 H 0.90601 0.73968 0.85579 0.0
H525 H 0.90616 0.72026 0.8341 0.0
C526 C 0.97678 0.67923 0.90132 0.0
N527 N 0.97378 0.67726 0.88076 0.0
N528 N 0.9695 0.69757 0.87282 0.0
C529 C 0.9698 0.7132 0.88829 0.0
C530 C 0.97417 0.70199 0.90686 0.0
C531 C 0.98391 0.65999 0.91522 0.0
H532 H 0.99744 0.64967 0.90763 0.0
H533 H 0.96893 0.64881 0.91824 0.0
H534 H 0.99055 0.66638 0.93022 0.0
O535 O 0.00208 0.6568 0.84306 0.0
O536 O 0.99451 0.69049 0.82851 0.0
H537 H 0.96979 0.74806 0.89973 0.0
H538 H 0.94816 0.74146 0.8808 0.0
C539 C 0.96619 0.73835 0.88536 0.0
H540 H 0.9774 0.74466 0.87275 0.0
H541 H 0.98951 0.74293 0.82618 0.0
O542 O 0.98322 0.62389 0.87871 0.0
C543 C 0.00698 0.67262 0.83022 0.0
C544 C 0.92686 0.53693 0.39895 0.0
C545 C 0.90865 0.52155 0.39619 0.0
C546 C 0.94791 0.52918 0.40644 0.0
C547 C 0.98134 0.4764 0.40585 0.0
H548 H 0.02615 0.51416 0.43405 0.0
C549 C 0.07593 0.45217 0.4038 0.0
C550 C 0.0898 0.47011 0.39655 0.0
C551 C 0.05395 0.45667 0.41127 0.0
C552 C 0.01376 0.50335 0.42629 0.0
H553 H 0.89738 0.48653 0.40092 0.0
H554 H 0.93397 0.47311 0.41437 0.0
H555 H 0.98586 0.52557 0.43403 0.0
H556 H 0.09222 0.50699 0.39287 0.0
H557 H 0.05382 0.51477 0.4055 0.0
H558 H 0.00919 0.45477 0.39727 0.0
C559 C 0.93225 0.49099 0.4102 0.0
C560 C 0.99074 0.50989 0.42624 0.0
C561 C 0.91129 0.49868 0.4025 0.0
C562 C 0.08186 0.49275 0.39815 0.0
C563 C 0.05991 0.49725 0.40562 0.0
C564 C 0.00428 0.46985 0.40596 0.0
C565 C 0.95105 0.50595 0.4115 0.0
C566 C 0.97442 0.49692 0.41535 0.0
C567 C 0.04546 0.47919 0.41165 0.0
C568 C 0.02086 0.48369 0.41551 0.0
H569 H 0.92528 0.55468 0.3943 0.0
H570 H 0.96207 0.54115 0.40704 0.0
H571 H 0.96935 0.46614 0.39705 0.0
H572 H 0.08168 0.43455 0.403 0.0
H573 H 0.04328 0.44245 0.41606 0.0
C574 C 0.54844 0.0773 0.61838 0.0
C575 C 0.53058 0.09113 0.62585 0.0
C576 C 0.54384 0.05537 0.61081 0.0
C577 C 0.49686 0.01516 0.59641 0.0
H578 H 0.53417 0.97095 0.6258 0.0
C579 C 0.46273 0.92966 0.62632 0.0
C580 C 0.47782 0.9112 0.62905 0.0
C581 C 0.47065 0.95036 0.61821 0.0
C582 C 0.52388 0.98288 0.61696 0.0
H583 H 0.49374 0.0936 0.62974 0.0
H584 H 0.4858 0.0553 0.61698 0.0
H585 H 0.5459 0.01068 0.62482 0.0
H586 H 0.51247 0.89914 0.62372 0.0
H587 H 0.5262 0.93516 0.60927 0.0
H588 H 0.47421 0.98734 0.58949 0.0
C589 C 0.50333 0.06137 0.61675 0.0
C590 C 0.53064 0.00575 0.6164 0.0
C591 C 0.50792 0.08325 0.6243 0.0
C592 C 0.50055 0.91325 0.62216 0.0
C593 C 0.50841 0.93387 0.61388 0.0
C594 C 0.4901 0.99221 0.59693 0.0
C595 C 0.52131 0.04691 0.61057 0.0
C596 C 0.51674 0.02229 0.60686 0.0
C597 C 0.49377 0.95291 0.61251 0.0
C598 C 0.50308 0.976 0.60794 0.0
H599 H 0.56607 0.08302 0.61913 0.0
H600 H 0.55801 0.0447 0.6059 0.0
H601 H 0.48601 0.0275 0.58865 0.0
H602 H 0.44509 0.92854 0.63139 0.0
H603 H 0.45895 0.96473 0.61758 0.0
C604 C 0.93001 0.46227 0.62631 0.0
C605 C 0.91171 0.47761 0.62879 0.0
C606 C 0.95094 0.4699 0.61849 0.0
C607 C 0.98423 0.52273 0.61745 0.0
H608 H 0.02871 0.48404 0.58988 0.0
C609 C 0.07902 0.54614 0.61926 0.0
C610 C 0.09252 0.52822 0.62712 0.0
C611 C 0.05707 0.54172 0.61165 0.0
C612 C 0.01641 0.49512 0.59744 0.0
H613 H 0.90022 0.51243 0.62331 0.0
H614 H 0.93666 0.52566 0.60934 0.0
H615 H 0.98839 0.4728 0.59034 0.0
H616 H 0.09439 0.49144 0.63166 0.0
H617 H 0.05609 0.4838 0.61874 0.0
H618 H 0.01223 0.54447 0.62544 0.0
C619 C 0.93505 0.5079 0.61395 0.0
C620 C 0.99337 0.48868 0.59774 0.0
C621 C 0.91419 0.50032 0.62195 0.0
C622 C 0.0843 0.50565 0.62592 0.0
C623 C 0.06242 0.50124 0.61828 0.0
C624 C 0.00719 0.52919 0.61708 0.0
C625 C 0.95391 0.49298 0.61283 0.0
C626 C 0.97719 0.50196 0.60849 0.0
C627 C 0.04829 0.5193 0.6117 0.0
C628 C 0.02366 0.515 0.60781 0.0
H629 H 0.92856 0.44464 0.63136 0.0
H630 H 0.96515 0.45799 0.61807 0.0
H631 H 0.97233 0.53326 0.6261 0.0
H632 H 0.08499 0.5637 0.61976 0.0
H633 H 0.04664 0.55594 0.60645 0.0
C634 C 0.50952 0.91876 0.40155 0.0
C635 C 0.53223 0.91104 0.39988 0.0
C636 C 0.50483 0.94061 0.40913 0.0
C637 C 0.53157 0.99651 0.40944 0.0
H638 H 0.47535 0.0142 0.43709 0.0
C639 C 0.50073 0.08884 0.40476 0.0
C640 C 0.47789 0.09084 0.39818 0.0
C641 C 0.50884 0.06819 0.41277 0.0
C642 C 0.49117 0.00954 0.42943 0.0
H643 H 0.56771 0.91943 0.40634 0.0
H644 H 0.55946 0.95773 0.41958 0.0
H645 H 0.48751 0.97414 0.43755 0.0
H646 H 0.4452 0.07337 0.39617 0.0
H647 H 0.45947 0.03711 0.40952 0.0
H648 H 0.53466 0.03141 0.40023 0.0
C649 C 0.54534 0.94694 0.41478 0.0
C650 C 0.49815 0.98664 0.42973 0.0
C651 C 0.55005 0.92501 0.40722 0.0
C652 C 0.46293 0.07229 0.40102 0.0
C653 C 0.47109 0.05155 0.40885 0.0
C654 C 0.52458 0.01933 0.4091 0.0
C655 C 0.52274 0.95521 0.4152 0.0
C656 C 0.51796 0.97978 0.41905 0.0
C657 C 0.49432 0.04905 0.41418 0.0
C658 C 0.50386 0.02596 0.4184 0.0
H659 H 0.49538 0.9083 0.39623 0.0
H660 H 0.48724 0.94653 0.40904 0.0
H661 H 0.54676 0.99178 0.40084 0.0
H662 H 0.51257 0.10302 0.40312 0.0
H663 H 0.52671 0.06695 0.41713 0.0
C664 C 0.58956 0.00088 0.90331 0.0
C665 C 0.59198 0.97805 0.89682 0.0
C666 C 0.56865 0.00873 0.91097 0.0
C667 C 0.50983 0.99038 0.92651 0.0
H668 H 0.49222 0.04581 0.89756 0.0
C669 C 0.41923 0.00837 0.89762 0.0
C670 C 0.41146 0.03107 0.896 0.0
C671 C 0.44106 0.0037 0.90527 0.0
C672 C 0.49689 0.03065 0.90625 0.0
H673 H 0.57502 0.94511 0.89463 0.0
H674 H 0.53831 0.95893 0.90733 0.0
H675 H 0.53195 0.03406 0.89766 0.0
H676 H 0.41975 0.06655 0.90258 0.0
H677 H 0.45797 0.05836 0.91597 0.0
H678 H 0.47431 0.98643 0.934 0.0
C679 C 0.5526 0.97074 0.90688 0.0
C680 C 0.51977 0.02388 0.90632 0.0
C681 C 0.5736 0.96284 0.89942 0.0
C682 C 0.42538 0.0489 0.90339 0.0
C683 C 0.44725 0.04422 0.91105 0.0
C684 C 0.48688 0.99715 0.92638 0.0
C685 C 0.54968 0.99397 0.91207 0.0
C686 C 0.52638 0.00324 0.91579 0.0
C687 C 0.45557 0.02163 0.91148 0.0
C688 C 0.48008 0.01692 0.91559 0.0
H689 H 0.60361 0.0129 0.90186 0.0
H690 H 0.5671 0.0266 0.91525 0.0
H691 H 0.51447 0.97462 0.93427 0.0
H692 H 0.40882 0.99422 0.89223 0.0
H693 H 0.44702 0.98613 0.90518 0.0
C694 C 0.99402 0.41751 0.1245 0.0
C695 C 0.97116 0.41017 0.12581 0.0
C696 C 0.99926 0.43909 0.11661 0.0
C697 C 0.97313 0.49528 0.11454 0.0
H698 H 0.0309 0.5118 0.089 0.0
C699 C 0.00508 0.58704 0.11987 0.0
C700 C 0.02748 0.58863 0.12767 0.0
C701 C 0.99714 0.56653 0.11147 0.0
C702 C 0.01464 0.50746 0.09603 0.0
H703 H 0.93601 0.4189 0.11831 0.0
H704 H 0.94521 0.45668 0.10445 0.0
H705 H 0.01818 0.47191 0.08847 0.0
H706 H 0.05966 0.5706 0.13144 0.0
H707 H 0.04563 0.53456 0.1174 0.0
H708 H 0.97008 0.53035 0.1232 0.0
C709 C 0.95903 0.44584 0.10983 0.0
C710 C 0.00735 0.48466 0.09571 0.0
C711 C 0.95377 0.42421 0.11777 0.0
C712 C 0.04227 0.56982 0.12566 0.0
C713 C 0.03426 0.54922 0.11742 0.0
C714 C 0.98039 0.518 0.11488 0.0
C715 C 0.98175 0.45379 0.10981 0.0
C716 C 0.98697 0.47822 0.10571 0.0
C717 C 0.01137 0.54713 0.11088 0.0
C718 C 0.00166 0.52419 0.10637 0.0
H719 H 0.00785 0.40699 0.13038 0.0
H720 H 0.01692 0.44476 0.11704 0.0
H721 H 0.95748 0.4909 0.12262 0.0
H722 H 0.99342 0.60144 0.12085 0.0
H723 H 0.97956 0.56559 0.10619 0.0
C724 C 0.41226 0.00206 0.12153 0.0
C725 C 0.40962 0.97921 0.12791 0.0
C726 C 0.4332 0.00973 0.1138 0.0
C727 C 0.4917 0.99074 0.09785 0.0
H728 H 0.51018 0.04583 0.12687 0.0
C729 C 0.58259 0.00745 0.12666 0.0
C730 C 0.59066 0.03004 0.12829 0.0
C731 C 0.5607 0.00307 0.119 0.0
C732 C 0.50526 0.03077 0.11816 0.0
H733 H 0.42624 0.94608 0.12984 0.0
H734 H 0.463 0.95957 0.11703 0.0
H735 H 0.4703 0.0346 0.1269 0.0
H736 H 0.58284 0.06564 0.1217 0.0
H737 H 0.54453 0.05795 0.10831 0.0
H738 H 0.52715 0.98633 0.09024 0.0
C739 C 0.44885 0.97154 0.11761 0.0
C740 C 0.4823 0.02429 0.11816 0.0
C741 C 0.42782 0.96382 0.12515 0.0
C742 C 0.57698 0.04806 0.12088 0.0
C743 C 0.55505 0.04368 0.11322 0.0
C744 C 0.51475 0.9972 0.09792 0.0
C745 C 0.452 0.99475 0.11251 0.0
C746 C 0.47538 0.00377 0.10867 0.0
C747 C 0.54644 0.0212 0.1128 0.0
C748 C 0.52185 0.01684 0.10874 0.0
H749 H 0.39835 0.01422 0.12311 0.0
H750 H 0.43493 0.0276 0.10958 0.0
H751 H 0.48683 0.97506 0.09006 0.0
H752 H 0.59281 0.99317 0.13206 0.0
H753 H 0.5545 0.98559 0.11909 0.0
C754 C 0.99478 0.58309 0.89959 0.0
C755 C 0.97219 0.59125 0.89839 0.0
C756 C 0.99925 0.56113 0.90705 0.0
C757 C 0.97151 0.50574 0.90784 0.0
H758 H 0.02758 0.48696 0.93515 0.0
C759 C 0.99994 0.41258 0.90376 0.0
C760 C 0.02274 0.40984 0.89729 0.0
C761 C 0.99242 0.43357 0.91153 0.0
C762 C 0.01181 0.49193 0.92757 0.0
H763 H 0.93672 0.58349 0.90553 0.0
H764 H 0.94456 0.54502 0.91853 0.0
H765 H 0.01638 0.5273 0.9354 0.0
H766 H 0.05592 0.42633 0.89517 0.0
H767 H 0.04267 0.46317 0.90804 0.0
H768 H 0.9675 0.47086 0.89887 0.0
C769 C 0.95876 0.55556 0.91347 0.0
C770 C 0.00538 0.51499 0.92776 0.0
C771 C 0.95429 0.57758 0.90605 0.0
C772 C 0.03822 0.42799 0.89995 0.0
C773 C 0.03064 0.44907 0.90751 0.0
C774 C 0.97796 0.48277 0.90757 0.0
C775 C 0.98121 0.54686 0.91345 0.0
C776 C 0.98559 0.52222 0.91724 0.0
C777 C 0.00748 0.45231 0.91276 0.0
C778 C 0.9986 0.47571 0.91678 0.0
H779 H 0.00899 0.5933 0.89401 0.0
H780 H 0.0167 0.55487 0.90662 0.0
H781 H 0.95632 0.51077 0.89936 0.0
H782 H 0.98772 0.39872 0.90226 0.0
H783 H 0.97459 0.43536 0.91585 0.0
C784 C 0.29528 0.41686 0.31517 0.0
C785 C 0.28118 0.41972 0.33258 0.0
C786 C 0.31223 0.39993 0.31489 0.0
C787 C 0.3291 0.34571 0.34029 0.0
H788 H 0.38846 0.35853 0.31603 0.0
C789 C 0.40547 0.28342 0.34811 0.0
C790 C 0.41924 0.28 0.33057 0.0
C791 C 0.38869 0.3005 0.34828 0.0
C792 C 0.37189 0.35458 0.32265 0.0
H793 H 0.27493 0.40802 0.36389 0.0
H794 H 0.30422 0.37837 0.36334 0.0
H795 H 0.35916 0.38829 0.31651 0.0
H796 H 0.42666 0.29225 0.29968 0.0
H797 H 0.39725 0.32199 0.29988 0.0
H798 H 0.34182 0.312 0.34643 0.0
C799 C 0.30173 0.38874 0.34964 0.0
C800 C 0.35509 0.37165 0.32293 0.0
C801 C 0.28479 0.40567 0.34991 0.0
C802 C 0.41622 0.2944 0.31338 0.0
C803 C 0.39943 0.31149 0.31354 0.0
C804 C 0.3459 0.32864 0.34 0.0
C805 C 0.31559 0.38558 0.33209 0.0
C806 C 0.33349 0.36743 0.33176 0.0
C807 C 0.3854 0.3147 0.33098 0.0
C808 C 0.36751 0.33286 0.33119 0.0
H809 H 0.29297 0.4275 0.30161 0.0
H810 H 0.32246 0.39786 0.30105 0.0
H811 H 0.31254 0.34175 0.34692 0.0
H812 H 0.40798 0.27334 0.36194 0.0
H813 H 0.37858 0.30286 0.36215 0.0
C814 C 0.29568 0.58364 0.7114 0.0
C815 C 0.28142 0.58061 0.69413 0.0
C816 C 0.31259 0.60061 0.71143 0.0
C817 C 0.32921 0.65459 0.68538 0.0
H818 H 0.38883 0.64199 0.70921 0.0
C819 C 0.40564 0.71669 0.67632 0.0
C820 C 0.41952 0.72032 0.69376 0.0
C821 C 0.38884 0.69962 0.6764 0.0
C822 C 0.37219 0.64588 0.7027 0.0
H823 H 0.27485 0.592 0.66279 0.0
H824 H 0.30405 0.62172 0.66289 0.0
H825 H 0.35949 0.61226 0.70932 0.0
H826 H 0.42707 0.70845 0.72476 0.0
H827 H 0.39767 0.67873 0.72499 0.0
H828 H 0.34192 0.68819 0.67874 0.0
C829 C 0.30171 0.61148 0.67669 0.0
C830 C 0.35536 0.62883 0.70277 0.0
C831 C 0.28481 0.59452 0.67668 0.0
C832 C 0.41658 0.70614 0.71111 0.0
C833 C 0.39979 0.68905 0.7112 0.0
C834 C 0.34604 0.67163 0.68531 0.0
C835 C 0.31575 0.61482 0.6941 0.0
C836 C 0.33366 0.63297 0.6941 0.0
C837 C 0.38566 0.68563 0.69387 0.0
C838 C 0.36775 0.66748 0.69397 0.0
H839 H 0.29354 0.57308 0.72504 0.0
H840 H 0.32297 0.60282 0.72516 0.0
H841 H 0.31258 0.65848 0.67886 0.0
H842 H 0.40806 0.72661 0.66238 0.0
H843 H 0.37863 0.69709 0.66262 0.0
C844 C 0.60335 0.7275 0.32597 0.0
C845 C 0.5806 0.72191 0.33095 0.0
C846 C 0.62035 0.71063 0.32582 0.0
C847 C 0.62872 0.64796 0.32209 0.0
H848 H 0.68838 0.6614 0.34548 0.0
C849 C 0.6969 0.57772 0.33503 0.0
C850 C 0.71982 0.58325 0.33068 0.0
C851 C 0.67999 0.59468 0.33502 0.0
C852 C 0.6719 0.65744 0.33867 0.0
H853 H 0.55772 0.69412 0.33908 0.0
H854 H 0.58738 0.66465 0.33893 0.0
H855 H 0.65874 0.69083 0.34547 0.0
H856 H 0.74269 0.61079 0.32178 0.0
H857 H 0.71329 0.64041 0.32194 0.0
H858 H 0.64187 0.61458 0.31527 0.0
C859 C 0.59211 0.68208 0.3351 0.0
C860 C 0.6549 0.67432 0.33867 0.0
C861 C 0.57512 0.69897 0.33526 0.0
C862 C 0.72539 0.60607 0.32595 0.0
C863 C 0.70848 0.62305 0.32593 0.0
C864 C 0.64572 0.63108 0.32208 0.0
C865 C 0.61496 0.68772 0.33046 0.0
C866 C 0.63309 0.66978 0.3304 0.0
C867 C 0.68557 0.61757 0.33049 0.0
C868 C 0.66752 0.6356 0.3304 0.0
H869 H 0.60801 0.74482 0.32178 0.0
H870 H 0.63766 0.71548 0.32171 0.0
H871 H 0.61224 0.64399 0.31529 0.0
H872 H 0.69205 0.56028 0.33871 0.0
H873 H 0.66258 0.58987 0.33883 0.0
C874 C 0.70609 0.41703 0.70938 0.0
C875 C 0.72017 0.42025 0.69201 0.0
C876 C 0.6891 0.40014 0.70937 0.0
C877 C 0.67188 0.34659 0.68301 0.0
H878 H 0.61265 0.35929 0.70757 0.0
C879 C 0.59517 0.28478 0.67454 0.0
C880 C 0.58155 0.28106 0.69213 0.0
C881 C 0.61198 0.30184 0.6745 0.0
C882 C 0.62918 0.35537 0.70086 0.0
H883 H 0.72639 0.40921 0.66051 0.0
H884 H 0.69702 0.37962 0.66055 0.0
H885 H 0.64213 0.38887 0.70753 0.0
H886 H 0.57441 0.29278 0.72324 0.0
H887 H 0.60384 0.32249 0.72326 0.0
H888 H 0.65893 0.3131 0.67634 0.0
C889 C 0.69956 0.38968 0.67443 0.0
C890 C 0.64609 0.37234 0.70083 0.0
C891 C 0.71654 0.40657 0.67445 0.0
C892 C 0.58472 0.29517 0.70949 0.0
C893 C 0.60152 0.31224 0.70946 0.0
C894 C 0.65498 0.32963 0.68304 0.0
C895 C 0.68568 0.3862 0.69191 0.0
C896 C 0.66765 0.36816 0.69191 0.0
C897 C 0.61543 0.31573 0.69199 0.0
C898 C 0.63342 0.3338 0.69196 0.0
H899 H 0.70842 0.42736 0.72312 0.0
H900 H 0.67887 0.39779 0.72317 0.0
H901 H 0.68841 0.34268 0.67629 0.0
H902 H 0.59256 0.27492 0.6606 0.0
H903 H 0.62201 0.30442 0.66061 0.0
C904 C 0.89735 0.77467 0.82575 0.0
C905 C 0.92008 0.78021 0.83084 0.0
C906 C 0.88037 0.79157 0.82557 0.0
C907 C 0.87218 0.85425 0.82185 0.0
H908 H 0.8124 0.84101 0.84506 0.0
C909 C 0.80415 0.92468 0.83463 0.0
C910 C 0.78123 0.91918 0.83029 0.0
C911 C 0.82103 0.9077 0.83461 0.0
C912 C 0.82891 0.84491 0.8383 0.0
H913 H 0.94294 0.80795 0.83919 0.0
H914 H 0.91333 0.83745 0.83898 0.0
H915 H 0.84193 0.81147 0.84514 0.0
H916 H 0.75831 0.89169 0.82133 0.0
H917 H 0.78767 0.86203 0.82146 0.0
H918 H 0.85918 0.88767 0.81499 0.0
C919 C 0.9086 0.82004 0.83508 0.0
C920 C 0.84585 0.82797 0.83835 0.0
C921 C 0.92556 0.80313 0.83527 0.0
C922 C 0.77562 0.89638 0.8255 0.0
C923 C 0.79251 0.87938 0.82547 0.0
C924 C 0.85524 0.87118 0.82179 0.0
C925 C 0.88578 0.81446 0.83029 0.0
C926 C 0.86771 0.83244 0.83015 0.0
C927 C 0.81542 0.88482 0.83007 0.0
C928 C 0.8334 0.86674 0.83004 0.0
H929 H 0.89268 0.75738 0.82148 0.0
H930 H 0.86307 0.78677 0.82137 0.0
H931 H 0.8887 0.85816 0.81511 0.0
H932 H 0.809 0.94212 0.83833 0.0
H933 H 0.83845 0.91247 0.83844 0.0
C934 C 0.7857 0.09367 0.17438 0.0
C935 C 0.78201 0.07996 0.19191 0.0
C936 C 0.80264 0.1106 0.17446 0.0
C937 C 0.85581 0.12829 0.20119 0.0
H938 H 0.84261 0.18744 0.17665 0.0
C939 C 0.91636 0.20609 0.21021 0.0
C940 C 0.91953 0.22019 0.19285 0.0
C941 C 0.89974 0.18884 0.21009 0.0
C942 C 0.84667 0.17094 0.18337 0.0
H943 H 0.79364 0.07275 0.22304 0.0
H944 H 0.82312 0.10241 0.22327 0.0
H945 H 0.81339 0.15761 0.17644 0.0
H946 H 0.90875 0.22614 0.16122 0.0
H947 H 0.8796 0.19634 0.16108 0.0
H948 H 0.88909 0.14164 0.20814 0.0
C949 C 0.81297 0.10007 0.20942 0.0
C950 C 0.82991 0.15383 0.18324 0.0
C951 C 0.79602 0.08313 0.20933 0.0
C952 C 0.90611 0.21629 0.17517 0.0
C953 C 0.88948 0.19906 0.17504 0.0
C954 C 0.87257 0.14541 0.20133 0.0
C955 C 0.8164 0.1141 0.19202 0.0
C956 C 0.83427 0.13229 0.19215 0.0
C957 C 0.88602 0.18518 0.19253 0.0
C958 C 0.8682 0.16694 0.19241 0.0
H959 H 0.7759 0.09105 0.1604 0.0
H960 H 0.80519 0.12071 0.16061 0.0
H961 H 0.85987 0.11179 0.2079 0.0
H962 H 0.92651 0.20862 0.22404 0.0
H963 H 0.8974 0.17859 0.22389 0.0
C964 C 0.10366 0.22593 0.82683 0.0
C965 C 0.08082 0.22031 0.83138 0.0
C966 C 0.12068 0.20907 0.827 0.0
C967 C 0.1291 0.1464 0.82331 0.0
H968 H 0.18838 0.15981 0.84748 0.0
C969 C 0.19748 0.0763 0.83654 0.0
C970 C 0.22039 0.08205 0.83242 0.0
C971 C 0.18044 0.09314 0.8365 0.0
C972 C 0.172 0.15586 0.84047 0.0
H973 H 0.05781 0.19249 0.83918 0.0
H974 H 0.08749 0.16307 0.83959 0.0
H975 H 0.15871 0.18921 0.8472 0.0
H976 H 0.24312 0.10983 0.82379 0.0
H977 H 0.21353 0.13921 0.82391 0.0
H978 H 0.14238 0.11306 0.81655 0.0
C979 C 0.09228 0.1805 0.83582 0.0
C980 C 0.15499 0.17272 0.84031 0.0
C981 C 0.07528 0.19737 0.83566 0.0
C982 C 0.22583 0.10494 0.82783 0.0
C983 C 0.2088 0.12179 0.82778 0.0
C984 C 0.14611 0.12954 0.82347 0.0
C985 C 0.11522 0.18615 0.83155 0.0
C986 C 0.13333 0.1682 0.83173 0.0
C987 C 0.1859 0.11612 0.83217 0.0
C988 C 0.16777 0.13405 0.83205 0.0
H989 H 0.1084 0.24324 0.8227 0.0
H990 H 0.13808 0.21393 0.82318 0.0
H991 H 0.11273 0.14245 0.81628 0.0
H992 H 0.19275 0.05879 0.84007 0.0
H993 H 0.16302 0.0882 0.84014 0.0
C994 C 0.20614 0.91496 0.21081 0.0
C995 C 0.22052 0.91781 0.1936 0.0
C996 C 0.18908 0.89814 0.21082 0.0
C997 C 0.17167 0.84443 0.18463 0.0
H998 H 0.11231 0.85797 0.20858 0.0
C999 C 0.09417 0.78369 0.17553 0.0
C1000 C 0.08053 0.77998 0.19311 0.0
C1001 C 0.11114 0.80059 0.17557 0.0
C1002 C 0.12887 0.85383 0.20203 0.0
H1003 H 0.22728 0.90615 0.16238 0.0
H1004 H 0.19776 0.87673 0.16241 0.0
H1005 H 0.14216 0.88718 0.20872 0.0
H1006 H 0.07347 0.79163 0.22427 0.0
H1007 H 0.10313 0.82111 0.22439 0.0
H1008 H 0.15833 0.8111 0.17787 0.0
C1009 C 0.20011 0.887 0.17619 0.0
C1010 C 0.146 0.87057 0.20212 0.0
C1011 C 0.21718 0.90379 0.17621 0.0
C1012 C 0.08379 0.794 0.21051 0.0
C1013 C 0.10073 0.81094 0.21056 0.0
C1014 C 0.15452 0.8277 0.18451 0.0
C1015 C 0.18586 0.88392 0.1935 0.0
C1016 C 0.16762 0.86608 0.19343 0.0
C1017 C 0.11471 0.81435 0.19312 0.0
C1018 C 0.13292 0.83219 0.19321 0.0
H1019 H 0.20826 0.92558 0.22441 0.0
H1020 H 0.17859 0.89611 0.2245 0.0
H1021 H 0.18822 0.84025 0.17809 0.0
H1022 H 0.09149 0.77393 0.16155 0.0
H1023 H 0.12123 0.80314 0.16171 0.0
C1024 C 0.17908 0.52565 0.29662 0.0
C1025 C 0.16928 0.52553 0.31647 0.0
C1026 C 0.17286 0.54243 0.28217 0.0
C1027 C 0.14782 0.59956 0.27533 0.0
H1028 H 0.12032 0.5747 0.22565 0.0
C1029 C 0.08816 0.65349 0.22301 0.0
C1030 C 0.08513 0.64715 0.20225 0.0
C1031 C 0.10243 0.64065 0.23601 0.0
C1032 C 0.12843 0.58219 0.23909 0.0
H1033 H 0.14635 0.54368 0.33713 0.0
H1034 H 0.1361 0.57336 0.31212 0.0
H1035 H 0.13888 0.54917 0.25008 0.0
H1036 H 0.09602 0.62353 0.1784 0.0
H1037 H 0.12202 0.60211 0.20054 0.0
H1038 H 0.13778 0.63263 0.26435 0.0
C1039 C 0.14835 0.56032 0.30767 0.0
C1040 C 0.13898 0.56741 0.25318 0.0
C1041 C 0.15416 0.54328 0.32194 0.0
C1042 C 0.09786 0.62869 0.1944 0.0
C1043 C 0.11257 0.61622 0.20724 0.0
C1044 C 0.1377 0.61447 0.261 0.0
C1045 C 0.15716 0.55972 0.28748 0.0
C1046 C 0.14839 0.57588 0.27161 0.0
C1047 C 0.11444 0.62143 0.22845 0.0
C1048 C 0.1274 0.60597 0.24283 0.0
H1049 H 0.19067 0.51214 0.2919 0.0
H1050 H 0.17992 0.54162 0.26671 0.0
H1051 H 0.15508 0.60653 0.2894 0.0
H1052 H 0.07839 0.6675 0.22956 0.0
H1053 H 0.10304 0.6452 0.25221 0.0
C1054 C 0.52502 0.82277 0.7308 0.0
C1055 C 0.52588 0.83142 0.71053 0.0
C1056 C 0.54153 0.82929 0.74539 0.0
C1057 C 0.59926 0.85226 0.75281 0.0
H1058 H 0.57392 0.88507 0.79956 0.0
C1059 C 0.65448 0.91284 0.80307 0.0
C1060 C 0.64751 0.91796 0.82332 0.0
C1061 C 0.64127 0.89839 0.79056 0.0
C1062 C 0.5815 0.87548 0.787 0.0
H1063 H 0.54542 0.85252 0.68933 0.0
H1064 H 0.57468 0.86318 0.71463 0.0
H1065 H 0.54844 0.86585 0.77551 0.0
H1066 H 0.62222 0.91064 0.84689 0.0
H1067 H 0.60004 0.8843 0.82569 0.0
H1068 H 0.63234 0.8614 0.76432 0.0
C1069 C 0.56108 0.85165 0.71928 0.0
C1070 C 0.56676 0.86456 0.7731 0.0
C1071 C 0.54429 0.84561 0.70484 0.0
C1072 C 0.62789 0.90718 0.83125 0.0
C1073 C 0.61501 0.89226 0.81894 0.0
C1074 C 0.6141 0.86274 0.76698 0.0
C1075 C 0.55951 0.84406 0.73983 0.0
C1076 C 0.57545 0.85323 0.75567 0.0
C1077 C 0.62101 0.88825 0.79813 0.0
C1078 C 0.60544 0.87497 0.78409 0.0
H1079 H 0.51095 0.81195 0.73567 0.0
H1080 H 0.53998 0.8232 0.76115 0.0
H1081 H 0.60638 0.84351 0.73951 0.0
H1082 H 0.66942 0.92107 0.79647 0.0
H1083 H 0.64647 0.89613 0.77463 0.0
C1084 C 0.81999 0.47602 0.29374 0.0
C1085 C 0.82803 0.4744 0.31417 0.0
C1086 C 0.8263 0.45959 0.27899 0.0
C1087 C 0.84873 0.40132 0.27128 0.0
H1088 H 0.88152 0.4272 0.22475 0.0
C1089 C 0.91034 0.34717 0.22103 0.0
C1090 C 0.91523 0.35421 0.20075 0.0
C1091 C 0.89567 0.36011 0.23358 0.0
C1092 C 0.87196 0.41947 0.23726 0.0
H1093 H 0.84772 0.45356 0.33547 0.0
H1094 H 0.85807 0.42455 0.30989 0.0
H1095 H 0.86208 0.4524 0.24889 0.0
H1096 H 0.90725 0.37931 0.17717 0.0
H1097 H 0.88063 0.40103 0.19846 0.0
H1098 H 0.85827 0.36837 0.25966 0.0
C1099 C 0.84715 0.43863 0.30523 0.0
C1100 C 0.86088 0.43405 0.2512 0.0
C1101 C 0.84129 0.45529 0.31984 0.0
C1102 C 0.90399 0.37359 0.19283 0.0
C1103 C 0.8889 0.38621 0.20519 0.0
C1104 C 0.85942 0.38665 0.2571 0.0
C1105 C 0.84029 0.44096 0.28453 0.0
C1106 C 0.84953 0.42518 0.26856 0.0
C1107 C 0.88512 0.38017 0.22601 0.0
C1108 C 0.87164 0.39552 0.24007 0.0
H1109 H 0.80989 0.49061 0.28887 0.0
H1110 H 0.82073 0.46174 0.26314 0.0
H1111 H 0.83998 0.39403 0.2845 0.0
H1112 H 0.9189 0.33242 0.22763 0.0
H1113 H 0.89356 0.3549 0.24952 0.0
C1114 C 0.34379 0.09129 0.80248 0.0
C1115 C 0.35312 0.08539 0.82181 0.0
C1116 C 0.35612 0.10509 0.78871 0.0
C1117 C 0.40285 0.14649 0.78285 0.0
H1118 H 0.41593 0.11477 0.73159 0.0
C1119 C 0.47638 0.17488 0.72818 0.0
C1120 C 0.47536 0.16882 0.7072 0.0
C1121 C 0.45913 0.16788 0.74187 0.0
C1122 C 0.41211 0.12433 0.74549 0.0
H1123 H 0.38196 0.09071 0.84239 0.0
H1124 H 0.4031 0.11544 0.81854 0.0
H1125 H 0.38929 0.09812 0.75611 0.0
H1126 H 0.4548 0.15218 0.68377 0.0
H1127 H 0.424 0.14142 0.70713 0.0
H1128 H 0.42525 0.17299 0.77219 0.0
C1129 C 0.38641 0.10911 0.814 0.0
C1130 C 0.39687 0.11461 0.75964 0.0
C1131 C 0.37432 0.09491 0.82761 0.0
C1132 C 0.45613 0.15687 0.69993 0.0
C1133 C 0.43859 0.15045 0.71346 0.0
C1134 C 0.41775 0.15655 0.76846 0.0
C1135 C 0.37777 0.11371 0.79417 0.0
C1136 C 0.39231 0.1254 0.77857 0.0
C1137 C 0.44015 0.15511 0.7348 0.0
C1138 C 0.4229 0.14546 0.74964 0.0
H1139 H 0.32757 0.08416 0.7975 0.0
H1140 H 0.34906 0.10847 0.77352 0.0
H1141 H 0.39956 0.15519 0.79734 0.0
H1142 H 0.49114 0.1839 0.73423 0.0
H1143 H 0.4613 0.17165 0.75813 0.0
C1144 C 0.15528 0.45595 0.70452 0.0
C1145 C 0.16976 0.47415 0.71019 0.0
C1146 C 0.14897 0.43927 0.71897 0.0
C1147 C 0.13592 0.43389 0.77278 0.0
H1148 H 0.13846 0.36821 0.76435 0.0
C1149 C 0.09299 0.37348 0.8314 0.0
C1150 C 0.08211 0.35383 0.82366 0.0
C1151 C 0.10791 0.3862 0.81895 0.0
C1152 C 0.13728 0.38649 0.7669 0.0
H1153 H 0.18946 0.48878 0.73535 0.0
H1154 H 0.17775 0.45995 0.76083 0.0
H1155 H 0.15656 0.39385 0.73939 0.0
H1156 H 0.07882 0.33171 0.79696 0.0
H1157 H 0.10374 0.35437 0.77489 0.0
H1158 H 0.11538 0.42709 0.7993 0.0
C1159 C 0.17164 0.45848 0.74507 0.0
C1160 C 0.14788 0.40114 0.75264 0.0
C1161 C 0.17842 0.47488 0.73047 0.0
C1162 C 0.08712 0.34667 0.80344 0.0
C1163 C 0.10157 0.35972 0.79078 0.0
C1164 C 0.12487 0.41934 0.78676 0.0
C1165 C 0.15658 0.44074 0.73952 0.0
C1166 C 0.14716 0.42498 0.7554 0.0
C1167 C 0.11183 0.38001 0.79818 0.0
C1168 C 0.12517 0.39537 0.78399 0.0
H1169 H 0.14835 0.45494 0.68901 0.0
H1170 H 0.13723 0.42585 0.71433 0.0
H1171 H 0.13482 0.45224 0.7751 0.0
H1172 H 0.08962 0.3793 0.84701 0.0
H1173 H 0.11596 0.40119 0.82558 0.0
C1174 C 0.47006 0.82159 0.30108 0.0
C1175 C 0.47543 0.83593 0.31788 0.0
C1176 C 0.45281 0.82773 0.28702 0.0
C1177 C 0.40347 0.86771 0.27968 0.0
H1178 H 0.41812 0.86188 0.22149 0.0
C1179 C 0.37956 0.91579 0.19898 0.0
C1180 C 0.35587 0.91915 0.20162 0.0
C1181 C 0.39176 0.9012 0.21211 0.0
C1182 C 0.41373 0.86364 0.23767 0.0
H1183 H 0.46613 0.86755 0.33343 0.0
H1184 H 0.43648 0.87822 0.30903 0.0
H1185 H 0.4435 0.84504 0.24725 0.0
H1186 H 0.32626 0.90866 0.21952 0.0
H1187 H 0.34755 0.88291 0.24228 0.0
H1188 H 0.37438 0.88735 0.2702 0.0
C1189 C 0.44535 0.86213 0.30672 0.0
C1190 C 0.42817 0.85372 0.25247 0.0
C1191 C 0.46255 0.85606 0.32069 0.0
C1192 C 0.3445 0.90659 0.21709 0.0
C1193 C 0.35675 0.89195 0.23025 0.0
C1194 C 0.38907 0.87767 0.2649 0.0
C1195 C 0.44046 0.84827 0.2895 0.0
C1196 C 0.42354 0.85612 0.2737 0.0
C1197 C 0.38064 0.88947 0.22823 0.0
C1198 C 0.39429 0.87625 0.24371 0.0
H1199 H 0.4796 0.80595 0.29844 0.0
H1200 H 0.44933 0.8165 0.27407 0.0
H1201 H 0.39914 0.86959 0.29587 0.0
H1202 H 0.38894 0.9251 0.18723 0.0
H1203 H 0.41014 0.9 0.21017 0.0
C1204 C 0.8459 0.54468 0.70396 0.0
C1205 C 0.83143 0.52643 0.70949 0.0
C1206 C 0.85189 0.56143 0.71845 0.0
C1207 C 0.86399 0.56702 0.77245 0.0
H1208 H 0.86173 0.63264 0.76358 0.0
C1209 C 0.90627 0.62765 0.83118 0.0
C1210 C 0.91745 0.64713 0.8234 0.0
C1211 C 0.8914 0.61497 0.81866 0.0
C1212 C 0.86281 0.61438 0.76627 0.0
H1213 H 0.81141 0.51175 0.73441 0.0
H1214 H 0.82257 0.5407 0.75998 0.0
H1215 H 0.84399 0.60686 0.73853 0.0
H1216 H 0.92128 0.66901 0.79661 0.0
H1217 H 0.89642 0.6464 0.77442 0.0
H1218 H 0.8841 0.57397 0.7992 0.0
C1219 C 0.82892 0.54216 0.7443 0.0
C1220 C 0.85242 0.59965 0.75196 0.0
C1221 C 0.82246 0.52569 0.72965 0.0
C1222 C 0.91274 0.65419 0.80309 0.0
C1223 C 0.89833 0.64117 0.79037 0.0
C1224 C 0.87482 0.58166 0.78649 0.0
C1225 C 0.84397 0.55998 0.7389 0.0
C1226 C 0.85306 0.57583 0.75485 0.0
C1227 C 0.88782 0.62102 0.7978 0.0
C1228 C 0.87462 0.6056 0.78357 0.0
H1229 H 0.85305 0.54572 0.68853 0.0
H1230 H 0.86364 0.5749 0.71394 0.0
H1231 H 0.86502 0.54869 0.77488 0.0
H1232 H 0.90941 0.62192 0.84686 0.0
H1233 H 0.88313 0.6001 0.8253 0.0
C1234 C 0.54637 0.15732 0.32397 0.0
C1235 C 0.52712 0.16912 0.31656 0.0
C1236 C 0.56387 0.15062 0.31052 0.0
C1237 C 0.58462 0.15561 0.25543 0.0
H1238 H 0.61262 0.09716 0.26853 0.0
C1239 C 0.62777 0.09323 0.19685 0.0
C1240 C 0.64878 0.08344 0.2028 0.0
C1241 C 0.61575 0.10759 0.21037 0.0
C1242 C 0.60518 0.11365 0.26478 0.0
H1243 H 0.51128 0.18369 0.28933 0.0
H1244 H 0.54108 0.17101 0.26557 0.0
H1245 H 0.58614 0.11441 0.29284 0.0
H1246 H 0.67409 0.08184 0.2273 0.0
H1247 H 0.65274 0.10645 0.25111 0.0
H1248 H 0.60279 0.15367 0.22657 0.0
C1249 C 0.54328 0.16754 0.28188 0.0
C1250 C 0.59002 0.12372 0.27881 0.0
C1251 C 0.52606 0.1748 0.29549 0.0
C1252 C 0.65801 0.08918 0.2222 0.0
C1253 C 0.64575 0.10315 0.23588 0.0
C1254 C 0.59944 0.14522 0.24117 0.0
C1255 C 0.56224 0.15487 0.28911 0.0
C1256 C 0.5794 0.14486 0.27439 0.0
C1257 C 0.62428 0.11209 0.23026 0.0
C1258 C 0.60981 0.12411 0.24572 0.0
H1259 H 0.54772 0.1529 0.3402 0.0
H1260 H 0.57845 0.14167 0.31695 0.0
H1261 H 0.57722 0.17204 0.25149 0.0
H1262 H 0.62022 0.08917 0.182 0.0
H1263 H 0.59919 0.11416 0.20569 0.0
C1264 C 0.58908 0.15417 0.7213 0.0
C1265 C 0.5847 0.14727 0.70089 0.0
C1266 C 0.60346 0.14116 0.73406 0.0
C1267 C 0.62742 0.08185 0.73778 0.0
H1268 H 0.65793 0.107 0.78593 0.0
C1269 C 0.67971 0.02568 0.79444 0.0
C1270 C 0.67101 0.02651 0.81469 0.0
C1271 C 0.67319 0.04217 0.77983 0.0
C1272 C 0.64958 0.0998 0.77246 0.0
H1273 H 0.59325 0.12236 0.67733 0.0
H1274 H 0.61944 0.10056 0.69899 0.0
H1275 H 0.64005 0.13279 0.76097 0.0
H1276 H 0.6498 0.046 0.83583 0.0
H1277 H 0.63908 0.07519 0.8105 0.0
H1278 H 0.6374 0.04888 0.74925 0.0
C1279 C 0.61097 0.1153 0.70565 0.0
C1280 C 0.63912 0.11454 0.7582 0.0
C1281 C 0.59614 0.12797 0.69308 0.0
C1282 C 0.65676 0.04489 0.82034 0.0
C1283 C 0.65068 0.06164 0.80588 0.0
C1284 C 0.63831 0.06721 0.75178 0.0
C1285 C 0.61424 0.12119 0.72658 0.0
C1286 C 0.62745 0.10578 0.74082 0.0
C1287 C 0.65832 0.0601 0.78534 0.0
C1288 C 0.64913 0.07598 0.76945 0.0
H1289 H 0.58033 0.16885 0.72781 0.0
H1290 H 0.60516 0.14626 0.75007 0.0
H1291 H 0.61826 0.07419 0.72499 0.0
H1292 H 0.69059 0.01165 0.78958 0.0
H1293 H 0.67934 0.04064 0.76409 0.0
C1294 C 0.12677 0.40698 0.32792 0.0
C1295 C 0.14777 0.41679 0.32195 0.0
C1296 C 0.11459 0.39285 0.31432 0.0
C1297 C 0.10346 0.38774 0.25997 0.0
H1298 H 0.07553 0.32916 0.2726 0.0
C1299 C 0.04405 0.34519 0.20057 0.0
C1300 C 0.02491 0.33316 0.20793 0.0
C1301 C 0.06162 0.35171 0.21402 0.0
C1302 C 0.0829 0.34565 0.26885 0.0
H1303 H 0.17288 0.41863 0.29732 0.0
H1304 H 0.15125 0.39443 0.27336 0.0
H1305 H 0.1014 0.347 0.29757 0.0
H1306 H 0.00934 0.31802 0.23503 0.0
H1307 H 0.03927 0.33043 0.2588 0.0
H1308 H 0.0841 0.38756 0.23208 0.0
C1309 C 0.1444 0.39753 0.28868 0.0
C1310 C 0.0979 0.35573 0.28314 0.0
C1311 C 0.15682 0.41127 0.30243 0.0
C1312 C 0.02403 0.32711 0.22891 0.0
C1313 C 0.04132 0.33421 0.24253 0.0
C1314 C 0.08812 0.37798 0.24593 0.0
C1315 C 0.12294 0.3886 0.29433 0.0
C1316 C 0.10828 0.3769 0.27882 0.0
C1317 C 0.06019 0.34706 0.23536 0.0
C1318 C 0.0775 0.35678 0.25011 0.0
H1319 H 0.11935 0.41087 0.34287 0.0
H1320 H 0.09804 0.38628 0.31903 0.0
H1321 H 0.1109 0.40428 0.25642 0.0
H1322 H 0.04528 0.34986 0.1844 0.0
H1323 H 0.07613 0.36081 0.20762 0.0
C1324 C 0.41297 0.84774 0.72234 0.0
C1325 C 0.41752 0.85455 0.70193 0.0
C1326 C 0.39864 0.86092 0.73501 0.0
C1327 C 0.37518 0.92047 0.73844 0.0
H1328 H 0.34464 0.89584 0.78679 0.0
C1329 C 0.32323 0.97711 0.79505 0.0
C1330 C 0.33227 0.97655 0.81519 0.0
C1331 C 0.3296 0.9605 0.7805 0.0
C1332 C 0.35299 0.90289 0.77326 0.0
H1333 H 0.40933 0.87947 0.67828 0.0
H1334 H 0.3832 0.90155 0.69976 0.0
H1335 H 0.36221 0.86976 0.76189 0.0
H1336 H 0.35396 0.95743 0.83621 0.0
H1337 H 0.3644 0.928 0.811 0.0
H1338 H 0.36547 0.95358 0.74978 0.0
C1339 C 0.39151 0.88676 0.7065 0.0
C1340 C 0.36328 0.88799 0.75903 0.0
C1341 C 0.40629 0.87392 0.69402 0.0
C1342 C 0.34674 0.95833 0.8208 0.0
C1343 C 0.35266 0.94145 0.80642 0.0
C1344 C 0.36444 0.93527 0.7524 0.0
C1345 C 0.38808 0.88097 0.72743 0.0
C1346 C 0.37499 0.89656 0.74159 0.0
C1347 C 0.34465 0.94271 0.78598 0.0
C1348 C 0.35363 0.92668 0.77013 0.0
H1349 H 0.42156 0.83301 0.72893 0.0
H1350 H 0.39684 0.85588 0.75102 0.0
H1351 H 0.38438 0.928 0.72561 0.0
H1352 H 0.31217 0.99102 0.79022 0.0
H1353 H 0.32318 0.96182 0.76483 0.0
C1354 C 0.9701 0.68003 0.22492 0.0
C1355 C 0.97555 0.66571 0.20813 0.0
C1356 C 0.95273 0.67392 0.23887 0.0
C1357 C 0.92769 0.64786 0.27319 0.0
H1358 H 0.87386 0.61463 0.25493 0.0
C1359 C 0.87849 0.58546 0.32589 0.0
C1360 C 0.8548 0.58222 0.32312 0.0
C1361 C 0.89081 0.60017 0.31297 0.0
C1362 C 0.88856 0.6242 0.26038 0.0
H1363 H 0.96628 0.63413 0.19249 0.0
H1364 H 0.93642 0.62351 0.21668 0.0
H1365 H 0.89893 0.6324 0.22951 0.0
H1366 H 0.82532 0.59307 0.30521 0.0
H1367 H 0.84684 0.619 0.28279 0.0
H1368 H 0.91736 0.63955 0.30406 0.0
C1369 C 0.94532 0.63957 0.21907 0.0
C1370 C 0.90313 0.63417 0.24574 0.0
C1371 C 0.96265 0.64561 0.20523 0.0
C1372 C 0.84356 0.59503 0.30774 0.0
C1373 C 0.85594 0.60979 0.29477 0.0
C1374 C 0.91308 0.63792 0.28784 0.0
C1375 C 0.94032 0.65343 0.23626 0.0
C1376 C 0.92322 0.64561 0.25191 0.0
C1377 C 0.87983 0.61214 0.29692 0.0
C1378 C 0.89363 0.62544 0.28161 0.0
H1379 H 0.97967 0.69564 0.22763 0.0
H1380 H 0.94918 0.68513 0.25181 0.0
H1381 H 0.94303 0.65643 0.27854 0.0
H1382 H 0.88777 0.57597 0.33759 0.0
H1383 H 0.90919 0.60128 0.315 0.0
C1384 C 0.67952 0.97465 0.22875 0.0
C1385 C 0.66977 0.9746 0.20887 0.0
C1386 C 0.67325 0.95799 0.24329 0.0
C1387 C 0.64839 0.90089 0.25051 0.0
H1388 H 0.62027 0.92615 0.29972 0.0
C1389 C 0.58863 0.84714 0.30285 0.0
C1390 C 0.58529 0.85373 0.32351 0.0
C1391 C 0.60295 0.85993 0.28986 0.0
C1392 C 0.62855 0.91855 0.28643 0.0
H1393 H 0.64691 0.95629 0.18827 0.0
H1394 H 0.63661 0.92679 0.21345 0.0
H1395 H 0.63889 0.95151 0.2752 0.0
H1396 H 0.59571 0.87774 0.34722 0.0
H1397 H 0.62181 0.89909 0.32511 0.0
H1398 H 0.63849 0.86788 0.26173 0.0
C1399 C 0.64883 0.93988 0.21785 0.0
C1400 C 0.63914 0.93324 0.27227 0.0
C1401 C 0.65467 0.95681 0.20348 0.0
C1402 C 0.59778 0.87239 0.33129 0.0
C1403 C 0.61254 0.88482 0.31847 0.0
C1404 C 0.63825 0.88608 0.2649 0.0
C1405 C 0.65758 0.94065 0.23805 0.0
C1406 C 0.64877 0.92462 0.254 0.0
C1407 C 0.61471 0.87935 0.29733 0.0
C1408 C 0.62772 0.89472 0.28291 0.0
H1409 H 0.69108 0.98821 0.23342 0.0
H1410 H 0.68026 0.95893 0.25877 0.0
H1411 H 0.65583 0.89381 0.23656 0.0
H1412 H 0.57907 0.83296 0.29636 0.0
H1413 H 0.60379 0.85517 0.27371 0.0
C1414 C 0.95532 0.34512 0.82085 0.0
C1415 C 0.97367 0.33079 0.81527 0.0
C1416 C 0.93868 0.35129 0.80632 0.0
C1417 C 0.93353 0.36396 0.75231 0.0
H1418 H 0.86787 0.36202 0.76089 0.0
C1419 C 0.87338 0.40662 0.69338 0.0
C1420 C 0.85394 0.4179 0.70109 0.0
C1421 C 0.88595 0.3917 0.70595 0.0
C1422 C 0.88615 0.36301 0.75829 0.0
H1423 H 0.98857 0.31117 0.7902 0.0
H1424 H 0.95978 0.3226 0.76459 0.0
H1425 H 0.89342 0.344 0.78597 0.0
H1426 H 0.832 0.42187 0.72783 0.0
H1427 H 0.85439 0.39688 0.75008 0.0
H1428 H 0.92683 0.38423 0.7256 0.0
C1429 C 0.95819 0.32873 0.78033 0.0
C1430 C 0.90075 0.35246 0.77262 0.0
C1431 C 0.97456 0.32211 0.79501 0.0
C1432 C 0.8468 0.41325 0.72138 0.0
C1433 C 0.85969 0.39877 0.73415 0.0
C1434 C 0.91903 0.37494 0.73825 0.0
C1435 C 0.94031 0.34367 0.78578 0.0
C1436 C 0.92458 0.35298 0.76982 0.0
C1437 C 0.8798 0.38815 0.72678 0.0
C1438 C 0.89508 0.37485 0.74107 0.0
H1439 H 0.95417 0.35207 0.83635 0.0
H1440 H 0.92516 0.36295 0.81089 0.0
H1441 H 0.95188 0.36491 0.74995 0.0
H1442 H 0.87919 0.40972 0.67772 0.0
H1443 H 0.9008 0.38335 0.69936 0.0
C1444 C 0.34261 0.04555 0.20422 0.0
C1445 C 0.32918 0.02656 0.2099 0.0
C1446 C 0.34875 0.06208 0.21886 0.0
C1447 C 0.3632 0.06618 0.27267 0.0
H1448 H 0.3605 0.13196 0.26493 0.0
C1449 C 0.40721 0.12605 0.33112 0.0
C1450 C 0.41811 0.14567 0.32331 0.0
C1451 C 0.39209 0.11344 0.31879 0.0
C1452 C 0.3617 0.11365 0.26728 0.0
H1453 H 0.31102 0.01044 0.23524 0.0
H1454 H 0.32237 0.03908 0.26102 0.0
H1455 H 0.34179 0.10664 0.24007 0.0
H1456 H 0.4212 0.16783 0.29661 0.0
H1457 H 0.39584 0.14537 0.27475 0.0
H1458 H 0.38432 0.07268 0.2989 0.0
C1459 C 0.32784 0.04124 0.24514 0.0
C1460 C 0.35076 0.09917 0.25309 0.0
C1461 C 0.32124 0.02496 0.23037 0.0
C1462 C 0.41292 0.15288 0.30314 0.0
C1463 C 0.39822 0.13996 0.29061 0.0
C1464 C 0.37455 0.08057 0.2866 0.0
C1465 C 0.34201 0.05972 0.23959 0.0
C1466 C 0.35157 0.07529 0.25557 0.0
C1467 C 0.38791 0.11974 0.29809 0.0
C1468 C 0.37421 0.10456 0.28404 0.0
H1469 H 0.34898 0.04726 0.18857 0.0
H1470 H 0.3598 0.07607 0.2142 0.0
H1471 H 0.36441 0.04781 0.27478 0.0
H1472 H 0.4107 0.12019 0.3467 0.0
H1473 H 0.38403 0.09846 0.32546 0.0
C1474 C 0.02582 0.67779 0.79566 0.0
C1475 C 0.02642 0.66892 0.81586 0.0
C1476 C 0.04238 0.67127 0.78113 0.0
C1477 C 0.0999 0.64755 0.77394 0.0
H1478 H 0.07452 0.61626 0.72636 0.0
C1479 C 0.15453 0.58711 0.723 0.0
C1480 C 0.14771 0.58268 0.70258 0.0
C1481 C 0.14147 0.6015 0.7357 0.0
C1482 C 0.08212 0.62542 0.73917 0.0
H1483 H 0.04557 0.6474 0.83701 0.0
H1484 H 0.07491 0.63669 0.81181 0.0
H1485 H 0.04911 0.63538 0.75053 0.0
H1486 H 0.12288 0.59115 0.67893 0.0
H1487 H 0.10098 0.61737 0.70047 0.0
H1488 H 0.13295 0.63806 0.76256 0.0
C1489 C 0.06147 0.64841 0.80717 0.0
C1490 C 0.06742 0.63628 0.75313 0.0
C1491 C 0.04464 0.65448 0.82155 0.0
C1492 C 0.12842 0.59408 0.69469 0.0
C1493 C 0.1157 0.60892 0.7072 0.0
C1494 C 0.11471 0.63712 0.75972 0.0
C1495 C 0.06016 0.65624 0.78668 0.0
C1496 C 0.07611 0.64708 0.77084 0.0
C1497 C 0.12151 0.61225 0.72814 0.0
C1498 C 0.10603 0.62545 0.74231 0.0
H1499 H 0.01191 0.68881 0.79078 0.0
H1500 H 0.04102 0.67755 0.76542 0.0
H1501 H 0.10703 0.65588 0.78745 0.0
H1502 H 0.1692 0.57839 0.72957 0.0
H1503 H 0.14651 0.60323 0.75172 0.0
C1504 C 0.22568 0.5031 0.59295 0.0
C1505 C 0.21276 0.52252 0.59814 0.0
C1506 C 0.23103 0.49847 0.57223 0.0
C1507 C 0.2321 0.52412 0.51945 0.0
H1508 H 0.21736 0.46261 0.5012 0.0
C1509 C 0.20571 0.50361 0.43589 0.0
C1510 C 0.21079 0.4821 0.42739 0.0
C1511 C 0.2116 0.5087 0.45631 0.0
C1512 C 0.22205 0.47975 0.506 0.0
H1513 H 0.1958 0.55262 0.58614 0.0
H1514 H 0.20529 0.54483 0.55006 0.0
H1515 H 0.21778 0.47139 0.53802 0.0
H1516 H 0.22718 0.44949 0.43297 0.0
H1517 H 0.23785 0.45839 0.46882 0.0
H1518 H 0.2358 0.53264 0.48743 0.0
C1519 C 0.21156 0.53323 0.56183 0.0
C1520 C 0.22227 0.4848 0.52717 0.0
C1521 C 0.20608 0.53771 0.58247 0.0
C1522 C 0.22305 0.46618 0.43927 0.0
C1523 C 0.22894 0.47123 0.45981 0.0
C1524 C 0.23197 0.51906 0.4983 0.0
C1525 C 0.22363 0.51327 0.55637 0.0
C1526 C 0.2267 0.50719 0.53414 0.0
C1527 C 0.2228 0.49239 0.46875 0.0
C1528 C 0.22632 0.49695 0.49125 0.0
H1529 H 0.2307 0.49098 0.60479 0.0
H1530 H 0.24048 0.48303 0.56856 0.0
H1531 H 0.23597 0.54145 0.5243 0.0
H1532 H 0.19632 0.51619 0.42695 0.0
H1533 H 0.20633 0.52504 0.46263 0.0
C1534 C 0.54012 0.79677 0.44434 0.0
C1535 C 0.5252 0.79 0.42849 0.0
C1536 C 0.53557 0.79091 0.46488 0.0
C1537 C 0.48719 0.77875 0.49915 0.0
H1538 H 0.535 0.76519 0.53889 0.0
C1539 C 0.46824 0.77678 0.587 0.0
C1540 C 0.48401 0.78912 0.59899 0.0
C1541 C 0.47343 0.77107 0.56645 0.0
C1542 C 0.52142 0.76902 0.52802 0.0
H1543 H 0.49413 0.77143 0.42141 0.0
H1544 H 0.48605 0.76103 0.45749 0.0
H1545 H 0.544 0.7658 0.50206 0.0
H1546 H 0.51794 0.80395 0.59957 0.0
H1547 H 0.52702 0.79422 0.56391 0.0
H1548 H 0.46482 0.78293 0.5251 0.0
C1549 C 0.50132 0.77085 0.45403 0.0
C1550 C 0.52659 0.76933 0.50689 0.0
C1551 C 0.50602 0.77658 0.4334 0.0
C1552 C 0.5055 0.79445 0.59057 0.0
C1553 C 0.51071 0.78874 0.57014 0.0
C1554 C 0.48203 0.77854 0.5203 0.0
C1555 C 0.51583 0.77833 0.47007 0.0
C1556 C 0.50967 0.77476 0.49222 0.0
C1557 C 0.49455 0.77748 0.5576 0.0
C1558 C 0.49922 0.77427 0.53507 0.0
H1559 H 0.55486 0.80738 0.44089 0.0
H1560 H 0.54695 0.79722 0.47681 0.0
H1561 H 0.47378 0.78323 0.48831 0.0
H1562 H 0.45155 0.7725 0.59322 0.0
H1563 H 0.46069 0.76212 0.55734 0.0
C1564 C 0.77352 0.5066 0.43231 0.0
C1565 C 0.78777 0.52503 0.42701 0.0
C1566 C 0.76813 0.5023 0.45308 0.0
C1567 C 0.7693 0.5278 0.50583 0.0
H1568 H 0.7808 0.46557 0.52401 0.0
C1569 C 0.79556 0.50616 0.58911 0.0
C1570 C 0.78959 0.48495 0.59776 0.0
C1571 C 0.78965 0.51145 0.56875 0.0
C1572 C 0.777 0.48294 0.51924 0.0
H1573 H 0.80698 0.55383 0.43885 0.0
H1574 H 0.79736 0.54667 0.47503 0.0
H1575 H 0.7804 0.47436 0.48718 0.0
H1576 H 0.77161 0.45311 0.59246 0.0
H1577 H 0.76087 0.46241 0.5567 0.0
H1578 H 0.76642 0.53652 0.53787 0.0
C1579 C 0.79015 0.53557 0.46331 0.0
C1580 C 0.7768 0.48799 0.49806 0.0
C1581 C 0.7957 0.53969 0.44261 0.0
C1582 C 0.77643 0.46957 0.58606 0.0
C1583 C 0.7705 0.47484 0.56557 0.0
C1584 C 0.76937 0.52274 0.52698 0.0
C1585 C 0.77677 0.51649 0.46887 0.0
C1586 C 0.77357 0.51059 0.49112 0.0
C1587 C 0.7775 0.49566 0.55649 0.0
C1588 C 0.77389 0.50037 0.53401 0.0
H1589 H 0.76747 0.49492 0.4205 0.0
H1590 H 0.75766 0.48756 0.45684 0.0
H1591 H 0.76638 0.54532 0.50099 0.0
H1592 H 0.80564 0.51833 0.5979 0.0
H1593 H 0.79561 0.52751 0.56233 0.0
C1594 C 0.49748 0.22527 0.43181 0.0
C1595 C 0.47741 0.21326 0.42685 0.0
C1596 C 0.50238 0.23088 0.45243 0.0
C1597 C 0.47697 0.23426 0.50526 0.0
H1598 H 0.53786 0.21717 0.52348 0.0
C1599 C 0.49706 0.20842 0.58909 0.0
C1600 C 0.51885 0.21271 0.59734 0.0
C1601 C 0.49198 0.21429 0.56866 0.0
C1602 C 0.52092 0.22252 0.51868 0.0
H1603 H 0.44643 0.19825 0.43912 0.0
H1604 H 0.45472 0.20816 0.47504 0.0
H1605 H 0.52887 0.2172 0.48672 0.0
H1606 H 0.55206 0.22763 0.59132 0.0
H1607 H 0.5432 0.23825 0.55545 0.0
H1608 H 0.46884 0.23898 0.53726 0.0
C1609 C 0.46663 0.21353 0.46316 0.0
C1610 C 0.51575 0.22252 0.49754 0.0
C1611 C 0.46186 0.20781 0.44262 0.0
C1612 C 0.53513 0.22418 0.58522 0.0
C1613 C 0.53009 0.23003 0.56467 0.0
C1614 C 0.48216 0.23433 0.52639 0.0
C1615 C 0.48723 0.22463 0.46842 0.0
C1616 C 0.49354 0.22782 0.49059 0.0
C1617 C 0.50862 0.22463 0.55597 0.0
C1618 C 0.50403 0.22787 0.53343 0.0
H1619 H 0.50986 0.22935 0.41989 0.0
H1620 H 0.5183 0.23958 0.45592 0.0
H1621 H 0.4598 0.23881 0.50042 0.0
H1622 H 0.48425 0.19957 0.59821 0.0
H1623 H 0.47538 0.2096 0.56252 0.0
C1624 C 0.70618 0.96147 0.94263 0.0
C1625 C 0.71344 0.97646 0.92701 0.0
C1626 C 0.7117 0.96574 0.9633 0.0
C1627 C 0.72353 0.01382 0.99797 0.0
H1628 H 0.73558 0.96574 0.03786 0.0
C1629 C 0.72398 0.03265 0.08583 0.0
C1630 C 0.71139 0.01697 0.0977 0.0
C1631 C 0.7299 0.02742 0.06534 0.0
C1632 C 0.73216 0.97939 0.02695 0.0
H1633 H 0.73261 0.0073 0.92046 0.0
H1634 H 0.7424 0.01491 0.95675 0.0
H1635 H 0.73577 0.95685 1.001 0.0
H1636 H 0.69637 0.98312 0.09818 0.0
H1637 H 0.70638 0.97399 0.06256 0.0
H1638 H 0.71895 0.03617 0.02387 0.0
C1639 C 0.73245 0.99981 0.95302 0.0
C1640 C 0.73231 0.97428 1.00581 0.0
C1641 C 0.72708 0.99537 0.93227 0.0
C1642 C 0.706 0.99552 0.08924 0.0
C1643 C 0.71189 0.99027 0.06885 0.0
C1644 C 0.72326 0.01891 0.01913 0.0
C1645 C 0.72441 0.98529 0.96883 0.0
C1646 C 0.72746 0.99131 0.99107 0.0
C1647 C 0.72344 0.00635 0.05642 0.0
C1648 C 0.727 0.00164 0.03394 0.0
H1649 H 0.69539 0.94694 0.9389 0.0
H1650 H 0.70497 0.95437 0.97504 0.0
H1651 H 0.71947 0.02731 0.98708 0.0
H1652 H 0.72837 0.04929 0.0921 0.0
H1653 H 0.73908 0.04008 0.05634 0.0
C1654 C 0.0382 0.29541 0.94337 0.0
C1655 C 0.02328 0.28826 0.92766 0.0
C1656 C 0.03389 0.28965 0.96398 0.0
C1657 C 0.98588 0.27725 0.99853 0.0
H1658 H 0.03394 0.26438 0.03821 0.0
C1659 C 0.96697 0.276 0.0863 0.0
C1660 C 0.98271 0.28842 0.09824 0.0
C1661 C 0.97224 0.27009 0.06581 0.0
C1662 C 0.0203 0.26803 0.02736 0.0
H1663 H 0.9925 0.2691 0.92088 0.0
H1664 H 0.98481 0.25891 0.95707 0.0
H1665 H 0.04281 0.26485 1.00135 0.0
H1666 H 0.01669 0.30311 0.09888 0.0
H1667 H 0.0259 0.29309 0.0633 0.0
H1668 H 0.96356 0.28145 0.02449 0.0
C1669 C 0.9999 0.26894 0.95346 0.0
C1670 C 0.02539 0.26825 1.00622 0.0
C1671 C 0.00437 0.27455 0.93277 0.0
C1672 C 0.00428 0.29356 0.08989 0.0
C1673 C 0.00956 0.28768 0.06951 0.0
C1674 C 0.9808 0.27716 0.01969 0.0
C1675 C 0.01438 0.27681 0.96936 0.0
C1676 C 0.00837 0.2734 0.99156 0.0
C1677 C 0.9934 0.2764 0.05697 0.0
C1678 C 0.99807 0.27312 0.03444 0.0
H1679 H 0.05273 0.30625 0.93976 0.0
H1680 H 0.04524 0.29625 0.97581 0.0
H1681 H 0.9724 0.28153 0.98769 0.0
H1682 H 0.95024 0.27184 0.09247 0.0
H1683 H 0.95951 0.26109 0.05673 0.0
C1684 C 0.29488 0.96238 0.08171 0.0
C1685 C 0.28844 0.97759 0.09743 0.0
C1686 C 0.2895 0.96709 0.06108 0.0
C1687 C 0.27987 0.01596 0.0267 0.0
H1688 H 0.26506 0.96886 0.98663 0.0
C1689 C 0.27922 0.0356 0.93898 0.0
C1690 C 0.29075 0.01941 0.92682 0.0
C1691 C 0.27338 0.03049 0.95951 0.0
C1692 C 0.26928 0.98224 0.99759 0.0
H1693 H 0.271 0.00937 0.10422 0.0
H1694 H 0.26144 0.01773 0.06802 0.0
H1695 H 0.26484 0.95969 0.02343 0.0
H1696 H 0.30404 0.98485 0.92591 0.0
H1697 H 0.29417 0.9759 0.96159 0.0
H1698 H 0.28526 0.03828 1.0009 0.0
C1699 C 0.2706 0.00211 0.07162 0.0
C1700 C 0.2691 0.97697 0.0187 0.0
C1701 C 0.27583 0.99725 0.09232 0.0
C1702 C 0.2952 0.99763 0.93506 0.0
C1703 C 0.28939 0.9925 0.95549 0.0
C1704 C 0.28016 0.02122 1.00557 0.0
C1705 C 0.27779 0.9873 0.0557 0.0
C1706 C 0.27491 0.99362 0.0335 0.0
C1707 C 0.27888 0.00902 0.96819 0.0
C1708 C 0.27542 0.00427 0.99069 0.0
H1709 H 0.30492 0.94729 0.08532 0.0
H1710 H 0.29558 0.95546 0.04924 0.0
H1711 H 0.28469 0.02915 0.03764 0.0
H1712 H 0.2756 0.05251 0.93289 0.0
H1713 H 0.265 0.04351 0.96872 0.0
C1714 C 0.99466 0.72609 0.93311 0.0
C1715 C 0.97646 0.71145 0.928 0.0
C1716 C 0.99904 0.73167 0.95383 0.0
C1717 C 0.9739 0.73017 1.00675 0.0
H1718 H 0.03653 0.72049 0.02464 0.0
C1719 C 0.99685 0.70413 0.08976 0.0
C1720 C 0.01782 0.71089 0.09839 0.0
C1721 C 0.99126 0.71 0.06945 0.0
C1722 C 0.01903 0.72378 0.01994 0.0
H1723 H 0.94814 0.69176 0.94015 0.0
H1724 H 0.95547 0.70165 0.97622 0.0
H1725 H 0.02752 0.72055 0.98785 0.0
H1726 H 0.04891 0.73013 0.09314 0.0
H1727 H 0.0391 0.74074 0.05744 0.0
H1728 H 0.96529 0.73281 0.03883 0.0
C1729 C 0.96633 0.70902 0.96439 0.0
C1730 C 0.01386 0.72378 0.99879 0.0
C1731 C 0.96212 0.7033 0.94375 0.0
C1732 C 0.03263 0.72473 0.08675 0.0
C1733 C 0.02708 0.73059 0.0663 0.0
C1734 C 0.97908 0.73026 0.02788 0.0
C1735 C 0.98515 0.72284 0.96976 0.0
C1736 C 0.99112 0.72633 0.99196 0.0
C1737 C 0.00652 0.72284 0.05724 0.0
C1738 C 0.00161 0.72639 0.03479 0.0
H1739 H 0.00611 0.73232 0.92119 0.0
H1740 H 0.01359 0.74247 0.95743 0.0
H1741 H 0.95628 0.73258 1.00201 0.0
H1742 H 0.98513 0.69348 0.09849 0.0
H1743 H 0.97543 0.70346 0.06302 0.0
loop_
_geom_bond_atom_site_label_1
_geom_bond_atom_site_label_2
_geom_bond_distance
_geom_bond_site_symmetry_2
_ccdc_geom_bond_type
Co0 O3 1.970 . S
Co0 N17 1.989 . S
Co0 O25 1.967 . S
Co0 O32 1.920 . S
Co1 O4 1.966 . S
Co1 N10 2.022 . S
Co1 N18 1.993 . S
Co1 O26 1.941 . S
C2 O3 1.258 . S
C2 O4 1.263 . S
O3 Co0 1.970 . S
O3 C2 1.258 . S
O4 Co1 1.966 . S
O4 C2 1.263 . S
C5 O6 1.235 . S
C5 O32 1.289 . S
O6 C5 1.235 . S
C7 C9 1.400 . S
C7 N10 1.351 . S
C7 C12 1.501 . S
C8 C9 1.387 . S
C8 N11 1.341 . S
C9 C7 1.400 . S
C9 C8 1.387 . S
N10 Co1 2.022 . S
N10 C7 1.351 . S
N10 N11 1.365 . S
N11 C8 1.341 . S
N11 N10 1.365 . S
N11 H31 0.862 . S
C12 C7 1.501 . S
C12 H13 0.961 . S
C12 H14 0.961 . S
C12 H15 0.960 . S
H13 C12 0.961 . S
H14 C12 0.961 . S
H15 C12 0.960 . S
C16 N17 1.342 . S
C16 C20 1.401 . S
C16 C21 1.499 . S
N17 Co0 1.989 . S
N17 C16 1.342 . S
N17 N18 1.388 . S
N18 Co1 1.993 . S
N18 N17 1.388 . S
N18 C19 1.346 . S
C19 N18 1.346 . S
C19 C20 1.396 . S
C19 C29 1.510 . S
C20 C16 1.401 . S
C20 C19 1.396 . S
C21 C16 1.499 . S
C21 H22 0.959 . S
C21 H23 0.960 . S
C21 H24 0.961 . S
H22 C21 0.959 . S
H23 C21 0.960 . S
H24 C21 0.961 . S
O25 Co0 1.967 . S
O25 C33 1.258 . S
O26 Co1 1.941 . S
O26 C33 1.266 . S
H27 C29 0.959 . S
H28 C29 0.961 . S
C29 C19 1.510 . S
C29 H27 0.959 . S
C29 H28 0.961 . S
C29 H30 0.960 . S
H30 C29 0.960 . S
H31 N11 0.862 . S
O32 Co0 1.920 . S
O32 C5 1.289 . S
C33 O25 1.258 . S
C33 O26 1.266 . S
Co34 O37 1.970 . S
Co34 N51 1.989 . S
Co34 O59 1.967 . S
Co34 O66 1.920 . S
Co35 O38 1.966 . S
Co35 N44 2.022 . S
Co35 N52 1.993 . S
Co35 O60 1.941 . S
C36 O37 1.258 . S
C36 O38 1.263 . S
O37 Co34 1.970 . S
O37 C36 1.258 . S
O38 Co35 1.966 . S
O38 C36 1.263 . S
C39 O40 1.235 . S
C39 O66 1.289 . S
O40 C39 1.235 . S
C41 C43 1.400 . S
C41 N44 1.351 . S
C41 C46 1.501 . S
C42 C43 1.387 . S
C42 N45 1.341 . S
C43 C41 1.400 . S
C43 C42 1.387 . S
N44 Co35 2.022 . S
N44 C41 1.351 . S
N44 N45 1.365 . S
N45 C42 1.341 . S
N45 N44 1.365 . S
N45 H65 0.862 . S
C46 C41 1.501 . S
C46 H47 0.961 . S
C46 H48 0.961 . S
C46 H49 0.960 . S
H47 C46 0.961 . S
H48 C46 0.961 . S
H49 C46 0.960 . S
C50 N51 1.342 . S
C50 C54 1.401 . S
C50 C55 1.499 . S
N51 Co34 1.989 . S
N51 C50 1.342 . S
N51 N52 1.388 . S
N52 Co35 1.993 . S
N52 N51 1.388 . S
N52 C53 1.346 . S
C53 N52 1.346 . S
C53 C54 1.396 . S
C53 C63 1.510 . S
C54 C50 1.401 . S
C54 C53 1.396 . S
C55 C50 1.499 . S
C55 H56 0.959 . S
C55 H57 0.960 . S
C55 H58 0.961 . S
H56 C55 0.959 . S
H57 C55 0.960 . S
H58 C55 0.961 . S
O59 Co34 1.967 . S
O59 C67 1.258 . S
O60 Co35 1.941 . S
O60 C67 1.266 . S
H61 C63 0.959 . S
H62 C63 0.961 . S
C63 C53 1.510 . S
C63 H61 0.959 . S
C63 H62 0.961 . S
C63 H64 0.960 . S
H64 C63 0.960 . S
H65 N45 0.862 . S
O66 Co34 1.920 . S
O66 C39 1.289 . S
C67 O59 1.258 . S
C67 O60 1.266 . S
Co68 O71 1.970 . S
Co68 N85 1.989 . S
Co68 O93 1.967 . S
Co68 O100 1.920 . S
Co69 O72 1.966 . S
Co69 N78 2.022 . S
Co69 N86 1.993 . S
Co69 O94 1.941 . S
C70 O71 1.258 . S
C70 O72 1.263 . S
O71 Co68 1.970 . S
O71 C70 1.258 . S
O72 Co69 1.966 . S
O72 C70 1.263 . S
C73 O74 1.235 . S
C73 O100 1.289 . S
O74 C73 1.235 . S
C75 C77 1.400 . S
C75 N78 1.351 . S
C75 C80 1.501 . S
C76 C77 1.387 . S
C76 N79 1.341 . S
C77 C75 1.400 . S
C77 C76 1.387 . S
N78 Co69 2.022 . S
N78 C75 1.351 . S
N78 N79 1.365 . S
N79 C76 1.341 . S
N79 N78 1.365 . S
N79 H99 0.862 . S
C80 C75 1.501 . S
C80 H81 0.961 . S
C80 H82 0.961 . S
C80 H83 0.960 . S
H81 C80 0.961 . S
H82 C80 0.961 . S
H83 C80 0.960 . S
C84 N85 1.342 . S
C84 C88 1.401 . S
C84 C89 1.499 . S
N85 Co68 1.989 . S
N85 C84 1.342 . S
N85 N86 1.388 . S
N86 Co69 1.993 . S
N86 N85 1.388 . S
N86 C87 1.346 . S
C87 N86 1.346 . S
C87 C88 1.396 . S
C87 C97 1.510 . S
C88 C84 1.401 . S
C88 C87 1.396 . S
C89 C84 1.499 . S
C89 H90 0.959 . S
C89 H91 0.960 . S
C89 H92 0.961 . S
H90 C89 0.959 . S
H91 C89 0.960 . S
H92 C89 0.961 . S
O93 Co68 1.967 . S
O93 C101 1.258 . S
O94 Co69 1.941 . S
O94 C101 1.266 . S
H95 C97 0.959 . S
H96 C97 0.961 . S
C97 C87 1.510 . S
C97 H95 0.959 . S
C97 H96 0.961 . S
C97 H98 0.960 . S
H98 C97 0.960 . S
H99 N79 0.862 . S
O100 Co68 1.920 . S
O100 C73 1.289 . S
C101 O93 1.258 . S
C101 O94 1.266 . S
Co102 O105 1.970 . S
Co102 N119 1.989 . S
Co102 O127 1.967 . S
Co102 O134 1.920 . S
Co103 O106 1.966 . S
Co103 N112 2.022 . S
Co103 N120 1.993 . S
Co103 O128 1.941 . S
C104 O105 1.258 . S
C104 O106 1.263 . S
O105 Co102 1.970 . S
O105 C104 1.258 . S
O106 Co103 1.966 . S
O106 C104 1.263 . S
C107 O108 1.235 . S
C107 O134 1.289 . S
O108 C107 1.235 . S
C109 C111 1.400 . S
C109 N112 1.351 . S
C109 C114 1.501 . S
C110 C111 1.387 . S
C110 N113 1.341 . S
C111 C109 1.400 . S
C111 C110 1.387 . S
N112 Co103 2.022 . S
N112 C109 1.351 . S
N112 N113 1.365 . S
N113 C110 1.341 . S
N113 N112 1.365 . S
N113 H133 0.862 . S
C114 C109 1.501 . S
C114 H115 0.961 . S
C114 H116 0.961 . S
C114 H117 0.960 . S
H115 C114 0.961 . S
H116 C114 0.961 . S
H117 C114 0.960 . S
C118 N119 1.342 . S
C118 C122 1.401 . S
C118 C123 1.499 . S
N119 Co102 1.989 . S
N119 C118 1.342 . S
N119 N120 1.388 . S
N120 Co103 1.993 . S
N120 N119 1.388 . S
N120 C121 1.346 . S
C121 N120 1.346 . S
C121 C122 1.396 . S
C121 C131 1.510 . S
C122 C118 1.401 . S
C122 C121 1.396 . S
C123 C118 1.499 . S
C123 H124 0.959 . S
C123 H125 0.960 . S
C123 H126 0.961 . S
H124 C123 0.959 . S
H125 C123 0.960 . S
H126 C123 0.961 . S
O127 Co102 1.967 . S
O127 C135 1.258 . S
O128 Co103 1.941 . S
O128 C135 1.266 . S
H129 C131 0.959 . S
H130 C131 0.961 . S
C131 C121 1.510 . S
C131 H129 0.959 . S
C131 H130 0.961 . S
C131 H132 0.960 . S
H132 C131 0.960 . S
H133 N113 0.862 . S
O134 Co102 1.920 . S
O134 C107 1.289 . S
C135 O127 1.258 . S
C135 O128 1.266 . S
Co136 O139 1.970 . S
Co136 N153 1.989 . S
Co136 O161 1.967 . S
Co136 O168 1.920 . S
Co137 O140 1.966 . S
Co137 N146 2.022 . S
Co137 N154 1.993 . S
Co137 O162 1.941 . S
C138 O139 1.258 . S
C138 O140 1.263 . S
O139 Co136 1.970 . S
O139 C138 1.258 . S
O140 Co137 1.966 . S
O140 C138 1.263 . S
C141 O142 1.235 . S
C141 O168 1.289 . S
O142 C141 1.235 . S
C143 C145 1.400 . S
C143 N146 1.351 . S
C143 C148 1.501 . S
C144 C145 1.387 . S
C144 N147 1.341 . S
C145 C143 1.400 . S
C145 C144 1.387 . S
N146 Co137 2.022 . S
N146 C143 1.351 . S
N146 N147 1.365 . S
N147 C144 1.341 . S
N147 N146 1.365 . S
N147 H167 0.862 . S
C148 C143 1.501 . S
C148 H149 0.961 . S
C148 H150 0.961 . S
C148 H151 0.960 . S
H149 C148 0.961 . S
H150 C148 0.961 . S
H151 C148 0.960 . S
C152 N153 1.342 . S
C152 C156 1.401 . S
C152 C157 1.499 . S
N153 Co136 1.989 . S
N153 C152 1.342 . S
N153 N154 1.388 . S
N154 Co137 1.993 . S
N154 N153 1.388 . S
N154 C155 1.346 . S
C155 N154 1.346 . S
C155 C156 1.396 . S
C155 C165 1.510 . S
C156 C152 1.401 . S
C156 C155 1.396 . S
C157 C152 1.499 . S
C157 H158 0.959 . S
C157 H159 0.960 . S
C157 H160 0.961 . S
H158 C157 0.959 . S
H159 C157 0.960 . S
H160 C157 0.961 . S
O161 Co136 1.967 . S
O161 C169 1.258 . S
O162 Co137 1.941 . S
O162 C169 1.266 . S
H163 C165 0.959 . S
H164 C165 0.961 . S
C165 C155 1.510 . S
C165 H163 0.959 . S
C165 H164 0.961 . S
C165 H166 0.960 . S
H166 C165 0.960 . S
H167 N147 0.862 . S
O168 Co136 1.920 . S
O168 C141 1.289 . S
C169 O161 1.258 . S
C169 O162 1.266 . S
Co170 O173 1.970 . S
Co170 N187 1.989 . S
Co170 O195 1.967 . S
Co170 O202 1.920 . S
Co171 O174 1.966 . S
Co171 N180 2.022 . S
Co171 N188 1.993 . S
Co171 O196 1.941 . S
C172 O173 1.258 . S
C172 O174 1.263 . S
O173 Co170 1.970 . S
O173 C172 1.258 . S
O174 Co171 1.966 . S
O174 C172 1.263 . S
C175 O176 1.235 . S
C175 O202 1.289 . S
O176 C175 1.235 . S
C177 C179 1.400 . S
C177 N180 1.351 . S
C177 C182 1.501 . S
C178 C179 1.387 . S
C178 N181 1.341 . S
C179 C177 1.400 . S
C179 C178 1.387 . S
N180 Co171 2.022 . S
N180 C177 1.351 . S
N180 N181 1.365 . S
N181 C178 1.341 . S
N181 N180 1.365 . S
N181 H201 0.862 . S
C182 C177 1.501 . S
C182 H183 0.961 . S
C182 H184 0.961 . S
C182 H185 0.960 . S
H183 C182 0.961 . S
H184 C182 0.961 . S
H185 C182 0.960 . S
C186 N187 1.342 . S
C186 C190 1.401 . S
C186 C191 1.499 . S
N187 Co170 1.989 . S
N187 C186 1.342 . S
N187 N188 1.388 . S
N188 Co171 1.993 . S
N188 N187 1.388 . S
N188 C189 1.346 . S
C189 N188 1.346 . S
C189 C190 1.396 . S
C189 C199 1.510 . S
C190 C186 1.401 . S
C190 C189 1.396 . S
C191 C186 1.499 . S
C191 H192 0.959 . S
C191 H193 0.960 . S
C191 H194 0.961 . S
H192 C191 0.959 . S
H193 C191 0.960 . S
H194 C191 0.961 . S
O195 Co170 1.967 . S
O195 C203 1.258 . S
O196 Co171 1.941 . S
O196 C203 1.266 . S
H197 C199 0.959 . S
H198 C199 0.961 . S
C199 C189 1.510 . S
C199 H197 0.959 . S
C199 H198 0.961 . S
C199 H200 0.960 . S
H200 C199 0.960 . S
H201 N181 0.862 . S
O202 Co170 1.920 . S
O202 C175 1.289 . S
C203 O195 1.258 . S
C203 O196 1.266 . S
Co204 O207 1.970 . S
Co204 N221 1.989 . S
Co204 O229 1.967 . S
Co204 O236 1.920 . S
Co205 O208 1.966 . S
Co205 N214 2.022 . S
Co205 N222 1.993 . S
Co205 O230 1.941 . S
C206 O207 1.258 . S
C206 O208 1.263 . S
O207 Co204 1.970 . S
O207 C206 1.258 . S
O208 Co205 1.966 . S
O208 C206 1.263 . S
C209 O210 1.235 . S
C209 O236 1.289 . S
O210 C209 1.235 . S
C211 C213 1.400 . S
C211 N214 1.351 . S
C211 C216 1.501 . S
C212 C213 1.387 . S
C212 N215 1.341 . S
C213 C211 1.400 . S
C213 C212 1.387 . S
N214 Co205 2.022 . S
N214 C211 1.351 . S
N214 N215 1.365 . S
N215 C212 1.341 . S
N215 N214 1.365 . S
N215 H235 0.862 . S
C216 C211 1.501 . S
C216 H217 0.961 . S
C216 H218 0.961 . S
C216 H219 0.960 . S
H217 C216 0.961 . S
H218 C216 0.961 . S
H219 C216 0.960 . S
C220 N221 1.342 . S
C220 C224 1.401 . S
C220 C225 1.499 . S
N221 Co204 1.989 . S
N221 C220 1.342 . S
N221 N222 1.388 . S
N222 Co205 1.993 . S
N222 N221 1.388 . S
N222 C223 1.346 . S
C223 N222 1.346 . S
C223 C224 1.396 . S
C223 C233 1.510 . S
C224 C220 1.401 . S
C224 C223 1.396 . S
C225 C220 1.499 . S
C225 H226 0.959 . S
C225 H227 0.960 . S
C225 H228 0.961 . S
H226 C225 0.959 . S
H227 C225 0.960 . S
H228 C225 0.961 . S
O229 Co204 1.967 . S
O229 C237 1.258 . S
O230 Co205 1.941 . S
O230 C237 1.266 . S
H231 C233 0.959 . S
H232 C233 0.961 . S
C233 C223 1.510 . S
C233 H231 0.959 . S
C233 H232 0.961 . S
C233 H234 0.960 . S
H234 C233 0.960 . S
H235 N215 0.862 . S
O236 Co204 1.920 . S
O236 C209 1.289 . S
C237 O229 1.258 . S
C237 O230 1.266 . S
Co238 O241 1.970 . S
Co238 N255 1.989 . S
Co238 O263 1.967 . S
Co238 O270 1.920 . S
Co239 O242 1.966 . S
Co239 N248 2.022 . S
Co239 N256 1.993 . S
Co239 O264 1.941 . S
C240 O241 1.258 . S
C240 O242 1.263 . S
O241 Co238 1.970 . S
O241 C240 1.258 . S
O242 Co239 1.966 . S
O242 C240 1.263 . S
C243 O244 1.235 . S
C243 O270 1.289 . S
O244 C243 1.235 . S
C245 C247 1.400 . S
C245 N248 1.351 . S
C245 C250 1.501 . S
C246 C247 1.387 . S
C246 N249 1.341 . S
C247 C245 1.400 . S
C247 C246 1.387 . S
N248 Co239 2.022 . S
N248 C245 1.351 . S
N248 N249 1.365 . S
N249 C246 1.341 . S
N249 N248 1.365 . S
N249 H269 0.862 . S
C250 C245 1.501 . S
C250 H251 0.961 . S
C250 H252 0.961 . S
C250 H253 0.960 . S
H251 C250 0.961 . S
H252 C250 0.961 . S
H253 C250 0.960 . S
C254 N255 1.342 . S
C254 C258 1.401 . S
C254 C259 1.499 . S
N255 Co238 1.989 . S
N255 C254 1.342 . S
N255 N256 1.388 . S
N256 Co239 1.993 . S
N256 N255 1.388 . S
N256 C257 1.346 . S
C257 N256 1.346 . S
C257 C258 1.396 . S
C257 C267 1.510 . S
C258 C254 1.401 . S
C258 C257 1.396 . S
C259 C254 1.499 . S
C259 H260 0.959 . S
C259 H261 0.960 . S
C259 H262 0.961 . S
H260 C259 0.959 . S
H261 C259 0.960 . S
H262 C259 0.961 . S
O263 Co238 1.967 . S
O263 C271 1.258 . S
O264 Co239 1.941 . S
O264 C271 1.266 . S
H265 C267 0.959 . S
H266 C267 0.961 . S
C267 C257 1.510 . S
C267 H265 0.959 . S
C267 H266 0.961 . S
C267 H268 0.960 . S
H268 C267 0.960 . S
H269 N249 0.862 . S
O270 Co238 1.920 . S
O270 C243 1.289 . S
C271 O263 1.258 . S
C271 O264 1.266 . S
Co272 O275 1.970 . S
Co272 N289 1.989 . S
Co272 O297 1.967 . S
Co272 O304 1.920 . S
Co273 O276 1.966 . S
Co273 N282 2.022 . S
Co273 N290 1.993 . S
Co273 O298 1.941 . S
C274 O275 1.258 . S
C274 O276 1.263 . S
O275 Co272 1.970 . S
O275 C274 1.258 . S
O276 Co273 1.966 . S
O276 C274 1.263 . S
C277 O278 1.235 . S
C277 O304 1.289 . S
O278 C277 1.235 . S
C279 C281 1.400 . S
C279 N282 1.351 . S
C279 C284 1.501 . S
C280 C281 1.387 . S
C280 N283 1.341 . S
C281 C279 1.400 . S
C281 C280 1.387 . S
N282 Co273 2.022 . S
N282 C279 1.351 . S
N282 N283 1.365 . S
N283 C280 1.341 . S
N283 N282 1.365 . S
N283 H303 0.862 . S
C284 C279 1.501 . S
C284 H285 0.961 . S
C284 H286 0.961 . S
C284 H287 0.960 . S
H285 C284 0.961 . S
H286 C284 0.961 . S
H287 C284 0.960 . S
C288 N289 1.342 . S
C288 C292 1.401 . S
C288 C293 1.499 . S
N289 Co272 1.989 . S
N289 C288 1.342 . S
N289 N290 1.388 . S
N290 Co273 1.993 . S
N290 N289 1.388 . S
N290 C291 1.346 . S
C291 N290 1.346 . S
C291 C292 1.396 . S
C291 C301 1.510 . S
C292 C288 1.401 . S
C292 C291 1.396 . S
C293 C288 1.499 . S
C293 H294 0.959 . S
C293 H295 0.960 . S
C293 H296 0.961 1_565 S
H294 C293 0.959 . S
H295 C293 0.960 . S
H296 C293 0.961 1_545 S
O297 Co272 1.967 . S
O297 C305 1.258 . S
O298 Co273 1.941 . S
O298 C305 1.266 . S
H299 C301 0.959 . S
H300 C301 0.961 . S
C301 C291 1.510 . S
C301 H299 0.959 . S
C301 H300 0.961 . S
C301 H302 0.960 . S
H302 C301 0.960 . S
H303 N283 0.862 . S
O304 Co272 1.920 . S
O304 C277 1.289 . S
C305 O297 1.258 . S
C305 O298 1.266 . S
Co306 O309 1.970 . S
Co306 N323 1.989 . S
Co306 O331 1.967 . S
Co306 O338 1.920 . S
Co307 O310 1.966 . S
Co307 N316 2.022 . S
Co307 N324 1.993 . S
Co307 O332 1.941 . S
C308 O309 1.258 . S
C308 O310 1.263 . S
O309 Co306 1.970 . S
O309 C308 1.258 . S
O310 Co307 1.966 . S
O310 C308 1.263 . S
C311 O312 1.235 . S
C311 O338 1.289 . S
O312 C311 1.235 . S
C313 C315 1.400 . S
C313 N316 1.351 . S
C313 C318 1.501 . S
C314 C315 1.387 . S
C314 N317 1.341 . S
C315 C313 1.400 . S
C315 C314 1.387 . S
N316 Co307 2.022 . S
N316 C313 1.351 . S
N316 N317 1.365 . S
N317 C314 1.341 . S
N317 N316 1.365 . S
N317 H337 0.862 . S
C318 C313 1.501 . S
C318 H319 0.961 . S
C318 H320 0.961 . S
C318 H321 0.960 . S
H319 C318 0.961 . S
H320 C318 0.961 . S
H321 C318 0.960 . S
C322 N323 1.342 . S
C322 C326 1.401 . S
C322 C327 1.499 . S
N323 Co306 1.989 . S
N323 C322 1.342 . S
N323 N324 1.388 . S
N324 Co307 1.993 . S
N324 N323 1.388 . S
N324 C325 1.346 . S
C325 N324 1.346 . S
C325 C326 1.396 . S
C325 C335 1.510 . S
C326 C322 1.401 . S
C326 C325 1.396 . S
C327 C322 1.499 . S
C327 H328 0.959 . S
C327 H329 0.960 . S
C327 H330 0.961 1_655 S
H328 C327 0.959 . S
H329 C327 0.960 . S
H330 C327 0.961 1_455 S
O331 Co306 1.967 . S
O331 C339 1.258 . S
O332 Co307 1.941 . S
O332 C339 1.266 . S
H333 C335 0.959 . S
H334 C335 0.961 . S
C335 C325 1.510 . S
C335 H333 0.959 . S
C335 H334 0.961 . S
C335 H336 0.960 . S
H336 C335 0.960 . S
H337 N317 0.862 . S
O338 Co306 1.920 . S
O338 C311 1.289 . S
C339 O331 1.258 . S
C339 O332 1.266 . S
Co340 O343 1.970 . S
Co340 N357 1.989 . S
Co340 O365 1.967 . S
Co340 O372 1.920 . S
Co341 O344 1.966 . S
Co341 N350 2.022 . S
Co341 N358 1.993 . S
Co341 O366 1.941 . S
C342 O343 1.258 . S
C342 O344 1.263 . S
O343 Co340 1.970 . S
O343 C342 1.258 . S
O344 Co341 1.966 . S
O344 C342 1.263 . S
C345 O346 1.235 . S
C345 O372 1.289 . S
O346 C345 1.235 . S
C347 C349 1.400 . S
C347 N350 1.351 . S
C347 C352 1.501 . S
C348 C349 1.387 . S
C348 N351 1.341 . S
C349 C347 1.400 . S
C349 C348 1.387 . S
N350 Co341 2.022 . S
N350 C347 1.351 . S
N350 N351 1.365 . S
N351 C348 1.341 . S
N351 N350 1.365 . S
N351 H371 0.862 . S
C352 C347 1.501 . S
C352 H353 0.961 . S
C352 H354 0.961 . S
C352 H355 0.960 . S
H353 C352 0.961 . S
H354 C352 0.961 . S
H355 C352 0.960 . S
C356 N357 1.342 . S
C356 C360 1.401 . S
C356 C361 1.499 . S
N357 Co340 1.989 . S
N357 C356 1.342 . S
N357 N358 1.388 . S
N358 Co341 1.993 . S
N358 N357 1.388 . S
N358 C359 1.346 . S
C359 N358 1.346 . S
C359 C360 1.396 . S
C359 C369 1.510 . S
C360 C356 1.401 . S
C360 C359 1.396 . S
C361 C356 1.499 . S
C361 H362 0.959 . S
C361 H363 0.960 . S
C361 H364 0.961 1_545 S
H362 C361 0.959 . S
H363 C361 0.960 . S
H364 C361 0.961 1_565 S
O365 Co340 1.967 . S
O365 C373 1.258 . S
O366 Co341 1.941 . S
O366 C373 1.266 . S
H367 C369 0.959 . S
H368 C369 0.961 . S
C369 C359 1.510 . S
C369 H367 0.959 . S
C369 H368 0.961 . S
C369 H370 0.960 . S
H370 C369 0.960 . S
H371 N351 0.862 . S
O372 Co340 1.920 . S
O372 C345 1.289 . S
C373 O365 1.258 . S
C373 O366 1.266 . S
Co374 O377 1.970 . S
Co374 N391 1.989 . S
Co374 O399 1.967 . S
Co374 O406 1.920 . S
Co375 O378 1.966 . S
Co375 N384 2.022 . S
Co375 N392 1.993 . S
Co375 O400 1.941 . S
C376 O377 1.258 . S
C376 O378 1.263 . S
O377 Co374 1.970 . S
O377 C376 1.258 . S
O378 Co375 1.966 . S
O378 C376 1.263 . S
C379 O380 1.235 . S
C379 O406 1.289 . S
O380 C379 1.235 . S
C381 C383 1.400 . S
C381 N384 1.351 . S
C381 C386 1.501 . S
C382 C383 1.387 . S
C382 N385 1.341 . S
C383 C381 1.400 . S
C383 C382 1.387 . S
N384 Co375 2.022 . S
N384 C381 1.351 . S
N384 N385 1.365 . S
N385 C382 1.341 . S
N385 N384 1.365 . S
N385 H405 0.862 . S
C386 C381 1.501 . S
C386 H387 0.961 . S
C386 H388 0.961 . S
C386 H389 0.960 . S
H387 C386 0.961 . S
H388 C386 0.961 . S
H389 C386 0.960 . S
C390 N391 1.342 . S
C390 C394 1.401 . S
C390 C395 1.499 . S
N391 Co374 1.989 . S
N391 C390 1.342 . S
N391 N392 1.388 . S
N392 Co375 1.993 . S
N392 N391 1.388 . S
N392 C393 1.346 . S
C393 N392 1.346 . S
C393 C394 1.396 . S
C393 C403 1.510 . S
C394 C390 1.401 . S
C394 C393 1.396 . S
C395 C390 1.499 . S
C395 H396 0.959 . S
C395 H397 0.960 . S
C395 H398 0.961 1_455 S
H396 C395 0.959 . S
H397 C395 0.960 . S
H398 C395 0.961 1_655 S
O399 Co374 1.967 . S
O399 C407 1.258 . S
O400 Co375 1.941 . S
O400 C407 1.266 . S
H401 C403 0.959 . S
H402 C403 0.961 . S
C403 C393 1.510 . S
C403 H401 0.959 . S
C403 H402 0.961 . S
C403 H404 0.960 . S
H404 C403 0.960 . S
H405 N385 0.862 . S
O406 Co374 1.920 . S
O406 C379 1.289 . S
C407 O399 1.258 . S
C407 O400 1.266 . S
Co408 O411 1.970 . S
Co408 N425 1.989 . S
Co408 O433 1.967 . S
Co408 O440 1.920 . S
Co409 O412 1.966 . S
Co409 N418 2.022 . S
Co409 N426 1.993 . S
Co409 O434 1.941 . S
C410 O411 1.258 . S
C410 O412 1.263 . S
O411 Co408 1.970 . S
O411 C410 1.258 . S
O412 Co409 1.966 . S
O412 C410 1.263 . S
C413 O414 1.235 . S
C413 O440 1.289 . S
O414 C413 1.235 . S
C415 C417 1.400 . S
C415 N418 1.351 . S
C415 C420 1.501 . S
C416 C417 1.387 . S
C416 N419 1.341 . S
C417 C415 1.400 . S
C417 C416 1.387 . S
N418 Co409 2.022 . S
N418 C415 1.351 . S
N418 N419 1.365 . S
N419 C416 1.341 . S
N419 N418 1.365 . S
N419 H439 0.862 . S
C420 C415 1.501 . S
C420 H421 0.961 . S
C420 H422 0.961 . S
C420 H423 0.960 . S
H421 C420 0.961 . S
H422 C420 0.961 . S
H423 C420 0.960 . S
C424 N425 1.342 . S
C424 C428 1.401 . S
C424 C429 1.499 . S
N425 Co408 1.989 . S
N425 C424 1.342 . S
N425 N426 1.388 . S
N426 Co409 1.993 . S
N426 N425 1.388 . S
N426 C427 1.346 . S
C427 N426 1.346 . S
C427 C428 1.396 . S
C427 C437 1.510 . S
C428 C424 1.401 . S
C428 C427 1.396 . S
C429 C424 1.499 . S
C429 H430 0.959 . S
C429 H431 0.960 . S
C429 H432 0.961 1_545 S
H430 C429 0.959 . S
H431 C429 0.960 . S
H432 C429 0.961 1_565 S
O433 Co408 1.967 . S
O433 C441 1.258 . S
O434 Co409 1.941 . S
O434 C441 1.266 . S
H435 C437 0.959 . S
H436 C437 0.961 . S
C437 C427 1.510 . S
C437 H435 0.959 . S
C437 H436 0.961 . S
C437 H438 0.960 . S
H438 C437 0.960 . S
H439 N419 0.862 . S
O440 Co408 1.920 . S
O440 C413 1.289 . S
C441 O433 1.258 . S
C441 O434 1.266 . S
Co442 O445 1.970 . S
Co442 N459 1.989 . S
Co442 O467 1.967 . S
Co442 O474 1.920 . S
Co443 O446 1.966 . S
Co443 N452 2.022 . S
Co443 N460 1.993 . S
Co443 O468 1.941 . S
C444 O445 1.258 . S
C444 O446 1.263 . S
O445 Co442 1.970 . S
O445 C444 1.258 . S
O446 Co443 1.966 . S
O446 C444 1.263 . S
C447 O448 1.235 . S
C447 O474 1.289 . S
O448 C447 1.235 . S
C449 C451 1.400 . S
C449 N452 1.351 . S
C449 C454 1.501 . S
C450 C451 1.387 . S
C450 N453 1.341 . S
C451 C449 1.400 . S
C451 C450 1.387 . S
N452 Co443 2.022 . S
N452 C449 1.351 . S
N452 N453 1.365 . S
N453 C450 1.341 . S
N453 N452 1.365 . S
N453 H473 0.862 . S
C454 C449 1.501 . S
C454 H455 0.961 . S
C454 H456 0.961 . S
C454 H457 0.960 . S
H455 C454 0.961 . S
H456 C454 0.961 . S
H457 C454 0.960 . S
C458 N459 1.342 . S
C458 C462 1.401 . S
C458 C463 1.499 . S
N459 Co442 1.989 . S
N459 C458 1.342 . S
N459 N460 1.388 . S
N460 Co443 1.993 . S
N460 N459 1.388 . S
N460 C461 1.346 . S
C461 N460 1.346 . S
C461 C462 1.396 . S
C461 C471 1.510 . S
C462 C458 1.401 . S
C462 C461 1.396 . S
C463 C458 1.499 . S
C463 H464 0.959 . S
C463 H465 0.960 . S
C463 H466 0.961 1_455 S
H464 C463 0.959 . S
H465 C463 0.960 . S
H466 C463 0.961 1_655 S
O467 Co442 1.967 . S
O467 C475 1.258 . S
O468 Co443 1.941 . S
O468 C475 1.266 . S
H469 C471 0.959 . S
H470 C471 0.961 . S
C471 C461 1.510 . S
C471 H469 0.959 . S
C471 H470 0.961 . S
C471 H472 0.960 . S
H472 C471 0.960 . S
H473 N453 0.862 . S
O474 Co442 1.920 . S
O474 C447 1.289 . S
C475 O467 1.258 . S
C475 O468 1.266 . S
Co476 O479 1.970 . S
Co476 N493 1.989 . S
Co476 O501 1.967 . S
Co476 O508 1.920 . S
Co477 O480 1.966 . S
Co477 N486 2.022 . S
Co477 N494 1.993 . S
Co477 O502 1.941 . S
C478 O479 1.258 . S
C478 O480 1.263 . S
O479 Co476 1.970 . S
O479 C478 1.258 . S
O480 Co477 1.966 . S
O480 C478 1.263 . S
C481 O482 1.235 . S
C481 O508 1.289 . S
O482 C481 1.235 . S
C483 C485 1.400 . S
C483 N486 1.351 . S
C483 C488 1.501 . S
C484 C485 1.387 . S
C484 N487 1.341 . S
C485 C483 1.400 . S
C485 C484 1.387 . S
N486 Co477 2.022 . S
N486 C483 1.351 . S
N486 N487 1.365 . S
N487 C484 1.341 . S
N487 N486 1.365 . S
N487 H507 0.862 . S
C488 C483 1.501 . S
C488 H489 0.961 . S
C488 H490 0.961 . S
C488 H491 0.960 . S
H489 C488 0.961 . S
H490 C488 0.961 . S
H491 C488 0.960 . S
C492 N493 1.342 . S
C492 C496 1.401 . S
C492 C497 1.499 . S
N493 Co476 1.989 . S
N493 C492 1.342 . S
N493 N494 1.388 . S
N494 Co477 1.993 . S
N494 N493 1.388 . S
N494 C495 1.346 . S
C495 N494 1.346 . S
C495 C496 1.396 . S
C495 C505 1.510 . S
C496 C492 1.401 . S
C496 C495 1.396 . S
C497 C492 1.499 . S
C497 H498 0.959 . S
C497 H499 0.960 . S
C497 H500 0.961 1_565 S
H498 C497 0.959 . S
H499 C497 0.960 . S
H500 C497 0.961 1_545 S
O501 Co476 1.967 . S
O501 C509 1.258 . S
O502 Co477 1.941 . S
O502 C509 1.266 . S
H503 C505 0.959 . S
H504 C505 0.961 . S
C505 C495 1.510 . S
C505 H503 0.959 . S
C505 H504 0.961 . S
C505 H506 0.960 . S
H506 C505 0.960 . S
H507 N487 0.862 . S
O508 Co476 1.920 . S
O508 C481 1.289 . S
C509 O501 1.258 . S
C509 O502 1.266 . S
Co510 O513 1.970 . S
Co510 N527 1.989 . S
Co510 O535 1.967 . S
Co510 O542 1.920 . S
Co511 O514 1.966 . S
Co511 N520 2.022 . S
Co511 N528 1.993 . S
Co511 O536 1.941 . S
C512 O513 1.258 . S
C512 O514 1.263 . S
O513 Co510 1.970 . S
O513 C512 1.258 . S
O514 Co511 1.966 . S
O514 C512 1.263 . S
C515 O516 1.235 . S
C515 O542 1.289 . S
O516 C515 1.235 . S
C517 C519 1.400 . S
C517 N520 1.351 . S
C517 C522 1.501 . S
C518 C519 1.387 . S
C518 N521 1.341 . S
C519 C517 1.400 . S
C519 C518 1.387 . S
N520 Co511 2.022 . S
N520 C517 1.351 . S
N520 N521 1.365 . S
N521 C518 1.341 . S
N521 N520 1.365 . S
N521 H541 0.862 . S
C522 C517 1.501 . S
C522 H523 0.961 . S
C522 H524 0.961 . S
C522 H525 0.960 . S
H523 C522 0.961 . S
H524 C522 0.961 . S
H525 C522 0.960 . S
C526 N527 1.342 . S
C526 C530 1.401 . S
C526 C531 1.499 . S
N527 Co510 1.989 . S
N527 C526 1.342 . S
N527 N528 1.388 . S
N528 Co511 1.993 . S
N528 N527 1.388 . S
N528 C529 1.346 . S
C529 N528 1.346 . S
C529 C530 1.396 . S
C529 C539 1.510 . S
C530 C526 1.401 . S
C530 C529 1.396 . S
C531 C526 1.499 . S
C531 H532 0.959 . S
C531 H533 0.960 . S
C531 H534 0.961 1_655 S
H532 C531 0.959 . S
H533 C531 0.960 . S
H534 C531 0.961 1_455 S
O535 Co510 1.967 . S
O535 C543 1.258 . S
O536 Co511 1.941 . S
O536 C543 1.266 . S
H537 C539 0.959 . S
H538 C539 0.961 . S
C539 C529 1.510 . S
C539 H537 0.959 . S
C539 H538 0.961 . S
C539 H540 0.960 . S
H540 C539 0.960 . S
H541 N521 0.862 . S
O542 Co510 1.920 . S
O542 C515 1.289 . S
C543 O535 1.258 . S
C543 O536 1.266 . S
C544 C545 1.349 . S
C544 C546 1.327 . S
C544 H569 0.950 . S
C545 C544 1.349 . S
C545 C561 1.349 . S
C546 C544 1.327 . S
C546 C565 1.429 . S
C546 H570 0.950 . S
C547 C564 1.574 1_655 S
C547 C566 1.368 . S
C547 H571 0.949 . S
H548 C552 0.949 . S
C549 C550 1.349 . S
C549 C551 1.327 . S
C549 H572 0.950 . S
C550 C549 1.349 . S
C550 C562 1.349 . S
C551 C549 1.327 . S
C551 C567 1.429 . S
C551 H573 0.950 . S
C552 H548 0.949 . S
C552 C560 1.574 1_455 S
C552 C568 1.368 . S
H553 C561 0.950 . S
H554 C559 0.950 . S
H555 C560 0.949 . S
H556 C562 0.950 . S
H557 C563 0.950 . S
H558 C564 0.949 . S
C559 H554 0.950 . S
C559 C561 1.327 . S
C559 C565 1.429 . S
C560 C552 1.574 1_655 S
C560 H555 0.949 . S
C560 C566 1.368 . S
C561 C545 1.349 . S
C561 H553 0.950 . S
C561 C559 1.327 . S
C562 C550 1.349 . S
C562 H556 0.950 . S
C562 C563 1.327 . S
C563 H557 0.950 . S
C563 C562 1.327 . S
C563 C567 1.429 . S
C564 C547 1.574 1_455 S
C564 H558 0.949 . S
C564 C568 1.368 . S
C565 C546 1.429 . S
C565 C559 1.429 . S
C565 C566 1.523 . S
C566 C547 1.368 . S
C566 C560 1.368 . S
C566 C565 1.523 . S
C567 C551 1.429 . S
C567 C563 1.429 . S
C567 C568 1.523 . S
C568 C552 1.368 . S
C568 C564 1.368 . S
C568 C567 1.523 . S
H569 C544 0.950 . S
H570 C546 0.950 . S
H571 C547 0.949 . S
H572 C549 0.950 . S
H573 C551 0.950 . S
C574 C575 1.349 . S
C574 C576 1.327 . S
C574 H599 0.950 . S
C575 C574 1.349 . S
C575 C591 1.349 . S
C576 C574 1.327 . S
C576 C595 1.429 . S
C576 H600 0.950 . S
C577 C594 1.574 1_545 S
C577 C596 1.368 . S
C577 H601 0.949 . S
H578 C582 0.949 . S
C579 C580 1.349 . S
C579 C581 1.327 . S
C579 H602 0.950 . S
C580 C579 1.349 . S
C580 C592 1.349 . S
C581 C579 1.327 . S
C581 C597 1.429 . S
C581 H603 0.950 . S
C582 H578 0.949 . S
C582 C590 1.574 1_565 S
C582 C598 1.368 . S
H583 C591 0.950 . S
H584 C589 0.950 . S
H585 C590 0.949 . S
H586 C592 0.950 . S
H587 C593 0.950 . S
H588 C594 0.949 . S
C589 H584 0.950 . S
C589 C591 1.327 . S
C589 C595 1.429 . S
C590 C582 1.574 1_545 S
C590 H585 0.949 . S
C590 C596 1.368 . S
C591 C575 1.349 . S
C591 H583 0.950 . S
C591 C589 1.327 . S
C592 C580 1.349 . S
C592 H586 0.950 . S
C592 C593 1.327 . S
C593 H587 0.950 . S
C593 C592 1.327 . S
C593 C597 1.429 . S
C594 C577 1.574 1_565 S
C594 H588 0.949 . S
C594 C598 1.368 . S
C595 C576 1.429 . S
C595 C589 1.429 . S
C595 C596 1.523 . S
C596 C577 1.368 . S
C596 C590 1.368 . S
C596 C595 1.523 . S
C597 C581 1.429 . S
C597 C593 1.429 . S
C597 C598 1.523 . S
C598 C582 1.368 . S
C598 C594 1.368 . S
C598 C597 1.523 . S
H599 C574 0.950 . S
H600 C576 0.950 . S
H601 C577 0.949 . S
H602 C579 0.950 . S
H603 C581 0.950 . S
C604 C605 1.349 . S
C604 C606 1.327 . S
C604 H629 0.950 . S
C605 C604 1.349 . S
C605 C621 1.349 . S
C606 C604 1.327 . S
C606 C625 1.429 . S
C606 H630 0.950 . S
C607 C624 1.574 1_655 S
C607 C626 1.368 . S
C607 H631 0.949 . S
H608 C612 0.949 . S
C609 C610 1.349 . S
C609 C611 1.327 . S
C609 H632 0.950 . S
C610 C609 1.349 . S
C610 C622 1.349 . S
C611 C609 1.327 . S
C611 C627 1.429 . S
C611 H633 0.950 . S
C612 H608 0.949 . S
C612 C620 1.574 1_455 S
C612 C628 1.368 . S
H613 C621 0.950 . S
H614 C619 0.950 . S
H615 C620 0.949 . S
H616 C622 0.950 . S
H617 C623 0.950 . S
H618 C624 0.949 . S
C619 H614 0.950 . S
C619 C621 1.327 . S
C619 C625 1.429 . S
C620 C612 1.574 1_655 S
C620 H615 0.949 . S
C620 C626 1.368 . S
C621 C605 1.349 . S
C621 H613 0.950 . S
C621 C619 1.327 . S
C622 C610 1.349 . S
C622 H616 0.950 . S
C622 C623 1.327 . S
C623 H617 0.950 . S
C623 C622 1.327 . S
C623 C627 1.429 . S
C624 C607 1.574 1_455 S
C624 H618 0.949 . S
C624 C628 1.368 . S
C625 C606 1.429 . S
C625 C619 1.429 . S
C625 C626 1.523 . S
C626 C607 1.368 . S
C626 C620 1.368 . S
C626 C625 1.523 . S
C627 C611 1.429 . S
C627 C623 1.429 . S
C627 C628 1.523 . S
C628 C612 1.368 . S
C628 C624 1.368 . S
C628 C627 1.523 . S
H629 C604 0.950 . S
H630 C606 0.950 . S
H631 C607 0.949 . S
H632 C609 0.950 . S
H633 C611 0.950 . S
C634 C635 1.349 . S
C634 C636 1.327 . S
C634 H659 0.950 . S
C635 C634 1.349 . S
C635 C651 1.349 . S
C636 C634 1.327 . S
C636 C655 1.429 . S
C636 H660 0.950 . S
C637 C654 1.574 1_565 S
C637 C656 1.368 . S
C637 H661 0.949 . S
H638 C642 0.949 . S
C639 C640 1.349 . S
C639 C641 1.327 . S
C639 H662 0.950 . S
C640 C639 1.349 . S
C640 C652 1.349 . S
C641 C639 1.327 . S
C641 C657 1.429 . S
C641 H663 0.950 . S
C642 H638 0.949 . S
C642 C650 1.574 1_545 S
C642 C658 1.368 . S
H643 C651 0.950 . S
H644 C649 0.950 . S
H645 C650 0.949 . S
H646 C652 0.950 . S
H647 C653 0.950 . S
H648 C654 0.949 . S
C649 H644 0.950 . S
C649 C651 1.327 . S
C649 C655 1.429 . S
C650 C642 1.574 1_565 S
C650 H645 0.949 . S
C650 C656 1.368 . S
C651 C635 1.349 . S
C651 H643 0.950 . S
C651 C649 1.327 . S
C652 C640 1.349 . S
C652 H646 0.950 . S
C652 C653 1.327 . S
C653 H647 0.950 . S
C653 C652 1.327 . S
C653 C657 1.429 . S
C654 C637 1.574 1_545 S
C654 H648 0.949 . S
C654 C658 1.368 . S
C655 C636 1.429 . S
C655 C649 1.429 . S
C655 C656 1.523 . S
C656 C637 1.368 . S
C656 C650 1.368 . S
C656 C655 1.523 . S
C657 C641 1.429 . S
C657 C653 1.429 . S
C657 C658 1.523 . S
C658 C642 1.368 . S
C658 C654 1.368 . S
C658 C657 1.523 . S
H659 C634 0.950 . S
H660 C636 0.950 . S
H661 C637 0.949 . S
H662 C639 0.950 . S
H663 C641 0.950 . S
C664 C665 1.345 1_545 S
C664 C666 1.328 . S
C664 H689 0.953 . S
C665 C664 1.345 1_565 S
C665 C681 1.349 . S
C666 C664 1.328 . S
C666 C685 1.429 1_545 S
C666 H690 0.950 . S
C667 C684 1.574 . S
C667 C686 1.368 . S
C667 H691 0.949 . S
H668 C672 0.949 . S
C669 C670 1.345 1_565 S
C669 C671 1.328 . S
C669 H692 0.953 . S
C670 C669 1.345 1_545 S
C670 C682 1.349 . S
C671 C669 1.328 . S
C671 C687 1.429 1_565 S
C671 H693 0.950 . S
C672 H668 0.949 . S
C672 C680 1.574 . S
C672 C688 1.368 . S
H673 C681 0.950 . S
H674 C679 0.950 . S
H675 C680 0.949 . S
H676 C682 0.950 . S
H677 C683 0.950 . S
H678 C684 0.949 . S
C679 H674 0.950 . S
C679 C681 1.327 . S
C679 C685 1.429 . S
C680 C672 1.574 . S
C680 H675 0.949 . S
C680 C686 1.368 1_545 S
C681 C665 1.349 . S
C681 H673 0.950 . S
C681 C679 1.327 . S
C682 C670 1.349 . S
C682 H676 0.950 . S
C682 C683 1.327 . S
C683 H677 0.950 . S
C683 C682 1.327 . S
C683 C687 1.429 . S
C684 C667 1.574 . S
C684 H678 0.949 . S
C684 C688 1.368 1_565 S
C685 C666 1.429 1_565 S
C685 C679 1.429 . S
C685 C686 1.523 . S
C686 C667 1.368 . S
C686 C680 1.368 1_565 S
C686 C685 1.523 . S
C687 C671 1.429 1_545 S
C687 C683 1.429 . S
C687 C688 1.523 . S
C688 C672 1.368 . S
C688 C684 1.368 1_545 S
C688 C687 1.523 . S
H689 C664 0.953 . S
H690 C666 0.950 . S
H691 C667 0.949 . S
H692 C669 0.953 . S
H693 C671 0.950 . S
C694 C695 1.345 1_455 S
C694 C696 1.328 . S
C694 H719 0.953 . S
C695 C694 1.345 1_655 S
C695 C711 1.349 . S
C696 C694 1.328 . S
C696 C715 1.429 1_455 S
C696 H720 0.950 . S
C697 C714 1.574 . S
C697 C716 1.368 . S
C697 H721 0.949 . S
H698 C702 0.949 . S
C699 C700 1.345 1_655 S
C699 C701 1.328 . S
C699 H722 0.953 . S
C700 C699 1.345 1_455 S
C700 C712 1.349 . S
C701 C699 1.328 . S
C701 C717 1.429 1_655 S
C701 H723 0.950 . S
C702 H698 0.949 . S
C702 C710 1.574 . S
C702 C718 1.368 . S
H703 C711 0.950 . S
H704 C709 0.950 . S
H705 C710 0.949 . S
H706 C712 0.950 . S
H707 C713 0.950 . S
H708 C714 0.949 . S
C709 H704 0.950 . S
C709 C711 1.327 . S
C709 C715 1.429 . S
C710 C702 1.574 . S
C710 H705 0.949 . S
C710 C716 1.368 1_455 S
C711 C695 1.349 . S
C711 H703 0.950 . S
C711 C709 1.327 . S
C712 C700 1.349 . S
C712 H706 0.950 . S
C712 C713 1.327 . S
C713 H707 0.950 . S
C713 C712 1.327 . S
C713 C717 1.429 . S
C714 C697 1.574 . S
C714 H708 0.949 . S
C714 C718 1.368 1_655 S
C715 C696 1.429 1_655 S
C715 C709 1.429 . S
C715 C716 1.523 . S
C716 C697 1.368 . S
C716 C710 1.368 1_655 S
C716 C715 1.523 . S
C717 C701 1.429 1_455 S
C717 C713 1.429 . S
C717 C718 1.523 . S
C718 C702 1.368 . S
C718 C714 1.368 1_455 S
C718 C717 1.523 . S
H719 C694 0.953 . S
H720 C696 0.950 . S
H721 C697 0.949 . S
H722 C699 0.953 . S
H723 C701 0.950 . S
C724 C725 1.345 1_545 S
C724 C726 1.328 . S
C724 H749 0.953 . S
C725 C724 1.345 1_565 S
C725 C741 1.349 . S
C726 C724 1.328 . S
C726 C745 1.429 1_545 S
C726 H750 0.950 . S
C727 C744 1.574 . S
C727 C746 1.368 . S
C727 H751 0.949 . S
H728 C732 0.949 . S
C729 C730 1.345 1_565 S
C729 C731 1.328 . S
C729 H752 0.953 . S
C730 C729 1.345 1_545 S
C730 C742 1.349 . S
C731 C729 1.328 . S
C731 C747 1.429 1_565 S
C731 H753 0.950 . S
C732 H728 0.949 . S
C732 C740 1.574 . S
C732 C748 1.368 . S
H733 C741 0.950 . S
H734 C739 0.950 . S
H735 C740 0.949 . S
H736 C742 0.950 . S
H737 C743 0.950 . S
H738 C744 0.949 . S
C739 H734 0.950 . S
C739 C741 1.327 . S
C739 C745 1.429 . S
C740 C732 1.574 . S
C740 H735 0.949 . S
C740 C746 1.368 1_545 S
C741 C725 1.349 . S
C741 H733 0.950 . S
C741 C739 1.327 . S
C742 C730 1.349 . S
C742 H736 0.950 . S
C742 C743 1.327 . S
C743 H737 0.950 . S
C743 C742 1.327 . S
C743 C747 1.429 . S
C744 C727 1.574 . S
C744 H738 0.949 . S
C744 C748 1.368 1_565 S
C745 C726 1.429 1_565 S
C745 C739 1.429 . S
C745 C746 1.523 . S
C746 C727 1.368 . S
C746 C740 1.368 1_565 S
C746 C745 1.523 . S
C747 C731 1.429 1_545 S
C747 C743 1.429 . S
C747 C748 1.523 . S
C748 C732 1.368 . S
C748 C744 1.368 1_545 S
C748 C747 1.523 . S
H749 C724 0.953 . S
H750 C726 0.950 . S
H751 C727 0.949 . S
H752 C729 0.953 . S
H753 C731 0.950 . S
C754 C755 1.345 1_455 S
C754 C756 1.328 . S
C754 H779 0.953 . S
C755 C754 1.345 1_655 S
C755 C771 1.349 . S
C756 C754 1.328 . S
C756 C775 1.429 1_455 S
C756 H780 0.950 . S
C757 C774 1.574 . S
C757 C776 1.368 . S
C757 H781 0.949 . S
H758 C762 0.949 . S
C759 C760 1.345 1_655 S
C759 C761 1.328 . S
C759 H782 0.953 . S
C760 C759 1.345 1_455 S
C760 C772 1.349 . S
C761 C759 1.328 . S
C761 C777 1.429 1_655 S
C761 H783 0.950 . S
C762 H758 0.949 . S
C762 C770 1.574 . S
C762 C778 1.368 . S
H763 C771 0.950 . S
H764 C769 0.950 . S
H765 C770 0.949 . S
H766 C772 0.950 . S
H767 C773 0.950 . S
H768 C774 0.949 . S
C769 H764 0.950 . S
C769 C771 1.327 . S
C769 C775 1.429 . S
C770 C762 1.574 . S
C770 H765 0.949 . S
C770 C776 1.368 1_455 S
C771 C755 1.349 . S
C771 H763 0.950 . S
C771 C769 1.327 . S
C772 C760 1.349 . S
C772 H766 0.950 . S
C772 C773 1.327 . S
C773 H767 0.950 . S
C773 C772 1.327 . S
C773 C777 1.429 . S
C774 C757 1.574 . S
C774 H768 0.949 . S
C774 C778 1.368 1_655 S
C775 C756 1.429 1_655 S
C775 C769 1.429 . S
C775 C776 1.523 . S
C776 C757 1.368 . S
C776 C770 1.368 1_655 S
C776 C775 1.523 . S
C777 C761 1.429 1_455 S
C777 C773 1.429 . S
C777 C778 1.523 . S
C778 C762 1.368 . S
C778 C774 1.368 1_455 S
C778 C777 1.523 . S
H779 C754 0.953 . S
H780 C756 0.950 . S
H781 C757 0.949 . S
H782 C759 0.953 . S
H783 C761 0.950 . S
C784 C785 1.349 . S
C784 C786 1.327 . S
C784 H809 0.950 . S
C785 C784 1.349 . S
C785 C801 1.349 . S
C786 C784 1.327 . S
C786 C805 1.429 . S
C786 H810 0.950 . S
C787 C804 1.574 . S
C787 C806 1.368 . S
C787 H811 0.949 . S
H788 C792 0.949 . S
C789 C790 1.349 . S
C789 C791 1.327 . S
C789 H812 0.950 . S
C790 C789 1.349 . S
C790 C802 1.349 . S
C791 C789 1.327 . S
C791 C807 1.429 . S
C791 H813 0.950 . S
C792 H788 0.949 . S
C792 C800 1.574 . S
C792 C808 1.368 . S
H793 C801 0.950 . S
H794 C799 0.950 . S
H795 C800 0.949 . S
H796 C802 0.950 . S
H797 C803 0.950 . S
H798 C804 0.949 . S
C799 H794 0.950 . S
C799 C801 1.327 . S
C799 C805 1.429 . S
C800 C792 1.574 . S
C800 H795 0.949 . S
C800 C806 1.368 . S
C801 C785 1.349 . S
C801 H793 0.950 . S
C801 C799 1.327 . S
C802 C790 1.349 . S
C802 H796 0.950 . S
C802 C803 1.327 . S
C803 H797 0.950 . S
C803 C802 1.327 . S
C803 C807 1.429 . S
C804 C787 1.574 . S
C804 H798 0.949 . S
C804 C808 1.368 . S
C805 C786 1.429 . S
C805 C799 1.429 . S
C805 C806 1.523 . S
C806 C787 1.368 . S
C806 C800 1.368 . S
C806 C805 1.523 . S
C807 C791 1.429 . S
C807 C803 1.429 . S
C807 C808 1.523 . S
C808 C792 1.368 . S
C808 C804 1.368 . S
C808 C807 1.523 . S
H809 C784 0.950 . S
H810 C786 0.950 . S
H811 C787 0.949 . S
H812 C789 0.950 . S
H813 C791 0.950 . S
C814 C815 1.349 . S
C814 C816 1.327 . S
C814 H839 0.950 . S
C815 C814 1.349 . S
C815 C831 1.349 . S
C816 C814 1.327 . S
C816 C835 1.429 . S
C816 H840 0.950 . S
C817 C834 1.574 . S
C817 C836 1.368 . S
C817 H841 0.949 . S
H818 C822 0.949 . S
C819 C820 1.349 . S
C819 C821 1.327 . S
C819 H842 0.950 . S
C820 C819 1.349 . S
C820 C832 1.349 . S
C821 C819 1.327 . S
C821 C837 1.429 . S
C821 H843 0.950 . S
C822 H818 0.949 . S
C822 C830 1.574 . S
C822 C838 1.368 . S
H823 C831 0.950 . S
H824 C829 0.950 . S
H825 C830 0.949 . S
H826 C832 0.950 . S
H827 C833 0.950 . S
H828 C834 0.949 . S
C829 H824 0.950 . S
C829 C831 1.327 . S
C829 C835 1.429 . S
C830 C822 1.574 . S
C830 H825 0.949 . S
C830 C836 1.368 . S
C831 C815 1.349 . S
C831 H823 0.950 . S
C831 C829 1.327 . S
C832 C820 1.349 . S
C832 H826 0.950 . S
C832 C833 1.327 . S
C833 H827 0.950 . S
C833 C832 1.327 . S
C833 C837 1.429 . S
C834 C817 1.574 . S
C834 H828 0.949 . S
C834 C838 1.368 . S
C835 C816 1.429 . S
C835 C829 1.429 . S
C835 C836 1.523 . S
C836 C817 1.368 . S
C836 C830 1.368 . S
C836 C835 1.523 . S
C837 C821 1.429 . S
C837 C833 1.429 . S
C837 C838 1.523 . S
C838 C822 1.368 . S
C838 C834 1.368 . S
C838 C837 1.523 . S
H839 C814 0.950 . S
H840 C816 0.950 . S
H841 C817 0.949 . S
H842 C819 0.950 . S
H843 C821 0.950 . S
C844 C845 1.349 . S
C844 C846 1.327 . S
C844 H869 0.950 . S
C845 C844 1.349 . S
C845 C861 1.349 . S
C846 C844 1.327 . S
C846 C865 1.429 . S
C846 H870 0.950 . S
C847 C864 1.574 . S
C847 C866 1.368 . S
C847 H871 0.949 . S
H848 C852 0.949 . S
C849 C850 1.349 . S
C849 C851 1.327 . S
C849 H872 0.950 . S
C850 C849 1.349 . S
C850 C862 1.349 . S
C851 C849 1.327 . S
C851 C867 1.429 . S
C851 H873 0.950 . S
C852 H848 0.949 . S
C852 C860 1.574 . S
C852 C868 1.368 . S
H853 C861 0.950 . S
H854 C859 0.950 . S
H855 C860 0.949 . S
H856 C862 0.950 . S
H857 C863 0.950 . S
H858 C864 0.949 . S
C859 H854 0.950 . S
C859 C861 1.327 . S
C859 C865 1.429 . S
C860 C852 1.574 . S
C860 H855 0.949 . S
C860 C866 1.368 . S
C861 C845 1.349 . S
C861 H853 0.950 . S
C861 C859 1.327 . S
C862 C850 1.349 . S
C862 H856 0.950 . S
C862 C863 1.327 . S
C863 H857 0.950 . S
C863 C862 1.327 . S
C863 C867 1.429 . S
C864 C847 1.574 . S
C864 H858 0.949 . S
C864 C868 1.368 . S
C865 C846 1.429 . S
C865 C859 1.429 . S
C865 C866 1.523 . S
C866 C847 1.368 . S
C866 C860 1.368 . S
C866 C865 1.523 . S
C867 C851 1.429 . S
C867 C863 1.429 . S
C867 C868 1.523 . S
C868 C852 1.368 . S
C868 C864 1.368 . S
C868 C867 1.523 . S
H869 C844 0.950 . S
H870 C846 0.950 . S
H871 C847 0.949 . S
H872 C849 0.950 . S
H873 C851 0.950 . S
C874 C875 1.349 . S
C874 C876 1.327 . S
C874 H899 0.950 . S
C875 C874 1.349 . S
C875 C891 1.349 . S
C876 C874 1.327 . S
C876 C895 1.429 . S
C876 H900 0.950 . S
C877 C894 1.574 . S
C877 C896 1.368 . S
C877 H901 0.949 . S
H878 C882 0.949 . S
C879 C880 1.349 . S
C879 C881 1.327 . S
C879 H902 0.950 . S
C880 C879 1.349 . S
C880 C892 1.349 . S
C881 C879 1.327 . S
C881 C897 1.429 . S
C881 H903 0.950 . S
C882 H878 0.949 . S
C882 C890 1.574 . S
C882 C898 1.368 . S
H883 C891 0.950 . S
H884 C889 0.950 . S
H885 C890 0.949 . S
H886 C892 0.950 . S
H887 C893 0.950 . S
H888 C894 0.949 . S
C889 H884 0.950 . S
C889 C891 1.327 . S
C889 C895 1.429 . S
C890 C882 1.574 . S
C890 H885 0.949 . S
C890 C896 1.368 . S
C891 C875 1.349 . S
C891 H883 0.950 . S
C891 C889 1.327 . S
C892 C880 1.349 . S
C892 H886 0.950 . S
C892 C893 1.327 . S
C893 H887 0.950 . S
C893 C892 1.327 . S
C893 C897 1.429 . S
C894 C877 1.574 . S
C894 H888 0.949 . S
C894 C898 1.368 . S
C895 C876 1.429 . S
C895 C889 1.429 . S
C895 C896 1.523 . S
C896 C877 1.368 . S
C896 C890 1.368 . S
C896 C895 1.523 . S
C897 C881 1.429 . S
C897 C893 1.429 . S
C897 C898 1.523 . S
C898 C882 1.368 . S
C898 C894 1.368 . S
C898 C897 1.523 . S
H899 C874 0.950 . S
H900 C876 0.950 . S
H901 C877 0.949 . S
H902 C879 0.950 . S
H903 C881 0.950 . S
C904 C905 1.349 . S
C904 C906 1.327 . S
C904 H929 0.950 . S
C905 C904 1.349 . S
C905 C921 1.349 . S
C906 C904 1.327 . S
C906 C925 1.429 . S
C906 H930 0.950 . S
C907 C924 1.574 . S
C907 C926 1.368 . S
C907 H931 0.949 . S
H908 C912 0.949 . S
C909 C910 1.349 . S
C909 C911 1.327 . S
C909 H932 0.950 . S
C910 C909 1.349 . S
C910 C922 1.349 . S
C911 C909 1.327 . S
C911 C927 1.429 . S
C911 H933 0.950 . S
C912 H908 0.949 . S
C912 C920 1.574 . S
C912 C928 1.368 . S
H913 C921 0.950 . S
H914 C919 0.950 . S
H915 C920 0.949 . S
H916 C922 0.950 . S
H917 C923 0.950 . S
H918 C924 0.949 . S
C919 H914 0.950 . S
C919 C921 1.327 . S
C919 C925 1.429 . S
C920 C912 1.574 . S
C920 H915 0.949 . S
C920 C926 1.368 . S
C921 C905 1.349 . S
C921 H913 0.950 . S
C921 C919 1.327 . S
C922 C910 1.349 . S
C922 H916 0.950 . S
C922 C923 1.327 . S
C923 H917 0.950 . S
C923 C922 1.327 . S
C923 C927 1.429 . S
C924 C907 1.574 . S
C924 H918 0.949 . S
C924 C928 1.368 . S
C925 C906 1.429 . S
C925 C919 1.429 . S
C925 C926 1.523 . S
C926 C907 1.368 . S
C926 C920 1.368 . S
C926 C925 1.523 . S
C927 C911 1.429 . S
C927 C923 1.429 . S
C927 C928 1.523 . S
C928 C912 1.368 . S
C928 C924 1.368 . S
C928 C927 1.523 . S
H929 C904 0.950 . S
H930 C906 0.950 . S
H931 C907 0.949 . S
H932 C909 0.950 . S
H933 C911 0.950 . S
C934 C935 1.349 . S
C934 C936 1.327 . S
C934 H959 0.950 . S
C935 C934 1.349 . S
C935 C951 1.349 . S
C936 C934 1.327 . S
C936 C955 1.429 . S
C936 H960 0.950 . S
C937 C954 1.574 . S
C937 C956 1.368 . S
C937 H961 0.949 . S
H938 C942 0.949 . S
C939 C940 1.349 . S
C939 C941 1.327 . S
C939 H962 0.950 . S
C940 C939 1.349 . S
C940 C952 1.349 . S
C941 C939 1.327 . S
C941 C957 1.429 . S
C941 H963 0.950 . S
C942 H938 0.949 . S
C942 C950 1.574 . S
C942 C958 1.368 . S
H943 C951 0.950 . S
H944 C949 0.950 . S
H945 C950 0.949 . S
H946 C952 0.950 . S
H947 C953 0.950 . S
H948 C954 0.949 . S
C949 H944 0.950 . S
C949 C951 1.327 . S
C949 C955 1.429 . S
C950 C942 1.574 . S
C950 H945 0.949 . S
C950 C956 1.368 . S
C951 C935 1.349 . S
C951 H943 0.950 . S
C951 C949 1.327 . S
C952 C940 1.349 . S
C952 H946 0.950 . S
C952 C953 1.327 . S
C953 H947 0.950 . S
C953 C952 1.327 . S
C953 C957 1.429 . S
C954 C937 1.574 . S
C954 H948 0.949 . S
C954 C958 1.368 . S
C955 C936 1.429 . S
C955 C949 1.429 . S
C955 C956 1.523 . S
C956 C937 1.368 . S
C956 C950 1.368 . S
C956 C955 1.523 . S
C957 C941 1.429 . S
C957 C953 1.429 . S
C957 C958 1.523 . S
C958 C942 1.368 . S
C958 C954 1.368 . S
C958 C957 1.523 . S
H959 C934 0.950 . S
H960 C936 0.950 . S
H961 C937 0.949 . S
H962 C939 0.950 . S
H963 C941 0.950 . S
C964 C965 1.349 . S
C964 C966 1.327 . S
C964 H989 0.950 . S
C965 C964 1.349 . S
C965 C981 1.349 . S
C966 C964 1.327 . S
C966 C985 1.429 . S
C966 H990 0.950 . S
C967 C984 1.574 . S
C967 C986 1.368 . S
C967 H991 0.949 . S
H968 C972 0.949 . S
C969 C970 1.349 . S
C969 C971 1.327 . S
C969 H992 0.950 . S
C970 C969 1.349 . S
C970 C982 1.349 . S
C971 C969 1.327 . S
C971 C987 1.429 . S
C971 H993 0.950 . S
C972 H968 0.949 . S
C972 C980 1.574 . S
C972 C988 1.368 . S
H973 C981 0.950 . S
H974 C979 0.950 . S
H975 C980 0.949 . S
H976 C982 0.950 . S
H977 C983 0.950 . S
H978 C984 0.949 . S
C979 H974 0.950 . S
C979 C981 1.327 . S
C979 C985 1.429 . S
C980 C972 1.574 . S
C980 H975 0.949 . S
C980 C986 1.368 . S
C981 C965 1.349 . S
C981 H973 0.950 . S
C981 C979 1.327 . S
C982 C970 1.349 . S
C982 H976 0.950 . S
C982 C983 1.327 . S
C983 H977 0.950 . S
C983 C982 1.327 . S
C983 C987 1.429 . S
C984 C967 1.574 . S
C984 H978 0.949 . S
C984 C988 1.368 . S
C985 C966 1.429 . S
C985 C979 1.429 . S
C985 C986 1.523 . S
C986 C967 1.368 . S
C986 C980 1.368 . S
C986 C985 1.523 . S
C987 C971 1.429 . S
C987 C983 1.429 . S
C987 C988 1.523 . S
C988 C972 1.368 . S
C988 C984 1.368 . S
C988 C987 1.523 . S
H989 C964 0.950 . S
H990 C966 0.950 . S
H991 C967 0.949 . S
H992 C969 0.950 . S
H993 C971 0.950 . S
C994 C995 1.349 . S
C994 C996 1.327 . S
C994 H1019 0.950 . S
C995 C994 1.349 . S
C995 C1011 1.349 . S
C996 C994 1.327 . S
C996 C1015 1.429 . S
C996 H1020 0.950 . S
C997 C1014 1.574 . S
C997 C1016 1.368 . S
C997 H1021 0.949 . S
H998 C1002 0.949 . S
C999 C1000 1.349 . S
C999 C1001 1.327 . S
C999 H1022 0.950 . S
C1000 C999 1.349 . S
C1000 C1012 1.349 . S
C1001 C999 1.327 . S
C1001 C1017 1.429 . S
C1001 H1023 0.950 . S
C1002 H998 0.949 . S
C1002 C1010 1.574 . S
C1002 C1018 1.368 . S
H1003 C1011 0.950 . S
H1004 C1009 0.950 . S
H1005 C1010 0.949 . S
H1006 C1012 0.950 . S
H1007 C1013 0.950 . S
H1008 C1014 0.949 . S
C1009 H1004 0.950 . S
C1009 C1011 1.327 . S
C1009 C1015 1.429 . S
C1010 C1002 1.574 . S
C1010 H1005 0.949 . S
C1010 C1016 1.368 . S
C1011 C995 1.349 . S
C1011 H1003 0.950 . S
C1011 C1009 1.327 . S
C1012 C1000 1.349 . S
C1012 H1006 0.950 . S
C1012 C1013 1.327 . S
C1013 H1007 0.950 . S
C1013 C1012 1.327 . S
C1013 C1017 1.429 . S
C1014 C997 1.574 . S
C1014 H1008 0.949 . S
C1014 C1018 1.368 . S
C1015 C996 1.429 . S
C1015 C1009 1.429 . S
C1015 C1016 1.523 . S
C1016 C997 1.368 . S
C1016 C1010 1.368 . S
C1016 C1015 1.523 . S
C1017 C1001 1.429 . S
C1017 C1013 1.429 . S
C1017 C1018 1.523 . S
C1018 C1002 1.368 . S
C1018 C1014 1.368 . S
C1018 C1017 1.523 . S
H1019 C994 0.950 . S
H1020 C996 0.950 . S
H1021 C997 0.949 . S
H1022 C999 0.950 . S
H1023 C1001 0.950 . S
C1024 C1025 1.349 . S
C1024 C1026 1.327 . S
C1024 H1049 0.950 . S
C1025 C1024 1.349 . S
C1025 C1041 1.349 . S
C1026 C1024 1.327 . S
C1026 C1045 1.429 . S
C1026 H1050 0.950 . S
C1027 C1044 1.574 . S
C1027 C1046 1.368 . S
C1027 H1051 0.949 . S
H1028 C1032 0.949 . S
C1029 C1030 1.349 . S
C1029 C1031 1.327 . S
C1029 H1052 0.950 . S
C1030 C1029 1.349 . S
C1030 C1042 1.349 . S
C1031 C1029 1.327 . S
C1031 C1047 1.429 . S
C1031 H1053 0.950 . S
C1032 H1028 0.949 . S
C1032 C1040 1.574 . S
C1032 C1048 1.368 . S
H1033 C1041 0.950 . S
H1034 C1039 0.950 . S
H1035 C1040 0.949 . S
H1036 C1042 0.950 . S
H1037 C1043 0.950 . S
H1038 C1044 0.949 . S
C1039 H1034 0.950 . S
C1039 C1041 1.327 . S
C1039 C1045 1.429 . S
C1040 C1032 1.574 . S
C1040 H1035 0.949 . S
C1040 C1046 1.368 . S
C1041 C1025 1.349 . S
C1041 H1033 0.950 . S
C1041 C1039 1.327 . S
C1042 C1030 1.349 . S
C1042 H1036 0.950 . S
C1042 C1043 1.327 . S
C1043 H1037 0.950 . S
C1043 C1042 1.327 . S
C1043 C1047 1.429 . S
C1044 C1027 1.574 . S
C1044 H1038 0.949 . S
C1044 C1048 1.368 . S
C1045 C1026 1.429 . S
C1045 C1039 1.429 . S
C1045 C1046 1.523 . S
C1046 C1027 1.368 . S
C1046 C1040 1.368 . S
C1046 C1045 1.523 . S
C1047 C1031 1.429 . S
C1047 C1043 1.429 . S
C1047 C1048 1.523 . S
C1048 C1032 1.368 . S
C1048 C1044 1.368 . S
C1048 C1047 1.523 . S
H1049 C1024 0.950 . S
H1050 C1026 0.950 . S
H1051 C1027 0.949 . S
H1052 C1029 0.950 . S
H1053 C1031 0.950 . S
C1054 C1055 1.349 . S
C1054 C1056 1.327 . S
C1054 H1079 0.950 . S
C1055 C1054 1.349 . S
C1055 C1071 1.349 . S
C1056 C1054 1.327 . S
C1056 C1075 1.429 . S
C1056 H1080 0.950 . S
C1057 C1074 1.574 . S
C1057 C1076 1.368 . S
C1057 H1081 0.949 . S
H1058 C1062 0.949 . S
C1059 C1060 1.349 . S
C1059 C1061 1.327 . S
C1059 H1082 0.950 . S
C1060 C1059 1.349 . S
C1060 C1072 1.349 . S
C1061 C1059 1.327 . S
C1061 C1077 1.429 . S
C1061 H1083 0.950 . S
C1062 H1058 0.949 . S
C1062 C1070 1.574 . S
C1062 C1078 1.368 . S
H1063 C1071 0.950 . S
H1064 C1069 0.950 . S
H1065 C1070 0.949 . S
H1066 C1072 0.950 . S
H1067 C1073 0.950 . S
H1068 C1074 0.949 . S
C1069 H1064 0.950 . S
C1069 C1071 1.327 . S
C1069 C1075 1.429 . S
C1070 C1062 1.574 . S
C1070 H1065 0.949 . S
C1070 C1076 1.368 . S
C1071 C1055 1.349 . S
C1071 H1063 0.950 . S
C1071 C1069 1.327 . S
C1072 C1060 1.349 . S
C1072 H1066 0.950 . S
C1072 C1073 1.327 . S
C1073 H1067 0.950 . S
C1073 C1072 1.327 . S
C1073 C1077 1.429 . S
C1074 C1057 1.574 . S
C1074 H1068 0.949 . S
C1074 C1078 1.368 . S
C1075 C1056 1.429 . S
C1075 C1069 1.429 . S
C1075 C1076 1.523 . S
C1076 C1057 1.368 . S
C1076 C1070 1.368 . S
C1076 C1075 1.523 . S
C1077 C1061 1.429 . S
C1077 C1073 1.429 . S
C1077 C1078 1.523 . S
C1078 C1062 1.368 . S
C1078 C1074 1.368 . S
C1078 C1077 1.523 . S
H1079 C1054 0.950 . S
H1080 C1056 0.950 . S
H1081 C1057 0.949 . S
H1082 C1059 0.950 . S
H1083 C1061 0.950 . S
C1084 C1085 1.349 . S
C1084 C1086 1.327 . S
C1084 H1109 0.950 . S
C1085 C1084 1.349 . S
C1085 C1101 1.349 . S
C1086 C1084 1.327 . S
C1086 C1105 1.429 . S
C1086 H1110 0.950 . S
C1087 C1104 1.574 . S
C1087 C1106 1.368 . S
C1087 H1111 0.949 . S
H1088 C1092 0.949 . S
C1089 C1090 1.349 . S
C1089 C1091 1.327 . S
C1089 H1112 0.950 . S
C1090 C1089 1.349 . S
C1090 C1102 1.349 . S
C1091 C1089 1.327 . S
C1091 C1107 1.429 . S
C1091 H1113 0.950 . S
C1092 H1088 0.949 . S
C1092 C1100 1.574 . S
C1092 C1108 1.368 . S
H1093 C1101 0.950 . S
H1094 C1099 0.950 . S
H1095 C1100 0.949 . S
H1096 C1102 0.950 . S
H1097 C1103 0.950 . S
H1098 C1104 0.949 . S
C1099 H1094 0.950 . S
C1099 C1101 1.327 . S
C1099 C1105 1.429 . S
C1100 C1092 1.574 . S
C1100 H1095 0.949 . S
C1100 C1106 1.368 . S
C1101 C1085 1.349 . S
C1101 H1093 0.950 . S
C1101 C1099 1.327 . S
C1102 C1090 1.349 . S
C1102 H1096 0.950 . S
C1102 C1103 1.327 . S
C1103 H1097 0.950 . S
C1103 C1102 1.327 . S
C1103 C1107 1.429 . S
C1104 C1087 1.574 . S
C1104 H1098 0.949 . S
C1104 C1108 1.368 . S
C1105 C1086 1.429 . S
C1105 C1099 1.429 . S
C1105 C1106 1.523 . S
C1106 C1087 1.368 . S
C1106 C1100 1.368 . S
C1106 C1105 1.523 . S
C1107 C1091 1.429 . S
C1107 C1103 1.429 . S
C1107 C1108 1.523 . S
C1108 C1092 1.368 . S
C1108 C1104 1.368 . S
C1108 C1107 1.523 . S
H1109 C1084 0.950 . S
H1110 C1086 0.950 . S
H1111 C1087 0.949 . S
H1112 C1089 0.950 . S
H1113 C1091 0.950 . S
C1114 C1115 1.349 . S
C1114 C1116 1.327 . S
C1114 H1139 0.950 . S
C1115 C1114 1.349 . S
C1115 C1131 1.349 . S
C1116 C1114 1.327 . S
C1116 C1135 1.429 . S
C1116 H1140 0.950 . S
C1117 C1134 1.574 . S
C1117 C1136 1.368 . S
C1117 H1141 0.949 . S
H1118 C1122 0.949 . S
C1119 C1120 1.349 . S
C1119 C1121 1.327 . S
C1119 H1142 0.950 . S
C1120 C1119 1.349 . S
C1120 C1132 1.349 . S
C1121 C1119 1.327 . S
C1121 C1137 1.429 . S
C1121 H1143 0.950 . S
C1122 H1118 0.949 . S
C1122 C1130 1.574 . S
C1122 C1138 1.368 . S
H1123 C1131 0.950 . S
H1124 C1129 0.950 . S
H1125 C1130 0.949 . S
H1126 C1132 0.950 . S
H1127 C1133 0.950 . S
H1128 C1134 0.949 . S
C1129 H1124 0.950 . S
C1129 C1131 1.327 . S
C1129 C1135 1.429 . S
C1130 C1122 1.574 . S
C1130 H1125 0.949 . S
C1130 C1136 1.368 . S
C1131 C1115 1.349 . S
C1131 H1123 0.950 . S
C1131 C1129 1.327 . S
C1132 C1120 1.349 . S
C1132 H1126 0.950 . S
C1132 C1133 1.327 . S
C1133 H1127 0.950 . S
C1133 C1132 1.327 . S
C1133 C1137 1.429 . S
C1134 C1117 1.574 . S
C1134 H1128 0.949 . S
C1134 C1138 1.368 . S
C1135 C1116 1.429 . S
C1135 C1129 1.429 . S
C1135 C1136 1.523 . S
C1136 C1117 1.368 . S
C1136 C1130 1.368 . S
C1136 C1135 1.523 . S
C1137 C1121 1.429 . S
C1137 C1133 1.429 . S
C1137 C1138 1.523 . S
C1138 C1122 1.368 . S
C1138 C1134 1.368 . S
C1138 C1137 1.523 . S
H1139 C1114 0.950 . S
H1140 C1116 0.950 . S
H1141 C1117 0.949 . S
H1142 C1119 0.950 . S
H1143 C1121 0.950 . S
C1144 C1145 1.349 . S
C1144 C1146 1.327 . S
C1144 H1169 0.950 . S
C1145 C1144 1.349 . S
C1145 C1161 1.349 . S
C1146 C1144 1.327 . S
C1146 C1165 1.429 . S
C1146 H1170 0.950 . S
C1147 C1164 1.574 . S
C1147 C1166 1.368 . S
C1147 H1171 0.949 . S
H1148 C1152 0.949 . S
C1149 C1150 1.349 . S
C1149 C1151 1.327 . S
C1149 H1172 0.950 . S
C1150 C1149 1.349 . S
C1150 C1162 1.349 . S
C1151 C1149 1.327 . S
C1151 C1167 1.429 . S
C1151 H1173 0.950 . S
C1152 H1148 0.949 . S
C1152 C1160 1.574 . S
C1152 C1168 1.368 . S
H1153 C1161 0.950 . S
H1154 C1159 0.950 . S
H1155 C1160 0.949 . S
H1156 C1162 0.950 . S
H1157 C1163 0.950 . S
H1158 C1164 0.949 . S
C1159 H1154 0.950 . S
C1159 C1161 1.327 . S
C1159 C1165 1.429 . S
C1160 C1152 1.574 . S
C1160 H1155 0.949 . S
C1160 C1166 1.368 . S
C1161 C1145 1.349 . S
C1161 H1153 0.950 . S
C1161 C1159 1.327 . S
C1162 C1150 1.349 . S
C1162 H1156 0.950 . S
C1162 C1163 1.327 . S
C1163 H1157 0.950 . S
C1163 C1162 1.327 . S
C1163 C1167 1.429 . S
C1164 C1147 1.574 . S
C1164 H1158 0.949 . S
C1164 C1168 1.368 . S
C1165 C1146 1.429 . S
C1165 C1159 1.429 . S
C1165 C1166 1.523 . S
C1166 C1147 1.368 . S
C1166 C1160 1.368 . S
C1166 C1165 1.523 . S
C1167 C1151 1.429 . S
C1167 C1163 1.429 . S
C1167 C1168 1.523 . S
C1168 C1152 1.368 . S
C1168 C1164 1.368 . S
C1168 C1167 1.523 . S
H1169 C1144 0.950 . S
H1170 C1146 0.950 . S
H1171 C1147 0.949 . S
H1172 C1149 0.950 . S
H1173 C1151 0.950 . S
C1174 C1175 1.349 . S
C1174 C1176 1.327 . S
C1174 H1199 0.950 . S
C1175 C1174 1.349 . S
C1175 C1191 1.349 . S
C1176 C1174 1.327 . S
C1176 C1195 1.429 . S
C1176 H1200 0.950 . S
C1177 C1194 1.574 . S
C1177 C1196 1.368 . S
C1177 H1201 0.949 . S
H1178 C1182 0.949 . S
C1179 C1180 1.349 . S
C1179 C1181 1.327 . S
C1179 H1202 0.950 . S
C1180 C1179 1.349 . S
C1180 C1192 1.349 . S
C1181 C1179 1.327 . S
C1181 C1197 1.429 . S
C1181 H1203 0.950 . S
C1182 H1178 0.949 . S
C1182 C1190 1.574 . S
C1182 C1198 1.368 . S
H1183 C1191 0.950 . S
H1184 C1189 0.950 . S
H1185 C1190 0.949 . S
H1186 C1192 0.950 . S
H1187 C1193 0.950 . S
H1188 C1194 0.949 . S
C1189 H1184 0.950 . S
C1189 C1191 1.327 . S
C1189 C1195 1.429 . S
C1190 C1182 1.574 . S
C1190 H1185 0.949 . S
C1190 C1196 1.368 . S
C1191 C1175 1.349 . S
C1191 H1183 0.950 . S
C1191 C1189 1.327 . S
C1192 C1180 1.349 . S
C1192 H1186 0.950 . S
C1192 C1193 1.327 . S
C1193 H1187 0.950 . S
C1193 C1192 1.327 . S
C1193 C1197 1.429 . S
C1194 C1177 1.574 . S
C1194 H1188 0.949 . S
C1194 C1198 1.368 . S
C1195 C1176 1.429 . S
C1195 C1189 1.429 . S
C1195 C1196 1.523 . S
C1196 C1177 1.368 . S
C1196 C1190 1.368 . S
C1196 C1195 1.523 . S
C1197 C1181 1.429 . S
C1197 C1193 1.429 . S
C1197 C1198 1.523 . S
C1198 C1182 1.368 . S
C1198 C1194 1.368 . S
C1198 C1197 1.523 . S
H1199 C1174 0.950 . S
H1200 C1176 0.950 . S
H1201 C1177 0.949 . S
H1202 C1179 0.950 . S
H1203 C1181 0.950 . S
C1204 C1205 1.349 . S
C1204 C1206 1.327 . S
C1204 H1229 0.950 . S
C1205 C1204 1.349 . S
C1205 C1221 1.349 . S
C1206 C1204 1.327 . S
C1206 C1225 1.429 . S
C1206 H1230 0.950 . S
C1207 C1224 1.574 . S
C1207 C1226 1.368 . S
C1207 H1231 0.949 . S
H1208 C1212 0.949 . S
C1209 C1210 1.349 . S
C1209 C1211 1.327 . S
C1209 H1232 0.950 . S
C1210 C1209 1.349 . S
C1210 C1222 1.349 . S
C1211 C1209 1.327 . S
C1211 C1227 1.429 . S
C1211 H1233 0.950 . S
C1212 H1208 0.949 . S
C1212 C1220 1.574 . S
C1212 C1228 1.368 . S
H1213 C1221 0.950 . S
H1214 C1219 0.950 . S
H1215 C1220 0.949 . S
H1216 C1222 0.950 . S
H1217 C1223 0.950 . S
H1218 C1224 0.949 . S
C1219 H1214 0.950 . S
C1219 C1221 1.327 . S
C1219 C1225 1.429 . S
C1220 C1212 1.574 . S
C1220 H1215 0.949 . S
C1220 C1226 1.368 . S
C1221 C1205 1.349 . S
C1221 H1213 0.950 . S
C1221 C1219 1.327 . S
C1222 C1210 1.349 . S
C1222 H1216 0.950 . S
C1222 C1223 1.327 . S
C1223 H1217 0.950 . S
C1223 C1222 1.327 . S
C1223 C1227 1.429 . S
C1224 C1207 1.574 . S
C1224 H1218 0.949 . S
C1224 C1228 1.368 . S
C1225 C1206 1.429 . S
C1225 C1219 1.429 . S
C1225 C1226 1.523 . S
C1226 C1207 1.368 . S
C1226 C1220 1.368 . S
C1226 C1225 1.523 . S
C1227 C1211 1.429 . S
C1227 C1223 1.429 . S
C1227 C1228 1.523 . S
C1228 C1212 1.368 . S
C1228 C1224 1.368 . S
C1228 C1227 1.523 . S
H1229 C1204 0.950 . S
H1230 C1206 0.950 . S
H1231 C1207 0.949 . S
H1232 C1209 0.950 . S
H1233 C1211 0.950 . S
C1234 C1235 1.349 . S
C1234 C1236 1.327 . S
C1234 H1259 0.950 . S
C1235 C1234 1.349 . S
C1235 C1251 1.349 . S
C1236 C1234 1.327 . S
C1236 C1255 1.429 . S
C1236 H1260 0.950 . S
C1237 C1254 1.574 . S
C1237 C1256 1.368 . S
C1237 H1261 0.949 . S
H1238 C1242 0.949 . S
C1239 C1240 1.349 . S
C1239 C1241 1.327 . S
C1239 H1262 0.950 . S
C1240 C1239 1.349 . S
C1240 C1252 1.349 . S
C1241 C1239 1.327 . S
C1241 C1257 1.429 . S
C1241 H1263 0.950 . S
C1242 H1238 0.949 . S
C1242 C1250 1.574 . S
C1242 C1258 1.368 . S
H1243 C1251 0.950 . S
H1244 C1249 0.950 . S
H1245 C1250 0.949 . S
H1246 C1252 0.950 . S
H1247 C1253 0.950 . S
H1248 C1254 0.949 . S
C1249 H1244 0.950 . S
C1249 C1251 1.327 . S
C1249 C1255 1.429 . S
C1250 C1242 1.574 . S
C1250 H1245 0.949 . S
C1250 C1256 1.368 . S
C1251 C1235 1.349 . S
C1251 H1243 0.950 . S
C1251 C1249 1.327 . S
C1252 C1240 1.349 . S
C1252 H1246 0.950 . S
C1252 C1253 1.327 . S
C1253 H1247 0.950 . S
C1253 C1252 1.327 . S
C1253 C1257 1.429 . S
C1254 C1237 1.574 . S
C1254 H1248 0.949 . S
C1254 C1258 1.368 . S
C1255 C1236 1.429 . S
C1255 C1249 1.429 . S
C1255 C1256 1.523 . S
C1256 C1237 1.368 . S
C1256 C1250 1.368 . S
C1256 C1255 1.523 . S
C1257 C1241 1.429 . S
C1257 C1253 1.429 . S
C1257 C1258 1.523 . S
C1258 C1242 1.368 . S
C1258 C1254 1.368 . S
C1258 C1257 1.523 . S
H1259 C1234 0.950 . S
H1260 C1236 0.950 . S
H1261 C1237 0.949 . S
H1262 C1239 0.950 . S
H1263 C1241 0.950 . S
C1264 C1265 1.349 . S
C1264 C1266 1.327 . S
C1264 H1289 0.950 . S
C1265 C1264 1.349 . S
C1265 C1281 1.349 . S
C1266 C1264 1.327 . S
C1266 C1285 1.429 . S
C1266 H1290 0.950 . S
C1267 C1284 1.574 . S
C1267 C1286 1.368 . S
C1267 H1291 0.949 . S
H1268 C1272 0.949 . S
C1269 C1270 1.349 . S
C1269 C1271 1.327 . S
C1269 H1292 0.950 1_545 S
C1270 C1269 1.349 . S
C1270 C1282 1.349 . S
C1271 C1269 1.327 . S
C1271 C1287 1.429 . S
C1271 H1293 0.950 . S
C1272 H1268 0.949 . S
C1272 C1280 1.574 . S
C1272 C1288 1.368 . S
H1273 C1281 0.950 . S
H1274 C1279 0.950 . S
H1275 C1280 0.949 . S
H1276 C1282 0.950 . S
H1277 C1283 0.950 . S
H1278 C1284 0.949 . S
C1279 H1274 0.950 . S
C1279 C1281 1.327 . S
C1279 C1285 1.429 . S
C1280 C1272 1.574 . S
C1280 H1275 0.949 . S
C1280 C1286 1.368 . S
C1281 C1265 1.349 . S
C1281 H1273 0.950 . S
C1281 C1279 1.327 . S
C1282 C1270 1.349 . S
C1282 H1276 0.950 . S
C1282 C1283 1.327 . S
C1283 H1277 0.950 . S
C1283 C1282 1.327 . S
C1283 C1287 1.429 . S
C1284 C1267 1.574 . S
C1284 H1278 0.949 . S
C1284 C1288 1.368 . S
C1285 C1266 1.429 . S
C1285 C1279 1.429 . S
C1285 C1286 1.523 . S
C1286 C1267 1.368 . S
C1286 C1280 1.368 . S
C1286 C1285 1.523 . S
C1287 C1271 1.429 . S
C1287 C1283 1.429 . S
C1287 C1288 1.523 . S
C1288 C1272 1.368 . S
C1288 C1284 1.368 . S
C1288 C1287 1.523 . S
H1289 C1264 0.950 . S
H1290 C1266 0.950 . S
H1291 C1267 0.949 . S
H1292 C1269 0.950 1_565 S
H1293 C1271 0.950 . S
C1294 C1295 1.349 . S
C1294 C1296 1.327 . S
C1294 H1319 0.950 . S
C1295 C1294 1.349 . S
C1295 C1311 1.349 . S
C1296 C1294 1.327 . S
C1296 C1315 1.429 . S
C1296 H1320 0.950 . S
C1297 C1314 1.574 . S
C1297 C1316 1.368 . S
C1297 H1321 0.949 . S
H1298 C1302 0.949 . S
C1299 C1300 1.349 . S
C1299 C1301 1.327 . S
C1299 H1322 0.950 . S
C1300 C1299 1.349 . S
C1300 C1312 1.349 . S
C1301 C1299 1.327 . S
C1301 C1317 1.429 . S
C1301 H1323 0.950 . S
C1302 H1298 0.949 . S
C1302 C1310 1.574 . S
C1302 C1318 1.368 . S
H1303 C1311 0.950 . S
H1304 C1309 0.950 . S
H1305 C1310 0.949 . S
H1306 C1312 0.950 . S
H1307 C1313 0.950 . S
H1308 C1314 0.949 . S
C1309 H1304 0.950 . S
C1309 C1311 1.327 . S
C1309 C1315 1.429 . S
C1310 C1302 1.574 . S
C1310 H1305 0.949 . S
C1310 C1316 1.368 . S
C1311 C1295 1.349 . S
C1311 H1303 0.950 . S
C1311 C1309 1.327 . S
C1312 C1300 1.349 . S
C1312 H1306 0.950 . S
C1312 C1313 1.327 . S
C1313 H1307 0.950 . S
C1313 C1312 1.327 . S
C1313 C1317 1.429 . S
C1314 C1297 1.574 . S
C1314 H1308 0.949 . S
C1314 C1318 1.368 . S
C1315 C1296 1.429 . S
C1315 C1309 1.429 . S
C1315 C1316 1.523 . S
C1316 C1297 1.368 . S
C1316 C1310 1.368 . S
C1316 C1315 1.523 . S
C1317 C1301 1.429 . S
C1317 C1313 1.429 . S
C1317 C1318 1.523 . S
C1318 C1302 1.368 . S
C1318 C1314 1.368 . S
C1318 C1317 1.523 . S
H1319 C1294 0.950 . S
H1320 C1296 0.950 . S
H1321 C1297 0.949 . S
H1322 C1299 0.950 . S
H1323 C1301 0.950 . S
C1324 C1325 1.349 . S
C1324 C1326 1.327 . S
C1324 H1349 0.950 . S
C1325 C1324 1.349 . S
C1325 C1341 1.349 . S
C1326 C1324 1.327 . S
C1326 C1345 1.429 . S
C1326 H1350 0.950 . S
C1327 C1344 1.574 . S
C1327 C1346 1.368 . S
C1327 H1351 0.949 . S
H1328 C1332 0.949 . S
C1329 C1330 1.349 . S
C1329 C1331 1.327 . S
C1329 H1352 0.950 1_565 S
C1330 C1329 1.349 . S
C1330 C1342 1.349 . S
C1331 C1329 1.327 . S
C1331 C1347 1.429 . S
C1331 H1353 0.950 . S
C1332 H1328 0.949 . S
C1332 C1340 1.574 . S
C1332 C1348 1.368 . S
H1333 C1341 0.950 . S
H1334 C1339 0.950 . S
H1335 C1340 0.949 . S
H1336 C1342 0.950 . S
H1337 C1343 0.950 . S
H1338 C1344 0.949 . S
C1339 H1334 0.950 . S
C1339 C1341 1.327 . S
C1339 C1345 1.429 . S
C1340 C1332 1.574 . S
C1340 H1335 0.949 . S
C1340 C1346 1.368 . S
C1341 C1325 1.349 . S
C1341 H1333 0.950 . S
C1341 C1339 1.327 . S
C1342 C1330 1.349 . S
C1342 H1336 0.950 . S
C1342 C1343 1.327 . S
C1343 H1337 0.950 . S
C1343 C1342 1.327 . S
C1343 C1347 1.429 . S
C1344 C1327 1.574 . S
C1344 H1338 0.949 . S
C1344 C1348 1.368 . S
C1345 C1326 1.429 . S
C1345 C1339 1.429 . S
C1345 C1346 1.523 . S
C1346 C1327 1.368 . S
C1346 C1340 1.368 . S
C1346 C1345 1.523 . S
C1347 C1331 1.429 . S
C1347 C1343 1.429 . S
C1347 C1348 1.523 . S
C1348 C1332 1.368 . S
C1348 C1344 1.368 . S
C1348 C1347 1.523 . S
H1349 C1324 0.950 . S
H1350 C1326 0.950 . S
H1351 C1327 0.949 . S
H1352 C1329 0.950 1_545 S
H1353 C1331 0.950 . S
C1354 C1355 1.349 . S
C1354 C1356 1.327 . S
C1354 H1379 0.950 . S
C1355 C1354 1.349 . S
C1355 C1371 1.349 . S
C1356 C1354 1.327 . S
C1356 C1375 1.429 . S
C1356 H1380 0.950 . S
C1357 C1374 1.574 . S
C1357 C1376 1.368 . S
C1357 H1381 0.949 . S
H1358 C1362 0.949 . S
C1359 C1360 1.349 . S
C1359 C1361 1.327 . S
C1359 H1382 0.950 . S
C1360 C1359 1.349 . S
C1360 C1372 1.349 . S
C1361 C1359 1.327 . S
C1361 C1377 1.429 . S
C1361 H1383 0.950 . S
C1362 H1358 0.949 . S
C1362 C1370 1.574 . S
C1362 C1378 1.368 . S
H1363 C1371 0.950 . S
H1364 C1369 0.950 . S
H1365 C1370 0.949 . S
H1366 C1372 0.950 . S
H1367 C1373 0.950 . S
H1368 C1374 0.949 . S
C1369 H1364 0.950 . S
C1369 C1371 1.327 . S
C1369 C1375 1.429 . S
C1370 C1362 1.574 . S
C1370 H1365 0.949 . S
C1370 C1376 1.368 . S
C1371 C1355 1.349 . S
C1371 H1363 0.950 . S
C1371 C1369 1.327 . S
C1372 C1360 1.349 . S
C1372 H1366 0.950 . S
C1372 C1373 1.327 . S
C1373 H1367 0.950 . S
C1373 C1372 1.327 . S
C1373 C1377 1.429 . S
C1374 C1357 1.574 . S
C1374 H1368 0.949 . S
C1374 C1378 1.368 . S
C1375 C1356 1.429 . S
C1375 C1369 1.429 . S
C1375 C1376 1.523 . S
C1376 C1357 1.368 . S
C1376 C1370 1.368 . S
C1376 C1375 1.523 . S
C1377 C1361 1.429 . S
C1377 C1373 1.429 . S
C1377 C1378 1.523 . S
C1378 C1362 1.368 . S
C1378 C1374 1.368 . S
C1378 C1377 1.523 . S
H1379 C1354 0.950 . S
H1380 C1356 0.950 . S
H1381 C1357 0.949 . S
H1382 C1359 0.950 . S
H1383 C1361 0.950 . S
C1384 C1385 1.349 . S
C1384 C1386 1.327 . S
C1384 H1409 0.950 1_565 S
C1385 C1384 1.349 . S
C1385 C1401 1.349 . S
C1386 C1384 1.327 . S
C1386 C1405 1.429 . S
C1386 H1410 0.950 . S
C1387 C1404 1.574 . S
C1387 C1406 1.368 . S
C1387 H1411 0.949 . S
H1388 C1392 0.949 . S
C1389 C1390 1.349 . S
C1389 C1391 1.327 . S
C1389 H1412 0.950 . S
C1390 C1389 1.349 . S
C1390 C1402 1.349 . S
C1391 C1389 1.327 . S
C1391 C1407 1.429 . S
C1391 H1413 0.950 . S
C1392 H1388 0.949 . S
C1392 C1400 1.574 . S
C1392 C1408 1.368 . S
H1393 C1401 0.950 . S
H1394 C1399 0.950 . S
H1395 C1400 0.949 . S
H1396 C1402 0.950 . S
H1397 C1403 0.950 . S
H1398 C1404 0.949 . S
C1399 H1394 0.950 . S
C1399 C1401 1.327 . S
C1399 C1405 1.429 . S
C1400 C1392 1.574 . S
C1400 H1395 0.949 . S
C1400 C1406 1.368 . S
C1401 C1385 1.349 . S
C1401 H1393 0.950 . S
C1401 C1399 1.327 . S
C1402 C1390 1.349 . S
C1402 H1396 0.950 . S
C1402 C1403 1.327 . S
C1403 H1397 0.950 . S
C1403 C1402 1.327 . S
C1403 C1407 1.429 . S
C1404 C1387 1.574 . S
C1404 H1398 0.949 . S
C1404 C1408 1.368 . S
C1405 C1386 1.429 . S
C1405 C1399 1.429 . S
C1405 C1406 1.523 . S
C1406 C1387 1.368 . S
C1406 C1400 1.368 . S
C1406 C1405 1.523 . S
C1407 C1391 1.429 . S
C1407 C1403 1.429 . S
C1407 C1408 1.523 . S
C1408 C1392 1.368 . S
C1408 C1404 1.368 . S
C1408 C1407 1.523 . S
H1409 C1384 0.950 1_545 S
H1410 C1386 0.950 . S
H1411 C1387 0.949 . S
H1412 C1389 0.950 . S
H1413 C1391 0.950 . S
C1414 C1415 1.349 . S
C1414 C1416 1.327 . S
C1414 H1439 0.950 . S
C1415 C1414 1.349 . S
C1415 C1431 1.349 . S
C1416 C1414 1.327 . S
C1416 C1435 1.429 . S
C1416 H1440 0.950 . S
C1417 C1434 1.574 . S
C1417 C1436 1.368 . S
C1417 H1441 0.949 . S
H1418 C1422 0.949 . S
C1419 C1420 1.349 . S
C1419 C1421 1.327 . S
C1419 H1442 0.950 . S
C1420 C1419 1.349 . S
C1420 C1432 1.349 . S
C1421 C1419 1.327 . S
C1421 C1437 1.429 . S
C1421 H1443 0.950 . S
C1422 H1418 0.949 . S
C1422 C1430 1.574 . S
C1422 C1438 1.368 . S
H1423 C1431 0.950 1_455 S
H1424 C1429 0.950 . S
H1425 C1430 0.949 . S
H1426 C1432 0.950 . S
H1427 C1433 0.950 . S
H1428 C1434 0.949 . S
C1429 H1424 0.950 . S
C1429 C1431 1.327 . S
C1429 C1435 1.429 . S
C1430 C1422 1.574 . S
C1430 H1425 0.949 . S
C1430 C1436 1.368 . S
C1431 C1415 1.349 . S
C1431 H1423 0.950 1_655 S
C1431 C1429 1.327 . S
C1432 C1420 1.349 . S
C1432 H1426 0.950 . S
C1432 C1433 1.327 . S
C1433 H1427 0.950 . S
C1433 C1432 1.327 . S
C1433 C1437 1.429 . S
C1434 C1417 1.574 . S
C1434 H1428 0.949 . S
C1434 C1438 1.368 . S
C1435 C1416 1.429 . S
C1435 C1429 1.429 . S
C1435 C1436 1.523 . S
C1436 C1417 1.368 . S
C1436 C1430 1.368 . S
C1436 C1435 1.523 . S
C1437 C1421 1.429 . S
C1437 C1433 1.429 . S
C1437 C1438 1.523 . S
C1438 C1422 1.368 . S
C1438 C1434 1.368 . S
C1438 C1437 1.523 . S
H1439 C1414 0.950 . S
H1440 C1416 0.950 . S
H1441 C1417 0.949 . S
H1442 C1419 0.950 . S
H1443 C1421 0.950 . S
C1444 C1445 1.349 . S
C1444 C1446 1.327 . S
C1444 H1469 0.950 . S
C1445 C1444 1.349 . S
C1445 C1461 1.349 . S
C1446 C1444 1.327 . S
C1446 C1465 1.429 . S
C1446 H1470 0.950 . S
C1447 C1464 1.574 . S
C1447 C1466 1.368 . S
C1447 H1471 0.949 . S
H1448 C1452 0.949 . S
C1449 C1450 1.349 . S
C1449 C1451 1.327 . S
C1449 H1472 0.950 . S
C1450 C1449 1.349 . S
C1450 C1462 1.349 . S
C1451 C1449 1.327 . S
C1451 C1467 1.429 . S
C1451 H1473 0.950 . S
C1452 H1448 0.949 . S
C1452 C1460 1.574 . S
C1452 C1468 1.368 . S
H1453 C1461 0.950 1_565 S
H1454 C1459 0.950 . S
H1455 C1460 0.949 . S
H1456 C1462 0.950 . S
H1457 C1463 0.950 . S
H1458 C1464 0.949 . S
C1459 H1454 0.950 . S
C1459 C1461 1.327 . S
C1459 C1465 1.429 . S
C1460 C1452 1.574 . S
C1460 H1455 0.949 . S
C1460 C1466 1.368 . S
C1461 C1445 1.349 . S
C1461 H1453 0.950 1_545 S
C1461 C1459 1.327 . S
C1462 C1450 1.349 . S
C1462 H1456 0.950 . S
C1462 C1463 1.327 . S
C1463 H1457 0.950 . S
C1463 C1462 1.327 . S
C1463 C1467 1.429 . S
C1464 C1447 1.574 . S
C1464 H1458 0.949 . S
C1464 C1468 1.368 . S
C1465 C1446 1.429 . S
C1465 C1459 1.429 . S
C1465 C1466 1.523 . S
C1466 C1447 1.368 . S
C1466 C1460 1.368 . S
C1466 C1465 1.523 . S
C1467 C1451 1.429 . S
C1467 C1463 1.429 . S
C1467 C1468 1.523 . S
C1468 C1452 1.368 . S
C1468 C1464 1.368 . S
C1468 C1467 1.523 . S
H1469 C1444 0.950 . S
H1470 C1446 0.950 . S
H1471 C1447 0.949 . S
H1472 C1449 0.950 . S
H1473 C1451 0.950 . S
C1474 C1475 1.349 . S
C1474 C1476 1.327 . S
C1474 H1499 0.950 1_455 S
C1475 C1474 1.349 . S
C1475 C1491 1.349 . S
C1476 C1474 1.327 . S
C1476 C1495 1.429 . S
C1476 H1500 0.950 . S
C1477 C1494 1.574 . S
C1477 C1496 1.368 . S
C1477 H1501 0.949 . S
H1478 C1482 0.949 . S
C1479 C1480 1.349 . S
C1479 C1481 1.327 . S
C1479 H1502 0.950 . S
C1480 C1479 1.349 . S
C1480 C1492 1.349 . S
C1481 C1479 1.327 . S
C1481 C1497 1.429 . S
C1481 H1503 0.950 . S
C1482 H1478 0.949 . S
C1482 C1490 1.574 . S
C1482 C1498 1.368 . S
H1483 C1491 0.950 . S
H1484 C1489 0.950 . S
H1485 C1490 0.949 . S
H1486 C1492 0.950 . S
H1487 C1493 0.950 . S
H1488 C1494 0.949 . S
C1489 H1484 0.950 . S
C1489 C1491 1.327 . S
C1489 C1495 1.429 . S
C1490 C1482 1.574 . S
C1490 H1485 0.949 . S
C1490 C1496 1.368 . S
C1491 C1475 1.349 . S
C1491 H1483 0.950 . S
C1491 C1489 1.327 . S
C1492 C1480 1.349 . S
C1492 H1486 0.950 . S
C1492 C1493 1.327 . S
C1493 H1487 0.950 . S
C1493 C1492 1.327 . S
C1493 C1497 1.429 . S
C1494 C1477 1.574 . S
C1494 H1488 0.949 . S
C1494 C1498 1.368 . S
C1495 C1476 1.429 . S
C1495 C1489 1.429 . S
C1495 C1496 1.523 . S
C1496 C1477 1.368 . S
C1496 C1490 1.368 . S
C1496 C1495 1.523 . S
C1497 C1481 1.429 . S
C1497 C1493 1.429 . S
C1497 C1498 1.523 . S
C1498 C1482 1.368 . S
C1498 C1494 1.368 . S
C1498 C1497 1.523 . S
H1499 C1474 0.950 1_655 S
H1500 C1476 0.950 . S
H1501 C1477 0.949 . S
H1502 C1479 0.950 . S
H1503 C1481 0.950 . S
C1504 C1505 1.349 . S
C1504 C1506 1.327 . S
C1504 H1529 0.950 . S
C1505 C1504 1.349 . S
C1505 C1521 1.349 . S
C1506 C1504 1.327 . S
C1506 C1525 1.429 . S
C1506 H1530 0.950 . S
C1507 C1524 1.574 . S
C1507 C1526 1.368 . S
C1507 H1531 0.949 . S
H1508 C1512 0.949 . S
C1509 C1510 1.349 . S
C1509 C1511 1.327 . S
C1509 H1532 0.950 . S
C1510 C1509 1.349 . S
C1510 C1522 1.349 . S
C1511 C1509 1.327 . S
C1511 C1527 1.429 . S
C1511 H1533 0.950 . S
C1512 H1508 0.949 . S
C1512 C1520 1.574 . S
C1512 C1528 1.368 . S
H1513 C1521 0.950 . S
H1514 C1519 0.950 . S
H1515 C1520 0.949 . S
H1516 C1522 0.950 . S
H1517 C1523 0.950 . S
H1518 C1524 0.949 . S
C1519 H1514 0.950 . S
C1519 C1521 1.327 . S
C1519 C1525 1.429 . S
C1520 C1512 1.574 . S
C1520 H1515 0.949 . S
C1520 C1526 1.368 . S
C1521 C1505 1.349 . S
C1521 H1513 0.950 . S
C1521 C1519 1.327 . S
C1522 C1510 1.349 . S
C1522 H1516 0.950 . S
C1522 C1523 1.327 . S
C1523 H1517 0.950 . S
C1523 C1522 1.327 . S
C1523 C1527 1.429 . S
C1524 C1507 1.574 . S
C1524 H1518 0.949 . S
C1524 C1528 1.368 . S
C1525 C1506 1.429 . S
C1525 C1519 1.429 . S
C1525 C1526 1.523 . S
C1526 C1507 1.368 . S
C1526 C1520 1.368 . S
C1526 C1525 1.523 . S
C1527 C1511 1.429 . S
C1527 C1523 1.429 . S
C1527 C1528 1.523 . S
C1528 C1512 1.368 . S
C1528 C1524 1.368 . S
C1528 C1527 1.523 . S
H1529 C1504 0.950 . S
H1530 C1506 0.950 . S
H1531 C1507 0.949 . S
H1532 C1509 0.950 . S
H1533 C1511 0.950 . S
C1534 C1535 1.349 . S
C1534 C1536 1.327 . S
C1534 H1559 0.950 . S
C1535 C1534 1.349 . S
C1535 C1551 1.349 . S
C1536 C1534 1.327 . S
C1536 C1555 1.429 . S
C1536 H1560 0.950 . S
C1537 C1554 1.574 . S
C1537 C1556 1.368 . S
C1537 H1561 0.949 . S
H1538 C1542 0.949 . S
C1539 C1540 1.349 . S
C1539 C1541 1.327 . S
C1539 H1562 0.950 . S
C1540 C1539 1.349 . S
C1540 C1552 1.349 . S
C1541 C1539 1.327 . S
C1541 C1557 1.429 . S
C1541 H1563 0.950 . S
C1542 H1538 0.949 . S
C1542 C1550 1.574 . S
C1542 C1558 1.368 . S
H1543 C1551 0.950 . S
H1544 C1549 0.950 . S
H1545 C1550 0.949 . S
H1546 C1552 0.950 . S
H1547 C1553 0.950 . S
H1548 C1554 0.949 . S
C1549 H1544 0.950 . S
C1549 C1551 1.327 . S
C1549 C1555 1.429 . S
C1550 C1542 1.574 . S
C1550 H1545 0.949 . S
C1550 C1556 1.368 . S
C1551 C1535 1.349 . S
C1551 H1543 0.950 . S
C1551 C1549 1.327 . S
C1552 C1540 1.349 . S
C1552 H1546 0.950 . S
C1552 C1553 1.327 . S
C1553 H1547 0.950 . S
C1553 C1552 1.327 . S
C1553 C1557 1.429 . S
C1554 C1537 1.574 . S
C1554 H1548 0.949 . S
C1554 C1558 1.368 . S
C1555 C1536 1.429 . S
C1555 C1549 1.429 . S
C1555 C1556 1.523 . S
C1556 C1537 1.368 . S
C1556 C1550 1.368 . S
C1556 C1555 1.523 . S
C1557 C1541 1.429 . S
C1557 C1553 1.429 . S
C1557 C1558 1.523 . S
C1558 C1542 1.368 . S
C1558 C1554 1.368 . S
C1558 C1557 1.523 . S
H1559 C1534 0.950 . S
H1560 C1536 0.950 . S
H1561 C1537 0.949 . S
H1562 C1539 0.950 . S
H1563 C1541 0.950 . S
C1564 C1565 1.349 . S
C1564 C1566 1.327 . S
C1564 H1589 0.950 . S
C1565 C1564 1.349 . S
C1565 C1581 1.349 . S
C1566 C1564 1.327 . S
C1566 C1585 1.429 . S
C1566 H1590 0.950 . S
C1567 C1584 1.574 . S
C1567 C1586 1.368 . S
C1567 H1591 0.949 . S
H1568 C1572 0.949 . S
C1569 C1570 1.349 . S
C1569 C1571 1.327 . S
C1569 H1592 0.950 . S
C1570 C1569 1.349 . S
C1570 C1582 1.349 . S
C1571 C1569 1.327 . S
C1571 C1587 1.429 . S
C1571 H1593 0.950 . S
C1572 H1568 0.949 . S
C1572 C1580 1.574 . S
C1572 C1588 1.368 . S
H1573 C1581 0.950 . S
H1574 C1579 0.950 . S
H1575 C1580 0.949 . S
H1576 C1582 0.950 . S
H1577 C1583 0.950 . S
H1578 C1584 0.949 . S
C1579 H1574 0.950 . S
C1579 C1581 1.327 . S
C1579 C1585 1.429 . S
C1580 C1572 1.574 . S
C1580 H1575 0.949 . S
C1580 C1586 1.368 . S
C1581 C1565 1.349 . S
C1581 H1573 0.950 . S
C1581 C1579 1.327 . S
C1582 C1570 1.349 . S
C1582 H1576 0.950 . S
C1582 C1583 1.327 . S
C1583 H1577 0.950 . S
C1583 C1582 1.327 . S
C1583 C1587 1.429 . S
C1584 C1567 1.574 . S
C1584 H1578 0.949 . S
C1584 C1588 1.368 . S
C1585 C1566 1.429 . S
C1585 C1579 1.429 . S
C1585 C1586 1.523 . S
C1586 C1567 1.368 . S
C1586 C1580 1.368 . S
C1586 C1585 1.523 . S
C1587 C1571 1.429 . S
C1587 C1583 1.429 . S
C1587 C1588 1.523 . S
C1588 C1572 1.368 . S
C1588 C1584 1.368 . S
C1588 C1587 1.523 . S
H1589 C1564 0.950 . S
H1590 C1566 0.950 . S
H1591 C1567 0.949 . S
H1592 C1569 0.950 . S
H1593 C1571 0.950 . S
C1594 C1595 1.349 . S
C1594 C1596 1.327 . S
C1594 H1619 0.950 . S
C1595 C1594 1.349 . S
C1595 C1611 1.349 . S
C1596 C1594 1.327 . S
C1596 C1615 1.429 . S
C1596 H1620 0.950 . S
C1597 C1614 1.574 . S
C1597 C1616 1.368 . S
C1597 H1621 0.949 . S
H1598 C1602 0.949 . S
C1599 C1600 1.349 . S
C1599 C1601 1.327 . S
C1599 H1622 0.950 . S
C1600 C1599 1.349 . S
C1600 C1612 1.349 . S
C1601 C1599 1.327 . S
C1601 C1617 1.429 . S
C1601 H1623 0.950 . S
C1602 H1598 0.949 . S
C1602 C1610 1.574 . S
C1602 C1618 1.368 . S
H1603 C1611 0.950 . S
H1604 C1609 0.950 . S
H1605 C1610 0.949 . S
H1606 C1612 0.950 . S
H1607 C1613 0.950 . S
H1608 C1614 0.949 . S
C1609 H1604 0.950 . S
C1609 C1611 1.327 . S
C1609 C1615 1.429 . S
C1610 C1602 1.574 . S
C1610 H1605 0.949 . S
C1610 C1616 1.368 . S
C1611 C1595 1.349 . S
C1611 H1603 0.950 . S
C1611 C1609 1.327 . S
C1612 C1600 1.349 . S
C1612 H1606 0.950 . S
C1612 C1613 1.327 . S
C1613 H1607 0.950 . S
C1613 C1612 1.327 . S
C1613 C1617 1.429 . S
C1614 C1597 1.574 . S
C1614 H1608 0.949 . S
C1614 C1618 1.368 . S
C1615 C1596 1.429 . S
C1615 C1609 1.429 . S
C1615 C1616 1.523 . S
C1616 C1597 1.368 . S
C1616 C1610 1.368 . S
C1616 C1615 1.523 . S
C1617 C1601 1.429 . S
C1617 C1613 1.429 . S
C1617 C1618 1.523 . S
C1618 C1602 1.368 . S
C1618 C1614 1.368 . S
C1618 C1617 1.523 . S
H1619 C1594 0.950 . S
H1620 C1596 0.950 . S
H1621 C1597 0.949 . S
H1622 C1599 0.950 . S
H1623 C1601 0.950 . S
C1624 C1625 1.349 . S
C1624 C1626 1.327 . S
C1624 H1649 0.950 . S
C1625 C1624 1.349 . S
C1625 C1641 1.349 . S
C1626 C1624 1.327 . S
C1626 C1645 1.429 . S
C1626 H1650 0.950 . S
C1627 C1644 1.574 1_556 S
C1627 C1646 1.368 1_545 S
C1627 H1651 0.949 . S
H1628 C1632 0.949 . S
C1629 C1630 1.349 . S
C1629 C1631 1.327 . S
C1629 H1652 0.950 . S
C1630 C1629 1.349 . S
C1630 C1642 1.349 . S
C1631 C1629 1.327 . S
C1631 C1647 1.429 . S
C1631 H1653 0.950 . S
C1632 H1628 0.949 . S
C1632 C1640 1.574 1_554 S
C1632 C1648 1.368 1_565 S
H1633 C1641 0.950 1_545 S
H1634 C1639 0.950 . S
H1635 C1640 0.949 . S
H1636 C1642 0.950 1_565 S
H1637 C1643 0.950 . S
H1638 C1644 0.949 . S
C1639 H1634 0.950 . S
C1639 C1641 1.327 1_545 S
C1639 C1645 1.429 1_545 S
C1640 C1632 1.574 1_556 S
C1640 H1635 0.949 . S
C1640 C1646 1.368 . S
C1641 C1625 1.349 . S
C1641 H1633 0.950 1_565 S
C1641 C1639 1.327 1_565 S
C1642 C1630 1.349 . S
C1642 H1636 0.950 1_545 S
C1642 C1643 1.327 1_545 S
C1643 H1637 0.950 . S
C1643 C1642 1.327 1_565 S
C1643 C1647 1.429 1_565 S
C1644 C1627 1.574 1_554 S
C1644 H1638 0.949 . S
C1644 C1648 1.368 . S
C1645 C1626 1.429 . S
C1645 C1639 1.429 1_565 S
C1645 C1646 1.523 . S
C1646 C1627 1.368 1_565 S
C1646 C1640 1.368 . S
C1646 C1645 1.523 . S
C1647 C1631 1.429 . S
C1647 C1643 1.429 1_545 S
C1647 C1648 1.523 . S
C1648 C1632 1.368 1_545 S
C1648 C1644 1.368 . S
C1648 C1647 1.523 . S
H1649 C1624 0.950 . S
H1650 C1626 0.950 . S
H1651 C1627 0.949 . S
H1652 C1629 0.950 . S
H1653 C1631 0.950 . S
C1654 C1655 1.349 . S
C1654 C1656 1.327 . S
C1654 H1679 0.950 . S
C1655 C1654 1.349 . S
C1655 C1671 1.349 . S
C1656 C1654 1.327 . S
C1656 C1675 1.429 . S
C1656 H1680 0.950 . S
C1657 C1674 1.574 1_556 S
C1657 C1676 1.368 1_655 S
C1657 H1681 0.949 . S
H1658 C1662 0.949 . S
C1659 C1660 1.349 . S
C1659 C1661 1.327 . S
C1659 H1682 0.950 . S
C1660 C1659 1.349 . S
C1660 C1672 1.349 . S
C1661 C1659 1.327 . S
C1661 C1677 1.429 . S
C1661 H1683 0.950 . S
C1662 H1658 0.949 . S
C1662 C1670 1.574 1_554 S
C1662 C1678 1.368 1_455 S
H1663 C1671 0.950 . S
H1664 C1669 0.950 1_655 S
H1665 C1670 0.949 . S
H1666 C1672 0.950 . S
H1667 C1673 0.950 1_455 S
H1668 C1674 0.949 . S
C1669 H1664 0.950 1_455 S
C1669 C1671 1.327 . S
C1669 C1675 1.429 . S
C1670 C1662 1.574 1_556 S
C1670 H1665 0.949 . S
C1670 C1676 1.368 . S
C1671 C1655 1.349 . S
C1671 H1663 0.950 . S
C1671 C1669 1.327 . S
C1672 C1660 1.349 . S
C1672 H1666 0.950 . S
C1672 C1673 1.327 . S
C1673 H1667 0.950 1_655 S
C1673 C1672 1.327 . S
C1673 C1677 1.429 . S
C1674 C1657 1.574 1_554 S
C1674 H1668 0.949 . S
C1674 C1678 1.368 . S
C1675 C1656 1.429 . S
C1675 C1669 1.429 . S
C1675 C1676 1.523 . S
C1676 C1657 1.368 1_455 S
C1676 C1670 1.368 . S
C1676 C1675 1.523 . S
C1677 C1661 1.429 . S
C1677 C1673 1.429 . S
C1677 C1678 1.523 . S
C1678 C1662 1.368 1_655 S
C1678 C1674 1.368 . S
C1678 C1677 1.523 . S
H1679 C1654 0.950 . S
H1680 C1656 0.950 . S
H1681 C1657 0.949 . S
H1682 C1659 0.950 . S
H1683 C1661 0.950 . S
C1684 C1685 1.349 . S
C1684 C1686 1.327 . S
C1684 H1709 0.950 . S
C1685 C1684 1.349 . S
C1685 C1701 1.349 . S
C1686 C1684 1.327 . S
C1686 C1705 1.429 . S
C1686 H1710 0.950 . S
C1687 C1704 1.574 1_554 S
C1687 C1706 1.368 1_545 S
C1687 H1711 0.949 . S
H1688 C1692 0.949 . S
C1689 C1690 1.349 . S
C1689 C1691 1.327 . S
C1689 H1712 0.950 . S
C1690 C1689 1.349 . S
C1690 C1702 1.349 . S
C1691 C1689 1.327 . S
C1691 C1707 1.429 . S
C1691 H1713 0.950 . S
C1692 H1688 0.949 . S
C1692 C1700 1.574 1_556 S
C1692 C1708 1.368 1_565 S
H1693 C1701 0.950 1_545 S
H1694 C1699 0.950 . S
H1695 C1700 0.949 . S
H1696 C1702 0.950 1_565 S
H1697 C1703 0.950 . S
H1698 C1704 0.949 . S
C1699 H1694 0.950 . S
C1699 C1701 1.327 1_545 S
C1699 C1705 1.429 1_545 S
C1700 C1692 1.574 1_554 S
C1700 H1695 0.949 . S
C1700 C1706 1.368 . S
C1701 C1685 1.349 . S
C1701 H1693 0.950 1_565 S
C1701 C1699 1.327 1_565 S
C1702 C1690 1.349 . S
C1702 H1696 0.950 1_545 S
C1702 C1703 1.327 1_545 S
C1703 H1697 0.950 . S
C1703 C1702 1.327 1_565 S
C1703 C1707 1.429 1_565 S
C1704 C1687 1.574 1_556 S
C1704 H1698 0.949 . S
C1704 C1708 1.368 . S
C1705 C1686 1.429 . S
C1705 C1699 1.429 1_565 S
C1705 C1706 1.523 . S
C1706 C1687 1.368 1_565 S
C1706 C1700 1.368 . S
C1706 C1705 1.523 . S
C1707 C1691 1.429 . S
C1707 C1703 1.429 1_545 S
C1707 C1708 1.523 . S
C1708 C1692 1.368 1_545 S
C1708 C1704 1.368 . S
C1708 C1707 1.523 . S
H1709 C1684 0.950 . S
H1710 C1686 0.950 . S
H1711 C1687 0.949 . S
H1712 C1689 0.950 . S
H1713 C1691 0.950 . S
C1714 C1715 1.349 . S
C1714 C1716 1.327 . S
C1714 H1739 0.950 . S
C1715 C1714 1.349 . S
C1715 C1731 1.349 . S
C1716 C1714 1.327 . S
C1716 C1735 1.429 . S
C1716 H1740 0.950 1_655 S
C1717 C1734 1.574 1_556 S
C1717 C1736 1.368 . S
C1717 H1741 0.949 . S
H1718 C1722 0.949 . S
C1719 C1720 1.349 . S
C1719 C1721 1.327 . S
C1719 H1742 0.950 . S
C1720 C1719 1.349 . S
C1720 C1732 1.349 . S
C1721 C1719 1.327 . S
C1721 C1737 1.429 . S
C1721 H1743 0.950 1_455 S
C1722 H1718 0.949 . S
C1722 C1730 1.574 1_554 S
C1722 C1738 1.368 . S
H1723 C1731 0.950 . S
H1724 C1729 0.950 . S
H1725 C1730 0.949 . S
H1726 C1732 0.950 . S
H1727 C1733 0.950 . S
H1728 C1734 0.949 . S
C1729 H1724 0.950 . S
C1729 C1731 1.327 . S
C1729 C1735 1.429 . S
C1730 C1722 1.574 1_556 S
C1730 H1725 0.949 . S
C1730 C1736 1.368 1_455 S
C1731 C1715 1.349 . S
C1731 H1723 0.950 . S
C1731 C1729 1.327 . S
C1732 C1720 1.349 . S
C1732 H1726 0.950 . S
C1732 C1733 1.327 . S
C1733 H1727 0.950 . S
C1733 C1732 1.327 . S
C1733 C1737 1.429 . S
C1734 C1717 1.574 1_554 S
C1734 H1728 0.949 . S
C1734 C1738 1.368 1_655 S
C1735 C1716 1.429 . S
C1735 C1729 1.429 . S
C1735 C1736 1.523 . S
C1736 C1717 1.368 . S
C1736 C1730 1.368 1_655 S
C1736 C1735 1.523 . S
C1737 C1721 1.429 . S
C1737 C1733 1.429 . S
C1737 C1738 1.523 . S
C1738 C1722 1.368 . S
C1738 C1734 1.368 1_455 S
C1738 C1737 1.523 . S
H1739 C1714 0.950 . S
H1740 C1716 0.950 1_455 S
H1741 C1717 0.949 . S
H1742 C1719 0.950 . S
H1743 C1721 0.950 1_655 S
C545 C73 0.358 . S
C550 C5 0.358 . S
C575 C107 0.358 . S
C580 C39 0.358 . S
C605 C209 0.358 . S
C610 C141 0.358 . S
C635 C175 0.358 . S
C640 C243 0.358 . S
C665 C277 0.358 . S
C670 C345 0.358 . S
C695 C311 0.358 . S
C700 C379 0.358 . S
C725 C481 0.358 . S
C730 C413 0.358 . S
C755 C515 0.358 . S
C760 C447 0.358 . S
C785 C9 1.467 . S
C790 C247 1.467 . S
C815 C145 1.467 . S
C820 C43 1.467 . S
C845 C179 1.467 . S
C850 C77 1.467 . S
C875 C213 1.467 . S
C880 C111 1.467 . S
C905 C519 1.467 . S
C910 C281 1.467 . S
C935 C417 1.467 . S
C940 C315 1.467 . S
C965 C451 1.467 . S
C970 C349 1.467 . S
C995 C485 1.467 . S
C1000 C383 1.467 . S
C1025 C33 1.146 . S
C1030 C376 1.179 . S
C1055 C67 1.146 . S
C1060 C274 1.179 . S
C1085 C101 1.146 . S
C1090 C308 1.179 . S
C1115 C342 1.179 . S
C1120 C135 1.146 . S
C1145 C169 1.146 . S
C1150 C444 1.179 . S
C1175 C203 1.146 . S
C1180 C478 1.179 . S
C1205 C237 1.146 . S
C1210 C512 1.179 . S
C1235 C271 1.146 . S
C1240 C410 1.179 . S
C1265 C104 1.179 . S
C1270 C305 1.146 1_545 S
C1295 C2 1.179 . S
C1300 C339 1.146 1_455 S
C1325 C36 1.179 . S
C1330 C373 1.146 1_565 S
C1355 C407 1.146 1_655 S
C1360 C70 1.179 . S
C1385 C441 1.146 1_565 S
C1390 C172 1.179 . S
C1415 C475 1.146 1_655 S
C1420 C206 1.179 . S
C1445 C509 1.146 1_545 S
C1450 C240 1.179 . S
C1475 C543 1.146 1_455 S
C1480 C138 1.179 . S
C1505 C156 1.799 . S
C1510 C20 1.799 . S
C1535 C190 1.799 . S
C1540 C54 1.799 . S
C1565 C88 1.799 . S
C1570 C224 1.799 . S
C1595 C258 1.799 . S
C1600 C122 1.799 . S
C1625 C292 1.799 . S
C1630 C428 1.799 . S
C1655 C462 1.799 . S
C1660 C326 1.799 . S
C1685 C496 1.799 . S
C1690 C360 1.799 . S
C1715 C530 1.799 . S
C1720 C394 1.799 . S
