# Generated by pormake.
# Topology cbo, (4)-cn, num edge types: 1
# Building blocks:
#     Node 0, Type 0, BuildingBlock: CEKHIL_clean_sbu_0, # of connection points: 4
#     Node 1, Type 0, BuildingBlock: CEKHIL_clean_sbu_0, # of connection points: 4
#     Node 2, Type 0, BuildingBlock: CEKHIL_clean_sbu_0, # of connection points: 4
#     Node 3, Type 0, BuildingBlock: CEKHIL_clean_sbu_0, # of connection points: 4
#     Node 4, Type 0, BuildingBlock: CEKHIL_clean_sbu_0, # of connection points: 4
#     Node 5, Type 0, BuildingBlock: CEKHIL_clean_sbu_0, # of connection points: 4
#     Node 6, Type 0, BuildingBlock: CEKHIL_clean_sbu_0, # of connection points: 4
#     Node 7, Type 0, BuildingBlock: CEKHIL_clean_sbu_0, # of connection points: 4
#     Node 8, Type 0, BuildingBlock: CEKHIL_clean_sbu_0, # of connection points: 4
#     Node 9, Type 0, BuildingBlock: CEKHIL_clean_sbu_0, # of connection points: 4
#     Node 10, Type 0, BuildingBlock: CEKHIL_clean_sbu_0, # of connection points: 4
#     Node 11, Type 0, BuildingBlock: CEKHIL_clean_sbu_0, # of connection points: 4
#     Node 12, Type 0, BuildingBlock: CEKHIL_clean_sbu_0, # of connection points: 4
#     Node 13, Type 0, BuildingBlock: CEKHIL_clean_sbu_0, # of connection points: 4
#     Node 14, Type 0, BuildingBlock: CEKHIL_clean_sbu_0, # of connection points: 4
#     Node 15, Type 0, BuildingBlock: CEKHIL_clean_sbu_0, # of connection points: 4
#     Node 16, Type 0, BuildingBlock: CEKHIL_clean_sbu_0, # of connection points: 4
#     Node 17, Type 0, BuildingBlock: CEKHIL_clean_sbu_0, # of connection points: 4
#     Node 18, Type 0, BuildingBlock: CEKHIL_clean_sbu_0, # of connection points: 4
#     Node 19, Type 0, BuildingBlock: CEKHIL_clean_sbu_0, # of connection points: 4
#     Node 20, Type 0, BuildingBlock: CEKHIL_clean_sbu_0, # of connection points: 4
#     Node 21, Type 0, BuildingBlock: CEKHIL_clean_sbu_0, # of connection points: 4
#     Node 22, Type 0, BuildingBlock: CEKHIL_clean_sbu_0, # of connection points: 4
#     Node 23, Type 0, BuildingBlock: CEKHIL_clean_sbu_0, # of connection points: 4
#     Edge 24, Type (0, 0), None
#     Edge 25, Type (0, 0), None
#     Edge 26, Type (0, 0), None
#     Edge 27, Type (0, 0), None
#     Edge 28, Type (0, 0), None
#     Edge 29, Type (0, 0), None
#     Edge 30, Type (0, 0), None
#     Edge 31, Type (0, 0), None
#     Edge 32, Type (0, 0), None
#     Edge 33, Type (0, 0), None
#     Edge 34, Type (0, 0), None
#     Edge 35, Type (0, 0), None
#     Edge 36, Type (0, 0), None
#     Edge 37, Type (0, 0), None
#     Edge 38, Type (0, 0), None
#     Edge 39, Type (0, 0), None
#     Edge 40, Type (0, 0), None
#     Edge 41, Type (0, 0), None
#     Edge 42, Type (0, 0), None
#     Edge 43, Type (0, 0), None
#     Edge 44, Type (0, 0), None
#     Edge 45, Type (0, 0), None
#     Edge 46, Type (0, 0), None
#     Edge 47, Type (0, 0), None
#     Edge 48, Type (0, 0), None
#     Edge 49, Type (0, 0), None
#     Edge 50, Type (0, 0), None
#     Edge 51, Type (0, 0), None
#     Edge 52, Type (0, 0), None
#     Edge 53, Type (0, 0), None
#     Edge 54, Type (0, 0), None
#     Edge 55, Type (0, 0), None
#     Edge 56, Type (0, 0), None
#     Edge 57, Type (0, 0), None
#     Edge 58, Type (0, 0), None
#     Edge 59, Type (0, 0), None
#     Edge 60, Type (0, 0), None
#     Edge 61, Type (0, 0), None
#     Edge 62, Type (0, 0), None
#     Edge 63, Type (0, 0), None
#     Edge 64, Type (0, 0), None
#     Edge 65, Type (0, 0), None
#     Edge 66, Type (0, 0), None
#     Edge 67, Type (0, 0), None
#     Edge 68, Type (0, 0), None
#     Edge 69, Type (0, 0), None
#     Edge 70, Type (0, 0), None
#     Edge 71, Type (0, 0), None
# Relax obj value: 0.195
# Max RMSD: 0.210
# Mean RMSD: 0.198
data_MOF--net-cbo--node1-CEKHIL_clean_sbu_0--edge1-none
_symmetry_space_group_name_H-M    P1
_symmetry_Int_Tables_number       1
_symmetry_cell_setting            triclinic
loop_
_symmetry_equiv_pos_as_xyz
'x, y, z'
_cell_length_a     23.440078
_cell_length_b     23.032221
_cell_length_c     22.819921
_cell_angle_alpha  90.000001
_cell_angle_beta   90.0
_cell_angle_gamma 90.0
loop_
_atom_site_label
_atom_site_type_symbol
_atom_site_fract_x
_atom_site_fract_y
_atom_site_fract_z
_atom_type_partial_charge
Co0 Co 0.08694 0.1755 0.31866 0.0
O1 O 0.01147 0.20116 0.33909 0.0
O2 O 0.0339 0.1113 0.31257 0.0
C3 C 0.10839 0.25029 0.25847 0.0
O4 O 0.16064 0.13446 0.29174 0.0
Co5 Co 0.1919 0.2515 0.35349 0.0
O6 O 0.23555 0.19387 0.30833 0.0
C7 C 0.13064 0.18489 0.44372 0.0
C8 C 0.99517 0.14841 0.32882 0.0
C9 C 0.21429 0.14714 0.28816 0.0
O10 O 0.10159 0.15757 0.40456 0.0
O11 O 0.1646 0.22672 0.4322 0.0
O12 O 0.07828 0.20706 0.23908 0.0
O13 O 0.11883 0.24955 0.314 0.0
Co14 Co 0.41348 0.81659 0.81866 0.0
O15 O 0.48896 0.79093 0.83909 0.0
O16 O 0.46652 0.88079 0.81257 0.0
C17 C 0.39203 0.7418 0.75847 0.0
O18 O 0.33979 0.85763 0.79174 0.0
Co19 Co 0.30853 0.74059 0.85349 0.0
O20 O 0.26488 0.79822 0.80833 0.0
C21 C 0.36978 0.8072 0.94372 0.0
C22 C 0.50525 0.84368 0.82882 0.0
C23 C 0.28613 0.84495 0.78816 0.0
O24 O 0.39883 0.83452 0.90456 0.0
O25 O 0.33582 0.76537 0.9322 0.0
O26 O 0.42215 0.78503 0.73908 0.0
O27 O 0.3816 0.74254 0.814 0.0
Co28 Co 0.58694 0.31659 0.65982 0.0
O29 O 0.51147 0.29093 0.6394 0.0
O30 O 0.5339 0.38079 0.66591 0.0
C31 C 0.60839 0.2418 0.72002 0.0
O32 O 0.66064 0.35763 0.68674 0.0
Co33 Co 0.6919 0.24059 0.62499 0.0
O34 O 0.73555 0.29822 0.67015 0.0
C35 C 0.63064 0.3072 0.53476 0.0
C36 C 0.49517 0.34368 0.64966 0.0
C37 C 0.71429 0.34495 0.69032 0.0
O38 O 0.60159 0.33452 0.57393 0.0
O39 O 0.6646 0.26537 0.54629 0.0
O40 O 0.57828 0.28503 0.7394 0.0
O41 O 0.61883 0.24254 0.66449 0.0
Co42 Co 0.91348 0.6755 0.15982 0.0
O43 O 0.98896 0.70116 0.1394 0.0
O44 O 0.96652 0.6113 0.16591 0.0
C45 C 0.89203 0.75029 0.22002 0.0
O46 O 0.83979 0.63446 0.18674 0.0
Co47 Co 0.80853 0.7515 0.12499 0.0
O48 O 0.76488 0.69387 0.17015 0.0
C49 C 0.86978 0.68489 0.03476 0.0
C50 C 0.00525 0.64841 0.14966 0.0
C51 C 0.78613 0.64714 0.19032 0.0
O52 O 0.89883 0.65757 0.07393 0.0
O53 O 0.83582 0.72672 0.04629 0.0
O54 O 0.92215 0.70706 0.2394 0.0
O55 O 0.8816 0.74955 0.16449 0.0
Co56 Co 0.31282 0.09135 0.17833 0.0
O57 O 0.33772 0.01515 0.20132 0.0
O58 O 0.3078 0.03878 0.11218 0.0
C59 C 0.25377 0.11016 0.2547 0.0
O60 O 0.28157 0.16452 0.13968 0.0
Co61 Co 0.3418 0.19836 0.25778 0.0
O62 O 0.29371 0.24042 0.2011 0.0
C63 C 0.42918 0.15263 0.17709 0.0
C64 C 0.32639 -0.00075 0.14806 0.0
C65 C 0.27491 0.21821 0.15384 0.0
O66 O 0.39473 0.11365 0.15695 0.0
O67 O 0.41665 0.18761 0.21853 0.0
O68 O 0.23637 0.07777 0.21172 0.0
O69 O 0.30754 0.12225 0.25406 0.0
Co70 Co 0.18761 0.90074 0.67833 0.0
O71 O 0.16271 0.97694 0.70132 0.0
O72 O 0.19262 0.95331 0.61218 0.0
C73 C 0.24665 0.88193 0.7547 0.0
O74 O 0.21885 0.82757 0.63968 0.0
Co75 Co 0.15862 0.79373 0.75778 0.0
O76 O 0.20672 0.75167 0.7011 0.0
C77 C 0.07125 0.83946 0.67709 0.0
C78 C 0.17403 0.99283 0.64806 0.0
C79 C 0.22551 0.77388 0.65384 0.0
O80 O 0.10569 0.87844 0.65695 0.0
O81 O 0.08378 0.80448 0.71853 0.0
O82 O 0.26405 0.91432 0.71172 0.0
O83 O 0.19289 0.86984 0.75406 0.0
Co84 Co 0.81282 0.40074 0.80016 0.0
O85 O 0.83772 0.47694 0.77716 0.0
O86 O 0.8078 0.45331 0.86631 0.0
C87 C 0.75377 0.38193 0.72379 0.0
O88 O 0.78157 0.32757 0.83881 0.0
Co89 Co 0.8418 0.29373 0.7207 0.0
O90 O 0.79371 0.25167 0.77739 0.0
C91 C 0.92918 0.33946 0.8014 0.0
C92 C 0.82639 0.49283 0.83043 0.0
C93 C 0.77491 0.27388 0.82464 0.0
O94 O 0.89473 0.37844 0.82154 0.0
O95 O 0.91665 0.30448 0.75995 0.0
O96 O 0.73637 0.41432 0.76677 0.0
O97 O 0.80754 0.36984 0.72442 0.0
Co98 Co 0.68761 0.59135 0.30016 0.0
O99 O 0.66271 0.51515 0.27716 0.0
O100 O 0.69262 0.53878 0.36631 0.0
C101 C 0.74665 0.61016 0.22379 0.0
O102 O 0.71885 0.66452 0.33881 0.0
Co103 Co 0.65862 0.69836 0.2207 0.0
O104 O 0.70672 0.74042 0.27739 0.0
C105 C 0.57125 0.65263 0.3014 0.0
C106 C 0.67403 0.49925 0.33043 0.0
C107 C 0.72551 0.71821 0.32464 0.0
O108 O 0.60569 0.61365 0.32154 0.0
O109 O 0.58378 0.68761 0.25995 0.0
O110 O 0.76405 0.57777 0.26677 0.0
O111 O 0.69289 0.62225 0.22442 0.0
Co112 Co 0.16994 0.31578 0.08922 0.0
O113 O 0.19755 0.32927 0.01154 0.0
O114 O 0.10791 0.30777 0.03284 0.0
C115 C 0.24067 0.25598 0.11665 0.0
O116 O 0.12812 0.2938 0.16525 0.0
Co117 Co 0.24376 0.35352 0.19753 0.0
O118 O 0.18991 0.30414 0.24065 0.0
C119 C 0.18234 0.4412 0.1279 0.0
C120 C 0.14653 0.31778 -0.00688 0.0
C121 C 0.14306 0.28611 0.21928 0.0
O122 O 0.15512 0.40206 0.09879 0.0
O123 O 0.22153 0.43022 0.16513 0.0
O124 O 0.19856 0.23597 0.08574 0.0
O125 O 0.24158 0.31145 0.12416 0.0
Co126 Co 0.66994 0.17631 0.88926 0.0
O127 O 0.69755 0.16282 0.96694 0.0
O128 O 0.60791 0.18431 0.94565 0.0
C129 C 0.74067 0.23611 0.86183 0.0
O130 O 0.62812 0.19829 0.81323 0.0
Co131 Co 0.74376 0.13857 0.78096 0.0
O132 O 0.68991 0.18794 0.73783 0.0
C133 C 0.68234 0.05089 0.85059 0.0
C134 C 0.64653 0.1743 0.98536 0.0
C135 C 0.64306 0.20598 0.7592 0.0
O136 O 0.65512 0.09003 0.8797 0.0
O137 O 0.72153 0.06187 0.81335 0.0
O138 O 0.69856 0.25612 0.89275 0.0
O139 O 0.74158 0.18064 0.85433 0.0
Co140 Co 0.83049 0.81578 0.38926 0.0
O141 O 0.80287 0.82927 0.46694 0.0
O142 O 0.89252 0.80777 0.44565 0.0
C143 C 0.75975 0.75598 0.36183 0.0
O144 O 0.87231 0.7938 0.31323 0.0
Co145 Co 0.75666 0.85352 0.28096 0.0
O146 O 0.81051 0.80414 0.23783 0.0
C147 C 0.81808 0.9412 0.35059 0.0
C148 C 0.8539 0.81778 0.48536 0.0
C149 C 0.85736 0.78611 0.2592 0.0
O150 O 0.8453 0.90206 0.3797 0.0
O151 O 0.77889 0.93022 0.31335 0.0
O152 O 0.80187 0.73597 0.39275 0.0
O153 O 0.75884 0.81145 0.35433 0.0
Co154 Co 0.33049 0.67631 0.58922 0.0
O155 O 0.30287 0.66282 0.51154 0.0
O156 O 0.39252 0.68431 0.53284 0.0
C157 C 0.25975 0.73611 0.61665 0.0
O158 O 0.37231 0.69829 0.66525 0.0
Co159 Co 0.25666 0.63857 0.69753 0.0
O160 O 0.31051 0.68794 0.74065 0.0
C161 C 0.31808 0.55089 0.6279 0.0
C162 C 0.3539 0.6743 0.49312 0.0
C163 C 0.35736 0.70598 0.71928 0.0
O164 O 0.3453 0.59003 0.59879 0.0
O165 O 0.27889 0.56187 0.66513 0.0
O166 O 0.30187 0.75612 0.58574 0.0
O167 O 0.25884 0.68064 0.62416 0.0
Co168 Co 0.92003 0.80936 0.66555 0.0
O169 O 0.99422 0.78133 0.64397 0.0
O170 O 0.97484 0.8726 0.66617 0.0
C171 C 0.90084 0.73898 0.73193 0.0
O172 O 0.85126 0.85398 0.69612 0.0
Co173 Co 0.80979 0.73551 0.64527 0.0
O174 O 0.77702 0.79202 0.70079 0.0
C175 C 0.8609 0.80003 0.54652 0.0
C176 C 0.01298 0.83332 0.65467 0.0
C177 C 0.80079 0.84016 0.71328 0.0
O178 O 0.8988 0.8237 0.57999 0.0
O179 O 0.82455 0.76252 0.56398 0.0
O180 O 0.93311 0.78259 0.74572 0.0
O181 O 0.88612 0.73586 0.67746 0.0
Co182 Co 0.5804 0.18272 0.16555 0.0
O183 O 0.5062 0.21076 0.14397 0.0
O184 O 0.52558 0.11949 0.16617 0.0
C185 C 0.59958 0.25311 0.23193 0.0
O186 O 0.64916 0.13811 0.19612 0.0
Co187 Co 0.69064 0.25658 0.14527 0.0
O188 O 0.7234 0.20007 0.20079 0.0
C189 C 0.63952 0.19206 0.04652 0.0
C190 C 0.48744 0.15877 0.15467 0.0
C191 C 0.69963 0.15193 0.21328 0.0
O192 O 0.60162 0.16839 0.07999 0.0
O193 O 0.67587 0.22957 0.06398 0.0
O194 O 0.56731 0.2095 0.24572 0.0
O195 O 0.6143 0.25623 0.17746 0.0
Co196 Co 0.42003 0.68272 0.31293 0.0
O197 O 0.49422 0.71076 0.33452 0.0
O198 O 0.47484 0.61949 0.31232 0.0
C199 C 0.40084 0.75311 0.24655 0.0
O200 O 0.35126 0.63811 0.28236 0.0
Co201 Co 0.30979 0.75658 0.33322 0.0
O202 O 0.27702 0.70007 0.27769 0.0
C203 C 0.3609 0.69206 0.43197 0.0
C204 C 0.51298 0.65877 0.32382 0.0
C205 C 0.30079 0.65193 0.2652 0.0
O206 O 0.3988 0.66839 0.3985 0.0
O207 O 0.32455 0.72957 0.41451 0.0
O208 O 0.43311 0.7095 0.23277 0.0
O209 O 0.38612 0.75623 0.30102 0.0
Co210 Co 0.0804 0.30936 0.81293 0.0
O211 O 0.0062 0.28133 0.83452 0.0
O212 O 0.02558 0.3726 0.81232 0.0
C213 C 0.09958 0.23898 0.74655 0.0
O214 O 0.14916 0.35398 0.78236 0.0
Co215 Co 0.19064 0.23551 0.83322 0.0
O216 O 0.2234 0.29202 0.77769 0.0
C217 C 0.13952 0.30003 0.93197 0.0
C218 C 0.98744 0.33332 0.82382 0.0
C219 C 0.19963 0.34016 0.7652 0.0
O220 O 0.10162 0.3237 0.8985 0.0
O221 O 0.17587 0.26252 0.91451 0.0
O222 O 0.06731 0.28259 0.73277 0.0
O223 O 0.1143 0.23586 0.80102 0.0
Co224 Co 0.66139 0.8667 0.82992 0.0
O225 O 0.59455 0.85903 0.87888 0.0
O226 O 0.59426 0.86315 0.78162 0.0
C227 C 0.71976 0.80091 0.8712 0.0
O228 O 0.71967 0.86934 0.76468 0.0
Co229 Co 0.77558 0.91407 0.88008 0.0
O230 O 0.80621 0.88995 0.80228 0.0
C231 C 0.67944 0.99037 0.86831 0.0
C232 C 0.56584 0.85819 0.8301 0.0
C233 C 0.77414 0.87342 0.76031 0.0
O234 O 0.65699 0.95431 0.83202 0.0
O235 O 0.71932 0.97544 0.90317 0.0
O236 O 0.67845 0.78356 0.83735 0.0
O237 O 0.71721 0.8547 0.88696 0.0
Co238 Co 0.83903 0.12539 0.32992 0.0
O239 O 0.90587 0.13306 0.37888 0.0
O240 O 0.90616 0.12893 0.28162 0.0
C241 C 0.78066 0.19118 0.3712 0.0
O242 O 0.78075 0.12275 0.26468 0.0
Co243 Co 0.72484 0.07802 0.38008 0.0
O244 O 0.69422 0.10214 0.30228 0.0
C245 C 0.82098 0.00172 0.36831 0.0
C246 C 0.93458 0.1339 0.3301 0.0
C247 C 0.72628 0.11866 0.26031 0.0
O248 O 0.84343 0.03778 0.33202 0.0
O249 O 0.7811 0.01665 0.40317 0.0
O250 O 0.82198 0.20853 0.33735 0.0
O251 O 0.78322 0.13739 0.38696 0.0
Co252 Co 0.16139 0.62539 0.14856 0.0
O253 O 0.09455 0.63306 0.09961 0.0
O254 O 0.09426 0.62893 0.19687 0.0
C255 C 0.21976 0.69118 0.10729 0.0
O256 O 0.21967 0.62275 0.2138 0.0
Co257 Co 0.27558 0.57802 0.09841 0.0
O258 O 0.30621 0.60214 0.17621 0.0
C259 C 0.17944 0.50172 0.11018 0.0
C260 C 0.06584 0.6339 0.14838 0.0
C261 C 0.27414 0.61866 0.21818 0.0
O262 O 0.15699 0.53778 0.14647 0.0
O263 O 0.21932 0.51665 0.07532 0.0
O264 O 0.17845 0.70853 0.14114 0.0
O265 O 0.21721 0.63739 0.09153 0.0
Co266 Co 0.33903 0.3667 0.64856 0.0
O267 O 0.40587 0.35903 0.59961 0.0
O268 O 0.40616 0.36315 0.69687 0.0
C269 C 0.28066 0.30091 0.60729 0.0
O270 O 0.28075 0.36934 0.7138 0.0
Co271 Co 0.22484 0.41407 0.59841 0.0
O272 O 0.19422 0.38995 0.67621 0.0
C273 C 0.32098 0.49037 0.61018 0.0
C274 C 0.43458 0.35819 0.64838 0.0
C275 C 0.22628 0.37342 0.71818 0.0
O276 O 0.34343 0.45431 0.64647 0.0
O277 O 0.2811 0.47544 0.57532 0.0
O278 O 0.32198 0.28356 0.64114 0.0
O279 O 0.28322 0.3547 0.59153 0.0
Co280 Co 0.83616 0.65162 0.85193 0.0
O281 O 0.8795 0.58092 0.84342 0.0
O282 O 0.78578 0.58531 0.85596 0.0
C283 C 0.87796 0.69989 0.77695 0.0
O284 O 0.7761 0.71548 0.85887 0.0
Co285 Co 0.89772 0.76668 0.88454 0.0
O286 O 0.81889 0.79877 0.88605 0.0
C287 C 0.88312 0.67777 0.97275 0.0
C288 C 0.83104 0.55397 0.847 0.0
C289 C 0.77437 0.76932 0.87383 0.0
O290 O 0.8459 0.65225 0.94017 0.0
O291 O 0.91752 0.71593 0.95286 0.0
O292 O 0.83762 0.66265 0.76648 0.0
O293 O 0.89519 0.7022 0.8305 0.0
Co294 Co 0.33616 0.84046 0.12655 0.0
O295 O 0.3795 0.91117 0.13507 0.0
O296 O 0.28578 0.90678 0.12253 0.0
C297 C 0.37796 0.79219 0.20154 0.0
O298 O 0.2761 0.77661 0.11962 0.0
Co299 Co 0.39772 0.72541 0.09395 0.0
O300 O 0.31889 0.69332 0.09244 0.0
C301 C 0.38312 0.81432 0.00574 0.0
C302 C 0.33104 0.93812 0.13148 0.0
C303 C 0.27437 0.72277 0.10466 0.0
O304 O 0.3459 0.83984 0.03832 0.0
O305 O 0.41752 0.77615 0.02562 0.0
O306 O 0.33762 0.82944 0.21201 0.0
O307 O 0.39519 0.78989 0.14799 0.0
Co308 Co 0.16426 0.15162 0.62655 0.0
O309 O 0.12093 0.08092 0.63507 0.0
O310 O 0.21464 0.08531 0.62253 0.0
C311 C 0.12247 0.19989 0.70154 0.0
O312 O 0.22432 0.21548 0.61962 0.0
Co313 Co 0.1027 0.26668 0.59395 0.0
O314 O 0.18153 0.29877 0.59244 0.0
C315 C 0.11731 0.17777 0.50574 0.0
C316 C 0.16939 0.05397 0.63148 0.0
C317 C 0.22605 0.26932 0.60466 0.0
O318 O 0.15452 0.15225 0.53832 0.0
O319 O 0.0829 0.21593 0.52562 0.0
O320 O 0.16281 0.16265 0.71201 0.0
O321 O 0.10523 0.2022 0.64799 0.0
Co322 Co 0.66426 0.34046 0.35193 0.0
O323 O 0.62093 0.41117 0.34342 0.0
O324 O 0.71464 0.40678 0.35596 0.0
C325 C 0.62247 0.29219 0.27695 0.0
O326 O 0.72432 0.27661 0.35887 0.0
Co327 Co 0.6027 0.22541 0.38454 0.0
O328 O 0.68153 0.19332 0.38605 0.0
C329 C 0.61731 0.31432 0.47275 0.0
C330 C 0.66939 0.43812 0.347 0.0
C331 C 0.72605 0.22277 0.37383 0.0
O332 O 0.65452 0.33984 0.44017 0.0
O333 O 0.5829 0.27615 0.45286 0.0
O334 O 0.66281 0.32944 0.26648 0.0
O335 O 0.60523 0.28989 0.3305 0.0
loop_
_geom_bond_atom_site_label_1
_geom_bond_atom_site_label_2
_geom_bond_distance
_geom_bond_site_symmetry_2
_ccdc_geom_bond_type
Co0 O1 2.216 . S
Co0 O2 2.091 . S
Co0 O4 2.004 . S
Co0 O10 2.021 . S
Co0 O12 2.137 . S
Co0 O13 2.244 . S
O1 Co0 2.216 . S
O1 C8 1.247 . S
O2 Co0 2.091 . S
O2 C8 1.261 . S
C3 O12 1.247 . S
C3 O13 1.272 . S
O4 Co0 2.004 . S
O4 C9 1.259 . S
Co5 O6 2.061 . S
Co5 O11 2.052 . S
Co5 O13 2.135 . S
O6 Co5 2.061 . S
O6 C9 1.235 . S
C7 O10 1.238 . S
C7 O11 1.241 . S
C8 O1 1.247 . S
C8 O2 1.261 . S
C9 O4 1.259 . S
C9 O6 1.235 . S
O10 Co0 2.021 . S
O10 C7 1.238 . S
O11 Co5 2.052 . S
O11 C7 1.241 . S
O12 Co0 2.137 . S
O12 C3 1.247 . S
O13 Co0 2.244 . S
O13 C3 1.272 . S
O13 Co5 2.135 . S
Co14 O15 2.216 . S
Co14 O16 2.091 . S
Co14 O18 2.004 . S
Co14 O24 2.021 . S
Co14 O26 2.137 . S
Co14 O27 2.244 . S
O15 Co14 2.216 . S
O15 C22 1.247 . S
O16 Co14 2.091 . S
O16 C22 1.261 . S
C17 O26 1.247 . S
C17 O27 1.272 . S
O18 Co14 2.004 . S
O18 C23 1.259 . S
Co19 O20 2.061 . S
Co19 O25 2.052 . S
Co19 O27 2.135 . S
O20 Co19 2.061 . S
O20 C23 1.235 . S
C21 O24 1.238 . S
C21 O25 1.241 . S
C22 O15 1.247 . S
C22 O16 1.261 . S
C23 O18 1.259 . S
C23 O20 1.235 . S
O24 Co14 2.021 . S
O24 C21 1.238 . S
O25 Co19 2.052 . S
O25 C21 1.241 . S
O26 Co14 2.137 . S
O26 C17 1.247 . S
O27 Co14 2.244 . S
O27 C17 1.272 . S
O27 Co19 2.135 . S
Co28 O29 2.216 . S
Co28 O30 2.091 . S
Co28 O32 2.004 . S
Co28 O38 2.021 . S
Co28 O40 2.137 . S
Co28 O41 2.244 . S
O29 Co28 2.216 . S
O29 C36 1.247 . S
O30 Co28 2.091 . S
O30 C36 1.261 . S
C31 O40 1.247 . S
C31 O41 1.272 . S
O32 Co28 2.004 . S
O32 C37 1.259 . S
Co33 O34 2.061 . S
Co33 O39 2.052 . S
Co33 O41 2.135 . S
O34 Co33 2.061 . S
O34 C37 1.235 . S
C35 O38 1.238 . S
C35 O39 1.241 . S
C36 O29 1.247 . S
C36 O30 1.261 . S
C37 O32 1.259 . S
C37 O34 1.235 . S
O38 Co28 2.021 . S
O38 C35 1.238 . S
O39 Co33 2.052 . S
O39 C35 1.241 . S
O40 Co28 2.137 . S
O40 C31 1.247 . S
O41 Co28 2.244 . S
O41 C31 1.272 . S
O41 Co33 2.135 . S
Co42 O43 2.216 . S
Co42 O44 2.091 . S
Co42 O46 2.004 . S
Co42 O52 2.021 . S
Co42 O54 2.137 . S
Co42 O55 2.244 . S
O43 Co42 2.216 . S
O43 C50 1.247 . S
O44 Co42 2.091 . S
O44 C50 1.261 . S
C45 O54 1.247 . S
C45 O55 1.272 . S
O46 Co42 2.004 . S
O46 C51 1.259 . S
Co47 O48 2.061 . S
Co47 O53 2.052 . S
Co47 O55 2.135 . S
O48 Co47 2.061 . S
O48 C51 1.235 . S
C49 O52 1.238 . S
C49 O53 1.241 . S
C50 O43 1.247 . S
C50 O44 1.261 . S
C51 O46 1.259 . S
C51 O48 1.235 . S
O52 Co42 2.021 . S
O52 C49 1.238 . S
O53 Co47 2.052 . S
O53 C49 1.241 . S
O54 Co42 2.137 . S
O54 C45 1.247 . S
O55 Co42 2.244 . S
O55 C45 1.272 . S
O55 Co47 2.135 . S
Co56 O57 2.216 . S
Co56 O58 2.091 . S
Co56 O60 2.004 . S
Co56 O66 2.021 . S
Co56 O68 2.137 . S
Co56 O69 2.244 . S
O57 Co56 2.216 . S
O57 C64 1.247 . S
O58 Co56 2.091 . S
O58 C64 1.261 . S
C59 O68 1.247 . S
C59 O69 1.272 . S
O60 Co56 2.004 . S
O60 C65 1.259 . S
Co61 O62 2.061 . S
Co61 O67 2.052 . S
Co61 O69 2.135 . S
O62 Co61 2.061 . S
O62 C65 1.235 . S
C63 O66 1.238 . S
C63 O67 1.241 . S
C64 O57 1.247 . S
C64 O58 1.261 . S
C65 O60 1.259 . S
C65 O62 1.235 . S
O66 Co56 2.021 . S
O66 C63 1.238 . S
O67 Co61 2.052 . S
O67 C63 1.241 . S
O68 Co56 2.137 . S
O68 C59 1.247 . S
O69 Co56 2.244 . S
O69 C59 1.272 . S
O69 Co61 2.135 . S
Co70 O71 2.216 . S
Co70 O72 2.091 . S
Co70 O74 2.004 . S
Co70 O80 2.021 . S
Co70 O82 2.137 . S
Co70 O83 2.244 . S
O71 Co70 2.216 . S
O71 C78 1.247 . S
O72 Co70 2.091 . S
O72 C78 1.261 . S
C73 O82 1.247 . S
C73 O83 1.272 . S
O74 Co70 2.004 . S
O74 C79 1.259 . S
Co75 O76 2.061 . S
Co75 O81 2.052 . S
Co75 O83 2.135 . S
O76 Co75 2.061 . S
O76 C79 1.235 . S
C77 O80 1.238 . S
C77 O81 1.241 . S
C78 O71 1.247 . S
C78 O72 1.261 . S
C79 O74 1.259 . S
C79 O76 1.235 . S
O80 Co70 2.021 . S
O80 C77 1.238 . S
O81 Co75 2.052 . S
O81 C77 1.241 . S
O82 Co70 2.137 . S
O82 C73 1.247 . S
O83 Co70 2.244 . S
O83 C73 1.272 . S
O83 Co75 2.135 . S
Co84 O85 2.216 . S
Co84 O86 2.091 . S
Co84 O88 2.004 . S
Co84 O94 2.021 . S
Co84 O96 2.137 . S
Co84 O97 2.244 . S
O85 Co84 2.216 . S
O85 C92 1.247 . S
O86 Co84 2.091 . S
O86 C92 1.261 . S
C87 O96 1.247 . S
C87 O97 1.272 . S
O88 Co84 2.004 . S
O88 C93 1.259 . S
Co89 O90 2.061 . S
Co89 O95 2.052 . S
Co89 O97 2.135 . S
O90 Co89 2.061 . S
O90 C93 1.235 . S
C91 O94 1.238 . S
C91 O95 1.241 . S
C92 O85 1.247 . S
C92 O86 1.261 . S
C93 O88 1.259 . S
C93 O90 1.235 . S
O94 Co84 2.021 . S
O94 C91 1.238 . S
O95 Co89 2.052 . S
O95 C91 1.241 . S
O96 Co84 2.137 . S
O96 C87 1.247 . S
O97 Co84 2.244 . S
O97 C87 1.272 . S
O97 Co89 2.135 . S
Co98 O99 2.216 . S
Co98 O100 2.091 . S
Co98 O102 2.004 . S
Co98 O108 2.021 . S
Co98 O110 2.137 . S
Co98 O111 2.244 . S
O99 Co98 2.216 . S
O99 C106 1.247 . S
O100 Co98 2.091 . S
O100 C106 1.261 . S
C101 O110 1.247 . S
C101 O111 1.272 . S
O102 Co98 2.004 . S
O102 C107 1.259 . S
Co103 O104 2.061 . S
Co103 O109 2.052 . S
Co103 O111 2.135 . S
O104 Co103 2.061 . S
O104 C107 1.235 . S
C105 O108 1.238 . S
C105 O109 1.241 . S
C106 O99 1.247 . S
C106 O100 1.261 . S
C107 O102 1.259 . S
C107 O104 1.235 . S
O108 Co98 2.021 . S
O108 C105 1.238 . S
O109 Co103 2.052 . S
O109 C105 1.241 . S
O110 Co98 2.137 . S
O110 C101 1.247 . S
O111 Co98 2.244 . S
O111 C101 1.272 . S
O111 Co103 2.135 . S
Co112 O113 2.216 . S
Co112 O114 2.091 . S
Co112 O116 2.004 . S
Co112 O122 2.021 . S
Co112 O124 2.137 . S
Co112 O125 2.244 . S
O113 Co112 2.216 . S
O113 C120 1.247 1_554 S
O114 Co112 2.091 . S
O114 C120 1.261 1_554 S
C115 O124 1.247 . S
C115 O125 1.272 . S
O116 Co112 2.004 . S
O116 C121 1.259 . S
Co117 O118 2.061 . S
Co117 O123 2.052 . S
Co117 O125 2.135 . S
O118 Co117 2.061 . S
O118 C121 1.235 . S
C119 O122 1.238 . S
C119 O123 1.241 . S
C120 O113 1.247 1_556 S
C120 O114 1.261 1_556 S
C121 O116 1.259 . S
C121 O118 1.235 . S
O122 Co112 2.021 . S
O122 C119 1.238 . S
O123 Co117 2.052 . S
O123 C119 1.241 . S
O124 Co112 2.137 . S
O124 C115 1.247 . S
O125 Co112 2.244 . S
O125 C115 1.272 . S
O125 Co117 2.135 . S
Co126 O127 2.216 . S
Co126 O128 2.091 . S
Co126 O130 2.004 . S
Co126 O136 2.021 . S
Co126 O138 2.137 . S
Co126 O139 2.244 . S
O127 Co126 2.216 . S
O127 C134 1.247 1_556 S
O128 Co126 2.091 . S
O128 C134 1.261 1_556 S
C129 O138 1.247 . S
C129 O139 1.272 . S
O130 Co126 2.004 . S
O130 C135 1.259 . S
Co131 O132 2.061 . S
Co131 O137 2.052 . S
Co131 O139 2.135 . S
O132 Co131 2.061 . S
O132 C135 1.235 . S
C133 O136 1.238 . S
C133 O137 1.241 . S
C134 O127 1.247 1_554 S
C134 O128 1.261 1_554 S
C135 O130 1.259 . S
C135 O132 1.235 . S
O136 Co126 2.021 . S
O136 C133 1.238 . S
O137 Co131 2.052 . S
O137 C133 1.241 . S
O138 Co126 2.137 . S
O138 C129 1.247 . S
O139 Co126 2.244 . S
O139 C129 1.272 . S
O139 Co131 2.135 . S
Co140 O141 2.216 . S
Co140 O142 2.091 . S
Co140 O144 2.004 . S
Co140 O150 2.021 . S
Co140 O152 2.137 . S
Co140 O153 2.244 . S
O141 Co140 2.216 . S
O141 C148 1.247 . S
O142 Co140 2.091 . S
O142 C148 1.261 . S
C143 O152 1.247 . S
C143 O153 1.272 . S
O144 Co140 2.004 . S
O144 C149 1.259 . S
Co145 O146 2.061 . S
Co145 O151 2.052 . S
Co145 O153 2.135 . S
O146 Co145 2.061 . S
O146 C149 1.235 . S
C147 O150 1.238 . S
C147 O151 1.241 . S
C148 O141 1.247 . S
C148 O142 1.261 . S
C149 O144 1.259 . S
C149 O146 1.235 . S
O150 Co140 2.021 . S
O150 C147 1.238 . S
O151 Co145 2.052 . S
O151 C147 1.241 . S
O152 Co140 2.137 . S
O152 C143 1.247 . S
O153 Co140 2.244 . S
O153 C143 1.272 . S
O153 Co145 2.135 . S
Co154 O155 2.216 . S
Co154 O156 2.091 . S
Co154 O158 2.004 . S
Co154 O164 2.021 . S
Co154 O166 2.137 . S
Co154 O167 2.244 . S
O155 Co154 2.216 . S
O155 C162 1.247 . S
O156 Co154 2.091 . S
O156 C162 1.261 . S
C157 O166 1.247 . S
C157 O167 1.272 . S
O158 Co154 2.004 . S
O158 C163 1.259 . S
Co159 O160 2.061 . S
Co159 O165 2.052 . S
Co159 O167 2.135 . S
O160 Co159 2.061 . S
O160 C163 1.235 . S
C161 O164 1.238 . S
C161 O165 1.241 . S
C162 O155 1.247 . S
C162 O156 1.261 . S
C163 O158 1.259 . S
C163 O160 1.235 . S
O164 Co154 2.021 . S
O164 C161 1.238 . S
O165 Co159 2.052 . S
O165 C161 1.241 . S
O166 Co154 2.137 . S
O166 C157 1.247 . S
O167 Co154 2.244 . S
O167 C157 1.272 . S
O167 Co159 2.135 . S
Co168 O169 2.216 . S
Co168 O170 2.091 . S
Co168 O172 2.004 . S
Co168 O178 2.021 . S
Co168 O180 2.137 . S
Co168 O181 2.244 . S
O169 Co168 2.216 . S
O169 C176 1.247 1_655 S
O170 Co168 2.091 . S
O170 C176 1.261 1_655 S
C171 O180 1.247 . S
C171 O181 1.272 . S
O172 Co168 2.004 . S
O172 C177 1.259 . S
Co173 O174 2.061 . S
Co173 O179 2.052 . S
Co173 O181 2.135 . S
O174 Co173 2.061 . S
O174 C177 1.235 . S
C175 O178 1.238 . S
C175 O179 1.241 . S
C176 O169 1.247 1_455 S
C176 O170 1.261 1_455 S
C177 O172 1.259 . S
C177 O174 1.235 . S
O178 Co168 2.021 . S
O178 C175 1.238 . S
O179 Co173 2.052 . S
O179 C175 1.241 . S
O180 Co168 2.137 . S
O180 C171 1.247 . S
O181 Co168 2.244 . S
O181 C171 1.272 . S
O181 Co173 2.135 . S
Co182 O183 2.216 . S
Co182 O184 2.091 . S
Co182 O186 2.004 . S
Co182 O192 2.021 . S
Co182 O194 2.137 . S
Co182 O195 2.244 . S
O183 Co182 2.216 . S
O183 C190 1.247 . S
O184 Co182 2.091 . S
O184 C190 1.261 . S
C185 O194 1.247 . S
C185 O195 1.272 . S
O186 Co182 2.004 . S
O186 C191 1.259 . S
Co187 O188 2.061 . S
Co187 O193 2.052 . S
Co187 O195 2.135 . S
O188 Co187 2.061 . S
O188 C191 1.235 . S
C189 O192 1.238 . S
C189 O193 1.241 . S
C190 O183 1.247 . S
C190 O184 1.261 . S
C191 O186 1.259 . S
C191 O188 1.235 . S
O192 Co182 2.021 . S
O192 C189 1.238 . S
O193 Co187 2.052 . S
O193 C189 1.241 . S
O194 Co182 2.137 . S
O194 C185 1.247 . S
O195 Co182 2.244 . S
O195 C185 1.272 . S
O195 Co187 2.135 . S
Co196 O197 2.216 . S
Co196 O198 2.091 . S
Co196 O200 2.004 . S
Co196 O206 2.021 . S
Co196 O208 2.137 . S
Co196 O209 2.244 . S
O197 Co196 2.216 . S
O197 C204 1.247 . S
O198 Co196 2.091 . S
O198 C204 1.261 . S
C199 O208 1.247 . S
C199 O209 1.272 . S
O200 Co196 2.004 . S
O200 C205 1.259 . S
Co201 O202 2.061 . S
Co201 O207 2.052 . S
Co201 O209 2.135 . S
O202 Co201 2.061 . S
O202 C205 1.235 . S
C203 O206 1.238 . S
C203 O207 1.241 . S
C204 O197 1.247 . S
C204 O198 1.261 . S
C205 O200 1.259 . S
C205 O202 1.235 . S
O206 Co196 2.021 . S
O206 C203 1.238 . S
O207 Co201 2.052 . S
O207 C203 1.241 . S
O208 Co196 2.137 . S
O208 C199 1.247 . S
O209 Co196 2.244 . S
O209 C199 1.272 . S
O209 Co201 2.135 . S
Co210 O211 2.216 . S
Co210 O212 2.091 . S
Co210 O214 2.004 . S
Co210 O220 2.021 . S
Co210 O222 2.137 . S
Co210 O223 2.244 . S
O211 Co210 2.216 . S
O211 C218 1.247 1_455 S
O212 Co210 2.091 . S
O212 C218 1.261 1_455 S
C213 O222 1.247 . S
C213 O223 1.272 . S
O214 Co210 2.004 . S
O214 C219 1.259 . S
Co215 O216 2.061 . S
Co215 O221 2.052 . S
Co215 O223 2.135 . S
O216 Co215 2.061 . S
O216 C219 1.235 . S
C217 O220 1.238 . S
C217 O221 1.241 . S
C218 O211 1.247 1_655 S
C218 O212 1.261 1_655 S
C219 O214 1.259 . S
C219 O216 1.235 . S
O220 Co210 2.021 . S
O220 C217 1.238 . S
O221 Co215 2.052 . S
O221 C217 1.241 . S
O222 Co210 2.137 . S
O222 C213 1.247 . S
O223 Co210 2.244 . S
O223 C213 1.272 . S
O223 Co215 2.135 . S
Co224 O225 2.216 . S
Co224 O226 2.091 . S
Co224 O228 2.004 . S
Co224 O234 2.021 . S
Co224 O236 2.137 . S
Co224 O237 2.244 . S
O225 Co224 2.216 . S
O225 C232 1.247 . S
O226 Co224 2.091 . S
O226 C232 1.261 . S
C227 O236 1.247 . S
C227 O237 1.272 . S
O228 Co224 2.004 . S
O228 C233 1.259 . S
Co229 O230 2.061 . S
Co229 O235 2.052 . S
Co229 O237 2.135 . S
O230 Co229 2.061 . S
O230 C233 1.235 . S
C231 O234 1.238 . S
C231 O235 1.241 . S
C232 O225 1.247 . S
C232 O226 1.261 . S
C233 O228 1.259 . S
C233 O230 1.235 . S
O234 Co224 2.021 . S
O234 C231 1.238 . S
O235 Co229 2.052 . S
O235 C231 1.241 . S
O236 Co224 2.137 . S
O236 C227 1.247 . S
O237 Co224 2.244 . S
O237 C227 1.272 . S
O237 Co229 2.135 . S
Co238 O239 2.216 . S
Co238 O240 2.091 . S
Co238 O242 2.004 . S
Co238 O248 2.021 . S
Co238 O250 2.137 . S
Co238 O251 2.244 . S
O239 Co238 2.216 . S
O239 C246 1.247 . S
O240 Co238 2.091 . S
O240 C246 1.261 . S
C241 O250 1.247 . S
C241 O251 1.272 . S
O242 Co238 2.004 . S
O242 C247 1.259 . S
Co243 O244 2.061 . S
Co243 O249 2.052 . S
Co243 O251 2.135 . S
O244 Co243 2.061 . S
O244 C247 1.235 . S
C245 O248 1.238 . S
C245 O249 1.241 . S
C246 O239 1.247 . S
C246 O240 1.261 . S
C247 O242 1.259 . S
C247 O244 1.235 . S
O248 Co238 2.021 . S
O248 C245 1.238 . S
O249 Co243 2.052 . S
O249 C245 1.241 . S
O250 Co238 2.137 . S
O250 C241 1.247 . S
O251 Co238 2.244 . S
O251 C241 1.272 . S
O251 Co243 2.135 . S
Co252 O253 2.216 . S
Co252 O254 2.091 . S
Co252 O256 2.004 . S
Co252 O262 2.021 . S
Co252 O264 2.137 . S
Co252 O265 2.244 . S
O253 Co252 2.216 . S
O253 C260 1.247 . S
O254 Co252 2.091 . S
O254 C260 1.261 . S
C255 O264 1.247 . S
C255 O265 1.272 . S
O256 Co252 2.004 . S
O256 C261 1.259 . S
Co257 O258 2.061 . S
Co257 O263 2.052 . S
Co257 O265 2.135 . S
O258 Co257 2.061 . S
O258 C261 1.235 . S
C259 O262 1.238 . S
C259 O263 1.241 . S
C260 O253 1.247 . S
C260 O254 1.261 . S
C261 O256 1.259 . S
C261 O258 1.235 . S
O262 Co252 2.021 . S
O262 C259 1.238 . S
O263 Co257 2.052 . S
O263 C259 1.241 . S
O264 Co252 2.137 . S
O264 C255 1.247 . S
O265 Co252 2.244 . S
O265 C255 1.272 . S
O265 Co257 2.135 . S
Co266 O267 2.216 . S
Co266 O268 2.091 . S
Co266 O270 2.004 . S
Co266 O276 2.021 . S
Co266 O278 2.137 . S
Co266 O279 2.244 . S
O267 Co266 2.216 . S
O267 C274 1.247 . S
O268 Co266 2.091 . S
O268 C274 1.261 . S
C269 O278 1.247 . S
C269 O279 1.272 . S
O270 Co266 2.004 . S
O270 C275 1.259 . S
Co271 O272 2.061 . S
Co271 O277 2.052 . S
Co271 O279 2.135 . S
O272 Co271 2.061 . S
O272 C275 1.235 . S
C273 O276 1.238 . S
C273 O277 1.241 . S
C274 O267 1.247 . S
C274 O268 1.261 . S
C275 O270 1.259 . S
C275 O272 1.235 . S
O276 Co266 2.021 . S
O276 C273 1.238 . S
O277 Co271 2.052 . S
O277 C273 1.241 . S
O278 Co266 2.137 . S
O278 C269 1.247 . S
O279 Co266 2.244 . S
O279 C269 1.272 . S
O279 Co271 2.135 . S
Co280 O281 2.216 . S
Co280 O282 2.091 . S
Co280 O284 2.004 . S
Co280 O290 2.021 . S
Co280 O292 2.137 . S
Co280 O293 2.244 . S
O281 Co280 2.216 . S
O281 C288 1.247 . S
O282 Co280 2.091 . S
O282 C288 1.261 . S
C283 O292 1.247 . S
C283 O293 1.272 . S
O284 Co280 2.004 . S
O284 C289 1.259 . S
Co285 O286 2.061 . S
Co285 O291 2.052 . S
Co285 O293 2.135 . S
O286 Co285 2.061 . S
O286 C289 1.235 . S
C287 O290 1.238 . S
C287 O291 1.241 . S
C288 O281 1.247 . S
C288 O282 1.261 . S
C289 O284 1.259 . S
C289 O286 1.235 . S
O290 Co280 2.021 . S
O290 C287 1.238 . S
O291 Co285 2.052 . S
O291 C287 1.241 . S
O292 Co280 2.137 . S
O292 C283 1.247 . S
O293 Co280 2.244 . S
O293 C283 1.272 . S
O293 Co285 2.135 . S
Co294 O295 2.216 . S
Co294 O296 2.091 . S
Co294 O298 2.004 . S
Co294 O304 2.021 . S
Co294 O306 2.137 . S
Co294 O307 2.244 . S
O295 Co294 2.216 . S
O295 C302 1.247 . S
O296 Co294 2.091 . S
O296 C302 1.261 . S
C297 O306 1.247 . S
C297 O307 1.272 . S
O298 Co294 2.004 . S
O298 C303 1.259 . S
Co299 O300 2.061 . S
Co299 O305 2.052 . S
Co299 O307 2.135 . S
O300 Co299 2.061 . S
O300 C303 1.235 . S
C301 O304 1.238 . S
C301 O305 1.241 . S
C302 O295 1.247 . S
C302 O296 1.261 . S
C303 O298 1.259 . S
C303 O300 1.235 . S
O304 Co294 2.021 . S
O304 C301 1.238 . S
O305 Co299 2.052 . S
O305 C301 1.241 . S
O306 Co294 2.137 . S
O306 C297 1.247 . S
O307 Co294 2.244 . S
O307 C297 1.272 . S
O307 Co299 2.135 . S
Co308 O309 2.216 . S
Co308 O310 2.091 . S
Co308 O312 2.004 . S
Co308 O318 2.021 . S
Co308 O320 2.137 . S
Co308 O321 2.244 . S
O309 Co308 2.216 . S
O309 C316 1.247 . S
O310 Co308 2.091 . S
O310 C316 1.261 . S
C311 O320 1.247 . S
C311 O321 1.272 . S
O312 Co308 2.004 . S
O312 C317 1.259 . S
Co313 O314 2.061 . S
Co313 O319 2.052 . S
Co313 O321 2.135 . S
O314 Co313 2.061 . S
O314 C317 1.235 . S
C315 O318 1.238 . S
C315 O319 1.241 . S
C316 O309 1.247 . S
C316 O310 1.261 . S
C317 O312 1.259 . S
C317 O314 1.235 . S
O318 Co308 2.021 . S
O318 C315 1.238 . S
O319 Co313 2.052 . S
O319 C315 1.241 . S
O320 Co308 2.137 . S
O320 C311 1.247 . S
O321 Co308 2.244 . S
O321 C311 1.272 . S
O321 Co313 2.135 . S
Co322 O323 2.216 . S
Co322 O324 2.091 . S
Co322 O326 2.004 . S
Co322 O332 2.021 . S
Co322 O334 2.137 . S
Co322 O335 2.244 . S
O323 Co322 2.216 . S
O323 C330 1.247 . S
O324 Co322 2.091 . S
O324 C330 1.261 . S
C325 O334 1.247 . S
C325 O335 1.272 . S
O326 Co322 2.004 . S
O326 C331 1.259 . S
Co327 O328 2.061 . S
Co327 O333 2.052 . S
Co327 O335 2.135 . S
O328 Co327 2.061 . S
O328 C331 1.235 . S
C329 O332 1.238 . S
C329 O333 1.241 . S
C330 O323 1.247 . S
C330 O324 1.261 . S
C331 O326 1.259 . S
C331 O328 1.235 . S
O332 Co322 2.021 . S
O332 C329 1.238 . S
O333 Co327 2.052 . S
O333 C329 1.241 . S
O334 Co322 2.137 . S
O334 C325 1.247 . S
O335 Co322 2.244 . S
O335 C325 1.272 . S
O335 Co327 2.135 . S
C121 C3 1.190 . S
C17 C163 1.190 . S
C31 C135 1.190 . S
C45 C149 1.190 . S
C59 C9 1.149 . S
C23 C73 1.149 . S
C87 C37 1.149 . S
C51 C101 1.149 . S
C65 C115 1.194 . S
C93 C129 1.194 . S
C143 C107 1.194 . S
C79 C157 1.194 . S
C283 C171 1.247 . S
C185 C325 1.247 . S
C199 C297 1.247 . S
C311 C213 1.247 . S
C233 C177 1.075 . S
C191 C247 1.075 . S
C205 C261 1.075 . S
C275 C219 1.075 . S
C289 C227 1.129 . S
C255 C303 1.129 . S
C269 C317 1.129 . S
C331 C241 1.129 . S
C315 C7 1.293 . S
C301 C21 1.293 1_554 S
C329 C35 1.293 . S
C49 C287 1.293 1_554 S
C63 C190 1.404 . S
C176 C77 1.404 . S
C218 C91 1.404 . S
C204 C105 1.404 . S
C119 C259 1.330 . S
C231 C133 1.330 1_565 S
C245 C147 1.330 1_545 S
C273 C161 1.330 . S
C148 C175 1.462 . S
C134 C189 1.462 . S
C203 C162 1.462 . S
C120 C217 1.462 . S
C232 C22 1.490 . S
C246 C8 1.490 1_655 S
C260 C50 1.490 1_455 S
C274 C36 1.490 . S
C288 C92 1.439 . S
C302 C64 1.439 1_565 S
C78 C316 1.439 1_565 S
C330 C106 1.439 . S
