# Generated by pormake.
# Topology ukd, (4)-cn, num edge types: 1
# Building blocks:
#     Node 0, Type 0, BuildingBlock: CEKHIL_clean_sbu_0, # of connection points: 4
#     Node 1, Type 0, BuildingBlock: CEKHIL_clean_sbu_0, # of connection points: 4
#     Node 2, Type 0, BuildingBlock: CEKHIL_clean_sbu_0, # of connection points: 4
#     Node 3, Type 0, BuildingBlock: CEKHIL_clean_sbu_0, # of connection points: 4
#     Node 4, Type 0, BuildingBlock: CEKHIL_clean_sbu_0, # of connection points: 4
#     Node 5, Type 0, BuildingBlock: CEKHIL_clean_sbu_0, # of connection points: 4
#     Node 6, Type 0, BuildingBlock: CEKHIL_clean_sbu_0, # of connection points: 4
#     Node 7, Type 0, BuildingBlock: CEKHIL_clean_sbu_0, # of connection points: 4
#     Node 8, Type 0, BuildingBlock: CEKHIL_clean_sbu_0, # of connection points: 4
#     Node 9, Type 0, BuildingBlock: CEKHIL_clean_sbu_0, # of connection points: 4
#     Node 10, Type 0, BuildingBlock: CEKHIL_clean_sbu_0, # of connection points: 4
#     Node 11, Type 0, BuildingBlock: CEKHIL_clean_sbu_0, # of connection points: 4
#     Node 12, Type 0, BuildingBlock: CEKHIL_clean_sbu_0, # of connection points: 4
#     Node 13, Type 0, BuildingBlock: CEKHIL_clean_sbu_0, # of connection points: 4
#     Node 14, Type 0, BuildingBlock: CEKHIL_clean_sbu_0, # of connection points: 4
#     Node 15, Type 0, BuildingBlock: CEKHIL_clean_sbu_0, # of connection points: 4
#     Node 16, Type 0, BuildingBlock: CEKHIL_clean_sbu_0, # of connection points: 4
#     Node 17, Type 0, BuildingBlock: CEKHIL_clean_sbu_0, # of connection points: 4
#     Node 18, Type 0, BuildingBlock: CEKHIL_clean_sbu_0, # of connection points: 4
#     Node 19, Type 0, BuildingBlock: CEKHIL_clean_sbu_0, # of connection points: 4
#     Node 20, Type 0, BuildingBlock: CEKHIL_clean_sbu_0, # of connection points: 4
#     Node 21, Type 0, BuildingBlock: CEKHIL_clean_sbu_0, # of connection points: 4
#     Node 22, Type 0, BuildingBlock: CEKHIL_clean_sbu_0, # of connection points: 4
#     Node 23, Type 0, BuildingBlock: CEKHIL_clean_sbu_0, # of connection points: 4
#     Node 24, Type 0, BuildingBlock: CEKHIL_clean_sbu_0, # of connection points: 4
#     Node 25, Type 0, BuildingBlock: CEKHIL_clean_sbu_0, # of connection points: 4
#     Node 26, Type 0, BuildingBlock: CEKHIL_clean_sbu_0, # of connection points: 4
#     Node 27, Type 0, BuildingBlock: CEKHIL_clean_sbu_0, # of connection points: 4
#     Node 28, Type 0, BuildingBlock: CEKHIL_clean_sbu_0, # of connection points: 4
#     Node 29, Type 0, BuildingBlock: CEKHIL_clean_sbu_0, # of connection points: 4
#     Node 30, Type 0, BuildingBlock: CEKHIL_clean_sbu_0, # of connection points: 4
#     Node 31, Type 0, BuildingBlock: CEKHIL_clean_sbu_0, # of connection points: 4
#     Edge 32, Type (0, 0), BuildingBlock: XUDNAN_clean_linker_2, # of connection points: 2
#     Edge 33, Type (0, 0), BuildingBlock: XUDNAN_clean_linker_2, # of connection points: 2
#     Edge 34, Type (0, 0), BuildingBlock: XUDNAN_clean_linker_2, # of connection points: 2
#     Edge 35, Type (0, 0), BuildingBlock: XUDNAN_clean_linker_2, # of connection points: 2
#     Edge 36, Type (0, 0), BuildingBlock: XUDNAN_clean_linker_2, # of connection points: 2
#     Edge 37, Type (0, 0), BuildingBlock: XUDNAN_clean_linker_2, # of connection points: 2
#     Edge 38, Type (0, 0), BuildingBlock: XUDNAN_clean_linker_2, # of connection points: 2
#     Edge 39, Type (0, 0), BuildingBlock: XUDNAN_clean_linker_2, # of connection points: 2
#     Edge 40, Type (0, 0), BuildingBlock: XUDNAN_clean_linker_2, # of connection points: 2
#     Edge 41, Type (0, 0), BuildingBlock: XUDNAN_clean_linker_2, # of connection points: 2
#     Edge 42, Type (0, 0), BuildingBlock: XUDNAN_clean_linker_2, # of connection points: 2
#     Edge 43, Type (0, 0), BuildingBlock: XUDNAN_clean_linker_2, # of connection points: 2
#     Edge 44, Type (0, 0), BuildingBlock: XUDNAN_clean_linker_2, # of connection points: 2
#     Edge 45, Type (0, 0), BuildingBlock: XUDNAN_clean_linker_2, # of connection points: 2
#     Edge 46, Type (0, 0), BuildingBlock: XUDNAN_clean_linker_2, # of connection points: 2
#     Edge 47, Type (0, 0), BuildingBlock: XUDNAN_clean_linker_2, # of connection points: 2
#     Edge 48, Type (0, 0), BuildingBlock: XUDNAN_clean_linker_2, # of connection points: 2
#     Edge 49, Type (0, 0), BuildingBlock: XUDNAN_clean_linker_2, # of connection points: 2
#     Edge 50, Type (0, 0), BuildingBlock: XUDNAN_clean_linker_2, # of connection points: 2
#     Edge 51, Type (0, 0), BuildingBlock: XUDNAN_clean_linker_2, # of connection points: 2
#     Edge 52, Type (0, 0), BuildingBlock: XUDNAN_clean_linker_2, # of connection points: 2
#     Edge 53, Type (0, 0), BuildingBlock: XUDNAN_clean_linker_2, # of connection points: 2
#     Edge 54, Type (0, 0), BuildingBlock: XUDNAN_clean_linker_2, # of connection points: 2
#     Edge 55, Type (0, 0), BuildingBlock: XUDNAN_clean_linker_2, # of connection points: 2
#     Edge 56, Type (0, 0), BuildingBlock: XUDNAN_clean_linker_2, # of connection points: 2
#     Edge 57, Type (0, 0), BuildingBlock: XUDNAN_clean_linker_2, # of connection points: 2
#     Edge 58, Type (0, 0), BuildingBlock: XUDNAN_clean_linker_2, # of connection points: 2
#     Edge 59, Type (0, 0), BuildingBlock: XUDNAN_clean_linker_2, # of connection points: 2
#     Edge 60, Type (0, 0), BuildingBlock: XUDNAN_clean_linker_2, # of connection points: 2
#     Edge 61, Type (0, 0), BuildingBlock: XUDNAN_clean_linker_2, # of connection points: 2
#     Edge 62, Type (0, 0), BuildingBlock: XUDNAN_clean_linker_2, # of connection points: 2
#     Edge 63, Type (0, 0), BuildingBlock: XUDNAN_clean_linker_2, # of connection points: 2
#     Edge 64, Type (0, 0), BuildingBlock: XUDNAN_clean_linker_2, # of connection points: 2
#     Edge 65, Type (0, 0), BuildingBlock: XUDNAN_clean_linker_2, # of connection points: 2
#     Edge 66, Type (0, 0), BuildingBlock: XUDNAN_clean_linker_2, # of connection points: 2
#     Edge 67, Type (0, 0), BuildingBlock: XUDNAN_clean_linker_2, # of connection points: 2
#     Edge 68, Type (0, 0), BuildingBlock: XUDNAN_clean_linker_2, # of connection points: 2
#     Edge 69, Type (0, 0), BuildingBlock: XUDNAN_clean_linker_2, # of connection points: 2
#     Edge 70, Type (0, 0), BuildingBlock: XUDNAN_clean_linker_2, # of connection points: 2
#     Edge 71, Type (0, 0), BuildingBlock: XUDNAN_clean_linker_2, # of connection points: 2
#     Edge 72, Type (0, 0), BuildingBlock: XUDNAN_clean_linker_2, # of connection points: 2
#     Edge 73, Type (0, 0), BuildingBlock: XUDNAN_clean_linker_2, # of connection points: 2
#     Edge 74, Type (0, 0), BuildingBlock: XUDNAN_clean_linker_2, # of connection points: 2
#     Edge 75, Type (0, 0), BuildingBlock: XUDNAN_clean_linker_2, # of connection points: 2
#     Edge 76, Type (0, 0), BuildingBlock: XUDNAN_clean_linker_2, # of connection points: 2
#     Edge 77, Type (0, 0), BuildingBlock: XUDNAN_clean_linker_2, # of connection points: 2
#     Edge 78, Type (0, 0), BuildingBlock: XUDNAN_clean_linker_2, # of connection points: 2
#     Edge 79, Type (0, 0), BuildingBlock: XUDNAN_clean_linker_2, # of connection points: 2
#     Edge 80, Type (0, 0), BuildingBlock: XUDNAN_clean_linker_2, # of connection points: 2
#     Edge 81, Type (0, 0), BuildingBlock: XUDNAN_clean_linker_2, # of connection points: 2
#     Edge 82, Type (0, 0), BuildingBlock: XUDNAN_clean_linker_2, # of connection points: 2
#     Edge 83, Type (0, 0), BuildingBlock: XUDNAN_clean_linker_2, # of connection points: 2
#     Edge 84, Type (0, 0), BuildingBlock: XUDNAN_clean_linker_2, # of connection points: 2
#     Edge 85, Type (0, 0), BuildingBlock: XUDNAN_clean_linker_2, # of connection points: 2
#     Edge 86, Type (0, 0), BuildingBlock: XUDNAN_clean_linker_2, # of connection points: 2
#     Edge 87, Type (0, 0), BuildingBlock: XUDNAN_clean_linker_2, # of connection points: 2
#     Edge 88, Type (0, 0), BuildingBlock: XUDNAN_clean_linker_2, # of connection points: 2
#     Edge 89, Type (0, 0), BuildingBlock: XUDNAN_clean_linker_2, # of connection points: 2
#     Edge 90, Type (0, 0), BuildingBlock: XUDNAN_clean_linker_2, # of connection points: 2
#     Edge 91, Type (0, 0), BuildingBlock: XUDNAN_clean_linker_2, # of connection points: 2
#     Edge 92, Type (0, 0), BuildingBlock: XUDNAN_clean_linker_2, # of connection points: 2
#     Edge 93, Type (0, 0), BuildingBlock: XUDNAN_clean_linker_2, # of connection points: 2
#     Edge 94, Type (0, 0), BuildingBlock: XUDNAN_clean_linker_2, # of connection points: 2
#     Edge 95, Type (0, 0), BuildingBlock: XUDNAN_clean_linker_2, # of connection points: 2
# Relax obj value: 0.048
# Max RMSD: 0.075
# Mean RMSD: 0.075
data_MOF--net-ukd--node1-CEKHIL_clean_sbu_0--edge1-XUDNAN_clean_linker_2
_symmetry_space_group_name_H-M    P1
_symmetry_Int_Tables_number       1
_symmetry_cell_setting            triclinic
loop_
_symmetry_equiv_pos_as_xyz
'x, y, z'
_cell_length_a     45.001241
_cell_length_b     44.997215
_cell_length_c     70.025928
_cell_angle_alpha  89.996392
_cell_angle_beta   89.998739
_cell_angle_gamma 90.009061
loop_
_atom_site_label
_atom_site_type_symbol
_atom_site_fract_x
_atom_site_fract_y
_atom_site_fract_z
_atom_type_partial_charge
Co0 Co 0.22294 0.1725 0.34024 0.0
O1 O 0.24522 0.13553 0.33946 0.0
O2 O 0.24541 0.16747 0.36347 0.0
C3 C 0.23406 0.18814 0.31031 0.0
O4 O 0.20517 0.21307 0.34645 0.0
Co5 Co 0.16967 0.1861 0.31374 0.0
O6 O 0.17083 0.22668 0.32492 0.0
C7 C 0.16126 0.14504 0.34612 0.0
C8 C 0.25487 0.14254 0.35638 0.0
C9 C 0.18675 0.23215 0.33955 0.0
O10 O 0.18761 0.15137 0.35217 0.0
O11 O 0.15097 0.15478 0.33027 0.0
O12 O 0.25291 0.19212 0.32417 0.0
O13 O 0.21072 0.17286 0.31463 0.0
Co14 Co 0.08259 0.97103 0.59058 0.0
O15 O 0.11892 0.98958 0.58247 0.0
O16 O 0.1028 0.98959 0.61223 0.0
C17 C 0.05431 0.99008 0.56671 0.0
O18 O 0.04537 0.95496 0.60392 0.0
Co19 Co 0.052 0.925 0.56423 0.0
O20 O 0.01845 0.92927 0.58245 0.0
C21 C 0.10501 0.90733 0.58618 0.0
C22 C 0.12283 0.99811 0.59995 0.0
C23 C 0.02163 0.94078 0.59896 0.0
O24 O 0.1041 0.93219 0.59528 0.0
O25 O 0.08795 0.9013 0.57206 0.0
O26 O 0.05996 0.0055 0.58195 0.0
O27 O 0.06794 0.96485 0.56563 0.0
Co28 Co 0.28646 0.8322 0.83812 0.0
O29 O 0.26716 0.86877 0.83151 0.0
O30 O 0.26469 0.84821 0.86007 0.0
C31 C 0.27101 0.80694 0.81201 0.0
O32 O 0.30254 0.79318 0.84941 0.0
Co33 Co 0.3368 0.80876 0.81245 0.0
O34 O 0.32695 0.77077 0.82534 0.0
C35 C 0.35032 0.85647 0.8398 0.0
C36 C 0.25636 0.86948 0.84863 0.0
C37 C 0.31483 0.77011 0.84177 0.0
O38 O 0.32346 0.85447 0.84602 0.0
O39 O 0.35992 0.84112 0.82569 0.0
O40 O 0.25408 0.80994 0.82688 0.0
O41 O 0.29567 0.82184 0.81252 0.0
Co42 Co 0.42311 0.03219 0.09055 0.0
O43 O 0.38742 0.01212 0.08272 0.0
O44 O 0.40531 0.01119 0.11209 0.0
C45 C 0.45118 0.01659 0.06567 0.0
O46 O 0.46032 0.04887 0.1036 0.0
Co47 Co 0.44913 0.0823 0.06561 0.0
O48 O 0.48386 0.07911 0.08287 0.0
C49 C 0.39784 0.0956 0.09016 0.0
C50 C 0.38512 1.0023 0.10006 0.0
C51 C 0.48259 0.06519 0.09866 0.0
O52 O 0.39964 0.06911 0.09701 0.0
O53 O 0.41449 0.10485 0.07657 0.0
O54 O 0.44696 0.99988 0.08054 0.0
O55 O 0.43609 0.04111 0.06542 0.0
Co56 Co 0.21098 0.82566 0.1679 0.0
O57 O 0.2321 0.8633 0.16955 0.0
O58 O 0.23373 0.83233 0.14503 0.0
C59 C 0.22167 0.80917 0.1977 0.0
O60 O 0.19476 0.78492 0.16069 0.0
Co61 Co 0.15778 0.80797 0.19362 0.0
O62 O 0.16112 0.76799 0.18166 0.0
C63 C 0.14999 0.85329 0.16356 0.0
C64 C 0.24224 0.85727 0.15259 0.0
C65 C 0.17742 0.76438 0.16697 0.0
O66 O 0.17525 0.84626 0.15615 0.0
O67 O 0.1407 0.84285 0.17949 0.0
O68 O 0.24112 0.80635 0.18406 0.0
O69 O 0.19794 0.82363 0.19325 0.0
Co70 Co 0.43292 0.96483 0.41871 0.0
O71 O 0.39656 0.98442 0.42602 0.0
O72 O 0.41956 0.99135 0.39849 0.0
C73 C 0.45624 0.97208 0.44717 0.0
O74 O 0.47137 0.94985 0.40642 0.0
Co75 Co 0.45577 0.90865 0.44007 0.0
O76 O 0.49268 0.91525 0.42512 0.0
C77 C 0.40471 0.90408 0.41372 0.0
C78 C 0.39751 0.99805 0.40971 0.0
C79 C 0.49309 0.93229 0.41057 0.0
O80 O 0.40971 0.93045 0.40726 0.0
O81 O 0.41855 0.89283 0.42796 0.0
O82 O 0.45591 0.99313 0.43444 0.0
O83 O 0.44114 0.94876 0.44276 0.0
Co84 Co 0.29151 0.1821 0.66431 0.0
O85 O 0.27109 0.14436 0.66752 0.0
O86 O 0.27573 0.16864 0.64021 0.0
C87 C 0.27162 0.20552 0.68988 0.0
O88 O 0.30856 0.22156 0.65507 0.0
Co89 Co 0.33629 0.20721 0.69361 0.0
O90 O 0.33489 0.24421 0.67807 0.0
C91 C 0.35455 0.158 0.66844 0.0
C92 C 0.26544 0.1457 0.64933 0.0
C93 C 0.32312 0.24408 0.66151 0.0
O94 O 0.33036 0.16106 0.65881 0.0
O95 O 0.35985 0.17234 0.68386 0.0
O96 O 0.25688 0.20326 0.67398 0.0
O97 O 0.2965 0.19115 0.69046 0.0
Co98 Co 0.07541 0.04368 0.91233 0.0
O99 O 0.11256 0.02188 0.91528 0.0
O100 O 0.08271 0.01935 0.89025 0.0
C101 C 0.05697 0.03513 0.94201 0.0
O102 O 0.03556 0.06045 0.90363 0.0
Co103 Co 0.05808 0.09904 0.93586 0.0
O104 O 0.01859 0.09601 0.92319 0.0
C105 C 0.10206 0.10522 0.90481 0.0
C106 C 0.10715 0.01088 0.89845 0.0
C107 C 0.01536 0.07903 0.90878 0.0
O108 O 0.0971 0.07808 0.89981 0.0
O109 O 0.09049 0.11694 0.91973 0.0
O110 O 0.05464 0.015 0.92875 0.0
O111 O 0.0723 0.05834 0.9374 0.0
Co112 Co 0.79548 0.82791 0.66652 0.0
O113 O 0.77668 0.86398 0.67484 0.0
O114 O 0.77663 0.84816 0.64501 0.0
C115 C 0.77678 0.79914 0.69023 0.0
O116 O 0.81152 0.79088 0.65296 0.0
Co117 Co 0.84186 0.7972 0.69248 0.0
O118 O 0.83702 0.76363 0.67434 0.0
C119 C 0.85911 0.85074 0.67089 0.0
C120 C 0.76792 0.86792 0.6574 0.0
C121 C 0.82537 0.76693 0.65787 0.0
O122 O 0.83416 0.84985 0.66187 0.0
O123 O 0.86536 0.83334 0.6848 0.0
O124 O 0.76125 0.80492 0.67506 0.0
O125 O 0.80191 0.81297 0.69139 0.0
Co126 Co 0.92652 0.04769 0.41936 0.0
O127 O 0.88837 0.03042 0.42476 0.0
O128 O 0.91492 0.02013 0.39908 0.0
C129 C 0.94522 0.04067 0.44911 0.0
O130 O 0.96776 0.06057 0.40986 0.0
Co131 Co 0.94598 0.10456 0.44113 0.0
O132 O 0.98586 0.09233 0.43186 0.0
C133 C 0.90376 0.10997 0.40906 0.0
C134 C 0.89108 0.01521 0.40916 0.0
C135 C 0.98925 0.07568 0.4173 0.0
O136 O 0.90713 0.08208 0.40537 0.0
O137 O 0.91563 0.12268 0.42355 0.0
O138 O 0.94554 0.01923 0.43669 0.0
O139 O 0.93137 0.06438 0.44374 0.0
Co140 Co 0.71533 0.17438 0.16476 0.0
O141 O 0.73458 0.13822 0.17272 0.0
O142 O 0.73518 0.1554 0.1432 0.0
C143 C 0.73231 0.20271 0.18916 0.0
O144 O 0.69932 0.21173 0.15139 0.0
Co145 Co 0.6672 0.20401 0.18976 0.0
O146 O 0.67415 0.23876 0.17297 0.0
C147 C 0.65078 0.15259 0.16582 0.0
C148 C 0.74372 0.13512 0.15527 0.0
C149 C 0.68602 0.23586 0.15657 0.0
O150 O 0.67743 0.15182 0.15912 0.0
O151 O 0.64247 0.17098 0.17871 0.0
O152 O 0.74865 0.19763 0.17423 0.0
O153 O 0.70736 0.18841 0.18974 0.0
Co154 Co 0.57973 0.96381 0.91736 0.0
O155 O 0.61681 0.982 0.9244 0.0
O156 O 0.59295 0.99111 0.89745 0.0
C157 C 0.55792 0.97074 0.94626 0.0
O158 O 0.5402 0.95004 0.90582 0.0
Co159 Co 0.55787 0.90713 0.93873 0.0
O160 O 0.51965 0.9168 0.926 0.0
C161 C 0.60611 0.90257 0.91032 0.0
C162 C 0.61555 0.99668 0.90851 0.0
C163 C 0.51832 0.9337 0.91142 0.0
O164 O 0.6015 0.92951 0.90482 0.0
O165 O 0.59307 0.89064 0.92464 0.0
O166 O 0.55818 0.99209 0.93376 0.0
O167 O 0.57246 0.94724 0.9414 0.0
Co168 Co 0.78185 0.18052 0.8417 0.0
O169 O 0.75997 0.14357 0.84039 0.0
O170 O 0.76698 0.16984 0.86671 0.0
C171 C 0.76071 0.20205 0.81577 0.0
O172 O 0.80153 0.22003 0.84858 0.0
Co173 Co 0.82506 0.19908 0.80936 0.0
O174 O 0.82259 0.23859 0.82199 0.0
C175 C 0.84393 0.15379 0.83727 0.0
C176 C 0.75523 0.14666 0.85856 0.0
C177 C 0.8142 0.24124 0.83929 0.0
O178 O 0.82021 0.15859 0.84706 0.0
O179 O 0.84888 0.16575 0.82098 0.0
O180 O 0.74729 0.2021 0.83219 0.0
O181 O 0.78487 0.18651 0.81508 0.0
Co182 Co 0.58201 0.03637 0.59451 0.0
O183 O 0.61879 0.01436 0.59098 0.0
O184 O 0.59449 0.01881 0.6183 0.0
C185 C 0.55822 0.0187 0.56841 0.0
O186 O 0.54348 0.05502 0.60425 0.0
Co187 Co 0.55953 0.08409 0.56687 0.0
O188 O 0.52203 0.08328 0.58182 0.0
C189 C 0.60751 0.09955 0.59368 0.0
C190 C 0.61717 0.00815 0.60909 0.0
C191 C 0.52168 0.071 0.5982 0.0
O192 O 0.60498 0.07347 0.601 0.0
O193 O 0.5924 0.10792 0.57914 0.0
O194 O 0.55941 1.00343 0.58415 0.0
O195 O 0.57355 0.04312 0.56828 0.0
Co196 Co 0.72395 0.83316 0.34045 0.0
O197 O 0.74581 0.87024 0.33929 0.0
O198 O 0.73915 0.84351 0.36543 0.0
C199 C 0.74471 0.81223 0.31425 0.0
O200 O 0.70459 0.79337 0.34726 0.0
Co201 Co 0.68044 0.81427 0.30833 0.0
O202 O 0.68391 0.77457 0.32063 0.0
C203 C 0.66183 0.8598 0.33621 0.0
C204 C 0.75084 0.86681 0.35741 0.0
C205 C 0.69242 0.77192 0.33791 0.0
O206 O 0.68557 0.85497 0.34601 0.0
O207 O 0.65683 0.8477 0.31996 0.0
O208 O 0.75846 0.81188 0.33056 0.0
O209 O 0.72044 0.82756 0.31386 0.0
Co210 Co 0.925 0.96751 0.08637 0.0
O211 O 0.88742 0.98857 0.08395 0.0
O212 O 0.91255 0.98272 0.11083 0.0
C213 C 0.94801 0.98792 0.06073 0.0
O214 O 0.96442 0.9497 0.09497 0.0
Co215 Co 0.94861 0.92308 0.05651 0.0
O216 O 0.98596 0.92301 0.07175 0.0
C217 C 0.90017 0.90458 0.08219 0.0
C218 C 0.88944 0.99359 0.1022 0.0
C219 C 0.98644 0.93463 0.08833 0.0
O220 O 0.90358 0.92879 0.09174 0.0
O221 O 0.91411 0.89923 0.06662 0.0
O222 O 0.94632 1.00213 0.07685 0.0
O223 O 0.93332 0.96319 0.05998 0.0
Co224 Co 0.71317 0.67314 0.8369 0.0
O225 O 0.73475 0.63571 0.8354 0.0
O226 O 0.73655 0.66736 0.85955 0.0
C227 C 0.72339 0.68939 0.80704 0.0
O228 O 0.69677 0.71387 0.84397 0.0
Co229 Co 0.65911 0.68945 0.81197 0.0
O230 O 0.66249 0.72993 0.82319 0.0
C231 C 0.65101 0.64768 0.84406 0.0
C232 C 0.74542 0.64246 0.85212 0.0
C233 C 0.67907 0.73409 0.83769 0.0
O234 O 0.67804 0.6526 0.84935 0.0
O235 O 0.63997 0.65859 0.82874 0.0
O236 O 0.74284 0.69238 0.82064 0.0
O237 O 0.69972 0.67461 0.81147 0.0
Co238 Co 0.58094 0.46716 0.09228 0.0
O239 O 0.61736 0.49009 0.0909 0.0
O240 O 0.59246 0.48089 0.11745 0.0
C241 C 0.55791 0.4894 0.06728 0.0
O242 O 0.54198 0.44637 0.09943 0.0
Co243 Co 0.56096 0.42582 0.05924 0.0
O244 O 0.52194 0.42792 0.0725 0.0
C245 C 0.6083 0.40576 0.08547 0.0
C246 C 0.61485 0.49392 0.1092 0.0
C247 C 0.52013 0.43484 0.09011 0.0
O248 O 0.60399 0.42886 0.09602 0.0
O249 O 0.59506 0.40171 0.06948 0.0
O250 O 0.55824 0.50185 0.08402 0.0
O251 O 0.57379 0.46559 0.06575 0.0
Co252 Co 0.79454 0.33436 0.33422 0.0
O253 O 0.77117 0.37053 0.33361 0.0
O254 O 0.77394 0.33985 0.35821 0.0
C255 C 0.78093 0.31758 0.30493 0.0
O256 O 0.81461 0.29461 0.34016 0.0
Co257 Co 0.845 0.32192 0.30495 0.0
O258 O 0.84244 0.28066 0.31504 0.0
C259 C 0.85445 0.36553 0.33589 0.0
C260 C 0.76307 0.36411 0.35093 0.0
C261 C 0.83038 0.27525 0.33114 0.0
O262 O 0.83032 0.35703 0.34421 0.0
O263 O 0.86247 0.35633 0.31937 0.0
O264 O 0.76363 0.3132 0.31955 0.0
O265 O 0.80404 0.33364 0.30827 0.0
Co266 Co 0.92646 0.53571 0.5897 0.0
O267 O 0.8886 0.51516 0.58786 0.0
O268 O 0.91427 0.52146 0.61449 0.0
C269 C 0.94835 0.51396 0.56421 0.0
O270 O 0.96647 0.55317 0.59759 0.0
Co271 Co 0.9502 0.57829 0.55858 0.0
O272 O 0.98802 0.57748 0.57326 0.0
C273 C 0.90271 0.59882 0.58443 0.0
C274 C 0.89099 0.51043 0.60611 0.0
C275 C 0.98873 0.56698 0.59016 0.0
O276 O 0.90582 0.57505 0.59451 0.0
O277 O 0.91644 0.60307 0.56865 0.0
O278 O 0.94692 0.50031 0.58054 0.0
O279 O 0.93413 0.5389 0.56328 0.0
Co280 Co 0.71203 0.33296 0.66771 0.0
O281 O 0.72964 0.37056 0.67435 0.0
O282 O 0.74004 0.34552 0.64805 0.0
C283 C 0.71749 0.31189 0.69699 0.0
O284 O 0.69914 0.29289 0.6566 0.0
Co285 Co 0.65412 0.31214 0.6879 0.0
O286 O 0.66456 0.2733 0.67622 0.0
C287 C 0.6505 0.35739 0.65747 0.0
C288 C 0.74479 0.36882 0.65865 0.0
C289 C 0.68241 0.27129 0.66215 0.0
O290 O 0.67839 0.35379 0.6539 0.0
O291 O 0.63725 0.34461 0.67143 0.0
O292 O 0.73953 0.31222 0.685 0.0
O293 O 0.69423 0.32641 0.69157 0.0
Co294 Co 0.9262 0.46845 0.91576 0.0
O295 O 0.88977 0.48862 0.92147 0.0
O296 O 0.91222 0.49057 0.89343 0.0
C297 C 0.95048 0.48298 0.94237 0.0
O298 O 0.9655 0.45142 0.9056 0.0
Co299 Co 0.94557 0.41694 0.94184 0.0
O300 O 0.98481 0.42581 0.93027 0.0
C301 C 0.90017 0.4053 0.91275 0.0
C302 C 0.89046 0.49936 0.90433 0.0
C303 C 0.9874 0.43826 0.91401 0.0
O304 O 0.90363 0.43223 0.90702 0.0
O305 O 0.9138 0.39479 0.92732 0.0
O306 O 0.94848 0.50016 0.92756 0.0
O307 O 0.93476 0.4588 0.94156 0.0
Co308 Co 0.78991 0.67896 0.16649 0.0
O309 O 0.7712 0.64269 0.17492 0.0
O310 O 0.76187 0.6646 0.14735 0.0
C311 C 0.78481 0.7032 0.19479 0.0
O312 O 0.80411 0.71709 0.15323 0.0
Co313 Co 0.84775 0.70213 0.1859 0.0
O314 O 0.83961 0.73881 0.17106 0.0
C315 C 0.85051 0.65139 0.15921 0.0
C316 C 0.75646 0.64272 0.15901 0.0
C317 C 0.82188 0.73893 0.15686 0.0
O318 O 0.82326 0.65551 0.15423 0.0
O319 O 0.8634 0.66582 0.17261 0.0
O320 O 0.76283 0.70241 0.18274 0.0
O321 O 0.80777 0.6879 0.18991 0.0
Co322 Co 0.58332 0.54125 0.41205 0.0
O323 O 0.61871 0.5207 0.42009 0.0
O324 O 0.59985 0.51814 0.39101 0.0
C325 C 0.5552 0.52863 0.43756 0.0
O326 O 0.54621 0.55805 0.39894 0.0
Co327 Co 0.55922 0.59395 0.4355 0.0
O328 O 0.52287 0.58772 0.41996 0.0
C329 C 0.60918 0.60439 0.40921 0.0
C330 C 0.62016 0.50954 0.40305 0.0
C331 C 0.52357 0.57369 0.40415 0.0
O332 O 0.60735 0.57704 0.40392 0.0
O333 O 0.59303 0.61531 0.42254 0.0
O334 O 0.5588 0.51047 0.42334 0.0
O335 O 0.5712 0.55256 0.43697 0.0
Co336 Co 0.29023 0.32544 0.16591 0.0
O337 O 0.27117 0.36167 0.17373 0.0
O338 O 0.26741 0.34221 0.14486 0.0
C339 C 0.27675 0.29836 0.19172 0.0
O340 O 0.3054 0.2874 0.15316 0.0
Co341 Co 0.34242 0.3004 0.18929 0.0
O342 O 0.33233 0.26332 0.17537 0.0
C343 C 0.35419 0.34919 0.1624 0.0
C344 C 0.25967 0.36302 0.15678 0.0
C345 C 0.31872 0.26401 0.15944 0.0
O346 O 0.32669 0.34803 0.15737 0.0
O347 O 0.36491 0.33299 0.17577 0.0
O348 O 0.25869 0.3024 0.17752 0.0
O349 O 0.3013 0.31347 0.19095 0.0
Co350 Co 0.42227 0.54322 0.92179 0.0
O351 O 0.38577 0.52236 0.9272 0.0
O352 O 0.4116 0.51698 0.90062 0.0
C353 C 0.44304 0.5352 0.95092 0.0
O354 O 0.46189 0.55973 0.91174 0.0
Co355 Co 0.44052 0.59905 0.94521 0.0
O356 O 0.48033 0.58992 0.93449 0.0
C357 C 0.3949 0.60472 0.91501 0.0
C358 C 0.38876 0.50916 0.91086 0.0
C359 C 0.48329 0.575 0.91914 0.0
O360 O 0.39945 0.57751 0.90987 0.0
O361 O 0.4076 0.61657 0.9295 0.0
O362 O 0.44438 0.51481 0.9378 0.0
O363 O 0.42745 0.55824 0.94652 0.0
Co364 Co 0.21757 0.67787 0.66375 0.0
O365 O 0.23744 0.64169 0.67105 0.0
O366 O 0.2439 0.66448 0.64341 0.0
C367 C 0.22548 0.70107 0.69212 0.0
O368 O 0.20203 0.7162 0.65154 0.0
Co369 Co 0.16195 0.70057 0.68578 0.0
O370 O 0.16851 0.73764 0.67099 0.0
C371 C 0.15686 0.64938 0.65951 0.0
C372 C 0.25096 0.64264 0.65472 0.0
C373 C 0.18484 0.73802 0.65612 0.0
O374 O 0.18304 0.65441 0.65273 0.0
O375 O 0.14598 0.66328 0.67385 0.0
O376 O 0.24613 0.70107 0.67913 0.0
O377 O 0.20209 0.68594 0.68792 0.0
Co378 Co 0.08425 0.46308 0.41854 0.0
O379 O 0.12157 0.4809 0.42568 0.0
O380 O 0.0977 0.49055 0.39882 0.0
C381 C 0.06197 0.46922 0.44735 0.0
O382 O 0.04464 0.45007 0.40678 0.0
Co383 Co 0.06135 0.40594 0.43882 0.0
O384 O 0.02361 0.41524 0.42545 0.0
C385 C 0.1091 0.40141 0.41009 0.0
C386 C 0.12054 0.49561 0.40976 0.0
C387 C 0.0226 0.43311 0.41133 0.0
O388 O 0.10583 0.429 0.40563 0.0
O389 O 0.0952 0.38872 0.42379 0.0
O390 O 0.06282 0.49102 0.43518 0.0
O391 O 0.0765 0.44576 0.44237 0.0
Co392 Co 0.28898 0.67661 0.34129 0.0
O393 O 0.26769 0.63914 0.33923 0.0
O394 O 0.27456 0.66427 0.36601 0.0
C395 C 0.26771 0.69937 0.31595 0.0
O396 O 0.30716 0.71613 0.34948 0.0
Co397 Co 0.33191 0.70037 0.31034 0.0
O398 O 0.33182 0.73789 0.32539 0.0
C399 C 0.35137 0.65158 0.33553 0.0
C400 C 0.26309 0.64131 0.35751 0.0
C401 C 0.32131 0.73836 0.34228 0.0
O402 O 0.32794 0.65515 0.34587 0.0
O403 O 0.35568 0.6655 0.31982 0.0
O404 O 0.254 0.69795 0.33227 0.0
O405 O 0.29235 0.68468 0.31493 0.0
Co406 Co 0.07839 0.53317 0.09078 0.0
O407 O 0.1154 0.5113 0.08927 0.0
O408 O 0.08452 0.5107 0.1139 0.0
C409 C 0.06175 0.52223 0.0611 0.0
O410 O 0.03807 0.55098 0.09748 0.0
Co411 Co 0.06427 0.58645 0.06403 0.0
O412 O 0.02409 0.58507 0.07582 0.0
C413 C 0.10813 0.59341 0.09488 0.0
C414 C 0.10927 0.50161 0.1063 0.0
C415 C 0.01891 0.56935 0.0906 0.0
O416 O 0.09978 0.56859 0.10234 0.0
O417 O 0.09904 0.60268 0.07862 0.0
O418 O 0.0583 0.50313 0.07487 0.0
O419 O 0.07714 0.54545 0.06537 0.0
Co420 Co 0.21832 0.33336 0.83777 0.0
O421 O 0.24199 0.36952 0.8376 0.0
O422 O 0.24044 0.33724 0.86134 0.0
C423 C 0.2297 0.31804 0.80778 0.0
O424 O 0.19833 0.29326 0.84321 0.0
Co425 Co 0.16568 0.32303 0.80984 0.0
O426 O 0.16962 0.28097 0.81815 0.0
C427 C 0.15744 0.3627 0.84306 0.0
C428 C 0.25098 0.36199 0.85455 0.0
C429 C 0.18236 0.27444 0.83385 0.0
O430 O 0.18345 0.35554 0.84935 0.0
O431 O 0.14729 0.35369 0.82698 0.0
O432 O 0.24802 0.31296 0.82179 0.0
O433 O 0.20703 0.33423 0.81207 0.0
Co434 Co 0.42783 0.47172 0.58471 0.0
O435 O 0.39147 0.49471 0.58456 0.0
O436 O 0.42273 0.49196 0.60888 0.0
C437 C 0.44343 0.48599 0.55528 0.0
O438 O 0.46782 0.45193 0.59012 0.0
Co439 Co 0.44028 0.42193 0.55499 0.0
O440 O 0.48174 0.42487 0.56465 0.0
C441 C 0.39774 0.4113 0.58647 0.0
C442 C 0.39821 0.50267 0.60184 0.0
C443 C 0.48721 0.43661 0.58084 0.0
O444 O 0.40579 0.43558 0.59478 0.0
O445 O 0.40681 0.40359 0.56985 0.0
O446 O 0.44829 0.50302 0.56997 0.0
O447 O 0.42784 0.46259 0.55871 0.0
H448 H 0.09515 0.37182 0.37753 0.0
H449 H 0.16629 0.38683 0.41798 0.0
H450 H 0.19655 0.34805 0.40201 0.0
H451 H 0.1006 0.29536 0.37685 0.0
H452 H 0.09248 0.29057 0.35183 0.0
H453 H 0.07849 0.32253 0.36435 0.0
H454 H 0.10378 0.35742 0.33982 0.0
H455 H 0.11766 0.3255 0.32707 0.0
H456 H 0.14304 0.35376 0.33525 0.0
H457 H 0.21601 0.30351 0.38435 0.0
H458 H 0.22413 0.25759 0.36579 0.0
H459 H 0.14021 0.27154 0.33656 0.0
C460 C 0.11755 0.36759 0.3825 0.0
C461 C 0.12891 0.38262 0.39859 0.0
C462 C 0.1577 0.37589 0.40535 0.0
C463 C 0.17491 0.3539 0.39641 0.0
C464 C 0.16289 0.3389 0.38076 0.0
C465 C 0.13495 0.34565 0.37374 0.0
C466 C 0.12615 0.32454 0.35784 0.0
C467 C 0.09776 0.30723 0.36304 0.0
C468 C 0.12245 0.34131 0.33887 0.0
C469 C 0.15308 0.30433 0.35738 0.0
C470 C 0.17411 0.31313 0.3706 0.0
C471 C 0.19993 0.29671 0.37373 0.0
C472 C 0.20428 0.27056 0.36316 0.0
C473 C 0.18294 0.26098 0.3496 0.0
C474 C 0.15722 0.27845 0.34656 0.0
H475 H 0.96479 0.92136 0.59227 0.0
H476 H 0.02471 0.94669 0.63804 0.0
H477 H 0.98712 0.93099 0.66174 0.0
H478 H 0.89489 0.94335 0.61673 0.0
H479 H 0.87476 0.9123 0.60687 0.0
H480 H 0.90497 0.92873 0.59366 0.0
H481 H 0.93054 0.87727 0.59138 0.0
H482 H 0.90057 0.86073 0.60463 0.0
H483 H 0.93826 0.85682 0.61297 0.0
H484 H 0.94586 0.90598 0.68025 0.0
H485 H 0.90321 0.87658 0.69204 0.0
H486 H 0.86926 0.8697 0.63426 0.0
C487 C 0.96986 0.9242 0.60727 0.0
C488 C 0.9978 0.9353 0.61326 0.0
C489 C 1.00345 0.93848 0.63306 0.0
C490 C 0.98222 0.92957 0.64664 0.0
C491 C 0.95525 0.91796 0.64021 0.0
C492 C 0.94885 0.91569 0.62098 0.0
C493 C 0.91895 0.90099 0.61773 0.0
C494 C 0.8971 0.92264 0.60818 0.0
C495 C 0.9223 0.87225 0.60599 0.0
C496 C 0.90989 0.8944 0.63813 0.0
C497 C 0.93107 0.90445 0.6509 0.0
C498 C 0.92885 0.89859 0.6704 0.0
C499 C 0.9046 0.8818 0.67697 0.0
C500 C 0.88269 0.87123 0.66411 0.0
C501 C 0.88521 0.87814 0.64449 0.0
H502 H 0.38106 0.66352 0.92102 0.0
H503 H 0.36515 0.59036 0.88185 0.0
H504 H 0.33683 0.62418 0.86084 0.0
H505 H 0.30876 0.70165 0.91397 0.0
H506 H 0.32553 0.73796 0.91544 0.0
H507 H 0.34129 0.70728 0.92855 0.0
H508 H 0.39222 0.71656 0.91235 0.0
H509 H 0.37668 0.7472 0.89925 0.0
H510 H 0.3945 0.71717 0.88664 0.0
H511 H 0.31588 0.66696 0.84228 0.0
H512 H 0.30397 0.71534 0.8275 0.0
H513 H 0.33218 0.76075 0.87896 0.0
C514 C 0.37116 0.65433 0.90823 0.0
C515 C 0.37535 0.62409 0.90317 0.0
C516 C 0.36222 0.6133 0.88614 0.0
C517 C 0.346 0.63236 0.87413 0.0
C518 C 0.34283 0.66211 0.8794 0.0
C519 C 0.35489 0.673 0.89611 0.0
C520 C 0.35025 0.70631 0.89782 0.0
C521 C 0.33026 0.71373 0.91496 0.0
C522 C 0.38019 0.72277 0.89908 0.0
C523 C 0.33455 0.71272 0.87912 0.0
C524 C 0.33022 0.68682 0.86881 0.0
C525 C 0.31859 0.68725 0.85038 0.0
C526 C 0.31189 0.71482 0.84211 0.0
C527 C 0.31664 0.74165 0.85225 0.0
C528 C 0.32744 0.74051 0.87116 0.0
H529 H 0.49222 0.11128 0.12287 0.0
H530 H 0.53056 0.02904 0.1024 0.0
H531 H 0.57744 0.04051 0.11956 0.0
H532 H 0.55502 0.15481 0.1175 0.0
H533 H 0.54966 0.17696 0.13866 0.0
H534 H 0.51816 0.16056 0.12688 0.0
H535 H 0.50276 0.13436 0.15831 0.0
H536 H 0.53407 0.15099 0.17028 0.0
H537 H 0.52925 0.11122 0.17064 0.0
H538 H 0.62213 0.06468 0.13514 0.0
H539 H 0.65965 0.0973 0.15033 0.0
H540 H 0.59115 0.16262 0.16198 0.0
C541 C 0.5102 0.09527 0.12262 0.0
C542 C 0.50782 0.06898 0.11177 0.0
C543 C 0.53194 0.04892 0.11108 0.0
C544 C 0.55861 0.05536 0.12068 0.0
C545 C 0.56058 0.08185 0.13098 0.0
C546 C 0.53681 0.10126 0.13227 0.0
C547 C 0.54512 0.12899 0.14332 0.0
C548 C 0.54179 0.15697 0.13084 0.0
C549 C 0.52671 0.13153 0.16173 0.0
C550 C 0.57746 0.12255 0.14766 0.0
C551 C 0.58603 0.09531 0.14039 0.0
C552 C 0.6155 0.08574 0.14126 0.0
C553 C 0.63668 0.10445 0.14983 0.0
C554 C 0.62823 0.13226 0.1576 0.0
C555 C 0.59815 0.14117 0.1566 0.0
H556 H 0.13957 0.71684 0.17293 0.0
H557 H 0.2104 0.74806 0.13584 0.0
H558 H 0.20452 0.70357 0.1158 0.0
H559 H 0.15711 0.63593 0.16851 0.0
H560 H 0.1184 0.62563 0.16852 0.0
H561 H 0.13052 0.65808 0.18148 0.0
H562 H 0.09267 0.69036 0.16285 0.0
H563 H 0.08045 0.65809 0.1499 0.0
H564 H 0.09347 0.69033 0.1371 0.0
H565 H 0.18673 0.66002 0.09731 0.0
H566 H 0.15843 0.61949 0.08195 0.0
H567 H 0.10055 0.61431 0.13126 0.0
C568 C 0.15429 0.71404 0.16083 0.0
C569 C 0.17548 0.73609 0.15603 0.0
C570 C 0.19399 0.73162 0.13989 0.0
C571 C 0.19093 0.7063 0.12842 0.0
C572 C 0.16948 0.68534 0.13333 0.0
C573 C 0.1516 0.68875 0.14922 0.0
C574 C 0.12881 0.66393 0.15046 0.0
C575 C 0.13403 0.64476 0.1683 0.0
C576 C 0.09698 0.67643 0.15004 0.0
C577 C 0.13592 0.64676 0.13237 0.0
C578 C 0.15969 0.65939 0.12282 0.0
C579 C 0.16861 0.64946 0.10487 0.0
C580 C 0.15245 0.62646 0.09625 0.0
C581 C 0.12789 0.61342 0.10566 0.0
C582 C 0.11994 0.62324 0.12412 0.0
H583 H 0.54722 0.90598 0.41719 0.0
H584 H 0.49668 0.95228 0.37356 0.0
H585 H 0.53689 0.94282 0.35033 0.0
H586 H 0.62162 0.93116 0.40104 0.0
H587 H 0.63854 0.89597 0.40678 0.0
H588 H 0.60717 0.90905 0.4204 0.0
H589 H 0.57894 0.86022 0.41293 0.0
H590 H 0.6101 0.84705 0.39926 0.0
H591 H 0.57383 0.8491 0.38842 0.0
H592 H 0.5794 0.92236 0.33087 0.0
H593 H 0.62242 0.89545 0.31728 0.0
H594 H 0.64659 0.8649 0.37391 0.0
C595 C 0.54479 0.91463 0.40285 0.0
C596 C 0.51869 0.92989 0.39724 0.0
C597 C 0.51647 0.94072 0.37828 0.0
C598 C 0.5392 0.93541 0.36496 0.0
C599 C 0.56427 0.91967 0.37087 0.0
C600 C 0.56739 0.90983 0.38945 0.0
C601 C 0.59587 0.89226 0.39196 0.0
C602 C 0.61706 0.90806 0.40587 0.0
C603 C 0.58927 0.86027 0.39852 0.0
C604 C 0.60786 0.89291 0.37175 0.0
C605 C 0.58933 0.90887 0.35979 0.0
C606 C 0.5944 0.91037 0.34017 0.0
C607 C 0.61882 0.89496 0.33257 0.0
C608 C 0.63809 0.87851 0.34458 0.0
C609 C 0.63272 0.87796 0.36446 0.0
H610 H 0.35822 0.29368 0.66751 0.0
H611 H 0.29729 0.25398 0.62669 0.0
H612 H 0.30576 0.29586 0.60474 0.0
H613 H 0.33867 0.37212 0.65735 0.0
H614 H 0.37651 0.38465 0.65988 0.0
H615 H 0.36356 0.35308 0.67338 0.0
H616 H 0.40629 0.32107 0.65954 0.0
H617 H 0.41937 0.3525 0.64608 0.0
H618 H 0.41059 0.31823 0.63401 0.0
H619 H 0.32438 0.33865 0.58584 0.0
H620 H 0.35233 0.37987 0.57108 0.0
H621 H 0.40032 0.39355 0.62404 0.0
C622 C 0.34626 0.29401 0.6541 0.0
C623 C 0.32701 0.27041 0.6489 0.0
C624 C 0.31214 0.27165 0.63107 0.0
C625 C 0.3167 0.29546 0.6185 0.0
C626 C 0.33605 0.31808 0.62395 0.0
C627 C 0.35054 0.31769 0.64133 0.0
C628 C 0.37164 0.34391 0.64311 0.0
C629 C 0.36201 0.36467 0.6594 0.0
C630 C 0.40388 0.33328 0.64584 0.0
C631 C 0.36735 0.35858 0.62379 0.0
C632 C 0.3465 0.34338 0.61306 0.0
C633 C 0.34034 0.35107 0.5942 0.0
C634 C 0.35632 0.37448 0.58594 0.0
C635 C 0.37807 0.39014 0.59653 0.0
C636 C 0.38319 0.38249 0.61583 0.0
H637 H 0.96422 0.11116 0.91611 0.0
H638 H 0.00615 0.05537 0.87325 0.0
H639 H 0.96467 0.06523 0.85123 0.0
H640 H 0.88671 0.08971 0.9043 0.0
H641 H 0.87273 0.12664 0.90861 0.0
H642 H 0.90453 0.11326 0.92169 0.0
H643 H 0.93503 0.15877 0.91032 0.0
H644 H 0.90343 0.17222 0.89717 0.0
H645 H 0.93829 0.16618 0.8851 0.0
H646 H 0.92227 0.08624 0.83234 0.0
H647 H 0.87955 0.11388 0.81892 0.0
H648 H 0.86288 0.15325 0.87439 0.0
C649 C 0.96445 0.10059 0.90222 0.0
C650 C 0.9886 0.08248 0.89648 0.0
C651 C 0.98797 0.06921 0.87811 0.0
C652 C 0.96447 0.0747 0.86543 0.0
C653 C 0.94139 0.09313 0.87138 0.0
C654 C 0.94092 0.10552 0.88944 0.0
C655 C 0.91392 0.12533 0.89201 0.0
C656 C 0.89325 0.11299 0.90758 0.0
C657 C 0.92324 0.15753 0.8964 0.0
C658 C 0.89982 0.12282 0.87239 0.0
C659 C 0.91607 0.10416 0.8607 0.0
C660 C 0.90897 0.10036 0.84147 0.0
C661 C 0.88476 0.11618 0.83395 0.0
C662 C 0.86765 0.13519 0.84571 0.0
C663 C 0.87508 0.13818 0.86523 0.0
H664 H 0.8899 0.61175 0.62186 0.0
H665 H 0.87476 0.64244 0.56395 0.0
H666 H 0.84865 0.68665 0.57645 0.0
H667 H 0.81986 0.64018 0.64303 0.0
H668 H 0.83806 0.65093 0.6649 0.0
H669 H 0.85179 0.61975 0.65136 0.0
H670 H 0.90389 0.6442 0.64998 0.0
H671 H 0.89031 0.67544 0.66341 0.0
H672 H 0.90762 0.68126 0.6405 0.0
H673 H 0.82764 0.72968 0.59536 0.0
H674 H 0.81546 0.76857 0.61906 0.0
H675 H 0.84599 0.71045 0.6645 0.0
C676 C 0.88037 0.62736 0.6118 0.0
C677 C 0.88408 0.62345 0.59191 0.0
C678 C 0.87207 0.64488 0.57924 0.0
C679 C 0.85711 0.67004 0.58621 0.0
C680 C 0.85444 0.6736 0.6059 0.0
C681 C 0.86575 0.65282 0.61852 0.0
C682 C 0.86238 0.66319 0.639 0.0
C683 C 0.84179 0.64227 0.65023 0.0
C684 C 0.89286 0.66621 0.64879 0.0
C685 C 0.848 0.69327 0.63591 0.0
C686 C 0.84316 0.69871 0.61675 0.0
C687 C 0.8311 0.72554 0.61042 0.0
C688 C 0.82422 0.74752 0.624 0.0
C689 C 0.82975 0.74271 0.64368 0.0
C690 C 0.84141 0.71495 0.6496 0.0
H691 H 0.1038 0.12778 0.33841 0.0
H692 H 0.17221 0.12263 0.38204 0.0
H693 H 0.13665 0.09773 0.40361 0.0
H694 H 0.04575 0.14623 0.36853 0.0
H695 H 0.01782 0.12484 0.35622 0.0
H696 H 0.04959 0.13855 0.34338 0.0
H697 H 0.06208 0.08502 0.33236 0.0
H698 H 0.03028 0.0711 0.34522 0.0
H699 H 0.06669 0.05609 0.34992 0.0
H700 H 0.09214 0.07982 0.42184 0.0
H701 H 0.04229 0.06982 0.43518 0.0
H702 H 1.00293 0.08474 0.37956 0.0
C703 C 0.11161 0.12089 0.35235 0.0
C704 C 0.14099 0.1272 0.35845 0.0
C705 C 0.14997 0.11802 0.37693 0.0
C706 C 0.1299 0.10376 0.38929 0.0
C707 C 0.10099 0.0985 0.38293 0.0
C708 C 0.09192 0.10657 0.36483 0.0
C709 C 0.05904 0.10043 0.36196 0.0
C710 C 0.04207 0.12922 0.35725 0.0
C711 C 0.05425 0.07675 0.34645 0.0
C712 C 0.05073 0.08861 0.38152 0.0
C713 C 0.07536 0.08742 0.39334 0.0
C714 C 0.07287 0.07999 0.4126 0.0
C715 C 0.0445 0.07433 0.42005 0.0
C716 C 0.01896 0.07586 0.40829 0.0
C717 C 0.02223 0.08239 0.38868 0.0
H718 H 0.62124 0.39184 0.12273 0.0
H719 H 0.63769 0.36372 0.06443 0.0
H720 H 0.66441 0.31951 0.07635 0.0
H721 H 0.69162 0.3635 0.14386 0.0
H722 H 0.67319 0.3517 0.16543 0.0
H723 H 0.65936 0.38328 0.15232 0.0
H724 H 0.60752 0.3584 0.15021 0.0
H725 H 0.6212 0.32676 0.1632 0.0
H726 H 0.60431 0.3217 0.14008 0.0
H727 H 0.68534 0.27578 0.09469 0.0
H728 H 0.69704 0.23587 0.11782 0.0
H729 H 0.66553 0.29209 0.16396 0.0
C730 C 0.63123 0.37686 0.11247 0.0
C731 C 0.62765 0.38146 0.09264 0.0
C732 C 0.64028 0.36077 0.07969 0.0
C733 C 0.65559 0.33561 0.08633 0.0
C734 C 0.65804 0.33131 0.10598 0.0
C735 C 0.64624 0.35141 0.11886 0.0
C736 C 0.6494 0.34025 0.13918 0.0
C737 C 0.6696 0.36091 0.15088 0.0
C738 C 0.61879 0.33655 0.14871 0.0
C739 C 0.66412 0.31046 0.13568 0.0
C740 C 0.66938 0.30585 0.11648 0.0
C741 C 0.68161 0.2793 0.10979 0.0
C742 C 0.6882 0.25673 0.12304 0.0
C743 C 0.68222 0.2607 0.14274 0.0
C744 C 0.67047 0.28822 0.14903 0.0
H745 H 0.50988 0.9101 0.87595 0.0
H746 H 0.46422 0.95276 0.92294 0.0
H747 H 0.41587 0.94302 0.90729 0.0
H748 H 0.45626 0.93185 0.83696 0.0
H749 H 0.45971 0.89619 0.82545 0.0
H750 H 0.49074 0.91158 0.83839 0.0
H751 H 0.49355 0.86378 0.85891 0.0
H752 H 0.46243 0.84838 0.8462 0.0
H753 H 0.46108 0.85165 0.87184 0.0
H754 H 0.37275 0.92342 0.88879 0.0
H755 H 0.3376 0.89462 0.86922 0.0
H756 H 0.41092 0.8625 0.83453 0.0
C757 C 0.4897 0.91843 0.88245 0.0
C758 C 0.49057 0.93297 0.90031 0.0
C759 C 0.46382 0.94227 0.90901 0.0
C760 C 0.43634 0.93679 0.90024 0.0
C761 C 0.43603 0.9217 0.88284 0.0
C762 C 0.462 0.91269 0.87399 0.0
C763 C 0.45532 0.89382 0.85653 0.0
C764 C 0.46615 0.90929 0.83825 0.0
C765 C 0.4689 0.86256 0.8585 0.0
C766 C 0.42163 0.8928 0.85734 0.0
C767 C 0.41099 0.90947 0.87243 0.0
C768 C 0.3808 0.91062 0.87677 0.0
C769 C 0.36098 0.89405 0.86556 0.0
C770 C 0.37134 0.87623 0.85024 0.0
C771 C 0.40212 0.87609 0.84597 0.0
H772 H 0.88684 0.34579 0.91865 0.0
H773 H 0.87058 0.41947 0.87988 0.0
H774 H 0.8433 0.38607 0.8584 0.0
H775 H 0.8999 0.29175 0.8838 0.0
H776 H 0.8812 0.26184 0.896 0.0
H777 H 0.89717 0.2919 0.90949 0.0
H778 H 0.84621 0.30201 0.92541 0.0
H779 H 0.83008 0.27185 0.91201 0.0
H780 H 0.81404 0.30849 0.91065 0.0
H781 H 0.82341 0.34426 0.83913 0.0
H782 H 0.80898 0.29659 0.8243 0.0
H783 H 0.83486 0.2498 0.87582 0.0
C784 C 0.87707 0.35504 0.90583 0.0
C785 C 0.88102 0.3854 0.90104 0.0
C786 C 0.86799 0.39642 0.88399 0.0
C787 C 0.85236 0.3776 0.87164 0.0
C788 C 0.84947 0.34778 0.87656 0.0
C789 C 0.86107 0.33656 0.89335 0.0
C790 C 0.85571 0.30329 0.89475 0.0
C791 C 0.88525 0.2862 0.89608 0.0
C792 C 0.83529 0.29599 0.91171 0.0
C793 C 0.84017 0.29753 0.87587 0.0
C794 C 0.83679 0.32359 0.86564 0.0
C795 C 0.82534 0.32379 0.84715 0.0
C796 C 0.8173 0.29664 0.83882 0.0
C797 C 0.82039 0.26969 0.84903 0.0
C798 C 0.83157 0.27022 0.8679 0.0
H799 H 0.37004 0.14866 0.63102 0.0
H800 H 0.39341 0.12428 0.68901 0.0
H801 H 0.43602 0.0952 0.67688 0.0
H802 H 0.39369 0.07896 0.60732 0.0
H803 H 0.40858 0.09832 0.58692 0.0
H804 H 0.37763 0.11379 0.59988 0.0
H805 H 0.4071 0.16262 0.60491 0.0
H806 H 0.43813 0.1473 0.59205 0.0
H807 H 0.44326 0.16121 0.61596 0.0
H808 H 0.47775 0.0714 0.65873 0.0
H809 H 0.5174 0.0572 0.63624 0.0
H810 H 0.46874 0.09933 0.59001 0.0
C811 C 0.3837 0.13654 0.64109 0.0
C812 C 0.37821 0.13832 0.66094 0.0
C813 C 0.39714 0.12301 0.67375 0.0
C814 C 0.42132 0.10637 0.66698 0.0
C815 C 0.4265 0.10551 0.64736 0.0
C816 C 0.40834 0.1203 0.63459 0.0
C817 C 0.42049 0.11815 0.61442 0.0
C818 C 0.3988 0.1013 0.60137 0.0
C819 C 0.42768 0.14916 0.60637 0.0
C820 C 0.44856 0.10027 0.6179 0.0
C821 C 0.45131 0.09278 0.63695 0.0
C822 C 0.47575 0.07699 0.64376 0.0
C823 C 0.49819 0.06899 0.63082 0.0
C824 C 0.49634 0.07711 0.61129 0.0
C825 C 0.4709 0.09268 0.6048 0.0
H826 H 0.67051 0.76219 0.37401 0.0
H827 H 0.70081 0.71692 0.32296 0.0
H828 H 0.68802 0.66852 0.33748 0.0
H829 H 0.69226 0.70441 0.40925 0.0
H830 H 0.6591 0.70957 0.42329 0.0
H831 H 0.6746 0.74034 0.41015 0.0
H832 H 0.62414 0.74819 0.39307 0.0
H833 H 0.60853 0.71751 0.40613 0.0
H834 H 0.60736 0.71761 0.3804 0.0
H835 H 0.66919 0.62551 0.35647 0.0
H836 H 0.64187 0.591 0.37732 0.0
H837 H 0.62061 0.66403 0.41556 0.0
C838 C 0.67514 0.74198 0.36615 0.0
C839 C 0.6871 0.74314 0.3475 0.0
C840 C 0.69189 0.71639 0.33733 0.0
C841 C 0.68481 0.68883 0.34549 0.0
C842 C 0.67259 0.68838 0.36378 0.0
C843 C 0.66755 0.71423 0.37396 0.0
C844 C 0.65124 0.70769 0.39247 0.0
C845 C 0.67045 0.716 0.40982 0.0
C846 C 0.62103 0.72369 0.39304 0.0
C847 C 0.64742 0.67425 0.39091 0.0
C848 C 0.66044 0.66355 0.37443 0.0
C849 C 0.65907 0.63359 0.36949 0.0
C850 C 0.64346 0.61412 0.38149 0.0
C851 C 0.62896 0.62464 0.39816 0.0
C852 C 0.63152 0.65512 0.40302 0.0
H853 H 0.13264 0.8515 0.12591 0.0
H854 H 0.12046 0.89983 0.17887 0.0
H855 H 0.08071 0.92967 0.16397 0.0
H856 H 0.11403 0.91419 0.09252 0.0
H857 H 0.09425 0.88996 0.07644 0.0
H858 H 0.12515 0.87588 0.0901 0.0
H859 H 0.09147 0.83434 0.10376 0.0
H860 H 0.06044 0.84841 0.09032 0.0
H861 H 0.05752 0.84428 0.11585 0.0
H862 H 0.03906 0.9502 0.14496 0.0
H863 H 0.99756 0.96026 0.12303 0.0
H864 H 0.03473 0.89771 0.08224 0.0
C865 C 0.12226 0.86912 0.13407 0.0
C866 C 0.12989 0.87385 0.15341 0.0
C867 C 0.11509 0.8962 0.16396 0.0
C868 C 0.09254 0.91325 0.15561 0.0
C869 C 0.08483 0.90753 0.13671 0.0
C870 C 0.09922 0.88608 0.126 0.0
C871 C 0.08439 0.88236 0.10665 0.0
C872 C 0.10573 0.89113 0.09047 0.0
C873 C 0.07277 0.85046 0.10401 0.0
C874 C 0.05902 0.90445 0.10842 0.0
C875 C 0.06002 0.91898 0.12579 0.0
C876 C 0.03822 0.93925 0.13121 0.0
C877 C 0.01462 0.94472 0.11865 0.0
C878 C 0.01275 0.92986 0.10083 0.0
C879 C 0.03557 0.9097 0.09563 0.0
H880 H 0.63979 0.78049 0.83205 0.0
H881 H 0.71267 0.75168 0.86828 0.0
H882 H 0.70594 0.79603 0.88837 0.0
H883 H 0.65471 0.86202 0.83627 0.0
H884 H 0.61566 0.87091 0.83671 0.0
H885 H 0.62857 0.83894 0.82359 0.0
H886 H 0.59239 0.80531 0.84262 0.0
H887 H 0.5794 0.8371 0.85573 0.0
H888 H 0.5939 0.80533 0.86835 0.0
H889 H 0.6871 0.83904 0.90713 0.0
H890 H 0.65768 0.87857 0.92281 0.0
H891 H 0.59838 0.88145 0.87417 0.0
C892 C 0.65479 0.78382 0.84395 0.0
C893 C 0.6768 0.76246 0.8485 0.0
C894 C 0.69565 0.76759 0.8644 0.0
C895 C 0.6921 0.79284 0.8759 0.0
C896 C 0.66981 0.81306 0.87127 0.0
C897 C 0.65161 0.80902 0.85558 0.0
C898 C 0.62792 0.83299 0.85462 0.0
C899 C 0.63197 0.85237 0.83674 0.0
C900 C 0.59656 0.81936 0.85539 0.0
C901 C 0.63492 0.85038 0.87263 0.0
C902 C 0.6594 0.83865 0.8819 0.0
C903 C 0.66842 0.84894 0.89977 0.0
C904 C 0.65168 0.87138 0.90856 0.0
C905 C 0.62647 0.88348 0.89939 0.0
C906 C 0.6183 0.87326 0.88107 0.0
H907 H 0.51168 0.41053 0.12581 0.0
H908 H 0.46467 0.44397 0.07623 0.0
H909 H 0.41681 0.43019 0.09105 0.0
H910 H 0.46695 0.34693 0.13143 0.0
H911 H 0.46771 0.34676 0.15717 0.0
H912 H 0.49805 0.36291 0.14402 0.0
H913 H 0.49107 0.41248 0.16227 0.0
H914 H 0.46068 0.39646 0.17551 0.0
H915 H 0.45522 0.43035 0.16226 0.0
H916 H 0.37448 0.41044 0.11012 0.0
H917 H 0.34039 0.38279 0.13102 0.0
H918 H 0.41445 0.35902 0.16781 0.0
C919 C 0.49121 0.41556 0.11835 0.0
C920 C 0.49174 0.42871 0.1 0.0
C921 C 0.46465 0.4341 0.09034 0.0
C922 C 0.43738 0.42645 0.09868 0.0
C923 C 0.43755 0.41307 0.11662 0.0
C924 C 0.46371 0.40745 0.12632 0.0
C925 C 0.4577 0.39021 0.14458 0.0
C926 C 0.47354 0.35991 0.14427 0.0
C927 C 0.4667 0.40847 0.1622 0.0
C928 C 0.42418 0.38662 0.14341 0.0
C929 C 0.41303 0.40046 0.12733 0.0
C930 C 0.38292 0.39964 0.12282 0.0
C931 C 0.36368 0.38381 0.13484 0.0
C932 C 0.37457 0.36859 0.15115 0.0
C933 C 0.40527 0.37047 0.15556 0.0
H934 H 0.88234 0.16663 0.41455 0.0
H935 H 0.88859 0.09667 0.37204 0.0
H936 H 0.86675 0.13033 0.34799 0.0
H937 H 0.81141 0.19839 0.39696 0.0
H938 H 0.82278 0.23589 0.40231 0.0
H939 H 0.83643 0.20544 0.41655 0.0
H940 H 0.89054 0.22179 0.40953 0.0
H941 H 0.8771 0.25214 0.3952 0.0
H942 H 0.90263 0.22558 0.3851 0.0
H943 H 0.85036 0.17355 0.32765 0.0
H944 H 0.83683 0.22184 0.31319 0.0
H945 H 0.83835 0.26292 0.36919 0.0
C946 C 0.87867 0.15816 0.40027 0.0
C947 C 0.88727 0.12891 0.39523 0.0
C948 C 0.88207 0.11885 0.37634 0.0
C949 C 0.86972 0.13786 0.36254 0.0
C950 C 0.86217 0.16674 0.3679 0.0
C951 C 0.866 0.17671 0.3864 0.0
C952 C 0.85702 0.20907 0.38831 0.0
C953 C 0.83031 0.21238 0.40183 0.0
C954 C 0.8834 0.22826 0.39492 0.0
C955 C 0.84841 0.21605 0.36786 0.0
C956 C 0.85155 0.19132 0.35631 0.0
C957 C 0.84724 0.19288 0.33662 0.0
C958 C 0.83968 0.22041 0.32853 0.0
C959 C 0.83616 0.24598 0.3401 0.0
C960 C 0.84019 0.24358 0.36006 0.0
H961 H 0.13858 0.64839 0.62223 0.0
H962 H 0.12883 0.60333 0.67651 0.0
H963 H 0.088 0.57301 0.66322 0.0
H964 H 0.06369 0.65641 0.61398 0.0
H965 H 0.06472 0.65095 0.58849 0.0
H966 H 0.09697 0.66491 0.60072 0.0
H967 H 0.12875 0.6219 0.58707 0.0
H968 H 0.09662 0.60795 0.57455 0.0
H969 H 0.11689 0.58402 0.59057 0.0
H970 H 0.0444 0.55265 0.64578 0.0
H971 H 1.00112 0.54286 0.62519 0.0
H972 H 0.03751 0.60211 0.58215 0.0
C973 C 0.12864 0.6312 0.63096 0.0
C974 C 0.13724 0.62751 0.65021 0.0
C975 C 0.12285 0.60593 0.66162 0.0
C976 C 0.09965 0.58868 0.65419 0.0
C977 C 0.0909 0.59348 0.63536 0.0
C978 C 0.10501 0.61408 0.62382 0.0
C979 C 0.089 0.61724 0.60484 0.0
C980 C 0.07794 0.64927 0.60184 0.0
C981 C 0.10901 0.60717 0.58827 0.0
C982 C 0.06328 0.59589 0.60777 0.0
C983 C 0.06506 0.58216 0.62537 0.0
C984 C 0.04299 0.56291 0.63183 0.0
C985 C 0.01837 0.5576 0.62004 0.0
C986 C 0.01581 0.5716 0.60197 0.0
C987 C 0.03886 0.59075 0.59575 0.0
H988 H 0.61258 0.15992 0.58723 0.0
H989 H 0.64684 0.08851 0.62268 0.0
H990 H 0.67541 0.12486 0.64146 0.0
H991 H 0.68112 0.20708 0.58854 0.0
H992 H 0.65982 0.24097 0.5896 0.0
H993 H 0.64521 0.20904 0.57719 0.0
H994 H 0.59769 0.21107 0.59803 0.0
H995 H 0.61211 0.24291 0.61047 0.0
H996 H 0.60112 0.21034 0.62368 0.0
H997 H 0.69435 0.16897 0.65927 0.0
H998 H 0.70304 0.21804 0.67429 0.0
H999 H 0.65853 0.26116 0.62701 0.0
C1000 C 0.62668 0.15181 0.59861 0.0
C1001 C 0.62743 0.12122 0.60337 0.0
C1002 C 0.64581 0.11173 0.61866 0.0
C1003 C 0.66227 0.13223 0.62941 0.0
C1004 C 0.66045 0.16223 0.62464 0.0
C1005 C 0.64334 0.17202 0.60951 0.0
C1006 C 0.64341 0.20571 0.60836 0.0
C1007 C 0.65828 0.21632 0.58982 0.0
C1008 C 0.6117 0.21823 0.61026 0.0
C1009 C 0.66225 0.21332 0.62565 0.0
C1010 C 0.67213 0.18786 0.63472 0.0
C1011 C 0.68746 0.18907 0.65202 0.0
C1012 C 0.69236 0.21694 0.66043 0.0
C1013 C 0.68225 0.24317 0.65145 0.0
C1014 C 0.66746 0.24139 0.63372 0.0
H1015 H 0.10011 0.38025 0.83535 0.0
H1016 H 0.16887 0.38559 0.87876 0.0
H1017 H 0.13384 0.41161 0.90011 0.0
H1018 H 0.06425 0.45275 0.8461 0.0
H1019 H 0.02756 0.43822 0.84168 0.0
H1020 H 0.05902 0.4234 0.82891 0.0
H1021 H 0.04568 0.37042 0.8406 0.0
H1022 H 0.01425 0.38503 0.85338 0.0
H1023 H 0.04192 0.36353 0.86585 0.0
H1024 H 0.09013 0.43143 0.91801 0.0
H1025 H 0.04084 0.4434 0.93134 0.0
H1026 H 1.00023 0.4263 0.87628 0.0
C1027 C 0.10811 0.38739 0.84919 0.0
C1028 C 0.13743 0.38087 0.8553 0.0
C1029 C 0.14666 0.39036 0.87366 0.0
C1030 C 0.12691 0.40526 0.88588 0.0
C1031 C 0.09807 0.41079 0.87951 0.0
C1032 C 0.08872 0.40231 0.86155 0.0
C1033 C 0.05593 0.4089 0.85869 0.0
C1034 C 0.05143 0.43221 0.84291 0.0
C1035 C 0.03843 0.38027 0.85439 0.0
C1036 C 0.04798 0.42143 0.87812 0.0
C1037 C 0.07276 0.42265 0.88981 0.0
C1038 C 0.07073 0.4311 0.90888 0.0
C1039 C 0.04263 0.43781 0.91633 0.0
C1040 C 0.01685 0.43614 0.90476 0.0
C1041 C 0.01968 0.42855 0.88528 0.0
H1042 H 0.88997 0.8917 0.11986 0.0
H1043 H 0.86815 0.86291 0.06247 0.0
H1044 H 0.83999 0.82041 0.07571 0.0
H1045 H 0.90486 0.82083 0.13732 0.0
H1046 H 0.89026 0.82732 0.16092 0.0
H1047 H 0.90448 0.85788 0.14712 0.0
H1048 H 0.85429 0.8855 0.15083 0.0
H1049 H 0.83989 0.85495 0.16467 0.0
H1050 H 0.82036 0.86735 0.14366 0.0
H1051 H 0.81716 0.7789 0.09525 0.0
H1052 H 0.80563 0.73992 0.11903 0.0
H1053 H 0.84493 0.79443 0.16347 0.0
C1054 C 0.87856 0.87691 0.11011 0.0
C1055 C 0.88084 0.88087 0.09013 0.0
C1056 C 0.86648 0.86043 0.07782 0.0
C1057 C 0.85033 0.83629 0.08522 0.0
C1058 C 0.84896 0.83269 0.10498 0.0
C1059 C 0.86285 0.85237 0.11725 0.0
C1060 C 0.86082 0.84177 0.13776 0.0
C1061 C 0.89195 0.83664 0.14627 0.0
C1062 C 0.84276 0.8637 0.14995 0.0
C1063 C 0.84425 0.81274 0.13508 0.0
C1064 C 0.837 0.80818 0.11614 0.0
C1065 C 0.82253 0.78237 0.11014 0.0
C1066 C 0.81596 0.76037 0.12378 0.0
C1067 C 0.82434 0.76404 0.14314 0.0
C1068 C 0.83814 0.79092 0.14881 0.0
H1069 H 0.46871 0.59684 0.41252 0.0
H1070 H 0.52041 0.55981 0.3659 0.0
H1071 H 0.47939 0.57128 0.34357 0.0
H1072 H 0.39514 0.57167 0.39531 0.0
H1073 H 0.37709 0.60515 0.40337 0.0
H1074 H 0.40919 0.59121 0.41589 0.0
H1075 H 0.43552 0.64195 0.4114 0.0
H1076 H 0.40361 0.656 0.39885 0.0
H1077 H 0.43969 0.65699 0.38768 0.0
H1078 H 0.43544 0.59264 0.3258 0.0
H1079 H 0.39126 0.61992 0.31428 0.0
H1080 H 0.36734 0.64101 0.37271 0.0
C1081 C 0.47131 0.59065 0.39767 0.0
C1082 C 0.49791 0.57743 0.39098 0.0
C1083 C 0.50027 0.5698 0.37141 0.0
C1084 C 0.47706 0.57625 0.35861 0.0
C1085 C 0.45146 0.58992 0.36564 0.0
C1086 C 0.44832 0.59668 0.38478 0.0
C1087 C 0.41928 0.61271 0.38859 0.0
C1088 C 0.39897 0.59406 0.40156 0.0
C1089 C 0.42488 0.64374 0.39713 0.0
C1090 C 0.4069 0.61475 0.36853 0.0
C1091 C 0.42574 0.60138 0.35549 0.0
C1092 C 0.42026 0.60263 0.33592 0.0
C1093 C 0.39515 0.61824 0.3295 0.0
C1094 C 0.37564 0.63222 0.34261 0.0
C1095 C 0.3814 0.6299 0.36239 0.0
H1096 H 0.39386 0.15618 0.08472 0.0
H1097 H 0.35528 0.08338 0.11705 0.0
H1098 H 0.32504 0.11912 0.13525 0.0
H1099 H 0.40217 0.20425 0.12254 0.0
H1100 H 0.39303 0.23773 0.10968 0.0
H1101 H 0.40818 0.20637 0.09712 0.0
H1102 H 0.36282 0.2063 0.07434 0.0
H1103 H 0.34749 0.23777 0.08686 0.0
H1104 H 0.32582 0.20434 0.08414 0.0
H1105 H 0.305 0.16242 0.15318 0.0
H1106 H 0.29595 0.21061 0.16915 0.0
H1107 H 0.34559 0.25581 0.12485 0.0
C1108 C 0.37846 0.14763 0.09525 0.0
C1109 C 0.37696 0.11684 0.09936 0.0
C1110 C 0.35689 0.10677 0.11356 0.0
C1111 C 0.33947 0.12693 0.12395 0.0
C1112 C 0.34208 0.15713 0.11989 0.0
C1113 C 0.36086 0.16748 0.10577 0.0
C1114 C 0.36144 0.20121 0.10542 0.0
C1115 C 0.39308 0.21307 0.1089 0.0
C1116 C 0.34862 0.2131 0.08656 0.0
C1117 C 0.34102 0.20817 0.12205 0.0
C1118 C 0.32981 0.18237 0.13005 0.0
C1119 C 0.31294 0.1828 0.14674 0.0
C1120 C 0.30788 0.21019 0.15571 0.0
C1121 C 0.31939 0.23675 0.14787 0.0
C1122 C 0.33564 0.23583 0.13065 0.0
H1123 H 0.49414 0.58778 0.88141 0.0
H1124 H 0.53766 0.56913 0.93527 0.0
H1125 H 0.58643 0.58028 0.9207 0.0
H1126 H 0.55503 0.56116 0.84913 0.0
H1127 H 0.54919 0.59118 0.83251 0.0
H1128 H 0.51842 0.57675 0.84615 0.0
H1129 H 0.50741 0.62967 0.85888 0.0
H1130 H 0.53821 0.64419 0.84543 0.0
H1131 H 0.53641 0.6501 0.87086 0.0
H1132 H 0.62972 0.59843 0.90141 0.0
H1133 H 0.66409 0.62346 0.87915 0.0
H1134 H 0.59236 0.63254 0.83804 0.0
C1135 C 0.5141 0.58502 0.88987 0.0
C1136 C 0.51232 0.577 0.90934 0.0
C1137 C 0.53871 0.57485 0.92026 0.0
C1138 C 0.56648 0.58112 0.9121 0.0
C1139 C 0.56751 0.58981 0.89301 0.0
C1140 C 0.54204 0.59177 0.882 0.0
C1141 C 0.54896 0.6048 0.86251 0.0
C1142 C 0.54252 0.58211 0.84664 0.0
C1143 C 0.53173 0.63391 0.85924 0.0
C1144 C 0.58207 0.61048 0.86447 0.0
C1145 C 0.59242 0.60125 0.88205 0.0
C1146 C 0.62194 0.60545 0.8875 0.0
C1147 C 0.64132 0.61976 0.87474 0.0
C1148 C 0.63111 0.63004 0.85676 0.0
C1149 C 0.60108 0.62485 0.85157 0.0
H1150 H 0.16285 0.79349 0.66419 0.0
H1151 H 0.19863 0.7402 0.61794 0.0
H1152 H 0.1867 0.7804 0.59514 0.0
H1153 H 0.10241 0.82193 0.63994 0.0
H1154 H 0.10389 0.85853 0.65036 0.0
H1155 H 0.11843 0.82723 0.66329 0.0
H1156 H 0.16939 0.85362 0.66638 0.0
H1157 H 0.15493 0.88516 0.6535 0.0
H1158 H 0.18804 0.8667 0.6452 0.0
H1159 H 0.16372 0.82299 0.57687 0.0
H1160 H 0.13538 0.86636 0.56499 0.0
H1161 H 0.11765 0.89343 0.62328 0.0
C1162 C 0.16876 0.79049 0.64933 0.0
C1163 C 0.18168 0.76362 0.64287 0.0
C1164 C 0.18896 0.76061 0.62328 0.0
C1165 C 0.1822 0.78333 0.6102 0.0
C1166 C 0.16871 0.80918 0.61698 0.0
C1167 C 0.16258 0.81308 0.63615 0.0
C1168 C 0.14673 0.84231 0.63968 0.0
C1169 C 0.11605 0.83717 0.64885 0.0
C1170 C 0.16592 0.86318 0.65191 0.0
C1171 C 0.14387 0.85376 0.61942 0.0
C1172 C 0.15672 0.83435 0.60652 0.0
C1173 C 0.15427 0.83871 0.58686 0.0
C1174 C 0.13808 0.86333 0.58024 0.0
C1175 C 0.12487 0.88351 0.59322 0.0
C1176 C 0.12831 0.87886 0.61305 0.0
H1177 H 0.97099 0.40171 0.41721 0.0
H1178 H 0.01335 0.46222 0.37728 0.0
H1179 H 0.97085 0.45641 0.35528 0.0
H1180 H 0.94531 0.35157 0.38381 0.0
H1181 H 0.91066 0.34353 0.39564 0.0
H1182 H 0.94219 0.35563 0.40935 0.0
H1183 H 0.9112 0.39911 0.4232 0.0
H1184 H 0.87947 0.38709 0.40951 0.0
H1185 H 0.89297 0.42463 0.40718 0.0
H1186 H 0.92772 0.43849 0.3358 0.0
H1187 H 0.88661 0.4108 0.32064 0.0
H1188 H 0.87101 0.36334 0.37355 0.0
C1189 C 0.97114 0.41429 0.40403 0.0
C1190 C 0.99565 0.43248 0.39903 0.0
C1191 C 0.99489 0.44826 0.38153 0.0
C1192 C 0.97078 0.44514 0.36894 0.0
C1193 C 0.94738 0.42646 0.37413 0.0
C1194 C 0.94722 0.41153 0.39136 0.0
C1195 C 0.92051 0.39109 0.39294 0.0
C1196 C 0.93026 0.35854 0.39558 0.0
C1197 C 0.89981 0.40109 0.40917 0.0
C1198 C 0.90623 0.39597 0.3736 0.0
C1199 C 0.92196 0.41668 0.36304 0.0
C1200 C 0.91484 0.42279 0.34408 0.0
C1201 C 0.8915 0.40693 0.33558 0.0
C1202 C 0.87535 0.38538 0.34604 0.0
C1203 C 0.88239 0.38038 0.36543 0.0
H1204 H 0.35708 0.78697 0.33489 0.0
H1205 H 0.29705 0.75017 0.37734 0.0
H1206 H 0.30717 0.79277 0.39841 0.0
H1207 H 0.41119 0.81131 0.36702 0.0
H1208 H 0.4204 0.84489 0.35428 0.0
H1209 H 0.40587 0.81338 0.34153 0.0
H1210 H 0.3635 0.84615 0.32797 0.0
H1211 H 0.37786 0.87779 0.34079 0.0
H1212 H 0.33981 0.86641 0.34415 0.0
H1213 H 0.32783 0.83563 0.41641 0.0
H1214 H 0.35839 0.87585 0.43026 0.0
H1215 H 0.40401 0.88662 0.37624 0.0
C1216 C 0.34563 0.78812 0.34846 0.0
C1217 C 0.32618 0.76511 0.35438 0.0
C1218 C 0.31204 0.76738 0.37241 0.0
C1219 C 0.31752 0.79163 0.38448 0.0
C1220 C 0.33706 0.81365 0.37833 0.0
C1221 C 0.35086 0.81223 0.36073 0.0
C1222 C 0.37259 0.83776 0.35822 0.0
C1223 C 0.40439 0.82613 0.35509 0.0
C1224 C 0.36285 0.85824 0.34181 0.0
C1225 C 0.36951 0.8532 0.37739 0.0
C1226 C 0.34863 0.83903 0.38868 0.0
C1227 C 0.34373 0.84734 0.40758 0.0
C1228 C 0.3611 0.8702 0.41532 0.0
C1229 C 0.38289 0.88471 0.40415 0.0
C1230 C 0.3867 0.87656 0.38482 0.0
H1231 H 0.97727 0.61334 0.08525 0.0
H1232 H 0.99604 0.53513 0.11952 0.0
H1233 H 0.95055 0.54424 0.13827 0.0
H1234 H 0.95362 0.65789 0.12283 0.0
H1235 H 0.92497 0.67684 0.10959 0.0
H1236 H 0.95677 0.66202 0.0973 0.0
H1237 H 0.92202 0.63156 0.07521 0.0
H1238 H 0.89005 0.64626 0.08751 0.0
H1239 H 0.89513 0.60664 0.0856 0.0
H1240 H 0.90655 0.565 0.15571 0.0
H1241 H 0.86775 0.59646 0.17062 0.0
H1242 H 0.87684 0.66046 0.12486 0.0
C1243 C 0.97151 0.59772 0.09642 0.0
C1244 C 0.99026 0.57341 0.10082 0.0
C1245 C 0.9821 0.55388 0.11582 0.0
C1246 C 0.95619 0.55879 0.12651 0.0
C1247 C 0.93852 0.58323 0.12201 0.0
C1248 C 0.94578 0.60234 0.10727 0.0
C1249 C 0.92443 0.62836 0.10638 0.0
C1250 C 0.94094 0.65802 0.1092 0.0
C1251 C 0.90686 0.62818 0.08755 0.0
C1252 C 0.9045 0.62133 0.12322 0.0
C1253 C 0.9128 0.59502 0.13193 0.0
C1254 C 0.89938 0.58524 0.14876 0.0
C1255 C 0.87736 0.60312 0.1571 0.0
C1256 C 0.86891 0.63023 0.1485 0.0
C1257 C 0.88227 0.63921 0.13124 0.0
H1258 H 0.1731 0.25945 0.87141 0.0
H1259 H 0.17738 0.2223 0.81437 0.0
H1260 H 0.16275 0.17317 0.82708 0.0
H1261 H 0.19763 0.19213 0.89798 0.0
H1262 H 0.17158 0.19851 0.9171 0.0
H1263 H 0.18678 0.22952 0.90405 0.0
H1264 H 0.13352 0.24757 0.89611 0.0
H1265 H 0.1182 0.21664 0.90907 0.0
H1266 H 0.10801 0.22254 0.88446 0.0
H1267 H 0.1441 0.12895 0.84558 0.0
H1268 H 0.11961 0.09422 0.86789 0.0
H1269 H 0.1247 0.16079 0.91267 0.0
C1270 C 0.17177 0.24073 0.86172 0.0
C1271 C 0.17682 0.24451 0.84195 0.0
C1272 C 0.17383 0.21978 0.82958 0.0
C1273 C 0.16564 0.19178 0.83669 0.0
C1274 C 0.16019 0.18887 0.8562 0.0
C1275 C 0.16301 0.21271 0.86855 0.0
C1276 C 0.15284 0.2044 0.8885 0.0
C1277 C 0.17876 0.20625 0.90275 0.0
C1278 C 0.12658 0.22394 0.8949 0.0
C1279 C 0.14325 0.17245 0.88534 0.0
C1280 C 0.14823 0.16372 0.86671 0.0
C1281 C 0.1403 0.13549 0.86025 0.0
C1282 C 0.12641 0.11585 0.87306 0.0
C1283 C 0.12012 0.12465 0.89208 0.0
C1284 C 0.12918 0.15324 0.89827 0.0
H1285 H 0.49911 0.42678 0.61864 0.0
H1286 H 0.54082 0.43135 0.56292 0.0
H1287 H 0.58895 0.41697 0.5773 0.0
H1288 H 0.56338 0.45177 0.64749 0.0
H1289 H 0.55565 0.42558 0.66633 0.0
H1290 H 0.52566 0.4404 0.65217 0.0
H1291 H 0.50903 0.38692 0.64353 0.0
H1292 H 0.53892 0.37198 0.65762 0.0
H1293 H 0.5354 0.36176 0.63283 0.0
H1294 H 0.63179 0.39905 0.59746 0.0
H1295 H 0.66478 0.37508 0.62107 0.0
H1296 H 0.59422 0.37935 0.66328 0.0
C1297 C 0.51858 0.4255 0.60959 0.0
C1298 C 0.51643 0.4306 0.58973 0.0
C1299 C 0.54211 0.42772 0.57819 0.0
C1300 C 0.56953 0.4197 0.58625 0.0
C1301 C 0.57084 0.4143 0.60584 0.0
C1302 C 0.54598 0.41689 0.61734 0.0
C1303 C 0.55256 0.40682 0.63756 0.0
C1304 C 0.54911 0.43269 0.65172 0.0
C1305 C 0.53282 0.3803 0.6432 0.0
C1306 C 0.58482 0.39767 0.63556 0.0
C1307 C 0.59513 0.4027 0.61726 0.0
C1308 C 0.62401 0.39518 0.61187 0.0
C1309 C 0.64263 0.38163 0.62541 0.0
C1310 C 0.63216 0.37525 0.64406 0.0
C1311 C 0.60298 0.38391 0.64918 0.0
H1312 H 0.30237 0.29269 0.22773 0.0
H1313 H 0.23292 0.25727 0.19117 0.0
H1314 H 0.21625 0.22459 0.21712 0.0
H1315 H 0.31856 0.22257 0.2529 0.0
H1316 H 0.3243 0.24041 0.27565 0.0
H1317 H 0.33233 0.26017 0.25386 0.0
H1318 H 0.29707 0.30259 0.26437 0.0
H1319 H 0.28883 0.28291 0.28614 0.0
H1320 H 0.25908 0.29404 0.27045 0.0
H1321 H 0.20485 0.19786 0.24686 0.0
H1322 H 0.20009 0.17697 0.27915 0.0
H1323 H 0.27659 0.22833 0.29763 0.0
C1324 C 0.28393 0.27775 0.22517 0.0
C1325 C 0.26894 0.27759 0.20739 0.0
C1326 C 0.2447 0.25794 0.20465 0.0
C1327 C 0.23506 0.23919 0.21931 0.0
C1328 C 0.24983 0.2402 0.23673 0.0
C1329 C 0.27382 0.25878 0.23981 0.0
C1330 C 0.28489 0.25586 0.26026 0.0
C1331 C 0.31693 0.24404 0.26069 0.0
C1332 C 0.28231 0.28562 0.27093 0.0
C1333 C 0.26314 0.23304 0.26812 0.0
C1334 C 0.24321 0.22438 0.25419 0.0
C1335 C 0.22045 0.20426 0.25789 0.0
C1336 C 0.21789 0.19256 0.27632 0.0
C1337 C 0.23799 0.20089 0.29094 0.0
C1338 C 0.26102 0.22137 0.28672 0.0
H1339 H 0.04125 0.96402 0.53205 0.0
H1340 H 0.02427 0.04269 0.56622 0.0
H1341 H 0.99446 0.06387 0.53999 0.0
H1342 H 0.04902 1.00154 0.48728 0.0
H1343 H 0.03072 0.97304 0.47354 0.0
H1344 H 0.05002 0.96343 0.49521 0.0
H1345 H 1.00213 0.93916 0.50858 0.0
H1346 H 0.98272 0.94856 0.4869 0.0
H1347 H 0.96832 0.9606 0.50964 0.0
H1348 H 0.96795 0.07744 0.50974 0.0
H1349 H 0.94484 0.08161 0.47788 0.0
H1350 H 0.97839 0.99413 0.46316 0.0
C1351 C 0.03106 0.98559 0.53405 0.0
C1352 C 0.0351 1.0017 0.55121 0.0
C1353 C 0.02149 0.02992 0.55323 0.0
C1354 C 0.00453 0.04217 0.53839 0.0
C1355 C 1.00127 0.02593 0.52159 0.0
C1356 C 0.01399 0.99819 0.51935 0.0
C1357 C 0.00722 0.98558 0.49972 0.0
C1358 C 0.03596 0.98061 0.48827 0.0
C1359 C 0.98901 0.95677 0.50131 0.0
C1360 C 0.98885 0.01063 0.49128 0.0
C1361 C 0.98575 0.0337 0.50415 0.0
C1362 C 0.97011 0.05946 0.49958 0.0
C1363 C 0.9571 0.06165 0.48142 0.0
C1364 C 0.95972 0.0382 0.46804 0.0
C1365 C 0.9759 0.0124 0.47309 0.0
H1366 H 0.27096 0.7374 0.70575 0.0
H1367 H 0.18624 0.69782 0.72129 0.0
H1368 H 0.19013 0.71955 0.75328 0.0
H1369 H 0.30663 0.7278 0.75166 0.0
H1370 H 0.32559 0.76308 0.75126 0.0
H1371 H 0.31684 0.74445 0.72918 0.0
H1372 H 0.28865 0.79111 0.71735 0.0
H1373 H 0.29746 0.80994 0.73934 0.0
H1374 H 0.25931 0.80652 0.73181 0.0
H1375 H 0.20251 0.74387 0.78342 0.0
H1376 H 0.22156 0.77292 0.81038 0.0
H1377 H 0.2983 0.79901 0.77663 0.0
C1378 C 0.25325 0.73344 0.7159 0.0
C1379 C 0.2283 0.71581 0.71096 0.0
C1380 C 0.20555 0.71121 0.72464 0.0
C1381 C 0.20756 0.7234 0.74293 0.0
C1382 C 0.23239 0.74037 0.74743 0.0
C1383 C 0.25478 0.74573 0.73438 0.0
C1384 C 0.27867 0.76543 0.74315 0.0
C1385 C 0.30871 0.74921 0.74385 0.0
C1386 C 0.28116 0.79501 0.73226 0.0
C1387 C 0.26611 0.77008 0.7631 0.0
C1388 C 0.23945 0.75518 0.76513 0.0
C1389 C 0.22331 0.75577 0.78204 0.0
C1390 C 0.23439 0.77237 0.7973 0.0
C1391 C 0.26138 0.78839 0.79565 0.0
C1392 C 0.27762 0.787 0.77833 0.0
H1393 H 0.46237 0.04462 0.03108 0.0
H1394 H 0.48224 0.96502 0.06378 0.0
H1395 H 0.51105 0.94527 0.03682 0.0
H1396 H 0.45375 0.00871 0.98571 0.0
H1397 H 0.47146 0.03773 0.9721 0.0
H1398 H 0.45276 0.04656 0.99413 0.0
H1399 H 0.50087 0.07071 0.00721 0.0
H1400 H 0.51967 0.06213 0.98517 0.0
H1401 H 0.53484 0.04948 0.00756 0.0
H1402 H 0.53583 0.93277 0.00644 0.0
H1403 H 0.55827 0.92942 0.9745 0.0
H1404 H 0.52414 0.01712 0.9607 0.0
C1405 C 0.47299 0.02316 0.03258 0.0
C1406 C 0.46995 0.00634 0.04957 0.0
C1407 C 0.48416 0.97833 0.05095 0.0
C1408 C 0.50058 0.96684 0.03569 0.0
C1409 C 0.50281 0.98365 0.01908 0.0
C1410 C 0.48971 0.0113 0.0174 0.0
C1411 C 0.49581 0.02455 0.99781 0.0
C1412 C 0.46671 0.02968 0.98679 0.0
C1413 C 0.51388 0.05343 0.99955 0.0
C1414 C 0.51413 0.99988 0.98879 0.0
C1415 C 0.51773 0.97652 1.00139 0.0
C1416 C 0.53334 0.95096 0.99646 0.0
C1417 C 0.54595 0.94926 0.97823 0.0
C1418 C 0.54304 0.973 0.96508 0.0
C1419 C 0.52677 0.99862 0.97045 0.0
H1420 H 0.29271 0.70744 0.28034 0.0
H1421 H 0.21759 0.73337 0.31551 0.0
H1422 H 0.19855 0.76443 0.28921 0.0
H1423 H 0.30298 0.77868 0.25721 0.0
H1424 H 0.31243 0.7629 0.23435 0.0
H1425 H 0.32051 0.74271 0.25595 0.0
H1426 H 0.29054 0.69767 0.24331 0.0
H1427 H 0.28237 0.71771 0.22166 0.0
H1428 H 0.25251 0.70285 0.23592 0.0
H1429 H 0.18722 0.79208 0.25943 0.0
H1430 H 0.1839 0.81505 0.22766 0.0
H1431 H 0.26626 0.77188 0.21104 0.0
C1432 C 0.27227 0.71968 0.2825 0.0
C1433 C 0.2566 0.71796 0.30001 0.0
C1434 C 0.22996 0.73431 0.30225 0.0
C1435 C 0.21897 0.75204 0.28739 0.0
C1436 C 0.23487 0.75323 0.27034 0.0
C1437 C 0.26093 0.73755 0.26776 0.0
C1438 C 0.27347 0.74272 0.24788 0.0
C1439 C 0.30417 0.75765 0.24892 0.0
C1440 C 0.27479 0.7135 0.23652 0.0
C1441 C 0.2503 0.7637 0.2397 0.0
C1442 C 0.2283 0.7694 0.25298 0.0
C1443 C 0.20432 0.78783 0.24891 0.0
C1444 C 0.20265 0.80076 0.23077 0.0
C1445 C 0.22481 0.79531 0.21682 0.0
C1446 C 0.24903 0.77655 0.22141 0.0
H1447 H 0.48777 0.01969 0.4625 0.0
H1448 H 0.45981 0.92908 0.47417 0.0
H1449 H 0.48279 0.93174 0.50591 0.0
H1450 H 0.55922 0.01457 0.48722 0.0
H1451 H 0.5575 0.05184 0.4966 0.0
H1452 H 0.53936 0.04303 0.47436 0.0
H1453 H 0.48962 0.06291 0.48787 0.0
H1454 H 0.50757 0.07162 0.51018 0.0
H1455 H 0.47532 0.04786 0.50989 0.0
H1456 H 0.50648 0.94398 0.53663 0.0
H1457 H 0.53248 0.96449 0.56454 0.0
H1458 H 0.54704 0.04721 0.53396 0.0
C1459 C 0.48674 1.00038 0.4717 0.0
C1460 C 0.47193 0.97415 0.46578 0.0
C1461 C 0.47097 0.94942 0.47829 0.0
C1462 C 0.48395 0.95069 0.49642 0.0
C1463 C 0.498 0.97683 0.50193 0.0
C1464 C 0.49976 1.00122 0.48999 0.0
C1465 C 0.51621 0.02656 0.49976 0.0
C1466 C 0.54477 0.03446 0.48883 0.0
C1467 C 0.49597 0.05385 0.50206 0.0
C1468 C 0.52323 0.01251 0.51901 0.0
C1469 C 0.51232 0.98385 0.51987 0.0
C1470 C 0.51531 0.96634 0.53613 0.0
C1471 C 0.53007 0.97826 0.55196 0.0
C1472 C 0.54192 0.00742 0.55147 0.0
C1473 C 0.53836 0.0248 0.53474 0.0
H1474 H 0.273 0.27928 0.79449 0.0
H1475 H 0.1921 0.32503 0.77778 0.0
H1476 H 0.19442 0.30143 0.74616 0.0
H1477 H 0.30953 0.28476 0.74825 0.0
H1478 H 0.32621 0.24841 0.74969 0.0
H1479 H 0.3186 0.26902 0.7712 0.0
H1480 H 0.28757 0.22494 0.78418 0.0
H1481 H 0.29504 0.20421 0.76271 0.0
H1482 H 0.25722 0.21058 0.77014 0.0
H1483 H 0.20445 0.27264 0.7166 0.0
H1484 H 0.22236 0.2407 0.69043 0.0
H1485 H 0.29727 0.21345 0.72536 0.0
C1486 C 0.25588 0.28439 0.78413 0.0
C1487 C 0.23234 0.30403 0.78867 0.0
C1488 C 0.21034 0.31007 0.77471 0.0
C1489 C 0.21144 0.29677 0.75666 0.0
C1490 C 0.23475 0.27747 0.75264 0.0
C1491 C 0.25667 0.27129 0.76589 0.0
C1492 C 0.2792 0.24957 0.75773 0.0
C1493 C 0.31022 0.2638 0.75666 0.0
C1494 C 0.27978 0.22061 0.76938 0.0
C1495 C 0.26636 0.2445 0.73792 0.0
C1496 C 0.2407 0.26085 0.73536 0.0
C1497 C 0.22457 0.25978 0.7184 0.0
C1498 C 0.23492 0.24153 0.70361 0.0
C1499 C 0.26121 0.22458 0.7058 0.0
C1500 C 0.27712 0.22618 0.72323 0.0
H1501 H 0.02147 0.98959 0.95589 0.0
H1502 H 0.05956 0.075 0.97118 0.0
H1503 H 0.03616 0.07174 0.00288 0.0
H1504 H 0.95129 1.00024 0.98013 0.0
H1505 H 0.94835 0.96222 0.98802 0.0
H1506 H 0.96823 0.97089 0.9664 0.0
H1507 H 0.0149 0.94424 0.97963 0.0
H1508 H 0.99516 0.93552 1.00131 0.0
H1509 H 0.0299 0.95539 0.00241 0.0
H1510 H 0.00911 0.05967 0.03291 0.0
H1511 H 0.97926 0.03971 0.05946 0.0
H1512 H 0.95779 0.96199 0.0254 0.0
C1513 C 0.02486 0.00758 0.96592 0.0
C1514 C 0.04241 0.03257 0.96099 0.0
C1515 C 0.04626 0.05564 0.97455 0.0
C1516 C 0.03306 0.054 0.99264 0.0
C1517 C 0.01597 0.02914 0.99707 0.0
C1518 C 0.01174 0.00632 0.98415 0.0
C1519 C 0.99213 0.9822 0.99267 0.0
C1520 C 0.96329 0.97869 0.98111 0.0
C1521 C 0.00904 0.95259 0.99409 0.0
C1522 C 0.98602 0.99511 0.01234 0.0
C1523 C 1.00009 0.02219 0.01453 0.0
C1524 C 0.99796 0.0385 0.03137 0.0
C1525 C 0.98092 0.02694 0.0464 0.0
C1526 C 0.9661 0.9993 0.04456 0.0
C1527 C 0.96879 0.98319 0.02725 0.0
H1528 H 0.80108 0.78829 0.72574 0.0
H1529 H 0.72667 0.76524 0.68918 0.0
H1530 H 0.7058 0.73401 0.71481 0.0
H1531 H 0.80803 0.71599 0.74901 0.0
H1532 H 0.8169 0.73167 0.772 0.0
H1533 H 0.82679 0.75132 0.75049 0.0
H1534 H 0.79792 0.79753 0.76243 0.0
H1535 H 0.78784 0.77799 0.78392 0.0
H1536 H 0.75935 0.79384 0.76897 0.0
H1537 H 0.69184 0.70686 0.74456 0.0
H1538 H 0.68612 0.68457 0.77651 0.0
H1539 H 0.76934 0.72484 0.79426 0.0
C1540 C 0.78056 0.77642 0.72309 0.0
C1541 C 0.76552 0.77917 0.70543 0.0
C1542 C 0.7386 0.76348 0.70256 0.0
C1543 C 0.72655 0.74566 0.71704 0.0
C1544 C 0.74167 0.7437 0.73435 0.0
C1545 C 0.76812 0.75854 0.73745 0.0
C1546 C 0.77941 0.7531 0.75759 0.0
C1547 C 0.80957 0.73706 0.75724 0.0
C1548 C 0.78123 0.78236 0.76889 0.0
C1549 C 0.75507 0.73306 0.76531 0.0
C1550 C 0.73356 0.72794 0.75162 0.0
C1551 C 0.70861 0.71058 0.75537 0.0
C1552 C 0.70554 0.69805 0.7736 0.0
C1553 C 0.72729 0.70288 0.78789 0.0
C1554 C 0.75239 0.72064 0.78362 0.0
H1555 H 0.70837 0.21087 0.22521 0.0
H1556 H 0.7786 0.24133 0.18745 0.0
H1557 H 0.79702 0.2747 0.21265 0.0
H1558 H 0.69505 0.28221 0.24882 0.0
H1559 H 0.68903 0.26583 0.272 0.0
H1560 H 0.68014 0.24513 0.25071 0.0
H1561 H 0.71425 0.20223 0.26201 0.0
H1562 H 0.72329 0.22282 0.28329 0.0
H1563 H 0.75253 0.20995 0.26776 0.0
H1564 H 0.80909 0.30338 0.24166 0.0
H1565 H 0.81453 0.32622 0.2733 0.0
H1566 H 0.73724 0.27763 0.29347 0.0
C1567 C 0.72743 0.2248 0.22223 0.0
C1568 C 0.74202 0.22354 0.20432 0.0
C1569 C 0.76708 0.24187 0.20102 0.0
C1570 C 0.7777 0.26096 0.21525 0.0
C1571 C 0.76311 0.26147 0.23278 0.0
C1572 C 0.73854 0.24396 0.2364 0.0
C1573 C 0.72777 0.24832 0.2568 0.0
C1574 C 0.69612 0.26114 0.25709 0.0
C1575 C 0.72958 0.21909 0.26813 0.0
C1576 C 0.75029 0.27085 0.26404 0.0
C1577 C 0.77033 0.2781 0.24983 0.0
C1578 C 0.79349 0.29798 0.2529 0.0
C1579 C 0.7964 0.31081 0.27099 0.0
C1580 C 0.77633 0.30377 0.28592 0.0
C1581 C 0.75286 0.28355 0.28234 0.0
H1582 H 0.78773 0.21223 0.7809 0.0
H1583 H 0.70783 0.2312 0.81343 0.0
H1584 H 0.68805 0.26019 0.78641 0.0
H1585 H 0.79337 0.28422 0.75869 0.0
H1586 H 0.80637 0.27003 0.73612 0.0
H1587 H 0.81413 0.24998 0.75781 0.0
H1588 H 0.78958 0.20289 0.74355 0.0
H1589 H 0.7817 0.22281 0.72181 0.0
H1590 H 0.75201 0.20489 0.7347 0.0
H1591 H 0.67662 0.28698 0.7561 0.0
H1592 H 0.67498 0.31157 0.72467 0.0
H1593 H 0.76254 0.27667 0.71148 0.0
C1594 C 0.76603 0.22241 0.78229 0.0
C1595 C 0.74927 0.21934 0.79929 0.0
C1596 C 0.72108 0.23319 0.80058 0.0
C1597 C 0.70961 0.24969 0.78529 0.0
C1598 C 0.72661 0.25229 0.76875 0.0
C1599 C 0.75426 0.23918 0.76713 0.0
C1600 C 0.76813 0.24608 0.74785 0.0
C1601 C 0.79722 0.26363 0.75027 0.0
C1602 C 0.77314 0.21746 0.7363 0.0
C1603 C 0.74398 0.26517 0.73895 0.0
C1604 C 0.72018 0.26827 0.75126 0.0
C1605 C 0.69513 0.28475 0.74634 0.0
C1606 C 0.69441 0.29863 0.72842 0.0
C1607 C 0.71862 0.29613 0.7156 0.0
C1608 C 0.74369 0.27904 0.72097 0.0
H1609 H 0.71626 0.8017 0.27994 0.0
H1610 H 0.79807 0.78426 0.31083 0.0
H1611 H 0.81719 0.75598 0.28329 0.0
H1612 H 0.71125 0.72968 0.25767 0.0
H1613 H 0.69675 0.74365 0.23541 0.0
H1614 H 0.6896 0.76338 0.25732 0.0
H1615 H 0.7122 0.81115 0.24266 0.0
H1616 H 0.7195 0.79155 0.22072 0.0
H1617 H 0.74935 0.81016 0.23304 0.0
H1618 H 0.82773 0.72989 0.25282 0.0
H1619 H 0.82848 0.70525 0.2215 0.0
H1620 H 0.73949 0.73791 0.20986 0.0
C1621 C 0.73824 0.79201 0.28086 0.0
C1622 C 0.75575 0.7953 0.29753 0.0
C1623 C 0.78427 0.78207 0.29823 0.0
C1624 C 0.79536 0.76601 0.28264 0.0
C1625 C 0.77762 0.76321 0.26644 0.0
C1626 C 0.74962 0.77565 0.26542 0.0
C1627 C 0.73495 0.7685 0.2464 0.0
C1628 C 0.70645 0.75021 0.24938 0.0
C1629 C 0.72863 0.79704 0.23504 0.0
C1630 C 0.75911 0.75008 0.23695 0.0
C1631 C 0.78356 0.74755 0.24879 0.0
C1632 C 0.80873 0.73169 0.24342 0.0
C1633 C 0.80892 0.71778 0.22554 0.0
C1634 C 0.78405 0.7196 0.21317 0.0
C1635 C 0.75885 0.73615 0.21896 0.0
H1636 H 0.54826 0.46444 0.03179 0.0
H1637 H 0.52545 0.54053 0.06698 0.0
H1638 H 0.49435 0.56035 0.04093 0.0
H1639 H 0.55214 0.50388 0.98681 0.0
H1640 H 0.53579 0.47414 0.97314 0.0
H1641 H 0.55666 0.46588 0.99444 0.0
H1642 H 0.51151 0.4374 0.00827 0.0
H1643 H 0.4905 0.44555 0.98701 0.0
H1644 H 0.47609 0.45591 0.01009 0.0
H1645 H 0.466 0.5722 0.01134 0.0
H1646 H 0.44088 0.57491 0.98016 0.0
H1647 H 0.4809 0.49092 0.96373 0.0
C1648 C 0.53677 0.48531 0.03398 0.0
C1649 C 0.53936 0.501 0.05144 0.0
C1650 C 0.52384 0.52813 0.05376 0.0
C1651 C 0.50613 0.53959 0.03903 0.0
C1652 C 0.50404 0.52364 0.02203 0.0
C1653 C 0.51882 0.49705 0.01941 0.0
C1654 C 0.51234 0.48425 0.99976 0.0
C1655 C 0.54094 0.48191 0.98783 0.0
C1656 C 0.49667 0.45398 1.00139 0.0
C1657 C 0.4916 0.50781 0.99179 0.0
C1658 C 0.48727 0.53035 0.00491 0.0
C1659 C 0.46918 0.55467 1.00095 0.0
C1660 C 0.45502 0.55601 0.98316 0.0
C1661 C 0.45885 0.53313 0.96947 0.0
C1662 C 0.47748 0.50873 0.97389 0.0
H1663 H 0.02777 0.51525 0.46155 0.0
H1664 H 0.05905 0.42627 0.47465 0.0
H1665 H 0.03313 0.42812 0.5056 0.0
H1666 H 0.03457 0.54463 0.50908 0.0
H1667 H 1.00128 0.56681 0.50777 0.0
H1668 H 0.02188 0.55858 0.48636 0.0
H1669 H 0.97458 0.53612 0.47099 0.0
H1670 H 0.95381 0.54435 0.49234 0.0
H1671 H 0.95485 0.5069 0.48323 0.0
H1672 H 0.00524 0.43973 0.53544 0.0
H1673 H 0.97562 0.45998 0.56207 0.0
H1674 H 0.96125 0.54121 0.52991 0.0
C1675 C 0.02905 0.49614 0.47092 0.0
C1676 C 0.04548 0.47061 0.46566 0.0
C1677 C 0.04662 0.44607 0.47832 0.0
C1678 C 0.03197 0.44689 0.49597 0.0
C1679 C 0.01614 0.47238 0.50079 0.0
C1680 C 0.01442 0.49654 0.48864 0.0
C1681 C 0.99587 0.52119 0.49744 0.0
C1682 C 0.01452 0.54947 0.50033 0.0
C1683 C 0.96813 0.5275 0.48527 0.0
C1684 C 0.98761 0.50711 0.51641 0.0
C1685 C 0.99963 0.47898 0.51803 0.0
C1686 C 0.99559 0.46169 0.53433 0.0
C1687 C 0.97876 0.47341 0.54939 0.0
C1688 C 0.96604 0.50212 0.54807 0.0
C1689 C 0.97055 0.51913 0.53131 0.0
H1690 H 0.02481 0.47738 0.04729 0.0
H1691 H 0.0666 0.56108 0.03181 0.0
H1692 H 0.04333 0.55874 1.00023 0.0
H1693 H 0.03191 0.44312 1.00009 0.0
H1694 H 0.99637 0.42471 1.00111 0.0
H1695 H 0.01661 0.43209 0.02281 0.0
H1696 H 0.97117 0.46033 0.03642 0.0
H1697 H 0.95081 0.45303 0.01477 0.0
H1698 H 0.95541 0.4907 0.02302 0.0
H1699 H 0.01607 0.54888 0.97095 0.0
H1700 H 0.98497 0.53192 0.94446 0.0
H1701 H 0.9593 0.45393 0.97718 0.0
C1702 C 0.02908 0.49509 0.03719 0.0
C1703 C 0.04757 0.51944 0.04208 0.0
C1704 C 0.05257 0.54222 0.02849 0.0
C1705 C 0.03946 0.54111 0.01045 0.0
C1706 C 0.0214 0.51702 0.00606 0.0
C1707 C 0.0161 0.49434 0.01889 0.0
C1708 C 0.99537 0.47124 0.0102 0.0
C1709 C 0.011 0.44099 0.00845 0.0
C1710 C 0.96647 0.46869 0.0218 0.0
C1711 C 0.98972 0.48486 0.99063 0.0
C1712 C 0.00522 0.51119 0.9887 0.0
C1713 C 0.00383 0.52827 0.97222 0.0
C1714 C 0.986 0.51837 0.95722 0.0
C1715 C 0.96958 0.49159 0.95869 0.0
C1716 C 0.97159 0.47447 0.97564 0.0
H1717 H 0.55238 0.55184 0.47427 0.0
H1718 H 0.50964 0.48959 0.43566 0.0
H1719 H 0.47527 0.47463 0.46118 0.0
H1720 H 0.54956 0.50499 0.5152 0.0
H1721 H 0.542 0.53422 0.53211 0.0
H1722 H 0.56206 0.54234 0.51048 0.0
H1723 H 0.52352 0.58289 0.50183 0.0
H1724 H 0.50338 0.57496 0.52349 0.0
H1725 H 0.48464 0.57335 0.50076 0.0
H1726 H 0.44774 0.46381 0.49056 0.0
H1727 H 0.42749 0.45764 0.52285 0.0
H1728 H 0.48704 0.52623 0.54388 0.0
C1729 C 0.53545 0.53543 0.47118 0.0
C1730 C 0.53364 0.52191 0.45294 0.0
C1731 C 0.51152 0.50019 0.4495 0.0
C1732 C 0.4918 0.49159 0.4639 0.0
C1733 C 0.49443 0.50482 0.48177 0.0
C1734 C 0.51557 0.5263 0.48556 0.0
C1735 C 0.51423 0.53566 0.50644 0.0
C1736 C 0.54372 0.52889 0.51666 0.0
C1737 C 0.50594 0.56868 0.50823 0.0
C1738 C 0.48933 0.51578 0.51372 0.0
C1739 C 0.47827 0.49836 0.4991 0.0
C1740 C 0.45601 0.47746 0.50211 0.0
C1741 C 0.44472 0.47408 0.52057 0.0
C1742 C 0.45558 0.49148 0.53592 0.0
C1743 C 0.47809 0.51281 0.5324 0.0
H1744 H 0.29339 0.0996 0.34282 0.0
H1745 H 0.26186 0.14122 0.39492 0.0
H1746 H 0.2945 0.10854 0.41389 0.0
H1747 H 0.3009 0.02505 0.36122 0.0
H1748 H 0.33477 0.01721 0.34844 0.0
H1749 H 0.30836 0.04328 0.3388 0.0
H1750 H 0.34939 0.08355 0.33709 0.0
H1751 H 0.37594 0.0576 0.34671 0.0
H1752 H 0.37003 0.09285 0.35833 0.0
H1753 H 0.32859 0.07024 0.42737 0.0
H1754 H 0.36559 0.03142 0.43457 0.0
H1755 H 0.37877 0.01652 0.37393 0.0
C1756 C 0.29334 0.10171 0.35823 0.0
C1757 C 0.27494 0.12284 0.36743 0.0
C1758 C 0.27577 0.12524 0.38758 0.0
C1759 C 0.29418 0.1067 0.39849 0.0
C1760 C 0.31204 0.08613 0.38904 0.0
C1761 C 0.31213 0.08372 0.36937 0.0
C1762 C 0.33437 0.06039 0.36286 0.0
C1763 C 0.31865 0.03498 0.3522 0.0
C1764 C 0.35889 0.07444 0.35052 0.0
C1765 C 0.34653 0.04994 0.38196 0.0
C1766 C 0.33301 0.06492 0.39684 0.0
C1767 C 0.33953 0.05855 0.41584 0.0
C1768 C 0.36052 0.03637 0.41978 0.0
C1769 C 0.37519 0.02108 0.40483 0.0
C1770 C 0.36815 0.02808 0.38565 0.0
H1771 H 0.13873 0.02144 0.63537 0.0
H1772 H 0.16389 0.02047 0.57548 0.0
H1773 H 0.20375 0.05626 0.58205 0.0
H1774 H 0.15116 0.09862 0.64325 0.0
H1775 H 0.16656 0.09443 0.66686 0.0
H1776 H 0.14048 0.06745 0.6579 0.0
H1777 H 0.17844 0.02535 0.66424 0.0
H1778 H 0.20461 0.05221 0.67329 0.0
H1779 H 0.21514 0.02779 0.65404 0.0
H1780 H 0.23819 0.09487 0.59407 0.0
H1781 H 0.2678 0.13207 0.61159 0.0
H1782 H 0.22341 0.10737 0.66427 0.0
C1783 C 0.15287 0.02852 0.62372 0.0
C1784 C 0.14805 0.01805 0.60488 0.0
C1785 C 0.16702 0.02802 0.59002 0.0
C1786 C 0.1898 0.04843 0.59359 0.0
C1787 C 0.19374 0.05862 0.61217 0.0
C1788 C 0.17611 0.04885 0.62707 0.0
C1789 C 0.18515 0.06389 0.64564 0.0
C1790 C 0.1593 0.08219 0.65389 0.0
C1791 C 0.19652 0.04094 0.66016 0.0
C1792 C 0.21019 0.08389 0.6387 0.0
C1793 C 0.21459 0.08047 0.61931 0.0
C1794 C 0.23526 0.0975 0.60931 0.0
C1795 C 0.25191 0.11864 0.61937 0.0
C1796 C 0.24813 0.12242 0.63929 0.0
C1797 C 0.22712 0.10461 0.64909 0.0
H1798 H 0.23754 0.8892 0.88457 0.0
H1799 H 0.22308 0.90068 0.82368 0.0
H1800 H 0.18394 0.93715 0.8302 0.0
H1801 H 0.16074 0.89682 0.89918 0.0
H1802 H 0.16875 0.91814 0.92036 0.0
H1803 H 0.19578 0.89217 0.91131 0.0
H1804 H 0.23504 0.93415 0.90969 0.0
H1805 H 0.20814 0.96024 0.91876 0.0
H1806 H 0.22684 0.96757 0.89649 0.0
H1807 H 0.14526 0.97039 0.84249 0.0
H1808 H 0.11091 1.0026 0.86029 0.0
H1809 H 0.1508 0.97401 0.91368 0.0
C1810 C 0.2261 0.89946 0.87268 0.0
C1811 C 0.23346 0.89199 0.85359 0.0
C1812 C 0.21809 0.90606 0.83841 0.0
C1813 C 0.19565 0.92679 0.84195 0.0
C1814 C 0.18889 0.93371 0.86078 0.0
C1815 C 0.20376 0.92088 0.87596 0.0
C1816 C 0.19225 0.93336 0.89479 0.0
C1817 C 0.17857 0.90864 0.90714 0.0
C1818 C 0.21705 0.94981 0.90557 0.0
C1819 C 0.16855 0.95487 0.88769 0.0
C1820 C 0.16697 0.95432 0.868 0.0
C1821 C 0.14639 0.97125 0.85792 0.0
C1822 C 0.12688 0.98942 0.86818 0.0
C1823 C 0.12821 0.99096 0.88835 0.0
C1824 C 0.14946 0.97349 0.89825 0.0
H1825 H 0.27998 0.90072 0.1667 0.0
H1826 H 0.24853 0.86033 0.11416 0.0
H1827 H 0.2804 0.89408 0.09551 0.0
H1828 H 0.28678 0.97636 0.14894 0.0
H1829 H 0.32073 0.98404 0.16168 0.0
H1830 H 0.29444 0.95768 0.17119 0.0
H1831 H 0.33559 0.91751 0.17244 0.0
H1832 H 0.36199 0.94374 0.16298 0.0
H1833 H 0.35611 0.90872 0.15107 0.0
H1834 H 0.31434 0.93211 0.0824 0.0
H1835 H 0.35202 0.97004 0.07529 0.0
H1836 H 0.36524 0.98481 0.13599 0.0
C1837 C 0.27972 0.89919 0.15127 0.0
C1838 C 0.26161 0.87801 0.14185 0.0
C1839 C 0.26221 0.87633 0.12167 0.0
C1840 C 0.28016 0.89549 0.11094 0.0
C1841 C 0.29779 0.91601 0.12058 0.0
C1842 C 0.29808 0.91787 0.14027 0.0
C1843 C 0.32032 0.94116 0.14691 0.0
C1844 C 0.30462 0.9663 0.15783 0.0
C1845 C 0.34496 0.92693 0.15907 0.0
C1846 C 0.33234 0.95205 0.12786 0.0
C1847 C 0.31865 0.93738 0.11292 0.0
C1848 C 0.32533 0.94368 0.09396 0.0
C1849 C 0.34675 0.96539 0.09008 0.0
C1850 C 0.36168 0.98042 0.10506 0.0
C1851 C 0.35431 0.97362 0.12424 0.0
H1852 H 0.74436 0.88401 0.62209 0.0
H1853 H 0.74418 0.90763 0.68225 0.0
H1854 H 0.70705 0.94636 0.67602 0.0
H1855 H 0.73563 0.96068 0.60431 0.0
H1856 H 0.71173 0.94992 0.58484 0.0
H1857 H 0.73936 0.92438 0.59368 0.0
H1858 H 0.69844 0.88489 0.59938 0.0
H1859 H 0.6707 0.91034 0.59066 0.0
H1860 H 0.66684 0.89411 0.61406 0.0
H1861 H 0.66742 0.97976 0.66429 0.0
H1862 H 0.62983 0.00906 0.64696 0.0
H1863 H 0.65623 0.96701 0.59383 0.0
C1864 C 0.73674 0.89759 0.63388 0.0
C1865 C 0.74728 0.89266 0.65268 0.0
C1866 C 0.73661 0.91087 0.66772 0.0
C1867 C 0.71541 0.933 0.66435 0.0
C1868 C 0.70516 0.93703 0.6458 0.0
C1869 C 0.71563 0.92019 0.63073 0.0
C1870 C 0.70046 0.92928 0.61221 0.0
C1871 C 0.72315 0.94181 0.59791 0.0
C1872 C 0.68308 0.90309 0.60357 0.0
C1873 C 0.6796 0.95343 0.61937 0.0
C1874 C 0.68269 0.95733 0.63883 0.0
C1875 C 0.66502 0.97721 0.64901 0.0
C1876 C 0.64363 0.99367 0.63905 0.0
C1877 C 0.64023 0.99049 0.61906 0.0
C1878 C 0.65862 0.97019 0.60908 0.0
H1879 H 0.87686 0.99126 0.37364 0.0
H1880 H 0.85448 0.9871 0.43388 0.0
H1881 H 0.81689 0.94883 0.42716 0.0
H1882 H 0.80101 0.98342 0.35686 0.0
H1883 H 0.81072 0.96111 0.33641 0.0
H1884 H 0.83697 0.98756 0.34582 0.0
H1885 H 0.87607 0.94574 0.34958 0.0
H1886 H 0.84995 0.91918 0.34016 0.0
H1887 H 0.86683 0.91297 0.36315 0.0
H1888 H 0.78271 0.91005 0.41446 0.0
H1889 H 0.75151 0.87524 0.39597 0.0
H1890 H 0.79264 0.90603 0.34352 0.0
C1891 C 0.8641 0.98215 0.38537 0.0
C1892 C 0.86871 0.99214 0.40431 0.0
C1893 C 0.85132 0.97992 0.41926 0.0
C1894 C 0.82992 0.95806 0.41561 0.0
C1895 C 0.82574 0.94877 0.39686 0.0
C1896 C 0.84206 0.96055 0.38192 0.0
C1897 C 0.83213 0.94718 0.36303 0.0
C1898 C 0.81945 0.97126 0.34975 0.0
C1899 C 0.85778 0.93026 0.35342 0.0
C1900 C 0.80794 0.92603 0.36977 0.0
C1901 C 0.80489 0.92716 0.38937 0.0
C1902 C 0.78471 0.90911 0.39907 0.0
C1903 C 0.76711 0.88937 0.38846 0.0
C1904 C 0.76944 0.88808 0.36833 0.0
C1905 C 0.79009 0.90679 0.35889 0.0
H1906 H 0.76586 0.11992 0.11951 0.0
H1907 H 0.7681 0.09445 0.17932 0.0
H1908 H 0.80395 0.0549 0.17187 0.0
H1909 H 0.77154 0.04406 0.10048 0.0
H1910 H 0.79489 0.0548 0.08074 0.0
H1911 H 0.76854 0.08086 0.09048 0.0
H1912 H 0.81094 0.1188 0.09605 0.0
H1913 H 0.83741 0.09285 0.08636 0.0
H1914 H 0.8429 0.10799 0.10993 0.0
H1915 H 0.84188 0.0204 0.15877 0.0
H1916 H 0.87789 0.99083 0.14023 0.0
H1917 H 0.85036 0.0359 0.08837 0.0
C1918 C 0.77371 0.10584 0.13098 0.0
C1919 C 0.76407 0.11039 0.15003 0.0
C1920 C 0.77499 0.09148 0.16462 0.0
C1921 C 0.79545 0.0689 0.16055 0.0
C1922 C 0.80471 0.06515 0.14174 0.0
C1923 C 0.79407 0.08283 0.12713 0.0
C1924 C 0.80807 0.074 0.10818 0.0
C1925 C 0.78434 0.06276 0.09414 0.0
C1926 C 0.82589 0.09996 0.09963 0.0
C1927 C 0.82845 0.04892 0.11455 0.0
C1928 C 0.82615 0.04436 0.13401 0.0
C1929 C 0.84365 0.02351 0.14348 0.0
C1930 C 0.86411 0.00687 0.13283 0.0
C1931 C 0.86677 0.01085 0.11285 0.0
C1932 C 0.84848 0.03204 0.10359 0.0
H1933 H 0.63066 0.02094 0.8734 0.0
H1934 H 0.65182 0.02426 0.93384 0.0
H1935 H 0.68944 0.0628 0.92762 0.0
H1936 H 0.70678 0.02956 0.85717 0.0
H1937 H 0.69706 0.05206 0.83681 0.0
H1938 H 0.67102 0.02515 0.84592 0.0
H1939 H 0.63136 0.06645 0.8497 0.0
H1940 H 0.65728 0.09347 0.8406 0.0
H1941 H 0.64 0.09911 0.86354 0.0
H1942 H 0.72351 0.10223 0.91531 0.0
H1943 H 0.7544 0.13779 0.89714 0.0
H1944 H 0.71412 0.10724 0.84437 0.0
C1945 C 0.64319 0.02987 0.88529 0.0
C1946 C 0.63821 0.01964 0.90412 0.0
C1947 C 0.65528 0.03165 0.91928 0.0
C1948 C 0.67667 0.05364 0.91592 0.0
C1949 C 0.68114 0.06323 0.89725 0.0
C1950 C 0.66515 0.05158 0.88213 0.0
C1951 C 0.67513 0.06533 0.86339 0.0
C1952 C 0.68828 0.04161 0.85003 0.0
C1953 C 0.64941 0.08209 0.85374 0.0
C1954 C 0.69894 0.08662 0.87041 0.0
C1955 C 0.70183 0.0852 0.89002 0.0
C1956 C 0.72165 0.10339 0.89992 0.0
C1957 C 0.73906 0.12355 0.88949 0.0
C1958 C 0.73685 0.12511 0.86936 0.0
C1959 C 0.71656 0.10628 0.85974 0.0
H1960 H 0.77941 0.59566 0.83824 0.0
H1961 H 0.75913 0.64549 0.88974 0.0
H1962 H 0.7941 0.61447 0.90789 0.0
H1963 H 0.78767 0.52364 0.86091 0.0
H1964 H 0.81851 0.51215 0.84624 0.0
H1965 H 0.79141 0.53786 0.83696 0.0
H1966 H 0.83327 0.57551 0.82936 0.0
H1967 H 0.8605 0.54994 0.83864 0.0
H1968 H 0.85815 0.58712 0.84812 0.0
H1969 H 0.82924 0.57811 0.92087 0.0
H1970 H 0.86547 0.53894 0.92813 0.0
H1971 H 0.86689 0.51283 0.86844 0.0
C1972 C 0.7823 0.59988 0.85335 0.0
C1973 C 0.7664 0.62298 0.8626 0.0
C1974 C 0.77101 0.62802 0.88233 0.0
C1975 C 0.79083 0.61048 0.89279 0.0
C1976 C 0.8062 0.58806 0.88333 0.0
C1977 C 0.80246 0.58271 0.86406 0.0
C1978 C 0.82247 0.55735 0.85754 0.0
C1979 C 0.8039 0.5312 0.84997 0.0
C1980 C 0.84493 0.56813 0.84252 0.0
C1981 C 0.83784 0.54936 0.87621 0.0
C1982 C 0.82775 0.56735 0.89084 0.0
C1983 C 0.83747 0.56398 0.90954 0.0
C1984 C 0.858 0.54155 0.91352 0.0
C1985 C 0.86906 0.52287 0.89887 0.0
C1986 C 0.85903 0.52699 0.87988 0.0
H1987 H 0.7323 0.62647 0.1241 0.0
H1988 H 0.7311 0.60482 0.18449 0.0
H1989 H 0.69514 0.56464 0.17832 0.0
H1990 H 0.65454 0.61175 0.1147 0.0
H1991 H 0.66114 0.59531 0.09162 0.0
H1992 H 0.68627 0.62304 0.10076 0.0
H1993 H 0.73033 0.58662 0.09645 0.0
H1994 H 0.70531 0.55876 0.08735 0.0
H1995 H 0.72879 0.55047 0.10751 0.0
H1996 H 0.65826 0.52751 0.16591 0.0
H1997 H 0.62474 0.49443 0.14771 0.0
H1998 H 0.65156 0.53763 0.09507 0.0
C1999 C 0.72432 0.61335 0.13601 0.0
C2000 C 0.73446 0.61893 0.15482 0.0
C2001 C 0.72373 0.60101 0.16997 0.0
C2002 C 0.70323 0.57812 0.16662 0.0
C2003 C 0.69379 0.57306 0.14797 0.0
C2004 C 0.70409 0.58999 0.13287 0.0
C2005 C 0.69085 0.57926 0.11414 0.0
C2006 C 0.67208 0.6038 0.10476 0.0
C2007 C 0.71528 0.56811 0.10056 0.0
C2008 C 0.67147 0.55381 0.12111 0.0
C2009 C 0.67333 0.5508 0.1407 0.0
C2010 C 0.65679 0.52951 0.15053 0.0
C2011 C 0.63778 0.51082 0.14009 0.0
C2012 C 0.63572 0.51322 0.11998 0.0
C2013 C 0.65297 0.53496 0.11041 0.0
H2014 H 0.72499 0.40711 0.33721 0.0
H2015 H 0.75529 0.3653 0.38955 0.0
H2016 H 0.72257 0.39838 0.40825 0.0
H2017 H 0.71833 0.48169 0.35539 0.0
H2018 H 0.68483 0.49002 0.34233 0.0
H2019 H 0.711 0.46349 0.33294 0.0
H2020 H 0.6694 0.42383 0.33098 0.0
H2021 H 0.64308 0.45025 0.34032 0.0
H2022 H 0.64819 0.41498 0.35207 0.0
H2023 H 0.68833 0.43699 0.42137 0.0
H2024 H 0.65148 0.47601 0.42818 0.0
H2025 H 0.6402 0.49136 0.36741 0.0
C2026 C 0.72475 0.40499 0.35261 0.0
C2027 C 0.74285 0.38372 0.36195 0.0
C2028 C 0.74165 0.38138 0.3821 0.0
C2029 C 0.72319 0.40014 0.39284 0.0
C2030 C 0.70571 0.4209 0.38323 0.0
C2031 C 0.70601 0.42324 0.36357 0.0
C2032 C 0.68428 0.44689 0.35683 0.0
C2033 C 0.70059 0.47201 0.34625 0.0
C2034 C 0.65979 0.43316 0.34431 0.0
C2035 C 0.6719 0.45762 0.37579 0.0
C2036 C 0.68487 0.44246 0.39081 0.0
C2037 C 0.67788 0.44886 0.40973 0.0
C2038 C 0.65696 0.47118 0.41344 0.0
C2039 C 0.64285 0.48672 0.39834 0.0
C2040 C 0.65044 0.47974 0.37924 0.0
H2041 H 0.85268 0.46757 0.5924 0.0
H2042 H 0.88001 0.51261 0.64429 0.0
H2043 H 0.84496 0.48194 0.66291 0.0
H2044 H 0.7746 0.45793 0.60475 0.0
H2045 H 0.7721 0.42131 0.59445 0.0
H2046 H 0.79808 0.44792 0.58491 0.0
H2047 H 0.84106 0.41053 0.59012 0.0
H2048 H 0.81524 0.38385 0.59973 0.0
H2049 H 0.84711 0.39509 0.61356 0.0
H2050 H 0.80711 0.44701 0.67594 0.0
H2051 H 0.77041 0.40797 0.68306 0.0
H2052 H 0.76912 0.38247 0.62328 0.0
C2053 C 0.85097 0.47117 0.60765 0.0
C2054 C 0.86887 0.4927 0.6169 0.0
C2055 C 0.86648 0.49635 0.63692 0.0
C2056 C 0.8466 0.47905 0.64761 0.0
C2057 C 0.82948 0.45786 0.63813 0.0
C2058 C 0.83156 0.45364 0.61863 0.0
C2059 C 0.81152 0.42832 0.61221 0.0
C2060 C 0.78766 0.43955 0.59825 0.0
C2061 C 0.82983 0.40294 0.60338 0.0
C2062 C 0.79788 0.41903 0.63114 0.0
C2063 C 0.8084 0.43666 0.64583 0.0
C2064 C 0.79879 0.433 0.66457 0.0
C2065 C 0.77786 0.41075 0.66846 0.0
C2066 C 0.76694 0.39206 0.65376 0.0
C2067 C 0.77723 0.39624 0.63484 0.0
H2068 H 0.15138 0.46321 0.09184 0.0
H2069 H 0.11394 0.49631 0.14484 0.0
H2070 H 0.14933 0.46553 0.16311 0.0
H2071 H 0.1615 0.38759 0.10871 0.0
H2072 H 0.1956 0.38184 0.09573 0.0
H2073 H 0.16806 0.40725 0.08667 0.0
H2074 H 0.20744 0.44919 0.08573 0.0
H2075 H 0.23508 0.42396 0.09486 0.0
H2076 H 0.22769 0.45837 0.10714 0.0
H2077 H 0.18954 0.43314 0.17564 0.0
H2078 H 0.22904 0.39675 0.1821 0.0
H2079 H 0.23891 0.38094 0.12126 0.0
C2080 C 0.15074 0.46396 0.1073 0.0
C2081 C 0.13005 0.48227 0.11697 0.0
C2082 C 0.12955 0.48241 0.13717 0.0
C2083 C 0.14965 0.46511 0.14766 0.0
C2084 C 0.16981 0.44739 0.13775 0.0
C2085 C 0.17028 0.44627 0.11804 0.0
C2086 C 0.19345 0.42423 0.11104 0.0
C2087 C 0.17877 0.39871 0.09988 0.0
C2088 C 0.21733 0.43988 0.09898 0.0
C2089 C 0.20608 0.41339 0.12991 0.0
C2090 C 0.19227 0.4274 0.14508 0.0
C2091 C 0.20039 0.42186 0.16391 0.0
C2092 C 0.22298 0.4012 0.16741 0.0
C2093 C 0.23705 0.3859 0.1522 0.0
C2094 C 0.22847 0.39216 0.13317 0.0
H2095 H 0.37015 0.49232 0.87455 0.0
H2096 H 0.36041 0.47134 0.93469 0.0
H2097 H 0.32583 0.43076 0.92664 0.0
H2098 H 0.2927 0.48026 0.86299 0.0
H2099 H 0.29996 0.46466 0.83975 0.0
H2100 H 0.32551 0.49108 0.84995 0.0
H2101 H 0.36854 0.45341 0.8459 0.0
H2102 H 0.3431 0.42686 0.8357 0.0
H2103 H 0.36519 0.41682 0.85618 0.0
H2104 H 0.2931 0.3919 0.9124 0.0
H2105 H 0.26064 0.35973 0.89294 0.0
H2106 H 0.28763 0.40736 0.84191 0.0
C2107 C 0.36086 0.47899 0.88595 0.0
C2108 C 0.36814 0.48487 0.90527 0.0
C2109 C 0.35514 0.46729 0.91982 0.0
C2110 C 0.33554 0.44409 0.91539 0.0
C2111 C 0.32863 0.4389 0.8963 0.0
C2112 C 0.34054 0.45602 0.88179 0.0
C2113 C 0.32791 0.44658 0.86256 0.0
C2114 C 0.31049 0.47217 0.85327 0.0
C2115 C 0.35267 0.43524 0.8493 0.0
C2116 C 0.30729 0.42145 0.86858 0.0
C2117 C 0.30841 0.41724 0.88811 0.0
C2118 C 0.2919 0.39508 0.8971 0.0
C2119 C 0.27355 0.37685 0.88591 0.0
C2120 C 0.27142 0.38105 0.86591 0.0
C2121 C 0.28861 0.40371 0.85718 0.0
H2122 H 0.3569 0.54257 0.5884 0.0
H2123 H 0.39531 0.5077 0.64063 0.0
H2124 H 0.36164 0.53954 0.65959 0.0
H2125 H 0.34941 0.61844 0.60567 0.0
H2126 H 0.31503 0.62503 0.59316 0.0
H2127 H 0.34173 0.59912 0.58366 0.0
H2128 H 0.30146 0.558 0.58309 0.0
H2129 H 0.27465 0.58374 0.59264 0.0
H2130 H 0.28168 0.54909 0.60474 0.0
H2131 H 0.32226 0.573 0.67283 0.0
H2132 H 0.28278 0.6094 0.67977 0.0
H2133 H 0.2719 0.62588 0.61911 0.0
C2134 C 0.35818 0.54166 0.60384 0.0
C2135 C 0.37859 0.52252 0.61308 0.0
C2136 C 0.37988 0.52221 0.63327 0.0
C2137 C 0.36079 0.54014 0.64415 0.0
C2138 C 0.34085 0.55866 0.63462 0.0
C2139 C 0.33967 0.55991 0.61493 0.0
C2140 C 0.31676 0.58248 0.6083 0.0
C2141 C 0.33163 0.60777 0.59703 0.0
C2142 C 0.29218 0.56742 0.5965 0.0
C2143 C 0.30496 0.59342 0.62735 0.0
C2144 C 0.31903 0.57913 0.64231 0.0
C2145 C 0.3113 0.58454 0.66124 0.0
C2146 C 0.28874 0.60519 0.66503 0.0
C2147 C 0.27435 0.6206 0.64999 0.0
C2148 C 0.2827 0.61466 0.63089 0.0
H2149 H 0.13432 0.52013 0.37448 0.0
H2150 H 0.1601 0.52065 0.43421 0.0
H2151 H 0.19934 0.55718 0.42715 0.0
H2152 H 0.20947 0.52529 0.35576 0.0
H2153 H 0.19937 0.54898 0.33604 0.0
H2154 H 0.17267 0.52316 0.34567 0.0
H2155 H 0.13563 0.56632 0.35132 0.0
H2156 H 0.16219 0.59225 0.34168 0.0
H2157 H 0.14712 0.59801 0.36524 0.0
H2158 H 0.23448 0.59495 0.41419 0.0
H2159 H 0.26531 0.62995 0.39564 0.0
H2160 H 0.21974 0.6035 0.34374 0.0
C2161 C 0.14821 0.52801 0.38604 0.0
C2162 C 0.14404 0.51756 0.40493 0.0
C2163 C 0.16286 0.52822 0.41964 0.0
C2164 C 0.18523 0.54905 0.41578 0.0
C2165 C 0.18886 0.55884 0.39707 0.0
C2166 C 0.17111 0.54857 0.38238 0.0
C2167 C 0.18032 0.56244 0.36348 0.0
C2168 C 0.1911 0.53854 0.34941 0.0
C2169 C 0.15479 0.58085 0.35493 0.0
C2170 C 0.2058 0.58224 0.36993 0.0
C2171 C 0.21013 0.57992 0.38941 0.0
C2172 C 0.2315 0.59678 0.3989 0.0
C2173 C 0.24889 0.61663 0.38824 0.0
C2174 C 0.24515 0.61926 0.36824 0.0
C2175 C 0.22342 0.60163 0.35898 0.0
loop_
_geom_bond_atom_site_label_1
_geom_bond_atom_site_label_2
_geom_bond_distance
_geom_bond_site_symmetry_2
_ccdc_geom_bond_type
Co0 O1 2.216 . S
Co0 O2 2.091 . S
Co0 O4 2.004 . S
Co0 O10 2.021 . S
Co0 O12 2.137 . S
Co0 O13 2.244 . S
O1 Co0 2.216 . S
O1 C8 1.247 . S
O2 Co0 2.091 . S
O2 C8 1.261 . S
C3 O12 1.247 . S
C3 O13 1.272 . S
O4 Co0 2.004 . S
O4 C9 1.259 . S
Co5 O6 2.061 . S
Co5 O11 2.052 . S
Co5 O13 2.135 . S
O6 Co5 2.061 . S
O6 C9 1.235 . S
C7 O10 1.238 . S
C7 O11 1.241 . S
C8 O1 1.247 . S
C8 O2 1.261 . S
C9 O4 1.259 . S
C9 O6 1.235 . S
O10 Co0 2.021 . S
O10 C7 1.238 . S
O11 Co5 2.052 . S
O11 C7 1.241 . S
O12 Co0 2.137 . S
O12 C3 1.247 . S
O13 Co0 2.244 . S
O13 C3 1.272 . S
O13 Co5 2.135 . S
Co14 O15 2.216 . S
Co14 O16 2.091 1_565 S
Co14 O18 2.004 . S
Co14 O24 2.021 . S
Co14 O26 2.137 1_565 S
Co14 O27 2.244 . S
O15 Co14 2.216 . S
O15 C22 1.247 1_565 S
O16 Co14 2.091 1_545 S
O16 C22 1.261 . S
C17 O26 1.247 1_565 S
C17 O27 1.272 . S
O18 Co14 2.004 . S
O18 C23 1.260 . S
Co19 O20 2.061 . S
Co19 O25 2.052 . S
Co19 O27 2.135 . S
O20 Co19 2.061 . S
O20 C23 1.235 . S
C21 O24 1.238 . S
C21 O25 1.241 . S
C22 O15 1.247 1_545 S
C22 O16 1.261 . S
C23 O18 1.260 . S
C23 O20 1.235 . S
O24 Co14 2.021 . S
O24 C21 1.238 . S
O25 Co19 2.052 . S
O25 C21 1.241 . S
O26 Co14 2.137 1_545 S
O26 C17 1.247 1_545 S
O27 Co14 2.244 . S
O27 C17 1.272 . S
O27 Co19 2.135 . S
Co28 O29 2.216 . S
Co28 O30 2.091 . S
Co28 O32 2.004 . S
Co28 O38 2.021 . S
Co28 O40 2.137 . S
Co28 O41 2.244 . S
O29 Co28 2.216 . S
O29 C36 1.247 . S
O30 Co28 2.091 . S
O30 C36 1.261 . S
C31 O40 1.247 . S
C31 O41 1.272 . S
O32 Co28 2.004 . S
O32 C37 1.259 . S
Co33 O34 2.061 . S
Co33 O39 2.052 . S
Co33 O41 2.135 . S
O34 Co33 2.061 . S
O34 C37 1.235 . S
C35 O38 1.238 . S
C35 O39 1.241 . S
C36 O29 1.247 . S
C36 O30 1.261 . S
C37 O32 1.259 . S
C37 O34 1.235 . S
O38 Co28 2.021 . S
O38 C35 1.238 . S
O39 Co33 2.052 . S
O39 C35 1.241 . S
O40 Co28 2.137 . S
O40 C31 1.247 . S
O41 Co28 2.244 . S
O41 C31 1.272 . S
O41 Co33 2.135 . S
Co42 O43 2.216 . S
Co42 O44 2.091 1_545 S
Co42 O46 2.004 . S
Co42 O52 2.021 . S
Co42 O54 2.137 1_545 S
Co42 O55 2.244 . S
O43 Co42 2.216 . S
O43 C50 1.247 1_545 S
O44 Co42 2.091 1_565 S
O44 C50 1.261 . S
C45 O54 1.247 1_545 S
C45 O55 1.272 . S
O46 Co42 2.004 . S
O46 C51 1.259 . S
Co47 O48 2.061 . S
Co47 O53 2.052 . S
Co47 O55 2.135 . S
O48 Co47 2.061 . S
O48 C51 1.235 . S
C49 O52 1.238 . S
C49 O53 1.241 . S
C50 O43 1.247 1_565 S
C50 O44 1.261 . S
C51 O46 1.259 . S
C51 O48 1.235 . S
O52 Co42 2.021 . S
O52 C49 1.238 . S
O53 Co47 2.052 . S
O53 C49 1.241 . S
O54 Co42 2.137 1_565 S
O54 C45 1.247 1_565 S
O55 Co42 2.244 . S
O55 C45 1.272 . S
O55 Co47 2.135 . S
Co56 O57 2.216 . S
Co56 O58 2.091 . S
Co56 O60 2.004 . S
Co56 O66 2.021 . S
Co56 O68 2.137 . S
Co56 O69 2.244 . S
O57 Co56 2.216 . S
O57 C64 1.247 . S
O58 Co56 2.091 . S
O58 C64 1.261 . S
C59 O68 1.247 . S
C59 O69 1.272 . S
O60 Co56 2.004 . S
O60 C65 1.259 . S
Co61 O62 2.061 . S
Co61 O67 2.052 . S
Co61 O69 2.135 . S
O62 Co61 2.061 . S
O62 C65 1.235 . S
C63 O66 1.238 . S
C63 O67 1.241 . S
C64 O57 1.247 . S
C64 O58 1.261 . S
C65 O60 1.259 . S
C65 O62 1.235 . S
O66 Co56 2.021 . S
O66 C63 1.238 . S
O67 Co61 2.052 . S
O67 C63 1.241 . S
O68 Co56 2.137 . S
O68 C59 1.247 . S
O69 Co56 2.244 . S
O69 C59 1.272 . S
O69 Co61 2.135 . S
Co70 O71 2.216 . S
Co70 O72 2.091 1_565 S
Co70 O74 2.004 . S
Co70 O80 2.021 . S
Co70 O82 2.137 1_565 S
Co70 O83 2.244 . S
O71 Co70 2.216 . S
O71 C78 1.247 1_565 S
O72 Co70 2.091 1_545 S
O72 C78 1.261 . S
C73 O82 1.247 1_565 S
C73 O83 1.272 . S
O74 Co70 2.004 . S
O74 C79 1.259 . S
Co75 O76 2.061 . S
Co75 O81 2.052 . S
Co75 O83 2.135 . S
O76 Co75 2.061 . S
O76 C79 1.235 . S
C77 O80 1.238 . S
C77 O81 1.241 . S
C78 O71 1.247 1_545 S
C78 O72 1.261 . S
C79 O74 1.259 . S
C79 O76 1.235 . S
O80 Co70 2.021 . S
O80 C77 1.238 . S
O81 Co75 2.052 . S
O81 C77 1.241 . S
O82 Co70 2.137 1_545 S
O82 C73 1.247 1_545 S
O83 Co70 2.244 . S
O83 C73 1.272 . S
O83 Co75 2.135 . S
Co84 O85 2.216 . S
Co84 O86 2.091 . S
Co84 O88 2.004 . S
Co84 O94 2.021 . S
Co84 O96 2.137 . S
Co84 O97 2.244 . S
O85 Co84 2.216 . S
O85 C92 1.247 . S
O86 Co84 2.091 . S
O86 C92 1.261 . S
C87 O96 1.247 . S
C87 O97 1.272 . S
O88 Co84 2.004 . S
O88 C93 1.259 . S
Co89 O90 2.061 . S
Co89 O95 2.052 . S
Co89 O97 2.135 . S
O90 Co89 2.061 . S
O90 C93 1.235 . S
C91 O94 1.238 . S
C91 O95 1.241 . S
C92 O85 1.247 . S
C92 O86 1.261 . S
C93 O88 1.259 . S
C93 O90 1.235 . S
O94 Co84 2.021 . S
O94 C91 1.238 . S
O95 Co89 2.052 . S
O95 C91 1.241 . S
O96 Co84 2.137 . S
O96 C87 1.247 . S
O97 Co84 2.244 . S
O97 C87 1.272 . S
O97 Co89 2.135 . S
Co98 O99 2.216 . S
Co98 O100 2.091 1_545 S
Co98 O102 2.004 . S
Co98 O108 2.021 . S
Co98 O110 2.137 1_545 S
Co98 O111 2.244 . S
O99 Co98 2.216 . S
O99 C106 1.247 1_545 S
O100 Co98 2.091 1_565 S
O100 C106 1.261 . S
C101 O110 1.247 1_545 S
C101 O111 1.272 . S
O102 Co98 2.004 . S
O102 C107 1.260 . S
Co103 O104 2.061 . S
Co103 O109 2.052 . S
Co103 O111 2.135 . S
O104 Co103 2.061 . S
O104 C107 1.235 . S
C105 O108 1.238 . S
C105 O109 1.241 . S
C106 O99 1.247 1_565 S
C106 O100 1.261 . S
C107 O102 1.260 . S
C107 O104 1.235 . S
O108 Co98 2.021 . S
O108 C105 1.238 . S
O109 Co103 2.052 . S
O109 C105 1.241 . S
O110 Co98 2.137 1_565 S
O110 C101 1.247 1_565 S
O111 Co98 2.244 . S
O111 C101 1.272 . S
O111 Co103 2.135 . S
Co112 O113 2.216 . S
Co112 O114 2.091 . S
Co112 O116 2.004 . S
Co112 O122 2.021 . S
Co112 O124 2.137 . S
Co112 O125 2.244 . S
O113 Co112 2.216 . S
O113 C120 1.247 . S
O114 Co112 2.091 . S
O114 C120 1.261 . S
C115 O124 1.247 . S
C115 O125 1.272 . S
O116 Co112 2.004 . S
O116 C121 1.259 . S
Co117 O118 2.061 . S
Co117 O123 2.052 . S
Co117 O125 2.135 . S
O118 Co117 2.061 . S
O118 C121 1.235 . S
C119 O122 1.238 . S
C119 O123 1.241 . S
C120 O113 1.247 . S
C120 O114 1.261 . S
C121 O116 1.259 . S
C121 O118 1.235 . S
O122 Co112 2.021 . S
O122 C119 1.238 . S
O123 Co117 2.052 . S
O123 C119 1.241 . S
O124 Co112 2.137 . S
O124 C115 1.247 . S
O125 Co112 2.244 . S
O125 C115 1.272 . S
O125 Co117 2.135 . S
Co126 O127 2.216 . S
Co126 O128 2.091 1_545 S
Co126 O130 2.004 . S
Co126 O136 2.021 . S
Co126 O138 2.137 1_545 S
Co126 O139 2.244 . S
O127 Co126 2.216 . S
O127 C134 1.247 1_545 S
O128 Co126 2.091 1_565 S
O128 C134 1.261 . S
C129 O138 1.247 1_545 S
C129 O139 1.272 . S
O130 Co126 2.004 . S
O130 C135 1.260 . S
Co131 O132 2.061 . S
Co131 O137 2.052 . S
Co131 O139 2.135 . S
O132 Co131 2.061 . S
O132 C135 1.235 . S
C133 O136 1.238 . S
C133 O137 1.241 . S
C134 O127 1.247 1_565 S
C134 O128 1.261 . S
C135 O130 1.260 . S
C135 O132 1.235 . S
O136 Co126 2.021 . S
O136 C133 1.238 . S
O137 Co131 2.052 . S
O137 C133 1.241 . S
O138 Co126 2.137 1_565 S
O138 C129 1.247 1_565 S
O139 Co126 2.244 . S
O139 C129 1.272 . S
O139 Co131 2.135 . S
Co140 O141 2.216 . S
Co140 O142 2.091 . S
Co140 O144 2.004 . S
Co140 O150 2.021 . S
Co140 O152 2.137 . S
Co140 O153 2.244 . S
O141 Co140 2.216 . S
O141 C148 1.247 . S
O142 Co140 2.091 . S
O142 C148 1.261 . S
C143 O152 1.247 . S
C143 O153 1.272 . S
O144 Co140 2.004 . S
O144 C149 1.259 . S
Co145 O146 2.061 . S
Co145 O151 2.052 . S
Co145 O153 2.135 . S
O146 Co145 2.061 . S
O146 C149 1.235 . S
C147 O150 1.238 . S
C147 O151 1.241 . S
C148 O141 1.247 . S
C148 O142 1.261 . S
C149 O144 1.259 . S
C149 O146 1.235 . S
O150 Co140 2.021 . S
O150 C147 1.238 . S
O151 Co145 2.052 . S
O151 C147 1.241 . S
O152 Co140 2.137 . S
O152 C143 1.247 . S
O153 Co140 2.244 . S
O153 C143 1.272 . S
O153 Co145 2.135 . S
Co154 O155 2.216 . S
Co154 O156 2.091 1_565 S
Co154 O158 2.004 . S
Co154 O164 2.021 . S
Co154 O166 2.137 1_565 S
Co154 O167 2.244 . S
O155 Co154 2.216 . S
O155 C162 1.247 1_565 S
O156 Co154 2.091 1_545 S
O156 C162 1.261 . S
C157 O166 1.247 1_565 S
C157 O167 1.272 . S
O158 Co154 2.004 . S
O158 C163 1.259 . S
Co159 O160 2.061 . S
Co159 O165 2.052 . S
Co159 O167 2.135 . S
O160 Co159 2.061 . S
O160 C163 1.235 . S
C161 O164 1.238 . S
C161 O165 1.241 . S
C162 O155 1.247 1_545 S
C162 O156 1.261 . S
C163 O158 1.259 . S
C163 O160 1.235 . S
O164 Co154 2.021 . S
O164 C161 1.238 . S
O165 Co159 2.052 . S
O165 C161 1.241 . S
O166 Co154 2.137 1_545 S
O166 C157 1.247 1_545 S
O167 Co154 2.244 . S
O167 C157 1.272 . S
O167 Co159 2.135 . S
Co168 O169 2.216 . S
Co168 O170 2.091 . S
Co168 O172 2.004 . S
Co168 O178 2.021 . S
Co168 O180 2.137 . S
Co168 O181 2.244 . S
O169 Co168 2.216 . S
O169 C176 1.247 . S
O170 Co168 2.091 . S
O170 C176 1.261 . S
C171 O180 1.247 . S
C171 O181 1.272 . S
O172 Co168 2.004 . S
O172 C177 1.259 . S
Co173 O174 2.061 . S
Co173 O179 2.052 . S
Co173 O181 2.135 . S
O174 Co173 2.061 . S
O174 C177 1.235 . S
C175 O178 1.238 . S
C175 O179 1.241 . S
C176 O169 1.247 . S
C176 O170 1.261 . S
C177 O172 1.259 . S
C177 O174 1.235 . S
O178 Co168 2.021 . S
O178 C175 1.238 . S
O179 Co173 2.052 . S
O179 C175 1.241 . S
O180 Co168 2.137 . S
O180 C171 1.247 . S
O181 Co168 2.244 . S
O181 C171 1.272 . S
O181 Co173 2.135 . S
Co182 O183 2.216 . S
Co182 O184 2.091 1_545 S
Co182 O186 2.004 . S
Co182 O192 2.021 . S
Co182 O194 2.137 1_545 S
Co182 O195 2.244 . S
O183 Co182 2.216 . S
O183 C190 1.247 1_545 S
O184 Co182 2.091 1_565 S
O184 C190 1.261 . S
C185 O194 1.247 1_545 S
C185 O195 1.272 . S
O186 Co182 2.004 . S
O186 C191 1.259 . S
Co187 O188 2.061 . S
Co187 O193 2.052 . S
Co187 O195 2.135 . S
O188 Co187 2.061 . S
O188 C191 1.235 . S
C189 O192 1.238 . S
C189 O193 1.241 . S
C190 O183 1.247 1_565 S
C190 O184 1.261 . S
C191 O186 1.259 . S
C191 O188 1.235 . S
O192 Co182 2.021 . S
O192 C189 1.238 . S
O193 Co187 2.052 . S
O193 C189 1.241 . S
O194 Co182 2.137 1_565 S
O194 C185 1.247 1_565 S
O195 Co182 2.244 . S
O195 C185 1.272 . S
O195 Co187 2.135 . S
Co196 O197 2.216 . S
Co196 O198 2.091 . S
Co196 O200 2.004 . S
Co196 O206 2.021 . S
Co196 O208 2.137 . S
Co196 O209 2.244 . S
O197 Co196 2.216 . S
O197 C204 1.247 . S
O198 Co196 2.091 . S
O198 C204 1.261 . S
C199 O208 1.247 . S
C199 O209 1.272 . S
O200 Co196 2.004 . S
O200 C205 1.259 . S
Co201 O202 2.061 . S
Co201 O207 2.052 . S
Co201 O209 2.135 . S
O202 Co201 2.061 . S
O202 C205 1.235 . S
C203 O206 1.238 . S
C203 O207 1.241 . S
C204 O197 1.247 . S
C204 O198 1.261 . S
C205 O200 1.259 . S
C205 O202 1.235 . S
O206 Co196 2.021 . S
O206 C203 1.238 . S
O207 Co201 2.052 . S
O207 C203 1.241 . S
O208 Co196 2.137 . S
O208 C199 1.247 . S
O209 Co196 2.244 . S
O209 C199 1.272 . S
O209 Co201 2.135 . S
Co210 O211 2.216 . S
Co210 O212 2.091 1_565 S
Co210 O214 2.004 . S
Co210 O220 2.021 . S
Co210 O222 2.137 1_565 S
Co210 O223 2.244 . S
O211 Co210 2.216 . S
O211 C218 1.247 1_565 S
O212 Co210 2.091 1_545 S
O212 C218 1.261 . S
C213 O222 1.247 1_565 S
C213 O223 1.272 . S
O214 Co210 2.004 . S
O214 C219 1.260 . S
Co215 O216 2.061 . S
Co215 O221 2.052 . S
Co215 O223 2.135 . S
O216 Co215 2.061 . S
O216 C219 1.235 . S
C217 O220 1.238 . S
C217 O221 1.241 . S
C218 O211 1.247 1_545 S
C218 O212 1.261 . S
C219 O214 1.260 . S
C219 O216 1.235 . S
O220 Co210 2.021 . S
O220 C217 1.238 . S
O221 Co215 2.052 . S
O221 C217 1.241 . S
O222 Co210 2.137 1_545 S
O222 C213 1.247 1_545 S
O223 Co210 2.244 . S
O223 C213 1.272 . S
O223 Co215 2.135 . S
Co224 O225 2.216 . S
Co224 O226 2.091 . S
Co224 O228 2.004 . S
Co224 O234 2.021 . S
Co224 O236 2.137 . S
Co224 O237 2.244 . S
O225 Co224 2.216 . S
O225 C232 1.247 . S
O226 Co224 2.091 . S
O226 C232 1.261 . S
C227 O236 1.247 . S
C227 O237 1.272 . S
O228 Co224 2.004 . S
O228 C233 1.259 . S
Co229 O230 2.061 . S
Co229 O235 2.052 . S
Co229 O237 2.135 . S
O230 Co229 2.061 . S
O230 C233 1.235 . S
C231 O234 1.238 . S
C231 O235 1.241 . S
C232 O225 1.247 . S
C232 O226 1.261 . S
C233 O228 1.259 . S
C233 O230 1.235 . S
O234 Co224 2.021 . S
O234 C231 1.238 . S
O235 Co229 2.052 . S
O235 C231 1.241 . S
O236 Co224 2.137 . S
O236 C227 1.247 . S
O237 Co224 2.244 . S
O237 C227 1.272 . S
O237 Co229 2.135 . S
Co238 O239 2.216 . S
Co238 O240 2.091 . S
Co238 O242 2.004 . S
Co238 O248 2.021 . S
Co238 O250 2.137 . S
Co238 O251 2.244 . S
O239 Co238 2.216 . S
O239 C246 1.247 . S
O240 Co238 2.091 . S
O240 C246 1.261 . S
C241 O250 1.247 . S
C241 O251 1.272 . S
O242 Co238 2.004 . S
O242 C247 1.259 . S
Co243 O244 2.061 . S
Co243 O249 2.052 . S
Co243 O251 2.135 . S
O244 Co243 2.061 . S
O244 C247 1.235 . S
C245 O248 1.238 . S
C245 O249 1.241 . S
C246 O239 1.247 . S
C246 O240 1.261 . S
C247 O242 1.259 . S
C247 O244 1.235 . S
O248 Co238 2.021 . S
O248 C245 1.238 . S
O249 Co243 2.052 . S
O249 C245 1.241 . S
O250 Co238 2.137 . S
O250 C241 1.247 . S
O251 Co238 2.244 . S
O251 C241 1.272 . S
O251 Co243 2.135 . S
Co252 O253 2.216 . S
Co252 O254 2.091 . S
Co252 O256 2.004 . S
Co252 O262 2.021 . S
Co252 O264 2.137 . S
Co252 O265 2.244 . S
O253 Co252 2.216 . S
O253 C260 1.247 . S
O254 Co252 2.091 . S
O254 C260 1.261 . S
C255 O264 1.247 . S
C255 O265 1.272 . S
O256 Co252 2.004 . S
O256 C261 1.259 . S
Co257 O258 2.061 . S
Co257 O263 2.052 . S
Co257 O265 2.135 . S
O258 Co257 2.061 . S
O258 C261 1.235 . S
C259 O262 1.238 . S
C259 O263 1.241 . S
C260 O253 1.247 . S
C260 O254 1.261 . S
C261 O256 1.259 . S
C261 O258 1.235 . S
O262 Co252 2.021 . S
O262 C259 1.238 . S
O263 Co257 2.052 . S
O263 C259 1.241 . S
O264 Co252 2.137 . S
O264 C255 1.247 . S
O265 Co252 2.244 . S
O265 C255 1.272 . S
O265 Co257 2.135 . S
Co266 O267 2.216 . S
Co266 O268 2.091 . S
Co266 O270 2.004 . S
Co266 O276 2.021 . S
Co266 O278 2.137 . S
Co266 O279 2.244 . S
O267 Co266 2.216 . S
O267 C274 1.247 . S
O268 Co266 2.091 . S
O268 C274 1.261 . S
C269 O278 1.247 . S
C269 O279 1.272 . S
O270 Co266 2.004 . S
O270 C275 1.260 . S
Co271 O272 2.061 . S
Co271 O277 2.052 . S
Co271 O279 2.135 . S
O272 Co271 2.061 . S
O272 C275 1.235 . S
C273 O276 1.238 . S
C273 O277 1.241 . S
C274 O267 1.247 . S
C274 O268 1.261 . S
C275 O270 1.260 . S
C275 O272 1.235 . S
O276 Co266 2.021 . S
O276 C273 1.238 . S
O277 Co271 2.052 . S
O277 C273 1.241 . S
O278 Co266 2.137 . S
O278 C269 1.247 . S
O279 Co266 2.244 . S
O279 C269 1.272 . S
O279 Co271 2.135 . S
Co280 O281 2.216 . S
Co280 O282 2.091 . S
Co280 O284 2.004 . S
Co280 O290 2.021 . S
Co280 O292 2.137 . S
Co280 O293 2.244 . S
O281 Co280 2.216 . S
O281 C288 1.247 . S
O282 Co280 2.091 . S
O282 C288 1.261 . S
C283 O292 1.247 . S
C283 O293 1.272 . S
O284 Co280 2.004 . S
O284 C289 1.259 . S
Co285 O286 2.061 . S
Co285 O291 2.052 . S
Co285 O293 2.135 . S
O286 Co285 2.061 . S
O286 C289 1.235 . S
C287 O290 1.238 . S
C287 O291 1.241 . S
C288 O281 1.247 . S
C288 O282 1.261 . S
C289 O284 1.259 . S
C289 O286 1.235 . S
O290 Co280 2.021 . S
O290 C287 1.238 . S
O291 Co285 2.052 . S
O291 C287 1.241 . S
O292 Co280 2.137 . S
O292 C283 1.247 . S
O293 Co280 2.244 . S
O293 C283 1.272 . S
O293 Co285 2.135 . S
Co294 O295 2.216 . S
Co294 O296 2.091 . S
Co294 O298 2.004 . S
Co294 O304 2.021 . S
Co294 O306 2.137 . S
Co294 O307 2.244 . S
O295 Co294 2.216 . S
O295 C302 1.247 . S
O296 Co294 2.091 . S
O296 C302 1.261 . S
C297 O306 1.247 . S
C297 O307 1.272 . S
O298 Co294 2.004 . S
O298 C303 1.260 . S
Co299 O300 2.061 . S
Co299 O305 2.052 . S
Co299 O307 2.135 . S
O300 Co299 2.061 . S
O300 C303 1.235 . S
C301 O304 1.238 . S
C301 O305 1.241 . S
C302 O295 1.247 . S
C302 O296 1.261 . S
C303 O298 1.260 . S
C303 O300 1.235 . S
O304 Co294 2.021 . S
O304 C301 1.238 . S
O305 Co299 2.052 . S
O305 C301 1.241 . S
O306 Co294 2.137 . S
O306 C297 1.247 . S
O307 Co294 2.244 . S
O307 C297 1.272 . S
O307 Co299 2.135 . S
Co308 O309 2.216 . S
Co308 O310 2.091 . S
Co308 O312 2.004 . S
Co308 O318 2.021 . S
Co308 O320 2.137 . S
Co308 O321 2.244 . S
O309 Co308 2.216 . S
O309 C316 1.247 . S
O310 Co308 2.091 . S
O310 C316 1.261 . S
C311 O320 1.247 . S
C311 O321 1.272 . S
O312 Co308 2.004 . S
O312 C317 1.259 . S
Co313 O314 2.061 . S
Co313 O319 2.052 . S
Co313 O321 2.135 . S
O314 Co313 2.061 . S
O314 C317 1.235 . S
C315 O318 1.238 . S
C315 O319 1.241 . S
C316 O309 1.247 . S
C316 O310 1.261 . S
C317 O312 1.259 . S
C317 O314 1.235 . S
O318 Co308 2.021 . S
O318 C315 1.238 . S
O319 Co313 2.052 . S
O319 C315 1.241 . S
O320 Co308 2.137 . S
O320 C311 1.247 . S
O321 Co308 2.244 . S
O321 C311 1.272 . S
O321 Co313 2.135 . S
Co322 O323 2.216 . S
Co322 O324 2.091 . S
Co322 O326 2.004 . S
Co322 O332 2.021 . S
Co322 O334 2.137 . S
Co322 O335 2.244 . S
O323 Co322 2.216 . S
O323 C330 1.247 . S
O324 Co322 2.091 . S
O324 C330 1.261 . S
C325 O334 1.247 . S
C325 O335 1.272 . S
O326 Co322 2.004 . S
O326 C331 1.259 . S
Co327 O328 2.061 . S
Co327 O333 2.052 . S
Co327 O335 2.135 . S
O328 Co327 2.061 . S
O328 C331 1.235 . S
C329 O332 1.238 . S
C329 O333 1.241 . S
C330 O323 1.247 . S
C330 O324 1.261 . S
C331 O326 1.259 . S
C331 O328 1.235 . S
O332 Co322 2.021 . S
O332 C329 1.238 . S
O333 Co327 2.052 . S
O333 C329 1.241 . S
O334 Co322 2.137 . S
O334 C325 1.247 . S
O335 Co322 2.244 . S
O335 C325 1.272 . S
O335 Co327 2.135 . S
Co336 O337 2.216 . S
Co336 O338 2.091 . S
Co336 O340 2.004 . S
Co336 O346 2.021 . S
Co336 O348 2.137 . S
Co336 O349 2.244 . S
O337 Co336 2.216 . S
O337 C344 1.247 . S
O338 Co336 2.091 . S
O338 C344 1.261 . S
C339 O348 1.247 . S
C339 O349 1.272 . S
O340 Co336 2.004 . S
O340 C345 1.259 . S
Co341 O342 2.061 . S
Co341 O347 2.052 . S
Co341 O349 2.135 . S
O342 Co341 2.061 . S
O342 C345 1.235 . S
C343 O346 1.238 . S
C343 O347 1.241 . S
C344 O337 1.247 . S
C344 O338 1.261 . S
C345 O340 1.259 . S
C345 O342 1.235 . S
O346 Co336 2.021 . S
O346 C343 1.238 . S
O347 Co341 2.052 . S
O347 C343 1.241 . S
O348 Co336 2.137 . S
O348 C339 1.247 . S
O349 Co336 2.244 . S
O349 C339 1.272 . S
O349 Co341 2.135 . S
Co350 O351 2.216 . S
Co350 O352 2.091 . S
Co350 O354 2.004 . S
Co350 O360 2.021 . S
Co350 O362 2.137 . S
Co350 O363 2.244 . S
O351 Co350 2.216 . S
O351 C358 1.247 . S
O352 Co350 2.091 . S
O352 C358 1.261 . S
C353 O362 1.247 . S
C353 O363 1.272 . S
O354 Co350 2.004 . S
O354 C359 1.259 . S
Co355 O356 2.061 . S
Co355 O361 2.052 . S
Co355 O363 2.135 . S
O356 Co355 2.061 . S
O356 C359 1.235 . S
C357 O360 1.238 . S
C357 O361 1.241 . S
C358 O351 1.247 . S
C358 O352 1.261 . S
C359 O354 1.259 . S
C359 O356 1.235 . S
O360 Co350 2.021 . S
O360 C357 1.238 . S
O361 Co355 2.052 . S
O361 C357 1.241 . S
O362 Co350 2.137 . S
O362 C353 1.247 . S
O363 Co350 2.244 . S
O363 C353 1.272 . S
O363 Co355 2.135 . S
Co364 O365 2.216 . S
Co364 O366 2.091 . S
Co364 O368 2.004 . S
Co364 O374 2.021 . S
Co364 O376 2.137 . S
Co364 O377 2.244 . S
O365 Co364 2.216 . S
O365 C372 1.247 . S
O366 Co364 2.091 . S
O366 C372 1.261 . S
C367 O376 1.247 . S
C367 O377 1.272 . S
O368 Co364 2.004 . S
O368 C373 1.259 . S
Co369 O370 2.061 . S
Co369 O375 2.052 . S
Co369 O377 2.135 . S
O370 Co369 2.061 . S
O370 C373 1.235 . S
C371 O374 1.238 . S
C371 O375 1.241 . S
C372 O365 1.247 . S
C372 O366 1.261 . S
C373 O368 1.259 . S
C373 O370 1.235 . S
O374 Co364 2.021 . S
O374 C371 1.238 . S
O375 Co369 2.052 . S
O375 C371 1.241 . S
O376 Co364 2.137 . S
O376 C367 1.247 . S
O377 Co364 2.244 . S
O377 C367 1.272 . S
O377 Co369 2.135 . S
Co378 O379 2.216 . S
Co378 O380 2.091 . S
Co378 O382 2.004 . S
Co378 O388 2.021 . S
Co378 O390 2.137 . S
Co378 O391 2.244 . S
O379 Co378 2.216 . S
O379 C386 1.247 . S
O380 Co378 2.091 . S
O380 C386 1.261 . S
C381 O390 1.247 . S
C381 O391 1.272 . S
O382 Co378 2.004 . S
O382 C387 1.260 . S
Co383 O384 2.061 . S
Co383 O389 2.052 . S
Co383 O391 2.135 . S
O384 Co383 2.061 . S
O384 C387 1.235 . S
C385 O388 1.238 . S
C385 O389 1.241 . S
C386 O379 1.247 . S
C386 O380 1.261 . S
C387 O382 1.260 . S
C387 O384 1.235 . S
O388 Co378 2.021 . S
O388 C385 1.238 . S
O389 Co383 2.052 . S
O389 C385 1.241 . S
O390 Co378 2.137 . S
O390 C381 1.247 . S
O391 Co378 2.244 . S
O391 C381 1.272 . S
O391 Co383 2.135 . S
Co392 O393 2.216 . S
Co392 O394 2.091 . S
Co392 O396 2.004 . S
Co392 O402 2.021 . S
Co392 O404 2.137 . S
Co392 O405 2.244 . S
O393 Co392 2.216 . S
O393 C400 1.247 . S
O394 Co392 2.091 . S
O394 C400 1.261 . S
C395 O404 1.247 . S
C395 O405 1.272 . S
O396 Co392 2.004 . S
O396 C401 1.259 . S
Co397 O398 2.061 . S
Co397 O403 2.052 . S
Co397 O405 2.135 . S
O398 Co397 2.061 . S
O398 C401 1.235 . S
C399 O402 1.238 . S
C399 O403 1.241 . S
C400 O393 1.247 . S
C400 O394 1.261 . S
C401 O396 1.259 . S
C401 O398 1.235 . S
O402 Co392 2.021 . S
O402 C399 1.238 . S
O403 Co397 2.052 . S
O403 C399 1.241 . S
O404 Co392 2.137 . S
O404 C395 1.247 . S
O405 Co392 2.244 . S
O405 C395 1.272 . S
O405 Co397 2.135 . S
Co406 O407 2.216 . S
Co406 O408 2.091 . S
Co406 O410 2.004 . S
Co406 O416 2.021 . S
Co406 O418 2.137 . S
Co406 O419 2.244 . S
O407 Co406 2.216 . S
O407 C414 1.247 . S
O408 Co406 2.091 . S
O408 C414 1.261 . S
C409 O418 1.247 . S
C409 O419 1.272 . S
O410 Co406 2.004 . S
O410 C415 1.260 . S
Co411 O412 2.061 . S
Co411 O417 2.052 . S
Co411 O419 2.135 . S
O412 Co411 2.061 . S
O412 C415 1.235 . S
C413 O416 1.238 . S
C413 O417 1.241 . S
C414 O407 1.247 . S
C414 O408 1.261 . S
C415 O410 1.260 . S
C415 O412 1.235 . S
O416 Co406 2.021 . S
O416 C413 1.238 . S
O417 Co411 2.052 . S
O417 C413 1.241 . S
O418 Co406 2.137 . S
O418 C409 1.247 . S
O419 Co406 2.244 . S
O419 C409 1.272 . S
O419 Co411 2.135 . S
Co420 O421 2.216 . S
Co420 O422 2.091 . S
Co420 O424 2.004 . S
Co420 O430 2.021 . S
Co420 O432 2.137 . S
Co420 O433 2.244 . S
O421 Co420 2.216 . S
O421 C428 1.247 . S
O422 Co420 2.091 . S
O422 C428 1.261 . S
C423 O432 1.247 . S
C423 O433 1.272 . S
O424 Co420 2.004 . S
O424 C429 1.259 . S
Co425 O426 2.061 . S
Co425 O431 2.052 . S
Co425 O433 2.135 . S
O426 Co425 2.061 . S
O426 C429 1.235 . S
C427 O430 1.238 . S
C427 O431 1.241 . S
C428 O421 1.247 . S
C428 O422 1.261 . S
C429 O424 1.259 . S
C429 O426 1.235 . S
O430 Co420 2.021 . S
O430 C427 1.238 . S
O431 Co425 2.052 . S
O431 C427 1.241 . S
O432 Co420 2.137 . S
O432 C423 1.247 . S
O433 Co420 2.244 . S
O433 C423 1.272 . S
O433 Co425 2.135 . S
Co434 O435 2.216 . S
Co434 O436 2.091 . S
Co434 O438 2.004 . S
Co434 O444 2.021 . S
Co434 O446 2.137 . S
Co434 O447 2.244 . S
O435 Co434 2.216 . S
O435 C442 1.247 . S
O436 Co434 2.091 . S
O436 C442 1.261 . S
C437 O446 1.247 . S
C437 O447 1.272 . S
O438 Co434 2.004 . S
O438 C443 1.259 . S
Co439 O440 2.061 . S
Co439 O445 2.052 . S
Co439 O447 2.135 . S
O440 Co439 2.061 . S
O440 C443 1.235 . S
C441 O444 1.238 . S
C441 O445 1.241 . S
C442 O435 1.247 . S
C442 O436 1.261 . S
C443 O438 1.259 . S
C443 O440 1.235 . S
O444 Co434 2.021 . S
O444 C441 1.238 . S
O445 Co439 2.052 . S
O445 C441 1.241 . S
O446 Co434 2.137 . S
O446 C437 1.247 . S
O447 Co434 2.244 . S
O447 C437 1.272 . S
O447 Co439 2.135 . S
H448 C460 0.930 . S
H449 C462 0.930 . S
H450 C463 0.930 . S
H451 C467 0.959 . S
H452 C467 0.959 . S
H453 C467 0.961 . S
H454 C468 0.960 . S
H455 C468 0.961 . S
H456 C468 0.959 . S
H457 C471 0.929 . S
H458 C472 0.931 . S
H459 C474 0.930 . S
C460 H448 0.930 . S
C460 C461 1.399 . S
C460 C465 1.399 . S
C461 C460 1.399 . S
C461 C462 1.376 . S
C462 H449 0.930 . S
C462 C461 1.376 . S
C462 C463 1.388 . S
C463 H450 0.930 . S
C463 C462 1.388 . S
C463 C464 1.390 . S
C464 C463 1.390 . S
C464 C465 1.394 . S
C464 C470 1.465 . S
C465 C460 1.399 . S
C465 C464 1.394 . S
C465 C466 1.516 . S
C466 C465 1.516 . S
C466 C467 1.502 . S
C466 C468 1.561 . S
C466 C469 1.526 . S
C467 H451 0.959 . S
C467 H452 0.959 . S
C467 H453 0.961 . S
C467 C466 1.502 . S
C468 H454 0.960 . S
C468 H455 0.961 . S
C468 H456 0.959 . S
C468 C466 1.561 . S
C469 C466 1.526 . S
C469 C470 1.396 . S
C469 C474 1.390 . S
C470 C464 1.465 . S
C470 C469 1.396 . S
C470 C471 1.399 . S
C471 H457 0.929 . S
C471 C470 1.399 . S
C471 C472 1.385 . S
C472 H458 0.931 . S
C472 C471 1.385 . S
C472 C473 1.389 . S
C473 C472 1.389 . S
C473 C474 1.387 . S
C474 H459 0.930 . S
C474 C469 1.390 . S
C474 C473 1.387 . S
H475 C487 0.930 . S
H476 C489 0.930 1_455 S
H477 C490 0.930 . S
H478 C494 0.959 . S
H479 C494 0.959 . S
H480 C494 0.961 . S
H481 C495 0.960 . S
H482 C495 0.961 . S
H483 C495 0.959 . S
H484 C498 0.929 . S
H485 C499 0.931 . S
H486 C501 0.930 . S
C487 H475 0.930 . S
C487 C488 1.399 . S
C487 C492 1.399 . S
C488 C487 1.399 . S
C488 C489 1.376 . S
C489 H476 0.930 1_655 S
C489 C488 1.376 . S
C489 C490 1.388 . S
C490 H477 0.930 . S
C490 C489 1.388 . S
C490 C491 1.390 . S
C491 C490 1.390 . S
C491 C492 1.394 . S
C491 C497 1.465 . S
C492 C487 1.399 . S
C492 C491 1.394 . S
C492 C493 1.516 . S
C493 C492 1.516 . S
C493 C494 1.502 . S
C493 C495 1.561 . S
C493 C496 1.526 . S
C494 H478 0.959 . S
C494 H479 0.959 . S
C494 H480 0.961 . S
C494 C493 1.502 . S
C495 H481 0.960 . S
C495 H482 0.961 . S
C495 H483 0.959 . S
C495 C493 1.561 . S
C496 C493 1.526 . S
C496 C497 1.396 . S
C496 C501 1.390 . S
C497 C491 1.465 . S
C497 C496 1.396 . S
C497 C498 1.399 . S
C498 H484 0.929 . S
C498 C497 1.399 . S
C498 C499 1.385 . S
C499 H485 0.931 . S
C499 C498 1.385 . S
C499 C500 1.389 . S
C500 C499 1.389 . S
C500 C501 1.387 . S
C501 H486 0.930 . S
C501 C496 1.390 . S
C501 C500 1.387 . S
H502 C514 0.930 . S
H503 C516 0.930 . S
H504 C517 0.930 . S
H505 C521 0.959 . S
H506 C521 0.959 . S
H507 C521 0.961 . S
H508 C522 0.960 . S
H509 C522 0.961 . S
H510 C522 0.959 . S
H511 C525 0.929 . S
H512 C526 0.931 . S
H513 C528 0.930 . S
C514 H502 0.930 . S
C514 C515 1.399 . S
C514 C519 1.399 . S
C515 C514 1.399 . S
C515 C516 1.376 . S
C516 H503 0.930 . S
C516 C515 1.376 . S
C516 C517 1.388 . S
C517 H504 0.930 . S
C517 C516 1.388 . S
C517 C518 1.390 . S
C518 C517 1.390 . S
C518 C519 1.394 . S
C518 C524 1.465 . S
C519 C514 1.399 . S
C519 C518 1.394 . S
C519 C520 1.516 . S
C520 C519 1.516 . S
C520 C521 1.502 . S
C520 C522 1.561 . S
C520 C523 1.526 . S
C521 H505 0.959 . S
C521 H506 0.959 . S
C521 H507 0.961 . S
C521 C520 1.502 . S
C522 H508 0.960 . S
C522 H509 0.961 . S
C522 H510 0.959 . S
C522 C520 1.561 . S
C523 C520 1.526 . S
C523 C524 1.396 . S
C523 C528 1.390 . S
C524 C518 1.465 . S
C524 C523 1.396 . S
C524 C525 1.399 . S
C525 H511 0.929 . S
C525 C524 1.399 . S
C525 C526 1.385 . S
C526 H512 0.931 . S
C526 C525 1.385 . S
C526 C527 1.389 . S
C527 C526 1.389 . S
C527 C528 1.387 . S
C528 H513 0.930 . S
C528 C523 1.390 . S
C528 C527 1.387 . S
H529 C541 0.930 . S
H530 C543 0.930 . S
H531 C544 0.930 . S
H532 C548 0.959 . S
H533 C548 0.959 . S
H534 C548 0.961 . S
H535 C549 0.960 . S
H536 C549 0.961 . S
H537 C549 0.959 . S
H538 C552 0.929 . S
H539 C553 0.931 . S
H540 C555 0.930 . S
C541 H529 0.930 . S
C541 C542 1.399 . S
C541 C546 1.399 . S
C542 C541 1.399 . S
C542 C543 1.376 . S
C543 H530 0.930 . S
C543 C542 1.376 . S
C543 C544 1.388 . S
C544 H531 0.930 . S
C544 C543 1.388 . S
C544 C545 1.390 . S
C545 C544 1.390 . S
C545 C546 1.394 . S
C545 C551 1.465 . S
C546 C541 1.399 . S
C546 C545 1.394 . S
C546 C547 1.516 . S
C547 C546 1.516 . S
C547 C548 1.502 . S
C547 C549 1.561 . S
C547 C550 1.526 . S
C548 H532 0.959 . S
C548 H533 0.959 . S
C548 H534 0.961 . S
C548 C547 1.502 . S
C549 H535 0.960 . S
C549 H536 0.961 . S
C549 H537 0.959 . S
C549 C547 1.561 . S
C550 C547 1.526 . S
C550 C551 1.396 . S
C550 C555 1.390 . S
C551 C545 1.465 . S
C551 C550 1.396 . S
C551 C552 1.399 . S
C552 H538 0.929 . S
C552 C551 1.399 . S
C552 C553 1.385 . S
C553 H539 0.931 . S
C553 C552 1.385 . S
C553 C554 1.389 . S
C554 C553 1.389 . S
C554 C555 1.387 . S
C555 H540 0.930 . S
C555 C550 1.390 . S
C555 C554 1.387 . S
H556 C568 0.930 . S
H557 C570 0.930 . S
H558 C571 0.930 . S
H559 C575 0.959 . S
H560 C575 0.959 . S
H561 C575 0.961 . S
H562 C576 0.960 . S
H563 C576 0.961 . S
H564 C576 0.959 . S
H565 C579 0.929 . S
H566 C580 0.931 . S
H567 C582 0.930 . S
C568 H556 0.930 . S
C568 C569 1.399 . S
C568 C573 1.399 . S
C569 C568 1.399 . S
C569 C570 1.376 . S
C570 H557 0.930 . S
C570 C569 1.376 . S
C570 C571 1.388 . S
C571 H558 0.930 . S
C571 C570 1.388 . S
C571 C572 1.390 . S
C572 C571 1.390 . S
C572 C573 1.394 . S
C572 C578 1.465 . S
C573 C568 1.399 . S
C573 C572 1.394 . S
C573 C574 1.516 . S
C574 C573 1.516 . S
C574 C575 1.502 . S
C574 C576 1.561 . S
C574 C577 1.526 . S
C575 H559 0.959 . S
C575 H560 0.959 . S
C575 H561 0.961 . S
C575 C574 1.502 . S
C576 H562 0.960 . S
C576 H563 0.961 . S
C576 H564 0.959 . S
C576 C574 1.561 . S
C577 C574 1.526 . S
C577 C578 1.396 . S
C577 C582 1.390 . S
C578 C572 1.465 . S
C578 C577 1.396 . S
C578 C579 1.399 . S
C579 H565 0.929 . S
C579 C578 1.399 . S
C579 C580 1.385 . S
C580 H566 0.931 . S
C580 C579 1.385 . S
C580 C581 1.389 . S
C581 C580 1.389 . S
C581 C582 1.387 . S
C582 H567 0.930 . S
C582 C577 1.390 . S
C582 C581 1.387 . S
H583 C595 0.930 . S
H584 C597 0.930 . S
H585 C598 0.930 . S
H586 C602 0.959 . S
H587 C602 0.959 . S
H588 C602 0.961 . S
H589 C603 0.960 . S
H590 C603 0.961 . S
H591 C603 0.959 . S
H592 C606 0.929 . S
H593 C607 0.931 . S
H594 C609 0.930 . S
C595 H583 0.930 . S
C595 C596 1.399 . S
C595 C600 1.399 . S
C596 C595 1.399 . S
C596 C597 1.376 . S
C597 H584 0.930 . S
C597 C596 1.376 . S
C597 C598 1.388 . S
C598 H585 0.930 . S
C598 C597 1.388 . S
C598 C599 1.390 . S
C599 C598 1.390 . S
C599 C600 1.394 . S
C599 C605 1.465 . S
C600 C595 1.399 . S
C600 C599 1.394 . S
C600 C601 1.516 . S
C601 C600 1.516 . S
C601 C602 1.502 . S
C601 C603 1.561 . S
C601 C604 1.526 . S
C602 H586 0.959 . S
C602 H587 0.959 . S
C602 H588 0.961 . S
C602 C601 1.502 . S
C603 H589 0.960 . S
C603 H590 0.961 . S
C603 H591 0.959 . S
C603 C601 1.561 . S
C604 C601 1.526 . S
C604 C605 1.396 . S
C604 C609 1.390 . S
C605 C599 1.465 . S
C605 C604 1.396 . S
C605 C606 1.399 . S
C606 H592 0.929 . S
C606 C605 1.399 . S
C606 C607 1.385 . S
C607 H593 0.931 . S
C607 C606 1.385 . S
C607 C608 1.389 . S
C608 C607 1.389 . S
C608 C609 1.387 . S
C609 H594 0.930 . S
C609 C604 1.390 . S
C609 C608 1.387 . S
H610 C622 0.930 . S
H611 C624 0.930 . S
H612 C625 0.930 . S
H613 C629 0.959 . S
H614 C629 0.959 . S
H615 C629 0.961 . S
H616 C630 0.960 . S
H617 C630 0.961 . S
H618 C630 0.959 . S
H619 C633 0.929 . S
H620 C634 0.931 . S
H621 C636 0.930 . S
C622 H610 0.930 . S
C622 C623 1.399 . S
C622 C627 1.399 . S
C623 C622 1.399 . S
C623 C624 1.376 . S
C624 H611 0.930 . S
C624 C623 1.376 . S
C624 C625 1.388 . S
C625 H612 0.930 . S
C625 C624 1.388 . S
C625 C626 1.390 . S
C626 C625 1.390 . S
C626 C627 1.394 . S
C626 C632 1.465 . S
C627 C622 1.399 . S
C627 C626 1.394 . S
C627 C628 1.516 . S
C628 C627 1.516 . S
C628 C629 1.502 . S
C628 C630 1.561 . S
C628 C631 1.526 . S
C629 H613 0.959 . S
C629 H614 0.959 . S
C629 H615 0.961 . S
C629 C628 1.502 . S
C630 H616 0.960 . S
C630 H617 0.961 . S
C630 H618 0.959 . S
C630 C628 1.561 . S
C631 C628 1.526 . S
C631 C632 1.396 . S
C631 C636 1.390 . S
C632 C626 1.465 . S
C632 C631 1.396 . S
C632 C633 1.399 . S
C633 H619 0.929 . S
C633 C632 1.399 . S
C633 C634 1.385 . S
C634 H620 0.931 . S
C634 C633 1.385 . S
C634 C635 1.389 . S
C635 C634 1.389 . S
C635 C636 1.387 . S
C636 H621 0.930 . S
C636 C631 1.390 . S
C636 C635 1.387 . S
H637 C649 0.930 . S
H638 C651 0.930 . S
H639 C652 0.930 . S
H640 C656 0.959 . S
H641 C656 0.959 . S
H642 C656 0.961 . S
H643 C657 0.960 . S
H644 C657 0.961 . S
H645 C657 0.959 . S
H646 C660 0.929 . S
H647 C661 0.931 . S
H648 C663 0.930 . S
C649 H637 0.930 . S
C649 C650 1.399 . S
C649 C654 1.399 . S
C650 C649 1.399 . S
C650 C651 1.376 . S
C651 H638 0.930 . S
C651 C650 1.376 . S
C651 C652 1.388 . S
C652 H639 0.930 . S
C652 C651 1.388 . S
C652 C653 1.390 . S
C653 C652 1.390 . S
C653 C654 1.394 . S
C653 C659 1.465 . S
C654 C649 1.399 . S
C654 C653 1.394 . S
C654 C655 1.516 . S
C655 C654 1.516 . S
C655 C656 1.502 . S
C655 C657 1.561 . S
C655 C658 1.526 . S
C656 H640 0.959 . S
C656 H641 0.959 . S
C656 H642 0.961 . S
C656 C655 1.502 . S
C657 H643 0.960 . S
C657 H644 0.961 . S
C657 H645 0.959 . S
C657 C655 1.561 . S
C658 C655 1.526 . S
C658 C659 1.396 . S
C658 C663 1.390 . S
C659 C653 1.465 . S
C659 C658 1.396 . S
C659 C660 1.399 . S
C660 H646 0.929 . S
C660 C659 1.399 . S
C660 C661 1.385 . S
C661 H647 0.931 . S
C661 C660 1.385 . S
C661 C662 1.389 . S
C662 C661 1.389 . S
C662 C663 1.387 . S
C663 H648 0.930 . S
C663 C658 1.390 . S
C663 C662 1.387 . S
H664 C676 0.930 . S
H665 C678 0.930 . S
H666 C679 0.930 . S
H667 C683 0.959 . S
H668 C683 0.959 . S
H669 C683 0.961 . S
H670 C684 0.960 . S
H671 C684 0.961 . S
H672 C684 0.959 . S
H673 C687 0.929 . S
H674 C688 0.931 . S
H675 C690 0.930 . S
C676 H664 0.930 . S
C676 C677 1.399 . S
C676 C681 1.399 . S
C677 C676 1.399 . S
C677 C678 1.376 . S
C678 H665 0.930 . S
C678 C677 1.376 . S
C678 C679 1.388 . S
C679 H666 0.930 . S
C679 C678 1.388 . S
C679 C680 1.390 . S
C680 C679 1.390 . S
C680 C681 1.394 . S
C680 C686 1.465 . S
C681 C676 1.399 . S
C681 C680 1.394 . S
C681 C682 1.516 . S
C682 C681 1.516 . S
C682 C683 1.502 . S
C682 C684 1.561 . S
C682 C685 1.526 . S
C683 H667 0.959 . S
C683 H668 0.959 . S
C683 H669 0.961 . S
C683 C682 1.502 . S
C684 H670 0.960 . S
C684 H671 0.961 . S
C684 H672 0.959 . S
C684 C682 1.561 . S
C685 C682 1.526 . S
C685 C686 1.396 . S
C685 C690 1.390 . S
C686 C680 1.465 . S
C686 C685 1.396 . S
C686 C687 1.399 . S
C687 H673 0.929 . S
C687 C686 1.399 . S
C687 C688 1.385 . S
C688 H674 0.931 . S
C688 C687 1.385 . S
C688 C689 1.389 . S
C689 C688 1.389 . S
C689 C690 1.387 . S
C690 H675 0.930 . S
C690 C685 1.390 . S
C690 C689 1.387 . S
H691 C703 0.930 . S
H692 C705 0.930 . S
H693 C706 0.930 . S
H694 C710 0.959 . S
H695 C710 0.959 . S
H696 C710 0.961 . S
H697 C711 0.960 . S
H698 C711 0.961 . S
H699 C711 0.959 . S
H700 C714 0.929 . S
H701 C715 0.931 . S
H702 C717 0.930 . S
C703 H691 0.930 . S
C703 C704 1.399 . S
C703 C708 1.399 . S
C704 C703 1.399 . S
C704 C705 1.376 . S
C705 H692 0.930 . S
C705 C704 1.376 . S
C705 C706 1.388 . S
C706 H693 0.930 . S
C706 C705 1.388 . S
C706 C707 1.390 . S
C707 C706 1.390 . S
C707 C708 1.394 . S
C707 C713 1.465 . S
C708 C703 1.399 . S
C708 C707 1.394 . S
C708 C709 1.516 . S
C709 C708 1.516 . S
C709 C710 1.502 . S
C709 C711 1.561 . S
C709 C712 1.526 . S
C710 H694 0.959 . S
C710 H695 0.959 . S
C710 H696 0.961 . S
C710 C709 1.502 . S
C711 H697 0.960 . S
C711 H698 0.961 . S
C711 H699 0.959 . S
C711 C709 1.561 . S
C712 C709 1.526 . S
C712 C713 1.396 . S
C712 C717 1.390 . S
C713 C707 1.465 . S
C713 C712 1.396 . S
C713 C714 1.399 . S
C714 H700 0.929 . S
C714 C713 1.399 . S
C714 C715 1.385 . S
C715 H701 0.931 . S
C715 C714 1.385 . S
C715 C716 1.389 . S
C716 C715 1.389 . S
C716 C717 1.387 . S
C717 H702 0.930 . S
C717 C712 1.390 . S
C717 C716 1.387 . S
H718 C730 0.930 . S
H719 C732 0.930 . S
H720 C733 0.930 . S
H721 C737 0.959 . S
H722 C737 0.959 . S
H723 C737 0.961 . S
H724 C738 0.960 . S
H725 C738 0.961 . S
H726 C738 0.959 . S
H727 C741 0.929 . S
H728 C742 0.931 . S
H729 C744 0.930 . S
C730 H718 0.930 . S
C730 C731 1.399 . S
C730 C735 1.399 . S
C731 C730 1.399 . S
C731 C732 1.376 . S
C732 H719 0.930 . S
C732 C731 1.376 . S
C732 C733 1.388 . S
C733 H720 0.930 . S
C733 C732 1.388 . S
C733 C734 1.390 . S
C734 C733 1.390 . S
C734 C735 1.394 . S
C734 C740 1.465 . S
C735 C730 1.399 . S
C735 C734 1.394 . S
C735 C736 1.516 . S
C736 C735 1.516 . S
C736 C737 1.502 . S
C736 C738 1.561 . S
C736 C739 1.526 . S
C737 H721 0.959 . S
C737 H722 0.959 . S
C737 H723 0.961 . S
C737 C736 1.502 . S
C738 H724 0.960 . S
C738 H725 0.961 . S
C738 H726 0.959 . S
C738 C736 1.561 . S
C739 C736 1.526 . S
C739 C740 1.396 . S
C739 C744 1.390 . S
C740 C734 1.465 . S
C740 C739 1.396 . S
C740 C741 1.399 . S
C741 H727 0.929 . S
C741 C740 1.399 . S
C741 C742 1.385 . S
C742 H728 0.931 . S
C742 C741 1.385 . S
C742 C743 1.389 . S
C743 C742 1.389 . S
C743 C744 1.387 . S
C744 H729 0.930 . S
C744 C739 1.390 . S
C744 C743 1.387 . S
H745 C757 0.930 . S
H746 C759 0.930 . S
H747 C760 0.930 . S
H748 C764 0.959 . S
H749 C764 0.959 . S
H750 C764 0.961 . S
H751 C765 0.960 . S
H752 C765 0.961 . S
H753 C765 0.959 . S
H754 C768 0.929 . S
H755 C769 0.931 . S
H756 C771 0.930 . S
C757 H745 0.930 . S
C757 C758 1.399 . S
C757 C762 1.399 . S
C758 C757 1.399 . S
C758 C759 1.376 . S
C759 H746 0.930 . S
C759 C758 1.376 . S
C759 C760 1.388 . S
C760 H747 0.930 . S
C760 C759 1.388 . S
C760 C761 1.390 . S
C761 C760 1.390 . S
C761 C762 1.394 . S
C761 C767 1.465 . S
C762 C757 1.399 . S
C762 C761 1.394 . S
C762 C763 1.516 . S
C763 C762 1.516 . S
C763 C764 1.502 . S
C763 C765 1.561 . S
C763 C766 1.526 . S
C764 H748 0.959 . S
C764 H749 0.959 . S
C764 H750 0.961 . S
C764 C763 1.502 . S
C765 H751 0.960 . S
C765 H752 0.961 . S
C765 H753 0.959 . S
C765 C763 1.561 . S
C766 C763 1.526 . S
C766 C767 1.396 . S
C766 C771 1.390 . S
C767 C761 1.465 . S
C767 C766 1.396 . S
C767 C768 1.399 . S
C768 H754 0.929 . S
C768 C767 1.399 . S
C768 C769 1.385 . S
C769 H755 0.931 . S
C769 C768 1.385 . S
C769 C770 1.389 . S
C770 C769 1.389 . S
C770 C771 1.387 . S
C771 H756 0.930 . S
C771 C766 1.390 . S
C771 C770 1.387 . S
H772 C784 0.930 . S
H773 C786 0.930 . S
H774 C787 0.930 . S
H775 C791 0.959 . S
H776 C791 0.959 . S
H777 C791 0.961 . S
H778 C792 0.960 . S
H779 C792 0.961 . S
H780 C792 0.959 . S
H781 C795 0.929 . S
H782 C796 0.931 . S
H783 C798 0.930 . S
C784 H772 0.930 . S
C784 C785 1.399 . S
C784 C789 1.399 . S
C785 C784 1.399 . S
C785 C786 1.376 . S
C786 H773 0.930 . S
C786 C785 1.376 . S
C786 C787 1.388 . S
C787 H774 0.930 . S
C787 C786 1.388 . S
C787 C788 1.390 . S
C788 C787 1.390 . S
C788 C789 1.394 . S
C788 C794 1.465 . S
C789 C784 1.399 . S
C789 C788 1.394 . S
C789 C790 1.516 . S
C790 C789 1.516 . S
C790 C791 1.502 . S
C790 C792 1.561 . S
C790 C793 1.526 . S
C791 H775 0.959 . S
C791 H776 0.959 . S
C791 H777 0.961 . S
C791 C790 1.502 . S
C792 H778 0.960 . S
C792 H779 0.961 . S
C792 H780 0.959 . S
C792 C790 1.561 . S
C793 C790 1.526 . S
C793 C794 1.396 . S
C793 C798 1.390 . S
C794 C788 1.465 . S
C794 C793 1.396 . S
C794 C795 1.399 . S
C795 H781 0.929 . S
C795 C794 1.399 . S
C795 C796 1.385 . S
C796 H782 0.931 . S
C796 C795 1.385 . S
C796 C797 1.389 . S
C797 C796 1.389 . S
C797 C798 1.387 . S
C798 H783 0.930 . S
C798 C793 1.390 . S
C798 C797 1.387 . S
H799 C811 0.930 . S
H800 C813 0.930 . S
H801 C814 0.930 . S
H802 C818 0.959 . S
H803 C818 0.959 . S
H804 C818 0.961 . S
H805 C819 0.960 . S
H806 C819 0.961 . S
H807 C819 0.959 . S
H808 C822 0.929 . S
H809 C823 0.931 . S
H810 C825 0.930 . S
C811 H799 0.930 . S
C811 C812 1.399 . S
C811 C816 1.399 . S
C812 C811 1.399 . S
C812 C813 1.376 . S
C813 H800 0.930 . S
C813 C812 1.376 . S
C813 C814 1.388 . S
C814 H801 0.930 . S
C814 C813 1.388 . S
C814 C815 1.390 . S
C815 C814 1.390 . S
C815 C816 1.394 . S
C815 C821 1.465 . S
C816 C811 1.399 . S
C816 C815 1.394 . S
C816 C817 1.516 . S
C817 C816 1.516 . S
C817 C818 1.502 . S
C817 C819 1.561 . S
C817 C820 1.526 . S
C818 H802 0.959 . S
C818 H803 0.959 . S
C818 H804 0.961 . S
C818 C817 1.502 . S
C819 H805 0.960 . S
C819 H806 0.961 . S
C819 H807 0.959 . S
C819 C817 1.561 . S
C820 C817 1.526 . S
C820 C821 1.396 . S
C820 C825 1.390 . S
C821 C815 1.465 . S
C821 C820 1.396 . S
C821 C822 1.399 . S
C822 H808 0.929 . S
C822 C821 1.399 . S
C822 C823 1.385 . S
C823 H809 0.931 . S
C823 C822 1.385 . S
C823 C824 1.389 . S
C824 C823 1.389 . S
C824 C825 1.387 . S
C825 H810 0.930 . S
C825 C820 1.390 . S
C825 C824 1.387 . S
H826 C838 0.930 . S
H827 C840 0.930 . S
H828 C841 0.930 . S
H829 C845 0.959 . S
H830 C845 0.959 . S
H831 C845 0.961 . S
H832 C846 0.960 . S
H833 C846 0.961 . S
H834 C846 0.959 . S
H835 C849 0.929 . S
H836 C850 0.931 . S
H837 C852 0.930 . S
C838 H826 0.930 . S
C838 C839 1.399 . S
C838 C843 1.399 . S
C839 C838 1.399 . S
C839 C840 1.376 . S
C840 H827 0.930 . S
C840 C839 1.376 . S
C840 C841 1.388 . S
C841 H828 0.930 . S
C841 C840 1.388 . S
C841 C842 1.390 . S
C842 C841 1.390 . S
C842 C843 1.394 . S
C842 C848 1.465 . S
C843 C838 1.399 . S
C843 C842 1.394 . S
C843 C844 1.516 . S
C844 C843 1.516 . S
C844 C845 1.502 . S
C844 C846 1.561 . S
C844 C847 1.526 . S
C845 H829 0.959 . S
C845 H830 0.959 . S
C845 H831 0.961 . S
C845 C844 1.502 . S
C846 H832 0.960 . S
C846 H833 0.961 . S
C846 H834 0.959 . S
C846 C844 1.561 . S
C847 C844 1.526 . S
C847 C848 1.396 . S
C847 C852 1.390 . S
C848 C842 1.465 . S
C848 C847 1.396 . S
C848 C849 1.399 . S
C849 H835 0.929 . S
C849 C848 1.399 . S
C849 C850 1.385 . S
C850 H836 0.931 . S
C850 C849 1.385 . S
C850 C851 1.389 . S
C851 C850 1.389 . S
C851 C852 1.387 . S
C852 H837 0.930 . S
C852 C847 1.390 . S
C852 C851 1.387 . S
H853 C865 0.930 . S
H854 C867 0.930 . S
H855 C868 0.930 . S
H856 C872 0.959 . S
H857 C872 0.959 . S
H858 C872 0.961 . S
H859 C873 0.960 . S
H860 C873 0.961 . S
H861 C873 0.959 . S
H862 C876 0.929 . S
H863 C877 0.931 . S
H864 C879 0.930 . S
C865 H853 0.930 . S
C865 C866 1.399 . S
C865 C870 1.399 . S
C866 C865 1.399 . S
C866 C867 1.376 . S
C867 H854 0.930 . S
C867 C866 1.376 . S
C867 C868 1.388 . S
C868 H855 0.930 . S
C868 C867 1.388 . S
C868 C869 1.390 . S
C869 C868 1.390 . S
C869 C870 1.394 . S
C869 C875 1.465 . S
C870 C865 1.399 . S
C870 C869 1.394 . S
C870 C871 1.516 . S
C871 C870 1.516 . S
C871 C872 1.502 . S
C871 C873 1.561 . S
C871 C874 1.526 . S
C872 H856 0.959 . S
C872 H857 0.959 . S
C872 H858 0.961 . S
C872 C871 1.502 . S
C873 H859 0.960 . S
C873 H860 0.961 . S
C873 H861 0.959 . S
C873 C871 1.561 . S
C874 C871 1.526 . S
C874 C875 1.396 . S
C874 C879 1.390 . S
C875 C869 1.465 . S
C875 C874 1.396 . S
C875 C876 1.399 . S
C876 H862 0.929 . S
C876 C875 1.399 . S
C876 C877 1.385 . S
C877 H863 0.931 . S
C877 C876 1.385 . S
C877 C878 1.389 . S
C878 C877 1.389 . S
C878 C879 1.387 . S
C879 H864 0.930 . S
C879 C874 1.390 . S
C879 C878 1.387 . S
H880 C892 0.930 . S
H881 C894 0.930 . S
H882 C895 0.930 . S
H883 C899 0.959 . S
H884 C899 0.959 . S
H885 C899 0.961 . S
H886 C900 0.960 . S
H887 C900 0.961 . S
H888 C900 0.959 . S
H889 C903 0.929 . S
H890 C904 0.931 . S
H891 C906 0.930 . S
C892 H880 0.930 . S
C892 C893 1.399 . S
C892 C897 1.399 . S
C893 C892 1.399 . S
C893 C894 1.376 . S
C894 H881 0.930 . S
C894 C893 1.376 . S
C894 C895 1.388 . S
C895 H882 0.930 . S
C895 C894 1.388 . S
C895 C896 1.390 . S
C896 C895 1.390 . S
C896 C897 1.394 . S
C896 C902 1.465 . S
C897 C892 1.399 . S
C897 C896 1.394 . S
C897 C898 1.516 . S
C898 C897 1.516 . S
C898 C899 1.502 . S
C898 C900 1.561 . S
C898 C901 1.526 . S
C899 H883 0.959 . S
C899 H884 0.959 . S
C899 H885 0.961 . S
C899 C898 1.502 . S
C900 H886 0.960 . S
C900 H887 0.961 . S
C900 H888 0.959 . S
C900 C898 1.561 . S
C901 C898 1.526 . S
C901 C902 1.396 . S
C901 C906 1.390 . S
C902 C896 1.465 . S
C902 C901 1.396 . S
C902 C903 1.399 . S
C903 H889 0.929 . S
C903 C902 1.399 . S
C903 C904 1.385 . S
C904 H890 0.931 . S
C904 C903 1.385 . S
C904 C905 1.389 . S
C905 C904 1.389 . S
C905 C906 1.387 . S
C906 H891 0.930 . S
C906 C901 1.390 . S
C906 C905 1.387 . S
H907 C919 0.930 . S
H908 C921 0.930 . S
H909 C922 0.930 . S
H910 C926 0.959 . S
H911 C926 0.959 . S
H912 C926 0.961 . S
H913 C927 0.960 . S
H914 C927 0.961 . S
H915 C927 0.959 . S
H916 C930 0.929 . S
H917 C931 0.931 . S
H918 C933 0.930 . S
C919 H907 0.930 . S
C919 C920 1.399 . S
C919 C924 1.399 . S
C920 C919 1.399 . S
C920 C921 1.376 . S
C921 H908 0.930 . S
C921 C920 1.376 . S
C921 C922 1.388 . S
C922 H909 0.930 . S
C922 C921 1.388 . S
C922 C923 1.390 . S
C923 C922 1.390 . S
C923 C924 1.394 . S
C923 C929 1.465 . S
C924 C919 1.399 . S
C924 C923 1.394 . S
C924 C925 1.516 . S
C925 C924 1.516 . S
C925 C926 1.502 . S
C925 C927 1.561 . S
C925 C928 1.526 . S
C926 H910 0.959 . S
C926 H911 0.959 . S
C926 H912 0.961 . S
C926 C925 1.502 . S
C927 H913 0.960 . S
C927 H914 0.961 . S
C927 H915 0.959 . S
C927 C925 1.561 . S
C928 C925 1.526 . S
C928 C929 1.396 . S
C928 C933 1.390 . S
C929 C923 1.465 . S
C929 C928 1.396 . S
C929 C930 1.399 . S
C930 H916 0.929 . S
C930 C929 1.399 . S
C930 C931 1.385 . S
C931 H917 0.931 . S
C931 C930 1.385 . S
C931 C932 1.389 . S
C932 C931 1.389 . S
C932 C933 1.387 . S
C933 H918 0.930 . S
C933 C928 1.390 . S
C933 C932 1.387 . S
H934 C946 0.930 . S
H935 C948 0.930 . S
H936 C949 0.930 . S
H937 C953 0.959 . S
H938 C953 0.959 . S
H939 C953 0.961 . S
H940 C954 0.960 . S
H941 C954 0.961 . S
H942 C954 0.959 . S
H943 C957 0.929 . S
H944 C958 0.931 . S
H945 C960 0.930 . S
C946 H934 0.930 . S
C946 C947 1.399 . S
C946 C951 1.399 . S
C947 C946 1.399 . S
C947 C948 1.376 . S
C948 H935 0.930 . S
C948 C947 1.376 . S
C948 C949 1.388 . S
C949 H936 0.930 . S
C949 C948 1.388 . S
C949 C950 1.390 . S
C950 C949 1.390 . S
C950 C951 1.394 . S
C950 C956 1.465 . S
C951 C946 1.399 . S
C951 C950 1.394 . S
C951 C952 1.516 . S
C952 C951 1.516 . S
C952 C953 1.502 . S
C952 C954 1.561 . S
C952 C955 1.526 . S
C953 H937 0.959 . S
C953 H938 0.959 . S
C953 H939 0.961 . S
C953 C952 1.502 . S
C954 H940 0.960 . S
C954 H941 0.961 . S
C954 H942 0.959 . S
C954 C952 1.561 . S
C955 C952 1.526 . S
C955 C956 1.396 . S
C955 C960 1.390 . S
C956 C950 1.465 . S
C956 C955 1.396 . S
C956 C957 1.399 . S
C957 H943 0.929 . S
C957 C956 1.399 . S
C957 C958 1.385 . S
C958 H944 0.931 . S
C958 C957 1.385 . S
C958 C959 1.389 . S
C959 C958 1.389 . S
C959 C960 1.387 . S
C960 H945 0.930 . S
C960 C955 1.390 . S
C960 C959 1.387 . S
H961 C973 0.930 . S
H962 C975 0.930 . S
H963 C976 0.930 . S
H964 C980 0.959 . S
H965 C980 0.959 . S
H966 C980 0.961 . S
H967 C981 0.960 . S
H968 C981 0.961 . S
H969 C981 0.959 . S
H970 C984 0.929 . S
H971 C985 0.931 . S
H972 C987 0.930 . S
C973 H961 0.930 . S
C973 C974 1.399 . S
C973 C978 1.399 . S
C974 C973 1.399 . S
C974 C975 1.376 . S
C975 H962 0.930 . S
C975 C974 1.376 . S
C975 C976 1.388 . S
C976 H963 0.930 . S
C976 C975 1.388 . S
C976 C977 1.390 . S
C977 C976 1.390 . S
C977 C978 1.394 . S
C977 C983 1.465 . S
C978 C973 1.399 . S
C978 C977 1.394 . S
C978 C979 1.516 . S
C979 C978 1.516 . S
C979 C980 1.502 . S
C979 C981 1.561 . S
C979 C982 1.526 . S
C980 H964 0.959 . S
C980 H965 0.959 . S
C980 H966 0.961 . S
C980 C979 1.502 . S
C981 H967 0.960 . S
C981 H968 0.961 . S
C981 H969 0.959 . S
C981 C979 1.561 . S
C982 C979 1.526 . S
C982 C983 1.396 . S
C982 C987 1.390 . S
C983 C977 1.465 . S
C983 C982 1.396 . S
C983 C984 1.399 . S
C984 H970 0.929 . S
C984 C983 1.399 . S
C984 C985 1.385 . S
C985 H971 0.931 . S
C985 C984 1.385 . S
C985 C986 1.389 . S
C986 C985 1.389 . S
C986 C987 1.387 . S
C987 H972 0.930 . S
C987 C982 1.390 . S
C987 C986 1.387 . S
H988 C1000 0.930 . S
H989 C1002 0.930 . S
H990 C1003 0.930 . S
H991 C1007 0.959 . S
H992 C1007 0.959 . S
H993 C1007 0.961 . S
H994 C1008 0.960 . S
H995 C1008 0.961 . S
H996 C1008 0.959 . S
H997 C1011 0.929 . S
H998 C1012 0.931 . S
H999 C1014 0.930 . S
C1000 H988 0.930 . S
C1000 C1001 1.399 . S
C1000 C1005 1.399 . S
C1001 C1000 1.399 . S
C1001 C1002 1.376 . S
C1002 H989 0.930 . S
C1002 C1001 1.376 . S
C1002 C1003 1.388 . S
C1003 H990 0.930 . S
C1003 C1002 1.388 . S
C1003 C1004 1.390 . S
C1004 C1003 1.390 . S
C1004 C1005 1.394 . S
C1004 C1010 1.465 . S
C1005 C1000 1.399 . S
C1005 C1004 1.394 . S
C1005 C1006 1.516 . S
C1006 C1005 1.516 . S
C1006 C1007 1.502 . S
C1006 C1008 1.561 . S
C1006 C1009 1.526 . S
C1007 H991 0.959 . S
C1007 H992 0.959 . S
C1007 H993 0.961 . S
C1007 C1006 1.502 . S
C1008 H994 0.960 . S
C1008 H995 0.961 . S
C1008 H996 0.959 . S
C1008 C1006 1.561 . S
C1009 C1006 1.526 . S
C1009 C1010 1.396 . S
C1009 C1014 1.390 . S
C1010 C1004 1.465 . S
C1010 C1009 1.396 . S
C1010 C1011 1.399 . S
C1011 H997 0.929 . S
C1011 C1010 1.399 . S
C1011 C1012 1.385 . S
C1012 H998 0.931 . S
C1012 C1011 1.385 . S
C1012 C1013 1.389 . S
C1013 C1012 1.389 . S
C1013 C1014 1.387 . S
C1014 H999 0.930 . S
C1014 C1009 1.390 . S
C1014 C1013 1.387 . S
H1015 C1027 0.930 . S
H1016 C1029 0.930 . S
H1017 C1030 0.930 . S
H1018 C1034 0.959 . S
H1019 C1034 0.959 . S
H1020 C1034 0.961 . S
H1021 C1035 0.960 . S
H1022 C1035 0.961 . S
H1023 C1035 0.959 . S
H1024 C1038 0.929 . S
H1025 C1039 0.931 1_655 S
H1026 C1041 0.930 . S
C1027 H1015 0.930 . S
C1027 C1028 1.399 . S
C1027 C1032 1.399 . S
C1028 C1027 1.399 . S
C1028 C1029 1.376 . S
C1029 H1016 0.930 . S
C1029 C1028 1.376 . S
C1029 C1030 1.388 . S
C1030 H1017 0.930 . S
C1030 C1029 1.388 . S
C1030 C1031 1.390 . S
C1031 C1030 1.390 . S
C1031 C1032 1.394 . S
C1031 C1037 1.465 . S
C1032 C1027 1.399 . S
C1032 C1031 1.394 . S
C1032 C1033 1.516 . S
C1033 C1032 1.516 . S
C1033 C1034 1.502 . S
C1033 C1035 1.561 . S
C1033 C1036 1.526 . S
C1034 H1018 0.959 . S
C1034 H1019 0.959 . S
C1034 H1020 0.961 . S
C1034 C1033 1.502 . S
C1035 H1021 0.960 . S
C1035 H1022 0.961 . S
C1035 H1023 0.959 . S
C1035 C1033 1.561 . S
C1036 C1033 1.526 . S
C1036 C1037 1.396 . S
C1036 C1041 1.390 . S
C1037 C1031 1.465 . S
C1037 C1036 1.396 . S
C1037 C1038 1.399 . S
C1038 H1024 0.929 . S
C1038 C1037 1.399 . S
C1038 C1039 1.385 . S
C1039 H1025 0.931 1_455 S
C1039 C1038 1.385 . S
C1039 C1040 1.389 . S
C1040 C1039 1.389 . S
C1040 C1041 1.387 . S
C1041 H1026 0.930 . S
C1041 C1036 1.390 . S
C1041 C1040 1.387 . S
H1042 C1054 0.930 . S
H1043 C1056 0.930 . S
H1044 C1057 0.930 . S
H1045 C1061 0.959 . S
H1046 C1061 0.959 . S
H1047 C1061 0.961 . S
H1048 C1062 0.960 . S
H1049 C1062 0.961 . S
H1050 C1062 0.959 . S
H1051 C1065 0.929 . S
H1052 C1066 0.931 . S
H1053 C1068 0.930 . S
C1054 H1042 0.930 . S
C1054 C1055 1.399 . S
C1054 C1059 1.399 . S
C1055 C1054 1.399 . S
C1055 C1056 1.376 . S
C1056 H1043 0.930 . S
C1056 C1055 1.376 . S
C1056 C1057 1.388 . S
C1057 H1044 0.930 . S
C1057 C1056 1.388 . S
C1057 C1058 1.390 . S
C1058 C1057 1.390 . S
C1058 C1059 1.394 . S
C1058 C1064 1.465 . S
C1059 C1054 1.399 . S
C1059 C1058 1.394 . S
C1059 C1060 1.516 . S
C1060 C1059 1.516 . S
C1060 C1061 1.502 . S
C1060 C1062 1.561 . S
C1060 C1063 1.526 . S
C1061 H1045 0.959 . S
C1061 H1046 0.959 . S
C1061 H1047 0.961 . S
C1061 C1060 1.502 . S
C1062 H1048 0.960 . S
C1062 H1049 0.961 . S
C1062 H1050 0.959 . S
C1062 C1060 1.561 . S
C1063 C1060 1.526 . S
C1063 C1064 1.396 . S
C1063 C1068 1.390 . S
C1064 C1058 1.465 . S
C1064 C1063 1.396 . S
C1064 C1065 1.399 . S
C1065 H1051 0.929 . S
C1065 C1064 1.399 . S
C1065 C1066 1.385 . S
C1066 H1052 0.931 . S
C1066 C1065 1.385 . S
C1066 C1067 1.389 . S
C1067 C1066 1.389 . S
C1067 C1068 1.387 . S
C1068 H1053 0.930 . S
C1068 C1063 1.390 . S
C1068 C1067 1.387 . S
H1069 C1081 0.930 . S
H1070 C1083 0.930 . S
H1071 C1084 0.930 . S
H1072 C1088 0.959 . S
H1073 C1088 0.959 . S
H1074 C1088 0.961 . S
H1075 C1089 0.960 . S
H1076 C1089 0.961 . S
H1077 C1089 0.959 . S
H1078 C1092 0.929 . S
H1079 C1093 0.931 . S
H1080 C1095 0.930 . S
C1081 H1069 0.930 . S
C1081 C1082 1.399 . S
C1081 C1086 1.399 . S
C1082 C1081 1.399 . S
C1082 C1083 1.376 . S
C1083 H1070 0.930 . S
C1083 C1082 1.376 . S
C1083 C1084 1.388 . S
C1084 H1071 0.930 . S
C1084 C1083 1.388 . S
C1084 C1085 1.390 . S
C1085 C1084 1.390 . S
C1085 C1086 1.394 . S
C1085 C1091 1.465 . S
C1086 C1081 1.399 . S
C1086 C1085 1.394 . S
C1086 C1087 1.516 . S
C1087 C1086 1.516 . S
C1087 C1088 1.502 . S
C1087 C1089 1.561 . S
C1087 C1090 1.526 . S
C1088 H1072 0.959 . S
C1088 H1073 0.959 . S
C1088 H1074 0.961 . S
C1088 C1087 1.502 . S
C1089 H1075 0.960 . S
C1089 H1076 0.961 . S
C1089 H1077 0.959 . S
C1089 C1087 1.561 . S
C1090 C1087 1.526 . S
C1090 C1091 1.396 . S
C1090 C1095 1.390 . S
C1091 C1085 1.465 . S
C1091 C1090 1.396 . S
C1091 C1092 1.399 . S
C1092 H1078 0.929 . S
C1092 C1091 1.399 . S
C1092 C1093 1.385 . S
C1093 H1079 0.931 . S
C1093 C1092 1.385 . S
C1093 C1094 1.389 . S
C1094 C1093 1.389 . S
C1094 C1095 1.387 . S
C1095 H1080 0.930 . S
C1095 C1090 1.390 . S
C1095 C1094 1.387 . S
H1096 C1108 0.930 . S
H1097 C1110 0.930 . S
H1098 C1111 0.930 . S
H1099 C1115 0.959 . S
H1100 C1115 0.959 . S
H1101 C1115 0.961 . S
H1102 C1116 0.960 . S
H1103 C1116 0.961 . S
H1104 C1116 0.959 . S
H1105 C1119 0.929 . S
H1106 C1120 0.931 . S
H1107 C1122 0.930 . S
C1108 H1096 0.930 . S
C1108 C1109 1.399 . S
C1108 C1113 1.399 . S
C1109 C1108 1.399 . S
C1109 C1110 1.376 . S
C1110 H1097 0.930 . S
C1110 C1109 1.376 . S
C1110 C1111 1.388 . S
C1111 H1098 0.930 . S
C1111 C1110 1.388 . S
C1111 C1112 1.390 . S
C1112 C1111 1.390 . S
C1112 C1113 1.394 . S
C1112 C1118 1.465 . S
C1113 C1108 1.399 . S
C1113 C1112 1.394 . S
C1113 C1114 1.516 . S
C1114 C1113 1.516 . S
C1114 C1115 1.502 . S
C1114 C1116 1.561 . S
C1114 C1117 1.526 . S
C1115 H1099 0.959 . S
C1115 H1100 0.959 . S
C1115 H1101 0.961 . S
C1115 C1114 1.502 . S
C1116 H1102 0.960 . S
C1116 H1103 0.961 . S
C1116 H1104 0.959 . S
C1116 C1114 1.561 . S
C1117 C1114 1.526 . S
C1117 C1118 1.396 . S
C1117 C1122 1.390 . S
C1118 C1112 1.465 . S
C1118 C1117 1.396 . S
C1118 C1119 1.399 . S
C1119 H1105 0.929 . S
C1119 C1118 1.399 . S
C1119 C1120 1.385 . S
C1120 H1106 0.931 . S
C1120 C1119 1.385 . S
C1120 C1121 1.389 . S
C1121 C1120 1.389 . S
C1121 C1122 1.387 . S
C1122 H1107 0.930 . S
C1122 C1117 1.390 . S
C1122 C1121 1.387 . S
H1123 C1135 0.930 . S
H1124 C1137 0.930 . S
H1125 C1138 0.930 . S
H1126 C1142 0.959 . S
H1127 C1142 0.959 . S
H1128 C1142 0.961 . S
H1129 C1143 0.960 . S
H1130 C1143 0.961 . S
H1131 C1143 0.959 . S
H1132 C1146 0.929 . S
H1133 C1147 0.931 . S
H1134 C1149 0.930 . S
C1135 H1123 0.930 . S
C1135 C1136 1.399 . S
C1135 C1140 1.399 . S
C1136 C1135 1.399 . S
C1136 C1137 1.376 . S
C1137 H1124 0.930 . S
C1137 C1136 1.376 . S
C1137 C1138 1.388 . S
C1138 H1125 0.930 . S
C1138 C1137 1.388 . S
C1138 C1139 1.390 . S
C1139 C1138 1.390 . S
C1139 C1140 1.394 . S
C1139 C1145 1.465 . S
C1140 C1135 1.399 . S
C1140 C1139 1.394 . S
C1140 C1141 1.516 . S
C1141 C1140 1.516 . S
C1141 C1142 1.502 . S
C1141 C1143 1.561 . S
C1141 C1144 1.526 . S
C1142 H1126 0.959 . S
C1142 H1127 0.959 . S
C1142 H1128 0.961 . S
C1142 C1141 1.502 . S
C1143 H1129 0.960 . S
C1143 H1130 0.961 . S
C1143 H1131 0.959 . S
C1143 C1141 1.561 . S
C1144 C1141 1.526 . S
C1144 C1145 1.396 . S
C1144 C1149 1.390 . S
C1145 C1139 1.465 . S
C1145 C1144 1.396 . S
C1145 C1146 1.399 . S
C1146 H1132 0.929 . S
C1146 C1145 1.399 . S
C1146 C1147 1.385 . S
C1147 H1133 0.931 . S
C1147 C1146 1.385 . S
C1147 C1148 1.389 . S
C1148 C1147 1.389 . S
C1148 C1149 1.387 . S
C1149 H1134 0.930 . S
C1149 C1144 1.390 . S
C1149 C1148 1.387 . S
H1150 C1162 0.930 . S
H1151 C1164 0.930 . S
H1152 C1165 0.930 . S
H1153 C1169 0.959 . S
H1154 C1169 0.959 . S
H1155 C1169 0.961 . S
H1156 C1170 0.960 . S
H1157 C1170 0.961 . S
H1158 C1170 0.959 . S
H1159 C1173 0.929 . S
H1160 C1174 0.931 . S
H1161 C1176 0.930 . S
C1162 H1150 0.930 . S
C1162 C1163 1.399 . S
C1162 C1167 1.399 . S
C1163 C1162 1.399 . S
C1163 C1164 1.376 . S
C1164 H1151 0.930 . S
C1164 C1163 1.376 . S
C1164 C1165 1.388 . S
C1165 H1152 0.930 . S
C1165 C1164 1.388 . S
C1165 C1166 1.390 . S
C1166 C1165 1.390 . S
C1166 C1167 1.394 . S
C1166 C1172 1.465 . S
C1167 C1162 1.399 . S
C1167 C1166 1.394 . S
C1167 C1168 1.516 . S
C1168 C1167 1.516 . S
C1168 C1169 1.502 . S
C1168 C1170 1.561 . S
C1168 C1171 1.526 . S
C1169 H1153 0.959 . S
C1169 H1154 0.959 . S
C1169 H1155 0.961 . S
C1169 C1168 1.502 . S
C1170 H1156 0.960 . S
C1170 H1157 0.961 . S
C1170 H1158 0.959 . S
C1170 C1168 1.561 . S
C1171 C1168 1.526 . S
C1171 C1172 1.396 . S
C1171 C1176 1.390 . S
C1172 C1166 1.465 . S
C1172 C1171 1.396 . S
C1172 C1173 1.399 . S
C1173 H1159 0.929 . S
C1173 C1172 1.399 . S
C1173 C1174 1.385 . S
C1174 H1160 0.931 . S
C1174 C1173 1.385 . S
C1174 C1175 1.389 . S
C1175 C1174 1.389 . S
C1175 C1176 1.387 . S
C1176 H1161 0.930 . S
C1176 C1171 1.390 . S
C1176 C1175 1.387 . S
H1177 C1189 0.930 . S
H1178 C1191 0.930 . S
H1179 C1192 0.930 . S
H1180 C1196 0.959 . S
H1181 C1196 0.959 . S
H1182 C1196 0.961 . S
H1183 C1197 0.960 . S
H1184 C1197 0.961 . S
H1185 C1197 0.959 . S
H1186 C1200 0.929 . S
H1187 C1201 0.931 . S
H1188 C1203 0.930 . S
C1189 H1177 0.930 . S
C1189 C1190 1.399 . S
C1189 C1194 1.399 . S
C1190 C1189 1.399 . S
C1190 C1191 1.376 . S
C1191 H1178 0.930 . S
C1191 C1190 1.376 . S
C1191 C1192 1.388 . S
C1192 H1179 0.930 . S
C1192 C1191 1.388 . S
C1192 C1193 1.390 . S
C1193 C1192 1.390 . S
C1193 C1194 1.394 . S
C1193 C1199 1.465 . S
C1194 C1189 1.399 . S
C1194 C1193 1.394 . S
C1194 C1195 1.516 . S
C1195 C1194 1.516 . S
C1195 C1196 1.502 . S
C1195 C1197 1.561 . S
C1195 C1198 1.526 . S
C1196 H1180 0.959 . S
C1196 H1181 0.959 . S
C1196 H1182 0.961 . S
C1196 C1195 1.502 . S
C1197 H1183 0.960 . S
C1197 H1184 0.961 . S
C1197 H1185 0.959 . S
C1197 C1195 1.561 . S
C1198 C1195 1.526 . S
C1198 C1199 1.396 . S
C1198 C1203 1.390 . S
C1199 C1193 1.465 . S
C1199 C1198 1.396 . S
C1199 C1200 1.399 . S
C1200 H1186 0.929 . S
C1200 C1199 1.399 . S
C1200 C1201 1.385 . S
C1201 H1187 0.931 . S
C1201 C1200 1.385 . S
C1201 C1202 1.389 . S
C1202 C1201 1.389 . S
C1202 C1203 1.387 . S
C1203 H1188 0.930 . S
C1203 C1198 1.390 . S
C1203 C1202 1.387 . S
H1204 C1216 0.930 . S
H1205 C1218 0.930 . S
H1206 C1219 0.930 . S
H1207 C1223 0.959 . S
H1208 C1223 0.959 . S
H1209 C1223 0.961 . S
H1210 C1224 0.960 . S
H1211 C1224 0.961 . S
H1212 C1224 0.959 . S
H1213 C1227 0.929 . S
H1214 C1228 0.931 . S
H1215 C1230 0.930 . S
C1216 H1204 0.930 . S
C1216 C1217 1.399 . S
C1216 C1221 1.399 . S
C1217 C1216 1.399 . S
C1217 C1218 1.376 . S
C1218 H1205 0.930 . S
C1218 C1217 1.376 . S
C1218 C1219 1.388 . S
C1219 H1206 0.930 . S
C1219 C1218 1.388 . S
C1219 C1220 1.390 . S
C1220 C1219 1.390 . S
C1220 C1221 1.394 . S
C1220 C1226 1.465 . S
C1221 C1216 1.399 . S
C1221 C1220 1.394 . S
C1221 C1222 1.516 . S
C1222 C1221 1.516 . S
C1222 C1223 1.502 . S
C1222 C1224 1.561 . S
C1222 C1225 1.526 . S
C1223 H1207 0.959 . S
C1223 H1208 0.959 . S
C1223 H1209 0.961 . S
C1223 C1222 1.502 . S
C1224 H1210 0.960 . S
C1224 H1211 0.961 . S
C1224 H1212 0.959 . S
C1224 C1222 1.561 . S
C1225 C1222 1.526 . S
C1225 C1226 1.396 . S
C1225 C1230 1.390 . S
C1226 C1220 1.465 . S
C1226 C1225 1.396 . S
C1226 C1227 1.399 . S
C1227 H1213 0.929 . S
C1227 C1226 1.399 . S
C1227 C1228 1.385 . S
C1228 H1214 0.931 . S
C1228 C1227 1.385 . S
C1228 C1229 1.389 . S
C1229 C1228 1.389 . S
C1229 C1230 1.387 . S
C1230 H1215 0.930 . S
C1230 C1225 1.390 . S
C1230 C1229 1.387 . S
H1231 C1243 0.930 . S
H1232 C1245 0.930 . S
H1233 C1246 0.930 . S
H1234 C1250 0.959 . S
H1235 C1250 0.959 . S
H1236 C1250 0.961 . S
H1237 C1251 0.960 . S
H1238 C1251 0.961 . S
H1239 C1251 0.959 . S
H1240 C1254 0.929 . S
H1241 C1255 0.931 . S
H1242 C1257 0.930 . S
C1243 H1231 0.930 . S
C1243 C1244 1.399 . S
C1243 C1248 1.399 . S
C1244 C1243 1.399 . S
C1244 C1245 1.376 . S
C1245 H1232 0.930 . S
C1245 C1244 1.376 . S
C1245 C1246 1.388 . S
C1246 H1233 0.930 . S
C1246 C1245 1.388 . S
C1246 C1247 1.390 . S
C1247 C1246 1.390 . S
C1247 C1248 1.394 . S
C1247 C1253 1.465 . S
C1248 C1243 1.399 . S
C1248 C1247 1.394 . S
C1248 C1249 1.516 . S
C1249 C1248 1.516 . S
C1249 C1250 1.502 . S
C1249 C1251 1.561 . S
C1249 C1252 1.526 . S
C1250 H1234 0.959 . S
C1250 H1235 0.959 . S
C1250 H1236 0.961 . S
C1250 C1249 1.502 . S
C1251 H1237 0.960 . S
C1251 H1238 0.961 . S
C1251 H1239 0.959 . S
C1251 C1249 1.561 . S
C1252 C1249 1.526 . S
C1252 C1253 1.396 . S
C1252 C1257 1.390 . S
C1253 C1247 1.465 . S
C1253 C1252 1.396 . S
C1253 C1254 1.399 . S
C1254 H1240 0.929 . S
C1254 C1253 1.399 . S
C1254 C1255 1.385 . S
C1255 H1241 0.931 . S
C1255 C1254 1.385 . S
C1255 C1256 1.389 . S
C1256 C1255 1.389 . S
C1256 C1257 1.387 . S
C1257 H1242 0.930 . S
C1257 C1252 1.390 . S
C1257 C1256 1.387 . S
H1258 C1270 0.930 . S
H1259 C1272 0.930 . S
H1260 C1273 0.930 . S
H1261 C1277 0.959 . S
H1262 C1277 0.959 . S
H1263 C1277 0.961 . S
H1264 C1278 0.960 . S
H1265 C1278 0.961 . S
H1266 C1278 0.959 . S
H1267 C1281 0.929 . S
H1268 C1282 0.931 . S
H1269 C1284 0.930 . S
C1270 H1258 0.930 . S
C1270 C1271 1.399 . S
C1270 C1275 1.399 . S
C1271 C1270 1.399 . S
C1271 C1272 1.376 . S
C1272 H1259 0.930 . S
C1272 C1271 1.376 . S
C1272 C1273 1.388 . S
C1273 H1260 0.930 . S
C1273 C1272 1.388 . S
C1273 C1274 1.390 . S
C1274 C1273 1.390 . S
C1274 C1275 1.394 . S
C1274 C1280 1.465 . S
C1275 C1270 1.399 . S
C1275 C1274 1.394 . S
C1275 C1276 1.516 . S
C1276 C1275 1.516 . S
C1276 C1277 1.502 . S
C1276 C1278 1.561 . S
C1276 C1279 1.526 . S
C1277 H1261 0.959 . S
C1277 H1262 0.959 . S
C1277 H1263 0.961 . S
C1277 C1276 1.502 . S
C1278 H1264 0.960 . S
C1278 H1265 0.961 . S
C1278 H1266 0.959 . S
C1278 C1276 1.561 . S
C1279 C1276 1.526 . S
C1279 C1280 1.396 . S
C1279 C1284 1.390 . S
C1280 C1274 1.465 . S
C1280 C1279 1.396 . S
C1280 C1281 1.399 . S
C1281 H1267 0.929 . S
C1281 C1280 1.399 . S
C1281 C1282 1.385 . S
C1282 H1268 0.931 . S
C1282 C1281 1.385 . S
C1282 C1283 1.389 . S
C1283 C1282 1.389 . S
C1283 C1284 1.387 . S
C1284 H1269 0.930 . S
C1284 C1279 1.390 . S
C1284 C1283 1.387 . S
H1285 C1297 0.930 . S
H1286 C1299 0.930 . S
H1287 C1300 0.930 . S
H1288 C1304 0.959 . S
H1289 C1304 0.959 . S
H1290 C1304 0.961 . S
H1291 C1305 0.960 . S
H1292 C1305 0.961 . S
H1293 C1305 0.959 . S
H1294 C1308 0.929 . S
H1295 C1309 0.931 . S
H1296 C1311 0.930 . S
C1297 H1285 0.930 . S
C1297 C1298 1.399 . S
C1297 C1302 1.399 . S
C1298 C1297 1.399 . S
C1298 C1299 1.376 . S
C1299 H1286 0.930 . S
C1299 C1298 1.376 . S
C1299 C1300 1.388 . S
C1300 H1287 0.930 . S
C1300 C1299 1.388 . S
C1300 C1301 1.390 . S
C1301 C1300 1.390 . S
C1301 C1302 1.394 . S
C1301 C1307 1.465 . S
C1302 C1297 1.399 . S
C1302 C1301 1.394 . S
C1302 C1303 1.516 . S
C1303 C1302 1.516 . S
C1303 C1304 1.502 . S
C1303 C1305 1.561 . S
C1303 C1306 1.526 . S
C1304 H1288 0.959 . S
C1304 H1289 0.959 . S
C1304 H1290 0.961 . S
C1304 C1303 1.502 . S
C1305 H1291 0.960 . S
C1305 H1292 0.961 . S
C1305 H1293 0.959 . S
C1305 C1303 1.561 . S
C1306 C1303 1.526 . S
C1306 C1307 1.396 . S
C1306 C1311 1.390 . S
C1307 C1301 1.465 . S
C1307 C1306 1.396 . S
C1307 C1308 1.399 . S
C1308 H1294 0.929 . S
C1308 C1307 1.399 . S
C1308 C1309 1.385 . S
C1309 H1295 0.931 . S
C1309 C1308 1.385 . S
C1309 C1310 1.389 . S
C1310 C1309 1.389 . S
C1310 C1311 1.387 . S
C1311 H1296 0.930 . S
C1311 C1306 1.390 . S
C1311 C1310 1.387 . S
H1312 C1324 0.930 . S
H1313 C1326 0.930 . S
H1314 C1327 0.930 . S
H1315 C1331 0.959 . S
H1316 C1331 0.959 . S
H1317 C1331 0.961 . S
H1318 C1332 0.960 . S
H1319 C1332 0.961 . S
H1320 C1332 0.959 . S
H1321 C1335 0.929 . S
H1322 C1336 0.931 . S
H1323 C1338 0.930 . S
C1324 H1312 0.930 . S
C1324 C1325 1.399 . S
C1324 C1329 1.399 . S
C1325 C1324 1.399 . S
C1325 C1326 1.376 . S
C1326 H1313 0.930 . S
C1326 C1325 1.376 . S
C1326 C1327 1.388 . S
C1327 H1314 0.930 . S
C1327 C1326 1.388 . S
C1327 C1328 1.390 . S
C1328 C1327 1.390 . S
C1328 C1329 1.394 . S
C1328 C1334 1.465 . S
C1329 C1324 1.399 . S
C1329 C1328 1.394 . S
C1329 C1330 1.516 . S
C1330 C1329 1.516 . S
C1330 C1331 1.502 . S
C1330 C1332 1.561 . S
C1330 C1333 1.526 . S
C1331 H1315 0.959 . S
C1331 H1316 0.959 . S
C1331 H1317 0.961 . S
C1331 C1330 1.502 . S
C1332 H1318 0.960 . S
C1332 H1319 0.961 . S
C1332 H1320 0.959 . S
C1332 C1330 1.561 . S
C1333 C1330 1.526 . S
C1333 C1334 1.396 . S
C1333 C1338 1.390 . S
C1334 C1328 1.465 . S
C1334 C1333 1.396 . S
C1334 C1335 1.399 . S
C1335 H1321 0.929 . S
C1335 C1334 1.399 . S
C1335 C1336 1.385 . S
C1336 H1322 0.931 . S
C1336 C1335 1.385 . S
C1336 C1337 1.389 . S
C1337 C1336 1.389 . S
C1337 C1338 1.387 . S
C1338 H1323 0.930 . S
C1338 C1333 1.390 . S
C1338 C1337 1.387 . S
H1339 C1351 0.930 . S
H1340 C1353 0.930 . S
H1341 C1354 0.930 . S
H1342 C1358 0.959 . S
H1343 C1358 0.959 . S
H1344 C1358 0.961 . S
H1345 C1359 0.960 1_455 S
H1346 C1359 0.961 . S
H1347 C1359 0.959 . S
H1348 C1362 0.929 . S
H1349 C1363 0.931 . S
H1350 C1365 0.930 . S
C1351 H1339 0.930 . S
C1351 C1352 1.399 . S
C1351 C1356 1.399 . S
C1352 C1351 1.399 . S
C1352 C1353 1.376 1_565 S
C1353 H1340 0.930 . S
C1353 C1352 1.376 1_545 S
C1353 C1354 1.388 1_455 S
C1354 H1341 0.930 . S
C1354 C1353 1.388 1_655 S
C1354 C1355 1.390 . S
C1355 C1354 1.390 . S
C1355 C1356 1.394 1_645 S
C1355 C1361 1.465 . S
C1356 C1351 1.399 . S
C1356 C1355 1.394 1_465 S
C1356 C1357 1.516 . S
C1357 C1356 1.516 . S
C1357 C1358 1.502 . S
C1357 C1359 1.561 1_455 S
C1357 C1360 1.526 1_455 S
C1358 H1342 0.959 . S
C1358 H1343 0.959 . S
C1358 H1344 0.961 . S
C1358 C1357 1.502 . S
C1359 H1345 0.960 1_655 S
C1359 H1346 0.961 . S
C1359 H1347 0.959 . S
C1359 C1357 1.561 1_655 S
C1360 C1357 1.526 1_655 S
C1360 C1361 1.396 1_565 S
C1360 C1365 1.390 . S
C1361 C1355 1.465 . S
C1361 C1360 1.396 1_545 S
C1361 C1362 1.399 . S
C1362 H1348 0.929 . S
C1362 C1361 1.399 . S
C1362 C1363 1.385 . S
C1363 H1349 0.931 . S
C1363 C1362 1.385 . S
C1363 C1364 1.389 . S
C1364 C1363 1.389 . S
C1364 C1365 1.387 1_545 S
C1365 H1350 0.930 . S
C1365 C1360 1.390 . S
C1365 C1364 1.387 1_565 S
H1366 C1378 0.930 . S
H1367 C1380 0.930 . S
H1368 C1381 0.930 . S
H1369 C1385 0.959 . S
H1370 C1385 0.959 . S
H1371 C1385 0.961 . S
H1372 C1386 0.960 . S
H1373 C1386 0.961 . S
H1374 C1386 0.959 . S
H1375 C1389 0.929 . S
H1376 C1390 0.931 . S
H1377 C1392 0.930 . S
C1378 H1366 0.930 . S
C1378 C1379 1.399 . S
C1378 C1383 1.399 . S
C1379 C1378 1.399 . S
C1379 C1380 1.376 . S
C1380 H1367 0.930 . S
C1380 C1379 1.376 . S
C1380 C1381 1.388 . S
C1381 H1368 0.930 . S
C1381 C1380 1.388 . S
C1381 C1382 1.390 . S
C1382 C1381 1.390 . S
C1382 C1383 1.394 . S
C1382 C1388 1.465 . S
C1383 C1378 1.399 . S
C1383 C1382 1.394 . S
C1383 C1384 1.516 . S
C1384 C1383 1.516 . S
C1384 C1385 1.502 . S
C1384 C1386 1.561 . S
C1384 C1387 1.526 . S
C1385 H1369 0.959 . S
C1385 H1370 0.959 . S
C1385 H1371 0.961 . S
C1385 C1384 1.502 . S
C1386 H1372 0.960 . S
C1386 H1373 0.961 . S
C1386 H1374 0.959 . S
C1386 C1384 1.561 . S
C1387 C1384 1.526 . S
C1387 C1388 1.396 . S
C1387 C1392 1.390 . S
C1388 C1382 1.465 . S
C1388 C1387 1.396 . S
C1388 C1389 1.399 . S
C1389 H1375 0.929 . S
C1389 C1388 1.399 . S
C1389 C1390 1.385 . S
C1390 H1376 0.931 . S
C1390 C1389 1.385 . S
C1390 C1391 1.389 . S
C1391 C1390 1.389 . S
C1391 C1392 1.387 . S
C1392 H1377 0.930 . S
C1392 C1387 1.390 . S
C1392 C1391 1.387 . S
H1393 C1405 0.930 . S
H1394 C1407 0.930 . S
H1395 C1408 0.930 . S
H1396 C1412 0.959 . S
H1397 C1412 0.959 . S
H1398 C1412 0.961 1_554 S
H1399 C1413 0.960 . S
H1400 C1413 0.961 . S
H1401 C1413 0.957 . S
H1402 C1416 0.929 . S
H1403 C1417 0.931 . S
H1404 C1419 0.930 . S
C1405 H1393 0.930 . S
C1405 C1406 1.399 . S
C1405 C1410 1.399 . S
C1406 C1405 1.399 . S
C1406 C1407 1.376 1_545 S
C1407 H1394 0.930 . S
C1407 C1406 1.376 1_565 S
C1407 C1408 1.388 . S
C1408 H1395 0.930 . S
C1408 C1407 1.388 . S
C1408 C1409 1.390 . S
C1409 C1408 1.390 . S
C1409 C1410 1.394 1_565 S
C1409 C1415 1.465 1_554 S
C1410 C1405 1.399 . S
C1410 C1409 1.394 1_545 S
C1410 C1411 1.516 . S
C1411 C1410 1.516 . S
C1411 C1412 1.502 1_554 S
C1411 C1413 1.561 . S
C1411 C1414 1.526 1_554 S
C1412 H1396 0.959 . S
C1412 H1397 0.959 . S
C1412 H1398 0.961 1_556 S
C1412 C1411 1.502 1_556 S
C1413 H1399 0.960 . S
C1413 H1400 0.961 . S
C1413 H1401 0.957 . S
C1413 C1411 1.561 . S
C1414 C1411 1.526 1_556 S
C1414 C1415 1.396 1_545 S
C1414 C1419 1.390 . S
C1415 C1409 1.465 1_556 S
C1415 C1414 1.396 1_565 S
C1415 C1416 1.399 . S
C1416 H1402 0.929 . S
C1416 C1415 1.399 . S
C1416 C1417 1.385 . S
C1417 H1403 0.931 . S
C1417 C1416 1.385 . S
C1417 C1418 1.389 . S
C1418 C1417 1.389 . S
C1418 C1419 1.387 1_565 S
C1419 H1404 0.930 . S
C1419 C1414 1.390 . S
C1419 C1418 1.387 1_545 S
H1420 C1432 0.930 . S
H1421 C1434 0.930 . S
H1422 C1435 0.930 . S
H1423 C1439 0.959 . S
H1424 C1439 0.959 . S
H1425 C1439 0.961 . S
H1426 C1440 0.960 . S
H1427 C1440 0.961 . S
H1428 C1440 0.959 . S
H1429 C1443 0.929 . S
H1430 C1444 0.931 . S
H1431 C1446 0.930 . S
C1432 H1420 0.930 . S
C1432 C1433 1.399 . S
C1432 C1437 1.399 . S
C1433 C1432 1.399 . S
C1433 C1434 1.376 . S
C1434 H1421 0.930 . S
C1434 C1433 1.376 . S
C1434 C1435 1.388 . S
C1435 H1422 0.930 . S
C1435 C1434 1.388 . S
C1435 C1436 1.390 . S
C1436 C1435 1.390 . S
C1436 C1437 1.394 . S
C1436 C1442 1.465 . S
C1437 C1432 1.399 . S
C1437 C1436 1.394 . S
C1437 C1438 1.516 . S
C1438 C1437 1.516 . S
C1438 C1439 1.502 . S
C1438 C1440 1.561 . S
C1438 C1441 1.526 . S
C1439 H1423 0.959 . S
C1439 H1424 0.959 . S
C1439 H1425 0.961 . S
C1439 C1438 1.502 . S
C1440 H1426 0.960 . S
C1440 H1427 0.961 . S
C1440 H1428 0.959 . S
C1440 C1438 1.561 . S
C1441 C1438 1.526 . S
C1441 C1442 1.396 . S
C1441 C1446 1.390 . S
C1442 C1436 1.465 . S
C1442 C1441 1.396 . S
C1442 C1443 1.399 . S
C1443 H1429 0.929 . S
C1443 C1442 1.399 . S
C1443 C1444 1.385 . S
C1444 H1430 0.931 . S
C1444 C1443 1.385 . S
C1444 C1445 1.389 . S
C1445 C1444 1.389 . S
C1445 C1446 1.387 . S
C1446 H1431 0.930 . S
C1446 C1441 1.390 . S
C1446 C1445 1.387 . S
H1447 C1459 0.930 . S
H1448 C1461 0.930 . S
H1449 C1462 0.930 . S
H1450 C1466 0.959 . S
H1451 C1466 0.959 . S
H1452 C1466 0.961 . S
H1453 C1467 0.960 . S
H1454 C1467 0.961 . S
H1455 C1467 0.923 1_565 S
H1456 C1470 0.929 . S
H1457 C1471 0.931 . S
H1458 C1473 0.930 . S
C1459 H1447 0.930 . S
C1459 C1460 1.399 1_545 S
C1459 C1464 1.399 . S
C1460 C1459 1.399 1_565 S
C1460 C1461 1.376 . S
C1461 H1448 0.930 . S
C1461 C1460 1.376 . S
C1461 C1462 1.388 . S
C1462 H1449 0.930 . S
C1462 C1461 1.388 . S
C1462 C1463 1.390 . S
C1463 C1462 1.390 . S
C1463 C1464 1.394 1_565 S
C1463 C1469 1.465 . S
C1464 C1459 1.399 . S
C1464 C1463 1.394 1_545 S
C1464 C1465 1.516 . S
C1465 C1464 1.516 . S
C1465 C1466 1.502 . S
C1465 C1467 1.561 . S
C1465 C1468 1.526 . S
C1466 H1450 0.959 . S
C1466 H1451 0.959 . S
C1466 H1452 0.961 . S
C1466 C1465 1.502 . S
C1467 H1453 0.960 . S
C1467 H1454 0.961 . S
C1467 H1455 0.923 1_545 S
C1467 C1465 1.561 . S
C1468 C1465 1.526 . S
C1468 C1469 1.396 1_545 S
C1468 C1473 1.390 . S
C1469 C1463 1.465 . S
C1469 C1468 1.396 1_565 S
C1469 C1470 1.399 . S
C1470 H1456 0.929 . S
C1470 C1469 1.399 . S
C1470 C1471 1.385 . S
C1471 H1457 0.931 . S
C1471 C1470 1.385 . S
C1471 C1472 1.389 1_565 S
C1472 C1471 1.389 1_545 S
C1472 C1473 1.387 . S
C1473 H1458 0.930 . S
C1473 C1468 1.390 . S
C1473 C1472 1.387 . S
H1474 C1486 0.930 . S
H1475 C1488 0.930 . S
H1476 C1489 0.930 . S
H1477 C1493 0.959 . S
H1478 C1493 0.959 . S
H1479 C1493 0.961 . S
H1480 C1494 0.960 . S
H1481 C1494 0.961 . S
H1482 C1494 0.959 . S
H1483 C1497 0.929 . S
H1484 C1498 0.931 . S
H1485 C1500 0.930 . S
C1486 H1474 0.930 . S
C1486 C1487 1.399 . S
C1486 C1491 1.399 . S
C1487 C1486 1.399 . S
C1487 C1488 1.376 . S
C1488 H1475 0.930 . S
C1488 C1487 1.376 . S
C1488 C1489 1.388 . S
C1489 H1476 0.930 . S
C1489 C1488 1.388 . S
C1489 C1490 1.390 . S
C1490 C1489 1.390 . S
C1490 C1491 1.394 . S
C1490 C1496 1.465 . S
C1491 C1486 1.399 . S
C1491 C1490 1.394 . S
C1491 C1492 1.516 . S
C1492 C1491 1.516 . S
C1492 C1493 1.502 . S
C1492 C1494 1.561 . S
C1492 C1495 1.526 . S
C1493 H1477 0.959 . S
C1493 H1478 0.959 . S
C1493 H1479 0.961 . S
C1493 C1492 1.502 . S
C1494 H1480 0.960 . S
C1494 H1481 0.961 . S
C1494 H1482 0.959 . S
C1494 C1492 1.561 . S
C1495 C1492 1.526 . S
C1495 C1496 1.396 . S
C1495 C1500 1.390 . S
C1496 C1490 1.465 . S
C1496 C1495 1.396 . S
C1496 C1497 1.399 . S
C1497 H1483 0.929 . S
C1497 C1496 1.399 . S
C1497 C1498 1.385 . S
C1498 H1484 0.931 . S
C1498 C1497 1.385 . S
C1498 C1499 1.389 . S
C1499 C1498 1.389 . S
C1499 C1500 1.387 . S
C1500 H1485 0.930 . S
C1500 C1495 1.390 . S
C1500 C1499 1.387 . S
H1501 C1513 0.930 . S
H1502 C1515 0.930 . S
H1503 C1516 0.930 . S
H1504 C1520 0.959 . S
H1505 C1520 0.959 . S
H1506 C1520 0.961 . S
H1507 C1521 0.960 1_556 S
H1508 C1521 0.961 . S
H1509 C1521 0.959 . S
H1510 C1524 0.929 . S
H1511 C1525 0.931 . S
H1512 C1527 0.930 . S
C1513 H1501 0.930 . S
C1513 C1514 1.399 1_565 S
C1513 C1518 1.399 . S
C1514 C1513 1.399 1_545 S
C1514 C1515 1.376 . S
C1515 H1502 0.930 . S
C1515 C1514 1.376 . S
C1515 C1516 1.388 . S
C1516 H1503 0.930 . S
C1516 C1515 1.388 . S
C1516 C1517 1.390 . S
C1517 C1516 1.390 . S
C1517 C1518 1.394 1_545 S
C1517 C1523 1.465 1_456 S
C1518 C1513 1.399 . S
C1518 C1517 1.394 1_565 S
C1518 C1519 1.516 . S
C1519 C1518 1.516 . S
C1519 C1520 1.502 1_455 S
C1519 C1521 1.561 1_556 S
C1519 C1522 1.526 1_456 S
C1520 H1504 0.959 . S
C1520 H1505 0.959 . S
C1520 H1506 0.961 . S
C1520 C1519 1.502 1_655 S
C1521 H1507 0.960 1_554 S
C1521 H1508 0.961 . S
C1521 H1509 0.959 . S
C1521 C1519 1.561 1_554 S
C1522 C1519 1.526 1_654 S
C1522 C1523 1.396 1_565 S
C1522 C1527 1.390 . S
C1523 C1517 1.465 1_654 S
C1523 C1522 1.396 1_545 S
C1523 C1524 1.399 . S
C1524 H1510 0.929 . S
C1524 C1523 1.399 . S
C1524 C1525 1.385 . S
C1525 H1511 0.931 . S
C1525 C1524 1.385 . S
C1525 C1526 1.389 1_545 S
C1526 C1525 1.389 1_565 S
C1526 C1527 1.387 . S
C1527 H1512 0.930 . S
C1527 C1522 1.390 . S
C1527 C1526 1.387 . S
H1528 C1540 0.930 . S
H1529 C1542 0.930 . S
H1530 C1543 0.930 . S
H1531 C1547 0.959 . S
H1532 C1547 0.959 . S
H1533 C1547 0.961 . S
H1534 C1548 0.960 . S
H1535 C1548 0.961 . S
H1536 C1548 0.959 . S
H1537 C1551 0.929 . S
H1538 C1552 0.931 . S
H1539 C1554 0.930 . S
C1540 H1528 0.930 . S
C1540 C1541 1.399 . S
C1540 C1545 1.399 . S
C1541 C1540 1.399 . S
C1541 C1542 1.376 . S
C1542 H1529 0.930 . S
C1542 C1541 1.376 . S
C1542 C1543 1.388 . S
C1543 H1530 0.930 . S
C1543 C1542 1.388 . S
C1543 C1544 1.390 . S
C1544 C1543 1.390 . S
C1544 C1545 1.394 . S
C1544 C1550 1.465 . S
C1545 C1540 1.399 . S
C1545 C1544 1.394 . S
C1545 C1546 1.516 . S
C1546 C1545 1.516 . S
C1546 C1547 1.502 . S
C1546 C1548 1.561 . S
C1546 C1549 1.526 . S
C1547 H1531 0.959 . S
C1547 H1532 0.959 . S
C1547 H1533 0.961 . S
C1547 C1546 1.502 . S
C1548 H1534 0.960 . S
C1548 H1535 0.961 . S
C1548 H1536 0.959 . S
C1548 C1546 1.561 . S
C1549 C1546 1.526 . S
C1549 C1550 1.396 . S
C1549 C1554 1.390 . S
C1550 C1544 1.465 . S
C1550 C1549 1.396 . S
C1550 C1551 1.399 . S
C1551 H1537 0.929 . S
C1551 C1550 1.399 . S
C1551 C1552 1.385 . S
C1552 H1538 0.931 . S
C1552 C1551 1.385 . S
C1552 C1553 1.389 . S
C1553 C1552 1.389 . S
C1553 C1554 1.387 . S
C1554 H1539 0.930 . S
C1554 C1549 1.390 . S
C1554 C1553 1.387 . S
H1555 C1567 0.930 . S
H1556 C1569 0.930 . S
H1557 C1570 0.930 . S
H1558 C1574 0.959 . S
H1559 C1574 0.959 . S
H1560 C1574 0.961 . S
H1561 C1575 0.960 . S
H1562 C1575 0.961 . S
H1563 C1575 0.959 . S
H1564 C1578 0.929 . S
H1565 C1579 0.931 . S
H1566 C1581 0.930 . S
C1567 H1555 0.930 . S
C1567 C1568 1.399 . S
C1567 C1572 1.399 . S
C1568 C1567 1.399 . S
C1568 C1569 1.376 . S
C1569 H1556 0.930 . S
C1569 C1568 1.376 . S
C1569 C1570 1.388 . S
C1570 H1557 0.930 . S
C1570 C1569 1.388 . S
C1570 C1571 1.390 . S
C1571 C1570 1.390 . S
C1571 C1572 1.394 . S
C1571 C1577 1.465 . S
C1572 C1567 1.399 . S
C1572 C1571 1.394 . S
C1572 C1573 1.516 . S
C1573 C1572 1.516 . S
C1573 C1574 1.502 . S
C1573 C1575 1.561 . S
C1573 C1576 1.526 . S
C1574 H1558 0.959 . S
C1574 H1559 0.959 . S
C1574 H1560 0.961 . S
C1574 C1573 1.502 . S
C1575 H1561 0.960 . S
C1575 H1562 0.961 . S
C1575 H1563 0.959 . S
C1575 C1573 1.561 . S
C1576 C1573 1.526 . S
C1576 C1577 1.396 . S
C1576 C1581 1.390 . S
C1577 C1571 1.465 . S
C1577 C1576 1.396 . S
C1577 C1578 1.399 . S
C1578 H1564 0.929 . S
C1578 C1577 1.399 . S
C1578 C1579 1.385 . S
C1579 H1565 0.931 . S
C1579 C1578 1.385 . S
C1579 C1580 1.389 . S
C1580 C1579 1.389 . S
C1580 C1581 1.387 . S
C1581 H1566 0.930 . S
C1581 C1576 1.390 . S
C1581 C1580 1.387 . S
H1582 C1594 0.930 . S
H1583 C1596 0.930 . S
H1584 C1597 0.930 . S
H1585 C1601 0.959 . S
H1586 C1601 0.959 . S
H1587 C1601 0.961 . S
H1588 C1602 0.960 . S
H1589 C1602 0.961 . S
H1590 C1602 0.959 . S
H1591 C1605 0.929 . S
H1592 C1606 0.931 . S
H1593 C1608 0.930 . S
C1594 H1582 0.930 . S
C1594 C1595 1.399 . S
C1594 C1599 1.399 . S
C1595 C1594 1.399 . S
C1595 C1596 1.376 . S
C1596 H1583 0.930 . S
C1596 C1595 1.376 . S
C1596 C1597 1.388 . S
C1597 H1584 0.930 . S
C1597 C1596 1.388 . S
C1597 C1598 1.390 . S
C1598 C1597 1.390 . S
C1598 C1599 1.394 . S
C1598 C1604 1.465 . S
C1599 C1594 1.399 . S
C1599 C1598 1.394 . S
C1599 C1600 1.516 . S
C1600 C1599 1.516 . S
C1600 C1601 1.502 . S
C1600 C1602 1.561 . S
C1600 C1603 1.526 . S
C1601 H1585 0.959 . S
C1601 H1586 0.959 . S
C1601 H1587 0.961 . S
C1601 C1600 1.502 . S
C1602 H1588 0.960 . S
C1602 H1589 0.961 . S
C1602 H1590 0.959 . S
C1602 C1600 1.561 . S
C1603 C1600 1.526 . S
C1603 C1604 1.396 . S
C1603 C1608 1.390 . S
C1604 C1598 1.465 . S
C1604 C1603 1.396 . S
C1604 C1605 1.399 . S
C1605 H1591 0.929 . S
C1605 C1604 1.399 . S
C1605 C1606 1.385 . S
C1606 H1592 0.931 . S
C1606 C1605 1.385 . S
C1606 C1607 1.389 . S
C1607 C1606 1.389 . S
C1607 C1608 1.387 . S
C1608 H1593 0.930 . S
C1608 C1603 1.390 . S
C1608 C1607 1.387 . S
H1609 C1621 0.930 . S
H1610 C1623 0.930 . S
H1611 C1624 0.930 . S
H1612 C1628 0.959 . S
H1613 C1628 0.959 . S
H1614 C1628 0.961 . S
H1615 C1629 0.960 . S
H1616 C1629 0.961 . S
H1617 C1629 0.959 . S
H1618 C1632 0.929 . S
H1619 C1633 0.931 . S
H1620 C1635 0.930 . S
C1621 H1609 0.930 . S
C1621 C1622 1.399 . S
C1621 C1626 1.399 . S
C1622 C1621 1.399 . S
C1622 C1623 1.376 . S
C1623 H1610 0.930 . S
C1623 C1622 1.376 . S
C1623 C1624 1.388 . S
C1624 H1611 0.930 . S
C1624 C1623 1.388 . S
C1624 C1625 1.390 . S
C1625 C1624 1.390 . S
C1625 C1626 1.394 . S
C1625 C1631 1.465 . S
C1626 C1621 1.399 . S
C1626 C1625 1.394 . S
C1626 C1627 1.516 . S
C1627 C1626 1.516 . S
C1627 C1628 1.502 . S
C1627 C1629 1.561 . S
C1627 C1630 1.526 . S
C1628 H1612 0.959 . S
C1628 H1613 0.959 . S
C1628 H1614 0.961 . S
C1628 C1627 1.502 . S
C1629 H1615 0.960 . S
C1629 H1616 0.961 . S
C1629 H1617 0.959 . S
C1629 C1627 1.561 . S
C1630 C1627 1.526 . S
C1630 C1631 1.396 . S
C1630 C1635 1.390 . S
C1631 C1625 1.465 . S
C1631 C1630 1.396 . S
C1631 C1632 1.399 . S
C1632 H1618 0.929 . S
C1632 C1631 1.399 . S
C1632 C1633 1.385 . S
C1633 H1619 0.931 . S
C1633 C1632 1.385 . S
C1633 C1634 1.389 . S
C1634 C1633 1.389 . S
C1634 C1635 1.387 . S
C1635 H1620 0.930 . S
C1635 C1630 1.390 . S
C1635 C1634 1.387 . S
H1636 C1648 0.930 . S
H1637 C1650 0.930 . S
H1638 C1651 0.930 . S
H1639 C1655 0.959 . S
H1640 C1655 0.959 . S
H1641 C1655 0.961 . S
H1642 C1656 0.955 1_554 S
H1643 C1656 0.961 . S
H1644 C1656 0.959 . S
H1645 C1659 0.929 . S
H1646 C1660 0.931 . S
H1647 C1662 0.930 . S
C1648 H1636 0.930 . S
C1648 C1649 1.399 . S
C1648 C1653 1.399 . S
C1649 C1648 1.399 . S
C1649 C1650 1.376 . S
C1650 H1637 0.930 . S
C1650 C1649 1.376 . S
C1650 C1651 1.388 . S
C1651 H1638 0.930 . S
C1651 C1650 1.388 . S
C1651 C1652 1.390 . S
C1652 C1651 1.390 . S
C1652 C1653 1.394 . S
C1652 C1658 1.465 1_554 S
C1653 C1648 1.399 . S
C1653 C1652 1.394 . S
C1653 C1654 1.516 1_554 S
C1654 C1653 1.516 1_556 S
C1654 C1655 1.502 . S
C1654 C1656 1.561 . S
C1654 C1657 1.526 . S
C1655 H1639 0.959 . S
C1655 H1640 0.959 . S
C1655 H1641 0.961 . S
C1655 C1654 1.502 . S
C1656 H1642 0.955 1_556 S
C1656 H1643 0.961 . S
C1656 H1644 0.959 . S
C1656 C1654 1.561 . S
C1657 C1654 1.526 . S
C1657 C1658 1.396 . S
C1657 C1662 1.390 . S
C1658 C1652 1.465 1_556 S
C1658 C1657 1.396 . S
C1658 C1659 1.399 . S
C1659 H1645 0.929 . S
C1659 C1658 1.399 . S
C1659 C1660 1.385 . S
C1660 H1646 0.931 . S
C1660 C1659 1.385 . S
C1660 C1661 1.389 . S
C1661 C1660 1.389 . S
C1661 C1662 1.387 . S
C1662 H1647 0.930 . S
C1662 C1657 1.390 . S
C1662 C1661 1.387 . S
H1663 C1675 0.930 . S
H1664 C1677 0.930 . S
H1665 C1678 0.945 . S
H1666 C1682 0.959 . S
H1667 C1682 0.959 . S
H1668 C1682 0.961 . S
H1669 C1683 0.960 . S
H1670 C1683 0.961 . S
H1671 C1683 0.959 . S
H1672 C1686 0.929 . S
H1673 C1687 0.931 . S
H1674 C1689 0.930 . S
C1675 H1663 0.930 . S
C1675 C1676 1.399 . S
C1675 C1680 1.399 . S
C1676 C1675 1.399 . S
C1676 C1677 1.376 . S
C1677 H1664 0.930 . S
C1677 C1676 1.376 . S
C1677 C1678 1.374 1_455 S
C1678 H1665 0.945 . S
C1678 C1677 1.374 1_655 S
C1678 C1679 1.391 . S
C1679 C1678 1.391 . S
C1679 C1680 1.394 1_655 S
C1679 C1685 1.465 . S
C1680 C1675 1.399 . S
C1680 C1679 1.394 1_455 S
C1680 C1681 1.516 . S
C1681 C1680 1.516 . S
C1681 C1682 1.502 . S
C1681 C1683 1.561 1_455 S
C1681 C1684 1.526 1_455 S
C1682 H1666 0.959 . S
C1682 H1667 0.959 . S
C1682 H1668 0.961 . S
C1682 C1681 1.502 . S
C1683 H1669 0.960 . S
C1683 H1670 0.961 . S
C1683 H1671 0.959 . S
C1683 C1681 1.561 1_655 S
C1684 C1681 1.526 1_655 S
C1684 C1685 1.396 . S
C1684 C1689 1.390 . S
C1685 C1679 1.465 . S
C1685 C1684 1.396 . S
C1685 C1686 1.399 . S
C1686 H1672 0.929 . S
C1686 C1685 1.399 . S
C1686 C1687 1.385 . S
C1687 H1673 0.931 . S
C1687 C1686 1.385 . S
C1687 C1688 1.389 . S
C1688 C1687 1.389 . S
C1688 C1689 1.387 . S
C1689 H1674 0.930 . S
C1689 C1684 1.390 . S
C1689 C1688 1.387 . S
H1690 C1702 0.930 . S
H1691 C1704 0.930 . S
H1692 C1705 0.930 . S
H1693 C1709 0.959 . S
H1694 C1709 0.959 . S
H1695 C1709 0.961 1_554 S
H1696 C1710 0.960 1_455 S
H1697 C1710 0.961 1_556 S
H1698 C1710 0.959 . S
H1699 C1713 0.929 . S
H1700 C1714 0.931 . S
H1701 C1716 0.930 . S
C1702 H1690 0.930 . S
C1702 C1703 1.399 . S
C1702 C1707 1.399 . S
C1703 C1702 1.399 . S
C1703 C1704 1.376 . S
C1704 H1691 0.930 . S
C1704 C1703 1.376 . S
C1704 C1705 1.388 1_455 S
C1705 H1692 0.930 . S
C1705 C1704 1.388 1_655 S
C1705 C1706 1.390 . S
C1706 C1705 1.390 . S
C1706 C1707 1.394 1_655 S
C1706 C1712 1.465 1_554 S
C1707 C1702 1.399 . S
C1707 C1706 1.394 1_455 S
C1707 C1708 1.550 . S
C1708 C1707 1.550 . S
C1708 C1709 1.488 1_554 S
C1708 C1710 1.578 1_455 S
C1708 C1711 1.492 1_454 S
C1709 H1693 0.959 . S
C1709 H1694 0.959 . S
C1709 H1695 0.961 1_556 S
C1709 C1708 1.488 1_556 S
C1710 H1696 0.960 1_655 S
C1710 H1697 0.961 1_554 S
C1710 H1698 0.959 . S
C1710 C1708 1.578 1_655 S
C1711 C1708 1.492 1_656 S
C1711 C1712 1.396 . S
C1711 C1716 1.390 . S
C1712 C1706 1.465 1_556 S
C1712 C1711 1.396 . S
C1712 C1713 1.399 . S
C1713 H1699 0.929 . S
C1713 C1712 1.399 . S
C1713 C1714 1.385 . S
C1714 H1700 0.931 . S
C1714 C1713 1.385 . S
C1714 C1715 1.389 . S
C1715 C1714 1.389 . S
C1715 C1716 1.387 . S
C1716 H1701 0.930 . S
C1716 C1711 1.390 . S
C1716 C1715 1.387 . S
H1717 C1729 0.930 . S
H1718 C1731 0.930 . S
H1719 C1732 0.930 . S
H1720 C1736 0.959 . S
H1721 C1736 0.959 . S
H1722 C1736 0.961 . S
H1723 C1737 0.960 . S
H1724 C1737 0.961 . S
H1725 C1737 0.959 . S
H1726 C1740 0.929 . S
H1727 C1741 0.931 . S
H1728 C1743 0.930 . S
C1729 H1717 0.930 . S
C1729 C1730 1.399 . S
C1729 C1734 1.399 . S
C1730 C1729 1.399 . S
C1730 C1731 1.376 . S
C1731 H1718 0.930 . S
C1731 C1730 1.376 . S
C1731 C1732 1.388 . S
C1732 H1719 0.930 . S
C1732 C1731 1.388 . S
C1732 C1733 1.390 . S
C1733 C1732 1.390 . S
C1733 C1734 1.394 . S
C1733 C1739 1.465 . S
C1734 C1729 1.399 . S
C1734 C1733 1.394 . S
C1734 C1735 1.516 . S
C1735 C1734 1.516 . S
C1735 C1736 1.502 . S
C1735 C1737 1.561 . S
C1735 C1738 1.526 . S
C1736 H1720 0.959 . S
C1736 H1721 0.959 . S
C1736 H1722 0.961 . S
C1736 C1735 1.502 . S
C1737 H1723 0.960 . S
C1737 H1724 0.961 . S
C1737 H1725 0.959 . S
C1737 C1735 1.561 . S
C1738 C1735 1.526 . S
C1738 C1739 1.396 . S
C1738 C1743 1.390 . S
C1739 C1733 1.465 . S
C1739 C1738 1.396 . S
C1739 C1740 1.399 . S
C1740 H1726 0.929 . S
C1740 C1739 1.399 . S
C1740 C1741 1.385 . S
C1741 H1727 0.931 . S
C1741 C1740 1.385 . S
C1741 C1742 1.389 . S
C1742 C1741 1.389 . S
C1742 C1743 1.387 . S
C1743 H1728 0.930 . S
C1743 C1738 1.390 . S
C1743 C1742 1.387 . S
H1744 C1756 0.930 . S
H1745 C1758 0.930 . S
H1746 C1759 0.930 . S
H1747 C1763 0.959 . S
H1748 C1763 0.959 . S
H1749 C1763 0.961 . S
H1750 C1764 0.960 . S
H1751 C1764 0.961 . S
H1752 C1764 0.959 . S
H1753 C1767 0.929 . S
H1754 C1768 0.931 . S
H1755 C1770 0.930 . S
C1756 H1744 0.930 . S
C1756 C1757 1.399 . S
C1756 C1761 1.399 . S
C1757 C1756 1.399 . S
C1757 C1758 1.376 . S
C1758 H1745 0.930 . S
C1758 C1757 1.376 . S
C1758 C1759 1.388 . S
C1759 H1746 0.930 . S
C1759 C1758 1.388 . S
C1759 C1760 1.390 . S
C1760 C1759 1.390 . S
C1760 C1761 1.394 . S
C1760 C1766 1.465 . S
C1761 C1756 1.399 . S
C1761 C1760 1.394 . S
C1761 C1762 1.516 . S
C1762 C1761 1.516 . S
C1762 C1763 1.502 . S
C1762 C1764 1.561 . S
C1762 C1765 1.526 . S
C1763 H1747 0.959 . S
C1763 H1748 0.959 . S
C1763 H1749 0.961 . S
C1763 C1762 1.502 . S
C1764 H1750 0.960 . S
C1764 H1751 0.961 . S
C1764 H1752 0.959 . S
C1764 C1762 1.561 . S
C1765 C1762 1.526 . S
C1765 C1766 1.396 . S
C1765 C1770 1.390 . S
C1766 C1760 1.465 . S
C1766 C1765 1.396 . S
C1766 C1767 1.399 . S
C1767 H1753 0.929 . S
C1767 C1766 1.399 . S
C1767 C1768 1.385 . S
C1768 H1754 0.931 . S
C1768 C1767 1.385 . S
C1768 C1769 1.389 . S
C1769 C1768 1.389 . S
C1769 C1770 1.387 . S
C1770 H1755 0.930 . S
C1770 C1765 1.390 . S
C1770 C1769 1.387 . S
H1771 C1783 0.930 . S
H1772 C1785 0.930 . S
H1773 C1786 0.930 . S
H1774 C1790 0.959 . S
H1775 C1790 0.959 . S
H1776 C1790 0.961 . S
H1777 C1791 0.960 . S
H1778 C1791 0.961 . S
H1779 C1791 0.959 . S
H1780 C1794 0.929 . S
H1781 C1795 0.931 . S
H1782 C1797 0.930 . S
C1783 H1771 0.930 . S
C1783 C1784 1.399 . S
C1783 C1788 1.399 . S
C1784 C1783 1.399 . S
C1784 C1785 1.376 . S
C1785 H1772 0.930 . S
C1785 C1784 1.376 . S
C1785 C1786 1.388 . S
C1786 H1773 0.930 . S
C1786 C1785 1.388 . S
C1786 C1787 1.390 . S
C1787 C1786 1.390 . S
C1787 C1788 1.394 . S
C1787 C1793 1.465 . S
C1788 C1783 1.399 . S
C1788 C1787 1.394 . S
C1788 C1789 1.516 . S
C1789 C1788 1.516 . S
C1789 C1790 1.502 . S
C1789 C1791 1.561 . S
C1789 C1792 1.526 . S
C1790 H1774 0.959 . S
C1790 H1775 0.959 . S
C1790 H1776 0.961 . S
C1790 C1789 1.502 . S
C1791 H1777 0.960 . S
C1791 H1778 0.961 . S
C1791 H1779 0.959 . S
C1791 C1789 1.561 . S
C1792 C1789 1.526 . S
C1792 C1793 1.396 . S
C1792 C1797 1.390 . S
C1793 C1787 1.465 . S
C1793 C1792 1.396 . S
C1793 C1794 1.399 . S
C1794 H1780 0.929 . S
C1794 C1793 1.399 . S
C1794 C1795 1.385 . S
C1795 H1781 0.931 . S
C1795 C1794 1.385 . S
C1795 C1796 1.389 . S
C1796 C1795 1.389 . S
C1796 C1797 1.387 . S
C1797 H1782 0.930 . S
C1797 C1792 1.390 . S
C1797 C1796 1.387 . S
H1798 C1810 0.930 . S
H1799 C1812 0.930 . S
H1800 C1813 0.930 . S
H1801 C1817 0.959 . S
H1802 C1817 0.959 . S
H1803 C1817 0.961 . S
H1804 C1818 0.960 . S
H1805 C1818 0.961 . S
H1806 C1818 0.959 . S
H1807 C1821 0.929 . S
H1808 C1822 0.931 . S
H1809 C1824 0.930 . S
C1810 H1798 0.930 . S
C1810 C1811 1.399 . S
C1810 C1815 1.399 . S
C1811 C1810 1.399 . S
C1811 C1812 1.376 . S
C1812 H1799 0.930 . S
C1812 C1811 1.376 . S
C1812 C1813 1.388 . S
C1813 H1800 0.930 . S
C1813 C1812 1.388 . S
C1813 C1814 1.390 . S
C1814 C1813 1.390 . S
C1814 C1815 1.394 . S
C1814 C1820 1.465 . S
C1815 C1810 1.399 . S
C1815 C1814 1.394 . S
C1815 C1816 1.516 . S
C1816 C1815 1.516 . S
C1816 C1817 1.502 . S
C1816 C1818 1.561 . S
C1816 C1819 1.526 . S
C1817 H1801 0.959 . S
C1817 H1802 0.959 . S
C1817 H1803 0.961 . S
C1817 C1816 1.502 . S
C1818 H1804 0.960 . S
C1818 H1805 0.961 . S
C1818 H1806 0.959 . S
C1818 C1816 1.561 . S
C1819 C1816 1.526 . S
C1819 C1820 1.396 . S
C1819 C1824 1.390 . S
C1820 C1814 1.465 . S
C1820 C1819 1.396 . S
C1820 C1821 1.399 . S
C1821 H1807 0.929 . S
C1821 C1820 1.399 . S
C1821 C1822 1.385 . S
C1822 H1808 0.931 . S
C1822 C1821 1.385 . S
C1822 C1823 1.389 . S
C1823 C1822 1.389 . S
C1823 C1824 1.387 . S
C1824 H1809 0.930 . S
C1824 C1819 1.390 . S
C1824 C1823 1.387 . S
H1825 C1837 0.930 . S
H1826 C1839 0.930 . S
H1827 C1840 0.930 . S
H1828 C1844 0.959 . S
H1829 C1844 0.959 . S
H1830 C1844 0.961 . S
H1831 C1845 0.960 . S
H1832 C1845 0.961 . S
H1833 C1845 0.959 . S
H1834 C1848 0.929 . S
H1835 C1849 0.931 . S
H1836 C1851 0.930 . S
C1837 H1825 0.930 . S
C1837 C1838 1.399 . S
C1837 C1842 1.399 . S
C1838 C1837 1.399 . S
C1838 C1839 1.376 . S
C1839 H1826 0.930 . S
C1839 C1838 1.376 . S
C1839 C1840 1.388 . S
C1840 H1827 0.930 . S
C1840 C1839 1.388 . S
C1840 C1841 1.390 . S
C1841 C1840 1.390 . S
C1841 C1842 1.394 . S
C1841 C1847 1.465 . S
C1842 C1837 1.399 . S
C1842 C1841 1.394 . S
C1842 C1843 1.516 . S
C1843 C1842 1.516 . S
C1843 C1844 1.502 . S
C1843 C1845 1.561 . S
C1843 C1846 1.526 . S
C1844 H1828 0.959 . S
C1844 H1829 0.959 . S
C1844 H1830 0.961 . S
C1844 C1843 1.502 . S
C1845 H1831 0.960 . S
C1845 H1832 0.961 . S
C1845 H1833 0.959 . S
C1845 C1843 1.561 . S
C1846 C1843 1.526 . S
C1846 C1847 1.396 . S
C1846 C1851 1.390 . S
C1847 C1841 1.465 . S
C1847 C1846 1.396 . S
C1847 C1848 1.399 . S
C1848 H1834 0.929 . S
C1848 C1847 1.399 . S
C1848 C1849 1.385 . S
C1849 H1835 0.931 . S
C1849 C1848 1.385 . S
C1849 C1850 1.389 . S
C1850 C1849 1.389 . S
C1850 C1851 1.387 . S
C1851 H1836 0.930 . S
C1851 C1846 1.390 . S
C1851 C1850 1.387 . S
H1852 C1864 0.930 . S
H1853 C1866 0.930 . S
H1854 C1867 0.930 . S
H1855 C1871 0.959 . S
H1856 C1871 0.959 . S
H1857 C1871 0.961 . S
H1858 C1872 0.960 . S
H1859 C1872 0.961 . S
H1860 C1872 0.959 . S
H1861 C1875 0.929 . S
H1862 C1876 0.931 . S
H1863 C1878 0.930 . S
C1864 H1852 0.930 . S
C1864 C1865 1.399 . S
C1864 C1869 1.399 . S
C1865 C1864 1.399 . S
C1865 C1866 1.376 . S
C1866 H1853 0.930 . S
C1866 C1865 1.376 . S
C1866 C1867 1.388 . S
C1867 H1854 0.930 . S
C1867 C1866 1.388 . S
C1867 C1868 1.390 . S
C1868 C1867 1.390 . S
C1868 C1869 1.394 . S
C1868 C1874 1.465 . S
C1869 C1864 1.399 . S
C1869 C1868 1.394 . S
C1869 C1870 1.516 . S
C1870 C1869 1.516 . S
C1870 C1871 1.502 . S
C1870 C1872 1.561 . S
C1870 C1873 1.526 . S
C1871 H1855 0.959 . S
C1871 H1856 0.959 . S
C1871 H1857 0.961 . S
C1871 C1870 1.502 . S
C1872 H1858 0.960 . S
C1872 H1859 0.961 . S
C1872 H1860 0.959 . S
C1872 C1870 1.561 . S
C1873 C1870 1.526 . S
C1873 C1874 1.396 . S
C1873 C1878 1.390 . S
C1874 C1868 1.465 . S
C1874 C1873 1.396 . S
C1874 C1875 1.399 . S
C1875 H1861 0.929 . S
C1875 C1874 1.399 . S
C1875 C1876 1.385 . S
C1876 H1862 0.931 . S
C1876 C1875 1.385 . S
C1876 C1877 1.389 . S
C1877 C1876 1.389 . S
C1877 C1878 1.387 . S
C1878 H1863 0.930 . S
C1878 C1873 1.390 . S
C1878 C1877 1.387 . S
H1879 C1891 0.930 . S
H1880 C1893 0.930 . S
H1881 C1894 0.930 . S
H1882 C1898 0.959 . S
H1883 C1898 0.959 . S
H1884 C1898 0.961 . S
H1885 C1899 0.960 . S
H1886 C1899 0.961 . S
H1887 C1899 0.959 . S
H1888 C1902 0.929 . S
H1889 C1903 0.931 . S
H1890 C1905 0.930 . S
C1891 H1879 0.930 . S
C1891 C1892 1.399 . S
C1891 C1896 1.399 . S
C1892 C1891 1.399 . S
C1892 C1893 1.376 . S
C1893 H1880 0.930 . S
C1893 C1892 1.376 . S
C1893 C1894 1.388 . S
C1894 H1881 0.930 . S
C1894 C1893 1.388 . S
C1894 C1895 1.390 . S
C1895 C1894 1.390 . S
C1895 C1896 1.394 . S
C1895 C1901 1.465 . S
C1896 C1891 1.399 . S
C1896 C1895 1.394 . S
C1896 C1897 1.516 . S
C1897 C1896 1.516 . S
C1897 C1898 1.502 . S
C1897 C1899 1.561 . S
C1897 C1900 1.526 . S
C1898 H1882 0.959 . S
C1898 H1883 0.959 . S
C1898 H1884 0.961 . S
C1898 C1897 1.502 . S
C1899 H1885 0.960 . S
C1899 H1886 0.961 . S
C1899 H1887 0.959 . S
C1899 C1897 1.561 . S
C1900 C1897 1.526 . S
C1900 C1901 1.396 . S
C1900 C1905 1.390 . S
C1901 C1895 1.465 . S
C1901 C1900 1.396 . S
C1901 C1902 1.399 . S
C1902 H1888 0.929 . S
C1902 C1901 1.399 . S
C1902 C1903 1.385 . S
C1903 H1889 0.931 . S
C1903 C1902 1.385 . S
C1903 C1904 1.389 . S
C1904 C1903 1.389 . S
C1904 C1905 1.387 . S
C1905 H1890 0.930 . S
C1905 C1900 1.390 . S
C1905 C1904 1.387 . S
H1906 C1918 0.930 . S
H1907 C1920 0.930 . S
H1908 C1921 0.930 . S
H1909 C1925 0.959 . S
H1910 C1925 0.959 . S
H1911 C1925 0.961 . S
H1912 C1926 0.960 . S
H1913 C1926 0.961 . S
H1914 C1926 0.959 . S
H1915 C1929 0.929 . S
H1916 C1930 0.931 . S
H1917 C1932 0.930 . S
C1918 H1906 0.930 . S
C1918 C1919 1.399 . S
C1918 C1923 1.399 . S
C1919 C1918 1.399 . S
C1919 C1920 1.376 . S
C1920 H1907 0.930 . S
C1920 C1919 1.376 . S
C1920 C1921 1.388 . S
C1921 H1908 0.930 . S
C1921 C1920 1.388 . S
C1921 C1922 1.390 . S
C1922 C1921 1.390 . S
C1922 C1923 1.394 . S
C1922 C1928 1.465 . S
C1923 C1918 1.399 . S
C1923 C1922 1.394 . S
C1923 C1924 1.516 . S
C1924 C1923 1.516 . S
C1924 C1925 1.502 . S
C1924 C1926 1.561 . S
C1924 C1927 1.526 . S
C1925 H1909 0.959 . S
C1925 H1910 0.959 . S
C1925 H1911 0.961 . S
C1925 C1924 1.502 . S
C1926 H1912 0.960 . S
C1926 H1913 0.961 . S
C1926 H1914 0.959 . S
C1926 C1924 1.561 . S
C1927 C1924 1.526 . S
C1927 C1928 1.396 . S
C1927 C1932 1.390 . S
C1928 C1922 1.465 . S
C1928 C1927 1.396 . S
C1928 C1929 1.399 . S
C1929 H1915 0.929 . S
C1929 C1928 1.399 . S
C1929 C1930 1.385 . S
C1930 H1916 0.931 . S
C1930 C1929 1.385 . S
C1930 C1931 1.389 . S
C1931 C1930 1.389 . S
C1931 C1932 1.387 . S
C1932 H1917 0.930 . S
C1932 C1927 1.390 . S
C1932 C1931 1.387 . S
H1933 C1945 0.930 . S
H1934 C1947 0.930 . S
H1935 C1948 0.930 . S
H1936 C1952 0.959 . S
H1937 C1952 0.959 . S
H1938 C1952 0.961 . S
H1939 C1953 0.960 . S
H1940 C1953 0.961 . S
H1941 C1953 0.959 . S
H1942 C1956 0.929 . S
H1943 C1957 0.931 . S
H1944 C1959 0.930 . S
C1945 H1933 0.930 . S
C1945 C1946 1.399 . S
C1945 C1950 1.399 . S
C1946 C1945 1.399 . S
C1946 C1947 1.376 . S
C1947 H1934 0.930 . S
C1947 C1946 1.376 . S
C1947 C1948 1.388 . S
C1948 H1935 0.930 . S
C1948 C1947 1.388 . S
C1948 C1949 1.390 . S
C1949 C1948 1.390 . S
C1949 C1950 1.394 . S
C1949 C1955 1.465 . S
C1950 C1945 1.399 . S
C1950 C1949 1.394 . S
C1950 C1951 1.516 . S
C1951 C1950 1.516 . S
C1951 C1952 1.502 . S
C1951 C1953 1.561 . S
C1951 C1954 1.526 . S
C1952 H1936 0.959 . S
C1952 H1937 0.959 . S
C1952 H1938 0.961 . S
C1952 C1951 1.502 . S
C1953 H1939 0.960 . S
C1953 H1940 0.961 . S
C1953 H1941 0.959 . S
C1953 C1951 1.561 . S
C1954 C1951 1.526 . S
C1954 C1955 1.396 . S
C1954 C1959 1.390 . S
C1955 C1949 1.465 . S
C1955 C1954 1.396 . S
C1955 C1956 1.399 . S
C1956 H1942 0.929 . S
C1956 C1955 1.399 . S
C1956 C1957 1.385 . S
C1957 H1943 0.931 . S
C1957 C1956 1.385 . S
C1957 C1958 1.389 . S
C1958 C1957 1.389 . S
C1958 C1959 1.387 . S
C1959 H1944 0.930 . S
C1959 C1954 1.390 . S
C1959 C1958 1.387 . S
H1960 C1972 0.930 . S
H1961 C1974 0.930 . S
H1962 C1975 0.930 . S
H1963 C1979 0.959 . S
H1964 C1979 0.959 . S
H1965 C1979 0.961 . S
H1966 C1980 0.960 . S
H1967 C1980 0.961 . S
H1968 C1980 0.959 . S
H1969 C1983 0.929 . S
H1970 C1984 0.931 . S
H1971 C1986 0.930 . S
C1972 H1960 0.930 . S
C1972 C1973 1.399 . S
C1972 C1977 1.399 . S
C1973 C1972 1.399 . S
C1973 C1974 1.376 . S
C1974 H1961 0.930 . S
C1974 C1973 1.376 . S
C1974 C1975 1.388 . S
C1975 H1962 0.930 . S
C1975 C1974 1.388 . S
C1975 C1976 1.390 . S
C1976 C1975 1.390 . S
C1976 C1977 1.394 . S
C1976 C1982 1.465 . S
C1977 C1972 1.399 . S
C1977 C1976 1.394 . S
C1977 C1978 1.516 . S
C1978 C1977 1.516 . S
C1978 C1979 1.502 . S
C1978 C1980 1.561 . S
C1978 C1981 1.526 . S
C1979 H1963 0.959 . S
C1979 H1964 0.959 . S
C1979 H1965 0.961 . S
C1979 C1978 1.502 . S
C1980 H1966 0.960 . S
C1980 H1967 0.961 . S
C1980 H1968 0.959 . S
C1980 C1978 1.561 . S
C1981 C1978 1.526 . S
C1981 C1982 1.396 . S
C1981 C1986 1.390 . S
C1982 C1976 1.465 . S
C1982 C1981 1.396 . S
C1982 C1983 1.399 . S
C1983 H1969 0.929 . S
C1983 C1982 1.399 . S
C1983 C1984 1.385 . S
C1984 H1970 0.931 . S
C1984 C1983 1.385 . S
C1984 C1985 1.389 . S
C1985 C1984 1.389 . S
C1985 C1986 1.387 . S
C1986 H1971 0.930 . S
C1986 C1981 1.390 . S
C1986 C1985 1.387 . S
H1987 C1999 0.930 . S
H1988 C2001 0.930 . S
H1989 C2002 0.930 . S
H1990 C2006 0.959 . S
H1991 C2006 0.959 . S
H1992 C2006 0.961 . S
H1993 C2007 0.960 . S
H1994 C2007 0.961 . S
H1995 C2007 0.959 . S
H1996 C2010 0.929 . S
H1997 C2011 0.931 . S
H1998 C2013 0.930 . S
C1999 H1987 0.930 . S
C1999 C2000 1.399 . S
C1999 C2004 1.399 . S
C2000 C1999 1.399 . S
C2000 C2001 1.376 . S
C2001 H1988 0.930 . S
C2001 C2000 1.376 . S
C2001 C2002 1.388 . S
C2002 H1989 0.930 . S
C2002 C2001 1.388 . S
C2002 C2003 1.390 . S
C2003 C2002 1.390 . S
C2003 C2004 1.394 . S
C2003 C2009 1.465 . S
C2004 C1999 1.399 . S
C2004 C2003 1.394 . S
C2004 C2005 1.516 . S
C2005 C2004 1.516 . S
C2005 C2006 1.502 . S
C2005 C2007 1.561 . S
C2005 C2008 1.526 . S
C2006 H1990 0.959 . S
C2006 H1991 0.959 . S
C2006 H1992 0.961 . S
C2006 C2005 1.502 . S
C2007 H1993 0.960 . S
C2007 H1994 0.961 . S
C2007 H1995 0.959 . S
C2007 C2005 1.561 . S
C2008 C2005 1.526 . S
C2008 C2009 1.396 . S
C2008 C2013 1.390 . S
C2009 C2003 1.465 . S
C2009 C2008 1.396 . S
C2009 C2010 1.399 . S
C2010 H1996 0.929 . S
C2010 C2009 1.399 . S
C2010 C2011 1.385 . S
C2011 H1997 0.931 . S
C2011 C2010 1.385 . S
C2011 C2012 1.389 . S
C2012 C2011 1.389 . S
C2012 C2013 1.387 . S
C2013 H1998 0.930 . S
C2013 C2008 1.390 . S
C2013 C2012 1.387 . S
H2014 C2026 0.930 . S
H2015 C2028 0.930 . S
H2016 C2029 0.930 . S
H2017 C2033 0.959 . S
H2018 C2033 0.959 . S
H2019 C2033 0.961 . S
H2020 C2034 0.960 . S
H2021 C2034 0.961 . S
H2022 C2034 0.959 . S
H2023 C2037 0.929 . S
H2024 C2038 0.931 . S
H2025 C2040 0.930 . S
C2026 H2014 0.930 . S
C2026 C2027 1.399 . S
C2026 C2031 1.399 . S
C2027 C2026 1.399 . S
C2027 C2028 1.376 . S
C2028 H2015 0.930 . S
C2028 C2027 1.376 . S
C2028 C2029 1.388 . S
C2029 H2016 0.930 . S
C2029 C2028 1.388 . S
C2029 C2030 1.390 . S
C2030 C2029 1.390 . S
C2030 C2031 1.394 . S
C2030 C2036 1.465 . S
C2031 C2026 1.399 . S
C2031 C2030 1.394 . S
C2031 C2032 1.516 . S
C2032 C2031 1.516 . S
C2032 C2033 1.502 . S
C2032 C2034 1.561 . S
C2032 C2035 1.526 . S
C2033 H2017 0.959 . S
C2033 H2018 0.959 . S
C2033 H2019 0.961 . S
C2033 C2032 1.502 . S
C2034 H2020 0.960 . S
C2034 H2021 0.961 . S
C2034 H2022 0.959 . S
C2034 C2032 1.561 . S
C2035 C2032 1.526 . S
C2035 C2036 1.396 . S
C2035 C2040 1.390 . S
C2036 C2030 1.465 . S
C2036 C2035 1.396 . S
C2036 C2037 1.399 . S
C2037 H2023 0.929 . S
C2037 C2036 1.399 . S
C2037 C2038 1.385 . S
C2038 H2024 0.931 . S
C2038 C2037 1.385 . S
C2038 C2039 1.389 . S
C2039 C2038 1.389 . S
C2039 C2040 1.387 . S
C2040 H2025 0.930 . S
C2040 C2035 1.390 . S
C2040 C2039 1.387 . S
H2041 C2053 0.930 . S
H2042 C2055 0.930 . S
H2043 C2056 0.930 . S
H2044 C2060 0.959 . S
H2045 C2060 0.959 . S
H2046 C2060 0.961 . S
H2047 C2061 0.960 . S
H2048 C2061 0.961 . S
H2049 C2061 0.959 . S
H2050 C2064 0.929 . S
H2051 C2065 0.931 . S
H2052 C2067 0.930 . S
C2053 H2041 0.930 . S
C2053 C2054 1.399 . S
C2053 C2058 1.399 . S
C2054 C2053 1.399 . S
C2054 C2055 1.376 . S
C2055 H2042 0.930 . S
C2055 C2054 1.376 . S
C2055 C2056 1.388 . S
C2056 H2043 0.930 . S
C2056 C2055 1.388 . S
C2056 C2057 1.390 . S
C2057 C2056 1.390 . S
C2057 C2058 1.394 . S
C2057 C2063 1.465 . S
C2058 C2053 1.399 . S
C2058 C2057 1.394 . S
C2058 C2059 1.516 . S
C2059 C2058 1.516 . S
C2059 C2060 1.502 . S
C2059 C2061 1.561 . S
C2059 C2062 1.526 . S
C2060 H2044 0.959 . S
C2060 H2045 0.959 . S
C2060 H2046 0.961 . S
C2060 C2059 1.502 . S
C2061 H2047 0.960 . S
C2061 H2048 0.961 . S
C2061 H2049 0.959 . S
C2061 C2059 1.561 . S
C2062 C2059 1.526 . S
C2062 C2063 1.396 . S
C2062 C2067 1.390 . S
C2063 C2057 1.465 . S
C2063 C2062 1.396 . S
C2063 C2064 1.399 . S
C2064 H2050 0.929 . S
C2064 C2063 1.399 . S
C2064 C2065 1.385 . S
C2065 H2051 0.931 . S
C2065 C2064 1.385 . S
C2065 C2066 1.389 . S
C2066 C2065 1.389 . S
C2066 C2067 1.387 . S
C2067 H2052 0.930 . S
C2067 C2062 1.390 . S
C2067 C2066 1.387 . S
H2068 C2080 0.930 . S
H2069 C2082 0.930 . S
H2070 C2083 0.930 . S
H2071 C2087 0.959 . S
H2072 C2087 0.959 . S
H2073 C2087 0.961 . S
H2074 C2088 0.960 . S
H2075 C2088 0.961 . S
H2076 C2088 0.959 . S
H2077 C2091 0.929 . S
H2078 C2092 0.931 . S
H2079 C2094 0.930 . S
C2080 H2068 0.930 . S
C2080 C2081 1.399 . S
C2080 C2085 1.399 . S
C2081 C2080 1.399 . S
C2081 C2082 1.376 . S
C2082 H2069 0.930 . S
C2082 C2081 1.376 . S
C2082 C2083 1.388 . S
C2083 H2070 0.930 . S
C2083 C2082 1.388 . S
C2083 C2084 1.390 . S
C2084 C2083 1.390 . S
C2084 C2085 1.394 . S
C2084 C2090 1.465 . S
C2085 C2080 1.399 . S
C2085 C2084 1.394 . S
C2085 C2086 1.516 . S
C2086 C2085 1.516 . S
C2086 C2087 1.502 . S
C2086 C2088 1.561 . S
C2086 C2089 1.526 . S
C2087 H2071 0.959 . S
C2087 H2072 0.959 . S
C2087 H2073 0.961 . S
C2087 C2086 1.502 . S
C2088 H2074 0.960 . S
C2088 H2075 0.961 . S
C2088 H2076 0.959 . S
C2088 C2086 1.561 . S
C2089 C2086 1.526 . S
C2089 C2090 1.396 . S
C2089 C2094 1.390 . S
C2090 C2084 1.465 . S
C2090 C2089 1.396 . S
C2090 C2091 1.399 . S
C2091 H2077 0.929 . S
C2091 C2090 1.399 . S
C2091 C2092 1.385 . S
C2092 H2078 0.931 . S
C2092 C2091 1.385 . S
C2092 C2093 1.389 . S
C2093 C2092 1.389 . S
C2093 C2094 1.387 . S
C2094 H2079 0.930 . S
C2094 C2089 1.390 . S
C2094 C2093 1.387 . S
H2095 C2107 0.930 . S
H2096 C2109 0.930 . S
H2097 C2110 0.930 . S
H2098 C2114 0.959 . S
H2099 C2114 0.959 . S
H2100 C2114 0.961 . S
H2101 C2115 0.960 . S
H2102 C2115 0.961 . S
H2103 C2115 0.959 . S
H2104 C2118 0.929 . S
H2105 C2119 0.931 . S
H2106 C2121 0.930 . S
C2107 H2095 0.930 . S
C2107 C2108 1.399 . S
C2107 C2112 1.399 . S
C2108 C2107 1.399 . S
C2108 C2109 1.376 . S
C2109 H2096 0.930 . S
C2109 C2108 1.376 . S
C2109 C2110 1.388 . S
C2110 H2097 0.930 . S
C2110 C2109 1.388 . S
C2110 C2111 1.390 . S
C2111 C2110 1.390 . S
C2111 C2112 1.394 . S
C2111 C2117 1.465 . S
C2112 C2107 1.399 . S
C2112 C2111 1.394 . S
C2112 C2113 1.516 . S
C2113 C2112 1.516 . S
C2113 C2114 1.502 . S
C2113 C2115 1.561 . S
C2113 C2116 1.526 . S
C2114 H2098 0.959 . S
C2114 H2099 0.959 . S
C2114 H2100 0.961 . S
C2114 C2113 1.502 . S
C2115 H2101 0.960 . S
C2115 H2102 0.961 . S
C2115 H2103 0.959 . S
C2115 C2113 1.561 . S
C2116 C2113 1.526 . S
C2116 C2117 1.396 . S
C2116 C2121 1.390 . S
C2117 C2111 1.465 . S
C2117 C2116 1.396 . S
C2117 C2118 1.399 . S
C2118 H2104 0.929 . S
C2118 C2117 1.399 . S
C2118 C2119 1.385 . S
C2119 H2105 0.931 . S
C2119 C2118 1.385 . S
C2119 C2120 1.389 . S
C2120 C2119 1.389 . S
C2120 C2121 1.387 . S
C2121 H2106 0.930 . S
C2121 C2116 1.390 . S
C2121 C2120 1.387 . S
H2122 C2134 0.930 . S
H2123 C2136 0.930 . S
H2124 C2137 0.930 . S
H2125 C2141 0.959 . S
H2126 C2141 0.959 . S
H2127 C2141 0.961 . S
H2128 C2142 0.960 . S
H2129 C2142 0.961 . S
H2130 C2142 0.959 . S
H2131 C2145 0.929 . S
H2132 C2146 0.931 . S
H2133 C2148 0.930 . S
C2134 H2122 0.930 . S
C2134 C2135 1.399 . S
C2134 C2139 1.399 . S
C2135 C2134 1.399 . S
C2135 C2136 1.376 . S
C2136 H2123 0.930 . S
C2136 C2135 1.376 . S
C2136 C2137 1.388 . S
C2137 H2124 0.930 . S
C2137 C2136 1.388 . S
C2137 C2138 1.390 . S
C2138 C2137 1.390 . S
C2138 C2139 1.394 . S
C2138 C2144 1.465 . S
C2139 C2134 1.399 . S
C2139 C2138 1.394 . S
C2139 C2140 1.516 . S
C2140 C2139 1.516 . S
C2140 C2141 1.502 . S
C2140 C2142 1.561 . S
C2140 C2143 1.526 . S
C2141 H2125 0.959 . S
C2141 H2126 0.959 . S
C2141 H2127 0.961 . S
C2141 C2140 1.502 . S
C2142 H2128 0.960 . S
C2142 H2129 0.961 . S
C2142 H2130 0.959 . S
C2142 C2140 1.561 . S
C2143 C2140 1.526 . S
C2143 C2144 1.396 . S
C2143 C2148 1.390 . S
C2144 C2138 1.465 . S
C2144 C2143 1.396 . S
C2144 C2145 1.399 . S
C2145 H2131 0.929 . S
C2145 C2144 1.399 . S
C2145 C2146 1.385 . S
C2146 H2132 0.931 . S
C2146 C2145 1.385 . S
C2146 C2147 1.389 . S
C2147 C2146 1.389 . S
C2147 C2148 1.387 . S
C2148 H2133 0.930 . S
C2148 C2143 1.390 . S
C2148 C2147 1.387 . S
H2149 C2161 0.930 . S
H2150 C2163 0.930 . S
H2151 C2164 0.930 . S
H2152 C2168 0.959 . S
H2153 C2168 0.959 . S
H2154 C2168 0.961 . S
H2155 C2169 0.960 . S
H2156 C2169 0.961 . S
H2157 C2169 0.959 . S
H2158 C2172 0.929 . S
H2159 C2173 0.931 . S
H2160 C2175 0.930 . S
C2161 H2149 0.930 . S
C2161 C2162 1.399 . S
C2161 C2166 1.399 . S
C2162 C2161 1.399 . S
C2162 C2163 1.376 . S
C2163 H2150 0.930 . S
C2163 C2162 1.376 . S
C2163 C2164 1.388 . S
C2164 H2151 0.930 . S
C2164 C2163 1.388 . S
C2164 C2165 1.390 . S
C2165 C2164 1.390 . S
C2165 C2166 1.394 . S
C2165 C2171 1.465 . S
C2166 C2161 1.399 . S
C2166 C2165 1.394 . S
C2166 C2167 1.516 . S
C2167 C2166 1.516 . S
C2167 C2168 1.502 . S
C2167 C2169 1.561 . S
C2167 C2170 1.526 . S
C2168 H2152 0.959 . S
C2168 H2153 0.959 . S
C2168 H2154 0.961 . S
C2168 C2167 1.502 . S
C2169 H2155 0.960 . S
C2169 H2156 0.961 . S
C2169 H2157 0.959 . S
C2169 C2167 1.561 . S
C2170 C2167 1.526 . S
C2170 C2171 1.396 . S
C2170 C2175 1.390 . S
C2171 C2165 1.465 . S
C2171 C2170 1.396 . S
C2171 C2172 1.399 . S
C2172 H2158 0.929 . S
C2172 C2171 1.399 . S
C2172 C2173 1.385 . S
C2173 H2159 0.931 . S
C2173 C2172 1.385 . S
C2173 C2174 1.389 . S
C2174 C2173 1.389 . S
C2174 C2175 1.387 . S
C2175 H2160 0.930 . S
C2175 C2170 1.390 . S
C2175 C2174 1.387 . S
C461 C385 1.323 . S
C473 C9 1.324 . S
C488 C23 1.258 1_655 S
C500 C119 1.260 . S
C515 C357 1.288 . S
C527 C37 1.252 . S
C542 C51 1.324 . S
C554 C147 1.323 . S
C569 C65 1.269 . S
C581 C413 1.259 . S
C596 C79 1.298 . S
C608 C203 1.271 . S
C623 C93 1.281 . S
C635 C441 1.262 . S
C650 C107 1.296 1_655 S
C662 C175 1.270 . S
C677 C273 1.258 . S
C689 C121 1.288 . S
C704 C7 1.326 . S
C716 C135 1.267 1_455 S
C731 C245 1.260 . S
C743 C149 1.302 . S
C758 C163 1.248 . S
C770 C35 1.295 . S
C785 C301 1.318 . S
C797 C177 1.257 . S
C812 C91 1.259 . S
C824 C191 1.300 . S
C839 C205 1.248 . S
C851 C329 1.300 . S
C866 C63 1.270 . S
C878 C219 1.316 1_455 S
C893 C233 1.306 . S
C905 C161 1.277 . S
C920 C247 1.254 . S
C932 C343 1.295 . S
C947 C133 1.287 . S
C959 C261 1.251 . S
C974 C371 1.313 . S
C986 C275 1.325 1_455 S
C1001 C189 1.289 . S
C1013 C289 1.252 . S
C1028 C427 1.260 . S
C1040 C303 1.256 1_455 S
C1055 C217 1.258 . S
C1067 C317 1.272 . S
C1082 C331 1.317 . S
C1094 C399 1.288 . S
C1109 C49 1.328 . S
C1121 C345 1.274 . S
C1136 C359 1.280 . S
C1148 C231 1.329 . S
C1163 C373 1.327 . S
C1175 C21 1.288 . S
C1190 C387 1.324 1_655 S
C1202 C259 1.284 . S
C1217 C401 1.327 . S
C1229 C77 1.291 . S
C1244 C415 1.319 1_655 S
C1256 C315 1.313 . S
C1271 C429 1.248 . S
C1283 C105 1.292 . S
C1298 C443 1.262 . S
C1310 C287 1.323 . S
C1325 C339 1.514 . S
C1337 C3 1.514 . S
C1352 C17 1.507 . S
C1364 C129 1.516 . S
C1379 C367 1.516 . S
C1391 C31 1.507 . S
C1406 C45 1.516 . S
C1418 C157 1.507 . S
C1433 C395 1.510 . S
C1445 C59 1.517 . S
C1460 C73 1.509 . S
C1472 C185 1.518 . S
C1487 C423 1.504 . S
C1499 C87 1.519 . S
C1514 C101 1.514 . S
C1526 C213 1.513 . S
C1541 C115 1.508 . S
C1553 C227 1.518 . S
C1568 C143 1.511 . S
C1580 C255 1.516 . S
C1595 C171 1.508 . S
C1607 C283 1.518 . S
C1622 C199 1.507 . S
C1634 C311 1.519 . S
C1649 C241 1.506 . S
C1661 C353 1.517 . S
C1676 C381 1.506 . S
C1688 C269 1.517 . S
C1703 C409 1.505 . S
C1715 C297 1.518 . S
C1730 C325 1.507 . S
C1742 C437 1.516 . S
C1757 C8 1.469 . S
C1769 C78 1.467 . S
C1784 C22 1.463 . S
C1796 C92 1.470 . S
C1811 C36 1.463 . S
C1823 C106 1.470 . S
C1838 C64 1.470 . S
C1850 C50 1.465 . S
C1865 C120 1.464 . S
C1877 C190 1.471 . S
C1892 C134 1.465 . S
C1904 C204 1.471 . S
C1919 C148 1.464 . S
C1931 C218 1.471 . S
C1946 C162 1.465 . S
C1958 C176 1.471 . S
C1973 C232 1.471 . S
C1985 C302 1.463 . S
C2000 C316 1.465 . S
C2012 C246 1.467 . S
C2027 C260 1.469 . S
C2039 C330 1.466 . S
C2054 C274 1.470 . S
C2066 C288 1.464 . S
C2081 C414 1.467 . S
C2093 C344 1.463 . S
C2108 C358 1.468 . S
C2120 C428 1.470 . S
C2135 C442 1.466 . S
C2147 C372 1.464 . S
C2162 C386 1.465 . S
C2174 C400 1.471 . S
