# Generated by pormake.
# Topology wjy, (5)-cn, num edge types: 1
# Building blocks:
#     Node 0, Type 0, BuildingBlock: BEQFEK_clean_sbu_0, # of connection points: 5
#     Node 1, Type 0, BuildingBlock: BEQFEK_clean_sbu_0, # of connection points: 5
#     Node 2, Type 0, BuildingBlock: BEQFEK_clean_sbu_0, # of connection points: 5
#     Node 3, Type 0, BuildingBlock: BEQFEK_clean_sbu_0, # of connection points: 5
#     Node 4, Type 0, BuildingBlock: BEQFEK_clean_sbu_0, # of connection points: 5
#     Node 5, Type 0, BuildingBlock: BEQFEK_clean_sbu_0, # of connection points: 5
#     Node 6, Type 0, BuildingBlock: BEQFEK_clean_sbu_0, # of connection points: 5
#     Node 7, Type 0, BuildingBlock: BEQFEK_clean_sbu_0, # of connection points: 5
#     Node 8, Type 0, BuildingBlock: BEQFEK_clean_sbu_0, # of connection points: 5
#     Node 9, Type 0, BuildingBlock: BEQFEK_clean_sbu_0, # of connection points: 5
#     Node 10, Type 0, BuildingBlock: BEQFEK_clean_sbu_0, # of connection points: 5
#     Node 11, Type 0, BuildingBlock: BEQFEK_clean_sbu_0, # of connection points: 5
#     Edge 12, Type (0, 0), BuildingBlock: OJICUG_clean_linker_0, # of connection points: 2
#     Edge 13, Type (0, 0), BuildingBlock: OJICUG_clean_linker_0, # of connection points: 2
#     Edge 14, Type (0, 0), BuildingBlock: OJICUG_clean_linker_0, # of connection points: 2
#     Edge 15, Type (0, 0), BuildingBlock: OJICUG_clean_linker_0, # of connection points: 2
#     Edge 16, Type (0, 0), BuildingBlock: OJICUG_clean_linker_0, # of connection points: 2
#     Edge 17, Type (0, 0), BuildingBlock: OJICUG_clean_linker_0, # of connection points: 2
#     Edge 18, Type (0, 0), BuildingBlock: OJICUG_clean_linker_0, # of connection points: 2
#     Edge 19, Type (0, 0), BuildingBlock: OJICUG_clean_linker_0, # of connection points: 2
#     Edge 20, Type (0, 0), BuildingBlock: OJICUG_clean_linker_0, # of connection points: 2
#     Edge 21, Type (0, 0), BuildingBlock: OJICUG_clean_linker_0, # of connection points: 2
#     Edge 22, Type (0, 0), BuildingBlock: OJICUG_clean_linker_0, # of connection points: 2
#     Edge 23, Type (0, 0), BuildingBlock: OJICUG_clean_linker_0, # of connection points: 2
#     Edge 24, Type (0, 0), BuildingBlock: OJICUG_clean_linker_0, # of connection points: 2
#     Edge 25, Type (0, 0), BuildingBlock: OJICUG_clean_linker_0, # of connection points: 2
#     Edge 26, Type (0, 0), BuildingBlock: OJICUG_clean_linker_0, # of connection points: 2
#     Edge 27, Type (0, 0), BuildingBlock: OJICUG_clean_linker_0, # of connection points: 2
#     Edge 28, Type (0, 0), BuildingBlock: OJICUG_clean_linker_0, # of connection points: 2
#     Edge 29, Type (0, 0), BuildingBlock: OJICUG_clean_linker_0, # of connection points: 2
#     Edge 30, Type (0, 0), BuildingBlock: OJICUG_clean_linker_0, # of connection points: 2
#     Edge 31, Type (0, 0), BuildingBlock: OJICUG_clean_linker_0, # of connection points: 2
#     Edge 32, Type (0, 0), BuildingBlock: OJICUG_clean_linker_0, # of connection points: 2
#     Edge 33, Type (0, 0), BuildingBlock: OJICUG_clean_linker_0, # of connection points: 2
#     Edge 34, Type (0, 0), BuildingBlock: OJICUG_clean_linker_0, # of connection points: 2
#     Edge 35, Type (0, 0), BuildingBlock: OJICUG_clean_linker_0, # of connection points: 2
#     Edge 36, Type (0, 0), BuildingBlock: OJICUG_clean_linker_0, # of connection points: 2
#     Edge 37, Type (0, 0), BuildingBlock: OJICUG_clean_linker_0, # of connection points: 2
#     Edge 38, Type (0, 0), BuildingBlock: OJICUG_clean_linker_0, # of connection points: 2
#     Edge 39, Type (0, 0), BuildingBlock: OJICUG_clean_linker_0, # of connection points: 2
#     Edge 40, Type (0, 0), BuildingBlock: OJICUG_clean_linker_0, # of connection points: 2
#     Edge 41, Type (0, 0), BuildingBlock: OJICUG_clean_linker_0, # of connection points: 2
# Relax obj value: 0.151
# Max RMSD: 0.171
# Mean RMSD: 0.171
data_MOF--net-wjy--node1-BEQFEK_clean_sbu_0--edge1-OJICUG_clean_linker_0
_symmetry_space_group_name_H-M    P1
_symmetry_Int_Tables_number       1
_symmetry_cell_setting            triclinic
loop_
_symmetry_equiv_pos_as_xyz
'x, y, z'
_cell_length_a     54.257782
_cell_length_b     54.30155
_cell_length_c     15.003596
_cell_angle_alpha  90.022086
_cell_angle_beta   90.029387
_cell_angle_gamma 119.9418
loop_
_atom_site_label
_atom_site_type_symbol
_atom_site_fract_x
_atom_site_fract_y
_atom_site_fract_z
_atom_type_partial_charge
Co0 Co 0.45533 0.10701 0.18308 0.0
Co1 Co 0.48338 0.11944 0.99372 0.0
C2 C 0.43353 0.06154 0.0486 0.0
O3 O 0.43041 0.06903 0.12658 0.0
O4 O 0.45306 0.07899 0.99701 0.0
C5 C 0.44672 0.09269 0.36458 0.0
O6 O 0.44778 0.07046 0.33501 0.0
C7 C 0.47327 0.1175 0.80392 0.0
C8 C 0.5161 0.14097 0.74463 0.0
C9 C 0.48741 0.12574 0.72343 0.0
N10 N 0.49253 0.12712 0.87016 0.0
N11 N 0.51818 0.14128 0.83439 0.0
C12 C 0.44176 0.10254 0.81753 0.0
H13 H 0.43652 0.10545 0.88678 0.0
H14 H 0.43193 0.11078 0.76994 0.0
H15 H 0.43265 0.07958 0.80383 0.0
C16 C 0.44947 0.15685 0.13514 0.0
N17 N 0.45674 0.13711 0.11535 0.0
N18 N 0.46958 0.14309 0.03752 0.0
C19 C 0.47116 0.16703 0.00556 0.0
C20 C 0.45839 0.17652 0.06618 0.0
C21 C 0.43701 0.15829 0.22259 0.0
H22 H 0.41859 0.13713 0.23864 0.0
H23 H 0.43024 0.17447 0.22217 0.0
H24 H 0.45318 0.16374 0.27568 0.0
O25 O 0.49413 0.11311 0.19649 0.0
O26 O 0.51652 0.12417 0.06651 0.0
H27 H 0.4865 0.20161 0.90991 0.0
H28 H 0.47228 0.16663 0.86343 0.0
C29 C 0.485 0.18065 0.9191 0.0
H30 H 0.50656 0.18314 0.91602 0.0
H31 H 0.53705 0.15084 0.87104 0.0
O32 O 0.44593 0.10986 0.30869 0.0
C33 C 0.51628 0.12004 0.1504 0.0
Co34 Co 0.35146 0.45232 0.36243 0.0
Co35 Co 0.36524 0.47936 0.17339 0.0
C36 C 0.373 0.4292 0.22705 0.0
O37 O 0.36311 0.42646 0.30576 0.0
O38 O 0.37507 0.44876 0.17577 0.0
C39 C 0.32922 0.42902 0.55367 0.0
O40 O 0.30775 0.40355 0.53695 0.0
C41 C 0.35022 0.46703 0.98785 0.0
C42 C 0.37698 0.50812 0.92087 0.0
C43 C 0.35737 0.47973 0.90451 0.0
N44 N 0.3648 0.48693 0.04999 0.0
N45 N 0.3806 0.51154 0.00976 0.0
C46 C 0.33126 0.43614 0.00863 0.0
H47 H 0.33296 0.43154 0.07943 0.0
H48 H 0.3088 0.43015 0.99662 0.0
H49 H 0.33653 0.42292 0.9649 0.0
C50 C 0.2952 0.44773 0.32093 0.0
N51 N 0.3219 0.45411 0.29948 0.0
N52 N 0.32856 0.46705 0.22176 0.0
C53 C 0.30664 0.46987 0.19217 0.0
C54 C 0.28464 0.45746 0.25351 0.0
C55 C 0.28117 0.43497 0.4078 0.0
H56 H 0.29488 0.44828 0.46323 0.0
H57 H 0.27874 0.41353 0.4139 0.0
H58 H 0.25998 0.43325 0.41345 0.0
O59 O 0.38471 0.491 0.37039 0.0
O60 O 0.39492 0.51303 0.24012 0.0
H61 H 0.32825 0.504 0.0987 0.0
H62 H 0.29046 0.49091 0.10658 0.0
C63 C 0.30709 0.48477 0.10763 0.0
H64 H 0.30308 0.47033 0.05051 0.0
H65 H 0.39448 0.5304 0.04266 0.0
O66 O 0.34378 0.4453 0.49054 0.0
C67 C 0.39967 0.51296 0.3234 0.0
Co68 Co 0.90228 0.35059 0.53643 0.0
Co69 Co 0.88818 0.36334 0.34706 0.0
C70 C 0.94654 0.3719 0.39983 0.0
O71 O 0.93966 0.36232 0.47893 0.0
O72 O 0.92878 0.37357 0.3485 0.0
C73 C 0.90436 0.32911 0.72754 0.0
O74 O 0.9092 0.30819 0.71028 0.0
C75 C 0.88527 0.34801 0.16179 0.0
C76 C 0.87055 0.3745 0.09478 0.0
C77 C 0.87971 0.35516 0.0784 0.0
N78 N 0.87968 0.3624 0.22391 0.0
N79 N 0.87059 0.378 0.18367 0.0
C80 C 0.89759 0.32935 0.18268 0.0
H81 H 0.90369 0.33097 0.25368 0.0
H82 H 0.8814 0.30686 0.16996 0.0
H83 H 0.91627 0.33497 0.13952 0.0
C84 C 0.85083 0.29407 0.49808 0.0
N85 N 0.87094 0.32064 0.47504 0.0
N86 N 0.86428 0.32684 0.39712 0.0
C87 C 0.83949 0.30471 0.36896 0.0
C88 C 0.83029 0.2831 0.43153 0.0
C89 C 0.84998 0.28053 0.58558 0.0
H90 H 0.85026 0.29438 0.64037 0.0
H91 H 0.86921 0.27843 0.59185 0.0
H92 H 0.83074 0.25925 0.59211 0.0
O93 O 0.89641 0.3836 0.54309 0.0
O94 O 0.88398 0.39309 0.41263 0.0
H95 H 0.82613 0.32563 0.27541 0.0
H96 H 0.80192 0.28778 0.28489 0.0
C97 C 0.82459 0.30464 0.28482 0.0
H98 H 0.835 0.30068 0.22752 0.0
H99 H 0.86542 0.39176 0.21656 0.0
O100 O 0.90198 0.34341 0.66477 0.0
C101 C 0.88902 0.3982 0.49566 0.0
Co102 Co 0.55364 0.90006 0.68926 0.0
Co103 Co 0.52661 0.88705 0.50006 0.0
C104 C 0.57631 0.94504 0.55477 0.0
O105 O 0.57904 0.93762 0.63311 0.0
O106 O 0.55689 0.92768 0.50272 0.0
C107 C 0.57709 0.90121 0.8807 0.0
O108 O 0.60267 0.90538 0.86441 0.0
C109 C 0.53899 0.88456 0.31457 0.0
C110 C 0.49777 0.86977 0.2474 0.0
C111 C 0.52626 0.87882 0.23119 0.0
N112 N 0.51903 0.87909 0.37661 0.0
N113 N 0.49435 0.87002 0.33627 0.0
C114 C 0.56996 0.89679 0.33549 0.0
H115 H 0.58303 0.91521 0.29148 0.0
H116 H 0.57454 0.90325 0.40618 0.0
H117 H 0.57618 0.88047 0.32399 0.0
C118 C 0.55878 0.84887 0.64697 0.0
N119 N 0.55226 0.86909 0.62568 0.0
N120 N 0.53935 0.86288 0.54783 0.0
C121 C 0.53669 0.83825 0.51799 0.0
C122 C 0.54919 0.8287 0.5793 0.0
C123 C 0.57145 0.84753 0.73405 0.0
H124 H 0.59283 0.86661 0.74076 0.0
H125 H 0.57333 0.82817 0.73951 0.0
H126 H 0.55796 0.84772 0.78924 0.0
O127 O 0.5148 0.89414 0.69746 0.0
O128 O 0.49268 0.88249 0.56723 0.0
H129 H 0.51579 0.80108 0.43225 0.0
H130 H 0.53609 0.8343 0.37629 0.0
C131 C 0.52174 0.82377 0.43347 0.0
H132 H 0.50238 0.82553 0.42483 0.0
H133 H 0.47541 0.86484 0.36909 0.0
O134 O 0.56083 0.89942 0.8173 0.0
C135 C 0.49274 0.88704 0.65071 0.0
Co136 Co 0.65656 0.55376 0.86872 0.0
Co137 Co 0.64398 0.52713 0.67909 0.0
C138 C 0.63544 0.57688 0.73181 0.0
O139 O 0.6449 0.57947 0.81111 0.0
O140 O 0.63383 0.55752 0.68039 0.0
C141 C 0.67808 0.57735 0.05979 0.0
O142 O 0.69901 0.60307 0.04249 0.0
C143 C 0.65935 0.53949 0.49392 0.0
C144 C 0.63283 0.49831 0.42689 0.0
C145 C 0.65219 0.52677 0.41055 0.0
N146 N 0.64495 0.51956 0.55602 0.0
N147 N 0.62934 0.49489 0.51578 0.0
C148 C 0.67802 0.57042 0.51479 0.0
H149 H 0.67645 0.57493 0.58579 0.0
H150 H 0.70053 0.57671 0.50203 0.0
H151 H 0.67237 0.58346 0.47163 0.0
C152 C 0.71316 0.5588 0.83087 0.0
N153 N 0.68658 0.55237 0.8076 0.0
N154 N 0.68044 0.53961 0.72953 0.0
C155 C 0.7026 0.53697 0.70151 0.0
C156 C 0.72418 0.54929 0.76432 0.0
C157 C 0.72667 0.57141 0.91854 0.0
H158 H 0.71276 0.55786 0.97317 0.0
H159 H 0.72884 0.59274 0.92483 0.0
H160 H 0.74793 0.57335 0.92529 0.0
O161 O 0.62348 0.51494 0.87522 0.0
O162 O 0.61416 0.49328 0.74433 0.0
H163 H 0.68174 0.5028 0.60764 0.0
H164 H 0.71961 0.5164 0.61747 0.0
C165 C 0.70273 0.5222 0.6173 0.0
H166 H 0.70672 0.5366 0.56009 0.0
H167 H 0.61557 0.476 0.54865 0.0
O168 O 0.66376 0.56067 0.99705 0.0
C169 C 0.60893 0.49307 0.82729 0.0
Co170 Co 0.10638 0.65571 0.03447 0.0
Co171 Co 0.12024 0.64261 0.84511 0.0
C172 C 0.06204 0.63431 0.89767 0.0
O173 O 0.06906 0.64397 0.97671 0.0
O174 O 0.07965 0.63249 0.84613 0.0
C175 C 0.10448 0.67738 0.22581 0.0
O176 O 0.09973 0.69838 0.20895 0.0
C177 C 0.12327 0.65796 0.65991 0.0
C178 C 0.13778 0.6313 0.59279 0.0
C179 C 0.12879 0.65079 0.57649 0.0
N180 N 0.12873 0.64346 0.72197 0.0
N181 N 0.13768 0.62775 0.68167 0.0
C182 C 0.11111 0.67674 0.68088 0.0
H183 H 0.10496 0.67511 0.75182 0.0
H184 H 0.12739 0.69921 0.66848 0.0
H185 H 0.09247 0.67126 0.63755 0.0
C186 C 0.15772 0.71212 0.99557 0.0
N187 N 0.13764 0.68549 0.97283 0.0
N188 N 0.14426 0.67916 0.89505 0.0
C189 C 0.16903 0.70126 0.8668 0.0
C190 C 0.17822 0.72298 0.92905 0.0
C191 C 0.15852 0.72584 0.08271 0.0
H192 H 0.15847 0.71223 0.13786 0.0
H193 H 0.13917 0.72772 0.08882 0.0
H194 H 0.17765 0.74723 0.08876 0.0
O195 O 0.11213 0.62267 0.04162 0.0
O196 O 0.12427 0.61282 0.91125 0.0
H197 H 0.18219 0.68011 0.77345 0.0
H198 H 0.20673 0.71787 0.78369 0.0
C199 C 0.18398 0.7012 0.78297 0.0
H200 H 0.17381 0.7054 0.72546 0.0
H201 H 0.14273 0.6139 0.71449 0.0
O202 O 0.10674 0.66309 0.16277 0.0
C203 C 0.11933 0.60789 0.99439 0.0
Co204 Co 0.90032 0.55318 0.63806 0.0
Co205 Co 0.8887 0.52601 0.82834 0.0
C206 C 0.94614 0.57608 0.7716 0.0
O207 O 0.93851 0.57845 0.69304 0.0
O208 O 0.92892 0.5569 0.82456 0.0
C209 C 0.91459 0.562 0.45716 0.0
O210 O 0.937 0.56131 0.48705 0.0
C211 C 0.88972 0.53572 0.0183 0.0
C212 C 0.86843 0.49273 0.07672 0.0
C213 C 0.88216 0.52136 0.0984 0.0
N214 N 0.88109 0.51666 0.95166 0.0
N215 N 0.86821 0.49091 0.98692 0.0
C216 C 0.90313 0.56714 0.00571 0.0
H217 H 0.90252 0.57252 0.93475 0.0
H218 H 0.89173 0.5753 0.0468 0.0
H219 H 0.9254 0.57775 0.0296 0.0
C220 C 0.85011 0.55852 0.68657 0.0
N221 N 0.87015 0.55163 0.70627 0.0
N222 N 0.86445 0.53902 0.78444 0.0
C223 C 0.8404 0.53716 0.81665 0.0
C224 C 0.83054 0.54955 0.75591 0.0
C225 C 0.8483 0.57069 0.59899 0.0
H226 H 0.84296 0.55447 0.54616 0.0
H227 H 0.86933 0.58924 0.58247 0.0
H228 H 0.83189 0.57716 0.59955 0.0
O229 O 0.89465 0.51455 0.62494 0.0
O230 O 0.88457 0.49305 0.75634 0.0
H231 H 0.82548 0.50229 0.90795 0.0
H232 H 0.80561 0.52097 0.91184 0.0
C233 C 0.827 0.52339 0.90344 0.0
H234 H 0.84066 0.53673 0.95884 0.0
H235 H 0.85971 0.47215 0.94988 0.0
O236 O 0.89718 0.56243 0.51279 0.0
C237 C 0.88832 0.49281 0.67239 0.0
Co238 Co 0.34977 0.89838 0.79825 0.0
Co239 Co 0.36587 0.88771 0.98927 0.0
C240 C 0.37317 0.94485 0.93019 0.0
O241 O 0.36328 0.93673 0.85178 0.0
O242 O 0.37515 0.92808 0.98518 0.0
C243 C 0.35576 0.91246 0.61847 0.0
O244 O 0.37889 0.93449 0.64977 0.0
C245 C 0.35874 0.88941 0.18004 0.0
C246 C 0.37776 0.86519 0.23619 0.0
C247 C 0.3647 0.88064 0.25936 0.0
N248 N 0.36795 0.87991 0.11239 0.0
N249 N 0.37924 0.86529 0.1463 0.0
C250 C 0.34269 0.90498 0.16915 0.0
H251 H 0.33474 0.90308 0.09994 0.0
H252 H 0.32451 0.89644 0.21629 0.0
H253 H 0.3569 0.92763 0.18605 0.0
C254 C 0.29444 0.8486 0.84862 0.0
N255 N 0.32136 0.86868 0.86771 0.0
N256 N 0.3284 0.86339 0.94637 0.0
C257 C 0.30622 0.83958 0.97962 0.0
C258 C 0.28392 0.82943 0.91893 0.0
C259 C 0.28044 0.84633 0.76067 0.0
H260 H 0.28263 0.86719 0.74322 0.0
H261 H 0.25764 0.82975 0.76125 0.0
H262 H 0.29151 0.84101 0.70844 0.0
O263 O 0.38238 0.89234 0.78475 0.0
O264 O 0.39459 0.88331 0.91642 0.0
H265 H 0.28704 0.80591 0.07829 0.0
H266 H 0.30833 0.84123 0.12169 0.0
C267 C 0.30661 0.82664 0.06732 0.0
H268 H 0.32549 0.82384 0.07074 0.0
H269 H 0.38815 0.85562 0.10827 0.0
O270 O 0.33738 0.89519 0.67306 0.0
C271 C 0.39808 0.88639 0.83212 0.0
Co272 Co 0.45296 0.34987 0.95785 0.0
Co273 Co 0.4796 0.3623 0.14754 0.0
C274 C 0.42987 0.37096 0.09492 0.0
O275 O 0.42726 0.36152 0.0156 0.0
O276 O 0.44922 0.3725 0.14636 0.0
C277 C 0.42933 0.32848 0.76681 0.0
O278 O 0.40357 0.30764 0.7842 0.0
C279 C 0.46722 0.34687 0.33268 0.0
C280 C 0.50844 0.37333 0.3997 0.0
C281 C 0.47995 0.35402 0.41605 0.0
N282 N 0.48717 0.36124 0.27058 0.0
N283 N 0.51187 0.37681 0.31081 0.0
C284 C 0.43626 0.32826 0.31179 0.0
H285 H 0.42323 0.33395 0.3549 0.0
H286 H 0.43176 0.32983 0.24077 0.0
H287 H 0.42993 0.30577 0.32462 0.0
C288 C 0.44806 0.29336 0.99492 0.0
N289 N 0.45437 0.31985 0.01865 0.0
N290 N 0.46711 0.3259 0.09678 0.0
C291 C 0.46983 0.30376 0.12441 0.0
C292 C 0.45761 0.2823 0.06125 0.0
C293 C 0.4356 0.28001 0.90696 0.0
H294 H 0.44921 0.29404 0.85264 0.0
H295 H 0.41423 0.27778 0.90049 0.0
H296 H 0.43374 0.25881 0.89985 0.0
O297 O 0.49178 0.38294 0.9516 0.0
O298 O 0.51348 0.39218 0.08245 0.0
H299 H 0.50408 0.32451 0.21814 0.0
H300 H 0.49033 0.28664 0.20831 0.0
C301 C 0.48461 0.30358 0.20855 0.0
H302 H 0.47024 0.29966 0.26582 0.0
H303 H 0.53077 0.39055 0.27794 0.0
O304 O 0.44608 0.34276 0.82948 0.0
C305 C 0.51366 0.39747 -0.00045 0.0
Co306 Co 0.10636 0.45223 0.13289 0.0
Co307 Co 0.11969 0.47928 0.32207 0.0
C308 C 0.06166 0.42937 0.26815 0.0
O309 O 0.06879 0.42657 0.18945 0.0
O310 O 0.07922 0.44887 0.31955 0.0
C311 C 0.10524 0.42886 0.94153 0.0
O312 O 0.10118 0.40336 0.95811 0.0
C313 C 0.12233 0.4669 0.50754 0.0
C314 C 0.13684 0.50803 0.57473 0.0
C315 C 0.12794 0.47961 0.59094 0.0
N316 N 0.12772 0.48683 0.4455 0.0
N317 N 0.13663 0.51146 0.48586 0.0
C318 C 0.11029 0.436 0.4866 0.0
H319 H 0.10394 0.43141 0.41583 0.0
H320 H 0.12672 0.42992 0.49842 0.0
H321 H 0.09183 0.42283 0.53039 0.0
C322 C 0.15796 0.44748 0.17429 0.0
N323 N 0.13763 0.45385 0.19589 0.0
N324 N 0.14392 0.46678 0.2737 0.0
C325 C 0.16866 0.46959 0.30321 0.0
C326 C 0.17825 0.45719 0.2417 0.0
C327 C 0.15926 0.4348 0.08722 0.0
H328 H 0.15889 0.44818 0.032 0.0
H329 H 0.14024 0.41338 0.08081 0.0
H330 H 0.17871 0.43305 0.08154 0.0
O331 O 0.11199 0.49099 0.125 0.0
O332 O 0.12386 0.51301 0.2554 0.0
H333 H 0.18132 0.50383 0.39648 0.0
H334 H 0.20589 0.49055 0.38885 0.0
C335 C 0.18316 0.48453 0.38771 0.0
H336 H 0.17268 0.47016 0.44488 0.0
H337 H 0.14169 0.53035 0.45305 0.0
O338 O 0.10699 0.44515 0.00476 0.0
C339 C 0.11909 0.51298 0.1721 0.0
Co340 Co 0.65838 0.10756 0.3017 0.0
Co341 Co 0.64229 0.11895 0.49175 0.0
C342 C 0.63461 0.06141 0.43381 0.0
O343 O 0.64497 0.06923 0.35577 0.0
O344 O 0.6326 0.07857 0.48709 0.0
C345 C 0.65284 0.09338 0.12099 0.0
O346 O 0.62977 0.07109 0.15121 0.0
C347 C 0.65054 0.11747 0.68195 0.0
C348 C 0.62952 0.13951 0.74036 0.0
C349 C 0.64399 0.12531 0.76207 0.0
N350 N 0.64037 0.12639 0.61529 0.0
N351 N 0.62788 0.13969 0.65055 0.0
C352 C 0.66821 0.10364 0.66933 0.0
H353 H 0.67441 0.10443 0.59854 0.0
H354 H 0.68762 0.11456 0.71129 0.0
H355 H 0.65613 0.08129 0.69209 0.0
C356 C 0.71385 0.15737 0.35213 0.0
N357 N 0.68687 0.1374 0.37103 0.0
N358 N 0.67977 0.14302 0.44907 0.0
C359 C 0.70192 0.16695 0.48201 0.0
C360 C 0.72432 0.17681 0.42187 0.0
C361 C 0.72797 0.15929 0.26474 0.0
H362 H 0.7254 0.13825 0.24763 0.0
H363 H 0.75088 0.17556 0.26596 0.0
H364 H 0.71729 0.1649 0.21195 0.0
O365 O 0.62574 0.11369 0.28818 0.0
O366 O 0.61382 0.12365 0.41899 0.0
H367 H 0.72041 0.20151 0.57809 0.0
H368 H 0.70067 0.16642 0.62416 0.0
C369 C 0.70136 0.18026 0.56884 0.0
H370 H 0.68189 0.18205 0.57257 0.0
H371 H 0.61795 0.14855 0.61351 0.0
O372 O 0.67083 0.11076 0.17641 0.0
C373 C 0.61023 0.12012 0.33481 0.0
Co374 Co 0.55495 0.65587 0.46266 0.0
Co375 Co 0.52784 0.64237 0.6517 0.0
C376 C 0.57798 0.63443 0.59873 0.0
O377 O 0.58078 0.64424 0.51988 0.0
O378 O 0.5584 0.63248 0.6498 0.0
C379 C 0.57833 0.67788 0.2714 0.0
O380 O 0.60388 0.69922 0.28827 0.0
C381 C 0.5402 0.65751 0.83717 0.0
C382 C 0.49909 0.63078 0.90422 0.0
C383 C 0.52752 0.65034 0.92055 0.0
N384 N 0.52026 0.64297 0.77505 0.0
N385 N 0.49564 0.6272 0.81532 0.0
C386 C 0.57111 0.67642 0.81631 0.0
H387 H 0.57568 0.67476 0.74544 0.0
H388 H 0.57715 0.69887 0.82855 0.0
H389 H 0.58434 0.67109 0.85983 0.0
C390 C 0.55942 0.71209 0.50285 0.0
N391 N 0.55314 0.68549 0.52498 0.0
N392 N 0.5402 0.67896 0.60272 0.0
C393 C 0.53731 0.70088 0.63168 0.0
C394 C 0.54964 0.72272 0.56985 0.0
C395 C 0.5721 0.72592 0.41569 0.0
H396 H 0.55873 0.71209 0.36055 0.0
H397 H 0.59356 0.72836 0.40958 0.0
H398 H 0.57378 0.74707 0.40953 0.0
O399 O 0.51626 0.62265 0.455 0.0
O400 O 0.49414 0.61263 0.58513 0.0
H401 H 0.50309 0.67946 0.72501 0.0
H402 H 0.51638 0.71727 0.71691 0.0
C403 C 0.52239 0.70056 0.71608 0.0
H404 H 0.5368 0.70449 0.77329 0.0
H405 H 0.47675 0.61334 0.78245 0.0
O406 O 0.56195 0.66339 0.33444 0.0
C407 C 0.49426 0.60777 0.50196 0.0
C408 C 0.48345 0.25509 0.05864 0.0
C409 C 0.45762 0.25513 0.06043 0.0
H410 H 0.50382 0.2299 0.05978 0.0
C411 C 0.43193 0.22918 0.06274 0.0
H412 H 0.50349 0.27492 0.05621 0.0
C413 C 0.43211 0.2035 0.06481 0.0
C414 C 0.45798 0.2035 0.06365 0.0
H415 H 0.4118 0.22884 0.06403 0.0
H416 H 0.41211 0.18364 0.06706 0.0
C417 C 0.48363 0.22947 0.06034 0.0
C418 C 0.20562 0.43134 0.24532 0.0
C419 C 0.20541 0.45708 0.24358 0.0
H420 H 0.23126 0.41137 0.25081 0.0
C421 C 0.23129 0.48283 0.24521 0.0
H422 H 0.18583 0.41126 0.24417 0.0
C423 C 0.25703 0.4829 0.2496 0.0
C424 C 0.2573 0.45721 0.25133 0.0
H425 H 0.23157 0.50292 0.24322 0.0
H426 H 0.27676 0.50303 0.25162 0.0
C427 C 0.23144 0.43141 0.24959 0.0
C428 C 0.77754 0.20417 0.42491 0.0
C429 C 0.75155 0.20392 0.42558 0.0
H430 H 0.82315 0.22982 0.42725 0.0
C431 C 0.75159 0.22976 0.42968 0.0
H432 H 0.77791 0.18442 0.42207 0.0
C433 C 0.77725 0.2555 0.43269 0.0
C434 C 0.80324 0.25579 0.43134 0.0
H435 H 0.73175 0.23001 0.42989 0.0
H436 H 0.77682 0.27522 0.43573 0.0
C437 C 0.80326 0.22997 0.42824 0.0
C438 C 0.52389 0.75005 0.5723 0.0
C439 C 0.54969 0.74995 0.57108 0.0
H440 H 0.50361 0.77528 0.57765 0.0
C441 C 0.57542 0.77588 0.5724 0.0
H442 H 0.50381 0.73026 0.57062 0.0
C443 C 0.57531 0.8016 0.57591 0.0
C444 C 0.54946 0.80164 0.57728 0.0
H445 H 0.59554 0.77619 0.57154 0.0
H446 H 0.59534 0.82144 0.57695 0.0
C447 C 0.52377 0.77569 0.57588 0.0
C448 C 0.77734 0.57535 0.76137 0.0
C449 C 0.75151 0.54955 0.7643 0.0
H450 H 0.82293 0.5955 0.75562 0.0
C451 C 0.75181 0.52387 0.76563 0.0
H452 H 0.77748 0.59537 0.76038 0.0
C453 C 0.77757 0.52394 0.76285 0.0
C454 C 0.80341 0.54969 0.75901 0.0
H455 H 0.73207 0.50375 0.76851 0.0
H456 H 0.77733 0.50386 0.76311 0.0
C457 C 0.80317 0.57542 0.75827 0.0
C458 C 0.25683 0.77653 0.92861 0.0
C459 C 0.25675 0.80228 0.92277 0.0
H460 H 0.23173 0.73108 0.9359 0.0
C461 C 0.2307 0.80191 0.92041 0.0
H462 H 0.27672 0.77638 0.93018 0.0
C463 C 0.20504 0.77606 0.92379 0.0
C464 C 0.20519 0.75033 0.9286 0.0
H465 H 0.23025 0.8216 0.91621 0.0
H466 H 0.18511 0.77611 0.92155 0.0
C467 C 0.23123 0.75074 0.93157 0.0
C468 C 0.45733 0.08873 0.61196 0.0
C469 C 0.47494 0.11754 0.63347 0.0
H470 H 0.43456 0.05821 0.50922 0.0
C471 C 0.4813 0.13822 0.56782 0.0
H472 H 0.45242 0.0724 0.66144 0.0
C473 C 0.47044 0.13017 0.48146 0.0
C474 C 0.45375 0.10124 0.45883 0.0
H475 H 0.49486 0.16055 0.58317 0.0
H476 H 0.47628 0.14652 0.43138 0.0
C477 C 0.44711 0.08062 0.52509 0.0
C478 C 0.31598 0.42963 0.71381 0.0
C479 C 0.3362 0.4405 0.64521 0.0
H480 H 0.30602 0.43439 0.84804 0.0
C481 C 0.36311 0.46418 0.66269 0.0
H482 H 0.29489 0.41181 0.70167 0.0
C483 C 0.36968 0.47676 0.74673 0.0
C484 C 0.34955 0.46604 0.81558 0.0
H485 H 0.3792 0.47314 0.61115 0.0
H486 H 0.3907 0.49483 0.75788 0.0
C487 C 0.3225 0.44249 0.79803 0.0
C488 C 0.89031 0.31517 0.88713 0.0
C489 C 0.89948 0.3356 0.81923 0.0
H490 H 0.8752 0.30451 0.02077 0.0
C491 C 0.90202 0.36219 0.83739 0.0
H492 H 0.88757 0.29431 0.87442 0.0
C493 C 0.89546 0.36823 0.92137 0.0
C494 C 0.88618 0.34787 0.98951 0.0
H495 H 0.909 0.37843 0.78637 0.0
H496 H 0.89788 0.38902 0.93302 0.0
C497 C 0.88342 0.32116 0.97133 0.0
C498 C 0.57654 0.88759 0.04106 0.0
C499 C 0.56552 0.89669 0.97209 0.0
H500 H 0.57189 0.87313 0.17552 0.0
C501 C 0.54166 0.8997 0.98911 0.0
H502 H 0.5945 0.88449 0.0293 0.0
C503 C 0.52906 0.89374 0.07308 0.0
C504 C 0.53995 0.88461 0.14231 0.0
H505 H 0.53259 0.90663 0.93728 0.0
H506 H 0.51086 0.89653 0.08388 0.0
C507 C 0.56366 0.8813 0.12521 0.0
C508 C 0.69213 0.57723 0.21933 0.0
C509 C 0.67163 0.56602 0.15147 0.0
H510 H 0.70287 0.57275 0.35291 0.0
C511 C 0.64502 0.54205 0.16964 0.0
H512 H 0.71301 0.59529 0.20659 0.0
C513 C 0.63902 0.52947 0.25359 0.0
C514 C 0.65944 0.54049 0.32168 0.0
H515 H 0.62873 0.53283 0.11865 0.0
H516 H 0.61821 0.51116 0.26526 0.0
C517 C 0.68619 0.56438 0.30349 0.0
C518 C 0.10671 0.64412 0.33516 0.0
C519 C 0.10934 0.67077 0.31738 0.0
H520 H 0.11066 0.61711 0.43047 0.0
C521 C 0.11855 0.69113 0.3856 0.0
H522 H 0.0997 0.62794 0.28389 0.0
C523 C 0.12536 0.68501 0.46973 0.0
C524 C 0.12247 0.65823 0.48759 0.0
H525 H 0.12137 0.71203 0.37319 0.0
H526 H 0.13361 0.7016 0.51941 0.0
C527 C 0.11317 0.63795 0.41911 0.0
C528 C 0.919 0.55117 0.21033 0.0
C529 C 0.89018 0.53376 0.18831 0.0
H530 H 0.94937 0.57384 0.31348 0.0
C531 C 0.86936 0.52761 0.25327 0.0
H532 H 0.93541 0.55592 0.16124 0.0
C533 C 0.87728 0.53848 0.33964 0.0
C534 C 0.9062 0.55498 0.36285 0.0
H535 H 0.84703 0.51422 0.23739 0.0
H536 H 0.86082 0.53281 0.38928 0.0
C537 C 0.92696 0.56142 0.29717 0.0
C538 C 0.34204 0.87543 0.50008 0.0
C539 C 0.35488 0.90429 0.52418 0.0
H540 H 0.33583 0.84531 0.3971 0.0
C541 C 0.37004 0.92515 0.45962 0.0
H542 H 0.33062 0.85888 0.54893 0.0
C543 C 0.37263 0.91733 0.37292 0.0
C544 C 0.36066 0.88855 0.34986 0.0
H545 H 0.38038 0.94751 0.47668 0.0
H546 H 0.38484 0.93382 0.32467 0.0
C547 C 0.34526 0.86763 0.4138 0.0
C548 C 0.47729 0.3673 0.57289 0.0
C549 C 0.46621 0.34685 0.50492 0.0
H550 H 0.47397 0.37769 0.70774 0.0
C551 C 0.44225 0.32018 0.52321 0.0
H552 H 0.49566 0.38806 0.56115 0.0
C553 C 0.42938 0.31433 0.60736 0.0
C554 C 0.44065 0.33485 0.67511 0.0
H555 H 0.43382 0.30348 0.47388 0.0
H556 H 0.41126 0.2935 0.6202 0.0
C557 C 0.4647 0.36139 0.65683 0.0
C558 C 0.12543 0.44227 0.69721 0.0
C559 C 0.12205 0.46591 0.67982 0.0
H560 H 0.12222 0.41151 0.79338 0.0
C561 C 0.11273 0.47672 0.74876 0.0
H562 H 0.13373 0.4341 0.64712 0.0
C563 C 0.10669 0.46413 0.83273 0.0
C564 C 0.10979 0.44036 0.85006 0.0
H565 H 0.10988 0.49486 0.73773 0.0
H566 H 0.09963 0.47316 0.88434 0.0
C567 C 0.11905 0.42941 0.78137 0.0
C568 C 0.63712 0.08865 0.87439 0.0
C569 C 0.64848 0.11741 0.85208 0.0
H570 H 0.62964 0.05845 0.97774 0.0
C571 C 0.66326 0.13831 0.91681 0.0
H572 H 0.62536 0.07218 0.82554 0.0
C573 C 0.66638 0.13051 0.00317 0.0
C574 C 0.65403 0.10165 0.02664 0.0
H575 H 0.67216 0.1606 0.90073 0.0
H576 H 0.67725 0.14703 0.05262 0.0
C577 C 0.63959 0.08081 0.96122 0.0
C578 C 0.54308 0.64423 0.16213 0.0
C579 C 0.56686 0.67104 0.17981 0.0
H580 H 0.51231 0.61687 0.06683 0.0
C581 C 0.57782 0.69132 0.11142 0.0
H582 H 0.53405 0.6281 0.21352 0.0
C583 C 0.56493 0.68495 0.02721 0.0
C584 C 0.54126 0.65801 0.00947 0.0
H585 H 0.59573 0.71233 0.12371 0.0
H586 H 0.5731 0.70148 0.97738 0.0
C587 C 0.53047 0.63782 0.07811 0.0
C588 C 0.56429 0.12349 0.14935 0.0
C589 C 0.54158 0.12249 0.19702 0.0
H590 H 0.60367 0.12354 0.15538 0.0
C591 C 0.54252 0.12251 0.29106 0.0
H592 H 0.5643 0.12355 0.07715 0.0
C593 C 0.56518 0.12268 0.33622 0.0
C594 C 0.58735 0.12258 0.28848 0.0
H595 H 0.52546 0.12195 0.33015 0.0
H596 H 0.56491 0.12208 0.40839 0.0
C597 C 0.58682 0.1234 0.1945 0.0
C598 C 0.44459 0.56052 0.3193 0.0
C599 C 0.42291 0.53831 0.3684 0.0
H600 H 0.48404 0.59973 0.32294 0.0
C601 C 0.4241 0.53988 0.46235 0.0
H602 H 0.44434 0.56002 0.24712 0.0
C603 C 0.44675 0.56276 0.50611 0.0
C604 C 0.46894 0.58446 0.45701 0.0
H605 H 0.40761 0.52323 0.50246 0.0
H606 H 0.44723 0.56305 0.5783 0.0
C607 C 0.4674 0.58323 0.36306 0.0
C608 C 0.88576 0.44284 0.49041 0.0
C609 C 0.88669 0.42142 0.53997 0.0
H610 H 0.88561 0.48215 0.49329 0.0
C611 C 0.8865 0.42284 0.63386 0.0
H612 H 0.88585 0.44239 0.41823 0.0
C613 C 0.88614 0.44549 0.67712 0.0
C614 C 0.88626 0.46744 0.62761 0.0
H615 H 0.88697 0.40656 0.67435 0.0
H616 H 0.88654 0.44614 0.74929 0.0
C617 C 0.88571 0.46566 0.5337 0.0
C618 C 0.42186 0.88321 0.69251 0.0
C619 C 0.42116 0.8841 0.7865 0.0
H620 H 0.4447 0.88318 0.57583 0.0
C621 C 0.44336 0.88428 0.83489 0.0
H622 H 0.40499 0.88287 0.65287 0.0
C623 C 0.4662 0.88464 0.79041 0.0
C624 C 0.46731 0.88458 0.6964 0.0
H625 H 0.44352 0.88494 0.90706 0.0
H626 H 0.48324 0.88536 0.83006 0.0
C627 C 0.44459 0.88332 0.64803 0.0
C628 C 0.56112 0.44243 0.00677 0.0
C629 C 0.53919 0.42093 0.9562 0.0
H630 H 0.60021 0.48204 0.00572 0.0
C631 C 0.54117 0.42255 0.86238 0.0
H632 H 0.56029 0.44184 0.07892 0.0
C633 C 0.56416 0.44547 0.82016 0.0
C634 C 0.58556 0.4675 0.87071 0.0
H635 H 0.52473 0.40621 0.8212 0.0
H636 H 0.56475 0.44629 0.74801 0.0
C637 C 0.58394 0.46553 0.96454 0.0
C638 C 0.12191 0.56063 0.17652 0.0
C639 C 0.12128 0.53838 0.12725 0.0
H640 H 0.12175 0.5999 0.17323 0.0
C641 C 0.12162 0.53996 0.03331 0.0
H642 H 0.12171 0.56014 0.2487 0.0
C643 C 0.12186 0.56287 0.98973 0.0
C644 C 0.12144 0.5846 0.03903 0.0
H645 H 0.12137 0.52327 0.99306 0.0
H646 H 0.1216 0.56314 0.91755 0.0
C647 C 0.12183 0.58338 0.13296 0.0
C648 C 0.39738 0.01008 0.07522 0.0
C649 C 0.41518 0.03192 0.0166 0.0
H650 H 0.36981 0.96535 0.093 0.0
C651 C 0.41664 0.02493 0.92692 0.0
H652 H 0.39566 0.01463 0.1445 0.0
C653 C 0.40143 0.99678 0.89727 0.0
C654 C 0.38495 0.97486 0.95709 0.0
H655 H 0.4303 0.04107 0.87987 0.0
H656 H 0.40386 0.99202 0.82878 0.0
C657 C 0.38264 0.98183 0.04585 0.0
C658 C 0.3993 0.39289 0.06905 0.0
C659 C 0.41153 0.382 0.12819 0.0
H660 H 0.37762 0.41649 0.05428 0.0
C661 C 0.4083 0.38415 0.22058 0.0
H662 H 0.40145 0.3916 0.99768 0.0
C663 C 0.39429 0.39805 0.25316 0.0
C664 C 0.3837 0.41055 0.194 0.0
H665 H 0.41734 0.37578 0.26791 0.0
H666 H 0.39304 0.40025 0.32453 0.0
C667 C 0.38577 0.40725 0.10162 0.0
C668 C 0.0092 0.39871 0.24175 0.0
C669 C 0.03228 0.41093 0.30102 0.0
H670 H 0.96391 0.37688 0.22683 0.0
C671 C 0.02688 0.40759 0.39336 0.0
H672 H 0.01266 0.40096 0.17041 0.0
C673 C 0.99899 0.39345 0.42581 0.0
C674 C 0.97591 0.38284 0.3666 0.0
H675 H 0.04427 0.41662 0.44078 0.0
H676 H 0.99555 0.39211 0.49719 0.0
C677 C 0.9813 0.38505 0.27422 0.0
C678 C 0.59841 0.98092 0.43204 0.0
C679 C 0.59466 0.97465 0.52387 0.0
H680 H 0.6146 0.0133 0.33124 0.0
C681 C 0.60651 0.99713 0.58518 0.0
H682 H 0.58959 0.96398 0.38309 0.0
C683 C 0.6203 0.02526 0.55537 0.0
C684 C 0.6232 0.03162 0.46368 0.0
H685 H 0.60388 0.99303 0.65619 0.0
H686 H 0.628 0.04205 0.60444 0.0
C687 C 0.61283 0.00914 0.40223 0.0
C688 C 0.59967 0.62146 0.72451 0.0
C689 C 0.59648 0.62358 0.63208 0.0
H690 H 0.61502 0.60557 0.82873 0.0
C691 C 0.60887 0.61282 0.57313 0.0
H692 H 0.5905 0.62973 0.7717 0.0
C693 C 0.62254 0.59862 0.60594 0.0
C694 C 0.62458 0.59535 0.69838 0.0
H695 H 0.60675 0.61408 0.50172 0.0
H696 H 0.63083 0.58947 0.55875 0.0
C697 C 0.61381 0.60774 0.75732 0.0
C698 C 0.0098 0.61237 0.92569 0.0
C699 C 0.03254 0.62318 0.86541 0.0
H700 H 0.96479 0.58872 0.94294 0.0
C701 C 0.02664 0.62087 0.77329 0.0
H702 H 0.0136 0.61369 0.99688 0.0
C703 C 0.99853 0.60701 0.7422 0.0
C704 C 0.97579 0.59466 0.80264 0.0
H705 H 0.04379 0.62915 0.72511 0.0
H706 H 0.99465 0.60474 0.67103 0.0
C707 C 0.98178 0.598 0.89462 0.0
loop_
_geom_bond_atom_site_label_1
_geom_bond_atom_site_label_2
_geom_bond_distance
_geom_bond_site_symmetry_2
_ccdc_geom_bond_type
Co0 O3 1.970 . S
Co0 N17 1.989 . S
Co0 O25 1.967 . S
Co0 O32 1.920 . S
Co1 O4 1.968 . S
Co1 N10 2.010 1_554 S
Co1 N18 1.998 . S
Co1 O26 1.946 . S
C2 O3 1.258 . S
C2 O4 1.263 . S
O3 Co0 1.970 . S
O3 C2 1.258 . S
O4 Co1 1.968 . S
O4 C2 1.263 . S
C5 O6 1.235 . S
C5 O32 1.289 . S
O6 C5 1.235 . S
C7 C9 1.400 . S
C7 N10 1.351 . S
C7 C12 1.501 . S
C8 C9 1.387 . S
C8 N11 1.341 . S
C9 C7 1.400 . S
C9 C8 1.387 . S
N10 Co1 2.010 1_556 S
N10 C7 1.351 . S
N10 N11 1.365 . S
N11 C8 1.341 . S
N11 N10 1.365 . S
N11 H31 0.862 . S
C12 C7 1.501 . S
C12 H13 0.961 . S
C12 H14 0.961 . S
C12 H15 0.960 . S
H13 C12 0.961 . S
H14 C12 0.961 . S
H15 C12 0.960 . S
C16 N17 1.342 . S
C16 C20 1.401 . S
C16 C21 1.499 . S
N17 Co0 1.989 . S
N17 C16 1.342 . S
N17 N18 1.388 . S
N18 Co1 1.998 . S
N18 N17 1.388 . S
N18 C19 1.346 . S
C19 N18 1.346 . S
C19 C20 1.396 . S
C19 C29 1.510 1_554 S
C20 C16 1.401 . S
C20 C19 1.396 . S
C21 C16 1.499 . S
C21 H22 0.959 . S
C21 H23 0.960 . S
C21 H24 0.961 . S
H22 C21 0.959 . S
H23 C21 0.960 . S
H24 C21 0.961 . S
O25 Co0 1.967 . S
O25 C33 1.258 . S
O26 Co1 1.946 . S
O26 C33 1.266 . S
H27 C29 0.959 . S
H28 C29 0.961 . S
C29 C19 1.510 1_556 S
C29 H27 0.959 . S
C29 H28 0.961 . S
C29 H30 0.960 . S
H30 C29 0.960 . S
H31 N11 0.862 . S
O32 Co0 1.920 . S
O32 C5 1.289 . S
C33 O25 1.258 . S
C33 O26 1.266 . S
Co34 O37 1.970 . S
Co34 N51 1.989 . S
Co34 O59 1.967 . S
Co34 O66 1.920 . S
Co35 O38 1.966 . S
Co35 N44 2.022 . S
Co35 N52 1.993 . S
Co35 O60 1.941 . S
C36 O37 1.258 . S
C36 O38 1.263 . S
O37 Co34 1.970 . S
O37 C36 1.258 . S
O38 Co35 1.966 . S
O38 C36 1.263 . S
C39 O40 1.235 . S
C39 O66 1.289 . S
O40 C39 1.235 . S
C41 C43 1.400 . S
C41 N44 1.351 1_556 S
C41 C46 1.501 . S
C42 C43 1.387 . S
C42 N45 1.341 . S
C43 C41 1.400 . S
C43 C42 1.387 . S
N44 Co35 2.022 . S
N44 C41 1.351 1_554 S
N44 N45 1.365 1_554 S
N45 C42 1.341 . S
N45 N44 1.365 1_556 S
N45 H65 0.862 1_556 S
C46 C41 1.501 . S
C46 H47 0.961 1_556 S
C46 H48 0.961 . S
C46 H49 0.960 . S
H47 C46 0.961 1_554 S
H48 C46 0.961 . S
H49 C46 0.960 . S
C50 N51 1.342 . S
C50 C54 1.401 . S
C50 C55 1.499 . S
N51 Co34 1.989 . S
N51 C50 1.342 . S
N51 N52 1.388 . S
N52 Co35 1.993 . S
N52 N51 1.388 . S
N52 C53 1.346 . S
C53 N52 1.346 . S
C53 C54 1.396 . S
C53 C63 1.510 . S
C54 C50 1.401 . S
C54 C53 1.396 . S
C55 C50 1.499 . S
C55 H56 0.959 . S
C55 H57 0.960 . S
C55 H58 0.961 . S
H56 C55 0.959 . S
H57 C55 0.960 . S
H58 C55 0.961 . S
O59 Co34 1.967 . S
O59 C67 1.258 . S
O60 Co35 1.941 . S
O60 C67 1.266 . S
H61 C63 0.959 . S
H62 C63 0.961 . S
C63 C53 1.510 . S
C63 H61 0.959 . S
C63 H62 0.961 . S
C63 H64 0.960 . S
H64 C63 0.960 . S
H65 N45 0.862 1_554 S
O66 Co34 1.920 . S
O66 C39 1.289 . S
C67 O59 1.258 . S
C67 O60 1.266 . S
Co68 O71 1.970 . S
Co68 N85 1.989 . S
Co68 O93 1.967 . S
Co68 O100 1.920 . S
Co69 O72 1.966 . S
Co69 N78 2.022 . S
Co69 N86 1.993 . S
Co69 O94 1.941 . S
C70 O71 1.258 . S
C70 O72 1.263 . S
O71 Co68 1.970 . S
O71 C70 1.258 . S
O72 Co69 1.966 . S
O72 C70 1.263 . S
C73 O74 1.235 . S
C73 O100 1.289 . S
O74 C73 1.235 . S
C75 C77 1.400 . S
C75 N78 1.351 . S
C75 C80 1.501 . S
C76 C77 1.387 . S
C76 N79 1.341 . S
C77 C75 1.400 . S
C77 C76 1.387 . S
N78 Co69 2.022 . S
N78 C75 1.351 . S
N78 N79 1.365 . S
N79 C76 1.341 . S
N79 N78 1.365 . S
N79 H99 0.862 . S
C80 C75 1.501 . S
C80 H81 0.961 . S
C80 H82 0.961 . S
C80 H83 0.960 . S
H81 C80 0.961 . S
H82 C80 0.961 . S
H83 C80 0.960 . S
C84 N85 1.342 . S
C84 C88 1.401 . S
C84 C89 1.499 . S
N85 Co68 1.989 . S
N85 C84 1.342 . S
N85 N86 1.388 . S
N86 Co69 1.993 . S
N86 N85 1.388 . S
N86 C87 1.346 . S
C87 N86 1.346 . S
C87 C88 1.396 . S
C87 C97 1.510 . S
C88 C84 1.401 . S
C88 C87 1.396 . S
C89 C84 1.499 . S
C89 H90 0.959 . S
C89 H91 0.960 . S
C89 H92 0.961 . S
H90 C89 0.959 . S
H91 C89 0.960 . S
H92 C89 0.961 . S
O93 Co68 1.967 . S
O93 C101 1.258 . S
O94 Co69 1.941 . S
O94 C101 1.266 . S
H95 C97 0.959 . S
H96 C97 0.961 . S
C97 C87 1.510 . S
C97 H95 0.959 . S
C97 H96 0.961 . S
C97 H98 0.960 . S
H98 C97 0.960 . S
H99 N79 0.862 . S
O100 Co68 1.920 . S
O100 C73 1.289 . S
C101 O93 1.258 . S
C101 O94 1.266 . S
Co102 O105 1.970 . S
Co102 N119 1.989 . S
Co102 O127 1.967 . S
Co102 O134 1.920 . S
Co103 O106 1.966 . S
Co103 N112 2.022 . S
Co103 N120 1.993 . S
Co103 O128 1.941 . S
C104 O105 1.258 . S
C104 O106 1.263 . S
O105 Co102 1.970 . S
O105 C104 1.258 . S
O106 Co103 1.966 . S
O106 C104 1.263 . S
C107 O108 1.235 . S
C107 O134 1.289 . S
O108 C107 1.235 . S
C109 C111 1.400 . S
C109 N112 1.351 . S
C109 C114 1.501 . S
C110 C111 1.387 . S
C110 N113 1.341 . S
C111 C109 1.400 . S
C111 C110 1.387 . S
N112 Co103 2.022 . S
N112 C109 1.351 . S
N112 N113 1.365 . S
N113 C110 1.341 . S
N113 N112 1.365 . S
N113 H133 0.862 . S
C114 C109 1.501 . S
C114 H115 0.961 . S
C114 H116 0.961 . S
C114 H117 0.960 . S
H115 C114 0.961 . S
H116 C114 0.961 . S
H117 C114 0.960 . S
C118 N119 1.342 . S
C118 C122 1.401 . S
C118 C123 1.499 . S
N119 Co102 1.989 . S
N119 C118 1.342 . S
N119 N120 1.388 . S
N120 Co103 1.993 . S
N120 N119 1.388 . S
N120 C121 1.346 . S
C121 N120 1.346 . S
C121 C122 1.396 . S
C121 C131 1.510 . S
C122 C118 1.401 . S
C122 C121 1.396 . S
C123 C118 1.499 . S
C123 H124 0.959 . S
C123 H125 0.960 . S
C123 H126 0.961 . S
H124 C123 0.959 . S
H125 C123 0.960 . S
H126 C123 0.961 . S
O127 Co102 1.967 . S
O127 C135 1.258 . S
O128 Co103 1.941 . S
O128 C135 1.266 . S
H129 C131 0.959 . S
H130 C131 0.961 . S
C131 C121 1.510 . S
C131 H129 0.959 . S
C131 H130 0.961 . S
C131 H132 0.960 . S
H132 C131 0.960 . S
H133 N113 0.862 . S
O134 Co102 1.920 . S
O134 C107 1.289 . S
C135 O127 1.258 . S
C135 O128 1.266 . S
Co136 O139 1.970 . S
Co136 N153 1.989 . S
Co136 O161 1.967 . S
Co136 O168 1.920 1_556 S
Co137 O140 1.966 . S
Co137 N146 2.022 . S
Co137 N154 1.993 . S
Co137 O162 1.941 . S
C138 O139 1.258 . S
C138 O140 1.263 . S
O139 Co136 1.970 . S
O139 C138 1.258 . S
O140 Co137 1.966 . S
O140 C138 1.263 . S
C141 O142 1.235 1_554 S
C141 O168 1.289 . S
O142 C141 1.235 1_556 S
C143 C145 1.400 . S
C143 N146 1.351 . S
C143 C148 1.501 . S
C144 C145 1.387 . S
C144 N147 1.341 . S
C145 C143 1.400 . S
C145 C144 1.387 . S
N146 Co137 2.022 . S
N146 C143 1.351 . S
N146 N147 1.365 . S
N147 C144 1.341 . S
N147 N146 1.365 . S
N147 H167 0.862 . S
C148 C143 1.501 . S
C148 H149 0.961 . S
C148 H150 0.961 . S
C148 H151 0.960 . S
H149 C148 0.961 . S
H150 C148 0.961 . S
H151 C148 0.960 . S
C152 N153 1.342 . S
C152 C156 1.401 . S
C152 C157 1.499 . S
N153 Co136 1.989 . S
N153 C152 1.342 . S
N153 N154 1.388 . S
N154 Co137 1.993 . S
N154 N153 1.388 . S
N154 C155 1.346 . S
C155 N154 1.346 . S
C155 C156 1.396 . S
C155 C165 1.510 . S
C156 C152 1.401 . S
C156 C155 1.396 . S
C157 C152 1.499 . S
C157 H158 0.959 . S
C157 H159 0.960 . S
C157 H160 0.961 . S
H158 C157 0.959 . S
H159 C157 0.960 . S
H160 C157 0.961 . S
O161 Co136 1.967 . S
O161 C169 1.258 . S
O162 Co137 1.941 . S
O162 C169 1.266 . S
H163 C165 0.959 . S
H164 C165 0.961 . S
C165 C155 1.510 . S
C165 H163 0.959 . S
C165 H164 0.961 . S
C165 H166 0.960 . S
H166 C165 0.960 . S
H167 N147 0.862 . S
O168 Co136 1.920 1_554 S
O168 C141 1.289 . S
C169 O161 1.258 . S
C169 O162 1.266 . S
Co170 O173 1.970 1_554 S
Co170 N187 1.989 1_554 S
Co170 O195 1.967 . S
Co170 O202 1.920 . S
Co171 O174 1.966 . S
Co171 N180 2.022 . S
Co171 N188 1.993 . S
Co171 O196 1.941 . S
C172 O173 1.258 . S
C172 O174 1.263 . S
O173 Co170 1.970 1_556 S
O173 C172 1.258 . S
O174 Co171 1.966 . S
O174 C172 1.263 . S
C175 O176 1.235 . S
C175 O202 1.289 . S
O176 C175 1.235 . S
C177 C179 1.400 . S
C177 N180 1.351 . S
C177 C182 1.501 . S
C178 C179 1.387 . S
C178 N181 1.341 . S
C179 C177 1.400 . S
C179 C178 1.387 . S
N180 Co171 2.022 . S
N180 C177 1.351 . S
N180 N181 1.365 . S
N181 C178 1.341 . S
N181 N180 1.365 . S
N181 H201 0.862 . S
C182 C177 1.501 . S
C182 H183 0.961 . S
C182 H184 0.961 . S
C182 H185 0.960 . S
H183 C182 0.961 . S
H184 C182 0.961 . S
H185 C182 0.960 . S
C186 N187 1.342 1_554 S
C186 C190 1.401 1_554 S
C186 C191 1.499 . S
N187 Co170 1.989 1_556 S
N187 C186 1.342 1_556 S
N187 N188 1.388 . S
N188 Co171 1.993 . S
N188 N187 1.388 . S
N188 C189 1.346 . S
C189 N188 1.346 . S
C189 C190 1.396 . S
C189 C199 1.510 . S
C190 C186 1.401 1_556 S
C190 C189 1.396 . S
C191 C186 1.499 . S
C191 H192 0.959 . S
C191 H193 0.960 . S
C191 H194 0.961 . S
H192 C191 0.959 . S
H193 C191 0.960 . S
H194 C191 0.961 . S
O195 Co170 1.967 . S
O195 C203 1.258 1_554 S
O196 Co171 1.941 . S
O196 C203 1.266 . S
H197 C199 0.959 . S
H198 C199 0.961 . S
C199 C189 1.510 . S
C199 H197 0.959 . S
C199 H198 0.961 . S
C199 H200 0.960 . S
H200 C199 0.960 . S
H201 N181 0.862 . S
O202 Co170 1.920 . S
O202 C175 1.289 . S
C203 O195 1.258 1_556 S
C203 O196 1.266 . S
Co204 O207 1.970 . S
Co204 N221 1.989 . S
Co204 O229 1.967 . S
Co204 O236 1.920 . S
Co205 O208 1.966 . S
Co205 N214 2.022 . S
Co205 N222 1.993 . S
Co205 O230 1.941 . S
C206 O207 1.258 . S
C206 O208 1.263 . S
O207 Co204 1.970 . S
O207 C206 1.258 . S
O208 Co205 1.966 . S
O208 C206 1.263 . S
C209 O210 1.235 . S
C209 O236 1.289 . S
O210 C209 1.235 . S
C211 C213 1.400 . S
C211 N214 1.351 1_554 S
C211 C216 1.501 . S
C212 C213 1.387 . S
C212 N215 1.341 . S
C213 C211 1.400 . S
C213 C212 1.387 . S
N214 Co205 2.022 . S
N214 C211 1.351 1_556 S
N214 N215 1.365 1_556 S
N215 C212 1.341 . S
N215 N214 1.365 1_554 S
N215 H235 0.862 1_554 S
C216 C211 1.501 . S
C216 H217 0.961 1_554 S
C216 H218 0.961 . S
C216 H219 0.960 . S
H217 C216 0.961 1_556 S
H218 C216 0.961 . S
H219 C216 0.960 . S
C220 N221 1.342 . S
C220 C224 1.401 . S
C220 C225 1.499 . S
N221 Co204 1.989 . S
N221 C220 1.342 . S
N221 N222 1.388 . S
N222 Co205 1.993 . S
N222 N221 1.388 . S
N222 C223 1.346 . S
C223 N222 1.346 . S
C223 C224 1.396 . S
C223 C233 1.510 . S
C224 C220 1.401 . S
C224 C223 1.396 . S
C225 C220 1.499 . S
C225 H226 0.959 . S
C225 H227 0.960 . S
C225 H228 0.961 . S
H226 C225 0.959 . S
H227 C225 0.960 . S
H228 C225 0.961 . S
O229 Co204 1.967 . S
O229 C237 1.258 . S
O230 Co205 1.941 . S
O230 C237 1.266 . S
H231 C233 0.959 . S
H232 C233 0.961 . S
C233 C223 1.510 . S
C233 H231 0.959 . S
C233 H232 0.961 . S
C233 H234 0.960 . S
H234 C233 0.960 . S
H235 N215 0.862 1_556 S
O236 Co204 1.920 . S
O236 C209 1.289 . S
C237 O229 1.258 . S
C237 O230 1.266 . S
Co238 O241 1.970 . S
Co238 N255 1.989 . S
Co238 O263 1.967 . S
Co238 O270 1.920 . S
Co239 O242 1.968 . S
Co239 N248 2.011 1_556 S
Co239 N256 1.998 . S
Co239 O264 1.946 . S
C240 O241 1.258 . S
C240 O242 1.263 . S
O241 Co238 1.970 . S
O241 C240 1.258 . S
O242 Co239 1.968 . S
O242 C240 1.263 . S
C243 O244 1.235 . S
C243 O270 1.289 . S
O244 C243 1.235 . S
C245 C247 1.400 . S
C245 N248 1.351 . S
C245 C250 1.501 . S
C246 C247 1.387 . S
C246 N249 1.341 . S
C247 C245 1.400 . S
C247 C246 1.387 . S
N248 Co239 2.011 1_554 S
N248 C245 1.351 . S
N248 N249 1.365 . S
N249 C246 1.341 . S
N249 N248 1.365 . S
N249 H269 0.862 . S
C250 C245 1.501 . S
C250 H251 0.961 . S
C250 H252 0.961 . S
C250 H253 0.960 . S
H251 C250 0.961 . S
H252 C250 0.961 . S
H253 C250 0.960 . S
C254 N255 1.342 . S
C254 C258 1.401 . S
C254 C259 1.499 . S
N255 Co238 1.989 . S
N255 C254 1.342 . S
N255 N256 1.388 . S
N256 Co239 1.998 . S
N256 N255 1.388 . S
N256 C257 1.346 . S
C257 N256 1.346 . S
C257 C258 1.396 . S
C257 C267 1.510 1_556 S
C258 C254 1.401 . S
C258 C257 1.396 . S
C259 C254 1.499 . S
C259 H260 0.959 . S
C259 H261 0.960 . S
C259 H262 0.961 . S
H260 C259 0.959 . S
H261 C259 0.960 . S
H262 C259 0.961 . S
O263 Co238 1.967 . S
O263 C271 1.258 . S
O264 Co239 1.946 . S
O264 C271 1.266 . S
H265 C267 0.959 . S
H266 C267 0.961 . S
C267 C257 1.510 1_554 S
C267 H265 0.959 . S
C267 H266 0.961 . S
C267 H268 0.960 . S
H268 C267 0.960 . S
H269 N249 0.862 . S
O270 Co238 1.920 . S
O270 C243 1.289 . S
C271 O263 1.258 . S
C271 O264 1.266 . S
Co272 O275 1.970 1_556 S
Co272 N289 1.989 1_556 S
Co272 O297 1.967 . S
Co272 O304 1.920 . S
Co273 O276 1.966 . S
Co273 N282 2.022 . S
Co273 N290 1.993 . S
Co273 O298 1.941 . S
C274 O275 1.258 . S
C274 O276 1.263 . S
O275 Co272 1.970 1_554 S
O275 C274 1.258 . S
O276 Co273 1.966 . S
O276 C274 1.263 . S
C277 O278 1.235 . S
C277 O304 1.289 . S
O278 C277 1.235 . S
C279 C281 1.400 . S
C279 N282 1.351 . S
C279 C284 1.501 . S
C280 C281 1.387 . S
C280 N283 1.341 . S
C281 C279 1.400 . S
C281 C280 1.387 . S
N282 Co273 2.022 . S
N282 C279 1.351 . S
N282 N283 1.365 . S
N283 C280 1.341 . S
N283 N282 1.365 . S
N283 H303 0.862 . S
C284 C279 1.501 . S
C284 H285 0.961 . S
C284 H286 0.961 . S
C284 H287 0.960 . S
H285 C284 0.961 . S
H286 C284 0.961 . S
H287 C284 0.960 . S
C288 N289 1.342 1_556 S
C288 C292 1.401 1_556 S
C288 C293 1.499 . S
N289 Co272 1.989 1_554 S
N289 C288 1.342 1_554 S
N289 N290 1.388 . S
N290 Co273 1.993 . S
N290 N289 1.388 . S
N290 C291 1.346 . S
C291 N290 1.346 . S
C291 C292 1.396 . S
C291 C301 1.510 . S
C292 C288 1.401 1_554 S
C292 C291 1.396 . S
C293 C288 1.499 . S
C293 H294 0.959 . S
C293 H295 0.960 . S
C293 H296 0.961 . S
H294 C293 0.959 . S
H295 C293 0.960 . S
H296 C293 0.961 . S
O297 Co272 1.967 . S
O297 C305 1.258 1_556 S
O298 Co273 1.941 . S
O298 C305 1.266 . S
H299 C301 0.959 . S
H300 C301 0.961 . S
C301 C291 1.510 . S
C301 H299 0.959 . S
C301 H300 0.961 . S
C301 H302 0.960 . S
H302 C301 0.960 . S
H303 N283 0.862 . S
O304 Co272 1.920 . S
O304 C277 1.289 . S
C305 O297 1.258 1_554 S
C305 O298 1.266 . S
Co306 O309 1.970 . S
Co306 N323 1.989 . S
Co306 O331 1.967 . S
Co306 O338 1.920 1_554 S
Co307 O310 1.966 . S
Co307 N316 2.022 . S
Co307 N324 1.993 . S
Co307 O332 1.941 . S
C308 O309 1.258 . S
C308 O310 1.263 . S
O309 Co306 1.970 . S
O309 C308 1.258 . S
O310 Co307 1.966 . S
O310 C308 1.263 . S
C311 O312 1.235 1_556 S
C311 O338 1.289 . S
O312 C311 1.235 1_554 S
C313 C315 1.400 . S
C313 N316 1.351 . S
C313 C318 1.501 . S
C314 C315 1.387 . S
C314 N317 1.341 . S
C315 C313 1.400 . S
C315 C314 1.387 . S
N316 Co307 2.022 . S
N316 C313 1.351 . S
N316 N317 1.365 . S
N317 C314 1.341 . S
N317 N316 1.365 . S
N317 H337 0.862 . S
C318 C313 1.501 . S
C318 H319 0.961 . S
C318 H320 0.961 . S
C318 H321 0.960 . S
H319 C318 0.961 . S
H320 C318 0.961 . S
H321 C318 0.960 . S
C322 N323 1.342 . S
C322 C326 1.401 . S
C322 C327 1.499 . S
N323 Co306 1.989 . S
N323 C322 1.342 . S
N323 N324 1.388 . S
N324 Co307 1.993 . S
N324 N323 1.388 . S
N324 C325 1.346 . S
C325 N324 1.346 . S
C325 C326 1.396 . S
C325 C335 1.510 . S
C326 C322 1.401 . S
C326 C325 1.396 . S
C327 C322 1.499 . S
C327 H328 0.959 . S
C327 H329 0.960 . S
C327 H330 0.961 . S
H328 C327 0.959 . S
H329 C327 0.960 . S
H330 C327 0.961 . S
O331 Co306 1.967 . S
O331 C339 1.258 . S
O332 Co307 1.941 . S
O332 C339 1.266 . S
H333 C335 0.959 . S
H334 C335 0.961 . S
C335 C325 1.510 . S
C335 H333 0.959 . S
C335 H334 0.961 . S
C335 H336 0.960 . S
H336 C335 0.960 . S
H337 N317 0.862 . S
O338 Co306 1.920 1_556 S
O338 C311 1.289 . S
C339 O331 1.258 . S
C339 O332 1.266 . S
Co340 O343 1.970 . S
Co340 N357 1.989 . S
Co340 O365 1.967 . S
Co340 O372 1.920 . S
Co341 O344 1.966 . S
Co341 N350 2.022 . S
Co341 N358 1.993 . S
Co341 O366 1.941 . S
C342 O343 1.258 . S
C342 O344 1.263 . S
O343 Co340 1.970 . S
O343 C342 1.258 . S
O344 Co341 1.966 . S
O344 C342 1.263 . S
C345 O346 1.235 . S
C345 O372 1.289 . S
O346 C345 1.235 . S
C347 C349 1.400 . S
C347 N350 1.351 . S
C347 C352 1.501 . S
C348 C349 1.387 . S
C348 N351 1.341 . S
C349 C347 1.400 . S
C349 C348 1.387 . S
N350 Co341 2.022 . S
N350 C347 1.351 . S
N350 N351 1.365 . S
N351 C348 1.341 . S
N351 N350 1.365 . S
N351 H371 0.862 . S
C352 C347 1.501 . S
C352 H353 0.961 . S
C352 H354 0.961 . S
C352 H355 0.960 . S
H353 C352 0.961 . S
H354 C352 0.961 . S
H355 C352 0.960 . S
C356 N357 1.342 . S
C356 C360 1.401 . S
C356 C361 1.499 . S
N357 Co340 1.989 . S
N357 C356 1.342 . S
N357 N358 1.388 . S
N358 Co341 1.993 . S
N358 N357 1.388 . S
N358 C359 1.346 . S
C359 N358 1.346 . S
C359 C360 1.396 . S
C359 C369 1.510 . S
C360 C356 1.401 . S
C360 C359 1.396 . S
C361 C356 1.499 . S
C361 H362 0.959 . S
C361 H363 0.960 . S
C361 H364 0.961 . S
H362 C361 0.959 . S
H363 C361 0.960 . S
H364 C361 0.961 . S
O365 Co340 1.967 . S
O365 C373 1.258 . S
O366 Co341 1.941 . S
O366 C373 1.266 . S
H367 C369 0.959 . S
H368 C369 0.961 . S
C369 C359 1.510 . S
C369 H367 0.959 . S
C369 H368 0.961 . S
C369 H370 0.960 . S
H370 C369 0.960 . S
H371 N351 0.862 . S
O372 Co340 1.920 . S
O372 C345 1.289 . S
C373 O365 1.258 . S
C373 O366 1.266 . S
Co374 O377 1.970 . S
Co374 N391 1.989 . S
Co374 O399 1.967 . S
Co374 O406 1.920 . S
Co375 O378 1.966 . S
Co375 N384 2.022 . S
Co375 N392 1.993 . S
Co375 O400 1.941 . S
C376 O377 1.258 . S
C376 O378 1.263 . S
O377 Co374 1.970 . S
O377 C376 1.258 . S
O378 Co375 1.966 . S
O378 C376 1.263 . S
C379 O380 1.235 . S
C379 O406 1.289 . S
O380 C379 1.235 . S
C381 C383 1.400 . S
C381 N384 1.351 . S
C381 C386 1.501 . S
C382 C383 1.387 . S
C382 N385 1.341 . S
C383 C381 1.400 . S
C383 C382 1.387 . S
N384 Co375 2.022 . S
N384 C381 1.351 . S
N384 N385 1.365 . S
N385 C382 1.341 . S
N385 N384 1.365 . S
N385 H405 0.862 . S
C386 C381 1.501 . S
C386 H387 0.961 . S
C386 H388 0.961 . S
C386 H389 0.960 . S
H387 C386 0.961 . S
H388 C386 0.961 . S
H389 C386 0.960 . S
C390 N391 1.342 . S
C390 C394 1.401 . S
C390 C395 1.499 . S
N391 Co374 1.989 . S
N391 C390 1.342 . S
N391 N392 1.388 . S
N392 Co375 1.993 . S
N392 N391 1.388 . S
N392 C393 1.346 . S
C393 N392 1.346 . S
C393 C394 1.396 . S
C393 C403 1.510 . S
C394 C390 1.401 . S
C394 C393 1.396 . S
C395 C390 1.499 . S
C395 H396 0.959 . S
C395 H397 0.960 . S
C395 H398 0.961 . S
H396 C395 0.959 . S
H397 C395 0.960 . S
H398 C395 0.961 . S
O399 Co374 1.967 . S
O399 C407 1.258 . S
O400 Co375 1.941 . S
O400 C407 1.266 . S
H401 C403 0.959 . S
H402 C403 0.961 . S
C403 C393 1.510 . S
C403 H401 0.959 . S
C403 H402 0.961 . S
C403 H404 0.960 . S
H404 C403 0.960 . S
H405 N385 0.862 . S
O406 Co374 1.920 . S
O406 C379 1.289 . S
C407 O399 1.258 . S
C407 O400 1.266 . S
C408 C409 1.387 . S
C408 H412 0.950 . S
C408 C417 1.390 . S
C409 C408 1.387 . S
C409 C411 1.389 . S
H410 C417 0.950 . S
C411 C409 1.389 . S
C411 C413 1.390 . S
C411 H415 0.948 1_554 S
H412 C408 0.950 . S
C413 C411 1.390 . S
C413 C414 1.387 . S
C413 H416 0.950 1_554 S
C414 C413 1.387 . S
C414 C417 1.387 . S
H415 C411 0.948 1_556 S
H416 C413 0.950 1_556 S
C417 C408 1.390 . S
C417 H410 0.950 . S
C417 C414 1.387 . S
C418 C419 1.387 . S
C418 H422 0.950 . S
C418 C427 1.390 . S
C419 C418 1.387 . S
C419 C421 1.387 . S
H420 C427 0.950 . S
C421 C419 1.387 . S
C421 C423 1.390 . S
C421 H425 0.950 . S
H422 C418 0.950 . S
C423 C421 1.390 . S
C423 C424 1.387 . S
C423 H426 0.950 . S
C424 C423 1.387 . S
C424 C427 1.387 . S
H425 C421 0.950 . S
H426 C423 0.950 . S
C427 C418 1.390 . S
C427 H420 0.950 . S
C427 C424 1.387 . S
C428 C429 1.387 . S
C428 H432 0.950 . S
C428 C437 1.390 . S
C429 C428 1.387 . S
C429 C431 1.387 . S
H430 C437 0.950 . S
C431 C429 1.387 . S
C431 C433 1.390 . S
C431 H435 0.950 . S
H432 C428 0.950 . S
C433 C431 1.390 . S
C433 C434 1.387 . S
C433 H436 0.950 . S
C434 C433 1.387 . S
C434 C437 1.387 . S
H435 C431 0.950 . S
H436 C433 0.950 . S
C437 C428 1.390 . S
C437 H430 0.950 . S
C437 C434 1.387 . S
C438 C439 1.387 . S
C438 H442 0.950 . S
C438 C447 1.390 . S
C439 C438 1.387 . S
C439 C441 1.387 . S
H440 C447 0.950 . S
C441 C439 1.387 . S
C441 C443 1.390 . S
C441 H445 0.950 . S
H442 C438 0.950 . S
C443 C441 1.390 . S
C443 C444 1.387 . S
C443 H446 0.950 . S
C444 C443 1.387 . S
C444 C447 1.387 . S
H445 C441 0.950 . S
H446 C443 0.950 . S
C447 C438 1.390 . S
C447 H440 0.950 . S
C447 C444 1.387 . S
C448 C449 1.387 . S
C448 H452 0.950 . S
C448 C457 1.390 . S
C449 C448 1.387 . S
C449 C451 1.387 . S
H450 C457 0.950 . S
C451 C449 1.387 . S
C451 C453 1.390 . S
C451 H455 0.950 . S
H452 C448 0.950 . S
C453 C451 1.390 . S
C453 C454 1.387 . S
C453 H456 0.950 . S
C454 C453 1.387 . S
C454 C457 1.387 . S
H455 C451 0.950 . S
H456 C453 0.950 . S
C457 C448 1.390 . S
C457 H450 0.950 . S
C457 C454 1.387 . S
C458 C459 1.387 . S
C458 H462 0.950 . S
C458 C467 1.390 . S
C459 C458 1.387 . S
C459 C461 1.387 . S
H460 C467 0.950 . S
C461 C459 1.387 . S
C461 C463 1.390 . S
C461 H465 0.950 1_556 S
H462 C458 0.950 . S
C463 C461 1.390 . S
C463 C464 1.389 . S
C463 H466 0.948 1_556 S
C464 C463 1.389 . S
C464 C467 1.387 . S
H465 C461 0.950 1_554 S
H466 C463 0.948 1_554 S
C467 C458 1.390 . S
C467 H460 0.950 . S
C467 C464 1.387 . S
C468 C469 1.387 . S
C468 H472 0.950 . S
C468 C477 1.390 . S
C469 C468 1.387 . S
C469 C471 1.387 . S
H470 C477 0.950 . S
C471 C469 1.387 . S
C471 C473 1.390 . S
C471 H475 0.950 . S
H472 C468 0.950 . S
C473 C471 1.390 . S
C473 C474 1.387 . S
C473 H476 0.950 . S
C474 C473 1.387 . S
C474 C477 1.387 . S
H475 C471 0.950 . S
H476 C473 0.950 . S
C477 C468 1.390 . S
C477 H470 0.950 . S
C477 C474 1.387 . S
C478 C479 1.387 . S
C478 H482 0.950 . S
C478 C487 1.390 . S
C479 C478 1.387 . S
C479 C481 1.387 . S
H480 C487 0.950 . S
C481 C479 1.387 . S
C481 C483 1.390 . S
C481 H485 0.950 . S
H482 C478 0.950 . S
C483 C481 1.390 . S
C483 C484 1.387 . S
C483 H486 0.950 . S
C484 C483 1.387 . S
C484 C487 1.387 . S
H485 C481 0.950 . S
H486 C483 0.950 . S
C487 C478 1.390 . S
C487 H480 0.950 . S
C487 C484 1.387 . S
C488 C489 1.387 . S
C488 H492 0.950 . S
C488 C497 1.390 . S
C489 C488 1.387 . S
C489 C491 1.387 . S
H490 C497 0.950 . S
C491 C489 1.387 . S
C491 C493 1.390 . S
C491 H495 0.950 . S
H492 C488 0.950 . S
C493 C491 1.390 . S
C493 C494 1.387 . S
C493 H496 0.950 . S
C494 C493 1.387 . S
C494 C497 1.387 . S
H495 C491 0.950 . S
H496 C493 0.950 . S
C497 C488 1.390 . S
C497 H490 0.950 . S
C497 C494 1.387 . S
C498 C499 1.387 1_554 S
C498 H502 0.950 . S
C498 C507 1.390 . S
C499 C498 1.387 1_556 S
C499 C501 1.387 . S
H500 C507 0.950 . S
C501 C499 1.387 . S
C501 C503 1.390 1_556 S
C501 H505 0.950 . S
H502 C498 0.950 . S
C503 C501 1.390 1_554 S
C503 C504 1.387 . S
C503 H506 0.950 . S
C504 C503 1.387 . S
C504 C507 1.387 . S
H505 C501 0.950 . S
H506 C503 0.950 . S
C507 C498 1.390 . S
C507 H500 0.950 . S
C507 C504 1.387 . S
C508 C509 1.387 . S
C508 H512 0.950 . S
C508 C517 1.390 . S
C509 C508 1.387 . S
C509 C511 1.387 . S
H510 C517 0.950 . S
C511 C509 1.387 . S
C511 C513 1.390 . S
C511 H515 0.950 . S
H512 C508 0.950 . S
C513 C511 1.390 . S
C513 C514 1.387 . S
C513 H516 0.950 . S
C514 C513 1.387 . S
C514 C517 1.387 . S
H515 C511 0.950 . S
H516 C513 0.950 . S
C517 C508 1.390 . S
C517 H510 0.950 . S
C517 C514 1.387 . S
C518 C519 1.387 . S
C518 H522 0.950 . S
C518 C527 1.390 . S
C519 C518 1.387 . S
C519 C521 1.387 . S
H520 C527 0.950 . S
C521 C519 1.387 . S
C521 C523 1.390 . S
C521 H525 0.950 . S
H522 C518 0.950 . S
C523 C521 1.390 . S
C523 C524 1.387 . S
C523 H526 0.950 . S
C524 C523 1.387 . S
C524 C527 1.387 . S
H525 C521 0.950 . S
H526 C523 0.950 . S
C527 C518 1.390 . S
C527 H520 0.950 . S
C527 C524 1.387 . S
C528 C529 1.387 . S
C528 H532 0.950 . S
C528 C537 1.390 . S
C529 C528 1.387 . S
C529 C531 1.387 . S
H530 C537 0.950 . S
C531 C529 1.387 . S
C531 C533 1.390 . S
C531 H535 0.950 . S
H532 C528 0.950 . S
C533 C531 1.390 . S
C533 C534 1.387 . S
C533 H536 0.950 . S
C534 C533 1.387 . S
C534 C537 1.387 . S
H535 C531 0.950 . S
H536 C533 0.950 . S
C537 C528 1.390 . S
C537 H530 0.950 . S
C537 C534 1.387 . S
C538 C539 1.387 . S
C538 H542 0.950 . S
C538 C547 1.390 . S
C539 C538 1.387 . S
C539 C541 1.387 . S
H540 C547 0.950 . S
C541 C539 1.387 . S
C541 C543 1.390 . S
C541 H545 0.950 . S
H542 C538 0.950 . S
C543 C541 1.390 . S
C543 C544 1.387 . S
C543 H546 0.950 . S
C544 C543 1.387 . S
C544 C547 1.387 . S
H545 C541 0.950 . S
H546 C543 0.950 . S
C547 C538 1.390 . S
C547 H540 0.950 . S
C547 C544 1.387 . S
C548 C549 1.387 . S
C548 H552 0.950 . S
C548 C557 1.390 . S
C549 C548 1.387 . S
C549 C551 1.387 . S
H550 C557 0.950 . S
C551 C549 1.387 . S
C551 C553 1.390 . S
C551 H555 0.950 . S
H552 C548 0.950 . S
C553 C551 1.390 . S
C553 C554 1.387 . S
C553 H556 0.950 . S
C554 C553 1.387 . S
C554 C557 1.387 . S
H555 C551 0.950 . S
H556 C553 0.950 . S
C557 C548 1.390 . S
C557 H550 0.950 . S
C557 C554 1.387 . S
C558 C559 1.387 . S
C558 H562 0.950 . S
C558 C567 1.390 . S
C559 C558 1.387 . S
C559 C561 1.387 . S
H560 C567 0.950 . S
C561 C559 1.387 . S
C561 C563 1.390 . S
C561 H565 0.950 . S
H562 C558 0.950 . S
C563 C561 1.390 . S
C563 C564 1.387 . S
C563 H566 0.950 . S
C564 C563 1.387 . S
C564 C567 1.387 . S
H565 C561 0.950 . S
H566 C563 0.950 . S
C567 C558 1.390 . S
C567 H560 0.950 . S
C567 C564 1.387 . S
C568 C569 1.387 . S
C568 H572 0.950 . S
C568 C577 1.390 . S
C569 C568 1.387 . S
C569 C571 1.387 . S
H570 C577 0.950 . S
C571 C569 1.387 . S
C571 C573 1.390 1_556 S
C571 H575 0.950 . S
H572 C568 0.950 . S
C573 C571 1.390 1_554 S
C573 C574 1.387 . S
C573 H576 0.950 . S
C574 C573 1.387 . S
C574 C577 1.387 1_554 S
H575 C571 0.950 . S
H576 C573 0.950 . S
C577 C568 1.390 . S
C577 H570 0.950 . S
C577 C574 1.387 1_556 S
C578 C579 1.387 . S
C578 H582 0.950 . S
C578 C587 1.390 . S
C579 C578 1.387 . S
C579 C581 1.387 . S
H580 C587 0.950 . S
C581 C579 1.387 . S
C581 C583 1.390 . S
C581 H585 0.950 . S
H582 C578 0.950 . S
C583 C581 1.390 . S
C583 C584 1.387 . S
C583 H586 0.950 . S
C584 C583 1.387 . S
C584 C587 1.387 . S
H585 C581 0.950 . S
H586 C583 0.950 . S
C587 C578 1.390 . S
C587 H580 0.950 . S
C587 C584 1.387 . S
C588 C589 1.387 . S
C588 H592 0.950 . S
C588 C597 1.390 . S
C589 C588 1.387 . S
C589 C591 1.387 . S
H590 C597 0.950 . S
C591 C589 1.387 . S
C591 C593 1.390 . S
C591 H595 0.950 . S
H592 C588 0.950 . S
C593 C591 1.390 . S
C593 C594 1.387 . S
C593 H596 0.950 . S
C594 C593 1.387 . S
C594 C597 1.387 . S
H595 C591 0.950 . S
H596 C593 0.950 . S
C597 C588 1.390 . S
C597 H590 0.950 . S
C597 C594 1.387 . S
C598 C599 1.387 . S
C598 H602 0.950 . S
C598 C607 1.390 . S
C599 C598 1.387 . S
C599 C601 1.387 . S
H600 C607 0.950 . S
C601 C599 1.387 . S
C601 C603 1.390 . S
C601 H605 0.950 . S
H602 C598 0.950 . S
C603 C601 1.390 . S
C603 C604 1.387 . S
C603 H606 0.950 . S
C604 C603 1.387 . S
C604 C607 1.387 . S
H605 C601 0.950 . S
H606 C603 0.950 . S
C607 C598 1.390 . S
C607 H600 0.950 . S
C607 C604 1.387 . S
C608 C609 1.387 . S
C608 H612 0.950 . S
C608 C617 1.390 . S
C609 C608 1.387 . S
C609 C611 1.387 . S
H610 C617 0.950 . S
C611 C609 1.387 . S
C611 C613 1.390 . S
C611 H615 0.950 . S
H612 C608 0.950 . S
C613 C611 1.390 . S
C613 C614 1.387 . S
C613 H616 0.950 . S
C614 C613 1.387 . S
C614 C617 1.387 . S
H615 C611 0.950 . S
H616 C613 0.950 . S
C617 C608 1.390 . S
C617 H610 0.950 . S
C617 C614 1.387 . S
C618 C619 1.387 . S
C618 H622 0.950 . S
C618 C627 1.390 . S
C619 C618 1.387 . S
C619 C621 1.387 . S
H620 C627 0.950 . S
C621 C619 1.387 . S
C621 C623 1.390 . S
C621 H625 0.950 . S
H622 C618 0.950 . S
C623 C621 1.390 . S
C623 C624 1.387 . S
C623 H626 0.950 . S
C624 C623 1.387 . S
C624 C627 1.387 . S
H625 C621 0.950 . S
H626 C623 0.950 . S
C627 C618 1.390 . S
C627 H620 0.950 . S
C627 C624 1.387 . S
C628 C629 1.387 . S
C628 H632 0.950 1_556 S
C628 C637 1.390 . S
C629 C628 1.387 . S
C629 C631 1.387 . S
H630 C637 0.950 . S
C631 C629 1.387 . S
C631 C633 1.390 . S
C631 H635 0.950 . S
H632 C628 0.950 1_554 S
C633 C631 1.390 . S
C633 C634 1.387 . S
C633 H636 0.950 . S
C634 C633 1.387 . S
C634 C637 1.387 . S
H635 C631 0.950 . S
H636 C633 0.950 . S
C637 C628 1.390 . S
C637 H630 0.950 . S
C637 C634 1.387 . S
C638 C639 1.387 . S
C638 H642 0.950 . S
C638 C647 1.390 . S
C639 C638 1.387 . S
C639 C641 1.387 . S
H640 C647 0.950 . S
C641 C639 1.387 . S
C641 C643 1.390 1_554 S
C641 H645 0.950 . S
H642 C638 0.950 . S
C643 C641 1.390 1_556 S
C643 C644 1.387 1_556 S
C643 H646 0.950 . S
C644 C643 1.387 1_554 S
C644 C647 1.387 . S
H645 C641 0.950 . S
H646 C643 0.950 . S
C647 C638 1.390 . S
C647 H640 0.950 . S
C647 C644 1.387 . S
C648 C649 1.387 . S
C648 H652 0.950 . S
C648 C657 1.390 1_544 S
C649 C648 1.387 . S
C649 C651 1.387 . S
H650 C657 0.950 . S
C651 C649 1.387 . S
C651 C653 1.390 1_544 S
C651 H655 0.950 . S
H652 C648 0.950 . S
C653 C651 1.390 1_566 S
C653 C654 1.387 . S
C653 H656 0.950 . S
C654 C653 1.387 . S
C654 C657 1.387 . S
H655 C651 0.950 . S
H656 C653 0.950 . S
C657 C648 1.390 1_566 S
C657 H650 0.950 . S
C657 C654 1.387 . S
C658 C659 1.387 . S
C658 H662 0.950 . S
C658 C667 1.390 . S
C659 C658 1.387 . S
C659 C661 1.387 . S
H660 C667 0.950 . S
C661 C659 1.387 . S
C661 C663 1.390 . S
C661 H665 0.950 . S
H662 C658 0.950 . S
C663 C661 1.390 . S
C663 C664 1.387 . S
C663 H666 0.950 . S
C664 C663 1.387 . S
C664 C667 1.387 . S
H665 C661 0.950 . S
H666 C663 0.950 . S
C667 C658 1.390 . S
C667 H660 0.950 . S
C667 C664 1.387 . S
C668 C669 1.387 . S
C668 H672 0.950 . S
C668 C677 1.390 1_455 S
C669 C668 1.387 . S
C669 C671 1.387 . S
H670 C677 0.950 . S
C671 C669 1.387 . S
C671 C673 1.390 1_455 S
C671 H675 0.950 . S
H672 C668 0.950 . S
C673 C671 1.390 1_655 S
C673 C674 1.387 . S
C673 H676 0.950 . S
C674 C673 1.387 . S
C674 C677 1.387 . S
H675 C671 0.950 . S
H676 C673 0.950 . S
C677 C668 1.390 1_655 S
C677 H670 0.950 . S
C677 C674 1.387 . S
C678 C679 1.387 . S
C678 H682 0.950 . S
C678 C687 1.390 1_565 S
C679 C678 1.387 . S
C679 C681 1.387 . S
H680 C687 0.950 . S
C681 C679 1.387 . S
C681 C683 1.390 1_565 S
C681 H685 0.950 . S
H682 C678 0.950 . S
C683 C681 1.390 1_545 S
C683 C684 1.387 . S
C683 H686 0.950 . S
C684 C683 1.387 . S
C684 C687 1.387 . S
H685 C681 0.950 . S
H686 C683 0.950 . S
C687 C678 1.390 1_545 S
C687 H680 0.950 . S
C687 C684 1.387 . S
C688 C689 1.387 . S
C688 H692 0.950 . S
C688 C697 1.390 . S
C689 C688 1.387 . S
C689 C691 1.387 . S
H690 C697 0.950 . S
C691 C689 1.387 . S
C691 C693 1.390 . S
C691 H695 0.950 . S
H692 C688 0.950 . S
C693 C691 1.390 . S
C693 C694 1.387 . S
C693 H696 0.950 . S
C694 C693 1.387 . S
C694 C697 1.387 . S
H695 C691 0.950 . S
H696 C693 0.950 . S
C697 C688 1.390 . S
C697 H690 0.950 . S
C697 C694 1.387 . S
C698 C699 1.396 . S
C698 H702 0.950 . S
C698 C707 1.382 1_455 S
C699 C698 1.396 . S
C699 C701 1.387 . S
H700 C707 0.950 . S
C701 C699 1.387 . S
C701 C703 1.382 1_455 S
C701 H705 0.950 . S
H702 C698 0.950 . S
C703 C701 1.382 1_655 S
C703 C704 1.396 . S
C703 H706 0.950 . S
C704 C703 1.396 . S
C704 C707 1.387 . S
H705 C701 0.950 . S
H706 C703 0.950 . S
C707 C698 1.382 1_655 S
C707 H700 0.950 . S
C707 C704 1.387 . S
C409 C292 1.521 . S
C414 C20 1.521 . S
C419 C326 1.521 . S
C424 C54 1.521 . S
C429 C360 1.521 . S
C434 C88 1.521 . S
C439 C394 1.521 . S
C444 C122 1.521 . S
C449 C156 1.521 . S
C454 C224 1.521 . S
C459 C258 1.521 . S
C464 C190 1.521 . S
C469 C9 1.421 . S
C474 C5 1.405 . S
C479 C39 1.404 . S
C484 C43 1.422 . S
C489 C73 1.404 . S
C494 C77 1.422 1_556 S
C499 C107 1.404 . S
C504 C111 1.422 . S
C509 C141 1.404 . S
C514 C145 1.422 . S
C519 C175 1.406 . S
C524 C179 1.422 . S
C529 C213 1.421 . S
C534 C209 1.405 . S
C539 C243 1.404 . S
C544 C247 1.423 . S
C549 C281 1.422 . S
C554 C277 1.406 . S
C559 C315 1.422 . S
C564 C311 1.403 . S
C569 C349 1.421 . S
C574 C345 1.405 . S
C579 C379 1.406 . S
C584 C383 1.422 1_554 S
C589 C33 1.649 . S
C594 C373 1.649 . S
C599 C67 1.647 . S
C604 C407 1.647 . S
C609 C101 1.647 . S
C614 C237 1.647 . S
C619 C271 1.649 . S
C624 C135 1.649 . S
C629 C305 1.647 1_556 S
C634 C169 1.647 . S
C639 C339 1.647 . S
C644 C203 1.647 1_554 S
C649 C2 1.630 . S
C654 C240 1.630 . S
C659 C274 1.628 . S
C664 C36 1.629 . S
C669 C308 1.630 . S
C674 C70 1.630 . S
C679 C104 1.628 . S
C684 C342 1.628 . S
C689 C376 1.630 . S
C694 C138 1.630 . S
C699 C172 1.629 . S
C704 C206 1.629 . S
