# Generated by pormake.
# Topology unh, (4)-cn, num edge types: 1
# Building blocks:
#     Node 0, Type 0, BuildingBlock: ESEHIV_clean_sbu_0, # of connection points: 4
#     Node 1, Type 0, BuildingBlock: ESEHIV_clean_sbu_0, # of connection points: 4
#     Node 2, Type 0, BuildingBlock: ESEHIV_clean_sbu_0, # of connection points: 4
#     Node 3, Type 0, BuildingBlock: ESEHIV_clean_sbu_0, # of connection points: 4
#     Node 4, Type 0, BuildingBlock: ESEHIV_clean_sbu_0, # of connection points: 4
#     Node 5, Type 0, BuildingBlock: ESEHIV_clean_sbu_0, # of connection points: 4
#     Edge 6, Type (0, 0), BuildingBlock: XIVTED_clean_linker_0, # of connection points: 2
#     Edge 7, Type (0, 0), BuildingBlock: XIVTED_clean_linker_0, # of connection points: 2
#     Edge 8, Type (0, 0), BuildingBlock: XIVTED_clean_linker_0, # of connection points: 2
#     Edge 9, Type (0, 0), BuildingBlock: XIVTED_clean_linker_0, # of connection points: 2
#     Edge 10, Type (0, 0), BuildingBlock: XIVTED_clean_linker_0, # of connection points: 2
#     Edge 11, Type (0, 0), BuildingBlock: XIVTED_clean_linker_0, # of connection points: 2
#     Edge 12, Type (0, 0), BuildingBlock: XIVTED_clean_linker_0, # of connection points: 2
#     Edge 13, Type (0, 0), BuildingBlock: XIVTED_clean_linker_0, # of connection points: 2
#     Edge 14, Type (0, 0), BuildingBlock: XIVTED_clean_linker_0, # of connection points: 2
#     Edge 15, Type (0, 0), BuildingBlock: XIVTED_clean_linker_0, # of connection points: 2
#     Edge 16, Type (0, 0), BuildingBlock: XIVTED_clean_linker_0, # of connection points: 2
#     Edge 17, Type (0, 0), BuildingBlock: XIVTED_clean_linker_0, # of connection points: 2
# Relax obj value: 0.010
# Max RMSD: 0.159
# Mean RMSD: 0.159
data_MOF--net-unh--node1-ESEHIV_clean_sbu_0--edge1-XIVTED_clean_linker_0
_symmetry_space_group_name_H-M    P1
_symmetry_Int_Tables_number       1
_symmetry_cell_setting            triclinic
loop_
_symmetry_equiv_pos_as_xyz
'x, y, z'
_cell_length_a     50.828897
_cell_length_b     50.897886
_cell_length_c     20.896368
_cell_angle_alpha  89.853847
_cell_angle_beta   90.001923
_cell_angle_gamma 119.925
loop_
_atom_site_label
_atom_site_type_symbol
_atom_site_fract_x
_atom_site_fract_y
_atom_site_fract_z
_atom_type_partial_charge
Cu0 Cu 0.16545 0.56675 0.10713 0.0
N1 N 0.14239 0.54371 0.03785 0.0
N2 N 0.10426 0.52091 0.96777 0.0
C3 C 0.11476 0.5387 1.02026 0.0
C4 C 0.12629 0.51456 0.95202 0.0
C5 C 0.14972 0.52864 0.9953 0.0
O6 O 0.13724 0.56968 0.16609 0.0
C7 C 0.20376 0.63131 0.09975 0.0
O8 O 0.18976 0.63201 0.15201 0.0
H9 H 0.10288 0.54832 0.0451 0.0
H10 H 0.1706 0.52787 0.99593 0.0
N11 N 0.18421 0.547 0.14504 0.0
N12 N 0.2187 0.53784 0.19049 0.0
C13 C 0.21239 0.55932 0.1699 0.0
C14 C 0.17229 0.51683 0.15032 0.0
C15 C 0.19347 0.5111 0.17819 0.0
C16 C 0.13502 0.56299 0.22536 0.0
O17 O 0.15434 0.55603 0.25108 0.0
H18 H 0.22814 0.58347 0.1714 0.0
H19 H 0.14981 0.50018 0.13436 0.0
O20 O 0.19648 0.60589 0.07433 0.0
H21 H 0.12546 0.50046 0.91255 0.0
H22 H 0.19047 0.48894 0.1888 0.0
Cu23 Cu 0.61307 0.15621 0.28992 0.0
N24 N 0.61312 0.13399 0.21884 0.0
N25 N 0.59823 0.09699 0.14626 0.0
C26 C 0.59065 0.10666 0.1997 0.0
C27 C 0.62661 0.11916 0.13145 0.0
C28 C 0.63572 0.14187 0.17631 0.0
O29 O 0.58678 0.1277 0.35457 0.0
C30 C 0.61723 0.20612 0.225 0.0
O31 O 0.64295 0.20831 0.2064 0.0
H32 H 0.56907 0.0943 0.22411 0.0
H33 H 0.65739 0.16262 0.17807 0.0
N34 N 0.65218 0.17713 0.32428 0.0
N35 N 0.69403 0.21173 0.37461 0.0
C36 C 0.66646 0.20482 0.35148 0.0
C37 C 0.67131 0.16622 0.33027 0.0
C38 C 0.69711 0.18747 0.36123 0.0
C39 C 0.55793 0.11342 0.35237 0.0
O40 O 0.5442 0.11928 0.30587 0.0
H41 H 0.6565 0.21922 0.35568 0.0
H42 H 0.6666 0.14415 0.3139 0.0
O43 O 0.60018 0.18476 0.26313 0.0
H44 H 0.64006 0.11886 0.09164 0.0
H45 H 0.71667 0.18523 0.3728 0.0
Cu46 Cu 0.47123 0.60417 0.44136 0.0
N47 N 0.49344 0.60682 0.36787 0.0
N48 N 0.51724 0.5961 0.29081 0.0
C49 C 0.50213 0.58722 0.3472 0.0
C50 C 0.51803 0.62233 0.27586 0.0
C51 C 0.50335 0.62882 0.32333 0.0
O52 O 0.47631 0.57897 0.50479 0.0
C53 C 0.41567 0.5718 0.37221 0.0
O54 O 0.42992 0.56025 0.34089 0.0
H55 H 0.4974 0.56688 0.37304 0.0
H56 H 0.49977 0.64805 0.32497 0.0
N57 N 0.4869 0.64288 0.47618 0.0
N58 N 0.48982 0.68354 0.52409 0.0
C59 C 0.47124 0.65509 0.50246 0.0
C60 C 0.51632 0.66421 0.48116 0.0
C61 C 0.51821 0.6893 0.51065 0.0
C62 C 0.46335 0.55018 0.50284 0.0
O63 O 0.44401 0.53554 0.45668 0.0
H64 H 0.44675 0.64309 0.50641 0.0
H65 H 0.53506 0.66166 0.46443 0.0
O66 O 0.42902 0.58988 0.41843 0.0
H67 H 0.5278 0.63557 0.23287 0.0
H68 H 0.53893 0.71027 0.52055 0.0
Cu69 Cu 0.88487 0.46635 0.60706 0.0
N70 N 0.90888 0.49201 0.54133 0.0
N71 N 0.9476 0.51564 0.47261 0.0
C72 C 0.9358 0.49578 0.52181 0.0
C73 C 0.92714 0.52465 0.46089 0.0
C74 C 0.90331 0.51006 0.50338 0.0
O75 O 0.91276 0.46284 0.66586 0.0
C76 C 0.84785 0.40201 0.59336 0.0
O77 O 0.86041 0.40041 0.64707 0.0
H78 H 0.94619 0.48369 0.54274 0.0
H79 H 0.88333 0.51239 0.50641 0.0
N80 N 0.86356 0.48283 0.64752 0.0
N81 N 0.82617 0.48633 0.69618 0.0
C82 C 0.8348 0.46761 0.66943 0.0
C83 C 0.87357 0.51216 0.66065 0.0
C84 C 0.85061 0.51441 0.69069 0.0
C85 C 0.91439 0.46827 0.72563 0.0
O86 O 0.89439 0.47396 0.75233 0.0
H87 H 0.82068 0.44323 0.66631 0.0
H88 H 0.89597 0.5306 0.64894 0.0
O89 O 0.85564 0.42784 0.56917 0.0
H90 H 0.92929 0.54083 0.42465 0.0
H91 H 0.85175 0.53521 0.70621 0.0
Cu92 Cu 0.43618 0.87678 0.78387 0.0
N93 N 0.43225 0.8969 0.71282 0.0
N94 N 0.44356 0.93232 0.63737 0.0
C95 C 0.4537 0.92367 0.68867 0.0
C96 C 0.41452 0.90994 0.62929 0.0
C97 C 0.40764 0.88822 0.67587 0.0
O98 O 0.46721 0.90776 0.83829 0.0
C99 C 0.42958 0.82568 0.71936 0.0
O100 O 0.40319 0.82297 0.70484 0.0
H101 H 0.47614 0.93667 0.70916 0.0
H102 H 0.38618 0.86755 0.68244 0.0
N103 N 0.39912 0.8569 0.82762 0.0
N104 N 0.35887 0.82237 0.88285 0.0
C105 C 0.38495 0.82869 0.85271 0.0
C106 C 0.38145 0.86878 0.84217 0.0
C107 C 0.35665 0.8476 0.87622 0.0
C108 C 0.46586 0.90763 0.89914 0.0
O109 O 0.44354 0.88436 0.92861 0.0
H110 H 0.39391 0.8134 0.84995 0.0
H111 H 0.3864 0.89137 0.8291 0.0
O112 O 0.44777 0.84766 0.75465 0.0
H113 H 0.39934 0.90902 0.59198 0.0
H114 H 0.33827 0.85048 0.89408 0.0
Cu115 Cu 0.57455 0.42798 0.94433 0.0
N116 N 0.55016 0.42453 0.87404 0.0
N117 N 0.52615 0.4355 0.79764 0.0
C118 C 0.54477 0.44587 0.84909 0.0
C119 C 0.51971 0.40652 0.79027 0.0
C120 C 0.53448 0.39987 0.8373 0.0
O121 O 0.57115 0.45397 1.00784 0.0
C122 C 0.62052 0.42623 0.87593 0.0
O123 O 0.59721 0.40029 0.8582 0.0
H124 H 0.55413 0.46841 0.86869 0.0
H125 H 0.534 0.37856 0.84402 0.0
N126 N 0.56002 0.38981 0.98201 0.0
N127 N 0.55823 0.34989 0.03163 0.0
C128 C 0.57628 0.37793 1.00699 0.0
C129 C 0.53076 0.36872 0.99124 0.0
C130 C 0.52957 0.34409 1.02168 0.0
C131 C 0.58362 0.48266 1.00343 0.0
O132 O 0.60151 0.49665 0.95459 0.0
H133 H 0.60083 0.38985 1.0078 0.0
H134 H 0.51164 0.37112 0.97676 0.0
O135 O 0.61606 0.44286 0.91483 0.0
H136 H 0.50578 0.39125 0.75287 0.0
H137 H 0.5091 0.32338 0.03463 0.0
H138 H 0.05249 0.51664 1.01634 0.0
H139 H 0.96285 0.46324 0.68353 0.0
H140 H 0.09052 0.5025 0.84392 0.0
H141 H 0.92642 0.48185 0.85303 0.0
H142 H 1.00832 0.47391 0.74379 0.0
H143 H 1.00511 0.50115 0.95922 0.0
C144 C 0.05102 0.51041 0.96647 0.0
C145 C 0.07579 0.51108 0.93502 0.0
C146 C 0.99031 0.47549 0.76794 0.0
C147 C 1.0212 0.49289 0.86929 0.0
C148 C 0.96425 0.46928 0.73358 0.0
C149 C 0.94075 0.47175 0.76311 0.0
C150 C 0.993 0.48428 0.8324 0.0
C151 C 0.94394 0.47973 0.82813 0.0
C152 C 0.0238 0.50135 0.93393 0.0
C153 C 0.0721 0.50212 0.87052 0.0
N154 N 0.96961 0.48584 0.86044 0.0
N155 N 0.04543 0.49352 0.83985 0.0
H156 H 0.51425 0.96026 0.85379 0.0
H157 H 0.55217 0.04402 0.19351 0.0
H158 H 0.46689 0.91707 0.02852 0.0
H159 H 0.60226 0.08569 1.0205 0.0
H160 H 0.52109 0.9972 0.13425 0.0
H161 H 0.54749 1.00597 0.91454 0.0
C162 C 0.51094 0.96028 0.905 0.0
C163 C 0.48764 0.93473 0.936 0.0
C164 C 0.53894 0.01656 0.10927 0.0
C165 C 0.52558 0.98722 1.00592 0.0
C166 C 0.5566 0.04343 0.14305 0.0
C167 C 0.5799 0.069 0.11206 0.0
C168 C 0.54446 0.01517 0.04382 0.0
C169 C 0.58482 0.06657 0.04668 0.0
C170 C 0.52993 0.98645 0.93968 0.0
C171 C 0.4845 0.93618 1.0025 0.0
N172 N 0.56721 0.04023 1.01478 0.0
N173 N 0.50313 0.962 0.03512 0.0
H174 H 0.56198 0.62036 0.20089 0.0
H175 H 0.5457 0.46034 0.10734 0.0
H176 H 0.49957 0.53594 0.29353 0.0
H177 H 0.60396 0.54381 1.00679 0.0
H178 H 0.5311 0.48821 0.18051 0.0
H179 H 0.5798 0.59326 0.13375 0.0
C180 C 0.55191 0.59613 0.20715 0.0
C181 C 0.52899 0.58048 0.25291 0.0
C182 C 0.54717 0.50048 0.14262 0.0
C183 C 0.54968 0.54921 0.17619 0.0
C184 C 0.55559 0.48457 0.10079 0.0
C185 C 0.57605 0.4997 0.05053 0.0
C186 C 0.55925 0.53182 0.13436 0.0
C187 C 0.58808 0.53115 0.04467 0.0
C188 C 0.56226 0.58066 0.16889 0.0
C189 C 0.51738 0.54909 0.25943 0.0
N190 N 0.57943 0.54611 0.08588 0.0
N191 N 0.52775 0.53452 0.22138 0.0
H192 H 0.9973 0.51438 0.51712 0.0
H193 H 0.08827 0.57157 0.18581 0.0
H194 H 0.96271 0.53795 0.35123 0.0
H195 H 0.12198 0.54689 0.35158 0.0
H196 H 0.04342 0.56215 0.24727 0.0
H197 H 0.04401 0.52832 0.45862 0.0
C198 C 0.9994 0.52237 0.46835 0.0
C199 C 0.97578 0.52477 0.43912 0.0
C200 C 0.06071 0.55896 0.27032 0.0
C201 C 0.02964 0.54117 0.37175 0.0
C202 C 0.08641 0.56443 0.23528 0.0
C203 C 0.10897 0.55994 0.26343 0.0
C204 C 0.05745 0.54887 0.33404 0.0
C205 C 0.10521 0.55061 0.32774 0.0
C206 C 0.02624 0.53054 0.43502 0.0
C207 C 0.98027 0.53591 0.37605 0.0
N208 N 0.07992 0.54526 0.36067 0.0
N209 N 1.00656 0.54355 0.34447 0.0
H210 H 0.496 0.07709 0.36141 0.0
H211 H 0.50499 0.9687 0.62837 0.0
H212 H 0.57961 0.09236 0.44784 0.0
H213 H 0.42052 0.95859 0.55814 0.0
H214 H 0.53251 1.01409 0.5628 0.0
H215 H 0.4678 0.03379 0.43317 0.0
C216 C 0.50844 0.0715 0.39571 0.0
C217 C 0.54027 0.08842 0.39839 0.0
C218 C 0.50794 1.00198 0.56185 0.0
C219 C 0.50809 0.03866 0.48045 0.0
C220 C 0.49211 0.97602 0.59966 0.0
C221 C 0.46021 0.95951 0.59911 0.0
C222 C 0.49188 1.01163 0.52275 0.0
C223 C 0.44502 0.97014 0.55974 0.0
C224 C 0.49231 0.04672 0.43665 0.0
C225 C 0.55511 0.08002 0.44389 0.0
N226 N 0.46097 0.99542 0.52314 0.0
N227 N 0.53893 0.0557 0.48279 0.0
H228 H 0.47687 0.41177 0.7189 0.0
H229 H 0.5061 0.57371 0.59813 0.0
H230 H 0.55124 0.49683 0.78511 0.0
H231 H 0.43922 0.48869 0.51537 0.0
H232 H 0.52057 0.54594 0.67249 0.0
H233 H 0.46072 0.43956 0.64941 0.0
C234 C 0.48996 0.43627 0.71883 0.0
C235 C 0.5157 0.45184 0.75797 0.0
C236 C 0.50268 0.53335 0.63818 0.0
C237 C 0.49688 0.48398 0.67851 0.0
C238 C 0.49433 0.54919 0.59572 0.0
C239 C 0.47141 0.53354 0.55018 0.0
C240 C 0.48797 0.50157 0.6354 0.0
C241 C 0.45704 0.50175 0.54947 0.0
C242 C 0.48056 0.45216 0.67919 0.0
C243 C 0.53118 0.48372 0.7564 0.0
N244 N 0.46557 0.48685 0.59131 0.0
N245 N 0.52158 0.49868 0.71728 0.0
H246 H 0.24202 0.5003 0.18136 0.0
H247 H 0.38468 0.60097 0.4071 0.0
H248 H 0.25935 0.58528 0.26249 0.0
H249 H 0.37772 0.52904 0.28656 0.0
H250 H 0.33616 0.59255 0.36437 0.0
H251 H 0.28909 0.50761 0.22892 0.0
C252 C 0.25564 0.52043 0.20952 0.0
C253 C 0.24666 0.54219 0.21799 0.0
C254 C 0.34524 0.57857 0.34746 0.0
C255 C 0.3008 0.55078 0.27265 0.0
C256 C 0.37286 0.58324 0.37208 0.0
C257 C 0.38536 0.56571 0.35033 0.0
C258 C 0.32983 0.55601 0.30122 0.0
C259 C 0.36905 0.54317 0.30462 0.0
C260 C 0.28264 0.52469 0.23638 0.0
C261 C 0.26553 0.56808 0.25424 0.0
N262 N 0.34217 0.53896 0.2817 0.0
N263 N 0.29164 0.5716 0.28046 0.0
H264 H 0.73468 0.21692 0.46498 0.0
H265 H 0.81182 0.39719 0.49122 0.0
H266 H 0.70258 0.26861 0.36056 0.0
H267 H 0.83065 0.34295 0.62223 0.0
H268 H 0.77361 0.35081 0.43886 0.0
H269 H 0.77185 0.26322 0.51894 0.0
C270 C 0.73553 0.23804 0.45318 0.0
C271 C 0.71553 0.23887 0.40791 0.0
C272 C 0.78606 0.34905 0.47913 0.0
C273 C 0.75808 0.2921 0.46986 0.0
C274 C 0.80797 0.37554 0.50899 0.0
C275 C 0.82456 0.37402 0.56124 0.0
C276 C 0.78081 0.32075 0.50122 0.0
C277 C 0.81844 0.34527 0.5822 0.0
C278 C 0.75665 0.26446 0.48435 0.0
C279 C 0.71737 0.26687 0.39542 0.0
N280 N 0.79718 0.31982 0.55199 0.0
N281 N 0.73838 0.29239 0.42593 0.0
H282 H 0.39502 0.77599 0.64518 0.0
H283 H 0.52417 0.73086 0.60346 0.0
H284 H 0.48332 0.82538 0.73347 0.0
H285 H 0.4358 0.68241 0.51523 0.0
H286 H 0.50958 0.76514 0.65291 0.0
H287 H 0.40937 0.74088 0.59951 0.0
C288 C 0.41745 0.77946 0.65514 0.0
C289 C 0.43802 0.80379 0.6932 0.0
C290 C 0.49336 0.74697 0.62281 0.0
C291 C 0.45466 0.76349 0.64065 0.0
C292 C 0.50174 0.72743 0.59417 0.0
C293 C 0.48125 0.70363 0.55475 0.0
C294 C 0.46426 0.74281 0.61203 0.0
C295 C 0.45229 0.70014 0.54562 0.0
C296 C 0.42563 0.75934 0.62895 0.0
C297 C 0.46672 0.80699 0.70441 0.0
N298 N 0.44472 0.71952 0.57385 0.0
N299 N 0.47422 0.78713 0.67814 0.0
H300 H 0.6361 0.39476 0.79348 0.0
H301 H 0.81323 0.51837 0.78273 0.0
H302 H 0.67496 0.47836 0.90012 0.0
H303 H 0.77186 0.43557 0.67313 0.0
H304 H 0.76345 0.50434 0.8274 0.0
H305 H 0.68612 0.40942 0.75089 0.0
C306 C 0.65516 0.41627 0.80804 0.0
C307 C 0.65121 0.43537 0.85051 0.0
C308 C 0.76531 0.48925 0.79361 0.0
C309 C 0.70897 0.45238 0.80152 0.0
C310 C 0.79376 0.49731 0.76774 0.0
C311 C 0.79695 0.47818 0.72382 0.0
C312 C 0.73974 0.46183 0.77555 0.0
C313 C 0.77078 0.45093 0.70724 0.0
C314 C 0.68382 0.42463 0.78358 0.0
C315 C 0.67691 0.46292 0.86751 0.0
N316 N 0.7434 0.44365 0.733 0.0
N317 N 0.7047 0.47062 0.84294 0.0
H318 H 0.34822 0.76531 0.8594 0.0
H319 H 0.22186 0.68985 0.13471 0.0
H320 H 0.32112 0.81602 0.98115 0.0
H321 H 0.24006 0.63794 0.99666 0.0
H322 H 0.26056 0.7365 0.08351 0.0
H323 H 0.31135 0.71865 0.91387 0.0
C324 C 0.33469 0.76669 0.89783 0.0
C325 C 0.33775 0.79469 0.91546 0.0
C326 C 0.25611 0.7149 0.06443 0.0
C327 C 0.2953 0.74127 0.97791 0.0
C328 C 0.23401 0.68822 0.09373 0.0
C329 C 0.22757 0.65986 0.06992 0.0
C330 C 0.27206 0.71332 1.011 0.0
C331 C 0.24414 0.65925 1.01661 0.0
C332 C 0.31349 0.74 0.92868 0.0
C333 C 0.31928 0.79497 0.96522 0.0
N334 N 0.26558 0.68554 0.98902 0.0
N335 N 0.29893 0.76874 0.99465 0.0
H336 H 0.61168 0.35041 1.01614 0.0
H337 H 0.56447 0.20747 0.24731 0.0
H338 H 0.52596 0.30392 0.11606 0.0
H339 H 0.64966 0.25447 0.14555 0.0
H340 H 0.55025 0.24319 0.20232 0.0
H341 H 0.62641 0.31628 0.06598 0.0
C342 C 0.596 0.3332 0.04886 0.0
C343 C 0.56747 0.33013 0.06165 0.0
C344 C 0.57208 0.24569 0.18998 0.0
C345 C 0.58413 0.29054 0.11866 0.0
C346 C 0.58022 0.22532 0.21572 0.0
C347 C 0.60828 0.22788 0.20012 0.0
C348 C 0.59214 0.26882 0.14836 0.0
C349 C 0.62776 0.2515 0.15888 0.0
C350 C 0.60437 0.31355 0.07711 0.0
C351 C 0.54799 0.30697 0.10392 0.0
N352 N 0.61931 0.27095 0.13445 0.0
N353 N 0.55666 0.2881 0.13081 0.0
loop_
_geom_bond_atom_site_label_1
_geom_bond_atom_site_label_2
_geom_bond_distance
_geom_bond_site_symmetry_2
_ccdc_geom_bond_type
Cu0 N1 1.999 . S
Cu0 O6 1.974 . S
Cu0 N11 1.985 . S
Cu0 O20 1.959 . S
N1 Cu0 1.999 . S
N1 C3 1.263 . S
N1 C5 1.389 1_554 S
N2 C3 1.358 1_556 S
N2 C4 1.400 . S
C3 N1 1.263 . S
C3 N2 1.358 1_554 S
C3 H9 0.930 . S
C4 N2 1.400 . S
C4 C5 1.351 . S
C4 H21 0.930 . S
C5 N1 1.389 1_556 S
C5 C4 1.351 . S
C5 H10 0.930 . S
O6 Cu0 1.974 . S
O6 C16 1.282 . S
C7 O8 1.261 . S
C7 O20 1.251 . S
O8 C7 1.261 . S
H9 C3 0.930 . S
H10 C5 0.930 . S
N11 Cu0 1.985 . S
N11 C13 1.335 . S
N11 C14 1.390 . S
N12 C13 1.345 . S
N12 C15 1.336 . S
C13 N11 1.335 . S
C13 N12 1.345 . S
C13 H18 0.930 . S
C14 N11 1.390 . S
C14 C15 1.346 . S
C14 H19 0.930 . S
C15 N12 1.336 . S
C15 C14 1.346 . S
C15 H22 0.929 . S
C16 O6 1.282 . S
C16 O17 1.216 . S
O17 C16 1.216 . S
H18 C13 0.930 . S
H19 C14 0.930 . S
O20 Cu0 1.959 . S
O20 C7 1.251 . S
H21 C4 0.930 . S
H22 C15 0.929 . S
Cu23 N24 1.999 . S
Cu23 O29 1.974 . S
Cu23 N34 1.985 . S
Cu23 O43 1.959 . S
N24 Cu23 1.999 . S
N24 C26 1.263 . S
N24 C28 1.389 . S
N25 C26 1.358 . S
N25 C27 1.400 . S
C26 N24 1.263 . S
C26 N25 1.358 . S
C26 H32 0.930 . S
C27 N25 1.400 . S
C27 C28 1.351 . S
C27 H44 0.930 . S
C28 N24 1.389 . S
C28 C27 1.351 . S
C28 H33 0.930 . S
O29 Cu23 1.974 . S
O29 C39 1.282 . S
C30 O31 1.261 . S
C30 O43 1.251 . S
O31 C30 1.261 . S
H32 C26 0.930 . S
H33 C28 0.930 . S
N34 Cu23 1.985 . S
N34 C36 1.335 . S
N34 C37 1.390 . S
N35 C36 1.345 . S
N35 C38 1.336 . S
C36 N34 1.335 . S
C36 N35 1.345 . S
C36 H41 0.930 . S
C37 N34 1.390 . S
C37 C38 1.346 . S
C37 H42 0.930 . S
C38 N35 1.336 . S
C38 C37 1.346 . S
C38 H45 0.929 . S
C39 O29 1.282 . S
C39 O40 1.216 . S
O40 C39 1.216 . S
H41 C36 0.930 . S
H42 C37 0.930 . S
O43 Cu23 1.959 . S
O43 C30 1.251 . S
H44 C27 0.930 . S
H45 C38 0.929 . S
Cu46 N47 1.999 . S
Cu46 O52 1.974 . S
Cu46 N57 1.985 . S
Cu46 O66 1.959 . S
N47 Cu46 1.999 . S
N47 C49 1.263 . S
N47 C51 1.389 . S
N48 C49 1.358 . S
N48 C50 1.400 . S
C49 N47 1.263 . S
C49 N48 1.358 . S
C49 H55 0.930 . S
C50 N48 1.400 . S
C50 C51 1.351 . S
C50 H67 0.930 . S
C51 N47 1.389 . S
C51 C50 1.351 . S
C51 H56 0.930 . S
O52 Cu46 1.974 . S
O52 C62 1.282 . S
C53 O54 1.261 . S
C53 O66 1.251 . S
O54 C53 1.261 . S
H55 C49 0.930 . S
H56 C51 0.930 . S
N57 Cu46 1.985 . S
N57 C59 1.335 . S
N57 C60 1.390 . S
N58 C59 1.345 . S
N58 C61 1.336 . S
C59 N57 1.335 . S
C59 N58 1.345 . S
C59 H64 0.930 . S
C60 N57 1.390 . S
C60 C61 1.346 . S
C60 H65 0.930 . S
C61 N58 1.336 . S
C61 C60 1.346 . S
C61 H68 0.929 . S
C62 O52 1.282 . S
C62 O63 1.216 . S
O63 C62 1.216 . S
H64 C59 0.930 . S
H65 C60 0.930 . S
O66 Cu46 1.959 . S
O66 C53 1.251 . S
H67 C50 0.930 . S
H68 C61 0.929 . S
Cu69 N70 1.999 . S
Cu69 O75 1.974 . S
Cu69 N80 1.985 . S
Cu69 O89 1.959 . S
N70 Cu69 1.999 . S
N70 C72 1.263 . S
N70 C74 1.389 . S
N71 C72 1.358 . S
N71 C73 1.400 . S
C72 N70 1.263 . S
C72 N71 1.358 . S
C72 H78 0.930 . S
C73 N71 1.400 . S
C73 C74 1.351 . S
C73 H90 0.930 . S
C74 N70 1.389 . S
C74 C73 1.351 . S
C74 H79 0.930 . S
O75 Cu69 1.974 . S
O75 C85 1.282 . S
C76 O77 1.261 . S
C76 O89 1.251 . S
O77 C76 1.261 . S
H78 C72 0.930 . S
H79 C74 0.930 . S
N80 Cu69 1.985 . S
N80 C82 1.335 . S
N80 C83 1.390 . S
N81 C82 1.345 . S
N81 C84 1.336 . S
C82 N80 1.335 . S
C82 N81 1.345 . S
C82 H87 0.930 . S
C83 N80 1.390 . S
C83 C84 1.346 . S
C83 H88 0.930 . S
C84 N81 1.336 . S
C84 C83 1.346 . S
C84 H91 0.929 . S
C85 O75 1.282 . S
C85 O86 1.216 . S
O86 C85 1.216 . S
H87 C82 0.930 . S
H88 C83 0.930 . S
O89 Cu69 1.959 . S
O89 C76 1.251 . S
H90 C73 0.930 . S
H91 C84 0.929 . S
Cu92 N93 1.999 . S
Cu92 O98 1.974 . S
Cu92 N103 1.985 . S
Cu92 O112 1.959 . S
N93 Cu92 1.999 . S
N93 C95 1.263 . S
N93 C97 1.389 . S
N94 C95 1.358 . S
N94 C96 1.400 . S
C95 N93 1.263 . S
C95 N94 1.358 . S
C95 H101 0.930 . S
C96 N94 1.400 . S
C96 C97 1.351 . S
C96 H113 0.930 . S
C97 N93 1.389 . S
C97 C96 1.351 . S
C97 H102 0.930 . S
O98 Cu92 1.974 . S
O98 C108 1.282 . S
C99 O100 1.261 . S
C99 O112 1.251 . S
O100 C99 1.261 . S
H101 C95 0.930 . S
H102 C97 0.930 . S
N103 Cu92 1.985 . S
N103 C105 1.335 . S
N103 C106 1.390 . S
N104 C105 1.345 . S
N104 C107 1.336 . S
C105 N103 1.335 . S
C105 N104 1.345 . S
C105 H110 0.930 . S
C106 N103 1.390 . S
C106 C107 1.346 . S
C106 H111 0.930 . S
C107 N104 1.336 . S
C107 C106 1.346 . S
C107 H114 0.929 . S
C108 O98 1.282 . S
C108 O109 1.216 . S
O109 C108 1.216 . S
H110 C105 0.930 . S
H111 C106 0.930 . S
O112 Cu92 1.959 . S
O112 C99 1.251 . S
H113 C96 0.930 . S
H114 C107 0.929 . S
Cu115 N116 1.999 . S
Cu115 O121 1.974 . S
Cu115 N126 1.985 . S
Cu115 O135 1.959 . S
N116 Cu115 1.999 . S
N116 C118 1.263 . S
N116 C120 1.389 . S
N117 C118 1.358 . S
N117 C119 1.400 . S
C118 N116 1.263 . S
C118 N117 1.358 . S
C118 H124 0.930 . S
C119 N117 1.400 . S
C119 C120 1.351 . S
C119 H136 0.930 . S
C120 N116 1.389 . S
C120 C119 1.351 . S
C120 H125 0.930 . S
O121 Cu115 1.974 . S
O121 C131 1.282 . S
C122 O123 1.261 . S
C122 O135 1.251 . S
O123 C122 1.261 . S
H124 C118 0.930 . S
H125 C120 0.930 . S
N126 Cu115 1.985 . S
N126 C128 1.335 . S
N126 C129 1.390 1_556 S
N127 C128 1.345 1_554 S
N127 C130 1.336 . S
C128 N126 1.335 . S
C128 N127 1.345 1_556 S
C128 H133 0.930 . S
C129 N126 1.390 1_554 S
C129 C130 1.346 . S
C129 H134 0.930 . S
C130 N127 1.336 . S
C130 C129 1.346 . S
C130 H137 0.929 . S
C131 O121 1.282 . S
C131 O132 1.216 1_556 S
O132 C131 1.216 1_554 S
H133 C128 0.930 . S
H134 C129 0.930 . S
O135 Cu115 1.959 . S
O135 C122 1.251 . S
H136 C119 0.930 . S
H137 C130 0.929 . S
H138 C144 0.930 . S
H139 C148 0.930 . S
H140 C153 0.929 . S
H141 C151 0.929 . S
H142 C146 0.929 1_455 S
H143 C152 0.929 . S
C144 H138 0.930 . S
C144 C145 1.367 . S
C144 C152 1.378 1_455 S
C145 C144 1.367 . S
C145 C153 1.433 . S
C146 H142 0.929 1_655 S
C146 C148 1.378 . S
C146 C150 1.350 . S
C147 C150 1.460 . S
C147 C152 1.350 . S
C147 N155 1.430 1_655 S
C148 H139 0.930 . S
C148 C146 1.378 . S
C148 C149 1.367 . S
C149 C148 1.367 . S
C149 C151 1.433 . S
C150 C146 1.350 . S
C150 C147 1.460 . S
C150 N154 1.427 . S
C151 H141 0.929 . S
C151 C149 1.433 . S
C151 N154 1.384 . S
C152 H143 0.929 . S
C152 C144 1.378 1_655 S
C152 C147 1.350 . S
C153 H140 0.929 . S
C153 C145 1.433 . S
C153 N155 1.384 . S
N154 C150 1.427 . S
N154 C151 1.384 . S
N155 C147 1.430 1_455 S
N155 C153 1.384 . S
H156 C162 0.930 . S
H157 C166 0.930 . S
H158 C171 0.929 . S
H159 C169 0.929 . S
H160 C164 0.929 . S
H161 C170 0.929 1_545 S
C162 H156 0.930 . S
C162 C163 1.367 . S
C162 C170 1.378 . S
C163 C162 1.367 . S
C163 C171 1.433 . S
C164 H160 0.929 . S
C164 C166 1.378 1_565 S
C164 C168 1.349 . S
C165 C168 1.460 1_556 S
C165 C170 1.350 . S
C165 N173 1.427 . S
C166 H157 0.930 . S
C166 C164 1.378 1_545 S
C166 C167 1.367 . S
C167 C166 1.367 . S
C167 C169 1.433 . S
C168 C164 1.349 . S
C168 C165 1.460 1_554 S
C168 N172 1.431 1_564 S
C169 H159 0.929 . S
C169 C167 1.433 . S
C169 N172 1.384 1_554 S
C170 H161 0.929 1_565 S
C170 C162 1.378 . S
C170 C165 1.350 . S
C171 H158 0.929 . S
C171 C163 1.433 . S
C171 N173 1.384 . S
N172 C168 1.431 1_546 S
N172 C169 1.384 1_556 S
N173 C165 1.427 . S
N173 C171 1.384 . S
H174 C180 0.930 . S
H175 C184 0.930 . S
H176 C189 0.929 . S
H177 C187 0.929 . S
H178 C182 0.929 . S
H179 C188 0.929 . S
C180 H174 0.930 . S
C180 C181 1.367 . S
C180 C188 1.378 . S
C181 C180 1.367 . S
C181 C189 1.433 . S
C182 H178 0.929 . S
C182 C184 1.378 . S
C182 C186 1.350 . S
C183 C186 1.463 . S
C183 C188 1.350 . S
C183 N191 1.427 . S
C184 H175 0.930 . S
C184 C182 1.378 . S
C184 C185 1.367 . S
C185 C184 1.367 . S
C185 C187 1.433 . S
C186 C182 1.350 . S
C186 C183 1.463 . S
C186 N190 1.427 . S
C187 H177 0.929 . S
C187 C185 1.433 . S
C187 N190 1.384 . S
C188 H179 0.929 . S
C188 C180 1.378 . S
C188 C183 1.350 . S
C189 H176 0.929 . S
C189 C181 1.433 . S
C189 N191 1.384 . S
N190 C186 1.427 . S
N190 C187 1.384 . S
N191 C183 1.427 . S
N191 C189 1.384 . S
H192 C198 0.930 . S
H193 C202 0.930 . S
H194 C207 0.929 . S
H195 C205 0.929 . S
H196 C200 0.929 1_655 S
H197 C206 0.929 . S
C198 H192 0.930 . S
C198 C199 1.367 . S
C198 C206 1.378 1_655 S
C199 C198 1.367 . S
C199 C207 1.433 . S
C200 H196 0.929 1_455 S
C200 C202 1.378 . S
C200 C204 1.350 . S
C201 C204 1.460 . S
C201 C206 1.350 . S
C201 N209 1.430 1_455 S
C202 H193 0.930 . S
C202 C200 1.378 . S
C202 C203 1.367 . S
C203 C202 1.367 . S
C203 C205 1.433 . S
C204 C200 1.350 . S
C204 C201 1.460 . S
C204 N208 1.427 . S
C205 H195 0.929 . S
C205 C203 1.433 . S
C205 N208 1.384 . S
C206 H197 0.929 . S
C206 C198 1.378 1_455 S
C206 C201 1.350 . S
C207 H194 0.929 . S
C207 C199 1.433 . S
C207 N209 1.384 . S
N208 C204 1.427 . S
N208 C205 1.384 . S
N209 C201 1.430 1_655 S
N209 C207 1.384 . S
H210 C216 0.930 . S
H211 C220 0.930 . S
H212 C225 0.929 . S
H213 C223 0.929 . S
H214 C218 0.929 1_545 S
H215 C224 0.929 . S
C216 H210 0.930 . S
C216 C217 1.367 . S
C216 C224 1.378 . S
C217 C216 1.367 . S
C217 C225 1.433 . S
C218 H214 0.929 1_565 S
C218 C220 1.378 . S
C218 C222 1.357 . S
C219 C222 1.454 1_545 S
C219 C224 1.350 . S
C219 N227 1.427 . S
C220 H211 0.930 . S
C220 C218 1.378 . S
C220 C221 1.367 . S
C221 C220 1.367 . S
C221 C223 1.433 . S
C222 C218 1.357 . S
C222 C219 1.454 1_565 S
C222 N226 1.428 . S
C223 H213 0.929 . S
C223 C221 1.433 . S
C223 N226 1.384 . S
C224 H215 0.929 . S
C224 C216 1.378 . S
C224 C219 1.350 . S
C225 H212 0.929 . S
C225 C217 1.433 . S
C225 N227 1.384 . S
N226 C222 1.428 . S
N226 C223 1.384 . S
N227 C219 1.427 . S
N227 C225 1.384 . S
H228 C234 0.930 . S
H229 C238 0.930 . S
H230 C243 0.929 . S
H231 C241 0.929 . S
H232 C236 0.929 . S
H233 C242 0.929 . S
C234 H228 0.930 . S
C234 C235 1.367 . S
C234 C242 1.378 . S
C235 C234 1.367 . S
C235 C243 1.433 . S
C236 H232 0.929 . S
C236 C238 1.378 . S
C236 C240 1.350 . S
C237 C240 1.463 . S
C237 C242 1.350 . S
C237 N245 1.427 . S
C238 H229 0.930 . S
C238 C236 1.378 . S
C238 C239 1.367 . S
C239 C238 1.367 . S
C239 C241 1.433 . S
C240 C236 1.350 . S
C240 C237 1.463 . S
C240 N244 1.427 . S
C241 H231 0.929 . S
C241 C239 1.433 . S
C241 N244 1.384 . S
C242 H233 0.929 . S
C242 C234 1.378 . S
C242 C237 1.350 . S
C243 H230 0.929 . S
C243 C235 1.433 . S
C243 N245 1.384 . S
N244 C240 1.427 . S
N244 C241 1.384 . S
N245 C237 1.427 . S
N245 C243 1.384 . S
H246 C252 0.930 . S
H247 C256 0.930 . S
H248 C261 0.929 . S
H249 C259 0.929 . S
H250 C254 0.929 . S
H251 C260 0.929 . S
C252 H246 0.930 . S
C252 C253 1.367 . S
C252 C260 1.378 . S
C253 C252 1.367 . S
C253 C261 1.433 . S
C254 H250 0.929 . S
C254 C256 1.378 . S
C254 C258 1.350 . S
C255 C258 1.463 . S
C255 C260 1.350 . S
C255 N263 1.427 . S
C256 H247 0.930 . S
C256 C254 1.378 . S
C256 C257 1.367 . S
C257 C256 1.367 . S
C257 C259 1.433 . S
C258 C254 1.350 . S
C258 C255 1.463 . S
C258 N262 1.427 . S
C259 H249 0.929 . S
C259 C257 1.433 . S
C259 N262 1.384 . S
C260 H251 0.929 . S
C260 C252 1.378 . S
C260 C255 1.350 . S
C261 H248 0.929 . S
C261 C253 1.433 . S
C261 N263 1.384 . S
N262 C258 1.427 . S
N262 C259 1.384 . S
N263 C255 1.427 . S
N263 C261 1.384 . S
H264 C270 0.930 . S
H265 C274 0.930 . S
H266 C279 0.929 . S
H267 C277 0.929 . S
H268 C272 0.929 . S
H269 C278 0.929 . S
C270 H264 0.930 . S
C270 C271 1.367 . S
C270 C278 1.378 . S
C271 C270 1.367 . S
C271 C279 1.433 . S
C272 H268 0.929 . S
C272 C274 1.378 . S
C272 C276 1.350 . S
C273 C276 1.463 . S
C273 C278 1.350 . S
C273 N281 1.427 . S
C274 H265 0.930 . S
C274 C272 1.378 . S
C274 C275 1.367 . S
C275 C274 1.367 . S
C275 C277 1.433 . S
C276 C272 1.350 . S
C276 C273 1.463 . S
C276 N280 1.427 . S
C277 H267 0.929 . S
C277 C275 1.433 . S
C277 N280 1.384 . S
C278 H269 0.929 . S
C278 C270 1.378 . S
C278 C273 1.350 . S
C279 H266 0.929 . S
C279 C271 1.433 . S
C279 N281 1.384 . S
N280 C276 1.427 . S
N280 C277 1.384 . S
N281 C273 1.427 . S
N281 C279 1.384 . S
H282 C288 0.930 . S
H283 C292 0.930 . S
H284 C297 0.929 . S
H285 C295 0.929 . S
H286 C290 0.929 . S
H287 C296 0.929 . S
C288 H282 0.930 . S
C288 C289 1.367 . S
C288 C296 1.378 . S
C289 C288 1.367 . S
C289 C297 1.433 . S
C290 H286 0.929 . S
C290 C292 1.378 . S
C290 C294 1.350 . S
C291 C294 1.463 . S
C291 C296 1.350 . S
C291 N299 1.427 . S
C292 H283 0.930 . S
C292 C290 1.378 . S
C292 C293 1.367 . S
C293 C292 1.367 . S
C293 C295 1.433 . S
C294 C290 1.350 . S
C294 C291 1.463 . S
C294 N298 1.427 . S
C295 H285 0.929 . S
C295 C293 1.433 . S
C295 N298 1.384 . S
C296 H287 0.929 . S
C296 C288 1.378 . S
C296 C291 1.350 . S
C297 H284 0.929 . S
C297 C289 1.433 . S
C297 N299 1.384 . S
N298 C294 1.427 . S
N298 C295 1.384 . S
N299 C291 1.427 . S
N299 C297 1.384 . S
H300 C306 0.930 . S
H301 C310 0.930 . S
H302 C315 0.929 . S
H303 C313 0.929 . S
H304 C308 0.929 . S
H305 C314 0.929 . S
C306 H300 0.930 . S
C306 C307 1.367 . S
C306 C314 1.378 . S
C307 C306 1.367 . S
C307 C315 1.433 . S
C308 H304 0.929 . S
C308 C310 1.378 . S
C308 C312 1.350 . S
C309 C312 1.463 . S
C309 C314 1.350 . S
C309 N317 1.427 . S
C310 H301 0.930 . S
C310 C308 1.378 . S
C310 C311 1.367 . S
C311 C310 1.367 . S
C311 C313 1.433 . S
C312 C308 1.350 . S
C312 C309 1.463 . S
C312 N316 1.427 . S
C313 H303 0.929 . S
C313 C311 1.433 . S
C313 N316 1.384 . S
C314 H305 0.929 . S
C314 C306 1.378 . S
C314 C309 1.350 . S
C315 H302 0.929 . S
C315 C307 1.433 . S
C315 N317 1.384 . S
N316 C312 1.427 . S
N316 C313 1.384 . S
N317 C309 1.427 . S
N317 C315 1.384 . S
H318 C324 0.930 . S
H319 C328 0.930 . S
H320 C333 0.929 . S
H321 C331 0.929 . S
H322 C326 0.926 1_554 S
H323 C332 0.929 . S
C324 H318 0.930 . S
C324 C325 1.367 . S
C324 C332 1.378 . S
C325 C324 1.367 . S
C325 C333 1.433 . S
C326 H322 0.926 1_556 S
C326 C328 1.376 1_556 S
C326 C330 1.355 . S
C327 C330 1.463 . S
C327 C332 1.350 . S
C327 N335 1.427 . S
C328 H319 0.930 . S
C328 C326 1.376 1_554 S
C328 C329 1.367 1_554 S
C329 C328 1.367 1_556 S
C329 C331 1.433 . S
C330 C326 1.355 . S
C330 C327 1.463 . S
C330 N334 1.427 . S
C331 H321 0.929 . S
C331 C329 1.433 . S
C331 N334 1.384 . S
C332 H323 0.929 . S
C332 C324 1.378 . S
C332 C327 1.350 . S
C333 H320 0.929 . S
C333 C325 1.433 . S
C333 N335 1.384 . S
N334 C330 1.427 . S
N334 C331 1.384 . S
N335 C327 1.427 . S
N335 C333 1.384 . S
H336 C342 0.930 1_556 S
H337 C346 0.930 . S
H338 C351 0.929 . S
H339 C349 0.929 . S
H340 C344 0.929 . S
H341 C350 0.929 . S
C342 H336 0.930 1_554 S
C342 C343 1.367 . S
C342 C350 1.378 . S
C343 C342 1.367 . S
C343 C351 1.433 . S
C344 H340 0.929 . S
C344 C346 1.378 . S
C344 C348 1.350 . S
C345 C348 1.463 . S
C345 C350 1.350 . S
C345 N353 1.427 . S
C346 H337 0.930 . S
C346 C344 1.378 . S
C346 C347 1.367 . S
C347 C346 1.367 . S
C347 C349 1.433 . S
C348 C344 1.350 . S
C348 C345 1.463 . S
C348 N352 1.427 . S
C349 H339 0.929 . S
C349 C347 1.433 . S
C349 N352 1.384 . S
C350 H341 0.929 . S
C350 C342 1.378 . S
C350 C345 1.350 . S
C351 H338 0.929 . S
C351 C343 1.433 . S
C351 N353 1.384 . S
N352 C348 1.427 . S
N352 C349 1.384 . S
N353 C345 1.427 . S
N353 C351 1.384 . S
C145 N2 1.643 . S
C149 C85 1.703 . S
C163 C108 1.703 . S
C167 N25 1.643 . S
C181 N48 1.631 . S
C185 C131 1.701 1_554 S
C199 N71 1.643 . S
C203 C16 1.703 . S
C217 C39 1.696 . S
C221 N94 1.646 . S
C235 N117 1.631 . S
C239 C62 1.700 . S
C253 N12 1.602 . S
C257 C53 1.618 . S
C271 N35 1.602 . S
C275 C76 1.619 . S
C289 C99 1.616 . S
C293 N58 1.607 . S
C307 C122 1.615 . S
C311 N81 1.607 . S
C325 N104 1.610 . S
C329 C7 1.612 1_556 S
C343 N127 1.605 . S
C347 C30 1.616 . S
