# Generated by pormake.
# Topology crb, (4)-cn, num edge types: 1
# Building blocks:
#     Node 0, Type 0, BuildingBlock: ICAMEG_clean_sbu_1, # of connection points: 4
#     Node 1, Type 0, BuildingBlock: ICAMEG_clean_sbu_1, # of connection points: 4
#     Node 2, Type 0, BuildingBlock: ICAMEG_clean_sbu_1, # of connection points: 4
#     Node 3, Type 0, BuildingBlock: ICAMEG_clean_sbu_1, # of connection points: 4
#     Node 4, Type 0, BuildingBlock: ICAMEG_clean_sbu_1, # of connection points: 4
#     Node 5, Type 0, BuildingBlock: ICAMEG_clean_sbu_1, # of connection points: 4
#     Node 6, Type 0, BuildingBlock: ICAMEG_clean_sbu_1, # of connection points: 4
#     Node 7, Type 0, BuildingBlock: ICAMEG_clean_sbu_1, # of connection points: 4
#     Edge 8, Type (0, 0), BuildingBlock: ZUJKAS_clean_linker_0, # of connection points: 2
#     Edge 9, Type (0, 0), BuildingBlock: ZUJKAS_clean_linker_0, # of connection points: 2
#     Edge 10, Type (0, 0), BuildingBlock: ZUJKAS_clean_linker_0, # of connection points: 2
#     Edge 11, Type (0, 0), BuildingBlock: ZUJKAS_clean_linker_0, # of connection points: 2
#     Edge 12, Type (0, 0), BuildingBlock: ZUJKAS_clean_linker_0, # of connection points: 2
#     Edge 13, Type (0, 0), BuildingBlock: ZUJKAS_clean_linker_0, # of connection points: 2
#     Edge 14, Type (0, 0), BuildingBlock: ZUJKAS_clean_linker_0, # of connection points: 2
#     Edge 15, Type (0, 0), BuildingBlock: ZUJKAS_clean_linker_0, # of connection points: 2
#     Edge 16, Type (0, 0), BuildingBlock: ZUJKAS_clean_linker_0, # of connection points: 2
#     Edge 17, Type (0, 0), BuildingBlock: ZUJKAS_clean_linker_0, # of connection points: 2
#     Edge 18, Type (0, 0), BuildingBlock: ZUJKAS_clean_linker_0, # of connection points: 2
#     Edge 19, Type (0, 0), BuildingBlock: ZUJKAS_clean_linker_0, # of connection points: 2
#     Edge 20, Type (0, 0), BuildingBlock: ZUJKAS_clean_linker_0, # of connection points: 2
#     Edge 21, Type (0, 0), BuildingBlock: ZUJKAS_clean_linker_0, # of connection points: 2
#     Edge 22, Type (0, 0), BuildingBlock: ZUJKAS_clean_linker_0, # of connection points: 2
#     Edge 23, Type (0, 0), BuildingBlock: ZUJKAS_clean_linker_0, # of connection points: 2
# Relax obj value: 0.184
# Max RMSD: 0.235
# Mean RMSD: 0.234
data_MOF--net-crb--node1-ICAMEG_clean_sbu_1--edge1-ZUJKAS_clean_linker_0
_symmetry_space_group_name_H-M    P1
_symmetry_Int_Tables_number       1
_symmetry_cell_setting            triclinic
loop_
_symmetry_equiv_pos_as_xyz
'x, y, z'
_cell_length_a     57.723137
_cell_length_b     57.755563
_cell_length_c     32.369265
_cell_angle_alpha  90.11641
_cell_angle_beta   90.124418
_cell_angle_gamma 90.007794
loop_
_atom_site_label
_atom_site_type_symbol
_atom_site_fract_x
_atom_site_fract_y
_atom_site_fract_z
_atom_type_partial_charge
Co0 Co 0.34349 0.34095 0.96747 0.0
Co1 Co 0.3384 0.34321 0.07228 0.0
O2 O 0.32889 0.32972 0.01882 0.0
C3 C 0.29393 0.3289 0.94218 0.0
O4 O 0.28745 0.32507 0.98039 0.0
C5 C 0.3273 0.29278 0.09251 0.0
O6 O 0.32416 0.2871 0.05362 0.0
O7 O 0.37087 0.33339 0.06124 0.0
O8 O 0.37346 0.34722 0.99701 0.0
H9 H 0.39052 0.39055 0.16395 0.0
H10 H 0.32187 0.29411 0.96901 0.0
O11 O 0.31457 0.33525 0.93416 0.0
H12 H 0.40291 0.28112 0.92747 0.0
H13 H 0.36139 0.34047 0.81512 0.0
H14 H 0.37329 0.38123 0.94747 0.0
H15 H 0.38867 0.32058 0.94125 0.0
H16 H 0.34384 0.32561 0.87916 0.0
O17 O 0.33298 0.31334 0.10254 0.0
H18 H 0.37718 0.3737 0.09803 0.0
H19 H 0.32115 0.34075 0.15927 0.0
H20 H 0.39132 0.39656 0.88421 0.0
H21 H 0.33529 0.25443 0.955 0.0
H22 H 0.38541 0.37614 0.8174 0.0
H23 H 0.37612 0.24768 0.93414 0.0
O24 O 0.3325 0.37281 0.98016 0.0
H25 H 0.25195 0.33198 0.07684 0.0
H26 H 0.31593 0.38687 0.10129 0.0
H27 H 0.27573 0.39943 0.11325 0.0
H28 H 0.24337 0.37187 0.10119 0.0
H29 H 0.29236 0.32026 0.06475 0.0
H30 H 0.33403 0.35708 0.22589 0.0
H31 H 0.36889 0.38226 0.22851 0.0
O32 O 0.34419 0.37413 0.04594 0.0
C33 C 0.38274 0.33952 0.03 0.0
C34 C 0.37527 0.37964 0.1632 0.0
C35 C 0.34359 0.36084 0.19796 0.0
N36 N 0.34834 0.35636 0.12469 0.0
C37 C 0.36761 0.37008 0.12593 0.0
C38 C 0.33642 0.35159 0.16014 0.0
C39 C 0.36314 0.37497 0.19941 0.0
C40 C 0.33955 0.29143 0.95949 0.0
N41 N 0.35433 0.30976 0.9556 0.0
C42 C 0.34711 0.26886 0.95179 0.0
C43 C 0.37002 0.26508 0.94016 0.0
C44 C 0.38506 0.28383 0.93642 0.0
C45 C 0.37688 0.30615 0.94436 0.0
C46 C 0.36412 0.34951 0.84405 0.0
C47 C 0.37072 0.37217 0.91859 0.0
C48 C 0.35417 0.34121 0.88042 0.0
N49 N 0.35763 0.35247 0.91714 0.0
C50 C 0.38093 0.38097 0.88283 0.0
C51 C 0.3776 0.36952 0.84536 0.0
C52 C 0.33738 0.38409 1.01293 0.0
C53 C 0.2659 0.34412 0.08238 0.0
C54 C 0.30199 0.37477 0.09578 0.0
C55 C 0.27924 0.38198 0.10272 0.0
C56 C 0.2611 0.36651 0.09598 0.0
N57 N 0.30661 0.35273 0.08259 0.0
C58 C 0.28888 0.33752 0.07577 0.0
Co59 Co 0.67098 0.34072 0.06684 0.0
Co60 Co 0.67563 0.34221 0.96194 0.0
O61 O 0.68541 0.32916 0.01548 0.0
C62 C 0.72065 0.32896 0.09185 0.0
O63 O 0.72706 0.32482 0.05368 0.0
C64 C 0.68762 0.29184 0.94185 0.0
O65 O 0.69233 0.28657 0.98038 0.0
O66 O 0.64322 0.33241 0.97362 0.0
O67 O 0.64088 0.34673 0.03762 0.0
H68 H 0.62302 0.38878 0.87026 0.0
H69 H 0.69265 0.29392 0.0654 0.0
O70 O 0.70001 0.33533 0.0999 0.0
H71 H 0.61187 0.28103 0.10853 0.0
H72 H 0.65363 0.34125 0.21939 0.0
H73 H 0.64122 0.38111 0.08661 0.0
H74 H 0.62596 0.32043 0.09407 0.0
H75 H 0.67095 0.32598 0.15536 0.0
O76 O 0.68088 0.31211 0.93215 0.0
H77 H 0.63673 0.37252 0.93629 0.0
H78 H 0.69233 0.33893 0.87468 0.0
H79 H 0.62341 0.39684 0.14986 0.0
H80 H 0.67936 0.25429 0.08003 0.0
H81 H 0.62957 0.37688 0.21688 0.0
H82 H 0.63866 0.2476 0.10171 0.0
O83 O 0.68186 0.37252 0.05351 0.0
H84 H 0.76221 0.3316 0.9567 0.0
H85 H 0.69768 0.38562 0.93129 0.0
H86 H 0.73771 0.39835 0.91834 0.0
H87 H 0.77035 0.37122 0.93085 0.0
H88 H 0.722 0.31972 0.96978 0.0
H89 H 0.67906 0.35465 0.80797 0.0
H90 H 0.64423 0.37987 0.80547 0.0
O91 O 0.66993 0.37331 0.98784 0.0
C92 C 0.63147 0.3388 1.00488 0.0
C93 C 0.63825 0.37786 0.87096 0.0
C94 C 0.66969 0.35869 0.83599 0.0
N95 N 0.66539 0.3549 0.90946 0.0
C96 C 0.64613 0.36864 0.90828 0.0
C97 C 0.67707 0.34978 0.87387 0.0
C98 C 0.65015 0.37284 0.83462 0.0
C99 C 0.67503 0.29126 0.07526 0.0
N100 N 0.66024 0.30959 0.07927 0.0
C101 C 0.66754 0.26872 0.08332 0.0
C102 C 0.6447 0.26497 0.09542 0.0
C103 C 0.62966 0.28372 0.09923 0.0
C104 C 0.63776 0.30601 0.09093 0.0
C105 C 0.65079 0.35009 0.19037 0.0
C106 C 0.6439 0.37225 0.11559 0.0
C107 C 0.66061 0.34156 0.154 0.0
N108 N 0.65701 0.35256 0.11717 0.0
C109 C 0.63381 0.38127 0.15134 0.0
C110 C 0.63729 0.37007 0.18894 0.0
C111 C 0.67687 0.38353 0.02058 0.0
C112 C 0.74814 0.34354 0.95091 0.0
C113 C 0.71174 0.37369 0.93698 0.0
C114 C 0.7344 0.38101 0.92948 0.0
C115 C 0.7527 0.36579 0.93649 0.0
N116 N 0.70735 0.35178 0.95092 0.0
C117 C 0.72525 0.33684 0.95806 0.0
Co118 Co 0.67424 0.67293 0.06943 0.0
Co119 Co 0.6705 0.67647 0.96433 0.0
O120 O 0.68456 0.68682 0.01688 0.0
C121 C 0.68561 0.72305 0.09175 0.0
O122 O 0.68875 0.72902 0.05308 0.0
C123 C 0.72062 0.6878 0.94166 0.0
O124 O 0.72663 0.69215 0.98002 0.0
O125 O 0.68044 0.64419 0.97638 0.0
O126 O 0.66831 0.64238 0.04175 0.0
H127 H 0.62246 0.62291 0.87656 0.0
H128 H 0.7206 0.69542 0.06466 0.0
O129 O 0.67975 0.70244 0.10102 0.0
H130 H 0.73582 0.61558 0.11065 0.0
H131 H 0.67689 0.65752 0.2226 0.0
H132 H 0.63477 0.64275 0.09249 0.0
H133 H 0.6959 0.62872 0.09757 0.0
H134 H 0.69065 0.67429 0.15713 0.0
O135 O 0.70004 0.68151 0.93282 0.0
H136 H 0.63989 0.63725 0.94134 0.0
H137 H 0.67199 0.69248 0.87655 0.0
H138 H 0.62054 0.62548 0.15723 0.0
H139 H 0.76074 0.6831 0.07789 0.0
H140 H 0.64165 0.63283 0.22291 0.0
H141 H 0.76861 0.64288 0.101 0.0
O142 O 0.64195 0.68309 0.05746 0.0
H143 H 0.6812 0.76287 0.95532 0.0
H144 H 0.6264 0.69828 0.93594 0.0
H145 H 0.61346 0.73819 0.9225 0.0
H146 H 0.64098 0.77085 0.93198 0.0
H147 H 0.6933 0.72277 0.96897 0.0
H148 H 0.65507 0.6786 0.81104 0.0
H149 H 0.63001 0.64363 0.81079 0.0
O150 O 0.63994 0.67092 0.992 0.0
C151 C 0.67518 0.63267 1.00855 0.0
C152 C 0.63329 0.6382 0.87629 0.0
C153 C 0.65161 0.66944 0.83951 0.0
N154 N 0.65682 0.66577 0.91284 0.0
C155 C 0.64318 0.64644 0.9129 0.0
C156 C 0.6612 0.67718 0.87671 0.0
C157 C 0.63755 0.64983 0.83939 0.0
C158 C 0.72377 0.678 0.07512 0.0
N159 N 0.7058 0.66294 0.08064 0.0
C160 C 0.7466 0.67107 0.08239 0.0
C161 C 0.75101 0.64849 0.09528 0.0
C162 C 0.73263 0.63317 0.10068 0.0
C163 C 0.71003 0.64071 0.09311 0.0
C164 C 0.66756 0.65416 0.19418 0.0
C165 C 0.64412 0.64596 0.12089 0.0
C166 C 0.67523 0.66367 0.157 0.0
N167 N 0.6636 0.65941 0.12091 0.0
C168 C 0.63595 0.63616 0.15748 0.0
C169 C 0.64779 0.64031 0.19433 0.0
C170 C 0.63033 0.67785 0.02523 0.0
C171 C 0.66908 0.74878 0.95087 0.0
C172 C 0.63849 0.71236 0.94033 0.0
C173 C 0.63106 0.73495 0.93255 0.0
C174 C 0.6465 0.75325 0.93785 0.0
N175 N 0.66072 0.70806 0.95292 0.0
C176 C 0.67589 0.72596 0.95836 0.0
Co177 Co 0.33766 0.6744 0.96593 0.0
Co178 Co 0.33922 0.67731 0.07107 0.0
O179 O 0.32642 0.68723 0.01807 0.0
C180 C 0.34489 0.7168 0.91588 0.0
O181 O 0.36661 0.71044 0.91166 0.0
C182 C 0.29706 0.66836 0.12058 0.0
O183 O 0.305 0.64729 0.12634 0.0
O184 O 0.33124 0.64458 0.05719 0.0
O185 O 0.34346 0.64336 0.99155 0.0
H186 H 0.38556 0.62541 0.16432 0.0
H187 H 0.29168 0.69718 0.96938 0.0
O188 O 0.33136 0.7051 0.93895 0.0
H189 H 0.27628 0.61791 0.91951 0.0
H190 H 0.33604 0.66134 0.81183 0.0
H191 H 0.37795 0.64569 0.94172 0.0
H192 H 0.31616 0.63054 0.9349 0.0
H193 H 0.3216 0.67677 0.87803 0.0
O194 O 0.30789 0.68221 0.09677 0.0
H195 H 0.3696 0.63879 0.09779 0.0
H196 H 0.33528 0.69435 0.15823 0.0
H197 H 0.39296 0.62986 0.87623 0.0
H198 H 0.25154 0.68534 0.95383 0.0
H199 H 0.37196 0.63766 0.81066 0.0
H200 H 0.24363 0.64543 0.92877 0.0
O201 O 0.36982 0.68417 0.98065 0.0
H202 H 0.32356 0.76277 0.07955 0.0
H203 H 0.3816 0.70148 0.10252 0.0
H204 H 0.39194 0.74213 0.11669 0.0
H205 H 0.36277 0.77311 0.1054 0.0
H206 H 0.31403 0.7219 0.06525 0.0
H207 H 0.35081 0.68154 0.22542 0.0
H208 H 0.37618 0.64684 0.22875 0.0
O209 O 0.37081 0.67283 0.04678 0.0
C210 C 0.33698 0.63338 0.02473 0.0
C211 C 0.37454 0.64056 0.16327 0.0
C212 C 0.35504 0.67206 0.19756 0.0
N213 N 0.35155 0.66734 0.12407 0.0
C214 C 0.36545 0.64822 0.12568 0.0
C215 C 0.3463 0.67923 0.15942 0.0
C216 C 0.36927 0.65259 0.19941 0.0
C217 C 0.2884 0.67984 0.95818 0.0
N218 N 0.30629 0.66465 0.9528 0.0
C219 C 0.26562 0.67321 0.94956 0.0
C220 C 0.2612 0.65081 0.93554 0.0
C221 C 0.2795 0.63536 0.93036 0.0
C222 C 0.30206 0.6426 0.93926 0.0
C223 C 0.34534 0.6578 0.84019 0.0
C224 C 0.3687 0.64914 0.91333 0.0
C225 C 0.33726 0.6665 0.87777 0.0
N226 N 0.34891 0.66211 0.91375 0.0
C227 C 0.37729 0.64014 0.87634 0.0
C228 C 0.36549 0.64452 0.83956 0.0
C229 C 0.3809 0.67926 0.01368 0.0
C230 C 0.3364 0.74942 0.08471 0.0
C231 C 0.36884 0.71485 0.09727 0.0
C232 C 0.37478 0.73785 0.10549 0.0
C233 C 0.35841 0.75522 0.09917 0.0
N234 N 0.34717 0.70928 0.08329 0.0
C235 C 0.33107 0.72624 0.07681 0.0
Co236 Co 0.84414 0.83922 0.46599 0.0
Co237 Co 0.83979 0.84256 0.57101 0.0
O238 O 0.82982 0.82872 0.51804 0.0
C239 C 0.79417 0.82781 0.44209 0.0
O240 O 0.788 0.82362 0.48034 0.0
C241 C 0.82853 0.79236 0.59255 0.0
O242 O 0.82549 0.78639 0.55379 0.0
O243 O 0.87214 0.8325 0.55974 0.0
O244 O 0.87454 0.84484 0.49452 0.0
H245 H 0.89287 0.89002 0.66073 0.0
H246 H 0.82148 0.79286 0.46945 0.0
O247 O 0.81478 0.83409 0.43366 0.0
H248 H 0.90162 0.77776 0.4249 0.0
H249 H 0.86043 0.83736 0.31308 0.0
H250 H 0.87475 0.87858 0.44424 0.0
H251 H 0.88849 0.81761 0.43855 0.0
H252 H 0.8432 0.82333 0.37798 0.0
O253 O 0.83423 0.81299 0.60211 0.0
H254 H 0.87904 0.87281 0.59543 0.0
H255 H 0.8229 0.84103 0.65828 0.0
H256 H 0.89249 0.89307 0.38008 0.0
H257 H 0.83378 0.75281 0.4556 0.0
H258 H 0.88537 0.87242 0.31388 0.0
H259 H 0.87416 0.745 0.43321 0.0
O260 O 0.83402 0.87146 0.47816 0.0
H261 H 0.75329 0.83208 0.57729 0.0
H262 H 0.81783 0.88667 0.59908 0.0
H263 H 0.77779 0.89967 0.61127 0.0
H264 H 0.74515 0.87226 0.60055 0.0
H265 H 0.79354 0.81991 0.56494 0.0
H266 H 0.83626 0.85774 0.72429 0.0
H267 H 0.87142 0.88252 0.72579 0.0
O268 O 0.84578 0.87316 0.54386 0.0
C269 C 0.88395 0.83784 0.52792 0.0
C270 C 0.87749 0.8793 0.66046 0.0
C271 C 0.84573 0.86116 0.69614 0.0
N272 N 0.8501 0.85603 0.62292 0.0
C273 C 0.86954 0.86953 0.62355 0.0
C274 C 0.83829 0.85169 0.65866 0.0
C275 C 0.86546 0.87507 0.69696 0.0
C276 C 0.83895 0.78973 0.45926 0.0
N277 N 0.8541 0.80769 0.45445 0.0
C278 C 0.84588 0.76695 0.45166 0.0
C279 C 0.86855 0.76257 0.43917 0.0
C280 C 0.88396 0.78093 0.43453 0.0
C281 C 0.87641 0.80348 0.44242 0.0
C282 C 0.8637 0.84649 0.34174 0.0
C283 C 0.87165 0.86942 0.41561 0.0
C284 C 0.85393 0.83867 0.3786 0.0
N285 N 0.85807 0.85004 0.41498 0.0
C286 C 0.88171 0.87774 0.37935 0.0
C287 C 0.87769 0.86616 0.34221 0.0
C288 C 0.83908 0.88292 0.51063 0.0
C289 C 0.76736 0.84416 0.58225 0.0
C290 C 0.80376 0.87463 0.59414 0.0
C291 C 0.7811 0.8821 0.60122 0.0
C292 C 0.76281 0.86671 0.59523 0.0
N293 N 0.80813 0.85244 0.58156 0.0
C294 C 0.79025 0.83731 0.57548 0.0
Co295 Co 0.17334 0.84578 0.45846 0.0
Co296 Co 0.17678 0.83578 0.56166 0.0
O297 O 0.1878 0.82998 0.50547 0.0
C298 C 0.17736 0.79685 0.42893 0.0
O299 O 0.16869 0.78961 0.46408 0.0
C300 C 0.22048 0.84312 0.60794 0.0
O301 O 0.21279 0.86394 0.61685 0.0
O302 O 0.18364 0.86937 0.55406 0.0
O303 O 0.16672 0.8741 0.49241 0.0
H304 H 0.13268 0.87968 0.67015 0.0
H305 H 0.22073 0.82661 0.4506 0.0
O306 O 0.17995 0.8184 0.42233 0.0
H307 H 0.22832 0.90976 0.41899 0.0
H308 H 0.16603 0.8688 0.30896 0.0
H309 H 0.13071 0.87381 0.44726 0.0
H310 H 0.19022 0.893 0.43571 0.0
H311 H 0.18459 0.84996 0.36878 0.0
O312 O 0.20904 0.8302 0.58318 0.0
H313 H 0.14646 0.87124 0.59964 0.0
H314 H 0.18442 0.81335 0.64393 0.0
H315 H 0.11168 0.89305 0.38837 0.0
H316 H 0.25917 0.84262 0.43353 0.0
H317 H 0.12936 0.89062 0.31859 0.0
H318 H 0.26313 0.88449 0.41767 0.0
O319 O 0.14274 0.83263 0.47421 0.0
H320 H 0.19496 0.75096 0.55001 0.0
H321 H 0.13621 0.80832 0.59182 0.0
H322 H 0.12746 0.7667 0.59787 0.0
H323 H 0.15698 0.73768 0.57702 0.0
H324 H 0.20289 0.79277 0.54392 0.0
H325 H 0.17114 0.82123 0.71493 0.0
H326 H 0.14505 0.85459 0.7284 0.0
O327 O 0.14412 0.84076 0.54184 0.0
C328 C 0.17556 0.88224 0.52552 0.0
C329 C 0.14404 0.86509 0.66468 0.0
C330 C 0.16562 0.83229 0.68981 0.0
N331 N 0.16621 0.84182 0.61763 0.0
C332 C 0.1519 0.86022 0.62481 0.0
C333 C 0.17309 0.82792 0.64954 0.0
C334 C 0.15098 0.851 0.69734 0.0
C335 C 0.22231 0.84481 0.44344 0.0
N336 N 0.20324 0.85881 0.44398 0.0
C337 C 0.24412 0.85379 0.43391 0.0
C338 C 0.24634 0.87729 0.42505 0.0
C339 C 0.22681 0.89148 0.42579 0.0
C340 C 0.20528 0.88189 0.43539 0.0
C341 C 0.15817 0.86999 0.33922 0.0
C342 C 0.13857 0.87273 0.41705 0.0
C343 C 0.16856 0.8593 0.37319 0.0
N344 N 0.1588 0.86085 0.41154 0.0
C345 C 0.12768 0.88364 0.38379 0.0
C346 C 0.1376 0.88225 0.34464 0.0
C347 C 0.13288 0.83537 0.50914 0.0
C348 C 0.18198 0.76343 0.55932 0.0
C349 C 0.14911 0.79583 0.58242 0.0
C350 C 0.14408 0.77227 0.58607 0.0
C351 C 0.16066 0.756 0.57441 0.0
N352 N 0.17009 0.803 0.56766 0.0
C353 C 0.18641 0.78714 0.55611 0.0
Co354 Co 0.17601 0.17086 0.57052 0.0
Co355 Co 0.17155 0.17404 0.46588 0.0
O356 O 0.186 0.18477 0.51781 0.0
C357 C 0.18743 0.22097 0.59264 0.0
O358 O 0.18958 0.22712 0.55383 0.0
C359 C 0.22118 0.18625 0.44157 0.0
O360 O 0.22754 0.1904 0.47982 0.0
O361 O 0.18249 0.14209 0.47795 0.0
O362 O 0.16954 0.14035 0.54281 0.0
H363 H 0.1236 0.11926 0.38032 0.0
H364 H 0.22243 0.19299 0.56507 0.0
O365 O 0.1821 0.20026 0.6021 0.0
H366 H 0.2374 0.11281 0.60957 0.0
H367 H 0.17971 0.15509 0.7235 0.0
H368 H 0.13644 0.14102 0.59436 0.0
H369 H 0.19748 0.12632 0.59765 0.0
H370 H 0.1931 0.1719 0.65781 0.0
O371 O 0.2006 0.17974 0.43328 0.0
H372 H 0.14154 0.13409 0.4443 0.0
H373 H 0.17167 0.18984 0.37794 0.0
H374 H 0.12258 0.1237 0.65932 0.0
H375 H 0.2626 0.18029 0.57715 0.0
H376 H 0.14427 0.1307 0.72452 0.0
H377 H 0.27032 0.13991 0.59949 0.0
O378 O 0.14382 0.18149 0.55919 0.0
H379 H 0.18009 0.26061 0.45593 0.0
H380 H 0.12657 0.19473 0.43915 0.0
H381 H 0.11254 0.23431 0.42604 0.0
H382 H 0.1394 0.26761 0.43422 0.0
H383 H 0.1933 0.22081 0.46926 0.0
H384 H 0.15424 0.17548 0.3132 0.0
H385 H 0.12992 0.14 0.31414 0.0
O386 O 0.1414 0.16778 0.49473 0.0
C387 C 0.17706 0.13063 0.51007 0.0
C388 C 0.13412 0.13477 0.37953 0.0
C389 C 0.15134 0.1663 0.34185 0.0
N390 N 0.15753 0.16289 0.41498 0.0
C391 C 0.14429 0.14328 0.41569 0.0
C392 C 0.16122 0.17431 0.37861 0.0
C393 C 0.13769 0.1464 0.3424 0.0
C394 C 0.22557 0.17549 0.57519 0.0
N395 N 0.20754 0.16054 0.58093 0.0
C396 C 0.24839 0.16835 0.58181 0.0
C397 C 0.25272 0.14568 0.59429 0.0
C398 C 0.23427 0.13047 0.59993 0.0
C399 C 0.21168 0.13823 0.59303 0.0
C400 C 0.17012 0.15189 0.69529 0.0
C401 C 0.14604 0.14407 0.62254 0.0
C402 C 0.17758 0.16142 0.65799 0.0
N403 N 0.16562 0.15736 0.62218 0.0
C404 C 0.13808 0.13425 0.65926 0.0
C405 C 0.15024 0.1382 0.69584 0.0
C406 C 0.13203 0.1756 0.52756 0.0
C407 C 0.16825 0.24623 0.45205 0.0
C408 C 0.13839 0.20909 0.44292 0.0
C409 C 0.13033 0.23149 0.43536 0.0
C410 C 0.14541 0.25016 0.43994 0.0
N411 N 0.16087 0.20534 0.45462 0.0
C412 C 0.17569 0.22359 0.45935 0.0
Co413 Co 0.84425 0.17538 0.56675 0.0
Co414 Co 0.83861 0.17286 0.46196 0.0
O415 O 0.82938 0.18647 0.51542 0.0
C416 C 0.79453 0.18605 0.59194 0.0
O417 O 0.78755 0.18787 0.55349 0.0
C418 C 0.82782 0.22333 0.44151 0.0
O419 O 0.82538 0.2292 0.48044 0.0
O420 O 0.87116 0.18266 0.47265 0.0
O421 O 0.87407 0.16903 0.53701 0.0
H422 H 0.89021 0.12524 0.37025 0.0
H423 H 0.82227 0.22189 0.56571 0.0
O424 O 0.81555 0.1812 0.60027 0.0
H425 H 0.90364 0.23571 0.60509 0.0
H426 H 0.86314 0.17643 0.71885 0.0
H427 H 0.87412 0.13513 0.58687 0.0
H428 H 0.8896 0.19609 0.59182 0.0
H429 H 0.84521 0.19107 0.65485 0.0
O430 O 0.83306 0.20265 0.43153 0.0
H431 H 0.87724 0.14229 0.43614 0.0
H432 H 0.82091 0.17508 0.37511 0.0
H433 H 0.89252 0.12003 0.65009 0.0
H434 H 0.8355 0.26175 0.57922 0.0
H435 H 0.88708 0.14072 0.71671 0.0
H436 H 0.87649 0.26889 0.59898 0.0
O437 O 0.83323 0.14346 0.55443 0.0
H438 H 0.75222 0.18444 0.45731 0.0
H439 H 0.81588 0.12912 0.43375 0.0
H440 H 0.77558 0.11669 0.42201 0.0
H441 H 0.74339 0.14447 0.43361 0.0
H442 H 0.79272 0.19603 0.46926 0.0
H443 H 0.83342 0.15856 0.30853 0.0
H444 H 0.86825 0.13335 0.30582 0.0
O445 O 0.84449 0.14201 0.48849 0.0
C446 C 0.88318 0.17657 0.50383 0.0
C447 C 0.87498 0.13616 0.37105 0.0
C448 C 0.84312 0.15488 0.3364 0.0
N449 N 0.84827 0.15957 0.40959 0.0
C450 C 0.86752 0.14583 0.40829 0.0
C451 C 0.83616 0.16424 0.3742 0.0
C452 C 0.86266 0.14073 0.3349 0.0
C453 C 0.84004 0.22479 0.57469 0.0
N454 N 0.85505 0.20661 0.5782 0.0
C455 C 0.84748 0.24743 0.58213 0.0
C456 C 0.87048 0.25143 0.59316 0.0
C457 C 0.88573 0.23282 0.59657 0.0
C458 C 0.87767 0.21042 0.5889 0.0
C459 C 0.86567 0.16728 0.69 0.0
C460 C 0.87174 0.14431 0.61567 0.0
C461 C 0.8555 0.17544 0.65365 0.0
N462 N 0.85869 0.16403 0.61704 0.0
C463 C 0.88217 0.13564 0.6514 0.0
C464 C 0.8791 0.14724 0.68878 0.0
C465 C 0.8379 0.13212 0.52166 0.0
C466 C 0.7661 0.1722 0.45198 0.0
C467 C 0.802 0.14131 0.43911 0.0
C468 C 0.7792 0.13417 0.43227 0.0
C469 C 0.76115 0.14976 0.43876 0.0
N470 N 0.80676 0.16339 0.45196 0.0
C471 C 0.78912 0.17872 0.4585 0.0
H472 H 0.35073 0.41328 0.07495 0.0
H473 H 0.34924 0.45535 0.07631 0.0
H474 H 0.32077 0.45581 0.9531 0.0
H475 H 0.32208 0.4133 0.95131 0.0
H476 H 0.37162 0.48615 0.02047 0.0
H477 H 0.27588 0.49724 0.02255 0.0
H478 H 0.28979 0.47018 0.03552 0.0
H479 H 0.28733 0.47889 0.98251 0.0
C480 C 0.34404 0.42218 0.04803 0.0
C481 C 0.33644 0.40979 1.01299 0.0
C482 C 0.34324 0.4463 0.04894 0.0
C483 C 0.33468 0.45868 0.01504 0.0
C484 C 0.32712 0.44652 0.97985 0.0
H485 H 0.35224 0.60421 0.96412 0.0
H486 H 0.35137 0.56208 0.96314 0.0
C487 C 0.328 0.42226 0.9788 0.0
C488 C 0.33443 0.48434 0.01653 0.0
H489 H 0.29853 0.53138 0.01904 0.0
C490 C 0.35565 0.49605 0.02009 0.0
C491 C 0.31354 0.49715 0.01663 0.0
C492 C 0.29028 0.48531 0.01442 0.0
C493 C 0.35657 0.52027 0.02321 0.0
C494 C 0.33573 0.53312 0.0225 0.0
C495 C 0.31447 0.52143 0.01949 0.0
C496 C 0.33583 0.55876 0.02352 0.0
C497 C 0.37982 0.53197 0.02763 0.0
C498 C 0.3271 0.57091 0.05773 0.0
C499 C 0.32762 0.59518 0.05858 0.0
C500 C 0.33665 0.60766 0.02496 0.0
C501 C 0.34518 0.59528 0.99066 0.0
C502 C 0.34477 0.57114 0.98998 0.0
H503 H 0.39362 0.51957 0.0367 0.0
H504 H 0.38472 0.53981 0.99762 0.0
H505 H 0.37903 0.54606 0.05099 0.0
H506 H 0.32008 0.5616 0.08389 0.0
H507 H 0.32084 0.60411 0.08539 0.0
H508 H 0.41052 0.30888 0.07169 0.0
H509 H 0.45285 0.30561 0.06725 0.0
H510 H 0.45472 0.3655 0.98777 0.0
H511 H 0.41263 0.36807 0.99051 0.0
H512 H 0.48084 0.33336 0.95697 0.0
H513 H 0.50236 0.3418 0.12339 0.0
H514 H 0.48346 0.31793 0.11236 0.0
H515 H 0.47363 0.34711 0.10367 0.0
C516 C 0.42007 0.32149 0.05378 0.0
C517 C 0.40832 0.33876 0.03158 0.0
C518 C 0.44427 0.31967 0.05133 0.0
C519 C 0.45711 0.33549 0.02755 0.0
C520 C 0.44529 0.35302 1.00619 0.0
H521 H 0.60178 0.36739 0.04496 0.0
H522 H 0.55969 0.36504 0.04786 0.0
C523 C 0.4212 0.35454 1.00793 0.0
C524 C 0.48274 0.33363 0.02346 0.0
H525 H 0.53332 0.33302 0.07831 0.0
C526 C 0.49232 0.33331 0.98354 0.0
C527 C 0.49777 0.33368 0.05807 0.0
C528 C 0.48883 0.33538 0.10176 0.0
C529 C 0.5164 0.33368 0.97722 0.0
C530 C 0.53142 0.33343 1.01183 0.0
C531 C 0.52184 0.33312 0.05174 0.0
C532 C 0.55707 0.3351 1.00775 0.0
C533 C 0.52535 0.33538 0.93355 0.0
C534 C 0.56979 0.31923 0.98376 0.0
C535 C 0.59399 0.32091 0.98123 0.0
C536 C 0.60588 0.3381 1.00356 0.0
C537 C 0.59311 0.35392 0.02745 0.0
C538 C 0.56902 0.35253 0.02928 0.0
H539 H 0.51187 0.34195 0.912 0.0
H540 H 0.54064 0.34701 0.9318 0.0
H541 H 0.5306 0.31792 0.92273 0.0
H542 H 0.56109 0.30525 0.9677 0.0
H543 H 0.60344 0.30828 0.96312 0.0
H544 H 0.66376 0.41218 0.95783 0.0
H545 H 0.66522 0.45422 0.95566 0.0
H546 H 0.69321 0.45576 0.0792 0.0
H547 H 0.69198 0.41327 0.08178 0.0
H548 H 0.64247 0.48519 1.0099 0.0
H549 H 0.7381 0.49712 1.01058 0.0
H550 H 0.72454 0.46979 0.99805 0.0
H551 H 0.72652 0.47912 0.05086 0.0
C552 C 0.67036 0.42131 0.98465 0.0
C553 C 0.67784 0.40922 0.02002 0.0
C554 C 0.67115 0.44541 0.98326 0.0
C555 C 0.67955 0.45809 0.01703 0.0
C556 C 0.687 0.44624 0.05253 0.0
H557 H 0.66017 0.60303 0.06831 0.0
H558 H 0.6617 0.56094 0.0685 0.0
C559 C 0.68616 0.42198 0.05404 0.0
C560 C 0.67963 0.48374 0.01513 0.0
H561 H 0.71512 0.53111 0.01366 0.0
C562 C 0.65835 0.49524 1.01073 0.0
C563 C 0.7004 0.49674 0.01563 0.0
C564 C 0.72375 0.48515 0.0187 0.0
C565 C 0.65725 0.51943 1.00745 0.0
C566 C 0.67796 0.53247 1.00887 0.0
C567 C 0.69929 0.52101 1.01263 0.0
C568 C 0.67757 0.55811 1.0083 0.0
C569 C 0.63394 0.5309 1.00226 0.0
C570 C 0.68628 0.57051 0.97445 0.0
C571 C 0.68538 0.59478 0.97405 0.0
C572 C 0.67598 0.60698 1.00776 0.0
C573 C 0.6675 0.59433 0.04171 0.0
C574 C 0.6683 0.57021 0.04194 0.0
H575 H 0.62036 0.51835 0.99264 0.0
H576 H 0.62863 0.53871 0.03212 0.0
H577 H 0.63486 0.54498 0.97899 0.0
H578 H 0.69356 0.56141 0.94822 0.0
H579 H 0.69214 0.60395 0.94753 0.0
H580 H 0.41043 0.69352 0.95183 0.0
H581 H 0.45298 0.69443 0.95389 0.0
H582 H 0.45197 0.66817 0.07839 0.0
H583 H 0.40984 0.66718 0.0769 0.0
H584 H 0.48355 0.71814 0.01667 0.0
H585 H 0.49385 0.62248 1.00989 0.0
H586 H 0.46765 0.63696 0.99357 0.0
H587 H 0.47362 0.63313 0.04759 0.0
C588 C 0.41926 0.68797 0.97965 0.0
C589 C 0.40662 0.68021 0.01411 0.0
C590 C 0.44355 0.68855 0.98079 0.0
C591 C 0.45555 0.68119 0.01619 0.0
C592 C 0.44302 0.67371 0.05066 0.0
H593 H 0.60163 0.69493 0.08623 0.0
H594 H 0.55909 0.69667 0.08507 0.0
C595 C 0.41887 0.67321 0.04967 0.0
C596 C 0.48121 0.68095 0.01734 0.0
H597 H 0.52763 0.64447 0.02347 0.0
C598 C 0.49324 0.70207 0.01804 0.0
C599 C 0.49373 0.65994 0.01902 0.0
C600 C 0.48165 0.63679 0.01717 0.0
C601 C 0.51755 0.7027 0.02087 0.0
C602 C 0.53003 0.68167 0.0233 0.0
C603 C 0.51798 0.66057 0.0221 0.0
C604 C 0.55571 0.68104 0.02453 0.0
C605 C 0.52978 0.72577 0.02051 0.0
C606 C 0.56779 0.67137 0.99127 0.0
C607 C 0.59192 0.67032 0.99182 0.0
C608 C 0.60461 0.6788 0.02588 0.0
C609 C 0.59244 0.68829 0.05951 0.0
C610 C 0.56816 0.68943 0.0588 0.0
H611 H 0.51803 0.74009 1.01124 0.0
H612 H 0.53652 0.72958 0.05193 0.0
H613 H 0.54476 0.72533 0.99904 0.0
H614 H 0.55852 0.66471 0.96463 0.0
H615 H 0.60058 0.66281 0.96535 0.0
H616 H 0.85346 0.91238 0.57145 0.0
H617 H 0.85159 0.95441 0.57265 0.0
H618 H 0.82106 0.95437 0.451 0.0
H619 H 0.82275 0.91186 0.44939 0.0
H620 H 0.87262 0.9854 0.51551 0.0
H621 H 0.77683 0.9953 0.52292 0.0
H622 H 0.7913 0.96844 0.53522 0.0
H623 H 0.78784 0.97705 0.48234 0.0
C624 C 0.84626 0.92115 0.54483 0.0
C625 C 0.83817 0.90862 0.5103 0.0
C626 C 0.84523 0.94526 0.54565 0.0
C627 C 0.83596 0.95748 0.51217 0.0
C628 C 0.82797 0.94519 0.47744 0.0
H629 H 0.85101 0.10284 0.45972 0.0
H630 H 0.84998 0.06075 0.45894 0.0
C631 C 0.82908 0.92093 0.47647 0.0
C632 C 0.8354 0.98313 0.51365 0.0
H633 H 0.79899 0.02972 0.51838 0.0
C634 C 0.85653 0.99509 0.51607 0.0
C635 C 0.81437 0.99568 0.51501 0.0
C636 C 0.79123 0.98355 0.51406 0.0
C637 C 0.8572 0.01932 0.51924 0.0
C638 C 0.8362 0.0319 0.51977 0.0
C639 C 0.81504 0.01997 0.51791 0.0
C640 C 0.83605 0.05754 0.52058 0.0
C641 C 0.88037 0.03131 0.5223 0.0
C642 C 0.82822 0.06973 0.55543 0.0
C643 C 0.82882 0.09401 0.55616 0.0
C644 C 0.83707 0.10642 0.52183 0.0
C645 C 0.84458 0.09398 0.48683 0.0
C646 C 0.84406 0.06985 0.48626 0.0
H647 H 0.8945 0.01907 0.53045 0.0
H648 H 0.88459 0.03926 0.49206 0.0
H649 H 0.87984 0.04534 0.54579 0.0
H650 H 0.82192 0.06046 0.58221 0.0
H651 H 0.82285 0.10301 0.58352 0.0
H652 H 0.10603 0.84311 0.5772 0.0
H653 H 0.06398 0.84158 0.58245 0.0
H654 H 0.05913 0.82266 0.45385 0.0
H655 H 0.10148 0.82412 0.44805 0.0
H656 H 0.0321 0.86859 0.53448 0.0
H657 H 0.01851 0.7738 0.51591 0.0
H658 H 0.04622 0.78611 0.53 0.0
H659 H 0.03632 0.78746 0.47745 0.0
C660 C 0.09615 0.83847 0.54993 0.0
C661 C 0.10725 0.8337 0.51213 0.0
C662 C 0.07206 0.83762 0.55309 0.0
C663 C 0.05847 0.8318 0.5187 0.0
C664 C 0.06936 0.82686 0.48093 0.0
H665 H 0.91418 0.85446 0.4705 0.0
H666 H 0.9563 0.85259 0.47118 0.0
C667 C 0.09356 0.82781 0.47764 0.0
C668 C 0.03286 0.83195 0.52223 0.0
H669 H 0.98485 0.79738 0.51771 0.0
C670 C 0.02177 0.85302 0.53095 0.0
C671 C 0.01948 0.81155 0.51807 0.0
C672 C 0.03066 0.78836 0.51016 0.0
C673 C 0.99758 0.85433 0.53467 0.0
C674 C 0.98417 0.83406 0.52949 0.0
C675 C 0.99524 0.81288 0.52166 0.0
C676 C 0.95853 0.8349 0.52981 0.0
C677 C 0.98646 0.87739 0.54397 0.0
C678 C 0.9458 0.8254 0.56258 0.0
C679 C 0.92153 0.82654 0.56252 0.0
C680 C 0.90965 0.83696 0.52939 0.0
C681 C 0.92263 0.8463 0.49659 0.0
C682 C 0.94677 0.8453 0.49686 0.0
H683 H 0.9993 0.89034 0.55503 0.0
H684 H 0.97823 0.88418 0.51544 0.0
H685 H 0.97272 0.87543 0.56766 0.0
H686 H 0.95466 0.81726 0.58826 0.0
H687 H 0.91209 0.81911 0.58816 0.0
H688 H 0.15198 0.10073 0.55675 0.0
H689 H 0.15516 0.05875 0.55979 0.0
H690 H 0.20889 0.06042 0.46737 0.0
H691 H 0.20501 0.10269 0.46285 0.0
H692 H 0.18112 0.02602 0.45236 0.0
H693 H 0.20315 0.02196 0.61797 0.0
H694 H 0.17617 0.03678 0.61104 0.0
H695 H 0.20241 0.04894 0.59003 0.0
C696 C 0.16449 0.0922 0.537 0.0
C697 C 0.17837 0.10504 0.50973 0.0
C698 C 0.16647 0.06816 0.53911 0.0
C699 C 0.18282 0.0564 0.51488 0.0
C700 C 0.19633 0.06912 0.48678 0.0
H701 H 0.20847 0.9086 0.56464 0.0
H702 H 0.21252 0.95092 0.56168 0.0
C703 C 0.19406 0.09324 0.48409 0.0
C704 C 0.18505 0.03079 0.51802 0.0
H705 H 0.18858 0.98654 0.58772 0.0
C706 C 0.18306 0.01742 0.48193 0.0
C707 C 0.18824 0.01943 0.55642 0.0
C708 C 0.19289 0.03257 0.59593 0.0
C709 C 0.183 0.99312 0.48338 0.0
C710 C 0.18402 0.98182 0.52218 0.0
C711 C 0.18723 0.99514 0.55806 0.0
C712 C 0.18113 0.95632 0.52616 0.0
C713 C 0.18201 0.97989 0.44314 0.0
C714 C 0.16172 0.94535 0.50871 0.0
C715 C 0.15959 0.92131 0.50989 0.0
C716 C 0.17646 0.9077 0.52964 0.0
C717 C 0.19516 0.9187 0.54941 0.0
C718 C 0.19753 0.94284 0.54752 0.0
H719 H 0.18961 0.99012 0.41748 0.0
H720 H 0.1914 0.96316 0.44529 0.0
H721 H 0.16366 0.97634 0.43508 0.0
H722 H 0.14835 0.95537 0.49353 0.0
H723 H 0.14484 0.91331 0.49477 0.0
H724 H 0.91094 0.20721 0.46228 0.0
H725 H 0.95332 0.21017 0.46636 0.0
H726 H 0.95519 0.14987 0.54486 0.0
H727 H 0.91307 0.14761 0.5425 0.0
H728 H 0.98166 0.18162 0.57598 0.0
H729 H 1.00236 0.17405 0.40928 0.0
H730 H 0.98368 0.19799 0.42086 0.0
H731 H 0.97369 0.16882 0.42909 0.0
C732 C 0.92051 0.19444 0.47988 0.0
C733 C 0.90875 0.17715 0.50194 0.0
C734 C 0.94473 0.19609 0.48213 0.0
C735 C 0.95758 0.18007 0.50554 0.0
C736 C 0.94575 0.1625 0.52673 0.0
H737 H 0.10207 0.14759 0.48655 0.0
H738 H 0.05998 0.1502 0.48376 0.0
C739 C 0.92165 0.16116 0.5252 0.0
C740 C 0.98325 0.18175 0.50948 0.0
H741 H 0.03358 0.18245 0.4543 0.0
C742 C 0.99302 0.18177 0.54933 0.0
C743 C 0.99812 0.18183 0.47477 0.0
C744 C 0.98897 0.18045 0.43111 0.0
C745 C 0.01711 0.18122 0.55548 0.0
C746 C 0.03199 0.18163 0.52078 0.0
C747 C 0.02222 0.18223 0.48095 0.0
C748 C 0.05765 0.17982 0.52466 0.0
C749 C 0.02625 0.17917 0.59905 0.0
C750 C 0.07053 0.19544 0.54901 0.0
C751 C 0.09472 0.19359 0.55148 0.0
C752 C 0.10644 0.17651 0.52872 0.0
C753 C 0.09353 0.16097 0.5044 0.0
C754 C 0.06944 0.16251 0.50264 0.0
H755 H 0.01283 0.1725 0.62053 0.0
H756 H 0.0415 0.16749 0.60046 0.0
H757 H 0.0316 0.19654 0.61026 0.0
H758 H 0.06196 0.20933 0.56544 0.0
H759 H 0.1043 0.20601 0.56993 0.0
H760 H 0.25962 0.21449 0.44124 0.0
H761 H 0.28078 0.2285 0.38044 0.0
H762 H 0.23854 0.18534 0.30175 0.0
H763 H 0.21714 0.17169 0.36183 0.0
H764 H 0.30598 0.2072 0.31666 0.0
H765 H 0.22692 0.24962 0.25504 0.0
H766 H 0.22864 0.23856 0.30703 0.0
H767 H 0.22342 0.21921 0.2644 0.0
C768 C 0.25508 0.20776 0.41104 0.0
C769 C 0.2365 0.1922 0.40637 0.0
C770 C 0.26714 0.21581 0.3763 0.0
C771 C 0.26086 0.2084 0.33641 0.0
C772 C 0.24329 0.19179 0.33205 0.0
H773 H 0.30076 0.25325 0.08818 0.0
H774 H 0.28636 0.23014 0.14636 0.0
C775 C 0.23115 0.1839 0.36654 0.0
C776 C 0.27187 0.21869 0.29918 0.0
H777 H 0.25976 0.24931 0.21147 0.0
C778 C 0.29589 0.21642 0.29368 0.0
C779 C 0.2587 0.23076 0.26915 0.0
C780 C 0.23304 0.23491 0.27427 0.0
C781 C 0.30703 0.22569 0.25877 0.0
C782 C 0.29384 0.23774 0.22881 0.0
C783 C 0.26982 0.23984 0.23419 0.0
C784 C 0.30468 0.24976 0.19317 0.0
C785 C 0.3328 0.22235 0.25403 0.0
C786 C 0.3199 0.26829 0.20011 0.0
C787 C 0.32805 0.2815 0.16708 0.0
C788 C 0.32113 0.27654 0.12626 0.0
C789 C 0.30655 0.25743 0.11914 0.0
C790 C 0.29825 0.24427 0.15238 0.0
H791 H 0.33917 0.20753 0.27272 0.0
H792 H 0.33749 0.2194 0.22119 0.0
H793 H 0.34188 0.23819 0.26486 0.0
H794 H 0.32477 0.27315 0.23127 0.0
H795 H 0.33925 0.2961 0.17375 0.0
H796 H 0.71589 0.34277 0.17189 0.0
H797 H 0.73785 0.32978 0.23192 0.0
H798 H 0.78161 0.28854 0.1529 0.0
H799 H 0.7599 0.3019 0.09227 0.0
H800 H 0.74042 0.28585 0.25817 0.0
H801 H 0.82917 0.31822 0.22816 0.0
H802 H 0.80423 0.32851 0.19991 0.0
H803 H 0.8175 0.30135 0.18641 0.0
C804 C 0.73044 0.33124 0.16708 0.0
C805 C 0.73611 0.32335 0.12718 0.0
C806 C 0.74299 0.32381 0.20154 0.0
C807 C 0.76152 0.30831 0.19707 0.0
C808 C 0.76771 0.3009 0.15715 0.0
H809 H 0.8379 0.21916 0.35965 0.0
H810 H 0.82273 0.24209 0.30249 0.0
C811 C 0.75522 0.30849 0.12247 0.0
C812 C 0.77289 0.29847 0.2345 0.0
H813 H 0.82519 0.29034 0.28216 0.0
C814 C 0.75893 0.28709 0.26362 0.0
C815 C 0.79705 0.3 0.24163 0.0
C816 C 0.81285 0.31287 0.21259 0.0
C817 C 0.76848 0.2767 0.29897 0.0
C818 C 0.79265 0.27797 0.30583 0.0
C819 C 0.80664 0.28951 0.27698 0.0
C820 C 0.80379 0.26597 0.34128 0.0
C821 C 0.7527 0.26371 0.32796 0.0
C822 C 0.7988 0.27222 0.38232 0.0
C823 C 0.80751 0.2591 0.41534 0.0
C824 C 0.8213 0.23948 0.40777 0.0
C825 C 0.82716 0.23404 0.36666 0.0
C826 C 0.81856 0.24717 0.33385 0.0
H827 H 0.73535 0.26053 0.31412 0.0
H828 H 0.76044 0.24681 0.3367 0.0
H829 H 0.7503 0.27401 0.3566 0.0
H830 H 0.78767 0.28688 0.38877 0.0
H831 H 0.80268 0.26377 0.44657 0.0
H832 H 0.75561 0.79975 0.44183 0.0
H833 H 0.73404 0.78591 0.38111 0.0
H834 H 0.77592 0.82908 0.30249 0.0
H835 H 0.79776 0.84254 0.3625 0.0
H836 H 0.70847 0.80713 0.31811 0.0
H837 H 0.78712 0.76503 0.25456 0.0
H838 H 0.78581 0.77603 0.30669 0.0
H839 H 0.79069 0.79543 0.26417 0.0
C840 C 0.75998 0.80653 0.41168 0.0
C841 C 0.77859 0.82203 0.40699 0.0
C842 C 0.74769 0.79857 0.37698 0.0
C843 C 0.75376 0.80601 0.3371 0.0
C844 C 0.77134 0.82259 0.33275 0.0
H845 H 0.7121 0.76261 0.08848 0.0
H846 H 0.72689 0.78523 0.14721 0.0
C847 C 0.78372 0.83037 0.36721 0.0
C848 C 0.74248 0.79581 0.29987 0.0
H849 H 0.754 0.76554 0.21137 0.0
C850 C 0.71841 0.79802 0.2948 0.0
C851 C 0.75545 0.78386 0.26941 0.0
C852 C 0.78115 0.77971 0.27405 0.0
C853 C 0.70703 0.78884 0.25989 0.0
C854 C 0.72003 0.77696 0.22948 0.0
C855 C 0.74409 0.77489 0.23445 0.0
C856 C 0.70897 0.76517 0.19362 0.0
C857 C 0.68122 0.79211 0.25564 0.0
C858 C 0.69384 0.74655 0.20016 0.0
C859 C 0.68546 0.7336 0.1668 0.0
C860 C 0.69205 0.73894 0.12605 0.0
C861 C 0.70655 0.75814 0.11938 0.0
C862 C 0.71508 0.77102 0.15293 0.0
H863 H 0.67491 0.80675 0.2749 0.0
H864 H 0.67629 0.79532 0.22296 0.0
H865 H 0.67228 0.77615 0.26605 0.0
H866 H 0.6892 0.74142 0.23123 0.0
H867 H 0.67432 0.71893 0.17313 0.0
H868 H 0.19211 0.80684 0.35106 0.0
H869 H 0.20695 0.78036 0.29896 0.0
H870 H 0.19551 0.7227 0.3808 0.0
H871 H 0.18067 0.74932 0.43386 0.0
H872 H 0.23984 0.72353 0.34493 0.0
H873 H 0.17239 0.73462 0.22484 0.0
H874 H 0.18384 0.76168 0.243 0.0
H875 H 0.16809 0.74331 0.27791 0.0
C876 C 0.19249 0.78851 0.35807 0.0
C877 C 0.18511 0.78022 0.39674 0.0
C878 C 0.20085 0.77335 0.32799 0.0
C879 C 0.20195 0.7495 0.33563 0.0
C880 C 0.19457 0.74104 0.37411 0.0
H881 H 0.27385 0.64577 0.18244 0.0
H882 H 0.24832 0.66288 0.23449 0.0
C883 C 0.18608 0.75626 0.40436 0.0
C884 C 0.21225 0.73385 0.30413 0.0
H885 H 0.20871 0.71878 0.20215 0.0
C886 C 0.23282 0.7221 0.31392 0.0
C887 C 0.20311 0.7321 0.26363 0.0
C888 C 0.18051 0.74342 0.25177 0.0
C889 C 0.24514 0.70966 0.28374 0.0
C890 C 0.23641 0.70858 0.24286 0.0
C891 C 0.21541 0.71965 0.23345 0.0
C892 C 0.24965 0.69743 0.20891 0.0
C893 C 0.26802 0.69879 0.29536 0.0
C894 C 0.25797 0.71091 0.17611 0.0
C895 C 0.27241 0.70117 0.14612 0.0
C896 C 0.2788 0.67768 0.14825 0.0
C897 C 0.2694 0.66392 0.17991 0.0
C898 C 0.25493 0.67371 0.20991 0.0
H899 H 0.27453 0.7052 0.32562 0.0
H900 H 0.26583 0.67974 0.2976 0.0
H901 H 0.28132 0.70234 0.27146 0.0
H902 H 0.254 0.72923 0.17459 0.0
H903 H 0.27926 0.7123 0.12218 0.0
H904 H 0.23188 0.7973 0.61497 0.0
H905 H 0.25695 0.77961 0.66681 0.0
H906 H 0.27609 0.84731 0.71184 0.0
H907 H 0.25038 0.86519 0.66083 0.0
H908 H 0.30201 0.78097 0.68638 0.0
H909 H 0.25068 0.81823 0.81514 0.0
H910 H 0.24134 0.81985 0.76206 0.0
H911 H 0.26294 0.83957 0.78144 0.0
C912 C 0.24167 0.8085 0.63544 0.0
C913 C 0.23891 0.8327 0.634 0.0
C914 C 0.25599 0.79832 0.6652 0.0
C915 C 0.26796 0.81208 0.694 0.0
C916 C 0.26649 0.83629 0.69079 0.0
H917 H 0.36784 0.74627 0.86358 0.0
H918 H 0.35082 0.77159 0.81104 0.0
C919 C 0.25195 0.8465 0.66132 0.0
C920 C 0.28106 0.80092 0.72828 0.0
H921 H 0.28373 0.79653 0.83349 0.0
C922 C 0.29811 0.78446 0.71856 0.0
C923 C 0.27569 0.80518 0.77032 0.0
C924 C 0.25652 0.82149 0.78299 0.0
C925 C 0.30973 0.77196 0.74956 0.0
C926 C 0.30466 0.77654 0.79162 0.0
C927 C 0.28782 0.79321 0.80132 0.0
C928 C 0.31529 0.763 0.82587 0.0
C929 C 0.32655 0.75327 0.73681 0.0
C930 C 0.30103 0.75072 0.85326 0.0
C931 C 0.31068 0.73663 0.88383 0.0
C932 C 0.33487 0.73438 0.88761 0.0
C933 C 0.34915 0.74747 0.86133 0.0
C934 C 0.33944 0.76178 0.83098 0.0
H935 H 0.32398 0.74796 0.70411 0.0
H936 H 0.34451 0.75991 0.73999 0.0
H937 H 0.32476 0.73772 0.75667 0.0
H938 H 0.28235 0.75146 0.85017 0.0
H939 H 0.29912 0.7268 0.90341 0.0
H940 H 0.29871 0.3421 0.8619 0.0
H941 H 0.27691 0.32846 0.80202 0.0
H942 H 0.23341 0.28746 0.88163 0.0
H943 H 0.25492 0.30151 0.94208 0.0
H944 H 0.2747 0.28452 0.77623 0.0
H945 H 0.1856 0.31599 0.80602 0.0
H946 H 0.21042 0.32666 0.83427 0.0
H947 H 0.1974 0.29943 0.84793 0.0
C948 C 0.28424 0.33049 0.86686 0.0
C949 C 0.27858 0.32288 0.90688 0.0
C950 C 0.27179 0.32269 0.83249 0.0
C951 C 0.25337 0.30706 0.83716 0.0
C952 C 0.24721 0.29991 0.87719 0.0
H953 H 0.17812 0.2162 0.6747 0.0
H954 H 0.19322 0.23921 0.73202 0.0
C955 C 0.25958 0.30789 0.91178 0.0
C956 C 0.2421 0.29685 0.79987 0.0
H957 H 0.18987 0.28779 0.75239 0.0
C958 C 0.25618 0.28549 0.77083 0.0
C959 C 0.21791 0.29803 0.79278 0.0
C960 C 0.20196 0.31087 0.82169 0.0
C961 C 0.24674 0.27481 0.73558 0.0
C962 C 0.22255 0.27573 0.72877 0.0
C963 C 0.20843 0.28722 0.75756 0.0
C964 C 0.21156 0.26352 0.69332 0.0
C965 C 0.26265 0.26193 0.70659 0.0
C966 C 0.21627 0.26995 0.65231 0.0
C967 C 0.20759 0.2568 0.61922 0.0
C968 C 0.19412 0.23695 0.62666 0.0
C969 C 0.18861 0.23125 0.66778 0.0
C970 C 0.19716 0.24443 0.70068 0.0
H971 H 0.28008 0.2591 0.72031 0.0
H972 H 0.25515 0.24486 0.69808 0.0
H973 H 0.26481 0.27211 0.67782 0.0
H974 H 0.22712 0.28481 0.64594 0.0
H975 H 0.21214 0.26167 0.58799 0.0
H976 H 0.71801 0.2551 0.94254 0.0
H977 H 0.73243 0.23361 0.88226 0.0
H978 H 0.68516 0.271 0.8036 0.0
H979 H 0.67108 0.29276 0.86314 0.0
H980 H 0.71229 0.20574 0.82055 0.0
H981 H 0.74783 0.28664 0.75367 0.0
H982 H 0.7376 0.28497 0.80619 0.0
H983 H 0.71736 0.28804 0.76422 0.0
C984 C 0.71042 0.25843 0.91251 0.0
C985 C 0.6936 0.27582 0.90758 0.0
C986 C 0.71873 0.2462 0.87806 0.0
C987 C 0.71029 0.25113 0.83824 0.0
C988 C 0.69238 0.26734 0.8338 0.0
H989 H 0.75334 0.21001 0.58946 0.0
H990 H 0.73066 0.22399 0.64859 0.0
C991 C 0.68425 0.27967 0.86798 0.0
C992 C 0.72091 0.24029 0.80107 0.0
H993 H 0.74928 0.2532 0.7114 0.0
C994 C 0.72041 0.21609 0.7967 0.0
C995 C 0.73156 0.25382 0.76994 0.0
C996 C 0.73386 0.27978 0.7738 0.0
C997 C 0.73 0.20512 0.76183 0.0
C998 C 0.74056 0.21868 0.73073 0.0
C999 C 0.74094 0.24285 0.73501 0.0
C1000 C 0.75268 0.20819 0.69479 0.0
C1001 C 0.72857 0.17912 0.75833 0.0
C1002 C 0.77248 0.19458 0.70111 0.0
C1003 C 0.78547 0.18669 0.66753 0.0
C1004 C 0.77899 0.19225 0.62676 0.0
C1005 C 0.75872 0.20529 0.62038 0.0
C1006 C 0.74579 0.21334 0.65415 0.0
H1007 H 0.71471 0.17192 0.77832 0.0
H1008 H 0.72526 0.17371 0.7259 0.0
H1009 H 0.7453 0.17147 0.76827 0.0
H1010 H 0.77839 0.19073 0.73212 0.0
H1011 H 0.80097 0.17668 0.67365 0.0
H1012 H 0.75899 0.71614 0.94179 0.0
H1013 H 0.78058 0.72983 0.88124 0.0
H1014 H 0.73929 0.68582 0.80245 0.0
H1015 H 0.71745 0.67248 0.86228 0.0
H1016 H 0.80643 0.70836 0.8184 0.0
H1017 H 0.72743 0.74974 0.75432 0.0
H1018 H 0.7289 0.73901 0.80655 0.0
H1019 H 0.7241 0.71936 0.7642 0.0
C1020 C 0.75476 0.70913 0.91164 0.0
C1021 C 0.73631 0.69344 0.90683 0.0
C1022 C 0.76707 0.71701 0.87704 0.0
C1023 C 0.76116 0.70928 0.83716 0.0
C1024 C 0.74375 0.69251 0.83273 0.0
H1025 H 0.80221 0.75267 0.5888 0.0
H1026 H 0.78763 0.72995 0.6473 0.0
C1027 C 0.73137 0.6848 0.86707 0.0
C1028 C 0.77234 0.71944 0.79998 0.0
H1029 H 0.76054 0.7494 0.7114 0.0
C1030 C 0.79641 0.71735 0.79502 0.0
C1031 C 0.75926 0.73122 0.76945 0.0
C1032 C 0.73354 0.7352 0.77396 0.0
C1033 C 0.8077 0.72648 0.76015 0.0
C1034 C 0.7946 0.73822 0.72967 0.0
C1035 C 0.77053 0.74017 0.73452 0.0
C1036 C 0.80556 0.75005 0.69393 0.0
C1037 C 0.83353 0.72333 0.75601 0.0
C1038 C 0.82062 0.76873 0.70067 0.0
C1039 C 0.82888 0.78173 0.66746 0.0
C1040 C 0.82222 0.7764 0.62664 0.0
C1041 C 0.8078 0.75714 0.61976 0.0
C1042 C 0.79939 0.7442 0.65317 0.0
H1043 H 0.8399 0.7087 0.77516 0.0
H1044 H 0.83845 0.72018 0.72333 0.0
H1045 H 0.8424 0.73932 0.76664 0.0
H1046 H 0.82529 0.77386 0.7318 0.0
H1047 H 0.83996 0.79644 0.67395 0.0
loop_
_geom_bond_atom_site_label_1
_geom_bond_atom_site_label_2
_geom_bond_distance
_geom_bond_site_symmetry_2
_ccdc_geom_bond_type
Co0 O2 2.143 1_556 S
Co0 O8 2.074 . S
Co0 O11 2.093 . S
Co0 O24 2.097 . S
Co0 N41 2.151 . S
Co0 N49 2.214 . S
Co1 O2 2.160 . S
Co1 O7 2.058 . S
Co1 O17 2.057 . S
Co1 O32 2.037 . S
Co1 N36 2.145 . S
Co1 N57 2.257 . S
O2 Co0 2.143 1_554 S
O2 Co1 2.160 . S
C3 O4 1.278 . S
C3 O11 1.224 . S
O4 C3 1.278 . S
C5 O6 1.245 . S
C5 O17 1.232 . S
O6 C5 1.245 . S
O7 Co1 2.058 . S
O7 C33 1.269 . S
O8 Co0 2.074 . S
O8 C33 1.257 1_556 S
H9 C34 0.930 . S
H10 C40 0.930 . S
O11 Co0 2.093 . S
O11 C3 1.224 . S
H12 C44 0.929 . S
H13 C46 0.930 . S
H14 C47 0.930 . S
H15 C45 0.929 . S
H16 C48 0.928 . S
O17 Co1 2.057 . S
O17 C5 1.232 . S
H18 C37 0.929 . S
H19 C38 0.929 . S
H20 C50 0.931 . S
H21 C42 0.929 . S
H22 C51 0.930 . S
H23 C43 0.931 . S
O24 Co0 2.097 . S
O24 C52 1.214 . S
H25 C53 0.929 . S
H26 C54 0.929 . S
H27 C55 0.930 . S
H28 C56 0.929 . S
H29 C58 0.930 . S
H30 C35 0.930 . S
H31 C39 0.930 . S
O32 Co1 2.037 . S
O32 C52 1.234 1_554 S
C33 O7 1.269 . S
C33 O8 1.257 1_554 S
C34 H9 0.930 . S
C34 C37 1.388 . S
C34 C39 1.418 . S
C35 H30 0.930 . S
C35 C38 1.404 . S
C35 C39 1.353 . S
N36 Co1 2.145 . S
N36 C37 1.397 . S
N36 C38 1.334 . S
C37 H18 0.929 . S
C37 C34 1.388 . S
C37 N36 1.397 . S
C38 H19 0.929 . S
C38 C35 1.404 . S
C38 N36 1.334 . S
C39 H31 0.930 . S
C39 C34 1.418 . S
C39 C35 1.353 . S
C40 H10 0.930 . S
C40 N41 1.330 . S
C40 C42 1.446 . S
N41 Co0 2.151 . S
N41 C40 1.330 . S
N41 C45 1.418 . S
C42 H21 0.929 . S
C42 C40 1.446 . S
C42 C43 1.332 . S
C43 H23 0.931 . S
C43 C42 1.332 . S
C43 C44 1.267 . S
C44 H12 0.929 . S
C44 C43 1.267 . S
C44 C45 1.251 . S
C45 H15 0.929 . S
C45 N41 1.418 . S
C45 C44 1.251 . S
C46 H13 0.930 . S
C46 C48 1.406 . S
C46 C51 1.261 . S
C47 H14 0.930 . S
C47 N49 1.325 . S
C47 C50 1.357 . S
C48 H16 0.928 . S
C48 C46 1.406 . S
C48 N49 1.261 . S
N49 Co0 2.214 . S
N49 C47 1.325 . S
N49 C48 1.261 . S
C50 H20 0.931 . S
C50 C47 1.357 . S
C50 C51 1.312 . S
C51 H22 0.930 . S
C51 C46 1.261 . S
C51 C50 1.312 . S
C52 O24 1.214 . S
C52 O32 1.234 1_556 S
C53 H25 0.929 . S
C53 C56 1.391 . S
C53 C58 1.391 . S
C54 H26 0.929 . S
C54 C55 1.390 . S
C54 N57 1.391 . S
C55 H27 0.930 . S
C55 C54 1.390 . S
C55 C56 1.392 . S
C56 H28 0.929 . S
C56 C53 1.391 . S
C56 C55 1.392 . S
N57 Co1 2.257 . S
N57 C54 1.391 . S
N57 C58 1.388 . S
C58 H29 0.930 . S
C58 C53 1.391 . S
C58 N57 1.388 . S
Co59 O61 2.143 . S
Co59 O67 2.074 . S
Co59 O70 2.093 . S
Co59 O83 2.097 . S
Co59 N100 2.151 . S
Co59 N108 2.214 . S
Co60 O61 2.160 1_556 S
Co60 O66 2.058 . S
Co60 O76 2.057 . S
Co60 O91 2.037 . S
Co60 N95 2.145 . S
Co60 N116 2.257 . S
O61 Co59 2.143 . S
O61 Co60 2.160 1_554 S
C62 O63 1.278 . S
C62 O70 1.224 . S
O63 C62 1.278 . S
C64 O65 1.245 . S
C64 O76 1.232 . S
O65 C64 1.245 . S
O66 Co60 2.058 . S
O66 C92 1.269 . S
O67 Co59 2.074 . S
O67 C92 1.257 1_554 S
H68 C93 0.930 . S
H69 C99 0.930 . S
O70 Co59 2.093 . S
O70 C62 1.224 . S
H71 C103 0.929 . S
H72 C105 0.930 . S
H73 C106 0.930 . S
H74 C104 0.929 . S
H75 C107 0.928 . S
O76 Co60 2.057 . S
O76 C64 1.232 . S
H77 C96 0.929 . S
H78 C97 0.929 . S
H79 C109 0.931 . S
H80 C101 0.929 . S
H81 C110 0.930 . S
H82 C102 0.931 . S
O83 Co59 2.097 . S
O83 C111 1.214 . S
H84 C112 0.929 . S
H85 C113 0.929 . S
H86 C114 0.930 . S
H87 C115 0.929 . S
H88 C117 0.930 . S
H89 C94 0.930 . S
H90 C98 0.930 . S
O91 Co60 2.037 . S
O91 C111 1.234 1_556 S
C92 O66 1.269 . S
C92 O67 1.257 1_556 S
C93 H68 0.930 . S
C93 C96 1.388 . S
C93 C98 1.418 . S
C94 H89 0.930 . S
C94 C97 1.404 . S
C94 C98 1.353 . S
N95 Co60 2.145 . S
N95 C96 1.397 . S
N95 C97 1.334 . S
C96 H77 0.929 . S
C96 C93 1.388 . S
C96 N95 1.397 . S
C97 H78 0.929 . S
C97 C94 1.404 . S
C97 N95 1.334 . S
C98 H90 0.930 . S
C98 C93 1.418 . S
C98 C94 1.353 . S
C99 H69 0.930 . S
C99 N100 1.330 . S
C99 C101 1.446 . S
N100 Co59 2.151 . S
N100 C99 1.330 . S
N100 C104 1.418 . S
C101 H80 0.929 . S
C101 C99 1.446 . S
C101 C102 1.332 . S
C102 H82 0.931 . S
C102 C101 1.332 . S
C102 C103 1.267 . S
C103 H71 0.929 . S
C103 C102 1.267 . S
C103 C104 1.251 . S
C104 H74 0.929 . S
C104 N100 1.418 . S
C104 C103 1.251 . S
C105 H72 0.930 . S
C105 C107 1.406 . S
C105 C110 1.261 . S
C106 H73 0.930 . S
C106 N108 1.325 . S
C106 C109 1.357 . S
C107 H75 0.928 . S
C107 C105 1.406 . S
C107 N108 1.261 . S
N108 Co59 2.214 . S
N108 C106 1.325 . S
N108 C107 1.261 . S
C109 H79 0.931 . S
C109 C106 1.357 . S
C109 C110 1.312 . S
C110 H81 0.930 . S
C110 C105 1.261 . S
C110 C109 1.312 . S
C111 O83 1.214 . S
C111 O91 1.234 1_554 S
C112 H84 0.929 . S
C112 C115 1.391 . S
C112 C117 1.391 . S
C113 H85 0.929 . S
C113 C114 1.390 . S
C113 N116 1.391 . S
C114 H86 0.930 . S
C114 C113 1.390 . S
C114 C115 1.392 . S
C115 H87 0.929 . S
C115 C112 1.391 . S
C115 C114 1.392 . S
N116 Co60 2.257 . S
N116 C113 1.391 . S
N116 C117 1.388 . S
C117 H88 0.930 . S
C117 C112 1.391 . S
C117 N116 1.388 . S
Co118 O120 2.143 . S
Co118 O126 2.074 . S
Co118 O129 2.093 . S
Co118 O142 2.097 . S
Co118 N159 2.151 . S
Co118 N167 2.214 . S
Co119 O120 2.160 1_556 S
Co119 O125 2.058 . S
Co119 O135 2.057 . S
Co119 O150 2.037 . S
Co119 N154 2.145 . S
Co119 N175 2.257 . S
O120 Co118 2.143 . S
O120 Co119 2.160 1_554 S
C121 O122 1.278 . S
C121 O129 1.224 . S
O122 C121 1.278 . S
C123 O124 1.245 . S
C123 O135 1.232 . S
O124 C123 1.245 . S
O125 Co119 2.058 . S
O125 C151 1.269 . S
O126 Co118 2.074 . S
O126 C151 1.257 1_554 S
H127 C152 0.930 . S
H128 C158 0.930 . S
O129 Co118 2.093 . S
O129 C121 1.224 . S
H130 C162 0.929 . S
H131 C164 0.930 . S
H132 C165 0.930 . S
H133 C163 0.929 . S
H134 C166 0.928 . S
O135 Co119 2.057 . S
O135 C123 1.232 . S
H136 C155 0.929 . S
H137 C156 0.929 . S
H138 C168 0.931 . S
H139 C160 0.929 . S
H140 C169 0.930 . S
H141 C161 0.931 . S
O142 Co118 2.097 . S
O142 C170 1.214 . S
H143 C171 0.929 . S
H144 C172 0.929 . S
H145 C173 0.930 . S
H146 C174 0.929 . S
H147 C176 0.930 . S
H148 C153 0.930 . S
H149 C157 0.930 . S
O150 Co119 2.037 . S
O150 C170 1.234 1_556 S
C151 O125 1.269 . S
C151 O126 1.257 1_556 S
C152 H127 0.930 . S
C152 C155 1.388 . S
C152 C157 1.418 . S
C153 H148 0.930 . S
C153 C156 1.404 . S
C153 C157 1.353 . S
N154 Co119 2.145 . S
N154 C155 1.397 . S
N154 C156 1.334 . S
C155 H136 0.929 . S
C155 C152 1.388 . S
C155 N154 1.397 . S
C156 H137 0.929 . S
C156 C153 1.404 . S
C156 N154 1.334 . S
C157 H149 0.930 . S
C157 C152 1.418 . S
C157 C153 1.353 . S
C158 H128 0.930 . S
C158 N159 1.330 . S
C158 C160 1.446 . S
N159 Co118 2.151 . S
N159 C158 1.330 . S
N159 C163 1.418 . S
C160 H139 0.929 . S
C160 C158 1.446 . S
C160 C161 1.332 . S
C161 H141 0.931 . S
C161 C160 1.332 . S
C161 C162 1.267 . S
C162 H130 0.929 . S
C162 C161 1.267 . S
C162 C163 1.251 . S
C163 H133 0.929 . S
C163 N159 1.418 . S
C163 C162 1.251 . S
C164 H131 0.930 . S
C164 C166 1.406 . S
C164 C169 1.261 . S
C165 H132 0.930 . S
C165 N167 1.325 . S
C165 C168 1.357 . S
C166 H134 0.928 . S
C166 C164 1.406 . S
C166 N167 1.261 . S
N167 Co118 2.214 . S
N167 C165 1.325 . S
N167 C166 1.261 . S
C168 H138 0.931 . S
C168 C165 1.357 . S
C168 C169 1.312 . S
C169 H140 0.930 . S
C169 C164 1.261 . S
C169 C168 1.312 . S
C170 O142 1.214 . S
C170 O150 1.234 1_554 S
C171 H143 0.929 . S
C171 C174 1.391 . S
C171 C176 1.391 . S
C172 H144 0.929 . S
C172 C173 1.390 . S
C172 N175 1.391 . S
C173 H145 0.930 . S
C173 C172 1.390 . S
C173 C174 1.392 . S
C174 H146 0.929 . S
C174 C171 1.391 . S
C174 C173 1.392 . S
N175 Co119 2.257 . S
N175 C172 1.391 . S
N175 C176 1.388 . S
C176 H147 0.930 . S
C176 C171 1.391 . S
C176 N175 1.388 . S
Co177 O179 2.143 1_556 S
Co177 O185 2.074 . S
Co177 O188 2.093 . S
Co177 O201 2.097 . S
Co177 N218 2.151 . S
Co177 N226 2.214 . S
Co178 O179 2.160 . S
Co178 O184 2.058 . S
Co178 O194 2.057 . S
Co178 O209 2.037 . S
Co178 N213 2.145 . S
Co178 N234 2.257 . S
O179 Co177 2.143 1_554 S
O179 Co178 2.160 . S
C180 O181 1.278 . S
C180 O188 1.224 . S
O181 C180 1.278 . S
C182 O183 1.245 . S
C182 O194 1.232 . S
O183 C182 1.245 . S
O184 Co178 2.058 . S
O184 C210 1.269 . S
O185 Co177 2.074 . S
O185 C210 1.257 1_556 S
H186 C211 0.930 . S
H187 C217 0.930 . S
O188 Co177 2.093 . S
O188 C180 1.224 . S
H189 C221 0.929 . S
H190 C223 0.930 . S
H191 C224 0.930 . S
H192 C222 0.929 . S
H193 C225 0.928 . S
O194 Co178 2.057 . S
O194 C182 1.232 . S
H195 C214 0.929 . S
H196 C215 0.929 . S
H197 C227 0.931 . S
H198 C219 0.929 . S
H199 C228 0.930 . S
H200 C220 0.931 . S
O201 Co177 2.097 . S
O201 C229 1.214 . S
H202 C230 0.929 . S
H203 C231 0.929 . S
H204 C232 0.930 . S
H205 C233 0.929 . S
H206 C235 0.930 . S
H207 C212 0.930 . S
H208 C216 0.930 . S
O209 Co178 2.037 . S
O209 C229 1.234 1_554 S
C210 O184 1.269 . S
C210 O185 1.257 1_554 S
C211 H186 0.930 . S
C211 C214 1.388 . S
C211 C216 1.418 . S
C212 H207 0.930 . S
C212 C215 1.404 . S
C212 C216 1.353 . S
N213 Co178 2.145 . S
N213 C214 1.397 . S
N213 C215 1.334 . S
C214 H195 0.929 . S
C214 C211 1.388 . S
C214 N213 1.397 . S
C215 H196 0.929 . S
C215 C212 1.404 . S
C215 N213 1.334 . S
C216 H208 0.930 . S
C216 C211 1.418 . S
C216 C212 1.353 . S
C217 H187 0.930 . S
C217 N218 1.330 . S
C217 C219 1.446 . S
N218 Co177 2.151 . S
N218 C217 1.330 . S
N218 C222 1.418 . S
C219 H198 0.929 . S
C219 C217 1.446 . S
C219 C220 1.332 . S
C220 H200 0.931 . S
C220 C219 1.332 . S
C220 C221 1.267 . S
C221 H189 0.929 . S
C221 C220 1.267 . S
C221 C222 1.251 . S
C222 H192 0.929 . S
C222 N218 1.418 . S
C222 C221 1.251 . S
C223 H190 0.930 . S
C223 C225 1.406 . S
C223 C228 1.261 . S
C224 H191 0.930 . S
C224 N226 1.325 . S
C224 C227 1.357 . S
C225 H193 0.928 . S
C225 C223 1.406 . S
C225 N226 1.261 . S
N226 Co177 2.214 . S
N226 C224 1.325 . S
N226 C225 1.261 . S
C227 H197 0.931 . S
C227 C224 1.357 . S
C227 C228 1.312 . S
C228 H199 0.930 . S
C228 C223 1.261 . S
C228 C227 1.312 . S
C229 O201 1.214 . S
C229 O209 1.234 1_556 S
C230 H202 0.929 . S
C230 C233 1.391 . S
C230 C235 1.391 . S
C231 H203 0.929 . S
C231 C232 1.390 . S
C231 N234 1.391 . S
C232 H204 0.930 . S
C232 C231 1.390 . S
C232 C233 1.392 . S
C233 H205 0.929 . S
C233 C230 1.391 . S
C233 C232 1.392 . S
N234 Co178 2.257 . S
N234 C231 1.391 . S
N234 C235 1.388 . S
C235 H206 0.930 . S
C235 C230 1.391 . S
C235 N234 1.388 . S
Co236 O238 2.143 . S
Co236 O244 2.074 . S
Co236 O247 2.093 . S
Co236 O260 2.097 . S
Co236 N277 2.151 . S
Co236 N285 2.214 . S
Co237 O238 2.160 . S
Co237 O243 2.058 . S
Co237 O253 2.057 . S
Co237 O268 2.037 . S
Co237 N272 2.145 . S
Co237 N293 2.257 . S
O238 Co236 2.143 . S
O238 Co237 2.160 . S
C239 O240 1.278 . S
C239 O247 1.224 . S
O240 C239 1.278 . S
C241 O242 1.245 . S
C241 O253 1.232 . S
O242 C241 1.245 . S
O243 Co237 2.058 . S
O243 C269 1.269 . S
O244 Co236 2.074 . S
O244 C269 1.257 . S
H245 C270 0.930 . S
H246 C276 0.930 . S
O247 Co236 2.093 . S
O247 C239 1.224 . S
H248 C280 0.929 . S
H249 C282 0.930 . S
H250 C283 0.930 . S
H251 C281 0.929 . S
H252 C284 0.928 . S
O253 Co237 2.057 . S
O253 C241 1.232 . S
H254 C273 0.929 . S
H255 C274 0.929 . S
H256 C286 0.931 . S
H257 C278 0.929 . S
H258 C287 0.930 . S
H259 C279 0.931 . S
O260 Co236 2.097 . S
O260 C288 1.214 . S
H261 C289 0.929 . S
H262 C290 0.929 . S
H263 C291 0.930 . S
H264 C292 0.929 . S
H265 C294 0.930 . S
H266 C271 0.930 . S
H267 C275 0.930 . S
O268 Co237 2.037 . S
O268 C288 1.234 . S
C269 O243 1.269 . S
C269 O244 1.257 . S
C270 H245 0.930 . S
C270 C273 1.388 . S
C270 C275 1.418 . S
C271 H266 0.930 . S
C271 C274 1.404 . S
C271 C275 1.353 . S
N272 Co237 2.145 . S
N272 C273 1.397 . S
N272 C274 1.334 . S
C273 H254 0.929 . S
C273 C270 1.388 . S
C273 N272 1.397 . S
C274 H255 0.929 . S
C274 C271 1.404 . S
C274 N272 1.334 . S
C275 H267 0.930 . S
C275 C270 1.418 . S
C275 C271 1.353 . S
C276 H246 0.930 . S
C276 N277 1.330 . S
C276 C278 1.446 . S
N277 Co236 2.151 . S
N277 C276 1.330 . S
N277 C281 1.418 . S
C278 H257 0.929 . S
C278 C276 1.446 . S
C278 C279 1.332 . S
C279 H259 0.931 . S
C279 C278 1.332 . S
C279 C280 1.267 . S
C280 H248 0.929 . S
C280 C279 1.267 . S
C280 C281 1.251 . S
C281 H251 0.929 . S
C281 N277 1.418 . S
C281 C280 1.251 . S
C282 H249 0.930 . S
C282 C284 1.406 . S
C282 C287 1.261 . S
C283 H250 0.930 . S
C283 N285 1.325 . S
C283 C286 1.357 . S
C284 H252 0.928 . S
C284 C282 1.406 . S
C284 N285 1.261 . S
N285 Co236 2.214 . S
N285 C283 1.325 . S
N285 C284 1.261 . S
C286 H256 0.931 . S
C286 C283 1.357 . S
C286 C287 1.312 . S
C287 H258 0.930 . S
C287 C282 1.261 . S
C287 C286 1.312 . S
C288 O260 1.214 . S
C288 O268 1.234 . S
C289 H261 0.929 . S
C289 C292 1.391 . S
C289 C294 1.391 . S
C290 H262 0.929 . S
C290 C291 1.390 . S
C290 N293 1.391 . S
C291 H263 0.930 . S
C291 C290 1.390 . S
C291 C292 1.392 . S
C292 H264 0.929 . S
C292 C289 1.391 . S
C292 C291 1.392 . S
N293 Co237 2.257 . S
N293 C290 1.391 . S
N293 C294 1.388 . S
C294 H265 0.930 . S
C294 C289 1.391 . S
C294 N293 1.388 . S
Co295 O297 2.143 . S
Co295 O303 2.074 . S
Co295 O306 2.093 . S
Co295 O319 2.097 . S
Co295 N336 2.151 . S
Co295 N344 2.214 . S
Co296 O297 2.160 . S
Co296 O302 2.058 . S
Co296 O312 2.057 . S
Co296 O327 2.037 . S
Co296 N331 2.145 . S
Co296 N352 2.257 . S
O297 Co295 2.143 . S
O297 Co296 2.160 . S
C298 O299 1.278 . S
C298 O306 1.224 . S
O299 C298 1.278 . S
C300 O301 1.245 . S
C300 O312 1.232 . S
O301 C300 1.245 . S
O302 Co296 2.058 . S
O302 C328 1.269 . S
O303 Co295 2.074 . S
O303 C328 1.257 . S
H304 C329 0.930 . S
H305 C335 0.930 . S
O306 Co295 2.093 . S
O306 C298 1.224 . S
H307 C339 0.929 . S
H308 C341 0.930 . S
H309 C342 0.930 . S
H310 C340 0.929 . S
H311 C343 0.928 . S
O312 Co296 2.057 . S
O312 C300 1.232 . S
H313 C332 0.929 . S
H314 C333 0.929 . S
H315 C345 0.931 . S
H316 C337 0.929 . S
H317 C346 0.930 . S
H318 C338 0.931 . S
O319 Co295 2.097 . S
O319 C347 1.214 . S
H320 C348 0.929 . S
H321 C349 0.929 . S
H322 C350 0.930 . S
H323 C351 0.929 . S
H324 C353 0.930 . S
H325 C330 0.930 . S
H326 C334 0.930 . S
O327 Co296 2.037 . S
O327 C347 1.234 . S
C328 O302 1.269 . S
C328 O303 1.257 . S
C329 H304 0.930 . S
C329 C332 1.388 . S
C329 C334 1.418 . S
C330 H325 0.930 . S
C330 C333 1.404 . S
C330 C334 1.353 . S
N331 Co296 2.145 . S
N331 C332 1.397 . S
N331 C333 1.334 . S
C332 H313 0.929 . S
C332 C329 1.388 . S
C332 N331 1.397 . S
C333 H314 0.929 . S
C333 C330 1.404 . S
C333 N331 1.334 . S
C334 H326 0.930 . S
C334 C329 1.418 . S
C334 C330 1.353 . S
C335 H305 0.930 . S
C335 N336 1.330 . S
C335 C337 1.446 . S
N336 Co295 2.151 . S
N336 C335 1.330 . S
N336 C340 1.418 . S
C337 H316 0.929 . S
C337 C335 1.446 . S
C337 C338 1.332 . S
C338 H318 0.931 . S
C338 C337 1.332 . S
C338 C339 1.267 . S
C339 H307 0.929 . S
C339 C338 1.267 . S
C339 C340 1.251 . S
C340 H310 0.929 . S
C340 N336 1.418 . S
C340 C339 1.251 . S
C341 H308 0.930 . S
C341 C343 1.406 . S
C341 C346 1.261 . S
C342 H309 0.930 . S
C342 N344 1.325 . S
C342 C345 1.357 . S
C343 H311 0.928 . S
C343 C341 1.406 . S
C343 N344 1.261 . S
N344 Co295 2.214 . S
N344 C342 1.325 . S
N344 C343 1.261 . S
C345 H315 0.931 . S
C345 C342 1.357 . S
C345 C346 1.312 . S
C346 H317 0.930 . S
C346 C341 1.261 . S
C346 C345 1.312 . S
C347 O319 1.214 . S
C347 O327 1.234 . S
C348 H320 0.929 . S
C348 C351 1.391 . S
C348 C353 1.391 . S
C349 H321 0.929 . S
C349 C350 1.390 . S
C349 N352 1.391 . S
C350 H322 0.930 . S
C350 C349 1.390 . S
C350 C351 1.392 . S
C351 H323 0.929 . S
C351 C348 1.391 . S
C351 C350 1.392 . S
N352 Co296 2.257 . S
N352 C349 1.391 . S
N352 C353 1.388 . S
C353 H324 0.930 . S
C353 C348 1.391 . S
C353 N352 1.388 . S
Co354 O356 2.143 . S
Co354 O362 2.074 . S
Co354 O365 2.093 . S
Co354 O378 2.097 . S
Co354 N395 2.151 . S
Co354 N403 2.214 . S
Co355 O356 2.160 . S
Co355 O361 2.058 . S
Co355 O371 2.057 . S
Co355 O386 2.037 . S
Co355 N390 2.145 . S
Co355 N411 2.257 . S
O356 Co354 2.143 . S
O356 Co355 2.160 . S
C357 O358 1.278 . S
C357 O365 1.224 . S
O358 C357 1.278 . S
C359 O360 1.245 . S
C359 O371 1.232 . S
O360 C359 1.245 . S
O361 Co355 2.058 . S
O361 C387 1.269 . S
O362 Co354 2.074 . S
O362 C387 1.257 . S
H363 C388 0.930 . S
H364 C394 0.930 . S
O365 Co354 2.093 . S
O365 C357 1.224 . S
H366 C398 0.929 . S
H367 C400 0.930 . S
H368 C401 0.930 . S
H369 C399 0.929 . S
H370 C402 0.928 . S
O371 Co355 2.057 . S
O371 C359 1.232 . S
H372 C391 0.929 . S
H373 C392 0.929 . S
H374 C404 0.931 . S
H375 C396 0.929 . S
H376 C405 0.930 . S
H377 C397 0.931 . S
O378 Co354 2.097 . S
O378 C406 1.214 . S
H379 C407 0.929 . S
H380 C408 0.929 . S
H381 C409 0.930 . S
H382 C410 0.929 . S
H383 C412 0.930 . S
H384 C389 0.930 . S
H385 C393 0.930 . S
O386 Co355 2.037 . S
O386 C406 1.234 . S
C387 O361 1.269 . S
C387 O362 1.257 . S
C388 H363 0.930 . S
C388 C391 1.388 . S
C388 C393 1.418 . S
C389 H384 0.930 . S
C389 C392 1.404 . S
C389 C393 1.353 . S
N390 Co355 2.145 . S
N390 C391 1.397 . S
N390 C392 1.334 . S
C391 H372 0.929 . S
C391 C388 1.388 . S
C391 N390 1.397 . S
C392 H373 0.929 . S
C392 C389 1.404 . S
C392 N390 1.334 . S
C393 H385 0.930 . S
C393 C388 1.418 . S
C393 C389 1.353 . S
C394 H364 0.930 . S
C394 N395 1.330 . S
C394 C396 1.446 . S
N395 Co354 2.151 . S
N395 C394 1.330 . S
N395 C399 1.418 . S
C396 H375 0.929 . S
C396 C394 1.446 . S
C396 C397 1.332 . S
C397 H377 0.931 . S
C397 C396 1.332 . S
C397 C398 1.267 . S
C398 H366 0.929 . S
C398 C397 1.267 . S
C398 C399 1.251 . S
C399 H369 0.929 . S
C399 N395 1.418 . S
C399 C398 1.251 . S
C400 H367 0.930 . S
C400 C402 1.406 . S
C400 C405 1.261 . S
C401 H368 0.930 . S
C401 N403 1.325 . S
C401 C404 1.357 . S
C402 H370 0.928 . S
C402 C400 1.406 . S
C402 N403 1.261 . S
N403 Co354 2.214 . S
N403 C401 1.325 . S
N403 C402 1.261 . S
C404 H374 0.931 . S
C404 C401 1.357 . S
C404 C405 1.312 . S
C405 H376 0.930 . S
C405 C400 1.261 . S
C405 C404 1.312 . S
C406 O378 1.214 . S
C406 O386 1.234 . S
C407 H379 0.929 . S
C407 C410 1.391 . S
C407 C412 1.391 . S
C408 H380 0.929 . S
C408 C409 1.390 . S
C408 N411 1.391 . S
C409 H381 0.930 . S
C409 C408 1.390 . S
C409 C410 1.392 . S
C410 H382 0.929 . S
C410 C407 1.391 . S
C410 C409 1.392 . S
N411 Co355 2.257 . S
N411 C408 1.391 . S
N411 C412 1.388 . S
C412 H383 0.930 . S
C412 C407 1.391 . S
C412 N411 1.388 . S
Co413 O415 2.143 . S
Co413 O421 2.074 . S
Co413 O424 2.093 . S
Co413 O437 2.097 . S
Co413 N454 2.151 . S
Co413 N462 2.214 . S
Co414 O415 2.160 . S
Co414 O420 2.058 . S
Co414 O430 2.057 . S
Co414 O445 2.037 . S
Co414 N449 2.145 . S
Co414 N470 2.257 . S
O415 Co413 2.143 . S
O415 Co414 2.160 . S
C416 O417 1.278 . S
C416 O424 1.224 . S
O417 C416 1.278 . S
C418 O419 1.245 . S
C418 O430 1.232 . S
O419 C418 1.245 . S
O420 Co414 2.058 . S
O420 C446 1.269 . S
O421 Co413 2.074 . S
O421 C446 1.257 . S
H422 C447 0.930 . S
H423 C453 0.930 . S
O424 Co413 2.093 . S
O424 C416 1.224 . S
H425 C457 0.929 . S
H426 C459 0.930 . S
H427 C460 0.930 . S
H428 C458 0.929 . S
H429 C461 0.928 . S
O430 Co414 2.057 . S
O430 C418 1.232 . S
H431 C450 0.929 . S
H432 C451 0.929 . S
H433 C463 0.931 . S
H434 C455 0.929 . S
H435 C464 0.930 . S
H436 C456 0.931 . S
O437 Co413 2.097 . S
O437 C465 1.214 . S
H438 C466 0.929 . S
H439 C467 0.929 . S
H440 C468 0.930 . S
H441 C469 0.929 . S
H442 C471 0.930 . S
H443 C448 0.930 . S
H444 C452 0.930 . S
O445 Co414 2.037 . S
O445 C465 1.234 . S
C446 O420 1.269 . S
C446 O421 1.257 . S
C447 H422 0.930 . S
C447 C450 1.388 . S
C447 C452 1.418 . S
C448 H443 0.930 . S
C448 C451 1.404 . S
C448 C452 1.353 . S
N449 Co414 2.145 . S
N449 C450 1.397 . S
N449 C451 1.334 . S
C450 H431 0.929 . S
C450 C447 1.388 . S
C450 N449 1.397 . S
C451 H432 0.929 . S
C451 C448 1.404 . S
C451 N449 1.334 . S
C452 H444 0.930 . S
C452 C447 1.418 . S
C452 C448 1.353 . S
C453 H423 0.930 . S
C453 N454 1.330 . S
C453 C455 1.446 . S
N454 Co413 2.151 . S
N454 C453 1.330 . S
N454 C458 1.418 . S
C455 H434 0.929 . S
C455 C453 1.446 . S
C455 C456 1.332 . S
C456 H436 0.931 . S
C456 C455 1.332 . S
C456 C457 1.267 . S
C457 H425 0.929 . S
C457 C456 1.267 . S
C457 C458 1.251 . S
C458 H428 0.929 . S
C458 N454 1.418 . S
C458 C457 1.251 . S
C459 H426 0.930 . S
C459 C461 1.406 . S
C459 C464 1.261 . S
C460 H427 0.930 . S
C460 N462 1.325 . S
C460 C463 1.357 . S
C461 H429 0.928 . S
C461 C459 1.406 . S
C461 N462 1.261 . S
N462 Co413 2.214 . S
N462 C460 1.325 . S
N462 C461 1.261 . S
C463 H433 0.931 . S
C463 C460 1.357 . S
C463 C464 1.312 . S
C464 H435 0.930 . S
C464 C459 1.261 . S
C464 C463 1.312 . S
C465 O437 1.214 . S
C465 O445 1.234 . S
C466 H438 0.929 . S
C466 C469 1.391 . S
C466 C471 1.391 . S
C467 H439 0.929 . S
C467 C468 1.390 . S
C467 N470 1.391 . S
C468 H440 0.930 . S
C468 C467 1.390 . S
C468 C469 1.392 . S
C469 H441 0.929 . S
C469 C466 1.391 . S
C469 C468 1.392 . S
N470 Co414 2.257 . S
N470 C467 1.391 . S
N470 C471 1.388 . S
C471 H442 0.930 . S
C471 C466 1.391 . S
C471 N470 1.388 . S
H472 C480 0.929 . S
H473 C482 0.930 . S
H474 C484 0.930 . S
H475 C487 0.929 . S
H476 C490 0.930 . S
H477 C492 0.960 . S
H478 C492 0.960 1_554 S
H479 C492 0.960 . S
C480 H472 0.929 . S
C480 C481 1.377 1_554 S
C480 C482 1.384 . S
C481 C480 1.377 1_556 S
C481 C487 1.390 . S
C482 H473 0.930 . S
C482 C480 1.384 . S
C482 C483 1.372 1_554 S
C483 C482 1.372 1_556 S
C483 C484 1.400 . S
C483 C488 1.487 1_556 S
C484 H474 0.930 . S
C484 C483 1.400 . S
C484 C487 1.386 . S
H485 C501 0.930 . S
H486 C502 0.931 . S
C487 H475 0.929 . S
C487 C481 1.390 . S
C487 C484 1.386 . S
C488 C483 1.487 1_554 S
C488 C490 1.401 . S
C488 C491 1.400 1_554 S
H489 C495 0.929 1_556 S
C490 H476 0.930 . S
C490 C488 1.401 . S
C490 C493 1.403 . S
C491 C488 1.400 1_556 S
C491 C492 1.524 . S
C491 C495 1.398 1_556 S
C492 H477 0.960 . S
C492 H478 0.960 1_556 S
C492 H479 0.960 . S
C492 C491 1.524 . S
C493 C490 1.403 . S
C493 C494 1.392 . S
C493 C497 1.495 . S
C494 C493 1.392 . S
C494 C495 1.388 . S
C494 C496 1.478 . S
C495 H489 0.929 1_554 S
C495 C491 1.398 1_554 S
C495 C494 1.388 . S
C496 C494 1.478 . S
C496 C498 1.381 . S
C496 C502 1.383 1_554 S
C497 C493 1.495 . S
C497 H503 0.959 . S
C497 H504 0.961 . S
C497 H505 0.960 . S
C498 C496 1.381 . S
C498 C499 1.394 . S
C498 H506 0.930 . S
C499 C498 1.394 . S
C499 C500 1.383 . S
C499 H507 0.929 . S
C500 C499 1.383 . S
C500 C501 1.377 1_554 S
C501 H485 0.930 . S
C501 C500 1.377 1_556 S
C501 C502 1.379 . S
C502 H486 0.931 . S
C502 C496 1.383 1_556 S
C502 C501 1.379 . S
H503 C497 0.959 . S
H504 C497 0.961 . S
H505 C497 0.960 . S
H506 C498 0.930 . S
H507 C499 0.929 . S
H508 C516 0.929 . S
H509 C518 0.930 . S
H510 C520 0.930 . S
H511 C523 0.929 . S
H512 C526 0.930 . S
H513 C528 0.960 . S
H514 C528 0.960 . S
H515 C528 0.960 . S
C516 H508 0.929 . S
C516 C517 1.377 1_556 S
C516 C518 1.384 . S
C517 C516 1.377 1_554 S
C517 C523 1.390 . S
C518 H509 0.930 . S
C518 C516 1.384 . S
C518 C519 1.372 1_556 S
C519 C518 1.372 1_554 S
C519 C520 1.400 . S
C519 C524 1.490 . S
C520 H510 0.930 . S
C520 C519 1.400 . S
C520 C523 1.386 . S
H521 C537 0.930 . S
H522 C538 0.931 . S
C523 H511 0.929 . S
C523 C517 1.390 . S
C523 C520 1.386 . S
C524 C519 1.490 . S
C524 C526 1.395 1_554 S
C524 C527 1.403 . S
H525 C531 0.930 . S
C526 H512 0.930 . S
C526 C524 1.395 1_556 S
C526 C529 1.403 . S
C527 C524 1.403 . S
C527 C528 1.524 . S
C527 C531 1.400 . S
C528 H513 0.960 . S
C528 H514 0.960 . S
C528 H515 0.960 . S
C528 C527 1.524 . S
C529 C526 1.403 . S
C529 C530 1.392 . S
C529 C533 1.495 . S
C530 C529 1.392 . S
C530 C531 1.385 1_556 S
C530 C532 1.478 . S
C531 H525 0.930 . S
C531 C527 1.400 . S
C531 C530 1.385 1_554 S
C532 C530 1.478 . S
C532 C534 1.381 . S
C532 C538 1.383 1_556 S
C533 C529 1.495 . S
C533 H539 0.959 . S
C533 H540 0.961 . S
C533 H541 0.960 . S
C534 C532 1.381 . S
C534 C535 1.394 . S
C534 H542 0.930 . S
C535 C534 1.394 . S
C535 C536 1.383 . S
C535 H543 0.929 . S
C536 C535 1.383 . S
C536 C537 1.377 1_556 S
C537 H521 0.930 . S
C537 C536 1.377 1_554 S
C537 C538 1.379 . S
C538 H522 0.931 . S
C538 C532 1.383 1_554 S
C538 C537 1.379 . S
H539 C533 0.959 . S
H540 C533 0.961 . S
H541 C533 0.960 . S
H542 C534 0.930 . S
H543 C535 0.929 . S
H544 C552 0.929 . S
H545 C554 0.930 . S
H546 C556 0.930 . S
H547 C559 0.929 . S
H548 C562 0.930 . S
H549 C564 0.960 . S
H550 C564 0.960 . S
H551 C564 0.960 . S
C552 H544 0.929 . S
C552 C553 1.377 1_556 S
C552 C554 1.384 . S
C553 C552 1.377 1_554 S
C553 C559 1.390 . S
C554 H545 0.930 . S
C554 C552 1.384 . S
C554 C555 1.372 1_556 S
C555 C554 1.372 1_554 S
C555 C556 1.400 . S
C555 C560 1.490 . S
C556 H546 0.930 . S
C556 C555 1.400 . S
C556 C559 1.386 . S
H557 C573 0.930 . S
H558 C574 0.931 . S
C559 H547 0.929 . S
C559 C553 1.390 . S
C559 C556 1.386 . S
C560 C555 1.490 . S
C560 C562 1.395 1_554 S
C560 C563 1.403 . S
H561 C567 0.930 . S
C562 H548 0.930 . S
C562 C560 1.395 1_556 S
C562 C565 1.403 . S
C563 C560 1.403 . S
C563 C564 1.524 . S
C563 C567 1.400 . S
C564 H549 0.960 . S
C564 H550 0.960 . S
C564 H551 0.960 . S
C564 C563 1.524 . S
C565 C562 1.403 . S
C565 C566 1.392 . S
C565 C569 1.495 . S
C566 C565 1.392 . S
C566 C567 1.385 1_556 S
C566 C568 1.478 . S
C567 H561 0.930 . S
C567 C563 1.400 . S
C567 C566 1.385 1_554 S
C568 C566 1.478 . S
C568 C570 1.381 . S
C568 C574 1.383 1_556 S
C569 C565 1.495 . S
C569 H575 0.959 . S
C569 H576 0.961 . S
C569 H577 0.960 . S
C570 C568 1.381 . S
C570 C571 1.394 . S
C570 H578 0.930 . S
C571 C570 1.394 . S
C571 C572 1.383 . S
C571 H579 0.929 . S
C572 C571 1.383 . S
C572 C573 1.377 1_556 S
C573 H557 0.930 . S
C573 C572 1.377 1_554 S
C573 C574 1.379 . S
C574 H558 0.931 . S
C574 C568 1.383 1_554 S
C574 C573 1.379 . S
H575 C569 0.959 . S
H576 C569 0.961 . S
H577 C569 0.960 . S
H578 C570 0.930 . S
H579 C571 0.929 . S
H580 C588 0.929 . S
H581 C590 0.930 . S
H582 C592 0.930 . S
H583 C595 0.929 . S
H584 C598 0.930 . S
H585 C600 0.960 . S
H586 C600 0.960 . S
H587 C600 0.960 . S
C588 H580 0.929 . S
C588 C589 1.377 . S
C588 C590 1.384 . S
C589 C588 1.377 . S
C589 C595 1.390 1_556 S
C590 H581 0.930 . S
C590 C588 1.384 . S
C590 C591 1.372 . S
C591 C590 1.372 . S
C591 C592 1.400 1_556 S
C591 C596 1.490 . S
C592 H582 0.930 . S
C592 C591 1.400 1_554 S
C592 C595 1.386 . S
H593 C609 0.930 . S
H594 C610 0.931 . S
C595 H583 0.929 . S
C595 C589 1.390 1_554 S
C595 C592 1.386 . S
C596 C591 1.490 . S
C596 C598 1.395 . S
C596 C599 1.403 1_556 S
H597 C603 0.930 . S
C598 H584 0.930 . S
C598 C596 1.395 . S
C598 C601 1.403 . S
C599 C596 1.403 1_554 S
C599 C600 1.524 . S
C599 C603 1.400 . S
C600 H585 0.960 . S
C600 H586 0.960 . S
C600 H587 0.960 . S
C600 C599 1.524 . S
C601 C598 1.403 . S
C601 C602 1.392 1_556 S
C601 C605 1.495 . S
C602 C601 1.392 1_554 S
C602 C603 1.385 . S
C602 C604 1.478 . S
C603 H597 0.930 . S
C603 C599 1.400 . S
C603 C602 1.385 . S
C604 C602 1.478 . S
C604 C606 1.381 1_554 S
C604 C610 1.383 . S
C605 C601 1.495 . S
C605 H611 0.959 . S
C605 H612 0.961 . S
C605 H613 0.960 . S
C606 C604 1.381 1_556 S
C606 C607 1.394 . S
C606 H614 0.930 . S
C607 C606 1.394 . S
C607 C608 1.383 1_556 S
C607 H615 0.929 . S
C608 C607 1.383 1_554 S
C608 C609 1.377 . S
C609 H593 0.930 . S
C609 C608 1.377 . S
C609 C610 1.379 . S
C610 H594 0.931 . S
C610 C604 1.383 . S
C610 C609 1.379 . S
H611 C605 0.959 . S
H612 C605 0.961 . S
H613 C605 0.960 . S
H614 C606 0.930 . S
H615 C607 0.929 . S
H616 C624 0.929 . S
H617 C626 0.930 . S
H618 C628 0.930 . S
H619 C631 0.929 . S
H620 C634 0.930 . S
H621 C636 0.960 . S
H622 C636 0.960 . S
H623 C636 0.960 . S
C624 H616 0.929 . S
C624 C625 1.377 . S
C624 C626 1.384 . S
C625 C624 1.377 . S
C625 C631 1.390 . S
C626 H617 0.930 . S
C626 C624 1.384 . S
C626 C627 1.372 . S
C627 C626 1.372 . S
C627 C628 1.400 . S
C627 C632 1.490 . S
C628 H618 0.930 . S
C628 C627 1.400 . S
C628 C631 1.386 . S
H629 C645 0.930 . S
H630 C646 0.931 . S
C631 H619 0.929 . S
C631 C625 1.390 . S
C631 C628 1.386 . S
C632 C627 1.490 . S
C632 C634 1.395 . S
C632 C635 1.403 . S
H633 C639 0.930 . S
C634 H620 0.930 . S
C634 C632 1.395 . S
C634 C637 1.403 1_565 S
C635 C632 1.403 . S
C635 C636 1.524 . S
C635 C639 1.400 1_565 S
C636 H621 0.960 . S
C636 H622 0.960 . S
C636 H623 0.960 . S
C636 C635 1.524 . S
C637 C634 1.403 1_545 S
C637 C638 1.392 . S
C637 C641 1.495 . S
C638 C637 1.392 . S
C638 C639 1.385 . S
C638 C640 1.478 . S
C639 H633 0.930 . S
C639 C635 1.400 1_545 S
C639 C638 1.385 . S
C640 C638 1.478 . S
C640 C642 1.381 . S
C640 C646 1.383 . S
C641 C637 1.495 . S
C641 H647 0.959 . S
C641 H648 0.961 . S
C641 H649 0.960 . S
C642 C640 1.381 . S
C642 C643 1.394 . S
C642 H650 0.930 . S
C643 C642 1.394 . S
C643 C644 1.383 . S
C643 H651 0.929 . S
C644 C643 1.383 . S
C644 C645 1.377 . S
C645 H629 0.930 . S
C645 C644 1.377 . S
C645 C646 1.379 . S
C646 H630 0.931 . S
C646 C640 1.383 . S
C646 C645 1.379 . S
H647 C641 0.959 . S
H648 C641 0.961 . S
H649 C641 0.960 . S
H650 C642 0.930 . S
H651 C643 0.929 . S
H652 C660 0.929 . S
H653 C662 0.930 . S
H654 C664 0.930 . S
H655 C667 0.929 . S
H656 C670 0.930 . S
H657 C672 0.960 . S
H658 C672 0.960 . S
H659 C672 0.960 . S
C660 H652 0.929 . S
C660 C661 1.377 . S
C660 C662 1.384 . S
C661 C660 1.377 . S
C661 C667 1.390 . S
C662 H653 0.930 . S
C662 C660 1.384 . S
C662 C663 1.372 . S
C663 C662 1.372 . S
C663 C664 1.400 . S
C663 C668 1.490 . S
C664 H654 0.930 . S
C664 C663 1.400 . S
C664 C667 1.386 . S
H665 C681 0.930 . S
H666 C682 0.931 . S
C667 H655 0.929 . S
C667 C661 1.390 . S
C667 C664 1.386 . S
C668 C663 1.490 . S
C668 C670 1.395 . S
C668 C671 1.403 . S
H669 C675 0.930 . S
C670 H656 0.930 . S
C670 C668 1.395 . S
C670 C673 1.403 1_455 S
C671 C668 1.403 . S
C671 C672 1.524 . S
C671 C675 1.400 1_455 S
C672 H657 0.960 . S
C672 H658 0.960 . S
C672 H659 0.960 . S
C672 C671 1.524 . S
C673 C670 1.403 1_655 S
C673 C674 1.392 . S
C673 C677 1.495 . S
C674 C673 1.392 . S
C674 C675 1.385 . S
C674 C676 1.478 . S
C675 H669 0.930 . S
C675 C671 1.400 1_655 S
C675 C674 1.385 . S
C676 C674 1.478 . S
C676 C678 1.381 . S
C676 C682 1.383 . S
C677 C673 1.495 . S
C677 H683 0.959 . S
C677 H684 0.961 . S
C677 H685 0.960 . S
C678 C676 1.381 . S
C678 C679 1.394 . S
C678 H686 0.930 . S
C679 C678 1.394 . S
C679 C680 1.383 . S
C679 H687 0.929 . S
C680 C679 1.383 . S
C680 C681 1.377 . S
C681 H665 0.930 . S
C681 C680 1.377 . S
C681 C682 1.379 . S
C682 H666 0.931 . S
C682 C676 1.383 . S
C682 C681 1.379 . S
H683 C677 0.959 . S
H684 C677 0.961 . S
H685 C677 0.960 . S
H686 C678 0.930 . S
H687 C679 0.929 . S
H688 C696 0.929 . S
H689 C698 0.930 . S
H690 C700 0.930 . S
H691 C703 0.929 . S
H692 C706 0.930 . S
H693 C708 0.960 . S
H694 C708 0.960 . S
H695 C708 0.960 . S
C696 H688 0.929 . S
C696 C697 1.377 . S
C696 C698 1.384 . S
C697 C696 1.377 . S
C697 C703 1.390 . S
C698 H689 0.930 . S
C698 C696 1.384 . S
C698 C699 1.372 . S
C699 C698 1.372 . S
C699 C700 1.400 . S
C699 C704 1.490 . S
C700 H690 0.930 . S
C700 C699 1.400 . S
C700 C703 1.386 . S
H701 C717 0.930 . S
H702 C718 0.931 . S
C703 H691 0.929 . S
C703 C697 1.390 . S
C703 C700 1.386 . S
C704 C699 1.490 . S
C704 C706 1.395 . S
C704 C707 1.403 . S
H705 C711 0.930 . S
C706 H692 0.930 . S
C706 C704 1.395 . S
C706 C709 1.403 1_545 S
C707 C704 1.403 . S
C707 C708 1.524 . S
C707 C711 1.400 1_545 S
C708 H693 0.960 . S
C708 H694 0.960 . S
C708 H695 0.960 . S
C708 C707 1.524 . S
C709 C706 1.403 1_565 S
C709 C710 1.392 . S
C709 C713 1.495 . S
C710 C709 1.392 . S
C710 C711 1.385 . S
C710 C712 1.478 . S
C711 H705 0.930 . S
C711 C707 1.400 1_565 S
C711 C710 1.385 . S
C712 C710 1.478 . S
C712 C714 1.381 . S
C712 C718 1.383 . S
C713 C709 1.495 . S
C713 H719 0.959 . S
C713 H720 0.961 . S
C713 H721 0.960 . S
C714 C712 1.381 . S
C714 C715 1.394 . S
C714 H722 0.930 . S
C715 C714 1.394 . S
C715 C716 1.383 . S
C715 H723 0.929 . S
C716 C715 1.383 . S
C716 C717 1.377 . S
C717 H701 0.930 . S
C717 C716 1.377 . S
C717 C718 1.379 . S
C718 H702 0.931 . S
C718 C712 1.383 . S
C718 C717 1.379 . S
H719 C713 0.959 . S
H720 C713 0.961 . S
H721 C713 0.960 . S
H722 C714 0.930 . S
H723 C715 0.929 . S
H724 C732 0.929 . S
H725 C734 0.930 . S
H726 C736 0.930 . S
H727 C739 0.929 . S
H728 C742 0.930 . S
H729 C744 0.960 . S
H730 C744 0.960 . S
H731 C744 0.960 . S
C732 H724 0.929 . S
C732 C733 1.377 . S
C732 C734 1.384 . S
C733 C732 1.377 . S
C733 C739 1.390 . S
C734 H725 0.930 . S
C734 C732 1.384 . S
C734 C735 1.372 . S
C735 C734 1.372 . S
C735 C736 1.400 . S
C735 C740 1.490 . S
C736 H726 0.930 . S
C736 C735 1.400 . S
C736 C739 1.386 . S
H737 C753 0.930 . S
H738 C754 0.931 . S
C739 H727 0.929 . S
C739 C733 1.390 . S
C739 C736 1.386 . S
C740 C735 1.490 . S
C740 C742 1.395 . S
C740 C743 1.403 . S
H741 C747 0.930 . S
C742 H728 0.930 . S
C742 C740 1.395 . S
C742 C745 1.403 1_655 S
C743 C740 1.403 . S
C743 C744 1.524 . S
C743 C747 1.400 1_655 S
C744 H729 0.960 . S
C744 H730 0.960 . S
C744 H731 0.960 . S
C744 C743 1.524 . S
C745 C742 1.403 1_455 S
C745 C746 1.392 . S
C745 C749 1.495 . S
C746 C745 1.392 . S
C746 C747 1.385 . S
C746 C748 1.478 . S
C747 H741 0.930 . S
C747 C743 1.400 1_455 S
C747 C746 1.385 . S
C748 C746 1.478 . S
C748 C750 1.381 . S
C748 C754 1.383 . S
C749 C745 1.495 . S
C749 H755 0.959 . S
C749 H756 0.961 . S
C749 H757 0.960 . S
C750 C748 1.381 . S
C750 C751 1.394 . S
C750 H758 0.930 . S
C751 C750 1.394 . S
C751 C752 1.383 . S
C751 H759 0.929 . S
C752 C751 1.383 . S
C752 C753 1.377 . S
C753 H737 0.930 . S
C753 C752 1.377 . S
C753 C754 1.379 . S
C754 H738 0.931 . S
C754 C748 1.383 . S
C754 C753 1.379 . S
H755 C749 0.959 . S
H756 C749 0.961 . S
H757 C749 0.960 . S
H758 C750 0.930 . S
H759 C751 0.929 . S
H760 C768 0.929 . S
H761 C770 0.930 . S
H762 C772 0.930 . S
H763 C775 0.929 . S
H764 C778 0.930 . S
H765 C780 0.960 . S
H766 C780 0.960 . S
H767 C780 0.960 . S
C768 H760 0.929 . S
C768 C769 1.377 . S
C768 C770 1.384 . S
C769 C768 1.377 . S
C769 C775 1.390 . S
C770 H761 0.930 . S
C770 C768 1.384 . S
C770 C771 1.372 . S
C771 C770 1.372 . S
C771 C772 1.400 . S
C771 C776 1.490 . S
C772 H762 0.930 . S
C772 C771 1.400 . S
C772 C775 1.386 . S
H773 C789 0.930 . S
H774 C790 0.931 . S
C775 H763 0.929 . S
C775 C769 1.390 . S
C775 C772 1.386 . S
C776 C771 1.490 . S
C776 C778 1.395 . S
C776 C779 1.403 . S
H777 C783 0.930 . S
C778 H764 0.930 . S
C778 C776 1.395 . S
C778 C781 1.403 . S
C779 C776 1.403 . S
C779 C780 1.524 . S
C779 C783 1.400 . S
C780 H765 0.960 . S
C780 H766 0.960 . S
C780 H767 0.960 . S
C780 C779 1.524 . S
C781 C778 1.403 . S
C781 C782 1.392 . S
C781 C785 1.495 . S
C782 C781 1.392 . S
C782 C783 1.385 . S
C782 C784 1.478 . S
C783 H777 0.930 . S
C783 C779 1.400 . S
C783 C782 1.385 . S
C784 C782 1.478 . S
C784 C786 1.381 . S
C784 C790 1.383 . S
C785 C781 1.495 . S
C785 H791 0.959 . S
C785 H792 0.961 . S
C785 H793 0.960 . S
C786 C784 1.381 . S
C786 C787 1.394 . S
C786 H794 0.930 . S
C787 C786 1.394 . S
C787 C788 1.383 . S
C787 H795 0.929 . S
C788 C787 1.383 . S
C788 C789 1.377 . S
C789 H773 0.930 . S
C789 C788 1.377 . S
C789 C790 1.379 . S
C790 H774 0.931 . S
C790 C784 1.383 . S
C790 C789 1.379 . S
H791 C785 0.959 . S
H792 C785 0.961 . S
H793 C785 0.960 . S
H794 C786 0.930 . S
H795 C787 0.929 . S
H796 C804 0.929 . S
H797 C806 0.930 . S
H798 C808 0.930 . S
H799 C811 0.929 . S
H800 C814 0.930 . S
H801 C816 0.960 . S
H802 C816 0.960 . S
H803 C816 0.960 . S
C804 H796 0.929 . S
C804 C805 1.377 . S
C804 C806 1.384 . S
C805 C804 1.377 . S
C805 C811 1.390 . S
C806 H797 0.930 . S
C806 C804 1.384 . S
C806 C807 1.372 . S
C807 C806 1.372 . S
C807 C808 1.400 . S
C807 C812 1.490 . S
C808 H798 0.930 . S
C808 C807 1.400 . S
C808 C811 1.386 . S
H809 C825 0.930 . S
H810 C826 0.931 . S
C811 H799 0.929 . S
C811 C805 1.390 . S
C811 C808 1.386 . S
C812 C807 1.490 . S
C812 C814 1.395 . S
C812 C815 1.403 . S
H813 C819 0.930 . S
C814 H800 0.930 . S
C814 C812 1.395 . S
C814 C817 1.403 . S
C815 C812 1.403 . S
C815 C816 1.524 . S
C815 C819 1.400 . S
C816 H801 0.960 . S
C816 H802 0.960 . S
C816 H803 0.960 . S
C816 C815 1.524 . S
C817 C814 1.403 . S
C817 C818 1.392 . S
C817 C821 1.495 . S
C818 C817 1.392 . S
C818 C819 1.385 . S
C818 C820 1.478 . S
C819 H813 0.930 . S
C819 C815 1.400 . S
C819 C818 1.385 . S
C820 C818 1.478 . S
C820 C822 1.381 . S
C820 C826 1.383 . S
C821 C817 1.495 . S
C821 H827 0.959 . S
C821 H828 0.961 . S
C821 H829 0.960 . S
C822 C820 1.381 . S
C822 C823 1.394 . S
C822 H830 0.930 . S
C823 C822 1.394 . S
C823 C824 1.383 . S
C823 H831 0.929 . S
C824 C823 1.383 . S
C824 C825 1.377 . S
C825 H809 0.930 . S
C825 C824 1.377 . S
C825 C826 1.379 . S
C826 H810 0.931 . S
C826 C820 1.383 . S
C826 C825 1.379 . S
H827 C821 0.959 . S
H828 C821 0.961 . S
H829 C821 0.960 . S
H830 C822 0.930 . S
H831 C823 0.929 . S
H832 C840 0.929 . S
H833 C842 0.930 . S
H834 C844 0.930 . S
H835 C847 0.929 . S
H836 C850 0.930 . S
H837 C852 0.960 . S
H838 C852 0.960 . S
H839 C852 0.960 . S
C840 H832 0.929 . S
C840 C841 1.377 . S
C840 C842 1.384 . S
C841 C840 1.377 . S
C841 C847 1.390 . S
C842 H833 0.930 . S
C842 C840 1.384 . S
C842 C843 1.372 . S
C843 C842 1.372 . S
C843 C844 1.400 . S
C843 C848 1.490 . S
C844 H834 0.930 . S
C844 C843 1.400 . S
C844 C847 1.386 . S
H845 C861 0.930 . S
H846 C862 0.931 . S
C847 H835 0.929 . S
C847 C841 1.390 . S
C847 C844 1.386 . S
C848 C843 1.490 . S
C848 C850 1.395 . S
C848 C851 1.403 . S
H849 C855 0.930 . S
C850 H836 0.930 . S
C850 C848 1.395 . S
C850 C853 1.403 . S
C851 C848 1.403 . S
C851 C852 1.524 . S
C851 C855 1.400 . S
C852 H837 0.960 . S
C852 H838 0.960 . S
C852 H839 0.960 . S
C852 C851 1.524 . S
C853 C850 1.403 . S
C853 C854 1.392 . S
C853 C857 1.495 . S
C854 C853 1.392 . S
C854 C855 1.385 . S
C854 C856 1.478 . S
C855 H849 0.930 . S
C855 C851 1.400 . S
C855 C854 1.385 . S
C856 C854 1.478 . S
C856 C858 1.381 . S
C856 C862 1.383 . S
C857 C853 1.495 . S
C857 H863 0.959 . S
C857 H864 0.961 . S
C857 H865 0.960 . S
C858 C856 1.381 . S
C858 C859 1.394 . S
C858 H866 0.930 . S
C859 C858 1.394 . S
C859 C860 1.383 . S
C859 H867 0.929 . S
C860 C859 1.383 . S
C860 C861 1.377 . S
C861 H845 0.930 . S
C861 C860 1.377 . S
C861 C862 1.379 . S
C862 H846 0.931 . S
C862 C856 1.383 . S
C862 C861 1.379 . S
H863 C857 0.959 . S
H864 C857 0.961 . S
H865 C857 0.960 . S
H866 C858 0.930 . S
H867 C859 0.929 . S
H868 C876 0.929 . S
H869 C878 0.930 . S
H870 C880 0.930 . S
H871 C883 0.929 . S
H872 C886 0.930 . S
H873 C888 0.960 . S
H874 C888 0.960 . S
H875 C888 0.960 . S
C876 H868 0.929 . S
C876 C877 1.377 . S
C876 C878 1.384 . S
C877 C876 1.377 . S
C877 C883 1.390 . S
C878 H869 0.930 . S
C878 C876 1.384 . S
C878 C879 1.372 . S
C879 C878 1.372 . S
C879 C880 1.400 . S
C879 C884 1.490 . S
C880 H870 0.930 . S
C880 C879 1.400 . S
C880 C883 1.386 . S
H881 C897 0.930 . S
H882 C898 0.931 . S
C883 H871 0.929 . S
C883 C877 1.390 . S
C883 C880 1.386 . S
C884 C879 1.490 . S
C884 C886 1.395 . S
C884 C887 1.403 . S
H885 C891 0.930 . S
C886 H872 0.930 . S
C886 C884 1.395 . S
C886 C889 1.403 . S
C887 C884 1.403 . S
C887 C888 1.524 . S
C887 C891 1.400 . S
C888 H873 0.960 . S
C888 H874 0.960 . S
C888 H875 0.960 . S
C888 C887 1.524 . S
C889 C886 1.403 . S
C889 C890 1.392 . S
C889 C893 1.495 . S
C890 C889 1.392 . S
C890 C891 1.385 . S
C890 C892 1.478 . S
C891 H885 0.930 . S
C891 C887 1.400 . S
C891 C890 1.385 . S
C892 C890 1.478 . S
C892 C894 1.381 . S
C892 C898 1.383 . S
C893 C889 1.495 . S
C893 H899 0.959 . S
C893 H900 0.961 . S
C893 H901 0.960 . S
C894 C892 1.381 . S
C894 C895 1.394 . S
C894 H902 0.930 . S
C895 C894 1.394 . S
C895 C896 1.383 . S
C895 H903 0.929 . S
C896 C895 1.383 . S
C896 C897 1.377 . S
C897 H881 0.930 . S
C897 C896 1.377 . S
C897 C898 1.379 . S
C898 H882 0.931 . S
C898 C892 1.383 . S
C898 C897 1.379 . S
H899 C893 0.959 . S
H900 C893 0.961 . S
H901 C893 0.960 . S
H902 C894 0.930 . S
H903 C895 0.929 . S
H904 C912 0.929 . S
H905 C914 0.930 . S
H906 C916 0.930 . S
H907 C919 0.929 . S
H908 C922 0.930 . S
H909 C924 0.960 . S
H910 C924 0.960 . S
H911 C924 0.960 . S
C912 H904 0.929 . S
C912 C913 1.377 . S
C912 C914 1.384 . S
C913 C912 1.377 . S
C913 C919 1.390 . S
C914 H905 0.930 . S
C914 C912 1.384 . S
C914 C915 1.372 . S
C915 C914 1.372 . S
C915 C916 1.400 . S
C915 C920 1.490 . S
C916 H906 0.930 . S
C916 C915 1.400 . S
C916 C919 1.386 . S
H917 C933 0.930 . S
H918 C934 0.931 . S
C919 H907 0.929 . S
C919 C913 1.390 . S
C919 C916 1.386 . S
C920 C915 1.490 . S
C920 C922 1.395 . S
C920 C923 1.403 . S
H921 C927 0.930 . S
C922 H908 0.930 . S
C922 C920 1.395 . S
C922 C925 1.403 . S
C923 C920 1.403 . S
C923 C924 1.524 . S
C923 C927 1.400 . S
C924 H909 0.960 . S
C924 H910 0.960 . S
C924 H911 0.960 . S
C924 C923 1.524 . S
C925 C922 1.403 . S
C925 C926 1.392 . S
C925 C929 1.495 . S
C926 C925 1.392 . S
C926 C927 1.385 . S
C926 C928 1.478 . S
C927 H921 0.930 . S
C927 C923 1.400 . S
C927 C926 1.385 . S
C928 C926 1.478 . S
C928 C930 1.381 . S
C928 C934 1.383 . S
C929 C925 1.495 . S
C929 H935 0.959 . S
C929 H936 0.961 . S
C929 H937 0.960 . S
C930 C928 1.381 . S
C930 C931 1.394 . S
C930 H938 0.930 . S
C931 C930 1.394 . S
C931 C932 1.383 . S
C931 H939 0.929 . S
C932 C931 1.383 . S
C932 C933 1.377 . S
C933 H917 0.930 . S
C933 C932 1.377 . S
C933 C934 1.379 . S
C934 H918 0.931 . S
C934 C928 1.383 . S
C934 C933 1.379 . S
H935 C929 0.959 . S
H936 C929 0.961 . S
H937 C929 0.960 . S
H938 C930 0.930 . S
H939 C931 0.929 . S
H940 C948 0.929 . S
H941 C950 0.930 . S
H942 C952 0.930 . S
H943 C955 0.929 . S
H944 C958 0.930 . S
H945 C960 0.960 . S
H946 C960 0.960 . S
H947 C960 0.960 . S
C948 H940 0.929 . S
C948 C949 1.377 . S
C948 C950 1.384 . S
C949 C948 1.377 . S
C949 C955 1.390 . S
C950 H941 0.930 . S
C950 C948 1.384 . S
C950 C951 1.372 . S
C951 C950 1.372 . S
C951 C952 1.400 . S
C951 C956 1.490 . S
C952 H942 0.930 . S
C952 C951 1.400 . S
C952 C955 1.386 . S
H953 C969 0.930 . S
H954 C970 0.931 . S
C955 H943 0.929 . S
C955 C949 1.390 . S
C955 C952 1.386 . S
C956 C951 1.490 . S
C956 C958 1.395 . S
C956 C959 1.403 . S
H957 C963 0.930 . S
C958 H944 0.930 . S
C958 C956 1.395 . S
C958 C961 1.403 . S
C959 C956 1.403 . S
C959 C960 1.524 . S
C959 C963 1.400 . S
C960 H945 0.960 . S
C960 H946 0.960 . S
C960 H947 0.960 . S
C960 C959 1.524 . S
C961 C958 1.403 . S
C961 C962 1.392 . S
C961 C965 1.495 . S
C962 C961 1.392 . S
C962 C963 1.385 . S
C962 C964 1.478 . S
C963 H957 0.930 . S
C963 C959 1.400 . S
C963 C962 1.385 . S
C964 C962 1.478 . S
C964 C966 1.381 . S
C964 C970 1.383 . S
C965 C961 1.495 . S
C965 H971 0.959 . S
C965 H972 0.961 . S
C965 H973 0.960 . S
C966 C964 1.381 . S
C966 C967 1.394 . S
C966 H974 0.930 . S
C967 C966 1.394 . S
C967 C968 1.383 . S
C967 H975 0.929 . S
C968 C967 1.383 . S
C968 C969 1.377 . S
C969 H953 0.930 . S
C969 C968 1.377 . S
C969 C970 1.379 . S
C970 H954 0.931 . S
C970 C964 1.383 . S
C970 C969 1.379 . S
H971 C965 0.959 . S
H972 C965 0.961 . S
H973 C965 0.960 . S
H974 C966 0.930 . S
H975 C967 0.929 . S
H976 C984 0.929 . S
H977 C986 0.930 . S
H978 C988 0.930 . S
H979 C991 0.929 . S
H980 C994 0.930 . S
H981 C996 0.960 . S
H982 C996 0.960 . S
H983 C996 0.960 . S
C984 H976 0.929 . S
C984 C985 1.377 . S
C984 C986 1.384 . S
C985 C984 1.377 . S
C985 C991 1.390 . S
C986 H977 0.930 . S
C986 C984 1.384 . S
C986 C987 1.372 . S
C987 C986 1.372 . S
C987 C988 1.400 . S
C987 C992 1.490 . S
C988 H978 0.930 . S
C988 C987 1.400 . S
C988 C991 1.386 . S
H989 C1005 0.930 . S
H990 C1006 0.931 . S
C991 H979 0.929 . S
C991 C985 1.390 . S
C991 C988 1.386 . S
C992 C987 1.490 . S
C992 C994 1.395 . S
C992 C995 1.403 . S
H993 C999 0.930 . S
C994 H980 0.930 . S
C994 C992 1.395 . S
C994 C997 1.403 . S
C995 C992 1.403 . S
C995 C996 1.524 . S
C995 C999 1.400 . S
C996 H981 0.960 . S
C996 H982 0.960 . S
C996 H983 0.960 . S
C996 C995 1.524 . S
C997 C994 1.403 . S
C997 C998 1.392 . S
C997 C1001 1.495 . S
C998 C997 1.392 . S
C998 C999 1.385 . S
C998 C1000 1.478 . S
C999 H993 0.930 . S
C999 C995 1.400 . S
C999 C998 1.385 . S
C1000 C998 1.478 . S
C1000 C1002 1.381 . S
C1000 C1006 1.383 . S
C1001 C997 1.495 . S
C1001 H1007 0.959 . S
C1001 H1008 0.961 . S
C1001 H1009 0.960 . S
C1002 C1000 1.381 . S
C1002 C1003 1.394 . S
C1002 H1010 0.930 . S
C1003 C1002 1.394 . S
C1003 C1004 1.383 . S
C1003 H1011 0.929 . S
C1004 C1003 1.383 . S
C1004 C1005 1.377 . S
C1005 H989 0.930 . S
C1005 C1004 1.377 . S
C1005 C1006 1.379 . S
C1006 H990 0.931 . S
C1006 C1000 1.383 . S
C1006 C1005 1.379 . S
H1007 C1001 0.959 . S
H1008 C1001 0.961 . S
H1009 C1001 0.960 . S
H1010 C1002 0.930 . S
H1011 C1003 0.929 . S
H1012 C1020 0.929 . S
H1013 C1022 0.930 . S
H1014 C1024 0.930 . S
H1015 C1027 0.929 . S
H1016 C1030 0.930 . S
H1017 C1032 0.960 . S
H1018 C1032 0.960 . S
H1019 C1032 0.960 . S
C1020 H1012 0.929 . S
C1020 C1021 1.377 . S
C1020 C1022 1.384 . S
C1021 C1020 1.377 . S
C1021 C1027 1.390 . S
C1022 H1013 0.930 . S
C1022 C1020 1.384 . S
C1022 C1023 1.372 . S
C1023 C1022 1.372 . S
C1023 C1024 1.400 . S
C1023 C1028 1.490 . S
C1024 H1014 0.930 . S
C1024 C1023 1.400 . S
C1024 C1027 1.386 . S
H1025 C1041 0.930 . S
H1026 C1042 0.931 . S
C1027 H1015 0.929 . S
C1027 C1021 1.390 . S
C1027 C1024 1.386 . S
C1028 C1023 1.490 . S
C1028 C1030 1.395 . S
C1028 C1031 1.403 . S
H1029 C1035 0.930 . S
C1030 H1016 0.930 . S
C1030 C1028 1.395 . S
C1030 C1033 1.403 . S
C1031 C1028 1.403 . S
C1031 C1032 1.524 . S
C1031 C1035 1.400 . S
C1032 H1017 0.960 . S
C1032 H1018 0.960 . S
C1032 H1019 0.960 . S
C1032 C1031 1.524 . S
C1033 C1030 1.403 . S
C1033 C1034 1.392 . S
C1033 C1037 1.495 . S
C1034 C1033 1.392 . S
C1034 C1035 1.385 . S
C1034 C1036 1.478 . S
C1035 H1029 0.930 . S
C1035 C1031 1.400 . S
C1035 C1034 1.385 . S
C1036 C1034 1.478 . S
C1036 C1038 1.381 . S
C1036 C1042 1.383 . S
C1037 C1033 1.495 . S
C1037 H1043 0.959 . S
C1037 H1044 0.961 . S
C1037 H1045 0.960 . S
C1038 C1036 1.381 . S
C1038 C1039 1.394 . S
C1038 H1046 0.930 . S
C1039 C1038 1.394 . S
C1039 C1040 1.383 . S
C1039 H1047 0.929 . S
C1040 C1039 1.383 . S
C1040 C1041 1.377 . S
C1041 H1025 0.930 . S
C1041 C1040 1.377 . S
C1041 C1042 1.379 . S
C1042 H1026 0.931 . S
C1042 C1036 1.383 . S
C1042 C1041 1.379 . S
H1043 C1037 0.959 . S
H1044 C1037 0.961 . S
H1045 C1037 0.960 . S
H1046 C1038 0.930 . S
H1047 C1039 0.929 . S
C481 C52 1.659 . S
C500 C210 1.663 . S
C517 C33 1.665 . S
C536 C92 1.674 . S
C553 C111 1.660 . S
C572 C151 1.669 . S
C589 C229 1.664 . S
C608 C170 1.645 . S
C625 C288 1.659 . S
C644 C465 1.663 . S
C661 C347 1.659 . S
C680 C269 1.662 . S
C697 C387 1.661 . S
C716 C328 1.652 . S
C733 C446 1.665 . S
C752 C406 1.673 . S
C769 C359 1.626 . S
C788 C5 1.629 . S
C805 C62 1.620 . S
C824 C418 1.618 . S
C841 C239 1.619 . S
C860 C121 1.608 . S
C877 C298 1.618 . S
C896 C182 1.618 . S
C913 C300 1.624 . S
C932 C180 1.606 . S
C949 C3 1.620 . S
C968 C357 1.619 . S
C985 C64 1.624 . S
C1004 C416 1.607 . S
C1021 C123 1.624 . S
C1040 C241 1.621 . S
