# Generated by pormake.
# Topology ukb, (4)-cn, num edge types: 1
# Building blocks:
#     Node 0, Type 0, BuildingBlock: GALJAG_clean_sbu_0, # of connection points: 4
#     Node 1, Type 0, BuildingBlock: GALJAG_clean_sbu_0, # of connection points: 4
#     Node 2, Type 0, BuildingBlock: GALJAG_clean_sbu_0, # of connection points: 4
#     Node 3, Type 0, BuildingBlock: GALJAG_clean_sbu_0, # of connection points: 4
#     Node 4, Type 0, BuildingBlock: GALJAG_clean_sbu_0, # of connection points: 4
#     Node 5, Type 0, BuildingBlock: GALJAG_clean_sbu_0, # of connection points: 4
#     Node 6, Type 0, BuildingBlock: GALJAG_clean_sbu_0, # of connection points: 4
#     Node 7, Type 0, BuildingBlock: GALJAG_clean_sbu_0, # of connection points: 4
#     Node 8, Type 0, BuildingBlock: GALJAG_clean_sbu_0, # of connection points: 4
#     Node 9, Type 0, BuildingBlock: GALJAG_clean_sbu_0, # of connection points: 4
#     Node 10, Type 0, BuildingBlock: GALJAG_clean_sbu_0, # of connection points: 4
#     Node 11, Type 0, BuildingBlock: GALJAG_clean_sbu_0, # of connection points: 4
#     Node 12, Type 0, BuildingBlock: GALJAG_clean_sbu_0, # of connection points: 4
#     Node 13, Type 0, BuildingBlock: GALJAG_clean_sbu_0, # of connection points: 4
#     Node 14, Type 0, BuildingBlock: GALJAG_clean_sbu_0, # of connection points: 4
#     Node 15, Type 0, BuildingBlock: GALJAG_clean_sbu_0, # of connection points: 4
#     Edge 16, Type (0, 0), BuildingBlock: KIFKEQ_clean_linker_1, # of connection points: 2
#     Edge 17, Type (0, 0), BuildingBlock: KIFKEQ_clean_linker_1, # of connection points: 2
#     Edge 18, Type (0, 0), BuildingBlock: KIFKEQ_clean_linker_1, # of connection points: 2
#     Edge 19, Type (0, 0), BuildingBlock: KIFKEQ_clean_linker_1, # of connection points: 2
#     Edge 20, Type (0, 0), BuildingBlock: KIFKEQ_clean_linker_1, # of connection points: 2
#     Edge 21, Type (0, 0), BuildingBlock: KIFKEQ_clean_linker_1, # of connection points: 2
#     Edge 22, Type (0, 0), BuildingBlock: KIFKEQ_clean_linker_1, # of connection points: 2
#     Edge 23, Type (0, 0), BuildingBlock: KIFKEQ_clean_linker_1, # of connection points: 2
#     Edge 24, Type (0, 0), BuildingBlock: KIFKEQ_clean_linker_1, # of connection points: 2
#     Edge 25, Type (0, 0), BuildingBlock: KIFKEQ_clean_linker_1, # of connection points: 2
#     Edge 26, Type (0, 0), BuildingBlock: KIFKEQ_clean_linker_1, # of connection points: 2
#     Edge 27, Type (0, 0), BuildingBlock: KIFKEQ_clean_linker_1, # of connection points: 2
#     Edge 28, Type (0, 0), BuildingBlock: KIFKEQ_clean_linker_1, # of connection points: 2
#     Edge 29, Type (0, 0), BuildingBlock: KIFKEQ_clean_linker_1, # of connection points: 2
#     Edge 30, Type (0, 0), BuildingBlock: KIFKEQ_clean_linker_1, # of connection points: 2
#     Edge 31, Type (0, 0), BuildingBlock: KIFKEQ_clean_linker_1, # of connection points: 2
#     Edge 32, Type (0, 0), BuildingBlock: KIFKEQ_clean_linker_1, # of connection points: 2
#     Edge 33, Type (0, 0), BuildingBlock: KIFKEQ_clean_linker_1, # of connection points: 2
#     Edge 34, Type (0, 0), BuildingBlock: KIFKEQ_clean_linker_1, # of connection points: 2
#     Edge 35, Type (0, 0), BuildingBlock: KIFKEQ_clean_linker_1, # of connection points: 2
#     Edge 36, Type (0, 0), BuildingBlock: KIFKEQ_clean_linker_1, # of connection points: 2
#     Edge 37, Type (0, 0), BuildingBlock: KIFKEQ_clean_linker_1, # of connection points: 2
#     Edge 38, Type (0, 0), BuildingBlock: KIFKEQ_clean_linker_1, # of connection points: 2
#     Edge 39, Type (0, 0), BuildingBlock: KIFKEQ_clean_linker_1, # of connection points: 2
#     Edge 40, Type (0, 0), BuildingBlock: KIFKEQ_clean_linker_1, # of connection points: 2
#     Edge 41, Type (0, 0), BuildingBlock: KIFKEQ_clean_linker_1, # of connection points: 2
#     Edge 42, Type (0, 0), BuildingBlock: KIFKEQ_clean_linker_1, # of connection points: 2
#     Edge 43, Type (0, 0), BuildingBlock: KIFKEQ_clean_linker_1, # of connection points: 2
#     Edge 44, Type (0, 0), BuildingBlock: KIFKEQ_clean_linker_1, # of connection points: 2
#     Edge 45, Type (0, 0), BuildingBlock: KIFKEQ_clean_linker_1, # of connection points: 2
#     Edge 46, Type (0, 0), BuildingBlock: KIFKEQ_clean_linker_1, # of connection points: 2
#     Edge 47, Type (0, 0), BuildingBlock: KIFKEQ_clean_linker_1, # of connection points: 2
# Relax obj value: 0.140
# Max RMSD: 0.093
# Mean RMSD: 0.093
data_MOF--net-ukb--node1-GALJAG_clean_sbu_0--edge1-KIFKEQ_clean_linker_1
_symmetry_space_group_name_H-M    P1
_symmetry_Int_Tables_number       1
_symmetry_cell_setting            triclinic
loop_
_symmetry_equiv_pos_as_xyz
'x, y, z'
_cell_length_a     45.260141
_cell_length_b     45.256159
_cell_length_c     38.631374
_cell_angle_alpha  89.978942
_cell_angle_beta   89.959435
_cell_angle_gamma 89.9655
loop_
_atom_site_label
_atom_site_type_symbol
_atom_site_fract_x
_atom_site_fract_y
_atom_site_fract_z
_atom_type_partial_charge
In0 In 0.53702 0.19156 0.182 0.0
O1 O 0.57785 0.16417 0.16873 0.0
O2 O 0.55587 0.15534 0.21632 0.0
C3 C 0.53005 0.21115 0.1165 0.0
C4 C 0.48514 0.1668 0.20078 0.0
C5 C 0.56029 0.23864 0.2151 0.0
O6 O 0.5401 0.18582 0.12334 0.0
O7 O 0.52344 0.22647 0.1426 0.0
O8 O 0.53289 0.23616 0.20974 0.0
O9 O 0.57565 0.2174 0.20414 0.0
C10 C 0.57706 0.14917 0.19631 0.0
O11 O 0.49872 0.18483 0.21992 0.0
O12 O 0.49746 0.16175 0.17213 0.0
In13 In 0.29975 0.53141 0.68846 0.0
O14 O 0.30437 0.48805 0.71843 0.0
O15 O 0.33711 0.49858 0.68087 0.0
C16 C 0.24642 0.54908 0.71213 0.0
C17 C 0.33804 0.57205 0.7133 0.0
C18 C 0.28452 0.52683 0.62136 0.0
O19 O 0.2592 0.52647 0.72417 0.0
O20 O 0.26057 0.56235 0.68878 0.0
O21 O 0.29617 0.54969 0.63406 0.0
O22 O 0.28115 0.50568 0.64233 0.0
C23 C 0.32808 0.48061 0.70348 0.0
O24 O 0.33733 0.56467 0.68186 0.0
O25 O 0.31975 0.55866 0.73226 0.0
In26 In 0.97224 0.30515 0.18458 0.0
O27 O 0.00723 0.31345 0.22608 0.0
O28 O 0.01435 0.33189 0.17626 0.0
C29 C 0.94921 0.25729 0.21663 0.0
C30 C 0.93157 0.3477 0.19613 0.0
C31 C 0.98046 0.28668 0.11886 0.0
O32 O 0.97649 0.25973 0.2105 0.0
O33 O 0.93383 0.27901 0.20709 0.0
O34 O 0.97105 0.31223 0.12598 0.0
O35 O 0.98592 0.27071 0.1448 0.0
C36 C 0.02361 0.3289 0.20683 0.0
O37 O 0.9308 0.33121 0.16977 0.0
O38 O 0.95305 0.34299 0.21619 0.0
In39 In 0.18906 0.96787 0.67988 0.0
O40 O 0.18067 0.00431 0.71965 0.0
O41 O 0.15649 0.00565 0.67254 0.0
C42 C 0.23946 0.94557 0.70664 0.0
C43 C 0.15013 0.9243 0.69443 0.0
C44 C 0.20626 0.98111 0.6149 0.0
O45 O 0.2307 0.9714 0.71362 0.0
O46 O 0.22271 0.93128 0.68673 0.0
O47 O 0.1827 0.96728 0.62142 0.0
O48 O 0.22079 0.9889 0.64121 0.0
C49 C 0.16147 0.01739 0.70156 0.0
O50 O 0.16286 0.92661 0.66552 0.0
O51 O 0.15664 0.94423 0.7159 0.0
In52 In 0.52165 0.29969 0.80388 0.0
O53 O 0.57065 0.31 0.80977 0.0
O54 O 0.54354 0.34254 0.78598 0.0
C55 C 0.51725 0.28518 0.87141 0.0
C56 C 0.47155 0.32717 0.78308 0.0
C57 C 0.53486 0.24952 0.76895 0.0
O58 O 0.53268 0.30663 0.86099 0.0
O59 O 0.50361 0.27154 0.84788 0.0
O60 O 0.51783 0.24999 0.79474 0.0
O61 O 0.54431 0.27453 0.75983 0.0
C62 C 0.56913 0.33509 0.7956 0.0
O63 O 0.48603 0.3102 0.76352 0.0
O64 O 0.48204 0.32982 0.81309 0.0
In65 In 0.19964 0.5269 0.30651 0.0
O66 O 0.19611 0.48101 0.28146 0.0
O67 O 0.15869 0.49802 0.30796 0.0
C68 C 0.25384 0.53591 0.27854 0.0
C69 C 0.16567 0.57334 0.28708 0.0
C70 C 0.2126 0.52592 0.37437 0.0
O71 O 0.23111 0.53238 0.26012 0.0
O72 O 0.24935 0.53351 0.31055 0.0
O73 O 0.21144 0.54951 0.35693 0.0
O74 O 0.20677 0.50262 0.35768 0.0
C75 C 0.16966 0.47708 0.29074 0.0
O76 O 0.16584 0.56357 0.31762 0.0
O77 O 0.1824 0.55967 0.26656 0.0
In78 In 0.9659 0.19383 0.80936 0.0
O79 O 0.92779 0.16188 0.81985 0.0
O80 O 0.93985 0.16973 0.76755 0.0
C81 C 0.97748 0.20988 0.87506 0.0
C82 C 0.0156 0.16501 0.79042 0.0
C83 C 0.94422 0.24561 0.78593 0.0
O84 O 0.96034 0.18884 0.86755 0.0
O85 O 0.9893 0.22249 0.8494 0.0
O86 O 0.96812 0.23488 0.77458 0.0
O87 O 0.93153 0.23021 0.80871 0.0
C88 C 0.9229 0.15653 0.78833 0.0
O89 O 0.0063 0.18747 0.77439 0.0
O90 O 8e-05 0.15749 0.81604 0.0
In91 In 0.30812 0.97258 0.30829 0.0
O92 O 0.33127 0.93047 0.32612 0.0
O93 O 0.34467 0.94925 0.27813 0.0
C94 C 0.28785 0.98141 0.37326 0.0
C95 C 0.33584 0.02249 0.28758 0.0
C96 C 0.26023 0.95269 0.27362 0.0
O97 O 0.31299 0.9706 0.36711 0.0
O98 O 0.27306 0.98793 0.34671 0.0
O99 O 0.26313 0.9794 0.28227 0.0
O100 O 0.28152 0.93626 0.28206 0.0
C101 C 0.34798 0.92876 0.3 0.0
O102 O 0.31841 0.00843 0.26823 0.0
O103 O 0.33901 0.01158 0.31733 0.0
In104 In 0.46463 0.80719 0.81631 0.0
O105 O 0.50393 0.81288 0.77958 0.0
O106 O 0.5007 0.84172 0.82275 0.0
C107 C 0.44264 0.75481 0.7952 0.0
C108 C 0.42347 0.84534 0.79261 0.0
C109 C 0.47278 0.79329 0.88338 0.0
O110 O 0.46851 0.76298 0.78747 0.0
O111 O 0.42824 0.773 0.81324 0.0
O112 O 0.45439 0.81249 0.87352 0.0
O113 O 0.48764 0.78151 0.8594 0.0
C114 C 0.51484 0.83437 0.79598 0.0
O115 O 0.42933 0.84264 0.82437 0.0
O116 O 0.4387 0.8292 0.77286 0.0
In117 In 0.69902 0.46914 0.31005 0.0
O118 O 0.67853 0.42452 0.32341 0.0
O119 O 0.67267 0.44092 0.27229 0.0
C120 C 0.70973 0.48377 0.37648 0.0
C121 C 0.6659 0.51561 0.28988 0.0
C122 C 0.75129 0.45228 0.28252 0.0
O123 O 0.68942 0.46618 0.36781 0.0
O124 O 0.72414 0.49459 0.35155 0.0
O125 O 0.73364 0.4689 0.26631 0.0
O126 O 0.74257 0.4446 0.31213 0.0
C127 C 0.66755 0.42054 0.29376 0.0
O128 O 0.69355 0.51513 0.28548 0.0
O129 O 0.65544 0.49311 0.30464 0.0
In130 In 0.02278 0.69384 0.80837 0.0
O131 O 0.0622 0.66447 0.82161 0.0
O132 O 0.04357 0.66075 0.77126 0.0
C133 C 0.01609 0.71206 0.87439 0.0
C134 C 0.97146 0.66776 0.78988 0.0
C135 C 0.04502 0.74261 0.77742 0.0
O136 O 0.02917 0.68836 0.8666 0.0
O137 O 0.00625 0.72644 0.84894 0.0
O138 O 0.01765 0.73904 0.78207 0.0
O139 O 0.06091 0.72167 0.78813 0.0
C140 C 0.06316 0.6522 0.79227 0.0
O141 O 0.98462 0.68603 0.77063 0.0
O142 O 0.98395 0.66304 0.81848 0.0
In143 In 0.80873 0.02774 0.31289 0.0
O144 O 0.81446 0.98469 0.28272 0.0
O145 O 0.84862 0.99755 0.31734 0.0
C146 C 0.75629 0.04469 0.28565 0.0
C147 C 0.84313 0.07453 0.29609 0.0
C148 C 0.79575 0.01468 0.37909 0.0
O149 O 0.77413 0.02853 0.26917 0.0
O150 O 0.76487 0.05192 0.31542 0.0
O151 O 0.81394 0.03454 0.37062 0.0
O152 O 0.78456 0.00067 0.35404 0.0
C153 C 0.83941 0.97887 0.29566 0.0
O154 O 0.83053 0.07198 0.325 0.0
O155 O 0.83854 0.05342 0.27553 0.0
In156 In 0.46973 0.69651 0.19361 0.0
O157 O 0.42806 0.67138 0.17787 0.0
O158 O 0.44989 0.65829 0.22413 0.0
C159 C 0.47214 0.71615 0.12769 0.0
C160 C 0.51948 0.66602 0.20756 0.0
C161 C 0.45578 0.74495 0.23176 0.0
O162 O 0.44816 0.71025 0.14281 0.0
O163 O 0.49497 0.71191 0.1457 0.0
O164 O 0.47732 0.74444 0.21113 0.0
O165 O 0.44215 0.72082 0.23414 0.0
C166 C 0.42865 0.65414 0.20357 0.0
O167 O 0.51163 0.68805 0.22546 0.0
O168 O 0.50258 0.65997 0.18261 0.0
In169 In 0.79843 0.46904 0.6872 0.0
O170 O 0.80464 0.50819 0.72408 0.0
O171 O 0.83105 0.50642 0.67869 0.0
C172 C 0.75 0.4439 0.71525 0.0
C173 C 0.83934 0.42846 0.7052 0.0
C174 C 0.77994 0.47967 0.62205 0.0
O175 O 0.75602 0.4709 0.71973 0.0
O176 O 0.76821 0.43 0.69668 0.0
O177 O 0.80373 0.46627 0.62867 0.0
O178 O 0.76551 0.48784 0.64831 0.0
C179 C 0.8247 0.52006 0.70612 0.0
O180 O 0.82979 0.43094 0.67464 0.0
O181 O 0.82861 0.44676 0.72641 0.0
In182 In 0.03612 0.80725 0.18229 0.0
O183 O 0.07579 0.83467 0.16518 0.0
O184 O 0.0591 0.84181 0.21586 0.0
C185 C 0.02242 0.78926 0.1178 0.0
C186 C 0.98631 0.83284 0.2063 0.0
C187 C 0.06123 0.75838 0.20959 0.0
O188 O 0.03448 0.81383 0.12393 0.0
O189 O 0.01673 0.77396 0.14429 0.0
O190 O 0.03442 0.76475 0.21484 0.0
O191 O 0.07501 0.77666 0.19105 0.0
C192 C 0.07823 0.84842 0.19341 0.0
O193 O 0.0019 0.81585 0.22468 0.0
O194 O 0.99563 0.83651 0.17584 0.0
In195 In 0.68914 0.0287 0.68144 0.0
O196 O 0.68162 0.99136 0.72029 0.0
O197 O 0.65527 0.99204 0.6748 0.0
C198 C 0.73992 0.05195 0.70614 0.0
C199 C 0.64798 0.06985 0.69712 0.0
C200 C 0.70759 0.01732 0.61652 0.0
O201 O 0.73097 0.02667 0.71516 0.0
O202 O 0.72324 0.06522 0.6852 0.0
O203 O 0.69038 0.03829 0.62393 0.0
O204 O 0.71514 0.00141 0.64187 0.0
C205 C 0.66122 0.97936 0.70303 0.0
O206 O 0.65349 0.06201 0.66647 0.0
O207 O 0.66292 0.05663 0.71992 0.0
H208 H 0.45515 0.12437 0.16544 0.0
H209 H 0.45503 0.17282 0.26175 0.0
H210 H 0.41517 0.09341 0.18664 0.0
H211 H 0.41428 0.1423 0.28275 0.0
H212 H 0.37774 0.05293 0.3233 0.0
H213 H 0.40986 0.09187 0.30171 0.0
H214 H 0.36419 0.09 0.2035 0.0
H215 H 0.33255 0.05031 0.22492 0.0
C216 C 0.44617 0.12877 0.19092 0.0
C217 C 0.4584 0.15081 0.21208 0.0
C218 C 0.42307 0.11114 0.20301 0.0
C219 C 0.4116 0.11524 0.23651 0.0
C220 C 0.42294 0.13826 0.25704 0.0
C221 C 0.44615 0.15585 0.24496 0.0
C222 C 0.37434 0.06107 0.29724 0.0
C223 C 0.35286 0.04838 0.27567 0.0
C224 C 0.39261 0.08358 0.28492 0.0
C225 C 0.38973 0.09399 0.25078 0.0
C226 C 0.3673 0.08216 0.22973 0.0
C227 C 0.34909 0.05953 0.24203 0.0
H228 H 0.37705 0.45886 0.67154 0.0
H229 H 0.31749 0.44218 0.75674 0.0
H230 H 0.40795 0.41772 0.68998 0.0
H231 H 0.34838 0.40064 0.77508 0.0
H232 H 0.43655 0.36352 0.8215 0.0
H233 H 0.3982 0.39691 0.80074 0.0
H234 H 0.4102 0.36365 0.69687 0.0
H235 H 0.44891 0.3304 0.71763 0.0
C236 C 0.37035 0.44612 0.69396 0.0
C237 C 0.34498 0.45386 0.71286 0.0
C238 C 0.38795 0.4224 0.70438 0.0
C239 C 0.38064 0.40596 0.73403 0.0
C240 C 0.35471 0.41309 0.75231 0.0
C241 C 0.33698 0.43677 0.74174 0.0
C242 C 0.43071 0.36304 0.79432 0.0
C243 C 0.44589 0.34455 0.77112 0.0
C244 C 0.4086 0.38204 0.78246 0.0
C245 C 0.40128 0.38304 0.74713 0.0
C246 C 0.41561 0.36362 0.72417 0.0
C247 C 0.43766 0.3445 0.73608 0.0
H248 H 0.04269 0.33303 0.27362 0.0
H249 H 0.06358 0.36074 0.16942 0.0
H250 H 0.08203 0.36468 0.29592 0.0
H251 H 0.10281 0.39242 0.19174 0.0
H252 H 0.11661 0.46042 0.31705 0.0
H253 H 0.08528 0.41985 0.29805 0.0
H254 H 0.15155 0.39388 0.22351 0.0
H255 H 0.18312 0.43471 0.24267 0.0
C256 C 0.056 0.34549 0.25545 0.0
C257 C 0.0499 0.34466 0.21982 0.0
C258 C 0.07843 0.36368 0.26822 0.0
C259 C 0.09532 0.38116 0.24558 0.0
C260 C 0.0903 0.37902 0.20978 0.0
C261 C 0.06773 0.36102 0.19703 0.0
C262 C 0.12467 0.44585 0.29689 0.0
C263 C 0.15221 0.4508 0.28118 0.0
C264 C 0.10682 0.42248 0.28619 0.0
C265 C 0.11598 0.40369 0.25931 0.0
C266 C 0.1439 0.40813 0.24418 0.0
C267 C 0.16197 0.43139 0.2552 0.0
H268 H 0.12077 0.04977 0.66609 0.0
H269 H 0.16405 0.04317 0.76543 0.0
H270 H 0.08928 0.08907 0.68841 0.0
H271 H 0.1327 0.08285 0.78771 0.0
H272 H 0.04854 0.17233 0.73166 0.0
H273 H 0.08806 0.14023 0.71034 0.0
H274 H 0.07979 0.08597 0.80187 0.0
H275 H 0.04069 0.11812 0.82326 0.0
C276 C 0.12384 0.05703 0.69257 0.0
C277 C 0.14468 0.04324 0.71412 0.0
C278 C 0.10593 0.0797 0.70529 0.0
C279 C 0.10842 0.08899 0.73987 0.0
C280 C 0.13005 0.07592 0.76106 0.0
C281 C 0.14806 0.05331 0.74827 0.0
C282 C 0.05548 0.15377 0.74739 0.0
C283 C 0.04142 0.14759 0.77899 0.0
C284 C 0.07799 0.13533 0.73513 0.0
C285 C 0.08695 0.1105 0.75435 0.0
C286 C 0.07364 0.10509 0.78661 0.0
C287 C 0.05109 0.12341 0.79876 0.0
H288 H 0.54481 0.82751 0.73504 0.0
H289 H 0.54322 0.87924 0.82898 0.0
H290 H 0.58439 0.85878 0.71236 0.0
H291 H 0.5824 0.91059 0.80624 0.0
H292 H 0.61782 0.94934 0.66926 0.0
H293 H 0.58619 0.91046 0.69227 0.0
H294 H 0.63463 0.9124 0.78857 0.0
H295 H 0.66613 0.95166 0.76562 0.0
C296 C 0.55316 0.84532 0.75099 0.0
C297 C 0.5408 0.85108 0.78366 0.0
C298 C 0.5757 0.8633 0.73795 0.0
C299 C 0.58642 0.88723 0.75744 0.0
C300 C 0.57487 0.89215 0.79073 0.0
C301 C 0.55227 0.8743 0.80367 0.0
C302 C 0.62195 0.94122 0.69519 0.0
C303 C 0.64427 0.9537 0.71575 0.0
C304 C 0.60396 0.91879 0.7083 0.0
C305 C 0.60784 0.90844 0.7423 0.0
C306 C 0.6309 0.92017 0.76241 0.0
C307 C 0.649 0.94254 0.74923 0.0
H308 H 0.53397 0.61327 0.17881 0.0
H309 H 0.56196 0.67557 0.25694 0.0
H310 H 0.57194 0.57871 0.19786 0.0
H311 H 0.60049 0.64079 0.27565 0.0
H312 H 0.68176 0.57166 0.26983 0.0
H313 H 0.64879 0.61084 0.24827 0.0
H314 H 0.57413 0.55241 0.25991 0.0
H315 H 0.60655 0.51378 0.28191 0.0
C316 C 0.54855 0.6198 0.19968 0.0
C317 C 0.54485 0.64701 0.21662 0.0
C318 C 0.57022 0.59998 0.21057 0.0
C319 C 0.5889 0.60712 0.23828 0.0
C320 C 0.58634 0.63493 0.25412 0.0
C321 C 0.56429 0.65469 0.24352 0.0
C322 C 0.65828 0.56735 0.26786 0.0
C323 C 0.64668 0.53973 0.27748 0.0
C324 C 0.63951 0.5897 0.25568 0.0
C325 C 0.60907 0.58442 0.25228 0.0
C326 C 0.59758 0.55687 0.26202 0.0
C327 C 0.61614 0.53485 0.27474 0.0
H328 H 0.94105 0.62631 0.82647 0.0
H329 H 0.94223 0.67188 0.72821 0.0
H330 H 0.9013 0.59469 0.80584 0.0
H331 H 0.90192 0.64059 0.70772 0.0
H332 H 0.81889 0.55074 0.76678 0.0
H333 H 0.84997 0.59127 0.78737 0.0
H334 H 0.89915 0.58885 0.69147 0.0
H335 H 0.86786 0.54895 0.67078 0.0
C336 C 0.93243 0.62991 0.80066 0.0
C337 C 0.94494 0.65133 0.77881 0.0
C338 C 0.90949 0.61193 0.78891 0.0
C339 C 0.89855 0.61499 0.75505 0.0
C340 C 0.91016 0.6374 0.73377 0.0
C341 C 0.93313 0.6554 0.74554 0.0
C342 C 0.83607 0.55922 0.74995 0.0
C343 C 0.84112 0.54656 0.7173 0.0
C344 C 0.85394 0.58231 0.76179 0.0
C345 C 0.87713 0.59318 0.74114 0.0
C346 C 0.88127 0.58128 0.70788 0.0
C347 C 0.86347 0.55824 0.69611 0.0
H348 H 0.89113 0.96006 0.32394 0.0
H349 H 0.82821 0.93981 0.24334 0.0
H350 H 0.92318 0.92052 0.30338 0.0
H351 H 0.86031 0.89996 0.22284 0.0
H352 H 0.96653 0.83482 0.27308 0.0
H353 H 0.92734 0.86622 0.29647 0.0
H354 H 0.90925 0.8993 0.19373 0.0
H355 H 0.94815 0.86781 0.17037 0.0
C356 C 0.88398 0.94689 0.30209 0.0
C357 C 0.85729 0.95314 0.28507 0.0
C358 C 0.90224 0.9241 0.29047 0.0
C359 C 0.89427 0.90717 0.26146 0.0
C360 C 0.86712 0.91282 0.24508 0.0
C361 C 0.84872 0.93553 0.25688 0.0
C362 C 0.95386 0.84847 0.25546 0.0
C363 C 0.96052 0.84907 0.21996 0.0
C364 C 0.93154 0.86653 0.26886 0.0
C365 C 0.91536 0.88534 0.24696 0.0
C366 C 0.92114 0.88485 0.21122 0.0
C367 C 0.94355 0.86695 0.19787 0.0
H368 H 0.61557 0.24333 0.24186 0.0
H369 H 0.53566 0.29326 0.22387 0.0
H370 H 0.63974 0.28774 0.26386 0.0
H371 H 0.56009 0.33789 0.24555 0.0
H372 H 0.63247 0.41261 0.23728 0.0
H373 H 0.60419 0.36856 0.22177 0.0
H374 H 0.63492 0.32489 0.31438 0.0
H375 H 0.66298 0.3691 0.33019 0.0
C376 C 0.60311 0.26376 0.24291 0.0
C377 C 0.57379 0.26493 0.2311 0.0
C378 C 0.6169 0.2891 0.25563 0.0
C379 C 0.60177 0.31618 0.25628 0.0
C380 C 0.57225 0.31727 0.24511 0.0
C381 C 0.55827 0.29176 0.2329 0.0
C382 C 0.63306 0.39365 0.2544 0.0
C383 C 0.64999 0.39418 0.28485 0.0
C384 C 0.61673 0.36857 0.24565 0.0
C385 C 0.61738 0.34342 0.26694 0.0
C386 C 0.63416 0.344 0.2975 0.0
C387 C 0.65013 0.36926 0.30654 0.0
H388 H 0.2151 0.53201 0.76973 0.0
H389 H 0.21233 0.59074 0.68161 0.0
H390 H 0.16799 0.55256 0.79025 0.0
H391 H 0.16579 0.61107 0.70193 0.0
H392 H 0.07133 0.62607 0.7295 0.0
H393 H 0.11349 0.59656 0.71071 0.0
H394 H 0.15092 0.60218 0.81329 0.0
H395 H 0.10853 0.63156 0.83226 0.0
C396 C 0.20433 0.54908 0.75466 0.0
C397 C 0.21738 0.55985 0.72416 0.0
C398 C 0.1775 0.56089 0.76643 0.0
C399 C 0.16316 0.58331 0.74759 0.0
C400 C 0.17604 0.59352 0.71675 0.0
C401 C 0.20285 0.58201 0.70525 0.0
C402 C 0.08834 0.62066 0.74819 0.0
C403 C 0.08681 0.63139 0.78224 0.0
C404 C 0.11251 0.60384 0.73739 0.0
C405 C 0.13563 0.59733 0.76045 0.0
C406 C 0.13335 0.60671 0.79502 0.0
C407 C 0.10918 0.62366 0.8058 0.0
H408 H 0.87878 0.08162 0.23964 0.0
H409 H 0.84789 0.12625 0.33166 0.0
H410 H 0.90672 0.12574 0.2232 0.0
H411 H 0.87563 0.17034 0.31506 0.0
H412 H 0.89398 0.25171 0.24346 0.0
H413 H 0.87031 0.20689 0.26501 0.0
H414 H 0.95021 0.15754 0.24515 0.0
H415 H 0.97412 0.2026 0.22381 0.0
C416 C 0.8781 0.10079 0.25641 0.0
C417 C 0.86109 0.10058 0.28683 0.0
C418 C 0.89421 0.12593 0.24712 0.0
C419 C 0.89326 0.15141 0.26786 0.0
C420 C 0.87657 0.15104 0.29851 0.0
C421 C 0.86079 0.12579 0.30803 0.0
C422 C 0.90659 0.23136 0.24401 0.0
C423 C 0.93586 0.23059 0.23196 0.0
C424 C 0.89308 0.20576 0.25647 0.0
C425 C 0.90843 0.17878 0.25667 0.0
C426 C 0.93786 0.17805 0.24505 0.0
C427 C 0.95155 0.20381 0.23306 0.0
H428 H 0.27894 0.97046 0.75192 0.0
H429 H 0.26309 0.89218 0.6907 0.0
H430 H 0.32558 0.94912 0.77237 0.0
H431 H 0.3092 0.87094 0.71121 0.0
H432 H 0.40578 0.85251 0.7258 0.0
H433 H 0.36266 0.87939 0.70488 0.0
H434 H 0.34269 0.90699 0.80934 0.0
H435 H 0.38616 0.88033 0.83029 0.0
C436 C 0.28539 0.94873 0.7429 0.0
C437 C 0.26741 0.93299 0.71971 0.0
C438 C 0.312 0.93651 0.75465 0.0
C439 C 0.32114 0.90847 0.74316 0.0
C440 C 0.30304 0.89281 0.72005 0.0
C441 C 0.27649 0.9049 0.70851 0.0
C442 C 0.39239 0.86459 0.74426 0.0
C443 C 0.39918 0.86413 0.77971 0.0
C444 C 0.36762 0.87985 0.7323 0.0
C445 C 0.34911 0.89501 0.75553 0.0
C446 C 0.35662 0.89563 0.79081 0.0
C447 C 0.38142 0.88027 0.80281 0.0
H448 H 0.52269 0.19328 0.78982 0.0
H449 H 0.57219 0.24298 0.71394 0.0
H450 H 0.54629 0.14778 0.77003 0.0
H451 H 0.59591 0.19751 0.69432 0.0
H452 H 0.61935 0.10653 0.65214 0.0
H453 H 0.58757 0.14853 0.66635 0.0
H454 H 0.59786 0.12932 0.77522 0.0
H455 H 0.62946 0.08735 0.76104 0.0
C456 C 0.53825 0.19442 0.76854 0.0
C457 C 0.54574 0.2217 0.75355 0.0
C458 C 0.55188 0.1684 0.75738 0.0
C459 C 0.57313 0.16913 0.73085 0.0
C460 C 0.57947 0.19622 0.71465 0.0
C461 C 0.56596 0.22227 0.72595 0.0
C462 C 0.61454 0.11112 0.67908 0.0
C463 C 0.62696 0.09376 0.70551 0.0
C464 C 0.59647 0.13521 0.6872 0.0
C465 C 0.59025 0.14222 0.72188 0.0
C466 C 0.60196 0.12427 0.74823 0.0
C467 C 0.6202 0.10035 0.74013 0.0
H468 H 0.43062 0.60836 0.24924 0.0
H469 H 0.37462 0.64958 0.17276 0.0
H470 H 0.39118 0.57385 0.26359 0.0
H471 H 0.33458 0.61607 0.18814 0.0
H472 H 0.26951 0.54411 0.21064 0.0
H473 H 0.3144 0.56777 0.18891 0.0
H474 H 0.34644 0.57622 0.29389 0.0
H475 H 0.30251 0.55161 0.31513 0.0
C476 C 0.40984 0.60998 0.23546 0.0
C477 C 0.40556 0.63181 0.21014 0.0
C478 C 0.38715 0.5903 0.24378 0.0
C479 C 0.35947 0.59232 0.22737 0.0
C480 C 0.35565 0.61353 0.20107 0.0
C481 C 0.37852 0.63294 0.1924 0.0
C482 C 0.28651 0.55049 0.22889 0.0
C483 C 0.28246 0.54612 0.26457 0.0
C484 C 0.31211 0.56429 0.21651 0.0
C485 C 0.33403 0.57421 0.23961 0.0
C486 C 0.33038 0.56856 0.27517 0.0
C487 C 0.30502 0.55456 0.28745 0.0
H488 H 0.85958 0.41712 0.7702 0.0
H489 H 0.86428 0.38554 0.66481 0.0
H490 H 0.88822 0.37454 0.78947 0.0
H491 H 0.89281 0.34272 0.68422 0.0
H492 H 0.96276 0.27998 0.73162 0.0
H493 H 0.94085 0.32651 0.71152 0.0
H494 H 0.87569 0.32126 0.79303 0.0
H495 H 0.89745 0.27517 0.81303 0.0
C496 C 0.86701 0.40124 0.7511 0.0
C497 C 0.85948 0.40451 0.71605 0.0
C498 C 0.88329 0.3768 0.76216 0.0
C499 C 0.89248 0.35516 0.7384 0.0
C500 C 0.88616 0.35913 0.70309 0.0
C501 C 0.86973 0.38356 0.69202 0.0
C502 C 0.94384 0.28891 0.74525 0.0
C503 C 0.93178 0.27397 0.77385 0.0
C504 C 0.93127 0.31543 0.7337 0.0
C505 C 0.90667 0.32758 0.75083 0.0
C506 C 0.8949 0.3127 0.77962 0.0
C507 C 0.90725 0.28617 0.79092 0.0
H508 H 0.12755 0.85729 0.15428 0.0
H509 H 0.08514 0.8847 0.24922 0.0
H510 H 0.17129 0.88604 0.16969 0.0
H511 H 0.12886 0.91359 0.26448 0.0
H512 H 0.20618 0.97922 0.26803 0.0
H513 H 0.16073 0.95756 0.24472 0.0
H514 H 0.20861 0.87816 0.21828 0.0
H515 H 0.2538 0.89958 0.24175 0.0
C516 C 0.1274 0.86983 0.17816 0.0
C517 C 0.10305 0.86861 0.20069 0.0
C518 C 0.15245 0.88617 0.187 0.0
C519 C 0.15347 0.90189 0.21833 0.0
C520 C 0.12856 0.90184 0.24005 0.0
C521 C 0.10363 0.8852 0.23141 0.0
C522 C 0.207 0.95729 0.25684 0.0
C523 C 0.23344 0.941 0.25678 0.0
C524 C 0.18102 0.94489 0.24367 0.0
C525 C 0.18121 0.91623 0.22971 0.0
C526 C 0.20791 0.90042 0.22856 0.0
C527 C 0.23372 0.91261 0.24217 0.0
H528 H 0.34282 0.59158 0.77974 0.0
H529 H 0.37656 0.60636 0.67656 0.0
H530 H 0.37103 0.6338 0.80071 0.0
H531 H 0.4044 0.649 0.69742 0.0
H532 H 0.46757 0.71238 0.75371 0.0
H533 H 0.44524 0.66569 0.73512 0.0
H534 H 0.36627 0.68699 0.7929 0.0
H535 H 0.38858 0.73307 0.81171 0.0
C536 C 0.35644 0.60373 0.7616 0.0
C537 C 0.3573 0.59584 0.72647 0.0
C538 C 0.37248 0.628 0.77356 0.0
C539 C 0.38969 0.64494 0.75065 0.0
C540 C 0.39151 0.63629 0.71576 0.0
C541 C 0.37545 0.61197 0.70378 0.0
C542 C 0.44551 0.70693 0.76251 0.0
C543 C 0.42981 0.72635 0.78413 0.0
C544 C 0.43269 0.6803 0.75178 0.0
C545 C 0.40405 0.67258 0.76269 0.0
C546 C 0.38856 0.692 0.78452 0.0
C547 C 0.40127 0.71855 0.79509 0.0
H548 H 0.87997 0.35738 0.16106 0.0
H549 H 0.92926 0.38543 0.25093 0.0
H550 H 0.83786 0.38707 0.1801 0.0
H551 H 0.88746 0.41543 0.26961 0.0
H552 H 0.79408 0.42203 0.31644 0.0
H553 H 0.83931 0.40128 0.29292 0.0
H554 H 0.81813 0.43742 0.19242 0.0
H555 H 0.77227 0.45814 0.21614 0.0
C556 C 0.88201 0.37033 0.18451 0.0
C557 C 0.90775 0.3688 0.20474 0.0
C558 C 0.85795 0.38745 0.19532 0.0
C559 C 0.85922 0.40331 0.22658 0.0
C560 C 0.88562 0.40303 0.24573 0.0
C561 C 0.90961 0.38594 0.23495 0.0
C562 C 0.79913 0.42579 0.28938 0.0
C563 C 0.7796 0.44164 0.2681 0.0
C564 C 0.8252 0.41408 0.27594 0.0
C565 C 0.83239 0.41781 0.24083 0.0
C566 C 0.81308 0.43406 0.21955 0.0
C567 C 0.78695 0.44602 0.23313 0.0
H568 H 0.01877 0.79657 0.76882 0.0
H569 H 0.10025 0.74918 0.75107 0.0
H570 H 0.04158 0.84176 0.74605 0.0
H571 H 0.12274 0.79404 0.72794 0.0
H572 H 0.14334 0.87304 0.65843 0.0
H573 H 0.11533 0.82931 0.6758 0.0
H574 H 0.08551 0.87477 0.76762 0.0
H575 H 0.11385 0.91848 0.75053 0.0
C576 C 0.0414 0.79576 0.7597 0.0
C577 C 0.0578 0.76944 0.76174 0.0
C578 C 0.05444 0.82158 0.74685 0.0
C579 C 0.08385 0.82129 0.73521 0.0
C580 C 0.09994 0.79478 0.73645 0.0
C581 C 0.08712 0.76917 0.74984 0.0
C582 C 0.13054 0.87382 0.68212 0.0
C583 C 0.13088 0.89907 0.70325 0.0
C584 C 0.11462 0.84879 0.69208 0.0
C585 C 0.09838 0.8487 0.72306 0.0
C586 C 0.09771 0.87437 0.74348 0.0
C587 C 0.11402 0.89928 0.73379 0.0
H588 H 0.62804 0.13689 0.16122 0.0
H589 H 0.57927 0.11419 0.25361 0.0
H590 H 0.66975 0.10733 0.18146 0.0
H591 H 0.62064 0.08417 0.2735 0.0
H592 H 0.71429 0.07659 0.31901 0.0
H593 H 0.66917 0.09736 0.2953 0.0
H594 H 0.68875 0.05777 0.19612 0.0
H595 H 0.73454 0.03719 0.21996 0.0
C596 C 0.62603 0.12512 0.18552 0.0
C597 C 0.60056 0.12812 0.20605 0.0
C598 C 0.64985 0.10806 0.19704 0.0
C599 C 0.64862 0.09367 0.22927 0.0
C600 C 0.62247 0.09542 0.24884 0.0
C601 C 0.59872 0.1125 0.23738 0.0
C602 C 0.7089 0.07208 0.29221 0.0
C603 C 0.728 0.05536 0.27129 0.0
C604 C 0.68288 0.08381 0.27867 0.0
C605 C 0.67529 0.07913 0.24384 0.0
C606 C 0.69412 0.06192 0.22299 0.0
C607 C 0.72022 0.05005 0.23665 0.0
H608 H 0.4785 0.80072 0.22604 0.0
H609 H 0.4083 0.75101 0.27446 0.0
H610 H 0.4564 0.84665 0.24697 0.0
H611 H 0.38588 0.79673 0.29462 0.0
H612 H 0.35903 0.8825 0.3435 0.0
H613 H 0.38957 0.8391 0.33211 0.0
H614 H 0.41273 0.87471 0.23188 0.0
H615 H 0.38282 0.91834 0.24367 0.0
C616 C 0.45859 0.79959 0.24156 0.0
C617 C 0.44503 0.7723 0.24845 0.0
C618 C 0.4458 0.8259 0.25332 0.0
C619 C 0.41921 0.82542 0.27221 0.0
C620 C 0.40651 0.79796 0.28048 0.0
C621 C 0.41929 0.77171 0.26876 0.0
C622 C 0.37095 0.88118 0.31922 0.0
C623 C 0.36839 0.9037 0.29437 0.0
C624 C 0.38834 0.85626 0.31262 0.0
C625 C 0.40348 0.85331 0.281 0.0
C626 C 0.4017 0.87639 0.25669 0.0
C627 C 0.38437 0.90133 0.26333 0.0
H628 H 0.70336 0.46959 0.74916 0.0
H629 H 0.73743 0.38528 0.71507 0.0
H630 H 0.65951 0.44483 0.7726 0.0
H631 H 0.69387 0.36075 0.73819 0.0
H632 H 0.62641 0.32174 0.8105 0.0
H633 H 0.67046 0.34967 0.79462 0.0
H634 H 0.61565 0.41741 0.74896 0.0
H635 H 0.57148 0.38956 0.76515 0.0
C636 C 0.70152 0.44581 0.74681 0.0
C637 C 0.72375 0.42936 0.73027 0.0
C638 C 0.67642 0.43168 0.76008 0.0
C639 C 0.67334 0.40085 0.75736 0.0
C640 C 0.6958 0.38447 0.74115 0.0
C641 C 0.72066 0.39857 0.72768 0.0
C642 C 0.62374 0.34274 0.79741 0.0
C643 C 0.59553 0.35336 0.78882 0.0
C644 C 0.64896 0.35866 0.78818 0.0
C645 C 0.6465 0.3856 0.77028 0.0
C646 C 0.61823 0.39682 0.76294 0.0
C647 C 0.59297 0.38081 0.77205 0.0
H648 H 0.12794 0.60675 0.32636 0.0
H649 H 0.16394 0.59845 0.22321 0.0
H650 H 0.10131 0.65137 0.30858 0.0
H651 H 0.1372 0.64261 0.20545 0.0
H652 H 0.11784 0.74085 0.19907 0.0
H653 H 0.14151 0.6956 0.2186 0.0
H654 H 0.06069 0.66897 0.26926 0.0
H655 H 0.03687 0.71475 0.24986 0.0
C656 C 0.12997 0.61434 0.29987 0.0
C657 C 0.14817 0.59928 0.27623 0.0
C658 C 0.11463 0.63976 0.28967 0.0
C659 C 0.11739 0.65061 0.25572 0.0
C660 C 0.13504 0.63507 0.23195 0.0
C661 C 0.15023 0.60969 0.24208 0.0
C662 C 0.10508 0.72542 0.21446 0.0
C663 C 0.07546 0.73128 0.22284 0.0
C664 C 0.11861 0.6994 0.22546 0.0
C665 C 0.10287 0.6786 0.24517 0.0
C666 C 0.07338 0.68467 0.25421 0.0
C667 C 0.05974 0.71078 0.24303 0.0
H668 H 0.88301 0.12635 0.82806 0.0
H669 H 0.90705 0.14435 0.72188 0.0
H670 H 0.8398 0.09875 0.80819 0.0
H671 H 0.86414 0.11657 0.70209 0.0
H672 H 0.76485 0.10325 0.68453 0.0
H673 H 0.81045 0.12589 0.7045 0.0
H674 H 0.82397 0.05344 0.77559 0.0
H675 H 0.77787 0.03069 0.7556 0.0
C676 C 0.87925 0.12412 0.8005 0.0
C677 C 0.89825 0.1377 0.77652 0.0
C678 C 0.85461 0.10819 0.78914 0.0
C679 C 0.84847 0.10571 0.7536 0.0
C680 C 0.86806 0.11849 0.72965 0.0
C681 C 0.89271 0.13428 0.74099 0.0
C682 C 0.77753 0.09208 0.70438 0.0
C683 C 0.76779 0.0652 0.71852 0.0
C684 C 0.80378 0.10496 0.71565 0.0
C685 C 0.82089 0.09135 0.74145 0.0
C686 C 0.81114 0.06449 0.75577 0.0
C687 C 0.78486 0.05143 0.74426 0.0
H688 H 0.53785 0.18062 0.05632 0.0
H689 H 0.51448 0.2667 0.09621 0.0
H690 H 0.53299 0.19931 0.99726 0.0
H691 H 0.50953 0.28533 0.03714 0.0
H692 H 0.54158 0.31299 0.92719 0.0
H693 H 0.54329 0.2953 0.98694 0.0
H694 H 0.49338 0.21797 0.95756 0.0
H695 H 0.49173 0.23558 0.89785 0.0
C696 C 0.53158 0.20349 0.05245 0.0
C697 C 0.52658 0.22222 0.08081 0.0
C698 C 0.52864 0.21413 0.01868 0.0
C699 C 0.52086 0.24376 0.01265 0.0
C700 C 0.51579 0.26247 0.04105 0.0
C701 C 0.5185 0.25176 0.07482 0.0
C702 C 0.53078 0.29234 0.93359 0.0
C703 C 0.51657 0.27563 0.90791 0.0
C704 C 0.53167 0.28228 0.96777 0.0
C705 C 0.51858 0.2552 0.97682 0.0
C706 C 0.50394 0.23875 0.95122 0.0
C707 C 0.50284 0.24893 0.91712 0.0
H708 H 0.20247 0.48331 0.42309 0.0
H709 H 0.24491 0.56761 0.40732 0.0
H710 H 0.21892 0.48314 0.48329 0.0
H711 H 0.26312 0.56672 0.46632 0.0
H712 H 0.26872 0.57335 0.58156 0.0
H713 H 0.24962 0.57269 0.52294 0.0
H714 H 0.25881 0.47748 0.52053 0.0
H715 H 0.276 0.4783 0.58046 0.0
C716 C 0.2155 0.50169 0.43253 0.0
C717 C 0.2222 0.5256 0.41078 0.0
C718 C 0.2252 0.50152 0.46692 0.0
C719 C 0.24234 0.52498 0.47998 0.0
C720 C 0.24932 0.54863 0.45774 0.0
C721 C 0.23905 0.5491 0.42374 0.0
C722 C 0.26668 0.55231 0.56842 0.0
C723 C 0.27397 0.5259 0.58535 0.0
C724 C 0.2559 0.55188 0.53464 0.0
C725 C 0.25289 0.52505 0.51655 0.0
C726 C 0.26034 0.49855 0.53365 0.0
C727 C 0.27046 0.49897 0.56788 0.0
H728 H 0.99589 0.23126 0.09823 0.0
H729 H 0.9723 0.31743 0.05876 0.0
H730 H 0.99854 0.21225 0.03922 0.0
H731 H 0.97477 0.29832 -0.00033 0.0
H732 H 0.00652 0.25933 0.89691 0.0
H733 H 0.01035 0.27801 0.95613 0.0
H734 H 0.96154 0.20234 0.99319 0.0
H735 H 0.95785 0.18362 0.93417 0.0
C736 C 0.99145 0.24618 0.07693 0.0
C737 C 0.98375 0.27579 0.08307 0.0
C738 C 0.99285 0.23525 0.04318 0.0
C739 C 0.98675 0.25377 0.01487 0.0
C740 C 0.97985 0.28361 0.02098 0.0
C741 C 0.97827 0.2945 0.05478 0.0
C742 C 0.99689 0.24656 0.91778 0.0
C743 C 0.98184 0.22006 0.91097 0.0
C744 C 0.99893 0.25734 0.9516 0.0
C745 C 0.98619 0.24166 0.97923 0.0
C746 C 0.97184 0.21475 0.97246 0.0
C747 C 0.96961 0.2041 0.93866 0.0
H748 H 0.23332 0.00134 0.39219 0.0
H749 H 0.31601 0.96989 0.43418 0.0
H750 H 0.21312 0.0052 0.45064 0.0
H751 H 0.2957 0.97338 0.49256 0.0
H752 H 0.25856 0.00569 0.5948 0.0
H753 H 0.27828 0.00928 0.53607 0.0
H754 H 0.1983 0.97003 0.49606 0.0
H755 H 0.17847 0.96678 0.55465 0.0
C756 C 0.24721 0.99539 0.41393 0.0
C757 C 0.27619 0.9852 0.40867 0.0
C758 C 0.2356 0.99748 0.44735 0.0
C759 C 0.25279 0.98953 0.47617 0.0
C760 C 0.28202 0.98 0.47091 0.0
C761 C 0.29359 0.97782 0.43747 0.0
C762 C 0.24507 0.99817 0.57339 0.0
C763 C 0.21703 0.98585 0.57927 0.0
C764 C 0.25643 5e-05 0.53983 0.0
C765 C 0.23991 0.98979 0.51149 0.0
C766 C 0.21145 0.97839 0.51732 0.0
C767 C 0.20015 0.9764 0.55088 0.0
H768 H 0.50978 0.75174 0.91083 0.0
H769 H 0.44086 0.81358 0.9382 0.0
H770 H 0.51058 0.7335 0.97037 0.0
H771 H 0.4419 0.79561 -0.00232 0.0
H772 H 0.42574 0.72975 0.08579 0.0
H773 H 0.42745 0.74948 0.0271 0.0
H774 H 0.52286 0.74873 0.03038 0.0
H775 H 0.52115 0.72864 0.0891 0.0
C776 C 0.49506 0.76165 0.92965 0.0
C777 C 0.47517 0.78397 0.91987 0.0
C778 C 0.49558 0.75128 0.96374 0.0
C779 C 0.47614 0.76298 0.9886 0.0
C780 C 0.45681 0.78585 0.97895 0.0
C781 C 0.45636 0.79627 0.94496 0.0
C782 C 0.44707 0.73376 0.07397 0.0
C783 C 0.4733 0.72768 0.09199 0.0
C784 C 0.44806 0.74525 0.04046 0.0
C785 C 0.4753 0.7508 0.02422 0.0
C786 C 0.50156 0.74447 0.04215 0.0
C787 C 0.50057 0.73309 0.07578 0.0
H788 H 0.72585 0.49979 0.60157 0.0
H789 H 0.81027 0.47053 0.5621 0.0
H790 H 0.70764 0.50533 0.54231 0.0
H791 H 0.79209 0.4761 0.503 0.0
H792 H 0.75841 0.51231 0.40108 0.0
H793 H 0.77495 0.51531 0.46118 0.0
H794 H 0.69623 0.46932 0.49416 0.0
H795 H 0.67967 0.4663 0.43413 0.0
C796 C 0.74056 0.49478 0.58024 0.0
C797 C 0.76943 0.48461 0.58639 0.0
C798 C 0.73012 0.49786 0.54639 0.0
C799 C 0.74847 0.49117 0.51811 0.0
C800 C 0.77757 0.48175 0.52431 0.0
C801 C 0.78791 0.47837 0.55812 0.0
C802 C 0.74444 0.50325 0.42123 0.0
C803 C 0.71784 0.48891 0.41295 0.0
C804 C 0.75398 0.50482 0.45556 0.0
C805 C 0.73696 0.49237 0.48225 0.0
C806 C 0.70969 0.47928 0.47413 0.0
C807 C 0.70028 0.47745 0.43977 0.0
H808 H 0.0312 0.81907 0.0574 0.0
H809 H 0.00199 0.73509 0.09813 0.0
H810 H 0.02658 0.79997 -0.00136 0.0
H811 H 0.99706 0.71606 0.03924 0.0
H812 H 0.034 0.68411 0.9333 0.0
H813 H 0.0321 0.70293 0.99244 0.0
H814 H 0.98995 0.7827 0.95582 0.0
H815 H 0.99214 0.76401 0.89659 0.0
C816 C 0.02345 0.79665 0.05376 0.0
C817 C 0.01709 0.77852 0.08231 0.0
C818 C 0.02065 0.78576 0.02011 0.0
C819 C 0.01156 0.75648 0.01435 0.0
C820 C 0.00445 0.7386 0.04292 0.0
C821 C 0.00711 0.74955 0.07659 0.0
C822 C 0.02415 0.70557 0.93793 0.0
C823 C 0.01336 0.72266 0.91036 0.0
C824 C 0.02289 0.71626 0.9718 0.0
C825 C 0.01091 0.74431 0.97874 0.0
C826 C -0.00042 0.76114 0.9512 0.0
C827 C 0.00073 0.75039 0.91734 0.0
H828 H 0.73851 0.97005 0.59078 0.0
H829 H 0.70415 0.05598 0.56309 0.0
H830 H 0.76143 0.96592 0.53324 0.0
H831 H 0.72746 0.05201 0.50638 0.0
H832 H 0.80804 0.05007 0.43389 0.0
H833 H 0.78668 0.04768 0.49179 0.0
H834 H 0.74006 0.96799 0.46423 0.0
H835 H 0.76102 0.97056 0.40563 0.0
C836 C 0.73571 0.98789 0.57238 0.0
C837 C 0.71965 0.01337 0.58136 0.0
C838 C 0.74874 0.98549 0.5396 0.0
C839 C 0.74631 0.00878 0.51578 0.0
C840 C 0.72979 0.03391 0.52455 0.0
C841 C 0.71638 0.03609 0.55691 0.0
C842 C 0.79359 0.03177 0.44023 0.0
C843 C 0.786 0.01061 0.4152 0.0
C844 C 0.78134 0.0305 0.4733 0.0
C845 C 0.76167 0.00779 0.48214 0.0
C846 C 0.75526 0.98566 0.45785 0.0
C847 C 0.76717 0.98719 0.42444 0.0
loop_
_geom_bond_atom_site_label_1
_geom_bond_atom_site_label_2
_geom_bond_distance
_geom_bond_site_symmetry_2
_ccdc_geom_bond_type
In0 O1 2.294 . S
In0 O2 2.326 . S
In0 O6 2.266 . S
In0 O7 2.326 . S
In0 O8 2.266 . S
In0 O9 2.326 . S
In0 O11 2.294 . S
In0 O12 2.326 . S
O1 In0 2.294 . S
O1 C10 1.240 . S
O2 In0 2.326 . S
O2 C10 1.252 . S
C3 O6 1.252 . S
C3 O7 1.260 . S
C4 O11 1.240 . S
C4 O12 1.252 . S
C5 O8 1.252 . S
C5 O9 1.260 . S
O6 In0 2.266 . S
O6 C3 1.252 . S
O7 In0 2.326 . S
O7 C3 1.260 . S
O8 In0 2.266 . S
O8 C5 1.252 . S
O9 In0 2.326 . S
O9 C5 1.260 . S
C10 O1 1.240 . S
C10 O2 1.252 . S
O11 In0 2.294 . S
O11 C4 1.240 . S
O12 In0 2.326 . S
O12 C4 1.252 . S
In13 O14 2.294 . S
In13 O15 2.326 . S
In13 O19 2.266 . S
In13 O20 2.326 . S
In13 O21 2.266 . S
In13 O22 2.326 . S
In13 O24 2.294 . S
In13 O25 2.326 . S
O14 In13 2.294 . S
O14 C23 1.240 . S
O15 In13 2.326 . S
O15 C23 1.252 . S
C16 O19 1.252 . S
C16 O20 1.260 . S
C17 O24 1.240 . S
C17 O25 1.252 . S
C18 O21 1.252 . S
C18 O22 1.260 . S
O19 In13 2.266 . S
O19 C16 1.252 . S
O20 In13 2.326 . S
O20 C16 1.260 . S
O21 In13 2.266 . S
O21 C18 1.252 . S
O22 In13 2.326 . S
O22 C18 1.260 . S
C23 O14 1.240 . S
C23 O15 1.252 . S
O24 In13 2.294 . S
O24 C17 1.240 . S
O25 In13 2.326 . S
O25 C17 1.252 . S
In26 O27 2.294 1_655 S
In26 O28 2.326 1_655 S
In26 O32 2.266 . S
In26 O33 2.326 . S
In26 O34 2.266 . S
In26 O35 2.326 1_655 S
In26 O37 2.294 . S
In26 O38 2.326 . S
O27 In26 2.294 1_455 S
O27 C36 1.240 . S
O28 In26 2.326 1_455 S
O28 C36 1.252 . S
C29 O32 1.252 . S
C29 O33 1.260 . S
C30 O37 1.240 . S
C30 O38 1.252 . S
C31 O34 1.252 . S
C31 O35 1.260 1_655 S
O32 In26 2.266 . S
O32 C29 1.252 . S
O33 In26 2.326 . S
O33 C29 1.260 . S
O34 In26 2.266 . S
O34 C31 1.252 . S
O35 In26 2.326 1_455 S
O35 C31 1.260 1_455 S
C36 O27 1.240 . S
C36 O28 1.252 . S
O37 In26 2.294 . S
O37 C30 1.240 . S
O38 In26 2.326 . S
O38 C30 1.252 . S
In39 O40 2.294 1_565 S
In39 O41 2.326 1_565 S
In39 O45 2.266 . S
In39 O46 2.326 . S
In39 O47 2.266 . S
In39 O48 2.326 1_565 S
In39 O50 2.294 . S
In39 O51 2.326 . S
O40 In39 2.294 1_545 S
O40 C49 1.240 . S
O41 In39 2.326 1_545 S
O41 C49 1.252 . S
C42 O45 1.252 . S
C42 O46 1.260 . S
C43 O50 1.240 . S
C43 O51 1.252 . S
C44 O47 1.252 . S
C44 O48 1.260 1_565 S
O45 In39 2.266 . S
O45 C42 1.252 . S
O46 In39 2.326 . S
O46 C42 1.260 . S
O47 In39 2.266 . S
O47 C44 1.252 . S
O48 In39 2.326 1_545 S
O48 C44 1.260 1_545 S
C49 O40 1.240 . S
C49 O41 1.252 . S
O50 In39 2.294 . S
O50 C43 1.240 . S
O51 In39 2.326 . S
O51 C43 1.252 . S
In52 O53 2.294 . S
In52 O54 2.326 . S
In52 O58 2.266 . S
In52 O59 2.326 . S
In52 O60 2.266 . S
In52 O61 2.326 . S
In52 O63 2.294 . S
In52 O64 2.326 . S
O53 In52 2.294 . S
O53 C62 1.240 . S
O54 In52 2.326 . S
O54 C62 1.252 . S
C55 O58 1.252 . S
C55 O59 1.260 . S
C56 O63 1.240 . S
C56 O64 1.252 . S
C57 O60 1.252 . S
C57 O61 1.260 . S
O58 In52 2.266 . S
O58 C55 1.252 . S
O59 In52 2.326 . S
O59 C55 1.260 . S
O60 In52 2.266 . S
O60 C57 1.252 . S
O61 In52 2.326 . S
O61 C57 1.260 . S
C62 O53 1.240 . S
C62 O54 1.252 . S
O63 In52 2.294 . S
O63 C56 1.240 . S
O64 In52 2.326 . S
O64 C56 1.252 . S
In65 O66 2.294 . S
In65 O67 2.326 . S
In65 O71 2.266 . S
In65 O72 2.326 . S
In65 O73 2.266 . S
In65 O74 2.326 . S
In65 O76 2.294 . S
In65 O77 2.326 . S
O66 In65 2.294 . S
O66 C75 1.240 . S
O67 In65 2.326 . S
O67 C75 1.252 . S
C68 O71 1.252 . S
C68 O72 1.260 . S
C69 O76 1.240 . S
C69 O77 1.252 . S
C70 O73 1.252 . S
C70 O74 1.260 . S
O71 In65 2.266 . S
O71 C68 1.252 . S
O72 In65 2.326 . S
O72 C68 1.260 . S
O73 In65 2.266 . S
O73 C70 1.252 . S
O74 In65 2.326 . S
O74 C70 1.260 . S
C75 O66 1.240 . S
C75 O67 1.252 . S
O76 In65 2.294 . S
O76 C69 1.240 . S
O77 In65 2.326 . S
O77 C69 1.252 . S
In78 O79 2.294 . S
In78 O80 2.326 . S
In78 O84 2.266 . S
In78 O85 2.326 1_655 S
In78 O86 2.266 . S
In78 O87 2.326 . S
In78 O89 2.294 1_655 S
In78 O90 2.326 1_655 S
O79 In78 2.294 . S
O79 C88 1.240 . S
O80 In78 2.326 . S
O80 C88 1.252 . S
C81 O84 1.252 . S
C81 O85 1.260 1_655 S
C82 O89 1.240 . S
C82 O90 1.252 . S
C83 O86 1.252 . S
C83 O87 1.260 . S
O84 In78 2.266 . S
O84 C81 1.252 . S
O85 In78 2.326 1_455 S
O85 C81 1.260 1_455 S
O86 In78 2.266 . S
O86 C83 1.252 . S
O87 In78 2.326 . S
O87 C83 1.260 . S
C88 O79 1.240 . S
C88 O80 1.252 . S
O89 In78 2.294 1_455 S
O89 C82 1.240 . S
O90 In78 2.326 1_455 S
O90 C82 1.252 . S
In91 O92 2.294 . S
In91 O93 2.326 . S
In91 O97 2.266 . S
In91 O98 2.326 1_565 S
In91 O99 2.266 . S
In91 O100 2.326 . S
In91 O102 2.294 1_565 S
In91 O103 2.326 1_565 S
O92 In91 2.294 . S
O92 C101 1.240 . S
O93 In91 2.326 . S
O93 C101 1.252 . S
C94 O97 1.252 . S
C94 O98 1.260 1_565 S
C95 O102 1.240 . S
C95 O103 1.252 . S
C96 O99 1.252 . S
C96 O100 1.260 . S
O97 In91 2.266 . S
O97 C94 1.252 . S
O98 In91 2.326 1_545 S
O98 C94 1.260 1_545 S
O99 In91 2.266 . S
O99 C96 1.252 . S
O100 In91 2.326 . S
O100 C96 1.260 . S
C101 O92 1.240 . S
C101 O93 1.252 . S
O102 In91 2.294 1_545 S
O102 C95 1.240 . S
O103 In91 2.326 1_545 S
O103 C95 1.252 . S
In104 O105 2.294 . S
In104 O106 2.326 . S
In104 O110 2.266 . S
In104 O111 2.326 . S
In104 O112 2.266 . S
In104 O113 2.326 . S
In104 O115 2.294 . S
In104 O116 2.326 . S
O105 In104 2.294 . S
O105 C114 1.240 . S
O106 In104 2.326 . S
O106 C114 1.252 . S
C107 O110 1.252 . S
C107 O111 1.260 . S
C108 O115 1.240 . S
C108 O116 1.252 . S
C109 O112 1.252 . S
C109 O113 1.260 . S
O110 In104 2.266 . S
O110 C107 1.252 . S
O111 In104 2.326 . S
O111 C107 1.260 . S
O112 In104 2.266 . S
O112 C109 1.252 . S
O113 In104 2.326 . S
O113 C109 1.260 . S
C114 O105 1.240 . S
C114 O106 1.252 . S
O115 In104 2.294 . S
O115 C108 1.240 . S
O116 In104 2.326 . S
O116 C108 1.252 . S
In117 O118 2.294 . S
In117 O119 2.326 . S
In117 O123 2.266 . S
In117 O124 2.326 . S
In117 O125 2.266 . S
In117 O126 2.326 . S
In117 O128 2.294 . S
In117 O129 2.326 . S
O118 In117 2.294 . S
O118 C127 1.240 . S
O119 In117 2.326 . S
O119 C127 1.252 . S
C120 O123 1.252 . S
C120 O124 1.260 . S
C121 O128 1.240 . S
C121 O129 1.252 . S
C122 O125 1.252 . S
C122 O126 1.260 . S
O123 In117 2.266 . S
O123 C120 1.252 . S
O124 In117 2.326 . S
O124 C120 1.260 . S
O125 In117 2.266 . S
O125 C122 1.252 . S
O126 In117 2.326 . S
O126 C122 1.260 . S
C127 O118 1.240 . S
C127 O119 1.252 . S
O128 In117 2.294 . S
O128 C121 1.240 . S
O129 In117 2.326 . S
O129 C121 1.252 . S
In130 O131 2.294 . S
In130 O132 2.326 . S
In130 O136 2.266 . S
In130 O137 2.326 1_455 S
In130 O138 2.266 . S
In130 O139 2.326 . S
In130 O141 2.294 1_455 S
In130 O142 2.326 1_455 S
O131 In130 2.294 . S
O131 C140 1.240 . S
O132 In130 2.326 . S
O132 C140 1.252 . S
C133 O136 1.252 . S
C133 O137 1.260 1_455 S
C134 O141 1.240 . S
C134 O142 1.252 . S
C135 O138 1.252 . S
C135 O139 1.260 . S
O136 In130 2.266 . S
O136 C133 1.252 . S
O137 In130 2.326 1_655 S
O137 C133 1.260 1_655 S
O138 In130 2.266 . S
O138 C135 1.252 . S
O139 In130 2.326 . S
O139 C135 1.260 . S
C140 O131 1.240 . S
C140 O132 1.252 . S
O141 In130 2.294 1_655 S
O141 C134 1.240 . S
O142 In130 2.326 1_655 S
O142 C134 1.252 . S
In143 O144 2.294 1_545 S
In143 O145 2.326 1_545 S
In143 O149 2.266 . S
In143 O150 2.326 . S
In143 O151 2.266 . S
In143 O152 2.326 1_545 S
In143 O154 2.294 . S
In143 O155 2.326 . S
O144 In143 2.294 1_565 S
O144 C153 1.240 . S
O145 In143 2.326 1_565 S
O145 C153 1.252 . S
C146 O149 1.252 . S
C146 O150 1.260 . S
C147 O154 1.240 . S
C147 O155 1.252 . S
C148 O151 1.252 . S
C148 O152 1.260 1_545 S
O149 In143 2.266 . S
O149 C146 1.252 . S
O150 In143 2.326 . S
O150 C146 1.260 . S
O151 In143 2.266 . S
O151 C148 1.252 . S
O152 In143 2.326 1_565 S
O152 C148 1.260 1_565 S
C153 O144 1.240 . S
C153 O145 1.252 . S
O154 In143 2.294 . S
O154 C147 1.240 . S
O155 In143 2.326 . S
O155 C147 1.252 . S
In156 O157 2.294 . S
In156 O158 2.326 . S
In156 O162 2.266 . S
In156 O163 2.326 . S
In156 O164 2.266 . S
In156 O165 2.326 . S
In156 O167 2.294 . S
In156 O168 2.326 . S
O157 In156 2.294 . S
O157 C166 1.240 . S
O158 In156 2.326 . S
O158 C166 1.252 . S
C159 O162 1.252 . S
C159 O163 1.260 . S
C160 O167 1.240 . S
C160 O168 1.252 . S
C161 O164 1.252 . S
C161 O165 1.260 . S
O162 In156 2.266 . S
O162 C159 1.252 . S
O163 In156 2.326 . S
O163 C159 1.260 . S
O164 In156 2.266 . S
O164 C161 1.252 . S
O165 In156 2.326 . S
O165 C161 1.260 . S
C166 O157 1.240 . S
C166 O158 1.252 . S
O167 In156 2.294 . S
O167 C160 1.240 . S
O168 In156 2.326 . S
O168 C160 1.252 . S
In169 O170 2.294 . S
In169 O171 2.326 . S
In169 O175 2.266 . S
In169 O176 2.326 . S
In169 O177 2.266 . S
In169 O178 2.326 . S
In169 O180 2.294 . S
In169 O181 2.326 . S
O170 In169 2.294 . S
O170 C179 1.240 . S
O171 In169 2.326 . S
O171 C179 1.252 . S
C172 O175 1.252 . S
C172 O176 1.260 . S
C173 O180 1.240 . S
C173 O181 1.252 . S
C174 O177 1.252 . S
C174 O178 1.260 . S
O175 In169 2.266 . S
O175 C172 1.252 . S
O176 In169 2.326 . S
O176 C172 1.260 . S
O177 In169 2.266 . S
O177 C174 1.252 . S
O178 In169 2.326 . S
O178 C174 1.260 . S
C179 O170 1.240 . S
C179 O171 1.252 . S
O180 In169 2.294 . S
O180 C173 1.240 . S
O181 In169 2.326 . S
O181 C173 1.252 . S
In182 O183 2.294 . S
In182 O184 2.326 . S
In182 O188 2.266 . S
In182 O189 2.326 1_455 S
In182 O190 2.266 . S
In182 O191 2.326 . S
In182 O193 2.294 1_455 S
In182 O194 2.326 1_455 S
O183 In182 2.294 . S
O183 C192 1.240 . S
O184 In182 2.326 . S
O184 C192 1.252 . S
C185 O188 1.252 . S
C185 O189 1.260 1_455 S
C186 O193 1.240 . S
C186 O194 1.252 . S
C187 O190 1.252 . S
C187 O191 1.260 . S
O188 In182 2.266 . S
O188 C185 1.252 . S
O189 In182 2.326 1_655 S
O189 C185 1.260 1_655 S
O190 In182 2.266 . S
O190 C187 1.252 . S
O191 In182 2.326 . S
O191 C187 1.260 . S
C192 O183 1.240 . S
C192 O184 1.252 . S
O193 In182 2.294 1_655 S
O193 C186 1.240 . S
O194 In182 2.326 1_655 S
O194 C186 1.252 . S
In195 O196 2.294 1_545 S
In195 O197 2.326 1_545 S
In195 O201 2.266 . S
In195 O202 2.326 . S
In195 O203 2.266 . S
In195 O204 2.326 1_545 S
In195 O206 2.294 . S
In195 O207 2.326 . S
O196 In195 2.294 1_565 S
O196 C205 1.240 . S
O197 In195 2.326 1_565 S
O197 C205 1.252 . S
C198 O201 1.252 . S
C198 O202 1.260 . S
C199 O206 1.240 . S
C199 O207 1.252 . S
C200 O203 1.252 . S
C200 O204 1.260 1_545 S
O201 In195 2.266 . S
O201 C198 1.252 . S
O202 In195 2.326 . S
O202 C198 1.260 . S
O203 In195 2.266 . S
O203 C200 1.252 . S
O204 In195 2.326 1_565 S
O204 C200 1.260 1_565 S
C205 O196 1.240 . S
C205 O197 1.252 . S
O206 In195 2.294 . S
O206 C199 1.240 . S
O207 In195 2.326 . S
O207 C199 1.252 . S
H208 C216 0.950 . S
H209 C221 0.950 . S
H210 C218 0.950 . S
H211 C220 0.950 . S
H212 C222 0.950 . S
H213 C224 0.950 . S
H214 C226 0.950 . S
H215 C227 0.950 . S
C216 H208 0.950 . S
C216 C217 1.386 . S
C216 C218 1.391 . S
C217 C216 1.386 . S
C217 C221 1.393 . S
C218 H210 0.950 . S
C218 C216 1.391 . S
C218 C219 1.400 . S
C219 C218 1.400 . S
C219 C220 1.398 . S
C219 C225 1.491 . S
C220 H211 0.950 . S
C220 C219 1.398 . S
C220 C221 1.391 . S
C221 H209 0.950 . S
C221 C217 1.393 . S
C221 C220 1.391 . S
C222 H212 0.950 . S
C222 C223 1.386 . S
C222 C224 1.391 . S
C223 C222 1.386 . S
C223 C227 1.393 . S
C224 H213 0.950 . S
C224 C222 1.391 . S
C224 C225 1.400 . S
C225 C219 1.491 . S
C225 C224 1.400 . S
C225 C226 1.398 . S
C226 H214 0.950 . S
C226 C225 1.398 . S
C226 C227 1.391 . S
C227 H215 0.950 . S
C227 C223 1.393 . S
C227 C226 1.391 . S
H228 C236 0.950 . S
H229 C241 0.950 . S
H230 C238 0.950 . S
H231 C240 0.950 . S
H232 C242 0.950 . S
H233 C244 0.950 . S
H234 C246 0.950 . S
H235 C247 0.950 . S
C236 H228 0.950 . S
C236 C237 1.386 . S
C236 C238 1.391 . S
C237 C236 1.386 . S
C237 C241 1.393 . S
C238 H230 0.950 . S
C238 C236 1.391 . S
C238 C239 1.400 . S
C239 C238 1.400 . S
C239 C240 1.398 . S
C239 C245 1.491 . S
C240 H231 0.950 . S
C240 C239 1.398 . S
C240 C241 1.391 . S
C241 H229 0.950 . S
C241 C237 1.393 . S
C241 C240 1.391 . S
C242 H232 0.950 . S
C242 C243 1.386 . S
C242 C244 1.391 . S
C243 C242 1.386 . S
C243 C247 1.393 . S
C244 H233 0.950 . S
C244 C242 1.391 . S
C244 C245 1.400 . S
C245 C239 1.491 . S
C245 C244 1.400 . S
C245 C246 1.398 . S
C246 H234 0.950 . S
C246 C245 1.398 . S
C246 C247 1.391 . S
C247 H235 0.950 . S
C247 C243 1.393 . S
C247 C246 1.391 . S
H248 C256 0.950 . S
H249 C261 0.950 . S
H250 C258 0.950 . S
H251 C260 0.950 . S
H252 C262 0.950 . S
H253 C264 0.950 . S
H254 C266 0.950 . S
H255 C267 0.950 . S
C256 H248 0.950 . S
C256 C257 1.386 . S
C256 C258 1.391 . S
C257 C256 1.386 . S
C257 C261 1.393 . S
C258 H250 0.950 . S
C258 C256 1.391 . S
C258 C259 1.400 . S
C259 C258 1.400 . S
C259 C260 1.398 . S
C259 C265 1.491 . S
C260 H251 0.950 . S
C260 C259 1.398 . S
C260 C261 1.391 . S
C261 H249 0.950 . S
C261 C257 1.393 . S
C261 C260 1.391 . S
C262 H252 0.950 . S
C262 C263 1.386 . S
C262 C264 1.391 . S
C263 C262 1.386 . S
C263 C267 1.393 . S
C264 H253 0.950 . S
C264 C262 1.391 . S
C264 C265 1.400 . S
C265 C259 1.491 . S
C265 C264 1.400 . S
C265 C266 1.398 . S
C266 H254 0.950 . S
C266 C265 1.398 . S
C266 C267 1.391 . S
C267 H255 0.950 . S
C267 C263 1.393 . S
C267 C266 1.391 . S
H268 C276 0.950 . S
H269 C281 0.950 . S
H270 C278 0.950 . S
H271 C280 0.950 . S
H272 C282 0.950 . S
H273 C284 0.950 . S
H274 C286 0.950 . S
H275 C287 0.950 . S
C276 H268 0.950 . S
C276 C277 1.386 . S
C276 C278 1.391 . S
C277 C276 1.386 . S
C277 C281 1.393 . S
C278 H270 0.950 . S
C278 C276 1.391 . S
C278 C279 1.400 . S
C279 C278 1.400 . S
C279 C280 1.398 . S
C279 C285 1.491 . S
C280 H271 0.950 . S
C280 C279 1.398 . S
C280 C281 1.391 . S
C281 H269 0.950 . S
C281 C277 1.393 . S
C281 C280 1.391 . S
C282 H272 0.950 . S
C282 C283 1.386 . S
C282 C284 1.391 . S
C283 C282 1.386 . S
C283 C287 1.393 . S
C284 H273 0.950 . S
C284 C282 1.391 . S
C284 C285 1.400 . S
C285 C279 1.491 . S
C285 C284 1.400 . S
C285 C286 1.398 . S
C286 H274 0.950 . S
C286 C285 1.398 . S
C286 C287 1.391 . S
C287 H275 0.950 . S
C287 C283 1.393 . S
C287 C286 1.391 . S
H288 C296 0.950 . S
H289 C301 0.950 . S
H290 C298 0.950 . S
H291 C300 0.950 . S
H292 C302 0.950 . S
H293 C304 0.950 . S
H294 C306 0.950 . S
H295 C307 0.950 . S
C296 H288 0.950 . S
C296 C297 1.386 . S
C296 C298 1.391 . S
C297 C296 1.386 . S
C297 C301 1.393 . S
C298 H290 0.950 . S
C298 C296 1.391 . S
C298 C299 1.400 . S
C299 C298 1.400 . S
C299 C300 1.398 . S
C299 C305 1.491 . S
C300 H291 0.950 . S
C300 C299 1.398 . S
C300 C301 1.391 . S
C301 H289 0.950 . S
C301 C297 1.393 . S
C301 C300 1.391 . S
C302 H292 0.950 . S
C302 C303 1.386 . S
C302 C304 1.391 . S
C303 C302 1.386 . S
C303 C307 1.393 . S
C304 H293 0.950 . S
C304 C302 1.391 . S
C304 C305 1.400 . S
C305 C299 1.491 . S
C305 C304 1.400 . S
C305 C306 1.398 . S
C306 H294 0.950 . S
C306 C305 1.398 . S
C306 C307 1.391 . S
C307 H295 0.950 . S
C307 C303 1.393 . S
C307 C306 1.391 . S
H308 C316 0.950 . S
H309 C321 0.950 . S
H310 C318 0.950 . S
H311 C320 0.950 . S
H312 C322 0.950 . S
H313 C324 0.950 . S
H314 C326 0.950 . S
H315 C327 0.950 . S
C316 H308 0.950 . S
C316 C317 1.386 . S
C316 C318 1.391 . S
C317 C316 1.386 . S
C317 C321 1.393 . S
C318 H310 0.950 . S
C318 C316 1.391 . S
C318 C319 1.400 . S
C319 C318 1.400 . S
C319 C320 1.398 . S
C319 C325 1.491 . S
C320 H311 0.950 . S
C320 C319 1.398 . S
C320 C321 1.391 . S
C321 H309 0.950 . S
C321 C317 1.393 . S
C321 C320 1.391 . S
C322 H312 0.950 . S
C322 C323 1.386 . S
C322 C324 1.391 . S
C323 C322 1.386 . S
C323 C327 1.393 . S
C324 H313 0.950 . S
C324 C322 1.391 . S
C324 C325 1.400 . S
C325 C319 1.491 . S
C325 C324 1.400 . S
C325 C326 1.398 . S
C326 H314 0.950 . S
C326 C325 1.398 . S
C326 C327 1.391 . S
C327 H315 0.950 . S
C327 C323 1.393 . S
C327 C326 1.391 . S
H328 C336 0.950 . S
H329 C341 0.950 . S
H330 C338 0.950 . S
H331 C340 0.950 . S
H332 C342 0.950 . S
H333 C344 0.950 . S
H334 C346 0.950 . S
H335 C347 0.950 . S
C336 H328 0.950 . S
C336 C337 1.386 . S
C336 C338 1.391 . S
C337 C336 1.386 . S
C337 C341 1.393 . S
C338 H330 0.950 . S
C338 C336 1.391 . S
C338 C339 1.400 . S
C339 C338 1.400 . S
C339 C340 1.398 . S
C339 C345 1.491 . S
C340 H331 0.950 . S
C340 C339 1.398 . S
C340 C341 1.391 . S
C341 H329 0.950 . S
C341 C337 1.393 . S
C341 C340 1.391 . S
C342 H332 0.950 . S
C342 C343 1.386 . S
C342 C344 1.391 . S
C343 C342 1.386 . S
C343 C347 1.393 . S
C344 H333 0.950 . S
C344 C342 1.391 . S
C344 C345 1.400 . S
C345 C339 1.491 . S
C345 C344 1.400 . S
C345 C346 1.398 . S
C346 H334 0.950 . S
C346 C345 1.398 . S
C346 C347 1.391 . S
C347 H335 0.950 . S
C347 C343 1.393 . S
C347 C346 1.391 . S
H348 C356 0.950 . S
H349 C361 0.950 . S
H350 C358 0.950 . S
H351 C360 0.950 . S
H352 C362 0.950 . S
H353 C364 0.950 . S
H354 C366 0.950 . S
H355 C367 0.950 . S
C356 H348 0.950 . S
C356 C357 1.386 . S
C356 C358 1.391 . S
C357 C356 1.386 . S
C357 C361 1.393 . S
C358 H350 0.950 . S
C358 C356 1.391 . S
C358 C359 1.400 . S
C359 C358 1.400 . S
C359 C360 1.398 . S
C359 C365 1.491 . S
C360 H351 0.950 . S
C360 C359 1.398 . S
C360 C361 1.391 . S
C361 H349 0.950 . S
C361 C357 1.393 . S
C361 C360 1.391 . S
C362 H352 0.950 . S
C362 C363 1.386 . S
C362 C364 1.391 . S
C363 C362 1.386 . S
C363 C367 1.393 . S
C364 H353 0.950 . S
C364 C362 1.391 . S
C364 C365 1.400 . S
C365 C359 1.491 . S
C365 C364 1.400 . S
C365 C366 1.398 . S
C366 H354 0.950 . S
C366 C365 1.398 . S
C366 C367 1.391 . S
C367 H355 0.950 . S
C367 C363 1.393 . S
C367 C366 1.391 . S
H368 C376 0.950 . S
H369 C381 0.950 . S
H370 C378 0.950 . S
H371 C380 0.950 . S
H372 C382 0.950 . S
H373 C384 0.950 . S
H374 C386 0.950 . S
H375 C387 0.950 . S
C376 H368 0.950 . S
C376 C377 1.386 . S
C376 C378 1.391 . S
C377 C376 1.386 . S
C377 C381 1.393 . S
C378 H370 0.950 . S
C378 C376 1.391 . S
C378 C379 1.400 . S
C379 C378 1.400 . S
C379 C380 1.398 . S
C379 C385 1.491 . S
C380 H371 0.950 . S
C380 C379 1.398 . S
C380 C381 1.391 . S
C381 H369 0.950 . S
C381 C377 1.393 . S
C381 C380 1.391 . S
C382 H372 0.950 . S
C382 C383 1.386 . S
C382 C384 1.391 . S
C383 C382 1.386 . S
C383 C387 1.393 . S
C384 H373 0.950 . S
C384 C382 1.391 . S
C384 C385 1.400 . S
C385 C379 1.491 . S
C385 C384 1.400 . S
C385 C386 1.398 . S
C386 H374 0.950 . S
C386 C385 1.398 . S
C386 C387 1.391 . S
C387 H375 0.950 . S
C387 C383 1.393 . S
C387 C386 1.391 . S
H388 C396 0.950 . S
H389 C401 0.950 . S
H390 C398 0.950 . S
H391 C400 0.950 . S
H392 C402 0.950 . S
H393 C404 0.950 . S
H394 C406 0.950 . S
H395 C407 0.950 . S
C396 H388 0.950 . S
C396 C397 1.386 . S
C396 C398 1.391 . S
C397 C396 1.386 . S
C397 C401 1.393 . S
C398 H390 0.950 . S
C398 C396 1.391 . S
C398 C399 1.400 . S
C399 C398 1.400 . S
C399 C400 1.398 . S
C399 C405 1.491 . S
C400 H391 0.950 . S
C400 C399 1.398 . S
C400 C401 1.391 . S
C401 H389 0.950 . S
C401 C397 1.393 . S
C401 C400 1.391 . S
C402 H392 0.950 . S
C402 C403 1.386 . S
C402 C404 1.391 . S
C403 C402 1.386 . S
C403 C407 1.393 . S
C404 H393 0.950 . S
C404 C402 1.391 . S
C404 C405 1.400 . S
C405 C399 1.491 . S
C405 C404 1.400 . S
C405 C406 1.398 . S
C406 H394 0.950 . S
C406 C405 1.398 . S
C406 C407 1.391 . S
C407 H395 0.950 . S
C407 C403 1.393 . S
C407 C406 1.391 . S
H408 C416 0.950 . S
H409 C421 0.950 . S
H410 C418 0.950 . S
H411 C420 0.950 . S
H412 C422 0.950 . S
H413 C424 0.950 . S
H414 C426 0.950 . S
H415 C427 0.950 . S
C416 H408 0.950 . S
C416 C417 1.386 . S
C416 C418 1.391 . S
C417 C416 1.386 . S
C417 C421 1.393 . S
C418 H410 0.950 . S
C418 C416 1.391 . S
C418 C419 1.400 . S
C419 C418 1.400 . S
C419 C420 1.398 . S
C419 C425 1.491 . S
C420 H411 0.950 . S
C420 C419 1.398 . S
C420 C421 1.391 . S
C421 H409 0.950 . S
C421 C417 1.393 . S
C421 C420 1.391 . S
C422 H412 0.950 . S
C422 C423 1.386 . S
C422 C424 1.391 . S
C423 C422 1.386 . S
C423 C427 1.393 . S
C424 H413 0.950 . S
C424 C422 1.391 . S
C424 C425 1.400 . S
C425 C419 1.491 . S
C425 C424 1.400 . S
C425 C426 1.398 . S
C426 H414 0.950 . S
C426 C425 1.398 . S
C426 C427 1.391 . S
C427 H415 0.950 . S
C427 C423 1.393 . S
C427 C426 1.391 . S
H428 C436 0.950 . S
H429 C441 0.950 . S
H430 C438 0.950 . S
H431 C440 0.950 . S
H432 C442 0.950 . S
H433 C444 0.950 . S
H434 C446 0.950 . S
H435 C447 0.950 . S
C436 H428 0.950 . S
C436 C437 1.386 . S
C436 C438 1.391 . S
C437 C436 1.386 . S
C437 C441 1.393 . S
C438 H430 0.950 . S
C438 C436 1.391 . S
C438 C439 1.400 . S
C439 C438 1.400 . S
C439 C440 1.398 . S
C439 C445 1.491 . S
C440 H431 0.950 . S
C440 C439 1.398 . S
C440 C441 1.391 . S
C441 H429 0.950 . S
C441 C437 1.393 . S
C441 C440 1.391 . S
C442 H432 0.950 . S
C442 C443 1.386 . S
C442 C444 1.391 . S
C443 C442 1.386 . S
C443 C447 1.393 . S
C444 H433 0.950 . S
C444 C442 1.391 . S
C444 C445 1.400 . S
C445 C439 1.491 . S
C445 C444 1.400 . S
C445 C446 1.398 . S
C446 H434 0.950 . S
C446 C445 1.398 . S
C446 C447 1.391 . S
C447 H435 0.950 . S
C447 C443 1.393 . S
C447 C446 1.391 . S
H448 C456 0.950 . S
H449 C461 0.950 . S
H450 C458 0.950 . S
H451 C460 0.950 . S
H452 C462 0.950 . S
H453 C464 0.950 . S
H454 C466 0.950 . S
H455 C467 0.950 . S
C456 H448 0.950 . S
C456 C457 1.386 . S
C456 C458 1.391 . S
C457 C456 1.386 . S
C457 C461 1.393 . S
C458 H450 0.950 . S
C458 C456 1.391 . S
C458 C459 1.400 . S
C459 C458 1.400 . S
C459 C460 1.398 . S
C459 C465 1.491 . S
C460 H451 0.950 . S
C460 C459 1.398 . S
C460 C461 1.391 . S
C461 H449 0.950 . S
C461 C457 1.393 . S
C461 C460 1.391 . S
C462 H452 0.950 . S
C462 C463 1.386 . S
C462 C464 1.391 . S
C463 C462 1.386 . S
C463 C467 1.393 . S
C464 H453 0.950 . S
C464 C462 1.391 . S
C464 C465 1.400 . S
C465 C459 1.491 . S
C465 C464 1.400 . S
C465 C466 1.398 . S
C466 H454 0.950 . S
C466 C465 1.398 . S
C466 C467 1.391 . S
C467 H455 0.950 . S
C467 C463 1.393 . S
C467 C466 1.391 . S
H468 C476 0.950 . S
H469 C481 0.950 . S
H470 C478 0.950 . S
H471 C480 0.950 . S
H472 C482 0.950 . S
H473 C484 0.950 . S
H474 C486 0.950 . S
H475 C487 0.950 . S
C476 H468 0.950 . S
C476 C477 1.386 . S
C476 C478 1.391 . S
C477 C476 1.386 . S
C477 C481 1.393 . S
C478 H470 0.950 . S
C478 C476 1.391 . S
C478 C479 1.400 . S
C479 C478 1.400 . S
C479 C480 1.398 . S
C479 C485 1.491 . S
C480 H471 0.950 . S
C480 C479 1.398 . S
C480 C481 1.391 . S
C481 H469 0.950 . S
C481 C477 1.393 . S
C481 C480 1.391 . S
C482 H472 0.950 . S
C482 C483 1.386 . S
C482 C484 1.391 . S
C483 C482 1.386 . S
C483 C487 1.393 . S
C484 H473 0.950 . S
C484 C482 1.391 . S
C484 C485 1.400 . S
C485 C479 1.491 . S
C485 C484 1.400 . S
C485 C486 1.398 . S
C486 H474 0.950 . S
C486 C485 1.398 . S
C486 C487 1.391 . S
C487 H475 0.950 . S
C487 C483 1.393 . S
C487 C486 1.391 . S
H488 C496 0.950 . S
H489 C501 0.950 . S
H490 C498 0.950 . S
H491 C500 0.950 . S
H492 C502 0.950 . S
H493 C504 0.950 . S
H494 C506 0.950 . S
H495 C507 0.950 . S
C496 H488 0.950 . S
C496 C497 1.386 . S
C496 C498 1.391 . S
C497 C496 1.386 . S
C497 C501 1.393 . S
C498 H490 0.950 . S
C498 C496 1.391 . S
C498 C499 1.400 . S
C499 C498 1.400 . S
C499 C500 1.398 . S
C499 C505 1.491 . S
C500 H491 0.950 . S
C500 C499 1.398 . S
C500 C501 1.391 . S
C501 H489 0.950 . S
C501 C497 1.393 . S
C501 C500 1.391 . S
C502 H492 0.950 . S
C502 C503 1.386 . S
C502 C504 1.391 . S
C503 C502 1.386 . S
C503 C507 1.393 . S
C504 H493 0.950 . S
C504 C502 1.391 . S
C504 C505 1.400 . S
C505 C499 1.491 . S
C505 C504 1.400 . S
C505 C506 1.398 . S
C506 H494 0.950 . S
C506 C505 1.398 . S
C506 C507 1.391 . S
C507 H495 0.950 . S
C507 C503 1.393 . S
C507 C506 1.391 . S
H508 C516 0.950 . S
H509 C521 0.950 . S
H510 C518 0.950 . S
H511 C520 0.950 . S
H512 C522 0.950 . S
H513 C524 0.950 . S
H514 C526 0.950 . S
H515 C527 0.950 . S
C516 H508 0.950 . S
C516 C517 1.386 . S
C516 C518 1.391 . S
C517 C516 1.386 . S
C517 C521 1.393 . S
C518 H510 0.950 . S
C518 C516 1.391 . S
C518 C519 1.400 . S
C519 C518 1.400 . S
C519 C520 1.398 . S
C519 C525 1.491 . S
C520 H511 0.950 . S
C520 C519 1.398 . S
C520 C521 1.391 . S
C521 H509 0.950 . S
C521 C517 1.393 . S
C521 C520 1.391 . S
C522 H512 0.950 . S
C522 C523 1.386 . S
C522 C524 1.391 . S
C523 C522 1.386 . S
C523 C527 1.393 . S
C524 H513 0.950 . S
C524 C522 1.391 . S
C524 C525 1.400 . S
C525 C519 1.491 . S
C525 C524 1.400 . S
C525 C526 1.398 . S
C526 H514 0.950 . S
C526 C525 1.398 . S
C526 C527 1.391 . S
C527 H515 0.950 . S
C527 C523 1.393 . S
C527 C526 1.391 . S
H528 C536 0.950 . S
H529 C541 0.950 . S
H530 C538 0.950 . S
H531 C540 0.950 . S
H532 C542 0.950 . S
H533 C544 0.950 . S
H534 C546 0.950 . S
H535 C547 0.950 . S
C536 H528 0.950 . S
C536 C537 1.386 . S
C536 C538 1.391 . S
C537 C536 1.386 . S
C537 C541 1.393 . S
C538 H530 0.950 . S
C538 C536 1.391 . S
C538 C539 1.400 . S
C539 C538 1.400 . S
C539 C540 1.398 . S
C539 C545 1.491 . S
C540 H531 0.950 . S
C540 C539 1.398 . S
C540 C541 1.391 . S
C541 H529 0.950 . S
C541 C537 1.393 . S
C541 C540 1.391 . S
C542 H532 0.950 . S
C542 C543 1.386 . S
C542 C544 1.391 . S
C543 C542 1.386 . S
C543 C547 1.393 . S
C544 H533 0.950 . S
C544 C542 1.391 . S
C544 C545 1.400 . S
C545 C539 1.491 . S
C545 C544 1.400 . S
C545 C546 1.398 . S
C546 H534 0.950 . S
C546 C545 1.398 . S
C546 C547 1.391 . S
C547 H535 0.950 . S
C547 C543 1.393 . S
C547 C546 1.391 . S
H548 C556 0.950 . S
H549 C561 0.950 . S
H550 C558 0.950 . S
H551 C560 0.950 . S
H552 C562 0.950 . S
H553 C564 0.950 . S
H554 C566 0.950 . S
H555 C567 0.950 . S
C556 H548 0.950 . S
C556 C557 1.386 . S
C556 C558 1.391 . S
C557 C556 1.386 . S
C557 C561 1.393 . S
C558 H550 0.950 . S
C558 C556 1.391 . S
C558 C559 1.400 . S
C559 C558 1.400 . S
C559 C560 1.398 . S
C559 C565 1.491 . S
C560 H551 0.950 . S
C560 C559 1.398 . S
C560 C561 1.391 . S
C561 H549 0.950 . S
C561 C557 1.393 . S
C561 C560 1.391 . S
C562 H552 0.950 . S
C562 C563 1.386 . S
C562 C564 1.391 . S
C563 C562 1.386 . S
C563 C567 1.393 . S
C564 H553 0.950 . S
C564 C562 1.391 . S
C564 C565 1.400 . S
C565 C559 1.491 . S
C565 C564 1.400 . S
C565 C566 1.398 . S
C566 H554 0.950 . S
C566 C565 1.398 . S
C566 C567 1.391 . S
C567 H555 0.950 . S
C567 C563 1.393 . S
C567 C566 1.391 . S
H568 C576 0.950 . S
H569 C581 0.950 . S
H570 C578 0.950 . S
H571 C580 0.950 . S
H572 C582 0.950 . S
H573 C584 0.950 . S
H574 C586 0.950 . S
H575 C587 0.950 . S
C576 H568 0.950 . S
C576 C577 1.386 . S
C576 C578 1.391 . S
C577 C576 1.386 . S
C577 C581 1.393 . S
C578 H570 0.950 . S
C578 C576 1.391 . S
C578 C579 1.400 . S
C579 C578 1.400 . S
C579 C580 1.398 . S
C579 C585 1.491 . S
C580 H571 0.950 . S
C580 C579 1.398 . S
C580 C581 1.391 . S
C581 H569 0.950 . S
C581 C577 1.393 . S
C581 C580 1.391 . S
C582 H572 0.950 . S
C582 C583 1.386 . S
C582 C584 1.391 . S
C583 C582 1.386 . S
C583 C587 1.393 . S
C584 H573 0.950 . S
C584 C582 1.391 . S
C584 C585 1.400 . S
C585 C579 1.491 . S
C585 C584 1.400 . S
C585 C586 1.398 . S
C586 H574 0.950 . S
C586 C585 1.398 . S
C586 C587 1.391 . S
C587 H575 0.950 . S
C587 C583 1.393 . S
C587 C586 1.391 . S
H588 C596 0.950 . S
H589 C601 0.950 . S
H590 C598 0.950 . S
H591 C600 0.950 . S
H592 C602 0.950 . S
H593 C604 0.950 . S
H594 C606 0.950 . S
H595 C607 0.950 . S
C596 H588 0.950 . S
C596 C597 1.386 . S
C596 C598 1.391 . S
C597 C596 1.386 . S
C597 C601 1.393 . S
C598 H590 0.950 . S
C598 C596 1.391 . S
C598 C599 1.400 . S
C599 C598 1.400 . S
C599 C600 1.398 . S
C599 C605 1.491 . S
C600 H591 0.950 . S
C600 C599 1.398 . S
C600 C601 1.391 . S
C601 H589 0.950 . S
C601 C597 1.393 . S
C601 C600 1.391 . S
C602 H592 0.950 . S
C602 C603 1.386 . S
C602 C604 1.391 . S
C603 C602 1.386 . S
C603 C607 1.393 . S
C604 H593 0.950 . S
C604 C602 1.391 . S
C604 C605 1.400 . S
C605 C599 1.491 . S
C605 C604 1.400 . S
C605 C606 1.398 . S
C606 H594 0.950 . S
C606 C605 1.398 . S
C606 C607 1.391 . S
C607 H595 0.950 . S
C607 C603 1.393 . S
C607 C606 1.391 . S
H608 C616 0.950 . S
H609 C621 0.950 . S
H610 C618 0.950 . S
H611 C620 0.950 . S
H612 C622 0.950 . S
H613 C624 0.950 . S
H614 C626 0.950 . S
H615 C627 0.950 . S
C616 H608 0.950 . S
C616 C617 1.386 . S
C616 C618 1.391 . S
C617 C616 1.386 . S
C617 C621 1.393 . S
C618 H610 0.950 . S
C618 C616 1.391 . S
C618 C619 1.400 . S
C619 C618 1.400 . S
C619 C620 1.398 . S
C619 C625 1.491 . S
C620 H611 0.950 . S
C620 C619 1.398 . S
C620 C621 1.391 . S
C621 H609 0.950 . S
C621 C617 1.393 . S
C621 C620 1.391 . S
C622 H612 0.950 . S
C622 C623 1.386 . S
C622 C624 1.391 . S
C623 C622 1.386 . S
C623 C627 1.393 . S
C624 H613 0.950 . S
C624 C622 1.391 . S
C624 C625 1.400 . S
C625 C619 1.491 . S
C625 C624 1.400 . S
C625 C626 1.398 . S
C626 H614 0.950 . S
C626 C625 1.398 . S
C626 C627 1.391 . S
C627 H615 0.950 . S
C627 C623 1.393 . S
C627 C626 1.391 . S
H628 C636 0.950 . S
H629 C641 0.950 . S
H630 C638 0.950 . S
H631 C640 0.950 . S
H632 C642 0.950 . S
H633 C644 0.950 . S
H634 C646 0.950 . S
H635 C647 0.950 . S
C636 H628 0.950 . S
C636 C637 1.386 . S
C636 C638 1.391 . S
C637 C636 1.386 . S
C637 C641 1.393 . S
C638 H630 0.950 . S
C638 C636 1.391 . S
C638 C639 1.400 . S
C639 C638 1.400 . S
C639 C640 1.398 . S
C639 C645 1.491 . S
C640 H631 0.950 . S
C640 C639 1.398 . S
C640 C641 1.391 . S
C641 H629 0.950 . S
C641 C637 1.393 . S
C641 C640 1.391 . S
C642 H632 0.950 . S
C642 C643 1.386 . S
C642 C644 1.391 . S
C643 C642 1.386 . S
C643 C647 1.393 . S
C644 H633 0.950 . S
C644 C642 1.391 . S
C644 C645 1.400 . S
C645 C639 1.491 . S
C645 C644 1.400 . S
C645 C646 1.398 . S
C646 H634 0.950 . S
C646 C645 1.398 . S
C646 C647 1.391 . S
C647 H635 0.950 . S
C647 C643 1.393 . S
C647 C646 1.391 . S
H648 C656 0.950 . S
H649 C661 0.950 . S
H650 C658 0.950 . S
H651 C660 0.950 . S
H652 C662 0.950 . S
H653 C664 0.950 . S
H654 C666 0.950 . S
H655 C667 0.950 . S
C656 H648 0.950 . S
C656 C657 1.386 . S
C656 C658 1.391 . S
C657 C656 1.386 . S
C657 C661 1.393 . S
C658 H650 0.950 . S
C658 C656 1.391 . S
C658 C659 1.400 . S
C659 C658 1.400 . S
C659 C660 1.398 . S
C659 C665 1.491 . S
C660 H651 0.950 . S
C660 C659 1.398 . S
C660 C661 1.391 . S
C661 H649 0.950 . S
C661 C657 1.393 . S
C661 C660 1.391 . S
C662 H652 0.950 . S
C662 C663 1.386 . S
C662 C664 1.391 . S
C663 C662 1.386 . S
C663 C667 1.393 . S
C664 H653 0.950 . S
C664 C662 1.391 . S
C664 C665 1.400 . S
C665 C659 1.491 . S
C665 C664 1.400 . S
C665 C666 1.398 . S
C666 H654 0.950 . S
C666 C665 1.398 . S
C666 C667 1.391 . S
C667 H655 0.950 . S
C667 C663 1.393 . S
C667 C666 1.391 . S
H668 C676 0.950 . S
H669 C681 0.950 . S
H670 C678 0.950 . S
H671 C680 0.950 . S
H672 C682 0.950 . S
H673 C684 0.950 . S
H674 C686 0.950 . S
H675 C687 0.950 . S
C676 H668 0.950 . S
C676 C677 1.386 . S
C676 C678 1.391 . S
C677 C676 1.386 . S
C677 C681 1.393 . S
C678 H670 0.950 . S
C678 C676 1.391 . S
C678 C679 1.400 . S
C679 C678 1.400 . S
C679 C680 1.398 . S
C679 C685 1.491 . S
C680 H671 0.950 . S
C680 C679 1.398 . S
C680 C681 1.391 . S
C681 H669 0.950 . S
C681 C677 1.393 . S
C681 C680 1.391 . S
C682 H672 0.950 . S
C682 C683 1.386 . S
C682 C684 1.391 . S
C683 C682 1.386 . S
C683 C687 1.393 . S
C684 H673 0.950 . S
C684 C682 1.391 . S
C684 C685 1.400 . S
C685 C679 1.491 . S
C685 C684 1.400 . S
C685 C686 1.398 . S
C686 H674 0.950 . S
C686 C685 1.398 . S
C686 C687 1.391 . S
C687 H675 0.950 . S
C687 C683 1.393 . S
C687 C686 1.391 . S
H688 C696 0.950 . S
H689 C701 0.950 . S
H690 C698 0.950 . S
H691 C700 0.950 . S
H692 C702 0.950 . S
H693 C704 0.950 . S
H694 C706 0.950 . S
H695 C707 0.950 . S
C696 H688 0.950 . S
C696 C697 1.386 . S
C696 C698 1.391 . S
C697 C696 1.386 . S
C697 C701 1.393 . S
C698 H690 0.950 . S
C698 C696 1.391 . S
C698 C699 1.400 . S
C699 C698 1.400 . S
C699 C700 1.398 . S
C699 C705 1.491 1_554 S
C700 H691 0.950 . S
C700 C699 1.398 . S
C700 C701 1.391 . S
C701 H689 0.950 . S
C701 C697 1.393 . S
C701 C700 1.391 . S
C702 H692 0.950 . S
C702 C703 1.386 . S
C702 C704 1.391 . S
C703 C702 1.386 . S
C703 C707 1.393 . S
C704 H693 0.950 . S
C704 C702 1.391 . S
C704 C705 1.400 . S
C705 C699 1.491 1_556 S
C705 C704 1.400 . S
C705 C706 1.398 . S
C706 H694 0.950 . S
C706 C705 1.398 . S
C706 C707 1.391 . S
C707 H695 0.950 . S
C707 C703 1.393 . S
C707 C706 1.391 . S
H708 C716 0.950 . S
H709 C721 0.950 . S
H710 C718 0.950 . S
H711 C720 0.950 . S
H712 C722 0.950 . S
H713 C724 0.950 . S
H714 C726 0.950 . S
H715 C727 0.950 . S
C716 H708 0.950 . S
C716 C717 1.386 . S
C716 C718 1.391 . S
C717 C716 1.386 . S
C717 C721 1.393 . S
C718 H710 0.950 . S
C718 C716 1.391 . S
C718 C719 1.400 . S
C719 C718 1.400 . S
C719 C720 1.398 . S
C719 C725 1.491 . S
C720 H711 0.950 . S
C720 C719 1.398 . S
C720 C721 1.391 . S
C721 H709 0.950 . S
C721 C717 1.393 . S
C721 C720 1.391 . S
C722 H712 0.950 . S
C722 C723 1.386 . S
C722 C724 1.391 . S
C723 C722 1.386 . S
C723 C727 1.393 . S
C724 H713 0.950 . S
C724 C722 1.391 . S
C724 C725 1.400 . S
C725 C719 1.491 . S
C725 C724 1.400 . S
C725 C726 1.398 . S
C726 H714 0.950 . S
C726 C725 1.398 . S
C726 C727 1.391 . S
C727 H715 0.950 . S
C727 C723 1.393 . S
C727 C726 1.391 . S
H728 C736 0.950 . S
H729 C741 0.950 . S
H730 C738 0.950 . S
H731 C740 0.950 . S
H732 C742 0.950 . S
H733 C744 0.950 . S
H734 C746 0.950 . S
H735 C747 0.950 . S
C736 H728 0.950 . S
C736 C737 1.386 1_455 S
C736 C738 1.391 . S
C737 C736 1.386 1_655 S
C737 C741 1.393 . S
C738 H730 0.950 . S
C738 C736 1.391 . S
C738 C739 1.400 1_455 S
C739 C738 1.400 1_655 S
C739 C740 1.398 . S
C739 C745 1.491 1_554 S
C740 H731 0.950 . S
C740 C739 1.398 . S
C740 C741 1.391 . S
C741 H729 0.950 . S
C741 C737 1.393 . S
C741 C740 1.391 . S
C742 H732 0.950 . S
C742 C743 1.386 . S
C742 C744 1.391 . S
C743 C742 1.386 . S
C743 C747 1.393 1_655 S
C744 H733 0.950 . S
C744 C742 1.391 . S
C744 C745 1.400 . S
C745 C739 1.491 1_556 S
C745 C744 1.400 . S
C745 C746 1.398 1_655 S
C746 H734 0.950 . S
C746 C745 1.398 1_455 S
C746 C747 1.391 . S
C747 H735 0.950 . S
C747 C743 1.393 1_455 S
C747 C746 1.391 . S
H748 C756 0.950 . S
H749 C761 0.950 . S
H750 C758 0.950 . S
H751 C760 0.950 . S
H752 C762 0.950 . S
H753 C764 0.950 . S
H754 C766 0.950 . S
H755 C767 0.950 . S
C756 H748 0.950 . S
C756 C757 1.386 . S
C756 C758 1.391 . S
C757 C756 1.386 . S
C757 C761 1.393 1_565 S
C758 H750 0.950 . S
C758 C756 1.391 . S
C758 C759 1.400 . S
C759 C758 1.400 . S
C759 C760 1.398 1_565 S
C759 C765 1.491 . S
C760 H751 0.950 . S
C760 C759 1.398 1_545 S
C760 C761 1.391 . S
C761 H749 0.950 . S
C761 C757 1.393 1_545 S
C761 C760 1.391 . S
C762 H752 0.950 . S
C762 C763 1.386 1_545 S
C762 C764 1.391 . S
C763 C762 1.386 1_565 S
C763 C767 1.393 . S
C764 H753 0.950 . S
C764 C762 1.391 . S
C764 C765 1.400 1_545 S
C765 C759 1.491 . S
C765 C764 1.400 1_565 S
C765 C766 1.398 . S
C766 H754 0.950 . S
C766 C765 1.398 . S
C766 C767 1.391 . S
C767 H755 0.950 . S
C767 C763 1.393 . S
C767 C766 1.391 . S
H768 C776 0.950 . S
H769 C781 0.950 . S
H770 C778 0.950 . S
H771 C780 0.950 . S
H772 C782 0.950 . S
H773 C784 0.950 . S
H774 C786 0.950 . S
H775 C787 0.950 . S
C776 H768 0.950 . S
C776 C777 1.386 . S
C776 C778 1.391 . S
C777 C776 1.386 . S
C777 C781 1.393 . S
C778 H770 0.950 . S
C778 C776 1.391 . S
C778 C779 1.400 . S
C779 C778 1.400 . S
C779 C780 1.398 . S
C779 C785 1.491 1_556 S
C780 H771 0.950 . S
C780 C779 1.398 . S
C780 C781 1.391 . S
C781 H769 0.950 . S
C781 C777 1.393 . S
C781 C780 1.391 . S
C782 H772 0.950 . S
C782 C783 1.386 . S
C782 C784 1.391 . S
C783 C782 1.386 . S
C783 C787 1.393 . S
C784 H773 0.950 . S
C784 C782 1.391 . S
C784 C785 1.400 . S
C785 C779 1.491 1_554 S
C785 C784 1.400 . S
C785 C786 1.398 . S
C786 H774 0.950 . S
C786 C785 1.398 . S
C786 C787 1.391 . S
C787 H775 0.950 . S
C787 C783 1.393 . S
C787 C786 1.391 . S
H788 C796 0.950 . S
H789 C801 0.950 . S
H790 C798 0.950 . S
H791 C800 0.950 . S
H792 C802 0.950 . S
H793 C804 0.950 . S
H794 C806 0.950 . S
H795 C807 0.950 . S
C796 H788 0.950 . S
C796 C797 1.386 . S
C796 C798 1.391 . S
C797 C796 1.386 . S
C797 C801 1.393 . S
C798 H790 0.950 . S
C798 C796 1.391 . S
C798 C799 1.400 . S
C799 C798 1.400 . S
C799 C800 1.398 . S
C799 C805 1.491 . S
C800 H791 0.950 . S
C800 C799 1.398 . S
C800 C801 1.391 . S
C801 H789 0.950 . S
C801 C797 1.393 . S
C801 C800 1.391 . S
C802 H792 0.950 . S
C802 C803 1.386 . S
C802 C804 1.391 . S
C803 C802 1.386 . S
C803 C807 1.393 . S
C804 H793 0.950 . S
C804 C802 1.391 . S
C804 C805 1.400 . S
C805 C799 1.491 . S
C805 C804 1.400 . S
C805 C806 1.398 . S
C806 H794 0.950 . S
C806 C805 1.398 . S
C806 C807 1.391 . S
C807 H795 0.950 . S
C807 C803 1.393 . S
C807 C806 1.391 . S
H808 C816 0.950 . S
H809 C821 0.950 . S
H810 C818 0.950 . S
H811 C820 0.950 . S
H812 C822 0.950 . S
H813 C824 0.950 . S
H814 C826 0.950 . S
H815 C827 0.950 . S
C816 H808 0.950 . S
C816 C817 1.386 . S
C816 C818 1.391 . S
C817 C816 1.386 . S
C817 C821 1.393 1_455 S
C818 H810 0.950 . S
C818 C816 1.391 . S
C818 C819 1.400 . S
C819 C818 1.400 . S
C819 C820 1.398 1_455 S
C819 C825 1.491 1_554 S
C820 H811 0.950 . S
C820 C819 1.398 1_655 S
C820 C821 1.391 . S
C821 H809 0.950 . S
C821 C817 1.393 1_655 S
C821 C820 1.391 . S
C822 H812 0.950 . S
C822 C823 1.386 1_655 S
C822 C824 1.391 . S
C823 C822 1.386 1_455 S
C823 C827 1.393 . S
C824 H813 0.950 . S
C824 C822 1.391 . S
C824 C825 1.400 1_655 S
C825 C819 1.491 1_556 S
C825 C824 1.400 1_455 S
C825 C826 1.398 . S
C826 H814 0.950 . S
C826 C825 1.398 . S
C826 C827 1.391 . S
C827 H815 0.950 . S
C827 C823 1.393 . S
C827 C826 1.391 . S
H828 C836 0.950 . S
H829 C841 0.950 . S
H830 C838 0.950 . S
H831 C840 0.950 . S
H832 C842 0.950 . S
H833 C844 0.950 . S
H834 C846 0.950 . S
H835 C847 0.950 . S
C836 H828 0.950 . S
C836 C837 1.386 1_565 S
C836 C838 1.391 . S
C837 C836 1.386 1_545 S
C837 C841 1.393 . S
C838 H830 0.950 . S
C838 C836 1.391 . S
C838 C839 1.400 1_565 S
C839 C838 1.400 1_545 S
C839 C840 1.398 . S
C839 C845 1.491 . S
C840 H831 0.950 . S
C840 C839 1.398 . S
C840 C841 1.391 . S
C841 H829 0.950 . S
C841 C837 1.393 . S
C841 C840 1.391 . S
C842 H832 0.950 . S
C842 C843 1.386 . S
C842 C844 1.391 . S
C843 C842 1.386 . S
C843 C847 1.393 1_545 S
C844 H833 0.950 . S
C844 C842 1.391 . S
C844 C845 1.400 . S
C845 C839 1.491 . S
C845 C844 1.400 . S
C845 C846 1.398 1_545 S
C846 H834 0.950 . S
C846 C845 1.398 1_565 S
C846 C847 1.391 . S
C847 H835 0.950 . S
C847 C843 1.393 1_565 S
C847 C846 1.391 . S
C217 C4 1.250 . S
C223 C95 1.256 . S
C237 C23 1.248 . S
C243 C56 1.255 . S
C257 C36 1.254 . S
C263 C75 1.253 . S
C277 C49 1.252 . S
C283 C82 1.249 . S
C297 C114 1.250 . S
C303 C205 1.251 . S
C317 C160 1.255 . S
C323 C121 1.252 . S
C337 C134 1.254 . S
C343 C179 1.254 . S
C357 C153 1.252 . S
C363 C186 1.255 . S
C377 C5 1.596 . S
C383 C127 1.605 . S
C397 C16 1.596 . S
C403 C140 1.611 . S
C417 C147 1.607 . S
C423 C29 1.604 . S
C437 C42 1.597 . S
C443 C108 1.611 . S
C457 C57 1.602 . S
C463 C199 1.608 . S
C477 C166 1.604 . S
C483 C68 1.605 . S
C497 C173 1.605 . S
C503 C83 1.604 . S
C517 C192 1.606 . S
C523 C96 1.594 . S
C537 C17 1.611 . S
C543 C107 1.597 . S
C557 C30 1.606 . S
C563 C122 1.604 . S
C577 C135 1.596 . S
C583 C43 1.605 . S
C597 C10 1.604 . S
C603 C146 1.604 . S
C617 C161 1.593 . S
C623 C101 1.607 . S
C637 C172 1.596 . S
C643 C62 1.605 . S
C657 C69 1.603 . S
C663 C187 1.600 . S
C677 C88 1.607 . S
C683 C198 1.603 . S
C697 C3 1.632 . S
C703 C55 1.625 . S
C717 C70 1.632 . S
C723 C18 1.633 . S
C737 C31 1.627 . S
C743 C81 1.635 . S
C757 C94 1.625 . S
C763 C44 1.631 . S
C777 C109 1.627 . S
C783 C159 1.628 . S
C797 C174 1.635 . S
C803 C120 1.627 . S
C817 C185 1.628 . S
C823 C133 1.635 . S
C837 C200 1.630 . S
C843 C148 1.625 . S
