# Generated by pormake.
# Topology wmi, (6)-cn, num edge types: 1
# Building blocks:
#     Node 0, Type 0, BuildingBlock: PAMTUU_clean_sbu_0, # of connection points: 6
#     Node 1, Type 0, BuildingBlock: PAMTUU_clean_sbu_0, # of connection points: 6
#     Node 2, Type 0, BuildingBlock: PAMTUU_clean_sbu_0, # of connection points: 6
#     Node 3, Type 0, BuildingBlock: PAMTUU_clean_sbu_0, # of connection points: 6
#     Node 4, Type 0, BuildingBlock: PAMTUU_clean_sbu_0, # of connection points: 6
#     Node 5, Type 0, BuildingBlock: PAMTUU_clean_sbu_0, # of connection points: 6
#     Node 6, Type 0, BuildingBlock: PAMTUU_clean_sbu_0, # of connection points: 6
#     Node 7, Type 0, BuildingBlock: PAMTUU_clean_sbu_0, # of connection points: 6
#     Node 8, Type 0, BuildingBlock: PAMTUU_clean_sbu_0, # of connection points: 6
#     Node 9, Type 0, BuildingBlock: PAMTUU_clean_sbu_0, # of connection points: 6
#     Node 10, Type 0, BuildingBlock: PAMTUU_clean_sbu_0, # of connection points: 6
#     Node 11, Type 0, BuildingBlock: PAMTUU_clean_sbu_0, # of connection points: 6
#     Node 12, Type 0, BuildingBlock: PAMTUU_clean_sbu_0, # of connection points: 6
#     Node 13, Type 0, BuildingBlock: PAMTUU_clean_sbu_0, # of connection points: 6
#     Node 14, Type 0, BuildingBlock: PAMTUU_clean_sbu_0, # of connection points: 6
#     Node 15, Type 0, BuildingBlock: PAMTUU_clean_sbu_0, # of connection points: 6
#     Node 16, Type 0, BuildingBlock: PAMTUU_clean_sbu_0, # of connection points: 6
#     Node 17, Type 0, BuildingBlock: PAMTUU_clean_sbu_0, # of connection points: 6
#     Edge 18, Type (0, 0), BuildingBlock: KIFKEQ_clean_linker_1, # of connection points: 2
#     Edge 19, Type (0, 0), BuildingBlock: KIFKEQ_clean_linker_1, # of connection points: 2
#     Edge 20, Type (0, 0), BuildingBlock: KIFKEQ_clean_linker_1, # of connection points: 2
#     Edge 21, Type (0, 0), BuildingBlock: KIFKEQ_clean_linker_1, # of connection points: 2
#     Edge 22, Type (0, 0), BuildingBlock: KIFKEQ_clean_linker_1, # of connection points: 2
#     Edge 23, Type (0, 0), BuildingBlock: KIFKEQ_clean_linker_1, # of connection points: 2
#     Edge 24, Type (0, 0), BuildingBlock: KIFKEQ_clean_linker_1, # of connection points: 2
#     Edge 25, Type (0, 0), BuildingBlock: KIFKEQ_clean_linker_1, # of connection points: 2
#     Edge 26, Type (0, 0), BuildingBlock: KIFKEQ_clean_linker_1, # of connection points: 2
#     Edge 27, Type (0, 0), BuildingBlock: KIFKEQ_clean_linker_1, # of connection points: 2
#     Edge 28, Type (0, 0), BuildingBlock: KIFKEQ_clean_linker_1, # of connection points: 2
#     Edge 29, Type (0, 0), BuildingBlock: KIFKEQ_clean_linker_1, # of connection points: 2
#     Edge 30, Type (0, 0), BuildingBlock: KIFKEQ_clean_linker_1, # of connection points: 2
#     Edge 31, Type (0, 0), BuildingBlock: KIFKEQ_clean_linker_1, # of connection points: 2
#     Edge 32, Type (0, 0), BuildingBlock: KIFKEQ_clean_linker_1, # of connection points: 2
#     Edge 33, Type (0, 0), BuildingBlock: KIFKEQ_clean_linker_1, # of connection points: 2
#     Edge 34, Type (0, 0), BuildingBlock: KIFKEQ_clean_linker_1, # of connection points: 2
#     Edge 35, Type (0, 0), BuildingBlock: KIFKEQ_clean_linker_1, # of connection points: 2
#     Edge 36, Type (0, 0), BuildingBlock: KIFKEQ_clean_linker_1, # of connection points: 2
#     Edge 37, Type (0, 0), BuildingBlock: KIFKEQ_clean_linker_1, # of connection points: 2
#     Edge 38, Type (0, 0), BuildingBlock: KIFKEQ_clean_linker_1, # of connection points: 2
#     Edge 39, Type (0, 0), BuildingBlock: KIFKEQ_clean_linker_1, # of connection points: 2
#     Edge 40, Type (0, 0), BuildingBlock: KIFKEQ_clean_linker_1, # of connection points: 2
#     Edge 41, Type (0, 0), BuildingBlock: KIFKEQ_clean_linker_1, # of connection points: 2
#     Edge 42, Type (0, 0), BuildingBlock: KIFKEQ_clean_linker_1, # of connection points: 2
#     Edge 43, Type (0, 0), BuildingBlock: KIFKEQ_clean_linker_1, # of connection points: 2
#     Edge 44, Type (0, 0), BuildingBlock: KIFKEQ_clean_linker_1, # of connection points: 2
#     Edge 45, Type (0, 0), BuildingBlock: KIFKEQ_clean_linker_1, # of connection points: 2
#     Edge 46, Type (0, 0), BuildingBlock: KIFKEQ_clean_linker_1, # of connection points: 2
#     Edge 47, Type (0, 0), BuildingBlock: KIFKEQ_clean_linker_1, # of connection points: 2
#     Edge 48, Type (0, 0), BuildingBlock: KIFKEQ_clean_linker_1, # of connection points: 2
#     Edge 49, Type (0, 0), BuildingBlock: KIFKEQ_clean_linker_1, # of connection points: 2
#     Edge 50, Type (0, 0), BuildingBlock: KIFKEQ_clean_linker_1, # of connection points: 2
#     Edge 51, Type (0, 0), BuildingBlock: KIFKEQ_clean_linker_1, # of connection points: 2
#     Edge 52, Type (0, 0), BuildingBlock: KIFKEQ_clean_linker_1, # of connection points: 2
#     Edge 53, Type (0, 0), BuildingBlock: KIFKEQ_clean_linker_1, # of connection points: 2
#     Edge 54, Type (0, 0), BuildingBlock: KIFKEQ_clean_linker_1, # of connection points: 2
#     Edge 55, Type (0, 0), BuildingBlock: KIFKEQ_clean_linker_1, # of connection points: 2
#     Edge 56, Type (0, 0), BuildingBlock: KIFKEQ_clean_linker_1, # of connection points: 2
#     Edge 57, Type (0, 0), BuildingBlock: KIFKEQ_clean_linker_1, # of connection points: 2
#     Edge 58, Type (0, 0), BuildingBlock: KIFKEQ_clean_linker_1, # of connection points: 2
#     Edge 59, Type (0, 0), BuildingBlock: KIFKEQ_clean_linker_1, # of connection points: 2
#     Edge 60, Type (0, 0), BuildingBlock: KIFKEQ_clean_linker_1, # of connection points: 2
#     Edge 61, Type (0, 0), BuildingBlock: KIFKEQ_clean_linker_1, # of connection points: 2
#     Edge 62, Type (0, 0), BuildingBlock: KIFKEQ_clean_linker_1, # of connection points: 2
#     Edge 63, Type (0, 0), BuildingBlock: KIFKEQ_clean_linker_1, # of connection points: 2
#     Edge 64, Type (0, 0), BuildingBlock: KIFKEQ_clean_linker_1, # of connection points: 2
#     Edge 65, Type (0, 0), BuildingBlock: KIFKEQ_clean_linker_1, # of connection points: 2
#     Edge 66, Type (0, 0), BuildingBlock: KIFKEQ_clean_linker_1, # of connection points: 2
#     Edge 67, Type (0, 0), BuildingBlock: KIFKEQ_clean_linker_1, # of connection points: 2
#     Edge 68, Type (0, 0), BuildingBlock: KIFKEQ_clean_linker_1, # of connection points: 2
#     Edge 69, Type (0, 0), BuildingBlock: KIFKEQ_clean_linker_1, # of connection points: 2
#     Edge 70, Type (0, 0), BuildingBlock: KIFKEQ_clean_linker_1, # of connection points: 2
#     Edge 71, Type (0, 0), BuildingBlock: KIFKEQ_clean_linker_1, # of connection points: 2
# Relax obj value: 0.082
# Max RMSD: 0.205
# Mean RMSD: 0.205
data_MOF--net-wmi--node1-PAMTUU_clean_sbu_0--edge1-KIFKEQ_clean_linker_1
_symmetry_space_group_name_H-M    P1
_symmetry_Int_Tables_number       1
_symmetry_cell_setting            triclinic
loop_
_symmetry_equiv_pos_as_xyz
'x, y, z'
_cell_length_a     40.319501
_cell_length_b     40.330953
_cell_length_c     80.938602
_cell_angle_alpha  90.48829
_cell_angle_beta   89.710428
_cell_angle_gamma 119.86127
loop_
_atom_site_label
_atom_site_type_symbol
_atom_site_fract_x
_atom_site_fract_y
_atom_site_fract_z
_atom_type_partial_charge
Tb0 Tb 0.46538 1.01136 0.10308 0.0
Tb1 Tb 0.55442 0.06035 0.11749 0.0
C2 C 0.53614 0.03551 0.08036 0.0
C3 C 0.37102 0.92831 0.09208 0.0
C4 C 0.31857 0.84879 0.09147 0.0
C5 C 0.30803 0.87503 0.08555 0.0
C6 C 0.33399 0.91439 0.08592 0.0
C7 C 0.38224 0.90227 0.09732 0.0
C8 C 0.35632 0.86293 0.09703 0.0
C9 C 0.39626 0.96974 0.09465 0.0
O10 O 0.47729 0.96865 0.11385 0.0
O11 O 0.54321 1.00251 0.11491 0.0
O12 O 0.51384 0.03271 0.13795 0.0
O13 O 0.46752 0.04008 0.12599 0.0
O14 O 0.61064 0.07001 0.1177 0.0
O15 O 0.59391 0.10191 0.13392 0.0
O16 O 0.53824 0.10292 0.11232 0.0
O17 O 0.48423 0.07053 0.09586 0.0
O18 O 0.50269 1.00735 0.08486 0.0
O19 O 0.55728 0.06405 0.09048 0.0
C20 C 0.51061 0.97034 0.11545 0.0
O21 O 0.40775 0.97975 0.10983 0.0
O22 O 0.42412 0.98775 0.0841 0.0
C23 C 0.48173 0.03356 0.13915 0.0
C24 C 0.65912 0.13207 0.12523 0.0
C25 C 0.73154 0.19686 0.11885 0.0
C26 C 0.72859 0.16472 0.1269 0.0
C27 C 0.69283 0.13278 0.13005 0.0
C28 C 0.66169 0.16392 0.11712 0.0
C29 C 0.69759 0.19609 0.11402 0.0
C30 C 0.62208 0.09742 0.12862 0.0
C31 C 0.51233 0.10236 0.10232 0.0
H32 H 0.27947 0.8652 0.0809 0.0
H33 H 0.32476 0.93403 0.08184 0.0
H34 H 0.41061 0.91243 0.10225 0.0
H35 H 0.36543 0.84379 0.10185 0.0
H36 H 0.75397 0.16444 0.13101 0.0
H37 H 0.69148 0.10849 0.13631 0.0
H38 H 0.63604 0.16387 0.11317 0.0
H39 H 0.69877 0.22015 0.10764 0.0
Tb40 Tb 0.08147 0.48111 0.09942 0.0
Tb41 Tb 0.03199 0.51928 0.11418 0.0
C42 C 0.04325 0.51135 0.07568 0.0
C43 C 0.164 0.4672 0.09184 0.0
C44 C 0.24237 0.49263 0.09673 0.0
C45 C 0.21441 0.45526 0.10104 0.0
C46 C 0.1756 0.44263 0.09854 0.0
C47 C 0.19194 0.50464 0.08758 0.0
C48 C 0.23073 0.51712 0.08991 0.0
C49 C 0.12281 0.45395 0.09 0.0
O50 O 0.11684 0.54305 0.09633 0.0
O51 O 0.09163 0.56257 0.11723 0.0
O52 O 0.04531 0.49093 0.13435 0.0
O53 O 0.10218 0.50178 0.12392 0.0
O54 O 1.02312 0.56615 0.11691 0.0
O55 O 0.98618 0.51285 0.12912 0.0
O56 O 0.99126 0.46574 0.10275 0.0
O57 O 1.02468 0.43438 0.10674 0.0
O58 O 0.0486 0.48256 0.07888 0.0
O59 O 0.03983 0.53208 0.08757 0.0
C60 C 0.11856 0.56992 0.10627 0.0
O61 O 0.10273 0.44367 0.10359 0.0
O62 O 0.11378 0.47446 0.08065 0.0
C63 C 0.07869 0.49284 0.13635 0.0
C64 C 0.95824 0.55047 0.12136 0.0
C65 C 0.89482 0.56104 0.11519 0.0
C66 C 0.89541 0.54052 0.12907 0.0
C67 C 0.92673 0.53542 0.13212 0.0
C68 C 0.95767 0.57072 0.10738 0.0
C69 C 0.92635 0.57597 0.10435 0.0
C70 C 0.99214 0.54692 0.12565 0.0
C71 C 0.99202 0.43388 0.10455 0.0
H72 H 0.22259 0.43567 0.1062 0.0
H73 H 0.15457 0.41372 0.10197 0.0
H74 H 0.1839 0.52447 0.08258 0.0
H75 H 0.25162 0.5462 0.08665 0.0
H76 H 0.87196 0.52905 0.13782 0.0
H77 H 0.92657 0.52015 0.1431 0.0
H78 H 0.98154 0.58283 0.09884 0.0
H79 H 0.92672 0.59154 0.09345 0.0
Tb80 Tb 0.60836 0.62677 0.09984 0.0
Tb81 Tb 0.57622 0.54001 0.11455 0.0
C82 C 0.57552 0.5568 0.0763 0.0
C83 C 0.61507 0.72002 0.09385 0.0
C84 C 0.58546 0.76943 0.09992 0.0
C85 C 0.61638 0.77996 0.08898 0.0
C86 C 0.63103 0.75547 0.08599 0.0
C87 C 0.58399 0.7091 0.10464 0.0
C88 C 0.56932 0.73357 0.10765 0.0
C89 C 0.63037 0.69422 0.09061 0.0
O90 O 0.54604 0.59828 0.09912 0.0
O91 O 0.53135 0.55357 0.11944 0.0
O92 O 0.60695 0.58303 0.13413 0.0
O93 O 0.59125 0.62648 0.12503 0.0
O94 O 0.53161 0.48391 0.11844 0.0
O95 O 0.58794 0.50275 0.12822 0.0
O96 O 0.62781 0.55452 0.10092 0.0
O97 O 0.65787 0.61925 0.10498 0.0
O98 O 0.60331 0.59197 0.07867 0.0
O99 O 0.55835 0.53291 0.08857 0.0
C100 C 0.52146 0.57262 0.10942 0.0
O101 O 0.64439 0.68586 0.10338 0.0
O102 O 0.60846 0.66393 0.0818 0.0
C103 C 0.60347 0.61346 0.13677 0.0
C104 C 0.55025 0.43692 0.12125 0.0
C105 C 0.54118 0.36432 0.11321 0.0
C106 C 0.54732 0.37776 0.12965 0.0
C107 C 0.55178 0.41357 0.13359 0.0
C108 C 0.54425 0.42387 0.10478 0.0
C109 C 0.53963 0.38783 0.1008 0.0
C110 C 0.55356 0.47387 0.12609 0.0
C111 C 0.65927 0.58766 0.10219 0.0
H112 H 0.62913 0.80706 0.0826 0.0
H113 H 0.6548 0.7642 0.07752 0.0
H114 H 0.57118 0.68168 0.11078 0.0
H115 H 0.54582 0.72469 0.11627 0.0
H116 H 0.5481 0.3603 0.13956 0.0
H117 H 0.55609 0.42293 0.14639 0.0
H118 H 0.54299 0.44143 0.09502 0.0
H119 H 0.53533 0.37858 0.08801 0.0
Tb120 Tb 1.02301 0.45651 0.93082 0.0
Tb121 Tb 0.071 0.5453 0.9166 0.0
C122 C 0.04823 0.52697 0.9538 0.0
C123 C 0.94126 0.36201 0.9423 0.0
C124 C 0.86198 0.30909 0.94364 0.0
C125 C 0.88884 0.29889 0.94907 0.0
C126 C 0.92811 0.32509 0.94835 0.0
C127 C 0.91463 0.37289 0.93755 0.0
C128 C 0.87539 0.34673 0.93821 0.0
C129 C 0.98242 0.38745 0.93928 0.0
O130 O 0.97947 0.46834 0.92093 0.0
O131 O 1.01319 0.53424 0.91959 0.0
O132 O 0.04183 0.50496 0.8961 0.0
O133 O 0.04985 0.45849 0.90744 0.0
O134 O 0.08158 0.60169 0.91703 0.0
O135 O 0.11163 0.58469 0.89987 0.0
O136 O 0.11355 0.5283 0.92044 0.0
O137 O 0.08257 0.4757 0.93753 0.0
O138 O 1.01961 0.49377 0.94928 0.0
O139 O 0.07646 0.54782 0.94358 0.0
C140 C 0.98097 0.5016 0.91948 0.0
O141 O 0.99116 0.39884 0.92405 0.0
O142 O 1.00105 0.41542 0.94979 0.0
C143 C 0.04255 0.47284 0.89454 0.0
C144 C 0.14408 0.64936 0.90936 0.0
C145 C 0.20861 0.72233 0.91558 0.0
C146 C 0.19523 0.71038 0.89936 0.0
C147 C 0.16332 0.67439 0.89631 0.0
C148 C 0.15777 0.66064 0.92554 0.0
C149 C 0.18965 0.69674 0.92862 0.0
C150 C 0.10841 0.61309 0.90588 0.0
C151 C 0.11385 0.50291 0.93044 0.0
H152 H 0.87956 0.27039 0.95359 0.0
H153 H 0.94823 0.31613 0.95203 0.0
H154 H 0.92423 0.40116 0.93271 0.0
H155 H 0.85572 0.35556 0.93376 0.0
H156 H 0.20944 0.72884 0.88895 0.0
H157 H 0.15327 0.66631 0.88373 0.0
H158 H 0.14336 0.64187 0.93585 0.0
H159 H 0.19881 0.70493 0.94128 0.0
Tb160 Tb 0.63592 0.597 0.93377 0.0
Tb161 Tb 0.55007 0.56395 0.91758 0.0
C162 C 0.56504 0.56606 0.95628 0.0
C163 C 0.72824 0.60245 0.94049 0.0
C164 C 0.7759 0.57068 0.93472 0.0
C165 C 0.78447 0.59793 0.94738 0.0
C166 C 0.76088 0.61376 0.9502 0.0
C167 C 0.71929 0.57487 0.92801 0.0
C168 C 0.74302 0.55934 0.92507 0.0
C169 C 0.70296 0.6185 0.94361 0.0
O170 O 0.60663 0.5347 0.93534 0.0
O171 O 0.56403 0.51886 0.91395 0.0
O172 O 0.59342 0.5929 0.89799 0.0
O173 O 0.63615 0.5783 0.90892 0.0
O174 O 0.49466 0.51816 0.91312 0.0
O175 O 0.51197 0.57445 0.90392 0.0
O176 O 0.56407 0.61674 0.93028 0.0
O177 O 0.62918 0.64653 0.92768 0.0
O178 O 0.60026 0.59388 0.95421 0.0
O179 O 0.54217 0.54775 0.94377 0.0
C180 C 0.58199 0.50946 0.92482 0.0
O181 O 0.69516 0.63284 0.93079 0.0
O182 O 0.67237 0.59698 0.95224 0.0
C183 C 0.62487 0.59068 0.89657 0.0
C184 C 0.44631 0.53547 0.91187 0.0
C185 C 0.37358 0.52505 0.92103 0.0
C186 C 0.40437 0.56173 0.91749 0.0
C187 C 0.44024 0.56688 0.91296 0.0
C188 C 0.41569 0.49889 0.91552 0.0
C189 C 0.37989 0.49375 0.9201 0.0
C190 C 0.48345 0.5399 0.90615 0.0
C191 C 0.59739 0.6481 0.9294 0.0
H192 H 0.80976 0.60747 0.95493 0.0
H193 H 0.76811 0.63481 0.95995 0.0
H194 H 0.69383 0.56523 0.92057 0.0
H195 H 0.73538 0.5381 0.91537 0.0
H196 H 0.40057 0.58648 0.91779 0.0
H197 H 0.46301 0.59543 0.91008 0.0
H198 H 0.41931 0.47405 0.91469 0.0
H199 H 0.35714 0.46516 0.92293 0.0
Tb200 Tb 0.49445 0.07126 0.93646 0.0
Tb201 Tb 0.53222 0.02267 0.91979 0.0
C202 C 0.52485 0.03108 0.95871 0.0
C203 C 0.48007 0.15297 0.9443 0.0
C204 C 0.50376 0.23084 0.93922 0.0
C205 C 0.47088 0.20751 0.94865 0.0
C206 C 0.45916 0.16891 0.95116 0.0
C207 C 0.51286 0.17602 0.9349 0.0
C208 C 0.52461 0.21458 0.93238 0.0
C209 C 0.46761 0.11234 0.94679 0.0
O210 O 0.55654 0.10586 0.93953 0.0
O211 O 0.57547 0.08248 0.91768 0.0
O212 O 0.50403 0.03805 0.90011 0.0
O213 O 0.51506 0.09341 0.91229 0.0
O214 O 0.57975 1.01499 0.9161 0.0
O215 O 0.52554 0.97707 0.90462 0.0
O216 O 0.47883 0.98118 0.93087 0.0
O217 O 0.44732 1.01499 0.92866 0.0
O218 O 0.49595 0.03664 0.9561 0.0
O219 O 0.54538 0.02872 0.94645 0.0
C220 C 0.58313 0.10842 0.92923 0.0
O221 O 0.45538 0.09087 0.93357 0.0
O222 O 0.49083 0.10543 0.95532 0.0
C223 C 0.50493 0.07121 0.89934 0.0
C224 C 0.56552 0.95098 0.91152 0.0
C225 C 0.57685 0.88801 0.91772 0.0
C226 C 0.60597 0.92185 0.91061 0.0
C227 C 0.60032 0.95283 0.90754 0.0
C228 C 0.53647 0.91756 0.91886 0.0
C229 C 0.54206 0.88643 0.92191 0.0
C230 C 0.56023 0.98387 0.90741 0.0
C231 C 0.44692 0.98215 0.92976 0.0
H232 H 0.45443 0.2192 0.95426 0.0
H233 H 0.43381 0.15152 0.95847 0.0
H234 H 0.52929 0.16412 0.92945 0.0
H235 H 0.54973 0.23151 0.92488 0.0
H236 H 0.63336 0.92459 0.90748 0.0
H237 H 0.62322 0.97831 0.90192 0.0
H238 H 0.5093 0.91529 0.92207 0.0
H239 H 0.51876 0.86082 0.92723 0.0
Tb240 Tb 0.12951 0.34039 0.43648 0.0
Tb241 Tb 0.22031 0.38545 0.44923 0.0
C242 C 0.19741 0.36479 0.41184 0.0
C243 C 0.03105 0.26133 0.42797 0.0
C244 C 0.97897 0.18196 0.42913 0.0
C245 C 1.01617 0.19573 0.42289 0.0
C246 C 0.04215 0.23514 0.42245 0.0
C247 C 0.99359 0.24764 0.43364 0.0
C248 C 0.96783 0.20838 0.43425 0.0
C249 C 0.05896 0.30235 0.42992 0.0
O250 O 0.1407 0.29474 0.44402 0.0
O251 O 0.20681 0.32734 0.44479 0.0
O252 O 0.18207 0.3543 0.47 0.0
O253 O 0.13583 0.36521 0.46073 0.0
O254 O 0.27638 0.39494 0.44722 0.0
O255 O 0.26183 0.42395 0.46594 0.0
O256 O 0.20393 0.42891 0.44741 0.0
O257 O 0.15013 0.40063 0.43073 0.0
O258 O 0.16346 0.3376 0.41641 0.0
O259 O 0.22074 0.39154 0.42228 0.0
C260 C 0.17377 0.29551 0.44467 0.0
O261 O 0.0728 0.31226 0.44477 0.0
O262 O 0.08552 0.31865 0.41867 0.0
C263 C 0.15026 0.35502 0.47265 0.0
C264 C 0.32629 0.4552 0.45616 0.0
C265 C 0.39888 0.52086 0.45075 0.0
C266 C 0.39579 0.48771 0.45788 0.0
C267 C 0.35998 0.45539 0.46055 0.0
C268 C 0.32895 0.48798 0.44894 0.0
C269 C 0.3649 0.52051 0.44628 0.0
C270 C 0.28919 0.42018 0.45912 0.0
C271 C 0.17839 0.43091 0.43805 0.0
H272 H 1.0256 0.17601 0.41897 0.0
H273 H 0.07117 0.24507 0.4183 0.0
H274 H 0.98461 0.26734 0.43812 0.0
H275 H 0.93926 0.19863 0.43896 0.0
H276 H 0.42112 0.48647 0.46122 0.0
H277 H 0.35861 0.4303 0.46602 0.0
H278 H 0.30331 0.48844 0.4454 0.0
H279 H 0.36601 0.54555 0.44092 0.0
Tb280 Tb 0.74535 0.81413 0.43273 0.0
Tb281 Tb 0.69202 0.84819 0.44747 0.0
C282 C 0.70545 0.84199 0.409 0.0
C283 C 0.83134 0.80658 0.42709 0.0
C284 C 0.91005 0.83742 0.43345 0.0
C285 C 0.89228 0.81121 0.42039 0.0
C286 C 0.85317 0.79581 0.41728 0.0
C287 C 0.8491 0.83319 0.43995 0.0
C288 C 0.88801 0.84824 0.44319 0.0
C289 C 0.79038 0.79106 0.4237 0.0
O290 O 0.77859 0.87639 0.43017 0.0
O291 O 0.75056 0.89392 0.45066 0.0
O292 O 0.70719 0.82176 0.46794 0.0
O293 O 0.76465 0.83572 0.45718 0.0
O294 O 0.6817 0.89407 0.45064 0.0
O295 O 0.64325 0.83884 0.46093 0.0
O296 O 0.65372 0.79412 0.43575 0.0
O297 O 0.68952 0.76531 0.43982 0.0
O298 O 0.71191 0.8139 0.41214 0.0
O299 O 0.70083 0.86185 0.42095 0.0
C300 C 0.77841 0.90248 0.44003 0.0
O301 O 0.76772 0.77762 0.43647 0.0
O302 O 0.78217 0.81259 0.41465 0.0
C303 C 0.74128 0.82505 0.46969 0.0
C304 C 0.61597 0.87673 0.45203 0.0
C305 C 0.55315 0.88623 0.44291 0.0
C306 C 0.54737 0.85042 0.44804 0.0
C307 C 0.57832 0.84574 0.45257 0.0
C308 C 0.6218 0.91242 0.44677 0.0
C309 C 0.59088 0.91708 0.44223 0.0
C310 C 0.64893 0.87303 0.45793 0.0
C311 C 0.65605 0.76311 0.4376 0.0
H312 H 0.90851 0.80215 0.41276 0.0
H313 H 0.84 0.77553 0.40722 0.0
H314 H 0.83288 0.84243 0.44746 0.0
H315 H 0.90098 0.86871 0.45319 0.0
H316 H 0.51876 0.8261 0.449 0.0
H317 H 0.57261 0.81794 0.45675 0.0
H318 H 0.65037 0.93699 0.44636 0.0
H319 H 0.5966 0.94497 0.43818 0.0
Tb320 Tb 0.26631 0.94936 0.43472 0.0
Tb321 Tb 0.23127 0.86368 0.45184 0.0
C322 C 0.221 0.87493 0.4146 0.0
C323 C 0.26903 0.03854 0.42286 0.0
C324 C 0.23737 0.08733 0.42382 0.0
C325 C 0.26692 0.09394 0.41261 0.0
C326 C 0.28263 0.06978 0.41217 0.0
C327 C 0.23855 0.03099 0.43356 0.0
C328 C 0.22286 0.05503 0.43403 0.0
C329 C 0.28832 1.01565 0.42382 0.0
O330 O 0.21354 0.93829 0.4471 0.0
O331 O 0.18302 0.87273 0.44937 0.0
O332 O 0.24377 0.90605 0.47172 0.0
O333 O 0.29381 0.95327 0.45792 0.0
O334 O 0.18638 0.80709 0.45323 0.0
O335 O 0.23653 0.82648 0.46847 0.0
O336 O 0.29101 0.88322 0.447 0.0
O337 O 0.30757 0.93108 0.42769 0.0
O338 O 0.22293 0.90728 0.41866 0.0
O339 O 0.23223 0.85748 0.42492 0.0
C340 C 0.1825 0.90498 0.44936 0.0
O341 O 0.29464 1.00847 0.43876 0.0
O342 O 0.27519 0.98536 0.41436 0.0
C343 C 0.27421 0.94045 0.47153 0.0
C344 C 0.20467 0.76143 0.45965 0.0
C345 C 0.1994 0.69007 0.45249 0.0
C346 C 0.19632 0.70046 0.46885 0.0
C347 C 0.19886 0.7357 0.47236 0.0
C348 C 0.20833 0.75154 0.44331 0.0
C349 C 0.20559 0.71614 0.43977 0.0
C350 C 0.20442 0.79715 0.4636 0.0
C351 C 0.31432 0.90653 0.43569 0.0
H352 H 0.27844 0.11824 0.4044 0.0
H353 H 0.30608 0.0761 0.40381 0.0
H354 H 0.2278 1.00733 0.44207 0.0
H355 H 0.20058 0.04926 0.44297 0.0
H356 H 0.19111 0.68099 0.47894 0.0
H357 H 0.19566 0.74261 0.48502 0.0
H358 H 0.21285 0.77098 0.43328 0.0
H359 H 0.20858 0.7093 0.42708 0.0
Tb360 Tb 0.69145 0.79148 0.26434 0.0
Tb361 Tb 0.74509 0.88005 0.25087 0.0
C362 C 0.71774 0.86181 0.28768 0.0
C363 C 0.60382 0.69746 0.27125 0.0
C364 C 0.52391 0.6511 0.26698 0.0
C365 C 0.5485 0.63633 0.26405 0.0
C366 C 0.58797 0.65924 0.26619 0.0
C367 C 0.57937 0.71222 0.27461 0.0
C368 C 0.53964 0.68907 0.27264 0.0
C369 C 0.64582 0.72213 0.27089 0.0
O370 O 0.65234 0.80653 0.25212 0.0
O371 O 0.68833 0.872 0.25352 0.0
O372 O 0.71946 0.84047 0.22974 0.0
O373 O 0.72432 0.79426 0.24287 0.0
O374 O 0.75586 0.93648 0.24999 0.0
O375 O 0.79043 0.91941 0.23588 0.0
O376 O 0.78549 0.86194 0.25771 0.0
O377 O 0.74915 0.80666 0.27286 0.0
O378 O 0.68885 0.82902 0.28287 0.0
O379 O 0.74713 0.88229 0.27791 0.0
C380 C 0.6554 0.84058 0.2517 0.0
O381 O 0.65988 0.73465 0.25627 0.0
O382 O 0.66189 0.74883 0.28219 0.0
C383 C 0.71958 0.80794 0.22918 0.0
C384 C 0.82001 0.98367 0.24557 0.0
C385 C 0.8823 0.05502 0.2555 0.0
C386 C 0.86628 0.04999 0.23962 0.0
C387 C 0.83547 1.01474 0.23474 0.0
C388 C 0.83612 0.98814 0.26134 0.0
C389 C 0.86704 0.02349 0.26625 0.0
C390 C 0.78569 0.94784 0.2405 0.0
C391 C 0.78244 0.83446 0.26738 0.0
H392 H 0.5372 0.60707 0.25987 0.0
H393 H 0.6063 0.64739 0.26338 0.0
H394 H 0.59105 0.74186 0.27827 0.0
H395 H 0.5214 0.70125 0.27492 0.0
H396 H 0.87768 0.07329 0.23088 0.0
H397 H 0.8234 1.01187 0.22253 0.0
H398 H 0.82439 0.96451 0.26993 0.0
H399 H 0.87845 0.02632 0.27859 0.0
Tb400 Tb 0.30521 0.92942 0.26964 0.0
Tb401 Tb 0.21743 0.89357 0.25515 0.0
C402 C 0.23737 0.90158 0.29368 0.0
C403 C 0.39945 0.93727 0.2743 0.0
C404 C 0.44811 0.90763 0.26625 0.0
C405 C 0.46131 0.9471 0.26524 0.0
C406 C 0.43724 0.96174 0.26926 0.0
C407 C 0.38611 0.89778 0.2753 0.0
C408 C 0.41028 0.88316 0.27143 0.0
C409 C 0.37377 0.95296 0.27758 0.0
O410 O 0.27636 0.86764 0.27323 0.0
O411 O 0.23171 0.84851 0.25249 0.0
O412 O 0.259 0.92077 0.23467 0.0
O413 O 0.3019 0.90646 0.24537 0.0
O414 O 0.16163 0.84723 0.25237 0.0
O415 O 0.17775 0.90163 0.24138 0.0
O416 O 0.23218 0.94772 0.26663 0.0
O417 O 0.297 0.97759 0.26274 0.0
O418 O 0.27192 0.9296 0.29042 0.0
O419 O 0.21293 0.88146 0.28183 0.0
C420 C 0.25075 0.84084 0.26352 0.0
O421 O 0.3638 0.96503 0.26464 0.0
O422 O 0.3448 0.93325 0.28739 0.0
C423 C 0.29032 0.91838 0.233 0.0
C424 C 0.11266 0.86298 0.24936 0.0
C425 C 0.03964 0.85161 0.25853 0.0
C426 C 0.04712 0.84476 0.24221 0.0
C427 C 0.08313 0.85036 0.23772 0.0
C428 C 0.10568 0.87019 0.26565 0.0
C429 C 0.06955 0.86463 0.27019 0.0
C430 C 0.14984 0.86714 0.24424 0.0
C431 C 0.26523 0.97905 0.26481 0.0
H432 H 0.49041 0.96676 0.26146 0.0
H433 H 0.44807 0.99221 0.26828 0.0
H434 H 0.35686 0.87811 0.27889 0.0
H435 H 0.39914 0.85261 0.27217 0.0
H436 H 1.02525 0.83549 0.23279 0.0
H437 H 0.08789 0.84467 0.22507 0.0
H438 H 0.12805 0.87982 0.27487 0.0
H439 H 0.06489 0.86996 0.28288 0.0
Tb440 Tb 0.16337 0.40286 0.26694 0.0
Tb441 Tb 0.20295 0.35426 0.25161 0.0
C442 C 0.20853 0.37702 0.28918 0.0
C443 C 0.15018 0.48456 0.27867 0.0
C444 C 0.1755 0.5636 0.27955 0.0
C445 C 0.13966 0.53701 0.2862 0.0
C446 C 0.12709 0.4978 0.2857 0.0
C447 C 0.18657 0.511 0.2727 0.0
C448 C 0.19913 0.55012 0.27312 0.0
C449 C 0.13477 0.44336 0.27596 0.0
O450 O 0.21821 0.44607 0.25634 0.0
O451 O 0.24978 0.41172 0.25492 0.0
O452 O 0.18979 0.38213 0.23127 0.0
O453 O 0.13685 0.37442 0.24414 0.0
O454 O 0.24934 0.34451 0.2507 0.0
O455 O 0.20024 0.31219 0.23504 0.0
O456 O 0.14414 0.31178 0.25668 0.0
O457 O 0.12347 0.34366 0.27413 0.0
O458 O 0.20397 0.40577 0.28495 0.0
O459 O 0.20157 0.34911 0.27866 0.0
C460 C 0.24985 0.44424 0.25479 0.0
O461 O 0.13633 0.43375 0.26068 0.0
O462 O 0.14541 0.42571 0.28628 0.0
C463 C 0.15708 0.38197 0.2307 0.0
C464 C 0.23427 0.28125 0.24391 0.0
C465 C 0.244 0.21754 0.25034 0.0
C466 C 0.24179 0.22816 0.23402 0.0
C467 C 0.23708 0.25967 0.23086 0.0
C468 C 0.23552 0.27032 0.26023 0.0
C469 C 0.2404 0.23888 0.26341 0.0
C470 C 0.23272 0.31634 0.24017 0.0
C471 C 0.11912 0.31201 0.2671 0.0
H472 H 0.121 0.54641 0.2915 0.0
H473 H 0.09886 0.47778 0.29034 0.0
H474 H 0.20461 0.50126 0.26708 0.0
H475 H 0.22664 0.56959 0.26771 0.0
H476 H 0.24362 0.21208 0.22362 0.0
H477 H 0.23619 0.26755 0.21817 0.0
H478 H 0.23348 0.28652 0.27055 0.0
H479 H 0.24228 0.23191 0.27613 0.0
Tb480 Tb 0.7939 0.68106 0.76778 0.0
Tb481 Tb 0.88409 0.73366 0.77935 0.0
C482 C 0.86131 0.70722 0.74263 0.0
C483 C 0.70123 0.59276 0.76151 0.0
C484 C 0.6532 0.5125 0.76336 0.0
C485 C 0.64329 0.53476 0.75339 0.0
C486 C 0.66705 0.5745 0.75251 0.0
C487 C 0.71198 0.57053 0.77093 0.0
C488 C 0.68827 0.53088 0.77185 0.0
C489 C 0.72415 0.63494 0.76202 0.0
O490 O 0.81031 0.6417 0.77881 0.0
O491 O 0.87543 0.67702 0.77567 0.0
O492 O 0.84664 0.70644 0.80077 0.0
O493 O 0.7989 0.71286 0.79003 0.0
O494 O 0.94069 0.74486 0.77875 0.0
O495 O 0.92439 0.77721 0.79489 0.0
O496 O 0.86568 0.77456 0.77401 0.0
O497 O 0.80838 0.73881 0.75994 0.0
O498 O 0.82883 0.6788 0.74794 0.0
O499 O 0.88382 0.73611 0.75235 0.0
C500 C 0.84422 0.6444 0.77821 0.0
O501 O 0.73777 0.64958 0.77652 0.0
O502 O 0.74962 0.65157 0.75039 0.0
C503 C 0.815 0.70777 0.80287 0.0
C504 C 0.98837 0.80798 0.78499 0.0
C505 C 0.05995 0.87136 0.77652 0.0
C506 C 0.05459 0.853 0.79182 0.0
C507 C 1.01921 0.82165 0.79597 0.0
C508 C 0.99314 0.82644 0.76981 0.0
C509 C 1.02864 0.85794 0.76562 0.0
C510 C 0.95251 0.77307 0.78927 0.0
C511 C 0.83712 0.77188 0.76516 0.0
H512 H 0.61683 0.52154 0.74645 0.0
H513 H 0.65826 0.59107 0.74513 0.0
H514 H 0.7381 0.58396 0.77809 0.0
H515 H 0.69672 0.51491 0.7798 0.0
H516 H 0.07774 0.86296 0.80066 0.0
H517 H 1.01607 0.80774 0.80774 0.0
H518 H 0.96965 0.81611 0.76112 0.0
H519 H 0.03178 0.87126 0.75372 0.0
Tb520 Tb 0.40864 0.15079 0.77093 0.0
Tb521 Tb 0.36129 0.19329 0.78481 0.0
C522 C 0.38556 0.19652 0.74756 0.0
C523 C 0.48831 0.13317 0.76001 0.0
C524 C 0.5677 0.1602 0.75771 0.0
C525 C 0.55279 0.18429 0.75394 0.0
C526 C 0.51345 0.17095 0.75517 0.0
C527 C 0.50285 0.10885 0.76339 0.0
C528 C 0.54206 0.12218 0.7623 0.0
C529 C 0.4477 0.11972 0.76339 0.0
O530 O 0.45309 0.20691 0.77994 0.0
O531 O 0.41934 0.23923 0.78229 0.0
O532 O 0.38992 0.18231 0.80546 0.0
O533 O 0.38014 0.12708 0.79405 0.0
O534 O 0.35139 0.23959 0.78445 0.0
O535 O 0.31978 0.19257 0.8011 0.0
O536 O 0.31848 0.13404 0.78056 0.0
O537 O 0.34949 0.11208 0.76334 0.0
O538 O 0.4132 0.19046 0.75215 0.0
O539 O 0.35762 0.19103 0.75773 0.0
C540 C 0.45155 0.23863 0.78184 0.0
O541 O 0.44041 0.1255 0.77851 0.0
O542 O 0.42887 0.1279 0.7526 0.0
C543 C 0.38838 0.14914 0.80699 0.0
C544 C 0.28837 0.22554 0.79128 0.0
C545 C 0.22456 0.23516 0.78459 0.0
C546 C 0.23477 0.23246 0.80095 0.0
C547 C 0.26632 0.22781 0.80422 0.0
C548 C 0.27784 0.22727 0.77491 0.0
C549 C 0.24636 0.23209 0.77161 0.0
C550 C 0.32366 0.22432 0.79519 0.0
C551 C 0.31811 0.1085 0.77023 0.0
H552 H 0.57151 0.21357 0.7502 0.0
H553 H 0.50278 0.19033 0.75271 0.0
H554 H 0.48394 0.0798 0.76742 0.0
H555 H 0.55233 0.10294 0.76566 0.0
H556 H 0.21835 0.23388 0.81128 0.0
H557 H 0.27386 0.22659 0.81694 0.0
H558 H 0.29439 0.2257 0.76465 0.0
H559 H 0.23975 0.23437 0.75887 0.0
Tb560 Tb 0.93568 0.29574 0.76394 0.0
Tb561 Tb 0.90069 0.20824 0.77822 0.0
C562 C 0.90847 0.22773 0.73971 0.0
C563 C 0.94308 0.3896 0.75905 0.0
C564 C 0.91253 0.43773 0.76648 0.0
C565 C 0.88842 0.39963 0.76148 0.0
C566 C 0.90349 0.37572 0.75792 0.0
C567 C 0.96721 0.42765 0.76393 0.0
C568 C 0.95211 0.45147 0.76764 0.0
C569 C 0.95917 0.3642 0.75607 0.0
O570 O 0.87371 0.26713 0.76044 0.0
O571 O 0.85501 0.22159 0.78068 0.0
O572 O 0.92779 0.25002 0.79874 0.0
O573 O 0.91268 0.29238 0.78817 0.0
O574 O 0.85443 0.15263 0.7813 0.0
O575 O 0.90943 0.1689 0.79185 0.0
O576 O 0.95481 0.22321 0.76678 0.0
O577 O 0.98418 0.28792 0.77094 0.0
O578 O 0.93577 0.26266 0.74302 0.0
O579 O 0.88876 0.20308 0.75148 0.0
C580 C 0.84705 0.24077 0.76987 0.0
O581 O 0.97079 0.35435 0.76919 0.0
O582 O 0.93996 0.3352 0.74612 0.0
C583 C 0.92481 0.28098 0.80053 0.0
C584 C 0.87009 0.10368 0.78411 0.0
C585 C 0.85738 0.03025 0.77488 0.0
C586 C 0.85194 0.03832 0.79131 0.0
C587 C 0.85819 0.07456 0.79584 0.0
C588 C 0.87596 0.09612 0.76771 0.0
C589 C 0.86973 0.05976 0.76314 0.0
C590 C 0.87472 0.14102 0.78925 0.0
C591 C 0.98599 0.25635 0.76876 0.0
H592 H 0.8578 0.38809 0.76063 0.0
H593 H 0.88412 0.34629 0.75443 0.0
H594 H 0.99775 0.43887 0.765 0.0
H595 H 0.9715 0.48081 0.77129 0.0
H596 H 0.84322 1.01673 0.80077 0.0
H597 H 0.85353 0.0798 0.80856 0.0
H598 H 0.88499 0.11819 0.75844 0.0
H599 H 0.87399 0.0546 0.75037 0.0
Tb600 Tb 0.34863 0.11462 0.60202 0.0
Tb601 Tb 0.3984 0.2036 0.58792 0.0
C602 C 0.37465 0.18537 0.62522 0.0
C603 C 0.26198 0.02178 0.60921 0.0
C604 C 0.18195 0.97255 0.60645 0.0
C605 C 0.20404 0.96363 0.61705 0.0
C606 C 0.24368 0.98798 0.61837 0.0
C607 C 0.23985 0.0315 0.59914 0.0
C608 C 0.20036 1.00721 0.59776 0.0
C609 C 0.30415 0.04538 0.60915 0.0
O610 O 0.3075 0.12756 0.59047 0.0
O611 O 0.34093 0.19334 0.59092 0.0
O612 O 0.3709 0.16324 0.56716 0.0
O613 O 0.3788 0.11805 0.57958 0.0
O614 O 0.40939 0.26014 0.58782 0.0
O615 O 0.44044 0.24253 0.57154 0.0
O616 O 0.44026 0.18657 0.59351 0.0
O617 O 0.4074 0.13193 0.60947 0.0
O618 O 0.34637 0.15186 0.62075 0.0
O619 O 0.40257 0.20678 0.61494 0.0
C620 C 0.30886 0.16079 0.58977 0.0
O621 O 0.31931 0.05722 0.59462 0.0
O622 O 0.31977 0.07255 0.62025 0.0
C623 C 0.37122 0.13082 0.56628 0.0
C624 C 0.47295 0.30716 0.58102 0.0
C625 C 0.53888 0.37887 0.58748 0.0
C626 C 0.52787 0.3657 0.57116 0.0
C627 C 0.49528 0.33033 0.56799 0.0
C628 C 0.48402 0.31986 0.59737 0.0
C629 C 0.51659 0.35543 0.60056 0.0
C630 C 0.43721 0.27121 0.57717 0.0
C631 C 0.43941 0.16012 0.60322 0.0
H632 H 0.19081 0.93751 0.62415 0.0
H633 H 0.26015 0.97993 0.62623 0.0
H634 H 0.25324 0.05723 0.59182 0.0
H635 H 0.18459 1.01493 0.58932 0.0
H636 H 0.54403 0.38312 0.56078 0.0
H637 H 0.48714 0.32129 0.5553 0.0
H638 H 0.46732 0.30251 0.60767 0.0
H639 H 0.52448 0.36445 0.61327 0.0
Tb640 Tb 0.9597 0.25261 0.5943 0.0
Tb641 Tb 0.87101 0.2159 0.5808 0.0
C642 C 0.88996 0.21125 0.61782 0.0
C643 C 0.05105 0.2559 0.60152 0.0
C644 C 0.09745 0.22182 0.59942 0.0
C645 C 0.10506 0.25044 0.61129 0.0
C646 C 0.08209 0.26746 0.61228 0.0
C647 C 0.04258 0.22625 0.5901 0.0
C648 C 0.06561 0.20951 0.58903 0.0
C649 C 1.0286 0.27572 0.60157 0.0
O650 O 0.945 0.19749 0.58285 0.0
O651 O 0.8795 0.16776 0.58436 0.0
O652 O 0.91002 0.22571 0.5598 0.0
O653 O 0.95719 0.27898 0.57166 0.0
O654 O 0.81459 0.1704 0.58055 0.0
O655 O 0.83087 0.22017 0.56557 0.0
O656 O 0.89037 0.27569 0.58574 0.0
O657 O 0.94389 0.29513 0.60221 0.0
O658 O 0.92235 0.21407 0.61304 0.0
O659 O 0.86943 0.21939 0.60779 0.0
C660 C 0.91111 0.16639 0.58268 0.0
O661 O 1.01712 0.27965 0.58708 0.0
O662 O 1.00151 0.26491 0.61261 0.0
C663 C 0.94259 0.25802 0.5585 0.0
C664 C 0.76726 0.18784 0.57622 0.0
C665 C 0.69647 0.18162 0.58548 0.0
C666 C 0.70732 0.18464 0.56875 0.0
C667 C 0.74225 0.18761 0.56419 0.0
C668 C 0.75691 0.1855 0.59298 0.0
C669 C 0.7218 0.18225 0.59755 0.0
C670 C 0.80261 0.18804 0.57097 0.0
C671 C 0.91688 0.30058 0.59575 0.0
H672 H 0.12957 0.26065 0.61939 0.0
H673 H 0.08909 0.29023 0.62117 0.0
H674 H 1.0187 0.21662 0.58169 0.0
H675 H 0.05879 0.18723 0.5799 0.0
H676 H 0.68841 0.18387 0.55911 0.0
H677 H 0.74946 0.18909 0.5512 0.0
H678 H 0.77572 0.1857 0.60254 0.0
H679 H 0.7146 0.1805 0.61054 0.0
Tb680 Tb 0.82038 0.72824 0.59419 0.0
Tb681 Tb 0.86296 0.67927 0.58298 0.0
C682 C 0.86337 0.70572 0.61976 0.0
C683 C 0.80734 0.81215 0.59952 0.0
C684 C 0.84008 0.89183 0.59528 0.0
C685 C 0.801 0.86694 0.59212 0.0
C686 C 0.78484 0.82753 0.59422 0.0
C687 C 0.84609 0.8369 0.60326 0.0
C688 C 0.86229 0.8765 0.60127 0.0
C689 C 0.79136 0.77042 0.59871 0.0
O690 O 0.87737 0.77091 0.58529 0.0
O691 O 0.90931 0.7368 0.58624 0.0
O692 O 0.85375 0.70722 0.56157 0.0
O693 O 0.7974 0.6961 0.57167 0.0
O694 O 0.90877 0.66875 0.58452 0.0
O695 O 0.86266 0.63694 0.56734 0.0
O696 O 0.80375 0.63684 0.58758 0.0
O697 O 0.77956 0.66995 0.60216 0.0
O698 O 0.85676 0.73259 0.61452 0.0
O699 O 0.85941 0.67754 0.61003 0.0
C700 C 0.90915 0.76911 0.58523 0.0
O701 O 0.79495 0.75793 0.58429 0.0
O702 O 0.79949 0.75424 0.61074 0.0
C703 C 0.82018 0.70416 0.55911 0.0
C704 C 0.89478 0.60579 0.57818 0.0
C705 C 0.90257 0.54199 0.58679 0.0
C706 C 0.91306 0.55836 0.57097 0.0
C707 C 0.90924 0.58988 0.56675 0.0
C708 C 0.88357 0.58928 0.59389 0.0
C709 C 0.88739 0.55767 0.59815 0.0
C710 C 0.89409 0.64092 0.57375 0.0
C711 C 0.77697 0.63777 0.59663 0.0
H712 H 0.783 0.87792 0.58774 0.0
H713 H 0.75501 0.80889 0.5911 0.0
H714 H 0.86408 0.82551 0.60713 0.0
H715 H 0.89249 0.89492 0.60373 0.0
H716 H 0.92408 0.5467 0.56177 0.0
H717 H 0.91809 0.60219 0.55457 0.0
H718 H 0.87248 0.60123 0.60294 0.0
H719 H 0.87924 0.54606 0.61047 0.0
H720 H 0.46675 0.90122 0.09987 0.0
H721 H 0.56112 0.96073 0.13365 0.0
H722 H 0.48172 0.84945 0.09735 0.0
H723 H 0.57543 0.90897 0.13158 0.0
H724 H 0.62706 0.84683 0.10436 0.0
H725 H 0.60396 0.89107 0.10982 0.0
H726 H 0.48756 0.79722 0.10992 0.0
H727 H 0.51078 0.75277 0.10372 0.0
C728 C 0.4898 0.90257 0.10718 0.0
C729 C 0.51296 0.93507 0.11685 0.0
C730 C 0.49852 0.87302 0.10571 0.0
C731 C 0.53039 0.87548 0.11396 0.0
C732 C 0.55143 0.90664 0.12466 0.0
C733 C 0.54301 0.93615 0.12598 0.0
C734 C 0.59651 0.83554 0.10538 0.0
C735 C 0.57084 0.7962 0.10353 0.0
C736 C 0.58322 0.8609 0.10877 0.0
C737 C 0.54385 0.84771 0.11051 0.0
C738 C 0.51804 0.80836 0.10862 0.0
C739 C 0.53139 0.78287 0.10522 0.0
H740 H 0.24328 0.8164 0.1005 0.0
H741 H 0.32852 0.78684 0.08576 0.0
H742 H 0.19671 0.74908 0.10377 0.0
H743 H 0.28219 0.71928 0.08983 0.0
H744 H 0.17538 0.59922 0.08281 0.0
H745 H 0.2241 0.66605 0.0788 0.0
H746 H 0.18308 0.69773 0.12218 0.0
H747 H 0.134 0.63138 0.12594 0.0
C748 C 0.25209 0.79557 0.09783 0.0
C749 C 0.28977 0.80725 0.09281 0.0
C750 C 0.22546 0.75686 0.09997 0.0
C751 C 0.2357 0.72862 0.09724 0.0
C752 C 0.2732 0.74017 0.09197 0.0
C753 C 0.2999 0.77899 0.08979 0.0
C754 C 0.17695 0.62041 0.09156 0.0
C755 C 0.15054 0.60986 0.10464 0.0
C756 C 0.20499 0.65877 0.08929 0.0
C757 C 0.20732 0.68746 0.10005 0.0
C758 C 0.18164 0.67661 0.11342 0.0
C759 C 0.15361 0.6384 0.11566 0.0
H760 H 0.30129 0.5316 0.07516 0.0
H761 H 0.27639 0.48416 0.12424 0.0
H762 H 0.3688 0.55271 0.07918 0.0
H763 H 0.3441 0.50623 0.12855 0.0
H764 H 0.45943 0.51081 0.12281 0.0
H765 H 0.39252 0.49292 0.12025 0.0
H766 H 0.42518 0.59685 0.0933 0.0
H767 H 0.49215 0.61402 0.09534 0.0
C768 C 0.3104 0.52612 0.08689 0.0
C769 C 0.28358 0.5061 0.09936 0.0
C770 C 0.34915 0.53838 0.08925 0.0
C771 C 0.36209 0.53128 0.10421 0.0
C772 C 0.33518 0.51166 0.11676 0.0
C773 C 0.29637 0.49905 0.11433 0.0
C774 C 0.45239 0.53005 0.11647 0.0
C775 C 0.48114 0.56375 0.1092 0.0
C776 C 0.41393 0.51985 0.11506 0.0
C777 C 0.40325 0.5433 0.10649 0.0
C778 C 0.4322 0.57767 0.09969 0.0
C779 C 0.47066 0.58767 0.10095 0.0
H780 H 0.96959 0.5532 0.90291 0.0
H781 H 0.91279 0.45587 0.93516 0.0
H782 H 0.91586 0.56461 0.90554 0.0
H783 H 0.8587 0.4674 0.93786 0.0
H784 H 0.80808 0.54447 0.95711 0.0
H785 H 0.85284 0.52131 0.95168 0.0
H786 H 0.84609 0.53717 0.89938 0.0
H787 H 0.80162 0.56062 0.9048 0.0
C788 C 0.94518 0.53374 0.9103 0.0
C789 C 0.94533 0.50358 0.91879 0.0
C790 C 0.91434 0.54022 0.91176 0.0
C791 C 0.88311 0.51704 0.92197 0.0
C792 C 0.88251 0.48588 0.92998 0.0
C793 C 0.91323 0.479 0.92829 0.0
C794 C 0.81608 0.54289 0.94445 0.0
C795 C 0.8015 0.55461 0.9314 0.0
C796 C 0.84135 0.5292 0.94133 0.0
C797 C 0.85296 0.52737 0.9251 0.0
C798 C 0.83778 0.53838 0.91202 0.0
C799 C 0.81219 0.55163 0.91512 0.0
H800 H 0.57675 0.29205 0.93967 0.0
H801 H 0.45908 0.2627 0.9326 0.0
H802 H 0.59718 0.35922 0.93505 0.0
H803 H 0.47938 0.33 0.9286 0.0
H804 H 0.53062 0.44842 0.90621 0.0
H805 H 0.51303 0.38151 0.909 0.0
H806 H 0.59468 0.41187 0.94865 0.0
H807 H 0.61285 0.47886 0.94567 0.0
C808 C 0.55523 0.29989 0.93708 0.0
C809 C 0.51625 0.27192 0.93651 0.0
C810 C 0.56693 0.33848 0.93461 0.0
C811 C 0.53995 0.35007 0.93145 0.0
C812 C 0.50099 0.32207 0.9308 0.0
C813 C 0.48929 0.2835 0.93331 0.0
C814 C 0.5451 0.44093 0.91544 0.0
C815 C 0.57312 0.46911 0.92574 0.0
C816 C 0.53478 0.40247 0.91712 0.0
C817 C 0.55224 0.39122 0.92912 0.0
C818 C 0.58089 0.41953 0.93916 0.0
C819 C 0.59119 0.45798 0.9375 0.0
H820 H 0.613 0.16361 0.95352 0.0
H821 H 0.64403 0.12526 0.90908 0.0
H822 H 0.67989 0.21241 0.95756 0.0
H823 H 0.71042 0.17437 0.91292 0.0
H824 H 0.82983 0.2341 0.93409 0.0
H825 H 0.76246 0.18717 0.93105 0.0
H826 H 0.7323 0.27146 0.94667 0.0
H827 H 0.79996 0.31816 0.95046 0.0
C828 C 0.63395 0.16584 0.9445 0.0
C829 C 0.62308 0.1403 0.93102 0.0
C830 C 0.67232 0.19392 0.9468 0.0
C831 C 0.70069 0.1971 0.93567 0.0
C832 C 0.68953 0.17225 0.92195 0.0
C833 C 0.65131 0.14421 0.91967 0.0
C834 C 0.80892 0.24255 0.93718 0.0
C835 C 0.82049 0.28001 0.94257 0.0
C836 C 0.77018 0.21573 0.93518 0.0
C837 C 0.74186 0.22558 0.93844 0.0
C838 C 0.75331 0.26281 0.94412 0.0
C839 C 0.79215 0.2897 0.94614 0.0
H840 H 0.28047 0.16523 0.42337 0.0
H841 H 0.164 0.07356 0.42935 0.0
H842 H 0.26028 0.2117 0.42908 0.0
H843 H 0.14397 0.12048 0.43573 0.0
H844 H 0.12479 0.22723 0.42923 0.0
H845 H 0.13701 0.17415 0.42386 0.0
H846 H 0.23908 0.23073 0.45377 0.0
H847 H 0.22733 0.28341 0.45881 0.0
C848 C 0.25044 0.15492 0.4257 0.0
C849 C 0.22394 0.11555 0.42591 0.0
C850 C 0.23892 0.18162 0.42924 0.0
C851 C 0.20059 0.16979 0.43316 0.0
C852 C 0.1737 0.13051 0.4328 0.0
C853 C 0.18527 0.10366 0.42926 0.0
C854 C 0.14928 0.22772 0.43494 0.0
C855 C 0.17537 0.25964 0.44426 0.0
C856 C 0.15639 0.19747 0.43182 0.0
C857 C 0.1896 0.19874 0.43802 0.0
C858 C 0.2139 0.22938 0.44836 0.0
C859 C 0.20698 0.25945 0.45138 0.0
H860 H 0.96074 0.12465 0.40636 0.0
H861 H 0.93702 0.1452 0.45626 0.0
H862 H 0.91381 0.05672 0.4092 0.0
H863 H 0.89131 0.07747 0.45941 0.0
H864 H 0.78029 0.96561 0.45348 0.0
H865 H 0.82974 0.03196 0.45078 0.0
H866 H 0.89794 0.9975 0.42178 0.0
H867 H 0.84741 0.93077 0.42398 0.0
C868 C 0.94581 0.1145 0.418 0.0
C869 C 0.95216 0.14028 0.43101 0.0
C870 C 0.91902 0.07553 0.41968 0.0
C871 C 0.89831 0.06143 0.4345 0.0
C872 C 0.90581 0.08724 0.44766 0.0
C873 C 0.93216 0.12613 0.4459 0.0
C874 C 0.8059 0.97205 0.4466 0.0
C875 C 0.80984 0.94277 0.43897 0.0
C876 C 0.8345 1.01026 0.44512 0.0
C877 C 0.86815 0.02036 0.43612 0.0
C878 C 0.87227 0.99098 0.42861 0.0
C879 C 0.84339 0.95264 0.42997 0.0
H880 H 0.16064 0.95264 0.43531 0.0
H881 H 0.11871 0.8508 0.46483 0.0
H882 H 0.09527 0.94133 0.4327 0.0
H883 H 0.05372 0.83964 0.46228 0.0
H884 H 0.94332 0.84383 0.4635 0.0
H885 H 1.01075 0.8666 0.46939 0.0
H886 H 0.03722 0.88866 0.4175 0.0
H887 H 0.96981 0.86609 0.41162 0.0
C888 C 0.13766 0.92848 0.44161 0.0
C889 C 0.14474 0.90258 0.45027 0.0
C890 C 0.10023 0.92179 0.43997 0.0
C891 C 0.06939 0.88947 0.4472 0.0
C892 C 0.07689 0.86491 0.45666 0.0
C893 C 0.1141 0.87124 0.45807 0.0
C894 C 0.96364 0.85401 0.45339 0.0
C895 C 0.95128 0.85297 0.43708 0.0
C896 C 1.00217 0.86688 0.45675 0.0
C897 C 1.02924 0.87945 0.44391 0.0
C898 C 1.01708 0.87953 0.42767 0.0
C899 C 0.97846 0.86621 0.42428 0.0
H900 H 0.49588 0.92571 0.23964 0.0
H901 H 0.45833 0.85447 0.28296 0.0
H902 H 0.54126 0.90407 0.23343 0.0
H903 H 0.50439 0.83332 0.27698 0.0
H904 H 0.5798 0.78699 0.25762 0.0
H905 H 0.52552 0.79848 0.25912 0.0
H906 H 0.60009 0.916 0.245 0.0
H907 H 0.6533 0.90438 0.24313 0.0
C908 C 0.49739 0.90545 0.24786 0.0
C909 C 0.47386 0.89223 0.26191 0.0
C910 C 0.52341 0.89299 0.24431 0.0
C911 C 0.52691 0.86723 0.2548 0.0
C912 C 0.50227 0.85283 0.26852 0.0
C913 C 0.47597 0.8651 0.272 0.0
C914 C 0.58427 0.81499 0.25451 0.0
C915 C 0.62095 0.84479 0.25034 0.0
C916 C 0.55328 0.82171 0.25552 0.0
C917 C 0.55835 0.85825 0.25225 0.0
C918 C 0.59477 0.88738 0.2474 0.0
C919 C 0.62551 0.88074 0.24644 0.0
H920 H 0.20241 0.77837 0.24494 0.0
H921 H 0.27945 0.81255 0.28661 0.0
H922 H 0.18543 0.71211 0.24913 0.0
H923 H 0.26163 0.74604 0.29106 0.0
H924 H 0.24694 0.62618 0.28407 0.0
H925 H 0.26664 0.69325 0.27969 0.0
H926 H 0.14988 0.66147 0.26831 0.0
H927 H 0.13058 0.59447 0.27185 0.0
C928 C 0.21578 0.7718 0.25499 0.0
C929 C 0.24222 0.80084 0.26546 0.0
C930 C 0.20578 0.7337 0.25748 0.0
C931 C 0.22184 0.72362 0.27054 0.0
C932 C 0.24892 0.75277 0.2808 0.0
C933 C 0.25903 0.79094 0.27828 0.0
C934 C 0.22551 0.63349 0.28055 0.0
C935 C 0.18716 0.60482 0.27829 0.0
C936 C 0.23675 0.67201 0.2782 0.0
C937 C 0.20991 0.6828 0.27354 0.0
C938 C 0.17145 0.65418 0.27162 0.0
C939 C 0.16025 0.61572 0.27392 0.0
H940 H 0.4907 0.60953 0.2392 0.0
H941 H 0.46313 0.63832 0.28682 0.0
H942 H 0.42325 0.56505 0.23415 0.0
H943 H 0.39524 0.59266 0.28205 0.0
H944 H 0.27103 0.51776 0.26514 0.0
H945 H 0.33616 0.57271 0.26661 0.0
H946 H 0.37959 0.50396 0.2445 0.0
H947 H 0.31534 0.45028 0.24262 0.0
C948 C 0.4701 0.60629 0.2486 0.0
C949 C 0.48227 0.62692 0.26352 0.0
C950 C 0.43138 0.58072 0.24574 0.0
C951 C 0.40367 0.57461 0.25781 0.0
C952 C 0.41565 0.59671 0.27242 0.0
C953 C 0.45456 0.62275 0.27521 0.0
C954 C 0.29445 0.5148 0.26025 0.0
C955 C 0.28787 0.47955 0.25377 0.0
C956 C 0.33186 0.54615 0.26126 0.0
C957 C 0.36333 0.54291 0.25569 0.0
C958 C 0.35627 0.50797 0.24869 0.0
C959 C 0.31922 0.4769 0.24772 0.0
H960 H 0.79059 0.56845 0.77277 0.0
H961 H 0.90833 0.64307 0.78682 0.0
H962 H 0.80212 0.51414 0.77206 0.0
H963 H 0.92 0.58985 0.78571 0.0
H964 H 0.93002 0.48651 0.79278 0.0
H965 H 0.90785 0.53178 0.79828 0.0
H966 H 0.83722 0.49224 0.75454 0.0
H967 H 0.85892 0.44634 0.74925 0.0
C968 C 0.81866 0.57316 0.77596 0.0
C969 C 0.84854 0.61012 0.77978 0.0
C970 C 0.8254 0.54217 0.7754 0.0
C971 C 0.86205 0.54756 0.77879 0.0
C972 C 0.8913 0.58432 0.78325 0.0
C973 C 0.88464 0.61505 0.78375 0.0
C974 C 0.90966 0.4874 0.78437 0.0
C975 C 0.89667 0.46323 0.77045 0.0
C976 C 0.89689 0.51333 0.78753 0.0
C977 C 0.87106 0.51606 0.77675 0.0
C978 C 0.8568 0.49071 0.7632 0.0
C979 C 0.86939 0.46452 0.76011 0.0
H980 H 0.57547 0.47702 0.76655 0.0
H981 H 0.66905 0.45361 0.76615 0.0
H982 H 0.53095 0.41018 0.77203 0.0
H983 H 0.62427 0.38648 0.77241 0.0
H984 H 0.51902 0.26091 0.76524 0.0
H985 H 0.57056 0.32693 0.76096 0.0
H986 H 0.51483 0.36705 0.79483 0.0
H987 H 0.46336 0.30177 0.79869 0.0
C988 C 0.5866 0.45759 0.76749 0.0
C989 C 0.62596 0.4709 0.76587 0.0
C990 C 0.56106 0.41923 0.77093 0.0
C991 C 0.57405 0.39296 0.77295 0.0
C992 C 0.61329 0.40592 0.77095 0.0
C993 C 0.63897 0.44448 0.76749 0.0
C994 C 0.51844 0.28385 0.77206 0.0
C995 C 0.48702 0.27629 0.78217 0.0
C996 C 0.54785 0.32167 0.76957 0.0
C997 C 0.54632 0.35242 0.77722 0.0
C998 C 0.51635 0.34426 0.78833 0.0
C999 C 0.48701 0.30676 0.79068 0.0
H1000 H 0.62579 0.23133 0.76714 0.0
H1001 H 0.60533 0.12209 0.74827 0.0
H1002 H 0.69399 0.25285 0.76926 0.0
H1003 H 0.67314 0.14328 0.75105 0.0
H1004 H 0.78315 0.17716 0.78069 0.0
H1005 H 0.71659 0.15973 0.77656 0.0
H1006 H 0.75261 0.26549 0.75074 0.0
H1007 H 0.81966 0.28301 0.7547 0.0
C1008 C 0.63575 0.21205 0.76321 0.0
C1009 C 0.60977 0.17474 0.75767 0.0
C1010 C 0.67484 0.2244 0.76451 0.0
C1011 C 0.68873 0.19957 0.7605 0.0
C1012 C 0.66309 0.16279 0.75449 0.0
C1013 C 0.62418 0.15063 0.75298 0.0
C1014 C 0.77702 0.19689 0.77421 0.0
C1015 C 0.80677 0.23151 0.76803 0.0
C1016 C 0.73886 0.18672 0.77174 0.0
C1017 C 0.72946 0.21113 0.76324 0.0
C1018 C 0.7591 0.24619 0.75737 0.0
C1019 C 0.79742 0.25613 0.7596 0.0
H1020 H 0.12804 0.19673 0.62311 0.0
H1021 H 0.12688 0.21277 0.57048 0.0
H1022 H 0.17489 0.17541 0.61915 0.0
H1023 H 0.17358 0.19159 0.56657 0.0
H1024 H 0.29929 0.21479 0.57435 0.0
H1025 H 0.24397 0.22396 0.57574 0.0
H1026 H 0.18308 0.12112 0.60456 0.0
H1027 H 0.23862 0.11152 0.60293 0.0
C1028 C 0.13759 0.19541 0.61071 0.0
C1029 C 0.12391 0.2065 0.59712 0.0
C1030 C 0.16405 0.18287 0.60843 0.0
C1031 C 0.17776 0.18181 0.59254 0.0
C1032 C 0.16349 0.19216 0.57894 0.0
C1033 C 0.13668 0.20413 0.58119 0.0
C1034 C 0.27383 0.19371 0.5807 0.0
C1035 C 0.27319 0.16243 0.58851 0.0
C1036 C 0.24215 0.19891 0.58147 0.0
C1037 C 0.20934 0.17334 0.59032 0.0
C1038 C 0.20814 0.14133 0.59772 0.0
C1039 C 0.2397 0.13566 0.59666 0.0
H1040 H 0.88937 0.9532 0.61451 0.0
H1041 H 0.83053 0.92417 0.56765 0.0
H1042 H 0.91259 0.02106 0.60933 0.0
H1043 H 0.85411 0.99159 0.56233 0.0
H1044 H 0.84915 0.1011 0.57224 0.0
H1045 H 0.8376 0.03635 0.57396 0.0
H1046 H 0.95228 0.07868 0.59233 0.0
H1047 H 0.96375 0.14442 0.59084 0.0
C1048 C 0.88194 0.96138 0.60299 0.0
C1049 C 0.85747 0.93331 0.59165 0.0
C1050 C 0.89539 1.00025 0.59998 0.0
C1051 C 0.8848 1.01178 0.58551 0.0
C1052 C 0.86211 0.98371 0.57378 0.0
C1053 C 0.84852 0.94504 0.57684 0.0
C1054 C 0.8722 0.09682 0.57645 0.0
C1055 C 0.90733 0.12796 0.58147 0.0
C1056 C 0.86564 0.05955 0.57734 0.0
C1057 C 0.89398 0.05216 0.58329 0.0
C1058 C 0.92974 0.08338 0.58781 0.0
C1059 C 0.93645 0.12102 0.5868 0.0
H1060 H 0.12283 0.98745 0.60181 0.0
H1061 H 0.14703 0.89457 0.60425 0.0
H1062 H 0.05636 0.94196 0.59475 0.0
H1063 H 0.08065 0.84931 0.59808 0.0
H1064 H 0.97362 0.77875 0.57048 0.0
H1065 H 0.03869 0.83032 0.57495 0.0
H1066 H 0.99623 0.88976 0.60534 0.0
H1067 H 0.93053 0.83817 0.60034 0.0
C1068 C 0.11402 0.95737 0.60092 0.0
C1069 C 0.14053 0.94481 0.60356 0.0
C1070 C 0.07577 0.93125 0.59702 0.0
C1071 C 0.06313 0.89196 0.59561 0.0
C1072 C 0.08944 0.87941 0.59868 0.0
C1073 C 0.12754 0.90541 0.60252 0.0
C1074 C 0.97811 0.80322 0.57783 0.0
C1075 C 0.94702 0.80434 0.58514 0.0
C1076 C 1.01548 0.83263 0.58056 0.0
C1077 C 1.0229 0.86376 0.5909 0.0
C1078 C 0.99161 0.8662 0.59733 0.0
C1079 C 0.95393 0.83675 0.59442 0.0
H1080 H 0.58482 0.09719 0.06157 0.0
H1081 H 0.51305 0.97437 0.05971 0.0
H1082 H 0.59296 0.09798 0.03153 0.0
H1083 H 0.52115 0.97521 0.02984 0.0
H1084 H 0.55124 0.98855 0.97485 0.0
H1085 H 0.56533 0.99122 1.00463 0.0
H1086 H 0.54105 0.08351 1.01082 0.0
H1087 H 0.52667 0.08043 0.9816 0.0
C1088 C 0.57167 0.07032 0.05483 0.0
C1089 C 0.54779 0.03582 0.06295 0.0
C1090 C 0.57622 0.07076 0.03764 0.0
C1091 C 0.55738 0.03666 0.02832 0.0
C1092 C 0.53621 1.00189 0.03666 0.0
C1093 C 0.53129 1.0015 0.05377 0.0
C1094 C 0.54949 1.00961 0.98263 0.0
C1095 C 0.5373 0.03384 0.97604 0.0
C1096 C 0.5575 1.01118 0.99961 0.0
C1097 C 0.55447 0.03774 1.01005 0.0
C1098 C 0.5442 0.06312 1.00314 0.0
C1099 C 0.53547 0.061 0.98641 0.0
H1100 H 0.98783 0.50843 0.97417 0.0
H1101 H 0.11129 0.56997 0.97308 0.0
H1102 H 0.98893 0.5146 1.0042 0.0
H1103 H 0.11235 0.57587 1.00328 0.0
H1104 H 0.08629 0.50374 0.05204 0.0
H1105 H 0.09036 0.51904 0.02292 0.0
H1106 H 1.01049 0.55975 0.03014 0.0
H1107 H 1.00692 0.54492 0.05983 0.0
C1108 C 1.01523 0.52411 0.98034 0.0
C1109 C 0.04951 0.5383 0.97132 0.0
C1110 C 1.01581 0.52787 0.99753 0.0
C1111 C 0.05068 0.54541 1.00608 0.0
C1112 C 0.08503 0.56202 0.99697 0.0
C1113 C 0.08446 0.55879 0.97971 0.0
C1114 C 0.06967 0.51614 0.0475 0.0
C1115 C 0.0458 0.5226 0.05817 0.0
C1116 C 0.07245 0.5254 0.03083 0.0
C1117 C 0.05099 0.54084 0.02426 0.0
C1118 C 1.02746 0.54798 0.03493 0.0
C1119 C 1.02534 0.53946 0.05184 0.0
H1120 H 0.50453 0.55862 0.97482 0.0
H1121 H 0.60181 0.54136 0.97561 0.0
H1122 H 0.49493 0.5448 1.0046 0.0
H1123 H 0.59208 0.52701 1.00501 0.0
H1124 H 0.56255 0.49382 0.05792 0.0
H1125 H 0.54805 0.48425 0.02813 0.0
H1126 H 0.5407 0.58748 0.02729 0.0
H1127 H 0.55577 0.59718 0.05664 0.0
C1128 C 0.52306 0.55081 0.98129 0.0
C1129 C 0.55409 0.5514 0.97314 0.0
C1130 C 0.51765 0.54292 0.99825 0.0
C1131 C 0.54278 0.5348 1.0071 0.0
C1132 C 0.57198 0.53265 0.99853 0.0
C1133 C 0.57778 0.54123 0.98175 0.0
C1134 C 0.55694 0.5138 0.05134 0.0
C1135 C 0.56072 0.54645 0.05936 0.0
C1136 C 0.54866 0.5084 0.03438 0.0
C1137 C 0.54319 0.53513 0.02542 0.0
C1138 C 0.54426 0.56617 0.03386 0.0
C1139 C 0.55329 0.57194 0.05061 0.0
H1140 H 0.15925 0.30935 0.38869 0.0
H1141 H 0.25928 0.42093 0.39489 0.0
H1142 H 0.17072 0.31197 0.35927 0.0
H1143 H 0.27156 0.42307 0.36515 0.0
H1144 H 0.23702 0.43521 0.31162 0.0
H1145 H 0.24211 0.43135 0.34124 0.0
H1146 H 0.20833 0.31183 0.33643 0.0
H1147 H 0.202 0.31549 0.30652 0.0
C1148 C 0.18414 0.33433 0.38382 0.0
C1149 C 0.208 0.36528 0.39419 0.0
C1150 C 0.19099 0.33557 0.36686 0.0
C1151 C 0.22199 0.36777 0.35971 0.0
C1152 C 0.24707 0.398 0.37019 0.0
C1153 C 0.24016 0.39676 0.38726 0.0
C1154 C 0.23114 0.40813 0.31679 0.0
C1155 C 0.21839 0.37543 0.30669 0.0
C1156 C 0.23448 0.40604 0.33385 0.0
C1157 C 0.22525 0.3712 0.34134 0.0
C1158 C 0.21502 0.33902 0.33111 0.0
C1159 C 0.21165 0.34112 0.31395 0.0
H1160 H 0.66952 0.87584 0.39307 0.0
H1161 H 0.75014 0.83605 0.38571 0.0
H1162 H 0.67494 0.89246 0.36354 0.0
H1163 H 0.75596 0.85303 0.35677 0.0
H1164 H 0.77955 0.905 0.30754 0.0
H1165 H 0.77876 0.91054 0.3377 0.0
H1166 H 0.65532 0.84893 0.33723 0.0
H1167 H 0.65604 0.84325 0.30723 0.0
C1168 C 0.68857 0.87104 0.38522 0.0
C1169 C 0.70885 0.85404 0.3916 0.0
C1170 C 0.69177 0.88061 0.3684 0.0
C1171 C 0.71618 0.87437 0.35792 0.0
C1172 C 0.73742 0.85876 0.36456 0.0
C1173 C 0.7336 0.8485 0.38112 0.0
C1174 C 0.75232 0.8937 0.31385 0.0
C1175 C 0.71789 0.87315 0.3051 0.0
C1176 C 0.75184 0.89676 0.33109 0.0
C1177 C 0.71694 0.87982 0.33979 0.0
C1178 C 0.68259 0.86242 0.33086 0.0
C1179 C 0.68306 0.8589 0.3137 0.0
H1180 H 0.16675 0.85908 0.3086 0.0
H1181 H 0.28825 0.91646 0.31825 0.0
H1182 H 0.15435 0.83987 0.3378 0.0
H1183 H 0.27592 0.89702 0.34687 0.0
H1184 H 0.25018 0.84017 0.39488 0.0
H1185 H 0.24743 0.83688 0.36462 0.0
H1186 H 0.16816 0.87948 0.365 0.0
H1187 H 0.17107 0.88295 0.3951 0.0
C1188 C 0.19068 0.86743 0.31688 0.0
C1189 C 0.22842 0.88978 0.31116 0.0
C1190 C 0.18362 0.85631 0.33352 0.0
C1191 C 0.21421 0.86649 0.34453 0.0
C1192 C 0.25177 0.88809 0.33864 0.0
C1193 C 0.25877 0.89976 0.32225 0.0
C1194 C 0.2311 0.84742 0.38851 0.0
C1195 C 0.21122 0.86224 0.39726 0.0
C1196 C 0.22969 0.84579 0.37121 0.0
C1197 C 0.20795 0.85843 0.36248 0.0
C1198 C 0.18503 0.86945 0.37137 0.0
C1199 C 0.18687 0.8716 0.3886 0.0
H1200 H 0.82623 0.64769 0.72098 0.0
H1201 H 0.91834 0.76475 0.72426 0.0
H1202 H 0.83544 0.64789 0.69142 0.0
H1203 H 0.92835 0.76458 0.69441 0.0
H1204 H 0.88479 0.7651 0.64128 0.0
H1205 H 0.8926 0.76536 0.67091 0.0
H1206 H 0.87399 0.65026 0.66824 0.0
H1207 H 0.865 0.64959 0.63832 0.0
C1208 C 0.84896 0.67338 0.71543 0.0
C1209 C 0.87114 0.70648 0.72499 0.0
C1210 C 0.85452 0.6733 0.69842 0.0
C1211 C 0.88249 0.70629 0.69045 0.0
C1212 C 0.90616 0.73881 0.70012 0.0
C1213 C 0.90057 0.7389 0.71724 0.0
C1214 C 0.8827 0.73987 0.64692 0.0
C1215 C 0.87353 0.70701 0.63743 0.0
C1216 C 0.88767 0.74023 0.66398 0.0
C1217 C 0.88368 0.70776 0.67205 0.0
C1218 C 0.8767 0.67559 0.66244 0.0
C1219 C 0.87173 0.67523 0.64529 0.0
H1220 H 0.43332 0.24518 0.64222 0.0
H1221 H 0.31732 0.15228 0.64784 0.0
H1222 H 0.43605 0.25822 0.67192 0.0
H1223 H 0.32043 0.1644 0.67726 0.0
H1224 H 0.32698 0.19632 0.73008 0.0
H1225 H 0.32441 0.20381 0.70022 0.0
H1226 H 0.44045 0.22572 0.69563 0.0
H1227 H 0.44339 0.21953 0.72521 0.0
C1228 C 0.40828 0.22789 0.64971 0.0
C1229 C 0.37537 0.19731 0.64267 0.0
C1230 C 0.40987 0.23521 0.66675 0.0
C1231 C 0.37857 0.21213 0.67707 0.0
C1232 C 0.34496 0.18309 0.66978 0.0
C1233 C 0.34337 0.17584 0.65284 0.0
C1234 C 0.35216 0.20356 0.72271 0.0
C1235 C 0.38512 0.20665 0.73002 0.0
C1236 C 0.35065 0.20763 0.70558 0.0
C1237 C 0.38208 0.21492 0.69543 0.0
C1238 C 0.41579 0.22047 0.70297 0.0
C1239 C 0.4173 0.21646 0.72 0.0
H1240 H 0.84782 0.23268 0.63721 0.0
H1241 H 0.90888 0.17004 0.63817 0.0
H1242 H 0.84286 0.22925 0.66742 0.0
H1243 H 0.90378 0.16652 0.66821 0.0
H1244 H 0.87576 0.1574 0.72393 0.0
H1245 H 0.86027 0.14474 0.69429 0.0
H1246 H 0.89977 0.26459 0.68683 0.0
H1247 H 0.91558 0.27719 0.7159 0.0
C1248 C 0.85913 0.21722 0.64382 0.0
C1249 C 0.87923 0.20215 0.63538 0.0
C1250 C 0.85644 0.21537 0.66108 0.0
C1251 C 0.87327 0.19791 0.67015 0.0
C1252 C 0.89038 0.17995 0.66157 0.0
C1253 C 0.89354 0.18227 0.64437 0.0
C1254 C 0.88087 0.18083 0.7159 0.0
C1255 C 0.89746 0.21833 0.72216 0.0
C1256 C 0.87195 0.17363 0.69901 0.0
C1257 C 0.87848 0.20367 0.6883 0.0
C1258 C 0.89383 0.24077 0.69478 0.0
C1259 C 0.90342 0.24804 0.71143 0.0
H1260 H 0.36275 0.93068 0.23107 0.0
H1261 H 0.27918 0.94291 0.20256 0.0
H1262 H 0.40915 0.96015 0.20947 0.0
H1263 H 0.32584 0.97092 0.18003 0.0
H1264 H 0.42876 0.05266 0.14897 0.0
H1265 H 0.38194 0.02471 0.17113 0.0
H1266 H 0.42927 0.9528 0.18397 0.0
H1267 H 0.4773 0.98251 0.16236 0.0
C1268 C 0.35385 0.93901 0.22 0.0
C1269 C 0.31681 0.9341 0.21861 0.0
C1270 C 0.38077 0.95585 0.20742 0.0
C1271 C 0.37163 0.96787 0.19276 0.0
C1272 C 0.33434 0.96258 0.1912 0.0
C1273 C 0.30732 0.94614 0.20404 0.0
C1274 C 0.42954 0.03136 0.15677 0.0
C1275 C 0.45707 0.02015 0.15407 0.0
C1276 C 0.40224 1.01484 0.16935 0.0
C1277 C 0.40123 0.98609 0.17943 0.0
C1278 C 0.42927 0.9753 0.17678 0.0
C1279 C 0.45704 0.99238 0.16438 0.0
H1280 H 0.14992 0.51522 0.14792 0.0
H1281 H 0.0307 0.43892 0.15862 0.0
H1282 H 0.16818 0.48726 0.17009 0.0
H1283 H 0.04873 0.40947 0.18045 0.0
H1284 H 0.09299 0.38793 0.22832 0.0
H1285 H 0.07426 0.41571 0.20658 0.0
H1286 H 0.17226 0.43352 0.17774 0.0
H1287 H 0.1923 0.4071 0.20022 0.0
C1288 C 0.12754 0.49257 0.15514 0.0
C1289 C 0.08881 0.47954 0.15159 0.0
C1290 C 0.13804 0.47605 0.16774 0.0
C1291 C 0.11013 0.44554 0.17706 0.0
C1292 C 0.07125 0.43316 0.17376 0.0
C1293 C 0.06075 0.45013 0.16125 0.0
C1294 C 0.11067 0.39751 0.21733 0.0
C1295 C 0.1444 0.39527 0.21613 0.0
C1296 C 0.0996 0.41335 0.20471 0.0
C1297 C 0.12158 0.42717 0.19025 0.0
C1298 C 0.15484 0.42394 0.18878 0.0
C1299 C 0.16621 0.40835 0.2016 0.0
H1300 H 0.72136 0.74187 0.22563 0.0
H1301 H 0.69029 0.81532 0.19946 0.0
H1302 H 0.69309 0.69405 0.20411 0.0
H1303 H 0.66338 0.7677 0.17718 0.0
H1304 H 0.57894 0.65906 0.15036 0.0
H1305 H 0.60967 0.70745 0.17179 0.0
H1306 H 0.69582 0.67429 0.17731 0.0
H1307 H 0.66376 0.62461 0.15625 0.0
C1308 C 0.7091 0.74823 0.21507 0.0
C1309 C 0.70785 0.78249 0.21438 0.0
C1310 C 0.69301 0.72065 0.2026 0.0
C1311 C 0.67547 0.72652 0.18887 0.0
C1312 C 0.67583 0.76167 0.18774 0.0
C1313 C 0.69173 0.7893 0.20039 0.0
C1314 C 0.60407 0.66165 0.1564 0.0
C1315 C 0.61874 0.63777 0.15174 0.0
C1316 C 0.62212 0.6899 0.16852 0.0
C1317 C 0.65576 0.69551 0.17619 0.0
C1318 C 0.66981 0.67077 0.17184 0.0
C1319 C 0.65135 0.64205 0.15982 0.0
H1320 H 0.06298 0.42167 0.88356 0.0
H1321 H 0.98896 0.46709 0.87229 0.0
H1322 H 0.03415 0.37475 0.86137 0.0
H1323 H 0.95838 0.41887 0.85066 0.0
H1324 H 0.93375 0.3521 0.8032 0.0
H1325 H 0.96367 0.39882 0.82481 0.0
H1326 H 0.98063 0.31785 0.853 0.0
H1327 H 0.95219 0.27102 0.83045 0.0
C1328 C 0.04063 0.42175 0.8762 0.0
C1329 C 1.02858 0.44842 0.87952 0.0
C1330 C 1.02361 0.39437 0.86362 0.0
C1331 C 0.99348 0.39238 0.85416 0.0
C1332 C 0.98189 0.41963 0.85738 0.0
C1333 C 0.99947 0.4475 0.86978 0.0
C1334 C 0.94355 0.34379 0.81401 0.0
C1335 C 0.94032 0.30741 0.81502 0.0
C1336 C 0.96065 0.37088 0.82658 0.0
C1337 C 0.97464 0.36253 0.84087 0.0
C1338 C 0.97083 0.3258 0.8421 0.0
C1339 C 0.95411 0.29865 0.82926 0.0
H1340 H 0.69501 0.59731 0.89359 0.0
H1341 H 0.61557 0.61978 0.86709 0.0
H1342 H 0.7418 0.62726 0.87213 0.0
H1343 H 0.66245 0.64836 0.84472 0.0
H1344 H 0.76696 0.73079 0.81505 0.0
H1345 H 0.72039 0.70199 0.83726 0.0
H1346 H 0.76073 0.62229 0.8459 0.0
H1347 H 0.80861 0.65279 0.82427 0.0
C1348 C 0.68708 0.60804 0.88299 0.0
C1349 C 0.65119 0.60598 0.88214 0.0
C1350 C 0.71419 0.62515 0.87051 0.0
C1351 C 0.70629 0.64036 0.85652 0.0
C1352 C 0.67 0.63761 0.85542 0.0
C1353 C 0.64283 0.62082 0.86815 0.0
C1354 C 0.76636 0.70766 0.82201 0.0
C1355 C 0.7918 0.6944 0.81812 0.0
C1356 C 0.73917 0.69065 0.83457 0.0
C1357 C 0.73617 0.65936 0.84339 0.0
C1358 C 0.76233 0.64667 0.83966 0.0
C1359 C 0.79004 0.66423 0.82728 0.0
H1360 H 0.36719 0.07764 0.81765 0.0
H1361 H 0.44337 0.1966 0.82908 0.0
H1362 H 0.39633 0.059 0.83924 0.0
H1363 H 0.47417 0.17834 0.85017 0.0
H1364 H 0.49852 0.13498 0.89716 0.0
H1365 H 0.46939 0.15306 0.87589 0.0
H1366 H 0.44967 0.05439 0.84687 0.0
H1367 H 0.47742 0.03479 0.86903 0.0
C1368 C 0.39008 0.09986 0.82492 0.0
C1369 C 0.40263 0.13862 0.8218 0.0
C1370 C 0.40728 0.08917 0.83716 0.0
C1371 C 0.43809 0.11696 0.84651 0.0
C1372 C 0.45018 0.15586 0.84352 0.0
C1373 C 0.43246 0.16652 0.83143 0.0
C1374 C 0.48828 0.11696 0.88624 0.0
C1375 C 0.49045 0.08318 0.88492 0.0
C1376 C 0.47164 0.12769 0.87386 0.0
C1377 C 0.45698 0.10547 0.85947 0.0
C1378 C 0.45997 0.07207 0.85787 0.0
C1379 C 0.47631 0.06094 0.87049 0.0
H1380 H 0.98809 0.32902 0.54668 0.0
H1381 H 0.9561 0.21122 0.53803 0.0
H1382 H 0.03981 0.34946 0.52674 0.0
H1383 H 1.00912 0.23158 0.51836 0.0
H1384 H 0.08832 0.28437 0.47258 0.0
H1385 H 0.03576 0.25863 0.49242 0.0
H1386 H 0.10103 0.35663 0.52419 0.0
H1387 H 0.15276 0.38294 0.50378 0.0
C1388 C 0.99184 0.30741 0.54026 0.0
C1389 C 0.96773 0.2685 0.54376 0.0
C1390 C 1.02203 0.31916 0.52903 0.0
C1391 C 1.02958 0.29238 0.52114 0.0
C1392 C 1.00432 0.25316 0.52412 0.0
C1393 C 0.97364 0.24135 0.53528 0.0
C1394 C 0.09169 0.29986 0.48402 0.0
C1395 C 0.12472 0.33542 0.48676 0.0
C1396 C 0.0615 0.28513 0.49542 0.0
C1397 C 0.06355 0.3057 0.50988 0.0
C1398 C 0.09782 0.34031 0.51303 0.0
C1399 C 0.12791 0.35514 0.50153 0.0
H1400 H 0.69766 0.78186 0.49627 0.0
H1401 H 0.81254 0.83826 0.47667 0.0
H1402 H 0.71781 0.7535 0.5179 0.0
H1403 H 0.83171 0.80812 0.49699 0.0
H1404 H 0.86718 0.77028 0.54276 0.0
H1405 H 0.84807 0.80302 0.52308 0.0
H1406 H 0.7329 0.70635 0.523 0.0
H1407 H 0.75193 0.67525 0.54356 0.0
C1408 C 0.72719 0.7885 0.49664 0.0
C1409 C 0.75326 0.81218 0.4846 0.0
C1410 C 0.73874 0.77169 0.50888 0.0
C1411 C 0.7765 0.7778 0.50923 0.0
C1412 C 0.80263 0.80276 0.4975 0.0
C1413 C 0.79135 0.81993 0.48559 0.0
C1414 C 0.83808 0.75576 0.53818 0.0
C1415 C 0.81125 0.71992 0.54442 0.0
C1416 C 0.82685 0.77458 0.52691 0.0
C1417 C 0.78861 0.75768 0.52132 0.0
C1418 C 0.76227 0.72101 0.52719 0.0
C1419 C 0.77334 0.70269 0.53874 0.0
H1420 H 0.31779 1.01771 0.47048 0.0
H1421 H 0.25547 0.92512 0.50465 0.0
H1422 H 0.33805 0.06358 0.49299 0.0
H1423 H 0.27658 0.9718 0.52753 0.0
H1424 H 0.36838 0.06238 0.56284 0.0
H1425 H 0.34077 1.01594 0.54063 0.0
H1426 H 0.31338 0.09186 0.51434 0.0
H1427 H 0.34096 0.13895 0.53694 0.0
C1428 C 0.3083 1.007 0.48283 0.0
C1429 C 0.28522 0.96749 0.48575 0.0
C1430 C 0.31972 0.03356 0.49574 0.0
C1431 C 0.30896 0.02146 0.51204 0.0
C1432 C 0.28548 0.98198 0.51505 0.0
C1433 C 0.27336 0.95525 0.502 0.0
C1434 C 0.35654 0.06949 0.55237 0.0
C1435 C 0.35705 0.10467 0.55171 0.0
C1436 C 0.3403 0.04248 0.53969 0.0
C1437 C 0.32442 0.04989 0.52582 0.0
C1438 C 0.32542 0.08531 0.52491 0.0
C1439 C 0.34138 0.11238 0.53778 0.0
H1440 H 0.58193 0.33285 0.12576 0.0
H1441 H 0.49062 0.30904 0.09163 0.0
H1442 H 0.57344 0.26975 0.12063 0.0
H1443 H 0.48293 0.24576 0.08598 0.0
H1444 H 0.45431 0.11917 0.0985 0.0
H1445 H 0.46092 0.18312 0.09914 0.0
H1446 H 0.58387 0.23389 0.09971 0.0
H1447 H 0.57717 0.17061 0.09955 0.0
C1448 C 0.56004 0.31416 0.11711 0.0
C1449 C 0.53686 0.32611 0.1092 0.0
C1450 C 0.55546 0.278 0.11398 0.0
C1451 C 0.52765 0.25256 0.10276 0.0
C1452 C 0.5045 0.26448 0.09474 0.0
C1453 C 0.50918 0.30091 0.09786 0.0
C1454 C 0.48266 0.14409 0.09839 0.0
C1455 C 0.51519 0.13989 0.09918 0.0
C1456 C 0.48651 0.18075 0.09879 0.0
C1457 C 0.52296 0.21376 0.09987 0.0
C1458 C 0.55535 0.20924 0.09939 0.0
C1459 C 0.55151 0.17289 0.09917 0.0
H1460 H 0.7974 0.19865 0.10843 0.0
H1461 H 0.75286 0.27259 0.12234 0.0
H1462 H 0.86043 0.25441 0.10407 0.0
H1463 H 0.81583 0.32826 0.11817 0.0
H1464 H 0.9224 0.4223 0.09484 0.0
H1465 H 0.86044 0.36489 0.09734 0.0
H1466 H 0.91442 0.30532 0.11818 0.0
H1467 H 0.97702 0.36297 0.11523 0.0
C1468 C 0.80108 0.2268 0.11066 0.0
C1469 C 0.76991 0.23104 0.11573 0.0
C1470 C 0.83733 0.25883 0.10819 0.0
C1471 C 0.84346 0.29603 0.11073 0.0
C1472 C 0.8122 0.3002 0.11577 0.0
C1473 C 0.77597 0.2682 0.11818 0.0
C1474 C 0.92124 0.39694 0.09987 0.0
C1475 C 0.95483 0.39741 0.10491 0.0
C1476 C 0.8855 0.36396 0.10143 0.0
C1477 C 0.88211 0.33041 0.10819 0.0
C1478 C 0.91584 0.33048 0.11281 0.0
C1479 C 0.95179 0.36358 0.11115 0.0
H1480 H 0.73068 0.64419 0.11248 0.0
H1481 H 0.6716 0.53097 0.09088 0.0
H1482 H 0.78884 0.63944 0.11477 0.0
H1483 H 0.72927 0.52655 0.09291 0.0
H1484 H 0.81874 0.50919 0.1191 0.0
H1485 H 0.76422 0.51847 0.11502 0.0
H1486 H 0.84008 0.63482 0.09985 0.0
H1487 H 0.89506 0.62584 0.10447 0.0
C1488 C 0.73025 0.61863 0.10796 0.0
C1489 C 0.69629 0.58785 0.10166 0.0
C1490 C 0.76358 0.61588 0.10926 0.0
C1491 C 0.76363 0.58231 0.10428 0.0
C1492 C 0.73012 0.55243 0.09726 0.0
C1493 C 0.69701 0.55511 0.096 0.0
C1494 C 0.82394 0.53687 0.11501 0.0
C1495 C 0.86143 0.56674 0.11215 0.0
C1496 C 0.79256 0.5421 0.11247 0.0
C1497 C 0.7976 0.57736 0.10699 0.0
C1498 C 0.83509 0.60736 0.10416 0.0
C1499 C 0.8666 0.60206 0.10664 0.0
H1500 H 0.30315 0.466 0.91159 0.0
H1501 H 0.35586 0.5712 0.93988 0.0
H1502 H 0.24036 0.45886 0.9169 0.0
H1503 H 0.29305 0.56423 0.94498 0.0
H1504 H 0.18424 0.5657 0.92779 0.0
H1505 H 0.24605 0.56906 0.92778 0.0
H1506 H 0.19108 0.44828 0.93818 0.0
H1507 H 0.1285 0.44485 0.93808 0.0
C1508 C 0.30141 0.48732 0.91917 0.0
C1509 C 0.33485 0.51939 0.92518 0.0
C1510 C 0.26528 0.48316 0.92223 0.0
C1511 C 0.26158 0.51104 0.93131 0.0
C1512 C 0.29486 0.54248 0.93773 0.0
C1513 C 0.33096 0.54657 0.93474 0.0
C1514 C 0.18523 0.53985 0.93029 0.0
C1515 C 0.15134 0.50493 0.93286 0.0
C1516 C 0.22082 0.54186 0.93038 0.0
C1517 C 0.22365 0.50894 0.93292 0.0
C1518 C 0.18987 0.47412 0.93604 0.0
C1519 C 0.15406 0.47219 0.93614 0.0
H1520 H 0.61504 0.86186 0.898 0.0
H1521 H 0.55186 0.83771 0.94378 0.0
H1522 H 0.62322 0.80659 0.9022 0.0
H1523 H 0.55977 0.78222 0.94786 0.0
H1524 H 0.53901 0.66074 0.93783 0.0
H1525 H 0.53647 0.71942 0.93582 0.0
H1526 H 0.65388 0.77928 0.91926 0.0
H1527 H 0.65632 0.71984 0.92109 0.0
C1528 C 0.60327 0.84513 0.90909 0.0
C1529 C 0.58261 0.85445 0.92051 0.0
C1530 C 0.60802 0.81333 0.91149 0.0
C1531 C 0.59213 0.78973 0.92536 0.0
C1532 C 0.57194 0.79933 0.9369 0.0
C1533 C 0.56729 0.83119 0.93453 0.0
C1534 C 0.56453 0.68639 0.93389 0.0
C1535 C 0.59791 0.68537 0.9296 0.0
C1536 C 0.56309 0.72026 0.93283 0.0
C1537 C 0.59493 0.75428 0.92736 0.0
C1538 C 0.62866 0.75356 0.92336 0.0
C1539 C 0.63019 0.71955 0.92454 0.0
H1540 H 0.37334 0.96901 0.92556 0.0
H1541 H 0.43762 0.91065 0.9324 0.0
H1542 H 0.3144 0.90708 0.92332 0.0
H1543 H 0.37953 0.84952 0.92977 0.0
H1544 H 0.26641 0.74341 0.93824 0.0
H1545 H 0.32124 0.80659 0.94318 0.0
H1546 H 0.28252 0.8529 0.90474 0.0
H1547 H 0.2266 0.79003 0.90037 0.0
C1548 C 0.37494 0.9431 0.92665 0.0
C1549 C 0.41034 0.94501 0.92918 0.0
C1550 C 0.34118 0.90755 0.92525 0.0
C1551 C 0.34204 0.87311 0.92639 0.0
C1552 C 0.37744 0.87523 0.92912 0.0
C1553 C 0.41099 0.91054 0.93052 0.0
C1554 C 0.26918 0.7671 0.931 0.0
C1555 C 0.24199 0.76132 0.91882 0.0
C1556 C 0.30097 0.80339 0.9337 0.0
C1557 C 0.30664 0.83501 0.92428 0.0
C1558 C 0.27906 0.82942 0.91234 0.0
C1559 C 0.2472 0.79312 0.90966 0.0
H1560 H 0.23036 0.65425 0.46988 0.0
H1561 H 0.16121 0.63999 0.42694 0.0
H1562 H 0.2242 0.59199 0.46464 0.0
H1563 H 0.15593 0.5777 0.42139 0.0
H1564 H 0.12216 0.44862 0.43052 0.0
H1565 H 0.12698 0.51167 0.43271 0.0
H1566 H 0.2467 0.56231 0.44493 0.0
H1567 H 0.24184 0.50001 0.443 0.0
C1568 C 0.21379 0.63781 0.4593 0.0
C1569 C 0.19627 0.65223 0.44886 0.0
C1570 C 0.21059 0.60219 0.45618 0.0
C1571 C 0.18977 0.57982 0.44251 0.0
C1572 C 0.17203 0.59406 0.43206 0.0
C1573 C 0.17541 0.62994 0.43515 0.0
C1574 C 0.14958 0.47336 0.43341 0.0
C1575 C 0.18144 0.46912 0.43682 0.0
C1576 C 0.15237 0.5095 0.43468 0.0
C1577 C 0.18708 0.542 0.43933 0.0
C1578 C 0.21928 0.53784 0.44178 0.0
C1579 C 0.21649 0.50201 0.44058 0.0
H1580 H 0.64427 0.69241 0.44712 0.0
H1581 H 0.58492 0.74914 0.42898 0.0
H1582 H 0.583 0.63272 0.44946 0.0
H1583 H 0.52429 0.69023 0.43152 0.0
H1584 H 0.4233 0.5704 0.42446 0.0
H1585 H 0.48596 0.62665 0.42016 0.0
H1586 H 0.5249 0.60594 0.46648 0.0
H1587 H 0.46222 0.54989 0.47087 0.0
C1588 C 0.61831 0.69213 0.44349 0.0
C1589 C 0.61969 0.7257 0.43787 0.0
C1590 C 0.58312 0.65799 0.44496 0.0
C1591 C 0.54854 0.65655 0.44071 0.0
C1592 C 0.55021 0.68996 0.43472 0.0
C1593 C 0.58516 0.72395 0.43336 0.0
C1594 C 0.44506 0.57795 0.43382 0.0
C1595 C 0.4374 0.55543 0.44804 0.0
C1596 C 0.48114 0.61022 0.43132 0.0
C1597 C 0.51068 0.62096 0.44296 0.0
C1598 C 0.50316 0.59827 0.45711 0.0
C1599 C 0.46706 0.56605 0.45963 0.0
H1600 H 0.48721 0.83683 0.42631 0.0
H1601 H 0.54343 0.94773 0.45012 0.0
H1602 H 0.43113 0.84333 0.42143 0.0
H1603 H 0.48732 0.95427 0.44514 0.0
H1604 H 0.38566 0.96371 0.42554 0.0
H1605 H 0.44512 0.96065 0.42471 0.0
H1606 H 0.38182 0.84194 0.43892 0.0
H1607 H 0.32328 0.84488 0.43953 0.0
C1608 C 0.48769 0.86263 0.43052 0.0
C1609 C 0.51988 0.89153 0.43879 0.0
C1610 C 0.45551 0.86643 0.42766 0.0
C1611 C 0.45448 0.89925 0.43298 0.0
C1612 C 0.48719 0.92881 0.44069 0.0
C1613 C 0.51942 0.92499 0.44357 0.0
C1614 C 0.38451 0.93686 0.42814 0.0
C1615 C 0.34976 0.90463 0.43267 0.0
C1616 C 0.41857 0.93516 0.42783 0.0
C1617 C 0.41838 0.90104 0.4318 0.0
C1618 C 0.38322 0.86856 0.4356 0.0
C1619 C 0.34954 0.87036 0.43606 0.0
H1620 H 0.79386 0.77329 0.27277 0.0
H1621 H 0.85357 0.89635 0.26933 0.0
H1622 H 0.85552 0.77479 0.27346 0.0
H1623 H 0.91448 0.8979 0.26975 0.0
H1624 H 1.02232 0.89547 0.2792 0.0
H1625 H 0.95974 0.8884 0.28506 0.0
H1626 H 0.90658 0.78813 0.25369 0.0
H1627 H 0.96895 0.79431 0.24835 0.0
C1628 C 0.82006 0.80065 0.27254 0.0
C1629 C 0.81874 0.83466 0.27094 0.0
C1630 C 0.85542 0.80154 0.27273 0.0
C1631 C 0.89019 0.83648 0.27154 0.0
C1632 C 0.88858 0.87048 0.27086 0.0
C1633 C 0.85347 0.86955 0.27053 0.0
C1634 C 0.99727 0.87147 0.27379 0.0
C1635 C 1.00099 0.84573 0.26314 0.0
C1636 C 0.96129 0.8676 0.27704 0.0
C1637 C 0.9279 0.83785 0.26976 0.0
C1638 C 0.93145 0.81123 0.25964 0.0
C1639 C 0.96743 0.81513 0.25637 0.0
H1640 H 0.20524 0.99077 0.27074 0.0
H1641 H 0.32513 0.05124 0.25777 0.0
H1642 H 0.20266 0.04914 0.26805 0.0
H1643 H 0.32274 0.11058 0.25548 0.0
H1644 H 0.28936 0.19578 0.23323 0.0
H1645 H 0.29677 0.14018 0.23781 0.0
H1646 H 0.22179 0.10982 0.28014 0.0
H1647 H 0.21278 0.16418 0.27505 0.0
C1648 C 0.23131 1.01666 0.2675 0.0
C1649 C 0.26544 1.0161 0.26444 0.0
C1650 C 0.22985 0.0504 0.26607 0.0
C1651 C 0.26247 0.08482 0.26158 0.0
C1652 C 0.2969 0.08455 0.25879 0.0
C1653 C 0.29839 0.05058 0.26024 0.0
C1654 C 0.27413 0.17708 0.24344 0.0
C1655 C 0.2501 0.18447 0.25365 0.0
C1656 C 0.27888 0.14542 0.24622 0.0
C1657 C 0.2598 0.12024 0.25932 0.0
C1658 C 0.23654 0.12817 0.26977 0.0
C1659 C 0.23169 0.15973 0.26696 0.0
H1660 H 0.94588 0.06983 0.27351 0.0
H1661 H 0.89277 0.1264 0.24917 0.0
H1662 H 1.00116 0.13184 0.28013 0.0
H1663 H 0.94866 0.1883 0.25523 0.0
H1664 H 0.04711 0.29796 0.27602 0.0
H1665 H 0.98796 0.23569 0.27627 0.0
H1666 H 0.05291 0.18003 0.26407 0.0
H1667 H 0.11134 0.24146 0.26408 0.0
C1668 C 0.94575 0.09545 0.26971 0.0
C1669 C 0.91495 0.09296 0.26062 0.0
C1670 C 0.97765 0.13107 0.2734 0.0
C1671 C 0.97961 0.16519 0.26811 0.0
C1672 C 0.94811 0.16274 0.25962 0.0
C1673 C 0.91624 0.12713 0.25592 0.0
C1674 C 0.04871 0.27228 0.27376 0.0
C1675 C 0.08389 0.27472 0.26992 0.0
C1676 C 1.01482 0.23664 0.27374 0.0
C1677 C 1.01556 0.20276 0.27009 0.0
C1678 C 0.05111 0.20529 0.26711 0.0
C1679 C 0.0847 0.2407 0.26699 0.0
H1680 H 0.89929 0.84283 0.76336 0.0
H1681 H 0.77605 0.78392 0.76059 0.0
H1682 H 0.90135 0.90393 0.76319 0.0
H1683 H 0.77808 0.84581 0.76015 0.0
H1684 H 0.8002 0.96023 0.78547 0.0
H1685 H 0.79302 0.89743 0.78005 0.0
H1686 H 0.89138 0.94884 0.74779 0.0
H1687 H 0.89947 1.01184 0.75372 0.0
C1688 C 0.87255 0.84293 0.76241 0.0
C1689 C 0.83746 0.80838 0.76209 0.0
C1690 C 0.87377 0.87815 0.7622 0.0
C1691 C 0.8399 0.88004 0.76174 0.0
C1692 C 0.80473 0.84547 0.7607 0.0
C1693 C 0.80353 0.80998 0.76077 0.0
C1694 C 0.82037 0.95821 0.77723 0.0
C1695 C 0.85077 0.99137 0.77023 0.0
C1696 C 0.81589 0.92202 0.77393 0.0
C1697 C 0.84171 0.9179 0.76355 0.0
C1698 C 0.87121 0.95089 0.75602 0.0
C1699 C 0.87566 0.98708 0.75931 0.0
H1700 H 0.24771 0.10034 0.77508 0.0
H1701 H 0.30325 0.03767 0.75893 0.0
H1702 H 0.18605 0.04232 0.77382 0.0
H1703 H 0.24075 0.97904 0.7574 0.0
H1704 H 0.13083 0.87985 0.78203 0.0
H1705 H 0.19309 0.93637 0.77752 0.0
H1706 H 0.1379 0.99409 0.75606 0.0
H1707 H 0.07549 0.938 0.76114 0.0
C1708 C 0.24673 0.07419 0.77103 0.0
C1709 C 0.28055 0.07363 0.76725 0.0
C1710 C 0.21118 0.04087 0.77017 0.0
C1711 C 0.20832 1.00589 0.76555 0.0
C1712 C 0.24199 1.00547 0.76117 0.0
C1713 C 0.27776 0.03907 0.76192 0.0
C1714 C 0.13194 0.9046 0.77635 0.0
C1715 C 0.09804 0.90452 0.77218 0.0
C1716 C 0.16773 0.93686 0.77354 0.0
C1717 C 0.17059 0.96993 0.76651 0.0
C1718 C 0.13675 0.96928 0.7617 0.0
C1719 C 0.10094 0.93698 0.76448 0.0
H1720 H 0.1721 0.20494 0.75933 0.0
H1721 H 0.20182 0.27955 0.80194 0.0
H1722 H 0.11788 0.21406 0.75397 0.0
H1723 H 0.14632 0.28705 0.79707 0.0
H1724 H 0.05784 0.31604 0.77681 0.0
H1725 H 0.11719 0.31369 0.77951 0.0
H1726 H 0.05667 0.19439 0.76536 0.0
H1727 H 0.99835 0.19696 0.76227 0.0
C1728 C 0.16727 0.22344 0.76754 0.0
C1729 C 0.19147 0.24127 0.78115 0.0
C1730 C 0.13577 0.22835 0.76457 0.0
C1731 C 0.12732 0.25109 0.77515 0.0
C1732 C 0.15195 0.26957 0.78856 0.0
C1733 C 0.18356 0.26476 0.7915 0.0
C1734 C 0.0574 0.2895 0.77408 0.0
C1735 C 1.02317 0.25675 0.76932 0.0
C1736 C 0.09137 0.28802 0.77576 0.0
C1737 C 0.09192 0.25381 0.77266 0.0
C1738 C 0.05776 0.22142 0.7676 0.0
C1739 C 1.02404 0.22288 0.76594 0.0
H1740 H 0.45442 0.10071 0.6063 0.0
H1741 H 0.50894 0.2238 0.60512 0.0
H1742 H 0.51739 0.1053 0.60382 0.0
H1743 H 0.57123 0.22842 0.6029 0.0
H1744 H 0.66312 0.2207 0.57297 0.0
H1745 H 0.60134 0.21399 0.57995 0.0
H1746 H 0.58267 0.12796 0.61595 0.0
H1747 H 0.64462 0.13414 0.60865 0.0
C1748 C 0.47985 0.12868 0.60603 0.0
C1749 C 0.47669 0.16185 0.60574 0.0
C1750 C 0.51592 0.13136 0.60453 0.0
C1751 C 0.54933 0.16725 0.60276 0.0
C1752 C 0.5461 0.20032 0.60377 0.0
C1753 C 0.51034 0.19765 0.60518 0.0
C1754 C 0.64586 0.2002 0.58232 0.0
C1755 C 0.65892 0.17796 0.59022 0.0
C1756 C 0.61052 0.19662 0.58647 0.0
C1757 C 0.58706 0.17063 0.59863 0.0
C1758 C 0.59995 0.14818 0.60651 0.0
C1759 C 0.63559 0.15198 0.60243 0.0
H1760 H 0.97695 0.37244 0.60342 0.0
H1761 H 0.85529 0.31057 0.5944 0.0
H1762 H 0.97556 0.43267 0.60403 0.0
H1763 H 0.85395 0.36996 0.59472 0.0
H1764 H 0.85433 0.47888 0.60511 0.0
H1765 H 0.86015 0.42279 0.61089 0.0
H1766 H 0.96662 0.47244 0.58385 0.0
H1767 H 0.96163 0.52925 0.57866 0.0
C1768 C 0.94988 0.3716 0.60188 0.0
C1769 C 0.91631 0.33671 0.59877 0.0
C1770 C 0.94909 0.40611 0.60205 0.0
C1771 C 0.91465 0.40632 0.59933 0.0
C1772 C 0.88093 0.37111 0.59704 0.0
C1773 C 0.88177 0.33692 0.59674 0.0
C1774 C 0.87936 0.47824 0.60065 0.0
C1775 C 0.90727 0.50859 0.59124 0.0
C1776 C 0.88255 0.44583 0.60384 0.0
C1777 C 0.91372 0.44279 0.59772 0.0
C1778 C 0.94236 0.47377 0.58887 0.0
C1779 C 0.93918 0.50618 0.58567 0.0
H1780 H 0.54816 0.43404 0.61025 0.0
H1781 H 0.60819 0.40987 0.57194 0.0
H1782 H 0.60506 0.49667 0.61497 0.0
H1783 H 0.66425 0.47237 0.57631 0.0
H1784 H 0.77115 0.56788 0.59718 0.0
H1785 H 0.71352 0.50566 0.59685 0.0
H1786 H 0.64463 0.55987 0.60131 0.0
H1787 H 0.70301 0.62283 0.60191 0.0
C1788 C 0.57351 0.44197 0.6029 0.0
C1789 C 0.57355 0.41684 0.59071 0.0
C1790 C 0.60597 0.47802 0.6055 0.0
C1791 C 0.63936 0.48957 0.5961 0.0
C1792 C 0.63931 0.46431 0.58397 0.0
C1793 C 0.60694 0.42853 0.58132 0.0
C1794 C 0.74377 0.56667 0.5983 0.0
C1795 C 0.7417 0.60042 0.59937 0.0
C1796 C 0.71065 0.53089 0.59801 0.0
C1797 C 0.67434 0.52769 0.59867 0.0
C1798 C 0.67216 0.5613 0.60077 0.0
C1799 C 0.70557 0.59738 0.60114 0.0
loop_
_geom_bond_atom_site_label_1
_geom_bond_atom_site_label_2
_geom_bond_distance
_geom_bond_site_symmetry_2
_ccdc_geom_bond_type
Tb0 C9 2.764 . S
Tb0 O10 2.325 . S
Tb0 O13 2.303 . S
Tb0 O17 2.322 1_565 S
Tb0 O18 2.349 . S
Tb0 O21 2.415 . S
Tb0 O22 2.399 . S
Tb1 O11 2.322 1_545 S
Tb1 O12 2.349 . S
Tb1 O14 2.415 . S
Tb1 O15 2.399 . S
Tb1 O16 2.325 . S
Tb1 O19 2.303 . S
Tb1 C30 2.764 . S
C2 O18 1.261 1_545 S
C2 O19 1.257 . S
C3 C6 1.358 . S
C3 C7 1.332 . S
C3 C9 1.504 . S
C4 C5 1.373 . S
C4 C8 1.308 . S
C5 C4 1.373 . S
C5 C6 1.429 . S
C5 H32 0.932 . S
C6 C3 1.358 . S
C6 C5 1.429 . S
C6 H33 0.930 . S
C7 C3 1.332 . S
C7 C8 1.394 . S
C7 H34 0.932 . S
C8 C4 1.308 . S
C8 C7 1.394 . S
C8 H35 0.929 . S
C9 Tb0 2.764 . S
C9 C3 1.504 . S
C9 O21 1.239 . S
C9 O22 1.263 . S
O10 Tb0 2.325 . S
O10 C20 1.236 . S
O11 Tb1 2.322 1_565 S
O11 C20 1.257 . S
O12 Tb1 2.349 . S
O12 C23 1.264 . S
O13 Tb0 2.303 . S
O13 C23 1.258 1_565 S
O14 Tb1 2.415 . S
O14 C30 1.239 . S
O15 Tb1 2.399 . S
O15 C30 1.263 . S
O16 Tb1 2.325 . S
O16 C31 1.236 . S
O17 Tb0 2.322 1_545 S
O17 C31 1.257 . S
O18 Tb0 2.349 . S
O18 C2 1.261 1_565 S
O19 Tb1 2.303 . S
O19 C2 1.257 . S
C20 O10 1.236 . S
C20 O11 1.257 . S
O21 Tb0 2.415 . S
O21 C9 1.239 . S
O22 Tb0 2.399 . S
O22 C9 1.263 . S
C23 O12 1.264 . S
C23 O13 1.258 1_545 S
C24 C27 1.358 . S
C24 C28 1.332 . S
C24 C30 1.504 . S
C25 C26 1.373 . S
C25 C29 1.308 . S
C26 C25 1.373 . S
C26 C27 1.429 . S
C26 H36 0.932 . S
C27 C24 1.358 . S
C27 C26 1.429 . S
C27 H37 0.930 . S
C28 C24 1.332 . S
C28 C29 1.394 . S
C28 H38 0.932 . S
C29 C25 1.308 . S
C29 C28 1.394 . S
C29 H39 0.929 . S
C30 Tb1 2.764 . S
C30 O14 1.239 . S
C30 O15 1.263 . S
C30 C24 1.504 . S
C31 O16 1.236 . S
C31 O17 1.257 . S
H32 C5 0.932 . S
H33 C6 0.930 . S
H34 C7 0.932 . S
H35 C8 0.929 . S
H36 C26 0.932 . S
H37 C27 0.930 . S
H38 C28 0.932 . S
H39 C29 0.929 . S
Tb40 C49 2.764 . S
Tb40 O50 2.325 . S
Tb40 O53 2.303 . S
Tb40 O57 2.322 1_455 S
Tb40 O58 2.349 . S
Tb40 O61 2.415 . S
Tb40 O62 2.399 . S
Tb41 O51 2.322 . S
Tb41 O52 2.349 . S
Tb41 O54 2.415 1_455 S
Tb41 O55 2.399 1_455 S
Tb41 O56 2.325 1_455 S
Tb41 O59 2.303 . S
Tb41 C70 2.764 1_455 S
C42 O58 1.261 . S
C42 O59 1.257 . S
C43 C46 1.358 . S
C43 C47 1.332 . S
C43 C49 1.504 . S
C44 C45 1.373 . S
C44 C48 1.308 . S
C45 C44 1.373 . S
C45 C46 1.429 . S
C45 H72 0.932 . S
C46 C43 1.358 . S
C46 C45 1.429 . S
C46 H73 0.930 . S
C47 C43 1.332 . S
C47 C48 1.394 . S
C47 H74 0.932 . S
C48 C44 1.308 . S
C48 C47 1.394 . S
C48 H75 0.929 . S
C49 Tb40 2.764 . S
C49 C43 1.504 . S
C49 O61 1.239 . S
C49 O62 1.263 . S
O50 Tb40 2.325 . S
O50 C60 1.236 . S
O51 Tb41 2.322 . S
O51 C60 1.257 . S
O52 Tb41 2.349 . S
O52 C63 1.261 . S
O53 Tb40 2.303 . S
O53 C63 1.257 . S
O54 Tb41 2.415 1_655 S
O54 C70 1.239 . S
O55 Tb41 2.399 1_655 S
O55 C70 1.263 . S
O56 Tb41 2.325 1_655 S
O56 C71 1.236 . S
O57 Tb40 2.322 1_655 S
O57 C71 1.257 . S
O58 Tb40 2.349 . S
O58 C42 1.261 . S
O59 Tb41 2.303 . S
O59 C42 1.257 . S
C60 O50 1.236 . S
C60 O51 1.257 . S
O61 Tb40 2.415 . S
O61 C49 1.239 . S
O62 Tb40 2.399 . S
O62 C49 1.263 . S
C63 O52 1.261 . S
C63 O53 1.257 . S
C64 C67 1.358 . S
C64 C68 1.332 . S
C64 C70 1.504 . S
C65 C66 1.373 . S
C65 C69 1.308 . S
C66 C65 1.373 . S
C66 C67 1.429 . S
C66 H76 0.932 . S
C67 C64 1.358 . S
C67 C66 1.429 . S
C67 H77 0.930 . S
C68 C64 1.332 . S
C68 C69 1.394 . S
C68 H78 0.932 . S
C69 C65 1.308 . S
C69 C68 1.394 . S
C69 H79 0.929 . S
C70 Tb41 2.764 1_655 S
C70 O54 1.239 . S
C70 O55 1.263 . S
C70 C64 1.504 . S
C71 O56 1.236 . S
C71 O57 1.257 . S
H72 C45 0.932 . S
H73 C46 0.930 . S
H74 C47 0.932 . S
H75 C48 0.929 . S
H76 C66 0.932 . S
H77 C67 0.930 . S
H78 C68 0.932 . S
H79 C69 0.929 . S
Tb80 C89 2.764 . S
Tb80 O90 2.325 . S
Tb80 O93 2.303 . S
Tb80 O97 2.322 . S
Tb80 O98 2.349 . S
Tb80 O101 2.415 . S
Tb80 O102 2.399 . S
Tb81 O91 2.322 . S
Tb81 O92 2.349 . S
Tb81 O94 2.415 . S
Tb81 O95 2.399 . S
Tb81 O96 2.325 . S
Tb81 O99 2.303 . S
Tb81 C110 2.764 . S
C82 O98 1.261 . S
C82 O99 1.257 . S
C83 C86 1.358 . S
C83 C87 1.332 . S
C83 C89 1.504 . S
C84 C85 1.373 . S
C84 C88 1.308 . S
C85 C84 1.373 . S
C85 C86 1.429 . S
C85 H112 0.932 . S
C86 C83 1.358 . S
C86 C85 1.429 . S
C86 H113 0.930 . S
C87 C83 1.332 . S
C87 C88 1.394 . S
C87 H114 0.932 . S
C88 C84 1.308 . S
C88 C87 1.394 . S
C88 H115 0.929 . S
C89 Tb80 2.764 . S
C89 C83 1.504 . S
C89 O101 1.239 . S
C89 O102 1.263 . S
O90 Tb80 2.325 . S
O90 C100 1.236 . S
O91 Tb81 2.322 . S
O91 C100 1.257 . S
O92 Tb81 2.349 . S
O92 C103 1.261 . S
O93 Tb80 2.303 . S
O93 C103 1.257 . S
O94 Tb81 2.415 . S
O94 C110 1.239 . S
O95 Tb81 2.399 . S
O95 C110 1.263 . S
O96 Tb81 2.325 . S
O96 C111 1.236 . S
O97 Tb80 2.322 . S
O97 C111 1.257 . S
O98 Tb80 2.349 . S
O98 C82 1.261 . S
O99 Tb81 2.303 . S
O99 C82 1.257 . S
C100 O90 1.236 . S
C100 O91 1.257 . S
O101 Tb80 2.415 . S
O101 C89 1.239 . S
O102 Tb80 2.399 . S
O102 C89 1.263 . S
C103 O92 1.261 . S
C103 O93 1.257 . S
C104 C107 1.358 . S
C104 C108 1.332 . S
C104 C110 1.504 . S
C105 C106 1.373 . S
C105 C109 1.308 . S
C106 C105 1.373 . S
C106 C107 1.429 . S
C106 H116 0.932 . S
C107 C104 1.358 . S
C107 C106 1.429 . S
C107 H117 0.930 . S
C108 C104 1.332 . S
C108 C109 1.394 . S
C108 H118 0.932 . S
C109 C105 1.308 . S
C109 C108 1.394 . S
C109 H119 0.929 . S
C110 Tb81 2.764 . S
C110 O94 1.239 . S
C110 O95 1.263 . S
C110 C104 1.504 . S
C111 O96 1.236 . S
C111 O97 1.257 . S
H112 C85 0.932 . S
H113 C86 0.930 . S
H114 C87 0.932 . S
H115 C88 0.929 . S
H116 C106 0.932 . S
H117 C107 0.930 . S
H118 C108 0.932 . S
H119 C109 0.929 . S
Tb120 C129 2.764 . S
Tb120 O130 2.325 . S
Tb120 O133 2.303 . S
Tb120 O137 2.322 1_655 S
Tb120 O138 2.349 . S
Tb120 O141 2.415 . S
Tb120 O142 2.399 . S
Tb121 O131 2.322 1_455 S
Tb121 O132 2.349 . S
Tb121 O134 2.415 . S
Tb121 O135 2.399 . S
Tb121 O136 2.325 . S
Tb121 O139 2.303 . S
Tb121 C150 2.764 . S
C122 O138 1.261 1_455 S
C122 O139 1.257 . S
C123 C126 1.358 . S
C123 C127 1.332 . S
C123 C129 1.504 . S
C124 C125 1.373 . S
C124 C128 1.308 . S
C125 C124 1.373 . S
C125 C126 1.429 . S
C125 H152 0.932 . S
C126 C123 1.358 . S
C126 C125 1.429 . S
C126 H153 0.930 . S
C127 C123 1.332 . S
C127 C128 1.394 . S
C127 H154 0.932 . S
C128 C124 1.308 . S
C128 C127 1.394 . S
C128 H155 0.929 . S
C129 Tb120 2.764 . S
C129 C123 1.504 . S
C129 O141 1.239 . S
C129 O142 1.263 . S
O130 Tb120 2.325 . S
O130 C140 1.236 . S
O131 Tb121 2.322 1_655 S
O131 C140 1.257 . S
O132 Tb121 2.349 . S
O132 C143 1.264 . S
O133 Tb120 2.303 . S
O133 C143 1.258 1_655 S
O134 Tb121 2.415 . S
O134 C150 1.239 . S
O135 Tb121 2.399 . S
O135 C150 1.263 . S
O136 Tb121 2.325 . S
O136 C151 1.236 . S
O137 Tb120 2.322 1_455 S
O137 C151 1.257 . S
O138 Tb120 2.349 . S
O138 C122 1.261 1_655 S
O139 Tb121 2.303 . S
O139 C122 1.257 . S
C140 O130 1.236 . S
C140 O131 1.257 . S
O141 Tb120 2.415 . S
O141 C129 1.239 . S
O142 Tb120 2.399 . S
O142 C129 1.263 . S
C143 O132 1.264 . S
C143 O133 1.258 1_455 S
C144 C147 1.358 . S
C144 C148 1.332 . S
C144 C150 1.504 . S
C145 C146 1.373 . S
C145 C149 1.308 . S
C146 C145 1.373 . S
C146 C147 1.429 . S
C146 H156 0.932 . S
C147 C144 1.358 . S
C147 C146 1.429 . S
C147 H157 0.930 . S
C148 C144 1.332 . S
C148 C149 1.394 . S
C148 H158 0.932 . S
C149 C145 1.308 . S
C149 C148 1.394 . S
C149 H159 0.929 . S
C150 Tb121 2.764 . S
C150 O134 1.239 . S
C150 O135 1.263 . S
C150 C144 1.504 . S
C151 O136 1.236 . S
C151 O137 1.257 . S
H152 C125 0.932 . S
H153 C126 0.930 . S
H154 C127 0.932 . S
H155 C128 0.929 . S
H156 C146 0.932 . S
H157 C147 0.930 . S
H158 C148 0.932 . S
H159 C149 0.929 . S
Tb160 C169 2.764 . S
Tb160 O170 2.325 . S
Tb160 O173 2.303 . S
Tb160 O177 2.322 . S
Tb160 O178 2.349 . S
Tb160 O181 2.415 . S
Tb160 O182 2.399 . S
Tb161 O171 2.322 . S
Tb161 O172 2.349 . S
Tb161 O174 2.415 . S
Tb161 O175 2.399 . S
Tb161 O176 2.325 . S
Tb161 O179 2.303 . S
Tb161 C190 2.764 . S
C162 O178 1.261 . S
C162 O179 1.257 . S
C163 C166 1.358 . S
C163 C167 1.332 . S
C163 C169 1.504 . S
C164 C165 1.373 . S
C164 C168 1.308 . S
C165 C164 1.373 . S
C165 C166 1.429 . S
C165 H192 0.932 . S
C166 C163 1.358 . S
C166 C165 1.429 . S
C166 H193 0.930 . S
C167 C163 1.332 . S
C167 C168 1.394 . S
C167 H194 0.932 . S
C168 C164 1.308 . S
C168 C167 1.394 . S
C168 H195 0.929 . S
C169 Tb160 2.764 . S
C169 C163 1.504 . S
C169 O181 1.239 . S
C169 O182 1.263 . S
O170 Tb160 2.325 . S
O170 C180 1.236 . S
O171 Tb161 2.322 . S
O171 C180 1.257 . S
O172 Tb161 2.349 . S
O172 C183 1.261 . S
O173 Tb160 2.303 . S
O173 C183 1.257 . S
O174 Tb161 2.415 . S
O174 C190 1.239 . S
O175 Tb161 2.399 . S
O175 C190 1.263 . S
O176 Tb161 2.325 . S
O176 C191 1.236 . S
O177 Tb160 2.322 . S
O177 C191 1.257 . S
O178 Tb160 2.349 . S
O178 C162 1.261 . S
O179 Tb161 2.303 . S
O179 C162 1.257 . S
C180 O170 1.236 . S
C180 O171 1.257 . S
O181 Tb160 2.415 . S
O181 C169 1.239 . S
O182 Tb160 2.399 . S
O182 C169 1.263 . S
C183 O172 1.261 . S
C183 O173 1.257 . S
C184 C187 1.358 . S
C184 C188 1.332 . S
C184 C190 1.504 . S
C185 C186 1.373 . S
C185 C189 1.308 . S
C186 C185 1.373 . S
C186 C187 1.429 . S
C186 H196 0.932 . S
C187 C184 1.358 . S
C187 C186 1.429 . S
C187 H197 0.930 . S
C188 C184 1.332 . S
C188 C189 1.394 . S
C188 H198 0.932 . S
C189 C185 1.308 . S
C189 C188 1.394 . S
C189 H199 0.929 . S
C190 Tb161 2.764 . S
C190 O174 1.239 . S
C190 O175 1.263 . S
C190 C184 1.504 . S
C191 O176 1.236 . S
C191 O177 1.257 . S
H192 C165 0.932 . S
H193 C166 0.930 . S
H194 C167 0.932 . S
H195 C168 0.929 . S
H196 C186 0.932 . S
H197 C187 0.930 . S
H198 C188 0.932 . S
H199 C189 0.929 . S
Tb200 C209 2.764 . S
Tb200 O210 2.325 . S
Tb200 O213 2.303 . S
Tb200 O217 2.322 1_545 S
Tb200 O218 2.349 . S
Tb200 O221 2.415 . S
Tb200 O222 2.399 . S
Tb201 O211 2.322 . S
Tb201 O212 2.349 . S
Tb201 O214 2.415 1_545 S
Tb201 O215 2.399 1_545 S
Tb201 O216 2.325 1_545 S
Tb201 O219 2.303 . S
Tb201 C230 2.764 1_545 S
C202 O218 1.261 . S
C202 O219 1.257 . S
C203 C206 1.358 . S
C203 C207 1.332 . S
C203 C209 1.504 . S
C204 C205 1.373 . S
C204 C208 1.308 . S
C205 C204 1.373 . S
C205 C206 1.429 . S
C205 H232 0.932 . S
C206 C203 1.358 . S
C206 C205 1.429 . S
C206 H233 0.930 . S
C207 C203 1.332 . S
C207 C208 1.394 . S
C207 H234 0.932 . S
C208 C204 1.308 . S
C208 C207 1.394 . S
C208 H235 0.929 . S
C209 Tb200 2.764 . S
C209 C203 1.504 . S
C209 O221 1.239 . S
C209 O222 1.263 . S
O210 Tb200 2.325 . S
O210 C220 1.236 . S
O211 Tb201 2.322 . S
O211 C220 1.257 . S
O212 Tb201 2.349 . S
O212 C223 1.261 . S
O213 Tb200 2.303 . S
O213 C223 1.257 . S
O214 Tb201 2.415 1_565 S
O214 C230 1.239 . S
O215 Tb201 2.399 1_565 S
O215 C230 1.263 . S
O216 Tb201 2.325 1_565 S
O216 C231 1.236 . S
O217 Tb200 2.322 1_565 S
O217 C231 1.257 . S
O218 Tb200 2.349 . S
O218 C202 1.261 . S
O219 Tb201 2.303 . S
O219 C202 1.257 . S
C220 O210 1.236 . S
C220 O211 1.257 . S
O221 Tb200 2.415 . S
O221 C209 1.239 . S
O222 Tb200 2.399 . S
O222 C209 1.263 . S
C223 O212 1.261 . S
C223 O213 1.257 . S
C224 C227 1.358 . S
C224 C228 1.332 . S
C224 C230 1.504 . S
C225 C226 1.373 . S
C225 C229 1.308 . S
C226 C225 1.373 . S
C226 C227 1.429 . S
C226 H236 0.932 . S
C227 C224 1.358 . S
C227 C226 1.429 . S
C227 H237 0.930 . S
C228 C224 1.332 . S
C228 C229 1.394 . S
C228 H238 0.932 . S
C229 C225 1.308 . S
C229 C228 1.394 . S
C229 H239 0.929 . S
C230 Tb201 2.764 1_565 S
C230 O214 1.239 . S
C230 O215 1.263 . S
C230 C224 1.504 . S
C231 O216 1.236 . S
C231 O217 1.257 . S
H232 C205 0.932 . S
H233 C206 0.930 . S
H234 C207 0.932 . S
H235 C208 0.929 . S
H236 C226 0.932 . S
H237 C227 0.930 . S
H238 C228 0.932 . S
H239 C229 0.929 . S
Tb240 C249 2.764 . S
Tb240 O250 2.325 . S
Tb240 O253 2.303 . S
Tb240 O257 2.322 . S
Tb240 O258 2.349 . S
Tb240 O261 2.415 . S
Tb240 O262 2.399 . S
Tb241 O251 2.322 . S
Tb241 O252 2.349 . S
Tb241 O254 2.415 . S
Tb241 O255 2.399 . S
Tb241 O256 2.325 . S
Tb241 O259 2.303 . S
Tb241 C270 2.764 . S
C242 O258 1.261 . S
C242 O259 1.257 . S
C243 C246 1.358 1_455 S
C243 C247 1.332 . S
C243 C249 1.504 . S
C244 C245 1.373 . S
C244 C248 1.308 . S
C245 C244 1.373 . S
C245 C246 1.429 . S
C245 H272 0.932 . S
C246 C243 1.358 1_655 S
C246 C245 1.429 . S
C246 H273 0.929 1_655 S
C247 C243 1.332 . S
C247 C248 1.391 1_455 S
C247 H274 0.935 . S
C248 C244 1.308 . S
C248 C247 1.391 1_655 S
C248 H275 0.929 . S
C249 Tb240 2.764 . S
C249 C243 1.504 . S
C249 O261 1.239 . S
C249 O262 1.263 . S
O250 Tb240 2.325 . S
O250 C260 1.236 . S
O251 Tb241 2.322 . S
O251 C260 1.257 . S
O252 Tb241 2.349 . S
O252 C263 1.261 . S
O253 Tb240 2.303 . S
O253 C263 1.257 . S
O254 Tb241 2.415 . S
O254 C270 1.239 . S
O255 Tb241 2.399 . S
O255 C270 1.263 . S
O256 Tb241 2.325 . S
O256 C271 1.236 . S
O257 Tb240 2.322 . S
O257 C271 1.257 . S
O258 Tb240 2.349 . S
O258 C242 1.261 . S
O259 Tb241 2.303 . S
O259 C242 1.257 . S
C260 O250 1.236 . S
C260 O251 1.257 . S
O261 Tb240 2.415 . S
O261 C249 1.239 . S
O262 Tb240 2.399 . S
O262 C249 1.263 . S
C263 O252 1.261 . S
C263 O253 1.257 . S
C264 C267 1.358 . S
C264 C268 1.332 . S
C264 C270 1.504 . S
C265 C266 1.373 . S
C265 C269 1.308 . S
C266 C265 1.373 . S
C266 C267 1.429 . S
C266 H276 0.932 . S
C267 C264 1.358 . S
C267 C266 1.429 . S
C267 H277 0.930 . S
C268 C264 1.332 . S
C268 C269 1.394 . S
C268 H278 0.932 . S
C269 C265 1.308 . S
C269 C268 1.394 . S
C269 H279 0.929 . S
C270 Tb241 2.764 . S
C270 O254 1.239 . S
C270 O255 1.263 . S
C270 C264 1.504 . S
C271 O256 1.236 . S
C271 O257 1.257 . S
H272 C245 0.932 . S
H273 C246 0.929 1_455 S
H274 C247 0.935 . S
H275 C248 0.929 . S
H276 C266 0.932 . S
H277 C267 0.930 . S
H278 C268 0.932 . S
H279 C269 0.929 . S
Tb280 C289 2.764 . S
Tb280 O290 2.325 . S
Tb280 O293 2.303 . S
Tb280 O297 2.322 . S
Tb280 O298 2.349 . S
Tb280 O301 2.415 . S
Tb280 O302 2.399 . S
Tb281 O291 2.322 . S
Tb281 O292 2.349 . S
Tb281 O294 2.415 . S
Tb281 O295 2.399 . S
Tb281 O296 2.325 . S
Tb281 O299 2.303 . S
Tb281 C310 2.764 . S
C282 O298 1.261 . S
C282 O299 1.257 . S
C283 C286 1.358 . S
C283 C287 1.332 . S
C283 C289 1.504 . S
C284 C285 1.373 . S
C284 C288 1.308 . S
C285 C284 1.373 . S
C285 C286 1.429 . S
C285 H312 0.932 . S
C286 C283 1.358 . S
C286 C285 1.429 . S
C286 H313 0.930 . S
C287 C283 1.332 . S
C287 C288 1.394 . S
C287 H314 0.932 . S
C288 C284 1.308 . S
C288 C287 1.394 . S
C288 H315 0.929 . S
C289 Tb280 2.764 . S
C289 C283 1.504 . S
C289 O301 1.239 . S
C289 O302 1.263 . S
O290 Tb280 2.325 . S
O290 C300 1.236 . S
O291 Tb281 2.322 . S
O291 C300 1.257 . S
O292 Tb281 2.349 . S
O292 C303 1.261 . S
O293 Tb280 2.303 . S
O293 C303 1.257 . S
O294 Tb281 2.415 . S
O294 C310 1.239 . S
O295 Tb281 2.399 . S
O295 C310 1.263 . S
O296 Tb281 2.325 . S
O296 C311 1.236 . S
O297 Tb280 2.322 . S
O297 C311 1.257 . S
O298 Tb280 2.349 . S
O298 C282 1.261 . S
O299 Tb281 2.303 . S
O299 C282 1.257 . S
C300 O290 1.236 . S
C300 O291 1.257 . S
O301 Tb280 2.415 . S
O301 C289 1.239 . S
O302 Tb280 2.399 . S
O302 C289 1.263 . S
C303 O292 1.261 . S
C303 O293 1.257 . S
C304 C307 1.358 . S
C304 C308 1.332 . S
C304 C310 1.504 . S
C305 C306 1.373 . S
C305 C309 1.308 . S
C306 C305 1.373 . S
C306 C307 1.429 . S
C306 H316 0.932 . S
C307 C304 1.358 . S
C307 C306 1.429 . S
C307 H317 0.930 . S
C308 C304 1.332 . S
C308 C309 1.394 . S
C308 H318 0.932 . S
C309 C305 1.308 . S
C309 C308 1.394 . S
C309 H319 0.929 . S
C310 Tb281 2.764 . S
C310 O294 1.239 . S
C310 O295 1.263 . S
C310 C304 1.504 . S
C311 O296 1.236 . S
C311 O297 1.257 . S
H312 C285 0.932 . S
H313 C286 0.930 . S
H314 C287 0.932 . S
H315 C288 0.929 . S
H316 C306 0.932 . S
H317 C307 0.930 . S
H318 C308 0.932 . S
H319 C309 0.929 . S
Tb320 C329 2.764 . S
Tb320 O330 2.325 . S
Tb320 O333 2.303 . S
Tb320 O337 2.322 . S
Tb320 O338 2.349 . S
Tb320 O341 2.415 . S
Tb320 O342 2.399 . S
Tb321 O331 2.322 . S
Tb321 O332 2.349 . S
Tb321 O334 2.415 . S
Tb321 O335 2.399 . S
Tb321 O336 2.325 . S
Tb321 O339 2.303 . S
Tb321 C350 2.764 . S
C322 O338 1.261 . S
C322 O339 1.257 . S
C323 C326 1.358 . S
C323 C327 1.332 . S
C323 C329 1.504 1_545 S
C324 C325 1.373 . S
C324 C328 1.308 . S
C325 C324 1.373 . S
C325 C326 1.429 . S
C325 H352 0.932 . S
C326 C323 1.358 . S
C326 C325 1.429 . S
C326 H353 0.930 . S
C327 C323 1.332 . S
C327 C328 1.394 . S
C327 H354 0.932 . S
C328 C324 1.308 . S
C328 C327 1.394 . S
C328 H355 0.929 . S
C329 Tb320 2.764 . S
C329 C323 1.504 1_565 S
C329 O341 1.239 . S
C329 O342 1.263 . S
O330 Tb320 2.325 . S
O330 C340 1.236 . S
O331 Tb321 2.322 . S
O331 C340 1.257 . S
O332 Tb321 2.349 . S
O332 C343 1.261 . S
O333 Tb320 2.303 . S
O333 C343 1.257 . S
O334 Tb321 2.415 . S
O334 C350 1.239 . S
O335 Tb321 2.399 . S
O335 C350 1.263 . S
O336 Tb321 2.325 . S
O336 C351 1.236 . S
O337 Tb320 2.322 . S
O337 C351 1.257 . S
O338 Tb320 2.349 . S
O338 C322 1.261 . S
O339 Tb321 2.303 . S
O339 C322 1.257 . S
C340 O330 1.236 . S
C340 O331 1.257 . S
O341 Tb320 2.415 . S
O341 C329 1.239 . S
O342 Tb320 2.399 . S
O342 C329 1.263 . S
C343 O332 1.261 . S
C343 O333 1.257 . S
C344 C347 1.358 . S
C344 C348 1.332 . S
C344 C350 1.504 . S
C345 C346 1.373 . S
C345 C349 1.308 . S
C346 C345 1.373 . S
C346 C347 1.429 . S
C346 H356 0.932 . S
C347 C344 1.358 . S
C347 C346 1.429 . S
C347 H357 0.930 . S
C348 C344 1.332 . S
C348 C349 1.394 . S
C348 H358 0.932 . S
C349 C345 1.308 . S
C349 C348 1.394 . S
C349 H359 0.929 . S
C350 Tb321 2.764 . S
C350 O334 1.239 . S
C350 O335 1.263 . S
C350 C344 1.504 . S
C351 O336 1.236 . S
C351 O337 1.257 . S
H352 C325 0.932 . S
H353 C326 0.930 . S
H354 C327 0.932 . S
H355 C328 0.929 . S
H356 C346 0.932 . S
H357 C347 0.930 . S
H358 C348 0.932 . S
H359 C349 0.929 . S
Tb360 C369 2.764 . S
Tb360 O370 2.325 . S
Tb360 O373 2.303 . S
Tb360 O377 2.322 . S
Tb360 O378 2.349 . S
Tb360 O381 2.415 . S
Tb360 O382 2.399 . S
Tb361 O371 2.322 . S
Tb361 O372 2.349 . S
Tb361 O374 2.415 . S
Tb361 O375 2.399 . S
Tb361 O376 2.325 . S
Tb361 O379 2.303 . S
Tb361 C390 2.764 . S
C362 O378 1.261 . S
C362 O379 1.257 . S
C363 C366 1.358 . S
C363 C367 1.332 . S
C363 C369 1.504 . S
C364 C365 1.373 . S
C364 C368 1.308 . S
C365 C364 1.373 . S
C365 C366 1.429 . S
C365 H392 0.932 . S
C366 C363 1.358 . S
C366 C365 1.429 . S
C366 H393 0.930 . S
C367 C363 1.332 . S
C367 C368 1.394 . S
C367 H394 0.932 . S
C368 C364 1.308 . S
C368 C367 1.394 . S
C368 H395 0.929 . S
C369 Tb360 2.764 . S
C369 C363 1.504 . S
C369 O381 1.239 . S
C369 O382 1.263 . S
O370 Tb360 2.325 . S
O370 C380 1.236 . S
O371 Tb361 2.322 . S
O371 C380 1.257 . S
O372 Tb361 2.349 . S
O372 C383 1.261 . S
O373 Tb360 2.303 . S
O373 C383 1.257 . S
O374 Tb361 2.415 . S
O374 C390 1.239 . S
O375 Tb361 2.399 . S
O375 C390 1.263 . S
O376 Tb361 2.325 . S
O376 C391 1.236 . S
O377 Tb360 2.322 . S
O377 C391 1.257 . S
O378 Tb360 2.349 . S
O378 C362 1.261 . S
O379 Tb361 2.303 . S
O379 C362 1.257 . S
C380 O370 1.236 . S
C380 O371 1.257 . S
O381 Tb360 2.415 . S
O381 C369 1.239 . S
O382 Tb360 2.399 . S
O382 C369 1.263 . S
C383 O372 1.261 . S
C383 O373 1.257 . S
C384 C387 1.358 . S
C384 C388 1.332 . S
C384 C390 1.504 . S
C385 C386 1.373 . S
C385 C389 1.308 . S
C386 C385 1.373 . S
C386 C387 1.429 1_545 S
C386 H396 0.932 . S
C387 C384 1.358 . S
C387 C386 1.429 1_565 S
C387 H397 0.930 . S
C388 C384 1.332 . S
C388 C389 1.394 1_565 S
C388 H398 0.932 . S
C389 C385 1.308 . S
C389 C388 1.394 1_545 S
C389 H399 0.929 . S
C390 Tb361 2.764 . S
C390 O374 1.239 . S
C390 O375 1.263 . S
C390 C384 1.504 . S
C391 O376 1.236 . S
C391 O377 1.257 . S
H392 C365 0.932 . S
H393 C366 0.930 . S
H394 C367 0.932 . S
H395 C368 0.929 . S
H396 C386 0.932 . S
H397 C387 0.930 . S
H398 C388 0.932 . S
H399 C389 0.929 . S
Tb400 C409 2.764 . S
Tb400 O410 2.325 . S
Tb400 O413 2.303 . S
Tb400 O417 2.322 . S
Tb400 O418 2.349 . S
Tb400 O421 2.415 . S
Tb400 O422 2.399 . S
Tb401 O411 2.322 . S
Tb401 O412 2.349 . S
Tb401 O414 2.415 . S
Tb401 O415 2.399 . S
Tb401 O416 2.325 . S
Tb401 O419 2.303 . S
Tb401 C430 2.764 . S
C402 O418 1.261 . S
C402 O419 1.257 . S
C403 C406 1.358 . S
C403 C407 1.332 . S
C403 C409 1.504 . S
C404 C405 1.373 . S
C404 C408 1.308 . S
C405 C404 1.373 . S
C405 C406 1.429 . S
C405 H432 0.932 . S
C406 C403 1.358 . S
C406 C405 1.429 . S
C406 H433 0.930 . S
C407 C403 1.332 . S
C407 C408 1.394 . S
C407 H434 0.932 . S
C408 C404 1.308 . S
C408 C407 1.394 . S
C408 H435 0.929 . S
C409 Tb400 2.764 . S
C409 C403 1.504 . S
C409 O421 1.239 . S
C409 O422 1.263 . S
O410 Tb400 2.325 . S
O410 C420 1.236 . S
O411 Tb401 2.322 . S
O411 C420 1.257 . S
O412 Tb401 2.349 . S
O412 C423 1.261 . S
O413 Tb400 2.303 . S
O413 C423 1.257 . S
O414 Tb401 2.415 . S
O414 C430 1.239 . S
O415 Tb401 2.399 . S
O415 C430 1.263 . S
O416 Tb401 2.325 . S
O416 C431 1.236 . S
O417 Tb400 2.322 . S
O417 C431 1.257 . S
O418 Tb400 2.349 . S
O418 C402 1.261 . S
O419 Tb401 2.303 . S
O419 C402 1.257 . S
C420 O410 1.236 . S
C420 O411 1.257 . S
O421 Tb400 2.415 . S
O421 C409 1.239 . S
O422 Tb400 2.399 . S
O422 C409 1.263 . S
C423 O412 1.261 . S
C423 O413 1.257 . S
C424 C427 1.358 . S
C424 C428 1.332 . S
C424 C430 1.504 . S
C425 C426 1.373 . S
C425 C429 1.308 . S
C426 C425 1.373 . S
C426 C427 1.429 . S
C426 H436 0.932 . S
C427 C424 1.358 . S
C427 C426 1.429 . S
C427 H437 0.930 . S
C428 C424 1.332 . S
C428 C429 1.394 . S
C428 H438 0.932 . S
C429 C425 1.308 . S
C429 C428 1.394 . S
C429 H439 0.929 . S
C430 Tb401 2.764 . S
C430 O414 1.239 . S
C430 O415 1.263 . S
C430 C424 1.504 . S
C431 O416 1.236 . S
C431 O417 1.257 . S
H432 C405 0.932 . S
H433 C406 0.930 . S
H434 C407 0.932 . S
H435 C408 0.929 . S
H436 C426 0.932 . S
H437 C427 0.930 . S
H438 C428 0.932 . S
H439 C429 0.929 . S
Tb440 C449 2.764 . S
Tb440 O450 2.325 . S
Tb440 O453 2.303 . S
Tb440 O457 2.322 . S
Tb440 O458 2.349 . S
Tb440 O461 2.415 . S
Tb440 O462 2.399 . S
Tb441 O451 2.322 . S
Tb441 O452 2.349 . S
Tb441 O454 2.415 . S
Tb441 O455 2.399 . S
Tb441 O456 2.325 . S
Tb441 O459 2.303 . S
Tb441 C470 2.764 . S
C442 O458 1.261 . S
C442 O459 1.257 . S
C443 C446 1.358 . S
C443 C447 1.332 . S
C443 C449 1.504 . S
C444 C445 1.373 . S
C444 C448 1.308 . S
C445 C444 1.373 . S
C445 C446 1.429 . S
C445 H472 0.932 . S
C446 C443 1.358 . S
C446 C445 1.429 . S
C446 H473 0.930 . S
C447 C443 1.332 . S
C447 C448 1.394 . S
C447 H474 0.932 . S
C448 C444 1.308 . S
C448 C447 1.394 . S
C448 H475 0.929 . S
C449 Tb440 2.764 . S
C449 C443 1.504 . S
C449 O461 1.239 . S
C449 O462 1.263 . S
O450 Tb440 2.325 . S
O450 C460 1.236 . S
O451 Tb441 2.322 . S
O451 C460 1.257 . S
O452 Tb441 2.349 . S
O452 C463 1.261 . S
O453 Tb440 2.303 . S
O453 C463 1.257 . S
O454 Tb441 2.415 . S
O454 C470 1.239 . S
O455 Tb441 2.399 . S
O455 C470 1.263 . S
O456 Tb441 2.325 . S
O456 C471 1.236 . S
O457 Tb440 2.322 . S
O457 C471 1.257 . S
O458 Tb440 2.349 . S
O458 C442 1.261 . S
O459 Tb441 2.303 . S
O459 C442 1.257 . S
C460 O450 1.236 . S
C460 O451 1.257 . S
O461 Tb440 2.415 . S
O461 C449 1.239 . S
O462 Tb440 2.399 . S
O462 C449 1.263 . S
C463 O452 1.261 . S
C463 O453 1.257 . S
C464 C467 1.358 . S
C464 C468 1.332 . S
C464 C470 1.504 . S
C465 C466 1.373 . S
C465 C469 1.308 . S
C466 C465 1.373 . S
C466 C467 1.429 . S
C466 H476 0.932 . S
C467 C464 1.358 . S
C467 C466 1.429 . S
C467 H477 0.930 . S
C468 C464 1.332 . S
C468 C469 1.394 . S
C468 H478 0.932 . S
C469 C465 1.308 . S
C469 C468 1.394 . S
C469 H479 0.929 . S
C470 Tb441 2.764 . S
C470 O454 1.239 . S
C470 O455 1.263 . S
C470 C464 1.504 . S
C471 O456 1.236 . S
C471 O457 1.257 . S
H472 C445 0.932 . S
H473 C446 0.930 . S
H474 C447 0.932 . S
H475 C448 0.929 . S
H476 C466 0.932 . S
H477 C467 0.930 . S
H478 C468 0.932 . S
H479 C469 0.929 . S
Tb480 C489 2.764 . S
Tb480 O490 2.325 . S
Tb480 O493 2.303 . S
Tb480 O497 2.322 . S
Tb480 O498 2.349 . S
Tb480 O501 2.415 . S
Tb480 O502 2.399 . S
Tb481 O491 2.322 . S
Tb481 O492 2.349 . S
Tb481 O494 2.415 . S
Tb481 O495 2.399 . S
Tb481 O496 2.325 . S
Tb481 O499 2.303 . S
Tb481 C510 2.764 . S
C482 O498 1.261 . S
C482 O499 1.257 . S
C483 C486 1.358 . S
C483 C487 1.332 . S
C483 C489 1.504 . S
C484 C485 1.373 . S
C484 C488 1.308 . S
C485 C484 1.373 . S
C485 C486 1.429 . S
C485 H512 0.932 . S
C486 C483 1.358 . S
C486 C485 1.429 . S
C486 H513 0.930 . S
C487 C483 1.332 . S
C487 C488 1.394 . S
C487 H514 0.932 . S
C488 C484 1.308 . S
C488 C487 1.394 . S
C488 H515 0.929 . S
C489 Tb480 2.764 . S
C489 C483 1.504 . S
C489 O501 1.239 . S
C489 O502 1.263 . S
O490 Tb480 2.325 . S
O490 C500 1.236 . S
O491 Tb481 2.322 . S
O491 C500 1.257 . S
O492 Tb481 2.349 . S
O492 C503 1.261 . S
O493 Tb480 2.303 . S
O493 C503 1.257 . S
O494 Tb481 2.415 . S
O494 C510 1.239 . S
O495 Tb481 2.399 . S
O495 C510 1.263 . S
O496 Tb481 2.325 . S
O496 C511 1.236 . S
O497 Tb480 2.322 . S
O497 C511 1.257 . S
O498 Tb480 2.349 . S
O498 C482 1.261 . S
O499 Tb481 2.303 . S
O499 C482 1.257 . S
C500 O490 1.236 . S
C500 O491 1.257 . S
O501 Tb480 2.415 . S
O501 C489 1.239 . S
O502 Tb480 2.399 . S
O502 C489 1.263 . S
C503 O492 1.261 . S
C503 O493 1.257 . S
C504 C507 1.358 . S
C504 C508 1.332 . S
C504 C510 1.504 . S
C505 C506 1.373 . S
C505 C509 1.308 . S
C506 C505 1.373 . S
C506 C507 1.429 1_455 S
C506 H516 0.932 . S
C507 C504 1.358 . S
C507 C506 1.429 1_655 S
C507 H517 0.930 . S
C508 C504 1.332 . S
C508 C509 1.394 1_655 S
C508 H518 0.932 . S
C509 C505 1.308 . S
C509 C508 1.394 1_455 S
C509 H519 0.929 . S
C510 Tb481 2.764 . S
C510 O494 1.239 . S
C510 O495 1.263 . S
C510 C504 1.504 . S
C511 O496 1.236 . S
C511 O497 1.257 . S
H512 C485 0.932 . S
H513 C486 0.930 . S
H514 C487 0.932 . S
H515 C488 0.929 . S
H516 C506 0.932 . S
H517 C507 0.930 . S
H518 C508 0.932 . S
H519 C509 0.929 . S
Tb520 C529 2.764 . S
Tb520 O530 2.325 . S
Tb520 O533 2.303 . S
Tb520 O537 2.322 . S
Tb520 O538 2.349 . S
Tb520 O541 2.415 . S
Tb520 O542 2.399 . S
Tb521 O531 2.322 . S
Tb521 O532 2.349 . S
Tb521 O534 2.415 . S
Tb521 O535 2.399 . S
Tb521 O536 2.325 . S
Tb521 O539 2.303 . S
Tb521 C550 2.764 . S
C522 O538 1.261 . S
C522 O539 1.257 . S
C523 C526 1.358 . S
C523 C527 1.332 . S
C523 C529 1.504 . S
C524 C525 1.373 . S
C524 C528 1.308 . S
C525 C524 1.373 . S
C525 C526 1.429 . S
C525 H552 0.932 . S
C526 C523 1.358 . S
C526 C525 1.429 . S
C526 H553 0.930 . S
C527 C523 1.332 . S
C527 C528 1.394 . S
C527 H554 0.932 . S
C528 C524 1.308 . S
C528 C527 1.394 . S
C528 H555 0.929 . S
C529 Tb520 2.764 . S
C529 C523 1.504 . S
C529 O541 1.239 . S
C529 O542 1.263 . S
O530 Tb520 2.325 . S
O530 C540 1.236 . S
O531 Tb521 2.322 . S
O531 C540 1.257 . S
O532 Tb521 2.349 . S
O532 C543 1.261 . S
O533 Tb520 2.303 . S
O533 C543 1.257 . S
O534 Tb521 2.415 . S
O534 C550 1.239 . S
O535 Tb521 2.399 . S
O535 C550 1.263 . S
O536 Tb521 2.325 . S
O536 C551 1.236 . S
O537 Tb520 2.322 . S
O537 C551 1.257 . S
O538 Tb520 2.349 . S
O538 C522 1.261 . S
O539 Tb521 2.303 . S
O539 C522 1.257 . S
C540 O530 1.236 . S
C540 O531 1.257 . S
O541 Tb520 2.415 . S
O541 C529 1.239 . S
O542 Tb520 2.399 . S
O542 C529 1.263 . S
C543 O532 1.261 . S
C543 O533 1.257 . S
C544 C547 1.358 . S
C544 C548 1.332 . S
C544 C550 1.504 . S
C545 C546 1.373 . S
C545 C549 1.308 . S
C546 C545 1.373 . S
C546 C547 1.429 . S
C546 H556 0.932 . S
C547 C544 1.358 . S
C547 C546 1.429 . S
C547 H557 0.930 . S
C548 C544 1.332 . S
C548 C549 1.394 . S
C548 H558 0.932 . S
C549 C545 1.308 . S
C549 C548 1.394 . S
C549 H559 0.929 . S
C550 Tb521 2.764 . S
C550 O534 1.239 . S
C550 O535 1.263 . S
C550 C544 1.504 . S
C551 O536 1.236 . S
C551 O537 1.257 . S
H552 C525 0.932 . S
H553 C526 0.930 . S
H554 C527 0.932 . S
H555 C528 0.929 . S
H556 C546 0.932 . S
H557 C547 0.930 . S
H558 C548 0.932 . S
H559 C549 0.929 . S
Tb560 C569 2.764 . S
Tb560 O570 2.325 . S
Tb560 O573 2.303 . S
Tb560 O577 2.322 . S
Tb560 O578 2.349 . S
Tb560 O581 2.415 . S
Tb560 O582 2.399 . S
Tb561 O571 2.322 . S
Tb561 O572 2.349 . S
Tb561 O574 2.415 . S
Tb561 O575 2.399 . S
Tb561 O576 2.325 . S
Tb561 O579 2.303 . S
Tb561 C590 2.764 . S
C562 O578 1.261 . S
C562 O579 1.257 . S
C563 C566 1.358 . S
C563 C567 1.332 . S
C563 C569 1.504 . S
C564 C565 1.373 . S
C564 C568 1.308 . S
C565 C564 1.373 . S
C565 C566 1.429 . S
C565 H592 0.932 . S
C566 C563 1.358 . S
C566 C565 1.429 . S
C566 H593 0.930 . S
C567 C563 1.332 . S
C567 C568 1.394 . S
C567 H594 0.932 . S
C568 C564 1.308 . S
C568 C567 1.394 . S
C568 H595 0.929 . S
C569 Tb560 2.764 . S
C569 C563 1.504 . S
C569 O581 1.239 . S
C569 O582 1.263 . S
O570 Tb560 2.325 . S
O570 C580 1.236 . S
O571 Tb561 2.322 . S
O571 C580 1.257 . S
O572 Tb561 2.349 . S
O572 C583 1.261 . S
O573 Tb560 2.303 . S
O573 C583 1.257 . S
O574 Tb561 2.415 . S
O574 C590 1.239 . S
O575 Tb561 2.399 . S
O575 C590 1.263 . S
O576 Tb561 2.325 . S
O576 C591 1.236 . S
O577 Tb560 2.322 . S
O577 C591 1.257 . S
O578 Tb560 2.349 . S
O578 C562 1.261 . S
O579 Tb561 2.303 . S
O579 C562 1.257 . S
C580 O570 1.236 . S
C580 O571 1.257 . S
O581 Tb560 2.415 . S
O581 C569 1.239 . S
O582 Tb560 2.399 . S
O582 C569 1.263 . S
C583 O572 1.261 . S
C583 O573 1.257 . S
C584 C587 1.358 . S
C584 C588 1.332 . S
C584 C590 1.504 . S
C585 C586 1.373 . S
C585 C589 1.308 . S
C586 C585 1.373 . S
C586 C587 1.429 . S
C586 H596 0.932 . S
C587 C584 1.358 . S
C587 C586 1.429 . S
C587 H597 0.930 . S
C588 C584 1.332 . S
C588 C589 1.394 . S
C588 H598 0.932 . S
C589 C585 1.308 . S
C589 C588 1.394 . S
C589 H599 0.929 . S
C590 Tb561 2.764 . S
C590 O574 1.239 . S
C590 O575 1.263 . S
C590 C584 1.504 . S
C591 O576 1.236 . S
C591 O577 1.257 . S
H592 C565 0.932 . S
H593 C566 0.930 . S
H594 C567 0.932 . S
H595 C568 0.929 . S
H596 C586 0.932 . S
H597 C587 0.930 . S
H598 C588 0.932 . S
H599 C589 0.929 . S
Tb600 C609 2.764 . S
Tb600 O610 2.325 . S
Tb600 O613 2.303 . S
Tb600 O617 2.322 . S
Tb600 O618 2.349 . S
Tb600 O621 2.415 . S
Tb600 O622 2.399 . S
Tb601 O611 2.322 . S
Tb601 O612 2.349 . S
Tb601 O614 2.415 . S
Tb601 O615 2.399 . S
Tb601 O616 2.325 . S
Tb601 O619 2.303 . S
Tb601 C630 2.764 . S
C602 O618 1.261 . S
C602 O619 1.257 . S
C603 C606 1.358 1_545 S
C603 C607 1.332 . S
C603 C609 1.504 . S
C604 C605 1.373 . S
C604 C608 1.308 . S
C605 C604 1.373 . S
C605 C606 1.429 . S
C605 H632 0.932 . S
C606 C603 1.358 1_565 S
C606 C605 1.429 . S
C606 H633 0.929 1_565 S
C607 C603 1.332 . S
C607 C608 1.391 1_545 S
C607 H634 0.935 . S
C608 C604 1.308 . S
C608 C607 1.391 1_565 S
C608 H635 0.929 . S
C609 Tb600 2.764 . S
C609 C603 1.504 . S
C609 O621 1.239 . S
C609 O622 1.263 . S
O610 Tb600 2.325 . S
O610 C620 1.236 . S
O611 Tb601 2.322 . S
O611 C620 1.257 . S
O612 Tb601 2.349 . S
O612 C623 1.261 . S
O613 Tb600 2.303 . S
O613 C623 1.257 . S
O614 Tb601 2.415 . S
O614 C630 1.239 . S
O615 Tb601 2.399 . S
O615 C630 1.263 . S
O616 Tb601 2.325 . S
O616 C631 1.236 . S
O617 Tb600 2.322 . S
O617 C631 1.257 . S
O618 Tb600 2.349 . S
O618 C602 1.261 . S
O619 Tb601 2.303 . S
O619 C602 1.257 . S
C620 O610 1.236 . S
C620 O611 1.257 . S
O621 Tb600 2.415 . S
O621 C609 1.239 . S
O622 Tb600 2.399 . S
O622 C609 1.263 . S
C623 O612 1.261 . S
C623 O613 1.257 . S
C624 C627 1.358 . S
C624 C628 1.332 . S
C624 C630 1.504 . S
C625 C626 1.373 . S
C625 C629 1.308 . S
C626 C625 1.373 . S
C626 C627 1.429 . S
C626 H636 0.932 . S
C627 C624 1.358 . S
C627 C626 1.429 . S
C627 H637 0.930 . S
C628 C624 1.332 . S
C628 C629 1.394 . S
C628 H638 0.932 . S
C629 C625 1.308 . S
C629 C628 1.394 . S
C629 H639 0.929 . S
C630 Tb601 2.764 . S
C630 O614 1.239 . S
C630 O615 1.263 . S
C630 C624 1.504 . S
C631 O616 1.236 . S
C631 O617 1.257 . S
H632 C605 0.932 . S
H633 C606 0.929 1_545 S
H634 C607 0.935 . S
H635 C608 0.929 . S
H636 C626 0.932 . S
H637 C627 0.930 . S
H638 C628 0.932 . S
H639 C629 0.929 . S
Tb640 C649 2.764 . S
Tb640 O650 2.325 . S
Tb640 O653 2.303 . S
Tb640 O657 2.322 . S
Tb640 O658 2.349 . S
Tb640 O661 2.415 . S
Tb640 O662 2.399 . S
Tb641 O651 2.322 . S
Tb641 O652 2.349 . S
Tb641 O654 2.415 . S
Tb641 O655 2.399 . S
Tb641 O656 2.325 . S
Tb641 O659 2.303 . S
Tb641 C670 2.764 . S
C642 O658 1.261 . S
C642 O659 1.257 . S
C643 C646 1.358 . S
C643 C647 1.332 . S
C643 C649 1.504 1_455 S
C644 C645 1.373 . S
C644 C648 1.308 . S
C645 C644 1.373 . S
C645 C646 1.429 . S
C645 H672 0.932 . S
C646 C643 1.358 . S
C646 C645 1.429 . S
C646 H673 0.930 . S
C647 C643 1.332 . S
C647 C648 1.394 . S
C647 H674 0.932 . S
C648 C644 1.308 . S
C648 C647 1.394 . S
C648 H675 0.929 . S
C649 Tb640 2.764 . S
C649 C643 1.504 1_655 S
C649 O661 1.239 . S
C649 O662 1.263 . S
O650 Tb640 2.325 . S
O650 C660 1.236 . S
O651 Tb641 2.322 . S
O651 C660 1.257 . S
O652 Tb641 2.349 . S
O652 C663 1.261 . S
O653 Tb640 2.303 . S
O653 C663 1.257 . S
O654 Tb641 2.415 . S
O654 C670 1.239 . S
O655 Tb641 2.399 . S
O655 C670 1.263 . S
O656 Tb641 2.325 . S
O656 C671 1.236 . S
O657 Tb640 2.322 . S
O657 C671 1.257 . S
O658 Tb640 2.349 . S
O658 C642 1.261 . S
O659 Tb641 2.303 . S
O659 C642 1.257 . S
C660 O650 1.236 . S
C660 O651 1.257 . S
O661 Tb640 2.415 . S
O661 C649 1.239 . S
O662 Tb640 2.399 . S
O662 C649 1.263 . S
C663 O652 1.261 . S
C663 O653 1.257 . S
C664 C667 1.358 . S
C664 C668 1.332 . S
C664 C670 1.504 . S
C665 C666 1.373 . S
C665 C669 1.308 . S
C666 C665 1.373 . S
C666 C667 1.429 . S
C666 H676 0.932 . S
C667 C664 1.358 . S
C667 C666 1.429 . S
C667 H677 0.930 . S
C668 C664 1.332 . S
C668 C669 1.394 . S
C668 H678 0.932 . S
C669 C665 1.308 . S
C669 C668 1.394 . S
C669 H679 0.929 . S
C670 Tb641 2.764 . S
C670 O654 1.239 . S
C670 O655 1.263 . S
C670 C664 1.504 . S
C671 O656 1.236 . S
C671 O657 1.257 . S
H672 C645 0.932 . S
H673 C646 0.930 . S
H674 C647 0.932 . S
H675 C648 0.929 . S
H676 C666 0.932 . S
H677 C667 0.930 . S
H678 C668 0.932 . S
H679 C669 0.929 . S
Tb680 C689 2.764 . S
Tb680 O690 2.325 . S
Tb680 O693 2.303 . S
Tb680 O697 2.322 . S
Tb680 O698 2.349 . S
Tb680 O701 2.415 . S
Tb680 O702 2.399 . S
Tb681 O691 2.322 . S
Tb681 O692 2.349 . S
Tb681 O694 2.415 . S
Tb681 O695 2.399 . S
Tb681 O696 2.325 . S
Tb681 O699 2.303 . S
Tb681 C710 2.764 . S
C682 O698 1.261 . S
C682 O699 1.257 . S
C683 C686 1.358 . S
C683 C687 1.332 . S
C683 C689 1.504 . S
C684 C685 1.373 . S
C684 C688 1.308 . S
C685 C684 1.373 . S
C685 C686 1.429 . S
C685 H712 0.932 . S
C686 C683 1.358 . S
C686 C685 1.429 . S
C686 H713 0.930 . S
C687 C683 1.332 . S
C687 C688 1.394 . S
C687 H714 0.932 . S
C688 C684 1.308 . S
C688 C687 1.394 . S
C688 H715 0.929 . S
C689 Tb680 2.764 . S
C689 C683 1.504 . S
C689 O701 1.239 . S
C689 O702 1.263 . S
O690 Tb680 2.325 . S
O690 C700 1.236 . S
O691 Tb681 2.322 . S
O691 C700 1.257 . S
O692 Tb681 2.349 . S
O692 C703 1.261 . S
O693 Tb680 2.303 . S
O693 C703 1.257 . S
O694 Tb681 2.415 . S
O694 C710 1.239 . S
O695 Tb681 2.399 . S
O695 C710 1.263 . S
O696 Tb681 2.325 . S
O696 C711 1.236 . S
O697 Tb680 2.322 . S
O697 C711 1.257 . S
O698 Tb680 2.349 . S
O698 C682 1.261 . S
O699 Tb681 2.303 . S
O699 C682 1.257 . S
C700 O690 1.236 . S
C700 O691 1.257 . S
O701 Tb680 2.415 . S
O701 C689 1.239 . S
O702 Tb680 2.399 . S
O702 C689 1.263 . S
C703 O692 1.261 . S
C703 O693 1.257 . S
C704 C707 1.358 . S
C704 C708 1.332 . S
C704 C710 1.504 . S
C705 C706 1.373 . S
C705 C709 1.308 . S
C706 C705 1.373 . S
C706 C707 1.429 . S
C706 H716 0.932 . S
C707 C704 1.358 . S
C707 C706 1.429 . S
C707 H717 0.930 . S
C708 C704 1.332 . S
C708 C709 1.394 . S
C708 H718 0.932 . S
C709 C705 1.308 . S
C709 C708 1.394 . S
C709 H719 0.929 . S
C710 Tb681 2.764 . S
C710 O694 1.239 . S
C710 O695 1.263 . S
C710 C704 1.504 . S
C711 O696 1.236 . S
C711 O697 1.257 . S
H712 C685 0.932 . S
H713 C686 0.930 . S
H714 C687 0.932 . S
H715 C688 0.929 . S
H716 C706 0.932 . S
H717 C707 0.930 . S
H718 C708 0.932 . S
H719 C709 0.929 . S
H720 C728 0.950 . S
H721 C733 0.950 . S
H722 C730 0.950 . S
H723 C732 0.950 . S
H724 C734 0.950 . S
H725 C736 0.950 . S
H726 C738 0.950 . S
H727 C739 0.950 . S
C728 H720 0.950 . S
C728 C729 1.386 . S
C728 C730 1.391 . S
C729 C728 1.386 . S
C729 C733 1.393 . S
C730 H722 0.950 . S
C730 C728 1.391 . S
C730 C731 1.400 . S
C731 C730 1.400 . S
C731 C732 1.398 . S
C731 C737 1.491 . S
C732 H723 0.950 . S
C732 C731 1.398 . S
C732 C733 1.391 . S
C733 H721 0.950 . S
C733 C729 1.393 . S
C733 C732 1.391 . S
C734 H724 0.950 . S
C734 C735 1.386 . S
C734 C736 1.391 . S
C735 C734 1.386 . S
C735 C739 1.393 . S
C736 H725 0.950 . S
C736 C734 1.391 . S
C736 C737 1.400 . S
C737 C731 1.491 . S
C737 C736 1.400 . S
C737 C738 1.398 . S
C738 H726 0.950 . S
C738 C737 1.398 . S
C738 C739 1.391 . S
C739 H727 0.950 . S
C739 C735 1.393 . S
C739 C738 1.391 . S
H740 C748 0.950 . S
H741 C753 0.950 . S
H742 C750 0.950 . S
H743 C752 0.950 . S
H744 C754 0.950 . S
H745 C756 0.950 . S
H746 C758 0.950 . S
H747 C759 0.950 . S
C748 H740 0.950 . S
C748 C749 1.386 . S
C748 C750 1.391 . S
C749 C748 1.386 . S
C749 C753 1.393 . S
C750 H742 0.950 . S
C750 C748 1.391 . S
C750 C751 1.400 . S
C751 C750 1.400 . S
C751 C752 1.398 . S
C751 C757 1.491 . S
C752 H743 0.950 . S
C752 C751 1.398 . S
C752 C753 1.391 . S
C753 H741 0.950 . S
C753 C749 1.393 . S
C753 C752 1.391 . S
C754 H744 0.950 . S
C754 C755 1.386 . S
C754 C756 1.391 . S
C755 C754 1.386 . S
C755 C759 1.393 . S
C756 H745 0.950 . S
C756 C754 1.391 . S
C756 C757 1.400 . S
C757 C751 1.491 . S
C757 C756 1.400 . S
C757 C758 1.398 . S
C758 H746 0.950 . S
C758 C757 1.398 . S
C758 C759 1.391 . S
C759 H747 0.950 . S
C759 C755 1.393 . S
C759 C758 1.391 . S
H760 C768 0.950 . S
H761 C773 0.950 . S
H762 C770 0.950 . S
H763 C772 0.950 . S
H764 C774 0.950 . S
H765 C776 0.950 . S
H766 C778 0.950 . S
H767 C779 0.950 . S
C768 H760 0.950 . S
C768 C769 1.386 . S
C768 C770 1.391 . S
C769 C768 1.386 . S
C769 C773 1.393 . S
C770 H762 0.950 . S
C770 C768 1.391 . S
C770 C771 1.400 . S
C771 C770 1.400 . S
C771 C772 1.398 . S
C771 C777 1.491 . S
C772 H763 0.950 . S
C772 C771 1.398 . S
C772 C773 1.391 . S
C773 H761 0.950 . S
C773 C769 1.393 . S
C773 C772 1.391 . S
C774 H764 0.950 . S
C774 C775 1.386 . S
C774 C776 1.391 . S
C775 C774 1.386 . S
C775 C779 1.393 . S
C776 H765 0.950 . S
C776 C774 1.391 . S
C776 C777 1.400 . S
C777 C771 1.491 . S
C777 C776 1.400 . S
C777 C778 1.398 . S
C778 H766 0.950 . S
C778 C777 1.398 . S
C778 C779 1.391 . S
C779 H767 0.950 . S
C779 C775 1.393 . S
C779 C778 1.391 . S
H780 C788 0.950 . S
H781 C793 0.950 . S
H782 C790 0.950 . S
H783 C792 0.950 . S
H784 C794 0.950 . S
H785 C796 0.950 . S
H786 C798 0.950 . S
H787 C799 0.950 . S
C788 H780 0.950 . S
C788 C789 1.386 . S
C788 C790 1.391 . S
C789 C788 1.386 . S
C789 C793 1.393 . S
C790 H782 0.950 . S
C790 C788 1.391 . S
C790 C791 1.400 . S
C791 C790 1.400 . S
C791 C792 1.398 . S
C791 C797 1.491 . S
C792 H783 0.950 . S
C792 C791 1.398 . S
C792 C793 1.391 . S
C793 H781 0.950 . S
C793 C789 1.393 . S
C793 C792 1.391 . S
C794 H784 0.950 . S
C794 C795 1.386 . S
C794 C796 1.391 . S
C795 C794 1.386 . S
C795 C799 1.393 . S
C796 H785 0.950 . S
C796 C794 1.391 . S
C796 C797 1.400 . S
C797 C791 1.491 . S
C797 C796 1.400 . S
C797 C798 1.398 . S
C798 H786 0.950 . S
C798 C797 1.398 . S
C798 C799 1.391 . S
C799 H787 0.950 . S
C799 C795 1.393 . S
C799 C798 1.391 . S
H800 C808 0.950 . S
H801 C813 0.950 . S
H802 C810 0.950 . S
H803 C812 0.950 . S
H804 C814 0.950 . S
H805 C816 0.950 . S
H806 C818 0.950 . S
H807 C819 0.950 . S
C808 H800 0.950 . S
C808 C809 1.386 . S
C808 C810 1.391 . S
C809 C808 1.386 . S
C809 C813 1.393 . S
C810 H802 0.950 . S
C810 C808 1.391 . S
C810 C811 1.400 . S
C811 C810 1.400 . S
C811 C812 1.398 . S
C811 C817 1.491 . S
C812 H803 0.950 . S
C812 C811 1.398 . S
C812 C813 1.391 . S
C813 H801 0.950 . S
C813 C809 1.393 . S
C813 C812 1.391 . S
C814 H804 0.950 . S
C814 C815 1.386 . S
C814 C816 1.391 . S
C815 C814 1.386 . S
C815 C819 1.393 . S
C816 H805 0.950 . S
C816 C814 1.391 . S
C816 C817 1.400 . S
C817 C811 1.491 . S
C817 C816 1.400 . S
C817 C818 1.398 . S
C818 H806 0.950 . S
C818 C817 1.398 . S
C818 C819 1.391 . S
C819 H807 0.950 . S
C819 C815 1.393 . S
C819 C818 1.391 . S
H820 C828 0.950 . S
H821 C833 0.950 . S
H822 C830 0.950 . S
H823 C832 0.950 . S
H824 C834 0.950 . S
H825 C836 0.950 . S
H826 C838 0.950 . S
H827 C839 0.950 . S
C828 H820 0.950 . S
C828 C829 1.386 . S
C828 C830 1.391 . S
C829 C828 1.386 . S
C829 C833 1.393 . S
C830 H822 0.950 . S
C830 C828 1.391 . S
C830 C831 1.400 . S
C831 C830 1.400 . S
C831 C832 1.398 . S
C831 C837 1.491 . S
C832 H823 0.950 . S
C832 C831 1.398 . S
C832 C833 1.391 . S
C833 H821 0.950 . S
C833 C829 1.393 . S
C833 C832 1.391 . S
C834 H824 0.950 . S
C834 C835 1.386 . S
C834 C836 1.391 . S
C835 C834 1.386 . S
C835 C839 1.393 . S
C836 H825 0.950 . S
C836 C834 1.391 . S
C836 C837 1.400 . S
C837 C831 1.491 . S
C837 C836 1.400 . S
C837 C838 1.398 . S
C838 H826 0.950 . S
C838 C837 1.398 . S
C838 C839 1.391 . S
C839 H827 0.950 . S
C839 C835 1.393 . S
C839 C838 1.391 . S
H840 C848 0.950 . S
H841 C853 0.950 . S
H842 C850 0.950 . S
H843 C852 0.950 . S
H844 C854 0.950 . S
H845 C856 0.950 . S
H846 C858 0.950 . S
H847 C859 0.950 . S
C848 H840 0.950 . S
C848 C849 1.386 . S
C848 C850 1.391 . S
C849 C848 1.386 . S
C849 C853 1.393 . S
C850 H842 0.950 . S
C850 C848 1.391 . S
C850 C851 1.400 . S
C851 C850 1.400 . S
C851 C852 1.398 . S
C851 C857 1.491 . S
C852 H843 0.950 . S
C852 C851 1.398 . S
C852 C853 1.391 . S
C853 H841 0.950 . S
C853 C849 1.393 . S
C853 C852 1.391 . S
C854 H844 0.950 . S
C854 C855 1.386 . S
C854 C856 1.391 . S
C855 C854 1.386 . S
C855 C859 1.393 . S
C856 H845 0.950 . S
C856 C854 1.391 . S
C856 C857 1.400 . S
C857 C851 1.491 . S
C857 C856 1.400 . S
C857 C858 1.398 . S
C858 H846 0.950 . S
C858 C857 1.398 . S
C858 C859 1.391 . S
C859 H847 0.950 . S
C859 C855 1.393 . S
C859 C858 1.391 . S
H860 C868 0.950 . S
H861 C873 0.950 . S
H862 C870 0.950 . S
H863 C872 0.950 . S
H864 C874 0.950 . S
H865 C876 0.950 . S
H866 C878 0.950 . S
H867 C879 0.950 . S
C868 H860 0.950 . S
C868 C869 1.386 . S
C868 C870 1.391 . S
C869 C868 1.386 . S
C869 C873 1.393 . S
C870 H862 0.950 . S
C870 C868 1.391 . S
C870 C871 1.400 . S
C871 C870 1.400 . S
C871 C872 1.398 . S
C871 C877 1.491 1_545 S
C872 H863 0.950 . S
C872 C871 1.398 . S
C872 C873 1.391 . S
C873 H861 0.950 . S
C873 C869 1.393 . S
C873 C872 1.391 . S
C874 H864 0.950 . S
C874 C875 1.386 . S
C874 C876 1.391 . S
C875 C874 1.386 . S
C875 C879 1.393 . S
C876 H865 0.950 . S
C876 C874 1.391 . S
C876 C877 1.400 . S
C877 C871 1.491 1_565 S
C877 C876 1.400 . S
C877 C878 1.398 . S
C878 H866 0.950 . S
C878 C877 1.398 . S
C878 C879 1.391 . S
C879 H867 0.950 . S
C879 C875 1.393 . S
C879 C878 1.391 . S
H880 C888 0.950 . S
H881 C893 0.950 . S
H882 C890 0.950 . S
H883 C892 0.950 . S
H884 C894 0.950 . S
H885 C896 0.950 . S
H886 C898 0.950 1_455 S
H887 C899 0.950 . S
C888 H880 0.950 . S
C888 C889 1.386 . S
C888 C890 1.391 . S
C889 C888 1.386 . S
C889 C893 1.393 . S
C890 H882 0.950 . S
C890 C888 1.391 . S
C890 C891 1.400 . S
C891 C890 1.400 . S
C891 C892 1.398 . S
C891 C897 1.491 . S
C892 H883 0.950 . S
C892 C891 1.398 . S
C892 C893 1.391 . S
C893 H881 0.950 . S
C893 C889 1.393 . S
C893 C892 1.391 . S
C894 H884 0.950 . S
C894 C895 1.386 . S
C894 C896 1.391 . S
C895 C894 1.386 . S
C895 C899 1.393 . S
C896 H885 0.950 . S
C896 C894 1.391 . S
C896 C897 1.400 1_655 S
C897 C891 1.491 . S
C897 C896 1.400 1_455 S
C897 C898 1.398 1_455 S
C898 H886 0.950 1_655 S
C898 C897 1.398 1_655 S
C898 C899 1.391 . S
C899 H887 0.950 . S
C899 C895 1.393 . S
C899 C898 1.391 . S
H900 C908 0.950 . S
H901 C913 0.950 . S
H902 C910 0.950 . S
H903 C912 0.950 . S
H904 C914 0.950 . S
H905 C916 0.950 . S
H906 C918 0.950 . S
H907 C919 0.950 . S
C908 H900 0.950 . S
C908 C909 1.386 . S
C908 C910 1.391 . S
C909 C908 1.386 . S
C909 C913 1.393 . S
C910 H902 0.950 . S
C910 C908 1.391 . S
C910 C911 1.400 . S
C911 C910 1.400 . S
C911 C912 1.398 . S
C911 C917 1.491 . S
C912 H903 0.950 . S
C912 C911 1.398 . S
C912 C913 1.391 . S
C913 H901 0.950 . S
C913 C909 1.393 . S
C913 C912 1.391 . S
C914 H904 0.950 . S
C914 C915 1.386 . S
C914 C916 1.391 . S
C915 C914 1.386 . S
C915 C919 1.393 . S
C916 H905 0.950 . S
C916 C914 1.391 . S
C916 C917 1.400 . S
C917 C911 1.491 . S
C917 C916 1.400 . S
C917 C918 1.398 . S
C918 H906 0.950 . S
C918 C917 1.398 . S
C918 C919 1.391 . S
C919 H907 0.950 . S
C919 C915 1.393 . S
C919 C918 1.391 . S
H920 C928 0.950 . S
H921 C933 0.950 . S
H922 C930 0.950 . S
H923 C932 0.950 . S
H924 C934 0.950 . S
H925 C936 0.950 . S
H926 C938 0.950 . S
H927 C939 0.950 . S
C928 H920 0.950 . S
C928 C929 1.386 . S
C928 C930 1.391 . S
C929 C928 1.386 . S
C929 C933 1.393 . S
C930 H922 0.950 . S
C930 C928 1.391 . S
C930 C931 1.400 . S
C931 C930 1.400 . S
C931 C932 1.398 . S
C931 C937 1.491 . S
C932 H923 0.950 . S
C932 C931 1.398 . S
C932 C933 1.391 . S
C933 H921 0.950 . S
C933 C929 1.393 . S
C933 C932 1.391 . S
C934 H924 0.950 . S
C934 C935 1.386 . S
C934 C936 1.391 . S
C935 C934 1.386 . S
C935 C939 1.393 . S
C936 H925 0.950 . S
C936 C934 1.391 . S
C936 C937 1.400 . S
C937 C931 1.491 . S
C937 C936 1.400 . S
C937 C938 1.398 . S
C938 H926 0.950 . S
C938 C937 1.398 . S
C938 C939 1.391 . S
C939 H927 0.950 . S
C939 C935 1.393 . S
C939 C938 1.391 . S
H940 C948 0.950 . S
H941 C953 0.950 . S
H942 C950 0.950 . S
H943 C952 0.950 . S
H944 C954 0.950 . S
H945 C956 0.950 . S
H946 C958 0.950 . S
H947 C959 0.950 . S
C948 H940 0.950 . S
C948 C949 1.386 . S
C948 C950 1.391 . S
C949 C948 1.386 . S
C949 C953 1.393 . S
C950 H942 0.950 . S
C950 C948 1.391 . S
C950 C951 1.400 . S
C951 C950 1.400 . S
C951 C952 1.398 . S
C951 C957 1.491 . S
C952 H943 0.950 . S
C952 C951 1.398 . S
C952 C953 1.391 . S
C953 H941 0.950 . S
C953 C949 1.393 . S
C953 C952 1.391 . S
C954 H944 0.950 . S
C954 C955 1.386 . S
C954 C956 1.391 . S
C955 C954 1.386 . S
C955 C959 1.393 . S
C956 H945 0.950 . S
C956 C954 1.391 . S
C956 C957 1.400 . S
C957 C951 1.491 . S
C957 C956 1.400 . S
C957 C958 1.398 . S
C958 H946 0.950 . S
C958 C957 1.398 . S
C958 C959 1.391 . S
C959 H947 0.950 . S
C959 C955 1.393 . S
C959 C958 1.391 . S
H960 C968 0.950 . S
H961 C973 0.950 . S
H962 C970 0.950 . S
H963 C972 0.950 . S
H964 C974 0.950 . S
H965 C976 0.950 . S
H966 C978 0.950 . S
H967 C979 0.950 . S
C968 H960 0.950 . S
C968 C969 1.386 . S
C968 C970 1.391 . S
C969 C968 1.386 . S
C969 C973 1.393 . S
C970 H962 0.950 . S
C970 C968 1.391 . S
C970 C971 1.400 . S
C971 C970 1.400 . S
C971 C972 1.398 . S
C971 C977 1.491 . S
C972 H963 0.950 . S
C972 C971 1.398 . S
C972 C973 1.391 . S
C973 H961 0.950 . S
C973 C969 1.393 . S
C973 C972 1.391 . S
C974 H964 0.950 . S
C974 C975 1.386 . S
C974 C976 1.391 . S
C975 C974 1.386 . S
C975 C979 1.393 . S
C976 H965 0.950 . S
C976 C974 1.391 . S
C976 C977 1.400 . S
C977 C971 1.491 . S
C977 C976 1.400 . S
C977 C978 1.398 . S
C978 H966 0.950 . S
C978 C977 1.398 . S
C978 C979 1.391 . S
C979 H967 0.950 . S
C979 C975 1.393 . S
C979 C978 1.391 . S
H980 C988 0.950 . S
H981 C993 0.950 . S
H982 C990 0.950 . S
H983 C992 0.950 . S
H984 C994 0.950 . S
H985 C996 0.950 . S
H986 C998 0.950 . S
H987 C999 0.950 . S
C988 H980 0.950 . S
C988 C989 1.386 . S
C988 C990 1.391 . S
C989 C988 1.386 . S
C989 C993 1.393 . S
C990 H982 0.950 . S
C990 C988 1.391 . S
C990 C991 1.400 . S
C991 C990 1.400 . S
C991 C992 1.398 . S
C991 C997 1.491 . S
C992 H983 0.950 . S
C992 C991 1.398 . S
C992 C993 1.391 . S
C993 H981 0.950 . S
C993 C989 1.393 . S
C993 C992 1.391 . S
C994 H984 0.950 . S
C994 C995 1.386 . S
C994 C996 1.391 . S
C995 C994 1.386 . S
C995 C999 1.393 . S
C996 H985 0.950 . S
C996 C994 1.391 . S
C996 C997 1.400 . S
C997 C991 1.491 . S
C997 C996 1.400 . S
C997 C998 1.398 . S
C998 H986 0.950 . S
C998 C997 1.398 . S
C998 C999 1.391 . S
C999 H987 0.950 . S
C999 C995 1.393 . S
C999 C998 1.391 . S
H1000 C1008 0.950 . S
H1001 C1013 0.950 . S
H1002 C1010 0.950 . S
H1003 C1012 0.950 . S
H1004 C1014 0.950 . S
H1005 C1016 0.950 . S
H1006 C1018 0.950 . S
H1007 C1019 0.950 . S
C1008 H1000 0.950 . S
C1008 C1009 1.386 . S
C1008 C1010 1.391 . S
C1009 C1008 1.386 . S
C1009 C1013 1.393 . S
C1010 H1002 0.950 . S
C1010 C1008 1.391 . S
C1010 C1011 1.400 . S
C1011 C1010 1.400 . S
C1011 C1012 1.398 . S
C1011 C1017 1.491 . S
C1012 H1003 0.950 . S
C1012 C1011 1.398 . S
C1012 C1013 1.391 . S
C1013 H1001 0.950 . S
C1013 C1009 1.393 . S
C1013 C1012 1.391 . S
C1014 H1004 0.950 . S
C1014 C1015 1.386 . S
C1014 C1016 1.391 . S
C1015 C1014 1.386 . S
C1015 C1019 1.393 . S
C1016 H1005 0.950 . S
C1016 C1014 1.391 . S
C1016 C1017 1.400 . S
C1017 C1011 1.491 . S
C1017 C1016 1.400 . S
C1017 C1018 1.398 . S
C1018 H1006 0.950 . S
C1018 C1017 1.398 . S
C1018 C1019 1.391 . S
C1019 H1007 0.950 . S
C1019 C1015 1.393 . S
C1019 C1018 1.391 . S
H1020 C1028 0.950 . S
H1021 C1033 0.950 . S
H1022 C1030 0.950 . S
H1023 C1032 0.950 . S
H1024 C1034 0.950 . S
H1025 C1036 0.950 . S
H1026 C1038 0.950 . S
H1027 C1039 0.950 . S
C1028 H1020 0.950 . S
C1028 C1029 1.386 . S
C1028 C1030 1.391 . S
C1029 C1028 1.386 . S
C1029 C1033 1.393 . S
C1030 H1022 0.950 . S
C1030 C1028 1.391 . S
C1030 C1031 1.400 . S
C1031 C1030 1.400 . S
C1031 C1032 1.398 . S
C1031 C1037 1.491 . S
C1032 H1023 0.950 . S
C1032 C1031 1.398 . S
C1032 C1033 1.391 . S
C1033 H1021 0.950 . S
C1033 C1029 1.393 . S
C1033 C1032 1.391 . S
C1034 H1024 0.950 . S
C1034 C1035 1.386 . S
C1034 C1036 1.391 . S
C1035 C1034 1.386 . S
C1035 C1039 1.393 . S
C1036 H1025 0.950 . S
C1036 C1034 1.391 . S
C1036 C1037 1.400 . S
C1037 C1031 1.491 . S
C1037 C1036 1.400 . S
C1037 C1038 1.398 . S
C1038 H1026 0.950 . S
C1038 C1037 1.398 . S
C1038 C1039 1.391 . S
C1039 H1027 0.950 . S
C1039 C1035 1.393 . S
C1039 C1038 1.391 . S
H1040 C1048 0.950 . S
H1041 C1053 0.950 . S
H1042 C1050 0.950 . S
H1043 C1052 0.950 . S
H1044 C1054 0.950 . S
H1045 C1056 0.950 . S
H1046 C1058 0.950 . S
H1047 C1059 0.950 . S
C1048 H1040 0.950 . S
C1048 C1049 1.386 . S
C1048 C1050 1.391 . S
C1049 C1048 1.386 . S
C1049 C1053 1.393 . S
C1050 H1042 0.950 . S
C1050 C1048 1.391 . S
C1050 C1051 1.400 1_565 S
C1051 C1050 1.400 1_545 S
C1051 C1052 1.398 1_545 S
C1051 C1057 1.491 . S
C1052 H1043 0.950 . S
C1052 C1051 1.398 1_565 S
C1052 C1053 1.391 . S
C1053 H1041 0.950 . S
C1053 C1049 1.393 . S
C1053 C1052 1.391 . S
C1054 H1044 0.950 . S
C1054 C1055 1.386 . S
C1054 C1056 1.391 . S
C1055 C1054 1.386 . S
C1055 C1059 1.393 . S
C1056 H1045 0.950 . S
C1056 C1054 1.391 . S
C1056 C1057 1.400 . S
C1057 C1051 1.491 . S
C1057 C1056 1.400 . S
C1057 C1058 1.398 . S
C1058 H1046 0.950 . S
C1058 C1057 1.398 . S
C1058 C1059 1.391 . S
C1059 H1047 0.950 . S
C1059 C1055 1.393 . S
C1059 C1058 1.391 . S
H1060 C1068 0.950 . S
H1061 C1073 0.950 . S
H1062 C1070 0.950 . S
H1063 C1072 0.950 . S
H1064 C1074 0.950 . S
H1065 C1076 0.950 1_455 S
H1066 C1078 0.950 . S
H1067 C1079 0.950 . S
C1068 H1060 0.950 . S
C1068 C1069 1.386 . S
C1068 C1070 1.391 . S
C1069 C1068 1.386 . S
C1069 C1073 1.393 . S
C1070 H1062 0.950 . S
C1070 C1068 1.391 . S
C1070 C1071 1.400 . S
C1071 C1070 1.400 . S
C1071 C1072 1.398 . S
C1071 C1077 1.491 1_455 S
C1072 H1063 0.950 . S
C1072 C1071 1.398 . S
C1072 C1073 1.391 . S
C1073 H1061 0.950 . S
C1073 C1069 1.393 . S
C1073 C1072 1.391 . S
C1074 H1064 0.950 . S
C1074 C1075 1.386 . S
C1074 C1076 1.391 . S
C1075 C1074 1.386 . S
C1075 C1079 1.393 . S
C1076 H1065 0.950 1_655 S
C1076 C1074 1.391 . S
C1076 C1077 1.400 . S
C1077 C1071 1.491 1_655 S
C1077 C1076 1.400 . S
C1077 C1078 1.398 . S
C1078 H1066 0.950 . S
C1078 C1077 1.398 . S
C1078 C1079 1.391 . S
C1079 H1067 0.950 . S
C1079 C1075 1.393 . S
C1079 C1078 1.391 . S
H1080 C1088 0.950 . S
H1081 C1093 0.950 . S
H1082 C1090 0.950 . S
H1083 C1092 0.950 . S
H1084 C1094 0.950 . S
H1085 C1096 0.950 . S
H1086 C1098 0.950 . S
H1087 C1099 0.950 . S
C1088 H1080 0.950 . S
C1088 C1089 1.386 . S
C1088 C1090 1.391 . S
C1089 C1088 1.386 . S
C1089 C1093 1.393 1_545 S
C1090 H1082 0.950 . S
C1090 C1088 1.391 . S
C1090 C1091 1.400 . S
C1091 C1090 1.400 . S
C1091 C1092 1.398 1_545 S
C1091 C1097 1.491 1_554 S
C1092 H1083 0.950 . S
C1092 C1091 1.398 1_565 S
C1092 C1093 1.391 . S
C1093 H1081 0.950 . S
C1093 C1089 1.393 1_565 S
C1093 C1092 1.391 . S
C1094 H1084 0.950 . S
C1094 C1095 1.386 1_565 S
C1094 C1096 1.391 . S
C1095 C1094 1.386 1_545 S
C1095 C1099 1.393 . S
C1096 H1085 0.950 . S
C1096 C1094 1.391 . S
C1096 C1097 1.400 1_565 S
C1097 C1091 1.491 1_556 S
C1097 C1096 1.400 1_545 S
C1097 C1098 1.398 . S
C1098 H1086 0.950 . S
C1098 C1097 1.398 . S
C1098 C1099 1.391 . S
C1099 H1087 0.950 . S
C1099 C1095 1.393 . S
C1099 C1098 1.391 . S
H1100 C1108 0.950 . S
H1101 C1113 0.950 . S
H1102 C1110 0.950 . S
H1103 C1112 0.950 . S
H1104 C1114 0.950 . S
H1105 C1116 0.950 . S
H1106 C1118 0.950 . S
H1107 C1119 0.950 . S
C1108 H1100 0.950 . S
C1108 C1109 1.386 1_655 S
C1108 C1110 1.391 . S
C1109 C1108 1.386 1_455 S
C1109 C1113 1.393 . S
C1110 H1102 0.950 . S
C1110 C1108 1.391 . S
C1110 C1111 1.400 1_655 S
C1111 C1110 1.400 1_455 S
C1111 C1112 1.398 . S
C1111 C1117 1.491 1_556 S
C1112 H1103 0.950 . S
C1112 C1111 1.398 . S
C1112 C1113 1.391 . S
C1113 H1101 0.950 . S
C1113 C1109 1.393 . S
C1113 C1112 1.391 . S
C1114 H1104 0.950 . S
C1114 C1115 1.386 . S
C1114 C1116 1.391 . S
C1115 C1114 1.386 . S
C1115 C1119 1.393 1_455 S
C1116 H1105 0.950 . S
C1116 C1114 1.391 . S
C1116 C1117 1.400 . S
C1117 C1111 1.491 1_554 S
C1117 C1116 1.400 . S
C1117 C1118 1.398 1_455 S
C1118 H1106 0.950 . S
C1118 C1117 1.398 1_655 S
C1118 C1119 1.391 . S
C1119 H1107 0.950 . S
C1119 C1115 1.393 1_655 S
C1119 C1118 1.391 . S
H1120 C1128 0.950 . S
H1121 C1133 0.950 . S
H1122 C1130 0.950 . S
H1123 C1132 0.950 . S
H1124 C1134 0.950 . S
H1125 C1136 0.950 . S
H1126 C1138 0.950 . S
H1127 C1139 0.950 . S
C1128 H1120 0.950 . S
C1128 C1129 1.386 . S
C1128 C1130 1.391 . S
C1129 C1128 1.386 . S
C1129 C1133 1.393 . S
C1130 H1122 0.950 . S
C1130 C1128 1.391 . S
C1130 C1131 1.400 . S
C1131 C1130 1.400 . S
C1131 C1132 1.398 . S
C1131 C1137 1.491 1_556 S
C1132 H1123 0.950 . S
C1132 C1131 1.398 . S
C1132 C1133 1.391 . S
C1133 H1121 0.950 . S
C1133 C1129 1.393 . S
C1133 C1132 1.391 . S
C1134 H1124 0.950 . S
C1134 C1135 1.386 . S
C1134 C1136 1.391 . S
C1135 C1134 1.386 . S
C1135 C1139 1.393 . S
C1136 H1125 0.950 . S
C1136 C1134 1.391 . S
C1136 C1137 1.400 . S
C1137 C1131 1.491 1_554 S
C1137 C1136 1.400 . S
C1137 C1138 1.398 . S
C1138 H1126 0.950 . S
C1138 C1137 1.398 . S
C1138 C1139 1.391 . S
C1139 H1127 0.950 . S
C1139 C1135 1.393 . S
C1139 C1138 1.391 . S
H1140 C1148 0.950 . S
H1141 C1153 0.950 . S
H1142 C1150 0.950 . S
H1143 C1152 0.950 . S
H1144 C1154 0.950 . S
H1145 C1156 0.950 . S
H1146 C1158 0.950 . S
H1147 C1159 0.950 . S
C1148 H1140 0.950 . S
C1148 C1149 1.386 . S
C1148 C1150 1.391 . S
C1149 C1148 1.386 . S
C1149 C1153 1.393 . S
C1150 H1142 0.950 . S
C1150 C1148 1.391 . S
C1150 C1151 1.400 . S
C1151 C1150 1.400 . S
C1151 C1152 1.398 . S
C1151 C1157 1.491 . S
C1152 H1143 0.950 . S
C1152 C1151 1.398 . S
C1152 C1153 1.391 . S
C1153 H1141 0.950 . S
C1153 C1149 1.393 . S
C1153 C1152 1.391 . S
C1154 H1144 0.950 . S
C1154 C1155 1.386 . S
C1154 C1156 1.391 . S
C1155 C1154 1.386 . S
C1155 C1159 1.393 . S
C1156 H1145 0.950 . S
C1156 C1154 1.391 . S
C1156 C1157 1.400 . S
C1157 C1151 1.491 . S
C1157 C1156 1.400 . S
C1157 C1158 1.398 . S
C1158 H1146 0.950 . S
C1158 C1157 1.398 . S
C1158 C1159 1.391 . S
C1159 H1147 0.950 . S
C1159 C1155 1.393 . S
C1159 C1158 1.391 . S
H1160 C1168 0.950 . S
H1161 C1173 0.950 . S
H1162 C1170 0.950 . S
H1163 C1172 0.950 . S
H1164 C1174 0.950 . S
H1165 C1176 0.950 . S
H1166 C1178 0.950 . S
H1167 C1179 0.950 . S
C1168 H1160 0.950 . S
C1168 C1169 1.386 . S
C1168 C1170 1.391 . S
C1169 C1168 1.386 . S
C1169 C1173 1.393 . S
C1170 H1162 0.950 . S
C1170 C1168 1.391 . S
C1170 C1171 1.400 . S
C1171 C1170 1.400 . S
C1171 C1172 1.398 . S
C1171 C1177 1.491 . S
C1172 H1163 0.950 . S
C1172 C1171 1.398 . S
C1172 C1173 1.391 . S
C1173 H1161 0.950 . S
C1173 C1169 1.393 . S
C1173 C1172 1.391 . S
C1174 H1164 0.950 . S
C1174 C1175 1.386 . S
C1174 C1176 1.391 . S
C1175 C1174 1.386 . S
C1175 C1179 1.393 . S
C1176 H1165 0.950 . S
C1176 C1174 1.391 . S
C1176 C1177 1.400 . S
C1177 C1171 1.491 . S
C1177 C1176 1.400 . S
C1177 C1178 1.398 . S
C1178 H1166 0.950 . S
C1178 C1177 1.398 . S
C1178 C1179 1.391 . S
C1179 H1167 0.950 . S
C1179 C1175 1.393 . S
C1179 C1178 1.391 . S
H1180 C1188 0.950 . S
H1181 C1193 0.950 . S
H1182 C1190 0.950 . S
H1183 C1192 0.950 . S
H1184 C1194 0.950 . S
H1185 C1196 0.950 . S
H1186 C1198 0.950 . S
H1187 C1199 0.950 . S
C1188 H1180 0.950 . S
C1188 C1189 1.386 . S
C1188 C1190 1.391 . S
C1189 C1188 1.386 . S
C1189 C1193 1.393 . S
C1190 H1182 0.950 . S
C1190 C1188 1.391 . S
C1190 C1191 1.400 . S
C1191 C1190 1.400 . S
C1191 C1192 1.398 . S
C1191 C1197 1.491 . S
C1192 H1183 0.950 . S
C1192 C1191 1.398 . S
C1192 C1193 1.391 . S
C1193 H1181 0.950 . S
C1193 C1189 1.393 . S
C1193 C1192 1.391 . S
C1194 H1184 0.950 . S
C1194 C1195 1.386 . S
C1194 C1196 1.391 . S
C1195 C1194 1.386 . S
C1195 C1199 1.393 . S
C1196 H1185 0.950 . S
C1196 C1194 1.391 . S
C1196 C1197 1.400 . S
C1197 C1191 1.491 . S
C1197 C1196 1.400 . S
C1197 C1198 1.398 . S
C1198 H1186 0.950 . S
C1198 C1197 1.398 . S
C1198 C1199 1.391 . S
C1199 H1187 0.950 . S
C1199 C1195 1.393 . S
C1199 C1198 1.391 . S
H1200 C1208 0.950 . S
H1201 C1213 0.950 . S
H1202 C1210 0.950 . S
H1203 C1212 0.950 . S
H1204 C1214 0.950 . S
H1205 C1216 0.950 . S
H1206 C1218 0.950 . S
H1207 C1219 0.950 . S
C1208 H1200 0.950 . S
C1208 C1209 1.386 . S
C1208 C1210 1.391 . S
C1209 C1208 1.386 . S
C1209 C1213 1.393 . S
C1210 H1202 0.950 . S
C1210 C1208 1.391 . S
C1210 C1211 1.400 . S
C1211 C1210 1.400 . S
C1211 C1212 1.398 . S
C1211 C1217 1.491 . S
C1212 H1203 0.950 . S
C1212 C1211 1.398 . S
C1212 C1213 1.391 . S
C1213 H1201 0.950 . S
C1213 C1209 1.393 . S
C1213 C1212 1.391 . S
C1214 H1204 0.950 . S
C1214 C1215 1.386 . S
C1214 C1216 1.391 . S
C1215 C1214 1.386 . S
C1215 C1219 1.393 . S
C1216 H1205 0.950 . S
C1216 C1214 1.391 . S
C1216 C1217 1.400 . S
C1217 C1211 1.491 . S
C1217 C1216 1.400 . S
C1217 C1218 1.398 . S
C1218 H1206 0.950 . S
C1218 C1217 1.398 . S
C1218 C1219 1.391 . S
C1219 H1207 0.950 . S
C1219 C1215 1.393 . S
C1219 C1218 1.391 . S
H1220 C1228 0.950 . S
H1221 C1233 0.950 . S
H1222 C1230 0.950 . S
H1223 C1232 0.950 . S
H1224 C1234 0.950 . S
H1225 C1236 0.950 . S
H1226 C1238 0.950 . S
H1227 C1239 0.950 . S
C1228 H1220 0.950 . S
C1228 C1229 1.386 . S
C1228 C1230 1.391 . S
C1229 C1228 1.386 . S
C1229 C1233 1.393 . S
C1230 H1222 0.950 . S
C1230 C1228 1.391 . S
C1230 C1231 1.400 . S
C1231 C1230 1.400 . S
C1231 C1232 1.398 . S
C1231 C1237 1.491 . S
C1232 H1223 0.950 . S
C1232 C1231 1.398 . S
C1232 C1233 1.391 . S
C1233 H1221 0.950 . S
C1233 C1229 1.393 . S
C1233 C1232 1.391 . S
C1234 H1224 0.950 . S
C1234 C1235 1.386 . S
C1234 C1236 1.391 . S
C1235 C1234 1.386 . S
C1235 C1239 1.393 . S
C1236 H1225 0.950 . S
C1236 C1234 1.391 . S
C1236 C1237 1.400 . S
C1237 C1231 1.491 . S
C1237 C1236 1.400 . S
C1237 C1238 1.398 . S
C1238 H1226 0.950 . S
C1238 C1237 1.398 . S
C1238 C1239 1.391 . S
C1239 H1227 0.950 . S
C1239 C1235 1.393 . S
C1239 C1238 1.391 . S
H1240 C1248 0.950 . S
H1241 C1253 0.950 . S
H1242 C1250 0.950 . S
H1243 C1252 0.950 . S
H1244 C1254 0.950 . S
H1245 C1256 0.950 . S
H1246 C1258 0.950 . S
H1247 C1259 0.950 . S
C1248 H1240 0.950 . S
C1248 C1249 1.386 . S
C1248 C1250 1.391 . S
C1249 C1248 1.386 . S
C1249 C1253 1.393 . S
C1250 H1242 0.950 . S
C1250 C1248 1.391 . S
C1250 C1251 1.400 . S
C1251 C1250 1.400 . S
C1251 C1252 1.398 . S
C1251 C1257 1.491 . S
C1252 H1243 0.950 . S
C1252 C1251 1.398 . S
C1252 C1253 1.391 . S
C1253 H1241 0.950 . S
C1253 C1249 1.393 . S
C1253 C1252 1.391 . S
C1254 H1244 0.950 . S
C1254 C1255 1.386 . S
C1254 C1256 1.391 . S
C1255 C1254 1.386 . S
C1255 C1259 1.393 . S
C1256 H1245 0.950 . S
C1256 C1254 1.391 . S
C1256 C1257 1.400 . S
C1257 C1251 1.491 . S
C1257 C1256 1.400 . S
C1257 C1258 1.398 . S
C1258 H1246 0.950 . S
C1258 C1257 1.398 . S
C1258 C1259 1.391 . S
C1259 H1247 0.950 . S
C1259 C1255 1.393 . S
C1259 C1258 1.391 . S
H1260 C1268 0.950 . S
H1261 C1273 0.950 . S
H1262 C1270 0.950 . S
H1263 C1272 0.950 . S
H1264 C1274 0.950 1_545 S
H1265 C1276 0.950 . S
H1266 C1278 0.950 . S
H1267 C1279 0.950 . S
C1268 H1260 0.950 . S
C1268 C1269 1.386 . S
C1268 C1270 1.391 . S
C1269 C1268 1.386 . S
C1269 C1273 1.393 . S
C1270 H1262 0.950 . S
C1270 C1268 1.391 . S
C1270 C1271 1.400 . S
C1271 C1270 1.400 . S
C1271 C1272 1.398 . S
C1271 C1277 1.491 . S
C1272 H1263 0.950 . S
C1272 C1271 1.398 . S
C1272 C1273 1.391 . S
C1273 H1261 0.950 . S
C1273 C1269 1.393 . S
C1273 C1272 1.391 . S
C1274 H1264 0.950 1_565 S
C1274 C1275 1.386 . S
C1274 C1276 1.391 . S
C1275 C1274 1.386 . S
C1275 C1279 1.393 . S
C1276 H1265 0.950 . S
C1276 C1274 1.391 . S
C1276 C1277 1.400 . S
C1277 C1271 1.491 . S
C1277 C1276 1.400 . S
C1277 C1278 1.398 . S
C1278 H1266 0.950 . S
C1278 C1277 1.398 . S
C1278 C1279 1.391 . S
C1279 H1267 0.950 . S
C1279 C1275 1.393 . S
C1279 C1278 1.391 . S
H1280 C1288 0.950 . S
H1281 C1293 0.950 . S
H1282 C1290 0.950 . S
H1283 C1292 0.950 . S
H1284 C1294 0.950 . S
H1285 C1296 0.950 . S
H1286 C1298 0.950 . S
H1287 C1299 0.950 . S
C1288 H1280 0.950 . S
C1288 C1289 1.386 . S
C1288 C1290 1.391 . S
C1289 C1288 1.386 . S
C1289 C1293 1.393 . S
C1290 H1282 0.950 . S
C1290 C1288 1.391 . S
C1290 C1291 1.400 . S
C1291 C1290 1.400 . S
C1291 C1292 1.398 . S
C1291 C1297 1.491 . S
C1292 H1283 0.950 . S
C1292 C1291 1.398 . S
C1292 C1293 1.391 . S
C1293 H1281 0.950 . S
C1293 C1289 1.393 . S
C1293 C1292 1.391 . S
C1294 H1284 0.950 . S
C1294 C1295 1.386 . S
C1294 C1296 1.391 . S
C1295 C1294 1.386 . S
C1295 C1299 1.393 . S
C1296 H1285 0.950 . S
C1296 C1294 1.391 . S
C1296 C1297 1.400 . S
C1297 C1291 1.491 . S
C1297 C1296 1.400 . S
C1297 C1298 1.398 . S
C1298 H1286 0.950 . S
C1298 C1297 1.398 . S
C1298 C1299 1.391 . S
C1299 H1287 0.950 . S
C1299 C1295 1.393 . S
C1299 C1298 1.391 . S
H1300 C1308 0.950 . S
H1301 C1313 0.950 . S
H1302 C1310 0.950 . S
H1303 C1312 0.950 . S
H1304 C1314 0.950 . S
H1305 C1316 0.950 . S
H1306 C1318 0.950 . S
H1307 C1319 0.950 . S
C1308 H1300 0.950 . S
C1308 C1309 1.386 . S
C1308 C1310 1.391 . S
C1309 C1308 1.386 . S
C1309 C1313 1.393 . S
C1310 H1302 0.950 . S
C1310 C1308 1.391 . S
C1310 C1311 1.400 . S
C1311 C1310 1.400 . S
C1311 C1312 1.398 . S
C1311 C1317 1.491 . S
C1312 H1303 0.950 . S
C1312 C1311 1.398 . S
C1312 C1313 1.391 . S
C1313 H1301 0.950 . S
C1313 C1309 1.393 . S
C1313 C1312 1.391 . S
C1314 H1304 0.950 . S
C1314 C1315 1.386 . S
C1314 C1316 1.391 . S
C1315 C1314 1.386 . S
C1315 C1319 1.393 . S
C1316 H1305 0.950 . S
C1316 C1314 1.391 . S
C1316 C1317 1.400 . S
C1317 C1311 1.491 . S
C1317 C1316 1.400 . S
C1317 C1318 1.398 . S
C1318 H1306 0.950 . S
C1318 C1317 1.398 . S
C1318 C1319 1.391 . S
C1319 H1307 0.950 . S
C1319 C1315 1.393 . S
C1319 C1318 1.391 . S
H1320 C1328 0.950 1_455 S
H1321 C1333 0.950 . S
H1322 C1330 0.950 . S
H1323 C1332 0.950 . S
H1324 C1334 0.950 . S
H1325 C1336 0.950 . S
H1326 C1338 0.950 . S
H1327 C1339 0.950 . S
C1328 H1320 0.950 1_655 S
C1328 C1329 1.386 . S
C1328 C1330 1.391 . S
C1329 C1328 1.386 . S
C1329 C1333 1.393 . S
C1330 H1322 0.950 . S
C1330 C1328 1.391 . S
C1330 C1331 1.400 . S
C1331 C1330 1.400 . S
C1331 C1332 1.398 . S
C1331 C1337 1.491 . S
C1332 H1323 0.950 . S
C1332 C1331 1.398 . S
C1332 C1333 1.391 . S
C1333 H1321 0.950 . S
C1333 C1329 1.393 . S
C1333 C1332 1.391 . S
C1334 H1324 0.950 . S
C1334 C1335 1.386 . S
C1334 C1336 1.391 . S
C1335 C1334 1.386 . S
C1335 C1339 1.393 . S
C1336 H1325 0.950 . S
C1336 C1334 1.391 . S
C1336 C1337 1.400 . S
C1337 C1331 1.491 . S
C1337 C1336 1.400 . S
C1337 C1338 1.398 . S
C1338 H1326 0.950 . S
C1338 C1337 1.398 . S
C1338 C1339 1.391 . S
C1339 H1327 0.950 . S
C1339 C1335 1.393 . S
C1339 C1338 1.391 . S
H1340 C1348 0.950 . S
H1341 C1353 0.950 . S
H1342 C1350 0.950 . S
H1343 C1352 0.950 . S
H1344 C1354 0.950 . S
H1345 C1356 0.950 . S
H1346 C1358 0.950 . S
H1347 C1359 0.950 . S
C1348 H1340 0.950 . S
C1348 C1349 1.386 . S
C1348 C1350 1.391 . S
C1349 C1348 1.386 . S
C1349 C1353 1.393 . S
C1350 H1342 0.950 . S
C1350 C1348 1.391 . S
C1350 C1351 1.400 . S
C1351 C1350 1.400 . S
C1351 C1352 1.398 . S
C1351 C1357 1.491 . S
C1352 H1343 0.950 . S
C1352 C1351 1.398 . S
C1352 C1353 1.391 . S
C1353 H1341 0.950 . S
C1353 C1349 1.393 . S
C1353 C1352 1.391 . S
C1354 H1344 0.950 . S
C1354 C1355 1.386 . S
C1354 C1356 1.391 . S
C1355 C1354 1.386 . S
C1355 C1359 1.393 . S
C1356 H1345 0.950 . S
C1356 C1354 1.391 . S
C1356 C1357 1.400 . S
C1357 C1351 1.491 . S
C1357 C1356 1.400 . S
C1357 C1358 1.398 . S
C1358 H1346 0.950 . S
C1358 C1357 1.398 . S
C1358 C1359 1.391 . S
C1359 H1347 0.950 . S
C1359 C1355 1.393 . S
C1359 C1358 1.391 . S
H1360 C1368 0.950 . S
H1361 C1373 0.950 . S
H1362 C1370 0.950 . S
H1363 C1372 0.950 . S
H1364 C1374 0.950 . S
H1365 C1376 0.950 . S
H1366 C1378 0.950 . S
H1367 C1379 0.950 . S
C1368 H1360 0.950 . S
C1368 C1369 1.386 . S
C1368 C1370 1.391 . S
C1369 C1368 1.386 . S
C1369 C1373 1.393 . S
C1370 H1362 0.950 . S
C1370 C1368 1.391 . S
C1370 C1371 1.400 . S
C1371 C1370 1.400 . S
C1371 C1372 1.398 . S
C1371 C1377 1.491 . S
C1372 H1363 0.950 . S
C1372 C1371 1.398 . S
C1372 C1373 1.391 . S
C1373 H1361 0.950 . S
C1373 C1369 1.393 . S
C1373 C1372 1.391 . S
C1374 H1364 0.950 . S
C1374 C1375 1.386 . S
C1374 C1376 1.391 . S
C1375 C1374 1.386 . S
C1375 C1379 1.393 . S
C1376 H1365 0.950 . S
C1376 C1374 1.391 . S
C1376 C1377 1.400 . S
C1377 C1371 1.491 . S
C1377 C1376 1.400 . S
C1377 C1378 1.398 . S
C1378 H1366 0.950 . S
C1378 C1377 1.398 . S
C1378 C1379 1.391 . S
C1379 H1367 0.950 . S
C1379 C1375 1.393 . S
C1379 C1378 1.391 . S
H1380 C1388 0.950 . S
H1381 C1393 0.950 . S
H1382 C1390 0.950 1_455 S
H1383 C1392 0.950 . S
H1384 C1394 0.950 . S
H1385 C1396 0.950 . S
H1386 C1398 0.950 . S
H1387 C1399 0.950 . S
C1388 H1380 0.950 . S
C1388 C1389 1.386 . S
C1388 C1390 1.391 . S
C1389 C1388 1.386 . S
C1389 C1393 1.393 . S
C1390 H1382 0.950 1_655 S
C1390 C1388 1.391 . S
C1390 C1391 1.400 1_655 S
C1391 C1390 1.400 1_455 S
C1391 C1392 1.398 1_455 S
C1391 C1397 1.491 . S
C1392 H1383 0.950 . S
C1392 C1391 1.398 1_655 S
C1392 C1393 1.391 . S
C1393 H1381 0.950 . S
C1393 C1389 1.393 . S
C1393 C1392 1.391 . S
C1394 H1384 0.950 . S
C1394 C1395 1.386 . S
C1394 C1396 1.391 . S
C1395 C1394 1.386 . S
C1395 C1399 1.393 . S
C1396 H1385 0.950 . S
C1396 C1394 1.391 . S
C1396 C1397 1.400 . S
C1397 C1391 1.491 . S
C1397 C1396 1.400 . S
C1397 C1398 1.398 . S
C1398 H1386 0.950 . S
C1398 C1397 1.398 . S
C1398 C1399 1.391 . S
C1399 H1387 0.950 . S
C1399 C1395 1.393 . S
C1399 C1398 1.391 . S
H1400 C1408 0.950 . S
H1401 C1413 0.950 . S
H1402 C1410 0.950 . S
H1403 C1412 0.950 . S
H1404 C1414 0.950 . S
H1405 C1416 0.950 . S
H1406 C1418 0.950 . S
H1407 C1419 0.950 . S
C1408 H1400 0.950 . S
C1408 C1409 1.386 . S
C1408 C1410 1.391 . S
C1409 C1408 1.386 . S
C1409 C1413 1.393 . S
C1410 H1402 0.950 . S
C1410 C1408 1.391 . S
C1410 C1411 1.400 . S
C1411 C1410 1.400 . S
C1411 C1412 1.398 . S
C1411 C1417 1.491 . S
C1412 H1403 0.950 . S
C1412 C1411 1.398 . S
C1412 C1413 1.391 . S
C1413 H1401 0.950 . S
C1413 C1409 1.393 . S
C1413 C1412 1.391 . S
C1414 H1404 0.950 . S
C1414 C1415 1.386 . S
C1414 C1416 1.391 . S
C1415 C1414 1.386 . S
C1415 C1419 1.393 . S
C1416 H1405 0.950 . S
C1416 C1414 1.391 . S
C1416 C1417 1.400 . S
C1417 C1411 1.491 . S
C1417 C1416 1.400 . S
C1417 C1418 1.398 . S
C1418 H1406 0.950 . S
C1418 C1417 1.398 . S
C1418 C1419 1.391 . S
C1419 H1407 0.950 . S
C1419 C1415 1.393 . S
C1419 C1418 1.391 . S
H1420 C1428 0.950 . S
H1421 C1433 0.950 . S
H1422 C1430 0.950 1_545 S
H1423 C1432 0.950 . S
H1424 C1434 0.950 . S
H1425 C1436 0.950 . S
H1426 C1438 0.950 . S
H1427 C1439 0.950 . S
C1428 H1420 0.950 . S
C1428 C1429 1.386 . S
C1428 C1430 1.391 . S
C1429 C1428 1.386 . S
C1429 C1433 1.393 . S
C1430 H1422 0.950 1_565 S
C1430 C1428 1.391 . S
C1430 C1431 1.400 1_565 S
C1431 C1430 1.400 1_545 S
C1431 C1432 1.398 1_545 S
C1431 C1437 1.491 . S
C1432 H1423 0.950 . S
C1432 C1431 1.398 1_565 S
C1432 C1433 1.391 . S
C1433 H1421 0.950 . S
C1433 C1429 1.393 . S
C1433 C1432 1.391 . S
C1434 H1424 0.950 . S
C1434 C1435 1.386 . S
C1434 C1436 1.391 . S
C1435 C1434 1.386 . S
C1435 C1439 1.393 . S
C1436 H1425 0.950 . S
C1436 C1434 1.391 . S
C1436 C1437 1.400 . S
C1437 C1431 1.491 . S
C1437 C1436 1.400 . S
C1437 C1438 1.398 . S
C1438 H1426 0.950 . S
C1438 C1437 1.398 . S
C1438 C1439 1.391 . S
C1439 H1427 0.950 . S
C1439 C1435 1.393 . S
C1439 C1438 1.391 . S
H1440 C1448 0.950 . S
H1441 C1453 0.950 . S
H1442 C1450 0.950 . S
H1443 C1452 0.950 . S
H1444 C1454 0.950 . S
H1445 C1456 0.950 . S
H1446 C1458 0.950 . S
H1447 C1459 0.950 . S
C1448 H1440 0.950 . S
C1448 C1449 1.386 . S
C1448 C1450 1.391 . S
C1449 C1448 1.386 . S
C1449 C1453 1.393 . S
C1450 H1442 0.950 . S
C1450 C1448 1.391 . S
C1450 C1451 1.400 . S
C1451 C1450 1.400 . S
C1451 C1452 1.398 . S
C1451 C1457 1.491 . S
C1452 H1443 0.950 . S
C1452 C1451 1.398 . S
C1452 C1453 1.391 . S
C1453 H1441 0.950 . S
C1453 C1449 1.393 . S
C1453 C1452 1.391 . S
C1454 H1444 0.950 . S
C1454 C1455 1.386 . S
C1454 C1456 1.391 . S
C1455 C1454 1.386 . S
C1455 C1459 1.393 . S
C1456 H1445 0.950 . S
C1456 C1454 1.391 . S
C1456 C1457 1.400 . S
C1457 C1451 1.491 . S
C1457 C1456 1.400 . S
C1457 C1458 1.398 . S
C1458 H1446 0.950 . S
C1458 C1457 1.398 . S
C1458 C1459 1.391 . S
C1459 H1447 0.950 . S
C1459 C1455 1.393 . S
C1459 C1458 1.391 . S
H1460 C1468 0.950 . S
H1461 C1473 0.950 . S
H1462 C1470 0.950 . S
H1463 C1472 0.950 . S
H1464 C1474 0.950 . S
H1465 C1476 0.950 . S
H1466 C1478 0.950 . S
H1467 C1479 0.950 . S
C1468 H1460 0.950 . S
C1468 C1469 1.386 . S
C1468 C1470 1.391 . S
C1469 C1468 1.386 . S
C1469 C1473 1.393 . S
C1470 H1462 0.950 . S
C1470 C1468 1.391 . S
C1470 C1471 1.400 . S
C1471 C1470 1.400 . S
C1471 C1472 1.398 . S
C1471 C1477 1.491 . S
C1472 H1463 0.950 . S
C1472 C1471 1.398 . S
C1472 C1473 1.391 . S
C1473 H1461 0.950 . S
C1473 C1469 1.393 . S
C1473 C1472 1.391 . S
C1474 H1464 0.950 . S
C1474 C1475 1.386 . S
C1474 C1476 1.391 . S
C1475 C1474 1.386 . S
C1475 C1479 1.393 . S
C1476 H1465 0.950 . S
C1476 C1474 1.391 . S
C1476 C1477 1.400 . S
C1477 C1471 1.491 . S
C1477 C1476 1.400 . S
C1477 C1478 1.398 . S
C1478 H1466 0.950 . S
C1478 C1477 1.398 . S
C1478 C1479 1.391 . S
C1479 H1467 0.950 . S
C1479 C1475 1.393 . S
C1479 C1478 1.391 . S
H1480 C1488 0.950 . S
H1481 C1493 0.950 . S
H1482 C1490 0.950 . S
H1483 C1492 0.950 . S
H1484 C1494 0.950 . S
H1485 C1496 0.950 . S
H1486 C1498 0.950 . S
H1487 C1499 0.950 . S
C1488 H1480 0.950 . S
C1488 C1489 1.386 . S
C1488 C1490 1.391 . S
C1489 C1488 1.386 . S
C1489 C1493 1.393 . S
C1490 H1482 0.950 . S
C1490 C1488 1.391 . S
C1490 C1491 1.400 . S
C1491 C1490 1.400 . S
C1491 C1492 1.398 . S
C1491 C1497 1.491 . S
C1492 H1483 0.950 . S
C1492 C1491 1.398 . S
C1492 C1493 1.391 . S
C1493 H1481 0.950 . S
C1493 C1489 1.393 . S
C1493 C1492 1.391 . S
C1494 H1484 0.950 . S
C1494 C1495 1.386 . S
C1494 C1496 1.391 . S
C1495 C1494 1.386 . S
C1495 C1499 1.393 . S
C1496 H1485 0.950 . S
C1496 C1494 1.391 . S
C1496 C1497 1.400 . S
C1497 C1491 1.491 . S
C1497 C1496 1.400 . S
C1497 C1498 1.398 . S
C1498 H1486 0.950 . S
C1498 C1497 1.398 . S
C1498 C1499 1.391 . S
C1499 H1487 0.950 . S
C1499 C1495 1.393 . S
C1499 C1498 1.391 . S
H1500 C1508 0.950 . S
H1501 C1513 0.950 . S
H1502 C1510 0.950 . S
H1503 C1512 0.950 . S
H1504 C1514 0.950 . S
H1505 C1516 0.950 . S
H1506 C1518 0.950 . S
H1507 C1519 0.950 . S
C1508 H1500 0.950 . S
C1508 C1509 1.386 . S
C1508 C1510 1.391 . S
C1509 C1508 1.386 . S
C1509 C1513 1.393 . S
C1510 H1502 0.950 . S
C1510 C1508 1.391 . S
C1510 C1511 1.400 . S
C1511 C1510 1.400 . S
C1511 C1512 1.398 . S
C1511 C1517 1.491 . S
C1512 H1503 0.950 . S
C1512 C1511 1.398 . S
C1512 C1513 1.391 . S
C1513 H1501 0.950 . S
C1513 C1509 1.393 . S
C1513 C1512 1.391 . S
C1514 H1504 0.950 . S
C1514 C1515 1.386 . S
C1514 C1516 1.391 . S
C1515 C1514 1.386 . S
C1515 C1519 1.393 . S
C1516 H1505 0.950 . S
C1516 C1514 1.391 . S
C1516 C1517 1.400 . S
C1517 C1511 1.491 . S
C1517 C1516 1.400 . S
C1517 C1518 1.398 . S
C1518 H1506 0.950 . S
C1518 C1517 1.398 . S
C1518 C1519 1.391 . S
C1519 H1507 0.950 . S
C1519 C1515 1.393 . S
C1519 C1518 1.391 . S
H1520 C1528 0.950 . S
H1521 C1533 0.950 . S
H1522 C1530 0.950 . S
H1523 C1532 0.950 . S
H1524 C1534 0.950 . S
H1525 C1536 0.950 . S
H1526 C1538 0.950 . S
H1527 C1539 0.950 . S
C1528 H1520 0.950 . S
C1528 C1529 1.386 . S
C1528 C1530 1.391 . S
C1529 C1528 1.386 . S
C1529 C1533 1.393 . S
C1530 H1522 0.950 . S
C1530 C1528 1.391 . S
C1530 C1531 1.400 . S
C1531 C1530 1.400 . S
C1531 C1532 1.398 . S
C1531 C1537 1.491 . S
C1532 H1523 0.950 . S
C1532 C1531 1.398 . S
C1532 C1533 1.391 . S
C1533 H1521 0.950 . S
C1533 C1529 1.393 . S
C1533 C1532 1.391 . S
C1534 H1524 0.950 . S
C1534 C1535 1.386 . S
C1534 C1536 1.391 . S
C1535 C1534 1.386 . S
C1535 C1539 1.393 . S
C1536 H1525 0.950 . S
C1536 C1534 1.391 . S
C1536 C1537 1.400 . S
C1537 C1531 1.491 . S
C1537 C1536 1.400 . S
C1537 C1538 1.398 . S
C1538 H1526 0.950 . S
C1538 C1537 1.398 . S
C1538 C1539 1.391 . S
C1539 H1527 0.950 . S
C1539 C1535 1.393 . S
C1539 C1538 1.391 . S
H1540 C1548 0.950 . S
H1541 C1553 0.950 . S
H1542 C1550 0.950 . S
H1543 C1552 0.950 . S
H1544 C1554 0.950 . S
H1545 C1556 0.950 . S
H1546 C1558 0.950 . S
H1547 C1559 0.950 . S
C1548 H1540 0.950 . S
C1548 C1549 1.386 . S
C1548 C1550 1.391 . S
C1549 C1548 1.386 . S
C1549 C1553 1.393 . S
C1550 H1542 0.950 . S
C1550 C1548 1.391 . S
C1550 C1551 1.400 . S
C1551 C1550 1.400 . S
C1551 C1552 1.398 . S
C1551 C1557 1.491 . S
C1552 H1543 0.950 . S
C1552 C1551 1.398 . S
C1552 C1553 1.391 . S
C1553 H1541 0.950 . S
C1553 C1549 1.393 . S
C1553 C1552 1.391 . S
C1554 H1544 0.950 . S
C1554 C1555 1.386 . S
C1554 C1556 1.391 . S
C1555 C1554 1.386 . S
C1555 C1559 1.393 . S
C1556 H1545 0.950 . S
C1556 C1554 1.391 . S
C1556 C1557 1.400 . S
C1557 C1551 1.491 . S
C1557 C1556 1.400 . S
C1557 C1558 1.398 . S
C1558 H1546 0.950 . S
C1558 C1557 1.398 . S
C1558 C1559 1.391 . S
C1559 H1547 0.950 . S
C1559 C1555 1.393 . S
C1559 C1558 1.391 . S
H1560 C1568 0.950 . S
H1561 C1573 0.950 . S
H1562 C1570 0.950 . S
H1563 C1572 0.950 . S
H1564 C1574 0.950 . S
H1565 C1576 0.950 . S
H1566 C1578 0.950 . S
H1567 C1579 0.950 . S
C1568 H1560 0.950 . S
C1568 C1569 1.386 . S
C1568 C1570 1.391 . S
C1569 C1568 1.386 . S
C1569 C1573 1.393 . S
C1570 H1562 0.950 . S
C1570 C1568 1.391 . S
C1570 C1571 1.400 . S
C1571 C1570 1.400 . S
C1571 C1572 1.398 . S
C1571 C1577 1.491 . S
C1572 H1563 0.950 . S
C1572 C1571 1.398 . S
C1572 C1573 1.391 . S
C1573 H1561 0.950 . S
C1573 C1569 1.393 . S
C1573 C1572 1.391 . S
C1574 H1564 0.950 . S
C1574 C1575 1.386 . S
C1574 C1576 1.391 . S
C1575 C1574 1.386 . S
C1575 C1579 1.393 . S
C1576 H1565 0.950 . S
C1576 C1574 1.391 . S
C1576 C1577 1.400 . S
C1577 C1571 1.491 . S
C1577 C1576 1.400 . S
C1577 C1578 1.398 . S
C1578 H1566 0.950 . S
C1578 C1577 1.398 . S
C1578 C1579 1.391 . S
C1579 H1567 0.950 . S
C1579 C1575 1.393 . S
C1579 C1578 1.391 . S
H1580 C1588 0.950 . S
H1581 C1593 0.950 . S
H1582 C1590 0.950 . S
H1583 C1592 0.950 . S
H1584 C1594 0.950 . S
H1585 C1596 0.950 . S
H1586 C1598 0.950 . S
H1587 C1599 0.950 . S
C1588 H1580 0.950 . S
C1588 C1589 1.386 . S
C1588 C1590 1.391 . S
C1589 C1588 1.386 . S
C1589 C1593 1.393 . S
C1590 H1582 0.950 . S
C1590 C1588 1.391 . S
C1590 C1591 1.400 . S
C1591 C1590 1.400 . S
C1591 C1592 1.398 . S
C1591 C1597 1.491 . S
C1592 H1583 0.950 . S
C1592 C1591 1.398 . S
C1592 C1593 1.391 . S
C1593 H1581 0.950 . S
C1593 C1589 1.393 . S
C1593 C1592 1.391 . S
C1594 H1584 0.950 . S
C1594 C1595 1.386 . S
C1594 C1596 1.391 . S
C1595 C1594 1.386 . S
C1595 C1599 1.393 . S
C1596 H1585 0.950 . S
C1596 C1594 1.391 . S
C1596 C1597 1.400 . S
C1597 C1591 1.491 . S
C1597 C1596 1.400 . S
C1597 C1598 1.398 . S
C1598 H1586 0.950 . S
C1598 C1597 1.398 . S
C1598 C1599 1.391 . S
C1599 H1587 0.950 . S
C1599 C1595 1.393 . S
C1599 C1598 1.391 . S
H1600 C1608 0.950 . S
H1601 C1613 0.950 . S
H1602 C1610 0.950 . S
H1603 C1612 0.950 . S
H1604 C1614 0.950 . S
H1605 C1616 0.950 . S
H1606 C1618 0.950 . S
H1607 C1619 0.950 . S
C1608 H1600 0.950 . S
C1608 C1609 1.386 . S
C1608 C1610 1.391 . S
C1609 C1608 1.386 . S
C1609 C1613 1.393 . S
C1610 H1602 0.950 . S
C1610 C1608 1.391 . S
C1610 C1611 1.400 . S
C1611 C1610 1.400 . S
C1611 C1612 1.398 . S
C1611 C1617 1.491 . S
C1612 H1603 0.950 . S
C1612 C1611 1.398 . S
C1612 C1613 1.391 . S
C1613 H1601 0.950 . S
C1613 C1609 1.393 . S
C1613 C1612 1.391 . S
C1614 H1604 0.950 . S
C1614 C1615 1.386 . S
C1614 C1616 1.391 . S
C1615 C1614 1.386 . S
C1615 C1619 1.393 . S
C1616 H1605 0.950 . S
C1616 C1614 1.391 . S
C1616 C1617 1.400 . S
C1617 C1611 1.491 . S
C1617 C1616 1.400 . S
C1617 C1618 1.398 . S
C1618 H1606 0.950 . S
C1618 C1617 1.398 . S
C1618 C1619 1.391 . S
C1619 H1607 0.950 . S
C1619 C1615 1.393 . S
C1619 C1618 1.391 . S
H1620 C1628 0.950 . S
H1621 C1633 0.950 . S
H1622 C1630 0.950 . S
H1623 C1632 0.950 . S
H1624 C1634 0.950 . S
H1625 C1636 0.950 . S
H1626 C1638 0.950 . S
H1627 C1639 0.950 . S
C1628 H1620 0.950 . S
C1628 C1629 1.386 . S
C1628 C1630 1.391 . S
C1629 C1628 1.386 . S
C1629 C1633 1.393 . S
C1630 H1622 0.950 . S
C1630 C1628 1.391 . S
C1630 C1631 1.400 . S
C1631 C1630 1.400 . S
C1631 C1632 1.398 . S
C1631 C1637 1.491 . S
C1632 H1623 0.950 . S
C1632 C1631 1.398 . S
C1632 C1633 1.391 . S
C1633 H1621 0.950 . S
C1633 C1629 1.393 . S
C1633 C1632 1.391 . S
C1634 H1624 0.950 . S
C1634 C1635 1.386 . S
C1634 C1636 1.391 . S
C1635 C1634 1.386 . S
C1635 C1639 1.393 . S
C1636 H1625 0.950 . S
C1636 C1634 1.391 . S
C1636 C1637 1.400 . S
C1637 C1631 1.491 . S
C1637 C1636 1.400 . S
C1637 C1638 1.398 . S
C1638 H1626 0.950 . S
C1638 C1637 1.398 . S
C1638 C1639 1.391 . S
C1639 H1627 0.950 . S
C1639 C1635 1.393 . S
C1639 C1638 1.391 . S
H1640 C1648 0.950 . S
H1641 C1653 0.950 . S
H1642 C1650 0.943 . S
H1643 C1652 0.950 . S
H1644 C1654 0.950 . S
H1645 C1656 0.950 . S
H1646 C1658 0.950 . S
H1647 C1659 0.950 . S
C1648 H1640 0.950 . S
C1648 C1649 1.386 . S
C1648 C1650 1.391 1_565 S
C1649 C1648 1.386 . S
C1649 C1653 1.393 1_565 S
C1650 H1642 0.943 . S
C1650 C1648 1.391 1_545 S
C1650 C1651 1.400 . S
C1651 C1650 1.400 . S
C1651 C1652 1.398 . S
C1651 C1657 1.491 . S
C1652 H1643 0.950 . S
C1652 C1651 1.398 . S
C1652 C1653 1.391 . S
C1653 H1641 0.950 . S
C1653 C1649 1.393 1_545 S
C1653 C1652 1.391 . S
C1654 H1644 0.950 . S
C1654 C1655 1.386 . S
C1654 C1656 1.391 . S
C1655 C1654 1.386 . S
C1655 C1659 1.393 . S
C1656 H1645 0.950 . S
C1656 C1654 1.391 . S
C1656 C1657 1.400 . S
C1657 C1651 1.491 . S
C1657 C1656 1.400 . S
C1657 C1658 1.398 . S
C1658 H1646 0.950 . S
C1658 C1657 1.398 . S
C1658 C1659 1.391 . S
C1659 H1647 0.950 . S
C1659 C1655 1.393 . S
C1659 C1658 1.391 . S
H1660 C1668 0.950 . S
H1661 C1673 0.950 . S
H1662 C1670 0.950 . S
H1663 C1672 0.950 . S
H1664 C1674 0.950 . S
H1665 C1676 0.950 1_655 S
H1666 C1678 0.950 . S
H1667 C1679 0.950 . S
C1668 H1660 0.950 . S
C1668 C1669 1.386 . S
C1668 C1670 1.391 . S
C1669 C1668 1.386 . S
C1669 C1673 1.393 . S
C1670 H1662 0.950 . S
C1670 C1668 1.391 . S
C1670 C1671 1.400 . S
C1671 C1670 1.400 . S
C1671 C1672 1.398 . S
C1671 C1677 1.491 1_655 S
C1672 H1663 0.950 . S
C1672 C1671 1.398 . S
C1672 C1673 1.391 . S
C1673 H1661 0.950 . S
C1673 C1669 1.393 . S
C1673 C1672 1.391 . S
C1674 H1664 0.950 . S
C1674 C1675 1.386 . S
C1674 C1676 1.391 . S
C1675 C1674 1.386 . S
C1675 C1679 1.393 . S
C1676 H1665 0.950 1_455 S
C1676 C1674 1.391 . S
C1676 C1677 1.400 . S
C1677 C1671 1.491 1_455 S
C1677 C1676 1.400 . S
C1677 C1678 1.398 . S
C1678 H1666 0.950 . S
C1678 C1677 1.398 . S
C1678 C1679 1.391 . S
C1679 H1667 0.950 . S
C1679 C1675 1.393 . S
C1679 C1678 1.391 . S
H1680 C1688 0.950 . S
H1681 C1693 0.950 . S
H1682 C1690 0.950 . S
H1683 C1692 0.950 . S
H1684 C1694 0.950 . S
H1685 C1696 0.950 . S
H1686 C1698 0.950 . S
H1687 C1699 0.950 . S
C1688 H1680 0.950 . S
C1688 C1689 1.386 . S
C1688 C1690 1.391 . S
C1689 C1688 1.386 . S
C1689 C1693 1.393 . S
C1690 H1682 0.950 . S
C1690 C1688 1.391 . S
C1690 C1691 1.400 . S
C1691 C1690 1.400 . S
C1691 C1692 1.398 . S
C1691 C1697 1.491 . S
C1692 H1683 0.950 . S
C1692 C1691 1.398 . S
C1692 C1693 1.391 . S
C1693 H1681 0.950 . S
C1693 C1689 1.393 . S
C1693 C1692 1.391 . S
C1694 H1684 0.950 . S
C1694 C1695 1.386 . S
C1694 C1696 1.391 . S
C1695 C1694 1.386 . S
C1695 C1699 1.393 . S
C1696 H1685 0.950 . S
C1696 C1694 1.391 . S
C1696 C1697 1.400 . S
C1697 C1691 1.491 . S
C1697 C1696 1.400 . S
C1697 C1698 1.398 . S
C1698 H1686 0.950 . S
C1698 C1697 1.398 . S
C1698 C1699 1.391 . S
C1699 H1687 0.950 . S
C1699 C1695 1.393 . S
C1699 C1698 1.391 . S
H1700 C1708 0.950 . S
H1701 C1713 0.950 . S
H1702 C1710 0.950 . S
H1703 C1712 0.950 1_565 S
H1704 C1714 0.950 . S
H1705 C1716 0.950 . S
H1706 C1718 0.950 . S
H1707 C1719 0.950 . S
C1708 H1700 0.950 . S
C1708 C1709 1.386 . S
C1708 C1710 1.391 . S
C1709 C1708 1.386 . S
C1709 C1713 1.393 . S
C1710 H1702 0.950 . S
C1710 C1708 1.391 . S
C1710 C1711 1.400 . S
C1711 C1710 1.400 . S
C1711 C1712 1.398 . S
C1711 C1717 1.491 1_545 S
C1712 H1703 0.950 1_545 S
C1712 C1711 1.398 . S
C1712 C1713 1.391 . S
C1713 H1701 0.950 . S
C1713 C1709 1.393 . S
C1713 C1712 1.391 . S
C1714 H1704 0.950 . S
C1714 C1715 1.386 . S
C1714 C1716 1.391 . S
C1715 C1714 1.386 . S
C1715 C1719 1.393 . S
C1716 H1705 0.950 . S
C1716 C1714 1.391 . S
C1716 C1717 1.400 . S
C1717 C1711 1.491 1_565 S
C1717 C1716 1.400 . S
C1717 C1718 1.398 . S
C1718 H1706 0.950 . S
C1718 C1717 1.398 . S
C1718 C1719 1.391 . S
C1719 H1707 0.950 . S
C1719 C1715 1.393 . S
C1719 C1718 1.391 . S
H1720 C1728 0.950 . S
H1721 C1733 0.950 . S
H1722 C1730 0.950 . S
H1723 C1732 0.950 . S
H1724 C1734 0.960 . S
H1725 C1736 0.950 . S
H1726 C1738 0.950 . S
H1727 C1739 0.950 . S
C1728 H1720 0.950 . S
C1728 C1729 1.386 . S
C1728 C1730 1.391 . S
C1729 C1728 1.386 . S
C1729 C1733 1.393 . S
C1730 H1722 0.950 . S
C1730 C1728 1.391 . S
C1730 C1731 1.400 . S
C1731 C1730 1.400 . S
C1731 C1732 1.398 . S
C1731 C1737 1.491 . S
C1732 H1723 0.950 . S
C1732 C1731 1.398 . S
C1732 C1733 1.391 . S
C1733 H1721 0.950 . S
C1733 C1729 1.393 . S
C1733 C1732 1.391 . S
C1734 H1724 0.960 . S
C1734 C1735 1.397 . S
C1734 C1736 1.370 1_655 S
C1735 C1734 1.397 . S
C1735 C1739 1.393 . S
C1736 H1725 0.950 . S
C1736 C1734 1.370 1_455 S
C1736 C1737 1.400 . S
C1737 C1731 1.491 . S
C1737 C1736 1.400 . S
C1737 C1738 1.398 . S
C1738 H1726 0.950 . S
C1738 C1737 1.398 . S
C1738 C1739 1.391 1_455 S
C1739 H1727 0.950 . S
C1739 C1735 1.393 . S
C1739 C1738 1.391 1_655 S
H1740 C1748 0.950 . S
H1741 C1753 0.950 . S
H1742 C1750 0.950 . S
H1743 C1752 0.950 . S
H1744 C1754 0.950 . S
H1745 C1756 0.950 . S
H1746 C1758 0.950 . S
H1747 C1759 0.950 . S
C1748 H1740 0.950 . S
C1748 C1749 1.386 . S
C1748 C1750 1.391 . S
C1749 C1748 1.386 . S
C1749 C1753 1.393 . S
C1750 H1742 0.950 . S
C1750 C1748 1.391 . S
C1750 C1751 1.400 . S
C1751 C1750 1.400 . S
C1751 C1752 1.398 . S
C1751 C1757 1.491 . S
C1752 H1743 0.950 . S
C1752 C1751 1.398 . S
C1752 C1753 1.391 . S
C1753 H1741 0.950 . S
C1753 C1749 1.393 . S
C1753 C1752 1.391 . S
C1754 H1744 0.950 . S
C1754 C1755 1.386 . S
C1754 C1756 1.391 . S
C1755 C1754 1.386 . S
C1755 C1759 1.393 . S
C1756 H1745 0.950 . S
C1756 C1754 1.391 . S
C1756 C1757 1.400 . S
C1757 C1751 1.491 . S
C1757 C1756 1.400 . S
C1757 C1758 1.398 . S
C1758 H1746 0.950 . S
C1758 C1757 1.398 . S
C1758 C1759 1.391 . S
C1759 H1747 0.950 . S
C1759 C1755 1.393 . S
C1759 C1758 1.391 . S
H1760 C1768 0.950 . S
H1761 C1773 0.950 . S
H1762 C1770 0.950 . S
H1763 C1772 0.950 . S
H1764 C1774 0.950 . S
H1765 C1776 0.950 . S
H1766 C1778 0.950 . S
H1767 C1779 0.950 . S
C1768 H1760 0.950 . S
C1768 C1769 1.386 . S
C1768 C1770 1.391 . S
C1769 C1768 1.386 . S
C1769 C1773 1.393 . S
C1770 H1762 0.950 . S
C1770 C1768 1.391 . S
C1770 C1771 1.400 . S
C1771 C1770 1.400 . S
C1771 C1772 1.398 . S
C1771 C1777 1.491 . S
C1772 H1763 0.950 . S
C1772 C1771 1.398 . S
C1772 C1773 1.391 . S
C1773 H1761 0.950 . S
C1773 C1769 1.393 . S
C1773 C1772 1.391 . S
C1774 H1764 0.950 . S
C1774 C1775 1.386 . S
C1774 C1776 1.391 . S
C1775 C1774 1.386 . S
C1775 C1779 1.393 . S
C1776 H1765 0.950 . S
C1776 C1774 1.391 . S
C1776 C1777 1.400 . S
C1777 C1771 1.491 . S
C1777 C1776 1.400 . S
C1777 C1778 1.398 . S
C1778 H1766 0.950 . S
C1778 C1777 1.398 . S
C1778 C1779 1.391 . S
C1779 H1767 0.950 . S
C1779 C1775 1.393 . S
C1779 C1778 1.391 . S
H1780 C1788 0.950 . S
H1781 C1793 0.950 . S
H1782 C1790 0.950 . S
H1783 C1792 0.950 . S
H1784 C1794 0.950 . S
H1785 C1796 0.950 . S
H1786 C1798 0.950 . S
H1787 C1799 0.950 . S
C1788 H1780 0.950 . S
C1788 C1789 1.386 . S
C1788 C1790 1.391 . S
C1789 C1788 1.386 . S
C1789 C1793 1.393 . S
C1790 H1782 0.950 . S
C1790 C1788 1.391 . S
C1790 C1791 1.400 . S
C1791 C1790 1.400 . S
C1791 C1792 1.398 . S
C1791 C1797 1.491 . S
C1792 H1783 0.950 . S
C1792 C1791 1.398 . S
C1792 C1793 1.391 . S
C1793 H1781 0.950 . S
C1793 C1789 1.393 . S
C1793 C1792 1.391 . S
C1794 H1784 0.950 . S
C1794 C1795 1.386 . S
C1794 C1796 1.391 . S
C1795 C1794 1.386 . S
C1795 C1799 1.393 . S
C1796 H1785 0.950 . S
C1796 C1794 1.391 . S
C1796 C1797 1.400 . S
C1797 C1791 1.491 . S
C1797 C1796 1.400 . S
C1797 C1798 1.398 . S
C1798 H1786 0.950 . S
C1798 C1797 1.398 . S
C1798 C1799 1.391 . S
C1799 H1787 0.950 . S
C1799 C1795 1.393 . S
C1799 C1798 1.391 . S
C729 C20 1.032 . S
C735 C84 1.038 . S
C749 C4 1.059 . S
C755 C60 1.056 . S
C769 C44 1.048 . S
C775 C100 1.042 . S
C789 C140 1.060 . S
C795 C164 1.063 . S
C809 C204 1.047 . S
C815 C180 1.041 . S
C829 C220 1.038 . S
C835 C124 1.043 . S
C849 C324 1.055 . S
C855 C260 1.052 . S
C869 C244 1.047 . S
C875 C300 1.043 . S
C889 C340 1.034 . S
C895 C284 1.039 . S
C909 C404 1.052 . S
C915 C380 1.048 . S
C929 C420 1.055 . S
C935 C444 1.058 . S
C949 C364 1.049 . S
C955 C460 1.046 . S
C969 C500 1.043 . S
C975 C564 1.047 . S
C989 C484 1.053 . S
C995 C540 1.050 . S
C1009 C524 1.038 . S
C1015 C580 1.033 . S
C1029 C644 1.038 . S
C1035 C620 1.032 . S
C1049 C684 1.055 . S
C1055 C660 1.050 . S
C1069 C604 1.041 . S
C1075 C700 1.035 . S
C1089 C2 1.718 . S
C1095 C202 1.699 . S
C1109 C122 1.697 . S
C1115 C42 1.715 . S
C1129 C162 1.716 . S
C1135 C82 1.697 . S
C1149 C242 1.698 . S
C1155 C442 1.702 . S
C1169 C282 1.707 . S
C1175 C362 1.696 . S
C1189 C402 1.699 . S
C1195 C322 1.700 . S
C1209 C482 1.711 . S
C1215 C682 1.724 . S
C1229 C602 1.724 . S
C1235 C522 1.712 . S
C1249 C642 1.721 . S
C1255 C562 1.718 . S
C1269 C423 2.274 . S
C1275 C23 2.276 1_565 S
C1289 C63 2.271 . S
C1295 C463 2.276 . S
C1309 C383 2.268 . S
C1315 C103 2.272 . S
C1329 C143 2.267 1_655 S
C1335 C583 2.270 . S
C1349 C183 2.274 . S
C1355 C503 2.277 . S
C1369 C543 2.268 . S
C1375 C223 2.269 . S
C1389 C663 2.271 . S
C1395 C263 2.268 . S
C1409 C303 2.270 . S
C1415 C703 2.267 . S
C1429 C343 2.277 . S
C1435 C623 2.276 . S
C1449 C105 1.731 . S
C1455 C31 1.727 . S
C1469 C25 1.724 . S
C1475 C71 1.719 . S
C1489 C111 1.722 . S
C1495 C65 1.728 . S
C1509 C185 1.732 . S
C1515 C151 1.727 . S
C1529 C225 1.727 . S
C1535 C191 1.722 . S
C1549 C231 1.717 . S
C1555 C145 1.723 . S
C1569 C345 1.731 . S
C1575 C271 1.727 . S
C1589 C311 1.721 . S
C1595 C265 1.726 . S
C1609 C305 1.726 . S
C1615 C351 1.721 . S
C1629 C391 1.717 . S
C1635 C425 1.723 1_655 S
C1649 C431 1.731 . S
C1655 C465 1.736 . S
C1669 C385 1.736 . S
C1675 C471 1.732 . S
C1689 C511 1.731 . S
C1695 C585 1.736 1_565 S
C1709 C551 1.731 . S
C1715 C505 1.735 . S
C1729 C545 1.736 . S
C1735 C591 1.731 . S
C1749 C631 1.720 . S
C1755 C665 1.726 . S
C1769 C671 1.718 . S
C1775 C705 1.724 . S
C1789 C625 1.729 . S
C1795 C711 1.723 . S
