# Generated by pormake.
# Topology zfu, (5)-cn, num edge types: 1
# Building blocks:
#     Node 0, Type 0, BuildingBlock: XOMCOT_clean_sbu_0, # of connection points: 5
#     Node 1, Type 0, BuildingBlock: XOMCOT_clean_sbu_0, # of connection points: 5
#     Node 2, Type 0, BuildingBlock: XOMCOT_clean_sbu_0, # of connection points: 5
#     Node 3, Type 0, BuildingBlock: XOMCOT_clean_sbu_0, # of connection points: 5
#     Node 4, Type 0, BuildingBlock: XOMCOT_clean_sbu_0, # of connection points: 5
#     Node 5, Type 0, BuildingBlock: XOMCOT_clean_sbu_0, # of connection points: 5
#     Node 6, Type 0, BuildingBlock: XOMCOT_clean_sbu_0, # of connection points: 5
#     Node 7, Type 0, BuildingBlock: XOMCOT_clean_sbu_0, # of connection points: 5
#     Edge 8, Type (0, 0), BuildingBlock: ZUJKAS_clean_linker_0, # of connection points: 2
#     Edge 9, Type (0, 0), BuildingBlock: ZUJKAS_clean_linker_0, # of connection points: 2
#     Edge 10, Type (0, 0), BuildingBlock: ZUJKAS_clean_linker_0, # of connection points: 2
#     Edge 11, Type (0, 0), BuildingBlock: ZUJKAS_clean_linker_0, # of connection points: 2
#     Edge 12, Type (0, 0), BuildingBlock: ZUJKAS_clean_linker_0, # of connection points: 2
#     Edge 13, Type (0, 0), BuildingBlock: ZUJKAS_clean_linker_0, # of connection points: 2
#     Edge 14, Type (0, 0), BuildingBlock: ZUJKAS_clean_linker_0, # of connection points: 2
#     Edge 15, Type (0, 0), BuildingBlock: ZUJKAS_clean_linker_0, # of connection points: 2
#     Edge 16, Type (0, 0), BuildingBlock: ZUJKAS_clean_linker_0, # of connection points: 2
#     Edge 17, Type (0, 0), BuildingBlock: ZUJKAS_clean_linker_0, # of connection points: 2
#     Edge 18, Type (0, 0), BuildingBlock: ZUJKAS_clean_linker_0, # of connection points: 2
#     Edge 19, Type (0, 0), BuildingBlock: ZUJKAS_clean_linker_0, # of connection points: 2
#     Edge 20, Type (0, 0), BuildingBlock: ZUJKAS_clean_linker_0, # of connection points: 2
#     Edge 21, Type (0, 0), BuildingBlock: ZUJKAS_clean_linker_0, # of connection points: 2
#     Edge 22, Type (0, 0), BuildingBlock: ZUJKAS_clean_linker_0, # of connection points: 2
#     Edge 23, Type (0, 0), BuildingBlock: ZUJKAS_clean_linker_0, # of connection points: 2
#     Edge 24, Type (0, 0), BuildingBlock: ZUJKAS_clean_linker_0, # of connection points: 2
#     Edge 25, Type (0, 0), BuildingBlock: ZUJKAS_clean_linker_0, # of connection points: 2
#     Edge 26, Type (0, 0), BuildingBlock: ZUJKAS_clean_linker_0, # of connection points: 2
#     Edge 27, Type (0, 0), BuildingBlock: ZUJKAS_clean_linker_0, # of connection points: 2
# Relax obj value: 0.170
# Max RMSD: 0.196
# Mean RMSD: 0.196
data_MOF--net-zfu--node1-XOMCOT_clean_sbu_0--edge1-ZUJKAS_clean_linker_0
_symmetry_space_group_name_H-M    P1
_symmetry_Int_Tables_number       1
_symmetry_cell_setting            triclinic
loop_
_symmetry_equiv_pos_as_xyz
'x, y, z'
_cell_length_a     51.498114
_cell_length_b     51.171524
_cell_length_c     32.128346
_cell_angle_alpha  90.10488
_cell_angle_beta   89.882043
_cell_angle_gamma 89.917944
loop_
_atom_site_label
_atom_site_type_symbol
_atom_site_fract_x
_atom_site_fract_y
_atom_site_fract_z
_atom_type_partial_charge
Co0 Co 0.44589 0.75548 0.98797 0.0
C1 C 0.48494 0.71304 1.00329 0.0
C2 C 0.45248 0.69967 0.9675 0.0
C3 C 0.46965 0.67936 0.9717 0.0
N4 N 0.46185 0.7209 0.98746 0.0
N5 N 0.49009 0.68777 0.994 0.0
H6 H 0.49791 0.72543 0.02085 0.0
H7 H 0.43469 0.69882 0.94989 0.0
C8 C 0.39969 0.74969 0.93222 0.0
O9 O 0.38635 0.76379 0.95901 0.0
N10 N 0.43025 0.79008 0.9861 0.0
C11 C 0.42031 0.80551 0.0163 0.0
C12 C 0.41105 0.82816 0.9984 0.0
C13 C 0.42744 0.80392 0.95063 0.0
N14 N 0.41538 0.82703 0.957 0.0
C15 C 0.42381 0.7513 0.06925 0.0
C16 C 0.38847 0.71212 0.05338 0.0
C17 C 0.39141 0.72103 0.09442 0.0
C18 C 0.4093 0.74101 0.10191 0.0
C19 C 0.40345 0.72305 0.02135 0.0
N20 N 0.42069 0.74281 0.02921 0.0
H21 H 0.43825 0.76572 0.07692 0.0
H22 H 0.40157 0.71475 0.99074 0.0
H23 H 0.41941 0.80101 0.04898 0.0
H24 H 0.43384 0.79687 0.92054 0.0
O25 O 0.4714 0.76785 0.02658 0.0
O26 O 0.47589 0.76991 0.9582 0.0
O27 O 0.42367 0.74473 0.939 0.0
C28 C 0.48536 0.77489 0.99503 0.0
H29 H 0.46771 0.66015 0.95789 0.0
H30 H 0.40118 0.84386 0.0146 0.0
H31 H 0.37504 0.6965 0.04609 0.0
H32 H 0.41301 0.74799 0.13319 0.0
Co33 Co 0.74842 0.95745 0.22207 0.0
C34 C 0.79432 0.99053 0.24284 0.0
C35 C 0.79196 0.98038 0.17804 0.0
C36 C 0.81321 0.99604 0.18364 0.0
N37 N 0.78026 0.9767 0.21505 0.0
N38 N 0.81476 1.00245 0.22429 0.0
H39 H 0.78956 0.99204 0.27559 0.0
H40 H 0.78503 0.9729 0.14861 0.0
C41 C 0.75804 0.90876 0.17229 0.0
O42 O 0.7469 0.89554 0.20247 0.0
N43 N 0.71588 0.93834 0.22576 0.0
C44 C 0.70192 0.92937 0.25833 0.0
C45 C 0.68026 0.9166 0.24334 0.0
C46 C 0.70203 0.93156 0.19178 0.0
N47 N 0.6805 0.91783 0.20138 0.0
C48 C 0.75721 0.93843 0.30423 0.0
C49 C 0.79922 0.90656 0.28755 0.0
C50 C 0.7898 0.90801 0.32863 0.0
C51 C 0.76885 0.92477 0.33659 0.0
C52 C 0.7871 0.92103 0.2559 0.0
N53 N 0.76536 0.93561 0.26403 0.0
H54 H 0.74185 0.95187 0.31212 0.0
H55 H 0.79558 0.92078 0.22515 0.0
H56 H 0.70667 0.93159 0.29074 0.0
H57 H 0.70792 0.93647 0.16042 0.0
O58 O 0.73565 0.98378 0.25936 0.0
O59 O 0.72986 0.98481 0.19123 0.0
O60 O 0.75978 0.93366 0.17482 0.0
C61 C 0.72629 0.99588 0.22746 0.0
H62 H 0.82593 1.00307 0.15927 0.0
H63 H 0.66583 0.90663 0.26197 0.0
H64 H 0.81581 0.89448 0.27979 0.0
H65 H 0.76173 0.92798 0.36793 0.0
Co66 Co 0.5665 0.26017 0.4955 0.0
C67 C 0.52268 0.29831 0.51032 0.0
C68 C 0.55936 0.31693 0.49985 0.0
C69 C 0.54085 0.33593 0.50477 0.0
N70 N 0.54823 0.29321 0.5036 0.0
N71 N 0.51775 0.32433 0.51133 0.0
H72 H 0.5079 0.28352 0.51399 0.0
H73 H 0.57945 0.32048 0.49239 0.0
C74 C 0.609 0.27236 0.43292 0.0
O75 O 0.62379 0.25421 0.44935 0.0
N76 N 0.58455 0.22719 0.48656 0.0
C77 C 0.59717 0.21252 0.51484 0.0
C78 C 0.60773 0.19111 0.49507 0.0
C79 C 0.58684 0.21394 0.4502 0.0
N80 N 0.6015 0.19212 0.45432 0.0
C81 C 0.58666 0.26328 0.57843 0.0
C82 C 0.62759 0.29677 0.56423 0.0
C83 C 0.62222 0.28912 0.60522 0.0
C84 C 0.60158 0.27191 0.61186 0.0
C85 C 0.61217 0.28757 0.53141 0.0
N86 N 0.59176 0.27096 0.53843 0.0
H87 H 0.57075 0.25044 0.58551 0.0
H88 H 0.61631 0.29517 0.50108 0.0
H89 H 0.59888 0.2169 0.54755 0.0
H90 H 0.57912 0.22095 0.42097 0.0
O91 O 0.54269 0.24218 0.5315 0.0
O92 O 0.53701 0.24636 0.46369 0.0
O93 O 0.58653 0.2773 0.44826 0.0
C94 C 0.52895 0.23678 0.49902 0.0
H95 H 0.54404 0.35675 0.50191 0.0
H96 H 0.61929 0.17604 0.50968 0.0
H97 H 0.64333 0.31013 0.55751 0.0
H98 H 0.59624 0.26578 0.64297 0.0
Co99 Co 0.26448 0.06493 0.74186 0.0
C100 C 0.2218 0.02843 0.76634 0.0
C101 C 0.21784 0.04291 0.70394 0.0
C102 C 0.1975 0.02643 0.71194 0.0
N103 N 0.23291 0.04454 0.73811 0.0
N104 N 0.20001 0.01729 0.75098 0.0
H105 H 0.22946 0.02487 0.79717 0.0
H106 H 0.22162 0.05246 0.67459 0.0
C107 C 0.25325 0.1124 0.68996 0.0
O108 O 0.26624 0.12681 0.71658 0.0
N109 N 0.29655 0.08513 0.74279 0.0
C110 C 0.30923 0.09727 0.77402 0.0
C111 C 0.33018 0.1105 0.75768 0.0
C112 C 0.31047 0.09072 0.7082 0.0
N113 N 0.33086 0.10657 0.71613 0.0
C114 C 0.2564 0.08421 0.82422 0.0
C115 C 0.21247 0.1136 0.80885 0.0
C116 C 0.22167 0.11169 0.84981 0.0
C117 C 0.24401 0.09684 0.8571 0.0
C118 C 0.22554 0.1005 0.77661 0.0
N119 N 0.24785 0.08674 0.78423 0.0
H120 H 0.27273 0.07185 0.83145 0.0
H121 H 0.21694 0.10057 0.74603 0.0
H122 H 0.30386 0.09732 0.80637 0.0
H123 H 0.30516 0.08377 0.67757 0.0
O124 O 0.27909 0.03954 0.77869 0.0
O125 O 0.28279 0.03785 0.71008 0.0
O126 O 0.25122 0.08772 0.69519 0.0
C127 C 0.28763 0.02727 0.7462 0.0
H128 H 0.18243 0.02083 0.69024 0.0
H129 H 0.3433 0.12284 0.77511 0.0
H130 H 0.19475 0.12418 0.80205 0.0
H131 H 0.25177 0.09464 0.88821 0.0
Co132 Co 0.95687 0.76536 0.81079 0.0
C133 C 0.99675 0.8077 0.80049 0.0
C134 C 0.96119 0.82182 0.8271 0.0
C135 C 0.97834 0.84224 0.82482 0.0
N136 N 0.9725 0.80005 0.8116 0.0
N137 N 1.00072 0.83339 0.80824 0.0
H138 H 0.01133 0.79491 0.78737 0.0
H139 H 0.94202 0.82296 0.84055 0.0
C140 C 0.90844 0.77118 0.86237 0.0
O141 O 0.89642 0.75631 0.83515 0.0
N142 N 0.94146 0.73069 0.81227 0.0
C143 C 0.93322 0.71482 0.78145 0.0
C144 C 0.92357 0.69218 0.79892 0.0
C145 C 0.93729 0.71717 0.84773 0.0
N146 N 0.92595 0.69382 0.84067 0.0
C147 C 0.93888 0.76869 0.72687 0.0
C148 C 0.89973 0.80481 0.73803 0.0
C149 C 0.9051 0.79594 0.6975 0.0
C150 C 0.92515 0.7777 0.69246 0.0
C151 C 0.91431 0.79554 0.77178 0.0
N152 N 0.93334 0.77711 0.76632 0.0
H153 H 0.9544 0.75503 0.7211 0.0
H154 H 0.91038 0.80389 0.80184 0.0
H155 H 0.93389 0.71904 0.74864 0.0
H156 H 0.94223 0.72457 0.87827 0.0
O157 O 0.98422 0.75254 0.77546 0.0
O158 O 0.98557 0.75135 0.84419 0.0
O159 O 0.93247 0.77674 0.85717 0.0
C160 C 0.99661 0.74572 0.80867 0.0
H161 H 0.97494 0.86189 0.83612 0.0
H162 H 0.91486 0.67608 0.78214 0.0
H163 H 0.88452 0.81899 0.74382 0.0
H164 H 0.93092 0.77083 0.66192 0.0
Co165 Co 0.76523 0.46593 0.07381 0.0
C166 C 0.72051 0.50377 0.0544 0.0
C167 C 0.73462 0.50398 0.11714 0.0
C168 C 0.71453 0.52136 0.11466 0.0
N169 N 0.73841 0.49257 0.07972 0.0
N170 N 0.7056 0.52121 0.07538 0.0
H171 H 0.71768 0.49921 0.02201 0.0
H172 H 0.74565 0.49954 0.14485 0.0
C173 C 0.72497 0.44171 0.12655 0.0
O174 O 0.70862 0.44962 0.09784 0.0
N175 N 0.79259 0.44023 0.07212 0.0
C176 C 0.80566 0.43046 0.03929 0.0
C177 C 0.82574 0.41512 0.05409 0.0
C178 C 0.80478 0.431 0.10607 0.0
N179 N 0.82523 0.41562 0.0962 0.0
C180 C 0.74054 0.45576 0.99587 0.0
C181 C 0.72988 0.40353 1.00894 0.0
C182 C 0.7235 0.41474 0.97046 0.0
C183 C 0.72903 0.44121 0.96422 0.0
C184 C 0.74113 0.41898 0.04012 0.0
N185 N 0.74547 0.44508 0.03394 0.0
H186 H 0.74646 0.47548 0.98896 0.0
H187 H 0.7471 0.40972 0.06875 0.0
H188 H 0.80143 0.43484 1.00708 0.0
H189 H 0.79897 0.43605 0.13742 0.0
O190 O 0.78341 0.48661 0.03368 0.0
O191 O 0.78921 0.49009 0.10166 0.0
O192 O 0.74921 0.44687 0.12298 0.0
C193 C 0.7954 0.49781 0.06418 0.0
H194 H 0.70705 0.53331 0.13984 0.0
H195 H 0.84014 0.40525 0.03518 0.0
H196 H 0.72651 0.38297 0.01472 0.0
H197 H 0.72555 0.45039 0.93438 0.0
Co198 Co 0.05297 0.25613 0.3279 0.0
C199 C 0.01298 0.21349 0.31529 0.0
C200 C 0.02792 0.216 0.37727 0.0
C201 C 0.0084 0.1979 0.37702 0.0
N202 N 0.03152 0.22543 0.33842 0.0
N203 N 0.99899 0.19634 0.33813 0.0
H204 H 0.00811 0.21851 0.28367 0.0
H205 H 0.0378 0.2229 0.40481 0.0
C206 C 0.08812 0.2214 0.37503 0.0
O207 O 0.08228 0.20346 0.3473 0.0
N208 N 0.07366 0.28722 0.32144 0.0
C209 C 0.07903 0.30143 0.28727 0.0
C210 C 0.09357 0.3229 0.29928 0.0
C211 C 0.08464 0.3001 0.35341 0.0
N212 N 0.09711 0.32187 0.34093 0.0
C213 C 0.0611 0.22943 0.25047 0.0
C214 C 0.11472 0.22936 0.25197 0.0
C215 C 0.10195 0.21845 0.21754 0.0
C216 C 0.07478 0.21876 0.21709 0.0
C217 C 0.10018 0.23976 0.28501 0.0
N218 N 0.0736 0.23886 0.28471 0.0
H219 H 0.04045 0.23127 0.24753 0.0
H220 H 0.11032 0.2489 0.3106 0.0
H221 H 0.07269 0.29666 0.2561 0.0
H222 H 0.08279 0.294 0.3855 0.0
O223 O 0.02698 0.27006 0.29177 0.0
O224 O 0.02791 0.27665 0.36007 0.0
O225 O 0.07768 0.24409 0.37315 0.0
C226 C 0.01639 0.28048 0.32438 0.0
H227 H 1.00119 0.18719 0.40367 0.0
H228 H 0.101 0.33799 0.27894 0.0
H229 H 0.13572 0.22997 0.25331 0.0
H230 H 0.06407 0.21175 0.19032 0.0
Co231 Co 0.25087 0.55261 0.57528 0.0
C232 C 0.29388 0.51583 0.55238 0.0
C233 C 0.29933 0.53384 0.61215 0.0
C234 C 0.31963 0.51706 0.60502 0.0
N235 N 0.28329 0.5334 0.57906 0.0
N236 N 0.31623 0.50569 0.56759 0.0
H237 H 0.2854 0.51045 0.52279 0.0
H238 H 0.29627 0.54498 0.6403 0.0
C239 C 0.26323 0.60263 0.61899 0.0
O240 O 0.25205 0.61483 0.58781 0.0
N241 N 0.21777 0.57141 0.57434 0.0
C242 C 0.19909 0.5719 0.54493 0.0
C243 C 0.17747 0.58441 0.56073 0.0
C244 C 0.20647 0.58246 0.60818 0.0
N245 N 0.18214 0.5912 0.60063 0.0
C246 C 0.25463 0.57234 0.49225 0.0
C247 C 0.30077 0.59916 0.50151 0.0
C248 C 0.28893 0.59842 0.46226 0.0
C249 C 0.26559 0.58476 0.45797 0.0
C250 C 0.2892 0.58611 0.53511 0.0
N251 N 0.26582 0.5737 0.53064 0.0
H252 H 0.23774 0.56053 0.48709 0.0
H253 H 0.29942 0.58548 0.56441 0.0
H254 H 0.19996 0.56233 0.51507 0.0
H255 H 0.21576 0.58337 0.63824 0.0
O256 O 0.23667 0.52571 0.54074 0.0
O257 O 0.2341 0.52614 0.60976 0.0
O258 O 0.26394 0.57762 0.61953 0.0
C259 C 0.22874 0.51457 0.57454 0.0
H260 H 0.33527 0.51281 0.62646 0.0
H261 H 0.1593 0.58709 0.54445 0.0
H262 H 0.31924 0.60888 0.50583 0.0
H263 H 0.256 0.58333 0.42807 0.0
H264 H 0.6614 0.53127 0.11683 0.0
H265 H 0.62696 0.56142 0.09661 0.0
H266 H 0.66679 0.5768 0.98096 0.0
H267 H 0.70138 0.54605 1.00115 0.0
H268 H 0.63328 0.61381 0.08202 0.0
H269 H 0.59212 0.56375 0.94322 0.0
H270 H 0.61336 0.54737 0.97941 0.0
H271 H 0.62649 0.56976 0.94192 0.0
C272 C 0.66268 0.5409 0.08691 0.0
C273 C 0.68406 0.53648 0.0606 0.0
C274 C 0.64302 0.55812 0.0754 0.0
C275 C 0.64429 0.57139 0.03733 0.0
C276 C 0.66525 0.5665 0.01026 0.0
H277 H 0.53948 0.70597 0.99892 0.0
H278 H 0.57905 0.67973 1.00743 0.0
C279 C 0.68494 0.54896 0.02171 0.0
C280 C 0.62404 0.59109 0.02756 0.0
H281 H 0.57338 0.60404 0.96243 0.0
C282 C 0.62029 0.61183 0.05568 0.0
C283 C 0.6071 0.58835 0.99329 0.0
C284 C 0.60973 0.56603 0.96282 0.0
C285 C 0.59953 0.6294 0.05129 0.0
C286 C 0.58238 0.62649 0.0173 0.0
C287 C 0.58662 0.60625 0.98842 0.0
C288 C 0.55874 0.64286 0.01286 0.0
C289 C 0.59546 0.65013 0.08416 0.0
C290 C 0.53427 0.63086 0.01283 0.0
C291 C 0.5118 0.64574 1.00777 0.0
C292 C 0.51326 0.67297 1.00265 0.0
C293 C 0.53775 0.68508 1.00343 0.0
C294 C 0.56034 0.67011 1.00819 0.0
H295 H 0.60678 0.64602 0.11282 0.0
H296 H 0.60188 0.66929 0.0718 0.0
H297 H 0.57461 0.65176 0.09267 0.0
H298 H 0.53257 0.6099 0.01664 0.0
H299 H 0.4932 0.63591 1.00773 0.0
H300 H 0.99435 0.17064 0.26496 0.0
H301 H 0.9608 0.13831 0.24703 0.0
H302 H 0.92245 0.15296 0.36417 0.0
H303 H 0.95581 0.18506 0.38218 0.0
H304 H 0.9492 0.09257 0.31003 0.0
H305 H 0.86501 0.15505 0.26571 0.0
H306 H 0.8982 0.16577 0.25901 0.0
H307 H 0.88424 0.16444 0.3101 0.0
C308 C 0.97844 0.16729 0.28637 0.0
C309 C 0.97772 0.18014 0.32502 0.0
C310 C 0.95943 0.14881 0.27626 0.0
C311 C 0.93923 0.14338 0.30434 0.0
C312 C 0.93785 0.15702 0.3421 0.0
H313 H 0.80774 0.03554 0.28966 0.0
H314 H 0.83847 0.06887 0.31415 0.0
C315 C 0.95696 0.1752 0.35239 0.0
C316 C 0.92072 0.12202 0.29589 0.0
H317 H 0.85803 0.10955 0.26824 0.0
C318 C 0.92927 0.0962 0.30078 0.0
C319 C 0.89469 0.12699 0.28476 0.0
C320 C 0.88481 0.15453 0.27935 0.0
C321 C 0.91241 0.07505 0.29454 0.0
C322 C 0.88651 0.07992 0.28201 0.0
C323 C 0.87786 0.10584 0.27789 0.0
C324 C 0.86868 0.05844 0.27016 0.0
C325 C 0.92244 0.04773 0.30197 0.0
C326 C 0.87556 0.04145 0.23769 0.0
C327 C 0.85825 0.02238 0.22407 0.0
C328 C 0.83347 0.02008 0.24216 0.0
C329 C 0.82677 0.03667 0.27543 0.0
C330 C 0.84422 0.05582 0.28918 0.0
H331 H 0.93888 0.04772 0.32433 0.0
H332 H 0.90694 0.03475 0.31415 0.0
H333 H 0.92966 0.03947 0.27216 0.0
H334 H 0.89408 0.0434 0.22199 0.0
H335 H 0.86409 0.00973 0.19869 0.0
H336 H 0.46993 0.30726 0.48703 0.0
H337 H 0.4295 0.33308 0.48649 0.0
H338 H 0.4698 0.39761 0.54343 0.0
H339 H 0.50975 0.37207 0.54471 0.0
H340 H 0.40239 0.36247 0.55702 0.0
H341 H 0.439 0.42574 0.43001 0.0
H342 H 0.45208 0.39359 0.44021 0.0
H343 H 0.46173 0.42097 0.47168 0.0
C344 C 0.47 0.32678 0.50005 0.0
C345 C 0.49318 0.33777 0.51531 0.0
C346 C 0.44696 0.34153 0.49951 0.0
C347 C 0.44685 0.36743 0.51412 0.0
C348 C 0.4696 0.37786 0.53123 0.0
H349 H 0.36826 0.50382 0.57199 0.0
H350 H 0.39645 0.4676 0.55156 0.0
C351 C 0.49245 0.36323 0.53185 0.0
C352 C 0.42348 0.3843 0.51093 0.0
H353 H 0.40403 0.44298 0.47117 0.0
C354 C 0.40232 0.37974 0.53751 0.0
C355 C 0.42346 0.40675 0.48531 0.0
C356 C 0.44517 0.41201 0.45487 0.0
C357 C 0.38207 0.39813 0.5414 0.0
C358 C 0.383 0.42145 0.51777 0.0
C359 C 0.40334 0.42512 0.48928 0.0
C360 C 0.36543 0.44383 0.52662 0.0
C361 C 0.36077 0.3934 0.57277 0.0
C362 C 0.33865 0.44285 0.51831 0.0
C363 C 0.32243 0.46376 0.52984 0.0
C364 C 0.33281 0.48577 0.55012 0.0
C365 C 0.35973 0.487 0.55681 0.0
C366 C 0.37585 0.46634 0.54506 0.0
H367 H 0.36423 0.3755 0.59149 0.0
H368 H 0.35904 0.41037 0.5942 0.0
H369 H 0.34197 0.39124 0.55634 0.0
H370 H 0.33027 0.42576 0.50365 0.0
H371 H 0.30173 0.46228 0.52458 0.0
H372 H 1.00408 0.88457 0.78955 0.0
H373 H 0.04316 0.91144 0.78831 0.0
H374 H 0.08983 0.84355 0.81559 0.0
H375 H 0.0505 0.8164 0.81649 0.0
H376 H 0.07672 0.91932 0.85413 0.0
H377 H 0.12892 0.87657 0.7181 0.0
H378 H 0.09498 0.87029 0.72796 0.0
H379 H 0.11941 0.85416 0.75835 0.0
C380 C 0.02267 0.87531 0.79503 0.0
C381 C 0.0242 0.8484 0.80328 0.0
C382 C 0.04501 0.89068 0.7943 0.0
C383 C 0.06946 0.87955 0.8018 0.0
C384 C 0.07123 0.85252 0.8091 0.0
H385 H 0.21411 0.97338 0.79219 0.0
H386 H 0.1849 0.93743 0.81293 0.0
C387 C 0.04876 0.83702 0.80957 0.0
C388 C 0.09263 0.8968 0.80337 0.0
H389 H 0.14843 0.91246 0.75142 0.0
C390 C 0.09257 0.91759 0.832 0.0
C391 C 0.11344 0.89443 0.77476 0.0
C392 C 0.11428 0.8728 0.7428 0.0
C393 C 0.11207 0.93672 0.83151 0.0
C394 C 0.13208 0.93511 0.80152 0.0
C395 C 0.13306 0.91355 0.77447 0.0
C396 C 0.14982 0.95737 0.7938 0.0
C397 C 0.11066 0.95904 0.86216 0.0
C398 C 0.1397 0.98043 0.77677 0.0
C399 C 0.15622 1.00062 0.76475 0.0
C400 C 0.18319 0.99829 0.76983 0.0
C401 C 0.19333 0.9757 0.78858 0.0
C402 C 0.17673 0.95518 0.80009 0.0
H403 H 0.09866 0.95396 0.88975 0.0
H404 H 0.13038 0.96474 0.87277 0.0
H405 H 0.10168 0.97622 0.84679 0.0
H406 H 0.11904 0.98239 0.77122 0.0
H407 H 0.14805 0.01784 0.75022 0.0
H408 H 0.30893 0.64784 0.45553 0.0
H409 H 0.32532 0.66919 0.39231 0.0
H410 H 0.31312 0.59802 0.32296 0.0
H411 H 0.29635 0.57687 0.38557 0.0
H412 H 0.36573 0.6584 0.34029 0.0
H413 H 0.27325 0.64987 0.25346 0.0
H414 H 0.27548 0.64356 0.30856 0.0
H415 H 0.2851 0.61894 0.27149 0.0
C416 C 0.30992 0.63677 0.4268 0.0
C417 C 0.30101 0.61084 0.42528 0.0
C418 C 0.31918 0.64898 0.39072 0.0
C419 C 0.31977 0.63542 0.35263 0.0
C420 C 0.31203 0.60915 0.35161 0.0
H421 H 0.38106 0.66895 0.10671 0.0
H422 H 0.3625 0.64851 0.16894 0.0
C423 C 0.30257 0.59705 0.38746 0.0
C424 C 0.32857 0.6486 0.31394 0.0
H425 H 0.31041 0.6628 0.21414 0.0
C426 C 0.35356 0.65952 0.31284 0.0
C427 C 0.31263 0.65015 0.2781 0.0
C428 C 0.28503 0.64024 0.27799 0.0
C429 C 0.36322 0.67141 0.27661 0.0
C430 C 0.34746 0.67245 0.24069 0.0
C431 C 0.32246 0.66174 0.24174 0.0
C432 C 0.35667 0.68493 0.20188 0.0
C433 C 0.39036 0.68247 0.27663 0.0
C434 C 0.35873 0.71217 0.19948 0.0
C435 C 0.36895 0.72394 0.16385 0.0
C436 C 0.3775 0.70865 0.12997 0.0
C437 C 0.37445 0.68134 0.13195 0.0
C438 C 0.36405 0.6696 0.1676 0.0
H439 H 0.40139 0.67682 0.30491 0.0
H440 H 0.40119 0.6757 0.24869 0.0
H441 H 0.3893 0.70412 0.27534 0.0
H442 H 0.35279 0.72431 0.22549 0.0
H443 H 0.37056 0.74503 0.16311 0.0
H444 H 0.76556 0.88668 0.39655 0.0
H445 H 0.78527 0.86752 0.45791 0.0
H446 H 0.86089 0.87373 0.4008 0.0
H447 H 0.84149 0.8952 0.34047 0.0
H448 H 0.81029 0.82582 0.47326 0.0
H449 H 0.87631 0.90828 0.50829 0.0
H450 H 0.85174 0.91027 0.46858 0.0
H451 H 0.88232 0.89441 0.45792 0.0
C452 C 0.78647 0.88449 0.39714 0.0
C453 C 0.80192 0.89323 0.36371 0.0
C454 C 0.79772 0.87317 0.43224 0.0
C455 C 0.82471 0.86977 0.43473 0.0
C456 C 0.84011 0.87696 0.40041 0.0
H457 H 0.89288 0.76988 0.62514 0.0
H458 H 0.87398 0.78762 0.56204 0.0
C459 C 0.82889 0.88883 0.36546 0.0
C460 C 0.83635 0.85873 0.47338 0.0
H461 H 0.88192 0.86985 0.54851 0.0
C462 C 0.8259 0.83555 0.48976 0.0
C463 C 0.85638 0.8716 0.49558 0.0
C464 C 0.86715 0.89765 0.48196 0.0
C465 C 0.83481 0.82492 0.52741 0.0
C466 C 0.85567 0.83712 0.54856 0.0
C467 C 0.8661 0.86032 0.53226 0.0
C468 C 0.86704 0.82621 0.5875 0.0
C469 C 0.82108 0.80123 0.54465 0.0
C470 C 0.87039 0.84213 0.62279 0.0
C471 C 0.88224 0.83228 0.65871 0.0
C472 C 0.89088 0.80618 0.66034 0.0
C473 C 0.88698 0.79019 0.62513 0.0
C474 C 0.87564 0.8002 0.58903 0.0
H475 H 0.80072 0.80011 0.53338 0.0
H476 H 0.83124 0.78331 0.53391 0.0
H477 H 0.82079 0.80139 0.5792 0.0
H478 H 0.86407 0.86233 0.62243 0.0
H479 H 0.88523 0.84541 0.68471 0.0
H480 H 0.73926 0.36643 0.94326 0.0
H481 H 0.72375 0.3425 0.88186 0.0
H482 H 0.66822 0.40369 0.85756 0.0
H483 H 0.68345 0.42759 0.9189 0.0
H484 H 0.6488 0.34972 0.85195 0.0
H485 H 0.7383 0.36811 0.7591 0.0
H486 H 0.74262 0.35497 0.81056 0.0
H487 H 0.72983 0.38734 0.80435 0.0
C488 C 0.72349 0.37457 0.92517 0.0
C489 C 0.71263 0.39894 0.93579 0.0
C490 C 0.71483 0.36102 0.88993 0.0
C491 C 0.69509 0.37153 0.86493 0.0
C492 C 0.68359 0.39535 0.87631 0.0
H493 H 0.63924 0.33944 0.61671 0.0
H494 H 0.65863 0.35826 0.67948 0.0
C495 C 0.69236 0.40899 0.91127 0.0
C496 C 0.68656 0.358 0.8265 0.0
H497 H 0.70563 0.34262 0.72745 0.0
C498 C 0.66124 0.348 0.8248 0.0
C499 C 0.70278 0.35613 0.79102 0.0
C500 C 0.72987 0.36733 0.79093 0.0
C501 C 0.65172 0.33606 0.78853 0.0
C502 C 0.668 0.33399 0.75316 0.0
C503 C 0.69329 0.34409 0.75476 0.0
C504 C 0.6587 0.32199 0.71391 0.0
C505 C 0.62411 0.32623 0.78794 0.0
C506 C 0.65311 0.29522 0.7121 0.0
C507 C 0.64228 0.28433 0.67618 0.0
C508 C 0.63675 0.30005 0.64135 0.0
C509 C 0.64345 0.3267 0.64272 0.0
C510 C 0.65439 0.33754 0.67866 0.0
H511 H 0.61268 0.33357 0.81491 0.0
H512 H 0.61422 0.33222 0.75878 0.0
H513 H 0.62421 0.30455 0.78907 0.0
H514 H 0.65669 0.28282 0.73878 0.0
H515 H 0.63786 0.26365 0.67594 0.0
H516 H 0.21095 0.08994 0.92529 0.0
H517 H 0.19111 0.11074 0.98591 0.0
H518 H 0.18094 0.18191 0.91609 0.0
H519 H 0.20098 0.16112 0.85494 0.0
H520 H 0.20902 0.1553 0.02749 0.0
H521 H 0.10872 0.16894 0.96734 0.0
H522 H 0.13186 0.14731 0.94272 0.0
H523 H 0.13429 0.18201 0.93543 0.0
C524 C 0.20453 0.11004 0.92276 0.0
C525 C 0.20773 0.12397 0.88539 0.0
C526 C 0.19312 0.12187 0.95742 0.0
C527 C 0.1845 0.14783 0.95551 0.0
C528 C 0.18716 0.16173 0.91806 0.0
H529 H 0.14481 0.23912 0.1788 0.0
H530 H 0.16612 0.22328 0.11526 0.0
C531 C 0.19858 0.14984 0.88318 0.0
C532 C 0.17343 0.16027 0.99333 0.0
H533 H 0.11753 0.18537 0.03452 0.0
C534 C 0.18906 0.16203 0.02901 0.0
C535 C 0.14734 0.16881 0.99526 0.0
C536 C 0.12943 0.16655 0.95832 0.0
C537 C 0.1792 0.17179 0.06676 0.0
C538 C 0.15311 0.18035 0.06868 0.0
C539 C 0.13757 0.1789 0.03287 0.0
C540 C 0.14111 0.18963 0.10805 0.0
C541 C 0.19651 0.17204 0.1046 0.0
C542 C 0.11999 0.17601 0.125 0.0
C543 C 0.10784 0.18497 0.1612 0.0
C544 C 0.11646 0.20785 0.18116 0.0
C545 C 0.13795 0.22124 0.16454 0.0
C546 C 0.1501 0.21225 0.12817 0.0
H547 H 0.21402 0.15961 0.1002 0.0
H548 H 0.20306 0.19233 0.11068 0.0
H549 H 0.18581 0.16511 0.13251 0.0
H550 H 0.11282 0.15845 0.11006 0.0
H551 H 0.09153 0.17405 0.17345 0.0
H552 H 0.26608 0.65578 0.62629 0.0
H553 H 0.28928 0.68111 0.67888 0.0
H554 H 0.31347 0.60984 0.73888 0.0
H555 H 0.28994 0.58428 0.68676 0.0
H556 H 0.29592 0.64749 0.79453 0.0
H557 H 0.3681 0.6895 0.68518 0.0
H558 H 0.33498 0.69513 0.67029 0.0
H559 H 0.34751 0.66232 0.67142 0.0
C560 C 0.27628 0.64544 0.65069 0.0
C561 C 0.2763 0.61795 0.65207 0.0
C562 C 0.28969 0.65998 0.68058 0.0
C563 C 0.30354 0.64736 0.7123 0.0
C564 C 0.30307 0.61997 0.71444 0.0
H565 H 0.41997 0.71534 0.87518 0.0
H566 H 0.39654 0.69074 0.82184 0.0
C567 C 0.28962 0.60538 0.68458 0.0
C568 C 0.31832 0.66276 0.74346 0.0
H569 H 0.36749 0.70706 0.75373 0.0
C570 C 0.3116 0.66047 0.78565 0.0
C571 C 0.33903 0.67941 0.73185 0.0
C572 C 0.34805 0.68161 0.68728 0.0
C573 C 0.32473 0.67473 0.8165 0.0
C574 C 0.34484 0.69207 0.80473 0.0
C575 C 0.35187 0.694 0.76262 0.0
C576 C 0.35913 0.70798 0.83581 0.0
C577 C 0.31727 0.67074 0.86149 0.0
C578 C 0.34601 0.72636 0.86062 0.0
C579 C 0.35932 0.74043 0.89121 0.0
C580 C 0.38608 0.7365 0.89741 0.0
C581 C 0.39935 0.71877 0.87142 0.0
C582 C 0.38599 0.70468 0.84089 0.0
H583 H 0.30647 0.65219 0.86606 0.0
H584 H 0.33471 0.67055 0.88177 0.0
H585 H 0.30453 0.68706 0.87168 0.0
H586 H 0.32539 0.72966 0.85658 0.0
H587 H 0.34853 0.75407 0.91041 0.0
H588 H 0.78576 0.92932 0.10707 0.0
H589 H 0.81062 0.90557 0.05414 0.0
H590 H 0.78599 0.83235 0.10722 0.0
H591 H 0.76126 0.85587 0.16048 0.0
H592 H 0.83967 0.83516 0.09289 0.0
H593 H 0.784 0.8646 0.95275 0.0
H594 H 0.79471 0.89132 0.98473 0.0
H595 H 0.77141 0.86848 1.0049 0.0
C596 C 0.78538 0.90816 0.10728 0.0
C597 C 0.77145 0.89453 0.13808 0.0
C598 C 0.79955 0.89461 0.07686 0.0
C599 C 0.79999 0.86717 0.07648 0.0
C600 C 0.78589 0.85352 0.10687 0.0
H601 H 0.85687 0.76509 0.88032 0.0
H602 H 0.83126 0.78785 0.93327 0.0
C603 C 0.77169 0.86703 0.13724 0.0
C604 C 0.81591 0.85266 0.04542 0.0
H605 H 0.82357 0.84188 0.94112 0.0
C606 C 0.83613 0.83658 0.0597 0.0
C607 C 0.81112 0.85435 1.00216 0.0
C608 C 0.789 0.87042 0.98509 0.0
C609 C 0.85188 0.82239 0.03188 0.0
C610 C 0.84748 0.82456 0.98857 0.0
C611 C 0.82706 0.84039 0.97432 0.0
C612 C 0.86351 0.81018 0.95749 0.0
C613 C 0.8728 0.80482 0.04911 0.0
C614 C 0.89021 0.81514 0.95347 0.0
C615 C 0.90498 0.80212 0.92317 0.0
C616 C 0.89328 0.78395 0.89615 0.0
C617 C 0.86656 0.77891 0.90056 0.0
C618 C 0.85184 0.79195 0.93078 0.0
H619 H 0.86961 0.80047 0.0826 0.0
H620 H 0.87371 0.7861 0.03162 0.0
H621 H 0.89189 0.81467 0.04597 0.0
H622 H 0.89956 0.82945 0.97328 0.0
H623 H 0.92546 0.80661 0.92051 0.0
H624 H 0.68732 0.40533 0.11944 0.0
H625 H 0.66923 0.37746 0.17358 0.0
H626 H 0.7215 0.41156 0.26333 0.0
H627 H 0.74088 0.43852 0.20803 0.0
H628 H 0.71731 0.36225 0.2785 0.0
H629 H 0.61755 0.39897 0.2574 0.0
H630 H 0.62923 0.38532 0.20957 0.0
H631 H 0.64492 0.41369 0.23152 0.0
C632 C 0.69497 0.4069 0.15075 0.0
C633 C 0.71523 0.42435 0.15976 0.0
C634 C 0.68443 0.39111 0.18181 0.0
C635 C 0.69322 0.39304 0.22304 0.0
C636 C 0.71409 0.40992 0.2319 0.0
H637 H 0.59772 0.32391 0.41968 0.0
H638 H 0.61933 0.35392 0.37178 0.0
C639 C 0.72517 0.42531 0.20039 0.0
C640 C 0.68072 0.37714 0.25639 0.0
H641 H 0.62158 0.35829 0.29408 0.0
C642 C 0.69639 0.36164 0.28223 0.0
C643 C 0.65342 0.37672 0.26223 0.0
C644 C 0.63539 0.39482 0.239 0.0
C645 C 0.68553 0.34515 0.31262 0.0
C646 C 0.65813 0.34315 0.31607 0.0
C647 C 0.64254 0.3593 0.29111 0.0
C648 C 0.64513 0.32472 0.34544 0.0
C649 C 0.70368 0.33056 0.34118 0.0
C650 C 0.65191 0.29809 0.3463 0.0
C651 C 0.63998 0.28105 0.37446 0.0
C652 C 0.62035 0.29004 0.40134 0.0
C653 C 0.61273 0.31638 0.39927 0.0
C654 C 0.62514 0.33357 0.37189 0.0
H655 H 0.72247 0.34099 0.3446 0.0
H656 H 0.69508 0.32791 0.3726 0.0
H657 H 0.70795 0.31104 0.32769 0.0
H658 H 0.66643 0.29041 0.32516 0.0
H659 H 0.64603 0.26076 0.37505 0.0
H660 H 0.1327 0.19434 0.36499 0.0
H661 H 0.16261 0.1795 0.41892 0.0
H662 H 0.11557 0.21753 0.51252 0.0
H663 H 0.08645 0.23393 0.45785 0.0
H664 H 0.16441 0.22144 0.53304 0.0
H665 H 0.14674 0.11848 0.48967 0.0
H666 H 0.16008 0.13624 0.44671 0.0
H667 H 0.12858 0.14499 0.46715 0.0
C668 C 0.12893 0.19974 0.39707 0.0
C669 C 0.10719 0.21495 0.40751 0.0
C670 C 0.14589 0.19106 0.42791 0.0
C671 C 0.14084 0.1965 0.47002 0.0
C672 C 0.11973 0.2128 0.48031 0.0
H673 H 0.20522 0.09841 0.66365 0.0
H674 H 0.17799 0.12042 0.61255 0.0
C675 C 0.10312 0.22216 0.44918 0.0
C676 C 0.15713 0.18449 0.50309 0.0
H677 H 0.18224 0.12621 0.53537 0.0
C678 C 0.16816 0.20058 0.53378 0.0
C679 C 0.1616 0.15717 0.50473 0.0
C680 C 0.14837 0.13823 0.47558 0.0
C681 C 0.1838 0.1902 0.5656 0.0
C682 C 0.1895 0.16308 0.5657 0.0
C683 C 0.17824 0.14703 0.53517 0.0
C684 C 0.20614 0.15051 0.59789 0.0
C685 C 0.19329 0.20836 0.59933 0.0
C686 C 0.23119 0.15989 0.60682 0.0
C687 C 0.24658 0.14761 0.63695 0.0
C688 C 0.23755 0.12519 0.65748 0.0
C689 C 0.21282 0.11545 0.64785 0.0
C690 C 0.1972 0.12811 0.61871 0.0
H691 H 0.1806 0.22584 0.60234 0.0
H692 H 0.19409 0.19839 0.62996 0.0
H693 H 0.21308 0.2153 0.59128 0.0
H694 H 0.23899 0.17654 0.5903 0.0
H695 H 0.26569 0.15536 0.6437 0.0
H696 H 0.40506 0.81721 0.87546 0.0
H697 H 0.38878 0.84806 0.82375 0.0
H698 H 0.38882 0.9093 0.9161 0.0
H699 H 0.40601 0.87884 0.96758 0.0
H700 H 0.3432 0.8736 0.82553 0.0
H701 H 0.42244 0.94606 0.81868 0.0
H702 H 0.42658 0.91425 0.84203 0.0
H703 H 0.41208 0.94059 0.87126 0.0
C704 C 0.40224 0.83737 0.88461 0.0
C705 C 0.407 0.84552 0.92581 0.0
C706 C 0.39275 0.85497 0.85498 0.0
C707 C 0.38798 0.88113 0.86575 0.0
C708 C 0.39295 0.88939 0.90669 0.0
H709 H 0.27796 0.99198 0.80583 0.0
H710 H 0.30337 0.95363 0.82407 0.0
C711 C 0.40244 0.87183 0.93633 0.0
C712 C 0.37575 0.8993 0.83547 0.0
H713 H 0.37998 0.96129 0.79679 0.0
C714 C 0.35153 0.89255 0.81855 0.0
C715 C 0.38677 0.92384 0.82547 0.0
C716 C 0.41354 0.93149 0.83996 0.0
C717 C 0.33721 0.91043 0.79468 0.0
C718 C 0.34717 0.93583 0.78806 0.0
C719 C 0.37223 0.94189 0.80216 0.0
C720 C 0.33041 0.95739 0.77279 0.0
C721 C 0.31107 0.90226 0.77807 0.0
C722 C 0.33709 0.97238 0.73767 0.0
C723 C 0.32232 0.9945 0.72691 0.0
C724 C 0.30116 1.00209 0.75182 0.0
C725 C 0.29422 0.9866 0.78611 0.0
C726 C 0.30863 0.96453 0.79643 0.0
H727 H 0.3103 0.88082 0.77275 0.0
H728 H 0.29585 0.90729 0.80125 0.0
H729 H 0.30649 0.91242 0.74846 0.0
H730 H 0.35401 0.96732 0.71925 0.0
H731 H 0.32818 1.00631 0.70058 0.0
H732 H 0.51646 0.76787 0.06121 0.0
H733 H 0.55372 0.79392 0.08198 0.0
H734 H 0.54845 0.83798 0.96796 0.0
H735 H 0.51054 0.81163 0.94683 0.0
H736 H 0.60236 0.80455 0.04486 0.0
H737 H 0.54044 0.89332 0.06233 0.0
H738 H 0.52671 0.8611 0.05646 0.0
H739 H 0.54082 0.8773 0.01242 0.0
C740 C 0.52343 0.78282 0.04014 0.0
C741 C 0.51051 0.78788 1.00252 0.0
C742 C 0.54479 0.79767 0.05205 0.0
C743 C 0.55364 0.81813 0.02686 0.0
C744 C 0.54169 0.82245 0.9881 0.0
H745 H 0.69031 0.90289 0.12158 0.0
H746 H 0.66064 0.88096 0.07381 0.0
C747 C 0.52025 0.80729 0.97588 0.0
C748 C 0.57419 0.8356 0.04344 0.0
H749 H 0.58293 0.89561 0.08814 0.0
C750 C 0.59836 0.82464 0.0536 0.0
C751 C 0.56869 0.86166 0.05543 0.0
C752 C 0.54275 0.87416 0.04644 0.0
C753 C 0.61681 0.83866 0.07677 0.0
C754 C 0.61107 0.86451 0.08963 0.0
C755 C 0.58728 0.87581 0.07817 0.0
C756 C 0.62869 0.8794 0.1175 0.0
C757 C 0.6417 0.82519 0.08922 0.0
C758 C 0.62036 0.88656 0.15758 0.0
C759 C 0.6372 0.89941 0.18492 0.0
C760 C 0.66271 0.90552 0.17266 0.0
C761 C 0.67077 0.89881 0.13207 0.0
C762 C 0.65391 0.88597 0.10477 0.0
H763 H 0.64077 0.80372 0.0842 0.0
H764 H 0.65796 0.83297 0.07023 0.0
H765 H 0.64618 0.82897 0.12249 0.0
H766 H 0.60092 0.88176 0.16801 0.0
H767 H 0.6302 0.90456 0.21564 0.0
H768 H 0.68349 0.01603 0.18663 0.0
H769 H 0.65797 0.05476 0.20809 0.0
H770 H 0.71325 0.07015 0.30574 0.0
H771 H 0.73837 0.03207 0.28473 0.0
H772 H 0.63562 0.06127 0.28867 0.0
H773 H 0.70288 0.14244 0.2552 0.0
H774 H 0.70608 0.11071 0.23091 0.0
H775 H 0.71897 0.11643 0.28221 0.0
C776 C 0.69044 0.0282 0.21187 0.0
C777 C 0.71291 0.02115 0.23396 0.0
C778 C 0.67582 0.05016 0.22428 0.0
C779 C 0.68387 0.06558 0.25824 0.0
C780 C 0.70687 0.05897 0.27898 0.0
H781 H 0.64646 0.16463 0.45408 0.0
H782 H 0.66275 0.13565 0.39971 0.0
C783 C 0.72116 0.03707 0.26705 0.0
C784 C 0.66752 0.08708 0.27538 0.0
H785 H 0.67246 0.14958 0.31212 0.0
C786 C 0.64325 0.08084 0.29275 0.0
C787 C 0.67748 0.11263 0.28074 0.0
C788 C 0.70268 0.12103 0.26087 0.0
C789 C 0.62976 0.09879 0.31815 0.0
C790 C 0.64077 0.12362 0.32606 0.0
C791 C 0.66413 0.13046 0.30633 0.0
C792 C 0.63013 0.14147 0.35848 0.0
C793 C 0.60476 0.09049 0.33875 0.0
C794 C 0.60634 0.15454 0.35336 0.0
C795 C 0.59686 0.17121 0.3847 0.0
C796 C 0.61094 0.17496 0.42178 0.0
C797 C 0.63481 0.16187 0.42645 0.0
C798 C 0.6443 0.14543 0.39517 0.0
H799 H 0.60001 0.0697 0.33239 0.0
H800 H 0.60606 0.09339 0.37295 0.0
H801 H 0.58858 0.10282 0.32717 0.0
H802 H 0.5952 0.15193 0.32511 0.0
H803 H 0.57841 0.18093 0.38012 0.0
H804 H 0.52633 0.19169 0.54102 0.0
H805 H 0.48741 0.16823 0.56284 0.0
H806 H 0.43993 0.22205 0.49315 0.0
H807 H 0.47936 0.24554 0.47051 0.0
H808 H 0.42758 0.21681 0.58107 0.0
H809 H 0.43408 0.12021 0.50369 0.0
H810 H 0.46414 0.13066 0.52652 0.0
H811 H 0.45048 0.14889 0.48404 0.0
C812 C 0.50764 0.19802 0.52925 0.0
C813 C 0.50577 0.22019 0.50377 0.0
C814 C 0.48541 0.18457 0.54167 0.0
C815 C 0.46076 0.19319 0.52932 0.0
C816 C 0.45881 0.21489 0.50262 0.0
H817 H 0.32342 0.11291 0.63256 0.0
H818 H 0.35255 0.1344 0.58319 0.0
C819 C 0.48127 0.22817 0.48948 0.0
C820 C 0.43744 0.18124 0.54877 0.0
H821 H 0.40853 0.12219 0.56657 0.0
C822 C 0.42302 0.19626 0.57723 0.0
C823 C 0.43149 0.15443 0.54378 0.0
C824 C 0.4457 0.13763 0.51256 0.0
C825 C 0.40389 0.18482 0.60256 0.0
C826 C 0.39914 0.15767 0.59946 0.0
C827 C 0.41241 0.14296 0.56924 0.0
C828 C 0.38164 0.14403 0.62908 0.0
C829 C 0.38937 0.20169 0.63333 0.0
C830 C 0.38858 0.14185 0.67112 0.0
C831 C 0.37219 0.12922 0.69941 0.0
C832 C 0.34835 0.11855 0.68637 0.0
C833 C 0.34166 0.12051 0.64392 0.0
C834 C 0.35822 0.13298 0.61556 0.0
H835 H 0.39077 0.22276 0.62535 0.0
H836 H 0.36856 0.19608 0.63469 0.0
H837 H 0.39778 0.19888 0.66479 0.0
H838 H 0.40679 0.14988 0.68206 0.0
H839 H 0.37833 0.12778 0.73149 0.0
H840 H 0.91068 0.70425 0.92002 0.0
H841 H 0.89412 0.67315 0.97133 0.0
H842 H 0.90271 0.61064 0.8822 0.0
H843 H 0.91992 0.64147 0.83112 0.0
H844 H 0.85031 0.64225 0.96521 0.0
H845 H 0.93737 0.58019 0.9854 0.0
H846 H 0.93872 0.61205 0.96137 0.0
H847 H 0.9286 0.58398 0.93173 0.0
C848 C 0.90954 0.68381 0.91154 0.0
C849 C 0.91684 0.67536 0.87142 0.0
C850 C 0.8999 0.66608 0.94088 0.0
C851 C 0.89758 0.63947 0.93092 0.0
C852 C 0.90485 0.63097 0.89095 0.0
H853 H 0.82477 0.50075 0.99514 0.0
H854 H 0.85193 0.53679 0.97209 0.0
C855 C 0.91441 0.64869 0.86156 0.0
C856 C 0.88618 0.62075 0.96126 0.0
H857 H 0.89662 0.56138 1.00673 0.0
C858 C 0.86059 0.62482 0.97506 0.0
C859 C 0.89969 0.59814 0.9744 0.0
C860 C 0.92771 0.59343 0.96282 0.0
C861 C 0.84755 0.60599 0.99913 0.0
C862 C 0.86059 0.58265 1.01016 0.0
C863 C 0.88665 0.57929 0.99832 0.0
C864 C 0.8464 0.55994 0.02779 0.0
C865 C 0.8194 0.61041 0.01027 0.0
C866 C 0.83485 0.56053 0.06756 0.0
C867 C 0.81926 0.53962 0.08111 0.0
C868 C 0.81494 0.51811 0.05479 0.0
C869 C 0.82757 0.51717 0.016 0.0
C870 C 0.84318 0.53775 1.00277 0.0
H871 H 0.81131 0.62817 0.99525 0.0
H872 H 0.80754 0.59329 1.00084 0.0
H873 H 0.81753 0.6127 0.0445 0.0
H874 H 0.83734 0.57738 0.08758 0.0
H875 H 0.80966 0.54085 0.11108 0.0
H876 H 0.97304 0.26345 0.28728 0.0
H877 H 0.93773 0.2903 0.2599 0.0
H878 H 0.97084 0.35836 0.31859 0.0
H879 H 0.00636 0.33121 0.34654 0.0
H880 H 0.90017 0.3278 0.29569 0.0
H881 H 0.97373 0.37108 0.18868 0.0
H882 H 0.97994 0.34152 0.21761 0.0
H883 H 0.98014 0.37254 0.2437 0.0
C884 C 0.97222 0.28398 0.29562 0.0
C885 C 0.99216 0.29531 0.31925 0.0
C886 C 0.95212 0.2993 0.27986 0.0
C887 C 0.95184 0.32634 0.2868 0.0
C888 C 0.97081 0.33751 0.31276 0.0
H889 H 0.83405 0.42895 0.17724 0.0
H890 H 0.86408 0.40832 0.22555 0.0
C891 C 0.99088 0.32201 0.32908 0.0
C892 C 0.93341 0.3427 0.26279 0.0
H893 H 0.9301 0.38225 0.17732 0.0
C894 C 0.90667 0.34007 0.27024 0.0
C895 C 0.942 0.35825 0.22907 0.0
C896 C 0.97048 0.36103 0.21887 0.0
C897 C 0.88828 0.35236 0.24453 0.0
C898 C 0.8969 0.36761 0.21054 0.0
C899 C 0.92361 0.37056 0.20345 0.0
C900 C 0.87844 0.37999 0.18116 0.0
C901 C 0.85975 0.34822 0.25289 0.0
C902 C 0.87675 0.3711 0.1399 0.0
C903 C 0.85932 0.38269 0.11206 0.0
C904 C 0.84335 0.40359 0.12482 0.0
C905 C 0.84546 0.4126 0.16621 0.0
C906 C 0.86276 0.40089 0.19402 0.0
H907 H 0.85631 0.3326 0.27624 0.0
H908 H 0.85112 0.36665 0.26487 0.0
H909 H 0.84948 0.34302 0.22367 0.0
H910 H 0.88876 0.35499 0.12936 0.0
H911 H 0.85818 0.37502 0.08073 0.0
H912 H 0.24768 0.46591 0.56321 0.0
H913 H 0.22402 0.42959 0.53098 0.0
H914 H 0.15291 0.47397 0.53907 0.0
H915 H 0.17654 0.51002 0.5722 0.0
H916 H 0.14537 0.41969 0.54962 0.0
H917 H 0.20417 0.44214 0.40912 0.0
H918 H 0.223 0.43366 0.45408 0.0
H919 H 0.20376 0.46301 0.45441 0.0
C920 C 0.22677 0.46727 0.56003 0.0
C921 C 0.21373 0.49037 0.57097 0.0
C922 C 0.21335 0.44675 0.54099 0.0
C923 C 0.18682 0.44933 0.53176 0.0
C924 C 0.17337 0.47157 0.54584 0.0
H925 H 0.10442 0.37384 0.32785 0.0
H926 H 0.12564 0.40492 0.37492 0.0
C927 C 0.18679 0.49203 0.56517 0.0
C928 C 0.1738 0.4304 0.50357 0.0
H929 H 0.17567 0.40609 0.40442 0.0
C930 C 0.15201 0.41664 0.51792 0.0
C931 C 0.18211 0.42694 0.46184 0.0
C932 C 0.20438 0.44238 0.4437 0.0
C933 C 0.13861 0.39913 0.4919 0.0
C934 C 0.1475 0.395 0.45063 0.0
C935 C 0.16902 0.40909 0.43613 0.0
C936 C 0.13479 0.37613 0.42195 0.0
C937 C 0.11474 0.38562 0.50857 0.0
C938 C 0.13344 0.34954 0.43222 0.0
C939 C 0.12143 0.33179 0.40538 0.0
C940 C 0.11061 0.34017 0.36745 0.0
C941 C 0.11262 0.36671 0.35666 0.0
C942 C 0.12462 0.38451 0.38366 0.0
H943 H 0.10645 0.39615 0.53582 0.0
H944 H 0.09954 0.38398 0.48425 0.0
H945 H 0.12004 0.36561 0.51877 0.0
H946 H 0.14184 0.34246 0.46096 0.0
H947 H 0.1208 0.31141 0.41426 0.0
H948 H 0.18617 0.5948 0.68552 0.0
H949 H 0.15762 0.61863 0.73284 0.0
H950 H 0.10964 0.64181 0.62962 0.0
H951 H 0.1383 0.61865 0.58169 0.0
H952 H 0.14461 0.67356 0.73022 0.0
H953 H 0.05788 0.61009 0.71548 0.0
H954 H 0.09005 0.59943 0.70057 0.0
H955 H 0.07158 0.6202 0.66662 0.0
C956 C 0.16969 0.60497 0.6725 0.0
C957 C 0.16474 0.60454 0.62929 0.0
C958 C 0.15326 0.61853 0.69987 0.0
C959 C 0.13131 0.63171 0.68488 0.0
C960 C 0.12621 0.63134 0.642 0.0
H961 H 0.0348 0.75631 0.75398 0.0
H962 H 0.07055 0.72777 0.73336 0.0
C963 C 0.14269 0.61797 0.61455 0.0
C964 C 0.11418 0.64668 0.71366 0.0
H965 H 0.05117 0.65219 0.74606 0.0
C966 C 0.12427 0.66868 0.73419 0.0
C967 C 0.08774 0.6401 0.71938 0.0
C968 C 0.07615 0.61603 0.69969 0.0
C969 C 0.10825 0.68509 0.75831 0.0
C970 C 0.08146 0.6794 0.7619 0.0
C971 C 0.0717 0.65658 0.74331 0.0
C972 C 0.06269 0.6984 0.78002 0.0
C973 C 0.11997 0.70877 0.77897 0.0
C974 C 0.04659 0.69168 0.8138 0.0
C975 C 0.02625 0.70834 0.8262 0.0
C976 C 0.02146 0.73157 0.80428 0.0
C977 C 0.03828 0.73868 0.77175 0.0
C978 C 0.05874 0.72237 0.75993 0.0
H979 H 0.14117 0.70625 0.78394 0.0
H980 H 0.1171 0.72604 0.75866 0.0
H981 H 0.1105 0.71281 0.8094 0.0
H982 H 0.04914 0.67313 0.82945 0.0
H983 H 0.0132 0.70217 0.85077 0.0
loop_
_geom_bond_atom_site_label_1
_geom_bond_atom_site_label_2
_geom_bond_distance
_geom_bond_site_symmetry_2
_ccdc_geom_bond_type
Co0 N4 2.148 . S
Co0 N10 2.128 . S
Co0 N20 2.194 1_556 S
Co0 O25 2.351 1_556 S
Co0 O26 2.155 . S
Co0 O27 2.096 . S
C1 N4 1.301 1_554 S
C1 N5 1.328 . S
C1 H6 0.930 . S
C2 C3 1.333 . S
C2 N4 1.317 . S
C2 H7 0.930 . S
C3 C2 1.333 . S
C3 N5 1.350 1_556 S
C3 H29 0.931 . S
N4 Co0 2.148 . S
N4 C1 1.301 1_556 S
N4 C2 1.317 . S
N5 C1 1.328 . S
N5 C3 1.350 1_554 S
H6 C1 0.930 . S
H7 C2 0.930 . S
C8 O9 1.224 . S
C8 O27 1.247 . S
O9 C8 1.224 . S
N10 Co0 2.128 . S
N10 C11 1.355 1_556 S
N10 C13 1.311 . S
C11 N10 1.355 1_554 S
C11 C12 1.363 . S
C11 H23 0.929 . S
C12 C11 1.363 . S
C12 N14 1.375 1_554 S
C12 H30 0.931 . S
C13 N10 1.311 . S
C13 N14 1.347 . S
C13 H24 0.929 . S
N14 C12 1.375 1_556 S
N14 C13 1.347 . S
C15 C18 1.365 . S
C15 N20 1.328 . S
C15 H21 0.929 . S
C16 C17 1.362 . S
C16 C19 1.378 . S
C16 H31 0.929 . S
C17 C16 1.362 . S
C17 C18 1.366 . S
C18 C15 1.365 . S
C18 C17 1.366 . S
C18 H32 0.930 . S
C19 C16 1.378 . S
C19 N20 1.315 . S
C19 H22 0.930 . S
N20 Co0 2.194 1_554 S
N20 C15 1.328 . S
N20 C19 1.315 . S
H21 C15 0.929 . S
H22 C19 0.930 . S
H23 C11 0.929 . S
H24 C13 0.929 . S
O25 Co0 2.351 1_554 S
O25 C28 1.244 . S
O26 Co0 2.155 . S
O26 C28 1.240 1_556 S
O27 Co0 2.096 . S
O27 C8 1.247 . S
C28 O25 1.244 . S
C28 O26 1.240 1_554 S
H29 C3 0.931 . S
H30 C12 0.931 . S
H31 C16 0.929 . S
H32 C18 0.930 . S
Co33 N37 2.148 . S
Co33 N43 2.128 . S
Co33 N53 2.194 . S
Co33 O58 2.351 . S
Co33 O59 2.155 . S
Co33 O60 2.096 . S
C34 N37 1.301 . S
C34 N38 1.328 . S
C34 H39 0.930 . S
C35 C36 1.333 . S
C35 N37 1.317 . S
C35 H40 0.930 . S
C36 C35 1.333 . S
C36 N38 1.350 . S
C36 H62 0.931 . S
N37 Co33 2.148 . S
N37 C34 1.301 . S
N37 C35 1.317 . S
N38 C34 1.328 . S
N38 C36 1.350 . S
H39 C34 0.930 . S
H40 C35 0.930 . S
C41 O42 1.224 . S
C41 O60 1.247 . S
O42 C41 1.224 . S
N43 Co33 2.128 . S
N43 C44 1.355 . S
N43 C46 1.311 . S
C44 N43 1.355 . S
C44 C45 1.363 . S
C44 H56 0.929 . S
C45 C44 1.363 . S
C45 N47 1.375 . S
C45 H63 0.931 . S
C46 N43 1.311 . S
C46 N47 1.347 . S
C46 H57 0.929 . S
N47 C45 1.375 . S
N47 C46 1.347 . S
C48 C51 1.365 . S
C48 N53 1.328 . S
C48 H54 0.929 . S
C49 C50 1.362 . S
C49 C52 1.378 . S
C49 H64 0.929 . S
C50 C49 1.362 . S
C50 C51 1.366 . S
C51 C48 1.365 . S
C51 C50 1.366 . S
C51 H65 0.930 . S
C52 C49 1.378 . S
C52 N53 1.315 . S
C52 H55 0.930 . S
N53 Co33 2.194 . S
N53 C48 1.328 . S
N53 C52 1.315 . S
H54 C48 0.929 . S
H55 C52 0.930 . S
H56 C44 0.929 . S
H57 C46 0.929 . S
O58 Co33 2.351 . S
O58 C61 1.244 . S
O59 Co33 2.155 . S
O59 C61 1.240 . S
O60 Co33 2.096 . S
O60 C41 1.247 . S
C61 O58 1.244 . S
C61 O59 1.240 . S
H62 C36 0.931 . S
H63 C45 0.931 . S
H64 C49 0.929 . S
H65 C51 0.930 . S
Co66 N70 2.148 . S
Co66 N76 2.128 . S
Co66 N86 2.194 . S
Co66 O91 2.351 . S
Co66 O92 2.155 . S
Co66 O93 2.096 . S
C67 N70 1.301 . S
C67 N71 1.328 . S
C67 H72 0.930 . S
C68 C69 1.333 . S
C68 N70 1.317 . S
C68 H73 0.930 . S
C69 C68 1.333 . S
C69 N71 1.350 . S
C69 H95 0.931 . S
N70 Co66 2.148 . S
N70 C67 1.301 . S
N70 C68 1.317 . S
N71 C67 1.328 . S
N71 C69 1.350 . S
H72 C67 0.930 . S
H73 C68 0.930 . S
C74 O75 1.224 . S
C74 O93 1.247 . S
O75 C74 1.224 . S
N76 Co66 2.128 . S
N76 C77 1.355 . S
N76 C79 1.311 . S
C77 N76 1.355 . S
C77 C78 1.363 . S
C77 H89 0.929 . S
C78 C77 1.363 . S
C78 N80 1.375 . S
C78 H96 0.931 . S
C79 N76 1.311 . S
C79 N80 1.347 . S
C79 H90 0.929 . S
N80 C78 1.375 . S
N80 C79 1.347 . S
C81 C84 1.365 . S
C81 N86 1.328 . S
C81 H87 0.929 . S
C82 C83 1.362 . S
C82 C85 1.378 . S
C82 H97 0.929 . S
C83 C82 1.362 . S
C83 C84 1.366 . S
C84 C81 1.365 . S
C84 C83 1.366 . S
C84 H98 0.930 . S
C85 C82 1.378 . S
C85 N86 1.315 . S
C85 H88 0.930 . S
N86 Co66 2.194 . S
N86 C81 1.328 . S
N86 C85 1.315 . S
H87 C81 0.929 . S
H88 C85 0.930 . S
H89 C77 0.929 . S
H90 C79 0.929 . S
O91 Co66 2.351 . S
O91 C94 1.244 . S
O92 Co66 2.155 . S
O92 C94 1.240 . S
O93 Co66 2.096 . S
O93 C74 1.247 . S
C94 O91 1.244 . S
C94 O92 1.240 . S
H95 C69 0.931 . S
H96 C78 0.931 . S
H97 C82 0.929 . S
H98 C84 0.930 . S
Co99 N103 2.148 . S
Co99 N109 2.128 . S
Co99 N119 2.194 . S
Co99 O124 2.351 . S
Co99 O125 2.155 . S
Co99 O126 2.096 . S
C100 N103 1.301 . S
C100 N104 1.328 . S
C100 H105 0.930 . S
C101 C102 1.333 . S
C101 N103 1.317 . S
C101 H106 0.930 . S
C102 C101 1.333 . S
C102 N104 1.350 . S
C102 H128 0.931 . S
N103 Co99 2.148 . S
N103 C100 1.301 . S
N103 C101 1.317 . S
N104 C100 1.328 . S
N104 C102 1.350 . S
H105 C100 0.930 . S
H106 C101 0.930 . S
C107 O108 1.224 . S
C107 O126 1.247 . S
O108 C107 1.224 . S
N109 Co99 2.128 . S
N109 C110 1.355 . S
N109 C112 1.311 . S
C110 N109 1.355 . S
C110 C111 1.363 . S
C110 H122 0.929 . S
C111 C110 1.363 . S
C111 N113 1.375 . S
C111 H129 0.931 . S
C112 N109 1.311 . S
C112 N113 1.347 . S
C112 H123 0.929 . S
N113 C111 1.375 . S
N113 C112 1.347 . S
C114 C117 1.365 . S
C114 N119 1.328 . S
C114 H120 0.929 . S
C115 C116 1.362 . S
C115 C118 1.378 . S
C115 H130 0.929 . S
C116 C115 1.362 . S
C116 C117 1.366 . S
C117 C114 1.365 . S
C117 C116 1.366 . S
C117 H131 0.930 . S
C118 C115 1.378 . S
C118 N119 1.315 . S
C118 H121 0.930 . S
N119 Co99 2.194 . S
N119 C114 1.328 . S
N119 C118 1.315 . S
H120 C114 0.929 . S
H121 C118 0.930 . S
H122 C110 0.929 . S
H123 C112 0.929 . S
O124 Co99 2.351 . S
O124 C127 1.244 . S
O125 Co99 2.155 . S
O125 C127 1.240 . S
O126 Co99 2.096 . S
O126 C107 1.247 . S
C127 O124 1.244 . S
C127 O125 1.240 . S
H128 C102 0.931 . S
H129 C111 0.931 . S
H130 C115 0.929 . S
H131 C117 0.930 . S
Co132 N136 2.148 . S
Co132 N142 2.128 . S
Co132 N152 2.194 . S
Co132 O157 2.351 . S
Co132 O158 2.155 . S
Co132 O159 2.096 . S
C133 N136 1.301 . S
C133 N137 1.328 . S
C133 H138 0.930 . S
C134 C135 1.333 . S
C134 N136 1.317 . S
C134 H139 0.930 . S
C135 C134 1.333 . S
C135 N137 1.350 . S
C135 H161 0.931 . S
N136 Co132 2.148 . S
N136 C133 1.301 . S
N136 C134 1.317 . S
N137 C133 1.328 . S
N137 C135 1.350 . S
H138 C133 0.930 . S
H139 C134 0.930 . S
C140 O141 1.224 . S
C140 O159 1.247 . S
O141 C140 1.224 . S
N142 Co132 2.128 . S
N142 C143 1.355 . S
N142 C145 1.311 . S
C143 N142 1.355 . S
C143 C144 1.363 . S
C143 H155 0.929 . S
C144 C143 1.363 . S
C144 N146 1.375 . S
C144 H162 0.931 . S
C145 N142 1.311 . S
C145 N146 1.347 . S
C145 H156 0.929 . S
N146 C144 1.375 . S
N146 C145 1.347 . S
C147 C150 1.365 . S
C147 N152 1.328 . S
C147 H153 0.929 . S
C148 C149 1.362 . S
C148 C151 1.378 . S
C148 H163 0.929 . S
C149 C148 1.362 . S
C149 C150 1.366 . S
C150 C147 1.365 . S
C150 C149 1.366 . S
C150 H164 0.930 . S
C151 C148 1.378 . S
C151 N152 1.315 . S
C151 H154 0.930 . S
N152 Co132 2.194 . S
N152 C147 1.328 . S
N152 C151 1.315 . S
H153 C147 0.929 . S
H154 C151 0.930 . S
H155 C143 0.929 . S
H156 C145 0.929 . S
O157 Co132 2.351 . S
O157 C160 1.244 . S
O158 Co132 2.155 . S
O158 C160 1.240 . S
O159 Co132 2.096 . S
O159 C140 1.247 . S
C160 O157 1.244 . S
C160 O158 1.240 . S
H161 C135 0.931 . S
H162 C144 0.931 . S
H163 C148 0.929 . S
H164 C150 0.930 . S
Co165 N169 2.148 . S
Co165 N175 2.128 . S
Co165 N185 2.194 1_554 S
Co165 O190 2.351 1_554 S
Co165 O191 2.155 . S
Co165 O192 2.096 . S
C166 N169 1.301 . S
C166 N170 1.328 . S
C166 H171 0.930 1_554 S
C167 C168 1.333 . S
C167 N169 1.317 . S
C167 H172 0.930 . S
C168 C167 1.333 . S
C168 N170 1.350 . S
C168 H194 0.931 . S
N169 Co165 2.148 . S
N169 C166 1.301 . S
N169 C167 1.317 . S
N170 C166 1.328 . S
N170 C168 1.350 . S
H171 C166 0.930 1_556 S
H172 C167 0.930 . S
C173 O174 1.224 . S
C173 O192 1.247 . S
O174 C173 1.224 . S
N175 Co165 2.128 . S
N175 C176 1.355 . S
N175 C178 1.311 . S
C176 N175 1.355 . S
C176 C177 1.363 . S
C176 H188 0.929 1_554 S
C177 C176 1.363 . S
C177 N179 1.375 . S
C177 H195 0.931 . S
C178 N175 1.311 . S
C178 N179 1.347 . S
C178 H189 0.929 . S
N179 C177 1.375 . S
N179 C178 1.347 . S
C180 C183 1.365 . S
C180 N185 1.328 . S
C180 H186 0.929 . S
C181 C182 1.362 . S
C181 C184 1.378 . S
C181 H196 0.929 . S
C182 C181 1.362 . S
C182 C183 1.366 . S
C183 C180 1.365 . S
C183 C182 1.366 . S
C183 H197 0.930 . S
C184 C181 1.378 . S
C184 N185 1.315 . S
C184 H187 0.930 1_556 S
N185 Co165 2.194 1_556 S
N185 C180 1.328 . S
N185 C184 1.315 . S
H186 C180 0.929 . S
H187 C184 0.930 1_554 S
H188 C176 0.929 1_556 S
H189 C178 0.929 . S
O190 Co165 2.351 1_556 S
O190 C193 1.244 1_556 S
O191 Co165 2.155 . S
O191 C193 1.240 . S
O192 Co165 2.096 . S
O192 C173 1.247 . S
C193 O190 1.244 1_554 S
C193 O191 1.240 . S
H194 C168 0.931 . S
H195 C177 0.931 . S
H196 C181 0.929 . S
H197 C183 0.930 . S
Co198 N202 2.148 . S
Co198 N208 2.128 . S
Co198 N218 2.194 . S
Co198 O223 2.351 . S
Co198 O224 2.155 . S
Co198 O225 2.096 . S
C199 N202 1.301 . S
C199 N203 1.328 . S
C199 H204 0.930 . S
C200 C201 1.333 . S
C200 N202 1.317 . S
C200 H205 0.930 . S
C201 C200 1.333 . S
C201 N203 1.350 . S
C201 H227 0.931 . S
N202 Co198 2.148 . S
N202 C199 1.301 . S
N202 C200 1.317 . S
N203 C199 1.328 . S
N203 C201 1.350 . S
H204 C199 0.930 . S
H205 C200 0.930 . S
C206 O207 1.224 . S
C206 O225 1.247 . S
O207 C206 1.224 . S
N208 Co198 2.128 . S
N208 C209 1.355 . S
N208 C211 1.311 . S
C209 N208 1.355 . S
C209 C210 1.363 . S
C209 H221 0.929 . S
C210 C209 1.363 . S
C210 N212 1.375 . S
C210 H228 0.931 . S
C211 N208 1.311 . S
C211 N212 1.347 . S
C211 H222 0.929 . S
N212 C210 1.375 . S
N212 C211 1.347 . S
C213 C216 1.365 . S
C213 N218 1.328 . S
C213 H219 0.929 . S
C214 C215 1.362 . S
C214 C217 1.378 . S
C214 H229 0.929 . S
C215 C214 1.362 . S
C215 C216 1.366 . S
C216 C213 1.365 . S
C216 C215 1.366 . S
C216 H230 0.930 . S
C217 C214 1.378 . S
C217 N218 1.315 . S
C217 H220 0.930 . S
N218 Co198 2.194 . S
N218 C213 1.328 . S
N218 C217 1.315 . S
H219 C213 0.929 . S
H220 C217 0.930 . S
H221 C209 0.929 . S
H222 C211 0.929 . S
O223 Co198 2.351 . S
O223 C226 1.244 . S
O224 Co198 2.155 . S
O224 C226 1.240 . S
O225 Co198 2.096 . S
O225 C206 1.247 . S
C226 O223 1.244 . S
C226 O224 1.240 . S
H227 C201 0.931 . S
H228 C210 0.931 . S
H229 C214 0.929 . S
H230 C216 0.930 . S
Co231 N235 2.148 . S
Co231 N241 2.128 . S
Co231 N251 2.194 . S
Co231 O256 2.351 . S
Co231 O257 2.155 . S
Co231 O258 2.096 . S
C232 N235 1.301 . S
C232 N236 1.328 . S
C232 H237 0.930 . S
C233 C234 1.333 . S
C233 N235 1.317 . S
C233 H238 0.930 . S
C234 C233 1.333 . S
C234 N236 1.350 . S
C234 H260 0.931 . S
N235 Co231 2.148 . S
N235 C232 1.301 . S
N235 C233 1.317 . S
N236 C232 1.328 . S
N236 C234 1.350 . S
H237 C232 0.930 . S
H238 C233 0.930 . S
C239 O240 1.224 . S
C239 O258 1.247 . S
O240 C239 1.224 . S
N241 Co231 2.128 . S
N241 C242 1.355 . S
N241 C244 1.311 . S
C242 N241 1.355 . S
C242 C243 1.363 . S
C242 H254 0.929 . S
C243 C242 1.363 . S
C243 N245 1.375 . S
C243 H261 0.931 . S
C244 N241 1.311 . S
C244 N245 1.347 . S
C244 H255 0.929 . S
N245 C243 1.375 . S
N245 C244 1.347 . S
C246 C249 1.365 . S
C246 N251 1.328 . S
C246 H252 0.929 . S
C247 C248 1.362 . S
C247 C250 1.378 . S
C247 H262 0.929 . S
C248 C247 1.362 . S
C248 C249 1.366 . S
C249 C246 1.365 . S
C249 C248 1.366 . S
C249 H263 0.930 . S
C250 C247 1.378 . S
C250 N251 1.315 . S
C250 H253 0.930 . S
N251 Co231 2.194 . S
N251 C246 1.328 . S
N251 C250 1.315 . S
H252 C246 0.929 . S
H253 C250 0.930 . S
H254 C242 0.929 . S
H255 C244 0.929 . S
O256 Co231 2.351 . S
O256 C259 1.244 . S
O257 Co231 2.155 . S
O257 C259 1.240 . S
O258 Co231 2.096 . S
O258 C239 1.247 . S
C259 O256 1.244 . S
C259 O257 1.240 . S
H260 C234 0.931 . S
H261 C243 0.931 . S
H262 C247 0.929 . S
H263 C249 0.930 . S
H264 C272 0.929 . S
H265 C274 0.930 . S
H266 C276 0.930 . S
H267 C279 0.929 . S
H268 C282 0.930 . S
H269 C284 0.960 . S
H270 C284 0.960 . S
H271 C284 0.960 . S
C272 H264 0.929 . S
C272 C273 1.377 . S
C272 C274 1.384 . S
C273 C272 1.377 . S
C273 C279 1.390 1_554 S
C274 H265 0.930 . S
C274 C272 1.384 . S
C274 C275 1.372 . S
C275 C274 1.372 . S
C275 C276 1.400 1_554 S
C275 C280 1.490 . S
C276 H266 0.930 . S
C276 C275 1.400 1_556 S
C276 C279 1.386 . S
H277 C293 0.930 . S
H278 C294 0.931 . S
C279 H267 0.929 . S
C279 C273 1.390 1_556 S
C279 C276 1.386 . S
C280 C275 1.490 . S
C280 C282 1.395 . S
C280 C283 1.403 1_554 S
H281 C287 0.930 . S
C282 H268 0.930 . S
C282 C280 1.395 . S
C282 C285 1.403 . S
C283 C280 1.403 1_556 S
C283 C284 1.524 . S
C283 C287 1.400 . S
C284 H269 0.960 . S
C284 H270 0.960 . S
C284 H271 0.960 . S
C284 C283 1.524 . S
C285 C282 1.403 . S
C285 C286 1.392 . S
C285 C289 1.495 . S
C286 C285 1.392 . S
C286 C287 1.385 1_554 S
C286 C288 1.478 . S
C287 H281 0.930 . S
C287 C283 1.400 . S
C287 C286 1.385 1_556 S
C288 C286 1.478 . S
C288 C290 1.381 . S
C288 C294 1.383 1_554 S
C289 C285 1.495 . S
C289 H295 0.959 . S
C289 H296 0.961 . S
C289 H297 0.960 . S
C290 C288 1.381 . S
C290 C291 1.394 . S
C290 H298 0.930 . S
C291 C290 1.394 . S
C291 C292 1.383 . S
C291 H299 0.929 . S
C292 C291 1.383 . S
C292 C293 1.377 1_554 S
C293 H277 0.930 . S
C293 C292 1.377 1_556 S
C293 C294 1.379 . S
C294 H278 0.931 . S
C294 C288 1.383 1_556 S
C294 C293 1.379 . S
H295 C289 0.959 . S
H296 C289 0.961 . S
H297 C289 0.960 . S
H298 C290 0.930 . S
H299 C291 0.929 . S
H300 C308 0.929 1_455 S
H301 C310 0.930 . S
H302 C312 0.930 . S
H303 C315 0.929 . S
H304 C318 0.930 . S
H305 C320 0.960 . S
H306 C320 0.960 . S
H307 C320 0.960 . S
C308 H300 0.929 1_655 S
C308 C309 1.377 . S
C308 C310 1.384 . S
C309 C308 1.377 . S
C309 C315 1.390 . S
C310 H301 0.930 . S
C310 C308 1.384 . S
C310 C311 1.372 . S
C311 C310 1.372 . S
C311 C312 1.400 . S
C311 C316 1.490 . S
C312 H302 0.930 . S
C312 C311 1.400 . S
C312 C315 1.386 . S
H313 C329 0.930 . S
H314 C330 0.931 . S
C315 H303 0.929 . S
C315 C309 1.390 . S
C315 C312 1.386 . S
C316 C311 1.490 . S
C316 C318 1.395 . S
C316 C319 1.403 . S
H317 C323 0.930 . S
C318 H304 0.930 . S
C318 C316 1.395 . S
C318 C321 1.403 . S
C319 C316 1.403 . S
C319 C320 1.524 . S
C319 C323 1.400 . S
C320 H305 0.960 . S
C320 H306 0.960 . S
C320 H307 0.960 . S
C320 C319 1.524 . S
C321 C318 1.403 . S
C321 C322 1.392 . S
C321 C325 1.495 . S
C322 C321 1.392 . S
C322 C323 1.385 . S
C322 C324 1.478 . S
C323 H317 0.930 . S
C323 C319 1.400 . S
C323 C322 1.385 . S
C324 C322 1.478 . S
C324 C326 1.381 . S
C324 C330 1.383 . S
C325 C321 1.495 . S
C325 H331 0.959 . S
C325 H332 0.961 . S
C325 H333 0.960 . S
C326 C324 1.381 . S
C326 C327 1.394 . S
C326 H334 0.930 . S
C327 C326 1.394 . S
C327 C328 1.383 . S
C327 H335 0.929 1_545 S
C328 C327 1.383 . S
C328 C329 1.377 . S
C329 H313 0.930 . S
C329 C328 1.377 . S
C329 C330 1.379 . S
C330 H314 0.931 . S
C330 C324 1.383 . S
C330 C329 1.379 . S
H331 C325 0.959 . S
H332 C325 0.961 . S
H333 C325 0.960 . S
H334 C326 0.930 . S
H335 C327 0.929 1_565 S
H336 C344 0.929 . S
H337 C346 0.930 . S
H338 C348 0.930 . S
H339 C351 0.929 . S
H340 C354 0.930 . S
H341 C356 0.960 . S
H342 C356 0.960 . S
H343 C356 0.960 . S
C344 H336 0.929 . S
C344 C345 1.377 . S
C344 C346 1.384 . S
C345 C344 1.377 . S
C345 C351 1.390 . S
C346 H337 0.930 . S
C346 C344 1.384 . S
C346 C347 1.372 . S
C347 C346 1.372 . S
C347 C348 1.400 . S
C347 C352 1.490 . S
C348 H338 0.930 . S
C348 C347 1.400 . S
C348 C351 1.386 . S
H349 C365 0.930 . S
H350 C366 0.931 . S
C351 H339 0.929 . S
C351 C345 1.390 . S
C351 C348 1.386 . S
C352 C347 1.490 . S
C352 C354 1.395 . S
C352 C355 1.403 . S
H353 C359 0.930 . S
C354 H340 0.930 . S
C354 C352 1.395 . S
C354 C357 1.403 . S
C355 C352 1.403 . S
C355 C356 1.524 . S
C355 C359 1.400 . S
C356 H341 0.960 . S
C356 H342 0.960 . S
C356 H343 0.960 . S
C356 C355 1.524 . S
C357 C354 1.403 . S
C357 C358 1.392 . S
C357 C361 1.495 . S
C358 C357 1.392 . S
C358 C359 1.385 . S
C358 C360 1.478 . S
C359 H353 0.930 . S
C359 C355 1.400 . S
C359 C358 1.385 . S
C360 C358 1.478 . S
C360 C362 1.381 . S
C360 C366 1.383 . S
C361 C357 1.495 . S
C361 H367 0.959 . S
C361 H368 0.961 . S
C361 H369 0.960 . S
C362 C360 1.381 . S
C362 C363 1.394 . S
C362 H370 0.930 . S
C363 C362 1.394 . S
C363 C364 1.383 . S
C363 H371 0.929 . S
C364 C363 1.383 . S
C364 C365 1.377 . S
C365 H349 0.930 . S
C365 C364 1.377 . S
C365 C366 1.379 . S
C366 H350 0.931 . S
C366 C360 1.383 . S
C366 C365 1.379 . S
H367 C361 0.959 . S
H368 C361 0.961 . S
H369 C361 0.960 . S
H370 C362 0.930 . S
H371 C363 0.929 . S
H372 C380 0.929 1_655 S
H373 C382 0.930 . S
H374 C384 0.930 . S
H375 C387 0.929 . S
H376 C390 0.930 . S
H377 C392 0.960 . S
H378 C392 0.960 . S
H379 C392 0.960 . S
C380 H372 0.929 1_455 S
C380 C381 1.377 . S
C380 C382 1.384 . S
C381 C380 1.377 . S
C381 C387 1.390 . S
C382 H373 0.930 . S
C382 C380 1.384 . S
C382 C383 1.372 . S
C383 C382 1.372 . S
C383 C384 1.400 . S
C383 C388 1.490 . S
C384 H374 0.930 . S
C384 C383 1.400 . S
C384 C387 1.386 . S
H385 C401 0.930 . S
H386 C402 0.931 . S
C387 H375 0.929 . S
C387 C381 1.390 . S
C387 C384 1.386 . S
C388 C383 1.490 . S
C388 C390 1.395 . S
C388 C391 1.403 . S
H389 C395 0.930 . S
C390 H376 0.930 . S
C390 C388 1.395 . S
C390 C393 1.403 . S
C391 C388 1.403 . S
C391 C392 1.524 . S
C391 C395 1.400 . S
C392 H377 0.960 . S
C392 H378 0.960 . S
C392 H379 0.960 . S
C392 C391 1.524 . S
C393 C390 1.403 . S
C393 C394 1.392 . S
C393 C397 1.495 . S
C394 C393 1.392 . S
C394 C395 1.385 . S
C394 C396 1.478 . S
C395 H389 0.930 . S
C395 C391 1.400 . S
C395 C394 1.385 . S
C396 C394 1.478 . S
C396 C398 1.381 . S
C396 C402 1.383 . S
C397 C393 1.495 . S
C397 H403 0.959 . S
C397 H404 0.961 . S
C397 H405 0.960 . S
C398 C396 1.381 . S
C398 C399 1.394 . S
C398 H406 0.930 . S
C399 C398 1.394 . S
C399 C400 1.383 . S
C399 H407 0.929 1_565 S
C400 C399 1.383 . S
C400 C401 1.377 . S
C401 H385 0.930 . S
C401 C400 1.377 . S
C401 C402 1.379 . S
C402 H386 0.931 . S
C402 C396 1.383 . S
C402 C401 1.379 . S
H403 C397 0.959 . S
H404 C397 0.961 . S
H405 C397 0.960 . S
H406 C398 0.930 . S
H407 C399 0.929 1_545 S
H408 C416 0.929 . S
H409 C418 0.930 . S
H410 C420 0.930 . S
H411 C423 0.929 . S
H412 C426 0.930 . S
H413 C428 0.960 . S
H414 C428 0.960 . S
H415 C428 0.960 . S
C416 H408 0.929 . S
C416 C417 1.377 . S
C416 C418 1.384 . S
C417 C416 1.377 . S
C417 C423 1.390 . S
C418 H409 0.930 . S
C418 C416 1.384 . S
C418 C419 1.372 . S
C419 C418 1.372 . S
C419 C420 1.400 . S
C419 C424 1.490 . S
C420 H410 0.930 . S
C420 C419 1.400 . S
C420 C423 1.386 . S
H421 C437 0.930 . S
H422 C438 0.931 . S
C423 H411 0.929 . S
C423 C417 1.390 . S
C423 C420 1.386 . S
C424 C419 1.490 . S
C424 C426 1.395 . S
C424 C427 1.403 . S
H425 C431 0.930 . S
C426 H412 0.930 . S
C426 C424 1.395 . S
C426 C429 1.403 . S
C427 C424 1.403 . S
C427 C428 1.524 . S
C427 C431 1.400 . S
C428 H413 0.960 . S
C428 H414 0.960 . S
C428 H415 0.960 . S
C428 C427 1.524 . S
C429 C426 1.403 . S
C429 C430 1.392 . S
C429 C433 1.495 . S
C430 C429 1.392 . S
C430 C431 1.385 . S
C430 C432 1.478 . S
C431 H425 0.930 . S
C431 C427 1.400 . S
C431 C430 1.385 . S
C432 C430 1.478 . S
C432 C434 1.381 . S
C432 C438 1.383 . S
C433 C429 1.495 . S
C433 H439 0.959 . S
C433 H440 0.961 . S
C433 H441 0.960 . S
C434 C432 1.381 . S
C434 C435 1.394 . S
C434 H442 0.930 . S
C435 C434 1.394 . S
C435 C436 1.383 . S
C435 H443 0.929 . S
C436 C435 1.383 . S
C436 C437 1.377 . S
C437 H421 0.930 . S
C437 C436 1.377 . S
C437 C438 1.379 . S
C438 H422 0.931 . S
C438 C432 1.383 . S
C438 C437 1.379 . S
H439 C433 0.959 . S
H440 C433 0.961 . S
H441 C433 0.960 . S
H442 C434 0.930 . S
H443 C435 0.929 . S
H444 C452 0.929 . S
H445 C454 0.930 . S
H446 C456 0.930 . S
H447 C459 0.929 . S
H448 C462 0.930 . S
H449 C464 0.960 . S
H450 C464 0.960 . S
H451 C464 0.960 . S
C452 H444 0.929 . S
C452 C453 1.377 . S
C452 C454 1.384 . S
C453 C452 1.377 . S
C453 C459 1.390 . S
C454 H445 0.930 . S
C454 C452 1.384 . S
C454 C455 1.372 . S
C455 C454 1.372 . S
C455 C456 1.400 . S
C455 C460 1.490 . S
C456 H446 0.930 . S
C456 C455 1.400 . S
C456 C459 1.386 . S
H457 C473 0.930 . S
H458 C474 0.931 . S
C459 H447 0.929 . S
C459 C453 1.390 . S
C459 C456 1.386 . S
C460 C455 1.490 . S
C460 C462 1.395 . S
C460 C463 1.403 . S
H461 C467 0.930 . S
C462 H448 0.930 . S
C462 C460 1.395 . S
C462 C465 1.403 . S
C463 C460 1.403 . S
C463 C464 1.524 . S
C463 C467 1.400 . S
C464 H449 0.960 . S
C464 H450 0.960 . S
C464 H451 0.960 . S
C464 C463 1.524 . S
C465 C462 1.403 . S
C465 C466 1.392 . S
C465 C469 1.495 . S
C466 C465 1.392 . S
C466 C467 1.385 . S
C466 C468 1.478 . S
C467 H461 0.930 . S
C467 C463 1.400 . S
C467 C466 1.385 . S
C468 C466 1.478 . S
C468 C470 1.381 . S
C468 C474 1.383 . S
C469 C465 1.495 . S
C469 H475 0.959 . S
C469 H476 0.961 . S
C469 H477 0.960 . S
C470 C468 1.381 . S
C470 C471 1.394 . S
C470 H478 0.930 . S
C471 C470 1.394 . S
C471 C472 1.383 . S
C471 H479 0.929 . S
C472 C471 1.383 . S
C472 C473 1.377 . S
C473 H457 0.930 . S
C473 C472 1.377 . S
C473 C474 1.379 . S
C474 H458 0.931 . S
C474 C468 1.383 . S
C474 C473 1.379 . S
H475 C469 0.959 . S
H476 C469 0.961 . S
H477 C469 0.960 . S
H478 C470 0.930 . S
H479 C471 0.929 . S
H480 C488 0.929 . S
H481 C490 0.930 . S
H482 C492 0.930 . S
H483 C495 0.929 . S
H484 C498 0.930 . S
H485 C500 0.960 . S
H486 C500 0.960 . S
H487 C500 0.960 . S
C488 H480 0.929 . S
C488 C489 1.377 . S
C488 C490 1.384 . S
C489 C488 1.377 . S
C489 C495 1.390 . S
C490 H481 0.930 . S
C490 C488 1.384 . S
C490 C491 1.372 . S
C491 C490 1.372 . S
C491 C492 1.400 . S
C491 C496 1.490 . S
C492 H482 0.930 . S
C492 C491 1.400 . S
C492 C495 1.386 . S
H493 C509 0.930 . S
H494 C510 0.931 . S
C495 H483 0.929 . S
C495 C489 1.390 . S
C495 C492 1.386 . S
C496 C491 1.490 . S
C496 C498 1.395 . S
C496 C499 1.403 . S
H497 C503 0.930 . S
C498 H484 0.930 . S
C498 C496 1.395 . S
C498 C501 1.403 . S
C499 C496 1.403 . S
C499 C500 1.524 . S
C499 C503 1.400 . S
C500 H485 0.960 . S
C500 H486 0.960 . S
C500 H487 0.960 . S
C500 C499 1.524 . S
C501 C498 1.403 . S
C501 C502 1.392 . S
C501 C505 1.495 . S
C502 C501 1.392 . S
C502 C503 1.385 . S
C502 C504 1.478 . S
C503 H497 0.930 . S
C503 C499 1.400 . S
C503 C502 1.385 . S
C504 C502 1.478 . S
C504 C506 1.381 . S
C504 C510 1.383 . S
C505 C501 1.495 . S
C505 H511 0.959 . S
C505 H512 0.961 . S
C505 H513 0.960 . S
C506 C504 1.381 . S
C506 C507 1.394 . S
C506 H514 0.930 . S
C507 C506 1.394 . S
C507 C508 1.383 . S
C507 H515 0.929 . S
C508 C507 1.383 . S
C508 C509 1.377 . S
C509 H493 0.930 . S
C509 C508 1.377 . S
C509 C510 1.379 . S
C510 H494 0.931 . S
C510 C504 1.383 . S
C510 C509 1.379 . S
H511 C505 0.959 . S
H512 C505 0.961 . S
H513 C505 0.960 . S
H514 C506 0.930 . S
H515 C507 0.929 . S
H516 C524 0.929 . S
H517 C526 0.930 . S
H518 C528 0.930 . S
H519 C531 0.929 . S
H520 C534 0.930 . S
H521 C536 0.960 . S
H522 C536 0.960 . S
H523 C536 0.960 . S
C524 H516 0.929 . S
C524 C525 1.377 . S
C524 C526 1.384 . S
C525 C524 1.377 . S
C525 C531 1.390 . S
C526 H517 0.930 . S
C526 C524 1.384 . S
C526 C527 1.372 . S
C527 C526 1.372 . S
C527 C528 1.400 . S
C527 C532 1.490 . S
C528 H518 0.930 . S
C528 C527 1.400 . S
C528 C531 1.386 . S
H529 C545 0.930 . S
H530 C546 0.931 . S
C531 H519 0.929 . S
C531 C525 1.390 . S
C531 C528 1.386 . S
C532 C527 1.490 . S
C532 C534 1.395 1_556 S
C532 C535 1.403 . S
H533 C539 0.930 . S
C534 H520 0.930 . S
C534 C532 1.395 1_554 S
C534 C537 1.403 . S
C535 C532 1.403 . S
C535 C536 1.524 . S
C535 C539 1.400 1_556 S
C536 H521 0.960 . S
C536 H522 0.960 . S
C536 H523 0.960 . S
C536 C535 1.524 . S
C537 C534 1.403 . S
C537 C538 1.392 . S
C537 C541 1.495 . S
C538 C537 1.392 . S
C538 C539 1.385 . S
C538 C540 1.478 . S
C539 H533 0.930 . S
C539 C535 1.400 1_554 S
C539 C538 1.385 . S
C540 C538 1.478 . S
C540 C542 1.381 . S
C540 C546 1.383 . S
C541 C537 1.495 . S
C541 H547 0.959 . S
C541 H548 0.961 . S
C541 H549 0.960 . S
C542 C540 1.381 . S
C542 C543 1.394 . S
C542 H550 0.930 . S
C543 C542 1.394 . S
C543 C544 1.383 . S
C543 H551 0.929 . S
C544 C543 1.383 . S
C544 C545 1.377 . S
C545 H529 0.930 . S
C545 C544 1.377 . S
C545 C546 1.379 . S
C546 H530 0.931 . S
C546 C540 1.383 . S
C546 C545 1.379 . S
H547 C541 0.959 . S
H548 C541 0.961 . S
H549 C541 0.960 . S
H550 C542 0.930 . S
H551 C543 0.929 . S
H552 C560 0.929 . S
H553 C562 0.930 . S
H554 C564 0.930 . S
H555 C567 0.929 . S
H556 C570 0.930 . S
H557 C572 0.960 . S
H558 C572 0.960 . S
H559 C572 0.960 . S
C560 H552 0.929 . S
C560 C561 1.377 . S
C560 C562 1.384 . S
C561 C560 1.377 . S
C561 C567 1.390 . S
C562 H553 0.930 . S
C562 C560 1.384 . S
C562 C563 1.372 . S
C563 C562 1.372 . S
C563 C564 1.400 . S
C563 C568 1.490 . S
C564 H554 0.930 . S
C564 C563 1.400 . S
C564 C567 1.386 . S
H565 C581 0.930 . S
H566 C582 0.931 . S
C567 H555 0.929 . S
C567 C561 1.390 . S
C567 C564 1.386 . S
C568 C563 1.490 . S
C568 C570 1.395 . S
C568 C571 1.403 . S
H569 C575 0.930 . S
C570 H556 0.930 . S
C570 C568 1.395 . S
C570 C573 1.403 . S
C571 C568 1.403 . S
C571 C572 1.524 . S
C571 C575 1.400 . S
C572 H557 0.960 . S
C572 H558 0.960 . S
C572 H559 0.960 . S
C572 C571 1.524 . S
C573 C570 1.403 . S
C573 C574 1.392 . S
C573 C577 1.495 . S
C574 C573 1.392 . S
C574 C575 1.385 . S
C574 C576 1.478 . S
C575 H569 0.930 . S
C575 C571 1.400 . S
C575 C574 1.385 . S
C576 C574 1.478 . S
C576 C578 1.381 . S
C576 C582 1.383 . S
C577 C573 1.495 . S
C577 H583 0.959 . S
C577 H584 0.961 . S
C577 H585 0.960 . S
C578 C576 1.381 . S
C578 C579 1.394 . S
C578 H586 0.930 . S
C579 C578 1.394 . S
C579 C580 1.383 . S
C579 H587 0.929 . S
C580 C579 1.383 . S
C580 C581 1.377 . S
C581 H565 0.930 . S
C581 C580 1.377 . S
C581 C582 1.379 . S
C582 H566 0.931 . S
C582 C576 1.383 . S
C582 C581 1.379 . S
H583 C577 0.959 . S
H584 C577 0.961 . S
H585 C577 0.960 . S
H586 C578 0.930 . S
H587 C579 0.929 . S
H588 C596 0.929 . S
H589 C598 0.930 . S
H590 C600 0.930 . S
H591 C603 0.929 . S
H592 C606 0.930 . S
H593 C608 0.960 . S
H594 C608 0.960 . S
H595 C608 0.961 1_554 S
C596 H588 0.929 . S
C596 C597 1.377 . S
C596 C598 1.384 . S
C597 C596 1.377 . S
C597 C603 1.390 . S
C598 H589 0.930 . S
C598 C596 1.384 . S
C598 C599 1.372 . S
C599 C598 1.372 . S
C599 C600 1.400 . S
C599 C604 1.490 . S
C600 H590 0.930 . S
C600 C599 1.400 . S
C600 C603 1.386 . S
H601 C617 0.930 . S
H602 C618 0.931 . S
C603 H591 0.929 . S
C603 C597 1.390 . S
C603 C600 1.386 . S
C604 C599 1.490 . S
C604 C606 1.395 . S
C604 C607 1.403 . S
H605 C611 0.930 . S
C606 H592 0.930 . S
C606 C604 1.395 . S
C606 C609 1.403 . S
C607 C604 1.403 . S
C607 C608 1.524 1_554 S
C607 C611 1.400 1_554 S
C608 H593 0.960 . S
C608 H594 0.960 . S
C608 H595 0.961 1_556 S
C608 C607 1.524 1_556 S
C609 C606 1.403 . S
C609 C610 1.392 1_554 S
C609 C613 1.495 . S
C610 C609 1.392 1_556 S
C610 C611 1.385 . S
C610 C612 1.478 . S
C611 H605 0.930 . S
C611 C607 1.400 1_556 S
C611 C610 1.385 . S
C612 C610 1.478 . S
C612 C614 1.381 . S
C612 C618 1.383 . S
C613 C609 1.495 . S
C613 H619 0.959 . S
C613 H620 0.961 . S
C613 H621 0.960 . S
C614 C612 1.381 . S
C614 C615 1.394 . S
C614 H622 0.930 . S
C615 C614 1.394 . S
C615 C616 1.383 . S
C615 H623 0.929 . S
C616 C615 1.383 . S
C616 C617 1.377 . S
C617 H601 0.930 . S
C617 C616 1.377 . S
C617 C618 1.379 . S
C618 H602 0.931 . S
C618 C612 1.383 . S
C618 C617 1.379 . S
H619 C613 0.959 . S
H620 C613 0.961 . S
H621 C613 0.960 . S
H622 C614 0.930 . S
H623 C615 0.929 . S
H624 C632 0.929 . S
H625 C634 0.930 . S
H626 C636 0.930 . S
H627 C639 0.929 . S
H628 C642 0.930 . S
H629 C644 0.960 . S
H630 C644 0.960 . S
H631 C644 0.960 . S
C632 H624 0.929 . S
C632 C633 1.377 . S
C632 C634 1.384 . S
C633 C632 1.377 . S
C633 C639 1.390 . S
C634 H625 0.930 . S
C634 C632 1.384 . S
C634 C635 1.372 . S
C635 C634 1.372 . S
C635 C636 1.400 . S
C635 C640 1.490 . S
C636 H626 0.930 . S
C636 C635 1.400 . S
C636 C639 1.386 . S
H637 C653 0.930 . S
H638 C654 0.931 . S
C639 H627 0.929 . S
C639 C633 1.390 . S
C639 C636 1.386 . S
C640 C635 1.490 . S
C640 C642 1.395 . S
C640 C643 1.403 . S
H641 C647 0.930 . S
C642 H628 0.930 . S
C642 C640 1.395 . S
C642 C645 1.403 . S
C643 C640 1.403 . S
C643 C644 1.524 . S
C643 C647 1.400 . S
C644 H629 0.960 . S
C644 H630 0.960 . S
C644 H631 0.960 . S
C644 C643 1.524 . S
C645 C642 1.403 . S
C645 C646 1.392 . S
C645 C649 1.495 . S
C646 C645 1.392 . S
C646 C647 1.385 . S
C646 C648 1.478 . S
C647 H641 0.930 . S
C647 C643 1.400 . S
C647 C646 1.385 . S
C648 C646 1.478 . S
C648 C650 1.381 . S
C648 C654 1.383 . S
C649 C645 1.495 . S
C649 H655 0.959 . S
C649 H656 0.961 . S
C649 H657 0.960 . S
C650 C648 1.381 . S
C650 C651 1.394 . S
C650 H658 0.930 . S
C651 C650 1.394 . S
C651 C652 1.383 . S
C651 H659 0.929 . S
C652 C651 1.383 . S
C652 C653 1.377 . S
C653 H637 0.930 . S
C653 C652 1.377 . S
C653 C654 1.379 . S
C654 H638 0.931 . S
C654 C648 1.383 . S
C654 C653 1.379 . S
H655 C649 0.959 . S
H656 C649 0.961 . S
H657 C649 0.960 . S
H658 C650 0.930 . S
H659 C651 0.929 . S
H660 C668 0.929 . S
H661 C670 0.930 . S
H662 C672 0.930 . S
H663 C675 0.929 . S
H664 C678 0.930 . S
H665 C680 0.960 . S
H666 C680 0.960 . S
H667 C680 0.960 . S
C668 H660 0.929 . S
C668 C669 1.377 . S
C668 C670 1.384 . S
C669 C668 1.377 . S
C669 C675 1.390 . S
C670 H661 0.930 . S
C670 C668 1.384 . S
C670 C671 1.372 . S
C671 C670 1.372 . S
C671 C672 1.400 . S
C671 C676 1.490 . S
C672 H662 0.930 . S
C672 C671 1.400 . S
C672 C675 1.386 . S
H673 C689 0.930 . S
H674 C690 0.931 . S
C675 H663 0.929 . S
C675 C669 1.390 . S
C675 C672 1.386 . S
C676 C671 1.490 . S
C676 C678 1.395 . S
C676 C679 1.403 . S
H677 C683 0.930 . S
C678 H664 0.930 . S
C678 C676 1.395 . S
C678 C681 1.403 . S
C679 C676 1.403 . S
C679 C680 1.524 . S
C679 C683 1.400 . S
C680 H665 0.960 . S
C680 H666 0.960 . S
C680 H667 0.960 . S
C680 C679 1.524 . S
C681 C678 1.403 . S
C681 C682 1.392 . S
C681 C685 1.495 . S
C682 C681 1.392 . S
C682 C683 1.385 . S
C682 C684 1.478 . S
C683 H677 0.930 . S
C683 C679 1.400 . S
C683 C682 1.385 . S
C684 C682 1.478 . S
C684 C686 1.381 . S
C684 C690 1.383 . S
C685 C681 1.495 . S
C685 H691 0.959 . S
C685 H692 0.961 . S
C685 H693 0.960 . S
C686 C684 1.381 . S
C686 C687 1.394 . S
C686 H694 0.930 . S
C687 C686 1.394 . S
C687 C688 1.383 . S
C687 H695 0.929 . S
C688 C687 1.383 . S
C688 C689 1.377 . S
C689 H673 0.930 . S
C689 C688 1.377 . S
C689 C690 1.379 . S
C690 H674 0.931 . S
C690 C684 1.383 . S
C690 C689 1.379 . S
H691 C685 0.959 . S
H692 C685 0.961 . S
H693 C685 0.960 . S
H694 C686 0.930 . S
H695 C687 0.929 . S
H696 C704 0.929 . S
H697 C706 0.930 . S
H698 C708 0.930 . S
H699 C711 0.929 . S
H700 C714 0.930 . S
H701 C716 0.960 . S
H702 C716 0.960 . S
H703 C716 0.960 . S
C704 H696 0.929 . S
C704 C705 1.377 . S
C704 C706 1.384 . S
C705 C704 1.377 . S
C705 C711 1.390 . S
C706 H697 0.930 . S
C706 C704 1.384 . S
C706 C707 1.372 . S
C707 C706 1.372 . S
C707 C708 1.400 . S
C707 C712 1.490 . S
C708 H698 0.930 . S
C708 C707 1.400 . S
C708 C711 1.386 . S
H709 C725 0.930 . S
H710 C726 0.931 . S
C711 H699 0.929 . S
C711 C705 1.390 . S
C711 C708 1.386 . S
C712 C707 1.490 . S
C712 C714 1.395 . S
C712 C715 1.403 . S
H713 C719 0.930 . S
C714 H700 0.930 . S
C714 C712 1.395 . S
C714 C717 1.403 . S
C715 C712 1.403 . S
C715 C716 1.524 . S
C715 C719 1.400 . S
C716 H701 0.960 . S
C716 H702 0.960 . S
C716 H703 0.960 . S
C716 C715 1.524 . S
C717 C714 1.403 . S
C717 C718 1.392 . S
C717 C721 1.495 . S
C718 C717 1.392 . S
C718 C719 1.385 . S
C718 C720 1.478 . S
C719 H713 0.930 . S
C719 C715 1.400 . S
C719 C718 1.385 . S
C720 C718 1.478 . S
C720 C722 1.381 . S
C720 C726 1.383 . S
C721 C717 1.495 . S
C721 H727 0.959 . S
C721 H728 0.961 . S
C721 H729 0.960 . S
C722 C720 1.381 . S
C722 C723 1.394 . S
C722 H730 0.930 . S
C723 C722 1.394 . S
C723 C724 1.383 . S
C723 H731 0.910 1_565 S
C724 C723 1.383 . S
C724 C725 1.377 . S
C725 H709 0.930 . S
C725 C724 1.377 . S
C725 C726 1.379 . S
C726 H710 0.931 . S
C726 C720 1.383 . S
C726 C725 1.379 . S
H727 C721 0.959 . S
H728 C721 0.961 . S
H729 C721 0.960 . S
H730 C722 0.930 . S
H731 C723 0.910 1_545 S
H732 C740 0.929 . S
H733 C742 0.930 . S
H734 C744 0.930 . S
H735 C747 0.929 1_556 S
H736 C750 0.930 . S
H737 C752 0.960 . S
H738 C752 0.960 . S
H739 C752 0.960 . S
C740 H732 0.929 . S
C740 C741 1.377 . S
C740 C742 1.384 . S
C741 C740 1.377 . S
C741 C747 1.390 . S
C742 H733 0.930 . S
C742 C740 1.384 . S
C742 C743 1.372 . S
C743 C742 1.372 . S
C743 C744 1.400 . S
C743 C748 1.490 . S
C744 H734 0.930 . S
C744 C743 1.400 . S
C744 C747 1.386 . S
H745 C761 0.930 . S
H746 C762 0.931 . S
C747 H735 0.929 1_554 S
C747 C741 1.390 . S
C747 C744 1.386 . S
C748 C743 1.490 . S
C748 C750 1.395 . S
C748 C751 1.403 . S
H749 C755 0.930 . S
C750 H736 0.930 . S
C750 C748 1.395 . S
C750 C753 1.403 . S
C751 C748 1.403 . S
C751 C752 1.524 . S
C751 C755 1.400 . S
C752 H737 0.960 . S
C752 H738 0.960 . S
C752 H739 0.960 . S
C752 C751 1.524 . S
C753 C750 1.403 . S
C753 C754 1.392 . S
C753 C757 1.495 . S
C754 C753 1.392 . S
C754 C755 1.385 . S
C754 C756 1.478 . S
C755 H749 0.930 . S
C755 C751 1.400 . S
C755 C754 1.385 . S
C756 C754 1.478 . S
C756 C758 1.381 . S
C756 C762 1.383 . S
C757 C753 1.495 . S
C757 H763 0.959 . S
C757 H764 0.961 . S
C757 H765 0.960 . S
C758 C756 1.381 . S
C758 C759 1.394 . S
C758 H766 0.930 . S
C759 C758 1.394 . S
C759 C760 1.383 . S
C759 H767 0.929 . S
C760 C759 1.383 . S
C760 C761 1.377 . S
C761 H745 0.930 . S
C761 C760 1.377 . S
C761 C762 1.379 . S
C762 H746 0.931 . S
C762 C756 1.383 . S
C762 C761 1.379 . S
H763 C757 0.959 . S
H764 C757 0.961 . S
H765 C757 0.960 . S
H766 C758 0.930 . S
H767 C759 0.929 . S
H768 C776 0.929 . S
H769 C778 0.930 . S
H770 C780 0.930 . S
H771 C783 0.942 . S
H772 C786 0.930 . S
H773 C788 0.960 . S
H774 C788 0.960 . S
H775 C788 0.960 . S
C776 H768 0.929 . S
C776 C777 1.377 . S
C776 C778 1.384 . S
C777 C776 1.377 . S
C777 C783 1.390 . S
C778 H769 0.930 . S
C778 C776 1.384 . S
C778 C779 1.372 . S
C779 C778 1.372 . S
C779 C780 1.400 . S
C779 C784 1.490 . S
C780 H770 0.930 . S
C780 C779 1.400 . S
C780 C783 1.386 . S
H781 C797 0.930 . S
H782 C798 0.931 . S
C783 H771 0.942 . S
C783 C777 1.390 . S
C783 C780 1.386 . S
C784 C779 1.490 . S
C784 C786 1.395 . S
C784 C787 1.403 . S
H785 C791 0.930 . S
C786 H772 0.930 . S
C786 C784 1.395 . S
C786 C789 1.403 . S
C787 C784 1.403 . S
C787 C788 1.524 . S
C787 C791 1.400 . S
C788 H773 0.960 . S
C788 H774 0.960 . S
C788 H775 0.960 . S
C788 C787 1.524 . S
C789 C786 1.403 . S
C789 C790 1.392 . S
C789 C793 1.495 . S
C790 C789 1.392 . S
C790 C791 1.385 . S
C790 C792 1.478 . S
C791 H785 0.930 . S
C791 C787 1.400 . S
C791 C790 1.385 . S
C792 C790 1.478 . S
C792 C794 1.381 . S
C792 C798 1.383 . S
C793 C789 1.495 . S
C793 H799 0.959 . S
C793 H800 0.961 . S
C793 H801 0.960 . S
C794 C792 1.381 . S
C794 C795 1.394 . S
C794 H802 0.930 . S
C795 C794 1.394 . S
C795 C796 1.383 . S
C795 H803 0.929 . S
C796 C795 1.383 . S
C796 C797 1.377 . S
C797 H781 0.930 . S
C797 C796 1.377 . S
C797 C798 1.379 . S
C798 H782 0.931 . S
C798 C792 1.383 . S
C798 C797 1.379 . S
H799 C793 0.959 . S
H800 C793 0.961 . S
H801 C793 0.960 . S
H802 C794 0.930 . S
H803 C795 0.929 . S
H804 C812 0.929 . S
H805 C814 0.930 . S
H806 C816 0.930 . S
H807 C819 0.929 . S
H808 C822 0.930 . S
H809 C824 0.960 . S
H810 C824 0.960 . S
H811 C824 0.960 . S
C812 H804 0.929 . S
C812 C813 1.377 . S
C812 C814 1.384 . S
C813 C812 1.377 . S
C813 C819 1.390 . S
C814 H805 0.930 . S
C814 C812 1.384 . S
C814 C815 1.372 . S
C815 C814 1.372 . S
C815 C816 1.400 . S
C815 C820 1.490 . S
C816 H806 0.930 . S
C816 C815 1.400 . S
C816 C819 1.386 . S
H817 C833 0.930 . S
H818 C834 0.931 . S
C819 H807 0.929 . S
C819 C813 1.390 . S
C819 C816 1.386 . S
C820 C815 1.490 . S
C820 C822 1.395 . S
C820 C823 1.403 . S
H821 C827 0.930 . S
C822 H808 0.930 . S
C822 C820 1.395 . S
C822 C825 1.403 . S
C823 C820 1.403 . S
C823 C824 1.524 . S
C823 C827 1.400 . S
C824 H809 0.960 . S
C824 H810 0.960 . S
C824 H811 0.960 . S
C824 C823 1.524 . S
C825 C822 1.403 . S
C825 C826 1.392 . S
C825 C829 1.495 . S
C826 C825 1.392 . S
C826 C827 1.385 . S
C826 C828 1.478 . S
C827 H821 0.930 . S
C827 C823 1.400 . S
C827 C826 1.385 . S
C828 C826 1.478 . S
C828 C830 1.381 . S
C828 C834 1.383 . S
C829 C825 1.495 . S
C829 H835 0.959 . S
C829 H836 0.961 . S
C829 H837 0.960 . S
C830 C828 1.381 . S
C830 C831 1.394 . S
C830 H838 0.930 . S
C831 C830 1.394 . S
C831 C832 1.383 . S
C831 H839 0.929 . S
C832 C831 1.383 . S
C832 C833 1.377 . S
C833 H817 0.930 . S
C833 C832 1.377 . S
C833 C834 1.379 . S
C834 H818 0.931 . S
C834 C828 1.383 . S
C834 C833 1.379 . S
H835 C829 0.959 . S
H836 C829 0.961 . S
H837 C829 0.960 . S
H838 C830 0.930 . S
H839 C831 0.929 . S
H840 C848 0.929 . S
H841 C850 0.930 . S
H842 C852 0.930 . S
H843 C855 0.929 . S
H844 C858 0.930 . S
H845 C860 0.960 . S
H846 C860 0.960 . S
H847 C860 0.960 . S
C848 H840 0.929 . S
C848 C849 1.377 . S
C848 C850 1.384 . S
C849 C848 1.377 . S
C849 C855 1.390 . S
C850 H841 0.930 . S
C850 C848 1.384 . S
C850 C851 1.372 . S
C851 C850 1.372 . S
C851 C852 1.400 . S
C851 C856 1.490 . S
C852 H842 0.930 . S
C852 C851 1.400 . S
C852 C855 1.386 . S
H853 C869 0.930 . S
H854 C870 0.931 . S
C855 H843 0.929 . S
C855 C849 1.390 . S
C855 C852 1.386 . S
C856 C851 1.490 . S
C856 C858 1.395 . S
C856 C859 1.403 . S
H857 C863 0.930 . S
C858 H844 0.930 . S
C858 C856 1.395 . S
C858 C861 1.403 . S
C859 C856 1.403 . S
C859 C860 1.524 . S
C859 C863 1.400 . S
C860 H845 0.960 . S
C860 H846 0.960 . S
C860 H847 0.960 . S
C860 C859 1.524 . S
C861 C858 1.403 . S
C861 C862 1.392 . S
C861 C865 1.495 . S
C862 C861 1.392 . S
C862 C863 1.385 . S
C862 C864 1.478 . S
C863 H857 0.930 . S
C863 C859 1.400 . S
C863 C862 1.385 . S
C864 C862 1.478 . S
C864 C866 1.381 1_556 S
C864 C870 1.383 . S
C865 C861 1.495 . S
C865 H871 0.959 . S
C865 H872 0.961 . S
C865 H873 0.960 . S
C866 C864 1.381 1_554 S
C866 C867 1.394 . S
C866 H874 0.930 . S
C867 C866 1.394 . S
C867 C868 1.383 . S
C867 H875 0.929 . S
C868 C867 1.383 . S
C868 C869 1.377 1_554 S
C869 H853 0.930 . S
C869 C868 1.377 1_556 S
C869 C870 1.379 . S
C870 H854 0.931 . S
C870 C864 1.383 . S
C870 C869 1.379 . S
H871 C865 0.959 . S
H872 C865 0.961 . S
H873 C865 0.960 . S
H874 C866 0.930 . S
H875 C867 0.929 . S
H876 C884 0.929 . S
H877 C886 0.930 . S
H878 C888 0.930 . S
H879 C891 0.929 1_455 S
H880 C894 0.930 . S
H881 C896 0.960 . S
H882 C896 0.960 . S
H883 C896 0.960 . S
C884 H876 0.929 . S
C884 C885 1.377 . S
C884 C886 1.384 . S
C885 C884 1.377 . S
C885 C891 1.390 . S
C886 H877 0.930 . S
C886 C884 1.384 . S
C886 C887 1.372 . S
C887 C886 1.372 . S
C887 C888 1.400 . S
C887 C892 1.490 . S
C888 H878 0.930 . S
C888 C887 1.400 . S
C888 C891 1.386 . S
H889 C905 0.930 . S
H890 C906 0.931 . S
C891 H879 0.929 1_655 S
C891 C885 1.390 . S
C891 C888 1.386 . S
C892 C887 1.490 . S
C892 C894 1.395 . S
C892 C895 1.403 . S
H893 C899 0.930 . S
C894 H880 0.930 . S
C894 C892 1.395 . S
C894 C897 1.403 . S
C895 C892 1.403 . S
C895 C896 1.524 . S
C895 C899 1.400 . S
C896 H881 0.960 . S
C896 H882 0.960 . S
C896 H883 0.960 . S
C896 C895 1.524 . S
C897 C894 1.403 . S
C897 C898 1.392 . S
C897 C901 1.495 . S
C898 C897 1.392 . S
C898 C899 1.385 . S
C898 C900 1.478 . S
C899 H893 0.930 . S
C899 C895 1.400 . S
C899 C898 1.385 . S
C900 C898 1.478 . S
C900 C902 1.381 . S
C900 C906 1.383 . S
C901 C897 1.495 . S
C901 H907 0.959 . S
C901 H908 0.961 . S
C901 H909 0.960 . S
C902 C900 1.381 . S
C902 C903 1.394 . S
C902 H910 0.930 . S
C903 C902 1.394 . S
C903 C904 1.383 . S
C903 H911 0.929 . S
C904 C903 1.383 . S
C904 C905 1.377 . S
C905 H889 0.930 . S
C905 C904 1.377 . S
C905 C906 1.379 . S
C906 H890 0.931 . S
C906 C900 1.383 . S
C906 C905 1.379 . S
H907 C901 0.959 . S
H908 C901 0.961 . S
H909 C901 0.960 . S
H910 C902 0.930 . S
H911 C903 0.929 . S
H912 C920 0.929 . S
H913 C922 0.930 . S
H914 C924 0.930 . S
H915 C927 0.929 . S
H916 C930 0.930 . S
H917 C932 0.960 . S
H918 C932 0.960 . S
H919 C932 0.960 . S
C920 H912 0.929 . S
C920 C921 1.377 . S
C920 C922 1.384 . S
C921 C920 1.377 . S
C921 C927 1.390 . S
C922 H913 0.930 . S
C922 C920 1.384 . S
C922 C923 1.372 . S
C923 C922 1.372 . S
C923 C924 1.400 . S
C923 C928 1.490 . S
C924 H914 0.930 . S
C924 C923 1.400 . S
C924 C927 1.386 . S
H925 C941 0.930 . S
H926 C942 0.931 . S
C927 H915 0.929 . S
C927 C921 1.390 . S
C927 C924 1.386 . S
C928 C923 1.490 . S
C928 C930 1.395 . S
C928 C931 1.403 . S
H929 C935 0.930 . S
C930 H916 0.930 . S
C930 C928 1.395 . S
C930 C933 1.403 . S
C931 C928 1.403 . S
C931 C932 1.524 . S
C931 C935 1.400 . S
C932 H917 0.960 . S
C932 H918 0.960 . S
C932 H919 0.960 . S
C932 C931 1.524 . S
C933 C930 1.403 . S
C933 C934 1.392 . S
C933 C937 1.495 . S
C934 C933 1.392 . S
C934 C935 1.385 . S
C934 C936 1.478 . S
C935 H929 0.930 . S
C935 C931 1.400 . S
C935 C934 1.385 . S
C936 C934 1.478 . S
C936 C938 1.381 . S
C936 C942 1.383 . S
C937 C933 1.495 . S
C937 H943 0.959 . S
C937 H944 0.961 . S
C937 H945 0.960 . S
C938 C936 1.381 . S
C938 C939 1.394 . S
C938 H946 0.930 . S
C939 C938 1.394 . S
C939 C940 1.383 . S
C939 H947 0.929 . S
C940 C939 1.383 . S
C940 C941 1.377 . S
C941 H925 0.930 . S
C941 C940 1.377 . S
C941 C942 1.379 . S
C942 H926 0.931 . S
C942 C936 1.383 . S
C942 C941 1.379 . S
H943 C937 0.959 . S
H944 C937 0.961 . S
H945 C937 0.960 . S
H946 C938 0.930 . S
H947 C939 0.929 . S
H948 C956 0.929 . S
H949 C958 0.930 . S
H950 C960 0.930 . S
H951 C963 0.929 . S
H952 C966 0.930 . S
H953 C968 0.960 . S
H954 C968 0.960 . S
H955 C968 0.960 . S
C956 H948 0.929 . S
C956 C957 1.377 . S
C956 C958 1.384 . S
C957 C956 1.377 . S
C957 C963 1.390 . S
C958 H949 0.930 . S
C958 C956 1.384 . S
C958 C959 1.372 . S
C959 C958 1.372 . S
C959 C960 1.400 . S
C959 C964 1.490 . S
C960 H950 0.930 . S
C960 C959 1.400 . S
C960 C963 1.386 . S
H961 C977 0.930 . S
H962 C978 0.931 . S
C963 H951 0.929 . S
C963 C957 1.390 . S
C963 C960 1.386 . S
C964 C959 1.490 . S
C964 C966 1.395 . S
C964 C967 1.403 . S
H965 C971 0.930 . S
C966 H952 0.930 . S
C966 C964 1.395 . S
C966 C969 1.403 . S
C967 C964 1.403 . S
C967 C968 1.524 . S
C967 C971 1.400 . S
C968 H953 0.960 . S
C968 H954 0.960 . S
C968 H955 0.960 . S
C968 C967 1.524 . S
C969 C966 1.403 . S
C969 C970 1.392 . S
C969 C973 1.495 . S
C970 C969 1.392 . S
C970 C971 1.385 . S
C970 C972 1.478 . S
C971 H965 0.930 . S
C971 C967 1.400 . S
C971 C970 1.385 . S
C972 C970 1.478 . S
C972 C974 1.381 . S
C972 C978 1.383 . S
C973 C969 1.495 . S
C973 H979 0.959 . S
C973 H980 0.961 . S
C973 H981 0.960 . S
C974 C972 1.381 . S
C974 C975 1.394 . S
C974 H982 0.930 . S
C975 C974 1.394 . S
C975 C976 1.383 . S
C975 H983 0.929 1_455 S
C976 C975 1.383 . S
C976 C977 1.377 . S
C977 H961 0.930 . S
C977 C976 1.377 . S
C977 C978 1.379 . S
C978 H962 0.931 . S
C978 C972 1.383 . S
C978 C977 1.379 . S
H979 C973 0.959 . S
H980 C973 0.961 . S
H981 C973 0.960 . S
H982 C974 0.930 . S
H983 C975 0.929 1_655 S
C273 N170 1.265 . S
C292 N5 1.293 . S
C309 N203 1.273 1_655 S
C328 N38 1.260 1_545 S
C345 N71 1.260 . S
C364 N236 1.254 . S
C381 N137 1.273 1_455 S
C400 N104 1.261 1_565 S
C417 C248 0.714 . S
C436 C17 0.696 . S
C453 C50 0.702 . S
C472 C149 0.735 . S
C489 C182 0.714 . S
C508 C83 0.698 . S
C525 C116 0.703 . S
C544 C215 0.722 . S
C561 C239 1.419 . S
C580 C8 1.393 . S
C597 C41 1.423 . S
C616 C140 1.440 . S
C633 C173 1.415 . S
C652 C74 1.414 . S
C669 C206 1.415 . S
C688 C107 1.410 . S
C705 N14 1.756 . S
C724 C127 1.779 1_565 S
C741 C28 1.770 . S
C760 N47 1.759 . S
C777 C61 1.771 1_545 S
C796 N80 1.741 . S
C813 C94 1.770 . S
C832 N113 1.759 . S
C849 N146 1.759 . S
C868 C193 1.765 . S
C885 C226 1.767 1_655 S
C904 N179 1.766 . S
C921 C259 1.767 . S
C940 N212 1.764 . S
C957 N245 1.758 . S
C976 C160 1.778 1_455 S
