# Generated by pormake.
# Topology rho, (4)-cn, num edge types: 1
# Building blocks:
#     Node 0, Type 0, BuildingBlock: GALJAG_clean_sbu_0, # of connection points: 4
#     Node 1, Type 0, BuildingBlock: GALJAG_clean_sbu_0, # of connection points: 4
#     Node 2, Type 0, BuildingBlock: GALJAG_clean_sbu_0, # of connection points: 4
#     Node 3, Type 0, BuildingBlock: GALJAG_clean_sbu_0, # of connection points: 4
#     Node 4, Type 0, BuildingBlock: GALJAG_clean_sbu_0, # of connection points: 4
#     Node 5, Type 0, BuildingBlock: GALJAG_clean_sbu_0, # of connection points: 4
#     Node 6, Type 0, BuildingBlock: GALJAG_clean_sbu_0, # of connection points: 4
#     Node 7, Type 0, BuildingBlock: GALJAG_clean_sbu_0, # of connection points: 4
#     Node 8, Type 0, BuildingBlock: GALJAG_clean_sbu_0, # of connection points: 4
#     Node 9, Type 0, BuildingBlock: GALJAG_clean_sbu_0, # of connection points: 4
#     Node 10, Type 0, BuildingBlock: GALJAG_clean_sbu_0, # of connection points: 4
#     Node 11, Type 0, BuildingBlock: GALJAG_clean_sbu_0, # of connection points: 4
#     Node 12, Type 0, BuildingBlock: GALJAG_clean_sbu_0, # of connection points: 4
#     Node 13, Type 0, BuildingBlock: GALJAG_clean_sbu_0, # of connection points: 4
#     Node 14, Type 0, BuildingBlock: GALJAG_clean_sbu_0, # of connection points: 4
#     Node 15, Type 0, BuildingBlock: GALJAG_clean_sbu_0, # of connection points: 4
#     Node 16, Type 0, BuildingBlock: GALJAG_clean_sbu_0, # of connection points: 4
#     Node 17, Type 0, BuildingBlock: GALJAG_clean_sbu_0, # of connection points: 4
#     Node 18, Type 0, BuildingBlock: GALJAG_clean_sbu_0, # of connection points: 4
#     Node 19, Type 0, BuildingBlock: GALJAG_clean_sbu_0, # of connection points: 4
#     Node 20, Type 0, BuildingBlock: GALJAG_clean_sbu_0, # of connection points: 4
#     Node 21, Type 0, BuildingBlock: GALJAG_clean_sbu_0, # of connection points: 4
#     Node 22, Type 0, BuildingBlock: GALJAG_clean_sbu_0, # of connection points: 4
#     Node 23, Type 0, BuildingBlock: GALJAG_clean_sbu_0, # of connection points: 4
#     Node 24, Type 0, BuildingBlock: GALJAG_clean_sbu_0, # of connection points: 4
#     Node 25, Type 0, BuildingBlock: GALJAG_clean_sbu_0, # of connection points: 4
#     Node 26, Type 0, BuildingBlock: GALJAG_clean_sbu_0, # of connection points: 4
#     Node 27, Type 0, BuildingBlock: GALJAG_clean_sbu_0, # of connection points: 4
#     Node 28, Type 0, BuildingBlock: GALJAG_clean_sbu_0, # of connection points: 4
#     Node 29, Type 0, BuildingBlock: GALJAG_clean_sbu_0, # of connection points: 4
#     Node 30, Type 0, BuildingBlock: GALJAG_clean_sbu_0, # of connection points: 4
#     Node 31, Type 0, BuildingBlock: GALJAG_clean_sbu_0, # of connection points: 4
#     Node 32, Type 0, BuildingBlock: GALJAG_clean_sbu_0, # of connection points: 4
#     Node 33, Type 0, BuildingBlock: GALJAG_clean_sbu_0, # of connection points: 4
#     Node 34, Type 0, BuildingBlock: GALJAG_clean_sbu_0, # of connection points: 4
#     Node 35, Type 0, BuildingBlock: GALJAG_clean_sbu_0, # of connection points: 4
#     Node 36, Type 0, BuildingBlock: GALJAG_clean_sbu_0, # of connection points: 4
#     Node 37, Type 0, BuildingBlock: GALJAG_clean_sbu_0, # of connection points: 4
#     Node 38, Type 0, BuildingBlock: GALJAG_clean_sbu_0, # of connection points: 4
#     Node 39, Type 0, BuildingBlock: GALJAG_clean_sbu_0, # of connection points: 4
#     Node 40, Type 0, BuildingBlock: GALJAG_clean_sbu_0, # of connection points: 4
#     Node 41, Type 0, BuildingBlock: GALJAG_clean_sbu_0, # of connection points: 4
#     Node 42, Type 0, BuildingBlock: GALJAG_clean_sbu_0, # of connection points: 4
#     Node 43, Type 0, BuildingBlock: GALJAG_clean_sbu_0, # of connection points: 4
#     Node 44, Type 0, BuildingBlock: GALJAG_clean_sbu_0, # of connection points: 4
#     Node 45, Type 0, BuildingBlock: GALJAG_clean_sbu_0, # of connection points: 4
#     Node 46, Type 0, BuildingBlock: GALJAG_clean_sbu_0, # of connection points: 4
#     Node 47, Type 0, BuildingBlock: GALJAG_clean_sbu_0, # of connection points: 4
#     Edge 48, Type (0, 0), BuildingBlock: XIVTED_clean_linker_0, # of connection points: 2
#     Edge 49, Type (0, 0), BuildingBlock: XIVTED_clean_linker_0, # of connection points: 2
#     Edge 50, Type (0, 0), BuildingBlock: XIVTED_clean_linker_0, # of connection points: 2
#     Edge 51, Type (0, 0), BuildingBlock: XIVTED_clean_linker_0, # of connection points: 2
#     Edge 52, Type (0, 0), BuildingBlock: XIVTED_clean_linker_0, # of connection points: 2
#     Edge 53, Type (0, 0), BuildingBlock: XIVTED_clean_linker_0, # of connection points: 2
#     Edge 54, Type (0, 0), BuildingBlock: XIVTED_clean_linker_0, # of connection points: 2
#     Edge 55, Type (0, 0), BuildingBlock: XIVTED_clean_linker_0, # of connection points: 2
#     Edge 56, Type (0, 0), BuildingBlock: XIVTED_clean_linker_0, # of connection points: 2
#     Edge 57, Type (0, 0), BuildingBlock: XIVTED_clean_linker_0, # of connection points: 2
#     Edge 58, Type (0, 0), BuildingBlock: XIVTED_clean_linker_0, # of connection points: 2
#     Edge 59, Type (0, 0), BuildingBlock: XIVTED_clean_linker_0, # of connection points: 2
#     Edge 60, Type (0, 0), BuildingBlock: XIVTED_clean_linker_0, # of connection points: 2
#     Edge 61, Type (0, 0), BuildingBlock: XIVTED_clean_linker_0, # of connection points: 2
#     Edge 62, Type (0, 0), BuildingBlock: XIVTED_clean_linker_0, # of connection points: 2
#     Edge 63, Type (0, 0), BuildingBlock: XIVTED_clean_linker_0, # of connection points: 2
#     Edge 64, Type (0, 0), BuildingBlock: XIVTED_clean_linker_0, # of connection points: 2
#     Edge 65, Type (0, 0), BuildingBlock: XIVTED_clean_linker_0, # of connection points: 2
#     Edge 66, Type (0, 0), BuildingBlock: XIVTED_clean_linker_0, # of connection points: 2
#     Edge 67, Type (0, 0), BuildingBlock: XIVTED_clean_linker_0, # of connection points: 2
#     Edge 68, Type (0, 0), BuildingBlock: XIVTED_clean_linker_0, # of connection points: 2
#     Edge 69, Type (0, 0), BuildingBlock: XIVTED_clean_linker_0, # of connection points: 2
#     Edge 70, Type (0, 0), BuildingBlock: XIVTED_clean_linker_0, # of connection points: 2
#     Edge 71, Type (0, 0), BuildingBlock: XIVTED_clean_linker_0, # of connection points: 2
#     Edge 72, Type (0, 0), BuildingBlock: XIVTED_clean_linker_0, # of connection points: 2
#     Edge 73, Type (0, 0), BuildingBlock: XIVTED_clean_linker_0, # of connection points: 2
#     Edge 74, Type (0, 0), BuildingBlock: XIVTED_clean_linker_0, # of connection points: 2
#     Edge 75, Type (0, 0), BuildingBlock: XIVTED_clean_linker_0, # of connection points: 2
#     Edge 76, Type (0, 0), BuildingBlock: XIVTED_clean_linker_0, # of connection points: 2
#     Edge 77, Type (0, 0), BuildingBlock: XIVTED_clean_linker_0, # of connection points: 2
#     Edge 78, Type (0, 0), BuildingBlock: XIVTED_clean_linker_0, # of connection points: 2
#     Edge 79, Type (0, 0), BuildingBlock: XIVTED_clean_linker_0, # of connection points: 2
#     Edge 80, Type (0, 0), BuildingBlock: XIVTED_clean_linker_0, # of connection points: 2
#     Edge 81, Type (0, 0), BuildingBlock: XIVTED_clean_linker_0, # of connection points: 2
#     Edge 82, Type (0, 0), BuildingBlock: XIVTED_clean_linker_0, # of connection points: 2
#     Edge 83, Type (0, 0), BuildingBlock: XIVTED_clean_linker_0, # of connection points: 2
#     Edge 84, Type (0, 0), BuildingBlock: XIVTED_clean_linker_0, # of connection points: 2
#     Edge 85, Type (0, 0), BuildingBlock: XIVTED_clean_linker_0, # of connection points: 2
#     Edge 86, Type (0, 0), BuildingBlock: XIVTED_clean_linker_0, # of connection points: 2
#     Edge 87, Type (0, 0), BuildingBlock: XIVTED_clean_linker_0, # of connection points: 2
#     Edge 88, Type (0, 0), BuildingBlock: XIVTED_clean_linker_0, # of connection points: 2
#     Edge 89, Type (0, 0), BuildingBlock: XIVTED_clean_linker_0, # of connection points: 2
#     Edge 90, Type (0, 0), BuildingBlock: XIVTED_clean_linker_0, # of connection points: 2
#     Edge 91, Type (0, 0), BuildingBlock: XIVTED_clean_linker_0, # of connection points: 2
#     Edge 92, Type (0, 0), BuildingBlock: XIVTED_clean_linker_0, # of connection points: 2
#     Edge 93, Type (0, 0), BuildingBlock: XIVTED_clean_linker_0, # of connection points: 2
#     Edge 94, Type (0, 0), BuildingBlock: XIVTED_clean_linker_0, # of connection points: 2
#     Edge 95, Type (0, 0), BuildingBlock: XIVTED_clean_linker_0, # of connection points: 2
#     Edge 96, Type (0, 0), BuildingBlock: XIVTED_clean_linker_0, # of connection points: 2
#     Edge 97, Type (0, 0), BuildingBlock: XIVTED_clean_linker_0, # of connection points: 2
#     Edge 98, Type (0, 0), BuildingBlock: XIVTED_clean_linker_0, # of connection points: 2
#     Edge 99, Type (0, 0), BuildingBlock: XIVTED_clean_linker_0, # of connection points: 2
#     Edge 100, Type (0, 0), BuildingBlock: XIVTED_clean_linker_0, # of connection points: 2
#     Edge 101, Type (0, 0), BuildingBlock: XIVTED_clean_linker_0, # of connection points: 2
#     Edge 102, Type (0, 0), BuildingBlock: XIVTED_clean_linker_0, # of connection points: 2
#     Edge 103, Type (0, 0), BuildingBlock: XIVTED_clean_linker_0, # of connection points: 2
#     Edge 104, Type (0, 0), BuildingBlock: XIVTED_clean_linker_0, # of connection points: 2
#     Edge 105, Type (0, 0), BuildingBlock: XIVTED_clean_linker_0, # of connection points: 2
#     Edge 106, Type (0, 0), BuildingBlock: XIVTED_clean_linker_0, # of connection points: 2
#     Edge 107, Type (0, 0), BuildingBlock: XIVTED_clean_linker_0, # of connection points: 2
#     Edge 108, Type (0, 0), BuildingBlock: XIVTED_clean_linker_0, # of connection points: 2
#     Edge 109, Type (0, 0), BuildingBlock: XIVTED_clean_linker_0, # of connection points: 2
#     Edge 110, Type (0, 0), BuildingBlock: XIVTED_clean_linker_0, # of connection points: 2
#     Edge 111, Type (0, 0), BuildingBlock: XIVTED_clean_linker_0, # of connection points: 2
#     Edge 112, Type (0, 0), BuildingBlock: XIVTED_clean_linker_0, # of connection points: 2
#     Edge 113, Type (0, 0), BuildingBlock: XIVTED_clean_linker_0, # of connection points: 2
#     Edge 114, Type (0, 0), BuildingBlock: XIVTED_clean_linker_0, # of connection points: 2
#     Edge 115, Type (0, 0), BuildingBlock: XIVTED_clean_linker_0, # of connection points: 2
#     Edge 116, Type (0, 0), BuildingBlock: XIVTED_clean_linker_0, # of connection points: 2
#     Edge 117, Type (0, 0), BuildingBlock: XIVTED_clean_linker_0, # of connection points: 2
#     Edge 118, Type (0, 0), BuildingBlock: XIVTED_clean_linker_0, # of connection points: 2
#     Edge 119, Type (0, 0), BuildingBlock: XIVTED_clean_linker_0, # of connection points: 2
#     Edge 120, Type (0, 0), BuildingBlock: XIVTED_clean_linker_0, # of connection points: 2
#     Edge 121, Type (0, 0), BuildingBlock: XIVTED_clean_linker_0, # of connection points: 2
#     Edge 122, Type (0, 0), BuildingBlock: XIVTED_clean_linker_0, # of connection points: 2
#     Edge 123, Type (0, 0), BuildingBlock: XIVTED_clean_linker_0, # of connection points: 2
#     Edge 124, Type (0, 0), BuildingBlock: XIVTED_clean_linker_0, # of connection points: 2
#     Edge 125, Type (0, 0), BuildingBlock: XIVTED_clean_linker_0, # of connection points: 2
#     Edge 126, Type (0, 0), BuildingBlock: XIVTED_clean_linker_0, # of connection points: 2
#     Edge 127, Type (0, 0), BuildingBlock: XIVTED_clean_linker_0, # of connection points: 2
#     Edge 128, Type (0, 0), BuildingBlock: XIVTED_clean_linker_0, # of connection points: 2
#     Edge 129, Type (0, 0), BuildingBlock: XIVTED_clean_linker_0, # of connection points: 2
#     Edge 130, Type (0, 0), BuildingBlock: XIVTED_clean_linker_0, # of connection points: 2
#     Edge 131, Type (0, 0), BuildingBlock: XIVTED_clean_linker_0, # of connection points: 2
#     Edge 132, Type (0, 0), BuildingBlock: XIVTED_clean_linker_0, # of connection points: 2
#     Edge 133, Type (0, 0), BuildingBlock: XIVTED_clean_linker_0, # of connection points: 2
#     Edge 134, Type (0, 0), BuildingBlock: XIVTED_clean_linker_0, # of connection points: 2
#     Edge 135, Type (0, 0), BuildingBlock: XIVTED_clean_linker_0, # of connection points: 2
#     Edge 136, Type (0, 0), BuildingBlock: XIVTED_clean_linker_0, # of connection points: 2
#     Edge 137, Type (0, 0), BuildingBlock: XIVTED_clean_linker_0, # of connection points: 2
#     Edge 138, Type (0, 0), BuildingBlock: XIVTED_clean_linker_0, # of connection points: 2
#     Edge 139, Type (0, 0), BuildingBlock: XIVTED_clean_linker_0, # of connection points: 2
#     Edge 140, Type (0, 0), BuildingBlock: XIVTED_clean_linker_0, # of connection points: 2
#     Edge 141, Type (0, 0), BuildingBlock: XIVTED_clean_linker_0, # of connection points: 2
#     Edge 142, Type (0, 0), BuildingBlock: XIVTED_clean_linker_0, # of connection points: 2
#     Edge 143, Type (0, 0), BuildingBlock: XIVTED_clean_linker_0, # of connection points: 2
# Relax obj value: 0.062
# Max RMSD: 0.056
# Mean RMSD: 0.055
data_MOF--net-rho--node1-GALJAG_clean_sbu_0--edge1-XIVTED_clean_linker_0
_symmetry_space_group_name_H-M    P1
_symmetry_Int_Tables_number       1
_symmetry_cell_setting            triclinic
loop_
_symmetry_equiv_pos_as_xyz
'x, y, z'
_cell_length_a     73.552711
_cell_length_b     73.581399
_cell_length_c     73.579285
_cell_angle_alpha  90.068328
_cell_angle_beta   90.030261
_cell_angle_gamma 90.136478
loop_
_atom_site_label
_atom_site_type_symbol
_atom_site_fract_x
_atom_site_fract_y
_atom_site_fract_z
_atom_type_partial_charge
In0 In 0.09928 0.24744 0.39244 0.0
O1 O 0.10819 0.26169 0.41875 0.0
O2 O 0.09921 0.23424 0.42022 0.0
C3 C 0.10577 0.27297 0.36706 0.0
C4 C 0.12377 0.22204 0.383 0.0
C5 C 0.06264 0.24595 0.39115 0.0
O6 O 0.10854 0.27587 0.38377 0.0
O7 O 0.09983 0.25731 0.36333 0.0
O8 O 0.07249 0.23329 0.38508 0.0
O9 O 0.07129 0.25922 0.39777 0.0
C10 C 0.10512 0.24797 0.42862 0.0
O11 O 0.10686 0.21897 0.38274 0.0
O12 O 0.12821 0.23789 0.38787 0.0
In13 In 0.74495 0.09956 0.3921 0.0
O14 O 0.75951 0.07276 0.38614 0.0
O15 O 0.73428 0.07169 0.40013 0.0
C16 C 0.7701 0.12366 0.38094 0.0
C17 C 0.71931 0.10401 0.36636 0.0
C18 C 0.74416 0.10812 0.42772 0.0
O19 O 0.77343 0.10688 0.38225 0.0
O20 O 0.75408 0.12818 0.3851 0.0
O21 O 0.73006 0.10869 0.41792 0.0
O22 O 0.75842 0.10334 0.41953 0.0
C23 C 0.74748 0.063 0.39355 0.0
O24 O 0.71665 0.10847 0.38273 0.0
O25 O 0.73476 0.09735 0.36315 0.0
In26 In 0.89168 0.74888 0.38979 0.0
O27 O 0.87794 0.77 0.37157 0.0
O28 O 0.8771 0.77415 0.4001 0.0
C29 C 0.92681 0.74969 0.37877 0.0
C30 C 0.89116 0.74402 0.42607 0.0
C31 C 0.87533 0.72188 0.37094 0.0
O32 O 0.91768 0.76395 0.38121 0.0
O33 O 0.91816 0.7352 0.38158 0.0
O34 O 0.88289 0.71923 0.3861 0.0
O35 O 0.87551 0.73818 0.36569 0.0
C36 C 0.87272 0.77985 0.38457 0.0
O37 O 0.87793 0.73938 0.41608 0.0
O38 O 0.90448 0.75087 0.4177 0.0
In39 In 0.24518 0.892 0.39028 0.0
O40 O 0.23096 0.91839 0.38179 0.0
O41 O 0.25812 0.91991 0.39159 0.0
C42 C 0.21981 0.86649 0.38358 0.0
C43 C 0.27049 0.88303 0.36552 0.0
C44 C 0.24617 0.88975 0.42682 0.0
O45 O 0.21682 0.88319 0.38095 0.0
O46 O 0.23552 0.86282 0.38937 0.0
O47 O 0.25923 0.88446 0.41702 0.0
O48 O 0.23284 0.89613 0.41817 0.0
C49 C 0.24447 0.92833 0.3856 0.0
O50 O 0.27367 0.88263 0.38239 0.0
O51 O 0.25459 0.88787 0.36126 0.0
In52 In 0.09646 0.74293 0.59808 0.0
O53 O 0.07048 0.75761 0.60704 0.0
O54 O 0.06846 0.73002 0.59865 0.0
C55 C 0.12213 0.76838 0.60411 0.0
C56 C 0.10615 0.71769 0.62265 0.0
C57 C 0.09713 0.74143 0.56145 0.0
O58 O 0.10553 0.77116 0.60752 0.0
O59 O 0.12564 0.75287 0.59771 0.0
O60 O 0.10334 0.72877 0.57119 0.0
O61 O 0.09069 0.75468 0.57019 0.0
C62 C 0.06035 0.74398 0.60436 0.0
O63 O 0.10577 0.71435 0.6058 0.0
O64 O 0.10176 0.73369 0.62695 0.0
In65 In 0.24249 0.09771 0.59909 0.0
O66 O 0.21405 0.10584 0.60855 0.0
O67 O 0.23364 0.12673 0.6042 0.0
C68 C 0.24159 0.06115 0.60093 0.0
C69 C 0.2429 0.10286 0.56281 0.0
C70 C 0.26834 0.10364 0.62426 0.0
O71 O 0.22858 0.07081 0.6066 0.0
O72 O 0.25475 0.06994 0.59433 0.0
O73 O 0.27097 0.1069 0.6076 0.0
O74 O 0.2527 0.09768 0.62808 0.0
C75 C 0.21761 0.12266 0.60874 0.0
O76 O 0.25646 0.10663 0.57268 0.0
O77 O 0.22934 0.09665 0.57126 0.0
In78 In 0.88939 0.24302 0.59845 0.0
O79 O 0.88009 0.27153 0.60659 0.0
O80 O 0.88788 0.25318 0.6275 0.0
C81 C 0.88354 0.24361 0.56223 0.0
C82 C 0.92605 0.24219 0.60034 0.0
C83 C 0.86537 0.21719 0.60824 0.0
O84 O 0.88 0.25706 0.57229 0.0
O85 O 0.88989 0.23002 0.57047 0.0
O86 O 0.88231 0.21439 0.60809 0.0
O87 O 0.86066 0.23296 0.60347 0.0
C88 C 0.88219 0.2688 0.6234 0.0
O89 O 0.91627 0.22933 0.60613 0.0
O90 O 0.91735 0.25533 0.59368 0.0
In91 In 0.74174 0.88888 0.5937 0.0
O92 O 0.72368 0.88187 0.56926 0.0
O93 O 0.75234 0.88008 0.56609 0.0
C94 C 0.71684 0.88634 0.62048 0.0
C95 C 0.76774 0.86558 0.60452 0.0
C96 C 0.74642 0.92513 0.59028 0.0
O97 O 0.71472 0.87864 0.60529 0.0
O98 O 0.73147 0.89514 0.62212 0.0
O99 O 0.7574 0.91529 0.599 0.0
O100 O 0.73328 0.91668 0.58322 0.0
C101 C 0.73688 0.87834 0.55889 0.0
O102 O 0.77113 0.88195 0.60063 0.0
O103 O 0.75122 0.86108 0.60319 0.0
In104 In 0.39019 0.09667 0.24419 0.0
O105 O 0.38169 0.10617 0.27252 0.0
O106 O 0.36099 0.09853 0.25374 0.0
C107 C 0.42652 0.10161 0.24501 0.0
C108 C 0.38784 0.06008 0.2435 0.0
C109 C 0.38152 0.1213 0.21864 0.0
O110 O 0.41652 0.10553 0.2584 0.0
O111 O 0.41818 0.0953 0.23142 0.0
O112 O 0.38078 0.1044 0.21561 0.0
O113 O 0.38652 0.12562 0.23447 0.0
C114 C 0.36489 0.10424 0.26945 0.0
O115 O 0.38262 0.06976 0.23033 0.0
O116 O 0.3941 0.06887 0.25683 0.0
In117 In 0.89145 0.39352 0.24655 0.0
O118 O 0.91793 0.38573 0.23213 0.0
O119 O 0.91946 0.39578 0.2592 0.0
C120 C 0.86647 0.38655 0.2207 0.0
C121 C 0.88357 0.36794 0.27148 0.0
C122 C 0.88861 0.42999 0.24861 0.0
O123 O 0.8833 0.38455 0.21793 0.0
O124 O 0.86236 0.39192 0.23646 0.0
O125 O 0.88326 0.41972 0.26128 0.0
O126 O 0.89521 0.42184 0.23506 0.0
C127 C 0.9279 0.38991 0.24549 0.0
O128 O 0.88204 0.38471 0.27482 0.0
O129 O 0.88885 0.3642 0.2556 0.0
In130 In 0.601 0.88956 0.24187 0.0
O131 O 0.61059 0.87928 0.26959 0.0
O132 O 0.6302 0.8905 0.25149 0.0
C133 C 0.56484 0.88353 0.24298 0.0
C134 C 0.60177 0.92617 0.24111 0.0
C135 C 0.61056 0.86522 0.21634 0.0
O136 O 0.57492 0.88084 0.25663 0.0
O137 O 0.57304 0.88909 0.22901 0.0
O138 O 0.61014 0.88209 0.21315 0.0
O139 O 0.60628 0.86078 0.23234 0.0
C140 C 0.62704 0.8834 0.26677 0.0
O141 O 0.60757 0.91667 0.22803 0.0
O142 O 0.59567 0.91719 0.25436 0.0
In143 In 0.09788 0.60013 0.24346 0.0
O144 O 0.10724 0.5737 0.25694 0.0
O145 O 0.09545 0.57212 0.23063 0.0
C146 C 0.10671 0.62457 0.26919 0.0
C147 C 0.12194 0.60932 0.21749 0.0
C148 C 0.06139 0.60414 0.24405 0.0
O149 O 0.10782 0.60765 0.27192 0.0
O150 O 0.1012 0.62902 0.25358 0.0
O151 O 0.0709 0.60915 0.23067 0.0
O152 O 0.07026 0.59705 0.25685 0.0
C153 C 0.10249 0.56373 0.24379 0.0
O154 O 0.10502 0.60901 0.21453 0.0
O155 O 0.12658 0.60497 0.2334 0.0
In156 In 0.39344 0.88759 0.74469 0.0
O157 O 0.38362 0.88055 0.7732 0.0
O158 O 0.38573 0.85914 0.75384 0.0
C159 C 0.39445 0.92421 0.74713 0.0
C160 C 0.42907 0.87899 0.74388 0.0
C161 C 0.36802 0.88268 0.71879 0.0
O162 O 0.38727 0.9144 0.75922 0.0
O163 O 0.40108 0.91556 0.73392 0.0
O164 O 0.38445 0.87838 0.71634 0.0
O165 O 0.36457 0.88944 0.73415 0.0
C166 C 0.38175 0.86381 0.76986 0.0
O167 O 0.41918 0.87823 0.72986 0.0
O168 O 0.42096 0.88399 0.75811 0.0
In169 In 0.09914 0.3908 0.7475 0.0
O170 O 0.10729 0.41761 0.73382 0.0
O171 O 0.09571 0.41866 0.76025 0.0
C172 C 0.10699 0.36593 0.72188 0.0
C173 C 0.12432 0.3825 0.77266 0.0
C174 C 0.06275 0.38649 0.74795 0.0
O175 O 0.10852 0.38279 0.71897 0.0
O176 O 0.10172 0.36177 0.73766 0.0
O177 O 0.07253 0.38247 0.76148 0.0
O178 O 0.07133 0.39268 0.73448 0.0
C179 C 0.1022 0.42736 0.747 0.0
O180 O 0.10748 0.38125 0.77585 0.0
O181 O 0.12831 0.3879 0.75689 0.0
In182 In 0.5972 0.09877 0.74516 0.0
O183 O 0.60274 0.07241 0.76066 0.0
O184 O 0.58772 0.07082 0.73602 0.0
C185 C 0.60912 0.12331 0.76959 0.0
C186 C 0.62278 0.10104 0.71907 0.0
C187 C 0.56178 0.10795 0.74343 0.0
O188 O 0.60684 0.10676 0.77353 0.0
O189 O 0.60562 0.12736 0.7533 0.0
O190 O 0.57176 0.10752 0.72946 0.0
O191 O 0.56973 0.10393 0.75806 0.0
C192 C 0.59453 0.06245 0.74932 0.0
O193 O 0.60696 0.10732 0.71691 0.0
O194 O 0.6256 0.09377 0.73432 0.0
In195 In 0.89185 0.60066 0.74467 0.0
O196 O 0.91811 0.60929 0.75919 0.0
O197 O 0.91949 0.60218 0.73121 0.0
C198 C 0.86654 0.60575 0.77059 0.0
C199 C 0.8813 0.62519 0.71976 0.0
C200 C 0.89178 0.56408 0.74257 0.0
O201 O 0.88302 0.61 0.773 0.0
O202 O 0.86297 0.59907 0.75519 0.0
O203 O 0.88504 0.5739 0.73023 0.0
O204 O 0.89843 0.57272 0.75581 0.0
C205 C 0.92792 0.60729 0.74524 0.0
O206 O 0.88195 0.60838 0.71633 0.0
O207 O 0.88585 0.62952 0.73574 0.0
In208 In 0.24578 0.39261 0.09873 0.0
O209 O 0.27387 0.38322 0.10817 0.0
O210 O 0.25589 0.36363 0.09667 0.0
C211 C 0.24681 0.42821 0.10736 0.0
C212 C 0.24381 0.39382 0.06211 0.0
C213 C 0.22038 0.38158 0.1226 0.0
O214 O 0.26079 0.41831 0.10814 0.0
O215 O 0.23255 0.42015 0.10226 0.0
O216 O 0.2171 0.38305 0.10581 0.0
O217 O 0.23645 0.38549 0.1272 0.0
C218 C 0.27124 0.36685 0.10363 0.0
O219 O 0.2315 0.38667 0.07169 0.0
O220 O 0.25697 0.40031 0.071 0.0
In221 In 0.24584 0.59806 0.88991 0.0
O222 O 0.26178 0.57267 0.88153 0.0
O223 O 0.23302 0.57073 0.88363 0.0
C224 C 0.27208 0.6236 0.88798 0.0
C225 C 0.22135 0.61007 0.86555 0.0
C226 C 0.24112 0.59491 0.92612 0.0
O227 O 0.27401 0.60798 0.88115 0.0
O228 O 0.25698 0.62627 0.89561 0.0
O229 O 0.23007 0.60343 0.91616 0.0
O230 O 0.25443 0.58805 0.91781 0.0
C231 C 0.24779 0.56277 0.8802 0.0
O232 O 0.21747 0.60769 0.88209 0.0
O233 O 0.23765 0.60668 0.86141 0.0
In234 In 0.3909 0.24109 0.89005 0.0
O235 O 0.38307 0.22732 0.91684 0.0
O236 O 0.39625 0.25304 0.91797 0.0
C237 C 0.38067 0.21567 0.86574 0.0
C238 C 0.3663 0.26739 0.88386 0.0
C239 C 0.42717 0.24127 0.88451 0.0
O240 O 0.38096 0.21261 0.88263 0.0
O241 O 0.38545 0.23152 0.86122 0.0
O242 O 0.41734 0.25484 0.88084 0.0
O243 O 0.41867 0.22777 0.89077 0.0
C244 C 0.38928 0.24 0.92664 0.0
O245 O 0.38303 0.26964 0.88067 0.0
O246 O 0.36211 0.25192 0.88996 0.0
In247 In 0.7444 0.39063 0.89061 0.0
O248 O 0.77258 0.38145 0.88129 0.0
O249 O 0.75455 0.39259 0.86163 0.0
C250 C 0.74532 0.3834 0.92651 0.0
C251 C 0.74257 0.42723 0.89117 0.0
C252 C 0.71939 0.36598 0.88025 0.0
O253 O 0.75921 0.38174 0.91656 0.0
O254 O 0.73119 0.38855 0.91831 0.0
O255 O 0.71582 0.38274 0.88128 0.0
O256 O 0.73555 0.36182 0.88422 0.0
C257 C 0.76998 0.38591 0.86491 0.0
O258 O 0.73016 0.41758 0.8842 0.0
O259 O 0.75568 0.41841 0.89776 0.0
In260 In 0.5991 0.74695 0.88933 0.0
O261 O 0.6083 0.71886 0.87968 0.0
O262 O 0.62799 0.7366 0.89138 0.0
C263 C 0.56353 0.74634 0.88035 0.0
C264 C 0.59759 0.7485 0.92597 0.0
C265 C 0.61113 0.77247 0.86613 0.0
O266 O 0.57331 0.73227 0.87966 0.0
O267 O 0.57172 0.76052 0.88543 0.0
O268 O 0.60922 0.77555 0.88292 0.0
O269 O 0.607 0.75656 0.86115 0.0
C270 C 0.62468 0.72135 0.88426 0.0
O271 O 0.60464 0.761 0.91658 0.0
O272 O 0.59133 0.73536 0.91689 0.0
In273 In 0.74714 0.59933 0.10071 0.0
O274 O 0.76174 0.6077 0.07441 0.0
O275 O 0.73426 0.5987 0.07287 0.0
C276 C 0.77159 0.60638 0.12704 0.0
C277 C 0.72144 0.62404 0.10849 0.0
C278 C 0.74611 0.56273 0.10186 0.0
O279 O 0.77512 0.60902 0.11044 0.0
O280 O 0.75584 0.60032 0.13019 0.0
O281 O 0.73308 0.57236 0.1075 0.0
O282 O 0.75952 0.57158 0.09585 0.0
C283 C 0.74806 0.60447 0.06449 0.0
O284 O 0.71854 0.60715 0.10983 0.0
O285 O 0.73733 0.62832 0.10358 0.0
In286 In 0.39175 0.7446 0.09946 0.0
O287 O 0.38199 0.77298 0.10717 0.0
O288 O 0.38347 0.75297 0.12797 0.0
C289 C 0.39519 0.74859 0.0632 0.0
C290 C 0.42708 0.74293 0.10903 0.0
C291 C 0.36597 0.71862 0.1016 0.0
O292 O 0.38669 0.75993 0.07287 0.0
O293 O 0.40183 0.73538 0.07182 0.0
O294 O 0.38161 0.71657 0.10837 0.0
O295 O 0.36343 0.73371 0.0939 0.0
C296 C 0.37989 0.76919 0.12377 0.0
O297 O 0.41719 0.7289 0.10814 0.0
O298 O 0.41908 0.75759 0.10528 0.0
In299 In 0.59885 0.24489 0.09836 0.0
O300 O 0.57219 0.25856 0.1069 0.0
O301 O 0.5711 0.2316 0.09652 0.0
C302 C 0.62379 0.27048 0.10633 0.0
C303 C 0.60756 0.21944 0.12307 0.0
C304 C 0.60167 0.2444 0.0618 0.0
O305 O 0.60693 0.27335 0.10797 0.0
O306 O 0.62791 0.25481 0.10074 0.0
O307 O 0.60684 0.23123 0.0715 0.0
O308 O 0.59519 0.25762 0.07055 0.0
C309 C 0.56246 0.24498 0.10279 0.0
O310 O 0.60865 0.21649 0.10617 0.0
O311 O 0.60221 0.23515 0.12735 0.0
In312 In 0.88834 0.74457 0.59877 0.0
O313 O 0.87927 0.73135 0.57196 0.0
O314 O 0.89545 0.75527 0.57077 0.0
C315 C 0.87905 0.71931 0.62344 0.0
C316 C 0.86349 0.77053 0.6055 0.0
C317 C 0.92447 0.74453 0.60487 0.0
O318 O 0.87907 0.716 0.60657 0.0
O319 O 0.88358 0.73531 0.62771 0.0
O320 O 0.91482 0.75844 0.60775 0.0
O321 O 0.91585 0.73086 0.59907 0.0
C322 C 0.8872 0.74297 0.56213 0.0
O323 O 0.88035 0.77343 0.60722 0.0
O324 O 0.85935 0.75471 0.60036 0.0
In325 In 0.24485 0.8886 0.59945 0.0
O326 O 0.23017 0.91484 0.60761 0.0
O327 O 0.25697 0.91677 0.59692 0.0
C328 C 0.2197 0.86289 0.60628 0.0
C329 C 0.27026 0.88127 0.62468 0.0
C330 C 0.24615 0.88615 0.56294 0.0
O331 O 0.21655 0.8796 0.60861 0.0
O332 O 0.23551 0.85925 0.60075 0.0
O333 O 0.25926 0.88115 0.57284 0.0
O334 O 0.23258 0.89216 0.57148 0.0
C335 C 0.24327 0.92501 0.60306 0.0
O336 O 0.27337 0.87967 0.60787 0.0
O337 O 0.25436 0.88631 0.62863 0.0
In338 In 0.09907 0.2447 0.60056 0.0
O339 O 0.10814 0.25914 0.57446 0.0
O340 O 0.09909 0.23174 0.57263 0.0
C341 C 0.10599 0.26999 0.62613 0.0
C342 C 0.12319 0.21889 0.60982 0.0
C343 C 0.06239 0.24382 0.60169 0.0
O344 O 0.10866 0.27295 0.60943 0.0
O345 O 0.09992 0.25437 0.62979 0.0
O346 O 0.07199 0.23092 0.60763 0.0
O347 O 0.07129 0.257 0.5953 0.0
C348 C 0.10507 0.24554 0.56441 0.0
O349 O 0.10625 0.21601 0.60989 0.0
O350 O 0.12783 0.23477 0.60525 0.0
In351 In 0.74591 0.09731 0.59805 0.0
O352 O 0.76067 0.07039 0.60309 0.0
O353 O 0.73602 0.06985 0.58801 0.0
C354 C 0.77072 0.12143 0.61008 0.0
C355 C 0.71993 0.09967 0.62371 0.0
C356 C 0.74435 0.10714 0.56281 0.0
O357 O 0.7745 0.10489 0.60752 0.0
O358 O 0.75442 0.12565 0.60684 0.0
O359 O 0.73042 0.10704 0.57284 0.0
O360 O 0.75887 0.10246 0.57061 0.0
C361 C 0.74906 0.06095 0.59462 0.0
O362 O 0.71777 0.106 0.60791 0.0
O363 O 0.73514 0.09229 0.62648 0.0
In364 In 0.8897 0.24424 0.39025 0.0
O365 O 0.88059 0.27275 0.38194 0.0
O366 O 0.88957 0.25457 0.36129 0.0
C367 C 0.88353 0.24401 0.42638 0.0
C368 C 0.92634 0.24323 0.38938 0.0
C369 C 0.86509 0.21919 0.37993 0.0
O370 O 0.88056 0.2579 0.41675 0.0
O371 O 0.88945 0.23045 0.41775 0.0
O372 O 0.88194 0.21585 0.38028 0.0
O373 O 0.8608 0.2351 0.38466 0.0
C374 C 0.88358 0.27014 0.36522 0.0
O375 O 0.91669 0.23052 0.38296 0.0
O376 O 0.9175 0.25625 0.39611 0.0
In377 In 0.74515 0.8903 0.39134 0.0
O378 O 0.72623 0.88571 0.41575 0.0
O379 O 0.75308 0.87541 0.41723 0.0
C380 C 0.72121 0.88374 0.36431 0.0
C381 C 0.77577 0.87247 0.38246 0.0
C382 C 0.74773 0.92689 0.39434 0.0
O383 O 0.72025 0.87574 0.37944 0.0
O384 O 0.73422 0.89482 0.36288 0.0
O385 O 0.75862 0.91765 0.38491 0.0
O386 O 0.7357 0.9177 0.40232 0.0
C387 C 0.738 0.87745 0.42505 0.0
O388 O 0.77581 0.88661 0.39221 0.0
O389 O 0.76026 0.8674 0.37703 0.0
In390 In 0.09751 0.74537 0.38855 0.0
O391 O 0.10651 0.71668 0.38094 0.0
O392 O 0.10444 0.73642 0.35992 0.0
C393 C 0.09701 0.74329 0.42518 0.0
C394 C 0.06181 0.74657 0.38037 0.0
C395 C 0.123 0.77116 0.38349 0.0
O396 O 0.10411 0.73109 0.41544 0.0
O397 O 0.09021 0.75634 0.41645 0.0
O398 O 0.10648 0.77372 0.37956 0.0
O399 O 0.12654 0.75568 0.38991 0.0
C400 C 0.10802 0.72022 0.36421 0.0
O401 O 0.07193 0.76041 0.37927 0.0
O402 O 0.0697 0.7323 0.38558 0.0
In403 In 0.24367 0.10084 0.39027 0.0
O404 O 0.25771 0.10903 0.41691 0.0
O405 O 0.23084 0.09839 0.41816 0.0
C406 C 0.26935 0.1081 0.3653 0.0
C407 C 0.21874 0.12617 0.38191 0.0
C408 C 0.24257 0.06438 0.38666 0.0
O409 O 0.27231 0.10979 0.38214 0.0
O410 O 0.25349 0.10295 0.36121 0.0
O411 O 0.22939 0.07433 0.38198 0.0
O412 O 0.25602 0.07283 0.39313 0.0
C413 C 0.24434 0.1046 0.42674 0.0
O414 O 0.21528 0.10936 0.38101 0.0
O415 O 0.23469 0.13006 0.3869 0.0
In416 In 0.59924 0.89026 0.74685 0.0
O417 O 0.60908 0.88349 0.77544 0.0
O418 O 0.60954 0.86253 0.7555 0.0
C419 C 0.5955 0.92657 0.75007 0.0
C420 C 0.56412 0.87965 0.74577 0.0
C421 C 0.62427 0.88796 0.72026 0.0
O422 O 0.60448 0.91731 0.76136 0.0
O423 O 0.58847 0.91752 0.73731 0.0
O424 O 0.60881 0.88058 0.71892 0.0
O425 O 0.62702 0.89638 0.73495 0.0
C426 C 0.61258 0.8671 0.77176 0.0
O427 O 0.5738 0.88058 0.73163 0.0
O428 O 0.57222 0.88386 0.76028 0.0
In429 In 0.10007 0.60023 0.74605 0.0
O430 O 0.10878 0.60753 0.71715 0.0
O431 O 0.10441 0.62901 0.73605 0.0
C432 C 0.10282 0.56363 0.74556 0.0
C433 C 0.06377 0.60536 0.74689 0.0
C434 C 0.12511 0.60872 0.77137 0.0
O435 O 0.10835 0.57337 0.73258 0.0
O436 O 0.09601 0.57234 0.75864 0.0
O437 O 0.10826 0.61037 0.77425 0.0
O438 O 0.12921 0.60274 0.75583 0.0
C439 C 0.10871 0.62446 0.72009 0.0
O440 O 0.07378 0.6088 0.76042 0.0
O441 O 0.07207 0.59935 0.73317 0.0
In442 In 0.39124 0.097 0.7449 0.0
O443 O 0.41679 0.10649 0.72976 0.0
O444 O 0.4187 0.1014 0.75814 0.0
C445 C 0.3653 0.10124 0.71946 0.0
C446 C 0.37993 0.12095 0.77009 0.0
C447 C 0.39321 0.06042 0.74696 0.0
O448 O 0.38155 0.10619 0.71684 0.0
O449 O 0.36229 0.09418 0.73478 0.0
O450 O 0.38565 0.06986 0.75914 0.0
O451 O 0.39969 0.06943 0.73392 0.0
C452 C 0.4267 0.10623 0.74379 0.0
O453 O 0.38196 0.10427 0.77361 0.0
O454 O 0.38341 0.12539 0.75389 0.0
In455 In 0.89078 0.39131 0.7423 0.0
O456 O 0.88416 0.41809 0.72786 0.0
O457 O 0.89704 0.41921 0.75372 0.0
C458 C 0.88145 0.36626 0.7173 0.0
C459 C 0.86497 0.38615 0.7677 0.0
C460 C 0.92688 0.38531 0.7436 0.0
O461 O 0.88146 0.38307 0.71382 0.0
O462 O 0.88591 0.36223 0.73336 0.0
O463 O 0.91675 0.38274 0.75723 0.0
O464 O 0.91876 0.39071 0.72952 0.0
C465 C 0.89064 0.42788 0.74042 0.0
O466 O 0.88145 0.38226 0.77052 0.0
O467 O 0.86162 0.39245 0.75211 0.0
In468 In 0.59889 0.09895 0.24359 0.0
O469 O 0.57232 0.10713 0.25768 0.0
O470 O 0.57114 0.09798 0.23028 0.0
C471 C 0.62389 0.10503 0.26961 0.0
C472 C 0.60808 0.1242 0.21879 0.0
C473 C 0.60082 0.06241 0.24176 0.0
O474 O 0.60716 0.10792 0.27221 0.0
O475 O 0.62786 0.09929 0.25394 0.0
O476 O 0.60673 0.07248 0.22917 0.0
O477 O 0.59404 0.0708 0.25508 0.0
C478 C 0.56255 0.10365 0.24397 0.0
O479 O 0.60852 0.10739 0.21532 0.0
O480 O 0.6032 0.12816 0.23475 0.0
In481 In 0.88931 0.60283 0.25204 0.0
O482 O 0.91544 0.61266 0.23812 0.0
O483 O 0.91735 0.60238 0.26501 0.0
C484 C 0.86453 0.60925 0.2259 0.0
C485 C 0.87832 0.62589 0.27828 0.0
C486 C 0.88819 0.56618 0.25194 0.0
O487 O 0.88113 0.61325 0.22393 0.0
O488 O 0.86055 0.60223 0.24102 0.0
O489 O 0.88199 0.57544 0.26499 0.0
O490 O 0.89487 0.57539 0.23915 0.0
C491 C 0.92557 0.60883 0.25143 0.0
O492 O 0.87986 0.60902 0.28096 0.0
O493 O 0.88241 0.63106 0.26246 0.0
In494 In 0.39255 0.88729 0.24585 0.0
O495 O 0.38496 0.91405 0.23189 0.0
O496 O 0.39656 0.91524 0.25832 0.0
C497 C 0.38279 0.86274 0.22054 0.0
C498 C 0.36747 0.88011 0.27143 0.0
C499 C 0.42888 0.88224 0.2461 0.0
O500 O 0.38265 0.87963 0.21745 0.0
O501 O 0.38786 0.85834 0.23632 0.0
O502 O 0.4191 0.87863 0.25975 0.0
O503 O 0.42031 0.88824 0.23254 0.0
C504 C 0.39018 0.92387 0.24498 0.0
O505 O 0.38427 0.87796 0.27432 0.0
O506 O 0.3635 0.88579 0.25576 0.0
In507 In 0.10061 0.39134 0.24305 0.0
O508 O 0.10976 0.38331 0.27166 0.0
O509 O 0.1017 0.3624 0.25329 0.0
C510 C 0.10533 0.42771 0.24288 0.0
C511 C 0.06405 0.38894 0.24238 0.0
C512 C 0.12533 0.38167 0.21795 0.0
O513 O 0.10944 0.4181 0.25649 0.0
O514 O 0.09905 0.41894 0.22954 0.0
O515 O 0.10845 0.38143 0.2147 0.0
O516 O 0.1296 0.38671 0.23379 0.0
C517 C 0.10733 0.3665 0.26897 0.0
O518 O 0.07373 0.38348 0.2293 0.0
O519 O 0.07282 0.39553 0.25557 0.0
In520 In 0.74517 0.60004 0.89246 0.0
O521 O 0.71672 0.60838 0.88327 0.0
O522 O 0.73607 0.62922 0.88884 0.0
C523 C 0.74286 0.56347 0.89158 0.0
C524 C 0.74694 0.60553 0.92863 0.0
C525 C 0.77032 0.60572 0.86648 0.0
O526 O 0.73029 0.57348 0.88558 0.0
O527 O 0.75641 0.57192 0.89787 0.0
O528 O 0.77345 0.60898 0.88305 0.0
O529 O 0.75456 0.59979 0.86313 0.0
C530 C 0.72007 0.62521 0.88407 0.0
O531 O 0.76044 0.60832 0.91837 0.0
O532 O 0.73278 0.6001 0.92059 0.0
In533 In 0.74586 0.38988 0.09827 0.0
O534 O 0.73157 0.4166 0.10541 0.0
O535 O 0.75754 0.41791 0.09284 0.0
C536 C 0.72059 0.36505 0.10737 0.0
C537 C 0.77105 0.38413 0.12415 0.0
C538 C 0.74695 0.38367 0.06216 0.0
O539 O 0.71722 0.38189 0.10718 0.0
O540 O 0.73668 0.36088 0.10317 0.0
O541 O 0.76057 0.38091 0.07226 0.0
O542 O 0.73305 0.38948 0.0703 0.0
C543 C 0.74426 0.42649 0.0994 0.0
O544 O 0.77428 0.38128 0.10752 0.0
O545 O 0.75522 0.3897 0.12757 0.0
In546 In 0.59778 0.74295 0.09876 0.0
O547 O 0.60373 0.75745 0.07189 0.0
O548 O 0.59036 0.73186 0.07085 0.0
C549 C 0.60859 0.76847 0.12263 0.0
C550 C 0.62378 0.71781 0.10401 0.0
C551 C 0.56216 0.74142 0.10733 0.0
O552 O 0.60684 0.77176 0.10587 0.0
O553 O 0.605 0.75234 0.12723 0.0
O554 O 0.57222 0.72754 0.10788 0.0
O555 O 0.57008 0.75584 0.10251 0.0
C556 C 0.59674 0.74516 0.06214 0.0
O557 O 0.60736 0.71494 0.10816 0.0
O558 O 0.62692 0.7332 0.09715 0.0
In559 In 0.24179 0.59824 0.0983 0.0
O560 O 0.21294 0.60733 0.10508 0.0
O561 O 0.23264 0.60751 0.12627 0.0
C562 C 0.2387 0.59457 0.06194 0.0
C563 C 0.24364 0.5631 0.10849 0.0
C564 C 0.26786 0.62391 0.10082 0.0
O565 O 0.22735 0.60346 0.07123 0.0
O566 O 0.25144 0.58759 0.071 0.0
O567 O 0.26964 0.60837 0.10784 0.0
O568 O 0.25297 0.62645 0.09272 0.0
C569 C 0.21637 0.61033 0.12164 0.0
O570 O 0.25759 0.57313 0.10769 0.0
O571 O 0.22896 0.57087 0.10433 0.0
In572 In 0.39014 0.24306 0.09943 0.0
O573 O 0.38276 0.22902 0.07259 0.0
O574 O 0.39523 0.2551 0.07157 0.0
C575 C 0.38098 0.21774 0.12416 0.0
C576 C 0.36473 0.26861 0.10544 0.0
C577 C 0.42641 0.24406 0.10465 0.0
O578 O 0.38095 0.21446 0.1073 0.0
O579 O 0.38545 0.23376 0.12841 0.0
O580 O 0.41637 0.25747 0.10834 0.0
O581 O 0.41812 0.23034 0.09855 0.0
C582 C 0.38868 0.24186 0.06285 0.0
O583 O 0.38139 0.27142 0.10862 0.0
O584 O 0.36102 0.25295 0.09946 0.0
In585 In 0.24811 0.39224 0.88929 0.0
O586 O 0.23364 0.38658 0.91625 0.0
O587 O 0.25926 0.39994 0.91707 0.0
C588 C 0.22251 0.38189 0.86529 0.0
C589 C 0.27299 0.36588 0.88455 0.0
C590 C 0.24976 0.42781 0.88073 0.0
O591 O 0.21928 0.38329 0.8821 0.0
O592 O 0.23866 0.38549 0.86072 0.0
O593 O 0.26359 0.41768 0.87995 0.0
O594 O 0.23537 0.41998 0.88578 0.0
C595 C 0.24598 0.39365 0.92589 0.0
O596 O 0.27613 0.3822 0.88024 0.0
O597 O 0.25744 0.363 0.89116 0.0
In598 In 0.5996 0.24418 0.88898 0.0
O599 O 0.60979 0.21586 0.88148 0.0
O600 O 0.60359 0.23428 0.86008 0.0
C601 C 0.60248 0.24356 0.92555 0.0
C602 C 0.5632 0.244 0.88427 0.0
C603 C 0.62402 0.27026 0.881 0.0
O604 O 0.60777 0.23052 0.91574 0.0
O605 O 0.59586 0.25677 0.91691 0.0
O606 O 0.60711 0.27282 0.87953 0.0
O607 O 0.62847 0.25465 0.88649 0.0
C608 C 0.60906 0.21867 0.86456 0.0
O609 O 0.5729 0.25755 0.8801 0.0
O610 O 0.57186 0.23072 0.89071 0.0
In611 In 0.3931 0.74716 0.89106 0.0
O612 O 0.38298 0.77541 0.88343 0.0
O613 O 0.38419 0.75529 0.86267 0.0
C614 C 0.39626 0.75097 0.92737 0.0
C615 C 0.4284 0.74588 0.88126 0.0
C616 C 0.36762 0.72088 0.8891 0.0
O617 O 0.38795 0.76242 0.91768 0.0
O618 O 0.40296 0.73778 0.91873 0.0
O619 O 0.38333 0.71887 0.88248 0.0
O620 O 0.36487 0.73607 0.89655 0.0
C621 C 0.38051 0.77149 0.86689 0.0
O622 O 0.41847 0.73185 0.88153 0.0
O623 O 0.42047 0.76037 0.88577 0.0
H624 H 0.10523 0.32981 0.26511 0.0
H625 H 0.11531 0.30883 0.37136 0.0
H626 H 0.11532 0.3716 0.30509 0.0
H627 H 0.10275 0.2686 0.33049 0.0
H628 H 0.11817 0.33177 0.34734 0.0
H629 H 0.10726 0.30693 0.28889 0.0
C630 C 0.10797 0.33416 0.27892 0.0
C631 C 0.10996 0.35263 0.28318 0.0
C632 C 0.1149 0.31789 0.34366 0.0
C633 C 0.11218 0.32647 0.31058 0.0
C634 C 0.11328 0.30481 0.35734 0.0
C635 C 0.10866 0.28684 0.35289 0.0
C636 C 0.1119 0.3129 0.32545 0.0
C637 C 0.10621 0.28233 0.33454 0.0
C638 C 0.10912 0.32108 0.29252 0.0
C639 C 0.11363 0.35748 0.30127 0.0
N640 N 0.10779 0.29527 0.32153 0.0
N641 N 0.11449 0.34447 0.31436 0.0
H642 H 0.72353 0.09798 0.33016 0.0
H643 H 0.619 0.11481 0.3053 0.0
H644 H 0.68374 0.11474 0.36984 0.0
H645 H 0.66041 0.10033 0.26638 0.0
H646 H 0.64241 0.1164 0.32902 0.0
H647 H 0.70051 0.10022 0.30649 0.0
C648 C 0.70992 0.10218 0.33388 0.0
C649 C 0.70549 0.10608 0.35199 0.0
C650 C 0.64636 0.11299 0.31526 0.0
C651 C 0.67897 0.10863 0.32492 0.0
C652 C 0.63303 0.1121 0.30174 0.0
C653 C 0.63779 0.10732 0.2839 0.0
C654 C 0.66452 0.10905 0.31087 0.0
C655 C 0.65613 0.10397 0.27999 0.0
C656 C 0.69677 0.10349 0.32035 0.0
C657 C 0.68768 0.11156 0.35602 0.0
N658 N 0.66878 0.10481 0.29336 0.0
N659 N 0.675 0.11258 0.34259 0.0
H660 H 0.85982 0.72455 0.33739 0.0
H661 H 0.87483 0.6194 0.31477 0.0
H662 H 0.8775 0.68523 0.37708 0.0
H663 H 0.86956 0.66164 0.27449 0.0
H664 H 0.8688 0.6419 0.33862 0.0
H665 H 0.85573 0.70004 0.31537 0.0
C666 C 0.86253 0.7107 0.34157 0.0
C667 C 0.86932 0.70693 0.35897 0.0
C668 C 0.86877 0.64617 0.32454 0.0
C669 C 0.86488 0.67887 0.33378 0.0
C670 C 0.8722 0.63336 0.31095 0.0
C671 C 0.87296 0.63876 0.29268 0.0
C672 C 0.86597 0.66444 0.31978 0.0
C673 C 0.86935 0.65697 0.28844 0.0
C674 C 0.86027 0.69673 0.32897 0.0
C675 C 0.87244 0.68874 0.36373 0.0
N676 N 0.86613 0.66917 0.30189 0.0
N677 N 0.87044 0.67538 0.3511 0.0
H678 H 0.3722 0.87227 0.30758 0.0
H679 H 0.26592 0.88106 0.32886 0.0
H680 H 0.33079 0.88104 0.26698 0.0
H681 H 0.30672 0.87606 0.37072 0.0
H682 H 0.28943 0.87713 0.30587 0.0
H683 H 0.34837 0.86982 0.33077 0.0
C684 C 0.3581 0.87351 0.30354 0.0
C685 C 0.35344 0.87705 0.2854 0.0
C686 C 0.29328 0.87678 0.32008 0.0
C687 C 0.32621 0.87429 0.31173 0.0
C688 C 0.27984 0.87902 0.33321 0.0
C689 C 0.28443 0.87909 0.3517 0.0
C690 C 0.31148 0.8747 0.32544 0.0
C691 C 0.30265 0.87622 0.35658 0.0
C692 C 0.34452 0.87214 0.31676 0.0
C693 C 0.33499 0.87848 0.28085 0.0
N694 N 0.31556 0.8743 0.34351 0.0
N695 N 0.32207 0.8772 0.29393 0.0
H696 H 0.11223 0.66104 0.72424 0.0
H697 H 0.11222 0.68128 0.61754 0.0
H698 H 0.11324 0.6188 0.68352 0.0
H699 H 0.10962 0.72257 0.65916 0.0
H700 H 0.11634 0.65824 0.64121 0.0
H701 H 0.11514 0.68377 0.70035 0.0
C702 C 0.1132 0.65655 0.71024 0.0
C703 C 0.11228 0.63804 0.70581 0.0
C704 C 0.11503 0.67236 0.64513 0.0
C705 C 0.11546 0.66401 0.67833 0.0
C706 C 0.1127 0.6855 0.63164 0.0
C707 C 0.11038 0.70381 0.63644 0.0
C708 C 0.11503 0.67761 0.6635 0.0
C709 C 0.11118 0.70857 0.65487 0.0
C710 C 0.11486 0.66953 0.69659 0.0
C711 C 0.11378 0.63297 0.68749 0.0
N712 N 0.11331 0.69555 0.66772 0.0
N713 N 0.11511 0.6459 0.67437 0.0
H714 H 0.30387 0.11417 0.6197 0.0
H715 H 0.32929 0.09378 0.72341 0.0
H716 H 0.2652 0.09765 0.6606 0.0
H717 H 0.36842 0.11339 0.68434 0.0
H718 H 0.30552 0.09626 0.70051 0.0
H719 H 0.32761 0.11528 0.64311 0.0
C720 C 0.30036 0.11091 0.63362 0.0
C721 C 0.28259 0.10571 0.63822 0.0
C722 C 0.31927 0.10009 0.69691 0.0
C723 C 0.30958 0.10685 0.66496 0.0
C724 C 0.33287 0.09865 0.70999 0.0
C725 C 0.35085 0.1033 0.70572 0.0
C726 C 0.32367 0.10614 0.67935 0.0
C727 C 0.3547 0.10962 0.68815 0.0
C728 C 0.3139 0.11153 0.64695 0.0
C729 C 0.27875 0.10164 0.65643 0.0
N730 N 0.34122 0.11077 0.67554 0.0
N731 N 0.29214 0.10221 0.66909 0.0
H732 H 0.88245 0.26467 0.66014 0.0
H733 H 0.87469 0.37094 0.68094 0.0
H734 H 0.87443 0.30487 0.61826 0.0
H735 H 0.88014 0.3296 0.72213 0.0
H736 H 0.87189 0.34705 0.65786 0.0
H737 H 0.87906 0.28829 0.68312 0.0
C738 C 0.87988 0.27849 0.65579 0.0
C739 C 0.87888 0.28287 0.63729 0.0
C740 C 0.87353 0.34322 0.67198 0.0
C741 C 0.87509 0.31006 0.66354 0.0
C742 C 0.8751 0.35684 0.68514 0.0
C743 C 0.87783 0.35222 0.70343 0.0
C744 C 0.87475 0.3249 0.67718 0.0
C745 C 0.87821 0.33377 0.70816 0.0
C746 C 0.87792 0.29198 0.66892 0.0
C747 C 0.87538 0.30096 0.63241 0.0
N748 N 0.87684 0.3208 0.69511 0.0
N749 N 0.87377 0.31395 0.64547 0.0
H750 H 0.68384 0.86893 0.6203 0.0
H751 H 0.65811 0.90305 0.72044 0.0
H752 H 0.71885 0.90194 0.654 0.0
H753 H 0.62193 0.87083 0.68722 0.0
H754 H 0.6808 0.90194 0.69635 0.0
H755 H 0.66123 0.86857 0.64477 0.0
C756 C 0.68677 0.87605 0.63287 0.0
C757 C 0.7032 0.8855 0.63514 0.0
C758 C 0.66792 0.89507 0.69429 0.0
C759 C 0.67748 0.88518 0.66309 0.0
C760 C 0.65496 0.8957 0.70806 0.0
C761 C 0.63811 0.88704 0.70579 0.0
C762 C 0.66405 0.88572 0.67809 0.0
C763 C 0.63476 0.87771 0.68948 0.0
C764 C 0.67388 0.87586 0.6468 0.0
C765 C 0.70634 0.8945 0.65166 0.0
N766 N 0.64762 0.87731 0.67622 0.0
N767 N 0.6936 0.89414 0.66498 0.0
H768 H 0.32821 0.10376 0.2647 0.0
H769 H 0.30555 0.11566 0.37033 0.0
H770 H 0.36947 0.11269 0.30549 0.0
H771 H 0.26528 0.10671 0.32857 0.0
H772 H 0.32905 0.11743 0.34677 0.0
H773 H 0.30486 0.1076 0.28785 0.0
C774 C 0.33235 0.10662 0.27855 0.0
C775 C 0.35079 0.10775 0.28324 0.0
C776 C 0.31505 0.11523 0.34278 0.0
C777 C 0.3241 0.11207 0.30989 0.0
C778 C 0.30165 0.11424 0.3562 0.0
C779 C 0.28349 0.11086 0.35138 0.0
C780 C 0.31021 0.11281 0.32445 0.0
C781 C 0.27914 0.10918 0.3329 0.0
C782 C 0.31901 0.10883 0.29177 0.0
C783 C 0.35538 0.11162 0.30135 0.0
N784 N 0.2924 0.11006 0.32014 0.0
N785 N 0.34211 0.11351 0.31408 0.0
H786 H 0.88635 0.26627 0.32856 0.0
H787 H 0.87493 0.37222 0.3075 0.0
H788 H 0.87467 0.30602 0.37009 0.0
H789 H 0.8853 0.33129 0.26677 0.0
H790 H 0.87243 0.34821 0.33045 0.0
H791 H 0.88371 0.28989 0.30556 0.0
C792 C 0.88315 0.27999 0.33283 0.0
C793 C 0.88086 0.28424 0.35126 0.0
C794 C 0.87511 0.3445 0.31646 0.0
C795 C 0.8779 0.31144 0.32497 0.0
C796 C 0.87652 0.35818 0.30337 0.0
C797 C 0.88047 0.35372 0.28525 0.0
C798 C 0.87772 0.32628 0.31135 0.0
C799 C 0.88236 0.33534 0.28061 0.0
C800 C 0.88162 0.29348 0.31968 0.0
C801 C 0.8766 0.30221 0.35601 0.0
N802 N 0.88108 0.32232 0.29358 0.0
N803 N 0.87539 0.31521 0.34294 0.0
H804 H 0.68897 0.86494 0.36546 0.0
H805 H 0.66296 0.89153 0.26325 0.0
H806 H 0.72327 0.89629 0.32964 0.0
H807 H 0.62407 0.86948 0.30125 0.0
H808 H 0.68654 0.88921 0.28638 0.0
H809 H 0.66632 0.86248 0.34106 0.0
C810 C 0.69178 0.87117 0.35242 0.0
C811 C 0.70792 0.88095 0.34957 0.0
C812 C 0.67287 0.88481 0.28968 0.0
C813 C 0.68222 0.87817 0.32172 0.0
C814 C 0.6594 0.88611 0.27646 0.0
C815 C 0.6415 0.88085 0.28041 0.0
C816 C 0.66846 0.8782 0.30702 0.0
C817 C 0.6377 0.87379 0.29771 0.0
C818 C 0.67885 0.8698 0.33855 0.0
C819 C 0.71093 0.88874 0.33245 0.0
N820 N 0.65107 0.87276 0.31045 0.0
N821 N 0.69819 0.88722 0.31921 0.0
H822 H 0.11424 0.6189 0.30524 0.0
H823 H 0.11313 0.72522 0.32791 0.0
H824 H 0.10842 0.66128 0.26518 0.0
H825 H 0.11232 0.68357 0.36916 0.0
H826 H 0.11648 0.70178 0.30472 0.0
H827 H 0.11836 0.64221 0.32874 0.0
C828 C 0.114 0.6331 0.30138 0.0
C829 C 0.11078 0.63821 0.28331 0.0
C830 C 0.11572 0.69774 0.31884 0.0
C831 C 0.11548 0.66484 0.30999 0.0
C832 C 0.11383 0.71112 0.3321 0.0
C833 C 0.11222 0.70629 0.35044 0.0
C834 C 0.1159 0.67936 0.32395 0.0
C835 C 0.11338 0.68785 0.35512 0.0
C836 C 0.11633 0.64638 0.31478 0.0
C837 C 0.11068 0.65676 0.27899 0.0
N838 N 0.11497 0.675 0.34192 0.0
N839 N 0.11287 0.66939 0.29225 0.0
H840 H 0.37206 0.87161 0.68338 0.0
H841 H 0.26609 0.88321 0.66137 0.0
H842 H 0.33166 0.88808 0.72255 0.0
H843 H 0.30638 0.87335 0.61992 0.0
H844 H 0.28978 0.88137 0.68445 0.0
H845 H 0.34805 0.86884 0.66036 0.0
C846 C 0.35814 0.87456 0.68714 0.0
C847 C 0.35383 0.8802 0.70484 0.0
C848 C 0.29348 0.87952 0.67032 0.0
C849 C 0.3264 0.87701 0.67872 0.0
C850 C 0.27994 0.88054 0.65714 0.0
C851 C 0.28432 0.87858 0.63871 0.0
C852 C 0.31159 0.87658 0.66507 0.0
C853 C 0.30246 0.87502 0.634 0.0
C854 C 0.34447 0.87299 0.67402 0.0
C855 C 0.3356 0.88381 0.70903 0.0
N856 N 0.31548 0.87425 0.64711 0.0
N857 N 0.32259 0.88219 0.69607 0.0
H858 H 0.11522 0.37101 0.68586 0.0
H859 H 0.10405 0.26535 0.66275 0.0
H860 H 0.10568 0.32919 0.72584 0.0
H861 H 0.11483 0.30598 0.62188 0.0
H862 H 0.10708 0.28854 0.68621 0.0
H863 H 0.11763 0.34744 0.66238 0.0
C864 C 0.1138 0.35687 0.68971 0.0
C865 C 0.11009 0.35203 0.70777 0.0
C866 C 0.1089 0.29243 0.67213 0.0
C867 C 0.11275 0.3251 0.68108 0.0
C868 C 0.10715 0.27917 0.65872 0.0
C869 C 0.10904 0.2838 0.64035 0.0
C870 C 0.11244 0.31052 0.66716 0.0
C871 C 0.11319 0.30188 0.63591 0.0
C872 C 0.11516 0.34344 0.67632 0.0
C873 C 0.10841 0.33354 0.71205 0.0
N874 N 0.11461 0.31465 0.64923 0.0
N875 N 0.10964 0.32078 0.6988 0.0
H876 H 0.72202 0.08713 0.65844 0.0
H877 H 0.62028 0.11542 0.68478 0.0
H878 H 0.68572 0.11421 0.62123 0.0
H879 H 0.65744 0.08831 0.72111 0.0
H880 H 0.64402 0.11581 0.6614 0.0
H881 H 0.69847 0.08812 0.6817 0.0
C882 C 0.70908 0.09332 0.65518 0.0
C883 C 0.70579 0.10058 0.63788 0.0
C884 C 0.64696 0.10981 0.67451 0.0
C885 C 0.6787 0.10174 0.66447 0.0
C886 C 0.63344 0.1096 0.68784 0.0
C887 C 0.63691 0.1018 0.70488 0.0
C888 C 0.66405 0.10217 0.67829 0.0
C889 C 0.65417 0.09444 0.70814 0.0
C890 C 0.69562 0.09388 0.66847 0.0
C891 C 0.68878 0.10845 0.63441 0.0
N892 N 0.66707 0.09479 0.69498 0.0
N893 N 0.67584 0.1088 0.64759 0.0
H894 H 0.87266 0.68296 0.61826 0.0
H895 H 0.87721 0.66167 0.72464 0.0
H896 H 0.87677 0.72393 0.66009 0.0
H897 H 0.87519 0.61995 0.68341 0.0
H898 H 0.87286 0.68464 0.70119 0.0
H899 H 0.86946 0.65971 0.64187 0.0
C900 C 0.87269 0.68707 0.63241 0.0
C901 C 0.8752 0.70534 0.63726 0.0
C902 C 0.87322 0.67046 0.69724 0.0
C903 C 0.87162 0.67891 0.66426 0.0
C904 C 0.8757 0.65734 0.71064 0.0
C905 C 0.87678 0.63892 0.70591 0.0
C906 C 0.87194 0.66515 0.67894 0.0
C907 C 0.87457 0.63405 0.6876 0.0
C908 C 0.87089 0.67381 0.64586 0.0
C909 C 0.87506 0.70996 0.65576 0.0
N910 N 0.87244 0.64711 0.67473 0.0
N911 N 0.87345 0.69682 0.66857 0.0
H912 H 0.30631 0.37034 0.11592 0.0
H913 H 0.32828 0.26493 0.10031 0.0
H914 H 0.26743 0.33073 0.09666 0.0
H915 H 0.36919 0.30429 0.1154 0.0
H916 H 0.30529 0.28865 0.10178 0.0
H917 H 0.32909 0.34616 0.11846 0.0
C918 C 0.30256 0.35655 0.11231 0.0
C919 C 0.28502 0.35252 0.10597 0.0
C920 C 0.31927 0.29214 0.10485 0.0
C921 C 0.31088 0.3249 0.10886 0.0
C922 C 0.3324 0.27858 0.10403 0.0
C923 C 0.35067 0.28269 0.10762 0.0
C924 C 0.32441 0.31001 0.10922 0.0
C925 C 0.35524 0.30058 0.11247 0.0
C926 C 0.31554 0.34278 0.11375 0.0
C927 C 0.28083 0.33446 0.10151 0.0
N928 N 0.34219 0.31364 0.11303 0.0
N929 N 0.29367 0.32135 0.103 0.0
H930 H 0.33333 0.72251 0.90285 0.0
H931 H 0.306 0.62143 0.87267 0.0
H932 H 0.3698 0.68687 0.87393 0.0
H933 H 0.27061 0.65782 0.902 0.0
H934 H 0.3295 0.64512 0.87242 0.0
H935 H 0.3101 0.69887 0.90212 0.0
C936 C 0.33643 0.70968 0.89631 0.0
C937 C 0.35351 0.70663 0.88844 0.0
C938 C 0.31658 0.64791 0.87888 0.0
C939 C 0.32694 0.67943 0.88756 0.0
C940 C 0.30318 0.63441 0.87902 0.0
C941 C 0.28636 0.63769 0.88738 0.0
C942 C 0.31309 0.66476 0.88716 0.0
C943 C 0.2834 0.65472 0.89541 0.0
C944 C 0.32316 0.69617 0.8959 0.0
C945 C 0.35679 0.68976 0.88016 0.0
N946 N 0.29662 0.66759 0.89511 0.0
N947 N 0.34362 0.67676 0.87995 0.0
H948 H 0.26789 0.32977 0.89054 0.0
H949 H 0.37182 0.30278 0.87344 0.0
H950 H 0.30862 0.36857 0.87372 0.0
H951 H 0.32976 0.26489 0.889 0.0
H952 H 0.34889 0.32688 0.87168 0.0
H953 H 0.29036 0.30563 0.88833 0.0
C954 C 0.28159 0.3332 0.88632 0.0
C955 C 0.28644 0.3512 0.88241 0.0
C956 C 0.34469 0.31326 0.87537 0.0
C957 C 0.31234 0.32358 0.87991 0.0
C958 C 0.35775 0.29952 0.87636 0.0
C959 C 0.35267 0.28186 0.88149 0.0
C960 C 0.32648 0.30926 0.87957 0.0
C961 C 0.33428 0.27834 0.8851 0.0
C962 C 0.29442 0.31939 0.88504 0.0
C963 C 0.30435 0.35484 0.87691 0.0
N964 N 0.32189 0.29192 0.88415 0.0
N965 N 0.31671 0.34115 0.87592 0.0
H966 H 0.61827 0.30628 0.87342 0.0
H967 H 0.72454 0.32962 0.87583 0.0
H968 H 0.6608 0.26654 0.8801 0.0
H969 H 0.68273 0.37066 0.87547 0.0
H970 H 0.70122 0.30625 0.87256 0.0
H971 H 0.64153 0.32992 0.86962 0.0
C972 C 0.6325 0.30252 0.87393 0.0
C973 C 0.63765 0.28449 0.87727 0.0
C974 C 0.69711 0.32036 0.87306 0.0
C975 C 0.66422 0.31134 0.87292 0.0
C976 C 0.71043 0.33372 0.8749 0.0
C977 C 0.70552 0.35207 0.87615 0.0
C978 C 0.6787 0.32537 0.87256 0.0
C979 C 0.68706 0.35663 0.87469 0.0
C980 C 0.64574 0.31599 0.87178 0.0
C981 C 0.65624 0.28031 0.87773 0.0
N982 N 0.67427 0.34334 0.87315 0.0
N983 N 0.66883 0.29364 0.87569 0.0
H984 H 0.6841 0.62039 0.87543 0.0
H985 H 0.66103 0.72544 0.88965 0.0
H986 H 0.72431 0.66194 0.88578 0.0
H987 H 0.62078 0.68587 0.87336 0.0
H988 H 0.68449 0.70228 0.88703 0.0
H989 H 0.66079 0.64403 0.87315 0.0
C990 C 0.68804 0.63449 0.87705 0.0
C991 C 0.70611 0.63923 0.88095 0.0
C992 C 0.67055 0.69863 0.88392 0.0
C993 C 0.67959 0.66625 0.87848 0.0
C994 C 0.65714 0.71185 0.88546 0.0
C995 C 0.63893 0.70751 0.88184 0.0
C996 C 0.66574 0.68084 0.87887 0.0
C997 C 0.63468 0.68974 0.87634 0.0
C998 C 0.67474 0.64797 0.87576 0.0
C999 C 0.71051 0.65768 0.88288 0.0
N1000 N 0.64798 0.67698 0.87516 0.0
N1001 N 0.69733 0.67049 0.88176 0.0
H1002 H 0.66013 0.72261 0.09919 0.0
H1003 H 0.68546 0.61856 0.11665 0.0
H1004 H 0.62047 0.6824 0.1152 0.0
H1005 H 0.72482 0.66079 0.10589 0.0
H1006 H 0.66151 0.64166 0.1177 0.0
H1007 H 0.68407 0.70008 0.10281 0.0
C1008 C 0.65647 0.70901 0.10351 0.0
C1009 C 0.63829 0.70431 0.10679 0.0
C1010 C 0.67542 0.64586 0.11527 0.0
C1011 C 0.66566 0.67837 0.11093 0.0
C1012 C 0.68908 0.63271 0.1147 0.0
C1013 C 0.7071 0.63778 0.11104 0.0
C1014 C 0.67986 0.66417 0.11208 0.0
C1015 C 0.71107 0.65627 0.10864 0.0
C1016 C 0.67016 0.69615 0.10563 0.0
C1017 C 0.63433 0.68654 0.11247 0.0
N1018 N 0.69755 0.66876 0.10907 0.0
N1019 N 0.64791 0.67415 0.11426 0.0
H1020 H 0.36774 0.68484 0.11724 0.0
H1021 H 0.26662 0.65805 0.08664 0.0
H1022 H 0.33174 0.72035 0.08761 0.0
H1023 H 0.30151 0.62187 0.11676 0.0
H1024 H 0.29041 0.68113 0.08739 0.0
H1025 H 0.34376 0.66164 0.11774 0.0
C1026 C 0.35479 0.68775 0.11087 0.0
C1027 C 0.35171 0.70451 0.10236 0.0
C1028 C 0.2929 0.66817 0.09388 0.0
C1029 C 0.3243 0.67812 0.10285 0.0
C1030 C 0.2793 0.65498 0.09346 0.0
C1031 C 0.28212 0.63802 0.10164 0.0
C1032 C 0.3095 0.66441 0.10253 0.0
C1033 C 0.29881 0.63479 0.11028 0.0
C1034 C 0.34112 0.67453 0.11116 0.0
C1035 C 0.3347 0.7076 0.09432 0.0
N1036 N 0.31191 0.64786 0.11048 0.0
N1037 N 0.32167 0.69454 0.09475 0.0
H1038 H 0.72526 0.32844 0.10985 0.0
H1039 H 0.61875 0.30652 0.11441 0.0
H1040 H 0.6841 0.37002 0.11301 0.0
H1041 H 0.66052 0.26622 0.10638 0.0
H1042 H 0.64243 0.32979 0.11794 0.0
H1043 H 0.70168 0.30529 0.1128 0.0
C1044 C 0.71124 0.3327 0.11131 0.0
C1045 C 0.70658 0.35115 0.11099 0.0
C1046 C 0.64639 0.31582 0.11554 0.0
C1047 C 0.67947 0.32471 0.11422 0.0
C1048 C 0.6329 0.30256 0.11354 0.0
C1049 C 0.63771 0.28448 0.10992 0.0
C1050 C 0.66477 0.31091 0.11393 0.0
C1051 C 0.65621 0.28004 0.10899 0.0
C1052 C 0.69778 0.31947 0.11297 0.0
C1053 C 0.68824 0.35591 0.11308 0.0
N1054 N 0.66905 0.29317 0.11088 0.0
N1055 N 0.6753 0.34275 0.11444 0.0
H1056 H 0.62187 0.83161 0.7667 0.0
H1057 H 0.61658 0.80874 0.87257 0.0
H1058 H 0.61554 0.87232 0.80848 0.0
H1059 H 0.61792 0.76842 0.82995 0.0
H1060 H 0.62194 0.83243 0.84983 0.0
H1061 H 0.62643 0.80868 0.79019 0.0
C1062 C 0.62166 0.83575 0.78084 0.0
C1063 C 0.61803 0.85381 0.78569 0.0
C1064 C 0.62127 0.81838 0.84549 0.0
C1065 C 0.62304 0.82763 0.81264 0.0
C1066 C 0.61822 0.80486 0.85845 0.0
C1067 C 0.61652 0.78665 0.85306 0.0
C1068 C 0.6226 0.81359 0.82705 0.0
C1069 C 0.61889 0.78233 0.83465 0.0
C1070 C 0.62425 0.82266 0.79424 0.0
C1071 C 0.61812 0.85849 0.80418 0.0
N1072 N 0.62164 0.79573 0.82229 0.0
N1073 N 0.62032 0.84542 0.81702 0.0
H1074 H 0.22646 0.61508 0.82918 0.0
H1075 H 0.11999 0.61768 0.80715 0.0
H1076 H 0.18487 0.61534 0.87054 0.0
H1077 H 0.16187 0.60918 0.767 0.0
H1078 H 0.14359 0.62213 0.83027 0.0
H1079 H 0.20297 0.61856 0.806 0.0
C1080 C 0.21238 0.61608 0.8334 0.0
C1081 C 0.20756 0.61467 0.85177 0.0
C1082 C 0.14759 0.61943 0.81637 0.0
C1083 C 0.1806 0.61848 0.82533 0.0
C1084 C 0.13415 0.61691 0.80319 0.0
C1085 C 0.13901 0.61284 0.78521 0.0
C1086 C 0.16599 0.61794 0.81148 0.0
C1087 C 0.15753 0.61209 0.78076 0.0
C1088 C 0.19898 0.61802 0.82016 0.0
C1089 C 0.18915 0.6162 0.85649 0.0
N1090 N 0.17034 0.6145 0.79382 0.0
N1091 N 0.17629 0.61784 0.84332 0.0
H1092 H 0.37347 0.15704 0.76516 0.0
H1093 H 0.37422 0.17944 0.87148 0.0
H1094 H 0.37608 0.11584 0.80677 0.0
H1095 H 0.37704 0.21989 0.82914 0.0
H1096 H 0.36994 0.15594 0.84824 0.0
H1097 H 0.3696 0.18011 0.78866 0.0
C1098 C 0.37304 0.15284 0.77926 0.0
C1099 C 0.37534 0.13455 0.78406 0.0
C1100 C 0.37132 0.16998 0.84406 0.0
C1101 C 0.37108 0.16091 0.81106 0.0
C1102 C 0.37374 0.18339 0.85731 0.0
C1103 C 0.37621 0.20158 0.85218 0.0
C1104 C 0.37135 0.17485 0.82561 0.0
C1105 C 0.37539 0.20598 0.83367 0.0
C1106 C 0.37086 0.16602 0.79268 0.0
C1107 C 0.3745 0.12983 0.80251 0.0
N1108 N 0.37316 0.1927 0.82105 0.0
N1109 N 0.37264 0.14297 0.81538 0.0
H1110 H 0.82881 0.39301 0.76402 0.0
H1111 H 0.80506 0.3738 0.86847 0.0
H1112 H 0.86865 0.3749 0.80305 0.0
H1113 H 0.76663 0.3937 0.82892 0.0
H1114 H 0.82821 0.37214 0.84455 0.0
H1115 H 0.80548 0.3913 0.78745 0.0
C1116 C 0.83263 0.38859 0.77753 0.0
C1117 C 0.8507 0.38417 0.78164 0.0
C1118 C 0.81469 0.37679 0.84112 0.0
C1119 C 0.82403 0.38225 0.80861 0.0
C1120 C 0.80149 0.37773 0.85475 0.0
C1121 C 0.78395 0.38398 0.85067 0.0
C1122 C 0.81027 0.38214 0.82333 0.0
C1123 C 0.78001 0.38888 0.83268 0.0
C1124 C 0.8193 0.38762 0.79092 0.0
C1125 C 0.85486 0.37847 0.79935 0.0
N1126 N 0.79307 0.3879 0.81971 0.0
N1127 N 0.84163 0.37775 0.81223 0.0
H1128 H 0.61558 0.18343 0.11774 0.0
H1129 H 0.60975 0.16084 0.22388 0.0
H1130 H 0.60797 0.2236 0.15983 0.0
H1131 H 0.61478 0.11961 0.18243 0.0
H1132 H 0.61294 0.1842 0.20063 0.0
H1133 H 0.61904 0.16007 0.14121 0.0
C1134 C 0.61481 0.18735 0.13192 0.0
C1135 C 0.6113 0.20542 0.13687 0.0
C1136 C 0.61348 0.17005 0.19659 0.0
C1137 C 0.6152 0.17886 0.16371 0.0
C1138 C 0.61167 0.15671 0.20987 0.0
C1139 C 0.61181 0.13828 0.20503 0.0
C1140 C 0.61533 0.16497 0.17828 0.0
C1141 C 0.61448 0.13369 0.18671 0.0
C1142 C 0.61676 0.17403 0.14529 0.0
C1143 C 0.6105 0.20979 0.15541 0.0
N1144 N 0.61597 0.14696 0.17395 0.0
N1145 N 0.61231 0.1966 0.16813 0.0
H1146 H 0.86993 0.62035 0.19071 0.0
H1147 H 0.76592 0.6032 0.16342 0.0
H1148 H 0.82804 0.60361 0.22821 0.0
H1149 H 0.80745 0.61649 0.12418 0.0
H1150 H 0.78823 0.60636 0.18767 0.0
H1151 H 0.84702 0.62203 0.16652 0.0
C1152 C 0.85589 0.61718 0.19387 0.0
C1153 C 0.85087 0.61171 0.21143 0.0
C1154 C 0.7925 0.60867 0.17379 0.0
C1155 C 0.82469 0.61356 0.18394 0.0
C1156 C 0.77975 0.60687 0.15992 0.0
C1157 C 0.78489 0.60945 0.14175 0.0
C1158 C 0.8106 0.61302 0.16952 0.0
C1159 C 0.80297 0.61431 0.13802 0.0
C1160 C 0.84285 0.6181 0.18008 0.0
C1161 C 0.83253 0.60777 0.21482 0.0
N1162 N 0.81523 0.61583 0.15179 0.0
N1163 N 0.82014 0.6087 0.2012 0.0
H1164 H 0.37446 0.80565 0.11877 0.0
H1165 H 0.37918 0.82618 0.2251 0.0
H1166 H 0.37536 0.76419 0.1602 0.0
H1167 H 0.37596 0.86819 0.18436 0.0
H1168 H 0.37422 0.80335 0.20155 0.0
H1169 H 0.37127 0.82877 0.14249 0.0
C1170 C 0.37373 0.80141 0.13285 0.0
C1171 C 0.37541 0.78302 0.13757 0.0
C1172 C 0.37444 0.81756 0.19773 0.0
C1173 C 0.37193 0.80934 0.16473 0.0
C1174 C 0.37731 0.8306 0.21118 0.0
C1175 C 0.3782 0.84907 0.20661 0.0
C1176 C 0.37263 0.823 0.17953 0.0
C1177 C 0.3755 0.85406 0.18842 0.0
C1178 C 0.37194 0.8146 0.14637 0.0
C1179 C 0.3743 0.77824 0.15598 0.0
N1180 N 0.37303 0.84107 0.17549 0.0
N1181 N 0.37282 0.79133 0.16889 0.0
H1182 H 0.18397 0.37609 0.11683 0.0
H1183 H 0.16179 0.37784 0.22296 0.0
H1184 H 0.22469 0.37698 0.15907 0.0
H1185 H 0.12033 0.37584 0.18149 0.0
H1186 H 0.18494 0.37377 0.19963 0.0
H1187 H 0.16044 0.37224 0.14007 0.0
C1188 C 0.18796 0.37525 0.13097 0.0
C1189 C 0.20625 0.37708 0.13608 0.0
C1190 C 0.17078 0.37407 0.19559 0.0
C1191 C 0.17949 0.37279 0.16267 0.0
C1192 C 0.15756 0.37641 0.20892 0.0
C1193 C 0.13915 0.3774 0.2041 0.0
C1194 C 0.1656 0.37289 0.17725 0.0
C1195 C 0.13441 0.37528 0.18575 0.0
C1196 C 0.17454 0.37308 0.14422 0.0
C1197 C 0.21071 0.37582 0.15456 0.0
N1198 N 0.14758 0.37333 0.17294 0.0
N1199 N 0.19742 0.37392 0.16719 0.0
H1200 H 0.76599 0.60027 0.83014 0.0
H1201 H 0.87073 0.61746 0.80578 0.0
H1202 H 0.806 0.61608 0.8701 0.0
H1203 H 0.83031 0.59885 0.76746 0.0
H1204 H 0.84706 0.61939 0.82918 0.0
H1205 H 0.78919 0.60214 0.8066 0.0
C1206 C 0.77967 0.60422 0.83395 0.0
C1207 C 0.78412 0.60792 0.85211 0.0
C1208 C 0.84339 0.61496 0.81562 0.0
C1209 C 0.81084 0.61001 0.8252 0.0
C1210 C 0.85687 0.61388 0.80228 0.0
C1211 C 0.85247 0.60789 0.7847 0.0
C1212 C 0.82542 0.61005 0.81129 0.0
C1213 C 0.83432 0.60344 0.78086 0.0
C1214 C 0.79293 0.60528 0.82049 0.0
C1215 C 0.80204 0.61306 0.85625 0.0
N1216 N 0.8215 0.60456 0.79405 0.0
N1217 N 0.81479 0.61386 0.84289 0.0
H1218 H 0.3753 0.82757 0.76537 0.0
H1219 H 0.37484 0.8079 0.87191 0.0
H1220 H 0.37647 0.86971 0.80619 0.0
H1221 H 0.37466 0.76615 0.83068 0.0
H1222 H 0.37055 0.83081 0.84822 0.0
H1223 H 0.37021 0.80506 0.78917 0.0
C1224 C 0.37431 0.8321 0.77935 0.0
C1225 C 0.37658 0.85047 0.78387 0.0
C1226 C 0.37123 0.81661 0.84438 0.0
C1227 C 0.37089 0.82479 0.8112 0.0
C1228 C 0.37365 0.80354 0.85789 0.0
C1229 C 0.37539 0.78515 0.85319 0.0
C1230 C 0.37061 0.81122 0.82606 0.0
C1231 C 0.37362 0.78022 0.83486 0.0
C1232 C 0.37139 0.81924 0.79294 0.0
C1233 C 0.37497 0.85563 0.80216 0.0
N1234 N 0.37153 0.79319 0.82195 0.0
N1235 N 0.37245 0.84282 0.8152 0.0
H1236 H 0.22662 0.37744 0.82876 0.0
H1237 H 0.11969 0.37502 0.80888 0.0
H1238 H 0.18601 0.37716 0.87107 0.0
H1239 H 0.16096 0.38137 0.76768 0.0
H1240 H 0.14366 0.37126 0.83173 0.0
H1241 H 0.20261 0.37409 0.80612 0.0
C1242 C 0.21264 0.3765 0.83329 0.0
C1243 C 0.20826 0.37779 0.85178 0.0
C1244 C 0.14744 0.37333 0.81766 0.0
C1245 C 0.18067 0.37412 0.82594 0.0
C1246 C 0.13378 0.37546 0.80463 0.0
C1247 C 0.13838 0.37871 0.78642 0.0
C1248 C 0.16577 0.37441 0.81238 0.0
C1249 C 0.15682 0.37908 0.78162 0.0
C1250 C 0.19893 0.37462 0.82036 0.0
C1251 C 0.18994 0.37635 0.85691 0.0
N1252 N 0.16983 0.37707 0.79453 0.0
N1253 N 0.17677 0.37476 0.84403 0.0
H1254 H 0.61485 0.15952 0.76413 0.0
H1255 H 0.6168 0.18273 0.87031 0.0
H1256 H 0.61409 0.11865 0.80616 0.0
H1257 H 0.61104 0.22269 0.82783 0.0
H1258 H 0.62098 0.15921 0.84708 0.0
H1259 H 0.61887 0.18289 0.78736 0.0
C1260 C 0.61573 0.15545 0.77826 0.0
C1261 C 0.61389 0.13717 0.78327 0.0
C1262 C 0.61897 0.17316 0.84287 0.0
C1263 C 0.61832 0.16385 0.80994 0.0
C1264 C 0.6166 0.18657 0.8561 0.0
C1265 C 0.61334 0.20461 0.85094 0.0
C1266 C 0.6181 0.17788 0.82439 0.0
C1267 C 0.61331 0.20889 0.83238 0.0
C1268 C 0.61799 0.1688 0.79152 0.0
C1269 C 0.61529 0.13264 0.80174 0.0
N1270 N 0.61551 0.19561 0.81978 0.0
N1271 N 0.61723 0.14592 0.81445 0.0
H1272 H 0.87168 0.37724 0.18498 0.0
H1273 H 0.76615 0.38745 0.16064 0.0
H1274 H 0.82972 0.38922 0.22415 0.0
H1275 H 0.80723 0.37581 0.12044 0.0
H1276 H 0.78923 0.38577 0.18433 0.0
H1277 H 0.8483 0.37436 0.16138 0.0
C1278 C 0.85754 0.37914 0.18862 0.0
C1279 C 0.85262 0.3836 0.2065 0.0
C1280 C 0.79324 0.38349 0.17035 0.0
C1281 C 0.82588 0.38037 0.17966 0.0
C1282 C 0.78005 0.38444 0.15681 0.0
C1283 C 0.78482 0.38189 0.13855 0.0
C1284 C 0.8114 0.38005 0.16563 0.0
C1285 C 0.803 0.37793 0.13438 0.0
C1286 C 0.84422 0.37751 0.17516 0.0
C1287 C 0.83413 0.38587 0.21051 0.0
N1288 N 0.81569 0.37726 0.14782 0.0
N1289 N 0.82146 0.38432 0.19719 0.0
H1290 H 0.61574 0.87056 0.17984 0.0
H1291 H 0.61496 0.76398 0.15882 0.0
H1292 H 0.61445 0.82874 0.22089 0.0
H1293 H 0.61275 0.80504 0.11705 0.0
H1294 H 0.61941 0.78774 0.18153 0.0
H1295 H 0.61916 0.84702 0.1565 0.0
C1296 C 0.61638 0.85644 0.18395 0.0
C1297 C 0.61458 0.85154 0.20227 0.0
C1298 C 0.6181 0.79159 0.16739 0.0
C1299 C 0.61843 0.82463 0.17575 0.0
C1300 C 0.61557 0.77802 0.15441 0.0
C1301 C 0.61325 0.78259 0.13607 0.0
C1302 C 0.61819 0.8099 0.16201 0.0
C1303 C 0.61434 0.80097 0.13109 0.0
C1304 C 0.6183 0.84303 0.17064 0.0
C1305 C 0.61558 0.83309 0.20688 0.0
N1306 N 0.61654 0.81399 0.14403 0.0
N1307 N 0.61729 0.82031 0.19371 0.0
H1308 H 0.15823 0.61494 0.22205 0.0
H1309 H 0.17975 0.61382 0.11586 0.0
H1310 H 0.11646 0.6136 0.18086 0.0
H1311 H 0.22067 0.61727 0.15778 0.0
H1312 H 0.15618 0.61746 0.13907 0.0
H1313 H 0.18102 0.61942 0.19845 0.0
C1314 C 0.15385 0.61571 0.20801 0.0
C1315 C 0.13547 0.61367 0.20336 0.0
C1316 C 0.17032 0.61764 0.14315 0.0
C1317 C 0.16153 0.61867 0.17621 0.0
C1318 C 0.18377 0.6156 0.12992 0.0
C1319 C 0.20216 0.61501 0.13497 0.0
C1320 C 0.17533 0.61903 0.16153 0.0
C1321 C 0.20664 0.61745 0.15333 0.0
C1322 C 0.16687 0.6183 0.19453 0.0
C1323 C 0.13053 0.61498 0.18499 0.0
N1324 N 0.19332 0.61917 0.16596 0.0
N1325 N 0.14352 0.61719 0.17204 0.0
H1326 H 0.37814 0.22245 0.16076 0.0
H1327 H 0.37451 0.116 0.18239 0.0
H1328 H 0.37538 0.18124 0.11906 0.0
H1329 H 0.38007 0.15799 0.22303 0.0
H1330 H 0.37102 0.13955 0.15909 0.0
H1331 H 0.37491 0.19891 0.18382 0.0
C1332 C 0.37672 0.20843 0.15646 0.0
C1333 C 0.37722 0.20375 0.138 0.0
C1334 C 0.37285 0.14358 0.17314 0.0
C1335 C 0.37367 0.17667 0.16435 0.0
C1336 C 0.37482 0.13017 0.18642 0.0
C1337 C 0.37777 0.13508 0.20461 0.0
C1338 C 0.37383 0.162 0.17814 0.0
C1339 C 0.378 0.1536 0.20913 0.0
C1340 C 0.37488 0.19498 0.16964 0.0
C1341 C 0.37516 0.1854 0.13318 0.0
N1342 N 0.37617 0.16637 0.19597 0.0
N1343 N 0.37365 0.17248 0.1463 0.0
H1344 H 0.8269 0.7657 0.60769 0.0
H1345 H 0.80442 0.87154 0.60694 0.0
H1346 H 0.86841 0.80714 0.61072 0.0
H1347 H 0.76378 0.82939 0.61143 0.0
H1348 H 0.82818 0.84853 0.61037 0.0
H1349 H 0.8037 0.78905 0.61095 0.0
C1350 C 0.83113 0.77975 0.60913 0.0
C1351 C 0.84958 0.78454 0.60876 0.0
C1352 C 0.81406 0.84435 0.61081 0.0
C1353 C 0.82306 0.81141 0.61239 0.0
C1354 C 0.8005 0.85747 0.60886 0.0
C1355 C 0.78213 0.85231 0.60871 0.0
C1356 C 0.80916 0.82597 0.61249 0.0
C1357 C 0.77779 0.83394 0.61132 0.0
C1358 C 0.81787 0.79308 0.61105 0.0
C1359 C 0.8543 0.80291 0.61085 0.0
N1360 N 0.7912 0.82141 0.61292 0.0
N1361 N 0.8411 0.81573 0.61239 0.0
H1362 H 0.8287 0.2242 0.37551 0.0
H1363 H 0.80636 0.11798 0.3747 0.0
H1364 H 0.87003 0.18268 0.37448 0.0
H1365 H 0.76574 0.16017 0.37661 0.0
H1366 H 0.82982 0.14125 0.3704 0.0
H1367 H 0.80548 0.2008 0.37163 0.0
C1368 C 0.83289 0.21014 0.37431 0.0
C1369 C 0.85127 0.20532 0.37555 0.0
C1370 C 0.81575 0.1454 0.37157 0.0
C1371 C 0.82476 0.17842 0.37127 0.0
C1372 C 0.80236 0.13213 0.374 0.0
C1373 C 0.78413 0.13721 0.37625 0.0
C1374 C 0.81083 0.16384 0.37142 0.0
C1375 C 0.77967 0.15569 0.37514 0.0
C1376 C 0.81963 0.19678 0.37209 0.0
C1377 C 0.85597 0.18694 0.37372 0.0
N1378 N 0.79294 0.16833 0.37297 0.0
N1379 N 0.84276 0.17411 0.37188 0.0
H1380 H 0.78048 0.84456 0.35838 0.0
H1381 H 0.86677 0.80714 0.40883 0.0
H1382 H 0.80847 0.87554 0.39967 0.0
H1383 H 0.8528 0.78937 0.35469 0.0
H1384 H 0.84543 0.83235 0.40575 0.0
H1385 H 0.80671 0.8242 0.35641 0.0
C1386 C 0.79225 0.8472 0.36686 0.0
C1387 C 0.79228 0.86161 0.37933 0.0
C1388 C 0.84721 0.82309 0.39444 0.0
C1389 C 0.82209 0.83831 0.37735 0.0
C1390 C 0.85932 0.80867 0.39622 0.0
C1391 C 0.86139 0.79612 0.38205 0.0
C1392 C 0.83682 0.82472 0.37851 0.0
C1393 C 0.85152 0.79876 0.36595 0.0
C1394 C 0.80721 0.83562 0.36569 0.0
C1395 C 0.80788 0.86452 0.38993 0.0
N1396 N 0.83941 0.81263 0.36472 0.0
N1397 N 0.82205 0.85278 0.38892 0.0
H1398 H 0.11874 0.80657 0.37273 0.0
H1399 H 0.22415 0.82995 0.38687 0.0
H1400 H 0.15939 0.76766 0.38904 0.0
H1401 H 0.18387 0.87064 0.37441 0.0
H1402 H 0.20077 0.80656 0.38472 0.0
H1403 H 0.14253 0.82988 0.37049 0.0
C1404 C 0.13268 0.80293 0.37574 0.0
C1405 C 0.13712 0.78522 0.38119 0.0
C1406 C 0.197 0.82058 0.38237 0.0
C1407 C 0.1643 0.81169 0.37865 0.0
C1408 C 0.21036 0.83395 0.38358 0.0
C1409 C 0.20589 0.85227 0.38095 0.0
C1410 C 0.17897 0.82553 0.37858 0.0
C1411 C 0.18785 0.85666 0.37661 0.0
C1412 C 0.14623 0.81621 0.37447 0.0
C1413 C 0.15536 0.78118 0.3849 0.0
N1414 N 0.17499 0.84338 0.37567 0.0
N1415 N 0.16825 0.79432 0.38361 0.0
H1416 H 0.22406 0.16276 0.38044 0.0
H1417 H 0.11807 0.18597 0.37553 0.0
H1418 H 0.18228 0.12178 0.37539 0.0
H1419 H 0.16056 0.22607 0.38159 0.0
H1420 H 0.14131 0.16243 0.37194 0.0
H1421 H 0.20098 0.18626 0.3773 0.0
C1422 C 0.21001 0.15871 0.37854 0.0
C1423 C 0.20503 0.14031 0.37837 0.0
C1424 C 0.14553 0.17641 0.37389 0.0
C1425 C 0.17847 0.16717 0.3749 0.0
C1426 C 0.13229 0.18983 0.37592 0.0
C1427 C 0.13743 0.20794 0.37905 0.0
C1428 C 0.16401 0.18117 0.37502 0.0
C1429 C 0.15601 0.21224 0.37937 0.0
C1430 C 0.19682 0.17214 0.37675 0.0
C1431 C 0.18666 0.13584 0.37571 0.0
N1432 N 0.16861 0.19894 0.37752 0.0
N1433 N 0.174 0.14919 0.37425 0.0
H1434 H 0.2231 0.15906 0.61251 0.0
H1435 H 0.11713 0.18266 0.61607 0.0
H1436 H 0.18101 0.11814 0.61429 0.0
H1437 H 0.15996 0.22265 0.61217 0.0
H1438 H 0.14017 0.15887 0.61933 0.0
H1439 H 0.20007 0.18251 0.61637 0.0
C1440 C 0.20899 0.15501 0.61385 0.0
C1441 C 0.20391 0.13666 0.61287 0.0
C1442 C 0.14451 0.17288 0.61793 0.0
C1443 C 0.17741 0.16347 0.61715 0.0
C1444 C 0.13138 0.18644 0.61609 0.0
C1445 C 0.13668 0.2046 0.61364 0.0
C1446 C 0.16303 0.17755 0.6173 0.0
C1447 C 0.15528 0.20879 0.61384 0.0
C1448 C 0.19583 0.16841 0.61605 0.0
C1449 C 0.18547 0.13217 0.61486 0.0
N1450 N 0.16777 0.19536 0.61549 0.0
N1451 N 0.17283 0.14551 0.61672 0.0
H1452 H 0.76544 0.15744 0.61693 0.0
H1453 H 0.87155 0.1811 0.61487 0.0
H1454 H 0.80748 0.11676 0.61369 0.0
H1455 H 0.82872 0.22097 0.61189 0.0
H1456 H 0.84859 0.15737 0.61957 0.0
H1457 H 0.78875 0.18081 0.62053 0.0
C1458 C 0.77959 0.15341 0.61718 0.0
C1459 C 0.78457 0.13519 0.61475 0.0
C1460 C 0.84425 0.17134 0.61805 0.0
C1461 C 0.81135 0.16188 0.61869 0.0
C1462 C 0.85733 0.18487 0.61539 0.0
C1463 C 0.85198 0.20296 0.61276 0.0
C1464 C 0.82573 0.17599 0.61812 0.0
C1465 C 0.83342 0.20715 0.61365 0.0
C1466 C 0.7929 0.16676 0.6192 0.0
C1467 C 0.80308 0.13069 0.61536 0.0
N1468 N 0.82096 0.19375 0.61613 0.0
N1469 N 0.81584 0.14399 0.61706 0.0
H1470 H 0.22394 0.82629 0.60286 0.0
H1471 H 0.11811 0.80375 0.6152 0.0
H1472 H 0.18377 0.86712 0.61525 0.0
H1473 H 0.15861 0.76446 0.59935 0.0
H1474 H 0.14213 0.82674 0.61815 0.0
H1475 H 0.20038 0.803 0.60458 0.0
C1476 C 0.21015 0.83033 0.60606 0.0
C1477 C 0.20576 0.84866 0.60878 0.0
C1478 C 0.14575 0.81306 0.61412 0.0
C1479 C 0.17865 0.82206 0.61066 0.0
C1480 C 0.13206 0.79995 0.61244 0.0
C1481 C 0.13638 0.78223 0.60689 0.0
C1482 C 0.16385 0.80836 0.61025 0.0
C1483 C 0.15466 0.778 0.60354 0.0
C1484 C 0.19669 0.81703 0.60702 0.0
C1485 C 0.1877 0.85313 0.61298 0.0
N1486 N 0.16769 0.79097 0.60521 0.0
N1487 N 0.17476 0.83992 0.61368 0.0
H1488 H 0.11453 0.27647 0.45096 0.0
H1489 H 0.10191 0.21698 0.54116 0.0
H1490 H 0.10134 0.21929 0.45156 0.0
H1491 H 0.11388 0.27441 0.54241 0.0
H1492 H 0.10413 0.21745 0.50816 0.0
H1493 H 0.11673 0.27593 0.48426 0.0
C1494 C 0.11221 0.2638 0.45809 0.0
C1495 C 0.10762 0.24793 0.44853 0.0
C1496 C 0.10636 0.22997 0.5156 0.0
C1497 C 0.1101 0.24721 0.48646 0.0
C1498 C 0.10508 0.2297 0.53446 0.0
C1499 C 0.10758 0.24571 0.54452 0.0
C1500 C 0.11005 0.2464 0.50661 0.0
C1501 C 0.11179 0.26178 0.53514 0.0
C1502 C 0.11346 0.2635 0.47707 0.0
C1503 C 0.1048 0.23188 0.45839 0.0
N1504 N 0.11278 0.26175 0.51666 0.0
N1505 N 0.10601 0.23196 0.47678 0.0
H1506 H 0.71441 0.11308 0.54133 0.0
H1507 H 0.7734 0.11126 0.45012 0.0
H1508 H 0.77299 0.11033 0.53965 0.0
H1509 H 0.71477 0.11323 0.45016 0.0
H1510 H 0.7733 0.1145 0.48306 0.0
H1511 H 0.71402 0.11667 0.50818 0.0
C1512 C 0.72718 0.11343 0.534 0.0
C1513 C 0.74375 0.11121 0.54319 0.0
C1514 C 0.76042 0.11436 0.47591 0.0
C1515 C 0.74341 0.11524 0.50541 0.0
C1516 C 0.76048 0.1125 0.45708 0.0
C1517 C 0.74405 0.11178 0.44744 0.0
C1518 C 0.74381 0.11535 0.48526 0.0
C1519 C 0.72773 0.11362 0.45713 0.0
C1520 C 0.72695 0.11545 0.51511 0.0
C1521 C 0.75989 0.11182 0.53309 0.0
N1522 N 0.728 0.11514 0.47556 0.0
N1523 N 0.75931 0.11364 0.51476 0.0
H1524 H 0.91646 0.75682 0.44981 0.0
H1525 H 0.86701 0.72096 0.5396 0.0
H1526 H 0.86531 0.72802 0.44784 0.0
H1527 H 0.90778 0.76322 0.53909 0.0
H1528 H 0.86793 0.7202 0.5062 0.0
H1529 H 0.91549 0.75579 0.48289 0.0
C1530 C 0.90504 0.75019 0.45635 0.0
C1531 C 0.8909 0.74256 0.44607 0.0
C1532 C 0.87663 0.72963 0.51346 0.0
C1533 C 0.8897 0.74134 0.48402 0.0
C1534 C 0.87614 0.73005 0.53247 0.0
C1535 C 0.88732 0.74219 0.54209 0.0
C1536 C 0.88856 0.74128 0.50412 0.0
C1537 C 0.89889 0.75369 0.53222 0.0
C1538 C 0.90446 0.74967 0.47525 0.0
C1539 C 0.87646 0.73413 0.45529 0.0
N1540 N 0.89926 0.75289 0.51381 0.0
N1541 N 0.87621 0.73373 0.47379 0.0
H1542 H 0.21917 0.89973 0.44996 0.0
H1543 H 0.27393 0.87486 0.54069 0.0
H1544 H 0.27329 0.87722 0.44919 0.0
H1545 H 0.21933 0.89618 0.53963 0.0
H1546 H 0.27421 0.87506 0.50732 0.0
H1547 H 0.21923 0.8981 0.48299 0.0
C1548 C 0.23109 0.89443 0.45677 0.0
C1549 C 0.24626 0.88863 0.44683 0.0
C1550 C 0.26217 0.87965 0.51442 0.0
C1551 C 0.24645 0.8867 0.48477 0.0
C1552 C 0.262 0.87952 0.53343 0.0
C1553 C 0.2466 0.88554 0.54291 0.0
C1554 C 0.24683 0.88586 0.5049 0.0
C1555 C 0.23151 0.89144 0.53288 0.0
C1556 C 0.23112 0.89348 0.47565 0.0
C1557 C 0.26132 0.88185 0.45637 0.0
N1558 N 0.23203 0.89148 0.51446 0.0
N1559 N 0.26105 0.88109 0.47485 0.0
H1560 H 0.11056 0.71483 0.53899 0.0
H1561 H 0.08268 0.76828 0.44837 0.0
H1562 H 0.08396 0.76704 0.53829 0.0
H1563 H 0.11082 0.71689 0.4476 0.0
H1564 H 0.08263 0.76749 0.48146 0.0
H1565 H 0.11048 0.71476 0.50564 0.0
C1566 C 0.1047 0.72626 0.53182 0.0
C1567 C 0.09726 0.74097 0.54139 0.0
C1568 C 0.08882 0.75635 0.4741 0.0
C1569 C 0.09711 0.74098 0.50337 0.0
C1570 C 0.08884 0.7568 0.45519 0.0
C1571 C 0.09678 0.74264 0.44523 0.0
C1572 C 0.09681 0.74163 0.48322 0.0
C1573 C 0.10456 0.72809 0.45478 0.0
C1574 C 0.10466 0.72621 0.51281 0.0
C1575 C 0.08985 0.75542 0.53146 0.0
N1576 N 0.10439 0.72796 0.47328 0.0
N1577 N 0.08997 0.75506 0.51303 0.0
H1578 H 0.27224 0.11551 0.44912 0.0
H1579 H 0.2147 0.09683 0.53964 0.0
H1580 H 0.21649 0.09712 0.44989 0.0
H1581 H 0.27098 0.1135 0.54057 0.0
H1582 H 0.21491 0.09877 0.50661 0.0
H1583 H 0.27193 0.11667 0.48246 0.0
C1584 C 0.25993 0.11179 0.4563 0.0
C1585 C 0.2444 0.10613 0.44675 0.0
C1586 C 0.22724 0.10207 0.51399 0.0
C1587 C 0.24393 0.10742 0.48476 0.0
C1588 C 0.22712 0.10097 0.53287 0.0
C1589 C 0.24288 0.10492 0.54285 0.0
C1590 C 0.24327 0.10711 0.50491 0.0
C1591 C 0.25855 0.11029 0.53336 0.0
C1592 C 0.25976 0.11245 0.4753 0.0
C1593 C 0.2288 0.10149 0.45669 0.0
N1594 N 0.25838 0.11115 0.51488 0.0
N1595 N 0.22899 0.1022 0.47511 0.0
H1596 H 0.87294 0.272 0.54051 0.0
H1597 H 0.88731 0.21498 0.44889 0.0
H1598 H 0.88863 0.21556 0.53865 0.0
H1599 H 0.87419 0.27211 0.44915 0.0
H1600 H 0.88518 0.21462 0.4819 0.0
H1601 H 0.87077 0.27204 0.50723 0.0
C1602 C 0.87581 0.2596 0.5331 0.0
C1603 C 0.88109 0.24378 0.54232 0.0
C1604 C 0.88268 0.22725 0.47479 0.0
C1605 C 0.87865 0.24373 0.50437 0.0
C1606 C 0.8839 0.22746 0.45591 0.0
C1607 C 0.88105 0.24363 0.44628 0.0
C1608 C 0.87868 0.24336 0.48421 0.0
C1609 C 0.87655 0.25936 0.45609 0.0
C1610 C 0.87459 0.25964 0.51413 0.0
C1611 C 0.88463 0.22809 0.53209 0.0
N1612 N 0.87561 0.25887 0.47456 0.0
N1613 N 0.88341 0.22849 0.5137 0.0
H1614 H 0.7611 0.85848 0.4468 0.0
H1615 H 0.70626 0.88118 0.5378 0.0
H1616 H 0.70884 0.88501 0.44702 0.0
H1617 H 0.76254 0.8649 0.53595 0.0
H1618 H 0.70425 0.87662 0.5048 0.0
H1619 H 0.75881 0.85436 0.4796 0.0
C1620 C 0.74901 0.86323 0.45374 0.0
C1621 C 0.73526 0.87236 0.44425 0.0
C1622 C 0.71696 0.87385 0.51168 0.0
C1623 C 0.73264 0.86787 0.48184 0.0
C1624 C 0.71811 0.87641 0.53048 0.0
C1625 C 0.73466 0.87365 0.53952 0.0
C1626 C 0.73246 0.86837 0.50197 0.0
C1627 C 0.74958 0.86742 0.52946 0.0
C1628 C 0.74774 0.86091 0.47248 0.0
C1629 C 0.71982 0.87805 0.45388 0.0
N1630 N 0.74816 0.86511 0.51122 0.0
N1631 N 0.71903 0.87593 0.47222 0.0
H1632 H 0.44848 0.11264 0.27318 0.0
H1633 H 0.53964 0.09823 0.21546 0.0
H1634 H 0.44993 0.09552 0.21708 0.0
H1635 H 0.54 0.11289 0.27227 0.0
H1636 H 0.50657 0.09939 0.2156 0.0
H1637 H 0.48179 0.11489 0.27298 0.0
C1638 C 0.4558 0.10944 0.26082 0.0
C1639 C 0.44647 0.1038 0.24515 0.0
C1640 C 0.51382 0.10242 0.22805 0.0
C1641 C 0.48442 0.10634 0.24481 0.0
C1642 C 0.53273 0.10177 0.22798 0.0
C1643 C 0.54256 0.10537 0.24391 0.0
C1644 C 0.50458 0.10664 0.24421 0.0
C1645 C 0.5329 0.10997 0.2597 0.0
C1646 C 0.47478 0.11071 0.26071 0.0
C1647 C 0.45658 0.09984 0.2295 0.0
N1648 N 0.5144 0.11039 0.25949 0.0
N1649 N 0.47497 0.10114 0.22975 0.0
H1650 H 0.90019 0.54404 0.22487 0.0
H1651 H 0.87565 0.45131 0.27638 0.0
H1652 H 0.87526 0.54273 0.27794 0.0
H1653 H 0.89943 0.45419 0.22284 0.0
H1654 H 0.87499 0.48463 0.27744 0.0
H1655 H 0.8997 0.51096 0.22411 0.0
C1656 C 0.89459 0.53677 0.23638 0.0
C1657 C 0.88777 0.54613 0.2515 0.0
C1658 C 0.88031 0.47794 0.26546 0.0
C1659 C 0.88717 0.50815 0.25074 0.0
C1660 C 0.88069 0.45895 0.26485 0.0
C1661 C 0.88763 0.45 0.24951 0.0
C1662 C 0.88695 0.48799 0.25064 0.0
C1663 C 0.89398 0.46053 0.23495 0.0
C1664 C 0.89431 0.51785 0.23594 0.0
C1665 C 0.88067 0.536 0.26602 0.0
N1666 N 0.89351 0.47893 0.23589 0.0
N1667 N 0.88057 0.51752 0.2653 0.0
H1668 H 0.5414 0.88686 0.21462 0.0
H1669 H 0.45143 0.87257 0.27427 0.0
H1670 H 0.54294 0.87471 0.27196 0.0
H1671 H 0.45174 0.88731 0.21752 0.0
H1672 H 0.48477 0.87094 0.2736 0.0
H1673 H 0.50839 0.88461 0.21528 0.0
C1674 C 0.53477 0.88364 0.22736 0.0
C1675 C 0.54491 0.88108 0.24329 0.0
C1676 C 0.4775 0.87444 0.2613 0.0
C1677 C 0.50698 0.87857 0.24419 0.0
C1678 C 0.45851 0.87536 0.26167 0.0
C1679 C 0.44884 0.88019 0.24595 0.0
C1680 C 0.48682 0.87835 0.24508 0.0
C1681 C 0.45865 0.88363 0.22998 0.0
C1682 C 0.51589 0.88236 0.22774 0.0
C1683 C 0.5356 0.87684 0.25939 0.0
N1684 N 0.47706 0.8827 0.22998 0.0
N1685 N 0.51711 0.87581 0.25946 0.0
H1686 H 0.11537 0.54193 0.27114 0.0
H1687 H 0.09829 0.45038 0.21456 0.0
H1688 H 0.09461 0.54017 0.2163 0.0
H1689 H 0.11594 0.45056 0.27051 0.0
H1690 H 0.09918 0.48347 0.21451 0.0
H1691 H 0.11782 0.50868 0.2708 0.0
C1692 C 0.11139 0.53455 0.25902 0.0
C1693 C 0.10469 0.54379 0.24376 0.0
C1694 C 0.10293 0.47632 0.22681 0.0
C1695 C 0.10746 0.50587 0.24326 0.0
C1696 C 0.10244 0.4574 0.22684 0.0
C1697 C 0.10694 0.44772 0.2426 0.0
C1698 C 0.10791 0.48572 0.24268 0.0
C1699 C 0.1123 0.45753 0.25808 0.0
C1700 C 0.11279 0.5156 0.25884 0.0
C1701 C 0.09977 0.5336 0.2284 0.0
N1702 N 0.11255 0.47603 0.25777 0.0
N1703 N 0.10122 0.51522 0.22857 0.0
H1704 H 0.45102 0.87245 0.71444 0.0
H1705 H 0.54157 0.87484 0.7747 0.0
H1706 H 0.45193 0.87707 0.7729 0.0
H1707 H 0.54206 0.87482 0.71606 0.0
H1708 H 0.50864 0.87114 0.77413 0.0
H1709 H 0.48419 0.86901 0.71461 0.0
C1710 C 0.45819 0.87256 0.72731 0.0
C1711 C 0.44877 0.87525 0.74367 0.0
C1712 C 0.51592 0.8718 0.76136 0.0
C1713 C 0.48658 0.87134 0.74397 0.0
C1714 C 0.53474 0.8739 0.76168 0.0
C1715 C 0.54452 0.87535 0.7454 0.0
C1716 C 0.50673 0.87128 0.74463 0.0
C1717 C 0.53499 0.87387 0.72893 0.0
C1718 C 0.47709 0.87063 0.7274 0.0
C1719 C 0.45868 0.87522 0.75996 0.0
N1720 N 0.51658 0.8721 0.72895 0.0
N1721 N 0.47702 0.87342 0.75968 0.0
H1722 H 0.09245 0.45048 0.77418 0.0
H1723 H 0.11575 0.54123 0.71867 0.0
H1724 H 0.11453 0.44984 0.71986 0.0
H1725 H 0.09232 0.54043 0.77242 0.0
H1726 H 0.11659 0.50789 0.71896 0.0
H1727 H 0.09351 0.48357 0.77395 0.0
C1728 C 0.09756 0.45732 0.76219 0.0
C1729 C 0.10336 0.4474 0.74699 0.0
C1730 C 0.11131 0.51504 0.73069 0.0
C1731 C 0.10459 0.4854 0.7466 0.0
C1732 C 0.11083 0.53404 0.73053 0.0
C1733 C 0.10391 0.54359 0.74552 0.0
C1734 C 0.10482 0.50557 0.74596 0.0
C1735 C 0.09773 0.53362 0.76054 0.0
C1736 C 0.09817 0.47624 0.76206 0.0
C1737 C 0.1099 0.45699 0.73186 0.0
N1738 N 0.09831 0.5152 0.76036 0.0
N1739 N 0.1103 0.47549 0.73202 0.0
H1740 H 0.44916 0.11055 0.77283 0.0
H1741 H 0.54006 0.11245 0.71341 0.0
H1742 H 0.44889 0.11118 0.71419 0.0
H1743 H 0.53871 0.11182 0.77204 0.0
H1744 H 0.50684 0.11543 0.71306 0.0
H1745 H 0.48203 0.11452 0.77249 0.0
C1746 C 0.45604 0.11164 0.75985 0.0
C1747 C 0.44633 0.11034 0.74351 0.0
C1748 C 0.51385 0.11482 0.72599 0.0
C1749 C 0.48408 0.11474 0.74299 0.0
C1750 C 0.53279 0.11314 0.72619 0.0
C1751 C 0.54209 0.11168 0.74278 0.0
C1752 C 0.50424 0.11502 0.74249 0.0
C1753 C 0.53206 0.11271 0.75894 0.0
C1754 C 0.47483 0.11393 0.75966 0.0
C1755 C 0.45591 0.11203 0.7271 0.0
N1756 N 0.51369 0.11418 0.75838 0.0
N1757 N 0.47432 0.11395 0.72724 0.0
H1758 H 0.906 0.5408 0.76746 0.0
H1759 H 0.8772 0.45035 0.71383 0.0
H1760 H 0.87786 0.5418 0.71599 0.0
H1761 H 0.90451 0.451 0.76576 0.0
H1762 H 0.87763 0.48371 0.71374 0.0
H1763 H 0.90596 0.50772 0.76646 0.0
C1764 C 0.89981 0.53403 0.75592 0.0
C1765 C 0.89189 0.54404 0.7418 0.0
C1766 C 0.88353 0.47652 0.72513 0.0
C1767 C 0.89176 0.50607 0.74055 0.0
C1768 C 0.88329 0.45751 0.72519 0.0
C1769 C 0.8908 0.44792 0.73984 0.0
C1770 C 0.89135 0.48593 0.73983 0.0
C1771 C 0.89853 0.45784 0.75419 0.0
C1772 C 0.89978 0.51512 0.75535 0.0
C1773 C 0.8841 0.53456 0.72717 0.0
N1774 N 0.89859 0.47626 0.75383 0.0
N1775 N 0.8842 0.51607 0.72692 0.0
H1776 H 0.21514 0.54014 0.11393 0.0
H1777 H 0.2763 0.45037 0.11349 0.0
H1778 H 0.27377 0.54148 0.11227 0.0
H1779 H 0.21772 0.45076 0.11021 0.0
H1780 H 0.27598 0.4835 0.11741 0.0
H1781 H 0.21618 0.50722 0.11723 0.0
C1782 C 0.22827 0.53349 0.11441 0.0
C1783 C 0.24439 0.5435 0.1126 0.0
C1784 C 0.26321 0.47629 0.11598 0.0
C1785 C 0.24571 0.50573 0.11619 0.0
C1786 C 0.26338 0.45741 0.11377 0.0
C1787 C 0.24702 0.44787 0.11132 0.0
C1788 C 0.24654 0.4856 0.1158 0.0
C1789 C 0.23067 0.4576 0.11186 0.0
C1790 C 0.22886 0.51468 0.11628 0.0
C1791 C 0.26102 0.53422 0.11351 0.0
N1792 N 0.23086 0.47592 0.11393 0.0
N1793 N 0.26125 0.5158 0.11504 0.0
H1794 H 0.21927 0.54002 0.87394 0.0
H1795 H 0.2796 0.44968 0.87525 0.0
H1796 H 0.27784 0.54087 0.87739 0.0
H1797 H 0.22099 0.45066 0.87748 0.0
H1798 H 0.27968 0.48285 0.8716 0.0
H1799 H 0.22013 0.50711 0.87053 0.0
C1800 C 0.23235 0.53327 0.87384 0.0
C1801 C 0.2485 0.54314 0.87617 0.0
C1802 C 0.26682 0.47575 0.87274 0.0
C1803 C 0.2496 0.50537 0.87244 0.0
C1804 C 0.26677 0.45685 0.87479 0.0
C1805 C 0.25027 0.44748 0.87688 0.0
C1806 C 0.25025 0.48524 0.8727 0.0
C1807 C 0.23403 0.45738 0.87612 0.0
C1808 C 0.23284 0.51446 0.87191 0.0
C1809 C 0.26506 0.53372 0.87575 0.0
N1810 N 0.23444 0.4757 0.8742 0.0
N1811 N 0.26519 0.5153 0.87412 0.0
H1812 H 0.45036 0.21316 0.89058 0.0
H1813 H 0.54073 0.27142 0.87272 0.0
H1814 H 0.44938 0.26931 0.87373 0.0
H1815 H 0.54023 0.21584 0.89138 0.0
H1816 H 0.50742 0.27063 0.87096 0.0
H1817 H 0.48343 0.21355 0.8888 0.0
C1818 C 0.45712 0.22557 0.88642 0.0
C1819 C 0.44713 0.24126 0.8824 0.0
C1820 C 0.51463 0.2586 0.87536 0.0
C1821 C 0.48509 0.24185 0.8804 0.0
C1822 C 0.53362 0.25904 0.87636 0.0
C1823 C 0.54323 0.2437 0.8823 0.0
C1824 C 0.50525 0.2427 0.88033 0.0
C1825 C 0.53337 0.22801 0.88681 0.0
C1826 C 0.47603 0.2258 0.88542 0.0
C1827 C 0.4566 0.25693 0.877 0.0
N1828 N 0.51495 0.22794 0.88579 0.0
N1829 N 0.47509 0.25686 0.87625 0.0
H1830 H 0.71567 0.54151 0.87825 0.0
H1831 H 0.7678 0.45007 0.90569 0.0
H1832 H 0.76807 0.53985 0.9046 0.0
H1833 H 0.71634 0.44998 0.87749 0.0
H1834 H 0.76742 0.48314 0.90595 0.0
H1835 H 0.71495 0.50815 0.87827 0.0
C1836 C 0.727 0.53413 0.88403 0.0
C1837 C 0.74196 0.54343 0.89141 0.0
C1838 C 0.75617 0.47595 0.89969 0.0
C1839 C 0.74124 0.50542 0.89151 0.0
C1840 C 0.75639 0.45704 0.89955 0.0
C1841 C 0.7421 0.44727 0.89152 0.0
C1842 C 0.74156 0.48527 0.89174 0.0
C1843 C 0.72764 0.45702 0.88381 0.0
C1844 C 0.72659 0.51512 0.88404 0.0
C1845 C 0.75627 0.53323 0.89874 0.0
N1846 N 0.72774 0.47551 0.88408 0.0
N1847 N 0.75555 0.51482 0.8986 0.0
H1848 H 0.45002 0.71611 0.87527 0.0
H1849 H 0.54111 0.77554 0.87742 0.0
H1850 H 0.45145 0.77468 0.87804 0.0
H1851 H 0.54114 0.71695 0.87476 0.0
H1852 H 0.50815 0.77533 0.87411 0.0
H1853 H 0.48317 0.71594 0.87161 0.0
C1854 C 0.45729 0.72892 0.87491 0.0
C1855 C 0.44803 0.74542 0.87717 0.0
C1856 C 0.51532 0.76249 0.87411 0.0
C1857 C 0.48583 0.74534 0.87305 0.0
C1858 C 0.53416 0.76261 0.87601 0.0
C1859 C 0.54383 0.74623 0.87656 0.0
C1860 C 0.506 0.74585 0.87292 0.0
C1861 C 0.53416 0.72989 0.8745 0.0
C1862 C 0.47619 0.72882 0.87285 0.0
C1863 C 0.45807 0.76163 0.87654 0.0
N1864 N 0.51572 0.73009 0.87296 0.0
N1865 N 0.47641 0.76117 0.87467 0.0
H1866 H 0.77258 0.53981 0.09004 0.0
H1867 H 0.71737 0.44862 0.11273 0.0
H1868 H 0.71892 0.54003 0.11374 0.0
H1869 H 0.77033 0.44995 0.08755 0.0
H1870 H 0.7175 0.48195 0.11371 0.0
H1871 H 0.7719 0.50673 0.08961 0.0
C1872 C 0.76064 0.53287 0.09519 0.0
C1873 C 0.74577 0.54267 0.10193 0.0
C1874 C 0.72907 0.47492 0.10797 0.0
C1875 C 0.74488 0.50468 0.10145 0.0
C1876 C 0.729 0.45593 0.1074 0.0
C1877 C 0.74386 0.44653 0.10005 0.0
C1878 C 0.74412 0.48454 0.10115 0.0
C1879 C 0.75858 0.45664 0.09334 0.0
C1880 C 0.76025 0.51396 0.09493 0.0
C1881 C 0.73067 0.53297 0.10842 0.0
N1882 N 0.75834 0.47506 0.09406 0.0
N1883 N 0.73059 0.51448 0.10802 0.0
H1884 H 0.54036 0.71161 0.11303 0.0
H1885 H 0.4498 0.77163 0.11449 0.0
H1886 H 0.53924 0.77018 0.11043 0.0
H1887 H 0.44913 0.71303 0.11217 0.0
H1888 H 0.48277 0.77095 0.11748 0.0
H1889 H 0.50721 0.71148 0.11691 0.0
C1890 C 0.53315 0.72443 0.11345 0.0
C1891 C 0.54249 0.74093 0.11121 0.0
C1892 C 0.47545 0.75821 0.11645 0.0
C1893 C 0.50474 0.74089 0.11565 0.0
C1894 C 0.45661 0.75859 0.11475 0.0
C1895 C 0.44676 0.74236 0.11286 0.0
C1896 C 0.4846 0.74147 0.11612 0.0
C1897 C 0.45625 0.72585 0.11348 0.0
C1898 C 0.51427 0.72435 0.11564 0.0
C1899 C 0.53255 0.75714 0.11191 0.0
N1900 N 0.4747 0.72583 0.11487 0.0
N1901 N 0.51424 0.7567 0.11397 0.0
H1902 H 0.53968 0.21649 0.09662 0.0
H1903 H 0.44832 0.27258 0.11497 0.0
H1904 H 0.53984 0.27268 0.11349 0.0
H1905 H 0.44995 0.21629 0.09851 0.0
H1906 H 0.48168 0.27286 0.11614 0.0
H1907 H 0.50667 0.2161 0.09881 0.0
C1908 C 0.53274 0.22876 0.10084 0.0
C1909 C 0.54249 0.24467 0.10479 0.0
C1910 C 0.4747 0.26044 0.11236 0.0
C1911 C 0.50456 0.24437 0.10729 0.0
C1912 C 0.4557 0.26027 0.11172 0.0
C1913 C 0.44639 0.24442 0.10654 0.0
C1914 C 0.4844 0.24464 0.1078 0.0
C1915 C 0.45657 0.22885 0.10249 0.0
C1916 C 0.51386 0.22854 0.1021 0.0
C1917 C 0.5328 0.26014 0.11027 0.0
N1918 N 0.47499 0.22938 0.10313 0.0
N1919 N 0.51432 0.25964 0.11128 0.0
H1920 H 0.58198 0.72045 0.03875 0.0
H1921 H 0.61073 0.77482 0.94891 0.0
H1922 H 0.61017 0.77194 0.03999 0.0
H1923 H 0.58291 0.72312 0.94861 0.0
H1924 H 0.61 0.77464 0.98221 0.0
H1925 H 0.58153 0.72177 0.00563 0.0
C1926 C 0.58807 0.73206 0.03203 0.0
C1927 C 0.59617 0.74608 0.04211 0.0
C1928 C 0.60403 0.76336 0.97484 0.0
C1929 C 0.59573 0.7477 0.00415 0.0
C1930 C 0.60444 0.76346 0.95586 0.0
C1931 C 0.59691 0.74893 0.94601 0.0
C1932 C 0.59604 0.74862 0.98401 0.0
C1933 C 0.58891 0.73458 0.95567 0.0
C1934 C 0.5878 0.73281 0.01311 0.0
C1935 C 0.60381 0.76082 0.03271 0.0
N1936 N 0.58872 0.73477 0.97411 0.0
N1937 N 0.60344 0.76123 0.01423 0.0
H1938 H 0.21481 0.61007 0.94768 0.0
H1939 H 0.26102 0.57514 0.03975 0.0
H1940 H 0.2628 0.57651 0.94978 0.0
H1941 H 0.21408 0.6102 0.03877 0.0
H1942 H 0.26032 0.57374 0.00666 0.0
H1943 H 0.21278 0.60861 0.98089 0.0
C1944 C 0.22485 0.60232 0.95513 0.0
C1945 C 0.23906 0.59349 0.94601 0.0
C1946 C 0.25011 0.58169 0.01364 0.0
C1947 C 0.23685 0.59178 0.9839 0.0
C1948 C 0.2505 0.58249 0.03255 0.0
C1949 C 0.23766 0.5929 0.04199 0.0
C1950 C 0.23681 0.59143 0.00404 0.0
C1951 C 0.22428 0.60207 0.03198 0.0
C1952 C 0.2237 0.6015 0.97407 0.0
C1953 C 0.25168 0.58361 0.95628 0.0
N1954 N 0.22426 0.60121 0.01352 0.0
N1955 N 0.25032 0.58308 0.97466 0.0
H1956 H 0.40052 0.26818 0.03977 0.0
H1957 H 0.37552 0.21342 0.94893 0.0
H1958 H 0.37584 0.21492 0.04034 0.0
H1959 H 0.40138 0.26613 0.94991 0.0
H1960 H 0.3748 0.21364 0.98226 0.0
H1961 H 0.4002 0.26765 0.00669 0.0
C1962 C 0.39501 0.25636 0.03291 0.0
C1963 C 0.38823 0.24155 0.0428 0.0
C1964 C 0.38062 0.22514 0.97516 0.0
C1965 C 0.38782 0.24082 0.00482 0.0
C1966 C 0.38103 0.22503 0.95616 0.0
C1967 C 0.38855 0.23977 0.94667 0.0
C1968 C 0.38776 0.24012 0.98467 0.0
C1969 C 0.39548 0.25446 0.95668 0.0
C1970 C 0.39483 0.25605 0.01399 0.0
C1971 C 0.38122 0.2266 0.0332 0.0
N1972 N 0.39493 0.25425 0.9751 0.0
N1973 N 0.38122 0.2266 0.0147 0.0
H1974 H 0.77597 0.37528 0.04017 0.0
H1975 H 0.71637 0.38347 0.94945 0.0
H1976 H 0.71828 0.38573 0.03896 0.0
H1977 H 0.77463 0.3767 0.94869 0.0
H1978 H 0.71677 0.38101 0.98243 0.0
H1979 H 0.77576 0.37266 0.00689 0.0
C1980 C 0.76326 0.3769 0.03291 0.0
C1981 C 0.74714 0.38087 0.04229 0.0
C1982 C 0.7295 0.37997 0.9751 0.0
C1983 C 0.74679 0.37788 0.00439 0.0
C1984 C 0.72927 0.38137 0.95625 0.0
C1985 C 0.74552 0.38045 0.94635 0.0
C1986 C 0.74612 0.37774 0.98424 0.0
C1987 C 0.7618 0.37756 0.95585 0.0
C1988 C 0.76315 0.37542 0.01395 0.0
C1989 C 0.73105 0.38279 0.03227 0.0
N1990 N 0.76172 0.37645 0.97432 0.0
N1991 N 0.7313 0.38135 0.0139 0.0
H1992 H 0.61498 0.21639 0.94781 0.0
H1993 H 0.59199 0.27166 0.03881 0.0
H1994 H 0.59241 0.27046 0.94888 0.0
H1995 H 0.61387 0.21729 0.03921 0.0
H1996 H 0.59312 0.27156 0.00573 0.0
H1997 H 0.61576 0.21651 0.98115 0.0
C1998 C 0.61025 0.22829 0.95506 0.0
C1999 C 0.60357 0.24342 0.94559 0.0
C2000 C 0.59772 0.25963 0.013 0.0
C2001 C 0.6044 0.24366 0.98361 0.0
C2002 C 0.59707 0.25969 0.03191 0.0
C2003 C 0.6028 0.24444 0.04176 0.0
C2004 C 0.60411 0.2442 0.00377 0.0
C2005 C 0.6093 0.22933 0.03211 0.0
C2006 C 0.61068 0.22835 0.97406 0.0
C2007 C 0.59762 0.25848 0.95563 0.0
N2008 N 0.60974 0.22956 0.01362 0.0
N2009 N 0.59814 0.2582 0.97405 0.0
H2010 H 0.71908 0.60156 0.04184 0.0
H2011 H 0.77639 0.61375 0.95019 0.0
H2012 H 0.77671 0.6127 0.04185 0.0
H2013 H 0.71887 0.60229 0.95239 0.0
H2014 H 0.77693 0.61547 0.98354 0.0
H2015 H 0.71884 0.60387 0.0089 0.0
C2016 C 0.73171 0.60455 0.03488 0.0
C2017 C 0.74797 0.60681 0.04458 0.0
C2018 C 0.7642 0.61268 0.97668 0.0
C2019 C 0.74783 0.60941 0.00668 0.0
C2020 C 0.76388 0.61172 0.95768 0.0
C2021 C 0.74759 0.60775 0.94855 0.0
C2022 C 0.74809 0.60967 0.98652 0.0
C2023 C 0.73176 0.60526 0.95887 0.0
C2024 C 0.73157 0.60588 0.01603 0.0
C2025 C 0.76389 0.6108 0.03485 0.0
N2026 N 0.73244 0.60619 0.97725 0.0
N2027 N 0.76346 0.61186 0.01637 0.0
H2028 H 0.38118 0.77673 0.94968 0.0
H2029 H 0.41418 0.72658 0.04035 0.0
H2030 H 0.41426 0.72838 0.95044 0.0
H2031 H 0.38021 0.77432 0.04081 0.0
H2032 H 0.41594 0.72846 0.00733 0.0
H2033 H 0.38221 0.77754 0.98298 0.0
C2034 C 0.38874 0.76636 0.95685 0.0
C2035 C 0.39754 0.7524 0.94733 0.0
C2036 C 0.40814 0.73858 0.01461 0.0
C2037 C 0.39876 0.7532 0.9853 0.0
C2038 C 0.40712 0.73751 0.03348 0.0
C2039 C 0.39693 0.75024 0.0433 0.0
C2040 C 0.39883 0.75246 0.00543 0.0
C2041 C 0.38816 0.76418 0.03372 0.0
C2042 C 0.38931 0.76681 0.97583 0.0
C2043 C 0.40718 0.73933 0.95726 0.0
N2044 N 0.38922 0.76487 0.01528 0.0
N2045 N 0.40747 0.74001 0.97568 0.0
H2046 H 0.21743 0.38016 0.03952 0.0
H2047 H 0.27075 0.40876 0.94898 0.0
H2048 H 0.26879 0.40864 0.03911 0.0
H2049 H 0.21941 0.38025 0.94836 0.0
H2050 H 0.26968 0.40944 0.9821 0.0
H2051 H 0.21729 0.38064 0.00621 0.0
C2052 C 0.22864 0.38655 0.03241 0.0
C2053 C 0.24317 0.39432 0.04206 0.0
C2054 C 0.25861 0.40305 0.97476 0.0
C2055 C 0.24312 0.39491 0.00405 0.0
C2056 C 0.25922 0.40266 0.95583 0.0
C2057 C 0.24516 0.39439 0.94592 0.0
C2058 C 0.24385 0.39509 0.9839 0.0
C2059 C 0.23054 0.38674 0.95551 0.0
C2060 C 0.22856 0.38681 0.01342 0.0
C2061 C 0.25734 0.40244 0.03221 0.0
N2062 N 0.23028 0.38723 0.97398 0.0
N2063 N 0.25697 0.40249 0.01377 0.0
H2064 H 0.04182 0.61507 0.77548 0.0
H2065 H 0.95085 0.60547 0.71632 0.0
H2066 H 0.04045 0.60133 0.71846 0.0
H2067 H 0.95033 0.61451 0.77427 0.0
H2068 H 0.98391 0.60707 0.71665 0.0
H2069 H 0.00855 0.61781 0.77517 0.0
C2070 C 0.03452 0.61272 0.76289 0.0
C2071 C 0.04386 0.60785 0.747 0.0
C2072 C 0.97662 0.60879 0.72932 0.0
C2073 C 0.00597 0.61099 0.74652 0.0
C2074 C 0.95771 0.6079 0.72913 0.0
C2075 C 0.94785 0.60972 0.74532 0.0
C2076 C 0.98582 0.61145 0.74584 0.0
C2077 C 0.95746 0.61297 0.76149 0.0
C2078 C 0.01557 0.61427 0.76273 0.0
C2079 C 0.03379 0.60499 0.73106 0.0
N2080 N 0.97595 0.61361 0.76137 0.0
N2081 N 0.01543 0.60656 0.73125 0.0
H2082 H 0.38028 0.94624 0.77363 0.0
H2083 H 0.40937 0.03786 0.72248 0.0
H2084 H 0.40954 0.94775 0.72283 0.0
H2085 H 0.37936 0.03743 0.77287 0.0
H2086 H 0.41037 0.00476 0.72313 0.0
H2087 H 0.38058 0.97954 0.77435 0.0
C2088 C 0.3868 0.95359 0.76266 0.0
C2089 C 0.39485 0.94424 0.74811 0.0
C2090 C 0.40359 0.01186 0.73408 0.0
C2091 C 0.39523 0.98226 0.74884 0.0
C2092 C 0.40301 0.03078 0.73372 0.0
C2093 C 0.39421 0.0404 0.74762 0.0
C2094 C 0.39528 0.00242 0.74844 0.0
C2095 C 0.38625 0.03052 0.76186 0.0
C2096 C 0.38696 0.97257 0.76307 0.0
C2097 C 0.40313 0.9544 0.73427 0.0
N2098 N 0.38693 0.01205 0.76189 0.0
N2099 N 0.40307 0.97284 0.73497 0.0
H2100 H 0.04015 0.37626 0.7759 0.0
H2101 H 0.95047 0.38839 0.71534 0.0
H2102 H 0.03998 0.39184 0.71937 0.0
H2103 H 0.94862 0.37725 0.77289 0.0
H2104 H 0.9835 0.38682 0.71635 0.0
H2105 H 0.00684 0.37395 0.77493 0.0
C2106 C 0.03311 0.37912 0.76329 0.0
C2107 C 0.0428 0.38436 0.74772 0.0
C2108 C 0.97592 0.38465 0.72879 0.0
C2109 C 0.00488 0.3817 0.7465 0.0
C2110 C 0.95704 0.38552 0.72821 0.0
C2111 C 0.94681 0.38307 0.74409 0.0
C2112 C 0.98475 0.38137 0.74539 0.0
C2113 C 0.95604 0.37928 0.76034 0.0
C2114 C 0.01414 0.37781 0.76275 0.0
C2115 C 0.03305 0.38787 0.73173 0.0
N2116 N 0.97453 0.37865 0.76061 0.0
N2117 N 0.01467 0.38651 0.73155 0.0
H2118 H 0.57617 0.94878 0.72771 0.0
H2119 H 0.60965 0.04078 0.77554 0.0
H2120 H 0.61086 0.94968 0.77503 0.0
H2121 H 0.57677 0.03879 0.72698 0.0
H2122 H 0.60861 0.00752 0.77706 0.0
H2123 H 0.57453 0.98185 0.72872 0.0
C2124 C 0.58339 0.95596 0.73837 0.0
C2125 C 0.59376 0.94651 0.75124 0.0
C2126 C 0.60156 0.01438 0.76613 0.0
C2127 C 0.59201 0.98443 0.75246 0.0
C2128 C 0.60214 0.03334 0.76526 0.0
C2129 C 0.59337 0.04251 0.75105 0.0
C2130 C 0.59214 0.00457 0.75268 0.0
C2131 C 0.58381 0.03225 0.73812 0.0
C2132 C 0.58246 0.97486 0.73894 0.0
C2133 C 0.60277 0.95648 0.7648 0.0
N2134 N 0.5835 0.01385 0.73921 0.0
N2135 N 0.60176 0.97493 0.76501 0.0
H2136 H 0.95142 0.39782 0.27292 0.0
H2137 H 0.04134 0.3769 0.21523 0.0
H2138 H 0.94987 0.37896 0.21738 0.0
H2139 H 0.04119 0.39867 0.26972 0.0
H2140 H 0.00798 0.37604 0.21586 0.0
H2141 H 0.98449 0.3966 0.27219 0.0
C2142 C 0.95807 0.39337 0.26056 0.0
C2143 C 0.9479 0.38855 0.24516 0.0
C2144 C 0.01528 0.38097 0.22767 0.0
C2145 C 0.98587 0.38715 0.24418 0.0
C2146 C 0.03429 0.38146 0.22732 0.0
C2147 C 0.04401 0.38792 0.24242 0.0
C2148 C 0.00601 0.38696 0.24326 0.0
C2149 C 0.03424 0.39364 0.25774 0.0
C2150 C 0.97697 0.39269 0.26014 0.0
C2151 C 0.95723 0.38283 0.22954 0.0
N2152 N 0.01581 0.39304 0.25775 0.0
N2153 N 0.97572 0.38234 0.22942 0.0
H2154 H 0.61406 0.04061 0.21451 0.0
H2155 H 0.59012 0.94879 0.26793 0.0
H2156 H 0.5893 0.03866 0.26763 0.0
H2157 H 0.61396 0.94916 0.21434 0.0
H2158 H 0.59031 0.98188 0.26795 0.0
H2159 H 0.61475 0.00727 0.21404 0.0
C2160 C 0.6088 0.03316 0.22606 0.0
C2161 C 0.60159 0.04238 0.24112 0.0
C2162 C 0.59552 0.97478 0.25616 0.0
C2163 C 0.60233 0.00438 0.24069 0.0
C2164 C 0.59541 0.95586 0.25614 0.0
C2165 C 0.60201 0.94623 0.24109 0.0
C2166 C 0.60227 0.98422 0.24101 0.0
C2167 C 0.60872 0.9561 0.22621 0.0
C2168 C 0.60919 0.01417 0.22579 0.0
C2169 C 0.59496 0.03211 0.25573 0.0
N2170 N 0.60868 0.97459 0.22653 0.0
N2171 N 0.59548 0.01369 0.25514 0.0
H2172 H 0.03845 0.61749 0.21779 0.0
H2173 H 0.94952 0.60188 0.27877 0.0
H2174 H 0.03899 0.59597 0.27233 0.0
H2175 H 0.94715 0.61941 0.22287 0.0
H2176 H 0.98261 0.60222 0.27718 0.0
H2177 H 0.00528 0.62052 0.21977 0.0
C2178 C 0.03159 0.61344 0.23018 0.0
C2179 C 0.04146 0.60639 0.24489 0.0
C2180 C 0.9749 0.60607 0.26525 0.0
C2181 C 0.00365 0.60988 0.24728 0.0
C2182 C 0.95598 0.60592 0.26617 0.0
C2183 C 0.94557 0.61052 0.25089 0.0
C2184 C 0.98355 0.61081 0.24891 0.0
C2185 C 0.95469 0.61572 0.23495 0.0
C2186 C 0.01269 0.61518 0.2313 0.0
C2187 C 0.03192 0.6014 0.26062 0.0
N2188 N 0.97318 0.61563 0.23433 0.0
N2189 N 0.01359 0.60322 0.26138 0.0
H2190 H 0.37603 0.03746 0.21619 0.0
H2191 H 0.39987 0.94719 0.27207 0.0
H2192 H 0.39797 0.03709 0.2706 0.0
H2193 H 0.37798 0.94611 0.21765 0.0
H2194 H 0.39847 0.98026 0.27176 0.0
H2195 H 0.37579 0.00412 0.21641 0.0
C2196 C 0.38074 0.03036 0.22818 0.0
C2197 C 0.38707 0.04003 0.24338 0.0
C2198 C 0.39394 0.97284 0.25986 0.0
C2199 C 0.38686 0.00201 0.24373 0.0
C2200 C 0.39475 0.95393 0.26004 0.0
C2201 C 0.38908 0.9439 0.24484 0.0
C2202 C 0.38744 0.98186 0.24436 0.0
C2203 C 0.38251 0.95336 0.22964 0.0
C2204 C 0.38061 0.01136 0.2283 0.0
C2205 C 0.39301 0.03018 0.25856 0.0
N2206 N 0.3819 0.97184 0.22977 0.0
N2207 N 0.39279 0.01175 0.25833 0.0
H2208 H 0.77466 0.03806 0.60906 0.0
H2209 H 0.72474 0.94864 0.57169 0.0
H2210 H 0.72618 0.03852 0.57601 0.0
H2211 H 0.77209 0.94697 0.6063 0.0
H2212 H 0.72657 0.98173 0.57141 0.0
H2213 H 0.77541 0.00483 0.60666 0.0
C2214 C 0.76423 0.03117 0.60125 0.0
C2215 C 0.75028 0.04102 0.59281 0.0
C2216 C 0.73663 0.97416 0.57902 0.0
C2217 C 0.75104 0.00313 0.58999 0.0
C2218 C 0.73559 0.95526 0.57917 0.0
C2219 C 0.74822 0.94507 0.58912 0.0
C2220 C 0.75036 0.98301 0.58896 0.0
C2221 C 0.76204 0.95435 0.5985 0.0
C2222 C 0.76466 0.01223 0.59988 0.0
C2223 C 0.73713 0.03145 0.58281 0.0
N2224 N 0.7627 0.97282 0.59827 0.0
N2225 N 0.7378 0.01306 0.58173 0.0
H2226 H 0.77362 0.04086 0.37903 0.0
H2227 H 0.72494 0.94944 0.4129 0.0
H2228 H 0.72376 0.03967 0.40989 0.0
H2229 H 0.77224 0.94984 0.37823 0.0
H2230 H 0.72556 0.98261 0.41355 0.0
H2231 H 0.77457 0.00759 0.38006 0.0
C2232 C 0.76291 0.03359 0.38605 0.0
C2233 C 0.74856 0.043 0.39433 0.0
C2234 C 0.73585 0.97547 0.40583 0.0
C2235 C 0.74956 0.00503 0.3956 0.0
C2236 C 0.73551 0.95653 0.40548 0.0
C2237 C 0.74852 0.9469 0.39544 0.0
C2238 C 0.7493 0.98489 0.39607 0.0
C2239 C 0.76192 0.95676 0.3861 0.0
C2240 C 0.76345 0.01462 0.38663 0.0
C2241 C 0.73505 0.03294 0.40328 0.0
N2242 N 0.76195 0.97523 0.3866 0.0
N2243 N 0.73586 0.01452 0.40365 0.0
H2244 H 0.94938 0.77912 0.37474 0.0
H2245 H 0.03858 0.7178 0.37822 0.0
H2246 H 0.94892 0.72048 0.37382 0.0
H2247 H 0.04029 0.77626 0.3739 0.0
H2248 H 0.0057 0.71866 0.37421 0.0
H2249 H 0.98256 0.77861 0.37183 0.0
C2250 C 0.95625 0.76615 0.3737 0.0
C2251 C 0.94644 0.74981 0.37472 0.0
C2252 C 0.01323 0.73131 0.37399 0.0
C2253 C 0.9843 0.74911 0.37156 0.0
C2254 C 0.03202 0.73083 0.37632 0.0
C2255 C 0.04212 0.747 0.37657 0.0
C2256 C 0.00442 0.74812 0.37207 0.0
C2257 C 0.03296 0.76348 0.37389 0.0
C2258 C 0.97517 0.76586 0.37206 0.0
C2259 C 0.95597 0.7334 0.37324 0.0
N2260 N 0.01457 0.76364 0.37193 0.0
N2261 N 0.97437 0.73346 0.37192 0.0
H2262 H 0.21468 0.04216 0.37525 0.0
H2263 H 0.27264 0.95156 0.39153 0.0
H2264 H 0.27026 0.04114 0.39406 0.0
H2265 H 0.2161 0.95057 0.37584 0.0
H2266 H 0.27222 0.9846 0.39033 0.0
H2267 H 0.21505 0.00882 0.37338 0.0
C2268 C 0.22696 0.03492 0.37893 0.0
C2269 C 0.24243 0.04439 0.38491 0.0
C2270 C 0.25988 0.97721 0.38709 0.0
C2271 C 0.24297 0.00643 0.38277 0.0
C2272 C 0.26012 0.95832 0.38776 0.0
C2273 C 0.24434 0.94831 0.38388 0.0
C2274 C 0.24373 0.98628 0.38256 0.0
C2275 C 0.22855 0.9578 0.37898 0.0
C2276 C 0.22716 0.01594 0.37787 0.0
C2277 C 0.25798 0.03439 0.38947 0.0
N2278 N 0.2286 0.9763 0.37854 0.0
N2279 N 0.25783 0.016 0.38833 0.0
H2280 H 0.03921 0.27165 0.40368 0.0
H2281 H 0.94906 0.21686 0.37595 0.0
H2282 H 0.04046 0.21911 0.3776 0.0
H2283 H 0.94927 0.26923 0.40242 0.0
H2284 H 0.98242 0.21718 0.37611 0.0
H2285 H 0.00611 0.2708 0.40304 0.0
C2286 C 0.0325 0.25992 0.3978 0.0
C2287 C 0.04259 0.24543 0.39069 0.0
C2288 C 0.97514 0.22859 0.38187 0.0
C2289 C 0.00459 0.24433 0.3899 0.0
C2290 C 0.95612 0.22841 0.38178 0.0
C2291 C 0.94641 0.24304 0.38919 0.0
C2292 C 0.98444 0.24351 0.38942 0.0
C2293 C 0.95621 0.25766 0.39657 0.0
C2294 C 0.01357 0.25943 0.39744 0.0
C2295 C 0.03316 0.23057 0.38324 0.0
N2296 N 0.97465 0.25752 0.3965 0.0
N2297 N 0.01467 0.23039 0.38304 0.0
H2298 H 0.26892 0.03845 0.59096 0.0
H2299 H 0.21503 0.94669 0.61429 0.0
H2300 H 0.21467 0.0383 0.6133 0.0
H2301 H 0.27013 0.94885 0.59425 0.0
H2302 H 0.21435 0.98006 0.61462 0.0
H2303 H 0.26932 0.00544 0.59249 0.0
C2304 C 0.25706 0.03144 0.5962 0.0
C2305 C 0.24172 0.04112 0.60197 0.0
C2306 C 0.22659 0.9732 0.61022 0.0
C2307 C 0.24206 0.00317 0.60377 0.0
C2308 C 0.22699 0.95419 0.61005 0.0
C2309 C 0.24264 0.94502 0.60418 0.0
C2310 C 0.24195 0.98303 0.60446 0.0
C2311 C 0.25775 0.95535 0.59883 0.0
C2312 C 0.2573 0.01256 0.5971 0.0
C2313 C 0.22677 0.03132 0.60868 0.0
N2314 N 0.257 0.97375 0.59905 0.0
N2315 N 0.22728 0.01284 0.60937 0.0
H2316 H 0.94831 0.21547 0.6137 0.0
H2317 H 0.03948 0.27019 0.58963 0.0
H2318 H 0.94941 0.26851 0.58875 0.0
H2319 H 0.03966 0.217 0.61427 0.0
H2320 H 0.00635 0.26974 0.58968 0.0
H2321 H 0.98164 0.21565 0.61451 0.0
C2322 C 0.95557 0.22714 0.60842 0.0
C2323 C 0.94611 0.24199 0.60114 0.0
C2324 C 0.01359 0.25814 0.5951 0.0
C2325 C 0.98414 0.2423 0.602 0.0
C2326 C 0.03252 0.2584 0.59508 0.0
C2327 C 0.04232 0.2436 0.60194 0.0
C2328 C 0.0043 0.24296 0.60203 0.0
C2329 C 0.0326 0.22869 0.60884 0.0
C2330 C 0.97457 0.22724 0.60887 0.0
C2331 C 0.95616 0.25677 0.59448 0.0
N2332 N 0.0141 0.22874 0.60869 0.0
N2333 N 0.9746 0.25653 0.59506 0.0
H2334 H 0.03875 0.77294 0.61369 0.0
H2335 H 0.94696 0.71543 0.60172 0.0
H2336 H 0.03668 0.71572 0.60089 0.0
H2337 H 0.94729 0.77289 0.61351 0.0
H2338 H 0.97998 0.71515 0.60378 0.0
H2339 H 0.00545 0.77312 0.61602 0.0
C2340 C 0.0313 0.76041 0.61149 0.0
C2341 C 0.04045 0.74432 0.60697 0.0
C2342 C 0.97289 0.72784 0.60601 0.0
C2343 C 0.00251 0.74442 0.60958 0.0
C2344 C 0.954 0.728 0.60483 0.0
C2345 C 0.94438 0.74424 0.60732 0.0
C2346 C 0.98233 0.74407 0.60961 0.0
C2347 C 0.95422 0.76009 0.61144 0.0
C2348 C 0.01232 0.76052 0.6128 0.0
C2349 C 0.03018 0.72846 0.60429 0.0
N2350 N 0.9727 0.75965 0.61234 0.0
N2351 N 0.01179 0.72894 0.60556 0.0
loop_
_geom_bond_atom_site_label_1
_geom_bond_atom_site_label_2
_geom_bond_distance
_geom_bond_site_symmetry_2
_ccdc_geom_bond_type
In0 O1 2.294 . S
In0 O2 2.326 . S
In0 O6 2.266 . S
In0 O7 2.326 . S
In0 O8 2.266 . S
In0 O9 2.326 . S
In0 O11 2.294 . S
In0 O12 2.326 . S
O1 In0 2.294 . S
O1 C10 1.240 . S
O2 In0 2.326 . S
O2 C10 1.252 . S
C3 O6 1.252 . S
C3 O7 1.260 . S
C4 O11 1.240 . S
C4 O12 1.252 . S
C5 O8 1.252 . S
C5 O9 1.260 . S
O6 In0 2.266 . S
O6 C3 1.252 . S
O7 In0 2.326 . S
O7 C3 1.260 . S
O8 In0 2.266 . S
O8 C5 1.252 . S
O9 In0 2.326 . S
O9 C5 1.260 . S
C10 O1 1.240 . S
C10 O2 1.252 . S
O11 In0 2.294 . S
O11 C4 1.240 . S
O12 In0 2.326 . S
O12 C4 1.252 . S
In13 O14 2.294 . S
In13 O15 2.326 . S
In13 O19 2.266 . S
In13 O20 2.326 . S
In13 O21 2.266 . S
In13 O22 2.326 . S
In13 O24 2.294 . S
In13 O25 2.326 . S
O14 In13 2.294 . S
O14 C23 1.240 . S
O15 In13 2.326 . S
O15 C23 1.252 . S
C16 O19 1.252 . S
C16 O20 1.260 . S
C17 O24 1.240 . S
C17 O25 1.252 . S
C18 O21 1.252 . S
C18 O22 1.260 . S
O19 In13 2.266 . S
O19 C16 1.252 . S
O20 In13 2.326 . S
O20 C16 1.260 . S
O21 In13 2.266 . S
O21 C18 1.252 . S
O22 In13 2.326 . S
O22 C18 1.260 . S
C23 O14 1.240 . S
C23 O15 1.252 . S
O24 In13 2.294 . S
O24 C17 1.240 . S
O25 In13 2.326 . S
O25 C17 1.252 . S
In26 O27 2.294 . S
In26 O28 2.326 . S
In26 O32 2.266 . S
In26 O33 2.326 . S
In26 O34 2.266 . S
In26 O35 2.326 . S
In26 O37 2.294 . S
In26 O38 2.326 . S
O27 In26 2.294 . S
O27 C36 1.240 . S
O28 In26 2.326 . S
O28 C36 1.252 . S
C29 O32 1.252 . S
C29 O33 1.260 . S
C30 O37 1.240 . S
C30 O38 1.252 . S
C31 O34 1.252 . S
C31 O35 1.260 . S
O32 In26 2.266 . S
O32 C29 1.252 . S
O33 In26 2.326 . S
O33 C29 1.260 . S
O34 In26 2.266 . S
O34 C31 1.252 . S
O35 In26 2.326 . S
O35 C31 1.260 . S
C36 O27 1.240 . S
C36 O28 1.252 . S
O37 In26 2.294 . S
O37 C30 1.240 . S
O38 In26 2.326 . S
O38 C30 1.252 . S
In39 O40 2.294 . S
In39 O41 2.326 . S
In39 O45 2.266 . S
In39 O46 2.326 . S
In39 O47 2.266 . S
In39 O48 2.326 . S
In39 O50 2.294 . S
In39 O51 2.326 . S
O40 In39 2.294 . S
O40 C49 1.240 . S
O41 In39 2.326 . S
O41 C49 1.252 . S
C42 O45 1.252 . S
C42 O46 1.260 . S
C43 O50 1.240 . S
C43 O51 1.252 . S
C44 O47 1.252 . S
C44 O48 1.260 . S
O45 In39 2.266 . S
O45 C42 1.252 . S
O46 In39 2.326 . S
O46 C42 1.260 . S
O47 In39 2.266 . S
O47 C44 1.252 . S
O48 In39 2.326 . S
O48 C44 1.260 . S
C49 O40 1.240 . S
C49 O41 1.252 . S
O50 In39 2.294 . S
O50 C43 1.240 . S
O51 In39 2.326 . S
O51 C43 1.252 . S
In52 O53 2.294 . S
In52 O54 2.326 . S
In52 O58 2.266 . S
In52 O59 2.326 . S
In52 O60 2.266 . S
In52 O61 2.326 . S
In52 O63 2.294 . S
In52 O64 2.326 . S
O53 In52 2.294 . S
O53 C62 1.240 . S
O54 In52 2.326 . S
O54 C62 1.252 . S
C55 O58 1.252 . S
C55 O59 1.260 . S
C56 O63 1.240 . S
C56 O64 1.252 . S
C57 O60 1.252 . S
C57 O61 1.260 . S
O58 In52 2.266 . S
O58 C55 1.252 . S
O59 In52 2.326 . S
O59 C55 1.260 . S
O60 In52 2.266 . S
O60 C57 1.252 . S
O61 In52 2.326 . S
O61 C57 1.260 . S
C62 O53 1.240 . S
C62 O54 1.252 . S
O63 In52 2.294 . S
O63 C56 1.240 . S
O64 In52 2.326 . S
O64 C56 1.252 . S
In65 O66 2.294 . S
In65 O67 2.326 . S
In65 O71 2.266 . S
In65 O72 2.326 . S
In65 O73 2.266 . S
In65 O74 2.326 . S
In65 O76 2.294 . S
In65 O77 2.326 . S
O66 In65 2.294 . S
O66 C75 1.240 . S
O67 In65 2.326 . S
O67 C75 1.252 . S
C68 O71 1.252 . S
C68 O72 1.260 . S
C69 O76 1.240 . S
C69 O77 1.252 . S
C70 O73 1.252 . S
C70 O74 1.260 . S
O71 In65 2.266 . S
O71 C68 1.252 . S
O72 In65 2.326 . S
O72 C68 1.260 . S
O73 In65 2.266 . S
O73 C70 1.252 . S
O74 In65 2.326 . S
O74 C70 1.260 . S
C75 O66 1.240 . S
C75 O67 1.252 . S
O76 In65 2.294 . S
O76 C69 1.240 . S
O77 In65 2.326 . S
O77 C69 1.252 . S
In78 O79 2.294 . S
In78 O80 2.326 . S
In78 O84 2.266 . S
In78 O85 2.326 . S
In78 O86 2.266 . S
In78 O87 2.326 . S
In78 O89 2.294 . S
In78 O90 2.326 . S
O79 In78 2.294 . S
O79 C88 1.240 . S
O80 In78 2.326 . S
O80 C88 1.252 . S
C81 O84 1.252 . S
C81 O85 1.260 . S
C82 O89 1.240 . S
C82 O90 1.252 . S
C83 O86 1.252 . S
C83 O87 1.260 . S
O84 In78 2.266 . S
O84 C81 1.252 . S
O85 In78 2.326 . S
O85 C81 1.260 . S
O86 In78 2.266 . S
O86 C83 1.252 . S
O87 In78 2.326 . S
O87 C83 1.260 . S
C88 O79 1.240 . S
C88 O80 1.252 . S
O89 In78 2.294 . S
O89 C82 1.240 . S
O90 In78 2.326 . S
O90 C82 1.252 . S
In91 O92 2.294 . S
In91 O93 2.326 . S
In91 O97 2.266 . S
In91 O98 2.326 . S
In91 O99 2.266 . S
In91 O100 2.326 . S
In91 O102 2.294 . S
In91 O103 2.326 . S
O92 In91 2.294 . S
O92 C101 1.240 . S
O93 In91 2.326 . S
O93 C101 1.252 . S
C94 O97 1.252 . S
C94 O98 1.260 . S
C95 O102 1.240 . S
C95 O103 1.252 . S
C96 O99 1.252 . S
C96 O100 1.260 . S
O97 In91 2.266 . S
O97 C94 1.252 . S
O98 In91 2.326 . S
O98 C94 1.260 . S
O99 In91 2.266 . S
O99 C96 1.252 . S
O100 In91 2.326 . S
O100 C96 1.260 . S
C101 O92 1.240 . S
C101 O93 1.252 . S
O102 In91 2.294 . S
O102 C95 1.240 . S
O103 In91 2.326 . S
O103 C95 1.252 . S
In104 O105 2.294 . S
In104 O106 2.326 . S
In104 O110 2.266 . S
In104 O111 2.326 . S
In104 O112 2.266 . S
In104 O113 2.326 . S
In104 O115 2.294 . S
In104 O116 2.326 . S
O105 In104 2.294 . S
O105 C114 1.240 . S
O106 In104 2.326 . S
O106 C114 1.252 . S
C107 O110 1.252 . S
C107 O111 1.260 . S
C108 O115 1.240 . S
C108 O116 1.252 . S
C109 O112 1.252 . S
C109 O113 1.260 . S
O110 In104 2.266 . S
O110 C107 1.252 . S
O111 In104 2.326 . S
O111 C107 1.260 . S
O112 In104 2.266 . S
O112 C109 1.252 . S
O113 In104 2.326 . S
O113 C109 1.260 . S
C114 O105 1.240 . S
C114 O106 1.252 . S
O115 In104 2.294 . S
O115 C108 1.240 . S
O116 In104 2.326 . S
O116 C108 1.252 . S
In117 O118 2.294 . S
In117 O119 2.326 . S
In117 O123 2.266 . S
In117 O124 2.326 . S
In117 O125 2.266 . S
In117 O126 2.326 . S
In117 O128 2.294 . S
In117 O129 2.326 . S
O118 In117 2.294 . S
O118 C127 1.240 . S
O119 In117 2.326 . S
O119 C127 1.252 . S
C120 O123 1.252 . S
C120 O124 1.260 . S
C121 O128 1.240 . S
C121 O129 1.252 . S
C122 O125 1.252 . S
C122 O126 1.260 . S
O123 In117 2.266 . S
O123 C120 1.252 . S
O124 In117 2.326 . S
O124 C120 1.260 . S
O125 In117 2.266 . S
O125 C122 1.252 . S
O126 In117 2.326 . S
O126 C122 1.260 . S
C127 O118 1.240 . S
C127 O119 1.252 . S
O128 In117 2.294 . S
O128 C121 1.240 . S
O129 In117 2.326 . S
O129 C121 1.252 . S
In130 O131 2.294 . S
In130 O132 2.326 . S
In130 O136 2.266 . S
In130 O137 2.326 . S
In130 O138 2.266 . S
In130 O139 2.326 . S
In130 O141 2.294 . S
In130 O142 2.326 . S
O131 In130 2.294 . S
O131 C140 1.240 . S
O132 In130 2.326 . S
O132 C140 1.252 . S
C133 O136 1.252 . S
C133 O137 1.260 . S
C134 O141 1.240 . S
C134 O142 1.252 . S
C135 O138 1.252 . S
C135 O139 1.260 . S
O136 In130 2.266 . S
O136 C133 1.252 . S
O137 In130 2.326 . S
O137 C133 1.260 . S
O138 In130 2.266 . S
O138 C135 1.252 . S
O139 In130 2.326 . S
O139 C135 1.260 . S
C140 O131 1.240 . S
C140 O132 1.252 . S
O141 In130 2.294 . S
O141 C134 1.240 . S
O142 In130 2.326 . S
O142 C134 1.252 . S
In143 O144 2.294 . S
In143 O145 2.326 . S
In143 O149 2.266 . S
In143 O150 2.326 . S
In143 O151 2.266 . S
In143 O152 2.326 . S
In143 O154 2.294 . S
In143 O155 2.326 . S
O144 In143 2.294 . S
O144 C153 1.240 . S
O145 In143 2.326 . S
O145 C153 1.252 . S
C146 O149 1.252 . S
C146 O150 1.260 . S
C147 O154 1.240 . S
C147 O155 1.252 . S
C148 O151 1.252 . S
C148 O152 1.260 . S
O149 In143 2.266 . S
O149 C146 1.252 . S
O150 In143 2.326 . S
O150 C146 1.260 . S
O151 In143 2.266 . S
O151 C148 1.252 . S
O152 In143 2.326 . S
O152 C148 1.260 . S
C153 O144 1.240 . S
C153 O145 1.252 . S
O154 In143 2.294 . S
O154 C147 1.240 . S
O155 In143 2.326 . S
O155 C147 1.252 . S
In156 O157 2.294 . S
In156 O158 2.326 . S
In156 O162 2.266 . S
In156 O163 2.326 . S
In156 O164 2.266 . S
In156 O165 2.326 . S
In156 O167 2.294 . S
In156 O168 2.326 . S
O157 In156 2.294 . S
O157 C166 1.240 . S
O158 In156 2.326 . S
O158 C166 1.252 . S
C159 O162 1.252 . S
C159 O163 1.260 . S
C160 O167 1.240 . S
C160 O168 1.252 . S
C161 O164 1.252 . S
C161 O165 1.260 . S
O162 In156 2.266 . S
O162 C159 1.252 . S
O163 In156 2.326 . S
O163 C159 1.260 . S
O164 In156 2.266 . S
O164 C161 1.252 . S
O165 In156 2.326 . S
O165 C161 1.260 . S
C166 O157 1.240 . S
C166 O158 1.252 . S
O167 In156 2.294 . S
O167 C160 1.240 . S
O168 In156 2.326 . S
O168 C160 1.252 . S
In169 O170 2.294 . S
In169 O171 2.326 . S
In169 O175 2.266 . S
In169 O176 2.326 . S
In169 O177 2.266 . S
In169 O178 2.326 . S
In169 O180 2.294 . S
In169 O181 2.326 . S
O170 In169 2.294 . S
O170 C179 1.240 . S
O171 In169 2.326 . S
O171 C179 1.252 . S
C172 O175 1.252 . S
C172 O176 1.260 . S
C173 O180 1.240 . S
C173 O181 1.252 . S
C174 O177 1.252 . S
C174 O178 1.260 . S
O175 In169 2.266 . S
O175 C172 1.252 . S
O176 In169 2.326 . S
O176 C172 1.260 . S
O177 In169 2.266 . S
O177 C174 1.252 . S
O178 In169 2.326 . S
O178 C174 1.260 . S
C179 O170 1.240 . S
C179 O171 1.252 . S
O180 In169 2.294 . S
O180 C173 1.240 . S
O181 In169 2.326 . S
O181 C173 1.252 . S
In182 O183 2.294 . S
In182 O184 2.326 . S
In182 O188 2.266 . S
In182 O189 2.326 . S
In182 O190 2.266 . S
In182 O191 2.326 . S
In182 O193 2.294 . S
In182 O194 2.326 . S
O183 In182 2.294 . S
O183 C192 1.240 . S
O184 In182 2.326 . S
O184 C192 1.252 . S
C185 O188 1.252 . S
C185 O189 1.260 . S
C186 O193 1.240 . S
C186 O194 1.252 . S
C187 O190 1.252 . S
C187 O191 1.260 . S
O188 In182 2.266 . S
O188 C185 1.252 . S
O189 In182 2.326 . S
O189 C185 1.260 . S
O190 In182 2.266 . S
O190 C187 1.252 . S
O191 In182 2.326 . S
O191 C187 1.260 . S
C192 O183 1.240 . S
C192 O184 1.252 . S
O193 In182 2.294 . S
O193 C186 1.240 . S
O194 In182 2.326 . S
O194 C186 1.252 . S
In195 O196 2.294 . S
In195 O197 2.326 . S
In195 O201 2.266 . S
In195 O202 2.326 . S
In195 O203 2.266 . S
In195 O204 2.326 . S
In195 O206 2.294 . S
In195 O207 2.326 . S
O196 In195 2.294 . S
O196 C205 1.240 . S
O197 In195 2.326 . S
O197 C205 1.252 . S
C198 O201 1.252 . S
C198 O202 1.260 . S
C199 O206 1.240 . S
C199 O207 1.252 . S
C200 O203 1.252 . S
C200 O204 1.260 . S
O201 In195 2.266 . S
O201 C198 1.252 . S
O202 In195 2.326 . S
O202 C198 1.260 . S
O203 In195 2.266 . S
O203 C200 1.252 . S
O204 In195 2.326 . S
O204 C200 1.260 . S
C205 O196 1.240 . S
C205 O197 1.252 . S
O206 In195 2.294 . S
O206 C199 1.240 . S
O207 In195 2.326 . S
O207 C199 1.252 . S
In208 O209 2.294 . S
In208 O210 2.326 . S
In208 O214 2.266 . S
In208 O215 2.326 . S
In208 O216 2.266 . S
In208 O217 2.326 . S
In208 O219 2.294 . S
In208 O220 2.326 . S
O209 In208 2.294 . S
O209 C218 1.240 . S
O210 In208 2.326 . S
O210 C218 1.252 . S
C211 O214 1.252 . S
C211 O215 1.260 . S
C212 O219 1.240 . S
C212 O220 1.252 . S
C213 O216 1.252 . S
C213 O217 1.260 . S
O214 In208 2.266 . S
O214 C211 1.252 . S
O215 In208 2.326 . S
O215 C211 1.260 . S
O216 In208 2.266 . S
O216 C213 1.252 . S
O217 In208 2.326 . S
O217 C213 1.260 . S
C218 O209 1.240 . S
C218 O210 1.252 . S
O219 In208 2.294 . S
O219 C212 1.240 . S
O220 In208 2.326 . S
O220 C212 1.252 . S
In221 O222 2.294 . S
In221 O223 2.326 . S
In221 O227 2.266 . S
In221 O228 2.326 . S
In221 O229 2.266 . S
In221 O230 2.326 . S
In221 O232 2.294 . S
In221 O233 2.326 . S
O222 In221 2.294 . S
O222 C231 1.240 . S
O223 In221 2.326 . S
O223 C231 1.252 . S
C224 O227 1.252 . S
C224 O228 1.260 . S
C225 O232 1.240 . S
C225 O233 1.252 . S
C226 O229 1.252 . S
C226 O230 1.260 . S
O227 In221 2.266 . S
O227 C224 1.252 . S
O228 In221 2.326 . S
O228 C224 1.260 . S
O229 In221 2.266 . S
O229 C226 1.252 . S
O230 In221 2.326 . S
O230 C226 1.260 . S
C231 O222 1.240 . S
C231 O223 1.252 . S
O232 In221 2.294 . S
O232 C225 1.240 . S
O233 In221 2.326 . S
O233 C225 1.252 . S
In234 O235 2.294 . S
In234 O236 2.326 . S
In234 O240 2.266 . S
In234 O241 2.326 . S
In234 O242 2.266 . S
In234 O243 2.326 . S
In234 O245 2.294 . S
In234 O246 2.326 . S
O235 In234 2.294 . S
O235 C244 1.240 . S
O236 In234 2.326 . S
O236 C244 1.252 . S
C237 O240 1.252 . S
C237 O241 1.260 . S
C238 O245 1.240 . S
C238 O246 1.252 . S
C239 O242 1.252 . S
C239 O243 1.260 . S
O240 In234 2.266 . S
O240 C237 1.252 . S
O241 In234 2.326 . S
O241 C237 1.260 . S
O242 In234 2.266 . S
O242 C239 1.252 . S
O243 In234 2.326 . S
O243 C239 1.260 . S
C244 O235 1.240 . S
C244 O236 1.252 . S
O245 In234 2.294 . S
O245 C238 1.240 . S
O246 In234 2.326 . S
O246 C238 1.252 . S
In247 O248 2.294 . S
In247 O249 2.326 . S
In247 O253 2.266 . S
In247 O254 2.326 . S
In247 O255 2.266 . S
In247 O256 2.326 . S
In247 O258 2.294 . S
In247 O259 2.326 . S
O248 In247 2.294 . S
O248 C257 1.240 . S
O249 In247 2.326 . S
O249 C257 1.252 . S
C250 O253 1.252 . S
C250 O254 1.260 . S
C251 O258 1.240 . S
C251 O259 1.252 . S
C252 O255 1.252 . S
C252 O256 1.260 . S
O253 In247 2.266 . S
O253 C250 1.252 . S
O254 In247 2.326 . S
O254 C250 1.260 . S
O255 In247 2.266 . S
O255 C252 1.252 . S
O256 In247 2.326 . S
O256 C252 1.260 . S
C257 O248 1.240 . S
C257 O249 1.252 . S
O258 In247 2.294 . S
O258 C251 1.240 . S
O259 In247 2.326 . S
O259 C251 1.252 . S
In260 O261 2.294 . S
In260 O262 2.326 . S
In260 O266 2.266 . S
In260 O267 2.326 . S
In260 O268 2.266 . S
In260 O269 2.326 . S
In260 O271 2.294 . S
In260 O272 2.326 . S
O261 In260 2.294 . S
O261 C270 1.240 . S
O262 In260 2.326 . S
O262 C270 1.252 . S
C263 O266 1.252 . S
C263 O267 1.260 . S
C264 O271 1.240 . S
C264 O272 1.252 . S
C265 O268 1.252 . S
C265 O269 1.260 . S
O266 In260 2.266 . S
O266 C263 1.252 . S
O267 In260 2.326 . S
O267 C263 1.260 . S
O268 In260 2.266 . S
O268 C265 1.252 . S
O269 In260 2.326 . S
O269 C265 1.260 . S
C270 O261 1.240 . S
C270 O262 1.252 . S
O271 In260 2.294 . S
O271 C264 1.240 . S
O272 In260 2.326 . S
O272 C264 1.252 . S
In273 O274 2.294 . S
In273 O275 2.326 . S
In273 O279 2.266 . S
In273 O280 2.326 . S
In273 O281 2.266 . S
In273 O282 2.326 . S
In273 O284 2.294 . S
In273 O285 2.326 . S
O274 In273 2.294 . S
O274 C283 1.240 . S
O275 In273 2.326 . S
O275 C283 1.252 . S
C276 O279 1.252 . S
C276 O280 1.260 . S
C277 O284 1.240 . S
C277 O285 1.252 . S
C278 O281 1.252 . S
C278 O282 1.260 . S
O279 In273 2.266 . S
O279 C276 1.252 . S
O280 In273 2.326 . S
O280 C276 1.260 . S
O281 In273 2.266 . S
O281 C278 1.252 . S
O282 In273 2.326 . S
O282 C278 1.260 . S
C283 O274 1.240 . S
C283 O275 1.252 . S
O284 In273 2.294 . S
O284 C277 1.240 . S
O285 In273 2.326 . S
O285 C277 1.252 . S
In286 O287 2.294 . S
In286 O288 2.326 . S
In286 O292 2.266 . S
In286 O293 2.326 . S
In286 O294 2.266 . S
In286 O295 2.326 . S
In286 O297 2.294 . S
In286 O298 2.326 . S
O287 In286 2.294 . S
O287 C296 1.240 . S
O288 In286 2.326 . S
O288 C296 1.252 . S
C289 O292 1.252 . S
C289 O293 1.260 . S
C290 O297 1.240 . S
C290 O298 1.252 . S
C291 O294 1.252 . S
C291 O295 1.260 . S
O292 In286 2.266 . S
O292 C289 1.252 . S
O293 In286 2.326 . S
O293 C289 1.260 . S
O294 In286 2.266 . S
O294 C291 1.252 . S
O295 In286 2.326 . S
O295 C291 1.260 . S
C296 O287 1.240 . S
C296 O288 1.252 . S
O297 In286 2.294 . S
O297 C290 1.240 . S
O298 In286 2.326 . S
O298 C290 1.252 . S
In299 O300 2.294 . S
In299 O301 2.326 . S
In299 O305 2.266 . S
In299 O306 2.326 . S
In299 O307 2.266 . S
In299 O308 2.326 . S
In299 O310 2.294 . S
In299 O311 2.326 . S
O300 In299 2.294 . S
O300 C309 1.240 . S
O301 In299 2.326 . S
O301 C309 1.252 . S
C302 O305 1.252 . S
C302 O306 1.260 . S
C303 O310 1.240 . S
C303 O311 1.252 . S
C304 O307 1.252 . S
C304 O308 1.260 . S
O305 In299 2.266 . S
O305 C302 1.252 . S
O306 In299 2.326 . S
O306 C302 1.260 . S
O307 In299 2.266 . S
O307 C304 1.252 . S
O308 In299 2.326 . S
O308 C304 1.260 . S
C309 O300 1.240 . S
C309 O301 1.252 . S
O310 In299 2.294 . S
O310 C303 1.240 . S
O311 In299 2.326 . S
O311 C303 1.252 . S
In312 O313 2.294 . S
In312 O314 2.326 . S
In312 O318 2.266 . S
In312 O319 2.326 . S
In312 O320 2.266 . S
In312 O321 2.326 . S
In312 O323 2.294 . S
In312 O324 2.326 . S
O313 In312 2.294 . S
O313 C322 1.240 . S
O314 In312 2.326 . S
O314 C322 1.252 . S
C315 O318 1.252 . S
C315 O319 1.260 . S
C316 O323 1.240 . S
C316 O324 1.252 . S
C317 O320 1.252 . S
C317 O321 1.260 . S
O318 In312 2.266 . S
O318 C315 1.252 . S
O319 In312 2.326 . S
O319 C315 1.260 . S
O320 In312 2.266 . S
O320 C317 1.252 . S
O321 In312 2.326 . S
O321 C317 1.260 . S
C322 O313 1.240 . S
C322 O314 1.252 . S
O323 In312 2.294 . S
O323 C316 1.240 . S
O324 In312 2.326 . S
O324 C316 1.252 . S
In325 O326 2.294 . S
In325 O327 2.326 . S
In325 O331 2.266 . S
In325 O332 2.326 . S
In325 O333 2.266 . S
In325 O334 2.326 . S
In325 O336 2.294 . S
In325 O337 2.326 . S
O326 In325 2.294 . S
O326 C335 1.240 . S
O327 In325 2.326 . S
O327 C335 1.252 . S
C328 O331 1.252 . S
C328 O332 1.260 . S
C329 O336 1.240 . S
C329 O337 1.252 . S
C330 O333 1.252 . S
C330 O334 1.260 . S
O331 In325 2.266 . S
O331 C328 1.252 . S
O332 In325 2.326 . S
O332 C328 1.260 . S
O333 In325 2.266 . S
O333 C330 1.252 . S
O334 In325 2.326 . S
O334 C330 1.260 . S
C335 O326 1.240 . S
C335 O327 1.252 . S
O336 In325 2.294 . S
O336 C329 1.240 . S
O337 In325 2.326 . S
O337 C329 1.252 . S
In338 O339 2.294 . S
In338 O340 2.326 . S
In338 O344 2.266 . S
In338 O345 2.326 . S
In338 O346 2.266 . S
In338 O347 2.326 . S
In338 O349 2.294 . S
In338 O350 2.326 . S
O339 In338 2.294 . S
O339 C348 1.240 . S
O340 In338 2.326 . S
O340 C348 1.252 . S
C341 O344 1.252 . S
C341 O345 1.260 . S
C342 O349 1.240 . S
C342 O350 1.252 . S
C343 O346 1.252 . S
C343 O347 1.260 . S
O344 In338 2.266 . S
O344 C341 1.252 . S
O345 In338 2.326 . S
O345 C341 1.260 . S
O346 In338 2.266 . S
O346 C343 1.252 . S
O347 In338 2.326 . S
O347 C343 1.260 . S
C348 O339 1.240 . S
C348 O340 1.252 . S
O349 In338 2.294 . S
O349 C342 1.240 . S
O350 In338 2.326 . S
O350 C342 1.252 . S
In351 O352 2.294 . S
In351 O353 2.326 . S
In351 O357 2.266 . S
In351 O358 2.326 . S
In351 O359 2.266 . S
In351 O360 2.326 . S
In351 O362 2.294 . S
In351 O363 2.326 . S
O352 In351 2.294 . S
O352 C361 1.240 . S
O353 In351 2.326 . S
O353 C361 1.252 . S
C354 O357 1.252 . S
C354 O358 1.260 . S
C355 O362 1.240 . S
C355 O363 1.252 . S
C356 O359 1.252 . S
C356 O360 1.260 . S
O357 In351 2.266 . S
O357 C354 1.252 . S
O358 In351 2.326 . S
O358 C354 1.260 . S
O359 In351 2.266 . S
O359 C356 1.252 . S
O360 In351 2.326 . S
O360 C356 1.260 . S
C361 O352 1.240 . S
C361 O353 1.252 . S
O362 In351 2.294 . S
O362 C355 1.240 . S
O363 In351 2.326 . S
O363 C355 1.252 . S
In364 O365 2.294 . S
In364 O366 2.326 . S
In364 O370 2.266 . S
In364 O371 2.326 . S
In364 O372 2.266 . S
In364 O373 2.326 . S
In364 O375 2.294 . S
In364 O376 2.326 . S
O365 In364 2.294 . S
O365 C374 1.240 . S
O366 In364 2.326 . S
O366 C374 1.252 . S
C367 O370 1.252 . S
C367 O371 1.260 . S
C368 O375 1.240 . S
C368 O376 1.252 . S
C369 O372 1.252 . S
C369 O373 1.260 . S
O370 In364 2.266 . S
O370 C367 1.252 . S
O371 In364 2.326 . S
O371 C367 1.260 . S
O372 In364 2.266 . S
O372 C369 1.252 . S
O373 In364 2.326 . S
O373 C369 1.260 . S
C374 O365 1.240 . S
C374 O366 1.252 . S
O375 In364 2.294 . S
O375 C368 1.240 . S
O376 In364 2.326 . S
O376 C368 1.252 . S
In377 O378 2.294 . S
In377 O379 2.326 . S
In377 O383 2.266 . S
In377 O384 2.326 . S
In377 O385 2.266 . S
In377 O386 2.326 . S
In377 O388 2.294 . S
In377 O389 2.326 . S
O378 In377 2.294 . S
O378 C387 1.240 . S
O379 In377 2.326 . S
O379 C387 1.252 . S
C380 O383 1.252 . S
C380 O384 1.260 . S
C381 O388 1.240 . S
C381 O389 1.252 . S
C382 O385 1.252 . S
C382 O386 1.260 . S
O383 In377 2.266 . S
O383 C380 1.252 . S
O384 In377 2.326 . S
O384 C380 1.260 . S
O385 In377 2.266 . S
O385 C382 1.252 . S
O386 In377 2.326 . S
O386 C382 1.260 . S
C387 O378 1.240 . S
C387 O379 1.252 . S
O388 In377 2.294 . S
O388 C381 1.240 . S
O389 In377 2.326 . S
O389 C381 1.252 . S
In390 O391 2.294 . S
In390 O392 2.326 . S
In390 O396 2.266 . S
In390 O397 2.326 . S
In390 O398 2.266 . S
In390 O399 2.326 . S
In390 O401 2.294 . S
In390 O402 2.326 . S
O391 In390 2.294 . S
O391 C400 1.240 . S
O392 In390 2.326 . S
O392 C400 1.252 . S
C393 O396 1.252 . S
C393 O397 1.260 . S
C394 O401 1.240 . S
C394 O402 1.252 . S
C395 O398 1.252 . S
C395 O399 1.260 . S
O396 In390 2.266 . S
O396 C393 1.252 . S
O397 In390 2.326 . S
O397 C393 1.260 . S
O398 In390 2.266 . S
O398 C395 1.252 . S
O399 In390 2.326 . S
O399 C395 1.260 . S
C400 O391 1.240 . S
C400 O392 1.252 . S
O401 In390 2.294 . S
O401 C394 1.240 . S
O402 In390 2.326 . S
O402 C394 1.252 . S
In403 O404 2.294 . S
In403 O405 2.326 . S
In403 O409 2.266 . S
In403 O410 2.326 . S
In403 O411 2.266 . S
In403 O412 2.326 . S
In403 O414 2.294 . S
In403 O415 2.326 . S
O404 In403 2.294 . S
O404 C413 1.240 . S
O405 In403 2.326 . S
O405 C413 1.252 . S
C406 O409 1.252 . S
C406 O410 1.260 . S
C407 O414 1.240 . S
C407 O415 1.252 . S
C408 O411 1.252 . S
C408 O412 1.260 . S
O409 In403 2.266 . S
O409 C406 1.252 . S
O410 In403 2.326 . S
O410 C406 1.260 . S
O411 In403 2.266 . S
O411 C408 1.252 . S
O412 In403 2.326 . S
O412 C408 1.260 . S
C413 O404 1.240 . S
C413 O405 1.252 . S
O414 In403 2.294 . S
O414 C407 1.240 . S
O415 In403 2.326 . S
O415 C407 1.252 . S
In416 O417 2.294 . S
In416 O418 2.326 . S
In416 O422 2.266 . S
In416 O423 2.326 . S
In416 O424 2.266 . S
In416 O425 2.326 . S
In416 O427 2.294 . S
In416 O428 2.326 . S
O417 In416 2.294 . S
O417 C426 1.240 . S
O418 In416 2.326 . S
O418 C426 1.252 . S
C419 O422 1.252 . S
C419 O423 1.260 . S
C420 O427 1.240 . S
C420 O428 1.252 . S
C421 O424 1.252 . S
C421 O425 1.260 . S
O422 In416 2.266 . S
O422 C419 1.252 . S
O423 In416 2.326 . S
O423 C419 1.260 . S
O424 In416 2.266 . S
O424 C421 1.252 . S
O425 In416 2.326 . S
O425 C421 1.260 . S
C426 O417 1.240 . S
C426 O418 1.252 . S
O427 In416 2.294 . S
O427 C420 1.240 . S
O428 In416 2.326 . S
O428 C420 1.252 . S
In429 O430 2.294 . S
In429 O431 2.326 . S
In429 O435 2.266 . S
In429 O436 2.326 . S
In429 O437 2.266 . S
In429 O438 2.326 . S
In429 O440 2.294 . S
In429 O441 2.326 . S
O430 In429 2.294 . S
O430 C439 1.240 . S
O431 In429 2.326 . S
O431 C439 1.252 . S
C432 O435 1.252 . S
C432 O436 1.260 . S
C433 O440 1.240 . S
C433 O441 1.252 . S
C434 O437 1.252 . S
C434 O438 1.260 . S
O435 In429 2.266 . S
O435 C432 1.252 . S
O436 In429 2.326 . S
O436 C432 1.260 . S
O437 In429 2.266 . S
O437 C434 1.252 . S
O438 In429 2.326 . S
O438 C434 1.260 . S
C439 O430 1.240 . S
C439 O431 1.252 . S
O440 In429 2.294 . S
O440 C433 1.240 . S
O441 In429 2.326 . S
O441 C433 1.252 . S
In442 O443 2.294 . S
In442 O444 2.326 . S
In442 O448 2.266 . S
In442 O449 2.326 . S
In442 O450 2.266 . S
In442 O451 2.326 . S
In442 O453 2.294 . S
In442 O454 2.326 . S
O443 In442 2.294 . S
O443 C452 1.240 . S
O444 In442 2.326 . S
O444 C452 1.252 . S
C445 O448 1.252 . S
C445 O449 1.260 . S
C446 O453 1.240 . S
C446 O454 1.252 . S
C447 O450 1.252 . S
C447 O451 1.260 . S
O448 In442 2.266 . S
O448 C445 1.252 . S
O449 In442 2.326 . S
O449 C445 1.260 . S
O450 In442 2.266 . S
O450 C447 1.252 . S
O451 In442 2.326 . S
O451 C447 1.260 . S
C452 O443 1.240 . S
C452 O444 1.252 . S
O453 In442 2.294 . S
O453 C446 1.240 . S
O454 In442 2.326 . S
O454 C446 1.252 . S
In455 O456 2.294 . S
In455 O457 2.326 . S
In455 O461 2.266 . S
In455 O462 2.326 . S
In455 O463 2.266 . S
In455 O464 2.326 . S
In455 O466 2.294 . S
In455 O467 2.326 . S
O456 In455 2.294 . S
O456 C465 1.240 . S
O457 In455 2.326 . S
O457 C465 1.252 . S
C458 O461 1.252 . S
C458 O462 1.260 . S
C459 O466 1.240 . S
C459 O467 1.252 . S
C460 O463 1.252 . S
C460 O464 1.260 . S
O461 In455 2.266 . S
O461 C458 1.252 . S
O462 In455 2.326 . S
O462 C458 1.260 . S
O463 In455 2.266 . S
O463 C460 1.252 . S
O464 In455 2.326 . S
O464 C460 1.260 . S
C465 O456 1.240 . S
C465 O457 1.252 . S
O466 In455 2.294 . S
O466 C459 1.240 . S
O467 In455 2.326 . S
O467 C459 1.252 . S
In468 O469 2.294 . S
In468 O470 2.326 . S
In468 O474 2.266 . S
In468 O475 2.326 . S
In468 O476 2.266 . S
In468 O477 2.326 . S
In468 O479 2.294 . S
In468 O480 2.326 . S
O469 In468 2.294 . S
O469 C478 1.240 . S
O470 In468 2.326 . S
O470 C478 1.252 . S
C471 O474 1.252 . S
C471 O475 1.260 . S
C472 O479 1.240 . S
C472 O480 1.252 . S
C473 O476 1.252 . S
C473 O477 1.260 . S
O474 In468 2.266 . S
O474 C471 1.252 . S
O475 In468 2.326 . S
O475 C471 1.260 . S
O476 In468 2.266 . S
O476 C473 1.252 . S
O477 In468 2.326 . S
O477 C473 1.260 . S
C478 O469 1.240 . S
C478 O470 1.252 . S
O479 In468 2.294 . S
O479 C472 1.240 . S
O480 In468 2.326 . S
O480 C472 1.252 . S
In481 O482 2.294 . S
In481 O483 2.326 . S
In481 O487 2.266 . S
In481 O488 2.326 . S
In481 O489 2.266 . S
In481 O490 2.326 . S
In481 O492 2.294 . S
In481 O493 2.326 . S
O482 In481 2.294 . S
O482 C491 1.240 . S
O483 In481 2.326 . S
O483 C491 1.252 . S
C484 O487 1.252 . S
C484 O488 1.260 . S
C485 O492 1.240 . S
C485 O493 1.252 . S
C486 O489 1.252 . S
C486 O490 1.260 . S
O487 In481 2.266 . S
O487 C484 1.252 . S
O488 In481 2.326 . S
O488 C484 1.260 . S
O489 In481 2.266 . S
O489 C486 1.252 . S
O490 In481 2.326 . S
O490 C486 1.260 . S
C491 O482 1.240 . S
C491 O483 1.252 . S
O492 In481 2.294 . S
O492 C485 1.240 . S
O493 In481 2.326 . S
O493 C485 1.252 . S
In494 O495 2.294 . S
In494 O496 2.326 . S
In494 O500 2.266 . S
In494 O501 2.326 . S
In494 O502 2.266 . S
In494 O503 2.326 . S
In494 O505 2.294 . S
In494 O506 2.326 . S
O495 In494 2.294 . S
O495 C504 1.240 . S
O496 In494 2.326 . S
O496 C504 1.252 . S
C497 O500 1.252 . S
C497 O501 1.260 . S
C498 O505 1.240 . S
C498 O506 1.252 . S
C499 O502 1.252 . S
C499 O503 1.260 . S
O500 In494 2.266 . S
O500 C497 1.252 . S
O501 In494 2.326 . S
O501 C497 1.260 . S
O502 In494 2.266 . S
O502 C499 1.252 . S
O503 In494 2.326 . S
O503 C499 1.260 . S
C504 O495 1.240 . S
C504 O496 1.252 . S
O505 In494 2.294 . S
O505 C498 1.240 . S
O506 In494 2.326 . S
O506 C498 1.252 . S
In507 O508 2.294 . S
In507 O509 2.326 . S
In507 O513 2.266 . S
In507 O514 2.326 . S
In507 O515 2.266 . S
In507 O516 2.326 . S
In507 O518 2.294 . S
In507 O519 2.326 . S
O508 In507 2.294 . S
O508 C517 1.240 . S
O509 In507 2.326 . S
O509 C517 1.252 . S
C510 O513 1.252 . S
C510 O514 1.260 . S
C511 O518 1.240 . S
C511 O519 1.252 . S
C512 O515 1.252 . S
C512 O516 1.260 . S
O513 In507 2.266 . S
O513 C510 1.252 . S
O514 In507 2.326 . S
O514 C510 1.260 . S
O515 In507 2.266 . S
O515 C512 1.252 . S
O516 In507 2.326 . S
O516 C512 1.260 . S
C517 O508 1.240 . S
C517 O509 1.252 . S
O518 In507 2.294 . S
O518 C511 1.240 . S
O519 In507 2.326 . S
O519 C511 1.252 . S
In520 O521 2.294 . S
In520 O522 2.326 . S
In520 O526 2.266 . S
In520 O527 2.326 . S
In520 O528 2.266 . S
In520 O529 2.326 . S
In520 O531 2.294 . S
In520 O532 2.326 . S
O521 In520 2.294 . S
O521 C530 1.240 . S
O522 In520 2.326 . S
O522 C530 1.252 . S
C523 O526 1.252 . S
C523 O527 1.260 . S
C524 O531 1.240 . S
C524 O532 1.252 . S
C525 O528 1.252 . S
C525 O529 1.260 . S
O526 In520 2.266 . S
O526 C523 1.252 . S
O527 In520 2.326 . S
O527 C523 1.260 . S
O528 In520 2.266 . S
O528 C525 1.252 . S
O529 In520 2.326 . S
O529 C525 1.260 . S
C530 O521 1.240 . S
C530 O522 1.252 . S
O531 In520 2.294 . S
O531 C524 1.240 . S
O532 In520 2.326 . S
O532 C524 1.252 . S
In533 O534 2.294 . S
In533 O535 2.326 . S
In533 O539 2.266 . S
In533 O540 2.326 . S
In533 O541 2.266 . S
In533 O542 2.326 . S
In533 O544 2.294 . S
In533 O545 2.326 . S
O534 In533 2.294 . S
O534 C543 1.240 . S
O535 In533 2.326 . S
O535 C543 1.252 . S
C536 O539 1.252 . S
C536 O540 1.260 . S
C537 O544 1.240 . S
C537 O545 1.252 . S
C538 O541 1.252 . S
C538 O542 1.260 . S
O539 In533 2.266 . S
O539 C536 1.252 . S
O540 In533 2.326 . S
O540 C536 1.260 . S
O541 In533 2.266 . S
O541 C538 1.252 . S
O542 In533 2.326 . S
O542 C538 1.260 . S
C543 O534 1.240 . S
C543 O535 1.252 . S
O544 In533 2.294 . S
O544 C537 1.240 . S
O545 In533 2.326 . S
O545 C537 1.252 . S
In546 O547 2.294 . S
In546 O548 2.326 . S
In546 O552 2.266 . S
In546 O553 2.326 . S
In546 O554 2.266 . S
In546 O555 2.326 . S
In546 O557 2.294 . S
In546 O558 2.326 . S
O547 In546 2.294 . S
O547 C556 1.240 . S
O548 In546 2.326 . S
O548 C556 1.252 . S
C549 O552 1.252 . S
C549 O553 1.260 . S
C550 O557 1.240 . S
C550 O558 1.252 . S
C551 O554 1.252 . S
C551 O555 1.260 . S
O552 In546 2.266 . S
O552 C549 1.252 . S
O553 In546 2.326 . S
O553 C549 1.260 . S
O554 In546 2.266 . S
O554 C551 1.252 . S
O555 In546 2.326 . S
O555 C551 1.260 . S
C556 O547 1.240 . S
C556 O548 1.252 . S
O557 In546 2.294 . S
O557 C550 1.240 . S
O558 In546 2.326 . S
O558 C550 1.252 . S
In559 O560 2.294 . S
In559 O561 2.326 . S
In559 O565 2.266 . S
In559 O566 2.326 . S
In559 O567 2.266 . S
In559 O568 2.326 . S
In559 O570 2.294 . S
In559 O571 2.326 . S
O560 In559 2.294 . S
O560 C569 1.240 . S
O561 In559 2.326 . S
O561 C569 1.252 . S
C562 O565 1.252 . S
C562 O566 1.260 . S
C563 O570 1.240 . S
C563 O571 1.252 . S
C564 O567 1.252 . S
C564 O568 1.260 . S
O565 In559 2.266 . S
O565 C562 1.252 . S
O566 In559 2.326 . S
O566 C562 1.260 . S
O567 In559 2.266 . S
O567 C564 1.252 . S
O568 In559 2.326 . S
O568 C564 1.260 . S
C569 O560 1.240 . S
C569 O561 1.252 . S
O570 In559 2.294 . S
O570 C563 1.240 . S
O571 In559 2.326 . S
O571 C563 1.252 . S
In572 O573 2.294 . S
In572 O574 2.326 . S
In572 O578 2.266 . S
In572 O579 2.326 . S
In572 O580 2.266 . S
In572 O581 2.326 . S
In572 O583 2.294 . S
In572 O584 2.326 . S
O573 In572 2.294 . S
O573 C582 1.240 . S
O574 In572 2.326 . S
O574 C582 1.252 . S
C575 O578 1.252 . S
C575 O579 1.260 . S
C576 O583 1.240 . S
C576 O584 1.252 . S
C577 O580 1.252 . S
C577 O581 1.260 . S
O578 In572 2.266 . S
O578 C575 1.252 . S
O579 In572 2.326 . S
O579 C575 1.260 . S
O580 In572 2.266 . S
O580 C577 1.252 . S
O581 In572 2.326 . S
O581 C577 1.260 . S
C582 O573 1.240 . S
C582 O574 1.252 . S
O583 In572 2.294 . S
O583 C576 1.240 . S
O584 In572 2.326 . S
O584 C576 1.252 . S
In585 O586 2.294 . S
In585 O587 2.326 . S
In585 O591 2.266 . S
In585 O592 2.326 . S
In585 O593 2.266 . S
In585 O594 2.326 . S
In585 O596 2.294 . S
In585 O597 2.326 . S
O586 In585 2.294 . S
O586 C595 1.240 . S
O587 In585 2.326 . S
O587 C595 1.252 . S
C588 O591 1.252 . S
C588 O592 1.260 . S
C589 O596 1.240 . S
C589 O597 1.252 . S
C590 O593 1.252 . S
C590 O594 1.260 . S
O591 In585 2.266 . S
O591 C588 1.252 . S
O592 In585 2.326 . S
O592 C588 1.260 . S
O593 In585 2.266 . S
O593 C590 1.252 . S
O594 In585 2.326 . S
O594 C590 1.260 . S
C595 O586 1.240 . S
C595 O587 1.252 . S
O596 In585 2.294 . S
O596 C589 1.240 . S
O597 In585 2.326 . S
O597 C589 1.252 . S
In598 O599 2.294 . S
In598 O600 2.326 . S
In598 O604 2.266 . S
In598 O605 2.326 . S
In598 O606 2.266 . S
In598 O607 2.326 . S
In598 O609 2.294 . S
In598 O610 2.326 . S
O599 In598 2.294 . S
O599 C608 1.240 . S
O600 In598 2.326 . S
O600 C608 1.252 . S
C601 O604 1.252 . S
C601 O605 1.260 . S
C602 O609 1.240 . S
C602 O610 1.252 . S
C603 O606 1.252 . S
C603 O607 1.260 . S
O604 In598 2.266 . S
O604 C601 1.252 . S
O605 In598 2.326 . S
O605 C601 1.260 . S
O606 In598 2.266 . S
O606 C603 1.252 . S
O607 In598 2.326 . S
O607 C603 1.260 . S
C608 O599 1.240 . S
C608 O600 1.252 . S
O609 In598 2.294 . S
O609 C602 1.240 . S
O610 In598 2.326 . S
O610 C602 1.252 . S
In611 O612 2.294 . S
In611 O613 2.326 . S
In611 O617 2.266 . S
In611 O618 2.326 . S
In611 O619 2.266 . S
In611 O620 2.326 . S
In611 O622 2.294 . S
In611 O623 2.326 . S
O612 In611 2.294 . S
O612 C621 1.240 . S
O613 In611 2.326 . S
O613 C621 1.252 . S
C614 O617 1.252 . S
C614 O618 1.260 . S
C615 O622 1.240 . S
C615 O623 1.252 . S
C616 O619 1.252 . S
C616 O620 1.260 . S
O617 In611 2.266 . S
O617 C614 1.252 . S
O618 In611 2.326 . S
O618 C614 1.260 . S
O619 In611 2.266 . S
O619 C616 1.252 . S
O620 In611 2.326 . S
O620 C616 1.260 . S
C621 O612 1.240 . S
C621 O613 1.252 . S
O622 In611 2.294 . S
O622 C615 1.240 . S
O623 In611 2.326 . S
O623 C615 1.252 . S
H624 C630 0.930 . S
H625 C634 0.930 . S
H626 C639 0.929 . S
H627 C637 0.929 . S
H628 C632 0.929 . S
H629 C638 0.929 . S
C630 H624 0.930 . S
C630 C631 1.367 . S
C630 C638 1.378 . S
C631 C630 1.367 . S
C631 C639 1.433 . S
C632 H628 0.929 . S
C632 C634 1.378 . S
C632 C636 1.350 . S
C633 C636 1.463 . S
C633 C638 1.350 . S
C633 N641 1.427 . S
C634 H625 0.930 . S
C634 C632 1.378 . S
C634 C635 1.367 . S
C635 C634 1.367 . S
C635 C637 1.433 . S
C636 C632 1.350 . S
C636 C633 1.463 . S
C636 N640 1.427 . S
C637 H627 0.929 . S
C637 C635 1.433 . S
C637 N640 1.384 . S
C638 H629 0.929 . S
C638 C630 1.378 . S
C638 C633 1.350 . S
C639 H626 0.929 . S
C639 C631 1.433 . S
C639 N641 1.384 . S
N640 C636 1.427 . S
N640 C637 1.384 . S
N641 C633 1.427 . S
N641 C639 1.384 . S
H642 C648 0.930 . S
H643 C652 0.930 . S
H644 C657 0.929 . S
H645 C655 0.929 . S
H646 C650 0.929 . S
H647 C656 0.929 . S
C648 H642 0.930 . S
C648 C649 1.367 . S
C648 C656 1.378 . S
C649 C648 1.367 . S
C649 C657 1.433 . S
C650 H646 0.929 . S
C650 C652 1.378 . S
C650 C654 1.350 . S
C651 C654 1.463 . S
C651 C656 1.350 . S
C651 N659 1.427 . S
C652 H643 0.930 . S
C652 C650 1.378 . S
C652 C653 1.367 . S
C653 C652 1.367 . S
C653 C655 1.433 . S
C654 C650 1.350 . S
C654 C651 1.463 . S
C654 N658 1.427 . S
C655 H645 0.929 . S
C655 C653 1.433 . S
C655 N658 1.384 . S
C656 H647 0.929 . S
C656 C648 1.378 . S
C656 C651 1.350 . S
C657 H644 0.929 . S
C657 C649 1.433 . S
C657 N659 1.384 . S
N658 C654 1.427 . S
N658 C655 1.384 . S
N659 C651 1.427 . S
N659 C657 1.384 . S
H660 C666 0.930 . S
H661 C670 0.930 . S
H662 C675 0.929 . S
H663 C673 0.929 . S
H664 C668 0.929 . S
H665 C674 0.929 . S
C666 H660 0.930 . S
C666 C667 1.367 . S
C666 C674 1.378 . S
C667 C666 1.367 . S
C667 C675 1.433 . S
C668 H664 0.929 . S
C668 C670 1.378 . S
C668 C672 1.350 . S
C669 C672 1.463 . S
C669 C674 1.350 . S
C669 N677 1.427 . S
C670 H661 0.930 . S
C670 C668 1.378 . S
C670 C671 1.367 . S
C671 C670 1.367 . S
C671 C673 1.433 . S
C672 C668 1.350 . S
C672 C669 1.463 . S
C672 N676 1.427 . S
C673 H663 0.929 . S
C673 C671 1.433 . S
C673 N676 1.384 . S
C674 H665 0.929 . S
C674 C666 1.378 . S
C674 C669 1.350 . S
C675 H662 0.929 . S
C675 C667 1.433 . S
C675 N677 1.384 . S
N676 C672 1.427 . S
N676 C673 1.384 . S
N677 C669 1.427 . S
N677 C675 1.384 . S
H678 C684 0.930 . S
H679 C688 0.930 . S
H680 C693 0.929 . S
H681 C691 0.929 . S
H682 C686 0.929 . S
H683 C692 0.929 . S
C684 H678 0.930 . S
C684 C685 1.367 . S
C684 C692 1.378 . S
C685 C684 1.367 . S
C685 C693 1.433 . S
C686 H682 0.929 . S
C686 C688 1.378 . S
C686 C690 1.350 . S
C687 C690 1.463 . S
C687 C692 1.350 . S
C687 N695 1.427 . S
C688 H679 0.930 . S
C688 C686 1.378 . S
C688 C689 1.367 . S
C689 C688 1.367 . S
C689 C691 1.433 . S
C690 C686 1.350 . S
C690 C687 1.463 . S
C690 N694 1.427 . S
C691 H681 0.929 . S
C691 C689 1.433 . S
C691 N694 1.384 . S
C692 H683 0.929 . S
C692 C684 1.378 . S
C692 C687 1.350 . S
C693 H680 0.929 . S
C693 C685 1.433 . S
C693 N695 1.384 . S
N694 C690 1.427 . S
N694 C691 1.384 . S
N695 C687 1.427 . S
N695 C693 1.384 . S
H696 C702 0.930 . S
H697 C706 0.930 . S
H698 C711 0.929 . S
H699 C709 0.929 . S
H700 C704 0.929 . S
H701 C710 0.929 . S
C702 H696 0.930 . S
C702 C703 1.367 . S
C702 C710 1.378 . S
C703 C702 1.367 . S
C703 C711 1.433 . S
C704 H700 0.929 . S
C704 C706 1.378 . S
C704 C708 1.350 . S
C705 C708 1.463 . S
C705 C710 1.350 . S
C705 N713 1.427 . S
C706 H697 0.930 . S
C706 C704 1.378 . S
C706 C707 1.367 . S
C707 C706 1.367 . S
C707 C709 1.433 . S
C708 C704 1.350 . S
C708 C705 1.463 . S
C708 N712 1.427 . S
C709 H699 0.929 . S
C709 C707 1.433 . S
C709 N712 1.384 . S
C710 H701 0.929 . S
C710 C702 1.378 . S
C710 C705 1.350 . S
C711 H698 0.929 . S
C711 C703 1.433 . S
C711 N713 1.384 . S
N712 C708 1.427 . S
N712 C709 1.384 . S
N713 C705 1.427 . S
N713 C711 1.384 . S
H714 C720 0.930 . S
H715 C724 0.930 . S
H716 C729 0.929 . S
H717 C727 0.929 . S
H718 C722 0.929 . S
H719 C728 0.929 . S
C720 H714 0.930 . S
C720 C721 1.367 . S
C720 C728 1.378 . S
C721 C720 1.367 . S
C721 C729 1.433 . S
C722 H718 0.929 . S
C722 C724 1.378 . S
C722 C726 1.350 . S
C723 C726 1.463 . S
C723 C728 1.350 . S
C723 N731 1.427 . S
C724 H715 0.930 . S
C724 C722 1.378 . S
C724 C725 1.367 . S
C725 C724 1.367 . S
C725 C727 1.433 . S
C726 C722 1.350 . S
C726 C723 1.463 . S
C726 N730 1.427 . S
C727 H717 0.929 . S
C727 C725 1.433 . S
C727 N730 1.384 . S
C728 H719 0.929 . S
C728 C720 1.378 . S
C728 C723 1.350 . S
C729 H716 0.929 . S
C729 C721 1.433 . S
C729 N731 1.384 . S
N730 C726 1.427 . S
N730 C727 1.384 . S
N731 C723 1.427 . S
N731 C729 1.384 . S
H732 C738 0.930 . S
H733 C742 0.930 . S
H734 C747 0.929 . S
H735 C745 0.929 . S
H736 C740 0.929 . S
H737 C746 0.929 . S
C738 H732 0.930 . S
C738 C739 1.367 . S
C738 C746 1.378 . S
C739 C738 1.367 . S
C739 C747 1.433 . S
C740 H736 0.929 . S
C740 C742 1.378 . S
C740 C744 1.350 . S
C741 C744 1.463 . S
C741 C746 1.350 . S
C741 N749 1.427 . S
C742 H733 0.930 . S
C742 C740 1.378 . S
C742 C743 1.367 . S
C743 C742 1.367 . S
C743 C745 1.433 . S
C744 C740 1.350 . S
C744 C741 1.463 . S
C744 N748 1.427 . S
C745 H735 0.929 . S
C745 C743 1.433 . S
C745 N748 1.384 . S
C746 H737 0.929 . S
C746 C738 1.378 . S
C746 C741 1.350 . S
C747 H734 0.929 . S
C747 C739 1.433 . S
C747 N749 1.384 . S
N748 C744 1.427 . S
N748 C745 1.384 . S
N749 C741 1.427 . S
N749 C747 1.384 . S
H750 C756 0.930 . S
H751 C760 0.930 . S
H752 C765 0.929 . S
H753 C763 0.929 . S
H754 C758 0.929 . S
H755 C764 0.929 . S
C756 H750 0.930 . S
C756 C757 1.367 . S
C756 C764 1.378 . S
C757 C756 1.367 . S
C757 C765 1.433 . S
C758 H754 0.929 . S
C758 C760 1.378 . S
C758 C762 1.350 . S
C759 C762 1.463 . S
C759 C764 1.350 . S
C759 N767 1.427 . S
C760 H751 0.930 . S
C760 C758 1.378 . S
C760 C761 1.367 . S
C761 C760 1.367 . S
C761 C763 1.433 . S
C762 C758 1.350 . S
C762 C759 1.463 . S
C762 N766 1.427 . S
C763 H753 0.929 . S
C763 C761 1.433 . S
C763 N766 1.384 . S
C764 H755 0.929 . S
C764 C756 1.378 . S
C764 C759 1.350 . S
C765 H752 0.929 . S
C765 C757 1.433 . S
C765 N767 1.384 . S
N766 C762 1.427 . S
N766 C763 1.384 . S
N767 C759 1.427 . S
N767 C765 1.384 . S
H768 C774 0.930 . S
H769 C778 0.930 . S
H770 C783 0.929 . S
H771 C781 0.929 . S
H772 C776 0.929 . S
H773 C782 0.929 . S
C774 H768 0.930 . S
C774 C775 1.367 . S
C774 C782 1.378 . S
C775 C774 1.367 . S
C775 C783 1.433 . S
C776 H772 0.929 . S
C776 C778 1.378 . S
C776 C780 1.350 . S
C777 C780 1.463 . S
C777 C782 1.350 . S
C777 N785 1.427 . S
C778 H769 0.930 . S
C778 C776 1.378 . S
C778 C779 1.367 . S
C779 C778 1.367 . S
C779 C781 1.433 . S
C780 C776 1.350 . S
C780 C777 1.463 . S
C780 N784 1.427 . S
C781 H771 0.929 . S
C781 C779 1.433 . S
C781 N784 1.384 . S
C782 H773 0.929 . S
C782 C774 1.378 . S
C782 C777 1.350 . S
C783 H770 0.929 . S
C783 C775 1.433 . S
C783 N785 1.384 . S
N784 C780 1.427 . S
N784 C781 1.384 . S
N785 C777 1.427 . S
N785 C783 1.384 . S
H786 C792 0.930 . S
H787 C796 0.930 . S
H788 C801 0.929 . S
H789 C799 0.929 . S
H790 C794 0.929 . S
H791 C800 0.929 . S
C792 H786 0.930 . S
C792 C793 1.367 . S
C792 C800 1.378 . S
C793 C792 1.367 . S
C793 C801 1.433 . S
C794 H790 0.929 . S
C794 C796 1.378 . S
C794 C798 1.350 . S
C795 C798 1.463 . S
C795 C800 1.350 . S
C795 N803 1.427 . S
C796 H787 0.930 . S
C796 C794 1.378 . S
C796 C797 1.367 . S
C797 C796 1.367 . S
C797 C799 1.433 . S
C798 C794 1.350 . S
C798 C795 1.463 . S
C798 N802 1.427 . S
C799 H789 0.929 . S
C799 C797 1.433 . S
C799 N802 1.384 . S
C800 H791 0.929 . S
C800 C792 1.378 . S
C800 C795 1.350 . S
C801 H788 0.929 . S
C801 C793 1.433 . S
C801 N803 1.384 . S
N802 C798 1.427 . S
N802 C799 1.384 . S
N803 C795 1.427 . S
N803 C801 1.384 . S
H804 C810 0.930 . S
H805 C814 0.930 . S
H806 C819 0.929 . S
H807 C817 0.929 . S
H808 C812 0.929 . S
H809 C818 0.929 . S
C810 H804 0.930 . S
C810 C811 1.367 . S
C810 C818 1.378 . S
C811 C810 1.367 . S
C811 C819 1.433 . S
C812 H808 0.929 . S
C812 C814 1.378 . S
C812 C816 1.350 . S
C813 C816 1.463 . S
C813 C818 1.350 . S
C813 N821 1.427 . S
C814 H805 0.930 . S
C814 C812 1.378 . S
C814 C815 1.367 . S
C815 C814 1.367 . S
C815 C817 1.433 . S
C816 C812 1.350 . S
C816 C813 1.463 . S
C816 N820 1.427 . S
C817 H807 0.929 . S
C817 C815 1.433 . S
C817 N820 1.384 . S
C818 H809 0.929 . S
C818 C810 1.378 . S
C818 C813 1.350 . S
C819 H806 0.929 . S
C819 C811 1.433 . S
C819 N821 1.384 . S
N820 C816 1.427 . S
N820 C817 1.384 . S
N821 C813 1.427 . S
N821 C819 1.384 . S
H822 C828 0.930 . S
H823 C832 0.930 . S
H824 C837 0.929 . S
H825 C835 0.929 . S
H826 C830 0.929 . S
H827 C836 0.929 . S
C828 H822 0.930 . S
C828 C829 1.367 . S
C828 C836 1.378 . S
C829 C828 1.367 . S
C829 C837 1.433 . S
C830 H826 0.929 . S
C830 C832 1.378 . S
C830 C834 1.350 . S
C831 C834 1.463 . S
C831 C836 1.350 . S
C831 N839 1.427 . S
C832 H823 0.930 . S
C832 C830 1.378 . S
C832 C833 1.367 . S
C833 C832 1.367 . S
C833 C835 1.433 . S
C834 C830 1.350 . S
C834 C831 1.463 . S
C834 N838 1.427 . S
C835 H825 0.929 . S
C835 C833 1.433 . S
C835 N838 1.384 . S
C836 H827 0.929 . S
C836 C828 1.378 . S
C836 C831 1.350 . S
C837 H824 0.929 . S
C837 C829 1.433 . S
C837 N839 1.384 . S
N838 C834 1.427 . S
N838 C835 1.384 . S
N839 C831 1.427 . S
N839 C837 1.384 . S
H840 C846 0.930 . S
H841 C850 0.930 . S
H842 C855 0.929 . S
H843 C853 0.929 . S
H844 C848 0.929 . S
H845 C854 0.929 . S
C846 H840 0.930 . S
C846 C847 1.367 . S
C846 C854 1.378 . S
C847 C846 1.367 . S
C847 C855 1.433 . S
C848 H844 0.929 . S
C848 C850 1.378 . S
C848 C852 1.350 . S
C849 C852 1.463 . S
C849 C854 1.350 . S
C849 N857 1.427 . S
C850 H841 0.930 . S
C850 C848 1.378 . S
C850 C851 1.367 . S
C851 C850 1.367 . S
C851 C853 1.433 . S
C852 C848 1.350 . S
C852 C849 1.463 . S
C852 N856 1.427 . S
C853 H843 0.929 . S
C853 C851 1.433 . S
C853 N856 1.384 . S
C854 H845 0.929 . S
C854 C846 1.378 . S
C854 C849 1.350 . S
C855 H842 0.929 . S
C855 C847 1.433 . S
C855 N857 1.384 . S
N856 C852 1.427 . S
N856 C853 1.384 . S
N857 C849 1.427 . S
N857 C855 1.384 . S
H858 C864 0.930 . S
H859 C868 0.930 . S
H860 C873 0.929 . S
H861 C871 0.929 . S
H862 C866 0.929 . S
H863 C872 0.929 . S
C864 H858 0.930 . S
C864 C865 1.367 . S
C864 C872 1.378 . S
C865 C864 1.367 . S
C865 C873 1.433 . S
C866 H862 0.929 . S
C866 C868 1.378 . S
C866 C870 1.350 . S
C867 C870 1.463 . S
C867 C872 1.350 . S
C867 N875 1.427 . S
C868 H859 0.930 . S
C868 C866 1.378 . S
C868 C869 1.367 . S
C869 C868 1.367 . S
C869 C871 1.433 . S
C870 C866 1.350 . S
C870 C867 1.463 . S
C870 N874 1.427 . S
C871 H861 0.929 . S
C871 C869 1.433 . S
C871 N874 1.384 . S
C872 H863 0.929 . S
C872 C864 1.378 . S
C872 C867 1.350 . S
C873 H860 0.929 . S
C873 C865 1.433 . S
C873 N875 1.384 . S
N874 C870 1.427 . S
N874 C871 1.384 . S
N875 C867 1.427 . S
N875 C873 1.384 . S
H876 C882 0.930 . S
H877 C886 0.930 . S
H878 C891 0.929 . S
H879 C889 0.929 . S
H880 C884 0.929 . S
H881 C890 0.929 . S
C882 H876 0.930 . S
C882 C883 1.367 . S
C882 C890 1.378 . S
C883 C882 1.367 . S
C883 C891 1.433 . S
C884 H880 0.929 . S
C884 C886 1.378 . S
C884 C888 1.350 . S
C885 C888 1.463 . S
C885 C890 1.350 . S
C885 N893 1.427 . S
C886 H877 0.930 . S
C886 C884 1.378 . S
C886 C887 1.367 . S
C887 C886 1.367 . S
C887 C889 1.433 . S
C888 C884 1.350 . S
C888 C885 1.463 . S
C888 N892 1.427 . S
C889 H879 0.929 . S
C889 C887 1.433 . S
C889 N892 1.384 . S
C890 H881 0.929 . S
C890 C882 1.378 . S
C890 C885 1.350 . S
C891 H878 0.929 . S
C891 C883 1.433 . S
C891 N893 1.384 . S
N892 C888 1.427 . S
N892 C889 1.384 . S
N893 C885 1.427 . S
N893 C891 1.384 . S
H894 C900 0.930 . S
H895 C904 0.930 . S
H896 C909 0.929 . S
H897 C907 0.929 . S
H898 C902 0.929 . S
H899 C908 0.929 . S
C900 H894 0.930 . S
C900 C901 1.367 . S
C900 C908 1.378 . S
C901 C900 1.367 . S
C901 C909 1.433 . S
C902 H898 0.929 . S
C902 C904 1.378 . S
C902 C906 1.350 . S
C903 C906 1.463 . S
C903 C908 1.350 . S
C903 N911 1.427 . S
C904 H895 0.930 . S
C904 C902 1.378 . S
C904 C905 1.367 . S
C905 C904 1.367 . S
C905 C907 1.433 . S
C906 C902 1.350 . S
C906 C903 1.463 . S
C906 N910 1.427 . S
C907 H897 0.929 . S
C907 C905 1.433 . S
C907 N910 1.384 . S
C908 H899 0.929 . S
C908 C900 1.378 . S
C908 C903 1.350 . S
C909 H896 0.929 . S
C909 C901 1.433 . S
C909 N911 1.384 . S
N910 C906 1.427 . S
N910 C907 1.384 . S
N911 C903 1.427 . S
N911 C909 1.384 . S
H912 C918 0.930 . S
H913 C922 0.930 . S
H914 C927 0.929 . S
H915 C925 0.929 . S
H916 C920 0.929 . S
H917 C926 0.929 . S
C918 H912 0.930 . S
C918 C919 1.367 . S
C918 C926 1.378 . S
C919 C918 1.367 . S
C919 C927 1.433 . S
C920 H916 0.929 . S
C920 C922 1.378 . S
C920 C924 1.350 . S
C921 C924 1.463 . S
C921 C926 1.350 . S
C921 N929 1.427 . S
C922 H913 0.930 . S
C922 C920 1.378 . S
C922 C923 1.367 . S
C923 C922 1.367 . S
C923 C925 1.433 . S
C924 C920 1.350 . S
C924 C921 1.463 . S
C924 N928 1.427 . S
C925 H915 0.929 . S
C925 C923 1.433 . S
C925 N928 1.384 . S
C926 H917 0.929 . S
C926 C918 1.378 . S
C926 C921 1.350 . S
C927 H914 0.929 . S
C927 C919 1.433 . S
C927 N929 1.384 . S
N928 C924 1.427 . S
N928 C925 1.384 . S
N929 C921 1.427 . S
N929 C927 1.384 . S
H930 C936 0.930 . S
H931 C940 0.930 . S
H932 C945 0.929 . S
H933 C943 0.929 . S
H934 C938 0.929 . S
H935 C944 0.929 . S
C936 H930 0.930 . S
C936 C937 1.367 . S
C936 C944 1.378 . S
C937 C936 1.367 . S
C937 C945 1.433 . S
C938 H934 0.929 . S
C938 C940 1.378 . S
C938 C942 1.350 . S
C939 C942 1.463 . S
C939 C944 1.350 . S
C939 N947 1.427 . S
C940 H931 0.930 . S
C940 C938 1.378 . S
C940 C941 1.367 . S
C941 C940 1.367 . S
C941 C943 1.433 . S
C942 C938 1.350 . S
C942 C939 1.463 . S
C942 N946 1.427 . S
C943 H933 0.929 . S
C943 C941 1.433 . S
C943 N946 1.384 . S
C944 H935 0.929 . S
C944 C936 1.378 . S
C944 C939 1.350 . S
C945 H932 0.929 . S
C945 C937 1.433 . S
C945 N947 1.384 . S
N946 C942 1.427 . S
N946 C943 1.384 . S
N947 C939 1.427 . S
N947 C945 1.384 . S
H948 C954 0.930 . S
H949 C958 0.930 . S
H950 C963 0.929 . S
H951 C961 0.929 . S
H952 C956 0.929 . S
H953 C962 0.929 . S
C954 H948 0.930 . S
C954 C955 1.367 . S
C954 C962 1.378 . S
C955 C954 1.367 . S
C955 C963 1.433 . S
C956 H952 0.929 . S
C956 C958 1.378 . S
C956 C960 1.350 . S
C957 C960 1.463 . S
C957 C962 1.350 . S
C957 N965 1.427 . S
C958 H949 0.930 . S
C958 C956 1.378 . S
C958 C959 1.367 . S
C959 C958 1.367 . S
C959 C961 1.433 . S
C960 C956 1.350 . S
C960 C957 1.463 . S
C960 N964 1.427 . S
C961 H951 0.929 . S
C961 C959 1.433 . S
C961 N964 1.384 . S
C962 H953 0.929 . S
C962 C954 1.378 . S
C962 C957 1.350 . S
C963 H950 0.929 . S
C963 C955 1.433 . S
C963 N965 1.384 . S
N964 C960 1.427 . S
N964 C961 1.384 . S
N965 C957 1.427 . S
N965 C963 1.384 . S
H966 C972 0.930 . S
H967 C976 0.930 . S
H968 C981 0.929 . S
H969 C979 0.929 . S
H970 C974 0.929 . S
H971 C980 0.929 . S
C972 H966 0.930 . S
C972 C973 1.367 . S
C972 C980 1.378 . S
C973 C972 1.367 . S
C973 C981 1.433 . S
C974 H970 0.929 . S
C974 C976 1.378 . S
C974 C978 1.350 . S
C975 C978 1.463 . S
C975 C980 1.350 . S
C975 N983 1.427 . S
C976 H967 0.930 . S
C976 C974 1.378 . S
C976 C977 1.367 . S
C977 C976 1.367 . S
C977 C979 1.433 . S
C978 C974 1.350 . S
C978 C975 1.463 . S
C978 N982 1.427 . S
C979 H969 0.929 . S
C979 C977 1.433 . S
C979 N982 1.384 . S
C980 H971 0.929 . S
C980 C972 1.378 . S
C980 C975 1.350 . S
C981 H968 0.929 . S
C981 C973 1.433 . S
C981 N983 1.384 . S
N982 C978 1.427 . S
N982 C979 1.384 . S
N983 C975 1.427 . S
N983 C981 1.384 . S
H984 C990 0.930 . S
H985 C994 0.930 . S
H986 C999 0.929 . S
H987 C997 0.929 . S
H988 C992 0.929 . S
H989 C998 0.929 . S
C990 H984 0.930 . S
C990 C991 1.367 . S
C990 C998 1.378 . S
C991 C990 1.367 . S
C991 C999 1.433 . S
C992 H988 0.929 . S
C992 C994 1.378 . S
C992 C996 1.350 . S
C993 C996 1.463 . S
C993 C998 1.350 . S
C993 N1001 1.427 . S
C994 H985 0.930 . S
C994 C992 1.378 . S
C994 C995 1.367 . S
C995 C994 1.367 . S
C995 C997 1.433 . S
C996 C992 1.350 . S
C996 C993 1.463 . S
C996 N1000 1.427 . S
C997 H987 0.929 . S
C997 C995 1.433 . S
C997 N1000 1.384 . S
C998 H989 0.929 . S
C998 C990 1.378 . S
C998 C993 1.350 . S
C999 H986 0.929 . S
C999 C991 1.433 . S
C999 N1001 1.384 . S
N1000 C996 1.427 . S
N1000 C997 1.384 . S
N1001 C993 1.427 . S
N1001 C999 1.384 . S
H1002 C1008 0.930 . S
H1003 C1012 0.930 . S
H1004 C1017 0.929 . S
H1005 C1015 0.929 . S
H1006 C1010 0.929 . S
H1007 C1016 0.929 . S
C1008 H1002 0.930 . S
C1008 C1009 1.367 . S
C1008 C1016 1.378 . S
C1009 C1008 1.367 . S
C1009 C1017 1.433 . S
C1010 H1006 0.929 . S
C1010 C1012 1.378 . S
C1010 C1014 1.350 . S
C1011 C1014 1.463 . S
C1011 C1016 1.350 . S
C1011 N1019 1.427 . S
C1012 H1003 0.930 . S
C1012 C1010 1.378 . S
C1012 C1013 1.367 . S
C1013 C1012 1.367 . S
C1013 C1015 1.433 . S
C1014 C1010 1.350 . S
C1014 C1011 1.463 . S
C1014 N1018 1.427 . S
C1015 H1005 0.929 . S
C1015 C1013 1.433 . S
C1015 N1018 1.384 . S
C1016 H1007 0.929 . S
C1016 C1008 1.378 . S
C1016 C1011 1.350 . S
C1017 H1004 0.929 . S
C1017 C1009 1.433 . S
C1017 N1019 1.384 . S
N1018 C1014 1.427 . S
N1018 C1015 1.384 . S
N1019 C1011 1.427 . S
N1019 C1017 1.384 . S
H1020 C1026 0.930 . S
H1021 C1030 0.930 . S
H1022 C1035 0.929 . S
H1023 C1033 0.929 . S
H1024 C1028 0.929 . S
H1025 C1034 0.929 . S
C1026 H1020 0.930 . S
C1026 C1027 1.367 . S
C1026 C1034 1.378 . S
C1027 C1026 1.367 . S
C1027 C1035 1.433 . S
C1028 H1024 0.929 . S
C1028 C1030 1.378 . S
C1028 C1032 1.350 . S
C1029 C1032 1.463 . S
C1029 C1034 1.350 . S
C1029 N1037 1.427 . S
C1030 H1021 0.930 . S
C1030 C1028 1.378 . S
C1030 C1031 1.367 . S
C1031 C1030 1.367 . S
C1031 C1033 1.433 . S
C1032 C1028 1.350 . S
C1032 C1029 1.463 . S
C1032 N1036 1.427 . S
C1033 H1023 0.929 . S
C1033 C1031 1.433 . S
C1033 N1036 1.384 . S
C1034 H1025 0.929 . S
C1034 C1026 1.378 . S
C1034 C1029 1.350 . S
C1035 H1022 0.929 . S
C1035 C1027 1.433 . S
C1035 N1037 1.384 . S
N1036 C1032 1.427 . S
N1036 C1033 1.384 . S
N1037 C1029 1.427 . S
N1037 C1035 1.384 . S
H1038 C1044 0.930 . S
H1039 C1048 0.930 . S
H1040 C1053 0.929 . S
H1041 C1051 0.929 . S
H1042 C1046 0.929 . S
H1043 C1052 0.929 . S
C1044 H1038 0.930 . S
C1044 C1045 1.367 . S
C1044 C1052 1.378 . S
C1045 C1044 1.367 . S
C1045 C1053 1.433 . S
C1046 H1042 0.929 . S
C1046 C1048 1.378 . S
C1046 C1050 1.350 . S
C1047 C1050 1.463 . S
C1047 C1052 1.350 . S
C1047 N1055 1.427 . S
C1048 H1039 0.930 . S
C1048 C1046 1.378 . S
C1048 C1049 1.367 . S
C1049 C1048 1.367 . S
C1049 C1051 1.433 . S
C1050 C1046 1.350 . S
C1050 C1047 1.463 . S
C1050 N1054 1.427 . S
C1051 H1041 0.929 . S
C1051 C1049 1.433 . S
C1051 N1054 1.384 . S
C1052 H1043 0.929 . S
C1052 C1044 1.378 . S
C1052 C1047 1.350 . S
C1053 H1040 0.929 . S
C1053 C1045 1.433 . S
C1053 N1055 1.384 . S
N1054 C1050 1.427 . S
N1054 C1051 1.384 . S
N1055 C1047 1.427 . S
N1055 C1053 1.384 . S
H1056 C1062 0.930 . S
H1057 C1066 0.930 . S
H1058 C1071 0.929 . S
H1059 C1069 0.929 . S
H1060 C1064 0.929 . S
H1061 C1070 0.929 . S
C1062 H1056 0.930 . S
C1062 C1063 1.367 . S
C1062 C1070 1.378 . S
C1063 C1062 1.367 . S
C1063 C1071 1.433 . S
C1064 H1060 0.929 . S
C1064 C1066 1.378 . S
C1064 C1068 1.350 . S
C1065 C1068 1.463 . S
C1065 C1070 1.350 . S
C1065 N1073 1.427 . S
C1066 H1057 0.930 . S
C1066 C1064 1.378 . S
C1066 C1067 1.367 . S
C1067 C1066 1.367 . S
C1067 C1069 1.433 . S
C1068 C1064 1.350 . S
C1068 C1065 1.463 . S
C1068 N1072 1.427 . S
C1069 H1059 0.929 . S
C1069 C1067 1.433 . S
C1069 N1072 1.384 . S
C1070 H1061 0.929 . S
C1070 C1062 1.378 . S
C1070 C1065 1.350 . S
C1071 H1058 0.929 . S
C1071 C1063 1.433 . S
C1071 N1073 1.384 . S
N1072 C1068 1.427 . S
N1072 C1069 1.384 . S
N1073 C1065 1.427 . S
N1073 C1071 1.384 . S
H1074 C1080 0.930 . S
H1075 C1084 0.930 . S
H1076 C1089 0.929 . S
H1077 C1087 0.929 . S
H1078 C1082 0.929 . S
H1079 C1088 0.929 . S
C1080 H1074 0.930 . S
C1080 C1081 1.367 . S
C1080 C1088 1.378 . S
C1081 C1080 1.367 . S
C1081 C1089 1.433 . S
C1082 H1078 0.929 . S
C1082 C1084 1.378 . S
C1082 C1086 1.350 . S
C1083 C1086 1.463 . S
C1083 C1088 1.350 . S
C1083 N1091 1.427 . S
C1084 H1075 0.930 . S
C1084 C1082 1.378 . S
C1084 C1085 1.367 . S
C1085 C1084 1.367 . S
C1085 C1087 1.433 . S
C1086 C1082 1.350 . S
C1086 C1083 1.463 . S
C1086 N1090 1.427 . S
C1087 H1077 0.929 . S
C1087 C1085 1.433 . S
C1087 N1090 1.384 . S
C1088 H1079 0.929 . S
C1088 C1080 1.378 . S
C1088 C1083 1.350 . S
C1089 H1076 0.929 . S
C1089 C1081 1.433 . S
C1089 N1091 1.384 . S
N1090 C1086 1.427 . S
N1090 C1087 1.384 . S
N1091 C1083 1.427 . S
N1091 C1089 1.384 . S
H1092 C1098 0.930 . S
H1093 C1102 0.930 . S
H1094 C1107 0.929 . S
H1095 C1105 0.929 . S
H1096 C1100 0.929 . S
H1097 C1106 0.929 . S
C1098 H1092 0.930 . S
C1098 C1099 1.367 . S
C1098 C1106 1.378 . S
C1099 C1098 1.367 . S
C1099 C1107 1.433 . S
C1100 H1096 0.929 . S
C1100 C1102 1.378 . S
C1100 C1104 1.350 . S
C1101 C1104 1.463 . S
C1101 C1106 1.350 . S
C1101 N1109 1.427 . S
C1102 H1093 0.930 . S
C1102 C1100 1.378 . S
C1102 C1103 1.367 . S
C1103 C1102 1.367 . S
C1103 C1105 1.433 . S
C1104 C1100 1.350 . S
C1104 C1101 1.463 . S
C1104 N1108 1.427 . S
C1105 H1095 0.929 . S
C1105 C1103 1.433 . S
C1105 N1108 1.384 . S
C1106 H1097 0.929 . S
C1106 C1098 1.378 . S
C1106 C1101 1.350 . S
C1107 H1094 0.929 . S
C1107 C1099 1.433 . S
C1107 N1109 1.384 . S
N1108 C1104 1.427 . S
N1108 C1105 1.384 . S
N1109 C1101 1.427 . S
N1109 C1107 1.384 . S
H1110 C1116 0.930 . S
H1111 C1120 0.930 . S
H1112 C1125 0.929 . S
H1113 C1123 0.929 . S
H1114 C1118 0.929 . S
H1115 C1124 0.929 . S
C1116 H1110 0.930 . S
C1116 C1117 1.367 . S
C1116 C1124 1.378 . S
C1117 C1116 1.367 . S
C1117 C1125 1.433 . S
C1118 H1114 0.929 . S
C1118 C1120 1.378 . S
C1118 C1122 1.350 . S
C1119 C1122 1.463 . S
C1119 C1124 1.350 . S
C1119 N1127 1.427 . S
C1120 H1111 0.930 . S
C1120 C1118 1.378 . S
C1120 C1121 1.367 . S
C1121 C1120 1.367 . S
C1121 C1123 1.433 . S
C1122 C1118 1.350 . S
C1122 C1119 1.463 . S
C1122 N1126 1.427 . S
C1123 H1113 0.929 . S
C1123 C1121 1.433 . S
C1123 N1126 1.384 . S
C1124 H1115 0.929 . S
C1124 C1116 1.378 . S
C1124 C1119 1.350 . S
C1125 H1112 0.929 . S
C1125 C1117 1.433 . S
C1125 N1127 1.384 . S
N1126 C1122 1.427 . S
N1126 C1123 1.384 . S
N1127 C1119 1.427 . S
N1127 C1125 1.384 . S
H1128 C1134 0.930 . S
H1129 C1138 0.930 . S
H1130 C1143 0.929 . S
H1131 C1141 0.929 . S
H1132 C1136 0.929 . S
H1133 C1142 0.929 . S
C1134 H1128 0.930 . S
C1134 C1135 1.367 . S
C1134 C1142 1.378 . S
C1135 C1134 1.367 . S
C1135 C1143 1.433 . S
C1136 H1132 0.929 . S
C1136 C1138 1.378 . S
C1136 C1140 1.350 . S
C1137 C1140 1.463 . S
C1137 C1142 1.350 . S
C1137 N1145 1.427 . S
C1138 H1129 0.930 . S
C1138 C1136 1.378 . S
C1138 C1139 1.367 . S
C1139 C1138 1.367 . S
C1139 C1141 1.433 . S
C1140 C1136 1.350 . S
C1140 C1137 1.463 . S
C1140 N1144 1.427 . S
C1141 H1131 0.929 . S
C1141 C1139 1.433 . S
C1141 N1144 1.384 . S
C1142 H1133 0.929 . S
C1142 C1134 1.378 . S
C1142 C1137 1.350 . S
C1143 H1130 0.929 . S
C1143 C1135 1.433 . S
C1143 N1145 1.384 . S
N1144 C1140 1.427 . S
N1144 C1141 1.384 . S
N1145 C1137 1.427 . S
N1145 C1143 1.384 . S
H1146 C1152 0.930 . S
H1147 C1156 0.930 . S
H1148 C1161 0.929 . S
H1149 C1159 0.929 . S
H1150 C1154 0.929 . S
H1151 C1160 0.929 . S
C1152 H1146 0.930 . S
C1152 C1153 1.367 . S
C1152 C1160 1.378 . S
C1153 C1152 1.367 . S
C1153 C1161 1.433 . S
C1154 H1150 0.929 . S
C1154 C1156 1.378 . S
C1154 C1158 1.350 . S
C1155 C1158 1.463 . S
C1155 C1160 1.350 . S
C1155 N1163 1.427 . S
C1156 H1147 0.930 . S
C1156 C1154 1.378 . S
C1156 C1157 1.367 . S
C1157 C1156 1.367 . S
C1157 C1159 1.433 . S
C1158 C1154 1.350 . S
C1158 C1155 1.463 . S
C1158 N1162 1.427 . S
C1159 H1149 0.929 . S
C1159 C1157 1.433 . S
C1159 N1162 1.384 . S
C1160 H1151 0.929 . S
C1160 C1152 1.378 . S
C1160 C1155 1.350 . S
C1161 H1148 0.929 . S
C1161 C1153 1.433 . S
C1161 N1163 1.384 . S
N1162 C1158 1.427 . S
N1162 C1159 1.384 . S
N1163 C1155 1.427 . S
N1163 C1161 1.384 . S
H1164 C1170 0.930 . S
H1165 C1174 0.930 . S
H1166 C1179 0.929 . S
H1167 C1177 0.929 . S
H1168 C1172 0.929 . S
H1169 C1178 0.929 . S
C1170 H1164 0.930 . S
C1170 C1171 1.367 . S
C1170 C1178 1.378 . S
C1171 C1170 1.367 . S
C1171 C1179 1.433 . S
C1172 H1168 0.929 . S
C1172 C1174 1.378 . S
C1172 C1176 1.350 . S
C1173 C1176 1.463 . S
C1173 C1178 1.350 . S
C1173 N1181 1.427 . S
C1174 H1165 0.930 . S
C1174 C1172 1.378 . S
C1174 C1175 1.367 . S
C1175 C1174 1.367 . S
C1175 C1177 1.433 . S
C1176 C1172 1.350 . S
C1176 C1173 1.463 . S
C1176 N1180 1.427 . S
C1177 H1167 0.929 . S
C1177 C1175 1.433 . S
C1177 N1180 1.384 . S
C1178 H1169 0.929 . S
C1178 C1170 1.378 . S
C1178 C1173 1.350 . S
C1179 H1166 0.929 . S
C1179 C1171 1.433 . S
C1179 N1181 1.384 . S
N1180 C1176 1.427 . S
N1180 C1177 1.384 . S
N1181 C1173 1.427 . S
N1181 C1179 1.384 . S
H1182 C1188 0.930 . S
H1183 C1192 0.930 . S
H1184 C1197 0.929 . S
H1185 C1195 0.929 . S
H1186 C1190 0.929 . S
H1187 C1196 0.929 . S
C1188 H1182 0.930 . S
C1188 C1189 1.367 . S
C1188 C1196 1.378 . S
C1189 C1188 1.367 . S
C1189 C1197 1.433 . S
C1190 H1186 0.929 . S
C1190 C1192 1.378 . S
C1190 C1194 1.350 . S
C1191 C1194 1.463 . S
C1191 C1196 1.350 . S
C1191 N1199 1.427 . S
C1192 H1183 0.930 . S
C1192 C1190 1.378 . S
C1192 C1193 1.367 . S
C1193 C1192 1.367 . S
C1193 C1195 1.433 . S
C1194 C1190 1.350 . S
C1194 C1191 1.463 . S
C1194 N1198 1.427 . S
C1195 H1185 0.929 . S
C1195 C1193 1.433 . S
C1195 N1198 1.384 . S
C1196 H1187 0.929 . S
C1196 C1188 1.378 . S
C1196 C1191 1.350 . S
C1197 H1184 0.929 . S
C1197 C1189 1.433 . S
C1197 N1199 1.384 . S
N1198 C1194 1.427 . S
N1198 C1195 1.384 . S
N1199 C1191 1.427 . S
N1199 C1197 1.384 . S
H1200 C1206 0.930 . S
H1201 C1210 0.930 . S
H1202 C1215 0.929 . S
H1203 C1213 0.929 . S
H1204 C1208 0.929 . S
H1205 C1214 0.929 . S
C1206 H1200 0.930 . S
C1206 C1207 1.367 . S
C1206 C1214 1.378 . S
C1207 C1206 1.367 . S
C1207 C1215 1.433 . S
C1208 H1204 0.929 . S
C1208 C1210 1.378 . S
C1208 C1212 1.350 . S
C1209 C1212 1.463 . S
C1209 C1214 1.350 . S
C1209 N1217 1.427 . S
C1210 H1201 0.930 . S
C1210 C1208 1.378 . S
C1210 C1211 1.367 . S
C1211 C1210 1.367 . S
C1211 C1213 1.433 . S
C1212 C1208 1.350 . S
C1212 C1209 1.463 . S
C1212 N1216 1.427 . S
C1213 H1203 0.929 . S
C1213 C1211 1.433 . S
C1213 N1216 1.384 . S
C1214 H1205 0.929 . S
C1214 C1206 1.378 . S
C1214 C1209 1.350 . S
C1215 H1202 0.929 . S
C1215 C1207 1.433 . S
C1215 N1217 1.384 . S
N1216 C1212 1.427 . S
N1216 C1213 1.384 . S
N1217 C1209 1.427 . S
N1217 C1215 1.384 . S
H1218 C1224 0.930 . S
H1219 C1228 0.930 . S
H1220 C1233 0.929 . S
H1221 C1231 0.929 . S
H1222 C1226 0.929 . S
H1223 C1232 0.929 . S
C1224 H1218 0.930 . S
C1224 C1225 1.367 . S
C1224 C1232 1.378 . S
C1225 C1224 1.367 . S
C1225 C1233 1.433 . S
C1226 H1222 0.929 . S
C1226 C1228 1.378 . S
C1226 C1230 1.350 . S
C1227 C1230 1.463 . S
C1227 C1232 1.350 . S
C1227 N1235 1.427 . S
C1228 H1219 0.930 . S
C1228 C1226 1.378 . S
C1228 C1229 1.367 . S
C1229 C1228 1.367 . S
C1229 C1231 1.433 . S
C1230 C1226 1.350 . S
C1230 C1227 1.463 . S
C1230 N1234 1.427 . S
C1231 H1221 0.929 . S
C1231 C1229 1.433 . S
C1231 N1234 1.384 . S
C1232 H1223 0.929 . S
C1232 C1224 1.378 . S
C1232 C1227 1.350 . S
C1233 H1220 0.929 . S
C1233 C1225 1.433 . S
C1233 N1235 1.384 . S
N1234 C1230 1.427 . S
N1234 C1231 1.384 . S
N1235 C1227 1.427 . S
N1235 C1233 1.384 . S
H1236 C1242 0.930 . S
H1237 C1246 0.930 . S
H1238 C1251 0.929 . S
H1239 C1249 0.929 . S
H1240 C1244 0.929 . S
H1241 C1250 0.929 . S
C1242 H1236 0.930 . S
C1242 C1243 1.367 . S
C1242 C1250 1.378 . S
C1243 C1242 1.367 . S
C1243 C1251 1.433 . S
C1244 H1240 0.929 . S
C1244 C1246 1.378 . S
C1244 C1248 1.350 . S
C1245 C1248 1.463 . S
C1245 C1250 1.350 . S
C1245 N1253 1.427 . S
C1246 H1237 0.930 . S
C1246 C1244 1.378 . S
C1246 C1247 1.367 . S
C1247 C1246 1.367 . S
C1247 C1249 1.433 . S
C1248 C1244 1.350 . S
C1248 C1245 1.463 . S
C1248 N1252 1.427 . S
C1249 H1239 0.929 . S
C1249 C1247 1.433 . S
C1249 N1252 1.384 . S
C1250 H1241 0.929 . S
C1250 C1242 1.378 . S
C1250 C1245 1.350 . S
C1251 H1238 0.929 . S
C1251 C1243 1.433 . S
C1251 N1253 1.384 . S
N1252 C1248 1.427 . S
N1252 C1249 1.384 . S
N1253 C1245 1.427 . S
N1253 C1251 1.384 . S
H1254 C1260 0.930 . S
H1255 C1264 0.930 . S
H1256 C1269 0.929 . S
H1257 C1267 0.929 . S
H1258 C1262 0.929 . S
H1259 C1268 0.929 . S
C1260 H1254 0.930 . S
C1260 C1261 1.367 . S
C1260 C1268 1.378 . S
C1261 C1260 1.367 . S
C1261 C1269 1.433 . S
C1262 H1258 0.929 . S
C1262 C1264 1.378 . S
C1262 C1266 1.350 . S
C1263 C1266 1.463 . S
C1263 C1268 1.350 . S
C1263 N1271 1.427 . S
C1264 H1255 0.930 . S
C1264 C1262 1.378 . S
C1264 C1265 1.367 . S
C1265 C1264 1.367 . S
C1265 C1267 1.433 . S
C1266 C1262 1.350 . S
C1266 C1263 1.463 . S
C1266 N1270 1.427 . S
C1267 H1257 0.929 . S
C1267 C1265 1.433 . S
C1267 N1270 1.384 . S
C1268 H1259 0.929 . S
C1268 C1260 1.378 . S
C1268 C1263 1.350 . S
C1269 H1256 0.929 . S
C1269 C1261 1.433 . S
C1269 N1271 1.384 . S
N1270 C1266 1.427 . S
N1270 C1267 1.384 . S
N1271 C1263 1.427 . S
N1271 C1269 1.384 . S
H1272 C1278 0.930 . S
H1273 C1282 0.930 . S
H1274 C1287 0.929 . S
H1275 C1285 0.929 . S
H1276 C1280 0.929 . S
H1277 C1286 0.929 . S
C1278 H1272 0.930 . S
C1278 C1279 1.367 . S
C1278 C1286 1.378 . S
C1279 C1278 1.367 . S
C1279 C1287 1.433 . S
C1280 H1276 0.929 . S
C1280 C1282 1.378 . S
C1280 C1284 1.350 . S
C1281 C1284 1.463 . S
C1281 C1286 1.350 . S
C1281 N1289 1.427 . S
C1282 H1273 0.930 . S
C1282 C1280 1.378 . S
C1282 C1283 1.367 . S
C1283 C1282 1.367 . S
C1283 C1285 1.433 . S
C1284 C1280 1.350 . S
C1284 C1281 1.463 . S
C1284 N1288 1.427 . S
C1285 H1275 0.929 . S
C1285 C1283 1.433 . S
C1285 N1288 1.384 . S
C1286 H1277 0.929 . S
C1286 C1278 1.378 . S
C1286 C1281 1.350 . S
C1287 H1274 0.929 . S
C1287 C1279 1.433 . S
C1287 N1289 1.384 . S
N1288 C1284 1.427 . S
N1288 C1285 1.384 . S
N1289 C1281 1.427 . S
N1289 C1287 1.384 . S
H1290 C1296 0.930 . S
H1291 C1300 0.930 . S
H1292 C1305 0.929 . S
H1293 C1303 0.929 . S
H1294 C1298 0.929 . S
H1295 C1304 0.929 . S
C1296 H1290 0.930 . S
C1296 C1297 1.367 . S
C1296 C1304 1.378 . S
C1297 C1296 1.367 . S
C1297 C1305 1.433 . S
C1298 H1294 0.929 . S
C1298 C1300 1.378 . S
C1298 C1302 1.350 . S
C1299 C1302 1.463 . S
C1299 C1304 1.350 . S
C1299 N1307 1.427 . S
C1300 H1291 0.930 . S
C1300 C1298 1.378 . S
C1300 C1301 1.367 . S
C1301 C1300 1.367 . S
C1301 C1303 1.433 . S
C1302 C1298 1.350 . S
C1302 C1299 1.463 . S
C1302 N1306 1.427 . S
C1303 H1293 0.929 . S
C1303 C1301 1.433 . S
C1303 N1306 1.384 . S
C1304 H1295 0.929 . S
C1304 C1296 1.378 . S
C1304 C1299 1.350 . S
C1305 H1292 0.929 . S
C1305 C1297 1.433 . S
C1305 N1307 1.384 . S
N1306 C1302 1.427 . S
N1306 C1303 1.384 . S
N1307 C1299 1.427 . S
N1307 C1305 1.384 . S
H1308 C1314 0.930 . S
H1309 C1318 0.930 . S
H1310 C1323 0.929 . S
H1311 C1321 0.929 . S
H1312 C1316 0.929 . S
H1313 C1322 0.929 . S
C1314 H1308 0.930 . S
C1314 C1315 1.367 . S
C1314 C1322 1.378 . S
C1315 C1314 1.367 . S
C1315 C1323 1.433 . S
C1316 H1312 0.929 . S
C1316 C1318 1.378 . S
C1316 C1320 1.350 . S
C1317 C1320 1.463 . S
C1317 C1322 1.350 . S
C1317 N1325 1.427 . S
C1318 H1309 0.930 . S
C1318 C1316 1.378 . S
C1318 C1319 1.367 . S
C1319 C1318 1.367 . S
C1319 C1321 1.433 . S
C1320 C1316 1.350 . S
C1320 C1317 1.463 . S
C1320 N1324 1.427 . S
C1321 H1311 0.929 . S
C1321 C1319 1.433 . S
C1321 N1324 1.384 . S
C1322 H1313 0.929 . S
C1322 C1314 1.378 . S
C1322 C1317 1.350 . S
C1323 H1310 0.929 . S
C1323 C1315 1.433 . S
C1323 N1325 1.384 . S
N1324 C1320 1.427 . S
N1324 C1321 1.384 . S
N1325 C1317 1.427 . S
N1325 C1323 1.384 . S
H1326 C1332 0.930 . S
H1327 C1336 0.930 . S
H1328 C1341 0.929 . S
H1329 C1339 0.929 . S
H1330 C1334 0.929 . S
H1331 C1340 0.929 . S
C1332 H1326 0.930 . S
C1332 C1333 1.367 . S
C1332 C1340 1.378 . S
C1333 C1332 1.367 . S
C1333 C1341 1.433 . S
C1334 H1330 0.929 . S
C1334 C1336 1.378 . S
C1334 C1338 1.350 . S
C1335 C1338 1.463 . S
C1335 C1340 1.350 . S
C1335 N1343 1.427 . S
C1336 H1327 0.930 . S
C1336 C1334 1.378 . S
C1336 C1337 1.367 . S
C1337 C1336 1.367 . S
C1337 C1339 1.433 . S
C1338 C1334 1.350 . S
C1338 C1335 1.463 . S
C1338 N1342 1.427 . S
C1339 H1329 0.929 . S
C1339 C1337 1.433 . S
C1339 N1342 1.384 . S
C1340 H1331 0.929 . S
C1340 C1332 1.378 . S
C1340 C1335 1.350 . S
C1341 H1328 0.929 . S
C1341 C1333 1.433 . S
C1341 N1343 1.384 . S
N1342 C1338 1.427 . S
N1342 C1339 1.384 . S
N1343 C1335 1.427 . S
N1343 C1341 1.384 . S
H1344 C1350 0.930 . S
H1345 C1354 0.930 . S
H1346 C1359 0.929 . S
H1347 C1357 0.929 . S
H1348 C1352 0.929 . S
H1349 C1358 0.929 . S
C1350 H1344 0.930 . S
C1350 C1351 1.367 . S
C1350 C1358 1.378 . S
C1351 C1350 1.367 . S
C1351 C1359 1.433 . S
C1352 H1348 0.929 . S
C1352 C1354 1.378 . S
C1352 C1356 1.350 . S
C1353 C1356 1.463 . S
C1353 C1358 1.350 . S
C1353 N1361 1.427 . S
C1354 H1345 0.930 . S
C1354 C1352 1.378 . S
C1354 C1355 1.367 . S
C1355 C1354 1.367 . S
C1355 C1357 1.433 . S
C1356 C1352 1.350 . S
C1356 C1353 1.463 . S
C1356 N1360 1.427 . S
C1357 H1347 0.929 . S
C1357 C1355 1.433 . S
C1357 N1360 1.384 . S
C1358 H1349 0.929 . S
C1358 C1350 1.378 . S
C1358 C1353 1.350 . S
C1359 H1346 0.929 . S
C1359 C1351 1.433 . S
C1359 N1361 1.384 . S
N1360 C1356 1.427 . S
N1360 C1357 1.384 . S
N1361 C1353 1.427 . S
N1361 C1359 1.384 . S
H1362 C1368 0.930 . S
H1363 C1372 0.930 . S
H1364 C1377 0.929 . S
H1365 C1375 0.929 . S
H1366 C1370 0.929 . S
H1367 C1376 0.929 . S
C1368 H1362 0.930 . S
C1368 C1369 1.367 . S
C1368 C1376 1.378 . S
C1369 C1368 1.367 . S
C1369 C1377 1.433 . S
C1370 H1366 0.929 . S
C1370 C1372 1.378 . S
C1370 C1374 1.350 . S
C1371 C1374 1.463 . S
C1371 C1376 1.350 . S
C1371 N1379 1.427 . S
C1372 H1363 0.930 . S
C1372 C1370 1.378 . S
C1372 C1373 1.367 . S
C1373 C1372 1.367 . S
C1373 C1375 1.433 . S
C1374 C1370 1.350 . S
C1374 C1371 1.463 . S
C1374 N1378 1.427 . S
C1375 H1365 0.929 . S
C1375 C1373 1.433 . S
C1375 N1378 1.384 . S
C1376 H1367 0.929 . S
C1376 C1368 1.378 . S
C1376 C1371 1.350 . S
C1377 H1364 0.929 . S
C1377 C1369 1.433 . S
C1377 N1379 1.384 . S
N1378 C1374 1.427 . S
N1378 C1375 1.384 . S
N1379 C1371 1.427 . S
N1379 C1377 1.384 . S
H1380 C1386 0.930 . S
H1381 C1390 0.930 . S
H1382 C1395 0.929 . S
H1383 C1393 0.929 . S
H1384 C1388 0.929 . S
H1385 C1394 0.929 . S
C1386 H1380 0.930 . S
C1386 C1387 1.367 . S
C1386 C1394 1.378 . S
C1387 C1386 1.367 . S
C1387 C1395 1.433 . S
C1388 H1384 0.929 . S
C1388 C1390 1.378 . S
C1388 C1392 1.350 . S
C1389 C1392 1.463 . S
C1389 C1394 1.350 . S
C1389 N1397 1.427 . S
C1390 H1381 0.930 . S
C1390 C1388 1.378 . S
C1390 C1391 1.367 . S
C1391 C1390 1.367 . S
C1391 C1393 1.433 . S
C1392 C1388 1.350 . S
C1392 C1389 1.463 . S
C1392 N1396 1.427 . S
C1393 H1383 0.929 . S
C1393 C1391 1.433 . S
C1393 N1396 1.384 . S
C1394 H1385 0.929 . S
C1394 C1386 1.378 . S
C1394 C1389 1.350 . S
C1395 H1382 0.929 . S
C1395 C1387 1.433 . S
C1395 N1397 1.384 . S
N1396 C1392 1.427 . S
N1396 C1393 1.384 . S
N1397 C1389 1.427 . S
N1397 C1395 1.384 . S
H1398 C1404 0.930 . S
H1399 C1408 0.930 . S
H1400 C1413 0.929 . S
H1401 C1411 0.929 . S
H1402 C1406 0.929 . S
H1403 C1412 0.929 . S
C1404 H1398 0.930 . S
C1404 C1405 1.367 . S
C1404 C1412 1.378 . S
C1405 C1404 1.367 . S
C1405 C1413 1.433 . S
C1406 H1402 0.929 . S
C1406 C1408 1.378 . S
C1406 C1410 1.350 . S
C1407 C1410 1.463 . S
C1407 C1412 1.350 . S
C1407 N1415 1.427 . S
C1408 H1399 0.930 . S
C1408 C1406 1.378 . S
C1408 C1409 1.367 . S
C1409 C1408 1.367 . S
C1409 C1411 1.433 . S
C1410 C1406 1.350 . S
C1410 C1407 1.463 . S
C1410 N1414 1.427 . S
C1411 H1401 0.929 . S
C1411 C1409 1.433 . S
C1411 N1414 1.384 . S
C1412 H1403 0.929 . S
C1412 C1404 1.378 . S
C1412 C1407 1.350 . S
C1413 H1400 0.929 . S
C1413 C1405 1.433 . S
C1413 N1415 1.384 . S
N1414 C1410 1.427 . S
N1414 C1411 1.384 . S
N1415 C1407 1.427 . S
N1415 C1413 1.384 . S
H1416 C1422 0.930 . S
H1417 C1426 0.930 . S
H1418 C1431 0.929 . S
H1419 C1429 0.929 . S
H1420 C1424 0.929 . S
H1421 C1430 0.929 . S
C1422 H1416 0.930 . S
C1422 C1423 1.367 . S
C1422 C1430 1.378 . S
C1423 C1422 1.367 . S
C1423 C1431 1.433 . S
C1424 H1420 0.929 . S
C1424 C1426 1.378 . S
C1424 C1428 1.350 . S
C1425 C1428 1.463 . S
C1425 C1430 1.350 . S
C1425 N1433 1.427 . S
C1426 H1417 0.930 . S
C1426 C1424 1.378 . S
C1426 C1427 1.367 . S
C1427 C1426 1.367 . S
C1427 C1429 1.433 . S
C1428 C1424 1.350 . S
C1428 C1425 1.463 . S
C1428 N1432 1.427 . S
C1429 H1419 0.929 . S
C1429 C1427 1.433 . S
C1429 N1432 1.384 . S
C1430 H1421 0.929 . S
C1430 C1422 1.378 . S
C1430 C1425 1.350 . S
C1431 H1418 0.929 . S
C1431 C1423 1.433 . S
C1431 N1433 1.384 . S
N1432 C1428 1.427 . S
N1432 C1429 1.384 . S
N1433 C1425 1.427 . S
N1433 C1431 1.384 . S
H1434 C1440 0.930 . S
H1435 C1444 0.930 . S
H1436 C1449 0.929 . S
H1437 C1447 0.929 . S
H1438 C1442 0.929 . S
H1439 C1448 0.929 . S
C1440 H1434 0.930 . S
C1440 C1441 1.367 . S
C1440 C1448 1.378 . S
C1441 C1440 1.367 . S
C1441 C1449 1.433 . S
C1442 H1438 0.929 . S
C1442 C1444 1.378 . S
C1442 C1446 1.350 . S
C1443 C1446 1.463 . S
C1443 C1448 1.350 . S
C1443 N1451 1.427 . S
C1444 H1435 0.930 . S
C1444 C1442 1.378 . S
C1444 C1445 1.367 . S
C1445 C1444 1.367 . S
C1445 C1447 1.433 . S
C1446 C1442 1.350 . S
C1446 C1443 1.463 . S
C1446 N1450 1.427 . S
C1447 H1437 0.929 . S
C1447 C1445 1.433 . S
C1447 N1450 1.384 . S
C1448 H1439 0.929 . S
C1448 C1440 1.378 . S
C1448 C1443 1.350 . S
C1449 H1436 0.929 . S
C1449 C1441 1.433 . S
C1449 N1451 1.384 . S
N1450 C1446 1.427 . S
N1450 C1447 1.384 . S
N1451 C1443 1.427 . S
N1451 C1449 1.384 . S
H1452 C1458 0.930 . S
H1453 C1462 0.930 . S
H1454 C1467 0.929 . S
H1455 C1465 0.929 . S
H1456 C1460 0.929 . S
H1457 C1466 0.929 . S
C1458 H1452 0.930 . S
C1458 C1459 1.367 . S
C1458 C1466 1.378 . S
C1459 C1458 1.367 . S
C1459 C1467 1.433 . S
C1460 H1456 0.929 . S
C1460 C1462 1.378 . S
C1460 C1464 1.350 . S
C1461 C1464 1.463 . S
C1461 C1466 1.350 . S
C1461 N1469 1.427 . S
C1462 H1453 0.930 . S
C1462 C1460 1.378 . S
C1462 C1463 1.367 . S
C1463 C1462 1.367 . S
C1463 C1465 1.433 . S
C1464 C1460 1.350 . S
C1464 C1461 1.463 . S
C1464 N1468 1.427 . S
C1465 H1455 0.929 . S
C1465 C1463 1.433 . S
C1465 N1468 1.384 . S
C1466 H1457 0.929 . S
C1466 C1458 1.378 . S
C1466 C1461 1.350 . S
C1467 H1454 0.929 . S
C1467 C1459 1.433 . S
C1467 N1469 1.384 . S
N1468 C1464 1.427 . S
N1468 C1465 1.384 . S
N1469 C1461 1.427 . S
N1469 C1467 1.384 . S
H1470 C1476 0.930 . S
H1471 C1480 0.930 . S
H1472 C1485 0.929 . S
H1473 C1483 0.929 . S
H1474 C1478 0.929 . S
H1475 C1484 0.929 . S
C1476 H1470 0.930 . S
C1476 C1477 1.367 . S
C1476 C1484 1.378 . S
C1477 C1476 1.367 . S
C1477 C1485 1.433 . S
C1478 H1474 0.929 . S
C1478 C1480 1.378 . S
C1478 C1482 1.350 . S
C1479 C1482 1.463 . S
C1479 C1484 1.350 . S
C1479 N1487 1.427 . S
C1480 H1471 0.930 . S
C1480 C1478 1.378 . S
C1480 C1481 1.367 . S
C1481 C1480 1.367 . S
C1481 C1483 1.433 . S
C1482 C1478 1.350 . S
C1482 C1479 1.463 . S
C1482 N1486 1.427 . S
C1483 H1473 0.929 . S
C1483 C1481 1.433 . S
C1483 N1486 1.384 . S
C1484 H1475 0.929 . S
C1484 C1476 1.378 . S
C1484 C1479 1.350 . S
C1485 H1472 0.929 . S
C1485 C1477 1.433 . S
C1485 N1487 1.384 . S
N1486 C1482 1.427 . S
N1486 C1483 1.384 . S
N1487 C1479 1.427 . S
N1487 C1485 1.384 . S
H1488 C1494 0.930 . S
H1489 C1498 0.930 . S
H1490 C1503 0.929 . S
H1491 C1501 0.929 . S
H1492 C1496 0.929 . S
H1493 C1502 0.929 . S
C1494 H1488 0.930 . S
C1494 C1495 1.367 . S
C1494 C1502 1.378 . S
C1495 C1494 1.367 . S
C1495 C1503 1.433 . S
C1496 H1492 0.929 . S
C1496 C1498 1.378 . S
C1496 C1500 1.350 . S
C1497 C1500 1.463 . S
C1497 C1502 1.350 . S
C1497 N1505 1.427 . S
C1498 H1489 0.930 . S
C1498 C1496 1.378 . S
C1498 C1499 1.367 . S
C1499 C1498 1.367 . S
C1499 C1501 1.433 . S
C1500 C1496 1.350 . S
C1500 C1497 1.463 . S
C1500 N1504 1.427 . S
C1501 H1491 0.929 . S
C1501 C1499 1.433 . S
C1501 N1504 1.384 . S
C1502 H1493 0.929 . S
C1502 C1494 1.378 . S
C1502 C1497 1.350 . S
C1503 H1490 0.929 . S
C1503 C1495 1.433 . S
C1503 N1505 1.384 . S
N1504 C1500 1.427 . S
N1504 C1501 1.384 . S
N1505 C1497 1.427 . S
N1505 C1503 1.384 . S
H1506 C1512 0.930 . S
H1507 C1516 0.930 . S
H1508 C1521 0.929 . S
H1509 C1519 0.929 . S
H1510 C1514 0.929 . S
H1511 C1520 0.929 . S
C1512 H1506 0.930 . S
C1512 C1513 1.367 . S
C1512 C1520 1.378 . S
C1513 C1512 1.367 . S
C1513 C1521 1.433 . S
C1514 H1510 0.929 . S
C1514 C1516 1.378 . S
C1514 C1518 1.350 . S
C1515 C1518 1.463 . S
C1515 C1520 1.350 . S
C1515 N1523 1.427 . S
C1516 H1507 0.930 . S
C1516 C1514 1.378 . S
C1516 C1517 1.367 . S
C1517 C1516 1.367 . S
C1517 C1519 1.433 . S
C1518 C1514 1.350 . S
C1518 C1515 1.463 . S
C1518 N1522 1.427 . S
C1519 H1509 0.929 . S
C1519 C1517 1.433 . S
C1519 N1522 1.384 . S
C1520 H1511 0.929 . S
C1520 C1512 1.378 . S
C1520 C1515 1.350 . S
C1521 H1508 0.929 . S
C1521 C1513 1.433 . S
C1521 N1523 1.384 . S
N1522 C1518 1.427 . S
N1522 C1519 1.384 . S
N1523 C1515 1.427 . S
N1523 C1521 1.384 . S
H1524 C1530 0.930 . S
H1525 C1534 0.930 . S
H1526 C1539 0.929 . S
H1527 C1537 0.929 . S
H1528 C1532 0.929 . S
H1529 C1538 0.929 . S
C1530 H1524 0.930 . S
C1530 C1531 1.367 . S
C1530 C1538 1.378 . S
C1531 C1530 1.367 . S
C1531 C1539 1.433 . S
C1532 H1528 0.929 . S
C1532 C1534 1.378 . S
C1532 C1536 1.350 . S
C1533 C1536 1.463 . S
C1533 C1538 1.350 . S
C1533 N1541 1.427 . S
C1534 H1525 0.930 . S
C1534 C1532 1.378 . S
C1534 C1535 1.367 . S
C1535 C1534 1.367 . S
C1535 C1537 1.433 . S
C1536 C1532 1.350 . S
C1536 C1533 1.463 . S
C1536 N1540 1.427 . S
C1537 H1527 0.929 . S
C1537 C1535 1.433 . S
C1537 N1540 1.384 . S
C1538 H1529 0.929 . S
C1538 C1530 1.378 . S
C1538 C1533 1.350 . S
C1539 H1526 0.929 . S
C1539 C1531 1.433 . S
C1539 N1541 1.384 . S
N1540 C1536 1.427 . S
N1540 C1537 1.384 . S
N1541 C1533 1.427 . S
N1541 C1539 1.384 . S
H1542 C1548 0.930 . S
H1543 C1552 0.930 . S
H1544 C1557 0.929 . S
H1545 C1555 0.929 . S
H1546 C1550 0.929 . S
H1547 C1556 0.929 . S
C1548 H1542 0.930 . S
C1548 C1549 1.367 . S
C1548 C1556 1.378 . S
C1549 C1548 1.367 . S
C1549 C1557 1.433 . S
C1550 H1546 0.929 . S
C1550 C1552 1.378 . S
C1550 C1554 1.350 . S
C1551 C1554 1.463 . S
C1551 C1556 1.350 . S
C1551 N1559 1.427 . S
C1552 H1543 0.930 . S
C1552 C1550 1.378 . S
C1552 C1553 1.367 . S
C1553 C1552 1.367 . S
C1553 C1555 1.433 . S
C1554 C1550 1.350 . S
C1554 C1551 1.463 . S
C1554 N1558 1.427 . S
C1555 H1545 0.929 . S
C1555 C1553 1.433 . S
C1555 N1558 1.384 . S
C1556 H1547 0.929 . S
C1556 C1548 1.378 . S
C1556 C1551 1.350 . S
C1557 H1544 0.929 . S
C1557 C1549 1.433 . S
C1557 N1559 1.384 . S
N1558 C1554 1.427 . S
N1558 C1555 1.384 . S
N1559 C1551 1.427 . S
N1559 C1557 1.384 . S
H1560 C1566 0.930 . S
H1561 C1570 0.930 . S
H1562 C1575 0.929 . S
H1563 C1573 0.929 . S
H1564 C1568 0.929 . S
H1565 C1574 0.929 . S
C1566 H1560 0.930 . S
C1566 C1567 1.367 . S
C1566 C1574 1.378 . S
C1567 C1566 1.367 . S
C1567 C1575 1.433 . S
C1568 H1564 0.929 . S
C1568 C1570 1.378 . S
C1568 C1572 1.350 . S
C1569 C1572 1.463 . S
C1569 C1574 1.350 . S
C1569 N1577 1.427 . S
C1570 H1561 0.930 . S
C1570 C1568 1.378 . S
C1570 C1571 1.367 . S
C1571 C1570 1.367 . S
C1571 C1573 1.433 . S
C1572 C1568 1.350 . S
C1572 C1569 1.463 . S
C1572 N1576 1.427 . S
C1573 H1563 0.929 . S
C1573 C1571 1.433 . S
C1573 N1576 1.384 . S
C1574 H1565 0.929 . S
C1574 C1566 1.378 . S
C1574 C1569 1.350 . S
C1575 H1562 0.929 . S
C1575 C1567 1.433 . S
C1575 N1577 1.384 . S
N1576 C1572 1.427 . S
N1576 C1573 1.384 . S
N1577 C1569 1.427 . S
N1577 C1575 1.384 . S
H1578 C1584 0.930 . S
H1579 C1588 0.930 . S
H1580 C1593 0.929 . S
H1581 C1591 0.929 . S
H1582 C1586 0.929 . S
H1583 C1592 0.929 . S
C1584 H1578 0.930 . S
C1584 C1585 1.367 . S
C1584 C1592 1.378 . S
C1585 C1584 1.367 . S
C1585 C1593 1.433 . S
C1586 H1582 0.929 . S
C1586 C1588 1.378 . S
C1586 C1590 1.350 . S
C1587 C1590 1.463 . S
C1587 C1592 1.350 . S
C1587 N1595 1.427 . S
C1588 H1579 0.930 . S
C1588 C1586 1.378 . S
C1588 C1589 1.367 . S
C1589 C1588 1.367 . S
C1589 C1591 1.433 . S
C1590 C1586 1.350 . S
C1590 C1587 1.463 . S
C1590 N1594 1.427 . S
C1591 H1581 0.929 . S
C1591 C1589 1.433 . S
C1591 N1594 1.384 . S
C1592 H1583 0.929 . S
C1592 C1584 1.378 . S
C1592 C1587 1.350 . S
C1593 H1580 0.929 . S
C1593 C1585 1.433 . S
C1593 N1595 1.384 . S
N1594 C1590 1.427 . S
N1594 C1591 1.384 . S
N1595 C1587 1.427 . S
N1595 C1593 1.384 . S
H1596 C1602 0.930 . S
H1597 C1606 0.930 . S
H1598 C1611 0.929 . S
H1599 C1609 0.929 . S
H1600 C1604 0.929 . S
H1601 C1610 0.929 . S
C1602 H1596 0.930 . S
C1602 C1603 1.367 . S
C1602 C1610 1.378 . S
C1603 C1602 1.367 . S
C1603 C1611 1.433 . S
C1604 H1600 0.929 . S
C1604 C1606 1.378 . S
C1604 C1608 1.350 . S
C1605 C1608 1.463 . S
C1605 C1610 1.350 . S
C1605 N1613 1.427 . S
C1606 H1597 0.930 . S
C1606 C1604 1.378 . S
C1606 C1607 1.367 . S
C1607 C1606 1.367 . S
C1607 C1609 1.433 . S
C1608 C1604 1.350 . S
C1608 C1605 1.463 . S
C1608 N1612 1.427 . S
C1609 H1599 0.929 . S
C1609 C1607 1.433 . S
C1609 N1612 1.384 . S
C1610 H1601 0.929 . S
C1610 C1602 1.378 . S
C1610 C1605 1.350 . S
C1611 H1598 0.929 . S
C1611 C1603 1.433 . S
C1611 N1613 1.384 . S
N1612 C1608 1.427 . S
N1612 C1609 1.384 . S
N1613 C1605 1.427 . S
N1613 C1611 1.384 . S
H1614 C1620 0.930 . S
H1615 C1624 0.930 . S
H1616 C1629 0.929 . S
H1617 C1627 0.929 . S
H1618 C1622 0.929 . S
H1619 C1628 0.929 . S
C1620 H1614 0.930 . S
C1620 C1621 1.367 . S
C1620 C1628 1.378 . S
C1621 C1620 1.367 . S
C1621 C1629 1.433 . S
C1622 H1618 0.929 . S
C1622 C1624 1.378 . S
C1622 C1626 1.350 . S
C1623 C1626 1.463 . S
C1623 C1628 1.350 . S
C1623 N1631 1.427 . S
C1624 H1615 0.930 . S
C1624 C1622 1.378 . S
C1624 C1625 1.367 . S
C1625 C1624 1.367 . S
C1625 C1627 1.433 . S
C1626 C1622 1.350 . S
C1626 C1623 1.463 . S
C1626 N1630 1.427 . S
C1627 H1617 0.929 . S
C1627 C1625 1.433 . S
C1627 N1630 1.384 . S
C1628 H1619 0.929 . S
C1628 C1620 1.378 . S
C1628 C1623 1.350 . S
C1629 H1616 0.929 . S
C1629 C1621 1.433 . S
C1629 N1631 1.384 . S
N1630 C1626 1.427 . S
N1630 C1627 1.384 . S
N1631 C1623 1.427 . S
N1631 C1629 1.384 . S
H1632 C1638 0.930 . S
H1633 C1642 0.930 . S
H1634 C1647 0.929 . S
H1635 C1645 0.929 . S
H1636 C1640 0.929 . S
H1637 C1646 0.929 . S
C1638 H1632 0.930 . S
C1638 C1639 1.367 . S
C1638 C1646 1.378 . S
C1639 C1638 1.367 . S
C1639 C1647 1.433 . S
C1640 H1636 0.929 . S
C1640 C1642 1.378 . S
C1640 C1644 1.350 . S
C1641 C1644 1.463 . S
C1641 C1646 1.350 . S
C1641 N1649 1.427 . S
C1642 H1633 0.930 . S
C1642 C1640 1.378 . S
C1642 C1643 1.367 . S
C1643 C1642 1.367 . S
C1643 C1645 1.433 . S
C1644 C1640 1.350 . S
C1644 C1641 1.463 . S
C1644 N1648 1.427 . S
C1645 H1635 0.929 . S
C1645 C1643 1.433 . S
C1645 N1648 1.384 . S
C1646 H1637 0.929 . S
C1646 C1638 1.378 . S
C1646 C1641 1.350 . S
C1647 H1634 0.929 . S
C1647 C1639 1.433 . S
C1647 N1649 1.384 . S
N1648 C1644 1.427 . S
N1648 C1645 1.384 . S
N1649 C1641 1.427 . S
N1649 C1647 1.384 . S
H1650 C1656 0.930 . S
H1651 C1660 0.930 . S
H1652 C1665 0.929 . S
H1653 C1663 0.929 . S
H1654 C1658 0.929 . S
H1655 C1664 0.929 . S
C1656 H1650 0.930 . S
C1656 C1657 1.367 . S
C1656 C1664 1.378 . S
C1657 C1656 1.367 . S
C1657 C1665 1.433 . S
C1658 H1654 0.929 . S
C1658 C1660 1.378 . S
C1658 C1662 1.350 . S
C1659 C1662 1.463 . S
C1659 C1664 1.350 . S
C1659 N1667 1.427 . S
C1660 H1651 0.930 . S
C1660 C1658 1.378 . S
C1660 C1661 1.367 . S
C1661 C1660 1.367 . S
C1661 C1663 1.433 . S
C1662 C1658 1.350 . S
C1662 C1659 1.463 . S
C1662 N1666 1.427 . S
C1663 H1653 0.929 . S
C1663 C1661 1.433 . S
C1663 N1666 1.384 . S
C1664 H1655 0.929 . S
C1664 C1656 1.378 . S
C1664 C1659 1.350 . S
C1665 H1652 0.929 . S
C1665 C1657 1.433 . S
C1665 N1667 1.384 . S
N1666 C1662 1.427 . S
N1666 C1663 1.384 . S
N1667 C1659 1.427 . S
N1667 C1665 1.384 . S
H1668 C1674 0.930 . S
H1669 C1678 0.930 . S
H1670 C1683 0.929 . S
H1671 C1681 0.929 . S
H1672 C1676 0.929 . S
H1673 C1682 0.929 . S
C1674 H1668 0.930 . S
C1674 C1675 1.367 . S
C1674 C1682 1.378 . S
C1675 C1674 1.367 . S
C1675 C1683 1.433 . S
C1676 H1672 0.929 . S
C1676 C1678 1.378 . S
C1676 C1680 1.350 . S
C1677 C1680 1.463 . S
C1677 C1682 1.350 . S
C1677 N1685 1.427 . S
C1678 H1669 0.930 . S
C1678 C1676 1.378 . S
C1678 C1679 1.367 . S
C1679 C1678 1.367 . S
C1679 C1681 1.433 . S
C1680 C1676 1.350 . S
C1680 C1677 1.463 . S
C1680 N1684 1.427 . S
C1681 H1671 0.929 . S
C1681 C1679 1.433 . S
C1681 N1684 1.384 . S
C1682 H1673 0.929 . S
C1682 C1674 1.378 . S
C1682 C1677 1.350 . S
C1683 H1670 0.929 . S
C1683 C1675 1.433 . S
C1683 N1685 1.384 . S
N1684 C1680 1.427 . S
N1684 C1681 1.384 . S
N1685 C1677 1.427 . S
N1685 C1683 1.384 . S
H1686 C1692 0.930 . S
H1687 C1696 0.930 . S
H1688 C1701 0.929 . S
H1689 C1699 0.929 . S
H1690 C1694 0.929 . S
H1691 C1700 0.929 . S
C1692 H1686 0.930 . S
C1692 C1693 1.367 . S
C1692 C1700 1.378 . S
C1693 C1692 1.367 . S
C1693 C1701 1.433 . S
C1694 H1690 0.929 . S
C1694 C1696 1.378 . S
C1694 C1698 1.350 . S
C1695 C1698 1.463 . S
C1695 C1700 1.350 . S
C1695 N1703 1.427 . S
C1696 H1687 0.930 . S
C1696 C1694 1.378 . S
C1696 C1697 1.367 . S
C1697 C1696 1.367 . S
C1697 C1699 1.433 . S
C1698 C1694 1.350 . S
C1698 C1695 1.463 . S
C1698 N1702 1.427 . S
C1699 H1689 0.929 . S
C1699 C1697 1.433 . S
C1699 N1702 1.384 . S
C1700 H1691 0.929 . S
C1700 C1692 1.378 . S
C1700 C1695 1.350 . S
C1701 H1688 0.929 . S
C1701 C1693 1.433 . S
C1701 N1703 1.384 . S
N1702 C1698 1.427 . S
N1702 C1699 1.384 . S
N1703 C1695 1.427 . S
N1703 C1701 1.384 . S
H1704 C1710 0.930 . S
H1705 C1714 0.930 . S
H1706 C1719 0.929 . S
H1707 C1717 0.929 . S
H1708 C1712 0.929 . S
H1709 C1718 0.929 . S
C1710 H1704 0.930 . S
C1710 C1711 1.367 . S
C1710 C1718 1.378 . S
C1711 C1710 1.367 . S
C1711 C1719 1.433 . S
C1712 H1708 0.929 . S
C1712 C1714 1.378 . S
C1712 C1716 1.350 . S
C1713 C1716 1.463 . S
C1713 C1718 1.350 . S
C1713 N1721 1.427 . S
C1714 H1705 0.930 . S
C1714 C1712 1.378 . S
C1714 C1715 1.367 . S
C1715 C1714 1.367 . S
C1715 C1717 1.433 . S
C1716 C1712 1.350 . S
C1716 C1713 1.463 . S
C1716 N1720 1.427 . S
C1717 H1707 0.929 . S
C1717 C1715 1.433 . S
C1717 N1720 1.384 . S
C1718 H1709 0.929 . S
C1718 C1710 1.378 . S
C1718 C1713 1.350 . S
C1719 H1706 0.929 . S
C1719 C1711 1.433 . S
C1719 N1721 1.384 . S
N1720 C1716 1.427 . S
N1720 C1717 1.384 . S
N1721 C1713 1.427 . S
N1721 C1719 1.384 . S
H1722 C1728 0.930 . S
H1723 C1732 0.930 . S
H1724 C1737 0.929 . S
H1725 C1735 0.929 . S
H1726 C1730 0.929 . S
H1727 C1736 0.929 . S
C1728 H1722 0.930 . S
C1728 C1729 1.367 . S
C1728 C1736 1.378 . S
C1729 C1728 1.367 . S
C1729 C1737 1.433 . S
C1730 H1726 0.929 . S
C1730 C1732 1.378 . S
C1730 C1734 1.350 . S
C1731 C1734 1.463 . S
C1731 C1736 1.350 . S
C1731 N1739 1.427 . S
C1732 H1723 0.930 . S
C1732 C1730 1.378 . S
C1732 C1733 1.367 . S
C1733 C1732 1.367 . S
C1733 C1735 1.433 . S
C1734 C1730 1.350 . S
C1734 C1731 1.463 . S
C1734 N1738 1.427 . S
C1735 H1725 0.929 . S
C1735 C1733 1.433 . S
C1735 N1738 1.384 . S
C1736 H1727 0.929 . S
C1736 C1728 1.378 . S
C1736 C1731 1.350 . S
C1737 H1724 0.929 . S
C1737 C1729 1.433 . S
C1737 N1739 1.384 . S
N1738 C1734 1.427 . S
N1738 C1735 1.384 . S
N1739 C1731 1.427 . S
N1739 C1737 1.384 . S
H1740 C1746 0.930 . S
H1741 C1750 0.930 . S
H1742 C1755 0.929 . S
H1743 C1753 0.929 . S
H1744 C1748 0.929 . S
H1745 C1754 0.929 . S
C1746 H1740 0.930 . S
C1746 C1747 1.367 . S
C1746 C1754 1.378 . S
C1747 C1746 1.367 . S
C1747 C1755 1.433 . S
C1748 H1744 0.929 . S
C1748 C1750 1.378 . S
C1748 C1752 1.350 . S
C1749 C1752 1.463 . S
C1749 C1754 1.350 . S
C1749 N1757 1.427 . S
C1750 H1741 0.930 . S
C1750 C1748 1.378 . S
C1750 C1751 1.367 . S
C1751 C1750 1.367 . S
C1751 C1753 1.433 . S
C1752 C1748 1.350 . S
C1752 C1749 1.463 . S
C1752 N1756 1.427 . S
C1753 H1743 0.929 . S
C1753 C1751 1.433 . S
C1753 N1756 1.384 . S
C1754 H1745 0.929 . S
C1754 C1746 1.378 . S
C1754 C1749 1.350 . S
C1755 H1742 0.929 . S
C1755 C1747 1.433 . S
C1755 N1757 1.384 . S
N1756 C1752 1.427 . S
N1756 C1753 1.384 . S
N1757 C1749 1.427 . S
N1757 C1755 1.384 . S
H1758 C1764 0.930 . S
H1759 C1768 0.930 . S
H1760 C1773 0.929 . S
H1761 C1771 0.929 . S
H1762 C1766 0.929 . S
H1763 C1772 0.929 . S
C1764 H1758 0.930 . S
C1764 C1765 1.367 . S
C1764 C1772 1.378 . S
C1765 C1764 1.367 . S
C1765 C1773 1.433 . S
C1766 H1762 0.929 . S
C1766 C1768 1.378 . S
C1766 C1770 1.350 . S
C1767 C1770 1.463 . S
C1767 C1772 1.350 . S
C1767 N1775 1.427 . S
C1768 H1759 0.930 . S
C1768 C1766 1.378 . S
C1768 C1769 1.367 . S
C1769 C1768 1.367 . S
C1769 C1771 1.433 . S
C1770 C1766 1.350 . S
C1770 C1767 1.463 . S
C1770 N1774 1.427 . S
C1771 H1761 0.929 . S
C1771 C1769 1.433 . S
C1771 N1774 1.384 . S
C1772 H1763 0.929 . S
C1772 C1764 1.378 . S
C1772 C1767 1.350 . S
C1773 H1760 0.929 . S
C1773 C1765 1.433 . S
C1773 N1775 1.384 . S
N1774 C1770 1.427 . S
N1774 C1771 1.384 . S
N1775 C1767 1.427 . S
N1775 C1773 1.384 . S
H1776 C1782 0.930 . S
H1777 C1786 0.930 . S
H1778 C1791 0.929 . S
H1779 C1789 0.929 . S
H1780 C1784 0.929 . S
H1781 C1790 0.929 . S
C1782 H1776 0.930 . S
C1782 C1783 1.367 . S
C1782 C1790 1.378 . S
C1783 C1782 1.367 . S
C1783 C1791 1.433 . S
C1784 H1780 0.929 . S
C1784 C1786 1.378 . S
C1784 C1788 1.350 . S
C1785 C1788 1.463 . S
C1785 C1790 1.350 . S
C1785 N1793 1.427 . S
C1786 H1777 0.930 . S
C1786 C1784 1.378 . S
C1786 C1787 1.367 . S
C1787 C1786 1.367 . S
C1787 C1789 1.433 . S
C1788 C1784 1.350 . S
C1788 C1785 1.463 . S
C1788 N1792 1.427 . S
C1789 H1779 0.929 . S
C1789 C1787 1.433 . S
C1789 N1792 1.384 . S
C1790 H1781 0.929 . S
C1790 C1782 1.378 . S
C1790 C1785 1.350 . S
C1791 H1778 0.929 . S
C1791 C1783 1.433 . S
C1791 N1793 1.384 . S
N1792 C1788 1.427 . S
N1792 C1789 1.384 . S
N1793 C1785 1.427 . S
N1793 C1791 1.384 . S
H1794 C1800 0.930 . S
H1795 C1804 0.930 . S
H1796 C1809 0.929 . S
H1797 C1807 0.929 . S
H1798 C1802 0.929 . S
H1799 C1808 0.929 . S
C1800 H1794 0.930 . S
C1800 C1801 1.367 . S
C1800 C1808 1.378 . S
C1801 C1800 1.367 . S
C1801 C1809 1.433 . S
C1802 H1798 0.929 . S
C1802 C1804 1.378 . S
C1802 C1806 1.350 . S
C1803 C1806 1.463 . S
C1803 C1808 1.350 . S
C1803 N1811 1.427 . S
C1804 H1795 0.930 . S
C1804 C1802 1.378 . S
C1804 C1805 1.367 . S
C1805 C1804 1.367 . S
C1805 C1807 1.433 . S
C1806 C1802 1.350 . S
C1806 C1803 1.463 . S
C1806 N1810 1.427 . S
C1807 H1797 0.929 . S
C1807 C1805 1.433 . S
C1807 N1810 1.384 . S
C1808 H1799 0.929 . S
C1808 C1800 1.378 . S
C1808 C1803 1.350 . S
C1809 H1796 0.929 . S
C1809 C1801 1.433 . S
C1809 N1811 1.384 . S
N1810 C1806 1.427 . S
N1810 C1807 1.384 . S
N1811 C1803 1.427 . S
N1811 C1809 1.384 . S
H1812 C1818 0.930 . S
H1813 C1822 0.930 . S
H1814 C1827 0.929 . S
H1815 C1825 0.929 . S
H1816 C1820 0.929 . S
H1817 C1826 0.929 . S
C1818 H1812 0.930 . S
C1818 C1819 1.367 . S
C1818 C1826 1.378 . S
C1819 C1818 1.367 . S
C1819 C1827 1.433 . S
C1820 H1816 0.929 . S
C1820 C1822 1.378 . S
C1820 C1824 1.350 . S
C1821 C1824 1.463 . S
C1821 C1826 1.350 . S
C1821 N1829 1.427 . S
C1822 H1813 0.930 . S
C1822 C1820 1.378 . S
C1822 C1823 1.367 . S
C1823 C1822 1.367 . S
C1823 C1825 1.433 . S
C1824 C1820 1.350 . S
C1824 C1821 1.463 . S
C1824 N1828 1.427 . S
C1825 H1815 0.929 . S
C1825 C1823 1.433 . S
C1825 N1828 1.384 . S
C1826 H1817 0.929 . S
C1826 C1818 1.378 . S
C1826 C1821 1.350 . S
C1827 H1814 0.929 . S
C1827 C1819 1.433 . S
C1827 N1829 1.384 . S
N1828 C1824 1.427 . S
N1828 C1825 1.384 . S
N1829 C1821 1.427 . S
N1829 C1827 1.384 . S
H1830 C1836 0.930 . S
H1831 C1840 0.930 . S
H1832 C1845 0.929 . S
H1833 C1843 0.929 . S
H1834 C1838 0.929 . S
H1835 C1844 0.929 . S
C1836 H1830 0.930 . S
C1836 C1837 1.367 . S
C1836 C1844 1.378 . S
C1837 C1836 1.367 . S
C1837 C1845 1.433 . S
C1838 H1834 0.929 . S
C1838 C1840 1.378 . S
C1838 C1842 1.350 . S
C1839 C1842 1.463 . S
C1839 C1844 1.350 . S
C1839 N1847 1.427 . S
C1840 H1831 0.930 . S
C1840 C1838 1.378 . S
C1840 C1841 1.367 . S
C1841 C1840 1.367 . S
C1841 C1843 1.433 . S
C1842 C1838 1.350 . S
C1842 C1839 1.463 . S
C1842 N1846 1.427 . S
C1843 H1833 0.929 . S
C1843 C1841 1.433 . S
C1843 N1846 1.384 . S
C1844 H1835 0.929 . S
C1844 C1836 1.378 . S
C1844 C1839 1.350 . S
C1845 H1832 0.929 . S
C1845 C1837 1.433 . S
C1845 N1847 1.384 . S
N1846 C1842 1.427 . S
N1846 C1843 1.384 . S
N1847 C1839 1.427 . S
N1847 C1845 1.384 . S
H1848 C1854 0.930 . S
H1849 C1858 0.930 . S
H1850 C1863 0.929 . S
H1851 C1861 0.929 . S
H1852 C1856 0.929 . S
H1853 C1862 0.929 . S
C1854 H1848 0.930 . S
C1854 C1855 1.367 . S
C1854 C1862 1.378 . S
C1855 C1854 1.367 . S
C1855 C1863 1.433 . S
C1856 H1852 0.929 . S
C1856 C1858 1.378 . S
C1856 C1860 1.350 . S
C1857 C1860 1.463 . S
C1857 C1862 1.350 . S
C1857 N1865 1.427 . S
C1858 H1849 0.930 . S
C1858 C1856 1.378 . S
C1858 C1859 1.367 . S
C1859 C1858 1.367 . S
C1859 C1861 1.433 . S
C1860 C1856 1.350 . S
C1860 C1857 1.463 . S
C1860 N1864 1.427 . S
C1861 H1851 0.929 . S
C1861 C1859 1.433 . S
C1861 N1864 1.384 . S
C1862 H1853 0.929 . S
C1862 C1854 1.378 . S
C1862 C1857 1.350 . S
C1863 H1850 0.929 . S
C1863 C1855 1.433 . S
C1863 N1865 1.384 . S
N1864 C1860 1.427 . S
N1864 C1861 1.384 . S
N1865 C1857 1.427 . S
N1865 C1863 1.384 . S
H1866 C1872 0.930 . S
H1867 C1876 0.930 . S
H1868 C1881 0.929 . S
H1869 C1879 0.929 . S
H1870 C1874 0.929 . S
H1871 C1880 0.929 . S
C1872 H1866 0.930 . S
C1872 C1873 1.367 . S
C1872 C1880 1.378 . S
C1873 C1872 1.367 . S
C1873 C1881 1.433 . S
C1874 H1870 0.929 . S
C1874 C1876 1.378 . S
C1874 C1878 1.350 . S
C1875 C1878 1.463 . S
C1875 C1880 1.350 . S
C1875 N1883 1.427 . S
C1876 H1867 0.930 . S
C1876 C1874 1.378 . S
C1876 C1877 1.367 . S
C1877 C1876 1.367 . S
C1877 C1879 1.433 . S
C1878 C1874 1.350 . S
C1878 C1875 1.463 . S
C1878 N1882 1.427 . S
C1879 H1869 0.929 . S
C1879 C1877 1.433 . S
C1879 N1882 1.384 . S
C1880 H1871 0.929 . S
C1880 C1872 1.378 . S
C1880 C1875 1.350 . S
C1881 H1868 0.929 . S
C1881 C1873 1.433 . S
C1881 N1883 1.384 . S
N1882 C1878 1.427 . S
N1882 C1879 1.384 . S
N1883 C1875 1.427 . S
N1883 C1881 1.384 . S
H1884 C1890 0.930 . S
H1885 C1894 0.930 . S
H1886 C1899 0.929 . S
H1887 C1897 0.929 . S
H1888 C1892 0.929 . S
H1889 C1898 0.929 . S
C1890 H1884 0.930 . S
C1890 C1891 1.367 . S
C1890 C1898 1.378 . S
C1891 C1890 1.367 . S
C1891 C1899 1.433 . S
C1892 H1888 0.929 . S
C1892 C1894 1.378 . S
C1892 C1896 1.350 . S
C1893 C1896 1.463 . S
C1893 C1898 1.350 . S
C1893 N1901 1.427 . S
C1894 H1885 0.930 . S
C1894 C1892 1.378 . S
C1894 C1895 1.367 . S
C1895 C1894 1.367 . S
C1895 C1897 1.433 . S
C1896 C1892 1.350 . S
C1896 C1893 1.463 . S
C1896 N1900 1.427 . S
C1897 H1887 0.929 . S
C1897 C1895 1.433 . S
C1897 N1900 1.384 . S
C1898 H1889 0.929 . S
C1898 C1890 1.378 . S
C1898 C1893 1.350 . S
C1899 H1886 0.929 . S
C1899 C1891 1.433 . S
C1899 N1901 1.384 . S
N1900 C1896 1.427 . S
N1900 C1897 1.384 . S
N1901 C1893 1.427 . S
N1901 C1899 1.384 . S
H1902 C1908 0.930 . S
H1903 C1912 0.930 . S
H1904 C1917 0.929 . S
H1905 C1915 0.929 . S
H1906 C1910 0.929 . S
H1907 C1916 0.929 . S
C1908 H1902 0.930 . S
C1908 C1909 1.367 . S
C1908 C1916 1.378 . S
C1909 C1908 1.367 . S
C1909 C1917 1.433 . S
C1910 H1906 0.929 . S
C1910 C1912 1.378 . S
C1910 C1914 1.350 . S
C1911 C1914 1.463 . S
C1911 C1916 1.350 . S
C1911 N1919 1.427 . S
C1912 H1903 0.930 . S
C1912 C1910 1.378 . S
C1912 C1913 1.367 . S
C1913 C1912 1.367 . S
C1913 C1915 1.433 . S
C1914 C1910 1.350 . S
C1914 C1911 1.463 . S
C1914 N1918 1.427 . S
C1915 H1905 0.929 . S
C1915 C1913 1.433 . S
C1915 N1918 1.384 . S
C1916 H1907 0.929 . S
C1916 C1908 1.378 . S
C1916 C1911 1.350 . S
C1917 H1904 0.929 . S
C1917 C1909 1.433 . S
C1917 N1919 1.384 . S
N1918 C1914 1.427 . S
N1918 C1915 1.384 . S
N1919 C1911 1.427 . S
N1919 C1917 1.384 . S
H1920 C1926 0.930 . S
H1921 C1930 0.930 . S
H1922 C1935 0.929 . S
H1923 C1933 0.929 . S
H1924 C1928 0.929 . S
H1925 C1934 0.929 . S
C1926 H1920 0.930 . S
C1926 C1927 1.367 . S
C1926 C1934 1.378 . S
C1927 C1926 1.367 . S
C1927 C1935 1.433 . S
C1928 H1924 0.929 . S
C1928 C1930 1.378 . S
C1928 C1932 1.350 . S
C1929 C1932 1.463 1_554 S
C1929 C1934 1.350 . S
C1929 N1937 1.427 . S
C1930 H1921 0.930 . S
C1930 C1928 1.378 . S
C1930 C1931 1.367 . S
C1931 C1930 1.367 . S
C1931 C1933 1.433 . S
C1932 C1928 1.350 . S
C1932 C1929 1.463 1_556 S
C1932 N1936 1.427 . S
C1933 H1923 0.929 . S
C1933 C1931 1.433 . S
C1933 N1936 1.384 . S
C1934 H1925 0.929 . S
C1934 C1926 1.378 . S
C1934 C1929 1.350 . S
C1935 H1922 0.929 . S
C1935 C1927 1.433 . S
C1935 N1937 1.384 . S
N1936 C1932 1.427 . S
N1936 C1933 1.384 . S
N1937 C1929 1.427 . S
N1937 C1935 1.384 . S
H1938 C1944 0.930 . S
H1939 C1948 0.930 . S
H1940 C1953 0.929 . S
H1941 C1951 0.929 . S
H1942 C1946 0.929 . S
H1943 C1952 0.929 . S
C1944 H1938 0.930 . S
C1944 C1945 1.367 . S
C1944 C1952 1.378 . S
C1945 C1944 1.367 . S
C1945 C1953 1.433 . S
C1946 H1942 0.929 . S
C1946 C1948 1.378 . S
C1946 C1950 1.350 . S
C1947 C1950 1.463 1_556 S
C1947 C1952 1.350 . S
C1947 N1955 1.427 . S
C1948 H1939 0.930 . S
C1948 C1946 1.378 . S
C1948 C1949 1.367 . S
C1949 C1948 1.367 . S
C1949 C1951 1.433 . S
C1950 C1946 1.350 . S
C1950 C1947 1.463 1_554 S
C1950 N1954 1.427 . S
C1951 H1941 0.929 . S
C1951 C1949 1.433 . S
C1951 N1954 1.384 . S
C1952 H1943 0.929 . S
C1952 C1944 1.378 . S
C1952 C1947 1.350 . S
C1953 H1940 0.929 . S
C1953 C1945 1.433 . S
C1953 N1955 1.384 . S
N1954 C1950 1.427 . S
N1954 C1951 1.384 . S
N1955 C1947 1.427 . S
N1955 C1953 1.384 . S
H1956 C1962 0.930 . S
H1957 C1966 0.930 . S
H1958 C1971 0.929 . S
H1959 C1969 0.929 . S
H1960 C1964 0.929 . S
H1961 C1970 0.929 . S
C1962 H1956 0.930 . S
C1962 C1963 1.367 . S
C1962 C1970 1.378 . S
C1963 C1962 1.367 . S
C1963 C1971 1.433 . S
C1964 H1960 0.929 . S
C1964 C1966 1.378 . S
C1964 C1968 1.350 . S
C1965 C1968 1.463 1_554 S
C1965 C1970 1.350 . S
C1965 N1973 1.427 . S
C1966 H1957 0.930 . S
C1966 C1964 1.378 . S
C1966 C1967 1.367 . S
C1967 C1966 1.367 . S
C1967 C1969 1.433 . S
C1968 C1964 1.350 . S
C1968 C1965 1.463 1_556 S
C1968 N1972 1.427 . S
C1969 H1959 0.929 . S
C1969 C1967 1.433 . S
C1969 N1972 1.384 . S
C1970 H1961 0.929 . S
C1970 C1962 1.378 . S
C1970 C1965 1.350 . S
C1971 H1958 0.929 . S
C1971 C1963 1.433 . S
C1971 N1973 1.384 . S
N1972 C1968 1.427 . S
N1972 C1969 1.384 . S
N1973 C1965 1.427 . S
N1973 C1971 1.384 . S
H1974 C1980 0.930 . S
H1975 C1984 0.930 . S
H1976 C1989 0.929 . S
H1977 C1987 0.929 . S
H1978 C1982 0.929 . S
H1979 C1988 0.929 . S
C1980 H1974 0.930 . S
C1980 C1981 1.367 . S
C1980 C1988 1.378 . S
C1981 C1980 1.367 . S
C1981 C1989 1.433 . S
C1982 H1978 0.929 . S
C1982 C1984 1.378 . S
C1982 C1986 1.350 . S
C1983 C1986 1.463 1_554 S
C1983 C1988 1.350 . S
C1983 N1991 1.427 . S
C1984 H1975 0.930 . S
C1984 C1982 1.378 . S
C1984 C1985 1.367 . S
C1985 C1984 1.367 . S
C1985 C1987 1.433 . S
C1986 C1982 1.350 . S
C1986 C1983 1.463 1_556 S
C1986 N1990 1.427 . S
C1987 H1977 0.929 . S
C1987 C1985 1.433 . S
C1987 N1990 1.384 . S
C1988 H1979 0.929 . S
C1988 C1980 1.378 . S
C1988 C1983 1.350 . S
C1989 H1976 0.929 . S
C1989 C1981 1.433 . S
C1989 N1991 1.384 . S
N1990 C1986 1.427 . S
N1990 C1987 1.384 . S
N1991 C1983 1.427 . S
N1991 C1989 1.384 . S
H1992 C1998 0.930 . S
H1993 C2002 0.930 . S
H1994 C2007 0.929 . S
H1995 C2005 0.929 . S
H1996 C2000 0.929 . S
H1997 C2006 0.929 . S
C1998 H1992 0.930 . S
C1998 C1999 1.367 . S
C1998 C2006 1.378 . S
C1999 C1998 1.367 . S
C1999 C2007 1.433 . S
C2000 H1996 0.929 . S
C2000 C2002 1.378 . S
C2000 C2004 1.350 . S
C2001 C2004 1.463 1_556 S
C2001 C2006 1.350 . S
C2001 N2009 1.427 . S
C2002 H1993 0.930 . S
C2002 C2000 1.378 . S
C2002 C2003 1.367 . S
C2003 C2002 1.367 . S
C2003 C2005 1.433 . S
C2004 C2000 1.350 . S
C2004 C2001 1.463 1_554 S
C2004 N2008 1.427 . S
C2005 H1995 0.929 . S
C2005 C2003 1.433 . S
C2005 N2008 1.384 . S
C2006 H1997 0.929 . S
C2006 C1998 1.378 . S
C2006 C2001 1.350 . S
C2007 H1994 0.929 . S
C2007 C1999 1.433 . S
C2007 N2009 1.384 . S
N2008 C2004 1.427 . S
N2008 C2005 1.384 . S
N2009 C2001 1.427 . S
N2009 C2007 1.384 . S
H2010 C2016 0.930 . S
H2011 C2020 0.930 . S
H2012 C2025 0.929 . S
H2013 C2023 0.929 . S
H2014 C2018 0.929 . S
H2015 C2024 0.929 . S
C2016 H2010 0.930 . S
C2016 C2017 1.367 . S
C2016 C2024 1.378 . S
C2017 C2016 1.367 . S
C2017 C2025 1.433 . S
C2018 H2014 0.929 . S
C2018 C2020 1.378 . S
C2018 C2022 1.350 . S
C2019 C2022 1.463 1_554 S
C2019 C2024 1.350 . S
C2019 N2027 1.427 . S
C2020 H2011 0.930 . S
C2020 C2018 1.378 . S
C2020 C2021 1.367 . S
C2021 C2020 1.367 . S
C2021 C2023 1.433 . S
C2022 C2018 1.350 . S
C2022 C2019 1.463 1_556 S
C2022 N2026 1.427 . S
C2023 H2013 0.929 . S
C2023 C2021 1.433 . S
C2023 N2026 1.384 . S
C2024 H2015 0.929 . S
C2024 C2016 1.378 . S
C2024 C2019 1.350 . S
C2025 H2012 0.929 . S
C2025 C2017 1.433 . S
C2025 N2027 1.384 . S
N2026 C2022 1.427 . S
N2026 C2023 1.384 . S
N2027 C2019 1.427 . S
N2027 C2025 1.384 . S
H2028 C2034 0.930 . S
H2029 C2038 0.930 . S
H2030 C2043 0.929 . S
H2031 C2041 0.929 . S
H2032 C2036 0.929 . S
H2033 C2042 0.929 . S
C2034 H2028 0.930 . S
C2034 C2035 1.367 . S
C2034 C2042 1.378 . S
C2035 C2034 1.367 . S
C2035 C2043 1.433 . S
C2036 H2032 0.929 . S
C2036 C2038 1.378 . S
C2036 C2040 1.350 . S
C2037 C2040 1.463 1_556 S
C2037 C2042 1.350 . S
C2037 N2045 1.427 . S
C2038 H2029 0.930 . S
C2038 C2036 1.378 . S
C2038 C2039 1.367 . S
C2039 C2038 1.367 . S
C2039 C2041 1.433 . S
C2040 C2036 1.350 . S
C2040 C2037 1.463 1_554 S
C2040 N2044 1.427 . S
C2041 H2031 0.929 . S
C2041 C2039 1.433 . S
C2041 N2044 1.384 . S
C2042 H2033 0.929 . S
C2042 C2034 1.378 . S
C2042 C2037 1.350 . S
C2043 H2030 0.929 . S
C2043 C2035 1.433 . S
C2043 N2045 1.384 . S
N2044 C2040 1.427 . S
N2044 C2041 1.384 . S
N2045 C2037 1.427 . S
N2045 C2043 1.384 . S
H2046 C2052 0.930 . S
H2047 C2056 0.930 . S
H2048 C2061 0.929 . S
H2049 C2059 0.929 . S
H2050 C2054 0.929 . S
H2051 C2060 0.929 . S
C2052 H2046 0.930 . S
C2052 C2053 1.367 . S
C2052 C2060 1.378 . S
C2053 C2052 1.367 . S
C2053 C2061 1.433 . S
C2054 H2050 0.929 . S
C2054 C2056 1.378 . S
C2054 C2058 1.350 . S
C2055 C2058 1.463 1_554 S
C2055 C2060 1.350 . S
C2055 N2063 1.427 . S
C2056 H2047 0.930 . S
C2056 C2054 1.378 . S
C2056 C2057 1.367 . S
C2057 C2056 1.367 . S
C2057 C2059 1.433 . S
C2058 C2054 1.350 . S
C2058 C2055 1.463 1_556 S
C2058 N2062 1.427 . S
C2059 H2049 0.929 . S
C2059 C2057 1.433 . S
C2059 N2062 1.384 . S
C2060 H2051 0.929 . S
C2060 C2052 1.378 . S
C2060 C2055 1.350 . S
C2061 H2048 0.929 . S
C2061 C2053 1.433 . S
C2061 N2063 1.384 . S
N2062 C2058 1.427 . S
N2062 C2059 1.384 . S
N2063 C2055 1.427 . S
N2063 C2061 1.384 . S
H2064 C2070 0.930 . S
H2065 C2074 0.930 . S
H2066 C2079 0.929 . S
H2067 C2077 0.929 . S
H2068 C2072 0.929 . S
H2069 C2078 0.929 . S
C2070 H2064 0.930 . S
C2070 C2071 1.367 . S
C2070 C2078 1.378 . S
C2071 C2070 1.367 . S
C2071 C2079 1.433 . S
C2072 H2068 0.929 . S
C2072 C2074 1.378 . S
C2072 C2076 1.350 . S
C2073 C2076 1.463 1_455 S
C2073 C2078 1.350 . S
C2073 N2081 1.427 . S
C2074 H2065 0.930 . S
C2074 C2072 1.378 . S
C2074 C2075 1.367 . S
C2075 C2074 1.367 . S
C2075 C2077 1.433 . S
C2076 C2072 1.350 . S
C2076 C2073 1.463 1_655 S
C2076 N2080 1.427 . S
C2077 H2067 0.929 . S
C2077 C2075 1.433 . S
C2077 N2080 1.384 . S
C2078 H2069 0.929 . S
C2078 C2070 1.378 . S
C2078 C2073 1.350 . S
C2079 H2066 0.929 . S
C2079 C2071 1.433 . S
C2079 N2081 1.384 . S
N2080 C2076 1.427 . S
N2080 C2077 1.384 . S
N2081 C2073 1.427 . S
N2081 C2079 1.384 . S
H2082 C2088 0.930 . S
H2083 C2092 0.930 . S
H2084 C2097 0.929 . S
H2085 C2095 0.929 . S
H2086 C2090 0.929 . S
H2087 C2096 0.929 . S
C2088 H2082 0.930 . S
C2088 C2089 1.367 . S
C2088 C2096 1.378 . S
C2089 C2088 1.367 . S
C2089 C2097 1.433 . S
C2090 H2086 0.929 . S
C2090 C2092 1.378 . S
C2090 C2094 1.350 . S
C2091 C2094 1.463 1_565 S
C2091 C2096 1.350 . S
C2091 N2099 1.427 . S
C2092 H2083 0.930 . S
C2092 C2090 1.378 . S
C2092 C2093 1.367 . S
C2093 C2092 1.367 . S
C2093 C2095 1.433 . S
C2094 C2090 1.350 . S
C2094 C2091 1.463 1_545 S
C2094 N2098 1.427 . S
C2095 H2085 0.929 . S
C2095 C2093 1.433 . S
C2095 N2098 1.384 . S
C2096 H2087 0.929 . S
C2096 C2088 1.378 . S
C2096 C2091 1.350 . S
C2097 H2084 0.929 . S
C2097 C2089 1.433 . S
C2097 N2099 1.384 . S
N2098 C2094 1.427 . S
N2098 C2095 1.384 . S
N2099 C2091 1.427 . S
N2099 C2097 1.384 . S
H2100 C2106 0.930 . S
H2101 C2110 0.930 . S
H2102 C2115 0.929 . S
H2103 C2113 0.929 . S
H2104 C2108 0.929 . S
H2105 C2114 0.929 . S
C2106 H2100 0.930 . S
C2106 C2107 1.367 . S
C2106 C2114 1.378 . S
C2107 C2106 1.367 . S
C2107 C2115 1.433 . S
C2108 H2104 0.929 . S
C2108 C2110 1.378 . S
C2108 C2112 1.350 . S
C2109 C2112 1.463 1_455 S
C2109 C2114 1.350 . S
C2109 N2117 1.427 . S
C2110 H2101 0.930 . S
C2110 C2108 1.378 . S
C2110 C2111 1.367 . S
C2111 C2110 1.367 . S
C2111 C2113 1.433 . S
C2112 C2108 1.350 . S
C2112 C2109 1.463 1_655 S
C2112 N2116 1.427 . S
C2113 H2103 0.929 . S
C2113 C2111 1.433 . S
C2113 N2116 1.384 . S
C2114 H2105 0.929 . S
C2114 C2106 1.378 . S
C2114 C2109 1.350 . S
C2115 H2102 0.929 . S
C2115 C2107 1.433 . S
C2115 N2117 1.384 . S
N2116 C2112 1.427 . S
N2116 C2113 1.384 . S
N2117 C2109 1.427 . S
N2117 C2115 1.384 . S
H2118 C2124 0.930 . S
H2119 C2128 0.930 . S
H2120 C2133 0.929 . S
H2121 C2131 0.929 . S
H2122 C2126 0.929 . S
H2123 C2132 0.929 . S
C2124 H2118 0.930 . S
C2124 C2125 1.367 . S
C2124 C2132 1.378 . S
C2125 C2124 1.367 . S
C2125 C2133 1.433 . S
C2126 H2122 0.929 . S
C2126 C2128 1.378 . S
C2126 C2130 1.350 . S
C2127 C2130 1.463 1_565 S
C2127 C2132 1.350 . S
C2127 N2135 1.427 . S
C2128 H2119 0.930 . S
C2128 C2126 1.378 . S
C2128 C2129 1.367 . S
C2129 C2128 1.367 . S
C2129 C2131 1.433 . S
C2130 C2126 1.350 . S
C2130 C2127 1.463 1_545 S
C2130 N2134 1.427 . S
C2131 H2121 0.929 . S
C2131 C2129 1.433 . S
C2131 N2134 1.384 . S
C2132 H2123 0.929 . S
C2132 C2124 1.378 . S
C2132 C2127 1.350 . S
C2133 H2120 0.929 . S
C2133 C2125 1.433 . S
C2133 N2135 1.384 . S
N2134 C2130 1.427 . S
N2134 C2131 1.384 . S
N2135 C2127 1.427 . S
N2135 C2133 1.384 . S
H2136 C2142 0.930 . S
H2137 C2146 0.930 . S
H2138 C2151 0.929 . S
H2139 C2149 0.929 . S
H2140 C2144 0.929 . S
H2141 C2150 0.929 . S
C2142 H2136 0.930 . S
C2142 C2143 1.367 . S
C2142 C2150 1.378 . S
C2143 C2142 1.367 . S
C2143 C2151 1.433 . S
C2144 H2140 0.929 . S
C2144 C2146 1.378 . S
C2144 C2148 1.350 . S
C2145 C2148 1.463 1_655 S
C2145 C2150 1.350 . S
C2145 N2153 1.427 . S
C2146 H2137 0.930 . S
C2146 C2144 1.378 . S
C2146 C2147 1.367 . S
C2147 C2146 1.367 . S
C2147 C2149 1.433 . S
C2148 C2144 1.350 . S
C2148 C2145 1.463 1_455 S
C2148 N2152 1.427 . S
C2149 H2139 0.929 . S
C2149 C2147 1.433 . S
C2149 N2152 1.384 . S
C2150 H2141 0.929 . S
C2150 C2142 1.378 . S
C2150 C2145 1.350 . S
C2151 H2138 0.929 . S
C2151 C2143 1.433 . S
C2151 N2153 1.384 . S
N2152 C2148 1.427 . S
N2152 C2149 1.384 . S
N2153 C2145 1.427 . S
N2153 C2151 1.384 . S
H2154 C2160 0.930 . S
H2155 C2164 0.930 . S
H2156 C2169 0.929 . S
H2157 C2167 0.929 . S
H2158 C2162 0.929 . S
H2159 C2168 0.929 . S
C2160 H2154 0.930 . S
C2160 C2161 1.367 . S
C2160 C2168 1.378 . S
C2161 C2160 1.367 . S
C2161 C2169 1.433 . S
C2162 H2158 0.929 . S
C2162 C2164 1.378 . S
C2162 C2166 1.350 . S
C2163 C2166 1.463 1_545 S
C2163 C2168 1.350 . S
C2163 N2171 1.427 . S
C2164 H2155 0.930 . S
C2164 C2162 1.378 . S
C2164 C2165 1.367 . S
C2165 C2164 1.367 . S
C2165 C2167 1.433 . S
C2166 C2162 1.350 . S
C2166 C2163 1.463 1_565 S
C2166 N2170 1.427 . S
C2167 H2157 0.929 . S
C2167 C2165 1.433 . S
C2167 N2170 1.384 . S
C2168 H2159 0.929 . S
C2168 C2160 1.378 . S
C2168 C2163 1.350 . S
C2169 H2156 0.929 . S
C2169 C2161 1.433 . S
C2169 N2171 1.384 . S
N2170 C2166 1.427 . S
N2170 C2167 1.384 . S
N2171 C2163 1.427 . S
N2171 C2169 1.384 . S
H2172 C2178 0.930 . S
H2173 C2182 0.930 . S
H2174 C2187 0.929 . S
H2175 C2185 0.929 . S
H2176 C2180 0.929 . S
H2177 C2186 0.929 . S
C2178 H2172 0.930 . S
C2178 C2179 1.367 . S
C2178 C2186 1.378 . S
C2179 C2178 1.367 . S
C2179 C2187 1.433 . S
C2180 H2176 0.929 . S
C2180 C2182 1.378 . S
C2180 C2184 1.350 . S
C2181 C2184 1.463 1_455 S
C2181 C2186 1.350 . S
C2181 N2189 1.427 . S
C2182 H2173 0.930 . S
C2182 C2180 1.378 . S
C2182 C2183 1.367 . S
C2183 C2182 1.367 . S
C2183 C2185 1.433 . S
C2184 C2180 1.350 . S
C2184 C2181 1.463 1_655 S
C2184 N2188 1.427 . S
C2185 H2175 0.929 . S
C2185 C2183 1.433 . S
C2185 N2188 1.384 . S
C2186 H2177 0.929 . S
C2186 C2178 1.378 . S
C2186 C2181 1.350 . S
C2187 H2174 0.929 . S
C2187 C2179 1.433 . S
C2187 N2189 1.384 . S
N2188 C2184 1.427 . S
N2188 C2185 1.384 . S
N2189 C2181 1.427 . S
N2189 C2187 1.384 . S
H2190 C2196 0.930 . S
H2191 C2200 0.930 . S
H2192 C2205 0.929 . S
H2193 C2203 0.929 . S
H2194 C2198 0.929 . S
H2195 C2204 0.929 . S
C2196 H2190 0.930 . S
C2196 C2197 1.367 . S
C2196 C2204 1.378 . S
C2197 C2196 1.367 . S
C2197 C2205 1.433 . S
C2198 H2194 0.929 . S
C2198 C2200 1.378 . S
C2198 C2202 1.350 . S
C2199 C2202 1.463 1_545 S
C2199 C2204 1.350 . S
C2199 N2207 1.427 . S
C2200 H2191 0.930 . S
C2200 C2198 1.378 . S
C2200 C2201 1.367 . S
C2201 C2200 1.367 . S
C2201 C2203 1.433 . S
C2202 C2198 1.350 . S
C2202 C2199 1.463 1_565 S
C2202 N2206 1.427 . S
C2203 H2193 0.929 . S
C2203 C2201 1.433 . S
C2203 N2206 1.384 . S
C2204 H2195 0.929 . S
C2204 C2196 1.378 . S
C2204 C2199 1.350 . S
C2205 H2192 0.929 . S
C2205 C2197 1.433 . S
C2205 N2207 1.384 . S
N2206 C2202 1.427 . S
N2206 C2203 1.384 . S
N2207 C2199 1.427 . S
N2207 C2205 1.384 . S
H2208 C2214 0.930 . S
H2209 C2218 0.930 . S
H2210 C2223 0.929 . S
H2211 C2221 0.929 . S
H2212 C2216 0.929 . S
H2213 C2222 0.929 . S
C2214 H2208 0.930 . S
C2214 C2215 1.367 . S
C2214 C2222 1.378 . S
C2215 C2214 1.367 . S
C2215 C2223 1.433 . S
C2216 H2212 0.929 . S
C2216 C2218 1.378 . S
C2216 C2220 1.350 . S
C2217 C2220 1.463 1_545 S
C2217 C2222 1.350 . S
C2217 N2225 1.427 . S
C2218 H2209 0.930 . S
C2218 C2216 1.378 . S
C2218 C2219 1.367 . S
C2219 C2218 1.367 . S
C2219 C2221 1.433 . S
C2220 C2216 1.350 . S
C2220 C2217 1.463 1_565 S
C2220 N2224 1.427 . S
C2221 H2211 0.929 . S
C2221 C2219 1.433 . S
C2221 N2224 1.384 . S
C2222 H2213 0.929 . S
C2222 C2214 1.378 . S
C2222 C2217 1.350 . S
C2223 H2210 0.929 . S
C2223 C2215 1.433 . S
C2223 N2225 1.384 . S
N2224 C2220 1.427 . S
N2224 C2221 1.384 . S
N2225 C2217 1.427 . S
N2225 C2223 1.384 . S
H2226 C2232 0.930 . S
H2227 C2236 0.930 . S
H2228 C2241 0.929 . S
H2229 C2239 0.929 . S
H2230 C2234 0.929 . S
H2231 C2240 0.929 . S
C2232 H2226 0.930 . S
C2232 C2233 1.367 . S
C2232 C2240 1.378 . S
C2233 C2232 1.367 . S
C2233 C2241 1.433 . S
C2234 H2230 0.929 . S
C2234 C2236 1.378 . S
C2234 C2238 1.350 . S
C2235 C2238 1.463 1_545 S
C2235 C2240 1.350 . S
C2235 N2243 1.427 . S
C2236 H2227 0.930 . S
C2236 C2234 1.378 . S
C2236 C2237 1.367 . S
C2237 C2236 1.367 . S
C2237 C2239 1.433 . S
C2238 C2234 1.350 . S
C2238 C2235 1.463 1_565 S
C2238 N2242 1.427 . S
C2239 H2229 0.929 . S
C2239 C2237 1.433 . S
C2239 N2242 1.384 . S
C2240 H2231 0.929 . S
C2240 C2232 1.378 . S
C2240 C2235 1.350 . S
C2241 H2228 0.929 . S
C2241 C2233 1.433 . S
C2241 N2243 1.384 . S
N2242 C2238 1.427 . S
N2242 C2239 1.384 . S
N2243 C2235 1.427 . S
N2243 C2241 1.384 . S
H2244 C2250 0.930 . S
H2245 C2254 0.930 . S
H2246 C2259 0.929 . S
H2247 C2257 0.929 . S
H2248 C2252 0.929 . S
H2249 C2258 0.929 . S
C2250 H2244 0.930 . S
C2250 C2251 1.367 . S
C2250 C2258 1.378 . S
C2251 C2250 1.367 . S
C2251 C2259 1.433 . S
C2252 H2248 0.929 . S
C2252 C2254 1.378 . S
C2252 C2256 1.350 . S
C2253 C2256 1.463 1_655 S
C2253 C2258 1.350 . S
C2253 N2261 1.427 . S
C2254 H2245 0.930 . S
C2254 C2252 1.378 . S
C2254 C2255 1.367 . S
C2255 C2254 1.367 . S
C2255 C2257 1.433 . S
C2256 C2252 1.350 . S
C2256 C2253 1.463 1_455 S
C2256 N2260 1.427 . S
C2257 H2247 0.929 . S
C2257 C2255 1.433 . S
C2257 N2260 1.384 . S
C2258 H2249 0.929 . S
C2258 C2250 1.378 . S
C2258 C2253 1.350 . S
C2259 H2246 0.929 . S
C2259 C2251 1.433 . S
C2259 N2261 1.384 . S
N2260 C2256 1.427 . S
N2260 C2257 1.384 . S
N2261 C2253 1.427 . S
N2261 C2259 1.384 . S
H2262 C2268 0.930 . S
H2263 C2272 0.930 . S
H2264 C2277 0.929 . S
H2265 C2275 0.929 . S
H2266 C2270 0.929 . S
H2267 C2276 0.929 . S
C2268 H2262 0.930 . S
C2268 C2269 1.367 . S
C2268 C2276 1.378 . S
C2269 C2268 1.367 . S
C2269 C2277 1.433 . S
C2270 H2266 0.929 . S
C2270 C2272 1.378 . S
C2270 C2274 1.350 . S
C2271 C2274 1.463 1_545 S
C2271 C2276 1.350 . S
C2271 N2279 1.427 . S
C2272 H2263 0.930 . S
C2272 C2270 1.378 . S
C2272 C2273 1.367 . S
C2273 C2272 1.367 . S
C2273 C2275 1.433 . S
C2274 C2270 1.350 . S
C2274 C2271 1.463 1_565 S
C2274 N2278 1.427 . S
C2275 H2265 0.929 . S
C2275 C2273 1.433 . S
C2275 N2278 1.384 . S
C2276 H2267 0.929 . S
C2276 C2268 1.378 . S
C2276 C2271 1.350 . S
C2277 H2264 0.929 . S
C2277 C2269 1.433 . S
C2277 N2279 1.384 . S
N2278 C2274 1.427 . S
N2278 C2275 1.384 . S
N2279 C2271 1.427 . S
N2279 C2277 1.384 . S
H2280 C2286 0.930 . S
H2281 C2290 0.930 . S
H2282 C2295 0.929 . S
H2283 C2293 0.929 . S
H2284 C2288 0.929 . S
H2285 C2294 0.929 . S
C2286 H2280 0.930 . S
C2286 C2287 1.367 . S
C2286 C2294 1.378 . S
C2287 C2286 1.367 . S
C2287 C2295 1.433 . S
C2288 H2284 0.929 . S
C2288 C2290 1.378 . S
C2288 C2292 1.350 . S
C2289 C2292 1.463 1_455 S
C2289 C2294 1.350 . S
C2289 N2297 1.427 . S
C2290 H2281 0.930 . S
C2290 C2288 1.378 . S
C2290 C2291 1.367 . S
C2291 C2290 1.367 . S
C2291 C2293 1.433 . S
C2292 C2288 1.350 . S
C2292 C2289 1.463 1_655 S
C2292 N2296 1.427 . S
C2293 H2283 0.929 . S
C2293 C2291 1.433 . S
C2293 N2296 1.384 . S
C2294 H2285 0.929 . S
C2294 C2286 1.378 . S
C2294 C2289 1.350 . S
C2295 H2282 0.929 . S
C2295 C2287 1.433 . S
C2295 N2297 1.384 . S
N2296 C2292 1.427 . S
N2296 C2293 1.384 . S
N2297 C2289 1.427 . S
N2297 C2295 1.384 . S
H2298 C2304 0.930 . S
H2299 C2308 0.930 . S
H2300 C2313 0.929 . S
H2301 C2311 0.929 . S
H2302 C2306 0.929 . S
H2303 C2312 0.929 . S
C2304 H2298 0.930 . S
C2304 C2305 1.367 . S
C2304 C2312 1.378 . S
C2305 C2304 1.367 . S
C2305 C2313 1.433 . S
C2306 H2302 0.929 . S
C2306 C2308 1.378 . S
C2306 C2310 1.350 . S
C2307 C2310 1.463 1_545 S
C2307 C2312 1.350 . S
C2307 N2315 1.427 . S
C2308 H2299 0.930 . S
C2308 C2306 1.378 . S
C2308 C2309 1.367 . S
C2309 C2308 1.367 . S
C2309 C2311 1.433 . S
C2310 C2306 1.350 . S
C2310 C2307 1.463 1_565 S
C2310 N2314 1.427 . S
C2311 H2301 0.929 . S
C2311 C2309 1.433 . S
C2311 N2314 1.384 . S
C2312 H2303 0.929 . S
C2312 C2304 1.378 . S
C2312 C2307 1.350 . S
C2313 H2300 0.929 . S
C2313 C2305 1.433 . S
C2313 N2315 1.384 . S
N2314 C2310 1.427 . S
N2314 C2311 1.384 . S
N2315 C2307 1.427 . S
N2315 C2313 1.384 . S
H2316 C2322 0.930 . S
H2317 C2326 0.930 . S
H2318 C2331 0.929 . S
H2319 C2329 0.929 . S
H2320 C2324 0.929 . S
H2321 C2330 0.929 . S
C2322 H2316 0.930 . S
C2322 C2323 1.367 . S
C2322 C2330 1.378 . S
C2323 C2322 1.367 . S
C2323 C2331 1.433 . S
C2324 H2320 0.929 . S
C2324 C2326 1.378 . S
C2324 C2328 1.350 . S
C2325 C2328 1.463 1_655 S
C2325 C2330 1.350 . S
C2325 N2333 1.427 . S
C2326 H2317 0.930 . S
C2326 C2324 1.378 . S
C2326 C2327 1.367 . S
C2327 C2326 1.367 . S
C2327 C2329 1.433 . S
C2328 C2324 1.350 . S
C2328 C2325 1.463 1_455 S
C2328 N2332 1.427 . S
C2329 H2319 0.929 . S
C2329 C2327 1.433 . S
C2329 N2332 1.384 . S
C2330 H2321 0.929 . S
C2330 C2322 1.378 . S
C2330 C2325 1.350 . S
C2331 H2318 0.929 . S
C2331 C2323 1.433 . S
C2331 N2333 1.384 . S
N2332 C2328 1.427 . S
N2332 C2329 1.384 . S
N2333 C2325 1.427 . S
N2333 C2331 1.384 . S
H2334 C2340 0.930 . S
H2335 C2344 0.930 . S
H2336 C2349 0.929 . S
H2337 C2347 0.929 . S
H2338 C2342 0.929 . S
H2339 C2348 0.929 . S
C2340 H2334 0.930 . S
C2340 C2341 1.367 . S
C2340 C2348 1.378 . S
C2341 C2340 1.367 . S
C2341 C2349 1.433 . S
C2342 H2338 0.929 . S
C2342 C2344 1.378 . S
C2342 C2346 1.350 . S
C2343 C2346 1.463 1_455 S
C2343 C2348 1.350 . S
C2343 N2351 1.427 . S
C2344 H2335 0.930 . S
C2344 C2342 1.378 . S
C2344 C2345 1.367 . S
C2345 C2344 1.367 . S
C2345 C2347 1.433 . S
C2346 C2342 1.350 . S
C2346 C2343 1.463 1_655 S
C2346 N2350 1.427 . S
C2347 H2337 0.929 . S
C2347 C2345 1.433 . S
C2347 N2350 1.384 . S
C2348 H2339 0.929 . S
C2348 C2340 1.378 . S
C2348 C2343 1.350 . S
C2349 H2336 0.929 . S
C2349 C2341 1.433 . S
C2349 N2351 1.384 . S
N2350 C2346 1.427 . S
N2350 C2347 1.384 . S
N2351 C2343 1.427 . S
N2351 C2349 1.384 . S
C631 C517 1.390 . S
C635 C3 1.388 . S
C649 C17 1.387 . S
C653 C471 1.387 . S
C667 C31 1.385 . S
C671 C485 1.384 . S
C685 C498 1.382 . S
C689 C43 1.380 . S
C703 C439 1.381 . S
C707 C56 1.376 . S
C721 C70 1.391 . S
C725 C445 1.394 . S
C739 C88 1.382 . S
C743 C458 1.383 . S
C757 C94 1.397 . S
C761 C421 1.393 . S
C775 C114 1.389 . S
C779 C406 1.388 . S
C793 C374 1.382 . S
C797 C121 1.380 . S
C811 C380 1.386 . S
C815 C140 1.381 . S
C829 C146 1.389 . S
C833 C400 1.384 . S
C847 C161 1.380 . S
C851 C329 1.382 . S
C865 C172 1.393 . S
C869 C341 1.390 . S
C883 C355 1.371 . S
C887 C186 1.376 . S
C901 C315 1.389 . S
C905 C199 1.389 . S
C919 C218 1.386 . S
C923 C576 1.383 . S
C937 C616 1.386 . S
C941 C224 1.390 . S
C955 C589 1.382 . S
C959 C238 1.378 . S
C973 C603 1.389 . S
C977 C252 1.387 . S
C991 C530 1.385 . S
C995 C270 1.382 . S
C1009 C550 1.383 . S
C1013 C277 1.388 . S
C1027 C291 1.388 . S
C1031 C564 1.384 . S
C1045 C536 1.385 . S
C1049 C302 1.388 . S
C1063 C426 1.390 . S
C1067 C265 1.388 . S
C1081 C225 1.386 . S
C1085 C434 1.384 . S
C1099 C446 1.385 . S
C1103 C237 1.383 . S
C1117 C459 1.374 . S
C1121 C257 1.378 . S
C1135 C303 1.375 . S
C1139 C472 1.373 . S
C1153 C484 1.394 . S
C1157 C276 1.390 . S
C1171 C296 1.381 . S
C1175 C497 1.379 . S
C1189 C213 1.393 . S
C1193 C512 1.397 . S
C1207 C525 1.394 . S
C1211 C198 1.397 . S
C1225 C166 1.381 . S
C1229 C621 1.381 . S
C1243 C588 1.386 . S
C1247 C173 1.383 . S
C1261 C185 1.386 . S
C1265 C608 1.386 . S
C1279 C120 1.380 . S
C1283 C537 1.382 . S
C1297 C135 1.393 . S
C1301 C549 1.392 . S
C1315 C147 1.376 . S
C1319 C569 1.372 . S
C1333 C575 1.397 . S
C1337 C109 1.394 . S
C1351 C316 1.382 . S
C1355 C95 1.382 . S
C1369 C369 1.389 . S
C1373 C16 1.389 . S
C1387 C381 1.382 . S
C1391 C36 1.378 . S
C1405 C395 1.389 . S
C1409 C42 1.388 . S
C1423 C407 1.383 . S
C1427 C4 1.380 . S
C1441 C75 1.387 . S
C1445 C342 1.384 . S
C1459 C354 1.387 . S
C1463 C83 1.387 . S
C1477 C328 1.385 . S
C1481 C55 1.388 . S
C1495 C10 1.565 . S
C1499 C348 1.564 . S
C1513 C356 1.577 . S
C1517 C18 1.573 . S
C1531 C30 1.563 . S
C1535 C322 1.563 . S
C1549 C44 1.573 . S
C1553 C330 1.577 . S
C1567 C57 1.574 . S
C1571 C393 1.576 . S
C1585 C413 1.563 . S
C1589 C69 1.565 . S
C1603 C81 1.576 . S
C1607 C367 1.574 . S
C1621 C387 1.565 . S
C1625 C101 1.563 . S
C1639 C107 1.567 . S
C1643 C478 1.569 . S
C1657 C486 1.575 . S
C1661 C122 1.579 . S
C1675 C133 1.576 . S
C1679 C499 1.578 . S
C1693 C153 1.569 . S
C1697 C510 1.567 . S
C1711 C160 1.562 . S
C1715 C420 1.562 . S
C1729 C179 1.571 . S
C1733 C432 1.568 . S
C1747 C452 1.572 . S
C1751 C187 1.571 . S
C1765 C200 1.566 . S
C1769 C465 1.572 . S
C1783 C563 1.571 . S
C1787 C211 1.568 . S
C1801 C231 1.569 . S
C1805 C590 1.570 . S
C1819 C239 1.566 . S
C1823 C602 1.572 . S
C1837 C523 1.568 . S
C1841 C251 1.570 . S
C1855 C615 1.575 . S
C1859 C263 1.572 . S
C1873 C278 1.562 . S
C1877 C543 1.568 . S
C1891 C551 1.567 . S
C1895 C290 1.566 . S
C1909 C309 1.570 . S
C1913 C577 1.570 . S
C1927 C556 1.563 . S
C1931 C264 1.566 . S
C1945 C226 1.577 . S
C1949 C562 1.573 . S
C1963 C582 1.563 . S
C1967 C244 1.565 . S
C1981 C538 1.574 . S
C1985 C250 1.575 . S
C1999 C601 1.577 . S
C2003 C304 1.573 . S
C2017 C283 1.564 . S
C2021 C524 1.567 . S
C2035 C614 1.577 . S
C2039 C289 1.573 . S
C2053 C212 1.565 . S
C2057 C595 1.562 . S
C2071 C433 1.560 . S
C2075 C205 1.561 . S
C2089 C159 1.579 . S
C2093 C447 1.575 . S
C2107 C174 1.578 . S
C2111 C460 1.579 . S
C2125 C419 1.566 . S
C2129 C192 1.570 . S
C2143 C127 1.562 . S
C2147 C511 1.563 . S
C2161 C473 1.571 . S
C2165 C134 1.571 . S
C2179 C148 1.570 . S
C2183 C491 1.573 . S
C2197 C108 1.563 . S
C2201 C504 1.562 . S
C2215 C361 1.571 . S
C2219 C96 1.567 . S
C2233 C23 1.572 . S
C2237 C382 1.566 . S
C2251 C29 1.569 . S
C2255 C394 1.571 . S
C2269 C408 1.571 . S
C2273 C49 1.575 . S
C2287 C5 1.570 . S
C2291 C368 1.576 . S
C2305 C68 1.563 . S
C2309 C335 1.569 . S
C2323 C82 1.568 . S
C2327 C343 1.565 . S
C2341 C62 1.576 . S
C2345 C317 1.571 . S
