# Generated by pormake.
# Topology wjo, (5)-cn, num edge types: 1
# Building blocks:
#     Node 0, Type 0, BuildingBlock: BEQFEK_clean_sbu_0, # of connection points: 5
#     Node 1, Type 0, BuildingBlock: BEQFEK_clean_sbu_0, # of connection points: 5
#     Node 2, Type 0, BuildingBlock: BEQFEK_clean_sbu_0, # of connection points: 5
#     Node 3, Type 0, BuildingBlock: BEQFEK_clean_sbu_0, # of connection points: 5
#     Node 4, Type 0, BuildingBlock: BEQFEK_clean_sbu_0, # of connection points: 5
#     Node 5, Type 0, BuildingBlock: BEQFEK_clean_sbu_0, # of connection points: 5
#     Node 6, Type 0, BuildingBlock: BEQFEK_clean_sbu_0, # of connection points: 5
#     Node 7, Type 0, BuildingBlock: BEQFEK_clean_sbu_0, # of connection points: 5
#     Node 8, Type 0, BuildingBlock: BEQFEK_clean_sbu_0, # of connection points: 5
#     Node 9, Type 0, BuildingBlock: BEQFEK_clean_sbu_0, # of connection points: 5
#     Node 10, Type 0, BuildingBlock: BEQFEK_clean_sbu_0, # of connection points: 5
#     Node 11, Type 0, BuildingBlock: BEQFEK_clean_sbu_0, # of connection points: 5
#     Edge 12, Type (0, 0), None
#     Edge 13, Type (0, 0), None
#     Edge 14, Type (0, 0), None
#     Edge 15, Type (0, 0), None
#     Edge 16, Type (0, 0), None
#     Edge 17, Type (0, 0), None
#     Edge 18, Type (0, 0), None
#     Edge 19, Type (0, 0), None
#     Edge 20, Type (0, 0), None
#     Edge 21, Type (0, 0), None
#     Edge 22, Type (0, 0), None
#     Edge 23, Type (0, 0), None
#     Edge 24, Type (0, 0), None
#     Edge 25, Type (0, 0), None
#     Edge 26, Type (0, 0), None
#     Edge 27, Type (0, 0), None
#     Edge 28, Type (0, 0), None
#     Edge 29, Type (0, 0), None
#     Edge 30, Type (0, 0), None
#     Edge 31, Type (0, 0), None
#     Edge 32, Type (0, 0), None
#     Edge 33, Type (0, 0), None
#     Edge 34, Type (0, 0), None
#     Edge 35, Type (0, 0), None
#     Edge 36, Type (0, 0), None
#     Edge 37, Type (0, 0), None
#     Edge 38, Type (0, 0), None
#     Edge 39, Type (0, 0), None
#     Edge 40, Type (0, 0), None
#     Edge 41, Type (0, 0), None
# Relax obj value: 0.966
# Max RMSD: 0.270
# Mean RMSD: 0.258
data_MOF--net-wjo--node1-BEQFEK_clean_sbu_0--edge1-none
_symmetry_space_group_name_H-M    P1
_symmetry_Int_Tables_number       1
_symmetry_cell_setting            triclinic
loop_
_symmetry_equiv_pos_as_xyz
'x, y, z'
_cell_length_a     22.768257
_cell_length_b     22.621564
_cell_length_c     16.564402
_cell_angle_alpha  90.473896
_cell_angle_beta   90.002482
_cell_angle_gamma 120.2098
loop_
_atom_site_label
_atom_site_type_symbol
_atom_site_fract_x
_atom_site_fract_y
_atom_site_fract_z
_atom_type_partial_charge
Co0 Co 0.36023 0.37787 0.91088 0.0
Co1 Co 0.35629 0.49261 0.01382 0.0
C2 C 0.38019 0.39574 0.09528 0.0
O3 O 0.38136 0.36917 0.0273 0.0
O4 O 0.36825 0.44451 0.10105 0.0
C5 C 0.35895 0.27972 0.78183 0.0
O6 O 0.35299 0.31539 0.72364 0.0
C7 C 0.36837 0.59023 0.1311 0.0
C8 C 0.28055 0.60217 0.10297 0.0
C9 C 0.3279 0.61387 0.16265 0.0
N10 N 0.34453 0.56328 0.05798 0.0
N11 N 0.2947 0.57452 0.039 0.0
C12 C 0.42539 0.58783 0.1731 0.0
H13 H 0.4557 0.57694 0.12929 0.0
H14 H 0.40592 0.54835 0.22056 0.0
H15 H 0.4585 0.63768 0.20326 0.0
C16 C 0.21031 0.33448 0.89149 0.0
N17 N 0.27607 0.38081 0.90973 0.0
N18 N 0.27631 0.42674 0.95932 0.0
C19 C 0.21205 0.4073 -0.0194 0.0
C20 C 0.16747 0.35057 0.9356 0.0
C21 C 0.18861 0.27024 0.84403 0.0
H22 H 0.2324 0.27223 0.81246 0.0
H23 H 0.16583 0.22585 0.88532 0.0
H24 H 0.14927 0.26294 0.79913 0.0
O25 O 0.44199 0.46335 0.86936 0.0
O26 O 0.44126 0.53942 0.95317 0.0
H27 H 0.1702 0.45687 0.05199 0.0
H28 H 0.1597 0.37919 0.09454 0.0
C29 C 0.19493 0.4258 0.06052 0.0
H30 H 0.24132 0.45331 0.09741 0.0
H31 H 0.26553 0.55649 -0.01363 0.0
O32 O 0.35802 0.29661 0.85538 0.0
C33 C 0.47075 0.52351 0.8998 0.0
Co34 Co 1.00449 0.35153 0.07398 0.0
Co35 Co 0.89591 0.36015 0.18318 0.0
C36 C 1.02186 0.37325 0.25322 0.0
O37 O 0.04775 0.37178 0.18527 0.0
O38 O 0.96464 0.36918 0.25803 0.0
C39 C 0.09202 0.31236 0.94491 0.0
O40 O 0.05394 0.25792 0.90042 0.0
C41 C 0.80769 0.32473 0.31809 0.0
C42 C 0.76593 0.39414 0.309 0.0
C43 C 0.76642 0.34463 0.35641 0.0
N44 N 0.82818 0.35865 0.24874 0.0
N45 N 0.80389 0.40069 0.24359 0.0
C46 C 0.83942 0.28633 0.35339 0.0
H47 H 0.85331 0.26158 0.30491 0.0
H48 H 0.8067 0.24751 0.39762 0.0
H49 H 0.88656 0.32332 0.38589 0.0
C50 C 0.89032 0.20445 0.07123 0.0
N51 N 0.91448 0.27214 0.08342 0.0
N52 N 0.8674 0.27969 0.12055 0.0
C53 C 0.8113 0.21805 0.12942 0.0
C54 C 0.82432 0.16785 0.10119 0.0
C55 C 0.93319 0.17535 0.04367 0.0
H56 H 0.98684 0.20952 0.06227 0.0
H57 H 0.91454 0.12352 0.0685 0.0
H58 H 0.93094 0.17141 -0.02318 0.0
O59 O 1.00087 0.43622 0.03502 0.0
O60 O 0.92921 0.44155 0.12138 0.0
H61 H 0.70222 0.16306 0.1371 0.0
H62 H 0.74562 0.1938 0.23165 0.0
C63 C 0.74665 0.20675 0.16713 0.0
H64 H 0.74204 0.25307 0.16175 0.0
H65 H 0.81552 0.43583 0.19725 0.0
O66 O 0.06416 0.33272 -0.00301 0.0
C67 C 0.9709 0.46676 0.06424 0.0
Co68 Co 0.67457 0.99981 0.2462 0.0
Co69 Co 0.5572 0.87904 0.34063 0.0
C70 C 0.65881 1.0043 0.42404 0.0
O71 O 0.68562 0.03444 0.35826 0.0
O72 O 0.61069 0.94286 0.42592 0.0
C73 C 0.78316 0.09414 0.12035 0.0
O74 O 0.77682 0.04691 0.06874 0.0
C75 C 0.4729 0.79619 0.47003 0.0
C76 C 0.42298 0.69251 0.4175 0.0
C77 C 0.43671 0.72809 0.48975 0.0
N78 N 0.48539 0.80107 0.39074 0.0
N79 N 0.45048 0.73925 0.35851 0.0
C80 C 0.49466 0.85555 0.52717 0.0
H81 H 0.54717 0.87464 0.54899 0.0
H82 H 0.46086 0.83985 0.58068 0.0
H83 H 0.49294 0.89795 0.49614 0.0
C84 C 0.72408 0.89799 0.245 0.0
N85 N 0.67373 0.91334 0.25014 0.0
N86 N 0.61975 0.86068 0.28203 0.0
C87 C 0.63357 0.80995 0.2951 0.0
C88 C 0.70061 0.83205 0.27453 0.0
C89 C 0.79612 0.9492 0.22506 0.0
H90 H 0.80375 1.00156 0.22378 0.0
H91 H 0.83118 0.94722 0.2701 0.0
H92 H 0.80861 0.93648 0.16498 0.0
O93 O 0.58984 0.99405 0.20168 0.0
O94 O 0.51165 0.91807 0.28212 0.0
H95 H 0.60107 0.70428 0.32927 0.0
H96 H 0.56969 0.74823 0.39105 0.0
C97 C 0.5836 0.74174 0.32904 0.0
H98 H 0.53842 0.71868 0.28982 0.0
H99 H 0.44921 0.72877 0.29693 0.0
O100 O 0.74874 0.07778 0.18525 0.0
C101 C 0.52971 0.96382 0.22941 0.0
Co102 Co 0.71164 0.67218 0.415 0.0
Co103 Co 0.71019 0.55087 0.50761 0.0
C104 C 0.69492 0.65779 0.5947 0.0
O105 O 0.69411 0.68724 0.52961 0.0
O106 O 0.70168 0.60565 0.59386 0.0
C107 C 0.73986 0.79728 0.2946 0.0
O108 O 0.79644 0.81325 0.25656 0.0
C109 C 0.75227 0.49446 0.62923 0.0
C110 C 0.66768 0.3873 0.63265 0.0
C111 C 0.72446 0.43541 0.67459 0.0
N112 N 0.71508 0.48117 0.56218 0.0
N113 N 0.66523 0.41673 0.56335 0.0
C114 C 0.79767 0.566 0.65966 0.0
H115 H 0.81625 0.60298 0.60947 0.0
H116 H 0.8416 0.571 0.69388 0.0
H117 H 0.76758 0.57967 0.70013 0.0
C118 C 0.8592 0.70937 0.40349 0.0
N119 N 0.79228 0.66391 0.41387 0.0
N120 N 0.78627 0.6066 0.44153 0.0
C121 C 0.84779 0.61202 0.44376 0.0
C122 C 0.89671 0.6781 0.42341 0.0
C123 C 0.88703 0.78402 0.38967 0.0
H124 H 0.84775 0.79814 0.40195 0.0
H125 H 0.93201 0.81504 0.42888 0.0
H126 H 0.90354 0.79574 0.32591 0.0
O127 O 0.62737 0.58481 0.37416 0.0
O128 O 0.62659 0.50435 0.44996 0.0
H129 H 0.90093 0.5566 0.42988 0.0
H130 H 0.87779 0.56244 0.53142 0.0
C131 C 0.8602 0.55545 0.46787 0.0
H132 H 0.81327 0.50504 0.46049 0.0
H133 H 0.62545 0.39509 0.52151 0.0
O134 O 0.71627 0.74958 0.34701 0.0
C135 C 0.59855 0.52306 0.39878 0.0
Co136 Co 0.05842 0.68923 0.57638 0.0
Co137 Co 0.17584 0.69502 0.67821 0.0
C138 C 0.04871 0.67131 0.75473 0.0
O139 O 1.02083 0.66891 0.68717 0.0
O140 O 0.10897 0.68259 0.75974 0.0
C141 C 0.96947 0.71069 0.44598 0.0
O142 O 1.01659 0.76212 0.40499 0.0
C143 C 0.27449 0.73777 0.80423 0.0
C144 C 0.33654 0.69146 0.76961 0.0
C145 C 0.32867 0.73039 0.82834 0.0
N146 N 0.25255 0.70617 0.73312 0.0
N147 N 0.28921 0.67818 0.71243 0.0
C148 C 0.23774 0.76649 0.85074 0.0
H149 H 0.21777 0.79025 0.80879 0.0
H150 H 0.26948 0.80467 0.89692 0.0
H151 H 0.19398 0.72397 0.88203 0.0
C152 C 0.16266 0.84154 0.57239 0.0
N153 N 0.14459 0.77492 0.58112 0.0
N154 N 0.19597 0.77266 0.61449 0.0
C155 C 0.24904 0.83676 0.62332 0.0
C156 C 0.2295 0.88316 0.60001 0.0
C157 C 0.11354 0.86469 0.55166 0.0
H158 H 0.0605 0.82173 0.55631 0.0
H159 H 0.12066 0.90691 0.59259 0.0
H160 H 0.12312 0.88426 0.489 0.0
O161 O 0.06535 0.60761 0.53794 0.0
O162 O 0.14253 0.60987 0.62036 0.0
H163 H 0.35804 0.90025 0.62717 0.0
H164 H 0.319 0.86458 0.72213 0.0
C165 C 0.31707 0.85382 0.65652 0.0
H166 H 0.32678 0.8111 0.64571 0.0
H167 H 0.28008 0.64817 0.66069 0.0
O168 O 0.98514 0.68685 0.50649 0.0
C169 C 0.09734 0.57978 0.56699 0.0
Co170 Co 0.38942 0.0535 0.74367 0.0
Co171 Co 0.50576 0.16237 0.85273 0.0
C172 C 0.39217 0.04405 0.92509 0.0
O173 O 0.37023 1.0156 0.85617 0.0
O174 O 0.44242 0.10368 0.93185 0.0
C175 C 0.26711 0.95805 0.61844 0.0
O176 O 0.25342 0.99991 0.57924 0.0
C177 C 0.59057 0.22741 -0.00894 0.0
C178 C 0.65618 0.33245 0.95064 0.0
C179 C 0.63483 0.29237 0.01888 0.0
N180 N 0.58 0.23023 0.91199 0.0
N181 N 0.62403 0.29193 0.88659 0.0
C182 C 0.55649 0.1643 0.04177 0.0
H183 H 0.50673 0.15541 0.06347 0.0
H184 H 0.5881 0.17033 0.09572 0.0
H185 H 0.54846 0.1191 0.006 0.0
C186 C 0.35964 0.17012 0.73454 0.0
N187 N 0.40156 0.14498 0.7487 0.0
N188 N 0.45633 0.19244 0.78699 0.0
C189 C 0.45143 0.24914 0.79595 0.0
C190 C 0.38989 0.23695 0.76449 0.0
C191 C 0.28819 0.12779 0.70465 0.0
H192 H 0.26703 0.07371 0.72277 0.0
H193 H 0.25572 0.14773 0.72803 0.0
H194 H 0.28819 0.12985 0.63776 0.0
O195 O 0.47456 0.05703 0.70185 0.0
O196 O 0.5478 0.11897 0.79725 0.0
H197 H 0.48511 0.35031 0.84755 0.0
H198 H 0.51301 0.29926 0.89979 0.0
C199 C 0.50224 0.31264 0.8399 0.0
H200 H 0.54976 0.33774 0.80445 0.0
H201 H 0.62838 0.3069 0.82658 0.0
O202 O 0.31342 0.98117 0.67288 0.0
C203 C 0.53235 0.08083 0.736 0.0
Co204 Co 0.67654 0.69567 0.84896 0.0
Co205 Co 0.55941 0.68711 0.73968 0.0
C206 C 0.67223 0.67396 0.66971 0.0
O207 O 0.69956 0.67539 0.73768 0.0
O208 O 0.61911 0.67807 0.66486 0.0
C209 C 0.80323 0.73481 -0.02195 0.0
O210 O 0.81947 0.78916 0.02266 0.0
C211 C 0.50655 0.72246 0.60469 0.0
C212 C 0.39537 0.65329 0.61411 0.0
C213 C 0.44533 0.70261 0.5665 0.0
N214 N 0.49318 0.68864 0.67412 0.0
N215 N 0.42684 0.64674 0.67946 0.0
C216 C 0.57662 0.76078 0.56929 0.0
H217 H 0.61532 0.7856 0.61771 0.0
H218 H 0.58269 0.79957 0.52501 0.0
H219 H 0.58674 0.72375 0.53685 0.0
C220 C 0.70949 0.84277 0.85173 0.0
N221 N 0.66596 0.77508 0.8395 0.0
N222 N 0.61136 0.76756 0.80231 0.0
C223 C 0.61692 0.82922 0.79345 0.0
C224 C 0.68012 0.8794 0.82175 0.0
C225 C 0.78143 0.87183 0.87938 0.0
H226 H 0.80092 0.83767 0.86078 0.0
H227 H 0.81464 0.92369 0.85461 0.0
H228 H 0.78306 0.87573 0.94623 0.0
O229 O 0.58822 0.61101 0.88792 0.0
O230 O 0.51129 0.60572 0.80149 0.0
H231 H 0.56288 0.88426 0.78562 0.0
H232 H 0.57556 0.85345 0.69113 0.0
C233 C 0.56361 0.84055 0.75566 0.0
H234 H 0.51268 0.79426 0.76104 0.0
H235 H 0.40337 0.61172 0.72591 0.0
O236 O 0.75502 0.71445 0.92594 0.0
C237 C 0.52774 0.5805 0.85865 0.0
Co238 Co 1.00601 0.66939 0.01206 0.0
Co239 Co 0.88734 0.55464 0.90911 0.0
C240 C 1.00806 0.65154 0.82764 0.0
O241 O 0.03582 0.6781 0.89563 0.0
O242 O 0.94738 0.60277 0.82187 0.0
C243 C 0.10293 0.76753 0.14107 0.0
O244 O 0.06135 0.73182 0.19929 0.0
C245 C 0.80191 0.45704 0.79183 0.0
C246 C 0.70211 0.44519 0.81976 0.0
C247 C 0.73788 0.43359 0.76017 0.0
N248 N 0.80493 0.48395 0.86495 0.0
N249 N 0.74384 0.47276 0.88381 0.0
C250 C 0.86133 0.45935 0.74997 0.0
H251 H 0.90265 0.47063 0.79376 0.0
H252 H 0.88111 0.49847 0.70209 0.0
H253 H 0.84465 0.40931 0.72033 0.0
C254 C 0.89945 0.71274 0.03145 0.0
N255 N 0.9189 0.66642 0.01321 0.0
N256 N 0.87323 0.6205 -0.03641 0.0
C257 C 0.82843 0.63996 0.94225 0.0
C258 C 0.84058 0.6967 -0.01277 0.0
C259 C 0.94195 0.77695 0.07898 0.0
H260 H 0.98375 0.77495 0.11055 0.0
H261 H 0.96354 0.82137 0.03777 0.0
H262 H 0.90987 0.78418 0.1239 0.0
O263 O 1.00232 0.58391 0.05358 0.0
O264 O 0.92554 0.50785 -0.03028 0.0
H265 H 0.73705 0.5904 0.87078 0.0
H266 H 0.80424 0.66811 0.82831 0.0
C267 C 0.79286 0.62149 0.8623 0.0
H268 H 0.81178 0.594 0.82541 0.0
H269 H 0.73266 0.49077 0.93643 0.0
O270 O 0.08507 0.75066 0.06754 0.0
C271 C 0.97094 0.52376 0.02308 0.0
Co272 Co 0.35959 0.99376 0.17932 0.0
Co273 Co 0.36713 0.88497 0.07021 0.0
C274 C 0.3718 1.00329 -0.00208 0.0
O275 O 0.3783 0.03173 0.06684 0.0
O276 O 0.36249 0.94368 -0.00887 0.0
C277 C 0.33269 0.0892 0.30456 0.0
O278 O 0.27722 0.04742 0.3439 0.0
C279 C 0.38677 0.81996 0.93182 0.0
C280 C 0.34732 0.71485 -0.02778 0.0
C281 C 0.36592 0.75498 0.90404 0.0
N282 N 0.37353 0.81715 0.01092 0.0
N283 N 0.35584 0.75543 0.03629 0.0
C284 C 0.41587 0.88309 0.8811 0.0
H285 H 0.37505 0.89205 0.85939 0.0
H286 H 0.44142 0.87701 0.82717 0.0
H287 H 0.45306 0.92826 0.91688 0.0
C288 C 0.21321 0.87711 0.18841 0.0
N289 N 0.28027 0.90228 0.17424 0.0
N290 N 0.28759 0.85485 0.13588 0.0
C291 C 0.22601 0.79817 0.12684 0.0
C292 C 0.17665 0.81031 0.15837 0.0
C293 C 0.18409 0.9194 0.21844 0.0
H294 H 0.21692 0.97348 0.20027 0.0
H295 H 0.13163 0.89941 0.19522 0.0
H296 H 0.18219 0.91739 0.28534 0.0
O297 O 0.4412 0.99025 0.22117 0.0
O298 O 0.45255 0.92835 0.12574 0.0
H299 H 0.15854 0.69708 0.07501 0.0
H300 H 0.23751 0.74823 0.02284 0.0
C301 C 0.21333 0.73474 0.08272 0.0
H302 H 0.23575 0.70958 0.11808 0.0
H303 H 0.34529 0.74047 0.09631 0.0
O304 O 0.3558 0.066 0.25013 0.0
C305 C 0.47521 0.96649 0.18699 0.0
Co306 Co 0.39292 0.35808 0.34656 0.0
Co307 Co 0.50451 0.35224 0.24466 0.0
C308 C 0.40107 0.37596 0.16819 0.0
O309 O 0.37564 0.3784 0.23576 0.0
O310 O 0.45005 0.36468 0.16315 0.0
C311 C 0.28243 0.33661 0.47689 0.0
O312 O 0.27803 0.28516 0.51793 0.0
C313 C 0.56051 0.30969 0.11849 0.0
C314 C 0.66873 0.35555 0.15354 0.0
C315 C 0.62206 0.31698 0.09451 0.0
N316 N 0.57005 0.34106 0.18974 0.0
N317 N 0.63462 0.36878 0.21069 0.0
C318 C 0.49511 0.28109 0.07186 0.0
H319 H 0.45132 0.25727 0.11372 0.0
H320 H 0.48871 0.24296 0.02563 0.0
H321 H 0.49394 0.32368 0.04065 0.0
C322 C 0.34483 0.20577 0.35053 0.0
N323 N 0.39339 0.27239 0.3418 0.0
N324 N 0.44699 0.27461 0.30836 0.0
C325 C 0.43592 0.21049 0.29947 0.0
C326 C 0.36996 0.16413 0.32276 0.0
C327 C 0.27259 0.18267 0.37138 0.0
H328 H 0.26249 0.22561 0.36661 0.0
H329 H 0.23742 0.14035 0.3306 0.0
H330 H 0.2627 0.16325 0.43411 0.0
O331 O 0.48147 0.43969 0.38498 0.0
O332 O 0.55636 0.43739 0.30251 0.0
H333 H 0.48131 0.1469 0.29537 0.0
H334 H 0.47799 0.18275 0.20051 0.0
C335 C 0.48683 0.1934 0.26614 0.0
H336 H 0.53927 0.23605 0.27701 0.0
H337 H 0.6554 0.39854 0.26262 0.0
O338 O 0.32199 0.36041 0.41643 0.0
C339 C 0.54126 0.46749 0.35588 0.0
Co340 Co 0.06307 0.3751 0.50794 0.0
Co341 Co 0.18289 0.49641 0.41526 0.0
C342 C 0.0607 0.38942 0.32824 0.0
O343 O 1.03043 0.35997 0.39334 0.0
O344 O 0.11956 0.4416 0.32908 0.0
C345 C 0.9662 0.25001 0.62839 0.0
O346 O 1.00677 0.23403 0.66653 0.0
C347 C 0.28118 0.55277 0.29348 0.0
C348 C 0.30402 0.66005 0.29032 0.0
C349 C 0.31238 0.61184 0.24817 0.0
N350 N 0.25743 0.56608 0.36064 0.0
N351 N 0.27218 0.63058 0.35962 0.0
C352 C 0.25499 0.48123 0.26301 0.0
H353 H 0.23665 0.44425 0.3132 0.0
H354 H 0.29388 0.47621 0.22874 0.0
H355 H 0.21122 0.46759 0.22259 0.0
C356 C 0.17345 0.33792 0.51936 0.0
N357 N 0.15199 0.38339 0.50904 0.0
N358 N 0.20326 0.44069 0.48132 0.0
C359 C 0.25935 0.43525 0.47894 0.0
C360 C 0.24216 0.36914 0.49918 0.0
C361 C 0.12666 0.26329 0.53332 0.0
H362 H 0.07325 0.24916 0.52106 0.0
H363 H 0.14058 0.23221 0.49417 0.0
H364 H 0.13148 0.25165 0.59711 0.0
O365 O 0.06614 0.46247 0.54874 0.0
O366 O 0.14581 0.54294 0.47292 0.0
H367 H 0.36792 0.49063 0.49264 0.0
H368 H 0.33881 0.48479 0.39116 0.0
C369 C 0.32829 0.49179 0.45474 0.0
H370 H 0.33181 0.54222 0.46217 0.0
H371 H 0.2542 0.65227 0.40162 0.0
O372 O 0.99035 0.29769 0.57598 0.0
C373 C 0.09905 0.52422 0.52407 0.0
Co374 Co 0.6984 0.04751 0.67686 0.0
Co375 Co 0.70176 0.16825 0.58238 0.0
C376 C 0.67815 0.04298 0.49901 0.0
O377 O 0.67481 1.01285 0.5648 0.0
O378 O 0.69143 0.10442 0.49712 0.0
C379 C 0.71268 0.95313 0.80267 0.0
O380 O 0.75361 1.00031 0.8543 0.0
C381 C 0.70043 0.25108 0.45293 0.0
C382 C 0.75421 0.3548 0.50546 0.0
C383 C 0.73249 0.31916 0.43325 0.0
N384 N 0.70791 0.24621 0.53225 0.0
N385 N 0.73484 0.30805 0.56446 0.0
C386 C 0.66275 0.19172 0.3958 0.0
H387 H 0.69611 0.17255 0.37398 0.0
H388 H 0.64469 0.20747 0.34229 0.0
H389 H 0.61861 0.14936 0.42684 0.0
C390 C 0.8497 0.1493 0.678 0.0
N391 N 0.78401 0.13398 0.67289 0.0
N392 N 0.78268 0.18662 0.64095 0.0
C393 C 0.84723 0.23732 0.62778 0.0
C394 C 0.89216 0.21519 0.64831 0.0
C395 C 0.87054 0.09811 0.69804 0.0
H396 H 0.82581 0.04574 0.69927 0.0
H397 H 0.90764 0.1001 0.6531 0.0
H398 H 0.89566 0.11082 0.75818 0.0
O399 O 0.61942 0.05327 0.72137 0.0
O400 O 0.61719 0.12923 0.64089 0.0
H401 H 0.92037 0.34293 0.59335 0.0
H402 H 0.84499 0.2989 0.5317 0.0
C403 C 0.86545 0.30549 0.59369 0.0
H404 H 0.84338 0.32863 0.63287 0.0
H405 H 0.74402 0.31852 0.62605 0.0
O406 O 0.6946 0.96954 0.73782 0.0
C407 C 0.58951 0.08348 0.69359 0.0
loop_
_geom_bond_atom_site_label_1
_geom_bond_atom_site_label_2
_geom_bond_distance
_geom_bond_site_symmetry_2
_ccdc_geom_bond_type
Co0 O3 1.970 1_556 S
Co0 N17 1.989 . S
Co0 O25 1.967 . S
Co0 O32 1.920 . S
Co1 O4 1.966 . S
Co1 N10 2.022 . S
Co1 N18 1.993 1_554 S
Co1 O26 1.941 1_554 S
C2 O3 1.258 . S
C2 O4 1.263 . S
O3 Co0 1.970 1_554 S
O3 C2 1.258 . S
O4 Co1 1.966 . S
O4 C2 1.263 . S
C5 O6 1.235 . S
C5 O32 1.289 . S
O6 C5 1.235 . S
C7 C9 1.400 . S
C7 N10 1.351 . S
C7 C12 1.501 . S
C8 C9 1.387 . S
C8 N11 1.341 . S
C9 C7 1.400 . S
C9 C8 1.387 . S
N10 Co1 2.022 . S
N10 C7 1.351 . S
N10 N11 1.365 . S
N11 C8 1.341 . S
N11 N10 1.365 . S
N11 H31 0.862 . S
C12 C7 1.501 . S
C12 H13 0.961 . S
C12 H14 0.961 . S
C12 H15 0.960 . S
H13 C12 0.961 . S
H14 C12 0.961 . S
H15 C12 0.960 . S
C16 N17 1.342 . S
C16 C20 1.401 . S
C16 C21 1.499 . S
N17 Co0 1.989 . S
N17 C16 1.342 . S
N17 N18 1.388 . S
N18 Co1 1.993 1_556 S
N18 N17 1.388 . S
N18 C19 1.346 . S
C19 N18 1.346 . S
C19 C20 1.396 . S
C19 C29 1.510 1_556 S
C20 C16 1.401 . S
C20 C19 1.396 . S
C21 C16 1.499 . S
C21 H22 0.959 . S
C21 H23 0.960 . S
C21 H24 0.961 . S
H22 C21 0.959 . S
H23 C21 0.960 . S
H24 C21 0.961 . S
O25 Co0 1.967 . S
O25 C33 1.258 . S
O26 Co1 1.941 1_556 S
O26 C33 1.266 . S
H27 C29 0.959 . S
H28 C29 0.961 . S
C29 C19 1.510 1_554 S
C29 H27 0.959 . S
C29 H28 0.961 . S
C29 H30 0.960 . S
H30 C29 0.960 . S
H31 N11 0.862 . S
O32 Co0 1.920 . S
O32 C5 1.289 . S
C33 O25 1.258 . S
C33 O26 1.266 . S
Co34 O37 1.970 1_655 S
Co34 N51 1.989 . S
Co34 O59 1.967 . S
Co34 O66 1.920 1_654 S
Co35 O38 1.966 . S
Co35 N44 2.022 . S
Co35 N52 1.993 . S
Co35 O60 1.941 . S
C36 O37 1.258 . S
C36 O38 1.263 1_455 S
O37 Co34 1.970 1_455 S
O37 C36 1.258 . S
O38 Co35 1.966 . S
O38 C36 1.263 1_655 S
C39 O40 1.235 1_556 S
C39 O66 1.289 . S
O40 C39 1.235 1_554 S
C41 C43 1.400 . S
C41 N44 1.351 . S
C41 C46 1.501 . S
C42 C43 1.387 . S
C42 N45 1.341 . S
C43 C41 1.400 . S
C43 C42 1.387 . S
N44 Co35 2.022 . S
N44 C41 1.351 . S
N44 N45 1.365 . S
N45 C42 1.341 . S
N45 N44 1.365 . S
N45 H65 0.862 . S
C46 C41 1.501 . S
C46 H47 0.961 . S
C46 H48 0.961 . S
C46 H49 0.960 . S
H47 C46 0.961 . S
H48 C46 0.961 . S
H49 C46 0.960 . S
C50 N51 1.342 . S
C50 C54 1.401 . S
C50 C55 1.499 1_554 S
N51 Co34 1.989 . S
N51 C50 1.342 . S
N51 N52 1.388 . S
N52 Co35 1.993 . S
N52 N51 1.388 . S
N52 C53 1.346 . S
C53 N52 1.346 . S
C53 C54 1.396 . S
C53 C63 1.510 . S
C54 C50 1.401 . S
C54 C53 1.396 . S
C55 C50 1.499 1_556 S
C55 H56 0.959 . S
C55 H57 0.960 . S
C55 H58 0.961 . S
H56 C55 0.959 . S
H57 C55 0.960 . S
H58 C55 0.961 . S
O59 Co34 1.967 . S
O59 C67 1.258 . S
O60 Co35 1.941 . S
O60 C67 1.266 . S
H61 C63 0.959 . S
H62 C63 0.961 . S
C63 C53 1.510 . S
C63 H61 0.959 . S
C63 H62 0.961 . S
C63 H64 0.960 . S
H64 C63 0.960 . S
H65 N45 0.862 . S
O66 Co34 1.920 1_456 S
O66 C39 1.289 . S
C67 O59 1.258 . S
C67 O60 1.266 . S
Co68 O71 1.970 1_565 S
Co68 N85 1.989 . S
Co68 O93 1.967 . S
Co68 O100 1.920 1_565 S
Co69 O72 1.966 . S
Co69 N78 2.022 . S
Co69 N86 1.993 . S
Co69 O94 1.941 . S
C70 O71 1.258 . S
C70 O72 1.263 1_545 S
O71 Co68 1.970 1_545 S
O71 C70 1.258 . S
O72 Co69 1.966 . S
O72 C70 1.263 1_565 S
C73 O74 1.235 . S
C73 O100 1.289 . S
O74 C73 1.235 . S
C75 C77 1.400 . S
C75 N78 1.351 . S
C75 C80 1.501 . S
C76 C77 1.387 . S
C76 N79 1.341 . S
C77 C75 1.400 . S
C77 C76 1.387 . S
N78 Co69 2.022 . S
N78 C75 1.351 . S
N78 N79 1.365 . S
N79 C76 1.341 . S
N79 N78 1.365 . S
N79 H99 0.862 . S
C80 C75 1.501 . S
C80 H81 0.961 . S
C80 H82 0.961 . S
C80 H83 0.960 . S
H81 C80 0.961 . S
H82 C80 0.961 . S
H83 C80 0.960 . S
C84 N85 1.342 . S
C84 C88 1.401 . S
C84 C89 1.499 . S
N85 Co68 1.989 . S
N85 C84 1.342 . S
N85 N86 1.388 . S
N86 Co69 1.993 . S
N86 N85 1.388 . S
N86 C87 1.346 . S
C87 N86 1.346 . S
C87 C88 1.396 . S
C87 C97 1.510 . S
C88 C84 1.401 . S
C88 C87 1.396 . S
C89 C84 1.499 . S
C89 H90 0.959 . S
C89 H91 0.960 . S
C89 H92 0.961 . S
H90 C89 0.959 . S
H91 C89 0.960 . S
H92 C89 0.961 . S
O93 Co68 1.967 . S
O93 C101 1.258 . S
O94 Co69 1.941 . S
O94 C101 1.266 . S
H95 C97 0.959 . S
H96 C97 0.961 . S
C97 C87 1.510 . S
C97 H95 0.959 . S
C97 H96 0.961 . S
C97 H98 0.960 . S
H98 C97 0.960 . S
H99 N79 0.862 . S
O100 Co68 1.920 1_545 S
O100 C73 1.289 . S
C101 O93 1.258 . S
C101 O94 1.266 . S
Co102 O105 1.970 . S
Co102 N119 1.989 . S
Co102 O127 1.967 . S
Co102 O134 1.920 . S
Co103 O106 1.966 . S
Co103 N112 2.022 . S
Co103 N120 1.993 . S
Co103 O128 1.941 . S
C104 O105 1.258 . S
C104 O106 1.263 . S
O105 Co102 1.970 . S
O105 C104 1.258 . S
O106 Co103 1.966 . S
O106 C104 1.263 . S
C107 O108 1.235 . S
C107 O134 1.289 . S
O108 C107 1.235 . S
C109 C111 1.400 . S
C109 N112 1.351 . S
C109 C114 1.501 . S
C110 C111 1.387 . S
C110 N113 1.341 . S
C111 C109 1.400 . S
C111 C110 1.387 . S
N112 Co103 2.022 . S
N112 C109 1.351 . S
N112 N113 1.365 . S
N113 C110 1.341 . S
N113 N112 1.365 . S
N113 H133 0.862 . S
C114 C109 1.501 . S
C114 H115 0.961 . S
C114 H116 0.961 . S
C114 H117 0.960 . S
H115 C114 0.961 . S
H116 C114 0.961 . S
H117 C114 0.960 . S
C118 N119 1.342 . S
C118 C122 1.401 . S
C118 C123 1.499 . S
N119 Co102 1.989 . S
N119 C118 1.342 . S
N119 N120 1.388 . S
N120 Co103 1.993 . S
N120 N119 1.388 . S
N120 C121 1.346 . S
C121 N120 1.346 . S
C121 C122 1.396 . S
C121 C131 1.510 . S
C122 C118 1.401 . S
C122 C121 1.396 . S
C123 C118 1.499 . S
C123 H124 0.959 . S
C123 H125 0.960 . S
C123 H126 0.961 . S
H124 C123 0.959 . S
H125 C123 0.960 . S
H126 C123 0.961 . S
O127 Co102 1.967 . S
O127 C135 1.258 . S
O128 Co103 1.941 . S
O128 C135 1.266 . S
H129 C131 0.959 . S
H130 C131 0.961 . S
C131 C121 1.510 . S
C131 H129 0.959 . S
C131 H130 0.961 . S
C131 H132 0.960 . S
H132 C131 0.960 . S
H133 N113 0.862 . S
O134 Co102 1.920 . S
O134 C107 1.289 . S
C135 O127 1.258 . S
C135 O128 1.266 . S
Co136 O139 1.970 1_455 S
Co136 N153 1.989 . S
Co136 O161 1.967 . S
Co136 O168 1.920 1_455 S
Co137 O140 1.966 . S
Co137 N146 2.022 . S
Co137 N154 1.993 . S
Co137 O162 1.941 . S
C138 O139 1.255 1_455 S
C138 O140 1.269 . S
O139 Co136 1.970 1_655 S
O139 C138 1.255 1_655 S
O140 Co137 1.966 . S
O140 C138 1.269 . S
C141 O142 1.235 . S
C141 O168 1.289 . S
O142 C141 1.235 . S
C143 C145 1.400 . S
C143 N146 1.351 . S
C143 C148 1.501 . S
C144 C145 1.387 . S
C144 N147 1.341 . S
C145 C143 1.400 . S
C145 C144 1.387 . S
N146 Co137 2.022 . S
N146 C143 1.351 . S
N146 N147 1.365 . S
N147 C144 1.341 . S
N147 N146 1.365 . S
N147 H167 0.862 . S
C148 C143 1.501 . S
C148 H149 0.961 . S
C148 H150 0.961 . S
C148 H151 0.960 . S
H149 C148 0.961 . S
H150 C148 0.961 . S
H151 C148 0.960 . S
C152 N153 1.342 . S
C152 C156 1.401 . S
C152 C157 1.499 . S
N153 Co136 1.989 . S
N153 C152 1.342 . S
N153 N154 1.388 . S
N154 Co137 1.993 . S
N154 N153 1.388 . S
N154 C155 1.346 . S
C155 N154 1.346 . S
C155 C156 1.396 . S
C155 C165 1.510 . S
C156 C152 1.401 . S
C156 C155 1.396 . S
C157 C152 1.499 . S
C157 H158 0.959 . S
C157 H159 0.960 . S
C157 H160 0.961 . S
H158 C157 0.959 . S
H159 C157 0.960 . S
H160 C157 0.961 . S
O161 Co136 1.967 . S
O161 C169 1.258 . S
O162 Co137 1.941 . S
O162 C169 1.266 . S
H163 C165 0.959 . S
H164 C165 0.961 . S
C165 C155 1.510 . S
C165 H163 0.959 . S
C165 H164 0.961 . S
C165 H166 0.960 . S
H166 C165 0.960 . S
H167 N147 0.862 . S
O168 Co136 1.920 1_655 S
O168 C141 1.289 . S
C169 O161 1.258 . S
C169 O162 1.266 . S
Co170 O173 1.970 1_545 S
Co170 N187 1.989 . S
Co170 O195 1.967 . S
Co170 O202 1.920 1_545 S
Co171 O174 1.966 . S
Co171 N180 2.022 . S
Co171 N188 1.993 . S
Co171 O196 1.941 . S
C172 O173 1.258 . S
C172 O174 1.263 1_565 S
O173 Co170 1.970 1_565 S
O173 C172 1.258 . S
O174 Co171 1.966 . S
O174 C172 1.263 1_545 S
C175 O176 1.235 . S
C175 O202 1.289 . S
O176 C175 1.235 . S
C177 C179 1.400 . S
C177 N180 1.351 1_554 S
C177 C182 1.501 . S
C178 C179 1.387 . S
C178 N181 1.341 1_554 S
C179 C177 1.400 . S
C179 C178 1.387 . S
N180 Co171 2.022 . S
N180 C177 1.351 1_556 S
N180 N181 1.365 . S
N181 C178 1.341 1_556 S
N181 N180 1.365 . S
N181 H201 0.862 . S
C182 C177 1.501 . S
C182 H183 0.961 . S
C182 H184 0.961 . S
C182 H185 0.960 . S
H183 C182 0.961 . S
H184 C182 0.961 . S
H185 C182 0.960 . S
C186 N187 1.342 . S
C186 C190 1.401 . S
C186 C191 1.499 . S
N187 Co170 1.989 . S
N187 C186 1.342 . S
N187 N188 1.388 . S
N188 Co171 1.993 . S
N188 N187 1.388 . S
N188 C189 1.346 . S
C189 N188 1.346 . S
C189 C190 1.396 . S
C189 C199 1.510 . S
C190 C186 1.401 . S
C190 C189 1.396 . S
C191 C186 1.499 . S
C191 H192 0.959 . S
C191 H193 0.960 . S
C191 H194 0.961 . S
H192 C191 0.959 . S
H193 C191 0.960 . S
H194 C191 0.961 . S
O195 Co170 1.967 . S
O195 C203 1.258 . S
O196 Co171 1.941 . S
O196 C203 1.266 . S
H197 C199 0.959 . S
H198 C199 0.961 . S
C199 C189 1.510 . S
C199 H197 0.959 . S
C199 H198 0.961 . S
C199 H200 0.960 . S
H200 C199 0.960 . S
H201 N181 0.862 . S
O202 Co170 1.920 1_565 S
O202 C175 1.289 . S
C203 O195 1.258 . S
C203 O196 1.266 . S
Co204 O207 1.970 . S
Co204 N221 1.989 . S
Co204 O229 1.967 . S
Co204 O236 1.920 1_556 S
Co205 O208 1.966 . S
Co205 N214 2.022 . S
Co205 N222 1.993 . S
Co205 O230 1.941 . S
C206 O207 1.258 . S
C206 O208 1.263 . S
O207 Co204 1.970 . S
O207 C206 1.258 . S
O208 Co205 1.966 . S
O208 C206 1.263 . S
C209 O210 1.235 1_554 S
C209 O236 1.289 . S
O210 C209 1.235 1_556 S
C211 C213 1.400 . S
C211 N214 1.351 . S
C211 C216 1.501 . S
C212 C213 1.387 . S
C212 N215 1.341 . S
C213 C211 1.400 . S
C213 C212 1.387 . S
N214 Co205 2.022 . S
N214 C211 1.351 . S
N214 N215 1.365 . S
N215 C212 1.341 . S
N215 N214 1.365 . S
N215 H235 0.862 . S
C216 C211 1.501 . S
C216 H217 0.961 . S
C216 H218 0.961 . S
C216 H219 0.960 . S
H217 C216 0.961 . S
H218 C216 0.961 . S
H219 C216 0.960 . S
C220 N221 1.342 . S
C220 C224 1.401 . S
C220 C225 1.499 1_556 S
N221 Co204 1.989 . S
N221 C220 1.342 . S
N221 N222 1.388 . S
N222 Co205 1.993 . S
N222 N221 1.388 . S
N222 C223 1.346 . S
C223 N222 1.346 . S
C223 C224 1.396 . S
C223 C233 1.510 . S
C224 C220 1.401 . S
C224 C223 1.396 . S
C225 C220 1.499 1_554 S
C225 H226 0.959 . S
C225 H227 0.960 . S
C225 H228 0.961 . S
H226 C225 0.959 . S
H227 C225 0.960 . S
H228 C225 0.961 . S
O229 Co204 1.967 . S
O229 C237 1.258 . S
O230 Co205 1.941 . S
O230 C237 1.266 . S
H231 C233 0.959 . S
H232 C233 0.961 . S
C233 C223 1.510 . S
C233 H231 0.959 . S
C233 H232 0.961 . S
C233 H234 0.960 . S
H234 C233 0.960 . S
H235 N215 0.862 . S
O236 Co204 1.920 1_554 S
O236 C209 1.289 . S
C237 O229 1.258 . S
C237 O230 1.266 . S
Co238 O241 1.970 1_654 S
Co238 N255 1.989 . S
Co238 O263 1.967 . S
Co238 O270 1.920 1_655 S
Co239 O242 1.966 . S
Co239 N248 2.022 . S
Co239 N256 1.993 1_556 S
Co239 O264 1.941 1_556 S
C240 O241 1.258 . S
C240 O242 1.263 1_455 S
O241 Co238 1.970 1_456 S
O241 C240 1.258 . S
O242 Co239 1.966 . S
O242 C240 1.263 1_655 S
C243 O244 1.235 . S
C243 O270 1.289 . S
O244 C243 1.235 . S
C245 C247 1.400 . S
C245 N248 1.351 . S
C245 C250 1.501 . S
C246 C247 1.387 . S
C246 N249 1.341 . S
C247 C245 1.400 . S
C247 C246 1.387 . S
N248 Co239 2.022 . S
N248 C245 1.351 . S
N248 N249 1.365 . S
N249 C246 1.341 . S
N249 N248 1.365 . S
N249 H269 0.862 . S
C250 C245 1.501 . S
C250 H251 0.961 . S
C250 H252 0.961 . S
C250 H253 0.960 . S
H251 C250 0.961 . S
H252 C250 0.961 . S
H253 C250 0.960 . S
C254 N255 1.342 . S
C254 C258 1.401 . S
C254 C259 1.499 . S
N255 Co238 1.989 . S
N255 C254 1.342 . S
N255 N256 1.388 . S
N256 Co239 1.993 1_554 S
N256 N255 1.388 . S
N256 C257 1.346 . S
C257 N256 1.346 . S
C257 C258 1.396 . S
C257 C267 1.510 1_554 S
C258 C254 1.401 . S
C258 C257 1.396 . S
C259 C254 1.499 . S
C259 H260 0.959 . S
C259 H261 0.960 . S
C259 H262 0.961 . S
H260 C259 0.959 . S
H261 C259 0.960 . S
H262 C259 0.961 . S
O263 Co238 1.967 . S
O263 C271 1.258 . S
O264 Co239 1.941 1_554 S
O264 C271 1.266 . S
H265 C267 0.959 . S
H266 C267 0.961 . S
C267 C257 1.510 1_556 S
C267 H265 0.959 . S
C267 H266 0.961 . S
C267 H268 0.960 . S
H268 C267 0.960 . S
H269 N249 0.862 . S
O270 Co238 1.920 1_455 S
O270 C243 1.289 . S
C271 O263 1.258 . S
C271 O264 1.266 . S
Co272 O275 1.970 1_565 S
Co272 N289 1.989 . S
Co272 O297 1.967 . S
Co272 O304 1.920 1_565 S
Co273 O276 1.966 . S
Co273 N282 2.022 . S
Co273 N290 1.993 . S
Co273 O298 1.941 . S
C274 O275 1.258 . S
C274 O276 1.263 1_545 S
O275 Co272 1.970 1_545 S
O275 C274 1.258 . S
O276 Co273 1.966 . S
O276 C274 1.263 1_565 S
C277 O278 1.235 . S
C277 O304 1.289 . S
O278 C277 1.235 . S
C279 C281 1.400 . S
C279 N282 1.351 1_556 S
C279 C284 1.501 . S
C280 C281 1.387 . S
C280 N283 1.341 1_556 S
C281 C279 1.400 . S
C281 C280 1.387 . S
N282 Co273 2.022 . S
N282 C279 1.351 1_554 S
N282 N283 1.365 . S
N283 C280 1.341 1_554 S
N283 N282 1.365 . S
N283 H303 0.862 . S
C284 C279 1.501 . S
C284 H285 0.961 . S
C284 H286 0.961 . S
C284 H287 0.960 . S
H285 C284 0.961 . S
H286 C284 0.961 . S
H287 C284 0.960 . S
C288 N289 1.342 . S
C288 C292 1.401 . S
C288 C293 1.499 . S
N289 Co272 1.989 . S
N289 C288 1.342 . S
N289 N290 1.388 . S
N290 Co273 1.993 . S
N290 N289 1.388 . S
N290 C291 1.346 . S
C291 N290 1.346 . S
C291 C292 1.396 . S
C291 C301 1.510 . S
C292 C288 1.401 . S
C292 C291 1.396 . S
C293 C288 1.499 . S
C293 H294 0.959 . S
C293 H295 0.960 . S
C293 H296 0.961 . S
H294 C293 0.959 . S
H295 C293 0.960 . S
H296 C293 0.961 . S
O297 Co272 1.967 . S
O297 C305 1.258 . S
O298 Co273 1.941 . S
O298 C305 1.266 . S
H299 C301 0.959 . S
H300 C301 0.961 . S
C301 C291 1.510 . S
C301 H299 0.959 . S
C301 H300 0.961 . S
C301 H302 0.960 . S
H302 C301 0.960 . S
H303 N283 0.862 . S
O304 Co272 1.920 1_545 S
O304 C277 1.289 . S
C305 O297 1.258 . S
C305 O298 1.266 . S
Co306 O309 1.970 . S
Co306 N323 1.989 . S
Co306 O331 1.967 . S
Co306 O338 1.920 . S
Co307 O310 1.966 . S
Co307 N316 2.022 . S
Co307 N324 1.993 . S
Co307 O332 1.941 . S
C308 O309 1.258 . S
C308 O310 1.263 . S
O309 Co306 1.970 . S
O309 C308 1.258 . S
O310 Co307 1.966 . S
O310 C308 1.263 . S
C311 O312 1.235 . S
C311 O338 1.289 . S
O312 C311 1.235 . S
C313 C315 1.400 . S
C313 N316 1.351 . S
C313 C318 1.501 . S
C314 C315 1.387 . S
C314 N317 1.341 . S
C315 C313 1.400 . S
C315 C314 1.387 . S
N316 Co307 2.022 . S
N316 C313 1.351 . S
N316 N317 1.365 . S
N317 C314 1.341 . S
N317 N316 1.365 . S
N317 H337 0.862 . S
C318 C313 1.501 . S
C318 H319 0.961 . S
C318 H320 0.961 . S
C318 H321 0.960 . S
H319 C318 0.961 . S
H320 C318 0.961 . S
H321 C318 0.960 . S
C322 N323 1.342 . S
C322 C326 1.401 . S
C322 C327 1.499 . S
N323 Co306 1.989 . S
N323 C322 1.342 . S
N323 N324 1.388 . S
N324 Co307 1.993 . S
N324 N323 1.388 . S
N324 C325 1.346 . S
C325 N324 1.346 . S
C325 C326 1.396 . S
C325 C335 1.510 . S
C326 C322 1.401 . S
C326 C325 1.396 . S
C327 C322 1.499 . S
C327 H328 0.959 . S
C327 H329 0.960 . S
C327 H330 0.961 . S
H328 C327 0.959 . S
H329 C327 0.960 . S
H330 C327 0.961 . S
O331 Co306 1.967 . S
O331 C339 1.258 . S
O332 Co307 1.941 . S
O332 C339 1.266 . S
H333 C335 0.959 . S
H334 C335 0.961 . S
C335 C325 1.510 . S
C335 H333 0.959 . S
C335 H334 0.961 . S
C335 H336 0.960 . S
H336 C335 0.960 . S
H337 N317 0.862 . S
O338 Co306 1.920 . S
O338 C311 1.289 . S
C339 O331 1.258 . S
C339 O332 1.266 . S
Co340 O343 1.970 1_455 S
Co340 N357 1.989 . S
Co340 O365 1.967 . S
Co340 O372 1.920 1_455 S
Co341 O344 1.966 . S
Co341 N350 2.022 . S
Co341 N358 1.993 . S
Co341 O366 1.941 . S
C342 O343 1.258 . S
C342 O344 1.263 1_655 S
O343 Co340 1.970 1_655 S
O343 C342 1.258 . S
O344 Co341 1.966 . S
O344 C342 1.263 1_455 S
C345 O346 1.235 . S
C345 O372 1.289 . S
O346 C345 1.235 . S
C347 C349 1.400 . S
C347 N350 1.351 . S
C347 C352 1.501 . S
C348 C349 1.387 . S
C348 N351 1.341 . S
C349 C347 1.400 . S
C349 C348 1.387 . S
N350 Co341 2.022 . S
N350 C347 1.351 . S
N350 N351 1.365 . S
N351 C348 1.341 . S
N351 N350 1.365 . S
N351 H371 0.862 . S
C352 C347 1.501 . S
C352 H353 0.961 . S
C352 H354 0.961 . S
C352 H355 0.960 . S
H353 C352 0.961 . S
H354 C352 0.961 . S
H355 C352 0.960 . S
C356 N357 1.342 . S
C356 C360 1.401 . S
C356 C361 1.499 . S
N357 Co340 1.989 . S
N357 C356 1.342 . S
N357 N358 1.388 . S
N358 Co341 1.993 . S
N358 N357 1.388 . S
N358 C359 1.346 . S
C359 N358 1.346 . S
C359 C360 1.396 . S
C359 C369 1.510 . S
C360 C356 1.401 . S
C360 C359 1.396 . S
C361 C356 1.499 . S
C361 H362 0.959 . S
C361 H363 0.960 . S
C361 H364 0.961 . S
H362 C361 0.959 . S
H363 C361 0.960 . S
H364 C361 0.961 . S
O365 Co340 1.967 . S
O365 C373 1.258 . S
O366 Co341 1.941 . S
O366 C373 1.266 . S
H367 C369 0.959 . S
H368 C369 0.961 . S
C369 C359 1.510 . S
C369 H367 0.959 . S
C369 H368 0.961 . S
C369 H370 0.960 . S
H370 C369 0.960 . S
H371 N351 0.862 . S
O372 Co340 1.920 1_655 S
O372 C345 1.289 . S
C373 O365 1.258 . S
C373 O366 1.266 . S
Co374 O377 1.970 1_545 S
Co374 N391 1.989 . S
Co374 O399 1.967 . S
Co374 O406 1.920 1_545 S
Co375 O378 1.966 . S
Co375 N384 2.022 . S
Co375 N392 1.993 . S
Co375 O400 1.941 . S
C376 O377 1.258 . S
C376 O378 1.263 1_565 S
O377 Co374 1.970 1_565 S
O377 C376 1.258 . S
O378 Co375 1.966 . S
O378 C376 1.263 1_545 S
C379 O380 1.235 . S
C379 O406 1.289 . S
O380 C379 1.235 . S
C381 C383 1.400 . S
C381 N384 1.351 . S
C381 C386 1.501 . S
C382 C383 1.387 . S
C382 N385 1.341 . S
C383 C381 1.400 . S
C383 C382 1.387 . S
N384 Co375 2.022 . S
N384 C381 1.351 . S
N384 N385 1.365 . S
N385 C382 1.341 . S
N385 N384 1.365 . S
N385 H405 0.862 . S
C386 C381 1.501 . S
C386 H387 0.961 . S
C386 H388 0.961 . S
C386 H389 0.960 . S
H387 C386 0.961 . S
H388 C386 0.961 . S
H389 C386 0.960 . S
C390 N391 1.342 . S
C390 C394 1.401 . S
C390 C395 1.499 . S
N391 Co374 1.989 . S
N391 C390 1.342 . S
N391 N392 1.388 . S
N392 Co375 1.993 . S
N392 N391 1.388 . S
N392 C393 1.346 . S
C393 N392 1.346 . S
C393 C394 1.396 . S
C393 C403 1.510 . S
C394 C390 1.401 . S
C394 C393 1.396 . S
C395 C390 1.499 . S
C395 H396 0.959 . S
C395 H397 0.960 . S
C395 H398 0.961 . S
H396 C395 0.959 . S
H397 C395 0.960 . S
H398 C395 0.961 . S
O399 Co374 1.967 . S
O399 C407 1.258 . S
O400 Co375 1.941 . S
O400 C407 1.266 . S
H401 C403 0.959 . S
H402 C403 0.961 . S
C403 C393 1.510 . S
C403 H401 0.959 . S
C403 H402 0.961 . S
C403 H404 0.960 . S
H404 C403 0.960 . S
H405 N385 0.862 . S
O406 Co374 1.920 1_565 S
O406 C379 1.289 . S
C407 O399 1.258 . S
C407 O400 1.266 . S
C349 C9 0.635 . S
C43 C383 0.937 . S
C77 C213 0.937 . S
C111 C247 0.635 . S
C145 C281 0.846 . S
C179 C315 0.846 . S
C5 C190 2.351 . S
C20 C39 2.303 . S
C54 C73 2.418 . S
C107 C88 2.337 . S
C141 C122 2.539 . S
C175 C156 2.439 . S
C258 C209 2.303 . S
C243 C292 2.351 . S
C277 C326 2.439 . S
C311 C360 2.539 . S
C345 C394 2.337 . S
C379 C224 2.418 . S
C2 C308 3.165 . S
C36 C342 3.439 1_455 S
C70 C376 3.348 1_545 S
C104 C206 3.439 . S
C138 C240 3.166 . S
C274 C172 3.341 1_544 S
C237 C33 1.169 . S
C67 C271 1.169 . S
C101 C305 1.464 . S
C339 C135 1.906 . S
C169 C373 1.906 . S
C407 C203 1.464 . S
