# Generated by pormake.
# Topology whw, (6)-cn, num edge types: 1
# Building blocks:
#     Node 0, Type 0, BuildingBlock: BETFEN_clean_sbu_0, # of connection points: 6
#     Node 1, Type 0, BuildingBlock: BETFEN_clean_sbu_0, # of connection points: 6
#     Node 2, Type 0, BuildingBlock: BETFEN_clean_sbu_0, # of connection points: 6
#     Node 3, Type 0, BuildingBlock: BETFEN_clean_sbu_0, # of connection points: 6
#     Node 4, Type 0, BuildingBlock: BETFEN_clean_sbu_0, # of connection points: 6
#     Node 5, Type 0, BuildingBlock: BETFEN_clean_sbu_0, # of connection points: 6
#     Node 6, Type 0, BuildingBlock: BETFEN_clean_sbu_0, # of connection points: 6
#     Node 7, Type 0, BuildingBlock: BETFEN_clean_sbu_0, # of connection points: 6
#     Node 8, Type 0, BuildingBlock: BETFEN_clean_sbu_0, # of connection points: 6
#     Node 9, Type 0, BuildingBlock: BETFEN_clean_sbu_0, # of connection points: 6
#     Node 10, Type 0, BuildingBlock: BETFEN_clean_sbu_0, # of connection points: 6
#     Node 11, Type 0, BuildingBlock: BETFEN_clean_sbu_0, # of connection points: 6
#     Node 12, Type 0, BuildingBlock: BETFEN_clean_sbu_0, # of connection points: 6
#     Node 13, Type 0, BuildingBlock: BETFEN_clean_sbu_0, # of connection points: 6
#     Node 14, Type 0, BuildingBlock: BETFEN_clean_sbu_0, # of connection points: 6
#     Node 15, Type 0, BuildingBlock: BETFEN_clean_sbu_0, # of connection points: 6
#     Edge 16, Type (0, 0), BuildingBlock: ZUJKAS_clean_linker_0, # of connection points: 2
#     Edge 17, Type (0, 0), BuildingBlock: ZUJKAS_clean_linker_0, # of connection points: 2
#     Edge 18, Type (0, 0), BuildingBlock: ZUJKAS_clean_linker_0, # of connection points: 2
#     Edge 19, Type (0, 0), BuildingBlock: ZUJKAS_clean_linker_0, # of connection points: 2
#     Edge 20, Type (0, 0), BuildingBlock: ZUJKAS_clean_linker_0, # of connection points: 2
#     Edge 21, Type (0, 0), BuildingBlock: ZUJKAS_clean_linker_0, # of connection points: 2
#     Edge 22, Type (0, 0), BuildingBlock: ZUJKAS_clean_linker_0, # of connection points: 2
#     Edge 23, Type (0, 0), BuildingBlock: ZUJKAS_clean_linker_0, # of connection points: 2
#     Edge 24, Type (0, 0), BuildingBlock: ZUJKAS_clean_linker_0, # of connection points: 2
#     Edge 25, Type (0, 0), BuildingBlock: ZUJKAS_clean_linker_0, # of connection points: 2
#     Edge 26, Type (0, 0), BuildingBlock: ZUJKAS_clean_linker_0, # of connection points: 2
#     Edge 27, Type (0, 0), BuildingBlock: ZUJKAS_clean_linker_0, # of connection points: 2
#     Edge 28, Type (0, 0), BuildingBlock: ZUJKAS_clean_linker_0, # of connection points: 2
#     Edge 29, Type (0, 0), BuildingBlock: ZUJKAS_clean_linker_0, # of connection points: 2
#     Edge 30, Type (0, 0), BuildingBlock: ZUJKAS_clean_linker_0, # of connection points: 2
#     Edge 31, Type (0, 0), BuildingBlock: ZUJKAS_clean_linker_0, # of connection points: 2
#     Edge 32, Type (0, 0), BuildingBlock: ZUJKAS_clean_linker_0, # of connection points: 2
#     Edge 33, Type (0, 0), BuildingBlock: ZUJKAS_clean_linker_0, # of connection points: 2
#     Edge 34, Type (0, 0), BuildingBlock: ZUJKAS_clean_linker_0, # of connection points: 2
#     Edge 35, Type (0, 0), BuildingBlock: ZUJKAS_clean_linker_0, # of connection points: 2
#     Edge 36, Type (0, 0), BuildingBlock: ZUJKAS_clean_linker_0, # of connection points: 2
#     Edge 37, Type (0, 0), BuildingBlock: ZUJKAS_clean_linker_0, # of connection points: 2
#     Edge 38, Type (0, 0), BuildingBlock: ZUJKAS_clean_linker_0, # of connection points: 2
#     Edge 39, Type (0, 0), BuildingBlock: ZUJKAS_clean_linker_0, # of connection points: 2
#     Edge 40, Type (0, 0), BuildingBlock: ZUJKAS_clean_linker_0, # of connection points: 2
#     Edge 41, Type (0, 0), BuildingBlock: ZUJKAS_clean_linker_0, # of connection points: 2
#     Edge 42, Type (0, 0), BuildingBlock: ZUJKAS_clean_linker_0, # of connection points: 2
#     Edge 43, Type (0, 0), BuildingBlock: ZUJKAS_clean_linker_0, # of connection points: 2
#     Edge 44, Type (0, 0), BuildingBlock: ZUJKAS_clean_linker_0, # of connection points: 2
#     Edge 45, Type (0, 0), BuildingBlock: ZUJKAS_clean_linker_0, # of connection points: 2
#     Edge 46, Type (0, 0), BuildingBlock: ZUJKAS_clean_linker_0, # of connection points: 2
#     Edge 47, Type (0, 0), BuildingBlock: ZUJKAS_clean_linker_0, # of connection points: 2
#     Edge 48, Type (0, 0), BuildingBlock: ZUJKAS_clean_linker_0, # of connection points: 2
#     Edge 49, Type (0, 0), BuildingBlock: ZUJKAS_clean_linker_0, # of connection points: 2
#     Edge 50, Type (0, 0), BuildingBlock: ZUJKAS_clean_linker_0, # of connection points: 2
#     Edge 51, Type (0, 0), BuildingBlock: ZUJKAS_clean_linker_0, # of connection points: 2
#     Edge 52, Type (0, 0), BuildingBlock: ZUJKAS_clean_linker_0, # of connection points: 2
#     Edge 53, Type (0, 0), BuildingBlock: ZUJKAS_clean_linker_0, # of connection points: 2
#     Edge 54, Type (0, 0), BuildingBlock: ZUJKAS_clean_linker_0, # of connection points: 2
#     Edge 55, Type (0, 0), BuildingBlock: ZUJKAS_clean_linker_0, # of connection points: 2
#     Edge 56, Type (0, 0), BuildingBlock: ZUJKAS_clean_linker_0, # of connection points: 2
#     Edge 57, Type (0, 0), BuildingBlock: ZUJKAS_clean_linker_0, # of connection points: 2
#     Edge 58, Type (0, 0), BuildingBlock: ZUJKAS_clean_linker_0, # of connection points: 2
#     Edge 59, Type (0, 0), BuildingBlock: ZUJKAS_clean_linker_0, # of connection points: 2
#     Edge 60, Type (0, 0), BuildingBlock: ZUJKAS_clean_linker_0, # of connection points: 2
#     Edge 61, Type (0, 0), BuildingBlock: ZUJKAS_clean_linker_0, # of connection points: 2
#     Edge 62, Type (0, 0), BuildingBlock: ZUJKAS_clean_linker_0, # of connection points: 2
#     Edge 63, Type (0, 0), BuildingBlock: ZUJKAS_clean_linker_0, # of connection points: 2
# Relax obj value: 0.327
# Max RMSD: 0.220
# Mean RMSD: 0.199
data_MOF--net-whw--node1-BETFEN_clean_sbu_0--edge1-ZUJKAS_clean_linker_0
_symmetry_space_group_name_H-M    P1
_symmetry_Int_Tables_number       1
_symmetry_cell_setting            triclinic
loop_
_symmetry_equiv_pos_as_xyz
'x, y, z'
_cell_length_a     60.975229
_cell_length_b     61.055207
_cell_length_c     42.627875
_cell_angle_alpha  89.708904
_cell_angle_beta   85.42993
_cell_angle_gamma 92.842396
loop_
_atom_site_label
_atom_site_type_symbol
_atom_site_fract_x
_atom_site_fract_y
_atom_site_fract_z
_atom_type_partial_charge
Pr0 Pr 0.03535 0.1253 0.17669 0.0
Pr1 Pr 0.01562 0.13804 0.10963 0.0
C2 C 0.04572 0.12727 0.23767 0.0
C3 C 0.05545 0.13652 0.26633 0.0
C4 C 0.06627 0.12275 0.28597 0.0
C5 C 0.0724 0.12989 0.31555 0.0
C6 C 0.06782 0.15106 0.32663 0.0
C7 C 0.05761 0.1651 0.30641 0.0
C8 C 0.05153 0.15795 0.27676 0.0
C9 C 0.02255 0.08997 0.14004 0.0
C10 C 0.98165 0.13312 0.17533 0.0
C11 C -0.00545 0.14332 0.05642 0.0
C12 C -0.00658 0.1525 1.02379 0.0
C13 C 0.98408 0.17283 1.01928 0.0
C14 C 0.98005 0.18022 0.98905 0.0
C15 C 0.98514 0.16753 0.96214 0.0
C16 C -0.00494 0.14745 0.96654 0.0
C17 C -0.00099 0.14 0.99687 0.0
C18 C 0.0439 0.16922 0.1352 0.0
C19 C 0.06684 0.12389 0.11117 0.0
O20 O 0.02927 0.13697 0.22667 0.0
O21 O 0.05725 0.1164 0.21623 0.0
O22 O 0.013 0.10784 0.14252 0.0
O23 O 0.03765 0.08882 0.15994 0.0
O24 O 0.98435 0.13993 0.14566 0.0
O25 O -0.00228 0.12543 0.19051 0.0
O26 O 0.00659 0.12652 0.06111 0.0
O27 O -0.00686 0.1567 0.0804 0.0
O28 O 0.02975 0.15681 0.15033 0.0
O29 O 0.04214 0.16767 0.10511 0.0
O30 O 0.06656 0.13001 0.14102 0.0
O31 O 0.04867 0.12115 0.09612 0.0
H32 H 0.06925 0.10606 0.27895 0.0
H33 H 0.07998 0.11841 0.33026 0.0
H34 H 0.0541 0.18163 0.31357 0.0
H35 H 0.04319 0.16904 0.26238 0.0
H36 H 0.97927 0.18287 0.03929 0.0
H37 H 0.97273 0.1959 0.98683 0.0
H38 H -0.00094 0.13703 0.94663 0.0
H39 H 0.00585 0.1241 0.99927 0.0
Pr40 Pr 0.14833 0.77663 0.40097 0.0
Pr41 Pr 0.15592 0.73296 0.36445 0.0
C42 C 0.13852 0.80851 0.44285 0.0
C43 C 0.13085 0.8126 0.47611 0.0
C44 C 0.14137 0.82947 0.49242 0.0
C45 C 0.13369 0.83476 0.52316 0.0
C46 C 0.11517 0.82334 0.53837 0.0
C47 C 0.10486 0.80614 0.52215 0.0
C48 C 0.11264 0.80078 0.49138 0.0
C49 C 0.18771 0.77556 0.36286 0.0
C50 C 0.16097 0.7312 0.43964 0.0
C51 C 0.16636 0.70325 0.31962 0.0
C52 C 0.15844 0.69768 0.28857 0.0
C53 C 0.13735 0.70317 0.28112 0.0
C54 C 0.12938 0.69679 0.25244 0.0
C55 C 0.14237 0.68488 0.23035 0.0
C56 C 0.16376 0.67997 0.23765 0.0
C57 C 0.17167 0.68628 0.26646 0.0
C58 C 0.11668 0.73339 0.40112 0.0
C59 C 0.13354 0.77569 0.32898 0.0
O60 O 0.1243 0.79964 0.42458 0.0
O61 O 0.15844 0.80168 0.43709 0.0
O62 O 0.17958 0.76 0.38043 0.0
O63 O 0.17612 0.79281 0.3661 0.0
O64 O 0.16861 0.72243 0.41276 0.0
O65 O 0.15108 0.75 0.4402 0.0
O66 O 0.17734 0.72208 0.32172 0.0
O67 O 0.15236 0.69902 0.34399 0.0
O68 O 0.12487 0.74941 0.38453 0.0
O69 O 0.12747 0.71576 0.39636 0.0
O70 O 0.13167 0.7864 0.35584 0.0
O71 O 0.14272 0.75648 0.3267 0.0
H72 H 0.15536 0.8389 0.48111 0.0
H73 H 0.14191 0.84825 0.53467 0.0
H74 H 0.09076 0.79678 0.53323 0.0
H75 H 0.10424 0.78759 0.47945 0.0
H76 H 0.12686 0.71207 0.29777 0.0
H77 H 0.11278 0.70072 0.24801 0.0
H78 H 0.17445 0.67123 0.22111 0.0
H79 H 0.18806 0.68204 0.2716 0.0
Pr80 Pr 0.46354 0.82739 0.63224 0.0
Pr81 Pr 0.50453 0.85145 0.65108 0.0
C82 C 0.42244 0.81798 0.61635 0.0
C83 C 0.4121 0.82363 0.58774 0.0
C84 C 0.42461 0.83564 0.56394 0.0
C85 C 0.41496 0.84241 0.53728 0.0
C86 C 0.39254 0.83733 0.53387 0.0
C87 C 0.38004 0.82507 0.55767 0.0
C88 C 0.38977 0.81834 0.58457 0.0
C89 C 0.4949 0.80104 0.65512 0.0
C90 C 0.5041 0.83053 0.57755 0.0
C91 C 0.54486 0.86552 0.66617 0.0
C92 C 0.5558 0.86474 0.69546 0.0
C93 C 0.57741 0.87338 0.69689 0.0
C94 C 0.58723 0.87339 0.7255 0.0
C95 C 0.57545 0.86479 0.75293 0.0
C96 C 0.55396 0.85573 0.75101 0.0
C97 C 0.54421 0.85582 0.7226 0.0
C98 C 0.47543 0.87937 0.62544 0.0
C99 C 0.46568 0.83965 0.70896 0.0
O100 O 0.42767 0.8349 0.63349 0.0
O101 O 0.43809 0.80401 0.61281 0.0
O102 O 0.48856 0.81871 0.66611 0.0
O103 O 0.48368 0.79499 0.63162 0.0
O104 O 0.51636 0.83683 0.60064 0.0
O105 O 0.48245 0.82889 0.58244 0.0
O106 O 0.54097 0.84657 0.65299 0.0
O107 O 0.5281 0.87811 0.6668 0.0
O108 O 0.48007 0.86069 0.615 0.0
O109 O 0.48498 0.88334 0.6511 0.0
O110 O 0.45274 0.83532 0.68597 0.0
O111 O 0.48699 0.84429 0.70209 0.0
H112 H 0.44187 0.83994 0.56612 0.0
H113 H 0.42517 0.85138 0.5191 0.0
H114 H 0.36273 0.82094 0.55564 0.0
H115 H 0.37987 0.80923 0.60293 0.0
H116 H 0.58654 0.88037 0.67607 0.0
H117 H 0.60378 0.88055 0.72631 0.0
H118 H 0.5446 0.84856 0.77153 0.0
H119 H 0.52749 0.84916 0.72192 0.0
Pr120 Pr 0.36033 0.19944 0.94055 0.0
Pr121 Pr 0.35859 0.2443 0.90682 0.0
C122 C 0.36586 0.16555 0.97966 0.0
C123 C 0.37358 0.16075 1.0108 0.0
C124 C 0.36549 0.14163 0.02699 0.0
C125 C 0.3733 0.13609 0.05584 0.0
C126 C 0.38946 0.14958 0.0691 0.0
C127 C 0.39728 0.16899 0.05299 0.0
C128 C 0.38937 0.17456 1.02415 0.0
C129 C 0.32193 0.20567 0.91089 0.0
C130 C 0.35101 0.24486 0.98262 0.0
C131 C 0.35289 0.27685 0.86562 0.0
C132 C 0.36064 0.28251 0.83258 0.0
C133 C 0.37084 0.30326 0.82564 0.0
C134 C 0.37937 0.3087 0.79499 0.0
C135 C 0.3778 0.29356 0.77034 0.0
C136 C 0.36734 0.2728 0.77734 0.0
C137 C 0.35891 0.26732 0.80811 0.0
C138 C 0.39651 0.23905 0.93672 0.0
C139 C 0.37628 0.20028 0.86571 0.0
O140 O 0.38077 0.17261 0.95765 0.0
O141 O 0.34727 0.17533 0.97917 0.0
O142 O 0.33159 0.21987 0.927 0.0
O143 O 0.33138 0.18708 0.9111 0.0
O144 O 0.34496 0.25473 0.95718 0.0
O145 O 0.35946 0.22533 0.98111 0.0
O146 O 0.33885 0.26001 0.8706 0.0
O147 O 0.36788 0.27798 0.8859 0.0
O148 O 0.38742 0.2243 0.92077 0.0
O149 O 0.38723 0.25766 0.93513 0.0
O150 O 0.37639 0.1888 0.892 0.0
O151 O 0.36932 0.22046 0.86557 0.0
H152 H 0.35333 0.13074 1.01705 0.0
H153 H 0.36709 0.12092 0.06734 0.0
H154 H 0.4095 0.17989 0.0627 0.0
H155 H 0.39575 0.1895 1.01213 0.0
H156 H 0.37254 0.3152 0.84412 0.0
H157 H 0.38764 0.32467 0.79082 0.0
H158 H 0.36553 0.26077 0.75903 0.0
H159 H 0.35121 0.25113 0.81274 0.0
Pr160 Pr 0.01044 0.88443 0.91938 0.0
Pr161 Pr 0.96696 0.88293 0.88442 0.0
C162 C 0.04627 0.89161 0.95175 0.0
C163 C 0.05291 0.88402 0.98253 0.0
C164 C 0.07466 0.87827 0.98542 0.0
C165 C 0.08092 0.8701 1.014 0.0
C166 C 0.06556 0.86756 0.04042 0.0
C167 C 0.0438 0.87353 0.03749 0.0
C168 C 0.03752 0.88156 1.00885 0.0
C169 C -0.00687 0.84275 0.90639 0.0
C170 C 0.96332 0.87225 0.9603 0.0
C171 C 0.93404 0.87638 0.84619 0.0
C172 C 0.92932 0.86695 0.81534 0.0
C173 C 0.91274 0.8756 0.79869 0.0
C174 C 0.90722 0.8664 0.77013 0.0
C175 C 0.91815 0.84824 0.75753 0.0
C176 C 0.93501 0.83979 0.77412 0.0
C177 C 0.94057 0.84907 0.80267 0.0
C178 C 0.97616 0.92177 0.91652 0.0
C179 C 0.01574 0.88636 0.84124 0.0
O180 O 0.03007 0.90499 0.95236 0.0
O181 O 0.04517 0.87672 0.92985 0.0
O182 O -0.00588 0.85904 0.88825 0.0
O183 O 0.00196 0.84739 0.93244 0.0
O184 O 0.95493 0.86671 0.93353 0.0
O185 O 0.98251 0.8833 0.96043 0.0
O186 O 0.93794 0.86261 0.86857 0.0
O187 O 0.94642 0.89456 0.84597 0.0
O188 O -0.00989 0.91124 0.90014 0.0
O189 O 0.95645 0.91294 0.91531 0.0
O190 O 0.0262 0.88892 0.86719 0.0
O191 O -0.00594 0.88342 0.8422 0.0
H192 H 0.08679 0.87994 0.96544 0.0
H193 H 0.09785 0.86588 1.01547 0.0
H194 H 0.03147 0.87153 0.05717 0.0
H195 H 0.02055 0.8856 1.00721 0.0
H196 H 0.9038 0.88934 0.80804 0.0
H197 H 0.894 0.87321 0.75831 0.0
H198 H 0.94401 0.82604 0.76498 0.0
H199 H 0.95352 0.84218 0.81496 0.0
Pr200 Pr 0.40558 0.76644 0.1034 0.0
Pr201 Pr 0.39072 0.72217 0.08203 0.0
C202 C 0.40477 0.80789 0.12392 0.0
C203 C 0.39812 0.81686 0.15482 0.0
C204 C 0.39542 0.80286 0.18112 0.0
C205 C 0.38801 0.8108 0.21041 0.0
C206 C 0.38291 0.83292 0.21398 0.0
C207 C 0.38554 0.84693 0.18746 0.0
C208 C 0.39306 0.83891 0.15803 0.0
C209 C 0.43956 0.74356 0.07402 0.0
C210 C 0.41114 0.7263 0.15342 0.0
C211 C 0.38418 0.68149 0.0598 0.0
C212 C 0.38738 0.67269 0.02768 0.0
C213 C 0.37006 0.66067 1.01487 0.0
C214 C 0.37161 0.65509 0.98299 0.0
C215 C 0.3906 0.66129 0.96347 0.0
C216 C 0.40818 0.67272 0.97661 0.0
C217 C 0.40655 0.67849 1.00832 0.0
C218 C 0.35752 0.74514 0.115 0.0
C219 C 0.39506 0.76183 0.02752 0.0
O220 O 0.38866 0.79834 0.10969 0.0
O221 O 0.42265 0.79673 0.1223 0.0
O222 O 0.42056 0.74424 0.06492 0.0
O223 O 0.44212 0.75624 0.09804 0.0
O224 O 0.40715 0.71309 0.12957 0.0
O225 O 0.40894 0.74762 0.15069 0.0
O226 O 0.40195 0.68776 0.07344 0.0
O227 O 0.36843 0.6952 0.06394 0.0
O228 O 0.37688 0.74352 0.12233 0.0
O229 O 0.3545 0.73464 0.08918 0.0
O230 O 0.39604 0.77532 0.05167 0.0
O231 O 0.39505 0.74042 0.03251 0.0
H232 H 0.39903 0.78572 0.179 0.0
H233 H 0.38666 0.79964 0.23037 0.0
H234 H 0.38162 0.864 0.18939 0.0
H235 H 0.39476 0.84984 0.13778 0.0
H236 H 0.35504 0.65626 0.02929 0.0
H237 H 0.35787 0.64617 0.9735 0.0
H238 H 0.42289 0.67801 0.96206 0.0
H239 H 0.42 0.68816 1.01736 0.0
Pr240 Pr 0.49484 0.09618 0.42464 0.0
Pr241 Pr 0.53995 0.09823 0.38305 0.0
C242 C 0.46231 0.0865 0.46998 0.0
C243 C 0.45639 0.09314 0.50271 0.0
C244 C 0.43419 0.09518 0.51308 0.0
C245 C 0.4283 0.10248 0.54353 0.0
C246 C 0.44454 0.10799 0.56426 0.0
C247 C 0.46681 0.1057 0.55383 0.0
C248 C 0.47266 0.09832 0.5234 0.0
C249 C 0.50511 0.13622 0.39556 0.0
C250 C 0.54243 0.11062 0.45773 0.0
C251 C 0.57311 0.10419 0.33709 0.0
C252 C 0.57851 0.11377 0.305 0.0
C253 C 0.58622 0.10024 0.28037 0.0
C254 C 0.59278 0.109 0.25041 0.0
C255 C 0.59191 0.13161 0.24419 0.0
C256 C 0.58382 0.14511 0.2688 0.0
C257 C 0.57725 0.13632 0.2988 0.0
C258 C 0.52726 0.05811 0.41284 0.0
C259 C 0.49215 0.09382 0.34941 0.0
O260 O 0.47968 0.0748 0.46502 0.0
O261 O 0.46093 0.1015 0.44829 0.0
O262 O 0.51901 0.12446 0.40705 0.0
O263 O 0.48496 0.12875 0.40245 0.0
O264 O 0.55371 0.11085 0.42985 0.0
O265 O 0.52113 0.10475 0.46122 0.0
O266 O 0.56998 0.11757 0.36075 0.0
O267 O 0.56006 0.08648 0.33968 0.0
O268 O 0.51488 0.07025 0.39915 0.0
O269 O 0.54751 0.06606 0.41027 0.0
O270 O 0.48227 0.08588 0.37613 0.0
O271 O 0.51261 0.10228 0.34789 0.0
H272 H 0.42139 0.09138 0.49744 0.0
H273 H 0.41104 0.1043 0.55056 0.0
H274 H 0.47973 0.10951 0.56925 0.0
H275 H 0.4899 0.09681 0.51595 0.0
H276 H 0.58745 0.08283 0.2844 0.0
H277 H 0.59853 0.09797 0.23207 0.0
H278 H 0.5831 0.16261 0.26517 0.0
H279 H 0.57153 0.14728 0.31722 0.0
Pr280 Pr 0.10269 0.20378 0.72612 0.0
Pr281 Pr 0.09981 0.25151 0.70398 0.0
C282 C 0.12024 0.16627 0.7422 0.0
C283 C 0.13014 0.15782 0.77016 0.0
C284 C 0.11696 0.14546 0.79296 0.0
C285 C 0.12539 0.13927 0.82091 0.0
C286 C 0.14734 0.145 0.82668 0.0
C287 C 0.16088 0.15649 0.80322 0.0
C288 C 0.15238 0.16276 0.77517 0.0
C289 C 0.06204 0.21127 0.70432 0.0
C290 C 0.08362 0.23904 0.77943 0.0
C291 C 0.0898 0.29148 0.68486 0.0
C292 C 0.08643 0.30011 0.65349 0.0
C293 C 0.09305 0.32186 0.64552 0.0
C294 C 0.09287 0.32926 0.61444 0.0
C295 C 0.08614 0.31496 0.59086 0.0
C296 C 0.07883 0.29335 0.59925 0.0
C297 C 0.07908 0.28596 0.63024 0.0
C298 C 0.14009 0.24097 0.72571 0.0
C299 C 0.10958 0.21543 0.64715 0.0
O300 O 0.13151 0.18187 0.72577 0.0
O301 O 0.09901 0.16925 0.74546 0.0
O302 O 0.0804 0.21971 0.69362 0.0
O303 O 0.06452 0.19756 0.72719 0.0
O304 O 0.0823 0.25269 0.75546 0.0
O305 O 0.09273 0.21987 0.77526 0.0
O306 O 0.07488 0.27696 0.69693 0.0
O307 O 0.10997 0.28622 0.68854 0.0
O308 O 0.12128 0.23534 0.73796 0.0
O309 O 0.13884 0.25348 0.70125 0.0
O310 O 0.11202 0.20108 0.67015 0.0
O311 O 0.10378 0.23554 0.65396 0.0
H312 H 0.09985 0.14116 0.7897 0.0
H313 H 0.1143 0.13078 0.83857 0.0
H314 H 0.17792 0.16094 0.80673 0.0
H315 H 0.1631 0.17195 0.7578 0.0
H316 H 0.09909 0.33289 0.66309 0.0
H317 H 0.09882 0.34592 0.6087 0.0
H318 H 0.07321 0.28201 0.58178 0.0
H319 H 0.07413 0.26901 0.63582 0.0
Pr320 Pr 0.90581 0.28016 0.60969 0.0
Pr321 Pr 0.90054 0.23222 0.58714 0.0
C322 C 0.89834 0.31643 0.64313 0.0
C323 C 0.8879 0.31919 0.67513 0.0
C324 C 0.8936 0.30603 0.7 0.0
C325 C 0.88239 0.30719 0.72965 0.0
C326 C 0.86505 0.32139 0.73513 0.0
C327 C 0.85929 0.33455 0.71018 0.0
C328 C 0.87061 0.33341 0.68039 0.0
C329 C 0.94185 0.26657 0.57272 0.0
C330 C 0.91934 0.23851 0.65668 0.0
C331 C 0.89668 0.19389 0.55639 0.0
C332 C 0.89601 0.18754 0.52328 0.0
C333 C 0.88758 0.16668 0.51543 0.0
C334 C 0.88507 0.16143 0.48392 0.0
C335 C 0.8908 0.17707 0.45989 0.0
C336 C 0.89947 0.19785 0.468 0.0
C337 C 0.902 0.20298 0.49937 0.0
C338 C 0.86636 0.24567 0.62871 0.0
C339 C 0.89974 0.27458 0.53472 0.0
O340 O 0.88503 0.30886 0.62268 0.0
O341 O 0.91756 0.30755 0.64073 0.0
O342 O 0.9305 0.25495 0.59313 0.0
O343 O 0.93709 0.28711 0.57418 0.0
O344 O 0.91887 0.22505 0.63239 0.0
O345 O 0.91288 0.25891 0.65458 0.0
O346 O 0.91553 0.20213 0.56498 0.0
O347 O 0.87984 0.20465 0.56763 0.0
O348 O 0.87535 0.25713 0.6059 0.0
O349 O 0.87435 0.22643 0.62943 0.0
O350 O 0.89798 0.2886 0.55818 0.0
O351 O 0.9015 0.25337 0.54002 0.0
H352 H 0.90664 0.29469 0.69654 0.0
H353 H 0.88763 0.29718 0.74845 0.0
H354 H 0.84593 0.34555 0.71361 0.0
H355 H 0.86567 0.34339 0.66133 0.0
H356 H 0.88259 0.15462 0.53367 0.0
H357 H 0.87827 0.14531 0.47842 0.0
H358 H 0.90446 0.21014 0.45008 0.0
H359 H 0.90832 0.21913 0.50506 0.0
Pr360 Pr 0.60224 0.71834 0.21681 0.0
Pr361 Pr 0.61316 0.76588 0.19369 0.0
C362 C 0.60395 0.67886 0.24434 0.0
C363 C 0.61305 0.67016 0.27227 0.0
C364 C 0.60721 0.6487 0.28241 0.0
C365 C 0.61541 0.64048 0.30953 0.0
C366 C 0.62973 0.65359 0.32686 0.0
C367 C 0.63577 0.67504 0.31604 0.0
C368 C 0.62746 0.68326 0.28905 0.0
C369 C 0.56881 0.73469 0.18423 0.0
C370 C 0.59189 0.75967 0.26713 0.0
C371 C 0.62069 0.80514 0.16484 0.0
C372 C 0.6197 0.81428 0.13287 0.0
C373 C 0.63931 0.81861 0.11377 0.0
C374 C 0.6387 0.82576 0.08273 0.0
C375 C 0.61847 0.82893 0.07021 0.0
C376 C 0.59888 0.8254 0.0897 0.0
C377 C 0.59947 0.81815 0.12073 0.0
C378 C 0.64476 0.74809 0.22861 0.0
C379 C 0.61313 0.7251 0.13981 0.0
O380 O 0.61851 0.68639 0.22219 0.0
O381 O 0.58718 0.69134 0.24946 0.0
O382 O 0.58069 0.74585 0.2019 0.0
O383 O 0.57158 0.71389 0.18788 0.0
O384 O 0.59457 0.77345 0.24284 0.0
O385 O 0.59622 0.73869 0.26377 0.0
O386 O 0.60205 0.79946 0.18093 0.0
O387 O 0.63608 0.79131 0.16814 0.0
O388 O 0.63509 0.73807 0.20739 0.0
O389 O 0.63868 0.76804 0.23155 0.0
O390 O 0.61047 0.7106 0.16316 0.0
O391 O 0.61453 0.74642 0.1454 0.0
H392 H 0.596 0.63844 0.26968 0.0
H393 H 0.6098 0.62414 0.31744 0.0
H394 H 0.64658 0.68568 0.32867 0.0
H395 H 0.63205 0.69995 0.2815 0.0
H396 H 0.65515 0.81598 0.12262 0.0
H397 H 0.65408 0.82817 0.06829 0.0
H398 H 0.58305 0.82815 0.08092 0.0
H399 H 0.58406 0.81524 0.13494 0.0
Pr400 Pr 0.65515 0.28557 0.90889 0.0
Pr401 Pr 0.65534 0.24316 0.86763 0.0
C402 C 0.64998 0.31747 0.95211 0.0
C403 C 0.6418 0.32235 0.98494 0.0
C404 C 0.655 0.33567 1.00338 0.0
C405 C 0.64709 0.34218 0.03349 0.0
C406 C 0.62569 0.33559 0.04597 0.0
C407 C 0.61266 0.32176 0.02771 0.0
C408 C 0.62061 0.31522 0.99754 0.0
C409 C 0.69279 0.28173 0.86763 0.0
C410 C 0.65935 0.23681 0.94462 0.0
C411 C 0.66199 0.20883 0.82892 0.0
C412 C 0.65353 0.20124 0.79898 0.0
C413 C 0.63306 0.20757 0.79005 0.0
C414 C 0.62515 0.20023 0.76172 0.0
C415 C 0.63758 0.18649 0.74147 0.0
C416 C 0.65821 0.18039 0.7505 0.0
C417 C 0.66605 0.18768 0.7789 0.0
C418 C 0.61404 0.25585 0.89112 0.0
C419 C 0.64134 0.28939 0.83623 0.0
O420 O 0.63539 0.31227 0.93201 0.0
O421 O 0.66811 0.3068 0.94771 0.0
O422 O 0.6832 0.26612 0.88374 0.0
O423 O 0.68373 0.30013 0.87392 0.0
O424 O 0.66078 0.22704 0.91684 0.0
O425 O 0.65702 0.25817 0.94722 0.0
O426 O 0.6748 0.22675 0.82742 0.0
O427 O 0.64792 0.20799 0.85383 0.0
O428 O 0.63106 0.25619 0.90575 0.0
O429 O 0.61763 0.24782 0.86311 0.0
O430 O 0.63708 0.29677 0.86513 0.0
O431 O 0.65204 0.27129 0.83101 0.0
H432 H 0.67138 0.34141 0.99424 0.0
H433 H 0.6578 0.35246 0.04695 0.0
H434 H 0.59604 0.31647 0.03631 0.0
H435 H 0.61 0.30496 0.98388 0.0
H436 H 0.62313 0.21812 0.80507 0.0
H437 H 0.60911 0.2051 0.75596 0.0
H438 H 0.66848 0.17018 0.73543 0.0
H439 H 0.68197 0.18273 0.78517 0.0
Pr440 Pr 0.86248 0.6898 0.43727 0.0
Pr441 Pr 0.8626 0.73355 0.39705 0.0
C442 C 0.86711 0.65697 0.4784 0.0
C443 C 0.87514 0.65199 0.50935 0.0
C444 C 0.86471 0.63477 0.52767 0.0
C445 C 0.87268 0.62879 0.55623 0.0
C446 C 0.89133 0.63991 0.56714 0.0
C447 C 0.90153 0.65747 0.54892 0.0
C448 C 0.8935 0.66346 0.52034 0.0
C449 C 0.82487 0.69558 0.40554 0.0
C450 C 0.8582 0.73802 0.47503 0.0
C451 C 0.85535 0.76852 0.36113 0.0
C452 C 0.86311 0.77679 0.32922 0.0
C453 C 0.88504 0.77479 0.31712 0.0
C454 C 0.89209 0.78246 0.28677 0.0
C455 C 0.87735 0.79215 0.26768 0.0
C456 C 0.85534 0.79391 0.2798 0.0
C457 C 0.84833 0.78635 0.31026 0.0
C458 C 0.90357 0.72016 0.41162 0.0
C459 C 0.87617 0.68779 0.36115 0.0
O460 O 0.88194 0.66257 0.45537 0.0
O461 O 0.84908 0.6678 0.47819 0.0
O462 O 0.83508 0.71042 0.41979 0.0
O463 O 0.8333 0.67669 0.40879 0.0
O464 O 0.85645 0.7483 0.44791 0.0
O465 O 0.86105 0.71668 0.47651 0.0
O466 O 0.84255 0.7506 0.36246 0.0
O467 O 0.86976 0.76901 0.38239 0.0
O468 O 0.88628 0.71942 0.42952 0.0
O469 O 0.90057 0.72925 0.38472 0.0
O470 O 0.88033 0.67965 0.38882 0.0
O471 O 0.8657 0.70612 0.35895 0.0
H472 H 0.85057 0.62564 0.51957 0.0
H473 H 0.86455 0.61504 0.56934 0.0
H474 H 0.91574 0.6666 0.55676 0.0
H475 H 0.90178 0.67688 0.5067 0.0
H476 H 0.89672 0.76719 0.33106 0.0
H477 H 0.90905 0.78051 0.27806 0.0
H478 H 0.84358 0.80142 0.2659 0.0
H479 H 0.83131 0.78795 0.31901 0.0
Pr480 Pr 0.53273 0.62144 0.67508 0.0
Pr481 Pr 0.51273 0.62774 0.60594 0.0
C482 C 0.54777 0.63238 0.7314 0.0
C483 C 0.5561 0.63944 0.76228 0.0
C484 C 0.55931 0.62417 0.78617 0.0
C485 C 0.56578 0.63114 0.81574 0.0
C486 C 0.56933 0.65364 0.82245 0.0
C487 C 0.56636 0.66883 0.79827 0.0
C488 C 0.55983 0.66186 0.76882 0.0
C489 C 0.50871 0.58529 0.65352 0.0
C490 C 0.48309 0.64332 0.66838 0.0
C491 C 0.50052 0.62622 0.54568 0.0
C492 C 0.4919 0.63624 0.51708 0.0
C493 C 0.50196 0.65518 0.50202 0.0
C494 C 0.49496 0.66281 0.47328 0.0
C495 C 0.47776 0.65168 0.45845 0.0
C496 C 0.4676 0.63287 0.47394 0.0
C497 C 0.47454 0.62533 0.50265 0.0
C498 C 0.53928 0.66155 0.62862 0.0
C499 C 0.55886 0.60146 0.61376 0.0
O500 O 0.54381 0.64677 0.70993 0.0
O501 O 0.54449 0.61184 0.72312 0.0
O502 O 0.5047 0.60517 0.64917 0.0
O503 O 0.52376 0.58359 0.67346 0.0
O504 O 0.48218 0.63745 0.63864 0.0
O505 O 0.50051 0.6407 0.68442 0.0
O506 O 0.48704 0.62072 0.57023 0.0
O507 O 0.52038 0.63205 0.55313 0.0
O508 O 0.54217 0.64152 0.6305 0.0
O509 O 0.52201 0.66531 0.61368 0.0
O510 O 0.562 0.61187 0.64037 0.0
O511 O 0.5397 0.60118 0.60082 0.0
H512 H 0.55656 0.60679 0.78216 0.0
H513 H 0.56812 0.61881 0.83332 0.0
H514 H 0.56854 0.68626 0.80229 0.0
H515 H 0.55738 0.67416 0.75122 0.0
H516 H 0.51549 0.66399 0.5122 0.0
H517 H 0.50312 0.67751 0.46273 0.0
H518 H 0.45461 0.62344 0.46347 0.0
H519 H 0.46666 0.61048 0.51321 0.0
Pr520 Pr 0.96941 0.32433 0.14298 0.0
Pr521 Pr 0.01177 0.34692 0.15791 0.0
C522 C 0.92785 0.31312 0.13026 0.0
C523 C 0.91611 0.31312 0.10161 0.0
C524 C 0.89325 0.30889 0.10315 0.0
C525 C 0.88204 0.30983 0.07581 0.0
C526 C 0.89363 0.31495 0.04662 0.0
C527 C 0.91658 0.31915 0.04535 0.0
C528 C 0.9277 0.31827 0.0726 0.0
C529 C -0.00118 0.29808 0.17116 0.0
C530 C 0.00885 0.32182 0.08771 0.0
C531 C 0.05248 0.35896 0.17319 0.0
C532 C 0.0614 0.36101 0.20415 0.0
C533 C 0.08252 0.35415 0.20872 0.0
C534 C 0.09012 0.35434 0.23888 0.0
C535 C 0.07668 0.3615 0.26481 0.0
C536 C 0.05562 0.36855 0.25997 0.0
C537 C 0.04802 0.36821 0.23002 0.0
C538 C 0.98456 0.37516 0.12922 0.0
C539 C 0.97224 0.34347 0.21605 0.0
O540 O 0.93392 0.33256 0.14026 0.0
O541 O 0.94318 0.29891 0.13118 0.0
O542 O -0.00647 0.31682 0.17896 0.0
O543 O 0.98813 0.29127 0.14757 0.0
O544 O 0.02185 0.32806 0.10997 0.0
O545 O 0.9873 0.32243 0.09289 0.0
O546 O 0.047 0.33896 0.16489 0.0
O547 O 0.03793 0.37308 0.16698 0.0
O548 O 0.9877 0.35563 0.12088 0.0
O549 O -0.00544 0.37991 0.15426 0.0
O550 O 0.9591 0.33874 0.1935 0.0
O551 O -0.00619 0.34534 0.20922 0.0
H552 H 0.88409 0.30502 0.12548 0.0
H553 H 0.86439 0.30641 0.07744 0.0
H554 H 0.92592 0.32354 1.02334 0.0
H555 H 0.94534 0.32185 0.0711 0.0
H556 H 0.09294 0.34824 0.18911 0.0
H557 H 0.10641 0.34878 0.24197 0.0
H558 H 0.04466 0.37364 0.27954 0.0
H559 H 0.03145 0.37313 0.22725 0.0
Pr560 Pr 0.5208 0.3894 0.42192 0.0
Pr561 Pr 0.47744 0.37708 0.39067 0.0
C562 C 0.55009 0.40352 0.46261 0.0
C563 C 0.55498 0.39648 0.4944 0.0
C564 C 0.54655 0.37613 0.50674 0.0
C565 C 0.5521 0.36889 0.53616 0.0
C566 C 0.56616 0.38188 0.55398 0.0
C567 C 0.57413 0.40252 0.54183 0.0
C568 C 0.56863 0.40972 0.51228 0.0
C569 C 0.52144 0.35014 0.39025 0.0
C570 C 0.47796 0.36251 0.46417 0.0
C571 C 0.44496 0.36455 0.35397 0.0
C572 C 0.43975 0.35725 0.32213 0.0
C573 C 0.42459 0.36871 0.3061 0.0
C574 C 0.41777 0.36118 0.2773 0.0
C575 C 0.42586 0.34189 0.26382 0.0
C576 C 0.44144 0.33065 0.2796 0.0
C577 C 0.44833 0.33825 0.30842 0.0
C578 C 0.47824 0.41635 0.42411 0.0
C579 C 0.52271 0.39516 0.3461 0.0
O580 O 0.53121 0.41249 0.46033 0.0
O581 O 0.55465 0.38965 0.44004 0.0
O582 O 0.50492 0.35652 0.40693 0.0
O583 O 0.53889 0.36292 0.3925 0.0
O584 O 0.46774 0.35899 0.43838 0.0
O585 O 0.49686 0.37421 0.4637 0.0
O586 O 0.45451 0.35096 0.37177 0.0
O587 O 0.4516 0.38507 0.35734 0.0
O588 O 0.4937 0.41005 0.40542 0.0
O589 O 0.46127 0.40259 0.42511 0.0
O590 O 0.53124 0.4036 0.37131 0.0
O591 O 0.50413 0.38293 0.34835 0.0
H592 H 0.53589 0.36569 0.49341 0.0
H593 H 0.54537 0.35309 0.54497 0.0
H594 H 0.5851 0.41288 0.55479 0.0
H595 H 0.5753 0.42547 0.50318 0.0
H596 H 0.41757 0.38327 0.31628 0.0
H597 H 0.40557 0.37012 0.26612 0.0
H598 H 0.44825 0.31591 0.26974 0.0
H599 H 0.46008 0.32904 0.32015 0.0
Pr600 Pr -0.00213 0.58556 0.91876 0.0
Pr601 Pr 0.04255 0.59061 0.87725 0.0
C602 C 0.96662 0.5755 0.96582 0.0
C603 C 0.96143 0.58305 0.99835 0.0
C604 C 0.96951 0.60364 1.00811 0.0
C605 C 0.96383 0.61106 0.0386 0.0
C606 C 0.95006 0.59799 0.06009 0.0
C607 C 0.94242 0.57715 0.05038 0.0
C608 C 0.94801 0.56979 1.01979 0.0
C609 C 0.00416 0.62468 0.88633 0.0
C610 C 0.0443 0.60484 0.95103 0.0
C611 C 0.07561 0.59943 0.8319 0.0
C612 C 0.08069 0.60763 0.79911 0.0
C613 C 0.09849 0.59935 0.78077 0.0
C614 C 0.1047 0.60774 0.7505 0.0
C615 C 0.09327 0.62472 0.7377 0.0
C616 C 0.07513 0.63275 0.75601 0.0
C617 C 0.06889 0.62429 0.78634 0.0
C618 C 0.03339 0.55038 0.9087 0.0
C619 C -0.00489 0.58008 0.84383 0.0
O620 O 0.98443 0.56448 0.96073 0.0
O621 O 0.96412 0.58964 0.94337 0.0
O622 O 0.01918 0.6156 0.89966 0.0
O623 O 0.98489 0.61485 0.89244 0.0
O624 O 0.05555 0.60517 0.92321 0.0
O625 O 0.02341 0.59756 0.95476 0.0
O626 O 0.06907 0.61356 0.85321 0.0
O627 O 0.06565 0.58002 0.83604 0.0
O628 O 0.02003 0.56095 0.8944 0.0
O629 O 0.05294 0.5601 0.90609 0.0
O630 O 0.98567 0.57269 0.87118 0.0
O631 O 0.01508 0.58976 0.84152 0.0
H632 H 0.98008 0.61406 0.99205 0.0
H633 H 0.97031 0.62702 0.04539 0.0
H634 H 0.93167 0.56672 0.06618 0.0
H635 H 0.94164 0.55383 1.01277 0.0
H636 H 0.10793 0.5866 0.79013 0.0
H637 H 0.1189 0.60128 0.73747 0.0
H638 H 0.06569 0.64557 0.7469 0.0
H639 H 0.05502 0.63094 0.79992 0.0
H640 H 0.07601 0.09628 0.06294 0.0
H641 H 0.10792 0.09898 0.02459 0.0
H642 H 0.13697 0.15119 0.07786 0.0
H643 H 0.10499 0.14832 0.11678 0.0
H644 H 0.12736 0.16248 1.01678 0.0
H645 H 0.17413 0.0874 1.01342 0.0
H646 H 0.14496 0.08124 1.01783 0.0
H647 H 0.15805 0.096 0.04831 0.0
C648 C 0.08956 0.10781 0.06705 0.0
C649 C 0.08806 0.12219 0.09259 0.0
C650 C 0.10791 0.10918 0.04532 0.0
C651 C 0.12495 0.12511 0.04858 0.0
C652 C 0.12415 0.13856 0.07523 0.0
H653 H 0.17433 0.17129 0.86105 0.0
H654 H 0.17974 0.16741 0.91696 0.0
C655 C 0.1059 0.13692 0.09737 0.0
C656 C 0.14039 0.13062 1.02083 0.0
H657 H 0.17139 0.10565 0.96272 0.0
C658 C 0.13769 0.15045 1.00526 0.0
C659 C 0.15383 0.11489 1.00609 0.0
C660 C 0.1581 0.09377 1.02247 0.0
C661 C 0.14565 0.15383 0.97376 0.0
C662 C 0.15741 0.13713 0.95787 0.0
C663 C 0.16228 0.11838 0.97476 0.0
C664 C 0.16041 0.13675 0.92298 0.0
C665 C 0.13922 0.17416 0.95706 0.0
C666 C 0.14976 0.11972 0.90714 0.0
C667 C 0.14731 0.12149 0.87503 0.0
C668 C 0.1551 0.14053 0.85818 0.0
C669 C 0.16789 0.15648 0.87332 0.0
C670 C 0.17077 0.15444 0.90544 0.0
H671 H 0.12726 0.18366 0.97178 0.0
H672 H 0.15409 0.18504 0.95112 0.0
H673 H 0.13172 0.16975 0.9349 0.0
H674 H 0.14189 0.10572 0.92 0.0
H675 H 0.13808 0.10852 0.86385 0.0
H676 H 0.13777 0.76013 0.26872 0.0
H677 H 0.12566 0.77653 0.22112 0.0
H678 H 0.09826 0.82923 0.27592 0.0
H679 H 0.11083 0.81322 0.32369 0.0
H680 H 0.08538 0.78493 0.20421 0.0
H681 H 0.13504 0.86333 0.20792 0.0
H682 H 0.13929 0.84026 0.23293 0.0
H683 H 0.1171 0.85797 0.24283 0.0
C684 C 0.12922 0.77526 0.27076 0.0
C685 C 0.12544 0.78541 0.30017 0.0
C686 C 0.12228 0.78462 0.24341 0.0
C687 C 0.11139 0.80438 0.24468 0.0
C688 C 0.10714 0.81431 0.27409 0.0
H689 H 0.05446 0.88143 0.10057 0.0
H690 H 0.0649 0.866 0.15016 0.0
C691 C 0.11421 0.80503 0.30149 0.0
C692 C 0.10423 0.81425 0.21525 0.0
H693 H 0.1091 0.86065 0.16926 0.0
C694 C 0.09065 0.80147 0.19657 0.0
C695 C 0.11107 0.83586 0.20512 0.0
C696 C 0.12659 0.8501 0.22305 0.0
C697 C 0.08359 0.8097 0.16837 0.0
C698 C 0.09041 0.83127 0.15831 0.0
C699 C 0.10382 0.84414 0.17704 0.0
C700 C 0.08409 0.8406 0.12814 0.0
C701 C 0.06862 0.79536 0.14971 0.0
C702 C 0.09161 0.83163 0.09921 0.0
C703 C 0.08571 0.84043 0.07083 0.0
C704 C 0.07211 0.8584 0.07071 0.0
C705 C 0.06473 0.86744 0.09977 0.0
C706 C 0.07077 0.85871 0.12814 0.0
H707 H 0.06085 0.78135 0.16399 0.0
H708 H 0.05544 0.80498 0.14068 0.0
H709 H 0.07837 0.78864 0.12921 0.0
H710 H 0.10213 0.81783 0.09858 0.0
H711 H 0.09156 0.83293 0.04896 0.0
H712 H 0.39496 0.87227 0.24003 0.0
H713 H 0.38874 0.88285 0.29512 0.0
H714 H 0.3502 0.82253 0.31515 0.0
H715 H 0.35513 0.81248 0.25985 0.0
H716 H 0.33484 0.8562 0.3515 0.0
H717 H 0.42566 0.85168 0.3542 0.0
H718 H 0.41712 0.87188 0.32765 0.0
H719 H 0.41139 0.84323 0.32055 0.0
C720 C 0.38457 0.86158 0.25591 0.0
C721 C 0.37601 0.84125 0.24572 0.0
C722 C 0.38122 0.86756 0.28747 0.0
C723 C 0.36961 0.85314 0.30936 0.0
C724 C 0.35944 0.83378 0.29871 0.0
H725 H 0.36527 0.81288 0.49827 0.0
H726 H 0.35544 0.8216 0.44529 0.0
C727 C 0.36251 0.82794 0.26715 0.0
C728 C 0.37022 0.85666 0.34361 0.0
H729 H 0.40545 0.85775 0.40191 0.0
C730 C 0.35028 0.85685 0.36255 0.0
C731 C 0.3904 0.85729 0.35797 0.0
C732 C 0.41236 0.85582 0.33916 0.0
C733 C 0.35 0.85711 0.39553 0.0
C734 C 0.37014 0.85714 0.40972 0.0
C735 C 0.39005 0.8579 0.39081 0.0
C736 C 0.37127 0.85415 0.44394 0.0
C737 C 0.32823 0.85692 0.41496 0.0
C738 C 0.38299 0.86976 0.46092 0.0
C739 C 0.38862 0.86482 0.49114 0.0
C740 C 0.38285 0.84407 0.50473 0.0
C741 C 0.3698 0.82904 0.48852 0.0
C742 C 0.36411 0.83403 0.45828 0.0
H743 H 0.31496 0.86285 0.40116 0.0
H744 H 0.32348 0.83988 0.42289 0.0
H745 H 0.32944 0.86726 0.43618 0.0
H746 H 0.38875 0.88532 0.45015 0.0
H747 H 0.39837 0.87687 0.50332 0.0
H748 H 0.38065 0.21965 0.80725 0.0
H749 H 0.39259 0.2032 0.75709 0.0
H750 H 0.40122 0.14203 0.80448 0.0
H751 H 0.38958 0.15845 0.85499 0.0
H752 H 0.43589 0.15338 0.76091 0.0
H753 H 0.35638 0.15981 0.70764 0.0
H754 H 0.36737 0.18549 0.72146 0.0
H755 H 0.35908 0.16372 0.74912 0.0
C756 C 0.38504 0.20268 0.80712 0.0
C757 C 0.384 0.19035 0.83526 0.0
C758 C 0.39176 0.19325 0.77831 0.0
C759 C 0.39742 0.17125 0.77689 0.0
C760 C 0.3968 0.15901 0.80496 0.0
H761 H 0.4099 0.09381 0.60567 0.0
H762 H 0.39904 0.10847 0.65761 0.0
C763 C 0.39012 0.16843 0.83384 0.0
C764 C 0.40418 0.16108 0.74618 0.0
H765 H 0.38691 0.14984 0.67337 0.0
C766 C 0.42515 0.15253 0.7418 0.0
C767 C 0.39005 0.15969 0.72138 0.0
C768 C 0.36689 0.16746 0.72514 0.0
C769 C 0.43255 0.14302 0.71313 0.0
C770 C 0.41873 0.14236 0.68794 0.0
C771 C 0.39759 0.15053 0.69255 0.0
C772 C 0.42578 0.13318 0.65667 0.0
C773 C 0.45496 0.13346 0.71026 0.0
C774 C 0.44434 0.14227 0.63867 0.0
C775 C 0.45058 0.13394 0.60892 0.0
C776 C 0.43826 0.11645 0.59635 0.0
C777 C 0.41964 0.10742 0.61443 0.0
C778 C 0.41345 0.11573 0.64421 0.0
H779 H 0.46073 0.12977 0.7337 0.0
H780 H 0.45479 0.11818 0.69625 0.0
H781 H 0.46704 0.14551 0.69816 0.0
H782 H 0.45382 0.15609 0.6474 0.0
H783 H 0.46477 0.14156 0.59544 0.0
H784 H 0.85592 0.78802 0.21347 0.0
H785 H 0.86886 0.80097 0.16037 0.0
H786 H 0.92863 0.82814 0.19559 0.0
H787 H 0.91592 0.81512 0.24856 0.0
H788 H 0.87969 0.84191 0.13644 0.0
H789 H 0.95303 0.79177 0.12348 0.0
H790 H 0.93161 0.78718 0.15485 0.0
H791 H 0.95266 0.80865 0.15781 0.0
C792 C 0.8718 0.79682 0.20994 0.0
C793 C 0.88496 0.80034 0.23532 0.0
C794 C 0.87921 0.80416 0.17952 0.0
C795 C 0.89994 0.81516 0.17374 0.0
C796 C 0.91287 0.81915 0.19917 0.0
H797 H 0.97701 0.8797 1.019 0.0
H798 H 0.96017 0.86575 0.0694 0.0
C799 C 0.90554 0.81171 0.22952 0.0
C800 C 0.90797 0.82275 0.14129 0.0
H801 H 0.95132 0.82037 0.08552 0.0
C802 C 0.89525 0.83702 0.12518 0.0
C803 C 0.92823 0.81631 0.12642 0.0
C804 C 0.94207 0.79996 0.14138 0.0
C805 C 0.90261 0.84561 0.09522 0.0
C806 C 0.92313 0.83963 0.08082 0.0
C807 C 0.93564 0.82505 0.09664 0.0
C808 C 0.93243 0.84889 0.04989 0.0
C809 C 0.88872 0.86156 0.07958 0.0
C810 C 0.9224 0.84413 1.02197 0.0
C811 C 0.93207 0.85207 0.99283 0.0
C812 C 0.95196 0.86492 0.99109 0.0
C813 C 0.9617 0.86989 1.01925 0.0
C814 C 0.95211 0.86189 0.04821 0.0
H815 H 0.87544 0.86764 0.09616 0.0
H816 H 0.89909 0.87581 0.0697 0.0
H817 H 0.88095 0.85329 0.05985 0.0
H818 H 0.90736 0.83387 1.02262 0.0
H819 H 0.92417 0.84781 0.97167 0.0
H820 H 0.92998 0.19675 0.67353 0.0
H821 H 0.94199 0.18426 0.72393 0.0
H822 H 0.93846 0.24988 0.75995 0.0
H823 H 0.92653 0.26249 0.70978 0.0
H824 H 0.97739 0.22938 0.77409 0.0
H825 H 0.903 0.17556 0.8072 0.0
H826 H 0.91654 0.17047 0.76912 0.0
H827 H 0.90377 0.19604 0.77638 0.0
C828 C 0.93171 0.20857 0.69213 0.0
C829 C 0.92706 0.23069 0.68733 0.0
C830 C 0.93852 0.20135 0.72113 0.0
C831 C 0.94095 0.21601 0.74618 0.0
C832 C 0.93669 0.23814 0.74124 0.0
H833 H 0.94804 0.18779 0.94639 0.0
H834 H 0.93844 0.19948 0.89445 0.0
C835 C 0.92976 0.24534 0.71239 0.0
C836 C 0.94786 0.20841 0.77747 0.0
H837 H 0.93197 0.17482 0.84082 0.0
C838 C 0.96747 0.21739 0.7886 0.0
C839 C 0.9349 0.19295 0.79684 0.0
C840 C 0.91328 0.18327 0.78704 0.0
C841 C 0.97449 0.21124 0.81812 0.0
C842 C 0.96167 0.19553 0.83729 0.0
C843 C 0.94197 0.18671 0.82625 0.0
C844 C 0.96801 0.18852 0.86919 0.0
C845 C -0.00465 0.22206 0.82887 0.0
C846 C 0.98783 0.1782 0.87277 0.0
C847 C -0.00658 0.17145 0.90267 0.0
C848 C 0.97939 0.17487 0.92998 0.0
C849 C 0.95953 0.18515 0.92622 0.0
C850 C 0.95389 0.19173 0.89634 0.0
H851 H 0.00036 0.23734 0.81533 0.0
H852 H -0.00667 0.22607 0.85428 0.0
H853 H 0.0089 0.21062 0.82534 0.0
H854 H -0.00107 0.17513 0.85234 0.0
H855 H 0.00888 0.16372 0.90439 0.0
H856 H 0.64204 0.14611 0.71371 0.0
H857 H 0.62828 0.13322 0.66442 0.0
H858 H 0.59887 0.19512 0.65208 0.0
H859 H 0.61347 0.20855 0.70049 0.0
H860 H 0.58717 0.12685 0.64791 0.0
H861 H 0.63077 0.18847 0.56669 0.0
H862 H 0.63758 0.18516 0.60681 0.0
H863 H 0.61451 0.20081 0.59811 0.0
C864 C 0.63301 0.15719 0.70029 0.0
C865 C 0.62907 0.1785 0.71124 0.0
C866 C 0.62496 0.14969 0.67213 0.0
C867 C 0.61281 0.16327 0.65406 0.0
C868 C 0.60863 0.18445 0.66506 0.0
H869 H 0.52314 0.12028 0.51586 0.0
H870 H 0.54082 0.13227 0.56251 0.0
C871 C 0.61675 0.19201 0.69314 0.0
C872 C 0.60386 0.15498 0.6244 0.0
H873 H 0.60172 0.16665 0.54609 0.0
C874 C 0.59049 0.13552 0.62563 0.0
C875 C 0.60841 0.16599 0.59505 0.0
C876 C 0.62379 0.18613 0.59143 0.0
C877 C 0.58115 0.12711 0.59874 0.0
C878 C 0.5848 0.13871 0.56974 0.0
C879 C 0.59866 0.15785 0.56829 0.0
C880 C 0.5741 0.13146 0.54089 0.0
C881 C 0.56769 0.10567 0.60165 0.0
C882 C 0.58676 0.12767 0.51255 0.0
C883 C 0.57661 0.12092 0.4855 0.0
C884 C 0.55353 0.11784 0.48617 0.0
C885 C 0.54094 0.122 0.51448 0.0
C886 C 0.55106 0.12883 0.54136 0.0
H887 H 0.5722 0.09567 0.62179 0.0
H888 H 0.55 0.10907 0.60584 0.0
H889 H 0.56991 0.09587 0.57986 0.0
H890 H 0.60455 0.12974 0.51142 0.0
H891 H 0.58685 0.11799 0.46415 0.0
H892 H 0.54808 0.83407 0.55462 0.0
H893 H 0.56418 0.82397 0.50227 0.0
H894 H 0.49976 0.8025 0.4763 0.0
H895 H 0.48362 0.81312 0.52772 0.0
H896 H 0.5671 0.78659 0.47152 0.0
H897 H 0.51867 0.83986 0.4016 0.0
H898 H 0.51876 0.8422 0.44373 0.0
H899 H 0.50101 0.8218 0.42671 0.0
C900 C 0.53731 0.8274 0.53765 0.0
C901 C 0.51444 0.82472 0.54559 0.0
C902 C 0.54657 0.82155 0.50761 0.0
C903 C 0.53325 0.81285 0.48461 0.0
C904 C 0.51049 0.8098 0.49284 0.0
H905 H 0.57875 0.73553 0.32073 0.0
H906 H 0.56539 0.74858 0.37253 0.0
C907 C 0.50124 0.81579 0.52262 0.0
C908 C 0.54303 0.80638 0.45245 0.0
H909 H 0.53698 0.81132 0.37341 0.0
C910 C 0.56057 0.79217 0.45011 0.0
C911 C 0.535 0.81382 0.42407 0.0
C912 C 0.5175 0.83045 0.42409 0.0
C913 C 0.56975 0.7848 0.42071 0.0
C914 C 0.56086 0.79125 0.39244 0.0
C915 C 0.54374 0.80596 0.39476 0.0
C916 C 0.56906 0.78311 0.36033 0.0
C917 C 0.58927 0.77054 0.4204 0.0
C918 C 0.57491 0.7979 0.33519 0.0
C919 C 0.58222 0.79039 0.30511 0.0
C920 C 0.58395 0.76782 0.29915 0.0
C921 C 0.57792 0.75304 0.32426 0.0
C922 C 0.57041 0.76054 0.35421 0.0
H923 H 0.59848 0.77319 0.44165 0.0
H924 H 0.58338 0.75305 0.42041 0.0
H925 H 0.60081 0.77379 0.39922 0.0
H926 H 0.57397 0.81538 0.33885 0.0
H927 H 0.58664 0.80235 0.28654 0.0
H928 H 0.63607 0.67753 0.38003 0.0
H929 H 0.6391 0.66356 0.43269 0.0
H930 H 0.63969 0.59751 0.3974 0.0
H931 H 0.63848 0.61147 0.34392 0.0
H932 H 0.60382 0.63915 0.45396 0.0
H933 H 0.67798 0.59288 0.47069 0.0
H934 H 0.67678 0.61234 0.43883 0.0
H935 H 0.66466 0.58502 0.4361 0.0
C936 C 0.63795 0.66013 0.38294 0.0
C937 C 0.63645 0.6456 0.35758 0.0
C938 C 0.63963 0.65215 0.41328 0.0
C939 C 0.63947 0.62949 0.41905 0.0
C940 C 0.64007 0.61507 0.39353 0.0
H941 H 0.5592 0.57083 0.56754 0.0
H942 H 0.58587 0.57157 0.52169 0.0
C943 C 0.63885 0.62309 0.36299 0.0
C944 C 0.63337 0.62107 0.45132 0.0
H945 H 0.64673 0.58569 0.50847 0.0
C946 C 0.61345 0.62775 0.46601 0.0
C947 C 0.64577 0.60594 0.46681 0.0
C948 C 0.6676 0.59876 0.45242 0.0
C949 C 0.60539 0.61962 0.49552 0.0
C950 C 0.61739 0.60402 0.51068 0.0
C951 C 0.63753 0.59747 0.49647 0.0
C952 C 0.60858 0.59498 0.54147 0.0
C953 C 0.58381 0.62757 0.51011 0.0
C954 C 0.61371 0.60625 0.56871 0.0
C955 C 0.59849 0.60582 0.59503 0.0
C956 C 0.57803 0.59431 0.59393 0.0
C957 C 0.5747 0.58015 0.56869 0.0
C958 C 0.59002 0.5804 0.54257 0.0
H959 H 0.57817 0.6418 0.49712 0.0
H960 H 0.57088 0.61412 0.51001 0.0
H961 H 0.58535 0.63242 0.53493 0.0
H962 H 0.62796 0.61762 0.56817 0.0
H963 H 0.60157 0.61676 0.61431 0.0
H964 H 0.64177 0.27527 0.77549 0.0
H965 H 0.62779 0.2933 0.73048 0.0
H966 H 0.60847 0.34745 0.78912 0.0
H967 H 0.62239 0.32942 0.83469 0.0
H968 H 0.58204 0.3076 0.72742 0.0
H969 H 0.64668 0.37521 0.7099 0.0
H970 H 0.65116 0.35024 0.73087 0.0
H971 H 0.63401 0.37035 0.7491 0.0
C972 C 0.63469 0.29108 0.77895 0.0
C973 C 0.63331 0.30091 0.80883 0.0
C974 C 0.62664 0.30134 0.75312 0.0
C975 C 0.61724 0.32177 0.75636 0.0
C976 C 0.61588 0.33176 0.78603 0.0
H977 H 0.56977 0.40449 0.60917 0.0
H978 H 0.58086 0.3906 0.65932 0.0
C979 C 0.62379 0.3214 0.81207 0.0
C980 C 0.60846 0.33219 0.72865 0.0
H981 H 0.61882 0.37377 0.67469 0.0
C982 C 0.59 0.32214 0.71595 0.0
C983 C 0.61877 0.35123 0.71389 0.0
C984 C 0.63884 0.36244 0.72638 0.0
C985 C 0.58163 0.3305 0.68877 0.0
C986 C 0.59242 0.3491 0.67323 0.0
C987 C 0.61059 0.35947 0.68643 0.0
C988 C 0.58556 0.35758 0.64279 0.0
C989 C 0.56114 0.31944 0.67723 0.0
C990 C 0.58483 0.3438 0.61655 0.0
C991 C 0.57843 0.35167 0.58794 0.0
C992 C 0.57288 0.37362 0.58467 0.0
C993 C 0.57402 0.38753 0.61079 0.0
C994 C 0.5803 0.37959 0.63953 0.0
H995 H 0.5511 0.31053 0.69661 0.0
H996 H 0.55074 0.33148 0.66666 0.0
H997 H 0.56596 0.30726 0.65905 0.0
H998 H 0.58945 0.32696 0.61807 0.0
H999 H 0.57821 0.34061 0.56816 0.0
H1000 H 0.90639 0.29878 0.98899 0.0
H1001 H 0.88976 0.30449 0.93955 0.0
H1002 H 0.83795 0.33955 0.98848 0.0
H1003 H 0.85474 0.33421 0.03834 0.0
H1004 H 0.82627 0.30528 0.93703 0.0
H1005 H 0.89055 0.3702 0.90197 0.0
H1006 H 0.90097 0.34577 0.91774 0.0
H1007 H 0.88328 0.36226 0.94252 0.0
C1008 C 0.89143 0.30766 0.98931 0.0
C1009 C 0.88203 0.31631 1.01746 0.0
C1010 C 0.8819 0.31079 0.96111 0.0
C1011 C 0.86281 0.3226 0.9605 0.0
C1012 C 0.85271 0.3304 0.98865 0.0
H1013 H 0.85292 0.3587 0.76599 0.0
H1014 H 0.8431 0.36231 0.82233 0.0
C1015 C 0.86228 0.32728 1.01702 0.0
C1016 C 0.85459 0.32776 0.92985 0.0
H1017 H 0.87206 0.35309 0.86048 0.0
C1018 C 0.83589 0.31612 0.92037 0.0
C1019 C 0.86686 0.34232 0.90857 0.0
C1020 C 0.88643 0.35604 0.91822 0.0
C1021 C 0.83027 0.31729 0.88909 0.0
C1022 C 0.84402 0.33004 0.86689 0.0
C1023 C 0.86153 0.34317 0.87729 0.0
C1024 C 0.84308 0.32752 0.83242 0.0
C1025 C 0.81011 0.30431 0.87999 0.0
C1026 C 0.84527 0.3067 0.81908 0.0
C1027 C 0.85053 0.30457 0.78685 0.0
C1028 C 0.85423 0.32326 0.76739 0.0
C1029 C 0.85018 0.34396 0.78029 0.0
C1030 C 0.84463 0.34606 0.81255 0.0
H1031 H 0.79701 0.30368 0.89969 0.0
H1032 H 0.80344 0.31141 0.8589 0.0
H1033 H 0.81446 0.28719 0.87488 0.0
H1034 H 0.84467 0.29216 0.83383 0.0
H1035 H 0.85309 0.28835 0.7775 0.0
H1036 H 0.87514 0.70289 0.30083 0.0
H1037 H 0.88866 0.68564 0.25203 0.0
H1038 H 0.90865 0.63063 0.30467 0.0
H1039 H 0.89516 0.64784 0.354 0.0
H1040 H 0.93376 0.67208 0.23647 0.0
H1041 H 0.8704 0.60331 0.23522 0.0
H1042 H 0.86603 0.6277 0.25823 0.0
H1043 H 0.88383 0.60749 0.27098 0.0
C1044 C 0.88227 0.68705 0.30221 0.0
C1045 C 0.88396 0.67674 0.33151 0.0
C1046 C 0.89006 0.67724 0.27418 0.0
C1047 C 0.89951 0.65677 0.27463 0.0
C1048 C 0.90117 0.64632 0.30374 0.0
H1049 H 0.94726 0.57557 0.11652 0.0
H1050 H 0.93618 0.58934 0.16904 0.0
C1051 C 0.89352 0.65623 0.33193 0.0
C1052 C 0.90803 0.64682 0.24453 0.0
H1053 H 0.89809 0.60523 0.19335 0.0
C1054 C 0.92602 0.65742 0.22707 0.0
C1055 C 0.89802 0.62762 0.2324 0.0
C1056 C 0.87841 0.61584 0.24995 0.0
C1057 C 0.93425 0.64938 0.19781 0.0
C1058 C 0.92381 0.63055 0.1851 0.0
C1059 C 0.90607 0.6197 0.20292 0.0
C1060 C 0.93069 0.62218 0.15311 0.0
C1061 C 0.9543 0.66101 0.18107 0.0
C1062 C 0.93101 0.63589 0.12647 0.0
C1063 C 0.93744 0.62809 0.09646 0.0
C1064 C 0.9434 0.60626 0.09223 0.0
C1065 C 0.94268 0.59242 0.11886 0.0
C1066 C 0.93639 0.6003 0.14894 0.0
H1067 H 0.96429 0.6702 0.19782 0.0
H1068 H 0.96494 0.6493 0.16805 0.0
H1069 H 0.94895 0.67303 0.16399 0.0
H1070 H 0.92604 0.65262 0.12881 0.0
H1071 H 0.93733 0.63908 0.07646 0.0
H1072 H 0.44207 0.33365 0.475 0.0
H1073 H 0.42491 0.32022 0.52577 0.0
H1074 H 0.47327 0.35833 0.57364 0.0
H1075 H 0.49089 0.3713 0.52307 0.0
H1076 H 0.46647 0.31861 0.59972 0.0
H1077 H 0.38557 0.35363 0.5863 0.0
H1078 H 0.39357 0.33519 0.55531 0.0
H1079 H 0.40951 0.36043 0.55979 0.0
C1080 C 0.44908 0.33917 0.49632 0.0
C1081 C 0.46781 0.35368 0.49485 0.0
C1082 C 0.43913 0.33158 0.5254 0.0
C1083 C 0.44746 0.33861 0.55369 0.0
C1084 C 0.46642 0.35274 0.55222 0.0
H1085 H 0.37856 0.33342 0.73978 0.0
H1086 H 0.39582 0.34342 0.68775 0.0
C1087 C 0.47649 0.36017 0.5232 0.0
C1088 C 0.43659 0.33123 0.58483 0.0
H1089 H 0.38775 0.33015 0.63034 0.0
C1090 C 0.44926 0.32115 0.60641 0.0
C1091 C 0.41419 0.33481 0.59385 0.0
C1092 C 0.39996 0.3468 0.57275 0.0
C1093 C 0.44019 0.31452 0.63656 0.0
C1094 C 0.41761 0.31749 0.64521 0.0
C1095 C 0.40497 0.32763 0.62367 0.0
C1096 C 0.40698 0.31103 0.67689 0.0
C1097 C 0.45513 0.30504 0.65915 0.0
C1098 C 0.40714 0.28937 0.68815 0.0
C1099 C 0.39758 0.28364 0.71827 0.0
C1100 C 0.38734 0.29938 0.73772 0.0
C1101 C 0.38668 0.32092 0.72592 0.0
C1102 C 0.39639 0.32665 0.69594 0.0
H1103 H 0.47274 0.30964 0.65238 0.0
H1104 H 0.45101 0.31066 0.68354 0.0
H1105 H 0.45312 0.28688 0.6589 0.0
H1106 H 0.4147 0.27685 0.67368 0.0
H1107 H 0.3986 0.26694 0.72646 0.0
H1108 H 0.50312 0.67169 0.40821 0.0
H1109 H 0.4916 0.6838 0.35754 0.0
H1110 H 0.4251 0.66003 0.3848 0.0
H1111 H 0.43616 0.64889 0.43602 0.0
H1112 H 0.47518 0.66291 0.30925 0.0
H1113 H 0.413 0.72001 0.35522 0.0
H1114 H 0.43196 0.70813 0.38 0.0
H1115 H 0.40745 0.69272 0.37051 0.0
C1116 C 0.48592 0.66935 0.40386 0.0
C1117 C 0.47067 0.65932 0.42693 0.0
C1118 C 0.47936 0.67614 0.37447 0.0
C1119 C 0.4573 0.67328 0.36702 0.0
C1120 C 0.4421 0.66303 0.3898 0.0
H1121 H 0.41573 0.6831 0.17192 0.0
H1122 H 0.42657 0.6696 0.22255 0.0
C1123 C 0.44862 0.65631 0.41921 0.0
C1124 C 0.45033 0.6807 0.33546 0.0
H1125 H 0.41334 0.71175 0.30079 0.0
C1126 C 0.46166 0.67362 0.30751 0.0
C1127 C 0.43287 0.69499 0.33263 0.0
C1128 C 0.42076 0.7046 0.36116 0.0
C1129 C 0.45598 0.68011 0.27734 0.0
C1130 C 0.43805 0.69381 0.27451 0.0
C1131 C 0.42688 0.70106 0.30248 0.0
C1132 C 0.43123 0.70172 0.24309 0.0
C1133 C 0.46979 0.67269 0.24879 0.0
C1134 C 0.42945 0.72427 0.23742 0.0
C1135 C 0.42298 0.732 0.20858 0.0
C1136 C 0.41797 0.71749 0.18417 0.0
C1137 C 0.41957 0.69487 0.18985 0.0
C1138 C 0.42598 0.6871 0.2189 0.0
H1139 H 0.48626 0.66786 0.2549 0.0
H1140 H 0.46137 0.65817 0.23862 0.0
H1141 H 0.4721 0.6858 0.2305 0.0
H1142 H 0.43325 0.73606 0.25535 0.0
H1143 H 0.42197 0.74953 0.20546 0.0
H1144 H 0.11511 0.70611 0.19289 0.0
H1145 H 0.09889 0.69247 0.14568 0.0
H1146 H 0.13385 0.63309 0.15123 0.0
H1147 H 0.14922 0.64604 0.19933 0.0
H1148 H 0.11657 0.68131 0.08855 0.0
H1149 H 0.07201 0.60829 0.1449 0.0
H1150 H 0.08453 0.6298 0.16736 0.0
H1151 H 0.10105 0.60896 0.14927 0.0
C1152 C 0.11916 0.69 0.1844 0.0
C1153 C 0.13338 0.67714 0.20035 0.0
C1154 C 0.10999 0.6823 0.15714 0.0
C1155 C 0.11475 0.66154 0.1451 0.0
C1156 C 0.12944 0.64893 0.16038 0.0
H1157 H 0.08799 0.61693 0.95577 0.0
H1158 H 0.10533 0.6307 1.00214 0.0
C1159 C 0.13852 0.65655 0.18774 0.0
C1160 C 0.10444 0.65317 0.11653 0.0
H1161 H 0.07324 0.61037 0.08911 0.0
C1162 C 0.10706 0.66581 0.08871 0.0
C1163 C 0.09169 0.6331 0.11673 0.0
C1164 C 0.08693 0.61935 0.14624 0.0
C1165 C 0.09757 0.65887 0.06114 0.0
C1166 C 0.08551 0.63842 0.06102 0.0
C1167 C 0.08268 0.62591 0.08896 0.0
C1168 C 0.07511 0.62995 0.03257 0.0
C1169 C 0.1001 0.67384 0.03266 0.0
C1170 C 0.05244 0.62422 0.03426 0.0
C1171 C 0.04253 0.61604 1.00789 0.0
C1172 C 0.05504 0.61336 0.97906 0.0
C1173 C 0.07779 0.61894 0.97745 0.0
C1174 C 0.08772 0.62699 1.00395 0.0
H1175 H 0.10402 0.6911 0.0392 0.0
H1176 H 0.11386 0.6685 1.01633 0.0
H1177 H 0.08488 0.67329 1.01996 0.0
H1178 H 0.04232 0.62623 0.05602 0.0
H1179 H 0.02498 0.61195 1.01014 0.0
H1180 H 0.06432 0.27735 0.79672 0.0
H1181 H 0.05324 0.29013 0.84952 0.0
H1182 H 0.07425 0.2304 0.88928 0.0
H1183 H 0.08524 0.21729 0.83625 0.0
H1184 H 0.03454 0.2422 0.91784 0.0
H1185 H 0.0937 0.31408 0.91368 0.0
H1186 H 0.07636 0.31368 0.88158 0.0
H1187 H 0.09548 0.29244 0.88504 0.0
C1188 C 0.06663 0.26682 0.81659 0.0
C1189 C 0.07587 0.24625 0.81193 0.0
C1190 C 0.06039 0.2743 0.84696 0.0
C1191 C 0.06331 0.26154 0.87373 0.0
C1192 C 0.07197 0.24072 0.86918 0.0
H1193 H 0.05219 0.31426 0.06747 0.0
H1194 H 0.06613 0.29884 1.01694 0.0
C1195 C 0.07826 0.23322 0.83873 0.0
C1196 C 0.05704 0.26984 0.90625 0.0
H1197 H 0.06539 0.31303 0.95579 0.0
C1198 C 0.04141 0.25762 0.92614 0.0
C1199 C 0.06619 0.28982 0.91764 0.0
C1200 C 0.08402 0.30317 0.89853 0.0
C1201 C 0.03421 0.2651 0.95637 0.0
C1202 C 0.04255 0.28562 0.96713 0.0
C1203 C 0.05873 0.29747 0.94766 0.0
C1204 C 0.03425 0.29529 0.998 0.0
C1205 C 0.01784 0.25075 0.97661 0.0
C1206 C 0.01177 0.29902 1.00424 0.0
C1207 C 0.0038 0.30785 0.03302 0.0
C1208 C 0.01805 0.31343 0.05656 0.0
C1209 C 0.04068 0.31018 0.05007 0.0
C1210 C 0.04867 0.30131 1.02111 0.0
H1211 H 0.01836 0.23327 0.96956 0.0
H1212 H 0.02098 0.25197 1.00187 0.0
H1213 H 0.00097 0.25609 0.97381 0.0
H1214 H 0.00029 0.29519 0.98671 0.0
H1215 H 0.9863 0.31021 0.03678 0.0
H1216 H 0.02202 0.26453 0.14536 0.0
H1217 H 0.0566 0.25139 0.16208 0.0
H1218 H 0.05581 0.2987 0.23695 0.0
H1219 H 0.02107 0.31168 0.22071 0.0
H1220 H 0.10159 0.27844 0.17572 0.0
H1221 H 0.05748 0.23505 0.27831 0.0
H1222 H 0.03998 0.24366 0.24893 0.0
H1223 H 0.05494 0.2639 0.27039 0.0
C1224 C 0.02916 0.27202 0.16542 0.0
C1225 C 0.01882 0.28891 0.18187 0.0
C1226 C 0.04905 0.26482 0.17466 0.0
C1227 C 0.05887 0.2744 0.20042 0.0
C1228 C 0.04862 0.29132 0.21685 0.0
H1229 H 0.06155 0.15994 0.19025 0.0
H1230 H 0.08831 0.18247 0.21677 0.0
C1231 C 0.02869 0.2985 0.20766 0.0
C1232 C 0.07818 0.2642 0.21174 0.0
H1233 H 0.08055 0.21375 0.24368 0.0
C1234 C 0.09751 0.26458 0.19149 0.0
C1235 C 0.07452 0.24721 0.23438 0.0
C1236 C 0.05575 0.24743 0.25959 0.0
C1237 C 0.10926 0.24547 0.1876 0.0
C1238 C 0.09956 0.22587 0.20146 0.0
C1239 C 0.08602 0.22806 0.22951 0.0
C1240 C 0.09245 0.20773 0.18043 0.0
C1241 C 0.12912 0.2453 0.16427 0.0
C1242 C 0.0874 0.21282 0.14946 0.0
C1243 C 0.07262 0.19946 0.13397 0.0
C1244 C 0.06218 0.18107 0.14926 0.0
C1245 C 0.06886 0.17455 0.17848 0.0
C1246 C 0.08436 0.18741 0.19353 0.0
H1247 H 0.14241 0.25629 0.17274 0.0
H1248 H 0.1353 0.22856 0.16119 0.0
H1249 H 0.12518 0.25194 0.14119 0.0
H1250 H 0.09285 0.2282 0.1381 0.0
H1251 H 0.06803 0.20455 0.1111 0.0
H1252 H 0.91155 0.70798 0.47065 0.0
H1253 H 0.94749 0.70545 0.49193 0.0
H1254 H 0.97962 0.72193 0.40042 0.0
H1255 H 0.94374 0.72439 0.37892 0.0
H1256 H -0.00468 0.68358 0.43836 0.0
H1257 H -0.01044 0.76362 0.50016 0.0
H1258 H 0.96712 0.74312 0.50398 0.0
H1259 H 0.97318 0.75771 0.46749 0.0
C1260 C 0.92632 0.71074 0.455 0.0
C1261 C 0.92504 0.71646 0.42318 0.0
C1262 C 0.94672 0.70938 0.46724 0.0
C1263 C 0.96597 0.71371 0.44772 0.0
C1264 C 0.96475 0.7186 0.41571 0.0
H1265 H 0.08302 0.76069 0.39921 0.0
H1266 H 0.04679 0.75529 0.42777 0.0
C1267 C 0.94437 0.72 0.40347 0.0
C1268 C 0.98767 0.71413 0.46028 0.0
H1269 H 0.02505 0.75088 0.48802 0.0
C1270 C 0.00186 0.69784 0.45027 0.0
C1271 C -0.00428 0.73272 0.47613 0.0
C1272 C 0.9807 0.75037 0.4877 0.0
C1273 C 0.02458 0.70091 0.45212 0.0
C1274 C 0.03301 0.72074 0.46481 0.0
C1275 C 0.01846 0.73578 0.47833 0.0
C1276 C 0.05603 0.72838 0.45655 0.0
C1277 C 0.03937 0.68411 0.43706 0.0
C1278 C 0.07349 0.71607 0.46492 0.0
C1279 C 0.09393 0.71869 0.44789 0.0
C1280 C 0.09714 0.73408 0.42314 0.0
C1281 C 0.08066 0.74848 0.41787 0.0
C1282 C 0.06008 0.74552 0.43439 0.0
H1283 H 0.02996 0.67057 0.426 0.0
H1284 H 0.05116 0.69197 0.41868 0.0
H1285 H 0.04897 0.67681 0.45516 0.0
H1286 H 0.07078 0.70319 0.48256 0.0
H1287 H 0.10681 0.70788 0.45289 0.0
H1288 H 0.58143 0.65866 0.64406 0.0
H1289 H 0.60364 0.68642 0.67101 0.0
H1290 H 0.54798 0.72771 0.67836 0.0
H1291 H 0.52636 0.70069 0.6506 0.0
H1292 H 0.60981 0.73413 0.64523 0.0
H1293 H 0.576 0.73284 0.76743 0.0
H1294 H 0.58463 0.70847 0.74662 0.0
H1295 H 0.5571 0.71765 0.74452 0.0
C1296 C 0.57407 0.67374 0.65164 0.0
C1297 C 0.55237 0.67789 0.64502 0.0
C1298 C 0.58667 0.68936 0.66724 0.0
C1299 C 0.57738 0.70887 0.67718 0.0
C1300 C 0.55542 0.71257 0.67133 0.0
H1301 H 0.52006 0.77181 0.62202 0.0
H1302 H 0.55595 0.75983 0.63427 0.0
C1303 C 0.54311 0.69732 0.65511 0.0
C1304 C 0.59073 0.72729 0.68924 0.0
H1305 H 0.56378 0.76431 0.73385 0.0
C1306 C 0.60093 0.74116 0.6655 0.0
C1307 C 0.58203 0.73702 0.71711 0.0
C1308 C 0.57465 0.72316 0.74562 0.0
C1309 C 0.59426 0.76273 0.66342 0.0
C1310 C 0.57786 0.76965 0.68599 0.0
C1311 C 0.57495 0.75842 0.71505 0.0
C1312 C 0.55839 0.78039 0.67556 0.0
C1313 C 0.60161 0.77633 0.6346 0.0
C1314 C 0.54724 0.79526 0.69512 0.0
C1315 C 0.52631 0.80135 0.68871 0.0
C1316 C 0.51622 0.79294 0.66241 0.0
C1317 C 0.52742 0.7784 0.64249 0.0
C1318 C 0.54827 0.77209 0.64909 0.0
H1319 H 0.61977 0.77606 0.62996 0.0
H1320 H 0.5942 0.76912 0.61379 0.0
H1321 H 0.59683 0.79359 0.63731 0.0
H1322 H 0.55437 0.80154 0.71597 0.0
H1323 H 0.51791 0.81254 0.70456 0.0
H1324 H 0.60424 0.2661 0.95243 0.0
H1325 H 0.56754 0.26575 0.98058 0.0
H1326 H 0.53811 0.25047 0.89408 0.0
H1327 H 0.57466 0.25071 0.86579 0.0
H1328 H 0.51994 0.28695 0.93744 0.0
H1329 H 0.52755 0.20488 0.99242 0.0
H1330 H 0.54946 0.22585 0.99288 0.0
H1331 H 0.54398 0.21272 0.95663 0.0
C1332 C 0.58989 0.2629 0.93939 0.0
C1333 C 0.59213 0.25824 0.90702 0.0
C1334 C 0.56906 0.26265 0.95552 0.0
C1335 C 0.55038 0.25784 0.93933 0.0
C1336 C 0.55253 0.25411 0.90681 0.0
H1337 H 0.4289 0.21102 0.92161 0.0
H1338 H 0.46661 0.21504 0.93725 0.0
C1339 C 0.57331 0.25428 0.89072 0.0
C1340 C 0.52834 0.25596 0.95587 0.0
H1341 H 0.49175 0.21738 0.99027 0.0
C1342 C 0.51373 0.27212 0.94997 0.0
C1343 C 0.52068 0.23654 0.97216 0.0
C1344 C 0.53613 0.2189 0.97905 0.0
C1345 C 0.49108 0.26847 0.95717 0.0
C1346 C 0.4831 0.2482 0.97116 0.0
C1347 C 0.498 0.23288 0.97971 0.0
C1348 C 0.45973 0.24104 0.9705 0.0
C1349 C 0.47585 0.28542 0.94681 0.0
C1350 C 0.44323 0.25322 0.98573 0.0
C1351 C 0.42191 0.25134 0.97617 0.0
C1352 C 0.41689 0.23684 0.95199 0.0
C1353 C 0.4326 0.22248 0.94001 0.0
C1354 C 0.45405 0.22469 0.9491 0.0
H1355 H 0.48482 0.299 0.93294 0.0
H1356 H 0.46332 0.27774 0.93222 0.0
H1357 H 0.4671 0.29264 0.96781 0.0
H1358 H 0.44727 0.26555 1.00282 0.0
H1359 H 0.40973 0.26218 0.98624 0.0
H1360 H -0.00519 0.80479 0.9394 0.0
H1361 H -0.00626 0.76763 0.91815 0.0
H1362 H 0.98197 0.79328 0.82683 0.0
H1363 H 0.98314 0.83054 0.84787 0.0
H1364 H 0.95935 0.74467 0.88316 0.0
H1365 H 0.04103 0.75915 0.81558 0.0
H1366 H 0.03221 0.77666 0.84769 0.0
H1367 H 0.01964 0.77802 0.81118 0.0
C1368 C -0.00833 0.80245 0.91495 0.0
C1369 C -0.01075 0.8204 0.89517 0.0
C1370 C -0.00893 0.78132 0.90286 0.0
C1371 C 0.98809 0.77796 0.87091 0.0
C1372 C 0.98454 0.79573 0.85145 0.0
H1373 H 0.98041 0.63769 0.83961 0.0
H1374 H 0.97779 0.67545 0.82131 0.0
C1375 C 0.98508 0.81689 0.86355 0.0
C1376 C -0.01012 0.7558 0.85819 0.0
H1377 H 0.02742 0.72263 0.82228 0.0
C1378 C 0.97389 0.73978 0.86909 0.0
C1379 C 0.00896 0.74981 0.8399 0.0
C1380 C 0.02656 0.76671 0.82786 0.0
C1381 C 0.97726 0.71754 0.86437 0.0
C1382 C -0.00297 0.71138 0.84773 0.0
C1383 C 0.01229 0.72753 0.83479 0.0
C1384 C 0.00361 0.68857 0.84884 0.0
C1385 C 0.96053 0.70086 0.87964 0.0
C1386 C 0.02038 0.68339 0.86799 0.0
C1387 C 0.02215 0.66183 0.87805 0.0
C1388 C 0.00693 0.64553 0.86929 0.0
C1389 C -0.00804 0.65028 0.84714 0.0
C1390 C -0.0095 0.67173 0.8366 0.0
H1391 H 0.94773 0.70858 0.89532 0.0
H1392 H 0.95214 0.69179 0.86114 0.0
H1393 H 0.96875 0.68881 0.89373 0.0
H1394 H 0.03072 0.69626 0.87751 0.0
H1395 H 0.03393 0.65835 0.89491 0.0
H1396 H 0.5818 0.77216 0.14996 0.0
H1397 H 0.57811 0.77716 0.09365 0.0
H1398 H 0.53366 0.71974 0.09569 0.0
H1399 H 0.53911 0.71377 0.15061 0.0
H1400 H 0.56308 0.71816 0.04573 0.0
H1401 H 0.53161 0.80242 0.04844 0.0
H1402 H 0.55819 0.79739 0.06153 0.0
H1403 H 0.53372 0.78839 0.08528 0.0
C1404 C 0.57098 0.76095 0.13837 0.0
C1405 C 0.56108 0.74241 0.15445 0.0
C1406 C 0.56891 0.76376 0.1061 0.0
C1407 C 0.55581 0.7487 0.09007 0.0
C1408 C 0.54435 0.73134 0.1071 0.0
H1409 H 0.47147 0.71722 0.08756 0.0
H1410 H 0.50692 0.71484 0.05846 0.0
C1411 C 0.54709 0.72814 0.13877 0.0
C1412 C 0.55258 0.75075 0.05608 0.0
H1413 H 0.51621 0.777 1.01503 0.0
C1414 C 0.55361 0.73147 0.03812 0.0
C1415 C 0.54141 0.76853 0.04458 0.0
C1416 C 0.54113 0.79043 0.06073 0.0
C1417 C 0.53888 0.72746 1.01494 0.0
C1418 C 0.52265 0.74274 1.01149 0.0
C1419 C 0.52732 0.76446 1.02054 0.0
C1420 C 0.49932 0.7353 1.01914 0.0
C1421 C 0.53688 0.7051 1.00034 0.0
C1422 C 0.48239 0.74607 1.00591 0.0
C1423 C 0.46178 0.74704 1.02268 0.0
C1424 C 0.45825 0.7376 0.0529 0.0
C1425 C 0.47413 0.72478 0.06442 0.0
C1426 C 0.49435 0.72324 0.04737 0.0
H1427 H 0.55177 0.6957 1.00271 0.0
H1428 H 0.52259 0.69543 1.01194 0.0
H1429 H 0.53397 0.70678 0.97507 0.0
H1430 H 0.4858 0.75563 0.98445 0.0
H1431 H 0.44945 0.75693 1.01344 0.0
H1432 H 0.54476 0.15004 0.36621 0.0
H1433 H 0.55392 0.18527 0.33926 0.0
H1434 H 0.48704 0.204 0.36076 0.0
H1435 H 0.47759 0.16833 0.38528 0.0
H1436 H 0.50294 0.22083 0.30539 0.0
H1437 H 0.56435 0.23629 0.39429 0.0
H1438 H 0.56945 0.21426 0.36747 0.0
H1439 H 0.54613 0.21216 0.39618 0.0
C1440 C 0.53205 0.16161 0.36463 0.0
C1441 C 0.51064 0.15678 0.37823 0.0
C1442 C 0.53727 0.1817 0.34934 0.0
C1443 C 0.52131 0.19747 0.34873 0.0
C1444 C 0.49964 0.1921 0.36093 0.0
H1445 H 0.48808 0.31906 0.38624 0.0
H1446 H 0.49084 0.28334 0.3609 0.0
C1447 C 0.4943 0.17182 0.37528 0.0
C1448 C 0.52725 0.22048 0.33949 0.0
H1449 H 0.55326 0.26614 0.36735 0.0
C1450 C 0.51436 0.23073 0.31832 0.0
C1451 C 0.54234 0.23334 0.35617 0.0
C1452 C 0.55628 0.22357 0.37993 0.0
C1453 C 0.51452 0.25363 0.31589 0.0
C1454 C 0.52808 0.26638 0.33477 0.0
C1455 C 0.54281 0.25616 0.35302 0.0
C1456 C 0.52446 0.28964 0.34125 0.0
C1457 C 0.49925 0.26401 0.29471 0.0
C1458 C 0.54228 0.30508 0.338 0.0
C1459 C 0.54082 0.32528 0.35283 0.0
C1460 C 0.52158 0.3302 0.37125 0.0
C1461 C 0.50315 0.31548 0.37243 0.0
C1462 C 0.50462 0.29524 0.35756 0.0
H1463 H 0.49591 0.25323 0.27453 0.0
H1464 H 0.48329 0.26656 0.30828 0.0
H1465 H 0.5062 0.28018 0.28559 0.0
H1466 H 0.55776 0.30093 0.32577 0.0
H1467 H 0.55513 0.33659 0.35111 0.0
H1468 H 0.04121 0.23984 0.67076 0.0
H1469 H 0.02815 0.23262 0.61895 0.0
H1470 H 0.03882 0.16375 0.62997 0.0
H1471 H 0.05122 0.17088 0.68248 0.0
H1472 H 0.05657 0.21197 0.56779 0.0
H1473 H 0.97649 0.16569 0.59696 0.0
H1474 H 0.98811 0.18152 0.62775 0.0
H1475 H 0.00161 0.15786 0.61264 0.0
C1476 C 0.03965 0.22304 0.66278 0.0
C1477 C 0.04656 0.20586 0.68081 0.0
C1478 C 0.03277 0.21897 0.63295 0.0
C1479 C 0.03299 0.19771 0.62053 0.0
C1480 C 0.03858 0.18023 0.6392 0.0
H1481 H 0.93825 0.23473 0.52938 0.0
H1482 H 0.96753 0.21137 0.51022 0.0
C1483 C 0.0452 0.18428 0.66938 0.0
C1484 C 0.02706 0.19465 0.58798 0.0
H1485 H 0.97852 0.19082 0.55487 0.0
C1486 C 0.03977 0.20657 0.56415 0.0
C1487 C 0.00579 0.18638 0.58231 0.0
C1488 C -0.00786 0.17201 0.60609 0.0
C1489 C 0.02984 0.21472 0.53828 0.0
C1490 C 0.00679 0.2116 0.5377 0.0
C1491 C -0.00405 0.19464 0.55644 0.0
C1492 C -0.00675 0.23049 0.53134 0.0
C1493 C 0.04331 0.22937 0.51476 0.0
C1494 C -0.00175 0.25059 0.54612 0.0
C1495 C 0.98148 0.26422 0.55637 0.0
C1496 C 0.95962 0.25779 0.55218 0.0
C1497 C 0.95503 0.23974 0.53319 0.0
C1498 C 0.97186 0.22648 0.52199 0.0
H1499 H 0.05823 0.22095 0.50566 0.0
H1500 H 0.0338 0.23379 0.49469 0.0
H1501 H 0.0491 0.24453 0.5265 0.0
H1502 H 0.01444 0.25433 0.55401 0.0
H1503 H 0.98531 0.27819 0.57091 0.0
H1504 H 0.0438 0.05223 0.12948 0.0
H1505 H 0.03704 0.02435 0.08982 0.0
H1506 H 0.98445 0.06135 0.05801 0.0
H1507 H -0.0088 0.08936 0.09762 0.0
H1508 H -0.00156 -0.00104 0.08272 0.0
H1509 H 0.02264 0.05009 0.97629 0.0
H1510 H 0.02966 0.05807 1.01513 0.0
H1511 H 0.00239 0.06165 1.00343 0.0
C1512 C 0.03081 0.05442 0.11401 0.0
C1513 C 0.01807 0.07298 0.11652 0.0
C1514 C 0.02698 0.03851 0.09136 0.0
C1515 C 0.01046 0.04093 0.07067 0.0
C1516 C -0.00243 0.05937 0.07332 0.0
H1517 H 0.94837 0.94123 0.9596 0.0
H1518 H 0.9574 0.97021 0.99654 0.0
C1519 C 0.00137 0.07529 0.09603 0.0
C1520 C 0.00633 0.02379 0.047 0.0
H1521 H 0.00565 0.01489 0.96798 0.0
C1522 C 8e-05 0.00242 0.05763 0.0
C1523 C 0.00877 0.02829 1.01427 0.0
C1524 C 0.01643 0.05071 1.00148 0.0
C1525 C -0.00427 0.98553 0.03644 0.0
C1526 C -0.00255 -0.0098 1.00378 0.0
C1527 C 0.00418 0.01143 0.99306 0.0
C1528 C -0.00802 0.97323 0.98051 0.0
C1529 C -0.01053 0.96276 0.04912 0.0
C1530 C 0.00836 0.96572 0.95873 0.0
C1531 C 0.00323 0.94914 0.93753 0.0
C1532 C 0.98162 0.93998 0.93767 0.0
C1533 C 0.96518 0.94794 0.959 0.0
C1534 C 0.97032 0.96441 0.98021 0.0
H1535 H -0.00613 0.96074 0.07373 0.0
H1536 H 0.9714 0.95964 0.04884 0.0
H1537 H -0.0023 0.95019 0.03427 0.0
H1538 H 0.02516 0.97241 0.95852 0.0
H1539 H 0.01619 0.94337 0.92123 0.0
H1540 H 0.19939 0.80403 0.31453 0.0
H1541 H 0.22729 0.79994 0.27084 0.0
H1542 H 0.24446 0.73851 0.31042 0.0
H1543 H 0.21598 0.74224 0.35384 0.0
H1544 H 0.2706 0.79781 0.26892 0.0
H1545 H 0.23532 0.72065 0.2216 0.0
H1546 H 0.22048 0.73639 0.25122 0.0
H1547 H 0.24093 0.71811 0.26209 0.0
C1548 C 0.20912 0.78964 0.31395 0.0
C1549 C 0.20546 0.77338 0.33751 0.0
C1550 C 0.22505 0.78731 0.28893 0.0
C1551 C 0.23774 0.76873 0.28695 0.0
C1552 C 0.23449 0.75271 0.31093 0.0
H1553 H 0.36141 0.75889 0.17486 0.0
H1554 H 0.33204 0.7657 0.21519 0.0
C1555 C 0.21837 0.75494 0.33588 0.0
C1556 C 0.25459 0.76645 0.26006 0.0
H1557 H 0.27156 0.73218 0.20087 0.0
C1558 C 0.27072 0.7835 0.25393 0.0
C1559 C 0.25452 0.74802 0.24004 0.0
C1560 C 0.23675 0.72987 0.24381 0.0
C1561 C 0.28704 0.78244 0.22885 0.0
C1562 C 0.28768 0.76347 0.20984 0.0
C1563 C 0.27124 0.74664 0.21553 0.0
C1564 C 0.30559 0.7604 0.18461 0.0
C1565 C 0.30316 0.80186 0.22278 0.0
C1566 C 0.30064 0.75465 0.15394 0.0
C1567 C 0.3175 0.75028 0.13084 0.0
C1568 C 0.3396 0.75162 0.13803 0.0
C1569 C 0.34454 0.75784 0.1685 0.0
C1570 C 0.32773 0.76193 0.1916 0.0
H1571 H 0.29598 0.81728 0.23149 0.0
H1572 H 0.318 0.79939 0.2356 0.0
H1573 H 0.30833 0.80391 0.19733 0.0
H1574 H 0.28369 0.75327 0.14798 0.0
H1575 H 0.31322 0.74547 0.10759 0.0
H1576 H 0.48608 0.03818 0.4173 0.0
H1577 H 0.47231 0.00723 0.45136 0.0
H1578 H 0.53625 0.00416 0.48736 0.0
H1579 H 0.5502 0.03479 0.45284 0.0
H1580 H 0.51918 0.96386 0.47369 0.0
H1581 H 0.45661 0.00911 0.5454 0.0
H1582 H 0.45351 0.00979 0.50389 0.0
H1583 H 0.47756 0.02278 0.51894 0.0
C1584 C 0.49719 0.03085 0.43246 0.0
C1585 C 0.51919 0.03892 0.43254 0.0
C1586 C 0.48926 0.01329 0.45209 0.0
C1587 C 0.50311 0.00362 0.47239 0.0
C1588 C 0.52521 0.01142 0.47202 0.0
H1589 H 0.47802 0.92327 0.63739 0.0
H1590 H 0.48144 0.95298 0.59851 0.0
C1591 C 0.53318 0.02891 0.45228 0.0
C1592 C 0.49481 0.98515 0.49371 0.0
H1593 H 0.45718 0.97091 0.55511 0.0
C1594 C 0.50556 0.96536 0.49141 0.0
C1595 C 0.47716 0.98722 0.51703 0.0
C1596 C 0.46565 0.00841 0.52176 0.0
C1597 C 0.4994 0.94768 0.51197 0.0
C1598 C 0.48154 0.9496 0.53504 0.0
C1599 C 0.47063 0.96933 0.53715 0.0
C1600 C 0.47543 0.93205 0.55895 0.0
C1601 C 0.51274 0.92747 0.50961 0.0
C1602 C 0.46962 0.91055 0.55 0.0
C1603 C 0.46784 0.89344 0.57221 0.0
C1604 C 0.47158 0.89762 0.60382 0.0
C1605 C 0.47523 0.91946 0.6132 0.0
C1606 C 0.47721 0.9365 0.59095 0.0
H1607 H 0.52884 0.93067 0.49584 0.0
H1608 H 0.51587 0.92133 0.53333 0.0
H1609 H 0.50346 0.91435 0.49757 0.0
H1610 H 0.46751 0.90682 0.52558 0.0
H1611 H 0.4648 0.87682 0.5643 0.0
H1612 H 0.30194 0.17757 0.87148 0.0
H1613 H 0.27247 0.18514 0.83789 0.0
H1614 H 0.27165 0.25153 0.87197 0.0
H1615 H 0.30073 0.24382 0.9064 0.0
H1616 H 0.23066 0.233 0.87099 0.0
H1617 H 0.27719 0.21985 0.75631 0.0
H1618 H 0.27731 0.19672 0.7824 0.0
H1619 H 0.29041 0.22249 0.7926 0.0
C1620 C 0.29546 0.19377 0.87183 0.0
C1621 C 0.3037 0.21016 0.89137 0.0
C1622 C 0.27878 0.19815 0.85237 0.0
C1623 C 0.27022 0.21905 0.85184 0.0
C1624 C 0.27818 0.23535 0.87176 0.0
H1625 H 0.18149 0.26023 0.71282 0.0
H1626 H 0.21378 0.25584 0.74295 0.0
C1627 C 0.29478 0.23093 0.89139 0.0
C1628 C 0.2523 0.2236 0.83149 0.0
H1629 H 0.23803 0.22116 0.75564 0.0
C1630 C 0.23234 0.23059 0.84574 0.0
C1631 C 0.25462 0.22082 0.79845 0.0
C1632 C 0.27612 0.21479 0.78148 0.0
C1633 C 0.21441 0.23421 0.82803 0.0
C1634 C 0.2163 0.2302 0.79525 0.0
C1635 C 0.23649 0.22393 0.78081 0.0
C1636 C 0.19733 0.23203 0.7758 0.0
C1637 C 0.19369 0.24249 0.84468 0.0
C1638 C 0.17767 0.21961 0.78363 0.0
C1639 C 0.15929 0.22228 0.7668 0.0
C1640 C 0.16031 0.23709 0.74131 0.0
C1641 C 0.18028 0.24875 0.73241 0.0
C1642 C 0.19868 0.24625 0.74959 0.0
H1643 H 0.19722 0.25123 0.86666 0.0
H1644 H 0.18548 0.25376 0.82937 0.0
H1645 H 0.18207 0.22835 0.85127 0.0
H1646 H 0.17643 0.20803 0.80312 0.0
H1647 H 0.14415 0.21293 0.77403 0.0
H1648 H 0.71597 0.24527 0.8527 0.0
H1649 H 0.74701 0.24257 0.81267 0.0
H1650 H 0.74312 0.31097 0.78922 0.0
H1651 H 0.71217 0.31376 0.82891 0.0
H1652 H 0.74572 0.28264 0.73644 0.0
H1653 H 0.81089 0.26837 0.8169 0.0
H1654 H 0.78676 0.2503 0.82305 0.0
H1655 H 0.7847 0.27911 0.83025 0.0
C1656 C 0.72183 0.25973 0.83908 0.0
C1657 C 0.71172 0.27974 0.84401 0.0
C1658 C 0.73961 0.2582 0.81636 0.0
C1659 C 0.74755 0.27666 0.79824 0.0
C1660 C 0.73735 0.29658 0.80303 0.0
H1661 H 0.8476 0.28591 0.63522 0.0
H1662 H 0.82005 0.29664 0.67694 0.0
C1663 C 0.71969 0.29813 0.82577 0.0
C1664 C 0.76607 0.27509 0.77363 0.0
H1665 H 0.82021 0.26312 0.76235 0.0
C1666 C 0.76209 0.27858 0.74205 0.0
C1667 C 0.78741 0.26996 0.78109 0.0
C1668 C 0.79285 0.26691 0.81467 0.0
C1669 C 0.77861 0.27603 0.71756 0.0
C1670 C 0.79984 0.27033 0.72495 0.0
C1671 C 0.80397 0.26757 0.75667 0.0
C1672 C 0.81728 0.26487 0.70022 0.0
C1673 C 0.77287 0.27842 0.68396 0.0
C1674 C 0.82538 0.24378 0.69996 0.0
C1675 C 0.84126 0.23783 0.67666 0.0
C1676 C 0.84946 0.2528 0.65288 0.0
C1677 C 0.84158 0.27405 0.6532 0.0
C1678 C 0.82572 0.28011 0.67687 0.0
H1679 H 0.75478 0.27833 0.6822 0.0
H1680 H 0.78022 0.29422 0.67412 0.0
H1681 H 0.77961 0.26499 0.66923 0.0
H1682 H 0.81918 0.23174 0.71767 0.0
H1683 H 0.84703 0.22135 0.67724 0.0
H1684 H 0.80428 0.66584 0.36915 0.0
H1685 H 0.77441 0.67206 0.33551 0.0
H1686 H 0.77432 0.73974 0.364 0.0
H1687 H 0.80425 0.73364 0.39763 0.0
H1688 H 0.73235 0.68671 0.35347 0.0
H1689 H 0.77854 0.74376 0.26742 0.0
H1690 H 0.79206 0.72678 0.29403 0.0
H1691 H 0.78021 0.75174 0.30768 0.0
C1692 C 0.7979 0.68205 0.36819 0.0
C1693 C 0.80662 0.69932 0.38581 0.0
C1694 C 0.78089 0.68557 0.34895 0.0
C1695 C 0.77245 0.70643 0.34688 0.0
C1696 C 0.78096 0.72364 0.36476 0.0
H1697 H 0.66715 0.76936 0.27248 0.0
H1698 H 0.69797 0.75672 0.29961 0.0
C1699 C 0.79796 0.72012 0.38405 0.0
C1700 C 0.75417 0.71004 0.32691 0.0
H1701 H 0.73934 0.74153 0.26649 0.0
C1702 C 0.73394 0.69842 0.3341 0.0
C1703 C 0.75637 0.72532 0.3017 0.0
C1704 C 0.77802 0.73748 0.29199 0.0
C1705 C 0.71551 0.70244 0.31759 0.0
C1706 C 0.7175 0.71827 0.29313 0.0
C1707 C 0.73792 0.72938 0.28528 0.0
C1708 C 0.69819 0.72502 0.27726 0.0
C1709 C 0.69371 0.69081 0.32762 0.0
C1710 C 0.68805 0.71127 0.25577 0.0
C1711 C 0.67039 0.71851 0.24 0.0
C1712 C 0.66272 0.73958 0.24564 0.0
C1713 C 0.67275 0.75308 0.26755 0.0
C1714 C 0.69035 0.7459 0.28309 0.0
H1715 H 0.6947 0.67958 0.34799 0.0
H1716 H 0.68142 0.70315 0.33415 0.0
H1717 H 0.68777 0.68114 0.30773 0.0
H1718 H 0.69402 0.69512 0.25085 0.0
H1719 H 0.66293 0.70779 0.22326 0.0
H1720 H 0.5209 0.54288 0.65454 0.0
H1721 H 0.51442 0.51449 0.61562 0.0
H1722 H 0.47741 0.55917 0.56445 0.0
H1723 H 0.48246 0.58694 0.6048 0.0
H1724 H 0.45864 0.5209 0.56266 0.0
H1725 H 0.54737 0.5112 0.53208 0.0
H1726 H 0.54017 0.50521 0.57289 0.0
H1727 H 0.53749 0.53252 0.55781 0.0
C1728 C 0.51115 0.54654 0.63518 0.0
C1729 C 0.50259 0.56733 0.63222 0.0
C1730 C 0.50773 0.53039 0.61267 0.0
C1731 C 0.49617 0.5349 0.58631 0.0
C1732 C 0.48672 0.55534 0.58421 0.0
H1733 H 0.50687 0.45231 0.41885 0.0
H1734 H 0.51046 0.4821 0.45683 0.0
C1735 C 0.48972 0.57129 0.60713 0.0
C1736 C 0.49382 0.51834 0.56107 0.0
H1737 H 0.52277 0.48375 0.51259 0.0
C1738 C 0.4727 0.51291 0.55156 0.0
C1739 C 0.51218 0.50825 0.54585 0.0
C1740 C 0.53558 0.51478 0.55243 0.0
C1741 C 0.46938 0.49744 0.52789 0.0
C1742 C 0.48756 0.48623 0.51426 0.0
C1743 C 0.50874 0.49201 0.52328 0.0
C1744 C 0.48502 0.46844 0.49079 0.0
C1745 C 0.44645 0.49378 0.51731 0.0
C1746 C 0.46976 0.45066 0.49722 0.0
C1747 C 0.46731 0.43402 0.4752 0.0
C1748 C 0.48058 0.4344 0.44671 0.0
C1749 C 0.49633 0.45175 0.44057 0.0
C1750 C 0.49842 0.46871 0.46231 0.0
H1751 H 0.43671 0.50855 0.52131 0.0
H1752 H 0.44682 0.48961 0.49196 0.0
H1753 H 0.43774 0.48011 0.53122 0.0
H1754 H 0.45985 0.44949 0.51944 0.0
H1755 H 0.45535 0.42058 0.48082 0.0
H1756 H 0.05785 0.52947 0.94973 0.0
H1757 H 0.04569 0.49861 0.98501 0.0
H1758 H 0.98172 0.49681 0.9483 0.0
H1759 H -0.00635 0.52783 0.91347 0.0
H1760 H 0.97847 0.49477 1.0121 0.0
H1761 H 0.03671 0.43425 0.96397 0.0
H1762 H 0.05025 0.45939 0.97536 0.0
H1763 H 0.03245 0.45951 0.94366 0.0
C1764 C 0.04128 0.52233 0.949 0.0
C1765 C 0.02673 0.53098 0.92879 0.0
C1766 C 0.03437 0.50464 0.96906 0.0
C1767 C 0.01287 0.49516 0.969 0.0
C1768 C -0.00161 0.50378 0.9487 0.0
H1769 H 0.97712 0.37064 0.06696 0.0
H1770 H 0.98022 0.39973 0.02679 0.0
C1771 C 0.00526 0.52147 0.92875 0.0
C1772 C 0.00521 0.47676 0.99082 0.0
H1773 H 0.01712 0.42524 1.01342 0.0
C1774 C 0.98681 0.47949 1.01222 0.0
C1775 C 0.01581 0.45666 0.99062 0.0
C1776 C 0.03476 0.45213 0.96696 0.0
C1777 C 0.9792 0.46297 0.03408 0.0
C1778 C -0.00947 0.44332 0.03498 0.0
C1779 C 0.00848 0.44032 1.01289 0.0
C1780 C 0.98497 0.42615 0.05963 0.0
C1781 C 0.95904 0.46672 0.05588 0.0
C1782 C 0.98594 0.43135 0.09155 0.0
C1783 C 0.98399 0.4148 0.11453 0.0
C1784 C 0.98134 0.39265 0.10604 0.0
C1785 C 0.97911 0.38754 0.07428 0.0
C1786 C 0.98101 0.40415 0.05127 0.0
H1787 H 0.9483 0.47855 0.04554 0.0
H1788 H 0.94925 0.45116 0.06137 0.0
H1789 H 0.96424 0.47373 0.07824 0.0
H1790 H -0.0106 0.44809 0.09861 0.0
H1791 H 0.98584 0.41928 0.13877 0.0
H1792 H 0.10363 0.14146 0.35942 0.0
H1793 H 0.11115 0.15162 0.41314 0.0
H1794 H 0.05184 0.18733 0.42223 0.0
H1795 H 0.04385 0.17676 0.36885 0.0
H1796 H 0.11825 0.19172 0.44048 0.0
H1797 H 0.04403 0.14963 0.50141 0.0
H1798 H 0.05236 0.14494 0.4605 0.0
H1799 H 0.03809 0.1691 0.47196 0.0
C1800 C 0.09199 0.15129 0.37284 0.0
C1801 C 0.073 0.15809 0.35939 0.0
C1802 C 0.09642 0.15724 0.40369 0.0
C1803 C 0.08193 0.17 0.42234 0.0
C1804 C 0.06314 0.17712 0.40886 0.0
H1805 H 0.10973 0.24111 0.59412 0.0
H1806 H 0.10383 0.22984 0.54041 0.0
C1807 C 0.05874 0.17126 0.37796 0.0
C1808 C 0.08674 0.17608 0.4555 0.0
H1809 H 0.06608 0.17227 0.53276 0.0
C1810 C 0.10679 0.18744 0.46059 0.0
C1811 C 0.07201 0.17043 0.48214 0.0
C1812 C 0.0505 0.15768 0.47888 0.0
C1813 C 0.11229 0.19353 0.49107 0.0
C1814 C 0.09739 0.18825 0.51761 0.0
C1815 C 0.07753 0.17652 0.51263 0.0
C1816 C 0.10196 0.19502 0.55054 0.0
C1817 C 0.13428 0.20531 0.49461 0.0
C1818 C 0.1027 0.17935 0.57478 0.0
C1819 C 0.10627 0.18578 0.60579 0.0
C1820 C 0.10889 0.20813 0.61356 0.0
C1821 C 0.10818 0.22375 0.58918 0.0
C1822 C 0.10482 0.2173 0.55823 0.0
H1823 H 0.14608 0.2029 0.47383 0.0
H1824 H 0.13193 0.22316 0.49689 0.0
H1825 H 0.14164 0.1996 0.516 0.0
H1826 H 0.10037 0.16206 0.56974 0.0
H1827 H 0.10624 0.17326 0.62387 0.0
H1828 H 0.07197 0.82627 0.56102 0.0
H1829 H 0.05765 0.83815 0.61307 0.0
H1830 H 0.1239 0.84695 0.64101 0.0
H1831 H 0.13837 0.83516 0.58894 0.0
H1832 H 0.06133 0.82115 0.67136 0.0
H1833 H 0.09958 0.90561 0.6646 0.0
H1834 H 0.0987 0.88816 0.63064 0.0
H1835 H 0.1189 0.8845 0.65849 0.0
C1836 C 0.08353 0.83057 0.57827 0.0
C1837 C 0.10637 0.82983 0.5706 0.0
C1838 C 0.0753 0.8375 0.60803 0.0
C1839 C 0.08966 0.8439 0.6309 0.0
C1840 C 0.11246 0.84272 0.62358 0.0
H1841 H 0.06064 0.88345 0.82805 0.0
H1842 H 0.07989 0.87374 0.77752 0.0
C1843 C 0.12071 0.83589 0.59376 0.0
C1844 C 0.08067 0.85132 0.6625 0.0
H1845 H 0.081 0.89451 0.71353 0.0
C1846 C 0.06565 0.8372 0.6805 0.0
C1847 C 0.08633 0.87227 0.67465 0.0
C1848 C 0.1016 0.88861 0.65602 0.0
C1849 C 0.05617 0.84338 0.7101 0.0
C1850 C 0.0616 0.86439 0.72202 0.0
C1851 C 0.0769 0.8784 0.7044 0.0
C1852 C 0.05058 0.87233 0.752 0.0
C1853 C 0.0404 0.82733 0.72849 0.0
C1854 C 0.02791 0.87555 0.75416 0.0
C1855 C 0.01694 0.88122 0.78279 0.0
C1856 C 0.02835 0.88384 0.81012 0.0
C1857 C 0.05131 0.88164 0.80757 0.0
C1858 C 0.06233 0.876 0.77871 0.0
H1859 H 0.04203 0.8103 0.71989 0.0
H1860 H 0.04318 0.82769 0.75392 0.0
H1861 H 0.02325 0.83195 0.72593 0.0
H1862 H 0.01856 0.87318 0.73377 0.0
H1863 H -0.0007 0.88288 0.78361 0.0
H1864 H 0.40736 0.73953 0.97367 0.0
H1865 H 0.41812 0.75432 0.92107 0.0
H1866 H 0.40199 0.81894 0.95278 0.0
H1867 H 0.3922 0.80433 1.006 0.0
H1868 H 0.39965 0.77258 0.87688 0.0
H1869 H 0.46154 0.83439 0.91368 0.0
H1870 H 0.44829 0.81409 0.94059 0.0
H1871 H 0.43466 0.83871 0.93205 0.0
C1872 C 0.40593 0.7569 0.96953 0.0
C1873 C 0.3989 0.77068 0.99442 0.0
C1874 C 0.41219 0.76542 0.93922 0.0
C1875 C 0.41153 0.78799 0.93257 0.0
C1876 C 0.40354 0.80163 0.9571 0.0
H1877 H 0.42254 0.83433 0.73396 0.0
H1878 H 0.40895 0.82316 0.78756 0.0
C1879 C 0.3976 0.79317 0.98762 0.0
C1880 C 0.4191 0.79698 0.9001 0.0
H1881 H 0.4526 0.83662 0.86057 0.0
C1882 C 0.41127 0.78658 0.87346 0.0
C1883 C 0.43467 0.81502 0.89499 0.0
C1884 C 0.44546 0.82605 0.92181 0.0
C1885 C 0.41831 0.7936 0.84243 0.0
C1886 C 0.4331 0.81225 0.83736 0.0
C1887 C 0.44105 0.82257 0.864 0.0
C1888 C 0.44122 0.82076 0.80483 0.0
C1889 C 0.41038 0.78026 0.81546 0.0
C1890 C 0.46393 0.82462 0.7965 0.0
C1891 C 0.47174 0.83167 0.76595 0.0
C1892 C 0.45712 0.83499 0.74255 0.0
C1893 C 0.43437 0.83184 0.75113 0.0
C1894 C 0.42655 0.82511 0.78187 0.0
H1895 H 0.40532 0.76317 0.82294 0.0
H1896 H 0.39578 0.78777 0.80679 0.0
H1897 H 0.42334 0.77965 0.7957 0.0
H1898 H 0.47578 0.82162 0.81347 0.0
H1899 H 0.48937 0.83376 0.7604 0.0
H1900 H 0.50851 0.10659 0.2904 0.0
H1901 H 0.48826 0.1133 0.24465 0.0
H1902 H 0.42757 0.09175 0.29705 0.0
H1903 H 0.44778 0.08528 0.34356 0.0
H1904 H 0.46206 0.08597 0.21024 0.0
H1905 H 0.4138 0.1526 0.2655 0.0
H1906 H 0.43728 0.14207 0.28273 0.0
H1907 H 0.41126 0.12677 0.2862 0.0
C1908 C 0.49086 0.10313 0.29234 0.0
C1909 C 0.47977 0.09552 0.32087 0.0
C1910 C 0.47929 0.10698 0.26603 0.0
C1911 C 0.45634 0.10341 0.2675 0.0
C1912 C 0.44523 0.09506 0.29554 0.0
H1913 H 0.367 0.13177 0.12239 0.0
H1914 H 0.38224 0.11941 0.17055 0.0
C1915 C 0.45684 0.09117 0.32203 0.0
C1916 C 0.44434 0.10884 0.2396 0.0
H1917 H 0.40739 0.1436 0.21319 0.0
C1918 C 0.45002 0.09849 0.21094 0.0
C1919 C 0.42862 0.1252 0.24048 0.0
C1920 C 0.42244 0.13748 0.27026 0.0
C1921 C 0.4406 0.10417 0.18316 0.0
C1922 C 0.42531 0.12089 0.18388 0.0
C1923 C 0.41916 0.13084 0.21267 0.0
C1924 C 0.41603 0.12869 0.15482 0.0
C1925 C 0.44706 0.09216 0.15325 0.0
C1926 C 0.4299 0.13841 0.13018 0.0
C1927 C 0.42126 0.14547 0.10262 0.0
C1928 C 0.39851 0.14301 0.09909 0.0
C1929 C 0.38461 0.13364 0.12411 0.0
C1930 C 0.39328 0.12667 0.15173 0.0
H1931 H 0.45412 0.07619 0.15819 0.0
H1932 H 0.43268 0.08916 0.13914 0.0
H1933 H 0.45975 0.10229 0.13885 0.0
H1934 H 0.44747 0.14049 0.13224 0.0
H1935 H 0.43247 0.15244 0.0838 0.0
H1936 H 0.86061 0.78299 0.48238 0.0
H1937 H 0.86958 0.80332 0.52967 0.0
H1938 H 0.86985 0.74252 0.58135 0.0
H1939 H 0.86095 0.72215 0.53464 0.0
H1940 H 0.84833 0.80342 0.59411 0.0
H1941 H 0.93232 0.77177 0.58841 0.0
H1942 H 0.91544 0.77047 0.55547 0.0
H1943 H 0.91045 0.75102 0.58732 0.0
C1944 C 0.86221 0.77395 0.50393 0.0
C1945 C 0.86018 0.75086 0.50447 0.0
C1946 C 0.86742 0.78561 0.53094 0.0
C1947 C 0.87083 0.77442 0.5589 0.0
C1948 C 0.86773 0.7515 0.55991 0.0
H1949 H 0.91425 0.80441 0.74337 0.0
H1950 H 0.90266 0.78762 0.695 0.0
C1951 C 0.86249 0.73987 0.53309 0.0
C1952 C 0.87834 0.78642 0.58683 0.0
H1953 H 0.92079 0.79093 0.6346 0.0
C1954 C 0.86423 0.80086 0.60285 0.0
C1955 C 0.89909 0.78303 0.59827 0.0
C1956 C 0.91533 0.76839 0.58138 0.0
C1957 C 0.87003 0.81144 0.63056 0.0
C1958 C 0.89072 0.80787 0.64222 0.0
C1959 C 0.90492 0.79365 0.62584 0.0
C1960 C 0.89786 0.81835 0.67161 0.0
C1961 C 0.85358 0.82573 0.64768 0.0
C1962 C 0.89945 0.84128 0.67456 0.0
C1963 C 0.90613 0.85096 0.70225 0.0
C1964 C 0.91161 0.83795 0.7276 0.0
C1965 C 0.9104 0.81499 0.72431 0.0
C1966 C 0.90364 0.80534 0.69667 0.0
H1967 H 0.83661 0.82205 0.64075 0.0
H1968 H 0.85356 0.82361 0.67357 0.0
H1969 H 0.85808 0.84318 0.64174 0.0
H1970 H 0.89571 0.85175 0.65531 0.0
H1971 H 0.90725 0.86867 0.70363 0.0
H1972 H 0.87536 0.20298 0.41474 0.0
H1973 H 0.87625 0.19617 0.35814 0.0
H1974 H 0.90199 0.13268 0.37266 0.0
H1975 H 0.90116 0.13936 0.4291 0.0
H1976 H 0.91406 0.19105 0.32345 0.0
H1977 H 0.85903 0.11836 0.30733 0.0
H1978 H 0.85733 0.13437 0.34292 0.0
H1979 H 0.87703 0.11339 0.33755 0.0
C1980 C 0.8809 0.18742 0.40589 0.0
C1981 C 0.88839 0.17176 0.42635 0.0
C1982 C 0.88121 0.1835 0.3736 0.0
C1983 C 0.88887 0.1638 0.36118 0.0
C1984 C 0.8954 0.14774 0.38175 0.0
H1985 H 0.96577 0.10873 0.22609 0.0
H1986 H 0.93599 0.11749 0.26451 0.0
C1987 C 0.89505 0.15163 0.41404 0.0
C1988 C 0.89349 0.16132 0.32674 0.0
H1989 H 0.89065 0.12359 0.26829 0.0
C1990 C 0.90841 0.17666 0.31098 0.0
C1991 C 0.88594 0.14265 0.31047 0.0
C1992 C 0.86875 0.1264 0.32541 0.0
C1993 C 0.91781 0.1727 0.28058 0.0
C1994 C 0.91177 0.153 0.26535 0.0
C1995 C 0.8953 0.13864 0.28 0.0
C1996 C 0.92564 0.14499 0.23809 0.0
C1997 C 0.93565 0.18863 0.26633 0.0
C1998 C 0.92893 0.15678 0.20955 0.0
C1999 C 0.94621 0.15184 0.18741 0.0
C2000 C 0.96028 0.13508 0.19372 0.0
C2001 C 0.95545 0.122 0.22083 0.0
C2002 C 0.9383 0.12689 0.24275 0.0
H2003 H 0.94 0.20186 0.28286 0.0
H2004 H 0.95078 0.17991 0.25914 0.0
H2005 H 0.92997 0.19639 0.24504 0.0
H2006 H 0.91906 0.17058 0.20527 0.0
H2007 H 0.9495 0.16211 0.16661 0.0
H2008 H 0.65143 0.19206 0.95224 0.0
H2009 H 0.64201 0.17182 1.00182 0.0
H2010 H 0.65173 0.23139 0.05384 0.0
H2011 H 0.66142 0.25157 1.00481 0.0
H2012 H 0.66856 0.19611 0.08236 0.0
H2013 H 0.58275 0.17607 0.05314 0.0
H2014 H 0.60376 0.16689 0.025 0.0
H2015 H 0.6008 0.19576 0.03078 0.0
C2016 C 0.65197 0.20078 0.97425 0.0
C2017 C 0.65713 0.22352 0.97435 0.0
C2018 C 0.64631 0.18922 1.00262 0.0
C2019 C 0.64567 0.20013 0.03167 0.0
C2020 C 0.65191 0.22257 0.03184 0.0
H2021 H 0.57449 0.16475 0.21125 0.0
H2022 H 0.58807 0.18063 0.16009 0.0
C2023 C 0.65749 0.23411 1.00363 0.0
C2024 C 0.63796 0.1886 0.06193 0.0
H2025 H 0.59305 0.16213 0.10132 0.0
C2026 C 0.65209 0.18856 0.08642 0.0
C2027 C 0.61631 0.17908 0.06756 0.0
C2028 C 0.5999 0.17955 0.0429 0.0
C2029 C 0.64525 0.17931 0.11618 0.0
C2030 C 0.62374 0.16944 0.12164 0.0
C2031 C 0.60959 0.16951 0.09717 0.0
C2032 C 0.61543 0.15949 0.1528 0.0
C2033 C 0.66095 0.18082 0.14181 0.0
C2034 C 0.62604 0.14208 0.1658 0.0
C2035 C 0.61841 0.13306 0.19524 0.0
C2036 C 0.59982 0.14109 0.21245 0.0
C2037 C 0.58903 0.15832 0.19909 0.0
C2038 C 0.59669 0.16733 0.16963 0.0
H2039 H 0.67424 0.19375 0.13658 0.0
H2040 H 0.65213 0.18438 0.16488 0.0
H2041 H 0.66881 0.16492 0.14384 0.0
H2042 H 0.64027 0.13541 0.15315 0.0
H2043 H 0.62734 0.11998 0.20471 0.0
H2044 H 0.61754 0.85577 0.76568 0.0
H2045 H 0.63206 0.85369 0.81761 0.0
H2046 H 0.56954 0.87231 0.86129 0.0
H2047 H 0.55532 0.87535 0.80974 0.0
H2048 H 0.60459 0.89211 0.88854 0.0
H2049 H 0.61362 0.80214 0.8766 0.0
H2050 H 0.62883 0.81915 0.84709 0.0
H2051 H 0.59925 0.8177 0.84938 0.0
C2052 C 0.60706 0.8598 0.78634 0.0
C2053 C 0.58516 0.86535 0.78371 0.0
C2054 C 0.6153 0.85841 0.81596 0.0
C2055 C 0.60171 0.86242 0.84327 0.0
C2056 C 0.58025 0.86901 0.84051 0.0
H2057 H 0.59003 0.81264 0.02887 0.0
H2058 H 0.58886 0.82236 0.97351 0.0
C2059 C 0.57207 0.87052 0.81105 0.0
C2060 C 0.60901 0.8586 0.87501 0.0
H2061 H 0.62064 0.81777 0.9251 0.0
C2062 C 0.60841 0.87594 0.89651 0.0
C2063 C 0.61376 0.8374 0.88528 0.0
C2064 C 0.61377 0.81795 0.86354 0.0
C2065 C 0.61152 0.87247 0.92838 0.0
C2066 C 0.61582 0.85119 0.93874 0.0
C2067 C 0.61737 0.83407 0.91697 0.0
C2068 C 0.61674 0.8458 0.97245 0.0
C2069 C 0.60896 0.89133 0.95093 0.0
C2070 C 0.63282 0.85576 0.99018 0.0
C2071 C 0.63328 0.85051 1.02207 0.0
C2072 C 0.61776 0.83507 0.03662 0.0
C2073 C 0.60186 0.82497 1.01861 0.0
C2074 C 0.60134 0.83032 0.98687 0.0
H2075 H 0.60112 0.90534 0.94032 0.0
H2076 H 0.59888 0.88603 0.97274 0.0
H2077 H 0.62544 0.89723 0.95758 0.0
H2078 H 0.64508 0.86748 0.97935 0.0
H2079 H 0.64569 0.85862 0.03535 0.0
H2080 H 0.55604 0.63609 0.88141 0.0
H2081 H 0.566 0.64881 0.93298 0.0
H2082 H 0.60731 0.70118 0.88839 0.0
H2083 H 0.59744 0.6886 0.83677 0.0
H2084 H 0.60487 0.65277 0.95939 0.0
H2085 H 0.57254 0.73572 0.95296 0.0
H2086 H 0.56647 0.71467 0.92498 0.0
H2087 H 0.5925 0.73009 0.92118 0.0
C2088 C 0.56736 0.65025 0.88238 0.0
C2089 C 0.57575 0.66127 0.85443 0.0
C2090 C 0.57299 0.65763 0.91213 0.0
C2091 C 0.58714 0.67633 0.9151 0.0
C2092 C 0.59585 0.68714 0.88724 0.0
H2093 H 0.62733 0.74708 0.08449 0.0
H2094 H 0.6236 0.73516 0.03026 0.0
C2095 C 0.59018 0.67983 0.85748 0.0
C2096 C 0.59309 0.68407 0.94716 0.0
H2097 H 0.59277 0.72833 0.9964 0.0
C2098 C 0.602 0.66926 0.96752 0.0
C2099 C 0.58997 0.70574 0.95797 0.0
C2100 C 0.57968 0.72244 0.93828 0.0
C2101 C 0.6077 0.67533 0.99795 0.0
C2102 C 0.60374 0.69676 1.00934 0.0
C2103 C 0.59561 0.71181 0.98844 0.0
C2104 C 0.60717 0.70368 0.04286 0.0
C2105 C 0.61873 0.65875 1.01692 0.0
C2106 C 0.59906 0.69039 0.06881 0.0
C2107 C 0.60178 0.69697 0.09994 0.0
C2108 C 0.61208 0.71742 0.10641 0.0
C2109 C 0.61965 0.73105 0.0806 0.0
C2110 C 0.61739 0.72424 0.04938 0.0
H2111 H 0.62825 0.64749 1.00132 0.0
H2112 H 0.6301 0.66677 0.03294 0.0
H2113 H 0.60595 0.64858 0.03109 0.0
H2114 H 0.59008 0.67501 0.06516 0.0
H2115 H 0.59506 0.68626 0.11904 0.0
H2116 H 0.56753 0.40147 0.33219 0.0
H2117 H 0.58803 0.39567 0.28108 0.0
H2118 H 0.52679 0.38368 0.23857 0.0
H2119 H 0.50639 0.38968 0.289 0.0
H2120 H 0.58689 0.35703 0.24729 0.0
H2121 H 0.56041 0.4245 0.17433 0.0
H2122 H 0.55669 0.4245 0.21678 0.0
H2123 H 0.53751 0.40919 0.19426 0.0
C2124 C 0.55846 0.39829 0.31172 0.0
C2125 C 0.5353 0.3962 0.3147 0.0
C2126 C 0.57019 0.39477 0.28257 0.0
C2127 C 0.55898 0.38942 0.25579 0.0
C2128 C 0.53587 0.3882 0.25858 0.0
H2129 H 0.59912 0.31308 0.09198 0.0
H2130 H 0.58427 0.32664 0.14284 0.0
C2131 C 0.5242 0.39158 0.28758 0.0
C2132 C 0.57114 0.38331 0.22554 0.0
H2133 H 0.57556 0.39397 0.14637 0.0
C2134 C 0.58463 0.36529 0.22528 0.0
C2135 C 0.5684 0.39413 0.19675 0.0
C2136 C 0.55514 0.41429 0.19551 0.0
C2137 C 0.59476 0.35736 0.19701 0.0
C2138 C 0.59103 0.36745 0.16804 0.0
C2139 C 0.57822 0.38598 0.16844 0.0
C2140 C 0.60018 0.35906 0.13706 0.0
C2141 C 0.60944 0.33827 0.19853 0.0
C2142 C 0.6136 0.37287 0.11629 0.0
C2143 C 0.62188 0.36524 0.08695 0.0
C2144 C 0.61689 0.34359 0.07749 0.0
C2145 C 0.60326 0.32985 0.09826 0.0
C2146 C 0.59497 0.33752 0.12762 0.0
H2147 H 0.61575 0.3367 0.22214 0.0
H2148 H 0.59984 0.32288 0.19389 0.0
H2149 H 0.62369 0.33999 0.18061 0.0
H2150 H 0.61771 0.38961 0.12281 0.0
H2151 H 0.63194 0.37648 0.07147 0.0
H2152 H 0.92884 0.34078 0.2398 0.0
H2153 H 0.91426 0.33271 0.29403 0.0
H2154 H 0.98047 0.33214 0.32268 0.0
H2155 H -0.00491 0.34096 0.26887 0.0
H2156 H 0.91765 0.29791 0.32825 0.0
H2157 H 0.95396 0.3671 0.39279 0.0
H2158 H 0.9546 0.36691 0.35042 0.0
H2159 H 0.97482 0.35284 0.37041 0.0
C2160 C 0.94032 0.33947 0.25776 0.0
C2161 C 0.96319 0.34176 0.24977 0.0
C2162 C 0.93194 0.3347 0.28888 0.0
C2163 C 0.94614 0.33201 0.31295 0.0
C2164 C 0.96899 0.33469 0.30507 0.0
H2165 H 0.91609 0.25299 0.48241 0.0
H2166 H 0.92558 0.26729 0.42957 0.0
C2167 C 0.97738 0.33969 0.27404 0.0
C2168 C 0.93713 0.32495 0.34559 0.0
H2169 H 0.94015 0.33583 0.424 0.0
C2170 C 0.92246 0.3064 0.34911 0.0
C2171 C 0.94295 0.33603 0.37315 0.0
C2172 C 0.95725 0.35695 0.37153 0.0
C2173 C 0.91406 0.29834 0.379 0.0
C2174 C 0.92089 0.30868 0.40659 0.0
C2175 C 0.93502 0.32763 0.4031 0.0
C2176 C 0.91412 0.29976 0.43912 0.0
C2177 C 0.89765 0.27895 0.38052 0.0
C2178 C 0.90491 0.3132 0.46299 0.0
C2179 C 0.89953 0.30497 0.49374 0.0
C2180 C 0.90317 0.28304 0.50147 0.0
C2181 C 0.91231 0.26968 0.47745 0.0
C2182 C 0.91782 0.27792 0.44692 0.0
H2183 H 0.88855 0.27794 0.35896 0.0
H2184 H 0.90655 0.26362 0.3822 0.0
H2185 H 0.88552 0.27981 0.40127 0.0
H2186 H 0.90199 0.33016 0.45789 0.0
H2187 H 0.8928 0.31589 0.51156 0.0
H2188 H 0.95019 0.57503 0.84035 0.0
H2189 H 0.9297 0.58145 0.79406 0.0
H2190 H -0.00906 0.59366 0.73746 0.0
H2191 H 0.01138 0.58708 0.78308 0.0
H2192 H 0.93154 0.62065 0.75938 0.0
H2193 H 0.95699 0.55244 0.68191 0.0
H2194 H 0.96049 0.55244 0.72358 0.0
H2195 H 0.97997 0.56749 0.69662 0.0
C2196 C 0.95927 0.57853 0.81786 0.0
C2197 C 0.98244 0.58043 0.81546 0.0
C2198 C 0.94754 0.58234 0.79147 0.0
C2199 C 0.95877 0.58781 0.76215 0.0
C2200 C 0.98187 0.58904 0.75959 0.0
H2201 H 0.93467 0.63669 0.57886 0.0
H2202 H 0.94947 0.62402 0.62707 0.0
C2203 C -0.00644 0.58536 0.78585 0.0
C2204 C 0.94662 0.5939 0.73468 0.0
H2205 H 0.94182 0.58286 0.65691 0.0
C2206 C 0.9335 0.61219 0.7371 0.0
C2207 C 0.94927 0.58294 0.70554 0.0
C2208 C 0.96227 0.56261 0.70177 0.0
C2209 C 0.92372 0.62034 0.71088 0.0
C2210 C 0.92686 0.60971 0.68153 0.0
C2211 C 0.93953 0.5911 0.67933 0.0
C2212 C 0.91764 0.61793 0.65262 0.0
C2213 C 0.91085 0.64077 0.71452 0.0
C2214 C 0.89479 0.61869 0.65084 0.0
C2215 C 0.88626 0.62608 0.62333 0.0
C2216 C 0.9004 0.63279 0.5969 0.0
C2217 C 0.92329 0.632 0.59884 0.0
C2218 C 0.93179 0.62458 0.62633 0.0
H2219 H 0.91428 0.64979 0.73631 0.0
H2220 H 0.91474 0.65198 0.69401 0.0
H2221 H 0.89297 0.63614 0.71581 0.0
H2222 H 0.88352 0.61334 0.67062 0.0
H2223 H 0.86857 0.62659 0.62281 0.0
H2224 H 0.41715 0.36489 0.21095 0.0
H2225 H 0.40138 0.3507 0.16355 0.0
H2226 H 0.40005 0.28504 0.20151 0.0
H2227 H 0.41528 0.29911 0.24925 0.0
H2228 H 0.41736 0.31963 0.11993 0.0
H2229 H 0.3365 0.29097 0.17853 0.0
H2230 H 0.35542 0.30949 0.1971 0.0
H2231 H 0.35969 0.28056 0.1962 0.0
C2232 C 0.41336 0.34744 0.20934 0.0
C2233 C 0.4174 0.33318 0.2341 0.0
C2234 C 0.40444 0.33934 0.18213 0.0
C2235 C 0.39915 0.31684 0.17915 0.0
C2236 C 0.40359 0.30251 0.20349 0.0
H2237 H 0.35455 0.22757 0.04088 0.0
H2238 H 0.36444 0.24695 0.08802 0.0
C2239 C 0.41257 0.31057 0.23065 0.0
C2240 C 0.38927 0.30828 0.15048 0.0
H2241 H 0.34447 0.27928 0.1258 0.0
C2242 C 0.40132 0.31102 0.12113 0.0
C2243 C 0.3683 0.29708 0.15204 0.0
C2244 C 0.3541 0.29449 0.1826 0.0
C2245 C 0.39339 0.30212 0.09355 0.0
C2246 C 0.3726 0.29056 0.09522 0.0
C2247 C 0.36035 0.28822 0.12448 0.0
C2248 C 0.3641 0.27933 0.06735 0.0
C2249 C 0.40773 0.30435 0.06305 0.0
C2250 C 0.3597 0.29111 0.04029 0.0
C2251 C 0.35386 0.28002 1.01315 0.0
C2252 C 0.35236 0.25696 1.01263 0.0
C2253 C 0.35558 0.24534 0.04038 0.0
C2254 C 0.36129 0.2564 0.06741 0.0
H2255 H 0.42495 0.30983 0.06691 0.0
H2256 H 0.40796 0.28853 0.05033 0.0
H2257 H 0.40096 0.31666 0.04773 0.0
H2258 H 0.36139 0.30885 0.03988 0.0
H2259 H 0.35165 0.28947 0.99217 0.0
H2260 H 0.35928 0.66798 0.92233 0.0
H2261 H 0.36293 0.66411 0.86486 0.0
H2262 H 0.42856 0.64174 0.86992 0.0
H2263 H 0.42492 0.6453 0.92713 0.0
H2264 H 0.39488 0.68672 0.82419 0.0
H2265 H 0.40084 0.59722 0.81108 0.0
H2266 H 0.38957 0.60949 0.84696 0.0
H2267 H 0.41892 0.60806 0.83905 0.0
C2268 C 0.37428 0.66177 0.91119 0.0
C2269 C 0.39183 0.65691 0.92918 0.0
C2270 C 0.37637 0.65968 0.8784 0.0
C2271 C 0.39589 0.65236 0.86319 0.0
C2272 C 0.41318 0.647 0.88122 0.0
H2273 H 0.48203 0.67511 0.71202 0.0
H2274 H 0.45308 0.67954 0.75381 0.0
C2275 C 0.41118 0.64924 0.91387 0.0
C2276 C 0.39926 0.65204 0.8284 0.0
H2277 H 0.41883 0.61979 0.76857 0.0
C2278 C 0.39955 0.67198 0.81178 0.0
C2279 C 0.40483 0.63276 0.81205 0.0
C2280 C 0.4033 0.61063 0.82817 0.0
C2281 C 0.40738 0.6735 0.77992 0.0
C2282 C 0.41535 0.65466 0.76454 0.0
C2283 C 0.41294 0.63433 0.78035 0.0
C2284 C 0.42983 0.65617 0.73485 0.0
C2285 C 0.40801 0.69547 0.76349 0.0
C2286 C 0.42625 0.64203 0.70961 0.0
C2287 C 0.44291 0.63954 0.68545 0.0
C2288 C 0.46343 0.65087 0.68667 0.0
C2289 C 0.46628 0.66628 0.7105 0.0
C2290 C 0.44965 0.66892 0.73434 0.0
H2291 H 0.39407 0.70524 0.77279 0.0
H2292 H 0.42349 0.70483 0.76801 0.0
H2293 H 0.40732 0.69367 0.73767 0.0
H2294 H 0.41115 0.63189 0.7097 0.0
H2295 H 0.44046 0.62734 0.66754 0.0
H2296 H 0.16334 0.68652 0.44921 0.0
H2297 H 0.15337 0.66611 0.49871 0.0
H2298 H 0.14463 0.72701 0.54765 0.0
H2299 H 0.15454 0.74736 0.49885 0.0
H2300 H 0.17021 0.66897 0.56254 0.0
H2301 H 0.08362 0.69261 0.56083 0.0
H2302 H 0.10293 0.69452 0.52642 0.0
H2303 H 0.10375 0.71513 0.55629 0.0
C2304 C 0.15986 0.69556 0.47067 0.0
C2305 C 0.1597 0.71862 0.4699 0.0
C2306 C 0.15399 0.68386 0.49893 0.0
C2307 C 0.14779 0.69501 0.52682 0.0
C2308 C 0.14893 0.718 0.52639 0.0
H2309 H 0.09449 0.66794 0.71843 0.0
H2310 H 0.10765 0.68359 0.667 0.0
C2311 C 0.15476 0.72964 0.49838 0.0
C2312 C 0.13917 0.68294 0.55619 0.0
H2313 H 0.09352 0.67639 0.60817 0.0
C2314 C 0.15338 0.67037 0.57238 0.0
C2315 C 0.11721 0.6848 0.5691 0.0
C2316 C 0.10089 0.69732 0.55219 0.0
C2317 C 0.14647 0.66031 0.60164 0.0
C2318 C 0.12458 0.66249 0.61486 0.0
C2319 C 0.11029 0.67474 0.59827 0.0
C2320 C 0.11629 0.65265 0.64611 0.0
C2321 C 0.16295 0.64813 0.61868 0.0
C2322 C 0.11627 0.62992 0.65159 0.0
C2323 C 0.10863 0.62088 0.68104 0.0
C2324 C 0.10064 0.63429 0.70581 0.0
C2325 C 0.10026 0.657 0.69999 0.0
C2326 C 0.10793 0.66603 0.67055 0.0
H2327 H 0.18016 0.65276 0.60967 0.0
H2328 H 0.16112 0.65133 0.64435 0.0
H2329 H 0.16011 0.63025 0.61513 0.0
H2330 H 0.12202 0.6191 0.63299 0.0
H2331 H 0.10881 0.60329 0.68429 0.0
H2332 H 0.07216 0.39235 0.31073 0.0
H2333 H 0.07835 0.38815 0.36639 0.0
H2334 H 0.10278 0.32399 0.34802 0.0
H2335 H 0.09653 0.32802 0.29234 0.0
H2336 H 0.05658 0.35481 0.40322 0.0
H2337 H 0.14712 0.35122 0.40614 0.0
H2338 H 0.13446 0.3623 0.37299 0.0
H2339 H 0.13547 0.33313 0.37808 0.0
C2340 C 0.07916 0.37748 0.31849 0.0
C2341 C 0.08374 0.36045 0.29724 0.0
C2342 C 0.08277 0.37516 0.35023 0.0
C2343 C 0.09116 0.35584 0.36125 0.0
C2344 C 0.09671 0.33922 0.33987 0.0
H2345 H 0.10018 0.29184 0.53895 0.0
H2346 H 0.10174 0.30336 0.48383 0.0
C2347 C 0.09312 0.34153 0.30807 0.0
C2348 C 0.09166 0.35204 0.39548 0.0
H2349 H 0.12518 0.33922 0.45258 0.0
C2350 C 0.07161 0.35167 0.41413 0.0
C2351 C 0.11128 0.34784 0.40949 0.0
C2352 C 0.13335 0.34882 0.39073 0.0
C2353 C 0.07051 0.3465 0.4463 0.0
C2354 C 0.09008 0.34199 0.46027 0.0
C2355 C 0.11021 0.34271 0.44174 0.0
C2356 C 0.08978 0.33556 0.49381 0.0
C2357 C 0.0483 0.34509 0.46478 0.0
C2358 C 0.08275 0.34996 0.51767 0.0
C2359 C 0.08156 0.34333 0.54922 0.0
C2360 C 0.08751 0.32222 0.55742 0.0
C2361 C 0.09502 0.30804 0.53341 0.0
C2362 C 0.09616 0.31466 0.50192 0.0
H2363 H 0.03455 0.34408 0.44915 0.0
H2364 H 0.04675 0.33056 0.48074 0.0
H2365 H 0.04649 0.35997 0.4794 0.0
H2366 H 0.07806 0.36628 0.51187 0.0
H2367 H 0.07566 0.35462 0.56712 0.0
loop_
_geom_bond_atom_site_label_1
_geom_bond_atom_site_label_2
_geom_bond_distance
_geom_bond_site_symmetry_2
_ccdc_geom_bond_type
Pr0 C2 2.880 . S
Pr0 O20 2.562 . S
Pr0 O21 2.490 . S
Pr0 O22 2.695 . S
Pr0 O23 2.512 . S
Pr0 O25 2.437 . S
Pr0 O28 2.436 . S
Pr0 O30 2.438 . S
Pr1 C11 2.880 . S
Pr1 O22 2.436 1_655 S
Pr1 O24 2.438 . S
Pr1 O26 2.562 . S
Pr1 O27 2.490 . S
Pr1 O28 2.695 1_655 S
Pr1 O29 2.512 1_655 S
Pr1 O31 2.437 1_655 S
C2 Pr0 2.880 . S
C2 C3 1.491 . S
C2 O20 1.254 . S
C2 O21 1.225 . S
C3 C2 1.491 . S
C3 C4 1.392 . S
C3 C8 1.356 . S
C4 C3 1.392 . S
C4 C5 1.368 . S
C4 H32 0.929 . S
C5 C4 1.368 . S
C5 C6 1.386 . S
C5 H33 0.929 . S
C6 C5 1.386 . S
C6 C7 1.373 . S
C7 C6 1.373 . S
C7 C8 1.409 . S
C7 H34 0.931 . S
C8 C3 1.356 . S
C8 C7 1.409 . S
C8 H35 0.930 . S
C9 O22 1.270 . S
C9 O23 1.248 . S
C10 O24 1.279 . S
C10 O25 1.260 1_655 S
C11 Pr1 2.880 . S
C11 C12 1.491 . S
C11 O26 1.254 . S
C11 O27 1.225 . S
C12 C11 1.491 . S
C12 C13 1.392 1_554 S
C12 C17 1.356 1_554 S
C13 C12 1.392 1_556 S
C13 C14 1.368 . S
C13 H36 0.929 1_556 S
C14 C13 1.368 . S
C14 C15 1.386 . S
C14 H37 0.929 . S
C15 C14 1.386 . S
C15 C16 1.373 . S
C16 C15 1.373 . S
C16 C17 1.409 . S
C16 H38 0.931 . S
C17 C12 1.356 1_556 S
C17 C16 1.409 . S
C17 H39 0.930 . S
C18 O28 1.270 . S
C18 O29 1.248 . S
C19 O30 1.267 . S
C19 O31 1.278 . S
O20 Pr0 2.562 . S
O20 C2 1.254 . S
O21 Pr0 2.490 . S
O21 C2 1.225 . S
O22 Pr0 2.695 . S
O22 Pr1 2.436 1_455 S
O22 C9 1.270 . S
O23 Pr0 2.512 . S
O23 C9 1.248 . S
O24 Pr1 2.438 . S
O24 C10 1.279 . S
O25 Pr0 2.437 . S
O25 C10 1.260 1_455 S
O26 Pr1 2.562 . S
O26 C11 1.254 . S
O27 Pr1 2.490 . S
O27 C11 1.225 . S
O28 Pr0 2.436 . S
O28 Pr1 2.695 1_455 S
O28 C18 1.270 . S
O29 Pr1 2.512 1_455 S
O29 C18 1.248 . S
O30 Pr0 2.438 . S
O30 C19 1.267 . S
O31 Pr1 2.437 1_455 S
O31 C19 1.278 . S
H32 C4 0.929 . S
H33 C5 0.929 . S
H34 C7 0.931 . S
H35 C8 0.930 . S
H36 C13 0.929 1_554 S
H37 C14 0.929 . S
H38 C16 0.931 . S
H39 C17 0.930 . S
Pr40 C42 2.880 . S
Pr40 O60 2.562 . S
Pr40 O61 2.490 . S
Pr40 O62 2.695 . S
Pr40 O63 2.512 . S
Pr40 O65 2.437 . S
Pr40 O68 2.436 . S
Pr40 O70 2.438 . S
Pr41 C51 2.880 . S
Pr41 O62 2.436 . S
Pr41 O64 2.438 . S
Pr41 O66 2.562 . S
Pr41 O67 2.490 . S
Pr41 O68 2.695 . S
Pr41 O69 2.512 . S
Pr41 O71 2.437 . S
C42 Pr40 2.880 . S
C42 C43 1.491 . S
C42 O60 1.254 . S
C42 O61 1.225 . S
C43 C42 1.491 . S
C43 C44 1.392 . S
C43 C48 1.356 . S
C44 C43 1.392 . S
C44 C45 1.368 . S
C44 H72 0.929 . S
C45 C44 1.368 . S
C45 C46 1.386 . S
C45 H73 0.929 . S
C46 C45 1.386 . S
C46 C47 1.373 . S
C47 C46 1.373 . S
C47 C48 1.409 . S
C47 H74 0.931 . S
C48 C43 1.356 . S
C48 C47 1.409 . S
C48 H75 0.930 . S
C49 O62 1.270 . S
C49 O63 1.248 . S
C50 O64 1.267 . S
C50 O65 1.278 . S
C51 Pr41 2.880 . S
C51 C52 1.491 . S
C51 O66 1.254 . S
C51 O67 1.225 . S
C52 C51 1.491 . S
C52 C53 1.392 . S
C52 C57 1.356 . S
C53 C52 1.392 . S
C53 C54 1.368 . S
C53 H76 0.929 . S
C54 C53 1.368 . S
C54 C55 1.386 . S
C54 H77 0.929 . S
C55 C54 1.386 . S
C55 C56 1.373 . S
C56 C55 1.373 . S
C56 C57 1.409 . S
C56 H78 0.931 . S
C57 C52 1.356 . S
C57 C56 1.409 . S
C57 H79 0.930 . S
C58 O68 1.270 . S
C58 O69 1.248 . S
C59 O70 1.267 . S
C59 O71 1.278 . S
O60 Pr40 2.562 . S
O60 C42 1.254 . S
O61 Pr40 2.490 . S
O61 C42 1.225 . S
O62 Pr40 2.695 . S
O62 Pr41 2.436 . S
O62 C49 1.270 . S
O63 Pr40 2.512 . S
O63 C49 1.248 . S
O64 Pr41 2.438 . S
O64 C50 1.267 . S
O65 Pr40 2.437 . S
O65 C50 1.278 . S
O66 Pr41 2.562 . S
O66 C51 1.254 . S
O67 Pr41 2.490 . S
O67 C51 1.225 . S
O68 Pr40 2.436 . S
O68 Pr41 2.695 . S
O68 C58 1.270 . S
O69 Pr41 2.512 . S
O69 C58 1.248 . S
O70 Pr40 2.438 . S
O70 C59 1.267 . S
O71 Pr41 2.437 . S
O71 C59 1.278 . S
H72 C44 0.929 . S
H73 C45 0.929 . S
H74 C47 0.931 . S
H75 C48 0.930 . S
H76 C53 0.929 . S
H77 C54 0.929 . S
H78 C56 0.931 . S
H79 C57 0.930 . S
Pr80 C82 2.880 . S
Pr80 O100 2.562 . S
Pr80 O101 2.490 . S
Pr80 O102 2.695 . S
Pr80 O103 2.512 . S
Pr80 O105 2.437 . S
Pr80 O108 2.436 . S
Pr80 O110 2.438 . S
Pr81 C91 2.880 . S
Pr81 O102 2.436 . S
Pr81 O104 2.438 . S
Pr81 O106 2.562 . S
Pr81 O107 2.490 . S
Pr81 O108 2.695 . S
Pr81 O109 2.512 . S
Pr81 O111 2.437 . S
C82 Pr80 2.880 . S
C82 C83 1.491 . S
C82 O100 1.254 . S
C82 O101 1.225 . S
C83 C82 1.491 . S
C83 C84 1.392 . S
C83 C88 1.356 . S
C84 C83 1.392 . S
C84 C85 1.368 . S
C84 H112 0.929 . S
C85 C84 1.368 . S
C85 C86 1.386 . S
C85 H113 0.929 . S
C86 C85 1.386 . S
C86 C87 1.373 . S
C87 C86 1.373 . S
C87 C88 1.409 . S
C87 H114 0.931 . S
C88 C83 1.356 . S
C88 C87 1.409 . S
C88 H115 0.930 . S
C89 O102 1.270 . S
C89 O103 1.248 . S
C90 O104 1.267 . S
C90 O105 1.278 . S
C91 Pr81 2.880 . S
C91 C92 1.491 . S
C91 O106 1.254 . S
C91 O107 1.225 . S
C92 C91 1.491 . S
C92 C93 1.392 . S
C92 C97 1.356 . S
C93 C92 1.392 . S
C93 C94 1.368 . S
C93 H116 0.929 . S
C94 C93 1.368 . S
C94 C95 1.386 . S
C94 H117 0.929 . S
C95 C94 1.386 . S
C95 C96 1.373 . S
C96 C95 1.373 . S
C96 C97 1.409 . S
C96 H118 0.931 . S
C97 C92 1.356 . S
C97 C96 1.409 . S
C97 H119 0.930 . S
C98 O108 1.270 . S
C98 O109 1.248 . S
C99 O110 1.267 . S
C99 O111 1.278 . S
O100 Pr80 2.562 . S
O100 C82 1.254 . S
O101 Pr80 2.490 . S
O101 C82 1.225 . S
O102 Pr80 2.695 . S
O102 Pr81 2.436 . S
O102 C89 1.270 . S
O103 Pr80 2.512 . S
O103 C89 1.248 . S
O104 Pr81 2.438 . S
O104 C90 1.267 . S
O105 Pr80 2.437 . S
O105 C90 1.278 . S
O106 Pr81 2.562 . S
O106 C91 1.254 . S
O107 Pr81 2.490 . S
O107 C91 1.225 . S
O108 Pr80 2.436 . S
O108 Pr81 2.695 . S
O108 C98 1.270 . S
O109 Pr81 2.512 . S
O109 C98 1.248 . S
O110 Pr80 2.438 . S
O110 C99 1.267 . S
O111 Pr81 2.437 . S
O111 C99 1.278 . S
H112 C84 0.929 . S
H113 C85 0.929 . S
H114 C87 0.931 . S
H115 C88 0.930 . S
H116 C93 0.929 . S
H117 C94 0.929 . S
H118 C96 0.931 . S
H119 C97 0.930 . S
Pr120 C122 2.880 . S
Pr120 O140 2.562 . S
Pr120 O141 2.490 . S
Pr120 O142 2.695 . S
Pr120 O143 2.512 . S
Pr120 O145 2.437 . S
Pr120 O148 2.436 . S
Pr120 O150 2.438 . S
Pr121 C131 2.880 . S
Pr121 O142 2.436 . S
Pr121 O144 2.438 . S
Pr121 O146 2.562 . S
Pr121 O147 2.490 . S
Pr121 O148 2.695 . S
Pr121 O149 2.512 . S
Pr121 O151 2.437 . S
C122 Pr120 2.880 . S
C122 C123 1.491 . S
C122 O140 1.254 . S
C122 O141 1.225 . S
C123 C122 1.491 . S
C123 C124 1.392 1_556 S
C123 C128 1.356 1_556 S
C124 C123 1.392 1_554 S
C124 C125 1.368 . S
C124 H152 0.929 1_554 S
C125 C124 1.368 . S
C125 C126 1.386 . S
C125 H153 0.929 . S
C126 C125 1.386 . S
C126 C127 1.373 . S
C127 C126 1.373 . S
C127 C128 1.409 . S
C127 H154 0.931 . S
C128 C123 1.356 1_554 S
C128 C127 1.409 . S
C128 H155 0.930 . S
C129 O142 1.270 . S
C129 O143 1.248 . S
C130 O144 1.267 . S
C130 O145 1.278 . S
C131 Pr121 2.880 . S
C131 C132 1.491 . S
C131 O146 1.254 . S
C131 O147 1.225 . S
C132 C131 1.491 . S
C132 C133 1.392 . S
C132 C137 1.356 . S
C133 C132 1.392 . S
C133 C134 1.368 . S
C133 H156 0.929 . S
C134 C133 1.368 . S
C134 C135 1.386 . S
C134 H157 0.929 . S
C135 C134 1.386 . S
C135 C136 1.373 . S
C136 C135 1.373 . S
C136 C137 1.409 . S
C136 H158 0.931 . S
C137 C132 1.356 . S
C137 C136 1.409 . S
C137 H159 0.930 . S
C138 O148 1.270 . S
C138 O149 1.248 . S
C139 O150 1.267 . S
C139 O151 1.278 . S
O140 Pr120 2.562 . S
O140 C122 1.254 . S
O141 Pr120 2.490 . S
O141 C122 1.225 . S
O142 Pr120 2.695 . S
O142 Pr121 2.436 . S
O142 C129 1.270 . S
O143 Pr120 2.512 . S
O143 C129 1.248 . S
O144 Pr121 2.438 . S
O144 C130 1.267 . S
O145 Pr120 2.437 . S
O145 C130 1.278 . S
O146 Pr121 2.562 . S
O146 C131 1.254 . S
O147 Pr121 2.490 . S
O147 C131 1.225 . S
O148 Pr120 2.436 . S
O148 Pr121 2.695 . S
O148 C138 1.270 . S
O149 Pr121 2.512 . S
O149 C138 1.248 . S
O150 Pr120 2.438 . S
O150 C139 1.267 . S
O151 Pr121 2.437 . S
O151 C139 1.278 . S
H152 C124 0.929 1_556 S
H153 C125 0.929 . S
H154 C127 0.931 . S
H155 C128 0.930 . S
H156 C133 0.929 . S
H157 C134 0.929 . S
H158 C136 0.931 . S
H159 C137 0.930 . S
Pr160 C162 2.880 . S
Pr160 O180 2.562 . S
Pr160 O181 2.490 . S
Pr160 O182 2.695 . S
Pr160 O183 2.512 . S
Pr160 O185 2.437 . S
Pr160 O188 2.436 . S
Pr160 O190 2.438 . S
Pr161 C171 2.880 . S
Pr161 O182 2.436 1_655 S
Pr161 O184 2.438 . S
Pr161 O186 2.562 . S
Pr161 O187 2.490 . S
Pr161 O188 2.695 1_655 S
Pr161 O189 2.512 . S
Pr161 O191 2.437 1_655 S
C162 Pr160 2.880 . S
C162 C163 1.491 . S
C162 O180 1.254 . S
C162 O181 1.225 . S
C163 C162 1.491 . S
C163 C164 1.392 1_556 S
C163 C168 1.356 1_556 S
C164 C163 1.392 1_554 S
C164 C165 1.368 . S
C164 H192 0.929 1_554 S
C165 C164 1.368 . S
C165 C166 1.386 . S
C165 H193 0.929 . S
C166 C165 1.386 . S
C166 C167 1.373 . S
C167 C166 1.373 . S
C167 C168 1.409 . S
C167 H194 0.931 . S
C168 C163 1.356 1_554 S
C168 C167 1.409 . S
C168 H195 0.930 . S
C169 O182 1.270 . S
C169 O183 1.248 . S
C170 O184 1.267 . S
C170 O185 1.278 1_655 S
C171 Pr161 2.880 . S
C171 C172 1.491 . S
C171 O186 1.254 . S
C171 O187 1.225 . S
C172 C171 1.491 . S
C172 C173 1.392 . S
C172 C177 1.356 . S
C173 C172 1.392 . S
C173 C174 1.368 . S
C173 H196 0.929 . S
C174 C173 1.368 . S
C174 C175 1.386 . S
C174 H197 0.929 . S
C175 C174 1.386 . S
C175 C176 1.373 . S
C176 C175 1.373 . S
C176 C177 1.409 . S
C176 H198 0.931 . S
C177 C172 1.356 . S
C177 C176 1.409 . S
C177 H199 0.930 . S
C178 O188 1.270 . S
C178 O189 1.248 1_455 S
C179 O190 1.267 . S
C179 O191 1.278 . S
O180 Pr160 2.562 . S
O180 C162 1.254 . S
O181 Pr160 2.490 . S
O181 C162 1.225 . S
O182 Pr160 2.695 . S
O182 Pr161 2.436 1_455 S
O182 C169 1.270 . S
O183 Pr160 2.512 . S
O183 C169 1.248 . S
O184 Pr161 2.438 . S
O184 C170 1.267 . S
O185 Pr160 2.437 . S
O185 C170 1.278 1_455 S
O186 Pr161 2.562 . S
O186 C171 1.254 . S
O187 Pr161 2.490 . S
O187 C171 1.225 . S
O188 Pr160 2.436 . S
O188 Pr161 2.695 1_455 S
O188 C178 1.270 . S
O189 Pr161 2.512 . S
O189 C178 1.248 1_655 S
O190 Pr160 2.438 . S
O190 C179 1.267 . S
O191 Pr161 2.437 1_455 S
O191 C179 1.278 . S
H192 C164 0.929 1_556 S
H193 C165 0.929 . S
H194 C167 0.931 . S
H195 C168 0.930 . S
H196 C173 0.929 . S
H197 C174 0.929 . S
H198 C176 0.931 . S
H199 C177 0.930 . S
Pr200 C202 2.880 . S
Pr200 O220 2.562 . S
Pr200 O221 2.490 . S
Pr200 O222 2.695 . S
Pr200 O223 2.512 . S
Pr200 O225 2.437 . S
Pr200 O228 2.436 . S
Pr200 O230 2.438 . S
Pr201 C211 2.880 . S
Pr201 O222 2.436 . S
Pr201 O224 2.438 . S
Pr201 O226 2.562 . S
Pr201 O227 2.490 . S
Pr201 O228 2.695 . S
Pr201 O229 2.512 . S
Pr201 O231 2.437 . S
C202 Pr200 2.880 . S
C202 C203 1.491 . S
C202 O220 1.254 . S
C202 O221 1.225 . S
C203 C202 1.491 . S
C203 C204 1.392 . S
C203 C208 1.356 . S
C204 C203 1.392 . S
C204 C205 1.368 . S
C204 H232 0.929 . S
C205 C204 1.368 . S
C205 C206 1.386 . S
C205 H233 0.929 . S
C206 C205 1.386 . S
C206 C207 1.373 . S
C207 C206 1.373 . S
C207 C208 1.409 . S
C207 H234 0.931 . S
C208 C203 1.356 . S
C208 C207 1.409 . S
C208 H235 0.930 . S
C209 O222 1.270 . S
C209 O223 1.248 . S
C210 O224 1.267 . S
C210 O225 1.278 . S
C211 Pr201 2.880 . S
C211 C212 1.491 1_554 S
C211 O226 1.254 . S
C211 O227 1.225 . S
C212 C211 1.491 1_556 S
C212 C213 1.392 . S
C212 C217 1.356 . S
C213 C212 1.392 . S
C213 C214 1.368 . S
C213 H236 0.929 . S
C214 C213 1.368 . S
C214 C215 1.386 . S
C214 H237 0.929 . S
C215 C214 1.386 . S
C215 C216 1.373 . S
C216 C215 1.373 . S
C216 C217 1.409 . S
C216 H238 0.931 . S
C217 C212 1.356 . S
C217 C216 1.409 . S
C217 H239 0.930 . S
C218 O228 1.270 . S
C218 O229 1.248 . S
C219 O230 1.267 . S
C219 O231 1.278 . S
O220 Pr200 2.562 . S
O220 C202 1.254 . S
O221 Pr200 2.490 . S
O221 C202 1.225 . S
O222 Pr200 2.695 . S
O222 Pr201 2.436 . S
O222 C209 1.270 . S
O223 Pr200 2.512 . S
O223 C209 1.248 . S
O224 Pr201 2.438 . S
O224 C210 1.267 . S
O225 Pr200 2.437 . S
O225 C210 1.278 . S
O226 Pr201 2.562 . S
O226 C211 1.254 . S
O227 Pr201 2.490 . S
O227 C211 1.225 . S
O228 Pr200 2.436 . S
O228 Pr201 2.695 . S
O228 C218 1.270 . S
O229 Pr201 2.512 . S
O229 C218 1.248 . S
O230 Pr200 2.438 . S
O230 C219 1.267 . S
O231 Pr201 2.437 . S
O231 C219 1.278 . S
H232 C204 0.929 . S
H233 C205 0.929 . S
H234 C207 0.931 . S
H235 C208 0.930 . S
H236 C213 0.929 . S
H237 C214 0.929 . S
H238 C216 0.931 . S
H239 C217 0.930 . S
Pr240 C242 2.880 . S
Pr240 O260 2.562 . S
Pr240 O261 2.490 . S
Pr240 O262 2.695 . S
Pr240 O263 2.512 . S
Pr240 O265 2.437 . S
Pr240 O268 2.436 . S
Pr240 O270 2.438 . S
Pr241 C251 2.880 . S
Pr241 O262 2.436 . S
Pr241 O264 2.438 . S
Pr241 O266 2.562 . S
Pr241 O267 2.490 . S
Pr241 O268 2.695 . S
Pr241 O269 2.512 . S
Pr241 O271 2.437 . S
C242 Pr240 2.880 . S
C242 C243 1.491 . S
C242 O260 1.254 . S
C242 O261 1.225 . S
C243 C242 1.491 . S
C243 C244 1.392 . S
C243 C248 1.356 . S
C244 C243 1.392 . S
C244 C245 1.368 . S
C244 H272 0.929 . S
C245 C244 1.368 . S
C245 C246 1.386 . S
C245 H273 0.929 . S
C246 C245 1.386 . S
C246 C247 1.373 . S
C247 C246 1.373 . S
C247 C248 1.409 . S
C247 H274 0.931 . S
C248 C243 1.356 . S
C248 C247 1.409 . S
C248 H275 0.930 . S
C249 O262 1.270 . S
C249 O263 1.248 . S
C250 O264 1.267 . S
C250 O265 1.278 . S
C251 Pr241 2.880 . S
C251 C252 1.491 . S
C251 O266 1.254 . S
C251 O267 1.225 . S
C252 C251 1.491 . S
C252 C253 1.392 . S
C252 C257 1.356 . S
C253 C252 1.392 . S
C253 C254 1.368 . S
C253 H276 0.929 . S
C254 C253 1.368 . S
C254 C255 1.386 . S
C254 H277 0.929 . S
C255 C254 1.386 . S
C255 C256 1.373 . S
C256 C255 1.373 . S
C256 C257 1.409 . S
C256 H278 0.931 . S
C257 C252 1.356 . S
C257 C256 1.409 . S
C257 H279 0.930 . S
C258 O268 1.270 . S
C258 O269 1.248 . S
C259 O270 1.267 . S
C259 O271 1.278 . S
O260 Pr240 2.562 . S
O260 C242 1.254 . S
O261 Pr240 2.490 . S
O261 C242 1.225 . S
O262 Pr240 2.695 . S
O262 Pr241 2.436 . S
O262 C249 1.270 . S
O263 Pr240 2.512 . S
O263 C249 1.248 . S
O264 Pr241 2.438 . S
O264 C250 1.267 . S
O265 Pr240 2.437 . S
O265 C250 1.278 . S
O266 Pr241 2.562 . S
O266 C251 1.254 . S
O267 Pr241 2.490 . S
O267 C251 1.225 . S
O268 Pr240 2.436 . S
O268 Pr241 2.695 . S
O268 C258 1.270 . S
O269 Pr241 2.512 . S
O269 C258 1.248 . S
O270 Pr240 2.438 . S
O270 C259 1.267 . S
O271 Pr241 2.437 . S
O271 C259 1.278 . S
H272 C244 0.929 . S
H273 C245 0.929 . S
H274 C247 0.931 . S
H275 C248 0.930 . S
H276 C253 0.929 . S
H277 C254 0.929 . S
H278 C256 0.931 . S
H279 C257 0.930 . S
Pr280 C282 2.880 . S
Pr280 O300 2.562 . S
Pr280 O301 2.490 . S
Pr280 O302 2.695 . S
Pr280 O303 2.512 . S
Pr280 O305 2.437 . S
Pr280 O308 2.436 . S
Pr280 O310 2.438 . S
Pr281 C291 2.880 . S
Pr281 O302 2.436 . S
Pr281 O304 2.438 . S
Pr281 O306 2.562 . S
Pr281 O307 2.490 . S
Pr281 O308 2.695 . S
Pr281 O309 2.512 . S
Pr281 O311 2.437 . S
C282 Pr280 2.880 . S
C282 C283 1.491 . S
C282 O300 1.254 . S
C282 O301 1.225 . S
C283 C282 1.491 . S
C283 C284 1.392 . S
C283 C288 1.356 . S
C284 C283 1.392 . S
C284 C285 1.368 . S
C284 H312 0.929 . S
C285 C284 1.368 . S
C285 C286 1.386 . S
C285 H313 0.929 . S
C286 C285 1.386 . S
C286 C287 1.373 . S
C287 C286 1.373 . S
C287 C288 1.409 . S
C287 H314 0.931 . S
C288 C283 1.356 . S
C288 C287 1.409 . S
C288 H315 0.930 . S
C289 O302 1.270 . S
C289 O303 1.248 . S
C290 O304 1.267 . S
C290 O305 1.278 . S
C291 Pr281 2.880 . S
C291 C292 1.491 . S
C291 O306 1.254 . S
C291 O307 1.225 . S
C292 C291 1.491 . S
C292 C293 1.392 . S
C292 C297 1.356 . S
C293 C292 1.392 . S
C293 C294 1.368 . S
C293 H316 0.929 . S
C294 C293 1.368 . S
C294 C295 1.386 . S
C294 H317 0.929 . S
C295 C294 1.386 . S
C295 C296 1.373 . S
C296 C295 1.373 . S
C296 C297 1.409 . S
C296 H318 0.931 . S
C297 C292 1.356 . S
C297 C296 1.409 . S
C297 H319 0.930 . S
C298 O308 1.270 . S
C298 O309 1.248 . S
C299 O310 1.267 . S
C299 O311 1.278 . S
O300 Pr280 2.562 . S
O300 C282 1.254 . S
O301 Pr280 2.490 . S
O301 C282 1.225 . S
O302 Pr280 2.695 . S
O302 Pr281 2.436 . S
O302 C289 1.270 . S
O303 Pr280 2.512 . S
O303 C289 1.248 . S
O304 Pr281 2.438 . S
O304 C290 1.267 . S
O305 Pr280 2.437 . S
O305 C290 1.278 . S
O306 Pr281 2.562 . S
O306 C291 1.254 . S
O307 Pr281 2.490 . S
O307 C291 1.225 . S
O308 Pr280 2.436 . S
O308 Pr281 2.695 . S
O308 C298 1.270 . S
O309 Pr281 2.512 . S
O309 C298 1.248 . S
O310 Pr280 2.438 . S
O310 C299 1.267 . S
O311 Pr281 2.437 . S
O311 C299 1.278 . S
H312 C284 0.929 . S
H313 C285 0.929 . S
H314 C287 0.931 . S
H315 C288 0.930 . S
H316 C293 0.929 . S
H317 C294 0.929 . S
H318 C296 0.931 . S
H319 C297 0.930 . S
Pr320 C322 2.880 . S
Pr320 O340 2.562 . S
Pr320 O341 2.490 . S
Pr320 O342 2.695 . S
Pr320 O343 2.512 . S
Pr320 O345 2.437 . S
Pr320 O348 2.436 . S
Pr320 O350 2.438 . S
Pr321 C331 2.880 . S
Pr321 O342 2.436 . S
Pr321 O344 2.438 . S
Pr321 O346 2.562 . S
Pr321 O347 2.490 . S
Pr321 O348 2.695 . S
Pr321 O349 2.512 . S
Pr321 O351 2.437 . S
C322 Pr320 2.880 . S
C322 C323 1.491 . S
C322 O340 1.254 . S
C322 O341 1.225 . S
C323 C322 1.491 . S
C323 C324 1.392 . S
C323 C328 1.356 . S
C324 C323 1.392 . S
C324 C325 1.368 . S
C324 H352 0.929 . S
C325 C324 1.368 . S
C325 C326 1.386 . S
C325 H353 0.929 . S
C326 C325 1.386 . S
C326 C327 1.373 . S
C327 C326 1.373 . S
C327 C328 1.409 . S
C327 H354 0.931 . S
C328 C323 1.356 . S
C328 C327 1.409 . S
C328 H355 0.930 . S
C329 O342 1.270 . S
C329 O343 1.248 . S
C330 O344 1.267 . S
C330 O345 1.278 . S
C331 Pr321 2.880 . S
C331 C332 1.491 . S
C331 O346 1.254 . S
C331 O347 1.225 . S
C332 C331 1.491 . S
C332 C333 1.392 . S
C332 C337 1.356 . S
C333 C332 1.392 . S
C333 C334 1.368 . S
C333 H356 0.929 . S
C334 C333 1.368 . S
C334 C335 1.386 . S
C334 H357 0.929 . S
C335 C334 1.386 . S
C335 C336 1.373 . S
C336 C335 1.373 . S
C336 C337 1.409 . S
C336 H358 0.931 . S
C337 C332 1.356 . S
C337 C336 1.409 . S
C337 H359 0.930 . S
C338 O348 1.270 . S
C338 O349 1.248 . S
C339 O350 1.267 . S
C339 O351 1.278 . S
O340 Pr320 2.562 . S
O340 C322 1.254 . S
O341 Pr320 2.490 . S
O341 C322 1.225 . S
O342 Pr320 2.695 . S
O342 Pr321 2.436 . S
O342 C329 1.270 . S
O343 Pr320 2.512 . S
O343 C329 1.248 . S
O344 Pr321 2.438 . S
O344 C330 1.267 . S
O345 Pr320 2.437 . S
O345 C330 1.278 . S
O346 Pr321 2.562 . S
O346 C331 1.254 . S
O347 Pr321 2.490 . S
O347 C331 1.225 . S
O348 Pr320 2.436 . S
O348 Pr321 2.695 . S
O348 C338 1.270 . S
O349 Pr321 2.512 . S
O349 C338 1.248 . S
O350 Pr320 2.438 . S
O350 C339 1.267 . S
O351 Pr321 2.437 . S
O351 C339 1.278 . S
H352 C324 0.929 . S
H353 C325 0.929 . S
H354 C327 0.931 . S
H355 C328 0.930 . S
H356 C333 0.929 . S
H357 C334 0.929 . S
H358 C336 0.931 . S
H359 C337 0.930 . S
Pr360 C362 2.880 . S
Pr360 O380 2.562 . S
Pr360 O381 2.490 . S
Pr360 O382 2.695 . S
Pr360 O383 2.512 . S
Pr360 O385 2.437 . S
Pr360 O388 2.436 . S
Pr360 O390 2.438 . S
Pr361 C371 2.880 . S
Pr361 O382 2.436 . S
Pr361 O384 2.438 . S
Pr361 O386 2.562 . S
Pr361 O387 2.490 . S
Pr361 O388 2.695 . S
Pr361 O389 2.512 . S
Pr361 O391 2.437 . S
C362 Pr360 2.880 . S
C362 C363 1.491 . S
C362 O380 1.254 . S
C362 O381 1.225 . S
C363 C362 1.491 . S
C363 C364 1.392 . S
C363 C368 1.356 . S
C364 C363 1.392 . S
C364 C365 1.368 . S
C364 H392 0.929 . S
C365 C364 1.368 . S
C365 C366 1.386 . S
C365 H393 0.929 . S
C366 C365 1.386 . S
C366 C367 1.373 . S
C367 C366 1.373 . S
C367 C368 1.409 . S
C367 H394 0.931 . S
C368 C363 1.356 . S
C368 C367 1.409 . S
C368 H395 0.930 . S
C369 O382 1.270 . S
C369 O383 1.248 . S
C370 O384 1.267 . S
C370 O385 1.278 . S
C371 Pr361 2.880 . S
C371 C372 1.491 . S
C371 O386 1.254 . S
C371 O387 1.225 . S
C372 C371 1.491 . S
C372 C373 1.392 . S
C372 C377 1.356 . S
C373 C372 1.392 . S
C373 C374 1.368 . S
C373 H396 0.929 . S
C374 C373 1.368 . S
C374 C375 1.386 . S
C374 H397 0.929 . S
C375 C374 1.386 . S
C375 C376 1.373 . S
C376 C375 1.373 . S
C376 C377 1.409 . S
C376 H398 0.933 1_554 S
C377 C372 1.356 . S
C377 C376 1.409 . S
C377 H399 0.930 . S
C378 O388 1.270 . S
C378 O389 1.248 . S
C379 O390 1.267 . S
C379 O391 1.278 . S
O380 Pr360 2.562 . S
O380 C362 1.254 . S
O381 Pr360 2.490 . S
O381 C362 1.225 . S
O382 Pr360 2.695 . S
O382 Pr361 2.436 . S
O382 C369 1.270 . S
O383 Pr360 2.512 . S
O383 C369 1.248 . S
O384 Pr361 2.438 . S
O384 C370 1.267 . S
O385 Pr360 2.437 . S
O385 C370 1.278 . S
O386 Pr361 2.562 . S
O386 C371 1.254 . S
O387 Pr361 2.490 . S
O387 C371 1.225 . S
O388 Pr360 2.436 . S
O388 Pr361 2.695 . S
O388 C378 1.270 . S
O389 Pr361 2.512 . S
O389 C378 1.248 . S
O390 Pr360 2.438 . S
O390 C379 1.267 . S
O391 Pr361 2.437 . S
O391 C379 1.278 . S
H392 C364 0.929 . S
H393 C365 0.929 . S
H394 C367 0.931 . S
H395 C368 0.930 . S
H396 C373 0.929 . S
H397 C374 0.929 . S
H398 C376 0.933 1_556 S
H399 C377 0.930 . S
Pr400 C402 2.880 . S
Pr400 O420 2.562 . S
Pr400 O421 2.490 . S
Pr400 O422 2.695 . S
Pr400 O423 2.512 . S
Pr400 O425 2.437 . S
Pr400 O428 2.436 . S
Pr400 O430 2.438 . S
Pr401 C411 2.880 . S
Pr401 O422 2.436 . S
Pr401 O424 2.438 . S
Pr401 O426 2.562 . S
Pr401 O427 2.490 . S
Pr401 O428 2.695 . S
Pr401 O429 2.512 . S
Pr401 O431 2.437 . S
C402 Pr400 2.880 . S
C402 C403 1.491 . S
C402 O420 1.254 . S
C402 O421 1.225 . S
C403 C402 1.491 . S
C403 C404 1.392 . S
C403 C408 1.356 . S
C404 C403 1.392 . S
C404 C405 1.368 1_556 S
C404 H432 0.929 . S
C405 C404 1.368 1_554 S
C405 C406 1.386 . S
C405 H433 0.929 . S
C406 C405 1.386 . S
C406 C407 1.373 . S
C407 C406 1.373 . S
C407 C408 1.409 1_554 S
C407 H434 0.931 . S
C408 C403 1.356 . S
C408 C407 1.409 1_556 S
C408 H435 0.930 . S
C409 O422 1.270 . S
C409 O423 1.248 . S
C410 O424 1.267 . S
C410 O425 1.278 . S
C411 Pr401 2.880 . S
C411 C412 1.491 . S
C411 O426 1.254 . S
C411 O427 1.225 . S
C412 C411 1.491 . S
C412 C413 1.392 . S
C412 C417 1.356 . S
C413 C412 1.392 . S
C413 C414 1.368 . S
C413 H436 0.929 . S
C414 C413 1.368 . S
C414 C415 1.386 . S
C414 H437 0.929 . S
C415 C414 1.386 . S
C415 C416 1.373 . S
C416 C415 1.373 . S
C416 C417 1.409 . S
C416 H438 0.931 . S
C417 C412 1.356 . S
C417 C416 1.409 . S
C417 H439 0.930 . S
C418 O428 1.270 . S
C418 O429 1.248 . S
C419 O430 1.267 . S
C419 O431 1.278 . S
O420 Pr400 2.562 . S
O420 C402 1.254 . S
O421 Pr400 2.490 . S
O421 C402 1.225 . S
O422 Pr400 2.695 . S
O422 Pr401 2.436 . S
O422 C409 1.270 . S
O423 Pr400 2.512 . S
O423 C409 1.248 . S
O424 Pr401 2.438 . S
O424 C410 1.267 . S
O425 Pr400 2.437 . S
O425 C410 1.278 . S
O426 Pr401 2.562 . S
O426 C411 1.254 . S
O427 Pr401 2.490 . S
O427 C411 1.225 . S
O428 Pr400 2.436 . S
O428 Pr401 2.695 . S
O428 C418 1.270 . S
O429 Pr401 2.512 . S
O429 C418 1.248 . S
O430 Pr400 2.438 . S
O430 C419 1.267 . S
O431 Pr401 2.437 . S
O431 C419 1.278 . S
H432 C404 0.929 . S
H433 C405 0.929 . S
H434 C407 0.931 . S
H435 C408 0.930 . S
H436 C413 0.929 . S
H437 C414 0.929 . S
H438 C416 0.931 . S
H439 C417 0.930 . S
Pr440 C442 2.880 . S
Pr440 O460 2.562 . S
Pr440 O461 2.490 . S
Pr440 O462 2.695 . S
Pr440 O463 2.512 . S
Pr440 O465 2.437 . S
Pr440 O468 2.436 . S
Pr440 O470 2.438 . S
Pr441 C451 2.880 . S
Pr441 O462 2.436 . S
Pr441 O464 2.438 . S
Pr441 O466 2.562 . S
Pr441 O467 2.490 . S
Pr441 O468 2.695 . S
Pr441 O469 2.512 . S
Pr441 O471 2.437 . S
C442 Pr440 2.880 . S
C442 C443 1.491 . S
C442 O460 1.254 . S
C442 O461 1.225 . S
C443 C442 1.491 . S
C443 C444 1.392 . S
C443 C448 1.356 . S
C444 C443 1.392 . S
C444 C445 1.368 . S
C444 H472 0.929 . S
C445 C444 1.368 . S
C445 C446 1.386 . S
C445 H473 0.929 . S
C446 C445 1.386 . S
C446 C447 1.373 . S
C447 C446 1.373 . S
C447 C448 1.409 . S
C447 H474 0.931 . S
C448 C443 1.356 . S
C448 C447 1.409 . S
C448 H475 0.930 . S
C449 O462 1.270 . S
C449 O463 1.248 . S
C450 O464 1.267 . S
C450 O465 1.278 . S
C451 Pr441 2.880 . S
C451 C452 1.491 . S
C451 O466 1.254 . S
C451 O467 1.225 . S
C452 C451 1.491 . S
C452 C453 1.392 . S
C452 C457 1.356 . S
C453 C452 1.392 . S
C453 C454 1.368 . S
C453 H476 0.929 . S
C454 C453 1.368 . S
C454 C455 1.386 . S
C454 H477 0.929 . S
C455 C454 1.386 . S
C455 C456 1.373 . S
C456 C455 1.373 . S
C456 C457 1.409 . S
C456 H478 0.931 . S
C457 C452 1.356 . S
C457 C456 1.409 . S
C457 H479 0.930 . S
C458 O468 1.270 . S
C458 O469 1.248 . S
C459 O470 1.267 . S
C459 O471 1.278 . S
O460 Pr440 2.562 . S
O460 C442 1.254 . S
O461 Pr440 2.490 . S
O461 C442 1.225 . S
O462 Pr440 2.695 . S
O462 Pr441 2.436 . S
O462 C449 1.270 . S
O463 Pr440 2.512 . S
O463 C449 1.248 . S
O464 Pr441 2.438 . S
O464 C450 1.267 . S
O465 Pr440 2.437 . S
O465 C450 1.278 . S
O466 Pr441 2.562 . S
O466 C451 1.254 . S
O467 Pr441 2.490 . S
O467 C451 1.225 . S
O468 Pr440 2.436 . S
O468 Pr441 2.695 . S
O468 C458 1.270 . S
O469 Pr441 2.512 . S
O469 C458 1.248 . S
O470 Pr440 2.438 . S
O470 C459 1.267 . S
O471 Pr441 2.437 . S
O471 C459 1.278 . S
H472 C444 0.929 . S
H473 C445 0.929 . S
H474 C447 0.931 . S
H475 C448 0.930 . S
H476 C453 0.929 . S
H477 C454 0.929 . S
H478 C456 0.931 . S
H479 C457 0.930 . S
Pr480 C482 2.880 . S
Pr480 O500 2.562 . S
Pr480 O501 2.490 . S
Pr480 O502 2.695 . S
Pr480 O503 2.512 . S
Pr480 O505 2.437 . S
Pr480 O508 2.436 . S
Pr480 O510 2.438 . S
Pr481 C491 2.880 . S
Pr481 O502 2.436 . S
Pr481 O504 2.438 . S
Pr481 O506 2.562 . S
Pr481 O507 2.490 . S
Pr481 O508 2.695 . S
Pr481 O509 2.512 . S
Pr481 O511 2.437 . S
C482 Pr480 2.880 . S
C482 C483 1.491 . S
C482 O500 1.254 . S
C482 O501 1.225 . S
C483 C482 1.491 . S
C483 C484 1.392 . S
C483 C488 1.356 . S
C484 C483 1.392 . S
C484 C485 1.368 . S
C484 H512 0.929 . S
C485 C484 1.368 . S
C485 C486 1.386 . S
C485 H513 0.929 . S
C486 C485 1.386 . S
C486 C487 1.373 . S
C487 C486 1.373 . S
C487 C488 1.409 . S
C487 H514 0.931 . S
C488 C483 1.356 . S
C488 C487 1.409 . S
C488 H515 0.930 . S
C489 O502 1.270 . S
C489 O503 1.248 . S
C490 O504 1.267 . S
C490 O505 1.278 . S
C491 Pr481 2.880 . S
C491 C492 1.491 . S
C491 O506 1.254 . S
C491 O507 1.225 . S
C492 C491 1.491 . S
C492 C493 1.392 . S
C492 C497 1.356 . S
C493 C492 1.392 . S
C493 C494 1.368 . S
C493 H516 0.929 . S
C494 C493 1.368 . S
C494 C495 1.386 . S
C494 H517 0.929 . S
C495 C494 1.386 . S
C495 C496 1.373 . S
C496 C495 1.373 . S
C496 C497 1.409 . S
C496 H518 0.931 . S
C497 C492 1.356 . S
C497 C496 1.409 . S
C497 H519 0.930 . S
C498 O508 1.270 . S
C498 O509 1.248 . S
C499 O510 1.267 . S
C499 O511 1.278 . S
O500 Pr480 2.562 . S
O500 C482 1.254 . S
O501 Pr480 2.490 . S
O501 C482 1.225 . S
O502 Pr480 2.695 . S
O502 Pr481 2.436 . S
O502 C489 1.270 . S
O503 Pr480 2.512 . S
O503 C489 1.248 . S
O504 Pr481 2.438 . S
O504 C490 1.267 . S
O505 Pr480 2.437 . S
O505 C490 1.278 . S
O506 Pr481 2.562 . S
O506 C491 1.254 . S
O507 Pr481 2.490 . S
O507 C491 1.225 . S
O508 Pr480 2.436 . S
O508 Pr481 2.695 . S
O508 C498 1.270 . S
O509 Pr481 2.512 . S
O509 C498 1.248 . S
O510 Pr480 2.438 . S
O510 C499 1.267 . S
O511 Pr481 2.437 . S
O511 C499 1.278 . S
H512 C484 0.929 . S
H513 C485 0.929 . S
H514 C487 0.931 . S
H515 C488 0.930 . S
H516 C493 0.929 . S
H517 C494 0.929 . S
H518 C496 0.931 . S
H519 C497 0.930 . S
Pr520 C522 2.880 . S
Pr520 O540 2.562 . S
Pr520 O541 2.490 . S
Pr520 O542 2.695 1_655 S
Pr520 O543 2.512 1_655 S
Pr520 O545 2.437 1_655 S
Pr520 O548 2.436 1_655 S
Pr520 O550 2.438 . S
Pr521 C531 2.880 . S
Pr521 O542 2.436 . S
Pr521 O544 2.438 . S
Pr521 O546 2.562 . S
Pr521 O547 2.490 . S
Pr521 O548 2.695 . S
Pr521 O549 2.512 . S
Pr521 O551 2.437 . S
C522 Pr520 2.880 . S
C522 C523 1.491 . S
C522 O540 1.254 . S
C522 O541 1.225 . S
C523 C522 1.491 . S
C523 C524 1.392 1_554 S
C523 C528 1.356 1_554 S
C524 C523 1.392 1_556 S
C524 C525 1.368 . S
C524 H552 0.929 1_556 S
C525 C524 1.368 . S
C525 C526 1.386 . S
C525 H553 0.929 . S
C526 C525 1.386 . S
C526 C527 1.373 . S
C527 C526 1.373 . S
C527 C528 1.409 . S
C527 H554 0.931 . S
C528 C523 1.356 1_556 S
C528 C527 1.409 . S
C528 H555 0.930 . S
C529 O542 1.270 . S
C529 O543 1.248 . S
C530 O544 1.267 . S
C530 O545 1.278 . S
C531 Pr521 2.880 . S
C531 C532 1.491 . S
C531 O546 1.254 . S
C531 O547 1.225 . S
C532 C531 1.491 . S
C532 C533 1.392 . S
C532 C537 1.356 . S
C533 C532 1.392 . S
C533 C534 1.368 . S
C533 H556 0.929 . S
C534 C533 1.368 . S
C534 C535 1.386 . S
C534 H557 0.929 . S
C535 C534 1.386 . S
C535 C536 1.373 . S
C536 C535 1.373 . S
C536 C537 1.409 . S
C536 H558 0.931 . S
C537 C532 1.356 . S
C537 C536 1.409 . S
C537 H559 0.930 . S
C538 O548 1.270 . S
C538 O549 1.248 . S
C539 O550 1.238 1_455 S
C539 O551 1.319 . S
O540 Pr520 2.562 . S
O540 C522 1.254 . S
O541 Pr520 2.490 . S
O541 C522 1.225 . S
O542 Pr520 2.695 1_455 S
O542 Pr521 2.436 . S
O542 C529 1.270 . S
O543 Pr520 2.512 1_455 S
O543 C529 1.248 . S
O544 Pr521 2.438 . S
O544 C530 1.267 . S
O545 Pr520 2.437 1_455 S
O545 C530 1.278 . S
O546 Pr521 2.562 . S
O546 C531 1.254 . S
O547 Pr521 2.490 . S
O547 C531 1.225 . S
O548 Pr520 2.436 1_455 S
O548 Pr521 2.695 . S
O548 C538 1.270 . S
O549 Pr521 2.512 . S
O549 C538 1.248 . S
O550 Pr520 2.438 . S
O550 C539 1.238 1_655 S
O551 Pr521 2.437 . S
O551 C539 1.319 . S
H552 C524 0.929 1_554 S
H553 C525 0.929 . S
H554 C527 0.931 . S
H555 C528 0.930 . S
H556 C533 0.929 . S
H557 C534 0.929 . S
H558 C536 0.931 . S
H559 C537 0.930 . S
Pr560 C562 2.880 . S
Pr560 O580 2.562 . S
Pr560 O581 2.490 . S
Pr560 O582 2.695 . S
Pr560 O583 2.512 . S
Pr560 O585 2.437 . S
Pr560 O588 2.436 . S
Pr560 O590 2.438 . S
Pr561 C571 2.880 . S
Pr561 O582 2.436 . S
Pr561 O584 2.438 . S
Pr561 O586 2.562 . S
Pr561 O587 2.490 . S
Pr561 O588 2.695 . S
Pr561 O589 2.512 . S
Pr561 O591 2.437 . S
C562 Pr560 2.880 . S
C562 C563 1.491 . S
C562 O580 1.254 . S
C562 O581 1.225 . S
C563 C562 1.491 . S
C563 C564 1.392 . S
C563 C568 1.356 . S
C564 C563 1.392 . S
C564 C565 1.368 . S
C564 H592 0.929 . S
C565 C564 1.368 . S
C565 C566 1.386 . S
C565 H593 0.929 . S
C566 C565 1.386 . S
C566 C567 1.373 . S
C567 C566 1.373 . S
C567 C568 1.409 . S
C567 H594 0.931 . S
C568 C563 1.356 . S
C568 C567 1.409 . S
C568 H595 0.930 . S
C569 O582 1.270 . S
C569 O583 1.248 . S
C570 O584 1.267 . S
C570 O585 1.278 . S
C571 Pr561 2.880 . S
C571 C572 1.491 . S
C571 O586 1.254 . S
C571 O587 1.225 . S
C572 C571 1.491 . S
C572 C573 1.392 . S
C572 C577 1.356 . S
C573 C572 1.392 . S
C573 C574 1.368 . S
C573 H596 0.929 . S
C574 C573 1.368 . S
C574 C575 1.386 . S
C574 H597 0.929 . S
C575 C574 1.386 . S
C575 C576 1.373 . S
C576 C575 1.373 . S
C576 C577 1.409 . S
C576 H598 0.931 . S
C577 C572 1.356 . S
C577 C576 1.409 . S
C577 H599 0.930 . S
C578 O588 1.270 . S
C578 O589 1.248 . S
C579 O590 1.267 . S
C579 O591 1.278 . S
O580 Pr560 2.562 . S
O580 C562 1.254 . S
O581 Pr560 2.490 . S
O581 C562 1.225 . S
O582 Pr560 2.695 . S
O582 Pr561 2.436 . S
O582 C569 1.270 . S
O583 Pr560 2.512 . S
O583 C569 1.248 . S
O584 Pr561 2.438 . S
O584 C570 1.267 . S
O585 Pr560 2.437 . S
O585 C570 1.278 . S
O586 Pr561 2.562 . S
O586 C571 1.254 . S
O587 Pr561 2.490 . S
O587 C571 1.225 . S
O588 Pr560 2.436 . S
O588 Pr561 2.695 . S
O588 C578 1.270 . S
O589 Pr561 2.512 . S
O589 C578 1.248 . S
O590 Pr560 2.438 . S
O590 C579 1.267 . S
O591 Pr561 2.437 . S
O591 C579 1.278 . S
H592 C564 0.929 . S
H593 C565 0.929 . S
H594 C567 0.931 . S
H595 C568 0.930 . S
H596 C573 0.929 . S
H597 C574 0.929 . S
H598 C576 0.931 . S
H599 C577 0.930 . S
Pr600 C602 2.880 . S
Pr600 O620 2.562 . S
Pr600 O621 2.490 . S
Pr600 O622 2.695 1_655 S
Pr600 O623 2.512 . S
Pr600 O625 2.437 1_655 S
Pr600 O628 2.436 1_655 S
Pr600 O630 2.438 . S
Pr601 C611 2.880 . S
Pr601 O622 2.436 . S
Pr601 O624 2.438 . S
Pr601 O626 2.562 . S
Pr601 O627 2.490 . S
Pr601 O628 2.695 . S
Pr601 O629 2.512 . S
Pr601 O631 2.437 . S
C602 Pr600 2.880 . S
C602 C603 1.491 1_556 S
C602 O620 1.254 . S
C602 O621 1.225 . S
C603 C602 1.491 1_554 S
C603 C604 1.392 . S
C603 C608 1.356 . S
C604 C603 1.392 . S
C604 C605 1.368 . S
C604 H632 0.929 . S
C605 C604 1.368 . S
C605 C606 1.386 . S
C605 H633 0.929 . S
C606 C605 1.386 . S
C606 C607 1.373 . S
C607 C606 1.373 . S
C607 C608 1.409 . S
C607 H634 0.931 . S
C608 C603 1.356 . S
C608 C607 1.409 . S
C608 H635 0.930 . S
C609 O622 1.270 . S
C609 O623 1.248 1_455 S
C610 O624 1.267 . S
C610 O625 1.278 . S
C611 Pr601 2.880 . S
C611 C612 1.491 . S
C611 O626 1.254 . S
C611 O627 1.225 . S
C612 C611 1.491 . S
C612 C613 1.392 . S
C612 C617 1.356 . S
C613 C612 1.392 . S
C613 C614 1.368 . S
C613 H636 0.929 . S
C614 C613 1.368 . S
C614 C615 1.386 . S
C614 H637 0.929 . S
C615 C614 1.386 . S
C615 C616 1.373 . S
C616 C615 1.373 . S
C616 C617 1.409 . S
C616 H638 0.931 . S
C617 C612 1.356 . S
C617 C616 1.409 . S
C617 H639 0.930 . S
C618 O628 1.270 . S
C618 O629 1.248 . S
C619 O630 1.267 . S
C619 O631 1.278 1_655 S
O620 Pr600 2.562 . S
O620 C602 1.254 . S
O621 Pr600 2.490 . S
O621 C602 1.225 . S
O622 Pr600 2.695 1_455 S
O622 Pr601 2.436 . S
O622 C609 1.270 . S
O623 Pr600 2.512 . S
O623 C609 1.248 1_655 S
O624 Pr601 2.438 . S
O624 C610 1.267 . S
O625 Pr600 2.437 1_455 S
O625 C610 1.278 . S
O626 Pr601 2.562 . S
O626 C611 1.254 . S
O627 Pr601 2.490 . S
O627 C611 1.225 . S
O628 Pr600 2.436 1_455 S
O628 Pr601 2.695 . S
O628 C618 1.270 . S
O629 Pr601 2.512 . S
O629 C618 1.248 . S
O630 Pr600 2.438 . S
O630 C619 1.267 . S
O631 Pr601 2.437 . S
O631 C619 1.278 1_455 S
H632 C604 0.929 . S
H633 C605 0.929 . S
H634 C607 0.931 . S
H635 C608 0.930 . S
H636 C613 0.929 . S
H637 C614 0.929 . S
H638 C616 0.931 . S
H639 C617 0.930 . S
H640 C648 0.929 . S
H641 C650 0.930 1_556 S
H642 C652 0.930 . S
H643 C655 0.929 . S
H644 C658 0.930 . S
H645 C660 0.960 1_556 S
H646 C660 0.960 . S
H647 C660 0.960 . S
C648 H640 0.929 . S
C648 C649 1.377 . S
C648 C650 1.384 . S
C649 C648 1.377 . S
C649 C655 1.390 . S
C650 H641 0.930 1_554 S
C650 C648 1.384 . S
C650 C651 1.372 . S
C651 C650 1.372 . S
C651 C652 1.400 . S
C651 C656 1.490 1_554 S
C652 H642 0.930 . S
C652 C651 1.400 . S
C652 C655 1.386 . S
H653 C669 0.930 . S
H654 C670 0.931 . S
C655 H643 0.929 . S
C655 C649 1.390 . S
C655 C652 1.386 . S
C656 C651 1.490 1_556 S
C656 C658 1.395 . S
C656 C659 1.403 . S
H657 C663 0.930 . S
C658 H644 0.930 . S
C658 C656 1.395 . S
C658 C661 1.403 . S
C659 C656 1.403 . S
C659 C660 1.524 1_556 S
C659 C663 1.400 . S
C660 H645 0.960 1_554 S
C660 H646 0.960 . S
C660 H647 0.960 . S
C660 C659 1.524 1_554 S
C661 C658 1.403 . S
C661 C662 1.392 . S
C661 C665 1.495 . S
C662 C661 1.392 . S
C662 C663 1.385 . S
C662 C664 1.478 . S
C663 H657 0.930 . S
C663 C659 1.400 . S
C663 C662 1.385 . S
C664 C662 1.478 . S
C664 C666 1.381 . S
C664 C670 1.383 . S
C665 C661 1.495 . S
C665 H671 0.959 . S
C665 H672 0.961 . S
C665 H673 0.960 . S
C666 C664 1.381 . S
C666 C667 1.394 . S
C666 H674 0.930 . S
C667 C666 1.394 . S
C667 C668 1.383 . S
C667 H675 0.929 . S
C668 C667 1.383 . S
C668 C669 1.377 . S
C669 H653 0.930 . S
C669 C668 1.377 . S
C669 C670 1.379 . S
C670 H654 0.931 . S
C670 C664 1.383 . S
C670 C669 1.379 . S
H671 C665 0.959 . S
H672 C665 0.961 . S
H673 C665 0.960 . S
H674 C666 0.930 . S
H675 C667 0.929 . S
H676 C684 0.929 . S
H677 C686 0.930 . S
H678 C688 0.930 . S
H679 C691 0.929 . S
H680 C694 0.930 . S
H681 C696 0.960 . S
H682 C696 0.960 . S
H683 C696 0.960 . S
C684 H676 0.929 . S
C684 C685 1.377 . S
C684 C686 1.384 . S
C685 C684 1.377 . S
C685 C691 1.390 . S
C686 H677 0.930 . S
C686 C684 1.384 . S
C686 C687 1.372 . S
C687 C686 1.372 . S
C687 C688 1.400 . S
C687 C692 1.490 . S
C688 H678 0.930 . S
C688 C687 1.400 . S
C688 C691 1.386 . S
H689 C705 0.930 . S
H690 C706 0.931 . S
C691 H679 0.929 . S
C691 C685 1.390 . S
C691 C688 1.386 . S
C692 C687 1.490 . S
C692 C694 1.395 . S
C692 C695 1.403 . S
H693 C699 0.930 . S
C694 H680 0.930 . S
C694 C692 1.395 . S
C694 C697 1.403 . S
C695 C692 1.403 . S
C695 C696 1.524 . S
C695 C699 1.400 . S
C696 H681 0.960 . S
C696 H682 0.960 . S
C696 H683 0.960 . S
C696 C695 1.524 . S
C697 C694 1.403 . S
C697 C698 1.392 . S
C697 C701 1.495 . S
C698 C697 1.392 . S
C698 C699 1.385 . S
C698 C700 1.478 . S
C699 H693 0.930 . S
C699 C695 1.400 . S
C699 C698 1.385 . S
C700 C698 1.478 . S
C700 C702 1.381 . S
C700 C706 1.383 . S
C701 C697 1.495 . S
C701 H707 0.959 . S
C701 H708 0.961 . S
C701 H709 0.960 . S
C702 C700 1.381 . S
C702 C703 1.394 . S
C702 H710 0.930 . S
C703 C702 1.394 . S
C703 C704 1.383 . S
C703 H711 0.929 . S
C704 C703 1.383 . S
C704 C705 1.377 . S
C705 H689 0.930 . S
C705 C704 1.377 . S
C705 C706 1.379 . S
C706 H690 0.931 . S
C706 C700 1.383 . S
C706 C705 1.379 . S
H707 C701 0.959 . S
H708 C701 0.961 . S
H709 C701 0.960 . S
H710 C702 0.930 . S
H711 C703 0.929 . S
H712 C720 0.929 . S
H713 C722 0.930 . S
H714 C724 0.930 . S
H715 C727 0.929 . S
H716 C730 0.930 . S
H717 C732 0.960 . S
H718 C732 0.960 . S
H719 C732 0.960 . S
C720 H712 0.929 . S
C720 C721 1.377 . S
C720 C722 1.384 . S
C721 C720 1.377 . S
C721 C727 1.390 . S
C722 H713 0.930 . S
C722 C720 1.384 . S
C722 C723 1.372 . S
C723 C722 1.372 . S
C723 C724 1.400 . S
C723 C728 1.490 . S
C724 H714 0.930 . S
C724 C723 1.400 . S
C724 C727 1.386 . S
H725 C741 0.930 . S
H726 C742 0.931 . S
C727 H715 0.929 . S
C727 C721 1.390 . S
C727 C724 1.386 . S
C728 C723 1.490 . S
C728 C730 1.395 . S
C728 C731 1.403 . S
H729 C735 0.930 . S
C730 H716 0.930 . S
C730 C728 1.395 . S
C730 C733 1.403 . S
C731 C728 1.403 . S
C731 C732 1.524 . S
C731 C735 1.400 . S
C732 H717 0.960 . S
C732 H718 0.960 . S
C732 H719 0.960 . S
C732 C731 1.524 . S
C733 C730 1.403 . S
C733 C734 1.392 . S
C733 C737 1.495 . S
C734 C733 1.392 . S
C734 C735 1.385 . S
C734 C736 1.478 . S
C735 H729 0.930 . S
C735 C731 1.400 . S
C735 C734 1.385 . S
C736 C734 1.478 . S
C736 C738 1.381 . S
C736 C742 1.383 . S
C737 C733 1.495 . S
C737 H743 0.959 . S
C737 H744 0.961 . S
C737 H745 0.960 . S
C738 C736 1.381 . S
C738 C739 1.394 . S
C738 H746 0.930 . S
C739 C738 1.394 . S
C739 C740 1.383 . S
C739 H747 0.929 . S
C740 C739 1.383 . S
C740 C741 1.377 . S
C741 H725 0.930 . S
C741 C740 1.377 . S
C741 C742 1.379 . S
C742 H726 0.931 . S
C742 C736 1.383 . S
C742 C741 1.379 . S
H743 C737 0.959 . S
H744 C737 0.961 . S
H745 C737 0.960 . S
H746 C738 0.930 . S
H747 C739 0.929 . S
H748 C756 0.929 . S
H749 C758 0.930 . S
H750 C760 0.930 . S
H751 C763 0.929 . S
H752 C766 0.930 . S
H753 C768 0.960 . S
H754 C768 0.960 . S
H755 C768 0.960 . S
C756 H748 0.929 . S
C756 C757 1.377 . S
C756 C758 1.384 . S
C757 C756 1.377 . S
C757 C763 1.390 . S
C758 H749 0.930 . S
C758 C756 1.384 . S
C758 C759 1.372 . S
C759 C758 1.372 . S
C759 C760 1.400 . S
C759 C764 1.490 . S
C760 H750 0.930 . S
C760 C759 1.400 . S
C760 C763 1.386 . S
H761 C777 0.930 . S
H762 C778 0.931 . S
C763 H751 0.929 . S
C763 C757 1.390 . S
C763 C760 1.386 . S
C764 C759 1.490 . S
C764 C766 1.395 . S
C764 C767 1.403 . S
H765 C771 0.930 . S
C766 H752 0.930 . S
C766 C764 1.395 . S
C766 C769 1.403 . S
C767 C764 1.403 . S
C767 C768 1.524 . S
C767 C771 1.400 . S
C768 H753 0.960 . S
C768 H754 0.960 . S
C768 H755 0.960 . S
C768 C767 1.524 . S
C769 C766 1.403 . S
C769 C770 1.392 . S
C769 C773 1.495 . S
C770 C769 1.392 . S
C770 C771 1.385 . S
C770 C772 1.478 . S
C771 H765 0.930 . S
C771 C767 1.400 . S
C771 C770 1.385 . S
C772 C770 1.478 . S
C772 C774 1.381 . S
C772 C778 1.383 . S
C773 C769 1.495 . S
C773 H779 0.959 . S
C773 H780 0.961 . S
C773 H781 0.960 . S
C774 C772 1.381 . S
C774 C775 1.394 . S
C774 H782 0.930 . S
C775 C774 1.394 . S
C775 C776 1.383 . S
C775 H783 0.929 . S
C776 C775 1.383 . S
C776 C777 1.377 . S
C777 H761 0.930 . S
C777 C776 1.377 . S
C777 C778 1.379 . S
C778 H762 0.931 . S
C778 C772 1.383 . S
C778 C777 1.379 . S
H779 C773 0.959 . S
H780 C773 0.961 . S
H781 C773 0.960 . S
H782 C774 0.930 . S
H783 C775 0.929 . S
H784 C792 0.929 . S
H785 C794 0.930 . S
H786 C796 0.930 . S
H787 C799 0.929 . S
H788 C802 0.930 . S
H789 C804 0.960 . S
H790 C804 0.960 . S
H791 C804 0.960 . S
C792 H784 0.929 . S
C792 C793 1.377 . S
C792 C794 1.384 . S
C793 C792 1.377 . S
C793 C799 1.390 . S
C794 H785 0.930 . S
C794 C792 1.384 . S
C794 C795 1.372 . S
C795 C794 1.372 . S
C795 C796 1.400 . S
C795 C800 1.490 . S
C796 H786 0.930 . S
C796 C795 1.400 . S
C796 C799 1.386 . S
H797 C813 0.930 . S
H798 C814 0.931 . S
C799 H787 0.929 . S
C799 C793 1.390 . S
C799 C796 1.386 . S
C800 C795 1.490 . S
C800 C802 1.395 . S
C800 C803 1.403 . S
H801 C807 0.930 . S
C802 H788 0.930 . S
C802 C800 1.395 . S
C802 C805 1.403 . S
C803 C800 1.403 . S
C803 C804 1.524 . S
C803 C807 1.400 . S
C804 H789 0.960 . S
C804 H790 0.960 . S
C804 H791 0.960 . S
C804 C803 1.524 . S
C805 C802 1.403 . S
C805 C806 1.392 . S
C805 C809 1.495 . S
C806 C805 1.392 . S
C806 C807 1.385 . S
C806 C808 1.478 . S
C807 H801 0.930 . S
C807 C803 1.400 . S
C807 C806 1.385 . S
C808 C806 1.478 . S
C808 C810 1.381 1_554 S
C808 C814 1.383 . S
C809 C805 1.495 . S
C809 H815 0.959 . S
C809 H816 0.961 . S
C809 H817 0.960 . S
C810 C808 1.381 1_556 S
C810 C811 1.394 . S
C810 H818 0.930 . S
C811 C810 1.394 . S
C811 C812 1.383 . S
C811 H819 0.929 . S
C812 C811 1.383 . S
C812 C813 1.377 . S
C813 H797 0.930 . S
C813 C812 1.377 . S
C813 C814 1.379 1_556 S
C814 H798 0.931 . S
C814 C808 1.383 . S
C814 C813 1.379 1_554 S
H815 C809 0.959 . S
H816 C809 0.961 . S
H817 C809 0.960 . S
H818 C810 0.930 . S
H819 C811 0.929 . S
H820 C828 0.929 . S
H821 C830 0.930 . S
H822 C832 0.930 . S
H823 C835 0.929 . S
H824 C838 0.930 . S
H825 C840 0.960 . S
H826 C840 0.960 . S
H827 C840 0.960 . S
C828 H820 0.929 . S
C828 C829 1.377 . S
C828 C830 1.384 . S
C829 C828 1.377 . S
C829 C835 1.390 . S
C830 H821 0.930 . S
C830 C828 1.384 . S
C830 C831 1.372 . S
C831 C830 1.372 . S
C831 C832 1.400 . S
C831 C836 1.490 . S
C832 H822 0.930 . S
C832 C831 1.400 . S
C832 C835 1.386 . S
H833 C849 0.930 . S
H834 C850 0.931 . S
C835 H823 0.929 . S
C835 C829 1.390 . S
C835 C832 1.386 . S
C836 C831 1.490 . S
C836 C838 1.395 . S
C836 C839 1.403 . S
H837 C843 0.930 . S
C838 H824 0.930 . S
C838 C836 1.395 . S
C838 C841 1.403 . S
C839 C836 1.403 . S
C839 C840 1.524 . S
C839 C843 1.400 . S
C840 H825 0.960 . S
C840 H826 0.960 . S
C840 H827 0.960 . S
C840 C839 1.524 . S
C841 C838 1.403 . S
C841 C842 1.392 . S
C841 C845 1.495 . S
C842 C841 1.392 . S
C842 C843 1.385 . S
C842 C844 1.478 . S
C843 H837 0.930 . S
C843 C839 1.400 . S
C843 C842 1.385 . S
C844 C842 1.478 . S
C844 C846 1.381 . S
C844 C850 1.383 . S
C845 C841 1.495 . S
C845 H851 0.959 . S
C845 H852 0.961 . S
C845 H853 0.960 . S
C846 C844 1.381 . S
C846 C847 1.394 . S
C846 H854 0.930 . S
C847 C846 1.394 . S
C847 C848 1.383 . S
C847 H855 0.929 . S
C848 C847 1.383 . S
C848 C849 1.377 . S
C849 H833 0.930 . S
C849 C848 1.377 . S
C849 C850 1.379 . S
C850 H834 0.931 . S
C850 C844 1.383 . S
C850 C849 1.379 . S
H851 C845 0.959 . S
H852 C845 0.961 . S
H853 C845 0.960 . S
H854 C846 0.930 . S
H855 C847 0.929 . S
H856 C864 0.929 . S
H857 C866 0.930 . S
H858 C868 0.930 . S
H859 C871 0.929 . S
H860 C874 0.930 . S
H861 C876 0.960 . S
H862 C876 0.960 . S
H863 C876 0.960 . S
C864 H856 0.929 . S
C864 C865 1.377 . S
C864 C866 1.384 . S
C865 C864 1.377 . S
C865 C871 1.390 . S
C866 H857 0.930 . S
C866 C864 1.384 . S
C866 C867 1.372 . S
C867 C866 1.372 . S
C867 C868 1.400 . S
C867 C872 1.490 . S
C868 H858 0.930 . S
C868 C867 1.400 . S
C868 C871 1.386 . S
H869 C885 0.930 . S
H870 C886 0.931 . S
C871 H859 0.929 . S
C871 C865 1.390 . S
C871 C868 1.386 . S
C872 C867 1.490 . S
C872 C874 1.395 . S
C872 C875 1.403 . S
H873 C879 0.930 . S
C874 H860 0.930 . S
C874 C872 1.395 . S
C874 C877 1.403 . S
C875 C872 1.403 . S
C875 C876 1.524 . S
C875 C879 1.400 . S
C876 H861 0.960 . S
C876 H862 0.960 . S
C876 H863 0.960 . S
C876 C875 1.524 . S
C877 C874 1.403 . S
C877 C878 1.392 . S
C877 C881 1.495 . S
C878 C877 1.392 . S
C878 C879 1.385 . S
C878 C880 1.478 . S
C879 H873 0.930 . S
C879 C875 1.400 . S
C879 C878 1.385 . S
C880 C878 1.478 . S
C880 C882 1.381 . S
C880 C886 1.383 . S
C881 C877 1.495 . S
C881 H887 0.959 . S
C881 H888 0.961 . S
C881 H889 0.960 . S
C882 C880 1.381 . S
C882 C883 1.394 . S
C882 H890 0.930 . S
C883 C882 1.394 . S
C883 C884 1.383 . S
C883 H891 0.929 . S
C884 C883 1.383 . S
C884 C885 1.377 . S
C885 H869 0.930 . S
C885 C884 1.377 . S
C885 C886 1.379 . S
C886 H870 0.931 . S
C886 C880 1.383 . S
C886 C885 1.379 . S
H887 C881 0.959 . S
H888 C881 0.961 . S
H889 C881 0.960 . S
H890 C882 0.930 . S
H891 C883 0.929 . S
H892 C900 0.929 . S
H893 C902 0.930 . S
H894 C904 0.930 . S
H895 C907 0.929 . S
H896 C910 0.930 . S
H897 C912 0.960 . S
H898 C912 0.960 . S
H899 C912 0.960 . S
C900 H892 0.929 . S
C900 C901 1.377 . S
C900 C902 1.384 . S
C901 C900 1.377 . S
C901 C907 1.390 . S
C902 H893 0.930 . S
C902 C900 1.384 . S
C902 C903 1.372 . S
C903 C902 1.372 . S
C903 C904 1.400 . S
C903 C908 1.490 . S
C904 H894 0.930 . S
C904 C903 1.400 . S
C904 C907 1.386 . S
H905 C921 0.930 . S
H906 C922 0.931 . S
C907 H895 0.929 . S
C907 C901 1.390 . S
C907 C904 1.386 . S
C908 C903 1.490 . S
C908 C910 1.395 . S
C908 C911 1.403 . S
H909 C915 0.930 . S
C910 H896 0.930 . S
C910 C908 1.395 . S
C910 C913 1.403 . S
C911 C908 1.403 . S
C911 C912 1.524 . S
C911 C915 1.400 . S
C912 H897 0.960 . S
C912 H898 0.960 . S
C912 H899 0.960 . S
C912 C911 1.524 . S
C913 C910 1.403 . S
C913 C914 1.392 . S
C913 C917 1.495 . S
C914 C913 1.392 . S
C914 C915 1.385 . S
C914 C916 1.478 . S
C915 H909 0.930 . S
C915 C911 1.400 . S
C915 C914 1.385 . S
C916 C914 1.478 . S
C916 C918 1.381 . S
C916 C922 1.383 . S
C917 C913 1.495 . S
C917 H923 0.959 . S
C917 H924 0.961 . S
C917 H925 0.960 . S
C918 C916 1.381 . S
C918 C919 1.394 . S
C918 H926 0.930 . S
C919 C918 1.394 . S
C919 C920 1.383 . S
C919 H927 0.929 . S
C920 C919 1.383 . S
C920 C921 1.377 . S
C921 H905 0.930 . S
C921 C920 1.377 . S
C921 C922 1.379 . S
C922 H906 0.931 . S
C922 C916 1.383 . S
C922 C921 1.379 . S
H923 C917 0.959 . S
H924 C917 0.961 . S
H925 C917 0.960 . S
H926 C918 0.930 . S
H927 C919 0.929 . S
H928 C936 0.929 . S
H929 C938 0.930 . S
H930 C940 0.930 . S
H931 C943 0.929 . S
H932 C946 0.930 . S
H933 C948 0.960 . S
H934 C948 0.960 . S
H935 C948 0.960 . S
C936 H928 0.929 . S
C936 C937 1.377 . S
C936 C938 1.384 . S
C937 C936 1.377 . S
C937 C943 1.390 . S
C938 H929 0.930 . S
C938 C936 1.384 . S
C938 C939 1.372 . S
C939 C938 1.372 . S
C939 C940 1.400 . S
C939 C944 1.490 . S
C940 H930 0.930 . S
C940 C939 1.400 . S
C940 C943 1.386 . S
H941 C957 0.930 . S
H942 C958 0.931 . S
C943 H931 0.929 . S
C943 C937 1.390 . S
C943 C940 1.386 . S
C944 C939 1.490 . S
C944 C946 1.395 . S
C944 C947 1.403 . S
H945 C951 0.930 . S
C946 H932 0.930 . S
C946 C944 1.395 . S
C946 C949 1.403 . S
C947 C944 1.403 . S
C947 C948 1.524 . S
C947 C951 1.400 . S
C948 H933 0.960 . S
C948 H934 0.960 . S
C948 H935 0.960 . S
C948 C947 1.524 . S
C949 C946 1.403 . S
C949 C950 1.392 . S
C949 C953 1.495 . S
C950 C949 1.392 . S
C950 C951 1.385 . S
C950 C952 1.478 . S
C951 H945 0.930 . S
C951 C947 1.400 . S
C951 C950 1.385 . S
C952 C950 1.478 . S
C952 C954 1.381 . S
C952 C958 1.383 . S
C953 C949 1.495 . S
C953 H959 0.959 . S
C953 H960 0.961 . S
C953 H961 0.960 . S
C954 C952 1.381 . S
C954 C955 1.394 . S
C954 H962 0.930 . S
C955 C954 1.394 . S
C955 C956 1.383 . S
C955 H963 0.929 . S
C956 C955 1.383 . S
C956 C957 1.377 . S
C957 H941 0.930 . S
C957 C956 1.377 . S
C957 C958 1.379 . S
C958 H942 0.931 . S
C958 C952 1.383 . S
C958 C957 1.379 . S
H959 C953 0.959 . S
H960 C953 0.961 . S
H961 C953 0.960 . S
H962 C954 0.930 . S
H963 C955 0.929 . S
H964 C972 0.929 . S
H965 C974 0.930 . S
H966 C976 0.930 . S
H967 C979 0.929 . S
H968 C982 0.930 . S
H969 C984 0.960 . S
H970 C984 0.960 . S
H971 C984 0.960 . S
C972 H964 0.929 . S
C972 C973 1.377 . S
C972 C974 1.384 . S
C973 C972 1.377 . S
C973 C979 1.390 . S
C974 H965 0.930 . S
C974 C972 1.384 . S
C974 C975 1.372 . S
C975 C974 1.372 . S
C975 C976 1.400 . S
C975 C980 1.490 . S
C976 H966 0.930 . S
C976 C975 1.400 . S
C976 C979 1.386 . S
H977 C993 0.930 . S
H978 C994 0.931 . S
C979 H967 0.929 . S
C979 C973 1.390 . S
C979 C976 1.386 . S
C980 C975 1.490 . S
C980 C982 1.395 . S
C980 C983 1.403 . S
H981 C987 0.930 . S
C982 H968 0.930 . S
C982 C980 1.395 . S
C982 C985 1.403 . S
C983 C980 1.403 . S
C983 C984 1.524 . S
C983 C987 1.400 . S
C984 H969 0.960 . S
C984 H970 0.960 . S
C984 H971 0.960 . S
C984 C983 1.524 . S
C985 C982 1.403 . S
C985 C986 1.392 . S
C985 C989 1.495 . S
C986 C985 1.392 . S
C986 C987 1.385 . S
C986 C988 1.478 . S
C987 H981 0.930 . S
C987 C983 1.400 . S
C987 C986 1.385 . S
C988 C986 1.478 . S
C988 C990 1.381 . S
C988 C994 1.383 . S
C989 C985 1.495 . S
C989 H995 0.959 . S
C989 H996 0.961 . S
C989 H997 0.960 . S
C990 C988 1.381 . S
C990 C991 1.394 . S
C990 H998 0.930 . S
C991 C990 1.394 . S
C991 C992 1.383 . S
C991 H999 0.929 . S
C992 C991 1.383 . S
C992 C993 1.377 . S
C993 H977 0.930 . S
C993 C992 1.377 . S
C993 C994 1.379 . S
C994 H978 0.931 . S
C994 C988 1.383 . S
C994 C993 1.379 . S
H995 C989 0.959 . S
H996 C989 0.961 . S
H997 C989 0.960 . S
H998 C990 0.930 . S
H999 C991 0.929 . S
H1000 C1008 0.929 . S
H1001 C1010 0.930 . S
H1002 C1012 0.930 . S
H1003 C1015 0.929 . S
H1004 C1018 0.930 . S
H1005 C1020 0.960 . S
H1006 C1020 0.960 . S
H1007 C1020 0.960 . S
C1008 H1000 0.929 . S
C1008 C1009 1.377 . S
C1008 C1010 1.384 . S
C1009 C1008 1.377 . S
C1009 C1015 1.390 . S
C1010 H1001 0.930 . S
C1010 C1008 1.384 . S
C1010 C1011 1.372 . S
C1011 C1010 1.372 . S
C1011 C1012 1.400 . S
C1011 C1016 1.490 . S
C1012 H1002 0.930 . S
C1012 C1011 1.400 . S
C1012 C1015 1.386 . S
H1013 C1029 0.930 . S
H1014 C1030 0.931 . S
C1015 H1003 0.929 . S
C1015 C1009 1.390 . S
C1015 C1012 1.386 . S
C1016 C1011 1.490 . S
C1016 C1018 1.395 . S
C1016 C1019 1.403 . S
H1017 C1023 0.930 . S
C1018 H1004 0.930 . S
C1018 C1016 1.395 . S
C1018 C1021 1.403 . S
C1019 C1016 1.403 . S
C1019 C1020 1.524 . S
C1019 C1023 1.400 . S
C1020 H1005 0.960 . S
C1020 H1006 0.960 . S
C1020 H1007 0.960 . S
C1020 C1019 1.524 . S
C1021 C1018 1.403 . S
C1021 C1022 1.392 . S
C1021 C1025 1.495 . S
C1022 C1021 1.392 . S
C1022 C1023 1.385 . S
C1022 C1024 1.478 . S
C1023 H1017 0.930 . S
C1023 C1019 1.400 . S
C1023 C1022 1.385 . S
C1024 C1022 1.478 . S
C1024 C1026 1.381 . S
C1024 C1030 1.383 . S
C1025 C1021 1.495 . S
C1025 H1031 0.959 . S
C1025 H1032 0.961 . S
C1025 H1033 0.960 . S
C1026 C1024 1.381 . S
C1026 C1027 1.394 . S
C1026 H1034 0.930 . S
C1027 C1026 1.394 . S
C1027 C1028 1.383 . S
C1027 H1035 0.929 . S
C1028 C1027 1.383 . S
C1028 C1029 1.377 . S
C1029 H1013 0.930 . S
C1029 C1028 1.377 . S
C1029 C1030 1.379 . S
C1030 H1014 0.931 . S
C1030 C1024 1.383 . S
C1030 C1029 1.379 . S
H1031 C1025 0.959 . S
H1032 C1025 0.961 . S
H1033 C1025 0.960 . S
H1034 C1026 0.930 . S
H1035 C1027 0.929 . S
H1036 C1044 0.929 . S
H1037 C1046 0.930 . S
H1038 C1048 0.930 . S
H1039 C1051 0.929 . S
H1040 C1054 0.930 . S
H1041 C1056 0.960 . S
H1042 C1056 0.960 . S
H1043 C1056 0.960 . S
C1044 H1036 0.929 . S
C1044 C1045 1.377 . S
C1044 C1046 1.384 . S
C1045 C1044 1.377 . S
C1045 C1051 1.390 . S
C1046 H1037 0.930 . S
C1046 C1044 1.384 . S
C1046 C1047 1.372 . S
C1047 C1046 1.372 . S
C1047 C1048 1.400 . S
C1047 C1052 1.490 . S
C1048 H1038 0.930 . S
C1048 C1047 1.400 . S
C1048 C1051 1.386 . S
H1049 C1065 0.930 . S
H1050 C1066 0.931 . S
C1051 H1039 0.929 . S
C1051 C1045 1.390 . S
C1051 C1048 1.386 . S
C1052 C1047 1.490 . S
C1052 C1054 1.395 . S
C1052 C1055 1.403 . S
H1053 C1059 0.930 . S
C1054 H1040 0.930 . S
C1054 C1052 1.395 . S
C1054 C1057 1.403 . S
C1055 C1052 1.403 . S
C1055 C1056 1.524 . S
C1055 C1059 1.400 . S
C1056 H1041 0.960 . S
C1056 H1042 0.960 . S
C1056 H1043 0.960 . S
C1056 C1055 1.524 . S
C1057 C1054 1.403 . S
C1057 C1058 1.392 . S
C1057 C1061 1.495 . S
C1058 C1057 1.392 . S
C1058 C1059 1.385 . S
C1058 C1060 1.478 . S
C1059 H1053 0.930 . S
C1059 C1055 1.400 . S
C1059 C1058 1.385 . S
C1060 C1058 1.478 . S
C1060 C1062 1.381 . S
C1060 C1066 1.383 . S
C1061 C1057 1.495 . S
C1061 H1067 0.959 . S
C1061 H1068 0.961 . S
C1061 H1069 0.960 . S
C1062 C1060 1.381 . S
C1062 C1063 1.394 . S
C1062 H1070 0.930 . S
C1063 C1062 1.394 . S
C1063 C1064 1.383 . S
C1063 H1071 0.929 . S
C1064 C1063 1.383 . S
C1064 C1065 1.377 . S
C1065 H1049 0.930 . S
C1065 C1064 1.377 . S
C1065 C1066 1.379 . S
C1066 H1050 0.931 . S
C1066 C1060 1.383 . S
C1066 C1065 1.379 . S
H1067 C1061 0.959 . S
H1068 C1061 0.961 . S
H1069 C1061 0.960 . S
H1070 C1062 0.930 . S
H1071 C1063 0.929 . S
H1072 C1080 0.929 . S
H1073 C1082 0.930 . S
H1074 C1084 0.930 . S
H1075 C1087 0.929 . S
H1076 C1090 0.930 . S
H1077 C1092 0.960 . S
H1078 C1092 0.960 . S
H1079 C1092 0.960 . S
C1080 H1072 0.929 . S
C1080 C1081 1.377 . S
C1080 C1082 1.384 . S
C1081 C1080 1.377 . S
C1081 C1087 1.390 . S
C1082 H1073 0.930 . S
C1082 C1080 1.384 . S
C1082 C1083 1.372 . S
C1083 C1082 1.372 . S
C1083 C1084 1.400 . S
C1083 C1088 1.490 . S
C1084 H1074 0.930 . S
C1084 C1083 1.400 . S
C1084 C1087 1.386 . S
H1085 C1101 0.930 . S
H1086 C1102 0.931 . S
C1087 H1075 0.929 . S
C1087 C1081 1.390 . S
C1087 C1084 1.386 . S
C1088 C1083 1.490 . S
C1088 C1090 1.395 . S
C1088 C1091 1.403 . S
H1089 C1095 0.930 . S
C1090 H1076 0.930 . S
C1090 C1088 1.395 . S
C1090 C1093 1.403 . S
C1091 C1088 1.403 . S
C1091 C1092 1.524 . S
C1091 C1095 1.400 . S
C1092 H1077 0.960 . S
C1092 H1078 0.960 . S
C1092 H1079 0.960 . S
C1092 C1091 1.524 . S
C1093 C1090 1.403 . S
C1093 C1094 1.392 . S
C1093 C1097 1.495 . S
C1094 C1093 1.392 . S
C1094 C1095 1.385 . S
C1094 C1096 1.478 . S
C1095 H1089 0.930 . S
C1095 C1091 1.400 . S
C1095 C1094 1.385 . S
C1096 C1094 1.478 . S
C1096 C1098 1.381 . S
C1096 C1102 1.383 . S
C1097 C1093 1.495 . S
C1097 H1103 0.959 . S
C1097 H1104 0.961 . S
C1097 H1105 0.960 . S
C1098 C1096 1.381 . S
C1098 C1099 1.394 . S
C1098 H1106 0.930 . S
C1099 C1098 1.394 . S
C1099 C1100 1.383 . S
C1099 H1107 0.929 . S
C1100 C1099 1.383 . S
C1100 C1101 1.377 . S
C1101 H1085 0.930 . S
C1101 C1100 1.377 . S
C1101 C1102 1.379 . S
C1102 H1086 0.931 . S
C1102 C1096 1.383 . S
C1102 C1101 1.379 . S
H1103 C1097 0.959 . S
H1104 C1097 0.961 . S
H1105 C1097 0.960 . S
H1106 C1098 0.930 . S
H1107 C1099 0.929 . S
H1108 C1116 0.929 . S
H1109 C1118 0.930 . S
H1110 C1120 0.930 . S
H1111 C1123 0.929 . S
H1112 C1126 0.930 . S
H1113 C1128 0.960 . S
H1114 C1128 0.960 . S
H1115 C1128 0.960 . S
C1116 H1108 0.929 . S
C1116 C1117 1.377 . S
C1116 C1118 1.384 . S
C1117 C1116 1.377 . S
C1117 C1123 1.390 . S
C1118 H1109 0.930 . S
C1118 C1116 1.384 . S
C1118 C1119 1.372 . S
C1119 C1118 1.372 . S
C1119 C1120 1.400 . S
C1119 C1124 1.490 . S
C1120 H1110 0.930 . S
C1120 C1119 1.400 . S
C1120 C1123 1.386 . S
H1121 C1137 0.930 . S
H1122 C1138 0.931 . S
C1123 H1111 0.929 . S
C1123 C1117 1.390 . S
C1123 C1120 1.386 . S
C1124 C1119 1.490 . S
C1124 C1126 1.395 . S
C1124 C1127 1.403 . S
H1125 C1131 0.930 . S
C1126 H1112 0.930 . S
C1126 C1124 1.395 . S
C1126 C1129 1.403 . S
C1127 C1124 1.403 . S
C1127 C1128 1.524 . S
C1127 C1131 1.400 . S
C1128 H1113 0.960 . S
C1128 H1114 0.960 . S
C1128 H1115 0.960 . S
C1128 C1127 1.524 . S
C1129 C1126 1.403 . S
C1129 C1130 1.392 . S
C1129 C1133 1.495 . S
C1130 C1129 1.392 . S
C1130 C1131 1.385 . S
C1130 C1132 1.478 . S
C1131 H1125 0.930 . S
C1131 C1127 1.400 . S
C1131 C1130 1.385 . S
C1132 C1130 1.478 . S
C1132 C1134 1.381 . S
C1132 C1138 1.383 . S
C1133 C1129 1.495 . S
C1133 H1139 0.959 . S
C1133 H1140 0.961 . S
C1133 H1141 0.960 . S
C1134 C1132 1.381 . S
C1134 C1135 1.394 . S
C1134 H1142 0.930 . S
C1135 C1134 1.394 . S
C1135 C1136 1.383 . S
C1135 H1143 0.929 . S
C1136 C1135 1.383 . S
C1136 C1137 1.377 . S
C1137 H1121 0.930 . S
C1137 C1136 1.377 . S
C1137 C1138 1.379 . S
C1138 H1122 0.931 . S
C1138 C1132 1.383 . S
C1138 C1137 1.379 . S
H1139 C1133 0.959 . S
H1140 C1133 0.961 . S
H1141 C1133 0.960 . S
H1142 C1134 0.930 . S
H1143 C1135 0.929 . S
H1144 C1152 0.929 . S
H1145 C1154 0.930 . S
H1146 C1156 0.930 . S
H1147 C1159 0.929 . S
H1148 C1162 0.930 . S
H1149 C1164 0.960 . S
H1150 C1164 0.960 . S
H1151 C1164 0.960 . S
C1152 H1144 0.929 . S
C1152 C1153 1.377 . S
C1152 C1154 1.384 . S
C1153 C1152 1.377 . S
C1153 C1159 1.390 . S
C1154 H1145 0.930 . S
C1154 C1152 1.384 . S
C1154 C1155 1.372 . S
C1155 C1154 1.372 . S
C1155 C1156 1.400 . S
C1155 C1160 1.490 . S
C1156 H1146 0.930 . S
C1156 C1155 1.400 . S
C1156 C1159 1.386 . S
H1157 C1173 0.930 . S
H1158 C1174 0.931 . S
C1159 H1147 0.929 . S
C1159 C1153 1.390 . S
C1159 C1156 1.386 . S
C1160 C1155 1.490 . S
C1160 C1162 1.395 . S
C1160 C1163 1.403 . S
H1161 C1167 0.930 . S
C1162 H1148 0.930 . S
C1162 C1160 1.395 . S
C1162 C1165 1.403 . S
C1163 C1160 1.403 . S
C1163 C1164 1.524 . S
C1163 C1167 1.400 . S
C1164 H1149 0.960 . S
C1164 H1150 0.960 . S
C1164 H1151 0.960 . S
C1164 C1163 1.524 . S
C1165 C1162 1.403 . S
C1165 C1166 1.392 . S
C1165 C1169 1.495 . S
C1166 C1165 1.392 . S
C1166 C1167 1.385 . S
C1166 C1168 1.478 . S
C1167 H1161 0.930 . S
C1167 C1163 1.400 . S
C1167 C1166 1.385 . S
C1168 C1166 1.478 . S
C1168 C1170 1.381 1_554 S
C1168 C1174 1.383 1_554 S
C1169 C1165 1.495 . S
C1169 H1175 0.959 . S
C1169 H1176 0.961 1_554 S
C1169 H1177 0.960 . S
C1170 C1168 1.381 1_556 S
C1170 C1171 1.394 . S
C1170 H1178 0.930 1_556 S
C1171 C1170 1.394 . S
C1171 C1172 1.383 . S
C1171 H1179 0.929 . S
C1172 C1171 1.383 . S
C1172 C1173 1.377 . S
C1173 H1157 0.930 . S
C1173 C1172 1.377 . S
C1173 C1174 1.379 . S
C1174 H1158 0.931 . S
C1174 C1168 1.383 1_556 S
C1174 C1173 1.379 . S
H1175 C1169 0.959 . S
H1176 C1169 0.961 1_556 S
H1177 C1169 0.960 . S
H1178 C1170 0.930 1_554 S
H1179 C1171 0.929 . S
H1180 C1188 0.929 . S
H1181 C1190 0.930 . S
H1182 C1192 0.930 . S
H1183 C1195 0.929 . S
H1184 C1198 0.930 . S
H1185 C1200 0.960 . S
H1186 C1200 0.960 . S
H1187 C1200 0.960 . S
C1188 H1180 0.929 . S
C1188 C1189 1.377 . S
C1188 C1190 1.384 . S
C1189 C1188 1.377 . S
C1189 C1195 1.390 . S
C1190 H1181 0.930 . S
C1190 C1188 1.384 . S
C1190 C1191 1.372 . S
C1191 C1190 1.372 . S
C1191 C1192 1.400 . S
C1191 C1196 1.490 . S
C1192 H1182 0.930 . S
C1192 C1191 1.400 . S
C1192 C1195 1.386 . S
H1193 C1209 0.930 1_554 S
H1194 C1210 0.931 . S
C1195 H1183 0.929 . S
C1195 C1189 1.390 . S
C1195 C1192 1.386 . S
C1196 C1191 1.490 . S
C1196 C1198 1.395 . S
C1196 C1199 1.403 . S
H1197 C1203 0.930 . S
C1198 H1184 0.930 . S
C1198 C1196 1.395 . S
C1198 C1201 1.403 . S
C1199 C1196 1.403 . S
C1199 C1200 1.524 . S
C1199 C1203 1.400 . S
C1200 H1185 0.960 . S
C1200 H1186 0.960 . S
C1200 H1187 0.960 . S
C1200 C1199 1.524 . S
C1201 C1198 1.403 . S
C1201 C1202 1.392 . S
C1201 C1205 1.495 . S
C1202 C1201 1.392 . S
C1202 C1203 1.385 . S
C1202 C1204 1.478 . S
C1203 H1197 0.930 . S
C1203 C1199 1.400 . S
C1203 C1202 1.385 . S
C1204 C1202 1.478 . S
C1204 C1206 1.381 . S
C1204 C1210 1.383 . S
C1205 C1201 1.495 . S
C1205 H1211 0.959 . S
C1205 H1212 0.961 . S
C1205 H1213 0.960 . S
C1206 C1204 1.381 . S
C1206 C1207 1.394 . S
C1206 H1214 0.930 . S
C1207 C1206 1.394 . S
C1207 C1208 1.383 1_556 S
C1207 H1215 0.929 . S
C1208 C1207 1.383 1_554 S
C1208 C1209 1.377 1_554 S
C1209 H1193 0.930 1_556 S
C1209 C1208 1.377 1_556 S
C1209 C1210 1.379 . S
C1210 H1194 0.931 . S
C1210 C1204 1.383 . S
C1210 C1209 1.379 . S
H1211 C1205 0.959 . S
H1212 C1205 0.961 . S
H1213 C1205 0.960 . S
H1214 C1206 0.930 . S
H1215 C1207 0.929 . S
H1216 C1224 0.929 . S
H1217 C1226 0.930 . S
H1218 C1228 0.930 . S
H1219 C1231 0.929 . S
H1220 C1234 0.930 . S
H1221 C1236 0.960 1_655 S
H1222 C1236 0.960 1_655 S
H1223 C1236 0.960 . S
C1224 H1216 0.929 . S
C1224 C1225 1.377 . S
C1224 C1226 1.384 . S
C1225 C1224 1.377 . S
C1225 C1231 1.390 . S
C1226 H1217 0.930 . S
C1226 C1224 1.384 . S
C1226 C1227 1.372 . S
C1227 C1226 1.372 . S
C1227 C1228 1.400 . S
C1227 C1232 1.490 . S
C1228 H1218 0.930 . S
C1228 C1227 1.400 . S
C1228 C1231 1.386 . S
H1229 C1245 0.930 . S
H1230 C1246 0.931 . S
C1231 H1219 0.929 . S
C1231 C1225 1.390 . S
C1231 C1228 1.386 . S
C1232 C1227 1.490 . S
C1232 C1234 1.395 . S
C1232 C1235 1.403 . S
H1233 C1239 0.930 . S
C1234 H1220 0.930 . S
C1234 C1232 1.395 . S
C1234 C1237 1.403 . S
C1235 C1232 1.403 . S
C1235 C1236 1.524 . S
C1235 C1239 1.400 . S
C1236 H1221 0.960 1_455 S
C1236 H1222 0.960 1_455 S
C1236 H1223 0.960 . S
C1236 C1235 1.524 . S
C1237 C1234 1.403 . S
C1237 C1238 1.392 . S
C1237 C1241 1.495 . S
C1238 C1237 1.392 . S
C1238 C1239 1.385 . S
C1238 C1240 1.478 . S
C1239 H1233 0.930 . S
C1239 C1235 1.400 . S
C1239 C1238 1.385 . S
C1240 C1238 1.478 . S
C1240 C1242 1.381 . S
C1240 C1246 1.383 . S
C1241 C1237 1.495 . S
C1241 H1247 0.959 . S
C1241 H1248 0.961 . S
C1241 H1249 0.960 . S
C1242 C1240 1.381 . S
C1242 C1243 1.394 . S
C1242 H1250 0.930 . S
C1243 C1242 1.394 . S
C1243 C1244 1.383 . S
C1243 H1251 0.929 . S
C1244 C1243 1.383 . S
C1244 C1245 1.377 . S
C1245 H1229 0.930 . S
C1245 C1244 1.377 . S
C1245 C1246 1.379 . S
C1246 H1230 0.931 . S
C1246 C1240 1.383 . S
C1246 C1245 1.379 . S
H1247 C1241 0.959 . S
H1248 C1241 0.961 . S
H1249 C1241 0.960 . S
H1250 C1242 0.930 . S
H1251 C1243 0.929 . S
H1252 C1260 0.929 . S
H1253 C1262 0.930 . S
H1254 C1264 0.930 . S
H1255 C1267 0.929 . S
H1256 C1270 0.930 1_655 S
H1257 C1272 0.936 1_455 S
H1258 C1272 0.960 . S
H1259 C1272 0.960 . S
C1260 H1252 0.929 . S
C1260 C1261 1.377 . S
C1260 C1262 1.384 . S
C1261 C1260 1.377 . S
C1261 C1267 1.390 . S
C1262 H1253 0.930 . S
C1262 C1260 1.384 . S
C1262 C1263 1.372 . S
C1263 C1262 1.372 . S
C1263 C1264 1.400 . S
C1263 C1268 1.490 . S
C1264 H1254 0.930 . S
C1264 C1263 1.400 . S
C1264 C1267 1.386 . S
H1265 C1281 0.930 . S
H1266 C1282 0.931 . S
C1267 H1255 0.929 . S
C1267 C1261 1.390 . S
C1267 C1264 1.386 . S
C1268 C1263 1.490 . S
C1268 C1270 1.395 1_655 S
C1268 C1271 1.403 1_655 S
H1269 C1275 0.930 . S
C1270 H1256 0.930 1_455 S
C1270 C1268 1.395 1_455 S
C1270 C1273 1.403 . S
C1271 C1268 1.403 1_455 S
C1271 C1272 1.524 1_455 S
C1271 C1275 1.400 . S
C1272 H1257 0.936 1_655 S
C1272 H1258 0.960 . S
C1272 H1259 0.960 . S
C1272 C1271 1.524 1_655 S
C1273 C1270 1.403 . S
C1273 C1274 1.392 . S
C1273 C1277 1.495 . S
C1274 C1273 1.392 . S
C1274 C1275 1.385 . S
C1274 C1276 1.478 . S
C1275 H1269 0.930 . S
C1275 C1271 1.400 . S
C1275 C1274 1.385 . S
C1276 C1274 1.478 . S
C1276 C1278 1.381 . S
C1276 C1282 1.383 . S
C1277 C1273 1.495 . S
C1277 H1283 0.959 . S
C1277 H1284 0.961 . S
C1277 H1285 0.960 . S
C1278 C1276 1.381 . S
C1278 C1279 1.394 . S
C1278 H1286 0.930 . S
C1279 C1278 1.394 . S
C1279 C1280 1.383 . S
C1279 H1287 0.929 . S
C1280 C1279 1.383 . S
C1280 C1281 1.377 . S
C1281 H1265 0.930 . S
C1281 C1280 1.377 . S
C1281 C1282 1.379 . S
C1282 H1266 0.931 . S
C1282 C1276 1.383 . S
C1282 C1281 1.379 . S
H1283 C1277 0.959 . S
H1284 C1277 0.961 . S
H1285 C1277 0.960 . S
H1286 C1278 0.930 . S
H1287 C1279 0.929 . S
H1288 C1296 0.929 . S
H1289 C1298 0.930 . S
H1290 C1300 0.930 . S
H1291 C1303 0.929 . S
H1292 C1306 0.930 . S
H1293 C1308 0.960 . S
H1294 C1308 0.960 . S
H1295 C1308 0.960 . S
C1296 H1288 0.929 . S
C1296 C1297 1.377 . S
C1296 C1298 1.384 . S
C1297 C1296 1.377 . S
C1297 C1303 1.390 . S
C1298 H1289 0.930 . S
C1298 C1296 1.384 . S
C1298 C1299 1.372 . S
C1299 C1298 1.372 . S
C1299 C1300 1.400 . S
C1299 C1304 1.490 . S
C1300 H1290 0.930 . S
C1300 C1299 1.400 . S
C1300 C1303 1.386 . S
H1301 C1317 0.930 . S
H1302 C1318 0.931 . S
C1303 H1291 0.929 . S
C1303 C1297 1.390 . S
C1303 C1300 1.386 . S
C1304 C1299 1.490 . S
C1304 C1306 1.395 . S
C1304 C1307 1.403 . S
H1305 C1311 0.930 . S
C1306 H1292 0.930 . S
C1306 C1304 1.395 . S
C1306 C1309 1.403 . S
C1307 C1304 1.403 . S
C1307 C1308 1.524 . S
C1307 C1311 1.400 . S
C1308 H1293 0.960 . S
C1308 H1294 0.960 . S
C1308 H1295 0.960 . S
C1308 C1307 1.524 . S
C1309 C1306 1.403 . S
C1309 C1310 1.392 . S
C1309 C1313 1.495 . S
C1310 C1309 1.392 . S
C1310 C1311 1.385 . S
C1310 C1312 1.478 . S
C1311 H1305 0.930 . S
C1311 C1307 1.400 . S
C1311 C1310 1.385 . S
C1312 C1310 1.478 . S
C1312 C1314 1.381 . S
C1312 C1318 1.383 . S
C1313 C1309 1.495 . S
C1313 H1319 0.959 . S
C1313 H1320 0.961 . S
C1313 H1321 0.960 . S
C1314 C1312 1.381 . S
C1314 C1315 1.394 . S
C1314 H1322 0.930 . S
C1315 C1314 1.394 . S
C1315 C1316 1.383 . S
C1315 H1323 0.929 . S
C1316 C1315 1.383 . S
C1316 C1317 1.377 . S
C1317 H1301 0.930 . S
C1317 C1316 1.377 . S
C1317 C1318 1.379 . S
C1318 H1302 0.931 . S
C1318 C1312 1.383 . S
C1318 C1317 1.379 . S
H1319 C1313 0.959 . S
H1320 C1313 0.961 . S
H1321 C1313 0.960 . S
H1322 C1314 0.930 . S
H1323 C1315 0.929 . S
H1324 C1332 0.929 . S
H1325 C1334 0.930 . S
H1326 C1336 0.930 . S
H1327 C1339 0.929 . S
H1328 C1342 0.930 . S
H1329 C1344 0.960 . S
H1330 C1344 0.960 . S
H1331 C1344 0.960 . S
C1332 H1324 0.929 . S
C1332 C1333 1.377 . S
C1332 C1334 1.384 . S
C1333 C1332 1.377 . S
C1333 C1339 1.390 . S
C1334 H1325 0.930 . S
C1334 C1332 1.384 . S
C1334 C1335 1.372 . S
C1335 C1334 1.372 . S
C1335 C1336 1.400 . S
C1335 C1340 1.490 . S
C1336 H1326 0.930 . S
C1336 C1335 1.400 . S
C1336 C1339 1.386 . S
H1337 C1353 0.930 . S
H1338 C1354 0.931 . S
C1339 H1327 0.929 . S
C1339 C1333 1.390 . S
C1339 C1336 1.386 . S
C1340 C1335 1.490 . S
C1340 C1342 1.395 . S
C1340 C1343 1.403 . S
H1341 C1347 0.930 . S
C1342 H1328 0.930 . S
C1342 C1340 1.395 . S
C1342 C1345 1.403 . S
C1343 C1340 1.403 . S
C1343 C1344 1.524 . S
C1343 C1347 1.400 . S
C1344 H1329 0.960 . S
C1344 H1330 0.960 . S
C1344 H1331 0.960 . S
C1344 C1343 1.524 . S
C1345 C1342 1.403 . S
C1345 C1346 1.392 . S
C1345 C1349 1.495 . S
C1346 C1345 1.392 . S
C1346 C1347 1.385 . S
C1346 C1348 1.478 . S
C1347 H1341 0.930 . S
C1347 C1343 1.400 . S
C1347 C1346 1.385 . S
C1348 C1346 1.478 . S
C1348 C1350 1.381 . S
C1348 C1354 1.383 . S
C1349 C1345 1.495 . S
C1349 H1355 0.959 . S
C1349 H1356 0.961 . S
C1349 H1357 0.960 . S
C1350 C1348 1.381 . S
C1350 C1351 1.394 . S
C1350 H1358 0.930 . S
C1351 C1350 1.394 . S
C1351 C1352 1.383 . S
C1351 H1359 0.929 . S
C1352 C1351 1.383 . S
C1352 C1353 1.377 . S
C1353 H1337 0.930 . S
C1353 C1352 1.377 . S
C1353 C1354 1.379 . S
C1354 H1338 0.931 . S
C1354 C1348 1.383 . S
C1354 C1353 1.379 . S
H1355 C1349 0.959 . S
H1356 C1349 0.961 . S
H1357 C1349 0.960 . S
H1358 C1350 0.930 . S
H1359 C1351 0.929 . S
H1360 C1368 0.929 . S
H1361 C1370 0.930 . S
H1362 C1372 0.930 . S
H1363 C1375 0.929 1_655 S
H1364 C1378 0.926 1_655 S
H1365 C1380 0.960 . S
H1366 C1380 0.960 . S
H1367 C1380 0.960 . S
C1368 H1360 0.929 . S
C1368 C1369 1.377 . S
C1368 C1370 1.384 . S
C1369 C1368 1.377 . S
C1369 C1375 1.390 . S
C1370 H1361 0.930 . S
C1370 C1368 1.384 . S
C1370 C1371 1.372 . S
C1371 C1370 1.372 . S
C1371 C1372 1.400 . S
C1371 C1376 1.490 . S
C1372 H1362 0.930 . S
C1372 C1371 1.400 . S
C1372 C1375 1.386 . S
H1373 C1389 0.930 . S
H1374 C1390 0.931 . S
C1375 H1363 0.929 1_455 S
C1375 C1369 1.390 . S
C1375 C1372 1.386 . S
C1376 C1371 1.490 . S
C1376 C1378 1.398 . S
C1376 C1379 1.403 . S
H1377 C1383 0.930 . S
C1378 H1364 0.926 1_455 S
C1378 C1376 1.398 . S
C1378 C1381 1.404 . S
C1379 C1376 1.403 . S
C1379 C1380 1.524 . S
C1379 C1383 1.400 . S
C1380 H1365 0.960 . S
C1380 H1366 0.960 . S
C1380 H1367 0.960 . S
C1380 C1379 1.524 . S
C1381 C1378 1.404 . S
C1381 C1382 1.393 . S
C1381 C1385 1.495 1_455 S
C1382 C1381 1.393 . S
C1382 C1383 1.385 . S
C1382 C1384 1.478 . S
C1383 H1377 0.930 . S
C1383 C1379 1.400 . S
C1383 C1382 1.385 . S
C1384 C1382 1.478 . S
C1384 C1386 1.381 . S
C1384 C1390 1.383 . S
C1385 C1381 1.495 1_655 S
C1385 H1391 0.959 . S
C1385 H1392 0.961 . S
C1385 H1393 0.960 . S
C1386 C1384 1.381 . S
C1386 C1387 1.394 . S
C1386 H1394 0.930 . S
C1387 C1386 1.394 . S
C1387 C1388 1.383 . S
C1387 H1395 0.929 . S
C1388 C1387 1.383 . S
C1388 C1389 1.377 . S
C1389 H1373 0.930 . S
C1389 C1388 1.377 . S
C1389 C1390 1.379 . S
C1390 H1374 0.931 . S
C1390 C1384 1.383 . S
C1390 C1389 1.379 . S
H1391 C1385 0.959 . S
H1392 C1385 0.961 . S
H1393 C1385 0.960 . S
H1394 C1386 0.930 . S
H1395 C1387 0.929 . S
H1396 C1404 0.929 . S
H1397 C1406 0.930 . S
H1398 C1408 0.930 . S
H1399 C1411 0.929 . S
H1400 C1414 0.930 . S
H1401 C1416 0.960 . S
H1402 C1416 0.960 . S
H1403 C1416 0.960 . S
C1404 H1396 0.929 . S
C1404 C1405 1.377 . S
C1404 C1406 1.384 . S
C1405 C1404 1.377 . S
C1405 C1411 1.390 . S
C1406 H1397 0.930 . S
C1406 C1404 1.384 . S
C1406 C1407 1.372 . S
C1407 C1406 1.372 . S
C1407 C1408 1.400 . S
C1407 C1412 1.490 . S
C1408 H1398 0.930 . S
C1408 C1407 1.400 . S
C1408 C1411 1.386 . S
H1409 C1425 0.930 . S
H1410 C1426 0.931 . S
C1411 H1399 0.929 . S
C1411 C1405 1.390 . S
C1411 C1408 1.386 . S
C1412 C1407 1.490 . S
C1412 C1414 1.395 . S
C1412 C1415 1.403 . S
H1413 C1419 0.930 . S
C1414 H1400 0.930 . S
C1414 C1412 1.395 . S
C1414 C1417 1.403 . S
C1415 C1412 1.403 . S
C1415 C1416 1.524 . S
C1415 C1419 1.400 . S
C1416 H1401 0.960 . S
C1416 H1402 0.960 . S
C1416 H1403 0.960 . S
C1416 C1415 1.524 . S
C1417 C1414 1.403 . S
C1417 C1418 1.392 . S
C1417 C1421 1.495 . S
C1418 C1417 1.392 . S
C1418 C1419 1.385 . S
C1418 C1420 1.478 . S
C1419 H1413 0.930 . S
C1419 C1415 1.400 . S
C1419 C1418 1.385 . S
C1420 C1418 1.478 . S
C1420 C1422 1.381 . S
C1420 C1426 1.383 . S
C1421 C1417 1.495 . S
C1421 H1427 0.959 . S
C1421 H1428 0.961 . S
C1421 H1429 0.960 . S
C1422 C1420 1.381 . S
C1422 C1423 1.394 . S
C1422 H1430 0.930 . S
C1423 C1422 1.394 . S
C1423 C1424 1.383 . S
C1423 H1431 0.929 . S
C1424 C1423 1.383 . S
C1424 C1425 1.377 . S
C1425 H1409 0.930 . S
C1425 C1424 1.377 . S
C1425 C1426 1.379 . S
C1426 H1410 0.931 . S
C1426 C1420 1.383 . S
C1426 C1425 1.379 . S
H1427 C1421 0.959 . S
H1428 C1421 0.961 . S
H1429 C1421 0.960 . S
H1430 C1422 0.930 . S
H1431 C1423 0.929 . S
H1432 C1440 0.929 . S
H1433 C1442 0.930 . S
H1434 C1444 0.930 . S
H1435 C1447 0.929 . S
H1436 C1450 0.930 . S
H1437 C1452 0.960 . S
H1438 C1452 0.960 . S
H1439 C1452 0.960 . S
C1440 H1432 0.929 . S
C1440 C1441 1.377 . S
C1440 C1442 1.384 . S
C1441 C1440 1.377 . S
C1441 C1447 1.390 . S
C1442 H1433 0.930 . S
C1442 C1440 1.384 . S
C1442 C1443 1.372 . S
C1443 C1442 1.372 . S
C1443 C1444 1.400 . S
C1443 C1448 1.490 . S
C1444 H1434 0.930 . S
C1444 C1443 1.400 . S
C1444 C1447 1.386 . S
H1445 C1461 0.930 . S
H1446 C1462 0.931 . S
C1447 H1435 0.929 . S
C1447 C1441 1.390 . S
C1447 C1444 1.386 . S
C1448 C1443 1.490 . S
C1448 C1450 1.395 . S
C1448 C1451 1.403 . S
H1449 C1455 0.930 . S
C1450 H1436 0.930 . S
C1450 C1448 1.395 . S
C1450 C1453 1.403 . S
C1451 C1448 1.403 . S
C1451 C1452 1.524 . S
C1451 C1455 1.400 . S
C1452 H1437 0.960 . S
C1452 H1438 0.960 . S
C1452 H1439 0.960 . S
C1452 C1451 1.524 . S
C1453 C1450 1.403 . S
C1453 C1454 1.392 . S
C1453 C1457 1.495 . S
C1454 C1453 1.392 . S
C1454 C1455 1.385 . S
C1454 C1456 1.478 . S
C1455 H1449 0.930 . S
C1455 C1451 1.400 . S
C1455 C1454 1.385 . S
C1456 C1454 1.478 . S
C1456 C1458 1.381 . S
C1456 C1462 1.383 . S
C1457 C1453 1.495 . S
C1457 H1463 0.959 . S
C1457 H1464 0.961 . S
C1457 H1465 0.960 . S
C1458 C1456 1.381 . S
C1458 C1459 1.394 . S
C1458 H1466 0.930 . S
C1459 C1458 1.394 . S
C1459 C1460 1.383 . S
C1459 H1467 0.929 . S
C1460 C1459 1.383 . S
C1460 C1461 1.377 . S
C1461 H1445 0.930 . S
C1461 C1460 1.377 . S
C1461 C1462 1.379 . S
C1462 H1446 0.931 . S
C1462 C1456 1.383 . S
C1462 C1461 1.379 . S
H1463 C1457 0.959 . S
H1464 C1457 0.961 . S
H1465 C1457 0.960 . S
H1466 C1458 0.930 . S
H1467 C1459 0.929 . S
H1468 C1476 0.929 . S
H1469 C1478 0.930 . S
H1470 C1480 0.930 . S
H1471 C1483 0.929 . S
H1472 C1486 0.930 . S
H1473 C1488 0.960 . S
H1474 C1488 0.960 . S
H1475 C1488 0.960 . S
C1476 H1468 0.929 . S
C1476 C1477 1.377 . S
C1476 C1478 1.384 . S
C1477 C1476 1.377 . S
C1477 C1483 1.390 . S
C1478 H1469 0.930 . S
C1478 C1476 1.384 . S
C1478 C1479 1.372 . S
C1479 C1478 1.372 . S
C1479 C1480 1.400 . S
C1479 C1484 1.490 . S
C1480 H1470 0.930 . S
C1480 C1479 1.400 . S
C1480 C1483 1.386 . S
H1481 C1497 0.930 . S
H1482 C1498 0.931 . S
C1483 H1471 0.929 . S
C1483 C1477 1.390 . S
C1483 C1480 1.386 . S
C1484 C1479 1.490 . S
C1484 C1486 1.395 . S
C1484 C1487 1.403 . S
H1485 C1491 0.903 1_655 S
C1486 H1472 0.930 . S
C1486 C1484 1.395 . S
C1486 C1489 1.403 . S
C1487 C1484 1.403 . S
C1487 C1488 1.524 . S
C1487 C1491 1.429 . S
C1488 H1473 0.960 . S
C1488 H1474 0.960 . S
C1488 H1475 0.960 . S
C1488 C1487 1.524 . S
C1489 C1486 1.403 . S
C1489 C1490 1.423 . S
C1489 C1493 1.495 . S
C1490 C1489 1.423 . S
C1490 C1491 1.385 . S
C1490 C1492 1.444 1_455 S
C1491 H1485 0.903 1_455 S
C1491 C1487 1.429 . S
C1491 C1490 1.385 . S
C1492 C1490 1.444 1_655 S
C1492 C1494 1.381 . S
C1492 C1498 1.383 . S
C1493 C1489 1.495 . S
C1493 H1499 0.959 . S
C1493 H1500 0.961 . S
C1493 H1501 0.960 . S
C1494 C1492 1.381 . S
C1494 C1495 1.394 . S
C1494 H1502 0.930 . S
C1495 C1494 1.394 . S
C1495 C1496 1.383 . S
C1495 H1503 0.929 . S
C1496 C1495 1.383 . S
C1496 C1497 1.377 . S
C1497 H1481 0.930 . S
C1497 C1496 1.377 . S
C1497 C1498 1.379 . S
C1498 H1482 0.931 . S
C1498 C1492 1.383 . S
C1498 C1497 1.379 . S
H1499 C1493 0.959 . S
H1500 C1493 0.961 . S
H1501 C1493 0.960 . S
H1502 C1494 0.930 . S
H1503 C1495 0.929 . S
H1504 C1512 0.929 . S
H1505 C1514 0.930 . S
H1506 C1516 0.930 1_655 S
H1507 C1519 0.929 1_655 S
H1508 C1522 0.931 . S
H1509 C1524 0.960 1_556 S
H1510 C1524 0.960 1_556 S
H1511 C1524 0.960 . S
C1512 H1504 0.929 . S
C1512 C1513 1.377 . S
C1512 C1514 1.384 . S
C1513 C1512 1.377 . S
C1513 C1519 1.390 . S
C1514 H1505 0.930 . S
C1514 C1512 1.384 . S
C1514 C1515 1.372 . S
C1515 C1514 1.372 . S
C1515 C1516 1.400 . S
C1515 C1520 1.490 . S
C1516 H1506 0.930 1_455 S
C1516 C1515 1.400 . S
C1516 C1519 1.386 . S
H1517 C1533 0.930 . S
H1518 C1534 0.956 . S
C1519 H1507 0.929 1_455 S
C1519 C1513 1.390 . S
C1519 C1516 1.386 . S
C1520 C1515 1.490 . S
C1520 C1522 1.415 . S
C1520 C1523 1.403 . S
H1521 C1527 0.930 1_655 S
C1522 H1508 0.931 . S
C1522 C1520 1.415 . S
C1522 C1525 1.383 1_544 S
C1523 C1520 1.403 . S
C1523 C1524 1.524 1_455 S
C1523 C1527 1.400 1_544 S
C1524 H1509 0.960 1_554 S
C1524 H1510 0.960 1_554 S
C1524 H1511 0.960 . S
C1524 C1523 1.524 1_655 S
C1525 C1522 1.383 1_566 S
C1525 C1526 1.392 . S
C1525 C1529 1.495 . S
C1526 C1525 1.392 . S
C1526 C1527 1.385 . S
C1526 C1528 1.478 . S
C1527 H1521 0.930 1_455 S
C1527 C1523 1.400 1_566 S
C1527 C1526 1.385 . S
C1528 C1526 1.478 . S
C1528 C1530 1.381 . S
C1528 C1534 1.353 1_455 S
C1529 C1525 1.495 . S
C1529 H1535 0.959 1_556 S
C1529 H1536 0.962 1_556 S
C1529 H1537 0.960 . S
C1530 C1528 1.381 . S
C1530 C1531 1.394 . S
C1530 H1538 0.930 . S
C1531 C1530 1.394 . S
C1531 C1532 1.383 . S
C1531 H1539 0.929 . S
C1532 C1531 1.383 . S
C1532 C1533 1.377 1_455 S
C1533 H1517 0.930 . S
C1533 C1532 1.377 1_655 S
C1533 C1534 1.385 . S
C1534 H1518 0.956 . S
C1534 C1528 1.353 1_655 S
C1534 C1533 1.385 . S
H1535 C1529 0.959 1_554 S
H1536 C1529 0.962 1_554 S
H1537 C1529 0.960 . S
H1538 C1530 0.930 . S
H1539 C1531 0.929 . S
H1540 C1548 0.929 . S
H1541 C1550 0.930 . S
H1542 C1552 0.930 . S
H1543 C1555 0.929 . S
H1544 C1558 0.930 . S
H1545 C1560 0.960 . S
H1546 C1560 0.960 . S
H1547 C1560 0.960 . S
C1548 H1540 0.929 . S
C1548 C1549 1.377 . S
C1548 C1550 1.384 . S
C1549 C1548 1.377 . S
C1549 C1555 1.390 . S
C1550 H1541 0.930 . S
C1550 C1548 1.384 . S
C1550 C1551 1.372 . S
C1551 C1550 1.372 . S
C1551 C1552 1.400 . S
C1551 C1556 1.490 . S
C1552 H1542 0.930 . S
C1552 C1551 1.400 . S
C1552 C1555 1.386 . S
H1553 C1569 0.930 . S
H1554 C1570 0.931 . S
C1555 H1543 0.929 . S
C1555 C1549 1.390 . S
C1555 C1552 1.386 . S
C1556 C1551 1.490 . S
C1556 C1558 1.395 . S
C1556 C1559 1.403 . S
H1557 C1563 0.930 . S
C1558 H1544 0.930 . S
C1558 C1556 1.395 . S
C1558 C1561 1.403 . S
C1559 C1556 1.403 . S
C1559 C1560 1.524 . S
C1559 C1563 1.400 . S
C1560 H1545 0.960 . S
C1560 H1546 0.960 . S
C1560 H1547 0.960 . S
C1560 C1559 1.524 . S
C1561 C1558 1.403 . S
C1561 C1562 1.392 . S
C1561 C1565 1.495 . S
C1562 C1561 1.392 . S
C1562 C1563 1.385 . S
C1562 C1564 1.478 . S
C1563 H1557 0.930 . S
C1563 C1559 1.400 . S
C1563 C1562 1.385 . S
C1564 C1562 1.478 . S
C1564 C1566 1.381 . S
C1564 C1570 1.383 . S
C1565 C1561 1.495 . S
C1565 H1571 0.959 . S
C1565 H1572 0.961 . S
C1565 H1573 0.960 . S
C1566 C1564 1.381 . S
C1566 C1567 1.394 . S
C1566 H1574 0.930 . S
C1567 C1566 1.394 . S
C1567 C1568 1.383 . S
C1567 H1575 0.929 . S
C1568 C1567 1.383 . S
C1568 C1569 1.377 . S
C1569 H1553 0.930 . S
C1569 C1568 1.377 . S
C1569 C1570 1.379 . S
C1570 H1554 0.931 . S
C1570 C1564 1.383 . S
C1570 C1569 1.379 . S
H1571 C1565 0.959 . S
H1572 C1565 0.961 . S
H1573 C1565 0.960 . S
H1574 C1566 0.930 . S
H1575 C1567 0.929 . S
H1576 C1584 0.929 . S
H1577 C1586 0.930 . S
H1578 C1588 0.930 . S
H1579 C1591 0.929 . S
H1580 C1594 0.931 . S
H1581 C1596 0.960 . S
H1582 C1596 0.960 . S
H1583 C1596 0.960 . S
C1584 H1576 0.929 . S
C1584 C1585 1.377 . S
C1584 C1586 1.384 . S
C1585 C1584 1.377 . S
C1585 C1591 1.390 . S
C1586 H1577 0.930 . S
C1586 C1584 1.384 . S
C1586 C1587 1.372 . S
C1587 C1586 1.372 . S
C1587 C1588 1.400 . S
C1587 C1592 1.490 . S
C1588 H1578 0.930 . S
C1588 C1587 1.400 . S
C1588 C1591 1.386 . S
H1589 C1605 0.930 . S
H1590 C1606 0.931 . S
C1591 H1579 0.929 . S
C1591 C1585 1.390 . S
C1591 C1588 1.386 . S
C1592 C1587 1.490 . S
C1592 C1594 1.380 1_545 S
C1592 C1595 1.403 . S
H1593 C1599 0.930 . S
C1594 H1580 0.931 . S
C1594 C1592 1.380 1_565 S
C1594 C1597 1.418 . S
C1595 C1592 1.403 . S
C1595 C1596 1.524 . S
C1595 C1599 1.400 . S
C1596 H1581 0.960 . S
C1596 H1582 0.960 . S
C1596 H1583 0.960 . S
C1596 C1595 1.524 . S
C1597 C1594 1.418 . S
C1597 C1598 1.392 . S
C1597 C1601 1.495 . S
C1598 C1597 1.392 . S
C1598 C1599 1.385 1_565 S
C1598 C1600 1.478 . S
C1599 H1593 0.930 . S
C1599 C1595 1.400 . S
C1599 C1598 1.385 1_545 S
C1600 C1598 1.478 . S
C1600 C1602 1.381 . S
C1600 C1606 1.383 . S
C1601 C1597 1.495 . S
C1601 H1607 0.959 . S
C1601 H1608 0.961 . S
C1601 H1609 0.960 . S
C1602 C1600 1.381 . S
C1602 C1603 1.394 . S
C1602 H1610 0.930 . S
C1603 C1602 1.394 . S
C1603 C1604 1.383 . S
C1603 H1611 0.929 . S
C1604 C1603 1.383 . S
C1604 C1605 1.377 . S
C1605 H1589 0.930 . S
C1605 C1604 1.377 . S
C1605 C1606 1.379 . S
C1606 H1590 0.931 . S
C1606 C1600 1.383 . S
C1606 C1605 1.379 . S
H1607 C1601 0.959 . S
H1608 C1601 0.961 . S
H1609 C1601 0.960 . S
H1610 C1602 0.930 . S
H1611 C1603 0.929 . S
H1612 C1620 0.929 . S
H1613 C1622 0.930 . S
H1614 C1624 0.930 . S
H1615 C1627 0.929 . S
H1616 C1630 0.930 . S
H1617 C1632 0.960 . S
H1618 C1632 0.960 . S
H1619 C1632 0.960 . S
C1620 H1612 0.929 . S
C1620 C1621 1.377 . S
C1620 C1622 1.384 . S
C1621 C1620 1.377 . S
C1621 C1627 1.390 . S
C1622 H1613 0.930 . S
C1622 C1620 1.384 . S
C1622 C1623 1.372 . S
C1623 C1622 1.372 . S
C1623 C1624 1.400 . S
C1623 C1628 1.490 . S
C1624 H1614 0.930 . S
C1624 C1623 1.400 . S
C1624 C1627 1.386 . S
H1625 C1641 0.930 . S
H1626 C1642 0.931 . S
C1627 H1615 0.929 . S
C1627 C1621 1.390 . S
C1627 C1624 1.386 . S
C1628 C1623 1.490 . S
C1628 C1630 1.395 . S
C1628 C1631 1.403 . S
H1629 C1635 0.930 . S
C1630 H1616 0.930 . S
C1630 C1628 1.395 . S
C1630 C1633 1.403 . S
C1631 C1628 1.403 . S
C1631 C1632 1.524 . S
C1631 C1635 1.400 . S
C1632 H1617 0.960 . S
C1632 H1618 0.960 . S
C1632 H1619 0.960 . S
C1632 C1631 1.524 . S
C1633 C1630 1.403 . S
C1633 C1634 1.392 . S
C1633 C1637 1.495 . S
C1634 C1633 1.392 . S
C1634 C1635 1.385 . S
C1634 C1636 1.478 . S
C1635 H1629 0.930 . S
C1635 C1631 1.400 . S
C1635 C1634 1.385 . S
C1636 C1634 1.478 . S
C1636 C1638 1.381 . S
C1636 C1642 1.383 . S
C1637 C1633 1.495 . S
C1637 H1643 0.959 . S
C1637 H1644 0.961 . S
C1637 H1645 0.960 . S
C1638 C1636 1.381 . S
C1638 C1639 1.394 . S
C1638 H1646 0.930 . S
C1639 C1638 1.394 . S
C1639 C1640 1.383 . S
C1639 H1647 0.929 . S
C1640 C1639 1.383 . S
C1640 C1641 1.377 . S
C1641 H1625 0.930 . S
C1641 C1640 1.377 . S
C1641 C1642 1.379 . S
C1642 H1626 0.931 . S
C1642 C1636 1.383 . S
C1642 C1641 1.379 . S
H1643 C1637 0.959 . S
H1644 C1637 0.961 . S
H1645 C1637 0.960 . S
H1646 C1638 0.930 . S
H1647 C1639 0.929 . S
H1648 C1656 0.929 . S
H1649 C1658 0.930 . S
H1650 C1660 0.930 . S
H1651 C1663 0.929 . S
H1652 C1666 0.930 . S
H1653 C1668 0.960 . S
H1654 C1668 0.960 . S
H1655 C1668 0.960 . S
C1656 H1648 0.929 . S
C1656 C1657 1.377 . S
C1656 C1658 1.384 . S
C1657 C1656 1.377 . S
C1657 C1663 1.390 . S
C1658 H1649 0.930 . S
C1658 C1656 1.384 . S
C1658 C1659 1.372 . S
C1659 C1658 1.372 . S
C1659 C1660 1.400 . S
C1659 C1664 1.490 . S
C1660 H1650 0.930 . S
C1660 C1659 1.400 . S
C1660 C1663 1.386 . S
H1661 C1677 0.930 . S
H1662 C1678 0.931 . S
C1663 H1651 0.929 . S
C1663 C1657 1.390 . S
C1663 C1660 1.386 . S
C1664 C1659 1.490 . S
C1664 C1666 1.395 . S
C1664 C1667 1.403 . S
H1665 C1671 0.930 . S
C1666 H1652 0.930 . S
C1666 C1664 1.395 . S
C1666 C1669 1.403 . S
C1667 C1664 1.403 . S
C1667 C1668 1.524 . S
C1667 C1671 1.400 . S
C1668 H1653 0.960 . S
C1668 H1654 0.960 . S
C1668 H1655 0.960 . S
C1668 C1667 1.524 . S
C1669 C1666 1.403 . S
C1669 C1670 1.392 . S
C1669 C1673 1.495 . S
C1670 C1669 1.392 . S
C1670 C1671 1.385 . S
C1670 C1672 1.478 . S
C1671 H1665 0.930 . S
C1671 C1667 1.400 . S
C1671 C1670 1.385 . S
C1672 C1670 1.478 . S
C1672 C1674 1.381 . S
C1672 C1678 1.383 . S
C1673 C1669 1.495 . S
C1673 H1679 0.959 . S
C1673 H1680 0.961 . S
C1673 H1681 0.960 . S
C1674 C1672 1.381 . S
C1674 C1675 1.394 . S
C1674 H1682 0.930 . S
C1675 C1674 1.394 . S
C1675 C1676 1.383 . S
C1675 H1683 0.929 . S
C1676 C1675 1.383 . S
C1676 C1677 1.377 . S
C1677 H1661 0.930 . S
C1677 C1676 1.377 . S
C1677 C1678 1.379 . S
C1678 H1662 0.931 . S
C1678 C1672 1.383 . S
C1678 C1677 1.379 . S
H1679 C1673 0.959 . S
H1680 C1673 0.961 . S
H1681 C1673 0.960 . S
H1682 C1674 0.930 . S
H1683 C1675 0.929 . S
H1684 C1692 0.929 . S
H1685 C1694 0.930 . S
H1686 C1696 0.930 . S
H1687 C1699 0.929 . S
H1688 C1702 0.930 . S
H1689 C1704 0.960 . S
H1690 C1704 0.960 . S
H1691 C1704 0.960 . S
C1692 H1684 0.929 . S
C1692 C1693 1.377 . S
C1692 C1694 1.384 . S
C1693 C1692 1.377 . S
C1693 C1699 1.390 . S
C1694 H1685 0.930 . S
C1694 C1692 1.384 . S
C1694 C1695 1.372 . S
C1695 C1694 1.372 . S
C1695 C1696 1.400 . S
C1695 C1700 1.490 . S
C1696 H1686 0.930 . S
C1696 C1695 1.400 . S
C1696 C1699 1.386 . S
H1697 C1713 0.930 . S
H1698 C1714 0.931 . S
C1699 H1687 0.929 . S
C1699 C1693 1.390 . S
C1699 C1696 1.386 . S
C1700 C1695 1.490 . S
C1700 C1702 1.395 . S
C1700 C1703 1.403 . S
H1701 C1707 0.930 . S
C1702 H1688 0.930 . S
C1702 C1700 1.395 . S
C1702 C1705 1.403 . S
C1703 C1700 1.403 . S
C1703 C1704 1.524 . S
C1703 C1707 1.400 . S
C1704 H1689 0.960 . S
C1704 H1690 0.960 . S
C1704 H1691 0.960 . S
C1704 C1703 1.524 . S
C1705 C1702 1.403 . S
C1705 C1706 1.392 . S
C1705 C1709 1.495 . S
C1706 C1705 1.392 . S
C1706 C1707 1.385 . S
C1706 C1708 1.478 . S
C1707 H1701 0.930 . S
C1707 C1703 1.400 . S
C1707 C1706 1.385 . S
C1708 C1706 1.478 . S
C1708 C1710 1.381 . S
C1708 C1714 1.383 . S
C1709 C1705 1.495 . S
C1709 H1715 0.959 . S
C1709 H1716 0.961 . S
C1709 H1717 0.960 . S
C1710 C1708 1.381 . S
C1710 C1711 1.394 . S
C1710 H1718 0.930 . S
C1711 C1710 1.394 . S
C1711 C1712 1.383 . S
C1711 H1719 0.929 . S
C1712 C1711 1.383 . S
C1712 C1713 1.377 . S
C1713 H1697 0.930 . S
C1713 C1712 1.377 . S
C1713 C1714 1.379 . S
C1714 H1698 0.931 . S
C1714 C1708 1.383 . S
C1714 C1713 1.379 . S
H1715 C1709 0.959 . S
H1716 C1709 0.961 . S
H1717 C1709 0.960 . S
H1718 C1710 0.930 . S
H1719 C1711 0.929 . S
H1720 C1728 0.929 . S
H1721 C1730 0.930 . S
H1722 C1732 0.930 . S
H1723 C1735 0.929 . S
H1724 C1738 0.930 . S
H1725 C1740 0.960 . S
H1726 C1740 0.960 . S
H1727 C1740 0.960 . S
C1728 H1720 0.929 . S
C1728 C1729 1.377 . S
C1728 C1730 1.384 . S
C1729 C1728 1.377 . S
C1729 C1735 1.390 . S
C1730 H1721 0.930 . S
C1730 C1728 1.384 . S
C1730 C1731 1.372 . S
C1731 C1730 1.372 . S
C1731 C1732 1.400 . S
C1731 C1736 1.490 . S
C1732 H1722 0.930 . S
C1732 C1731 1.400 . S
C1732 C1735 1.386 . S
H1733 C1749 0.930 . S
H1734 C1750 0.931 . S
C1735 H1723 0.929 . S
C1735 C1729 1.390 . S
C1735 C1732 1.386 . S
C1736 C1731 1.490 . S
C1736 C1738 1.395 . S
C1736 C1739 1.403 . S
H1737 C1743 0.930 . S
C1738 H1724 0.930 . S
C1738 C1736 1.395 . S
C1738 C1741 1.403 . S
C1739 C1736 1.403 . S
C1739 C1740 1.524 . S
C1739 C1743 1.400 . S
C1740 H1725 0.960 . S
C1740 H1726 0.960 . S
C1740 H1727 0.960 . S
C1740 C1739 1.524 . S
C1741 C1738 1.403 . S
C1741 C1742 1.392 . S
C1741 C1745 1.495 . S
C1742 C1741 1.392 . S
C1742 C1743 1.385 . S
C1742 C1744 1.478 . S
C1743 H1737 0.930 . S
C1743 C1739 1.400 . S
C1743 C1742 1.385 . S
C1744 C1742 1.478 . S
C1744 C1746 1.381 . S
C1744 C1750 1.383 . S
C1745 C1741 1.495 . S
C1745 H1751 0.959 . S
C1745 H1752 0.961 . S
C1745 H1753 0.960 . S
C1746 C1744 1.381 . S
C1746 C1747 1.394 . S
C1746 H1754 0.930 . S
C1747 C1746 1.394 . S
C1747 C1748 1.383 . S
C1747 H1755 0.929 . S
C1748 C1747 1.383 . S
C1748 C1749 1.377 . S
C1749 H1733 0.930 . S
C1749 C1748 1.377 . S
C1749 C1750 1.379 . S
C1750 H1734 0.931 . S
C1750 C1744 1.383 . S
C1750 C1749 1.379 . S
H1751 C1745 0.959 . S
H1752 C1745 0.961 . S
H1753 C1745 0.960 . S
H1754 C1746 0.930 . S
H1755 C1747 0.929 . S
H1756 C1764 0.929 . S
H1757 C1766 0.930 . S
H1758 C1768 0.930 . S
H1759 C1771 0.929 . S
H1760 C1774 0.930 1_655 S
H1761 C1776 0.960 . S
H1762 C1776 0.960 . S
H1763 C1776 0.960 . S
C1764 H1756 0.929 . S
C1764 C1765 1.377 . S
C1764 C1766 1.384 . S
C1765 C1764 1.377 . S
C1765 C1771 1.390 . S
C1766 H1757 0.930 . S
C1766 C1764 1.384 . S
C1766 C1767 1.372 . S
C1767 C1766 1.372 . S
C1767 C1768 1.400 . S
C1767 C1772 1.490 . S
C1768 H1758 0.930 . S
C1768 C1767 1.400 . S
C1768 C1771 1.386 . S
H1769 C1785 0.930 . S
H1770 C1786 0.931 . S
C1771 H1759 0.929 . S
C1771 C1765 1.390 . S
C1771 C1768 1.386 . S
C1772 C1767 1.490 . S
C1772 C1774 1.395 1_556 S
C1772 C1775 1.403 . S
H1773 C1779 0.930 . S
C1774 H1760 0.930 1_455 S
C1774 C1772 1.395 1_554 S
C1774 C1777 1.403 . S
C1775 C1772 1.403 . S
C1775 C1776 1.524 . S
C1775 C1779 1.400 1_556 S
C1776 H1761 0.960 . S
C1776 H1762 0.960 . S
C1776 H1763 0.960 . S
C1776 C1775 1.524 . S
C1777 C1774 1.403 . S
C1777 C1778 1.392 . S
C1777 C1781 1.495 1_455 S
C1778 C1777 1.392 . S
C1778 C1779 1.385 . S
C1778 C1780 1.478 . S
C1779 H1773 0.930 . S
C1779 C1775 1.400 1_554 S
C1779 C1778 1.385 . S
C1780 C1778 1.478 . S
C1780 C1782 1.381 . S
C1780 C1786 1.383 . S
C1781 C1777 1.495 1_655 S
C1781 H1787 0.959 . S
C1781 H1788 0.961 . S
C1781 H1789 0.960 . S
C1782 C1780 1.381 . S
C1782 C1783 1.394 . S
C1782 H1790 0.930 . S
C1783 C1782 1.394 . S
C1783 C1784 1.383 . S
C1783 H1791 0.929 . S
C1784 C1783 1.383 . S
C1784 C1785 1.377 . S
C1785 H1769 0.930 . S
C1785 C1784 1.377 . S
C1785 C1786 1.379 . S
C1786 H1770 0.931 . S
C1786 C1780 1.383 . S
C1786 C1785 1.379 . S
H1787 C1781 0.959 . S
H1788 C1781 0.961 . S
H1789 C1781 0.960 . S
H1790 C1782 0.930 . S
H1791 C1783 0.929 . S
H1792 C1800 0.929 . S
H1793 C1802 0.930 . S
H1794 C1804 0.930 . S
H1795 C1807 0.929 . S
H1796 C1810 0.930 . S
H1797 C1812 0.960 . S
H1798 C1812 0.960 . S
H1799 C1812 0.960 . S
C1800 H1792 0.929 . S
C1800 C1801 1.377 . S
C1800 C1802 1.384 . S
C1801 C1800 1.377 . S
C1801 C1807 1.390 . S
C1802 H1793 0.930 . S
C1802 C1800 1.384 . S
C1802 C1803 1.372 . S
C1803 C1802 1.372 . S
C1803 C1804 1.400 . S
C1803 C1808 1.490 . S
C1804 H1794 0.930 . S
C1804 C1803 1.400 . S
C1804 C1807 1.386 . S
H1805 C1821 0.930 . S
H1806 C1822 0.931 . S
C1807 H1795 0.929 . S
C1807 C1801 1.390 . S
C1807 C1804 1.386 . S
C1808 C1803 1.490 . S
C1808 C1810 1.395 . S
C1808 C1811 1.403 . S
H1809 C1815 0.930 . S
C1810 H1796 0.930 . S
C1810 C1808 1.395 . S
C1810 C1813 1.403 . S
C1811 C1808 1.403 . S
C1811 C1812 1.524 . S
C1811 C1815 1.400 . S
C1812 H1797 0.960 . S
C1812 H1798 0.960 . S
C1812 H1799 0.960 . S
C1812 C1811 1.524 . S
C1813 C1810 1.403 . S
C1813 C1814 1.392 . S
C1813 C1817 1.495 . S
C1814 C1813 1.392 . S
C1814 C1815 1.385 . S
C1814 C1816 1.478 . S
C1815 H1809 0.930 . S
C1815 C1811 1.400 . S
C1815 C1814 1.385 . S
C1816 C1814 1.478 . S
C1816 C1818 1.381 . S
C1816 C1822 1.383 . S
C1817 C1813 1.495 . S
C1817 H1823 0.959 . S
C1817 H1824 0.961 . S
C1817 H1825 0.960 . S
C1818 C1816 1.381 . S
C1818 C1819 1.394 . S
C1818 H1826 0.930 . S
C1819 C1818 1.394 . S
C1819 C1820 1.383 . S
C1819 H1827 0.929 . S
C1820 C1819 1.383 . S
C1820 C1821 1.377 . S
C1821 H1805 0.930 . S
C1821 C1820 1.377 . S
C1821 C1822 1.379 . S
C1822 H1806 0.931 . S
C1822 C1816 1.383 . S
C1822 C1821 1.379 . S
H1823 C1817 0.959 . S
H1824 C1817 0.961 . S
H1825 C1817 0.960 . S
H1826 C1818 0.930 . S
H1827 C1819 0.929 . S
H1828 C1836 0.929 . S
H1829 C1838 0.930 . S
H1830 C1840 0.930 . S
H1831 C1843 0.929 . S
H1832 C1846 0.930 . S
H1833 C1848 0.960 . S
H1834 C1848 0.960 . S
H1835 C1848 0.960 . S
C1836 H1828 0.929 . S
C1836 C1837 1.377 . S
C1836 C1838 1.384 . S
C1837 C1836 1.377 . S
C1837 C1843 1.390 . S
C1838 H1829 0.930 . S
C1838 C1836 1.384 . S
C1838 C1839 1.372 . S
C1839 C1838 1.372 . S
C1839 C1840 1.400 . S
C1839 C1844 1.490 . S
C1840 H1830 0.930 . S
C1840 C1839 1.400 . S
C1840 C1843 1.386 . S
H1841 C1857 0.930 . S
H1842 C1858 0.931 . S
C1843 H1831 0.929 . S
C1843 C1837 1.390 . S
C1843 C1840 1.386 . S
C1844 C1839 1.490 . S
C1844 C1846 1.395 . S
C1844 C1847 1.403 . S
H1845 C1851 0.930 . S
C1846 H1832 0.930 . S
C1846 C1844 1.395 . S
C1846 C1849 1.403 . S
C1847 C1844 1.403 . S
C1847 C1848 1.524 . S
C1847 C1851 1.400 . S
C1848 H1833 0.960 . S
C1848 H1834 0.960 . S
C1848 H1835 0.960 . S
C1848 C1847 1.524 . S
C1849 C1846 1.403 . S
C1849 C1850 1.392 . S
C1849 C1853 1.495 . S
C1850 C1849 1.392 . S
C1850 C1851 1.385 . S
C1850 C1852 1.478 . S
C1851 H1845 0.930 . S
C1851 C1847 1.400 . S
C1851 C1850 1.385 . S
C1852 C1850 1.478 . S
C1852 C1854 1.381 . S
C1852 C1858 1.383 . S
C1853 C1849 1.495 . S
C1853 H1859 0.959 . S
C1853 H1860 0.961 . S
C1853 H1861 0.960 . S
C1854 C1852 1.381 . S
C1854 C1855 1.394 . S
C1854 H1862 0.930 . S
C1855 C1854 1.394 . S
C1855 C1856 1.383 . S
C1855 H1863 0.929 . S
C1856 C1855 1.383 . S
C1856 C1857 1.377 . S
C1857 H1841 0.930 . S
C1857 C1856 1.377 . S
C1857 C1858 1.379 . S
C1858 H1842 0.931 . S
C1858 C1852 1.383 . S
C1858 C1857 1.379 . S
H1859 C1853 0.959 . S
H1860 C1853 0.961 . S
H1861 C1853 0.960 . S
H1862 C1854 0.930 . S
H1863 C1855 0.929 . S
H1864 C1872 0.929 . S
H1865 C1874 0.930 . S
H1866 C1876 0.930 . S
H1867 C1879 0.929 . S
H1868 C1882 0.930 . S
H1869 C1884 0.960 . S
H1870 C1884 0.960 . S
H1871 C1884 0.960 . S
C1872 H1864 0.929 . S
C1872 C1873 1.377 . S
C1872 C1874 1.384 . S
C1873 C1872 1.377 . S
C1873 C1879 1.390 . S
C1874 H1865 0.930 . S
C1874 C1872 1.384 . S
C1874 C1875 1.372 . S
C1875 C1874 1.372 . S
C1875 C1876 1.400 . S
C1875 C1880 1.490 . S
C1876 H1866 0.930 . S
C1876 C1875 1.400 . S
C1876 C1879 1.386 . S
H1877 C1893 0.930 . S
H1878 C1894 0.931 . S
C1879 H1867 0.929 . S
C1879 C1873 1.390 . S
C1879 C1876 1.386 . S
C1880 C1875 1.490 . S
C1880 C1882 1.395 . S
C1880 C1883 1.403 . S
H1881 C1887 0.930 . S
C1882 H1868 0.930 . S
C1882 C1880 1.395 . S
C1882 C1885 1.403 . S
C1883 C1880 1.403 . S
C1883 C1884 1.524 . S
C1883 C1887 1.400 . S
C1884 H1869 0.960 . S
C1884 H1870 0.960 . S
C1884 H1871 0.960 . S
C1884 C1883 1.524 . S
C1885 C1882 1.403 . S
C1885 C1886 1.392 . S
C1885 C1889 1.495 . S
C1886 C1885 1.392 . S
C1886 C1887 1.385 . S
C1886 C1888 1.478 . S
C1887 H1881 0.930 . S
C1887 C1883 1.400 . S
C1887 C1886 1.385 . S
C1888 C1886 1.478 . S
C1888 C1890 1.381 . S
C1888 C1894 1.383 . S
C1889 C1885 1.495 . S
C1889 H1895 0.959 . S
C1889 H1896 0.961 . S
C1889 H1897 0.960 . S
C1890 C1888 1.381 . S
C1890 C1891 1.394 . S
C1890 H1898 0.930 . S
C1891 C1890 1.394 . S
C1891 C1892 1.383 . S
C1891 H1899 0.929 . S
C1892 C1891 1.383 . S
C1892 C1893 1.377 . S
C1893 H1877 0.930 . S
C1893 C1892 1.377 . S
C1893 C1894 1.379 . S
C1894 H1878 0.931 . S
C1894 C1888 1.383 . S
C1894 C1893 1.379 . S
H1895 C1889 0.959 . S
H1896 C1889 0.961 . S
H1897 C1889 0.960 . S
H1898 C1890 0.930 . S
H1899 C1891 0.929 . S
H1900 C1908 0.929 . S
H1901 C1910 0.930 . S
H1902 C1912 0.930 . S
H1903 C1915 0.929 . S
H1904 C1918 0.930 . S
H1905 C1920 0.960 . S
H1906 C1920 0.960 . S
H1907 C1920 0.960 . S
C1908 H1900 0.929 . S
C1908 C1909 1.377 . S
C1908 C1910 1.384 . S
C1909 C1908 1.377 . S
C1909 C1915 1.390 . S
C1910 H1901 0.930 . S
C1910 C1908 1.384 . S
C1910 C1911 1.372 . S
C1911 C1910 1.372 . S
C1911 C1912 1.400 . S
C1911 C1916 1.490 . S
C1912 H1902 0.930 . S
C1912 C1911 1.400 . S
C1912 C1915 1.386 . S
H1913 C1929 0.930 . S
H1914 C1930 0.931 . S
C1915 H1903 0.929 . S
C1915 C1909 1.390 . S
C1915 C1912 1.386 . S
C1916 C1911 1.490 . S
C1916 C1918 1.395 . S
C1916 C1919 1.403 . S
H1917 C1923 0.930 . S
C1918 H1904 0.930 . S
C1918 C1916 1.395 . S
C1918 C1921 1.403 . S
C1919 C1916 1.403 . S
C1919 C1920 1.524 . S
C1919 C1923 1.400 . S
C1920 H1905 0.960 . S
C1920 H1906 0.960 . S
C1920 H1907 0.960 . S
C1920 C1919 1.524 . S
C1921 C1918 1.403 . S
C1921 C1922 1.392 . S
C1921 C1925 1.495 . S
C1922 C1921 1.392 . S
C1922 C1923 1.385 . S
C1922 C1924 1.478 . S
C1923 H1917 0.930 . S
C1923 C1919 1.400 . S
C1923 C1922 1.385 . S
C1924 C1922 1.478 . S
C1924 C1926 1.381 . S
C1924 C1930 1.383 . S
C1925 C1921 1.495 . S
C1925 H1931 0.959 . S
C1925 H1932 0.961 . S
C1925 H1933 0.960 . S
C1926 C1924 1.381 . S
C1926 C1927 1.394 . S
C1926 H1934 0.930 . S
C1927 C1926 1.394 . S
C1927 C1928 1.383 . S
C1927 H1935 0.929 . S
C1928 C1927 1.383 . S
C1928 C1929 1.377 . S
C1929 H1913 0.930 . S
C1929 C1928 1.377 . S
C1929 C1930 1.379 . S
C1930 H1914 0.931 . S
C1930 C1924 1.383 . S
C1930 C1929 1.379 . S
H1931 C1925 0.959 . S
H1932 C1925 0.961 . S
H1933 C1925 0.960 . S
H1934 C1926 0.930 . S
H1935 C1927 0.929 . S
H1936 C1944 0.929 . S
H1937 C1946 0.930 . S
H1938 C1948 0.930 . S
H1939 C1951 0.929 . S
H1940 C1954 0.930 . S
H1941 C1956 0.960 . S
H1942 C1956 0.960 . S
H1943 C1956 0.960 . S
C1944 H1936 0.929 . S
C1944 C1945 1.377 . S
C1944 C1946 1.384 . S
C1945 C1944 1.377 . S
C1945 C1951 1.390 . S
C1946 H1937 0.930 . S
C1946 C1944 1.384 . S
C1946 C1947 1.372 . S
C1947 C1946 1.372 . S
C1947 C1948 1.400 . S
C1947 C1952 1.490 . S
C1948 H1938 0.930 . S
C1948 C1947 1.400 . S
C1948 C1951 1.386 . S
H1949 C1965 0.930 . S
H1950 C1966 0.931 . S
C1951 H1939 0.929 . S
C1951 C1945 1.390 . S
C1951 C1948 1.386 . S
C1952 C1947 1.490 . S
C1952 C1954 1.395 . S
C1952 C1955 1.403 . S
H1953 C1959 0.930 . S
C1954 H1940 0.930 . S
C1954 C1952 1.395 . S
C1954 C1957 1.403 . S
C1955 C1952 1.403 . S
C1955 C1956 1.524 . S
C1955 C1959 1.400 . S
C1956 H1941 0.960 . S
C1956 H1942 0.960 . S
C1956 H1943 0.960 . S
C1956 C1955 1.524 . S
C1957 C1954 1.403 . S
C1957 C1958 1.392 . S
C1957 C1961 1.495 . S
C1958 C1957 1.392 . S
C1958 C1959 1.385 . S
C1958 C1960 1.478 . S
C1959 H1953 0.930 . S
C1959 C1955 1.400 . S
C1959 C1958 1.385 . S
C1960 C1958 1.478 . S
C1960 C1962 1.381 . S
C1960 C1966 1.383 . S
C1961 C1957 1.495 . S
C1961 H1967 0.959 . S
C1961 H1968 0.961 . S
C1961 H1969 0.960 . S
C1962 C1960 1.381 . S
C1962 C1963 1.394 . S
C1962 H1970 0.930 . S
C1963 C1962 1.394 . S
C1963 C1964 1.383 . S
C1963 H1971 0.929 . S
C1964 C1963 1.383 . S
C1964 C1965 1.377 . S
C1965 H1949 0.930 . S
C1965 C1964 1.377 . S
C1965 C1966 1.379 . S
C1966 H1950 0.931 . S
C1966 C1960 1.383 . S
C1966 C1965 1.379 . S
H1967 C1961 0.959 . S
H1968 C1961 0.961 . S
H1969 C1961 0.960 . S
H1970 C1962 0.930 . S
H1971 C1963 0.929 . S
H1972 C1980 0.929 . S
H1973 C1982 0.930 . S
H1974 C1984 0.930 . S
H1975 C1987 0.929 . S
H1976 C1990 0.930 . S
H1977 C1992 0.960 . S
H1978 C1992 0.960 . S
H1979 C1992 0.960 . S
C1980 H1972 0.929 . S
C1980 C1981 1.377 . S
C1980 C1982 1.384 . S
C1981 C1980 1.377 . S
C1981 C1987 1.390 . S
C1982 H1973 0.930 . S
C1982 C1980 1.384 . S
C1982 C1983 1.372 . S
C1983 C1982 1.372 . S
C1983 C1984 1.400 . S
C1983 C1988 1.490 . S
C1984 H1974 0.930 . S
C1984 C1983 1.400 . S
C1984 C1987 1.386 . S
H1985 C2001 0.930 1_455 S
H1986 C2002 0.931 . S
C1987 H1975 0.929 . S
C1987 C1981 1.390 . S
C1987 C1984 1.386 . S
C1988 C1983 1.490 . S
C1988 C1990 1.395 . S
C1988 C1991 1.403 . S
H1989 C1995 0.930 . S
C1990 H1976 0.930 . S
C1990 C1988 1.395 . S
C1990 C1993 1.403 . S
C1991 C1988 1.403 . S
C1991 C1992 1.524 . S
C1991 C1995 1.400 . S
C1992 H1977 0.960 . S
C1992 H1978 0.960 . S
C1992 H1979 0.960 . S
C1992 C1991 1.524 . S
C1993 C1990 1.403 . S
C1993 C1994 1.392 . S
C1993 C1997 1.495 . S
C1994 C1993 1.392 . S
C1994 C1995 1.385 . S
C1994 C1996 1.478 . S
C1995 H1989 0.930 . S
C1995 C1991 1.400 . S
C1995 C1994 1.385 . S
C1996 C1994 1.478 . S
C1996 C1998 1.381 . S
C1996 C2002 1.383 . S
C1997 C1993 1.495 . S
C1997 H2003 0.959 . S
C1997 H2004 0.961 . S
C1997 H2005 0.960 . S
C1998 C1996 1.381 . S
C1998 C1999 1.394 . S
C1998 H2006 0.930 . S
C1999 C1998 1.394 . S
C1999 C2000 1.383 . S
C1999 H2007 0.929 . S
C2000 C1999 1.383 . S
C2000 C2001 1.377 . S
C2001 H1985 0.930 1_655 S
C2001 C2000 1.377 . S
C2001 C2002 1.379 . S
C2002 H1986 0.931 . S
C2002 C1996 1.383 . S
C2002 C2001 1.379 . S
H2003 C1997 0.959 . S
H2004 C1997 0.961 . S
H2005 C1997 0.960 . S
H2006 C1998 0.930 . S
H2007 C1999 0.929 . S
H2008 C2016 0.929 . S
H2009 C2018 0.930 . S
H2010 C2020 0.930 1_554 S
H2011 C2023 0.929 . S
H2012 C2026 0.930 . S
H2013 C2028 0.960 . S
H2014 C2028 0.960 1_556 S
H2015 C2028 0.960 . S
C2016 H2008 0.929 . S
C2016 C2017 1.377 . S
C2016 C2018 1.384 . S
C2017 C2016 1.377 . S
C2017 C2023 1.390 . S
C2018 H2009 0.930 . S
C2018 C2016 1.384 . S
C2018 C2019 1.372 . S
C2019 C2018 1.372 . S
C2019 C2020 1.400 . S
C2019 C2024 1.490 1_556 S
C2020 H2010 0.930 1_556 S
C2020 C2019 1.400 . S
C2020 C2023 1.386 . S
H2021 C2037 0.930 . S
H2022 C2038 0.931 . S
C2023 H2011 0.929 . S
C2023 C2017 1.390 . S
C2023 C2020 1.386 . S
C2024 C2019 1.490 1_554 S
C2024 C2026 1.395 . S
C2024 C2027 1.403 . S
H2025 C2031 0.930 . S
C2026 H2012 0.930 . S
C2026 C2024 1.395 . S
C2026 C2029 1.403 . S
C2027 C2024 1.403 . S
C2027 C2028 1.524 . S
C2027 C2031 1.400 . S
C2028 H2013 0.960 . S
C2028 H2014 0.960 1_554 S
C2028 H2015 0.960 . S
C2028 C2027 1.524 . S
C2029 C2026 1.403 . S
C2029 C2030 1.392 . S
C2029 C2033 1.495 . S
C2030 C2029 1.392 . S
C2030 C2031 1.385 . S
C2030 C2032 1.478 . S
C2031 H2025 0.930 . S
C2031 C2027 1.400 . S
C2031 C2030 1.385 . S
C2032 C2030 1.478 . S
C2032 C2034 1.381 . S
C2032 C2038 1.383 . S
C2033 C2029 1.495 . S
C2033 H2039 0.959 . S
C2033 H2040 0.961 . S
C2033 H2041 0.960 . S
C2034 C2032 1.381 . S
C2034 C2035 1.394 . S
C2034 H2042 0.930 . S
C2035 C2034 1.394 . S
C2035 C2036 1.383 . S
C2035 H2043 0.929 . S
C2036 C2035 1.383 . S
C2036 C2037 1.377 . S
C2037 H2021 0.930 . S
C2037 C2036 1.377 . S
C2037 C2038 1.379 . S
C2038 H2022 0.931 . S
C2038 C2032 1.383 . S
C2038 C2037 1.379 . S
H2039 C2033 0.959 . S
H2040 C2033 0.961 . S
H2041 C2033 0.960 . S
H2042 C2034 0.930 . S
H2043 C2035 0.929 . S
H2044 C2052 0.929 . S
H2045 C2054 0.930 . S
H2046 C2056 0.930 . S
H2047 C2059 0.929 . S
H2048 C2062 0.930 . S
H2049 C2064 0.960 . S
H2050 C2064 0.960 . S
H2051 C2064 0.960 . S
C2052 H2044 0.929 . S
C2052 C2053 1.377 . S
C2052 C2054 1.384 . S
C2053 C2052 1.377 . S
C2053 C2059 1.390 . S
C2054 H2045 0.930 . S
C2054 C2052 1.384 . S
C2054 C2055 1.372 . S
C2055 C2054 1.372 . S
C2055 C2056 1.400 . S
C2055 C2060 1.490 . S
C2056 H2046 0.930 . S
C2056 C2055 1.400 . S
C2056 C2059 1.386 . S
H2057 C2073 0.930 . S
H2058 C2074 0.931 . S
C2059 H2047 0.929 . S
C2059 C2053 1.390 . S
C2059 C2056 1.386 . S
C2060 C2055 1.490 . S
C2060 C2062 1.395 . S
C2060 C2063 1.403 . S
H2061 C2067 0.930 . S
C2062 H2048 0.930 . S
C2062 C2060 1.395 . S
C2062 C2065 1.403 . S
C2063 C2060 1.403 . S
C2063 C2064 1.524 . S
C2063 C2067 1.400 . S
C2064 H2049 0.960 . S
C2064 H2050 0.960 . S
C2064 H2051 0.960 . S
C2064 C2063 1.524 . S
C2065 C2062 1.403 . S
C2065 C2066 1.392 . S
C2065 C2069 1.495 . S
C2066 C2065 1.392 . S
C2066 C2067 1.385 . S
C2066 C2068 1.478 . S
C2067 H2061 0.930 . S
C2067 C2063 1.400 . S
C2067 C2066 1.385 . S
C2068 C2066 1.478 . S
C2068 C2070 1.381 . S
C2068 C2074 1.383 . S
C2069 C2065 1.495 . S
C2069 H2075 0.959 . S
C2069 H2076 0.961 . S
C2069 H2077 0.960 . S
C2070 C2068 1.381 . S
C2070 C2071 1.394 . S
C2070 H2078 0.930 . S
C2071 C2070 1.394 . S
C2071 C2072 1.383 . S
C2071 H2079 0.929 . S
C2072 C2071 1.383 . S
C2072 C2073 1.377 . S
C2073 H2057 0.930 . S
C2073 C2072 1.377 . S
C2073 C2074 1.379 . S
C2074 H2058 0.931 . S
C2074 C2068 1.383 . S
C2074 C2073 1.379 . S
H2075 C2069 0.959 . S
H2076 C2069 0.961 . S
H2077 C2069 0.960 . S
H2078 C2070 0.930 . S
H2079 C2071 0.929 . S
H2080 C2088 0.929 . S
H2081 C2090 0.930 . S
H2082 C2092 0.930 . S
H2083 C2095 0.929 . S
H2084 C2098 0.930 . S
H2085 C2100 0.960 . S
H2086 C2100 0.960 . S
H2087 C2100 0.960 . S
C2088 H2080 0.929 . S
C2088 C2089 1.377 . S
C2088 C2090 1.384 . S
C2089 C2088 1.377 . S
C2089 C2095 1.390 . S
C2090 H2081 0.930 . S
C2090 C2088 1.384 . S
C2090 C2091 1.372 . S
C2091 C2090 1.372 . S
C2091 C2092 1.400 . S
C2091 C2096 1.490 . S
C2092 H2082 0.930 . S
C2092 C2091 1.400 . S
C2092 C2095 1.386 . S
H2093 C2109 0.930 . S
H2094 C2110 0.925 1_556 S
C2095 H2083 0.929 . S
C2095 C2089 1.390 . S
C2095 C2092 1.386 . S
C2096 C2091 1.490 . S
C2096 C2098 1.395 . S
C2096 C2099 1.403 . S
H2097 C2103 0.930 . S
C2098 H2084 0.930 . S
C2098 C2096 1.395 . S
C2098 C2101 1.403 . S
C2099 C2096 1.403 . S
C2099 C2100 1.524 . S
C2099 C2103 1.400 . S
C2100 H2085 0.960 . S
C2100 H2086 0.960 . S
C2100 H2087 0.960 . S
C2100 C2099 1.524 . S
C2101 C2098 1.403 . S
C2101 C2102 1.392 . S
C2101 C2105 1.495 . S
C2102 C2101 1.392 . S
C2102 C2103 1.385 . S
C2102 C2104 1.478 1_556 S
C2103 H2097 0.930 . S
C2103 C2099 1.400 . S
C2103 C2102 1.385 . S
C2104 C2102 1.478 1_554 S
C2104 C2106 1.381 . S
C2104 C2110 1.383 . S
C2105 C2101 1.495 . S
C2105 H2111 0.959 . S
C2105 H2112 0.961 . S
C2105 H2113 0.960 . S
C2106 C2104 1.381 . S
C2106 C2107 1.394 . S
C2106 H2114 0.930 . S
C2107 C2106 1.394 . S
C2107 C2108 1.383 . S
C2107 H2115 0.929 . S
C2108 C2107 1.383 . S
C2108 C2109 1.377 . S
C2109 H2093 0.930 . S
C2109 C2108 1.377 . S
C2109 C2110 1.379 . S
C2110 H2094 0.925 1_554 S
C2110 C2104 1.383 . S
C2110 C2109 1.379 . S
H2111 C2105 0.959 . S
H2112 C2105 0.961 . S
H2113 C2105 0.960 . S
H2114 C2106 0.930 . S
H2115 C2107 0.929 . S
H2116 C2124 0.929 . S
H2117 C2126 0.930 . S
H2118 C2128 0.930 . S
H2119 C2131 0.929 . S
H2120 C2134 0.930 . S
H2121 C2136 0.960 . S
H2122 C2136 0.960 . S
H2123 C2136 0.960 . S
C2124 H2116 0.929 . S
C2124 C2125 1.377 . S
C2124 C2126 1.384 . S
C2125 C2124 1.377 . S
C2125 C2131 1.390 . S
C2126 H2117 0.930 . S
C2126 C2124 1.384 . S
C2126 C2127 1.372 . S
C2127 C2126 1.372 . S
C2127 C2128 1.400 . S
C2127 C2132 1.490 . S
C2128 H2118 0.930 . S
C2128 C2127 1.400 . S
C2128 C2131 1.386 . S
H2129 C2145 0.930 . S
H2130 C2146 0.931 . S
C2131 H2119 0.929 . S
C2131 C2125 1.390 . S
C2131 C2128 1.386 . S
C2132 C2127 1.490 . S
C2132 C2134 1.395 . S
C2132 C2135 1.403 . S
H2133 C2139 0.930 . S
C2134 H2120 0.930 . S
C2134 C2132 1.395 . S
C2134 C2137 1.403 . S
C2135 C2132 1.403 . S
C2135 C2136 1.524 . S
C2135 C2139 1.400 . S
C2136 H2121 0.960 . S
C2136 H2122 0.960 . S
C2136 H2123 0.960 . S
C2136 C2135 1.524 . S
C2137 C2134 1.403 . S
C2137 C2138 1.392 . S
C2137 C2141 1.495 . S
C2138 C2137 1.392 . S
C2138 C2139 1.385 . S
C2138 C2140 1.478 . S
C2139 H2133 0.930 . S
C2139 C2135 1.400 . S
C2139 C2138 1.385 . S
C2140 C2138 1.478 . S
C2140 C2142 1.381 . S
C2140 C2146 1.383 . S
C2141 C2137 1.495 . S
C2141 H2147 0.959 . S
C2141 H2148 0.961 . S
C2141 H2149 0.960 . S
C2142 C2140 1.381 . S
C2142 C2143 1.394 . S
C2142 H2150 0.930 . S
C2143 C2142 1.394 . S
C2143 C2144 1.383 . S
C2143 H2151 0.929 . S
C2144 C2143 1.383 . S
C2144 C2145 1.377 . S
C2145 H2129 0.930 . S
C2145 C2144 1.377 . S
C2145 C2146 1.379 . S
C2146 H2130 0.931 . S
C2146 C2140 1.383 . S
C2146 C2145 1.379 . S
H2147 C2141 0.959 . S
H2148 C2141 0.961 . S
H2149 C2141 0.960 . S
H2150 C2142 0.930 . S
H2151 C2143 0.929 . S
H2152 C2160 0.929 . S
H2153 C2162 0.930 . S
H2154 C2164 0.930 . S
H2155 C2167 0.929 1_455 S
H2156 C2170 0.930 . S
H2157 C2172 0.960 . S
H2158 C2172 0.960 . S
H2159 C2172 0.960 . S
C2160 H2152 0.929 . S
C2160 C2161 1.377 . S
C2160 C2162 1.384 . S
C2161 C2160 1.377 . S
C2161 C2167 1.390 . S
C2162 H2153 0.930 . S
C2162 C2160 1.384 . S
C2162 C2163 1.372 . S
C2163 C2162 1.372 . S
C2163 C2164 1.400 . S
C2163 C2168 1.490 . S
C2164 H2154 0.930 . S
C2164 C2163 1.400 . S
C2164 C2167 1.386 . S
H2165 C2181 0.930 . S
H2166 C2182 0.931 . S
C2167 H2155 0.929 1_655 S
C2167 C2161 1.390 . S
C2167 C2164 1.386 . S
C2168 C2163 1.490 . S
C2168 C2170 1.395 . S
C2168 C2171 1.403 . S
H2169 C2175 0.930 . S
C2170 H2156 0.930 . S
C2170 C2168 1.395 . S
C2170 C2173 1.403 . S
C2171 C2168 1.403 . S
C2171 C2172 1.524 . S
C2171 C2175 1.400 . S
C2172 H2157 0.960 . S
C2172 H2158 0.960 . S
C2172 H2159 0.960 . S
C2172 C2171 1.524 . S
C2173 C2170 1.403 . S
C2173 C2174 1.392 . S
C2173 C2177 1.495 . S
C2174 C2173 1.392 . S
C2174 C2175 1.385 . S
C2174 C2176 1.478 . S
C2175 H2169 0.930 . S
C2175 C2171 1.400 . S
C2175 C2174 1.385 . S
C2176 C2174 1.478 . S
C2176 C2178 1.381 . S
C2176 C2182 1.383 . S
C2177 C2173 1.495 . S
C2177 H2183 0.959 . S
C2177 H2184 0.961 . S
C2177 H2185 0.960 . S
C2178 C2176 1.381 . S
C2178 C2179 1.394 . S
C2178 H2186 0.930 . S
C2179 C2178 1.394 . S
C2179 C2180 1.383 . S
C2179 H2187 0.929 . S
C2180 C2179 1.383 . S
C2180 C2181 1.377 . S
C2181 H2165 0.930 . S
C2181 C2180 1.377 . S
C2181 C2182 1.379 . S
C2182 H2166 0.931 . S
C2182 C2176 1.383 . S
C2182 C2181 1.379 . S
H2183 C2177 0.959 . S
H2184 C2177 0.961 . S
H2185 C2177 0.960 . S
H2186 C2178 0.930 . S
H2187 C2179 0.929 . S
H2188 C2196 0.929 . S
H2189 C2198 0.930 . S
H2190 C2200 0.930 . S
H2191 C2203 0.920 1_455 S
H2192 C2206 0.930 . S
H2193 C2208 0.960 . S
H2194 C2208 0.960 . S
H2195 C2208 0.960 . S
C2196 H2188 0.929 . S
C2196 C2197 1.377 . S
C2196 C2198 1.384 . S
C2197 C2196 1.377 . S
C2197 C2203 1.390 . S
C2198 H2189 0.930 . S
C2198 C2196 1.384 . S
C2198 C2199 1.372 . S
C2199 C2198 1.372 . S
C2199 C2200 1.400 . S
C2199 C2204 1.490 . S
C2200 H2190 0.930 . S
C2200 C2199 1.400 . S
C2200 C2203 1.386 . S
H2201 C2217 0.930 . S
H2202 C2218 0.931 . S
C2203 H2191 0.920 1_655 S
C2203 C2197 1.390 . S
C2203 C2200 1.386 . S
C2204 C2199 1.490 . S
C2204 C2206 1.395 . S
C2204 C2207 1.403 . S
H2205 C2211 0.930 . S
C2206 H2192 0.930 . S
C2206 C2204 1.395 . S
C2206 C2209 1.403 . S
C2207 C2204 1.403 . S
C2207 C2208 1.524 . S
C2207 C2211 1.400 . S
C2208 H2193 0.960 . S
C2208 H2194 0.960 . S
C2208 H2195 0.960 . S
C2208 C2207 1.524 . S
C2209 C2206 1.403 . S
C2209 C2210 1.392 . S
C2209 C2213 1.495 . S
C2210 C2209 1.392 . S
C2210 C2211 1.385 . S
C2210 C2212 1.478 . S
C2211 H2205 0.930 . S
C2211 C2207 1.400 . S
C2211 C2210 1.385 . S
C2212 C2210 1.478 . S
C2212 C2214 1.381 . S
C2212 C2218 1.383 . S
C2213 C2209 1.495 . S
C2213 H2219 0.959 . S
C2213 H2220 0.961 . S
C2213 H2221 0.960 . S
C2214 C2212 1.381 . S
C2214 C2215 1.394 . S
C2214 H2222 0.930 . S
C2215 C2214 1.394 . S
C2215 C2216 1.383 . S
C2215 H2223 0.929 . S
C2216 C2215 1.383 . S
C2216 C2217 1.377 . S
C2217 H2201 0.930 . S
C2217 C2216 1.377 . S
C2217 C2218 1.379 . S
C2218 H2202 0.931 . S
C2218 C2212 1.383 . S
C2218 C2217 1.379 . S
H2219 C2213 0.959 . S
H2220 C2213 0.961 . S
H2221 C2213 0.960 . S
H2222 C2214 0.930 . S
H2223 C2215 0.929 . S
H2224 C2232 0.929 . S
H2225 C2234 0.930 . S
H2226 C2236 0.930 . S
H2227 C2239 0.929 . S
H2228 C2242 0.930 . S
H2229 C2244 0.960 . S
H2230 C2244 0.960 . S
H2231 C2244 0.960 . S
C2232 H2224 0.929 . S
C2232 C2233 1.377 . S
C2232 C2234 1.384 . S
C2233 C2232 1.377 . S
C2233 C2239 1.390 . S
C2234 H2225 0.930 . S
C2234 C2232 1.384 . S
C2234 C2235 1.372 . S
C2235 C2234 1.372 . S
C2235 C2236 1.400 . S
C2235 C2240 1.490 . S
C2236 H2226 0.930 . S
C2236 C2235 1.400 . S
C2236 C2239 1.386 . S
H2237 C2253 0.928 1_554 S
H2238 C2254 0.931 . S
C2239 H2227 0.929 . S
C2239 C2233 1.390 . S
C2239 C2236 1.386 . S
C2240 C2235 1.490 . S
C2240 C2242 1.395 . S
C2240 C2243 1.403 . S
H2241 C2247 0.930 . S
C2242 H2228 0.930 . S
C2242 C2240 1.395 . S
C2242 C2245 1.403 . S
C2243 C2240 1.403 . S
C2243 C2244 1.524 . S
C2243 C2247 1.400 . S
C2244 H2229 0.960 . S
C2244 H2230 0.960 . S
C2244 H2231 0.960 . S
C2244 C2243 1.524 . S
C2245 C2242 1.403 . S
C2245 C2246 1.392 . S
C2245 C2249 1.495 . S
C2246 C2245 1.392 . S
C2246 C2247 1.385 . S
C2246 C2248 1.478 . S
C2247 H2241 0.930 . S
C2247 C2243 1.400 . S
C2247 C2246 1.385 . S
C2248 C2246 1.478 . S
C2248 C2250 1.381 1_554 S
C2248 C2254 1.383 . S
C2249 C2245 1.495 . S
C2249 H2255 0.959 . S
C2249 H2256 0.961 . S
C2249 H2257 0.960 . S
C2250 C2248 1.381 1_556 S
C2250 C2251 1.394 . S
C2250 H2258 0.930 . S
C2251 C2250 1.394 . S
C2251 C2252 1.383 . S
C2251 H2259 0.929 . S
C2252 C2251 1.383 . S
C2252 C2253 1.377 . S
C2253 H2237 0.928 1_556 S
C2253 C2252 1.377 . S
C2253 C2254 1.379 1_556 S
C2254 H2238 0.931 . S
C2254 C2248 1.383 . S
C2254 C2253 1.379 1_554 S
H2255 C2249 0.959 . S
H2256 C2249 0.961 . S
H2257 C2249 0.960 . S
H2258 C2250 0.930 . S
H2259 C2251 0.929 . S
H2260 C2268 0.929 . S
H2261 C2270 0.930 . S
H2262 C2272 0.930 . S
H2263 C2275 0.929 . S
H2264 C2278 0.930 . S
H2265 C2280 0.960 . S
H2266 C2280 0.960 . S
H2267 C2280 0.960 . S
C2268 H2260 0.929 . S
C2268 C2269 1.377 . S
C2268 C2270 1.384 . S
C2269 C2268 1.377 . S
C2269 C2275 1.390 . S
C2270 H2261 0.930 . S
C2270 C2268 1.384 . S
C2270 C2271 1.372 . S
C2271 C2270 1.372 . S
C2271 C2272 1.400 . S
C2271 C2276 1.490 . S
C2272 H2262 0.930 . S
C2272 C2271 1.400 . S
C2272 C2275 1.386 . S
H2273 C2289 0.930 . S
H2274 C2290 0.931 . S
C2275 H2263 0.929 . S
C2275 C2269 1.390 . S
C2275 C2272 1.386 . S
C2276 C2271 1.490 . S
C2276 C2278 1.395 . S
C2276 C2279 1.403 . S
H2277 C2283 0.930 . S
C2278 H2264 0.930 . S
C2278 C2276 1.395 . S
C2278 C2281 1.403 . S
C2279 C2276 1.403 . S
C2279 C2280 1.524 . S
C2279 C2283 1.400 . S
C2280 H2265 0.960 . S
C2280 H2266 0.960 . S
C2280 H2267 0.960 . S
C2280 C2279 1.524 . S
C2281 C2278 1.403 . S
C2281 C2282 1.392 . S
C2281 C2285 1.495 . S
C2282 C2281 1.392 . S
C2282 C2283 1.385 . S
C2282 C2284 1.478 . S
C2283 H2277 0.930 . S
C2283 C2279 1.400 . S
C2283 C2282 1.385 . S
C2284 C2282 1.478 . S
C2284 C2286 1.381 . S
C2284 C2290 1.383 . S
C2285 C2281 1.495 . S
C2285 H2291 0.959 . S
C2285 H2292 0.961 . S
C2285 H2293 0.960 . S
C2286 C2284 1.381 . S
C2286 C2287 1.394 . S
C2286 H2294 0.930 . S
C2287 C2286 1.394 . S
C2287 C2288 1.383 . S
C2287 H2295 0.929 . S
C2288 C2287 1.383 . S
C2288 C2289 1.377 . S
C2289 H2273 0.930 . S
C2289 C2288 1.377 . S
C2289 C2290 1.379 . S
C2290 H2274 0.931 . S
C2290 C2284 1.383 . S
C2290 C2289 1.379 . S
H2291 C2285 0.959 . S
H2292 C2285 0.961 . S
H2293 C2285 0.960 . S
H2294 C2286 0.930 . S
H2295 C2287 0.929 . S
H2296 C2304 0.929 . S
H2297 C2306 0.930 . S
H2298 C2308 0.930 . S
H2299 C2311 0.929 . S
H2300 C2314 0.930 . S
H2301 C2316 0.960 . S
H2302 C2316 0.960 . S
H2303 C2316 0.960 . S
C2304 H2296 0.929 . S
C2304 C2305 1.377 . S
C2304 C2306 1.384 . S
C2305 C2304 1.377 . S
C2305 C2311 1.390 . S
C2306 H2297 0.930 . S
C2306 C2304 1.384 . S
C2306 C2307 1.372 . S
C2307 C2306 1.372 . S
C2307 C2308 1.400 . S
C2307 C2312 1.490 . S
C2308 H2298 0.930 . S
C2308 C2307 1.400 . S
C2308 C2311 1.386 . S
H2309 C2325 0.930 . S
H2310 C2326 0.931 . S
C2311 H2299 0.929 . S
C2311 C2305 1.390 . S
C2311 C2308 1.386 . S
C2312 C2307 1.490 . S
C2312 C2314 1.395 . S
C2312 C2315 1.403 . S
H2313 C2319 0.930 . S
C2314 H2300 0.930 . S
C2314 C2312 1.395 . S
C2314 C2317 1.403 . S
C2315 C2312 1.403 . S
C2315 C2316 1.524 . S
C2315 C2319 1.400 . S
C2316 H2301 0.960 . S
C2316 H2302 0.960 . S
C2316 H2303 0.960 . S
C2316 C2315 1.524 . S
C2317 C2314 1.403 . S
C2317 C2318 1.392 . S
C2317 C2321 1.495 . S
C2318 C2317 1.392 . S
C2318 C2319 1.385 . S
C2318 C2320 1.478 . S
C2319 H2313 0.930 . S
C2319 C2315 1.400 . S
C2319 C2318 1.385 . S
C2320 C2318 1.478 . S
C2320 C2322 1.381 . S
C2320 C2326 1.383 . S
C2321 C2317 1.495 . S
C2321 H2327 0.959 . S
C2321 H2328 0.961 . S
C2321 H2329 0.960 . S
C2322 C2320 1.381 . S
C2322 C2323 1.394 . S
C2322 H2330 0.930 . S
C2323 C2322 1.394 . S
C2323 C2324 1.383 . S
C2323 H2331 0.929 . S
C2324 C2323 1.383 . S
C2324 C2325 1.377 . S
C2325 H2309 0.930 . S
C2325 C2324 1.377 . S
C2325 C2326 1.379 . S
C2326 H2310 0.931 . S
C2326 C2320 1.383 . S
C2326 C2325 1.379 . S
H2327 C2321 0.959 . S
H2328 C2321 0.961 . S
H2329 C2321 0.960 . S
H2330 C2322 0.930 . S
H2331 C2323 0.929 . S
H2332 C2340 0.929 . S
H2333 C2342 0.930 . S
H2334 C2344 0.930 . S
H2335 C2347 0.929 . S
H2336 C2350 0.930 . S
H2337 C2352 0.960 . S
H2338 C2352 0.960 . S
H2339 C2352 0.960 . S
C2340 H2332 0.929 . S
C2340 C2341 1.377 . S
C2340 C2342 1.384 . S
C2341 C2340 1.377 . S
C2341 C2347 1.390 . S
C2342 H2333 0.930 . S
C2342 C2340 1.384 . S
C2342 C2343 1.372 . S
C2343 C2342 1.372 . S
C2343 C2344 1.400 . S
C2343 C2348 1.490 . S
C2344 H2334 0.930 . S
C2344 C2343 1.400 . S
C2344 C2347 1.386 . S
H2345 C2361 0.930 . S
H2346 C2362 0.931 . S
C2347 H2335 0.929 . S
C2347 C2341 1.390 . S
C2347 C2344 1.386 . S
C2348 C2343 1.490 . S
C2348 C2350 1.395 . S
C2348 C2351 1.403 . S
H2349 C2355 0.930 . S
C2350 H2336 0.930 . S
C2350 C2348 1.395 . S
C2350 C2353 1.403 . S
C2351 C2348 1.403 . S
C2351 C2352 1.524 . S
C2351 C2355 1.400 . S
C2352 H2337 0.960 . S
C2352 H2338 0.960 . S
C2352 H2339 0.960 . S
C2352 C2351 1.524 . S
C2353 C2350 1.403 . S
C2353 C2354 1.392 . S
C2353 C2357 1.495 . S
C2354 C2353 1.392 . S
C2354 C2355 1.385 . S
C2354 C2356 1.478 . S
C2355 H2349 0.930 . S
C2355 C2351 1.400 . S
C2355 C2354 1.385 . S
C2356 C2354 1.478 . S
C2356 C2358 1.381 . S
C2356 C2362 1.383 . S
C2357 C2353 1.495 . S
C2357 H2363 0.959 . S
C2357 H2364 0.961 . S
C2357 H2365 0.960 . S
C2358 C2356 1.381 . S
C2358 C2359 1.394 . S
C2358 H2366 0.930 . S
C2359 C2358 1.394 . S
C2359 C2360 1.383 . S
C2359 H2367 0.929 . S
C2360 C2359 1.383 . S
C2360 C2361 1.377 . S
C2361 H2345 0.930 . S
C2361 C2360 1.377 . S
C2361 C2362 1.379 . S
C2362 H2346 0.931 . S
C2362 C2356 1.383 . S
C2362 C2361 1.379 . S
H2363 C2357 0.959 . S
H2364 C2357 0.961 . S
H2365 C2357 0.960 . S
H2366 C2358 0.930 . S
H2367 C2359 0.929 . S
C649 C19 0.572 . S
C668 C286 0.500 . S
C685 C59 0.810 . S
C704 C166 0.776 . S
C721 C206 0.991 . S
C740 C86 0.975 . S
C757 C139 0.848 . S
C776 C246 0.865 . S
C793 C455 0.836 . S
C812 C170 0.834 . S
C829 C330 1.857 . S
C848 C15 1.864 . S
C865 C415 0.827 . S
C884 C250 0.852 . S
C901 C90 2.563 . S
C920 C370 2.596 . S
C937 C366 0.541 . S
C956 C499 0.566 . S
C973 C419 0.809 . S
C992 C566 0.769 . S
C1009 C526 0.947 . S
C1028 C326 1.017 . S
C1045 C459 0.853 . S
C1064 C606 0.811 . S
C1081 C570 0.838 . S
C1100 C135 0.804 . S
C1117 C495 1.878 . S
C1136 C210 1.838 . S
C1153 C55 0.813 . S
C1172 C610 0.783 . S
C1189 C290 2.589 . S
C1208 C530 2.540 . S
C1225 C529 0.832 . S
C1244 C18 0.870 . S
C1261 C458 0.997 . S
C1280 C58 0.960 . S
C1297 C498 0.867 . S
C1316 C89 0.874 . S
C1333 C418 0.997 . S
C1352 C138 0.969 . S
C1369 C169 0.969 . S
C1388 C609 0.932 . S
C1405 C369 0.495 . S
C1424 C209 0.878 . S
C1441 C249 0.966 . S
C1460 C569 0.990 . S
C1477 C289 0.504 . S
C1496 C329 0.906 . S
C1513 C9 1.336 . S
C1532 C178 1.344 . S
C1549 C49 1.519 . S
C1568 C218 1.514 . S
C1585 C258 1.271 . S
C1604 C98 1.274 . S
C1621 C129 1.191 . S
C1640 C298 1.197 . S
C1657 C409 1.525 . S
C1676 C338 1.532 . S
C1693 C449 1.191 . S
C1712 C378 1.188 . S
C1729 C489 1.341 . S
C1748 C578 1.316 . S
C1765 C618 1.267 . S
C1784 C538 1.306 . S
C1801 C6 2.826 . S
C1820 C299 2.873 . S
C1837 C46 1.904 . S
C1856 C179 1.963 . S
C1873 C219 3.606 1_556 S
C1892 C99 3.584 . S
C1909 C259 2.001 . S
C1928 C126 1.924 . S
C1945 C450 1.984 . S
C1964 C175 1.928 . S
C1981 C335 0.937 . S
C2000 C10 0.951 . S
C2017 C410 1.978 . S
C2036 C255 1.912 . S
C2053 C95 0.462 . S
C2072 C375 0.453 1_556 S
C2089 C486 2.825 . S
C2108 C379 2.874 . S
C2125 C579 1.973 . S
C2144 C406 1.923 . S
C2161 C539 3.583 1_655 S
C2180 C339 3.604 . S
C2197 C619 2.001 . S
C2216 C446 1.920 . S
C2233 C575 1.928 . S
C2252 C130 1.978 . S
C2269 C215 0.933 . S
C2288 C490 0.928 . S
C2305 C50 1.978 . S
C2324 C615 1.927 . S
C2341 C535 0.479 . S
C2360 C295 0.400 . S
