# Generated by pormake.
# Topology sod, (4)-cn, num edge types: 1
# Building blocks:
#     Node 0, Type 0, BuildingBlock: AZAVOO_clean_sbu_0, # of connection points: 4
#     Node 1, Type 0, BuildingBlock: AZAVOO_clean_sbu_0, # of connection points: 4
#     Node 2, Type 0, BuildingBlock: AZAVOO_clean_sbu_0, # of connection points: 4
#     Node 3, Type 0, BuildingBlock: AZAVOO_clean_sbu_0, # of connection points: 4
#     Node 4, Type 0, BuildingBlock: AZAVOO_clean_sbu_0, # of connection points: 4
#     Node 5, Type 0, BuildingBlock: AZAVOO_clean_sbu_0, # of connection points: 4
#     Node 6, Type 0, BuildingBlock: AZAVOO_clean_sbu_0, # of connection points: 4
#     Node 7, Type 0, BuildingBlock: AZAVOO_clean_sbu_0, # of connection points: 4
#     Node 8, Type 0, BuildingBlock: AZAVOO_clean_sbu_0, # of connection points: 4
#     Node 9, Type 0, BuildingBlock: AZAVOO_clean_sbu_0, # of connection points: 4
#     Node 10, Type 0, BuildingBlock: AZAVOO_clean_sbu_0, # of connection points: 4
#     Node 11, Type 0, BuildingBlock: AZAVOO_clean_sbu_0, # of connection points: 4
#     Edge 12, Type (0, 0), BuildingBlock: EZIPEK_clean_linker_0, # of connection points: 2
#     Edge 13, Type (0, 0), BuildingBlock: EZIPEK_clean_linker_0, # of connection points: 2
#     Edge 14, Type (0, 0), BuildingBlock: EZIPEK_clean_linker_0, # of connection points: 2
#     Edge 15, Type (0, 0), BuildingBlock: EZIPEK_clean_linker_0, # of connection points: 2
#     Edge 16, Type (0, 0), BuildingBlock: EZIPEK_clean_linker_0, # of connection points: 2
#     Edge 17, Type (0, 0), BuildingBlock: EZIPEK_clean_linker_0, # of connection points: 2
#     Edge 18, Type (0, 0), BuildingBlock: EZIPEK_clean_linker_0, # of connection points: 2
#     Edge 19, Type (0, 0), BuildingBlock: EZIPEK_clean_linker_0, # of connection points: 2
#     Edge 20, Type (0, 0), BuildingBlock: EZIPEK_clean_linker_0, # of connection points: 2
#     Edge 21, Type (0, 0), BuildingBlock: EZIPEK_clean_linker_0, # of connection points: 2
#     Edge 22, Type (0, 0), BuildingBlock: EZIPEK_clean_linker_0, # of connection points: 2
#     Edge 23, Type (0, 0), BuildingBlock: EZIPEK_clean_linker_0, # of connection points: 2
#     Edge 24, Type (0, 0), BuildingBlock: EZIPEK_clean_linker_0, # of connection points: 2
#     Edge 25, Type (0, 0), BuildingBlock: EZIPEK_clean_linker_0, # of connection points: 2
#     Edge 26, Type (0, 0), BuildingBlock: EZIPEK_clean_linker_0, # of connection points: 2
#     Edge 27, Type (0, 0), BuildingBlock: EZIPEK_clean_linker_0, # of connection points: 2
#     Edge 28, Type (0, 0), BuildingBlock: EZIPEK_clean_linker_0, # of connection points: 2
#     Edge 29, Type (0, 0), BuildingBlock: EZIPEK_clean_linker_0, # of connection points: 2
#     Edge 30, Type (0, 0), BuildingBlock: EZIPEK_clean_linker_0, # of connection points: 2
#     Edge 31, Type (0, 0), BuildingBlock: EZIPEK_clean_linker_0, # of connection points: 2
#     Edge 32, Type (0, 0), BuildingBlock: EZIPEK_clean_linker_0, # of connection points: 2
#     Edge 33, Type (0, 0), BuildingBlock: EZIPEK_clean_linker_0, # of connection points: 2
#     Edge 34, Type (0, 0), BuildingBlock: EZIPEK_clean_linker_0, # of connection points: 2
#     Edge 35, Type (0, 0), BuildingBlock: EZIPEK_clean_linker_0, # of connection points: 2
# Relax obj value: 0.126
# Max RMSD: 0.159
# Mean RMSD: 0.153
data_MOF--net-sod--node1-AZAVOO_clean_sbu_0--edge1-EZIPEK_clean_linker_0
_symmetry_space_group_name_H-M    P1
_symmetry_Int_Tables_number       1
_symmetry_cell_setting            triclinic
loop_
_symmetry_equiv_pos_as_xyz
'x, y, z'
_cell_length_a     30.822158
_cell_length_b     31.484247
_cell_length_c     32.210493
_cell_angle_alpha  90.380255
_cell_angle_beta   93.266779
_cell_angle_gamma 96.854348
loop_
_atom_site_label
_atom_site_type_symbol
_atom_site_fract_x
_atom_site_fract_y
_atom_site_fract_z
_atom_type_partial_charge
Mg0 Mg 0.04985 0.27991 0.51656 0.0
O1 O 0.98314 0.23845 0.5164 0.0
O2 O 0.93182 0.28313 0.50964 0.0
Mg3 Mg 0.96516 0.35206 0.50997 0.0
C4 C 0.94318 0.24557 0.51258 0.0
C5 C 0.12345 0.2265 0.52614 0.0
O6 O 0.13676 0.26225 0.54679 0.0
O7 O 0.03869 0.29008 0.44684 0.0
O8 O -0.00899 0.33823 0.44632 0.0
O9 O 0.05432 0.2896 0.58553 0.0
O10 O 0.02456 0.33216 0.5407 0.0
C11 C 0.01546 0.31534 0.42734 0.0
C12 C 0.03539 0.32362 0.57858 0.0
O13 O 0.0855 0.22178 0.50783 0.0
Mg14 Mg 0.75056 0.01374 0.50193 0.0
O15 O 0.798 0.07548 0.49882 0.0
O16 O 0.75891 0.12962 0.48465 0.0
Mg17 Mg 0.6868 0.10214 0.47672 0.0
C18 C 0.79528 0.11505 0.49262 0.0
C19 C 0.80669 0.94175 0.51186 0.0
O20 O 0.77394 0.92669 0.48591 0.0
O21 O 0.72948 0.03456 0.56536 0.0
O22 O 0.68867 0.08639 0.54645 0.0
O23 O 0.75136 0.00109 0.43386 0.0
O24 O 0.70358 0.03777 0.46244 0.0
C25 C 0.70438 0.06258 0.57412 0.0
C26 C 0.71787 0.02217 0.42957 0.0
O27 O 0.80677 0.97883 0.52785 0.0
Mg28 Mg 0.01459 0.77559 0.54263 0.0
O29 O 0.07922 0.81785 0.53238 0.0
O30 O 0.13295 0.77603 0.54037 0.0
Mg31 Mg 0.104 0.70897 0.55841 0.0
C32 C 0.11953 0.81205 0.5325 0.0
C33 C 0.93891 0.82741 0.53742 0.0
O34 O 0.92931 0.79776 0.56506 0.0
O35 O 0.0153 0.74168 0.47874 0.0
O36 O 0.06646 0.69873 0.49531 0.0
O37 O 0.02132 0.78837 0.61175 0.0
O38 O 0.04641 0.73456 0.58058 0.0
C39 C 0.03756 0.71134 0.46979 0.0
C40 C 0.0406 0.75412 0.61451 0.0
O41 O 0.97433 0.82762 0.51891 0.0
Mg42 Mg 0.31141 0.04251 0.51158 0.0
O43 O 0.26305 0.98109 0.51142 0.0
O44 O 0.29868 0.92551 0.49691 0.0
Mg45 Mg 0.36978 0.95187 0.48708 0.0
C46 C 0.26397 0.9411 0.50571 0.0
C47 C 0.25708 0.11402 0.51895 0.0
O48 O 0.2863 0.12645 0.49202 0.0
O49 O 0.34286 0.02645 0.57487 0.0
O50 O 0.37891 0.97242 0.55593 0.0
O51 O 0.2995 0.05047 0.44337 0.0
O52 O 0.35198 0.0159 0.47169 0.0
C53 C 0.36873 -0.0016 0.58346 0.0
C54 C 0.33269 0.02965 0.43887 0.0
O55 O 0.25939 0.07883 0.53756 0.0
Mg56 Mg 0.50629 0.02343 0.23869 0.0
O57 O 0.56706 0.01876 0.28211 0.0
O58 O 0.62505 0.02147 0.24285 0.0
Mg59 Mg 0.59976 0.02203 0.17465 0.0
C60 C 0.60814 0.01981 0.27813 0.0
C61 C 0.42816 0.01863 0.2915 0.0
O62 O 0.41343 -0.00473 0.25858 0.0
O63 O 0.52991 0.09374 0.22926 0.0
O64 O 0.584 0.09083 0.1868 0.0
O65 O 0.49238 0.95297 0.23258 0.0
O66 O 0.5338 -0.00644 0.19069 0.0
C67 C 0.56001 0.11237 0.20789 0.0
C68 C 0.5167 0.95595 0.20106 0.0
O69 O 0.46703 0.03753 0.29318 0.0
Mg70 Mg 0.06428 0.51067 0.29315 0.0
O71 O 0.00479 0.50958 0.24715 0.0
O72 O 0.94426 0.48079 0.2758 0.0
Mg73 Mg 0.96468 0.46996 0.34382 0.0
C74 C 0.96388 0.49678 0.24475 0.0
C75 C 0.1398 0.52998 0.23714 0.0
O76 O 0.15163 0.49923 0.26104 0.0
O77 O 0.04675 0.57051 0.32643 0.0
O78 O 0.98618 0.54184 0.35592 0.0
O79 O 0.07099 0.44232 0.27783 0.0
O80 O 0.03238 0.46241 0.32864 0.0
C81 C 0.01506 0.57357 0.34988 0.0
C82 C 0.04671 0.43206 0.30848 0.0
O83 O 0.10525 0.54637 0.24464 0.0
Mg84 Mg 0.56492 -0.00118 0.7896 0.0
O85 O 0.50431 -0.00024 0.74561 0.0
O86 O 0.44384 0.97345 0.77566 0.0
Mg87 Mg 0.46608 0.96303 0.84338 0.0
C88 C 0.46312 -0.01137 0.74412 0.0
C89 C 0.63755 0.05895 0.73826 0.0
O90 O 0.65353 0.07867 0.77286 0.0
O91 O 0.55133 0.06049 0.82229 0.0
O92 O 0.49121 0.03439 0.85401 0.0
O93 O 0.56833 0.92977 0.77512 0.0
O94 O 0.53262 0.95244 0.82684 0.0
C95 C 0.5208 0.06509 0.84668 0.0
C96 C 0.54493 0.92097 0.80668 0.0
O97 O 0.60442 0.03084 0.73861 0.0
Mg98 Mg 0.00746 0.52552 0.73527 0.0
O99 O 0.06782 0.51944 0.7788 0.0
O100 O 0.12634 0.52425 0.74014 0.0
Mg101 Mg 0.10179 0.5276 0.67189 0.0
C102 C 0.10898 0.52088 0.77515 0.0
C103 C 0.92946 0.51756 0.78905 0.0
O104 O 0.91481 0.49391 0.7563 0.0
O105 O 0.03074 0.5963 0.72861 0.0
O106 O 0.08543 0.59569 0.68648 0.0
O107 O -0.00597 0.45529 0.72617 0.0
O108 O 0.03554 0.49802 0.68611 0.0
C109 C 0.06099 0.61608 0.70819 0.0
C110 C 0.01849 0.45987 0.69479 0.0
O111 O 0.96794 0.53735 0.79025 0.0
Mg112 Mg 0.25546 0.50574 -0.0039 0.0
O113 O 0.29994 0.56936 -0.00418 0.0
O114 O 0.25686 0.62169 -0.00941 0.0
Mg115 Mg 0.18545 0.59102 0.98104 0.0
C116 C 0.29458 0.60887 -0.00519 0.0
C117 C 0.31453 0.43554 0.00049 0.0
O118 O 0.28235 0.42109 0.97368 0.0
O119 O 0.23619 0.52085 0.06172 0.0
O120 O 0.18787 0.56786 0.04875 0.0
O121 O 0.25443 0.49816 0.92722 0.0
O122 O 0.20597 0.5301 0.96014 0.0
C123 C 0.20781 0.5442 0.07359 0.0
C124 C 0.21973 0.51767 0.92564 0.0
O125 O 0.31364 0.47164 0.01819 0.0
Mg126 Mg 0.52131 0.2693 0.03659 0.0
O127 O 0.58603 0.31189 0.028 0.0
O128 O 0.6401 0.2709 0.03859 0.0
Mg129 Mg 0.61097 0.20385 0.05654 0.0
C130 C 0.6265 0.3066 0.02968 0.0
C131 C 0.44518 0.31991 0.02732 0.0
O132 O 0.43419 0.28949 0.05382 0.0
O133 O 0.52442 0.2346 0.97351 0.0
O134 O 0.57546 0.19236 -0.00744 0.0
O135 O 0.52538 0.28293 0.1055 0.0
O136 O 0.55197 0.22887 0.07625 0.0
C137 C 0.54716 0.20423 0.96594 0.0
C138 C 0.54464 0.24876 0.10955 0.0
O139 O 0.48179 0.32091 0.01078 0.0
Mg140 Mg 0.81293 0.54108 0.00952 0.0
O141 O 0.76653 0.47836 0.00983 0.0
O142 O 0.80426 0.42405 -0.00389 0.0
Mg143 Mg 0.87479 0.45256 -0.01344 0.0
C144 C 0.76884 0.43855 0.00449 0.0
C145 C 0.75554 0.61056 0.01713 0.0
O146 O 0.78342 0.62387 -0.01073 0.0
O147 O 0.84488 0.52682 0.07298 0.0
O148 O 0.88289 0.4738 0.05532 0.0
O149 O 0.8008 0.54795 0.94122 0.0
O150 O 0.8546 0.51548 0.97008 0.0
C151 C 0.87164 0.49979 0.08229 0.0
C152 C 0.83475 0.52813 0.93703 0.0
O153 O 0.75965 0.5756 0.03558 0.0
Mg154 Mg 0.54713 0.77386 0.02579 0.0
O155 O 0.47999 0.73347 0.02497 0.0
O156 O 0.43036 0.77959 0.01541 0.0
Mg157 Mg 0.46486 0.84843 0.01976 0.0
C158 C 0.44052 0.7416 0.01913 0.0
C159 C 0.62072 0.72046 0.03237 0.0
O160 O 0.6347 0.75617 0.05283 0.0
O161 O 0.53653 0.78558 0.95609 0.0
O162 O 0.49426 0.83871 0.95699 0.0
O163 O 0.55168 0.78257 0.09509 0.0
O164 O 0.52264 0.82594 0.05073 0.0
C165 C 0.51789 0.81511 0.9379 0.0
C166 C 0.53336 0.81701 0.08848 0.0
O167 O 0.58206 0.71557 0.01563 0.0
C168 C 0.98557 0.33861 0.35856 0.0
C169 C 0.02089 0.32414 0.38236 0.0
C170 C 0.07347 0.36723 0.34165 0.0
C171 C 0.0385 0.38757 0.32326 0.0
N172 N 0.96246 0.38225 0.3011 0.0
N173 N 0.09419 0.30553 0.37921 0.0
C174 C -0.00529 0.36941 0.32716 0.0
C175 C 0.06356 0.33185 0.36798 0.0
N176 N 0.94372 0.32397 0.36755 0.0
N177 N 0.11596 0.38339 0.33668 0.0
H178 H 0.08636 0.27735 0.39539 0.0
H179 H 0.12521 0.3083 0.3675 0.0
H180 H 0.12492 0.40856 0.31693 0.0
H181 H 0.14232 0.37308 0.35385 0.0
H182 H 0.91605 0.33592 0.35455 0.0
H183 H 0.93716 0.29941 0.38878 0.0
H184 H 0.92972 0.36947 0.30086 0.0
H185 H 0.96967 0.40356 0.27706 0.0
C186 C 0.69227 0.05882 0.3654 0.0
C187 C 0.6918 0.0214 0.3896 0.0
C188 C 0.63967 0.98195 0.33858 0.0
C189 C 0.63748 0.02021 0.31607 0.0
N190 N 0.65712 0.09627 0.30967 0.0
N191 N 0.66113 0.94891 0.40304 0.0
C192 C 0.6627 0.05902 0.32981 0.0
C193 C 0.66459 0.98329 0.37714 0.0
N194 N 0.72167 0.09375 0.37602 0.0
N195 N 0.61869 0.94414 0.32258 0.0
H196 H 0.67918 0.94822 0.43137 0.0
H197 H 0.63801 0.92218 0.39812 0.0
H198 H 0.59905 0.94211 0.29503 0.0
H199 H 0.62323 0.91437 0.33483 0.0
H200 H 0.72697 0.12061 0.3575 0.0
H201 H 0.74334 0.09456 0.40218 0.0
H202 H 0.6709 0.12635 0.32057 0.0
H203 H 0.636 0.09756 0.28334 0.0
C204 C 0.0092 0.60446 0.42102 0.0
C205 C 0.01645 0.61152 0.37822 0.0
C206 C 0.03286 0.68873 0.39368 0.0
C207 C 0.02196 0.68097 0.43531 0.0
N208 N 0.98526 0.63359 0.48403 0.0
N209 N 0.0265 0.66191 0.32233 0.0
C210 C 0.00462 0.63957 0.44706 0.0
C211 C 0.02563 0.65423 0.36394 0.0
N212 N 0.01105 0.56502 0.43817 0.0
N213 N 0.05123 0.72843 0.38297 0.0
H214 H 0.0201 0.63756 0.29993 0.0
H215 H 0.02953 0.69258 0.31007 0.0
H216 H 0.05537 0.75421 0.40395 0.0
H217 H 0.06426 0.73504 0.35425 0.0
H218 H 0.00942 0.55975 0.47 0.0
H219 H 0.0205 0.53908 0.42219 0.0
H220 H 0.96907 0.60418 0.49242 0.0
H221 H 0.98132 0.65899 0.50394 0.0
C222 C 0.35659 0.98618 0.38106 0.0
C223 C 0.35203 0.02681 0.39818 0.0
C224 C 0.39059 0.06167 0.34074 0.0
C225 C 0.40038 0.02122 0.32707 0.0
N226 N 0.39822 0.94507 0.33768 0.0
N227 N 0.3704 0.10374 0.39801 0.0
C228 C 0.3846 0.98337 0.34793 0.0
C229 C 0.37022 0.0648 0.37887 0.0
N230 N 0.3334 0.95038 0.39594 0.0
N231 N 0.39979 0.09696 0.31681 0.0
H232 H 0.35647 0.10781 0.42628 0.0
H233 H 0.38776 0.13172 0.38767 0.0
H234 H 0.41438 0.09584 0.28845 0.0
H235 H 0.38918 0.12642 0.32307 0.0
H236 H 0.33197 0.92022 0.38209 0.0
H237 H 0.31206 0.95174 0.41974 0.0
H238 H 0.39151 0.9174 0.35487 0.0
H239 H 0.41964 0.94163 0.31431 0.0
C240 C 0.02691 0.68515 0.7089 0.0
C241 C 0.06418 0.66376 0.70409 0.0
C242 C 0.09489 0.72241 0.66109 0.0
C243 C 0.05223 0.73454 0.65469 0.0
N244 N 0.97812 0.73153 0.67678 0.0
N245 N 0.14107 0.67247 0.69324 0.0
C246 C 0.01867 0.71816 0.68081 0.0
C247 C 0.10095 0.68614 0.68603 0.0
N248 N 0.00056 0.67502 0.74089 0.0
N249 N 0.12866 0.74504 0.64217 0.0
H250 H 0.14589 0.64838 0.71457 0.0
H251 H 0.16959 0.68595 0.68034 0.0
H252 H 0.12429 0.77273 0.62555 0.0
H253 H 0.16071 0.73771 0.64376 0.0
H254 H 0.97435 0.69157 0.74736 0.0
H255 H 0.00896 0.65442 0.76446 0.0
H256 H 0.95108 0.71622 0.69096 0.0
H257 H 0.9709 0.75684 0.65803 0.0
C258 C 0.39522 0.00498 0.70136 0.0
C259 C 0.43774 -0.00863 0.70358 0.0
C260 C 0.43721 -0.0073 0.62783 0.0
C261 C 0.39209 -0.00168 0.62528 0.0
N262 N 0.32585 0.00144 0.66155 0.0
N263 N 0.49241 0.9593 0.66672 0.0
C264 C 0.37027 0.00213 0.66259 0.0
C265 C 0.45682 0.98139 0.6662 0.0
N266 N 0.37926 0.02249 0.73538 0.0
N267 N 0.46212 -0.00013 0.59425 0.0
H268 H 0.50547 0.9463 0.69366 0.0
H269 H 0.50507 0.94903 0.63955 0.0
H270 H 0.45029 0.01206 0.56636 0.0
H271 H 0.49592 -0.00089 0.59616 0.0
H272 H 0.35001 0.03612 0.734 0.0
H273 H 0.39742 0.02807 0.76358 0.0
H274 H 0.30838 0.00013 0.68838 0.0
H275 H 0.30607 -0.00239 0.63415 0.0
C276 C 0.06915 0.3782 0.63146 0.0
C277 C 0.03099 0.3547 0.61217 0.0
C278 C 0.98495 0.40096 0.64614 0.0
C279 C 0.02291 0.42283 0.66744 0.0
N280 N 0.09981 0.42659 0.68718 0.0
N281 N 0.95271 0.33744 0.60757 0.0
C282 C 0.06466 0.40974 0.66213 0.0
C283 C 0.98888 0.36417 0.62154 0.0
N284 N 0.10966 0.37204 0.61903 0.0
N285 N 0.94552 0.41661 0.64755 0.0
H286 H 0.95477 0.30995 0.58992 0.0
H287 H 0.9213 0.34014 0.61679 0.0
H288 H 0.94118 0.44405 0.66437 0.0
H289 H 0.91789 0.40471 0.62904 0.0
H290 H 0.13811 0.3918 0.62843 0.0
H291 H 0.11471 0.34933 0.59667 0.0
H292 H 0.13013 0.41503 0.68795 0.0
H293 H 0.09742 0.44955 0.71005 0.0
C294 C 0.62938 0.0728 0.66251 0.0
C295 C 0.65765 0.06772 0.69787 0.0
C296 C 0.71894 0.06753 0.65234 0.0
C297 C 0.68897 0.06501 0.61696 0.0
N298 N 0.61326 0.05437 0.59018 0.0
N299 N 0.72903 0.05354 0.7258 0.0
C300 C 0.6435 0.06496 0.62244 0.0
C301 C 0.70254 0.06367 0.69279 0.0
N302 N 0.58891 0.08519 0.66719 0.0
N303 N 0.76296 0.07449 0.64755 0.0
H304 H 0.71852 0.04947 0.75582 0.0
H305 H 0.7605 0.04546 0.72262 0.0
H306 H 0.77626 0.07803 0.61857 0.0
H307 H 0.78596 0.08088 0.67246 0.0
H308 H 0.56847 0.0928 0.64211 0.0
H309 H 0.578 0.09251 0.69618 0.0
H310 H 0.57965 0.05008 0.59396 0.0
H311 H 0.62142 0.04463 0.56094 0.0
C312 C 0.4011 0.37469 0.05462 0.0
C313 C 0.4163 0.35395 0.01991 0.0
C314 C 0.3731 0.39596 0.97327 0.0
C315 C 0.35208 0.41052 0.00787 0.0
N316 N 0.34227 0.40886 0.08179 0.0
N317 N 0.41242 0.34103 0.94567 0.0
C318 C 0.36526 0.39891 0.04874 0.0
C319 C 0.40148 0.36379 0.97899 0.0
N320 N 0.42173 0.37228 0.09309 0.0
N321 N 0.36695 0.41373 0.9351 0.0
H322 H 0.43238 0.31658 0.94837 0.0
H323 H 0.39848 0.3438 0.91573 0.0
H324 H 0.34766 0.43848 0.93 0.0
H325 H 0.3847 0.40724 0.90971 0.0
H326 H 0.41462 0.39008 0.11869 0.0
H327 H 0.44924 0.35627 0.09836 0.0
H328 H 0.34766 0.39696 0.11151 0.0
H329 H 0.31512 0.42566 0.07896 0.0
C330 C 0.35125 0.65168 0.04193 0.0
C331 C 0.33352 0.64116 0.00096 0.0
C332 C 0.39042 0.69182 0.97225 0.0
C333 C 0.40521 0.70551 0.01324 0.0
N334 N 0.39866 0.70148 0.08726 0.0
N335 N 0.33343 0.65268 0.92708 0.0
C336 C 0.38547 0.68611 0.04819 0.0
C337 C 0.35235 0.66165 0.96607 0.0
N338 N 0.33571 0.62832 0.07475 0.0
N339 N 0.41371 0.70673 0.93936 0.0
H340 H 0.30692 0.6292 0.92121 0.0
H341 H 0.34222 0.67008 0.90087 0.0
H342 H 0.44203 0.72846 0.94291 0.0
H343 H 0.40737 0.69503 0.90905 0.0
H344 H 0.35008 0.6313 0.10481 0.0
H345 H 0.31008 0.60351 0.07145 0.0
H346 H 0.3824 0.69231 0.1138 0.0
H347 H 0.42466 0.7256 0.09297 0.0
C348 C 0.6754 0.34964 -0.01808 0.0
C349 C 0.65943 0.34344 0.02213 0.0
C350 C 0.71441 0.40043 0.05067 0.0
C351 C 0.7295 0.40766 0.01018 0.0
N352 N 0.71915 0.39579 0.93614 0.0
N353 N 0.65739 0.36741 0.0931 0.0
C354 C 0.70845 0.38415 0.97542 0.0
C355 C 0.6769 0.3704 0.05598 0.0
N356 N 0.65961 0.32195 0.95022 0.0
N357 N 0.73722 0.4207 0.08429 0.0
H358 H 0.63032 0.34525 0.09824 0.0
H359 H 0.66562 0.38905 0.11767 0.0
H360 H 0.76481 0.44296 0.08173 0.0
H361 H 0.73096 0.41321 0.11498 0.0
H362 H 0.67337 0.32155 0.92147 0.0
H363 H 0.63411 0.29744 0.95346 0.0
H364 H 0.70221 0.38275 0.90926 0.0
H365 H 0.74262 0.42143 0.93038 0.0
C366 C 0.69043 0.6419 -0.01342 0.0
C367 C 0.71691 0.63346 0.02237 0.0
C368 C 0.67159 0.67253 0.06537 0.0
C369 C 0.6505 0.68721 0.02876 0.0
N370 N 0.64436 0.69036 0.95366 0.0
N371 N 0.73548 0.64396 0.09585 0.0
C372 C 0.66074 0.67281 -0.01094 0.0
C373 C 0.70802 0.64924 0.06194 0.0
N374 N 0.69285 0.61956 0.95041 0.0
N375 N 0.65612 0.68001 0.10334 0.0
H376 H 0.7627 0.62736 0.09465 0.0
H377 H 0.73333 0.659 0.12443 0.0
H378 H 0.62876 0.696 0.10687 0.0
H379 H 0.6675 0.6666 0.13073 0.0
H380 H 0.6713 0.62152 0.92456 0.0
H381 H 0.71316 0.59555 0.94777 0.0
H382 H 0.65486 0.68435 0.92425 0.0
H383 H 0.62338 0.71397 0.95377 0.0
C384 C 0.48867 0.8323 0.86708 0.0
C385 C 0.52541 0.82538 0.89373 0.0
C386 C 0.57379 0.85997 0.84294 0.0
C387 C 0.53753 0.87738 0.82393 0.0
N388 N 0.45998 0.87412 0.81087 0.0
N389 N 0.60442 0.83143 0.90592 0.0
C390 C 0.49465 0.86087 0.83334 0.0
C391 C 0.56851 0.83753 0.88077 0.0
N392 N 0.4483 0.81206 0.87482 0.0
N393 N 0.61336 0.86584 0.82549 0.0
H394 H 0.60305 0.81474 0.93363 0.0
H395 H 0.63596 0.84524 0.90044 0.0
H396 H 0.61773 0.88127 0.79727 0.0
H397 H 0.64019 0.85094 0.83619 0.0
H398 H 0.4204 0.8135 0.85536 0.0
H399 H 0.44371 0.79071 0.89925 0.0
H400 H 0.42758 0.86752 0.81863 0.0
H401 H 0.46442 0.89275 0.78439 0.0
C402 C 0.18709 0.55852 0.86737 0.0
C403 C 0.19251 0.51889 0.88642 0.0
C404 C 0.14562 0.48044 0.83078 0.0
C405 C 0.1379 0.52017 0.81325 0.0
N406 N 0.14652 0.59727 0.81641 0.0
N407 N 0.17145 0.4427 0.8908 0.0
C408 C 0.15737 0.55935 0.83196 0.0
C409 C 0.17048 0.47993 0.86925 0.0
N410 N 0.21134 0.5951 0.8825 0.0
N411 N 0.12969 0.44315 0.8103 0.0
H412 H 0.18892 0.44077 0.91927 0.0
H413 H 0.15205 0.41427 0.88236 0.0
H414 H 0.10963 0.44219 0.78306 0.0
H415 H 0.1387 0.41338 0.8186 0.0
H416 H 0.2126 0.62445 0.86769 0.0
H417 H 0.2329 0.59544 0.90867 0.0
H418 H 0.1557 0.62678 0.83108 0.0
H419 H 0.12567 0.59909 0.78997 0.0
C420 C 0.53322 0.14585 0.8604 0.0
C421 C 0.52479 0.10321 0.87503 0.0
C422 C 0.51635 0.13126 0.94459 0.0
C423 C 0.5323 0.17285 0.93207 0.0
N424 N 0.55864 0.22034 0.87849 0.0
N425 N 0.52286 0.05679 0.93502 0.0
C426 C 0.5413 0.18053 0.88993 0.0
C427 C 0.52 0.09622 0.91819 0.0
N428 N 0.53253 0.15327 0.81868 0.0
N429 N 0.49861 0.12507 -0.01767 0.0
H430 H 0.53116 0.03082 0.91823 0.0
H431 H 0.52311 0.05152 0.96696 0.0
H432 H 0.4949 0.15036 0.00246 0.0
H433 H 0.48335 0.09547 -0.0087 0.0
H434 H 0.53482 0.18384 0.80621 0.0
H435 H 0.52584 0.12873 0.79649 0.0
H436 H 0.57025 0.227 0.8492 0.0
H437 H 0.56353 0.24621 0.89936 0.0
C438 C 0.89124 0.56015 0.83814 0.0
C439 C 0.90193 0.51989 0.82485 0.0
C440 C 0.85965 0.4846 0.87971 0.0
C441 C 0.85411 0.5252 0.89634 0.0
N442 N 0.87043 0.60229 0.89508 0.0
N443 N 0.90182 0.44409 0.83628 0.0
C444 C 0.87114 0.56324 0.87642 0.0
C445 C 0.88736 0.48206 0.8463 0.0
N446 N 0.89932 0.59525 0.81372 0.0
N447 N 0.83763 0.44854 0.89531 0.0
H448 H 0.92297 0.44089 0.81262 0.0
H449 H 0.89608 0.41655 0.85386 0.0
H450 H 0.81657 0.44967 0.91936 0.0
H451 H 0.83684 0.41826 0.88186 0.0
H452 H 0.88801 0.62443 0.81973 0.0
H453 H 0.91369 0.59414 0.78524 0.0
H454 H 0.88698 0.63048 0.88428 0.0
H455 H 0.85664 0.60635 0.92342 0.0
C456 C 0.52658 0.1818 0.20494 0.0
C457 C 0.56382 0.15988 0.20216 0.0
C458 C 0.59666 0.2172 0.15875 0.0
C459 C 0.55433 0.22951 0.15037 0.0
N460 N 0.4791 0.22712 0.16928 0.0
N461 N 0.64098 0.16671 0.19255 0.0
C462 C 0.51957 0.21391 0.17546 0.0
C463 C 0.6014 0.18123 0.18449 0.0
N464 N 0.49901 0.17302 0.23625 0.0
N465 N 0.6315 0.2396 0.14118 0.0
H466 H 0.64501 0.14309 0.21458 0.0
H467 H 0.66972 0.17862 0.17909 0.0
H468 H 0.62797 0.26691 0.12368 0.0
H469 H 0.66365 0.23286 0.14525 0.0
H470 H 0.47275 0.19008 0.24114 0.0
H471 H 0.5064 0.15324 0.26086 0.0
H472 H 0.45145 0.21221 0.18281 0.0
H473 H 0.47255 0.2517 0.14934 0.0
C474 C 0.89619 0.51011 0.20025 0.0
C475 C 0.93927 0.49794 0.20366 0.0
C476 C 0.93986 0.49657 0.12796 0.0
C477 C 0.89446 0.50101 0.12445 0.0
N478 N 0.82728 0.5032 0.15945 0.0
N479 N -0.00429 0.46627 0.16908 0.0
C480 C 0.87186 0.50533 0.16122 0.0
C481 C 0.95932 0.48724 0.16705 0.0
N482 N 0.87903 0.52792 0.23345 0.0
N483 N 0.96518 0.50312 0.09458 0.0
H484 H 0.00888 0.45483 0.19675 0.0
H485 H 0.00911 0.45531 0.14259 0.0
H486 H 0.95348 0.51409 0.0661 0.0
H487 H -0.00091 0.50316 0.09708 0.0
H488 H 0.84926 0.5406 0.23116 0.0
H489 H 0.8966 0.53462 0.26181 0.0
H490 H 0.80938 0.50229 0.186 0.0
H491 H 0.80794 0.49768 0.13192 0.0
C492 C 0.48679 0.85845 0.13027 0.0
C493 C 0.52887 0.84787 0.12224 0.0
C494 C 0.56234 0.90333 0.17188 0.0
C495 C 0.52087 0.91768 0.17541 0.0
N496 N 0.4439 0.91241 0.15403 0.0
N497 N 0.60764 0.86328 0.13134 0.0
C498 C 0.48302 0.89597 0.15385 0.0
C499 C 0.56697 0.8708 0.14226 0.0
N500 N 0.45048 0.83216 0.11587 0.0
N501 N 0.59705 0.92005 0.19757 0.0
H502 H 0.61282 0.8398 0.10984 0.0
H503 H 0.63625 0.88257 0.14118 0.0
H504 H 0.59449 0.9437 0.21973 0.0
H505 H 0.627 0.90777 0.19962 0.0
H506 H 0.41891 0.83573 0.1241 0.0
H507 H 0.45243 0.8042 0.09889 0.0
H508 H 0.41649 0.90063 0.13517 0.0
H509 H 0.43966 0.94022 0.17028 0.0
C510 C 0.20333 0.57456 0.1455 0.0
C511 C 0.19314 0.54008 0.11652 0.0
C512 C 0.14471 0.5018 0.16526 0.0
C513 C 0.15747 0.53467 0.19542 0.0
N514 N 0.2019 0.60002 0.21684 0.0
N515 N 0.1583 0.46865 0.09998 0.0
C516 C 0.1876 0.57051 0.18626 0.0
C517 C 0.16527 0.50293 0.12688 0.0
N518 N 0.2275 0.61132 0.13378 0.0
N519 N 0.11133 0.47049 0.17256 0.0
H520 H 0.17038 0.46886 0.0704 0.0
H521 H 0.14302 0.43877 0.10795 0.0
H522 H 0.09511 0.4686 0.20013 0.0
H523 H 0.09691 0.44853 0.15008 0.0
H524 H 0.23217 0.63935 0.1516 0.0
H525 H 0.24102 0.61464 0.10485 0.0
H526 H 0.22727 0.62453 0.21375 0.0
H527 H 0.19012 0.59837 0.2466 0.0
C528 C 0.86406 0.90121 0.48381 0.0
C529 C 0.84454 0.91702 0.51878 0.0
C530 C 0.8957 0.88297 0.56487 0.0
C531 C 0.90943 0.86101 0.53017 0.0
N532 N 0.90184 0.84507 0.45641 0.0
N533 N 0.83831 0.91851 0.59318 0.0
C534 C 0.89263 0.86922 0.48947 0.0
C535 C 0.85963 0.90704 0.55956 0.0
N536 N 0.8564 0.91768 0.4453 0.0
N537 N 0.91795 0.88189 0.60272 0.0
H538 H 0.81123 0.93545 0.59076 0.0
H539 H 0.84505 0.90786 0.62315 0.0
H540 H 0.94561 0.866 0.60747 0.0
H541 H 0.91195 0.90057 0.62811 0.0
H542 H 0.87305 0.9102 0.41947 0.0
H543 H 0.83712 0.94242 0.44013 0.0
H544 H 0.88643 0.84671 0.42692 0.0
H545 H 0.92172 0.82057 0.45908 0.0
C546 C 0.89585 0.19084 0.46822 0.0
C547 C 0.90842 0.20889 0.50826 0.0
C548 C 0.84718 0.16489 0.53803 0.0
C549 C 0.83539 0.14585 0.49826 0.0
N550 N 0.8518 0.13477 0.42709 0.0
N551 N 0.90197 0.20825 0.58236 0.0
C552 C 0.86084 0.15699 0.4638 0.0
C553 C 0.88587 0.19435 0.54356 0.0
N554 N 0.9165 0.20709 0.43427 0.0
N555 N 0.82058 0.15575 0.57018 0.0
H556 H 0.93017 0.22996 0.58728 0.0
H557 H 0.88974 0.19578 0.60977 0.0
H558 H 0.79241 0.13377 0.56746 0.0
H559 H 0.82459 0.1719 0.59869 0.0
H560 H 0.90567 0.19904 0.40372 0.0
H561 H 0.94328 0.23078 0.43647 0.0
H562 H 0.87167 0.13824 0.40198 0.0
H563 H 0.82591 0.11031 0.42273 0.0
C564 C 0.17051 0.87584 0.55784 0.0
C565 C 0.15261 0.8486 0.52436 0.0
C566 C 0.20242 0.88763 0.4772 0.0
C567 C 0.22389 0.91127 0.51168 0.0
N568 N 0.23179 0.92527 0.58567 0.0
N569 N 0.15225 0.82605 0.45271 0.0
C570 C 0.20858 0.90503 0.55223 0.0
C571 C 0.16867 0.85389 0.48409 0.0
N572 N 0.151 0.87379 0.59498 0.0
N573 N 0.21343 0.89842 0.43779 0.0
H574 H 0.12616 0.80223 0.45618 0.0
H575 H 0.16597 0.82489 0.42399 0.0
H576 H 0.23748 0.92345 0.43175 0.0
H577 H 0.1963 0.8853 0.41104 0.0
H578 H 0.15958 0.89575 0.61923 0.0
H579 H 0.12362 0.85215 0.60042 0.0
H580 H 0.22531 0.91836 0.61642 0.0
H581 H 0.25988 0.94681 0.58294 0.0
C582 C 0.16471 0.17746 0.4857 0.0
C583 C 0.15299 0.1928 0.52451 0.0
C584 C 0.20829 0.15432 0.56083 0.0
C585 C 0.21864 0.13767 0.52211 0.0
N586 N 0.19745 0.12279 0.44967 0.0
N587 N 0.15516 0.1868 0.59924 0.0
C588 C 0.1939 0.14592 0.48514 0.0
C589 C 0.17218 0.17839 0.56221 0.0
N590 N 0.15021 0.19464 0.44935 0.0
N591 N 0.23406 0.14901 0.59591 0.0
H592 H 0.12791 0.20328 0.60128 0.0
H593 H 0.16511 0.17369 0.6273 0.0
H594 H 0.26087 0.13169 0.59619 0.0
H595 H 0.23097 0.16462 0.62401 0.0
H596 H 0.16187 0.18786 0.4206 0.0
H597 H 0.1297 0.21868 0.44806 0.0
H598 H 0.17709 0.12465 0.42296 0.0
H599 H 0.21738 0.0983 0.44843 0.0
loop_
_geom_bond_atom_site_label_1
_geom_bond_atom_site_label_2
_geom_bond_distance
_geom_bond_site_symmetry_2
_ccdc_geom_bond_type
Mg0 O1 2.028 . S
Mg0 O7 1.986 . S
Mg0 O9 2.114 . S
Mg0 O10 2.251 . S
Mg0 O13 2.010 . S
O1 Mg0 2.028 . S
O1 C4 1.250 1_455 S
O2 Mg3 2.028 . S
O2 C4 1.248 . S
Mg3 O2 2.028 . S
Mg3 O8 2.032 . S
Mg3 O10 2.079 1_655 S
C4 O1 1.250 1_655 S
C4 O2 1.248 . S
C5 O6 1.264 . S
C5 O13 1.249 . S
O6 C5 1.264 . S
O7 Mg0 1.986 . S
O7 C11 1.246 . S
O8 Mg3 2.032 . S
O8 C11 1.259 1_655 S
O9 Mg0 2.114 . S
O9 C12 1.252 . S
O10 Mg0 2.251 . S
O10 Mg3 2.079 1_455 S
O10 C12 1.273 . S
C11 O7 1.246 . S
C11 O8 1.259 1_455 S
C12 O9 1.252 . S
C12 O10 1.273 . S
O13 Mg0 2.010 . S
O13 C5 1.249 . S
Mg14 O15 2.028 . S
Mg14 O21 1.986 . S
Mg14 O23 2.114 . S
Mg14 O24 2.251 . S
Mg14 O27 2.010 1_545 S
O15 Mg14 2.028 . S
O15 C18 1.250 . S
O16 Mg17 2.028 . S
O16 C18 1.248 . S
Mg17 O16 2.028 . S
Mg17 O22 2.032 . S
Mg17 O24 2.079 . S
C18 O15 1.250 . S
C18 O16 1.248 . S
C19 O20 1.264 . S
C19 O27 1.249 . S
O20 C19 1.264 . S
O21 Mg14 1.986 . S
O21 C25 1.246 . S
O22 Mg17 2.032 . S
O22 C25 1.259 . S
O23 Mg14 2.114 . S
O23 C26 1.252 . S
O24 Mg14 2.251 . S
O24 Mg17 2.079 . S
O24 C26 1.273 . S
C25 O21 1.246 . S
C25 O22 1.259 . S
C26 O23 1.252 . S
C26 O24 1.273 . S
O27 Mg14 2.010 1_565 S
O27 C19 1.249 . S
Mg28 O29 2.028 . S
Mg28 O35 1.986 . S
Mg28 O37 2.114 . S
Mg28 O38 2.251 . S
Mg28 O41 2.010 1_455 S
O29 Mg28 2.028 . S
O29 C32 1.250 . S
O30 Mg31 2.028 . S
O30 C32 1.248 . S
Mg31 O30 2.028 . S
Mg31 O36 2.032 . S
Mg31 O38 2.079 . S
C32 O29 1.250 . S
C32 O30 1.248 . S
C33 O34 1.264 . S
C33 O41 1.249 . S
O34 C33 1.264 . S
O35 Mg28 1.986 . S
O35 C39 1.246 . S
O36 Mg31 2.032 . S
O36 C39 1.259 . S
O37 Mg28 2.114 . S
O37 C40 1.252 . S
O38 Mg28 2.251 . S
O38 Mg31 2.079 . S
O38 C40 1.273 . S
C39 O35 1.246 . S
C39 O36 1.259 . S
C40 O37 1.252 . S
C40 O38 1.273 . S
O41 Mg28 2.010 1_655 S
O41 C33 1.249 . S
Mg42 O43 2.028 1_545 S
Mg42 O49 1.986 . S
Mg42 O51 2.114 . S
Mg42 O52 2.251 . S
Mg42 O55 2.010 . S
O43 Mg42 2.028 1_565 S
O43 C46 1.250 . S
O44 Mg45 2.028 . S
O44 C46 1.248 . S
Mg45 O44 2.028 . S
Mg45 O50 2.032 . S
Mg45 O52 2.079 1_565 S
C46 O43 1.250 . S
C46 O44 1.248 . S
C47 O48 1.264 . S
C47 O55 1.249 . S
O48 C47 1.264 . S
O49 Mg42 1.986 . S
O49 C53 1.246 . S
O50 Mg45 2.032 . S
O50 C53 1.259 1_565 S
O51 Mg42 2.114 . S
O51 C54 1.252 . S
O52 Mg42 2.251 . S
O52 Mg45 2.079 1_545 S
O52 C54 1.273 . S
C53 O49 1.246 . S
C53 O50 1.259 1_545 S
C54 O51 1.252 . S
C54 O52 1.273 . S
O55 Mg42 2.010 . S
O55 C47 1.249 . S
Mg56 O57 2.028 . S
Mg56 O63 1.986 . S
Mg56 O65 2.114 1_545 S
Mg56 O66 2.251 1_545 S
Mg56 O69 2.010 . S
O57 Mg56 2.028 . S
O57 C60 1.250 . S
O58 Mg59 2.028 . S
O58 C60 1.248 . S
Mg59 O58 2.028 . S
Mg59 O64 2.032 . S
Mg59 O66 2.079 1_545 S
C60 O57 1.250 . S
C60 O58 1.248 . S
C61 O62 1.264 . S
C61 O69 1.249 . S
O62 C61 1.264 . S
O63 Mg56 1.986 . S
O63 C67 1.246 . S
O64 Mg59 2.032 . S
O64 C67 1.259 . S
O65 Mg56 2.114 1_565 S
O65 C68 1.252 . S
O66 Mg56 2.251 1_565 S
O66 Mg59 2.079 1_565 S
O66 C68 1.273 . S
C67 O63 1.246 . S
C67 O64 1.259 . S
C68 O65 1.252 . S
C68 O66 1.273 . S
O69 Mg56 2.010 . S
O69 C61 1.249 . S
Mg70 O71 2.028 . S
Mg70 O77 1.986 . S
Mg70 O79 2.114 . S
Mg70 O80 2.251 . S
Mg70 O83 2.010 . S
O71 Mg70 2.028 . S
O71 C74 1.250 1_455 S
O72 Mg73 2.028 . S
O72 C74 1.248 . S
Mg73 O72 2.028 . S
Mg73 O78 2.032 1_655 S
Mg73 O80 2.079 1_655 S
C74 O71 1.250 1_655 S
C74 O72 1.248 . S
C75 O76 1.264 . S
C75 O83 1.249 . S
O76 C75 1.264 . S
O77 Mg70 1.986 . S
O77 C81 1.246 . S
O78 Mg73 2.032 1_455 S
O78 C81 1.259 . S
O79 Mg70 2.114 . S
O79 C82 1.252 . S
O80 Mg70 2.251 . S
O80 Mg73 2.079 1_455 S
O80 C82 1.273 . S
C81 O77 1.246 . S
C81 O78 1.259 . S
C82 O79 1.252 . S
C82 O80 1.273 . S
O83 Mg70 2.010 . S
O83 C75 1.249 . S
Mg84 O85 2.028 . S
Mg84 O91 1.986 . S
Mg84 O93 2.114 1_545 S
Mg84 O94 2.251 1_545 S
Mg84 O97 2.010 . S
O85 Mg84 2.028 . S
O85 C88 1.250 . S
O86 Mg87 2.028 . S
O86 C88 1.248 . S
Mg87 O86 2.028 . S
Mg87 O92 2.032 . S
Mg87 O94 2.079 1_545 S
C88 O85 1.250 . S
C88 O86 1.248 . S
C89 O90 1.264 . S
C89 O97 1.249 . S
O90 C89 1.264 . S
O91 Mg84 1.986 . S
O91 C95 1.246 . S
O92 Mg87 2.032 . S
O92 C95 1.259 . S
O93 Mg84 2.114 1_565 S
O93 C96 1.252 . S
O94 Mg84 2.251 1_565 S
O94 Mg87 2.079 1_565 S
O94 C96 1.273 . S
C95 O91 1.246 . S
C95 O92 1.259 . S
C96 O93 1.252 . S
C96 O94 1.273 . S
O97 Mg84 2.010 . S
O97 C89 1.249 . S
Mg98 O99 2.028 . S
Mg98 O105 1.986 . S
Mg98 O107 2.114 . S
Mg98 O108 2.251 . S
Mg98 O111 2.010 1_455 S
O99 Mg98 2.028 . S
O99 C102 1.250 . S
O100 Mg101 2.028 . S
O100 C102 1.248 . S
Mg101 O100 2.028 . S
Mg101 O106 2.032 . S
Mg101 O108 2.079 . S
C102 O99 1.250 . S
C102 O100 1.248 . S
C103 O104 1.264 . S
C103 O111 1.249 . S
O104 C103 1.264 . S
O105 Mg98 1.986 . S
O105 C109 1.246 . S
O106 Mg101 2.032 . S
O106 C109 1.259 . S
O107 Mg98 2.114 . S
O107 C110 1.252 . S
O108 Mg98 2.251 . S
O108 Mg101 2.079 . S
O108 C110 1.273 . S
C109 O105 1.246 . S
C109 O106 1.259 . S
C110 O107 1.252 . S
C110 O108 1.273 . S
O111 Mg98 2.010 1_655 S
O111 C103 1.249 . S
Mg112 O113 2.028 . S
Mg112 O119 1.986 . S
Mg112 O121 2.114 1_554 S
Mg112 O122 2.251 1_554 S
Mg112 O125 2.010 . S
O113 Mg112 2.028 . S
O113 C116 1.250 . S
O114 Mg115 2.028 . S
O114 C116 1.248 . S
Mg115 O114 2.028 . S
Mg115 O120 2.032 . S
Mg115 O122 2.079 1_554 S
C116 O113 1.250 . S
C116 O114 1.248 . S
C117 O118 1.264 . S
C117 O125 1.249 . S
O118 C117 1.264 . S
O119 Mg112 1.986 . S
O119 C123 1.246 . S
O120 Mg115 2.032 . S
O120 C123 1.259 . S
O121 Mg112 2.114 1_556 S
O121 C124 1.252 . S
O122 Mg112 2.251 1_556 S
O122 Mg115 2.079 1_556 S
O122 C124 1.273 . S
C123 O119 1.246 . S
C123 O120 1.259 . S
C124 O121 1.252 . S
C124 O122 1.273 . S
O125 Mg112 2.010 . S
O125 C117 1.249 . S
Mg126 O127 2.028 . S
Mg126 O133 1.986 1_554 S
Mg126 O135 2.114 . S
Mg126 O136 2.251 . S
Mg126 O139 2.010 . S
O127 Mg126 2.028 . S
O127 C130 1.250 . S
O128 Mg129 2.028 . S
O128 C130 1.248 . S
Mg129 O128 2.028 . S
Mg129 O134 2.032 1_554 S
Mg129 O136 2.079 . S
C130 O127 1.250 . S
C130 O128 1.248 . S
C131 O132 1.264 . S
C131 O139 1.249 . S
O132 C131 1.264 . S
O133 Mg126 1.986 1_556 S
O133 C137 1.246 . S
O134 Mg129 2.032 1_556 S
O134 C137 1.259 . S
O135 Mg126 2.114 . S
O135 C138 1.252 . S
O136 Mg126 2.251 . S
O136 Mg129 2.079 . S
O136 C138 1.273 . S
C137 O133 1.246 . S
C137 O134 1.259 . S
C138 O135 1.252 . S
C138 O136 1.273 . S
O139 Mg126 2.010 . S
O139 C131 1.249 . S
Mg140 O141 2.028 . S
Mg140 O147 1.986 . S
Mg140 O149 2.114 1_554 S
Mg140 O150 2.251 . S
Mg140 O153 2.010 . S
O141 Mg140 2.028 . S
O141 C144 1.250 . S
O142 Mg143 2.028 . S
O142 C144 1.248 . S
Mg143 O142 2.028 . S
Mg143 O148 2.032 . S
Mg143 O150 2.079 . S
C144 O141 1.250 . S
C144 O142 1.248 . S
C145 O146 1.264 . S
C145 O153 1.249 . S
O146 C145 1.264 . S
O147 Mg140 1.986 . S
O147 C151 1.246 . S
O148 Mg143 2.032 . S
O148 C151 1.259 . S
O149 Mg140 2.114 1_556 S
O149 C152 1.252 . S
O150 Mg140 2.251 . S
O150 Mg143 2.079 . S
O150 C152 1.273 1_554 S
C151 O147 1.246 . S
C151 O148 1.259 . S
C152 O149 1.252 . S
C152 O150 1.273 1_556 S
O153 Mg140 2.010 . S
O153 C145 1.249 . S
Mg154 O155 2.028 . S
Mg154 O161 1.986 1_554 S
Mg154 O163 2.114 . S
Mg154 O164 2.251 . S
Mg154 O167 2.010 . S
O155 Mg154 2.028 . S
O155 C158 1.250 . S
O156 Mg157 2.028 . S
O156 C158 1.248 . S
Mg157 O156 2.028 . S
Mg157 O162 2.032 1_554 S
Mg157 O164 2.079 . S
C158 O155 1.250 . S
C158 O156 1.248 . S
C159 O160 1.264 . S
C159 O167 1.249 . S
O160 C159 1.264 . S
O161 Mg154 1.986 1_556 S
O161 C165 1.246 . S
O162 Mg157 2.032 1_556 S
O162 C165 1.259 . S
O163 Mg154 2.114 . S
O163 C166 1.252 . S
O164 Mg154 2.251 . S
O164 Mg157 2.079 . S
O164 C166 1.273 . S
C165 O161 1.246 . S
C165 O162 1.259 . S
C166 O163 1.252 . S
C166 O164 1.273 . S
O167 Mg154 2.010 . S
O167 C159 1.249 . S
C168 C169 1.363 . S
C168 C174 1.379 . S
C168 N176 1.357 1_455 S
C169 C168 1.363 . S
C169 C175 1.363 . S
C170 C171 1.363 . S
C170 C175 1.379 . S
C170 N177 1.356 . S
C171 C170 1.363 . S
C171 C174 1.363 . S
N172 C174 1.356 . S
N172 H184 0.984 1_455 S
N172 H185 0.985 . S
N173 C175 1.356 . S
N173 H178 0.984 . S
N173 H179 0.985 . S
C174 C168 1.379 . S
C174 C171 1.363 . S
C174 N172 1.356 . S
C175 C169 1.363 . S
C175 C170 1.379 . S
C175 N173 1.356 . S
N176 C168 1.357 1_655 S
N176 H182 0.983 . S
N176 H183 0.985 1_655 S
N177 C170 1.356 . S
N177 H180 0.984 . S
N177 H181 0.985 . S
H178 N173 0.984 . S
H179 N173 0.985 . S
H180 N177 0.984 . S
H181 N177 0.985 . S
H182 N176 0.983 . S
H183 N176 0.985 1_455 S
H184 N172 0.984 1_655 S
H185 N172 0.985 . S
C186 C187 1.363 . S
C186 C192 1.379 . S
C186 N194 1.356 . S
C187 C186 1.363 . S
C187 C193 1.363 . S
C188 C189 1.363 . S
C188 C193 1.379 . S
C188 N195 1.356 1_545 S
C189 C188 1.363 . S
C189 C192 1.363 . S
N190 C192 1.356 . S
N190 H202 0.984 . S
N190 H203 0.985 . S
N191 C193 1.356 1_565 S
N191 H196 0.979 1_565 S
N191 H197 0.985 . S
C192 C186 1.379 . S
C192 C189 1.363 . S
C192 N190 1.356 . S
C193 C187 1.363 . S
C193 C188 1.379 . S
C193 N191 1.356 1_545 S
N194 C186 1.356 . S
N194 H200 0.984 . S
N194 H201 0.984 . S
N195 C188 1.356 1_565 S
N195 H198 0.984 . S
N195 H199 0.985 . S
H196 N191 0.979 1_545 S
H197 N191 0.985 . S
H198 N195 0.984 . S
H199 N195 0.985 . S
H200 N194 0.984 . S
H201 N194 0.984 . S
H202 N190 0.984 . S
H203 N190 0.985 . S
C204 C205 1.363 . S
C204 C210 1.379 . S
C204 N212 1.356 . S
C205 C204 1.363 . S
C205 C211 1.363 . S
C206 C207 1.363 . S
C206 C211 1.379 . S
C206 N213 1.356 . S
C207 C206 1.363 . S
C207 C210 1.363 . S
N208 C210 1.356 . S
N208 H220 0.984 . S
N208 H221 0.985 . S
N209 C211 1.356 . S
N209 H214 0.984 . S
N209 H215 0.985 . S
C210 C204 1.379 . S
C210 C207 1.363 . S
C210 N208 1.356 . S
C211 C205 1.363 . S
C211 C206 1.379 . S
C211 N209 1.356 . S
N212 C204 1.356 . S
N212 H218 0.984 . S
N212 H219 0.984 . S
N213 C206 1.356 . S
N213 H216 0.984 . S
N213 H217 0.985 . S
H214 N209 0.984 . S
H215 N209 0.985 . S
H216 N213 0.984 . S
H217 N213 0.985 . S
H218 N212 0.984 . S
H219 N212 0.984 . S
H220 N208 0.984 . S
H221 N208 0.985 . S
C222 C223 1.363 1_565 S
C222 C228 1.379 . S
C222 N230 1.356 . S
C223 C222 1.363 1_545 S
C223 C229 1.363 . S
C224 C225 1.363 . S
C224 C229 1.379 . S
C224 N231 1.356 . S
C225 C224 1.363 . S
C225 C228 1.363 1_545 S
N226 C228 1.356 . S
N226 H238 0.984 . S
N226 H239 0.985 . S
N227 C229 1.356 . S
N227 H232 0.984 . S
N227 H233 0.985 . S
C228 C222 1.379 . S
C228 C225 1.363 1_565 S
C228 N226 1.356 . S
C229 C223 1.363 . S
C229 C224 1.379 . S
C229 N227 1.356 . S
N230 C222 1.356 . S
N230 H236 0.984 . S
N230 H237 0.984 . S
N231 C224 1.356 . S
N231 H234 0.984 . S
N231 H235 0.985 . S
H232 N227 0.984 . S
H233 N227 0.985 . S
H234 N231 0.984 . S
H235 N231 0.985 . S
H236 N230 0.984 . S
H237 N230 0.984 . S
H238 N226 0.984 . S
H239 N226 0.985 . S
C240 C241 1.363 . S
C240 C246 1.379 . S
C240 N248 1.356 . S
C241 C240 1.363 . S
C241 C247 1.363 . S
C242 C243 1.363 . S
C242 C247 1.379 . S
C242 N249 1.356 . S
C243 C242 1.363 . S
C243 C246 1.363 . S
N244 C246 1.356 . S
N244 H256 0.984 . S
N244 H257 0.985 . S
N245 C247 1.356 . S
N245 H250 0.984 . S
N245 H251 0.985 . S
C246 C240 1.379 . S
C246 C243 1.363 . S
C246 N244 1.356 . S
C247 C241 1.363 . S
C247 C242 1.379 . S
C247 N245 1.356 . S
N248 C240 1.356 . S
N248 H254 0.984 1_455 S
N248 H255 0.984 . S
N249 C242 1.356 . S
N249 H252 0.984 . S
N249 H253 0.985 . S
H250 N245 0.984 . S
H251 N245 0.985 . S
H252 N249 0.984 . S
H253 N249 0.985 . S
H254 N248 0.984 1_655 S
H255 N248 0.984 . S
H256 N244 0.984 . S
H257 N244 0.985 . S
C258 C259 1.363 . S
C258 C264 1.379 . S
C258 N266 1.356 . S
C259 C258 1.363 . S
C259 C265 1.363 1_545 S
C260 C261 1.363 1_565 S
C260 C265 1.379 . S
C260 N267 1.356 . S
C261 C260 1.363 1_545 S
C261 C264 1.363 . S
N262 C264 1.356 . S
N262 H274 0.984 . S
N262 H275 0.985 . S
N263 C265 1.356 . S
N263 H268 0.984 . S
N263 H269 0.985 . S
C264 C258 1.379 . S
C264 C261 1.363 . S
C264 N262 1.356 . S
C265 C259 1.363 1_565 S
C265 C260 1.379 . S
C265 N263 1.356 . S
N266 C258 1.356 . S
N266 H272 0.984 . S
N266 H273 0.984 . S
N267 C260 1.356 . S
N267 H270 0.984 . S
N267 H271 0.985 . S
H268 N263 0.984 . S
H269 N263 0.985 . S
H270 N267 0.984 . S
H271 N267 0.985 . S
H272 N266 0.984 . S
H273 N266 0.984 . S
H274 N262 0.984 . S
H275 N262 0.985 . S
C276 C277 1.363 . S
C276 C282 1.379 . S
C276 N284 1.356 . S
C277 C276 1.363 . S
C277 C283 1.363 . S
C278 C279 1.363 . S
C278 C283 1.379 . S
C278 N285 1.356 1_455 S
C279 C278 1.363 . S
C279 C282 1.363 . S
N280 C282 1.356 . S
N280 H292 0.984 . S
N280 H293 0.985 . S
N281 C283 1.356 1_655 S
N281 H286 0.984 . S
N281 H287 0.985 . S
C282 C276 1.379 . S
C282 C279 1.363 . S
C282 N280 1.356 . S
C283 C277 1.363 . S
C283 C278 1.379 . S
C283 N281 1.356 1_455 S
N284 C276 1.356 . S
N284 H290 0.984 . S
N284 H291 0.984 . S
N285 C278 1.356 1_655 S
N285 H288 0.984 . S
N285 H289 0.985 . S
H286 N281 0.984 . S
H287 N281 0.985 . S
H288 N285 0.984 . S
H289 N285 0.985 . S
H290 N284 0.984 . S
H291 N284 0.984 . S
H292 N280 0.984 . S
H293 N280 0.985 . S
C294 C295 1.363 . S
C294 C300 1.379 . S
C294 N302 1.356 . S
C295 C294 1.363 . S
C295 C301 1.363 . S
C296 C297 1.363 . S
C296 C301 1.379 . S
C296 N303 1.356 1_545 S
C297 C296 1.363 . S
C297 C300 1.363 . S
N298 C300 1.356 . S
N298 H310 0.984 . S
N298 H311 0.985 . S
N299 C301 1.356 1_565 S
N299 H304 0.984 . S
N299 H305 0.985 . S
C300 C294 1.379 . S
C300 C297 1.363 . S
C300 N298 1.356 . S
C301 C295 1.363 . S
C301 C296 1.379 . S
C301 N299 1.356 1_545 S
N302 C294 1.356 . S
N302 H308 0.984 . S
N302 H309 0.984 . S
N303 C296 1.356 1_565 S
N303 H306 0.984 1_565 S
N303 H307 0.985 . S
H304 N299 0.984 . S
H305 N299 0.985 . S
H306 N303 0.984 1_545 S
H307 N303 0.985 . S
H308 N302 0.984 . S
H309 N302 0.984 . S
H310 N298 0.984 . S
H311 N298 0.985 . S
C312 C313 1.363 . S
C312 C318 1.379 . S
C312 N320 1.356 . S
C313 C312 1.363 . S
C313 C319 1.363 1_554 S
C314 C315 1.363 1_556 S
C314 C319 1.379 . S
C314 N321 1.356 . S
C315 C314 1.363 1_554 S
C315 C318 1.363 . S
N316 C318 1.356 . S
N316 H328 0.984 . S
N316 H329 0.985 . S
N317 C319 1.356 . S
N317 H322 0.984 . S
N317 H323 0.985 . S
C318 C312 1.379 . S
C318 C315 1.363 . S
C318 N316 1.356 . S
C319 C313 1.363 1_556 S
C319 C314 1.379 . S
C319 N317 1.356 . S
N320 C312 1.356 . S
N320 H326 0.984 . S
N320 H327 0.984 . S
N321 C314 1.356 . S
N321 H324 0.984 . S
N321 H325 0.985 . S
H322 N317 0.984 . S
H323 N317 0.985 . S
H324 N321 0.984 . S
H325 N321 0.985 . S
H326 N320 0.984 . S
H327 N320 0.984 . S
H328 N316 0.984 . S
H329 N316 0.985 . S
C330 C331 1.363 . S
C330 C336 1.379 . S
C330 N338 1.356 . S
C331 C330 1.363 . S
C331 C337 1.363 1_554 S
C332 C333 1.363 1_556 S
C332 C337 1.379 . S
C332 N339 1.356 . S
C333 C332 1.363 1_554 S
C333 C336 1.363 . S
N334 C336 1.356 . S
N334 H346 0.984 . S
N334 H347 0.985 . S
N335 C337 1.356 . S
N335 H340 0.984 . S
N335 H341 0.985 . S
C336 C330 1.379 . S
C336 C333 1.363 . S
C336 N334 1.356 . S
C337 C331 1.363 1_556 S
C337 C332 1.379 . S
C337 N335 1.356 . S
N338 C330 1.356 . S
N338 H344 0.984 . S
N338 H345 0.984 . S
N339 C332 1.356 . S
N339 H342 0.984 . S
N339 H343 0.985 . S
H340 N335 0.984 . S
H341 N335 0.985 . S
H342 N339 0.984 . S
H343 N339 0.985 . S
H344 N338 0.984 . S
H345 N338 0.984 . S
H346 N334 0.984 . S
H347 N334 0.985 . S
C348 C349 1.363 . S
C348 C354 1.379 . S
C348 N356 1.356 1_554 S
C349 C348 1.363 . S
C349 C355 1.363 . S
C350 C351 1.363 . S
C350 C355 1.379 . S
C350 N357 1.356 . S
C351 C350 1.363 . S
C351 C354 1.363 . S
N352 C354 1.356 1_556 S
N352 H364 0.984 . S
N352 H365 0.985 . S
N353 C355 1.356 . S
N353 H358 0.984 . S
N353 H359 0.985 . S
C354 C348 1.379 . S
C354 C351 1.363 . S
C354 N352 1.356 1_554 S
C355 C349 1.363 . S
C355 C350 1.379 . S
C355 N353 1.356 . S
N356 C348 1.356 1_556 S
N356 H362 0.984 . S
N356 H363 0.984 . S
N357 C350 1.356 . S
N357 H360 0.984 . S
N357 H361 0.985 . S
H358 N353 0.984 . S
H359 N353 0.985 . S
H360 N357 0.984 . S
H361 N357 0.985 . S
H362 N356 0.984 . S
H363 N356 0.984 . S
H364 N352 0.984 . S
H365 N352 0.985 . S
C366 C367 1.363 . S
C366 C372 1.379 . S
C366 N374 1.356 1_554 S
C367 C366 1.363 . S
C367 C373 1.363 . S
C368 C369 1.363 . S
C368 C373 1.379 . S
C368 N375 1.356 . S
C369 C368 1.363 . S
C369 C372 1.363 . S
N370 C372 1.356 1_556 S
N370 H382 0.984 . S
N370 H383 0.985 . S
N371 C373 1.356 . S
N371 H376 0.984 . S
N371 H377 0.985 . S
C372 C366 1.379 . S
C372 C369 1.363 . S
C372 N370 1.356 1_554 S
C373 C367 1.363 . S
C373 C368 1.379 . S
C373 N371 1.356 . S
N374 C366 1.356 1_556 S
N374 H380 0.984 . S
N374 H381 0.984 1_556 S
N375 C368 1.356 . S
N375 H378 0.984 . S
N375 H379 0.985 . S
H376 N371 0.984 . S
H377 N371 0.985 . S
H378 N375 0.984 . S
H379 N375 0.985 . S
H380 N374 0.984 . S
H381 N374 0.984 1_554 S
H382 N370 0.984 . S
H383 N370 0.985 . S
C384 C385 1.363 . S
C384 C390 1.379 . S
C384 N392 1.356 . S
C385 C384 1.363 . S
C385 C391 1.363 . S
C386 C387 1.363 . S
C386 C391 1.379 . S
C386 N393 1.356 . S
C387 C386 1.363 . S
C387 C390 1.363 . S
N388 C390 1.356 . S
N388 H400 0.984 . S
N388 H401 0.985 . S
N389 C391 1.356 . S
N389 H394 0.984 . S
N389 H395 0.985 . S
C390 C384 1.379 . S
C390 C387 1.363 . S
C390 N388 1.356 . S
C391 C385 1.363 . S
C391 C386 1.379 . S
C391 N389 1.356 . S
N392 C384 1.356 . S
N392 H398 0.984 . S
N392 H399 0.984 . S
N393 C386 1.356 . S
N393 H396 0.984 . S
N393 H397 0.985 . S
H394 N389 0.984 . S
H395 N389 0.985 . S
H396 N393 0.984 . S
H397 N393 0.985 . S
H398 N392 0.984 . S
H399 N392 0.984 . S
H400 N388 0.984 . S
H401 N388 0.985 . S
C402 C403 1.363 . S
C402 C408 1.379 . S
C402 N410 1.356 . S
C403 C402 1.363 . S
C403 C409 1.363 . S
C404 C405 1.363 . S
C404 C409 1.379 . S
C404 N411 1.356 . S
C405 C404 1.363 . S
C405 C408 1.363 . S
N406 C408 1.356 . S
N406 H418 0.984 . S
N406 H419 0.985 . S
N407 C409 1.356 . S
N407 H412 0.984 . S
N407 H413 0.985 . S
C408 C402 1.379 . S
C408 C405 1.363 . S
C408 N406 1.356 . S
C409 C403 1.363 . S
C409 C404 1.379 . S
C409 N407 1.356 . S
N410 C402 1.356 . S
N410 H416 0.984 . S
N410 H417 0.984 . S
N411 C404 1.356 . S
N411 H414 0.984 . S
N411 H415 0.985 . S
H412 N407 0.984 . S
H413 N407 0.985 . S
H414 N411 0.984 . S
H415 N411 0.985 . S
H416 N410 0.984 . S
H417 N410 0.984 . S
H418 N406 0.984 . S
H419 N406 0.985 . S
C420 C421 1.363 . S
C420 C426 1.379 . S
C420 N428 1.356 . S
C421 C420 1.363 . S
C421 C427 1.363 . S
C422 C423 1.363 . S
C422 C427 1.379 . S
C422 N429 1.356 . S
C423 C422 1.363 . S
C423 C426 1.363 . S
N424 C426 1.356 . S
N424 H436 0.984 . S
N424 H437 0.985 . S
N425 C427 1.356 . S
N425 H430 0.984 . S
N425 H431 0.985 . S
C426 C420 1.379 . S
C426 C423 1.363 . S
C426 N424 1.356 . S
C427 C421 1.363 . S
C427 C422 1.379 . S
C427 N425 1.356 . S
N428 C420 1.356 . S
N428 H434 0.984 . S
N428 H435 0.984 . S
N429 C422 1.356 . S
N429 H432 0.984 . S
N429 H433 0.985 . S
H430 N425 0.984 . S
H431 N425 0.985 . S
H432 N429 0.984 . S
H433 N429 0.985 . S
H434 N428 0.984 . S
H435 N428 0.984 . S
H436 N424 0.984 . S
H437 N424 0.985 . S
C438 C439 1.363 . S
C438 C444 1.379 . S
C438 N446 1.356 . S
C439 C438 1.363 . S
C439 C445 1.363 . S
C440 C441 1.363 . S
C440 C445 1.379 . S
C440 N447 1.356 . S
C441 C440 1.363 . S
C441 C444 1.363 . S
N442 C444 1.356 . S
N442 H454 0.984 . S
N442 H455 0.985 . S
N443 C445 1.356 . S
N443 H448 0.984 . S
N443 H449 0.985 . S
C444 C438 1.379 . S
C444 C441 1.363 . S
C444 N442 1.356 . S
C445 C439 1.363 . S
C445 C440 1.379 . S
C445 N443 1.356 . S
N446 C438 1.356 . S
N446 H452 0.984 . S
N446 H453 0.984 . S
N447 C440 1.356 . S
N447 H450 0.984 . S
N447 H451 0.985 . S
H448 N443 0.984 . S
H449 N443 0.985 . S
H450 N447 0.984 . S
H451 N447 0.985 . S
H452 N446 0.984 . S
H453 N446 0.984 . S
H454 N442 0.984 . S
H455 N442 0.985 . S
C456 C457 1.363 . S
C456 C462 1.379 . S
C456 N464 1.356 . S
C457 C456 1.363 . S
C457 C463 1.363 . S
C458 C459 1.363 . S
C458 C463 1.379 . S
C458 N465 1.356 . S
C459 C458 1.363 . S
C459 C462 1.363 . S
N460 C462 1.356 . S
N460 H472 0.984 . S
N460 H473 0.985 . S
N461 C463 1.356 . S
N461 H466 0.984 . S
N461 H467 0.985 . S
C462 C456 1.379 . S
C462 C459 1.363 . S
C462 N460 1.356 . S
C463 C457 1.363 . S
C463 C458 1.379 . S
C463 N461 1.356 . S
N464 C456 1.356 . S
N464 H470 0.984 . S
N464 H471 0.984 . S
N465 C458 1.356 . S
N465 H468 0.984 . S
N465 H469 0.985 . S
H466 N461 0.984 . S
H467 N461 0.985 . S
H468 N465 0.984 . S
H469 N465 0.985 . S
H470 N464 0.984 . S
H471 N464 0.984 . S
H472 N460 0.984 . S
H473 N460 0.985 . S
C474 C475 1.363 . S
C474 C480 1.379 . S
C474 N482 1.356 . S
C475 C474 1.363 . S
C475 C481 1.363 . S
C476 C477 1.363 . S
C476 C481 1.379 . S
C476 N483 1.356 . S
C477 C476 1.363 . S
C477 C480 1.363 . S
N478 C480 1.356 . S
N478 H490 0.984 . S
N478 H491 0.985 . S
N479 C481 1.356 . S
N479 H484 0.984 1_655 S
N479 H485 0.985 . S
C480 C474 1.379 . S
C480 C477 1.363 . S
C480 N478 1.356 . S
C481 C475 1.363 . S
C481 C476 1.379 . S
C481 N479 1.356 . S
N482 C474 1.356 . S
N482 H488 0.984 . S
N482 H489 0.984 . S
N483 C476 1.356 . S
N483 H486 0.984 . S
N483 H487 0.985 . S
H484 N479 0.984 1_455 S
H485 N479 0.985 . S
H486 N483 0.984 . S
H487 N483 0.985 . S
H488 N482 0.984 . S
H489 N482 0.984 . S
H490 N478 0.984 . S
H491 N478 0.985 . S
C492 C493 1.363 . S
C492 C498 1.379 . S
C492 N500 1.356 . S
C493 C492 1.363 . S
C493 C499 1.363 . S
C494 C495 1.363 . S
C494 C499 1.379 . S
C494 N501 1.356 . S
C495 C494 1.363 . S
C495 C498 1.363 . S
N496 C498 1.356 . S
N496 H508 0.984 . S
N496 H509 0.985 . S
N497 C499 1.356 . S
N497 H502 0.984 . S
N497 H503 0.985 . S
C498 C492 1.379 . S
C498 C495 1.363 . S
C498 N496 1.356 . S
C499 C493 1.363 . S
C499 C494 1.379 . S
C499 N497 1.356 . S
N500 C492 1.356 . S
N500 H506 0.984 . S
N500 H507 0.984 . S
N501 C494 1.356 . S
N501 H504 0.984 . S
N501 H505 0.985 . S
H502 N497 0.984 . S
H503 N497 0.985 . S
H504 N501 0.984 . S
H505 N501 0.985 . S
H506 N500 0.984 . S
H507 N500 0.984 . S
H508 N496 0.984 . S
H509 N496 0.985 . S
C510 C511 1.363 . S
C510 C516 1.379 . S
C510 N518 1.356 . S
C511 C510 1.363 . S
C511 C517 1.363 . S
C512 C513 1.363 . S
C512 C517 1.379 . S
C512 N519 1.356 . S
C513 C512 1.363 . S
C513 C516 1.363 . S
N514 C516 1.356 . S
N514 H526 0.984 . S
N514 H527 0.985 . S
N515 C517 1.356 . S
N515 H520 0.984 . S
N515 H521 0.985 . S
C516 C510 1.379 . S
C516 C513 1.363 . S
C516 N514 1.356 . S
C517 C511 1.363 . S
C517 C512 1.379 . S
C517 N515 1.356 . S
N518 C510 1.356 . S
N518 H524 0.984 . S
N518 H525 0.984 . S
N519 C512 1.356 . S
N519 H522 0.984 . S
N519 H523 0.985 . S
H520 N515 0.984 . S
H521 N515 0.985 . S
H522 N519 0.984 . S
H523 N519 0.985 . S
H524 N518 0.984 . S
H525 N518 0.984 . S
H526 N514 0.984 . S
H527 N514 0.985 . S
C528 C529 1.363 . S
C528 C534 1.379 . S
C528 N536 1.356 . S
C529 C528 1.363 . S
C529 C535 1.363 . S
C530 C531 1.363 . S
C530 C535 1.379 . S
C530 N537 1.356 . S
C531 C530 1.363 . S
C531 C534 1.363 . S
N532 C534 1.356 . S
N532 H544 0.984 . S
N532 H545 0.985 . S
N533 C535 1.356 . S
N533 H538 0.984 . S
N533 H539 0.985 . S
C534 C528 1.379 . S
C534 C531 1.363 . S
C534 N532 1.356 . S
C535 C529 1.363 . S
C535 C530 1.379 . S
C535 N533 1.356 . S
N536 C528 1.356 . S
N536 H542 0.984 . S
N536 H543 0.984 . S
N537 C530 1.356 . S
N537 H540 0.991 . S
N537 H541 0.985 . S
H538 N533 0.984 . S
H539 N533 0.985 . S
H540 N537 0.991 . S
H541 N537 0.985 . S
H542 N536 0.984 . S
H543 N536 0.984 . S
H544 N532 0.984 . S
H545 N532 0.985 . S
C546 C547 1.363 . S
C546 C552 1.379 . S
C546 N554 1.356 . S
C547 C546 1.363 . S
C547 C553 1.363 . S
C548 C549 1.363 . S
C548 C553 1.379 . S
C548 N555 1.356 . S
C549 C548 1.363 . S
C549 C552 1.363 . S
N550 C552 1.356 . S
N550 H562 0.984 . S
N550 H563 0.985 . S
N551 C553 1.356 . S
N551 H556 0.984 . S
N551 H557 0.985 . S
C552 C546 1.379 . S
C552 C549 1.363 . S
C552 N550 1.356 . S
C553 C547 1.363 . S
C553 C548 1.379 . S
C553 N551 1.356 . S
N554 C546 1.356 . S
N554 H560 0.984 . S
N554 H561 0.984 . S
N555 C548 1.356 . S
N555 H558 0.984 . S
N555 H559 0.985 . S
H556 N551 0.984 . S
H557 N551 0.985 . S
H558 N555 0.984 . S
H559 N555 0.985 . S
H560 N554 0.984 . S
H561 N554 0.984 . S
H562 N550 0.984 . S
H563 N550 0.985 . S
C564 C565 1.363 . S
C564 C570 1.379 . S
C564 N572 1.356 . S
C565 C564 1.363 . S
C565 C571 1.363 . S
C566 C567 1.363 . S
C566 C571 1.379 . S
C566 N573 1.356 . S
C567 C566 1.363 . S
C567 C570 1.363 . S
N568 C570 1.356 . S
N568 H580 0.984 . S
N568 H581 0.985 . S
N569 C571 1.356 . S
N569 H574 0.984 . S
N569 H575 0.985 . S
C570 C564 1.379 . S
C570 C567 1.363 . S
C570 N568 1.356 . S
C571 C565 1.363 . S
C571 C566 1.379 . S
C571 N569 1.356 . S
N572 C564 1.356 . S
N572 H578 0.984 . S
N572 H579 0.984 . S
N573 C566 1.356 . S
N573 H576 0.984 . S
N573 H577 0.985 . S
H574 N569 0.984 . S
H575 N569 0.985 . S
H576 N573 0.984 . S
H577 N573 0.985 . S
H578 N572 0.984 . S
H579 N572 0.984 . S
H580 N568 0.984 . S
H581 N568 0.985 . S
C582 C583 1.363 . S
C582 C588 1.379 . S
C582 N590 1.356 . S
C583 C582 1.363 . S
C583 C589 1.363 . S
C584 C585 1.363 . S
C584 C589 1.379 . S
C584 N591 1.356 . S
C585 C584 1.363 . S
C585 C588 1.363 . S
N586 C588 1.356 . S
N586 H598 0.984 . S
N586 H599 0.985 . S
N587 C589 1.356 . S
N587 H592 0.984 . S
N587 H593 0.985 . S
C588 C582 1.379 . S
C588 C585 1.363 . S
C588 N586 1.356 . S
C589 C583 1.363 . S
C589 C584 1.379 . S
C589 N587 1.356 . S
N590 C582 1.356 . S
N590 H596 0.984 . S
N590 H597 0.984 . S
N591 C584 1.356 . S
N591 H594 0.984 . S
N591 H595 0.985 . S
H592 N587 0.984 . S
H593 N587 0.985 . S
H594 N591 0.984 . S
H595 N591 0.985 . S
H596 N590 0.984 . S
H597 N590 0.984 . S
H598 N586 0.984 . S
H599 N586 0.985 . S
C169 C11 1.351 . S
C171 C82 1.377 . S
C187 C26 1.379 . S
C189 C60 1.369 . S
C205 C81 1.276 . S
C207 C39 1.278 . S
C223 C54 1.446 . S
C225 C61 1.275 . S
C241 C109 1.378 . S
C243 C40 1.406 . S
C259 C88 1.289 . S
C261 C53 1.271 . S
C277 C12 1.441 . S
C279 C110 1.443 . S
C295 C89 1.203 . S
C297 C25 1.337 . S
C313 C131 1.218 . S
C315 C117 1.226 . S
C331 C116 1.291 . S
C333 C158 1.291 . S
C349 C130 1.252 . S
C351 C144 1.255 . S
C367 C145 1.248 . S
C369 C159 1.249 . S
C385 C165 1.351 . S
C387 C96 1.377 . S
C403 C124 1.379 . S
C405 C102 1.369 . S
C421 C95 1.276 . S
C423 C137 1.278 . S
C439 C103 1.275 . S
C441 C152 1.446 . S
C457 C67 1.378 . S
C459 C138 1.406 . S
C475 C74 1.289 . S
C477 C151 1.271 . S
C493 C166 1.441 . S
C495 C68 1.443 . S
C511 C123 1.337 . S
C513 C75 1.203 . S
C529 C19 1.226 . S
C531 C33 1.218 . S
C547 C4 1.291 . S
C549 C18 1.291 . S
C565 C32 1.252 . S
C567 C46 1.255 . S
C583 C5 1.249 . S
C585 C47 1.248 . S
