# Generated by pormake.
# Topology ukg, (4)-cn, num edge types: 1
# Building blocks:
#     Node 0, Type 0, BuildingBlock: KOZSID_clean_sbu_0, # of connection points: 4
#     Node 1, Type 0, BuildingBlock: KOZSID_clean_sbu_0, # of connection points: 4
#     Node 2, Type 0, BuildingBlock: KOZSID_clean_sbu_0, # of connection points: 4
#     Node 3, Type 0, BuildingBlock: KOZSID_clean_sbu_0, # of connection points: 4
#     Node 4, Type 0, BuildingBlock: KOZSID_clean_sbu_0, # of connection points: 4
#     Node 5, Type 0, BuildingBlock: KOZSID_clean_sbu_0, # of connection points: 4
#     Node 6, Type 0, BuildingBlock: KOZSID_clean_sbu_0, # of connection points: 4
#     Node 7, Type 0, BuildingBlock: KOZSID_clean_sbu_0, # of connection points: 4
#     Edge 8, Type (0, 0), BuildingBlock: AJUNOK_clean_linker_0, # of connection points: 2
#     Edge 9, Type (0, 0), BuildingBlock: AJUNOK_clean_linker_0, # of connection points: 2
#     Edge 10, Type (0, 0), BuildingBlock: AJUNOK_clean_linker_0, # of connection points: 2
#     Edge 11, Type (0, 0), BuildingBlock: AJUNOK_clean_linker_0, # of connection points: 2
#     Edge 12, Type (0, 0), BuildingBlock: AJUNOK_clean_linker_0, # of connection points: 2
#     Edge 13, Type (0, 0), BuildingBlock: AJUNOK_clean_linker_0, # of connection points: 2
#     Edge 14, Type (0, 0), BuildingBlock: AJUNOK_clean_linker_0, # of connection points: 2
#     Edge 15, Type (0, 0), BuildingBlock: AJUNOK_clean_linker_0, # of connection points: 2
#     Edge 16, Type (0, 0), BuildingBlock: AJUNOK_clean_linker_0, # of connection points: 2
#     Edge 17, Type (0, 0), BuildingBlock: AJUNOK_clean_linker_0, # of connection points: 2
#     Edge 18, Type (0, 0), BuildingBlock: AJUNOK_clean_linker_0, # of connection points: 2
#     Edge 19, Type (0, 0), BuildingBlock: AJUNOK_clean_linker_0, # of connection points: 2
#     Edge 20, Type (0, 0), BuildingBlock: AJUNOK_clean_linker_0, # of connection points: 2
#     Edge 21, Type (0, 0), BuildingBlock: AJUNOK_clean_linker_0, # of connection points: 2
#     Edge 22, Type (0, 0), BuildingBlock: AJUNOK_clean_linker_0, # of connection points: 2
#     Edge 23, Type (0, 0), BuildingBlock: AJUNOK_clean_linker_0, # of connection points: 2
# Relax obj value: 0.110
# Max RMSD: 0.261
# Mean RMSD: 0.247
data_MOF--net-ukg--node1-KOZSID_clean_sbu_0--edge1-AJUNOK_clean_linker_0
_symmetry_space_group_name_H-M    P1
_symmetry_Int_Tables_number       1
_symmetry_cell_setting            triclinic
loop_
_symmetry_equiv_pos_as_xyz
'x, y, z'
_cell_length_a     27.730242
_cell_length_b     27.673943
_cell_length_c     37.852771
_cell_angle_alpha  90.414394
_cell_angle_beta   89.551119
_cell_angle_gamma 89.754779
loop_
_atom_site_label
_atom_site_type_symbol
_atom_site_fract_x
_atom_site_fract_y
_atom_site_fract_z
_atom_type_partial_charge
C0 C 0.93964 0.6348 0.17725 0.0
C1 C 0.90009 0.66023 0.16478 0.0
C2 C 0.91641 0.70487 0.15517 0.0
C3 C 0.96491 0.70412 0.16197 0.0
N4 N 0.98054 0.66157 0.17476 0.0
Co5 Co 0.04819 0.64663 0.18896 0.0
N6 N 0.07443 0.70578 0.16541 0.0
C7 C 0.04776 0.74327 0.15397 0.0
C8 C 0.07485 0.7806 0.14106 0.0
C9 C 0.12177 0.76626 0.14494 0.0
C10 C 0.12078 0.7206 0.15991 0.0
N11 N 0.11582 0.63182 0.20355 0.0
C12 C 0.15852 0.65057 0.19246 0.0
C13 C 0.19723 0.62489 0.20613 0.0
C14 C 0.17842 0.59098 0.22816 0.0
C15 C 0.12947 0.59678 0.226 0.0
N16 N 0.02273 0.58696 0.21208 0.0
C17 C 0.04712 0.55835 0.23447 0.0
C18 C 0.02101 0.51991 0.24651 0.0
C19 C 0.97693 0.52457 0.23121 0.0
C20 C 0.9786 0.56584 0.21045 0.0
N21 N 0.05748 0.60962 0.14467 0.0
C22 C 0.05363 0.55217 0.08317 0.0
C23 C 0.0751 0.53461 0.11395 0.0
C24 C 0.07652 0.56385 0.14446 0.0
C25 C 0.0367 0.59976 0.08322 0.0
C26 C 0.0396 0.62796 0.1139 0.0
N27 N 0.03634 0.68463 0.23279 0.0
C28 C 0.97499 0.71192 0.27404 0.0
C29 C 0.9975 0.75672 0.2776 0.0
C30 C 0.0435 0.762 0.26231 0.0
C31 C 0.06267 0.7251 0.2405 0.0
C32 C 0.99485 0.67663 0.2517 0.0
H33 H 0.09715 0.73104 0.22802 0.0
H34 H 0.97411 0.64456 0.24789 0.0
H35 H 0.09134 0.54865 0.16812 0.0
H36 H 0.02535 0.66406 0.11292 0.0
C37 C 0.99747 0.74079 0.15378 0.0
C38 C 0.93552 0.58761 0.19463 0.0
C39 C 0.16442 0.69535 0.17225 0.0
C40 C 0.09595 0.56522 0.2403 0.0
H41 H 0.86304 0.64819 0.16373 0.0
H42 H 0.89546 0.73419 0.14424 0.0
H43 H 0.06205 0.81434 0.1302 0.0
H44 H 0.15304 0.78779 0.13851 0.0
H45 H 0.23527 0.63068 0.20128 0.0
H46 H 0.19807 0.56409 0.24296 0.0
H47 H 0.03281 0.4915 0.26399 0.0
H48 H 0.94669 0.50091 0.23592 0.0
H49 H 0.08874 0.49791 0.11489 0.0
H50 H 0.02031 0.61482 0.05983 0.0
H51 H 0.94072 0.70505 0.28693 0.0
H52 H 0.06321 0.79546 0.26529 0.0
C53 C 0.43524 0.51438 0.60595 0.0
C54 C 0.476 0.54312 0.60861 0.0
C55 C 0.46961 0.57184 0.63804 0.0
C56 C 0.4257 0.55887 0.65197 0.0
N57 N 0.40439 0.52347 0.63328 0.0
Co58 Co 0.34154 0.49309 0.64499 0.0
N59 N 0.34322 0.51682 0.69452 0.0
C60 C 0.37057 0.55338 0.70652 0.0
C61 C 0.36317 0.56283 0.74182 0.0
C62 C 0.32882 0.53037 0.75255 0.0
C63 C 0.31726 0.5026 0.72313 0.0
N64 N 0.27878 0.46253 0.6563 0.0
C65 C 0.26009 0.44989 0.68804 0.0
C66 C 0.21775 0.42379 0.68366 0.0
C67 C 0.20868 0.42231 0.64819 0.0
C68 C 0.24631 0.44645 0.63274 0.0
N69 N 0.33951 0.46949 0.59544 0.0
C70 C 0.2998 0.45508 0.57815 0.0
C71 C 0.30882 0.44251 0.5436 0.0
C72 C 0.35723 0.44967 0.53876 0.0
C73 C 0.37514 0.466 0.57088 0.0
N74 N 0.37523 0.43415 0.65983 0.0
C75 C 0.41136 0.35345 0.69551 0.0
C76 C 0.37337 0.34864 0.67148 0.0
C77 C 0.35637 0.38935 0.65341 0.0
C78 C 0.43325 0.39858 0.69907 0.0
C79 C 0.41458 0.43834 0.68122 0.0
N80 N 0.30796 0.55306 0.63146 0.0
C81 C 0.30651 0.62725 0.59823 0.0
C82 C 0.27118 0.64684 0.62098 0.0
C83 C 0.25249 0.61719 0.64755 0.0
C84 C 0.27133 0.57072 0.65239 0.0
C85 C 0.32404 0.58021 0.60368 0.0
H86 H 0.25767 0.55 0.67426 0.0
H87 H 0.35202 0.5666 0.58628 0.0
H88 H 0.32623 0.38509 0.63583 0.0
H89 H 0.43027 0.47306 0.68664 0.0
C90 C 0.40754 0.57243 0.68533 0.0
C91 C 0.4252 0.48124 0.5762 0.0
C92 C 0.2787 0.46614 0.72253 0.0
C93 C 0.25713 0.44584 0.59665 0.0
H94 H 0.50713 0.54345 0.59124 0.0
H95 H 0.49497 0.59756 0.64881 0.0
H96 H 0.38155 0.58914 0.7581 0.0
H97 H 0.31371 0.52778 0.77891 0.0
H98 H 0.19545 0.40754 0.70388 0.0
H99 H 0.17953 0.40359 0.63516 0.0
H100 H 0.28362 0.4282 0.52454 0.0
H101 H 0.37694 0.44386 0.5143 0.0
H102 H 0.35586 0.3141 0.66769 0.0
H103 H 0.4626 0.40385 0.7174 0.0
H104 H 0.32127 0.64849 0.57683 0.0
H105 H 0.22509 0.63068 0.66568 0.0
C106 C 0.57351 0.85741 0.18307 0.0
C107 C 0.61328 0.84461 0.16256 0.0
C108 C 0.59593 0.82116 0.13322 0.0
C109 C 0.54666 0.82098 0.13738 0.0
N110 N 0.53203 0.84241 0.16766 0.0
Co111 Co 0.46383 0.85177 0.18281 0.0
N112 N 0.43973 0.80225 0.14874 0.0
C113 C 0.46476 0.78425 0.12097 0.0
C114 C 0.44012 0.74879 0.10321 0.0
C115 C 0.39667 0.74471 0.12058 0.0
C116 C 0.39674 0.77854 0.14784 0.0
N117 N 0.39562 0.86231 0.19747 0.0
C118 C 0.35545 0.83656 0.18999 0.0
C119 C 0.31419 0.86084 0.20158 0.0
C120 C 0.32915 0.90264 0.21741 0.0
C121 C 0.3784 0.90198 0.21419 0.0
N122 N 0.48699 0.901 0.21722 0.0
C123 C 0.45966 0.93484 0.23358 0.0
C124 C 0.48514 0.96341 0.25647 0.0
C125 C 0.53164 0.94697 0.2541 0.0
C126 C 0.53196 0.90939 0.22952 0.0
N127 N 0.45739 0.90191 0.14628 0.0
C128 C 0.46294 0.96029 0.08555 0.0
C129 C 0.49471 0.96674 0.11383 0.0
C130 C 0.49201 0.9368 0.14333 0.0
C131 C 0.42535 0.92688 0.09006 0.0
C132 C 0.4227 0.89884 0.12082 0.0
N133 N 0.47272 0.80091 0.21845 0.0
C134 C 0.47953 0.77488 0.27916 0.0
C135 C 0.50509 0.73321 0.26837 0.0
C136 C 0.51112 0.72506 0.23213 0.0
C137 C 0.4949 0.75891 0.20791 0.0
C138 C 0.46346 0.80828 0.25369 0.0
H139 H 0.50276 0.75178 0.18057 0.0
H140 H 0.4454 0.84087 0.26255 0.0
H141 H 0.51959 0.94075 0.16293 0.0
H142 H 0.39387 0.87299 0.12306 0.0
C143 C 0.51374 0.79549 0.1164 0.0
C144 C 0.57618 0.88675 0.21555 0.0
C145 C 0.35456 0.79038 0.17055 0.0
C146 C 0.40966 0.93478 0.23006 0.0
H147 H 0.65079 0.8519 0.16809 0.0
H148 H 0.61686 0.80507 0.11191 0.0
H149 H 0.45295 0.72697 0.08121 0.0
H150 H 0.36849 0.71955 0.11378 0.0
H151 H 0.27704 0.84979 0.19866 0.0
H152 H 0.30682 0.9298 0.23028 0.0
H153 H 0.47141 0.99205 0.27343 0.0
H154 H 0.56198 0.96178 0.26828 0.0
H155 H 0.52252 0.99402 0.11305 0.0
H156 H 0.39908 0.921 0.06949 0.0
H157 H 0.47374 0.78261 0.30695 0.0
H158 H 0.52961 0.69299 0.2224 0.0
C159 C 0.05611 0.99906 0.61394 0.0
C160 C 1.01135 0.97678 0.61527 0.0
C161 C 1.01118 0.94799 0.64468 0.0
C162 C 0.05544 0.95453 0.65997 0.0
N163 N 0.08313 0.98603 0.64211 0.0
Co164 Co 0.14852 1.00737 0.656 0.0
N165 N 0.13953 0.98495 0.70526 0.0
C166 C 0.10604 0.95345 0.71646 0.0
C167 C 0.10687 0.94732 0.75244 0.0
C168 C 0.14329 0.97659 0.76442 0.0
C169 C 0.16309 0.9987 0.73493 0.0
N170 N 0.21383 0.02854 0.66937 0.0
C171 C 0.23222 0.03665 0.70179 0.0
C172 C 0.28093 0.04801 0.69949 0.0
C173 C 0.29293 0.04735 0.66426 0.0
C174 C 0.25119 0.0353 0.64711 0.0
N175 N 0.15809 0.02956 0.60685 0.0
C176 C 0.20106 0.03674 0.59095 0.0
C177 C 0.19694 0.04967 0.55619 0.0
C178 C 0.14838 0.05031 0.54976 0.0
C179 C 0.12541 0.03788 0.58118 0.0
N180 N 0.12225 0.07086 0.67006 0.0
C181 C 0.0904 0.15879 0.70076 0.0
C182 C 0.12987 0.15744 0.67708 0.0
C183 C 0.14537 0.11309 0.66219 0.0
C184 C 0.06625 0.11519 0.70701 0.0
C185 C 0.08215 0.07232 0.69123 0.0
N186 N 0.17469 0.94314 0.64307 0.0
C187 C 0.1751 0.8713 0.6063 0.0
C188 C 0.2084 0.84879 0.62863 0.0
C189 C 0.22464 0.87472 0.65806 0.0
C190 C 0.20731 0.9214 0.66487 0.0
C191 C 0.15914 0.91865 0.61374 0.0
H192 H 0.21977 0.93949 0.68836 0.0
H193 H 0.13364 0.93512 0.59607 0.0
H194 H 0.17677 0.11268 0.64513 0.0
H195 H 0.06297 0.03982 0.69763 0.0
C196 C 0.06857 0.93938 0.69392 0.0
C197 C 0.0732 0.02971 0.58462 0.0
C198 C 0.20531 0.03081 0.73507 0.0
C199 C 0.2436 0.03743 0.61065 0.0
H200 H 0.98178 0.98085 0.59706 0.0
H201 H 0.98144 0.92666 0.65458 0.0
H202 H 0.08212 0.92641 0.76837 0.0
H203 H 0.15337 0.98144 0.79174 0.0
H204 H 0.30533 0.05563 0.72098 0.0
H205 H 0.32751 0.05613 0.65256 0.0
H206 H 0.22567 0.05862 0.53789 0.0
H207 H 0.13194 0.05809 0.5246 0.0
H208 H 0.14908 0.19005 0.67028 0.0
H209 H 0.03609 0.11342 0.72528 0.0
H210 H 0.16159 0.8525 0.58325 0.0
H211 H 0.2497 0.85851 0.67636 0.0
C212 C 0.02991 0.37801 0.96216 0.0
C213 C 0.0446 0.35585 0.9931 0.0
C214 C 0.04832 0.30737 0.9858 0.0
C215 C 0.03561 0.30253 0.95099 0.0
N216 N 0.02439 0.34496 0.9359 0.0
Co217 Co 1.00234 0.35363 0.8867 0.0
N218 N 0.02819 0.28956 0.87214 0.0
C219 C 0.03843 0.25275 0.89392 0.0
C220 C 0.05521 0.21248 0.87628 0.0
C221 C 0.05528 0.22474 0.84123 0.0
C222 C 0.03853 0.27207 0.83947 0.0
N223 N 0.98096 0.36232 0.83727 0.0
C224 C 0.99561 0.33896 0.80737 0.0
C225 C 0.97169 0.35677 0.77814 0.0
C226 C 0.94076 0.39216 0.7904 0.0
C227 C 0.94757 0.39409 0.82632 0.0
N228 N 0.97506 0.41701 0.90191 0.0
C229 C 0.94169 0.44259 0.88426 0.0
C230 C 0.93086 0.48586 0.90049 0.0
C231 C 0.95882 0.48731 0.93026 0.0
C232 C 0.98497 0.44441 0.93083 0.0
N233 N 0.06396 0.38438 0.87391 0.0
C234 C 0.14538 0.42053 0.83795 0.0
C235 C 0.10411 0.44915 0.84356 0.0
C236 C 0.06361 0.42996 0.86018 0.0
C237 C 0.14664 0.37516 0.8545 0.0
C238 C 0.1063 0.35874 0.87353 0.0
N239 N 0.9402 0.32317 0.89829 0.0
C240 C 0.86752 0.31908 0.93374 0.0
C241 C 0.84685 0.28676 0.90955 0.0
C242 C 0.87458 0.27184 0.88039 0.0
C243 C 0.92078 0.29051 0.87516 0.0
C244 C 0.91438 0.33648 0.92781 0.0
H245 H 0.94021 0.27937 0.85172 0.0
H246 H 0.92923 0.36163 0.94668 0.0
H247 H 0.03132 0.45147 0.85973 0.0
H248 H 0.1085 0.32373 0.88573 0.0
C249 C 0.04013 0.26042 0.93048 0.0
C250 C 1.01721 0.42952 0.95967 0.0
C251 C 0.02964 0.29801 0.80642 0.0
C252 C 0.92949 0.42963 0.84955 0.0
H253 H 0.05117 0.3728 1.01846 0.0
H254 H 0.06006 0.27924 1.00354 0.0
H255 H 0.06776 0.17893 0.88757 0.0
H256 H 0.06619 0.2014 0.81951 0.0
H257 H 0.97602 0.34531 0.75091 0.0
H258 H 0.91746 0.41491 0.77479 0.0
H259 H 0.90749 0.51421 0.89087 0.0
H260 H 0.96001 0.51692 0.94901 0.0
H261 H 0.10152 0.48533 0.83306 0.0
H262 H 0.17702 0.35092 0.85121 0.0
H263 H 0.84757 0.33098 0.95695 0.0
H264 H 0.86004 0.24701 0.86098 0.0
C265 C 0.57065 0.52769 0.32822 0.0
C266 C 0.53172 0.52706 0.30523 0.0
C267 C 0.53245 0.48324 0.28848 0.0
C268 C 0.57144 0.45948 0.30206 0.0
N269 N 0.59514 0.485 0.32682 0.0
Co270 Co 0.65387 0.46269 0.35246 0.0
N271 N 0.64535 0.39444 0.33621 0.0
C272 C 0.6184 0.38081 0.30843 0.0
C273 C 0.62451 0.33346 0.29879 0.0
C274 C 0.65764 0.31572 0.32179 0.0
C275 C 0.66916 0.35314 0.34499 0.0
N276 N 0.71195 0.43954 0.37858 0.0
C277 C 0.72578 0.3939 0.38775 0.0
C278 C 0.76562 0.39555 0.40974 0.0
C279 C 0.77883 0.44302 0.41257 0.0
C280 C 0.74579 0.46811 0.39307 0.0
N281 N 0.66315 0.53128 0.36771 0.0
C282 C 0.70366 0.54926 0.38208 0.0
C283 C 0.70106 0.59798 0.3888 0.0
C284 C 0.65642 0.61193 0.37742 0.0
C285 C 0.6342 0.57081 0.36422 0.0
N286 N 0.61415 0.45154 0.39491 0.0
C287 C 0.55312 0.45173 0.45448 0.0
C288 C 0.59928 0.47127 0.45621 0.0
C289 C 0.62921 0.47033 0.42649 0.0
C290 C 0.53876 0.42957 0.4228 0.0
C291 C 0.56988 0.42995 0.3932 0.0
N292 N 0.6943 0.47581 0.31054 0.0
C293 C 0.76907 0.46364 0.27851 0.0
C294 C 0.76361 0.50842 0.26187 0.0
C295 C 0.72062 0.53399 0.26743 0.0
C296 C 0.68664 0.51717 0.2917 0.0
C297 C 0.73385 0.44784 0.30261 0.0
H298 H 0.6556 0.53955 0.29655 0.0
H299 H 0.74009 0.41434 0.3162 0.0
H300 H 0.66393 0.48683 0.42897 0.0
H301 H 0.55755 0.4144 0.36867 0.0
C302 C 0.58516 0.4124 0.2937 0.0
C303 C 0.58777 0.57213 0.34557 0.0
C304 C 0.70519 0.34851 0.37332 0.0
C305 C 0.74081 0.51841 0.39265 0.0
H306 H 0.50659 0.55596 0.29972 0.0
H307 H 0.50768 0.47039 0.26859 0.0
H308 H 0.60706 0.31412 0.27751 0.0
H309 H 0.67231 0.27949 0.32071 0.0
H310 H 0.78363 0.36571 0.42244 0.0
H311 H 0.80786 0.45765 0.42826 0.0
H312 H 0.72807 0.62056 0.40105 0.0
H313 H 0.64213 0.64839 0.3781 0.0
H314 H 0.61184 0.48828 0.48031 0.0
H315 H 0.50319 0.41391 0.42052 0.0
H316 H 0.80158 0.44237 0.2746 0.0
H317 H 0.71428 0.56812 0.25438 0.0
C318 C 0.46813 0.12665 0.96012 0.0
C319 C 0.4501 0.14648 0.99141 0.0
C320 C 0.43788 0.19317 0.98439 0.0
C321 C 0.44923 0.19934 0.94945 0.0
N322 N 0.46874 0.15972 0.93377 0.0
Co323 Co 0.48902 0.15334 0.88295 0.0
N324 N 0.46766 0.22087 0.87239 0.0
C325 C 0.45379 0.25485 0.89618 0.0
C326 C 0.44371 0.29885 0.88155 0.0
C327 C 0.45107 0.29244 0.84617 0.0
C328 C 0.46457 0.24444 0.84122 0.0
N329 N 0.50583 0.14604 0.83143 0.0
C330 C 0.49476 0.17487 0.80362 0.0
C331 C 0.5078 0.15335 0.77171 0.0
C332 C 0.52774 0.10952 0.77957 0.0
C333 C 0.52526 0.10644 0.81567 0.0
N334 N 0.5128 0.08661 0.89415 0.0
C335 C 0.53649 0.05634 0.87172 0.0
C336 C 0.54682 1.01227 0.8862 0.0
C337 C 0.52875 1.01454 0.91984 0.0
C338 C 0.50868 0.06026 0.92424 0.0
N339 N 0.42409 0.128 0.87149 0.0
C340 C 0.336 0.09741 0.8422 0.0
C341 C 0.37685 0.06785 0.84099 0.0
C342 C 0.41988 0.08352 0.85571 0.0
C343 C 0.33906 0.1413 0.86085 0.0
C344 C 0.38324 0.15568 0.87553 0.0
N345 N 0.55509 0.17868 0.89367 0.0
C346 C 0.64052 0.1817 0.87945 0.0
C347 C 0.64907 0.2151 0.90643 0.0
C348 C 0.60967 0.22959 0.92736 0.0
C349 C 0.56343 0.21112 0.9206 0.0
C350 C 0.5941 0.16416 0.87368 0.0
H351 H 0.5352 0.22371 0.93761 0.0
H352 H 0.59113 0.13895 0.8526 0.0
H353 H 0.44981 0.05969 0.85243 0.0
H354 H 0.38423 0.18991 0.88903 0.0
C355 C 0.44446 0.24255 0.93114 0.0
C356 C 0.48485 0.07652 0.95705 0.0
C357 C 0.47094 0.22214 0.80636 0.0
C358 C 0.54008 0.06682 0.83568 0.0
H359 H 0.44648 0.12924 1.01684 0.0
H360 H 0.42295 0.21961 1.00267 0.0
H361 H 0.4306 0.33115 0.89484 0.0
H362 H 0.44551 0.31961 0.82617 0.0
H363 H 0.50276 0.16741 0.7454 0.0
H364 H 0.54138 0.08262 0.76111 0.0
H365 H 0.56299 0.98116 0.8732 0.0
H366 H 0.52908 0.98522 0.93858 0.0
H367 H 0.37662 0.03364 0.82689 0.0
H368 H 0.30798 0.16494 0.86334 0.0
H369 H 0.6696 0.16946 0.86226 0.0
H370 H 0.61444 0.25471 0.9491 0.0
C371 C 0.9189 0.97243 0.31545 0.0
C372 C 0.95272 0.97081 0.28818 0.0
C373 C 0.96211 1.01759 0.27926 0.0
C374 C 0.93358 0.04503 0.3014 0.0
N375 N 0.90644 1.01865 0.32365 0.0
Co376 Co 0.85961 0.04454 0.35951 0.0
N377 N 0.85986 0.11008 0.33781 0.0
C378 C 0.89015 0.12507 0.31211 0.0
C379 C 0.87773 0.16889 0.29826 0.0
C380 C 0.83759 0.18307 0.31665 0.0
C381 C 0.82861 0.14781 0.34185 0.0
N382 N 0.81278 0.07109 0.39534 0.0
C383 C 0.78969 0.11478 0.39742 0.0
C384 C 0.76638 0.12008 0.42986 0.0
C385 C 0.77446 0.07852 0.44835 0.0
C386 C 0.8028 0.05029 0.42664 0.0
N387 N 0.8595 0.97899 0.38103 0.0
C388 C 0.84335 0.96843 0.41365 0.0
C389 C 0.84903 0.92055 0.42201 0.0
C390 C 0.87057 0.89968 0.39289 0.0
C391 C 0.87685 0.93616 0.36838 0.0
N392 N 0.91338 0.06195 0.39105 0.0
C393 C 0.9707 0.06373 0.45212 0.0
C394 C 0.93675 0.10049 0.44574 0.0
C395 C 0.90952 0.09969 0.41454 0.0
C396 C 0.97928 0.02999 0.42501 0.0
C397 C 0.95033 0.02952 0.39505 0.0
N398 N 0.80588 0.02452 0.32915 0.0
C399 C 0.73346 0.97723 0.32357 0.0
C400 C 0.7372 0.97776 0.28668 0.0
C401 C 0.77439 1.0051 0.27144 0.0
C402 C 0.80829 0.02826 0.29312 0.0
C403 C 0.76792 1.00061 0.34416 0.0
H404 H 0.83733 0.04764 0.28067 0.0
H405 H 0.76469 0.99751 0.37237 0.0
H406 H 0.88275 0.1275 0.41095 0.0
H407 H 0.95556 1.00004 0.3768 0.0
C408 C 0.92473 0.09413 0.29754 0.0
C409 C 0.90288 0.92961 0.33472 0.0
C410 C 0.79362 0.1541 0.37123 0.0
C411 C 0.81869 1.00329 0.43386 0.0
H412 H 0.96909 0.93917 0.27606 0.0
H413 H 0.98539 0.03 0.25814 0.0
H414 H 0.89449 0.1873 0.27624 0.0
H415 H 0.81755 0.21597 0.31197 0.0
H416 H 0.74708 0.15139 0.43988 0.0
H417 H 0.76163 0.07016 0.47467 0.0
H418 H 0.8381 0.90272 0.44612 0.0
H419 H 0.88118 0.86214 0.39019 0.0
H420 H 0.92886 0.12792 0.46548 0.0
H421 H 1.00643 1.00204 0.42777 0.0
H422 H 0.70428 0.95834 0.33662 0.0
H423 H 0.77817 1.00733 0.243 0.0
C424 C 0.98928 0.48008 1.01182 0.0
C425 C 0.02726 0.46226 0.99046 0.0
C426 C 0.99826 0.50929 0.04156 0.0
C427 C 0.04562 0.52051 0.05181 0.0
H428 H 0.9523 0.47107 1.00565 0.0
H429 H 0.96792 0.52268 0.05701 0.0
S430 S 0.15771 0.48093 1.006 0.0
N431 N 0.11402 0.45721 0.98211 0.0
N432 N 0.13093 0.51068 0.03876 0.0
C433 C 0.08394 0.502 0.03126 0.0
C434 C 0.07475 0.4731 1.00052 0.0
C435 C 0.47609 0.51217 0.52579 0.0
C436 C 0.46065 0.47322 0.54666 0.0
C437 C 0.50574 0.50469 0.49596 0.0
C438 C 0.51985 0.45788 0.4852 0.0
H439 H 0.46456 0.54864 0.53225 0.0
H440 H 0.5173 0.53576 0.48089 0.0
S441 S 0.48787 0.34373 0.52998 0.0
N442 N 0.46127 0.38617 0.55422 0.0
N443 N 0.51589 0.37207 0.49753 0.0
C444 C 0.50409 0.4186 0.50543 0.0
C445 C 0.47468 0.42629 0.53623 0.0
C446 C 0.42901 1.00486 0.03295 0.0
C447 C 0.46939 0.98779 0.05168 0.0
C448 C 0.43432 0.03196 1.00184 0.0
C449 C 0.48018 0.0438 0.98835 0.0
H450 H 0.39288 0.99828 0.04277 0.0
H451 H 0.40225 0.04483 0.98866 0.0
S452 S 0.59765 1.00609 0.02535 0.0
N453 N 0.5572 0.98178 0.05199 0.0
N454 N 0.56664 0.03611 0.99557 0.0
C455 C 0.5208 0.02673 1.00637 0.0
C456 C 0.51555 0.99801 0.03747 0.0
C457 C 1.00014 1.01011 0.50093 0.0
C458 C 0.99436 0.05719 0.48735 0.0
C459 C 0.02412 1.00166 0.5328 0.0
C460 C 0.04211 0.03996 0.5533 0.0
H461 H 0.98648 0.97912 0.4866 0.0
H462 H 0.02969 0.96465 0.54099 0.0
S463 S 0.0371 0.16992 0.53057 0.0
N464 N 1.00988 0.14271 0.49729 0.0
N465 N 0.05276 0.12668 0.55812 0.0
C466 C 0.03576 0.08725 0.54072 0.0
C467 C 1.01218 0.09593 0.50776 0.0
C468 C 0.23609 0.73183 0.13965 0.0
C469 C 0.21303 0.71994 0.17172 0.0
C470 C 0.28212 0.75356 0.13906 0.0
C471 C 0.30813 0.76199 0.17042 0.0
H472 H 0.21807 0.72494 0.11485 0.0
H473 H 0.29675 0.76491 0.11388 0.0
S474 S 0.26301 0.73978 0.26139 0.0
N475 N 0.2182 0.72269 0.23578 0.0
N476 N 0.30654 0.75722 0.23443 0.0
C477 C 0.28552 0.74967 0.20254 0.0
C478 C 0.23774 0.73034 0.20326 0.0
C479 C 0.20653 0.71133 0.61891 0.0
C480 C 0.25584 0.69866 0.61884 0.0
C481 C 0.19143 0.76001 0.62035 0.0
C482 C 0.22503 0.79792 0.62249 0.0
H483 H 0.17937 0.68332 0.61838 0.0
H484 H 0.15315 0.76794 0.62121 0.0
S485 S 0.35821 0.78448 0.62217 0.0
N486 N 0.33812 0.72845 0.62006 0.0
N487 N 0.30982 0.81949 0.62306 0.0
C488 C 0.27437 0.78579 0.62163 0.0
C489 C 0.28973 0.73637 0.6197 0.0
C490 C 0.73878 0.20244 0.91014 0.0
C491 C 0.69893 0.23422 0.91187 0.0
C492 C 0.78634 0.2196 0.91079 0.0
C493 C 0.79626 0.26929 0.91355 0.0
H494 H 0.73319 0.16387 0.90749 0.0
H495 H 0.81567 0.19376 0.90843 0.0
S496 S 0.70545 0.36787 0.91937 0.0
N497 N 0.673 0.31807 0.91688 0.0
N498 N 0.76239 0.35013 0.91867 0.0
C499 C 0.75696 0.30142 0.91661 0.0
C500 C 0.70837 0.28397 0.91569 0.0
C501 C 0.77808 0.29208 0.37557 0.0
C502 C 0.728 0.29926 0.37982 0.0
C503 C 0.79899 0.24567 0.37652 0.0
C504 C 0.77064 0.20343 0.37776 0.0
H505 H 0.80151 0.32228 0.37001 0.0
H506 H 0.83782 0.24283 0.37391 0.0
S507 S 0.63796 0.20155 0.39154 0.0
N508 N 0.65132 0.25965 0.39089 0.0
N509 N 0.68945 0.17234 0.38535 0.0
C510 C 0.72065 0.2099 0.38298 0.0
C511 C 0.69977 0.25754 0.38541 0.0
C512 C 0.82879 0.50536 0.21491 0.0
C513 C 0.80423 0.53086 0.24194 0.0
C514 C 0.86938 0.52524 0.19786 0.0
C515 C 0.88731 0.57088 0.20774 0.0
H516 H 0.81699 0.46954 0.20728 0.0
H517 H 0.88821 0.50393 0.17795 0.0
S518 S 0.83602 0.65231 0.27677 0.0
N519 N 0.8005 0.60459 0.27724 0.0
N520 N 0.87677 0.64127 0.24572 0.0
C521 C 0.86231 0.59714 0.23405 0.0
C522 C 0.82088 0.57726 0.25107 0.0
C523 C 0.4733 0.29899 0.72306 0.0
C524 C 0.42486 0.31382 0.71994 0.0
C525 C 0.4877 0.26712 0.74984 0.0
C526 C 0.45418 0.24897 0.77445 0.0
H527 H 0.50048 0.31346 0.70541 0.0
H528 H 0.52562 0.25833 0.75229 0.0
S529 S 0.324 0.27924 0.77913 0.0
N530 N 0.34398 0.30934 0.74454 0.0
N531 N 0.37075 0.24886 0.7943 0.0
C532 C 0.40557 0.26276 0.7711 0.0
C533 C 0.39098 0.29527 0.744 0.0
C534 C 0.63949 0.95122 0.21892 0.0
C535 C 0.62338 0.90499 0.22871 0.0
C536 C 0.67792 0.97368 0.23658 0.0
C537 C 0.70156 0.95071 0.26471 0.0
H538 H 0.62045 0.97117 0.19879 0.0
H539 H 0.68744 1.01026 0.2294 0.0
S540 S 0.67733 0.82636 0.29655 0.0
N541 N 0.6366 0.83516 0.26561 0.0
N542 N 0.70959 0.87639 0.29829 0.0
C543 C 0.68773 0.90304 0.27295 0.0
C544 C 0.6485 0.88041 0.25505 0.0
C545 C 1.01038 0.24434 0.7549 0.0
C546 C 0.04376 0.27354 0.77262 0.0
C547 C 0.02553 0.21054 0.72924 0.0
C548 C 0.07489 0.20353 0.72085 0.0
H549 H 0.97265 0.24547 0.76253 0.0
H550 H 0.99836 0.18784 0.71729 0.0
S551 S 0.17516 0.27846 0.75589 0.0
N552 N 0.12682 0.299 0.77687 0.0
N553 N 0.15614 0.23488 0.7294 0.0
C554 C 0.10804 0.23591 0.73632 0.0
C555 C 0.09229 0.27076 0.76219 0.0
C556 C 0.16811 0.4631 0.78183 0.0
C557 C 0.18281 0.43593 0.81136 0.0
C558 C 0.20023 0.47538 0.75481 0.0
C559 C 0.24804 0.45868 0.75466 0.0
H560 H 0.13087 0.47381 0.77848 0.0
H561 H 0.18677 0.49611 0.73276 0.0
S562 S 0.30818 0.39317 0.82712 0.0
N563 N 0.25173 0.39925 0.8408 0.0
N564 N 0.31078 0.41834 0.7877 0.0
C565 C 0.2644 0.43348 0.78432 0.0
C566 C 0.23205 0.4226 0.81294 0.0
C567 C 0.59574 0.64432 0.30628 0.0
C568 C 0.56895 0.61944 0.33199 0.0
C569 C 0.57563 0.68307 0.28764 0.0
C570 C 0.52764 0.69844 0.29359 0.0
H571 H 0.63177 0.63217 0.29924 0.0
H572 H 0.59728 0.69989 0.26723 0.0
S573 S 0.44361 0.64756 0.36021 0.0
N574 N 0.49333 0.61502 0.36444 0.0
N575 N 0.45503 0.68738 0.32892 0.0
C576 C 0.5014 0.67568 0.32072 0.0
C577 C 0.52212 0.63626 0.33993 0.0
C578 C 0.27793 0.03492 0.81966 0.0
C579 C 0.29303 0.08354 0.82087 0.0
C580 C 0.2464 1.01823 0.79344 0.0
C581 C 0.22744 0.04986 0.76814 0.0
H582 H 0.29313 1.00883 0.83769 0.0
H583 H 0.23971 0.97979 0.79152 0.0
S584 S 0.25386 0.17997 0.75996 0.0
N585 N 0.2857 0.16283 0.79434 0.0
N586 N 0.22398 0.1319 0.74671 0.0
C587 C 0.23938 0.09897 0.77059 0.0
C588 C 0.27254 0.11577 0.7966 0.0
C589 C 0.99464 0.82861 0.31927 0.0
C590 C 0.97137 0.79832 0.29472 0.0
C591 C 0.97117 0.86944 0.33387 0.0
C592 C 0.92372 0.88168 0.32427 0.0
H593 H 0.03145 0.82105 0.32691 0.0
H594 H 0.99084 0.89268 0.35178 0.0
S595 S 0.8469 0.81556 0.26094 0.0
N596 N 0.89773 0.78424 0.26149 0.0
N597 N 0.85432 0.86082 0.28903 0.0
C598 C 0.89977 0.85153 0.30037 0.0
C599 C 0.92339 0.80992 0.28558 0.0
loop_
_geom_bond_atom_site_label_1
_geom_bond_atom_site_label_2
_geom_bond_distance
_geom_bond_site_symmetry_2
_ccdc_geom_bond_type
C0 C1 1.443 . S
C0 N4 1.376 . S
C0 C38 1.389 . S
C1 C0 1.443 . S
C1 C2 1.340 . S
C1 H41 0.951 . S
C2 C1 1.340 . S
C2 C3 1.439 . S
C2 H42 0.950 . S
C3 C2 1.439 . S
C3 N4 1.374 . S
C3 C37 1.395 . S
N4 C0 1.376 . S
N4 C3 1.374 . S
N4 Co5 2.008 1_655 S
Co5 N4 2.008 1_455 S
Co5 N6 1.995 . S
Co5 N11 2.008 . S
Co5 N16 1.995 1_455 S
Co5 N21 2.282 . S
Co5 N27 2.282 1_455 S
N6 Co5 1.995 . S
N6 C7 1.376 1_455 S
N6 C10 1.383 . S
C7 N6 1.376 1_655 S
C7 C8 1.446 1_655 S
C7 C37 1.391 . S
C8 C7 1.446 1_455 S
C8 C9 1.339 . S
C8 H43 0.949 . S
C9 C8 1.339 . S
C9 C10 1.439 . S
C9 H44 0.950 . S
C10 N6 1.383 . S
C10 C9 1.439 . S
C10 C39 1.392 . S
N11 Co5 2.008 . S
N11 C12 1.376 . S
N11 C15 1.374 . S
C12 N11 1.376 . S
C12 C13 1.443 . S
C12 C39 1.389 . S
C13 C12 1.443 . S
C13 C14 1.340 . S
C13 H45 0.951 . S
C14 C13 1.340 . S
C14 C15 1.439 . S
C14 H46 0.950 . S
C15 N11 1.374 . S
C15 C14 1.439 . S
C15 C40 1.395 . S
N16 Co5 1.995 1_655 S
N16 C17 1.376 1_655 S
N16 C20 1.383 . S
C17 N16 1.376 1_455 S
C17 C18 1.446 1_455 S
C17 C40 1.391 . S
C18 C17 1.446 1_655 S
C18 C19 1.339 . S
C18 H47 0.949 . S
C19 C18 1.339 . S
C19 C20 1.439 . S
C19 H48 0.950 . S
C20 N16 1.383 . S
C20 C19 1.439 . S
C20 C38 1.392 . S
N21 Co5 2.282 . S
N21 C24 1.332 . S
N21 C26 1.332 . S
C22 C23 1.386 . S
C22 C25 1.388 . S
C23 C22 1.386 . S
C23 C24 1.382 . S
C23 H49 0.950 . S
C24 N21 1.332 . S
C24 C23 1.382 . S
C24 H35 0.952 . S
C25 C22 1.388 . S
C25 C26 1.382 . S
C25 H50 0.950 . S
C26 N21 1.332 . S
C26 C25 1.382 . S
C26 H36 0.948 1_455 S
N27 Co5 2.282 1_655 S
N27 C31 1.332 . S
N27 C32 1.332 . S
C28 C29 1.388 . S
C28 C32 1.382 . S
C28 H51 0.950 . S
C29 C28 1.388 . S
C29 C30 1.386 . S
C30 C29 1.386 . S
C30 C31 1.382 . S
C30 H52 0.950 . S
C31 N27 1.332 . S
C31 C30 1.382 . S
C31 H33 0.952 . S
C32 N27 1.332 . S
C32 C28 1.382 . S
C32 H34 0.948 1_655 S
H33 C31 0.952 . S
H34 C32 0.948 1_455 S
H35 C24 0.952 . S
H36 C26 0.948 1_655 S
C37 C3 1.395 . S
C37 C7 1.391 . S
C38 C0 1.389 . S
C38 C20 1.392 . S
C39 C10 1.392 . S
C39 C12 1.389 . S
C40 C15 1.395 . S
C40 C17 1.391 . S
H41 C1 0.951 . S
H42 C2 0.950 . S
H43 C8 0.949 . S
H44 C9 0.950 . S
H45 C13 0.951 . S
H46 C14 0.950 . S
H47 C18 0.949 . S
H48 C19 0.950 . S
H49 C23 0.950 . S
H50 C25 0.950 . S
H51 C28 0.950 . S
H52 C30 0.950 . S
C53 C54 1.443 . S
C53 N57 1.376 . S
C53 C91 1.389 . S
C54 C53 1.443 . S
C54 C55 1.340 . S
C54 H94 0.951 . S
C55 C54 1.340 . S
C55 C56 1.439 . S
C55 H95 0.950 . S
C56 C55 1.439 . S
C56 N57 1.374 . S
C56 C90 1.395 . S
N57 C53 1.376 . S
N57 C56 1.374 . S
N57 Co58 2.008 . S
Co58 N57 2.008 . S
Co58 N59 1.995 . S
Co58 N64 2.008 . S
Co58 N69 1.995 . S
Co58 N74 2.282 . S
Co58 N80 2.282 . S
N59 Co58 1.995 . S
N59 C60 1.376 . S
N59 C63 1.383 . S
C60 N59 1.376 . S
C60 C61 1.446 . S
C60 C90 1.391 . S
C61 C60 1.446 . S
C61 C62 1.339 . S
C61 H96 0.949 . S
C62 C61 1.339 . S
C62 C63 1.439 . S
C62 H97 0.950 . S
C63 N59 1.383 . S
C63 C62 1.439 . S
C63 C92 1.392 . S
N64 Co58 2.008 . S
N64 C65 1.376 . S
N64 C68 1.374 . S
C65 N64 1.376 . S
C65 C66 1.443 . S
C65 C92 1.389 . S
C66 C65 1.443 . S
C66 C67 1.340 . S
C66 H98 0.951 . S
C67 C66 1.340 . S
C67 C68 1.439 . S
C67 H99 0.950 . S
C68 N64 1.374 . S
C68 C67 1.439 . S
C68 C93 1.395 . S
N69 Co58 1.995 . S
N69 C70 1.376 . S
N69 C73 1.383 . S
C70 N69 1.376 . S
C70 C71 1.446 . S
C70 C93 1.391 . S
C71 C70 1.446 . S
C71 C72 1.339 . S
C71 H100 0.949 . S
C72 C71 1.339 . S
C72 C73 1.439 . S
C72 H101 0.950 . S
C73 N69 1.383 . S
C73 C72 1.439 . S
C73 C91 1.392 . S
N74 Co58 2.282 . S
N74 C77 1.332 . S
N74 C79 1.332 . S
C75 C76 1.386 . S
C75 C78 1.388 . S
C76 C75 1.386 . S
C76 C77 1.382 . S
C76 H102 0.950 . S
C77 N74 1.332 . S
C77 C76 1.382 . S
C77 H88 0.952 . S
C78 C75 1.388 . S
C78 C79 1.382 . S
C78 H103 0.950 . S
C79 N74 1.332 . S
C79 C78 1.382 . S
C79 H89 0.948 . S
N80 Co58 2.282 . S
N80 C84 1.332 . S
N80 C85 1.332 . S
C81 C82 1.388 . S
C81 C85 1.382 . S
C81 H104 0.950 . S
C82 C81 1.388 . S
C82 C83 1.386 . S
C83 C82 1.386 . S
C83 C84 1.382 . S
C83 H105 0.950 . S
C84 N80 1.332 . S
C84 C83 1.382 . S
C84 H86 0.952 . S
C85 N80 1.332 . S
C85 C81 1.382 . S
C85 H87 0.948 . S
H86 C84 0.952 . S
H87 C85 0.948 . S
H88 C77 0.952 . S
H89 C79 0.948 . S
C90 C56 1.395 . S
C90 C60 1.391 . S
C91 C53 1.389 . S
C91 C73 1.392 . S
C92 C63 1.392 . S
C92 C65 1.389 . S
C93 C68 1.395 . S
C93 C70 1.391 . S
H94 C54 0.951 . S
H95 C55 0.950 . S
H96 C61 0.949 . S
H97 C62 0.950 . S
H98 C66 0.951 . S
H99 C67 0.950 . S
H100 C71 0.949 . S
H101 C72 0.950 . S
H102 C76 0.950 . S
H103 C78 0.950 . S
H104 C81 0.950 . S
H105 C83 0.950 . S
C106 C107 1.443 . S
C106 N110 1.376 . S
C106 C144 1.389 . S
C107 C106 1.443 . S
C107 C108 1.340 . S
C107 H147 0.951 . S
C108 C107 1.340 . S
C108 C109 1.439 . S
C108 H148 0.950 . S
C109 C108 1.439 . S
C109 N110 1.374 . S
C109 C143 1.395 . S
N110 C106 1.376 . S
N110 C109 1.374 . S
N110 Co111 2.008 . S
Co111 N110 2.008 . S
Co111 N112 1.995 . S
Co111 N117 2.008 . S
Co111 N122 1.995 . S
Co111 N127 2.282 . S
Co111 N133 2.282 . S
N112 Co111 1.995 . S
N112 C113 1.376 . S
N112 C116 1.383 . S
C113 N112 1.376 . S
C113 C114 1.446 . S
C113 C143 1.391 . S
C114 C113 1.446 . S
C114 C115 1.339 . S
C114 H149 0.949 . S
C115 C114 1.339 . S
C115 C116 1.439 . S
C115 H150 0.950 . S
C116 N112 1.383 . S
C116 C115 1.439 . S
C116 C145 1.392 . S
N117 Co111 2.008 . S
N117 C118 1.376 . S
N117 C121 1.374 . S
C118 N117 1.376 . S
C118 C119 1.443 . S
C118 C145 1.389 . S
C119 C118 1.443 . S
C119 C120 1.340 . S
C119 H151 0.951 . S
C120 C119 1.340 . S
C120 C121 1.439 . S
C120 H152 0.950 . S
C121 N117 1.374 . S
C121 C120 1.439 . S
C121 C146 1.395 . S
N122 Co111 1.995 . S
N122 C123 1.376 . S
N122 C126 1.383 . S
C123 N122 1.376 . S
C123 C124 1.446 . S
C123 C146 1.391 . S
C124 C123 1.446 . S
C124 C125 1.339 . S
C124 H153 0.949 . S
C125 C124 1.339 . S
C125 C126 1.439 . S
C125 H154 0.950 . S
C126 N122 1.383 . S
C126 C125 1.439 . S
C126 C144 1.392 . S
N127 Co111 2.282 . S
N127 C130 1.332 . S
N127 C132 1.332 . S
C128 C129 1.386 . S
C128 C131 1.388 . S
C129 C128 1.386 . S
C129 C130 1.382 . S
C129 H155 0.950 . S
C130 N127 1.332 . S
C130 C129 1.382 . S
C130 H141 0.952 . S
C131 C128 1.388 . S
C131 C132 1.382 . S
C131 H156 0.950 . S
C132 N127 1.332 . S
C132 C131 1.382 . S
C132 H142 0.948 . S
N133 Co111 2.282 . S
N133 C137 1.332 . S
N133 C138 1.332 . S
C134 C135 1.388 . S
C134 C138 1.382 . S
C134 H157 0.950 . S
C135 C134 1.388 . S
C135 C136 1.386 . S
C136 C135 1.386 . S
C136 C137 1.382 . S
C136 H158 0.950 . S
C137 N133 1.332 . S
C137 C136 1.382 . S
C137 H139 0.952 . S
C138 N133 1.332 . S
C138 C134 1.382 . S
C138 H140 0.948 . S
H139 C137 0.952 . S
H140 C138 0.948 . S
H141 C130 0.952 . S
H142 C132 0.948 . S
C143 C109 1.395 . S
C143 C113 1.391 . S
C144 C106 1.389 . S
C144 C126 1.392 . S
C145 C116 1.392 . S
C145 C118 1.389 . S
C146 C121 1.395 . S
C146 C123 1.391 . S
H147 C107 0.951 . S
H148 C108 0.950 . S
H149 C114 0.949 . S
H150 C115 0.950 . S
H151 C119 0.951 . S
H152 C120 0.950 . S
H153 C124 0.949 . S
H154 C125 0.950 . S
H155 C129 0.950 . S
H156 C131 0.950 . S
H157 C134 0.950 . S
H158 C136 0.950 . S
C159 C160 1.443 . S
C159 N163 1.376 . S
C159 C197 1.389 . S
C160 C159 1.443 . S
C160 C161 1.340 . S
C160 H200 0.951 . S
C161 C160 1.340 . S
C161 C162 1.439 . S
C161 H201 0.950 . S
C162 C161 1.439 . S
C162 N163 1.374 . S
C162 C196 1.395 . S
N163 C159 1.376 . S
N163 C162 1.374 . S
N163 Co164 2.008 . S
Co164 N163 2.008 . S
Co164 N165 1.995 . S
Co164 N170 2.008 1_565 S
Co164 N175 1.995 1_565 S
Co164 N180 2.282 1_565 S
Co164 N186 2.282 . S
N165 Co164 1.995 . S
N165 C166 1.376 . S
N165 C169 1.383 . S
C166 N165 1.376 . S
C166 C167 1.446 . S
C166 C196 1.391 . S
C167 C166 1.446 . S
C167 C168 1.339 . S
C167 H202 0.949 . S
C168 C167 1.339 . S
C168 C169 1.439 . S
C168 H203 0.950 . S
C169 N165 1.383 . S
C169 C168 1.439 . S
C169 C198 1.392 1_565 S
N170 Co164 2.008 1_545 S
N170 C171 1.376 . S
N170 C174 1.374 . S
C171 N170 1.376 . S
C171 C172 1.443 . S
C171 C198 1.389 . S
C172 C171 1.443 . S
C172 C173 1.340 . S
C172 H204 0.951 . S
C173 C172 1.340 . S
C173 C174 1.439 . S
C173 H205 0.950 . S
C174 N170 1.374 . S
C174 C173 1.439 . S
C174 C199 1.395 . S
N175 Co164 1.995 1_545 S
N175 C176 1.376 . S
N175 C179 1.383 . S
C176 N175 1.376 . S
C176 C177 1.446 . S
C176 C199 1.391 . S
C177 C176 1.446 . S
C177 C178 1.339 . S
C177 H206 0.949 . S
C178 C177 1.339 . S
C178 C179 1.439 . S
C178 H207 0.950 . S
C179 N175 1.383 . S
C179 C178 1.439 . S
C179 C197 1.392 1_545 S
N180 Co164 2.282 1_545 S
N180 C183 1.332 . S
N180 C185 1.332 . S
C181 C182 1.386 . S
C181 C184 1.388 . S
C182 C181 1.386 . S
C182 C183 1.382 . S
C182 H208 0.950 . S
C183 N180 1.332 . S
C183 C182 1.382 . S
C183 H194 0.952 . S
C184 C181 1.388 . S
C184 C185 1.382 . S
C184 H209 0.950 . S
C185 N180 1.332 . S
C185 C184 1.382 . S
C185 H195 0.948 . S
N186 Co164 2.282 . S
N186 C190 1.332 . S
N186 C191 1.332 . S
C187 C188 1.388 . S
C187 C191 1.382 . S
C187 H210 0.950 . S
C188 C187 1.388 . S
C188 C189 1.386 . S
C189 C188 1.386 . S
C189 C190 1.382 . S
C189 H211 0.950 . S
C190 N186 1.332 . S
C190 C189 1.382 . S
C190 H192 0.952 . S
C191 N186 1.332 . S
C191 C187 1.382 . S
C191 H193 0.948 . S
H192 C190 0.952 . S
H193 C191 0.948 . S
H194 C183 0.952 . S
H195 C185 0.948 . S
C196 C162 1.395 . S
C196 C166 1.391 . S
C197 C159 1.389 . S
C197 C179 1.392 1_565 S
C198 C169 1.392 1_545 S
C198 C171 1.389 . S
C199 C174 1.395 . S
C199 C176 1.391 . S
H200 C160 0.951 . S
H201 C161 0.950 . S
H202 C167 0.949 . S
H203 C168 0.950 . S
H204 C172 0.951 . S
H205 C173 0.950 . S
H206 C177 0.949 . S
H207 C178 0.950 . S
H208 C182 0.950 . S
H209 C184 0.950 . S
H210 C187 0.950 . S
H211 C189 0.950 . S
C212 C213 1.441 1_655 S
C212 N216 1.373 1_655 S
C212 C250 1.395 . S
C213 C212 1.441 1_455 S
C213 C214 1.340 . S
C213 H253 0.951 1_556 S
C214 C213 1.340 . S
C214 C215 1.439 . S
C214 H254 0.950 1_556 S
C215 C214 1.439 . S
C215 N216 1.374 . S
C215 C249 1.395 . S
N216 C212 1.373 1_455 S
N216 C215 1.374 . S
N216 Co217 2.008 1_455 S
Co217 N216 2.008 1_655 S
Co217 N218 1.995 1_655 S
Co217 N223 2.008 . S
Co217 N228 1.995 . S
Co217 N233 2.282 1_655 S
Co217 N239 2.282 . S
N218 Co217 1.995 1_455 S
N218 C219 1.376 . S
N218 C222 1.383 . S
C219 N218 1.376 . S
C219 C220 1.446 . S
C219 C249 1.391 . S
C220 C219 1.446 . S
C220 C221 1.339 . S
C220 H255 0.949 . S
C221 C220 1.339 . S
C221 C222 1.439 . S
C221 H256 0.950 . S
C222 N218 1.383 . S
C222 C221 1.439 . S
C222 C251 1.392 . S
N223 Co217 2.008 . S
N223 C224 1.374 1_655 S
N223 C227 1.374 . S
C224 N223 1.374 1_455 S
C224 C225 1.442 1_455 S
C224 C251 1.392 . S
C225 C224 1.442 1_655 S
C225 C226 1.340 . S
C225 H257 0.951 . S
C226 C225 1.340 . S
C226 C227 1.439 . S
C226 H258 0.950 . S
C227 N223 1.374 . S
C227 C226 1.439 . S
C227 C252 1.395 . S
N228 Co217 1.995 . S
N228 C229 1.376 . S
N228 C232 1.383 . S
C229 N228 1.376 . S
C229 C230 1.446 . S
C229 C252 1.391 . S
C230 C229 1.446 . S
C230 C231 1.339 . S
C230 H259 0.949 . S
C231 C230 1.339 . S
C231 C232 1.439 . S
C231 H260 0.950 . S
C232 N228 1.383 . S
C232 C231 1.439 . S
C232 C250 1.392 . S
N233 Co217 2.282 1_455 S
N233 C236 1.332 . S
N233 C238 1.332 . S
C234 C235 1.386 . S
C234 C237 1.388 . S
C235 C234 1.386 . S
C235 C236 1.382 . S
C235 H261 0.950 . S
C236 N233 1.332 . S
C236 C235 1.382 . S
C236 H247 0.952 . S
C237 C234 1.388 . S
C237 C238 1.382 . S
C237 H262 0.950 . S
C238 N233 1.332 . S
C238 C237 1.382 . S
C238 H248 0.948 . S
N239 Co217 2.282 . S
N239 C243 1.332 . S
N239 C244 1.332 . S
C240 C241 1.388 . S
C240 C244 1.382 . S
C240 H263 0.950 . S
C241 C240 1.388 . S
C241 C242 1.386 . S
C242 C241 1.386 . S
C242 C243 1.382 . S
C242 H264 0.950 . S
C243 N239 1.332 . S
C243 C242 1.382 . S
C243 H245 0.952 . S
C244 N239 1.332 . S
C244 C240 1.382 . S
C244 H246 0.948 . S
H245 C243 0.952 . S
H246 C244 0.948 . S
H247 C236 0.952 . S
H248 C238 0.948 . S
C249 C215 1.395 . S
C249 C219 1.391 . S
C250 C212 1.395 . S
C250 C232 1.392 . S
C251 C222 1.392 . S
C251 C224 1.392 . S
C252 C227 1.395 . S
C252 C229 1.391 . S
H253 C213 0.951 1_554 S
H254 C214 0.950 1_554 S
H255 C220 0.949 . S
H256 C221 0.950 . S
H257 C225 0.951 . S
H258 C226 0.950 . S
H259 C230 0.949 . S
H260 C231 0.950 . S
H261 C235 0.950 . S
H262 C237 0.950 . S
H263 C240 0.950 . S
H264 C242 0.950 . S
C265 C266 1.443 . S
C265 N269 1.376 . S
C265 C303 1.389 . S
C266 C265 1.443 . S
C266 C267 1.340 . S
C266 H306 0.951 . S
C267 C266 1.340 . S
C267 C268 1.439 . S
C267 H307 0.950 . S
C268 C267 1.439 . S
C268 N269 1.374 . S
C268 C302 1.395 . S
N269 C265 1.376 . S
N269 C268 1.374 . S
N269 Co270 2.008 . S
Co270 N269 2.008 . S
Co270 N271 1.995 . S
Co270 N276 2.008 . S
Co270 N281 1.995 . S
Co270 N286 2.282 . S
Co270 N292 2.282 . S
N271 Co270 1.995 . S
N271 C272 1.376 . S
N271 C275 1.383 . S
C272 N271 1.376 . S
C272 C273 1.446 . S
C272 C302 1.391 . S
C273 C272 1.446 . S
C273 C274 1.339 . S
C273 H308 0.949 . S
C274 C273 1.339 . S
C274 C275 1.439 . S
C274 H309 0.950 . S
C275 N271 1.383 . S
C275 C274 1.439 . S
C275 C304 1.392 . S
N276 Co270 2.008 . S
N276 C277 1.376 . S
N276 C280 1.374 . S
C277 N276 1.376 . S
C277 C278 1.443 . S
C277 C304 1.389 . S
C278 C277 1.443 . S
C278 C279 1.340 . S
C278 H310 0.951 . S
C279 C278 1.340 . S
C279 C280 1.439 . S
C279 H311 0.950 . S
C280 N276 1.374 . S
C280 C279 1.439 . S
C280 C305 1.395 . S
N281 Co270 1.995 . S
N281 C282 1.376 . S
N281 C285 1.383 . S
C282 N281 1.376 . S
C282 C283 1.446 . S
C282 C305 1.391 . S
C283 C282 1.446 . S
C283 C284 1.339 . S
C283 H312 0.949 . S
C284 C283 1.339 . S
C284 C285 1.439 . S
C284 H313 0.950 . S
C285 N281 1.383 . S
C285 C284 1.439 . S
C285 C303 1.392 . S
N286 Co270 2.282 . S
N286 C289 1.332 . S
N286 C291 1.332 . S
C287 C288 1.386 . S
C287 C290 1.388 . S
C288 C287 1.386 . S
C288 C289 1.382 . S
C288 H314 0.950 . S
C289 N286 1.332 . S
C289 C288 1.382 . S
C289 H300 0.952 . S
C290 C287 1.388 . S
C290 C291 1.382 . S
C290 H315 0.950 . S
C291 N286 1.332 . S
C291 C290 1.382 . S
C291 H301 0.948 . S
N292 Co270 2.282 . S
N292 C296 1.332 . S
N292 C297 1.332 . S
C293 C294 1.388 . S
C293 C297 1.382 . S
C293 H316 0.950 . S
C294 C293 1.388 . S
C294 C295 1.386 . S
C295 C294 1.386 . S
C295 C296 1.382 . S
C295 H317 0.950 . S
C296 N292 1.332 . S
C296 C295 1.382 . S
C296 H298 0.952 . S
C297 N292 1.332 . S
C297 C293 1.382 . S
C297 H299 0.948 . S
H298 C296 0.952 . S
H299 C297 0.948 . S
H300 C289 0.952 . S
H301 C291 0.948 . S
C302 C268 1.395 . S
C302 C272 1.391 . S
C303 C265 1.389 . S
C303 C285 1.392 . S
C304 C275 1.392 . S
C304 C277 1.389 . S
C305 C280 1.395 . S
C305 C282 1.391 . S
H306 C266 0.951 . S
H307 C267 0.950 . S
H308 C273 0.949 . S
H309 C274 0.950 . S
H310 C278 0.951 . S
H311 C279 0.950 . S
H312 C283 0.949 . S
H313 C284 0.950 . S
H314 C288 0.950 . S
H315 C290 0.950 . S
H316 C293 0.950 . S
H317 C295 0.950 . S
C318 C319 1.443 . S
C318 N322 1.376 . S
C318 C356 1.389 . S
C319 C318 1.443 . S
C319 C320 1.340 . S
C319 H359 0.951 1_556 S
C320 C319 1.340 . S
C320 C321 1.439 . S
C320 H360 0.950 1_556 S
C321 C320 1.439 . S
C321 N322 1.374 . S
C321 C355 1.395 . S
N322 C318 1.376 . S
N322 C321 1.374 . S
N322 Co323 2.008 . S
Co323 N322 2.008 . S
Co323 N324 1.995 . S
Co323 N329 2.008 . S
Co323 N334 1.995 . S
Co323 N339 2.282 . S
Co323 N345 2.282 . S
N324 Co323 1.995 . S
N324 C325 1.376 . S
N324 C328 1.383 . S
C325 N324 1.376 . S
C325 C326 1.446 . S
C325 C355 1.391 . S
C326 C325 1.446 . S
C326 C327 1.339 . S
C326 H361 0.949 . S
C327 C326 1.339 . S
C327 C328 1.439 . S
C327 H362 0.950 . S
C328 N324 1.383 . S
C328 C327 1.439 . S
C328 C357 1.392 . S
N329 Co323 2.008 . S
N329 C330 1.376 . S
N329 C333 1.374 . S
C330 N329 1.376 . S
C330 C331 1.443 . S
C330 C357 1.389 . S
C331 C330 1.443 . S
C331 C332 1.340 . S
C331 H363 0.951 . S
C332 C331 1.340 . S
C332 C333 1.439 . S
C332 H364 0.950 . S
C333 N329 1.374 . S
C333 C332 1.439 . S
C333 C358 1.395 . S
N334 Co323 1.995 . S
N334 C335 1.376 . S
N334 C338 1.383 . S
C335 N334 1.376 . S
C335 C336 1.446 . S
C335 C358 1.391 . S
C336 C335 1.446 . S
C336 C337 1.339 . S
C336 H365 0.949 . S
C337 C336 1.339 . S
C337 C338 1.439 . S
C337 H366 0.950 . S
C338 N334 1.383 . S
C338 C337 1.439 . S
C338 C356 1.392 . S
N339 Co323 2.282 . S
N339 C342 1.332 . S
N339 C344 1.332 . S
C340 C341 1.386 . S
C340 C343 1.388 . S
C341 C340 1.386 . S
C341 C342 1.382 . S
C341 H367 0.950 . S
C342 N339 1.332 . S
C342 C341 1.382 . S
C342 H353 0.952 . S
C343 C340 1.388 . S
C343 C344 1.382 . S
C343 H368 0.950 . S
C344 N339 1.332 . S
C344 C343 1.382 . S
C344 H354 0.948 . S
N345 Co323 2.282 . S
N345 C349 1.332 . S
N345 C350 1.332 . S
C346 C347 1.388 . S
C346 C350 1.382 . S
C346 H369 0.950 . S
C347 C346 1.388 . S
C347 C348 1.386 . S
C348 C347 1.386 . S
C348 C349 1.382 . S
C348 H370 0.950 . S
C349 N345 1.332 . S
C349 C348 1.382 . S
C349 H351 0.952 . S
C350 N345 1.332 . S
C350 C346 1.382 . S
C350 H352 0.948 . S
H351 C349 0.952 . S
H352 C350 0.948 . S
H353 C342 0.952 . S
H354 C344 0.948 . S
C355 C321 1.395 . S
C355 C325 1.391 . S
C356 C318 1.389 . S
C356 C338 1.392 . S
C357 C328 1.392 . S
C357 C330 1.389 . S
C358 C333 1.395 . S
C358 C335 1.391 . S
H359 C319 0.951 1_554 S
H360 C320 0.950 1_554 S
H361 C326 0.949 . S
H362 C327 0.950 . S
H363 C331 0.951 . S
H364 C332 0.950 . S
H365 C336 0.949 . S
H366 C337 0.950 . S
H367 C341 0.950 . S
H368 C343 0.950 . S
H369 C346 0.950 . S
H370 C348 0.950 . S
C371 C372 1.443 . S
C371 N375 1.376 . S
C371 C409 1.389 . S
C372 C371 1.443 . S
C372 C373 1.340 . S
C372 H412 0.951 . S
C373 C372 1.340 . S
C373 C374 1.439 1_565 S
C373 H413 0.950 . S
C374 C373 1.439 1_545 S
C374 N375 1.374 1_545 S
C374 C408 1.395 . S
N375 C371 1.376 . S
N375 C374 1.374 1_565 S
N375 Co376 2.008 1_565 S
Co376 N375 2.008 1_545 S
Co376 N377 1.995 . S
Co376 N382 2.008 . S
Co376 N387 1.995 1_545 S
Co376 N392 2.282 . S
Co376 N398 2.282 1_545 S
N377 Co376 1.995 . S
N377 C378 1.376 . S
N377 C381 1.383 . S
C378 N377 1.376 . S
C378 C379 1.446 . S
C378 C408 1.391 . S
C379 C378 1.446 . S
C379 C380 1.339 . S
C379 H414 0.949 . S
C380 C379 1.339 . S
C380 C381 1.439 . S
C380 H415 0.950 . S
C381 N377 1.383 . S
C381 C380 1.439 . S
C381 C410 1.392 . S
N382 Co376 2.008 . S
N382 C383 1.376 . S
N382 C386 1.374 1_545 S
C383 N382 1.376 . S
C383 C384 1.443 . S
C383 C410 1.389 . S
C384 C383 1.443 . S
C384 C385 1.340 . S
C384 H416 0.951 . S
C385 C384 1.340 . S
C385 C386 1.439 1_545 S
C385 H417 0.950 . S
C386 N382 1.374 1_565 S
C386 C385 1.439 1_565 S
C386 C411 1.395 . S
N387 Co376 1.995 1_565 S
N387 C388 1.376 . S
N387 C391 1.383 . S
C388 N387 1.376 . S
C388 C389 1.446 . S
C388 C411 1.391 . S
C389 C388 1.446 . S
C389 C390 1.339 . S
C389 H418 0.949 . S
C390 C389 1.339 . S
C390 C391 1.439 . S
C390 H419 0.950 . S
C391 N387 1.383 . S
C391 C390 1.439 . S
C391 C409 1.392 . S
N392 Co376 2.282 . S
N392 C395 1.332 1_545 S
N392 C397 1.332 . S
C393 C394 1.386 . S
C393 C396 1.388 . S
C394 C393 1.386 . S
C394 C395 1.382 1_545 S
C394 H420 0.950 1_545 S
C395 N392 1.332 1_565 S
C395 C394 1.382 1_565 S
C395 H406 0.952 . S
C396 C393 1.388 . S
C396 C397 1.382 . S
C396 H421 0.950 . S
C397 N392 1.332 . S
C397 C396 1.382 . S
C397 H407 0.948 . S
N398 Co376 2.282 1_565 S
N398 C402 1.332 1_565 S
N398 C403 1.332 . S
C399 C400 1.388 . S
C399 C403 1.382 . S
C399 H422 0.950 . S
C400 C399 1.388 . S
C400 C401 1.386 . S
C401 C400 1.386 . S
C401 C402 1.382 1_565 S
C401 H423 0.950 1_565 S
C402 N398 1.332 1_545 S
C402 C401 1.382 1_545 S
C402 H404 0.952 . S
C403 N398 1.332 . S
C403 C399 1.382 . S
C403 H405 0.948 . S
H404 C402 0.952 . S
H405 C403 0.948 . S
H406 C395 0.952 . S
H407 C397 0.948 . S
C408 C374 1.395 . S
C408 C378 1.391 . S
C409 C371 1.389 . S
C409 C391 1.392 . S
C410 C381 1.392 . S
C410 C383 1.389 . S
C411 C386 1.395 . S
C411 C388 1.391 . S
H412 C372 0.951 . S
H413 C373 0.950 . S
H414 C379 0.949 . S
H415 C380 0.950 . S
H416 C384 0.951 . S
H417 C385 0.950 . S
H418 C389 0.949 . S
H419 C390 0.950 . S
H420 C394 0.950 1_565 S
H421 C396 0.950 . S
H422 C399 0.950 . S
H423 C401 0.950 1_545 S
C424 C425 1.369 . S
C424 C426 1.419 . S
C424 H428 0.930 . S
C425 C424 1.369 . S
C425 C434 1.429 1_655 S
C426 C424 1.419 . S
C426 C427 1.363 1_656 S
C426 H429 0.929 . S
C427 C426 1.363 1_454 S
C427 C433 1.428 . S
H428 C424 0.930 . S
H429 C426 0.929 . S
S430 N431 1.613 . S
S430 N432 1.610 . S
N431 S430 1.613 . S
N431 C434 1.350 1_554 S
N432 S430 1.610 . S
N432 C433 1.351 . S
C433 C427 1.428 . S
C433 N432 1.351 . S
C433 C434 1.434 1_554 S
C434 C425 1.429 1_455 S
C434 N431 1.350 1_556 S
C434 C433 1.434 1_556 S
C435 C436 1.369 . S
C435 C437 1.419 . S
C435 H439 0.930 . S
C436 C435 1.369 . S
C436 C445 1.429 . S
C437 C435 1.419 . S
C437 C438 1.363 . S
C437 H440 0.929 . S
C438 C437 1.363 . S
C438 C444 1.428 . S
H439 C435 0.930 . S
H440 C437 0.929 . S
S441 N442 1.613 . S
S441 N443 1.610 . S
N442 S441 1.613 . S
N442 C445 1.350 . S
N443 S441 1.610 . S
N443 C444 1.351 . S
C444 C438 1.428 . S
C444 N443 1.351 . S
C444 C445 1.434 . S
C445 C436 1.429 . S
C445 N442 1.350 . S
C445 C444 1.434 . S
C446 C447 1.369 1_556 S
C446 C448 1.419 1_565 S
C446 H450 0.930 . S
C447 C446 1.369 1_554 S
C447 C456 1.429 . S
C448 C446 1.419 1_545 S
C448 C449 1.363 . S
C448 H451 0.929 . S
C449 C448 1.363 . S
C449 C455 1.428 1_556 S
H450 C446 0.930 . S
H451 C448 0.929 . S
S452 N453 1.613 1_545 S
S452 N454 1.610 . S
N453 S452 1.613 1_565 S
N453 C456 1.350 . S
N454 S452 1.610 . S
N454 C455 1.351 . S
C455 C449 1.428 1_554 S
C455 N454 1.351 . S
C455 C456 1.434 1_545 S
C456 C447 1.429 . S
C456 N453 1.350 . S
C456 C455 1.434 1_565 S
C457 C458 1.369 1_455 S
C457 C459 1.419 1_545 S
C457 H461 0.930 . S
C458 C457 1.369 1_655 S
C458 C467 1.429 . S
C459 C457 1.419 1_565 S
C459 C460 1.363 . S
C459 H462 0.929 . S
C460 C459 1.363 . S
C460 C466 1.428 1_465 S
H461 C457 0.930 . S
H462 C459 0.929 . S
S463 N464 1.613 . S
S463 N465 1.610 . S
N464 S463 1.613 . S
N464 C467 1.350 . S
N465 S463 1.610 . S
N465 C466 1.351 . S
C466 C460 1.428 1_645 S
C466 N465 1.351 . S
C466 C467 1.434 . S
C467 C458 1.429 . S
C467 N464 1.350 . S
C467 C466 1.434 . S
C468 C469 1.369 . S
C468 C470 1.419 . S
C468 H472 0.930 . S
C469 C468 1.369 . S
C469 C478 1.429 . S
C470 C468 1.419 . S
C470 C471 1.363 . S
C470 H473 0.929 . S
C471 C470 1.363 . S
C471 C477 1.428 . S
H472 C468 0.930 . S
H473 C470 0.929 . S
S474 N475 1.613 . S
S474 N476 1.610 . S
N475 S474 1.613 . S
N475 C478 1.350 . S
N476 S474 1.610 . S
N476 C477 1.351 . S
C477 C471 1.428 . S
C477 N476 1.351 . S
C477 C478 1.434 . S
C478 C469 1.429 . S
C478 N475 1.350 . S
C478 C477 1.434 . S
C479 C480 1.369 . S
C479 C481 1.419 . S
C479 H483 0.930 . S
C480 C479 1.369 . S
C480 C489 1.429 . S
C481 C479 1.419 . S
C481 C482 1.363 . S
C481 H484 0.929 . S
C482 C481 1.363 . S
C482 C488 1.428 . S
H483 C479 0.930 . S
H484 C481 0.929 . S
S485 N486 1.613 . S
S485 N487 1.610 . S
N486 S485 1.613 . S
N486 C489 1.350 . S
N487 S485 1.610 . S
N487 C488 1.351 . S
C488 C482 1.428 . S
C488 N487 1.351 . S
C488 C489 1.434 . S
C489 C480 1.429 . S
C489 N486 1.350 . S
C489 C488 1.434 . S
C490 C491 1.369 . S
C490 C492 1.419 . S
C490 H494 0.930 . S
C491 C490 1.369 . S
C491 C500 1.429 . S
C492 C490 1.419 . S
C492 C493 1.363 . S
C492 H495 0.929 . S
C493 C492 1.363 . S
C493 C499 1.428 . S
H494 C490 0.930 . S
H495 C492 0.929 . S
S496 N497 1.613 . S
S496 N498 1.610 . S
N497 S496 1.613 . S
N497 C500 1.350 . S
N498 S496 1.610 . S
N498 C499 1.351 . S
C499 C493 1.428 . S
C499 N498 1.351 . S
C499 C500 1.434 . S
C500 C491 1.429 . S
C500 N497 1.350 . S
C500 C499 1.434 . S
C501 C502 1.369 . S
C501 C503 1.419 . S
C501 H505 0.930 . S
C502 C501 1.369 . S
C502 C511 1.429 . S
C503 C501 1.419 . S
C503 C504 1.363 . S
C503 H506 0.929 . S
C504 C503 1.363 . S
C504 C510 1.428 . S
H505 C501 0.930 . S
H506 C503 0.929 . S
S507 N508 1.613 . S
S507 N509 1.610 . S
N508 S507 1.613 . S
N508 C511 1.350 . S
N509 S507 1.610 . S
N509 C510 1.351 . S
C510 C504 1.428 . S
C510 N509 1.351 . S
C510 C511 1.434 . S
C511 C502 1.429 . S
C511 N508 1.350 . S
C511 C510 1.434 . S
C512 C513 1.369 . S
C512 C514 1.419 . S
C512 H516 0.930 . S
C513 C512 1.369 . S
C513 C522 1.429 . S
C514 C512 1.419 . S
C514 C515 1.363 . S
C514 H517 0.929 . S
C515 C514 1.363 . S
C515 C521 1.428 . S
H516 C512 0.930 . S
H517 C514 0.929 . S
S518 N519 1.613 . S
S518 N520 1.610 . S
N519 S518 1.613 . S
N519 C522 1.350 . S
N520 S518 1.610 . S
N520 C521 1.351 . S
C521 C515 1.428 . S
C521 N520 1.351 . S
C521 C522 1.434 . S
C522 C513 1.429 . S
C522 N519 1.350 . S
C522 C521 1.434 . S
C523 C524 1.369 . S
C523 C525 1.419 . S
C523 H527 0.930 . S
C524 C523 1.369 . S
C524 C533 1.429 . S
C525 C523 1.419 . S
C525 C526 1.363 . S
C525 H528 0.929 . S
C526 C525 1.363 . S
C526 C532 1.428 . S
H527 C523 0.930 . S
H528 C525 0.929 . S
S529 N530 1.613 . S
S529 N531 1.610 . S
N530 S529 1.613 . S
N530 C533 1.350 . S
N531 S529 1.610 . S
N531 C532 1.351 . S
C532 C526 1.428 . S
C532 N531 1.351 . S
C532 C533 1.434 . S
C533 C524 1.429 . S
C533 N530 1.350 . S
C533 C532 1.434 . S
C534 C535 1.369 . S
C534 C536 1.419 . S
C534 H538 0.930 . S
C535 C534 1.369 . S
C535 C544 1.429 . S
C536 C534 1.419 . S
C536 C537 1.363 . S
C536 H539 0.929 . S
C537 C536 1.363 . S
C537 C543 1.428 . S
H538 C534 0.930 . S
H539 C536 0.929 . S
S540 N541 1.613 . S
S540 N542 1.610 . S
N541 S540 1.613 . S
N541 C544 1.350 . S
N542 S540 1.610 . S
N542 C543 1.351 . S
C543 C537 1.428 . S
C543 N542 1.351 . S
C543 C544 1.434 . S
C544 C535 1.429 . S
C544 N541 1.350 . S
C544 C543 1.434 . S
C545 C546 1.369 . S
C545 C547 1.419 . S
C545 H549 0.930 . S
C546 C545 1.369 . S
C546 C555 1.429 . S
C547 C545 1.419 . S
C547 C548 1.363 . S
C547 H550 0.929 . S
C548 C547 1.363 . S
C548 C554 1.428 . S
H549 C545 0.930 . S
H550 C547 0.929 . S
S551 N552 1.613 . S
S551 N553 1.610 . S
N552 S551 1.613 . S
N552 C555 1.350 . S
N553 S551 1.610 . S
N553 C554 1.351 . S
C554 C548 1.428 . S
C554 N553 1.351 . S
C554 C555 1.434 . S
C555 C546 1.429 . S
C555 N552 1.350 . S
C555 C554 1.434 . S
C556 C557 1.369 . S
C556 C558 1.419 . S
C556 H560 0.930 . S
C557 C556 1.369 . S
C557 C566 1.429 . S
C558 C556 1.419 . S
C558 C559 1.363 . S
C558 H561 0.929 . S
C559 C558 1.363 . S
C559 C565 1.428 . S
H560 C556 0.930 . S
H561 C558 0.929 . S
S562 N563 1.613 . S
S562 N564 1.610 . S
N563 S562 1.613 . S
N563 C566 1.350 . S
N564 S562 1.610 . S
N564 C565 1.351 . S
C565 C559 1.428 . S
C565 N564 1.351 . S
C565 C566 1.434 . S
C566 C557 1.429 . S
C566 N563 1.350 . S
C566 C565 1.434 . S
C567 C568 1.369 . S
C567 C569 1.419 . S
C567 H571 0.930 . S
C568 C567 1.369 . S
C568 C577 1.429 . S
C569 C567 1.419 . S
C569 C570 1.363 . S
C569 H572 0.929 . S
C570 C569 1.363 . S
C570 C576 1.428 . S
H571 C567 0.930 . S
H572 C569 0.929 . S
S573 N574 1.613 . S
S573 N575 1.610 . S
N574 S573 1.613 . S
N574 C577 1.350 . S
N575 S573 1.610 . S
N575 C576 1.351 . S
C576 C570 1.428 . S
C576 N575 1.351 . S
C576 C577 1.434 . S
C577 C568 1.429 . S
C577 N574 1.350 . S
C577 C576 1.434 . S
C578 C579 1.369 . S
C578 C580 1.419 . S
C578 H582 0.930 . S
C579 C578 1.369 . S
C579 C588 1.429 . S
C580 C578 1.419 . S
C580 C581 1.363 . S
C580 H583 0.929 . S
C581 C580 1.363 . S
C581 C587 1.428 . S
H582 C578 0.930 . S
H583 C580 0.929 . S
S584 N585 1.613 . S
S584 N586 1.610 . S
N585 S584 1.613 . S
N585 C588 1.350 . S
N586 S584 1.610 . S
N586 C587 1.351 . S
C587 C581 1.428 . S
C587 N586 1.351 . S
C587 C588 1.434 . S
C588 C579 1.429 . S
C588 N585 1.350 . S
C588 C587 1.434 . S
C589 C590 1.369 . S
C589 C591 1.419 . S
C589 H593 0.930 . S
C590 C589 1.369 . S
C590 C599 1.429 . S
C591 C589 1.419 . S
C591 C592 1.363 . S
C591 H594 0.929 . S
C592 C591 1.363 . S
C592 C598 1.428 . S
H593 C589 0.930 . S
H594 C591 0.929 . S
S595 N596 1.613 . S
S595 N597 1.610 . S
N596 S595 1.613 . S
N596 C599 1.350 . S
N597 S595 1.610 . S
N597 C598 1.351 . S
C598 C592 1.428 . S
C598 N597 1.351 . S
C598 C599 1.434 . S
C599 C590 1.429 . S
C599 N596 1.350 . S
C599 C598 1.434 . S
C425 C250 2.059 . S
C427 C22 2.050 . S
C436 C91 1.948 . S
C438 C287 1.947 . S
C447 C128 1.855 . S
C449 C356 1.866 . S
C458 C393 1.986 . S
C460 C197 1.993 . S
C469 C39 2.668 . S
C471 C145 2.668 . S
C480 C82 2.299 . S
C482 C188 2.319 . S
C491 C347 2.298 . S
C493 C241 2.292 . S
C502 C304 2.677 . S
C504 C410 2.695 . S
C513 C294 1.712 . S
C515 C38 1.651 . S
C524 C75 1.761 . S
C526 C357 1.915 . S
C535 C144 1.714 . S
C537 C400 1.774 . S
C546 C251 1.712 . S
C548 C181 1.610 . S
C557 C234 1.689 . S
C559 C92 1.798 . S
C568 C303 1.692 . S
C570 C135 1.790 . S
C579 C340 1.711 . S
C581 C198 1.848 . S
C590 C29 1.695 . S
C592 C409 1.643 . S
