# Generated by pormake.
# Topology hbo, (4)-cn, num edge types: 1
# Building blocks:
#     Node 0, Type 0, BuildingBlock: QUQFOY_clean_sbu_1, # of connection points: 4
#     Node 1, Type 0, BuildingBlock: QUQFOY_clean_sbu_1, # of connection points: 4
#     Node 2, Type 0, BuildingBlock: QUQFOY_clean_sbu_1, # of connection points: 4
#     Node 3, Type 0, BuildingBlock: QUQFOY_clean_sbu_1, # of connection points: 4
#     Node 4, Type 0, BuildingBlock: QUQFOY_clean_sbu_1, # of connection points: 4
#     Node 5, Type 0, BuildingBlock: QUQFOY_clean_sbu_1, # of connection points: 4
#     Node 6, Type 0, BuildingBlock: QUQFOY_clean_sbu_1, # of connection points: 4
#     Node 7, Type 0, BuildingBlock: QUQFOY_clean_sbu_1, # of connection points: 4
#     Node 8, Type 0, BuildingBlock: QUQFOY_clean_sbu_1, # of connection points: 4
#     Node 9, Type 0, BuildingBlock: QUQFOY_clean_sbu_1, # of connection points: 4
#     Node 10, Type 0, BuildingBlock: QUQFOY_clean_sbu_1, # of connection points: 4
#     Node 11, Type 0, BuildingBlock: QUQFOY_clean_sbu_1, # of connection points: 4
#     Node 12, Type 0, BuildingBlock: QUQFOY_clean_sbu_1, # of connection points: 4
#     Node 13, Type 0, BuildingBlock: QUQFOY_clean_sbu_1, # of connection points: 4
#     Node 14, Type 0, BuildingBlock: QUQFOY_clean_sbu_1, # of connection points: 4
#     Node 15, Type 0, BuildingBlock: QUQFOY_clean_sbu_1, # of connection points: 4
#     Node 16, Type 0, BuildingBlock: QUQFOY_clean_sbu_1, # of connection points: 4
#     Node 17, Type 0, BuildingBlock: QUQFOY_clean_sbu_1, # of connection points: 4
#     Node 18, Type 0, BuildingBlock: QUQFOY_clean_sbu_1, # of connection points: 4
#     Node 19, Type 0, BuildingBlock: QUQFOY_clean_sbu_1, # of connection points: 4
#     Node 20, Type 0, BuildingBlock: QUQFOY_clean_sbu_1, # of connection points: 4
#     Node 21, Type 0, BuildingBlock: QUQFOY_clean_sbu_1, # of connection points: 4
#     Node 22, Type 0, BuildingBlock: QUQFOY_clean_sbu_1, # of connection points: 4
#     Node 23, Type 0, BuildingBlock: QUQFOY_clean_sbu_1, # of connection points: 4
#     Edge 24, Type (0, 0), BuildingBlock: AJUNOK_clean_linker_0, # of connection points: 2
#     Edge 25, Type (0, 0), BuildingBlock: AJUNOK_clean_linker_0, # of connection points: 2
#     Edge 26, Type (0, 0), BuildingBlock: AJUNOK_clean_linker_0, # of connection points: 2
#     Edge 27, Type (0, 0), BuildingBlock: AJUNOK_clean_linker_0, # of connection points: 2
#     Edge 28, Type (0, 0), BuildingBlock: AJUNOK_clean_linker_0, # of connection points: 2
#     Edge 29, Type (0, 0), BuildingBlock: AJUNOK_clean_linker_0, # of connection points: 2
#     Edge 30, Type (0, 0), BuildingBlock: AJUNOK_clean_linker_0, # of connection points: 2
#     Edge 31, Type (0, 0), BuildingBlock: AJUNOK_clean_linker_0, # of connection points: 2
#     Edge 32, Type (0, 0), BuildingBlock: AJUNOK_clean_linker_0, # of connection points: 2
#     Edge 33, Type (0, 0), BuildingBlock: AJUNOK_clean_linker_0, # of connection points: 2
#     Edge 34, Type (0, 0), BuildingBlock: AJUNOK_clean_linker_0, # of connection points: 2
#     Edge 35, Type (0, 0), BuildingBlock: AJUNOK_clean_linker_0, # of connection points: 2
#     Edge 36, Type (0, 0), BuildingBlock: AJUNOK_clean_linker_0, # of connection points: 2
#     Edge 37, Type (0, 0), BuildingBlock: AJUNOK_clean_linker_0, # of connection points: 2
#     Edge 38, Type (0, 0), BuildingBlock: AJUNOK_clean_linker_0, # of connection points: 2
#     Edge 39, Type (0, 0), BuildingBlock: AJUNOK_clean_linker_0, # of connection points: 2
#     Edge 40, Type (0, 0), BuildingBlock: AJUNOK_clean_linker_0, # of connection points: 2
#     Edge 41, Type (0, 0), BuildingBlock: AJUNOK_clean_linker_0, # of connection points: 2
#     Edge 42, Type (0, 0), BuildingBlock: AJUNOK_clean_linker_0, # of connection points: 2
#     Edge 43, Type (0, 0), BuildingBlock: AJUNOK_clean_linker_0, # of connection points: 2
#     Edge 44, Type (0, 0), BuildingBlock: AJUNOK_clean_linker_0, # of connection points: 2
#     Edge 45, Type (0, 0), BuildingBlock: AJUNOK_clean_linker_0, # of connection points: 2
#     Edge 46, Type (0, 0), BuildingBlock: AJUNOK_clean_linker_0, # of connection points: 2
#     Edge 47, Type (0, 0), BuildingBlock: AJUNOK_clean_linker_0, # of connection points: 2
#     Edge 48, Type (0, 0), BuildingBlock: AJUNOK_clean_linker_0, # of connection points: 2
#     Edge 49, Type (0, 0), BuildingBlock: AJUNOK_clean_linker_0, # of connection points: 2
#     Edge 50, Type (0, 0), BuildingBlock: AJUNOK_clean_linker_0, # of connection points: 2
#     Edge 51, Type (0, 0), BuildingBlock: AJUNOK_clean_linker_0, # of connection points: 2
#     Edge 52, Type (0, 0), BuildingBlock: AJUNOK_clean_linker_0, # of connection points: 2
#     Edge 53, Type (0, 0), BuildingBlock: AJUNOK_clean_linker_0, # of connection points: 2
#     Edge 54, Type (0, 0), BuildingBlock: AJUNOK_clean_linker_0, # of connection points: 2
#     Edge 55, Type (0, 0), BuildingBlock: AJUNOK_clean_linker_0, # of connection points: 2
#     Edge 56, Type (0, 0), BuildingBlock: AJUNOK_clean_linker_0, # of connection points: 2
#     Edge 57, Type (0, 0), BuildingBlock: AJUNOK_clean_linker_0, # of connection points: 2
#     Edge 58, Type (0, 0), BuildingBlock: AJUNOK_clean_linker_0, # of connection points: 2
#     Edge 59, Type (0, 0), BuildingBlock: AJUNOK_clean_linker_0, # of connection points: 2
#     Edge 60, Type (0, 0), BuildingBlock: AJUNOK_clean_linker_0, # of connection points: 2
#     Edge 61, Type (0, 0), BuildingBlock: AJUNOK_clean_linker_0, # of connection points: 2
#     Edge 62, Type (0, 0), BuildingBlock: AJUNOK_clean_linker_0, # of connection points: 2
#     Edge 63, Type (0, 0), BuildingBlock: AJUNOK_clean_linker_0, # of connection points: 2
#     Edge 64, Type (0, 0), BuildingBlock: AJUNOK_clean_linker_0, # of connection points: 2
#     Edge 65, Type (0, 0), BuildingBlock: AJUNOK_clean_linker_0, # of connection points: 2
#     Edge 66, Type (0, 0), BuildingBlock: AJUNOK_clean_linker_0, # of connection points: 2
#     Edge 67, Type (0, 0), BuildingBlock: AJUNOK_clean_linker_0, # of connection points: 2
#     Edge 68, Type (0, 0), BuildingBlock: AJUNOK_clean_linker_0, # of connection points: 2
#     Edge 69, Type (0, 0), BuildingBlock: AJUNOK_clean_linker_0, # of connection points: 2
#     Edge 70, Type (0, 0), BuildingBlock: AJUNOK_clean_linker_0, # of connection points: 2
#     Edge 71, Type (0, 0), BuildingBlock: AJUNOK_clean_linker_0, # of connection points: 2
# Relax obj value: 0.233
# Max RMSD: 0.214
# Mean RMSD: 0.214
data_MOF--net-hbo--node1-QUQFOY_clean_sbu_1--edge1-AJUNOK_clean_linker_0
_symmetry_space_group_name_H-M    P1
_symmetry_Int_Tables_number       1
_symmetry_cell_setting            triclinic
loop_
_symmetry_equiv_pos_as_xyz
'x, y, z'
_cell_length_a     40.701642
_cell_length_b     40.681751
_cell_length_c     40.728206
_cell_angle_alpha  90.002129
_cell_angle_beta   89.993048
_cell_angle_gamma 90.019421
loop_
_atom_site_label
_atom_site_type_symbol
_atom_site_fract_x
_atom_site_fract_y
_atom_site_fract_z
_atom_type_partial_charge
O0 O 0.13989 0.30788 0.27328 0.0
Cd1 Cd 0.13147 0.34219 0.23698 0.0
Cd2 Cd 0.16865 0.37874 0.2749 0.0
O3 O 0.16426 0.34084 0.30852 0.0
O4 O 0.09181 0.32608 0.21324 0.0
O5 O 0.09271 0.37261 0.24116 0.0
C6 C 0.07632 0.35154 0.22397 0.0
C7 C 0.15932 0.43384 0.28828 0.0
C8 C 0.1531 0.31256 0.30116 0.0
C9 C 0.19743 0.35761 0.21015 0.0
O10 O 0.20251 0.37055 0.2381 0.0
O11 O 0.16898 0.34681 0.20301 0.0
O12 O 0.18488 0.41832 0.29874 0.0
O13 O 0.13815 0.41749 0.27119 0.0
O14 O 0.14124 0.70353 0.73868 0.0
Cd15 Cd 0.13315 0.66909 0.77494 0.0
Cd16 Cd 0.16987 0.63252 0.73648 0.0
O17 O 0.16526 0.67064 0.70313 0.0
O18 O 0.09271 0.68376 0.79839 0.0
O19 O 0.09548 0.63759 0.76996 0.0
C20 C 0.07815 0.65797 0.78702 0.0
C21 C 0.16037 0.57751 0.72279 0.0
C22 C 0.15418 0.69891 0.71066 0.0
C23 C 0.19918 0.65328 0.8012 0.0
O24 O 0.20392 0.64044 0.77315 0.0
O25 O 0.17091 0.6644 0.80863 0.0
O26 O 0.18592 0.59304 0.7123 0.0
O27 O 0.13932 0.5938 0.74007 0.0
O28 O 0.80847 0.64011 0.23837 0.0
Cd29 Cd 0.84234 0.63173 0.27507 0.0
Cd30 Cd 0.87959 0.66847 0.23735 0.0
O31 O 0.84199 0.66408 0.20341 0.0
O32 O 0.82704 0.59129 0.29814 0.0
O33 O 0.87366 0.59385 0.27047 0.0
C34 C 0.85289 0.57659 0.28714 0.0
C35 C 0.93475 0.65918 0.2242 0.0
C36 C 0.81354 0.65323 0.21049 0.0
C37 C 0.85785 0.69769 0.30178 0.0
O38 O 0.87114 0.70249 0.27395 0.0
O39 O 0.84663 0.66939 0.30897 0.0
O40 O 0.91927 0.68474 0.21367 0.0
O41 O 0.91835 0.63802 0.24126 0.0
O42 O 0.80854 0.3713 0.77572 0.0
Cd43 Cd 0.84197 0.37951 0.73852 0.0
Cd44 Cd 0.87903 0.3418 0.77548 0.0
O45 O 0.84183 0.34587 0.80988 0.0
O46 O 0.82551 0.41922 0.715 0.0
O47 O 0.87274 0.41812 0.74165 0.0
C48 C 0.85141 0.43456 0.72489 0.0
C49 C 0.93424 0.35267 0.78685 0.0
C50 C 0.81359 0.35756 0.80328 0.0
C51 C 0.85641 0.31338 0.71115 0.0
O52 O 0.87013 0.30812 0.73869 0.0
O53 O 0.84544 0.34189 0.7045 0.0
O54 O 0.91985 0.32665 0.79791 0.0
O55 O 0.91664 0.37339 0.77048 0.0
O56 O 0.23953 0.2026 0.37085 0.0
Cd57 Cd 0.27638 0.16876 0.37902 0.0
Cd58 Cd 0.23835 0.13144 0.34276 0.0
O59 O 0.20444 0.16909 0.34703 0.0
O60 O 0.29984 0.18422 0.41914 0.0
O61 O 0.27229 0.13748 0.41698 0.0
C62 C 0.28913 0.15832 0.43398 0.0
C63 C 0.22596 0.07638 0.35355 0.0
C64 C 0.21159 0.19755 0.35783 0.0
C65 C 0.30269 0.15289 0.31306 0.0
O66 O 0.27482 0.13954 0.30851 0.0
O67 O 0.31001 0.16436 0.3412 0.0
O68 O 0.21499 0.09105 0.32769 0.0
O69 O 0.24284 0.0936 0.37415 0.0
O70 O 0.373 0.77352 0.80908 0.0
Cd71 Cd 0.38075 0.7369 0.84325 0.0
Cd72 Cd 0.34379 0.77524 0.8796 0.0
O73 O 0.34859 0.80894 0.84183 0.0
O74 O 0.42093 0.71324 0.82815 0.0
O75 O 0.4186 0.74107 0.87465 0.0
C76 C 0.43568 0.72409 0.85401 0.0
C77 C 0.35446 0.78764 0.9346 0.0
C78 C 0.35998 0.80153 0.81369 0.0
C79 C 0.31444 0.71068 0.8583 0.0
O80 O 0.30963 0.73868 0.87132 0.0
O81 O 0.34283 0.70329 0.84752 0.0
O82 O 0.32866 0.7987 0.91986 0.0
O83 O 0.37506 0.77066 0.91747 0.0
O84 O 0.77133 0.80754 0.37162 0.0
Cd85 Cd 0.73474 0.84156 0.38007 0.0
Cd86 Cd 0.77274 0.87881 0.34362 0.0
O87 O 0.80656 0.84107 0.34804 0.0
O88 O 0.71113 0.8257 0.41991 0.0
O89 O 0.73907 0.87225 0.41856 0.0
C90 C 0.72198 0.85127 0.43517 0.0
C91 C 0.78594 0.934 0.35287 0.0
C92 C 0.79931 0.81258 0.35869 0.0
C93 C 0.70825 0.85751 0.3142 0.0
O94 O 0.7362 0.87063 0.30951 0.0
O95 O 0.70093 0.8462 0.3424 0.0
O96 O 0.79655 0.91844 0.3274 0.0
O97 O 0.76885 0.91763 0.37402 0.0
O98 O 0.6393 0.23776 0.8101 0.0
Cd99 Cd 0.63183 0.27414 0.84459 0.0
Cd100 Cd 0.66837 0.23513 0.88067 0.0
O101 O 0.66308 0.20178 0.84269 0.0
O102 O 0.5927 0.29893 0.82869 0.0
O103 O 0.59298 0.27061 0.87495 0.0
C104 C 0.57697 0.2883 0.85404 0.0
C105 C 0.65799 0.22196 0.93552 0.0
C106 C 0.65188 0.20952 0.81457 0.0
C107 C 0.6985 0.29946 0.86009 0.0
O108 O 0.70308 0.27124 0.8727 0.0
O109 O 0.67016 0.30724 0.84946 0.0
O110 O 0.68346 0.21077 0.92035 0.0
O111 O 0.63754 0.2397 0.91896 0.0
O112 O 0.2753 0.87204 0.70298 0.0
Cd113 Cd 0.23873 0.88019 0.66885 0.0
Cd114 Cd 0.27661 0.84314 0.63224 0.0
O115 O 0.31035 0.84748 0.66999 0.0
O116 O 0.21539 0.92057 0.68392 0.0
O117 O 0.24314 0.91798 0.63739 0.0
C118 C 0.22628 0.93521 0.65799 0.0
C119 C 0.28929 0.85358 0.57724 0.0
C120 C 0.30313 0.85866 0.69825 0.0
C121 C 0.21195 0.81413 0.65367 0.0
O122 O 0.23982 0.80919 0.64046 0.0
O123 O 0.20483 0.84253 0.66463 0.0
O124 O 0.30002 0.82769 0.59207 0.0
O125 O 0.27247 0.8744 0.59427 0.0
O126 O 0.7027 0.7382 0.14015 0.0
Cd127 Cd 0.66813 0.77444 0.13228 0.0
Cd128 Cd 0.63191 0.73546 0.16865 0.0
O129 O 0.67006 0.70221 0.16388 0.0
O130 O 0.68322 0.79845 0.09232 0.0
O131 O 0.63705 0.76999 0.09423 0.0
C132 C 0.65759 0.78731 0.07737 0.0
C133 C 0.57709 0.72256 0.15753 0.0
C134 C 0.69826 0.71002 0.15287 0.0
C135 C 0.65223 0.80007 0.19855 0.0
O136 O 0.63956 0.77187 0.2031 0.0
O137 O 0.6631 0.8078 0.17029 0.0
O138 O 0.59177 0.71146 0.18333 0.0
O139 O 0.59419 0.73987 0.13718 0.0
O140 O 0.73626 0.13998 0.70341 0.0
Cd141 Cd 0.77282 0.13214 0.66919 0.0
Cd142 Cd 0.73413 0.16848 0.63265 0.0
O143 O 0.70056 0.16363 0.67046 0.0
O144 O 0.79734 0.09279 0.68506 0.0
O145 O 0.76927 0.09342 0.63866 0.0
C146 C 0.78684 0.07724 0.65954 0.0
C147 C 0.72191 0.15739 0.57773 0.0
C148 C 0.70814 0.15278 0.69875 0.0
C149 C 0.79835 0.19862 0.65339 0.0
O150 O 0.77023 0.20315 0.64062 0.0
O151 O 0.80605 0.17036 0.66436 0.0
O152 O 0.71046 0.18309 0.59235 0.0
O153 O 0.73914 0.13707 0.59496 0.0
O154 O 0.30809 0.27287 0.13939 0.0
Cd155 Cd 0.34272 0.23675 0.13135 0.0
Cd156 Cd 0.37893 0.2755 0.16797 0.0
O157 O 0.34082 0.30879 0.16311 0.0
O158 O 0.32717 0.21252 0.09175 0.0
O159 O 0.3733 0.24113 0.0928 0.0
C160 C 0.35258 0.22357 0.07637 0.0
C161 C 0.43383 0.28909 0.15815 0.0
C162 C 0.31259 0.30103 0.15214 0.0
C163 C 0.35852 0.21083 0.19755 0.0
O164 O 0.3711 0.23904 0.20228 0.0
O165 O 0.3478 0.20322 0.16921 0.0
O166 O 0.41841 0.29989 0.18362 0.0
O167 O 0.41749 0.27155 0.13736 0.0
O168 O 0.87244 0.70323 0.73903 0.0
Cd169 Cd 0.88056 0.66894 0.77542 0.0
Cd170 Cd 0.8438 0.63223 0.73716 0.0
O171 O 0.84854 0.67013 0.70358 0.0
O172 O 0.92108 0.68367 0.79868 0.0
O173 O 0.91819 0.63741 0.77041 0.0
C174 C 0.93559 0.65785 0.78733 0.0
C175 C 0.85275 0.57706 0.72377 0.0
C176 C 0.85959 0.69845 0.711 0.0
C177 C 0.81458 0.65329 0.80182 0.0
O178 O 0.80979 0.64043 0.77379 0.0
O179 O 0.84287 0.66436 0.80922 0.0
O180 O 0.82736 0.59278 0.7132 0.0
O181 O 0.87399 0.59326 0.7409 0.0
O182 O 0.87024 0.30801 0.27445 0.0
Cd183 Cd 0.87872 0.34187 0.23771 0.0
Cd184 Cd 0.84138 0.37878 0.27515 0.0
O185 O 0.84539 0.34119 0.30916 0.0
O186 O 0.91841 0.32554 0.21409 0.0
O187 O 0.91746 0.3724 0.24145 0.0
C188 C 0.93386 0.3512 0.22446 0.0
C189 C 0.85227 0.43389 0.28712 0.0
C190 C 0.85673 0.31289 0.30216 0.0
C191 C 0.81275 0.35703 0.21059 0.0
O192 O 0.80762 0.37039 0.23834 0.0
O193 O 0.84119 0.34604 0.2037 0.0
O194 O 0.82627 0.41939 0.29806 0.0
O195 O 0.87296 0.41646 0.27055 0.0
O196 O 0.20277 0.37173 0.77314 0.0
Cd197 Cd 0.16894 0.3799 0.73631 0.0
Cd198 Cd 0.13204 0.34289 0.77405 0.0
O199 O 0.16948 0.34745 0.80811 0.0
O200 O 0.18541 0.41939 0.71245 0.0
O201 O 0.13854 0.41875 0.73975 0.0
C202 C 0.15983 0.435 0.72272 0.0
C203 C 0.07688 0.35337 0.78603 0.0
C204 C 0.19783 0.35855 0.80102 0.0
C205 C 0.15386 0.31365 0.70977 0.0
O206 O 0.14061 0.30873 0.73761 0.0
O207 O 0.16471 0.34209 0.70259 0.0
O208 O 0.09164 0.3276 0.79715 0.0
O209 O 0.09407 0.3741 0.76923 0.0
O210 O 0.20328 0.63973 0.23828 0.0
Cd211 Cd 0.16935 0.63149 0.27502 0.0
Cd212 Cd 0.13238 0.66852 0.23742 0.0
O213 O 0.16992 0.66404 0.20345 0.0
O214 O 0.18542 0.59177 0.29872 0.0
O215 O 0.13867 0.59287 0.27122 0.0
C216 C 0.15977 0.57639 0.28826 0.0
C217 C 0.07723 0.6592 0.22431 0.0
C218 C 0.19829 0.65299 0.21046 0.0
C219 C 0.15427 0.69763 0.30176 0.0
O220 O 0.14093 0.70257 0.27398 0.0
O221 O 0.1652 0.66921 0.30885 0.0
O222 O 0.09272 0.68476 0.21376 0.0
O223 O 0.09361 0.63806 0.2414 0.0
O224 O 0.7739 0.80849 0.64081 0.0
Cd225 Cd 0.73727 0.84254 0.63255 0.0
Cd226 Cd 0.77557 0.87969 0.66875 0.0
O227 O 0.80931 0.84194 0.66422 0.0
O228 O 0.71309 0.82626 0.59322 0.0
O229 O 0.74094 0.87287 0.59368 0.0
C230 C 0.72358 0.85173 0.57756 0.0
C231 C 0.78863 0.93478 0.65903 0.0
C232 C 0.80195 0.81346 0.65363 0.0
C233 C 0.71127 0.85867 0.69863 0.0
O234 O 0.73929 0.87168 0.70317 0.0
O235 O 0.70377 0.84739 0.67047 0.0
O236 O 0.79951 0.91941 0.68449 0.0
O237 O 0.77134 0.91827 0.63814 0.0
O238 O 0.63846 0.23883 0.20358 0.0
Cd239 Cd 0.63094 0.27507 0.16896 0.0
Cd240 Cd 0.66692 0.23584 0.13267 0.0
O241 O 0.6615 0.20262 0.17075 0.0
O242 O 0.59149 0.29976 0.18419 0.0
O243 O 0.59255 0.271 0.13818 0.0
C244 C 0.57616 0.2888 0.15872 0.0
C245 C 0.65711 0.22228 0.07778 0.0
C246 C 0.65082 0.21049 0.19903 0.0
C247 C 0.69747 0.30007 0.15302 0.0
O248 O 0.7018 0.27178 0.14051 0.0
O249 O 0.66928 0.30809 0.16389 0.0
O250 O 0.68238 0.21116 0.09331 0.0
O251 O 0.6365 0.24015 0.094 0.0
O252 O 0.2397 0.20375 0.63914 0.0
Cd253 Cd 0.27655 0.16986 0.63123 0.0
Cd254 Cd 0.23847 0.13287 0.66789 0.0
O255 O 0.20461 0.17054 0.66344 0.0
O256 O 0.29997 0.18497 0.59095 0.0
O257 O 0.27242 0.13826 0.59356 0.0
C258 C 0.28923 0.15894 0.57635 0.0
C259 C 0.22604 0.07777 0.6574 0.0
C260 C 0.21177 0.19884 0.6522 0.0
C261 C 0.30291 0.15443 0.69729 0.0
O262 O 0.27505 0.14112 0.70197 0.0
O263 O 0.3102 0.16575 0.66908 0.0
O264 O 0.21512 0.09258 0.68321 0.0
O265 O 0.24289 0.09488 0.63668 0.0
O266 O 0.37224 0.77198 0.20254 0.0
Cd267 Cd 0.37983 0.73551 0.16818 0.0
Cd268 Cd 0.34331 0.77437 0.13188 0.0
O269 O 0.34819 0.80776 0.16991 0.0
O270 O 0.41991 0.71156 0.18306 0.0
O271 O 0.41765 0.73976 0.13677 0.0
C272 C 0.43468 0.72255 0.15725 0.0
C273 C 0.35419 0.78713 0.077 0.0
C274 C 0.35943 0.80011 0.19805 0.0
C275 C 0.31347 0.70983 0.15259 0.0
O276 O 0.30891 0.73794 0.13978 0.0
O277 O 0.34171 0.70217 0.16361 0.0
O278 O 0.32841 0.79822 0.09176 0.0
O279 O 0.37465 0.76992 0.09405 0.0
O280 O 0.73464 0.13977 0.30985 0.0
Cd281 Cd 0.77142 0.1317 0.34376 0.0
Cd282 Cd 0.73343 0.16887 0.38033 0.0
O283 O 0.69952 0.16436 0.34278 0.0
O284 O 0.79543 0.09227 0.32731 0.0
O285 O 0.76799 0.09276 0.37407 0.0
C286 C 0.78512 0.07659 0.35282 0.0
C287 C 0.72158 0.15768 0.43529 0.0
C288 C 0.70674 0.15296 0.3146 0.0
C289 C 0.79788 0.19807 0.35897 0.0
O290 O 0.76995 0.20303 0.37202 0.0
O291 O 0.80509 0.16962 0.34816 0.0
O292 O 0.7103 0.18359 0.42089 0.0
O293 O 0.73844 0.13725 0.41783 0.0
O294 O 0.30888 0.27405 0.87125 0.0
Cd295 Cd 0.34346 0.23785 0.87911 0.0
Cd296 Cd 0.37963 0.27674 0.84257 0.0
O297 O 0.34155 0.31006 0.84758 0.0
O298 O 0.32764 0.21334 0.91845 0.0
O299 O 0.37384 0.24182 0.91786 0.0
C300 C 0.35299 0.22418 0.93404 0.0
C301 C 0.43458 0.2898 0.85289 0.0
C302 C 0.31334 0.30225 0.85859 0.0
C303 C 0.35913 0.21225 0.81272 0.0
O304 O 0.37171 0.24047 0.80806 0.0
O305 O 0.34849 0.20452 0.84106 0.0
O306 O 0.41944 0.30094 0.8274 0.0
O307 O 0.41791 0.27225 0.87343 0.0
O308 O 0.27496 0.87039 0.30899 0.0
Cd309 Cd 0.23845 0.87871 0.34316 0.0
Cd310 Cd 0.27667 0.8421 0.37995 0.0
O311 O 0.31026 0.84629 0.34204 0.0
O312 O 0.21502 0.919 0.32797 0.0
O313 O 0.24299 0.91669 0.37437 0.0
C314 C 0.22604 0.93379 0.35375 0.0
C315 C 0.28939 0.85303 0.43484 0.0
C316 C 0.30288 0.8572 0.31371 0.0
C317 C 0.212 0.81271 0.35912 0.0
O318 O 0.23998 0.80798 0.37214 0.0
O319 O 0.20469 0.84095 0.34784 0.0
O320 O 0.30022 0.82707 0.4202 0.0
O321 O 0.27248 0.87365 0.41768 0.0
O322 O 0.70399 0.73848 0.87208 0.0
Cd323 Cd 0.66979 0.77504 0.88012 0.0
Cd324 Cd 0.63312 0.73689 0.84334 0.0
O325 O 0.67096 0.70324 0.8478 0.0
O326 O 0.68463 0.79852 0.92049 0.0
O327 O 0.63819 0.77054 0.91773 0.0
C328 C 0.65867 0.78752 0.93501 0.0
C329 C 0.57814 0.72416 0.85399 0.0
C330 C 0.69926 0.71055 0.85887 0.0
C331 C 0.65441 0.80148 0.81406 0.0
O332 O 0.64122 0.77355 0.80928 0.0
O333 O 0.66543 0.80877 0.84237 0.0
O334 O 0.59291 0.71331 0.82813 0.0
O335 O 0.59522 0.74111 0.87465 0.0
C336 C 0.13346 0.52244 0.2742 0.0
C337 C 0.15638 0.54032 0.29297 0.0
C338 C 0.13335 0.48793 0.27421 0.0
C339 C 0.15614 0.46993 0.29299 0.0
H340 H 0.11644 0.53511 0.25814 0.0
H341 H 0.11625 0.47535 0.25816 0.0
S342 S 0.21776 0.50496 0.35046 0.0
N343 N 0.1999 0.53734 0.33383 0.0
N344 N 0.19968 0.47268 0.33385 0.0
C345 C 0.17767 0.48751 0.3136 0.0
C346 C 0.17778 0.52262 0.31358 0.0
C347 C 0.9897 0.67787 0.80827 0.0
C348 C 0.97169 0.65381 0.79117 0.0
C349 C 0.0241 0.6779 0.80819 0.0
C350 C 0.04207 0.65387 0.79101 0.0
H351 H 0.97723 0.69773 0.82085 0.0
H352 H 0.03661 0.69778 0.82072 0.0
S353 S 0.00682 0.58284 0.74578 0.0
N354 N 0.97448 0.60334 0.75917 0.0
N355 N 0.03919 0.6034 0.75902 0.0
C356 C 0.02444 0.62841 0.77552 0.0
C357 C 0.98927 0.62838 0.7756 0.0
C358 C 0.83188 0.48811 0.30748 0.0
C359 C 0.85633 0.47001 0.29105 0.0
C360 C 0.83203 0.52253 0.3075 0.0
C361 C 0.85664 0.54044 0.29107 0.0
H362 H 0.81161 0.4757 0.31946 0.0
H363 H 0.81187 0.53511 0.31947 0.0
S364 S 0.92875 0.50494 0.24784 0.0
N365 N 0.9077 0.47265 0.26054 0.0
N366 N 0.90799 0.53739 0.26056 0.0
C367 C 0.88243 0.52272 0.27626 0.0
C368 C 0.88227 0.48753 0.27625 0.0
C369 C 0.02296 0.3326 0.80678 0.0
C370 C 0.04076 0.3571 0.79006 0.0
C371 C 0.98857 0.33243 0.80697 0.0
C372 C 0.97036 0.35675 0.79046 0.0
H373 H 0.03562 0.31254 0.81886 0.0
H374 H 0.97624 0.31225 0.81919 0.0
S375 S 1.00498 0.42885 0.74644 0.0
N376 N 0.0375 0.4082 0.75913 0.0
N377 N 0.9728 0.40788 0.75951 0.0
C378 C 0.98777 0.38258 0.77534 0.0
C379 C 0.02294 0.38276 0.77513 0.0
C380 C 0.13356 0.48908 0.73618 0.0
C381 C 0.15675 0.47107 0.71789 0.0
C382 C 0.13369 0.52359 0.7362 0.0
C383 C 0.15702 0.54146 0.71793 0.0
H384 H 0.11609 0.47652 0.75185 0.0
H385 H 0.11632 0.53625 0.75188 0.0
S386 S 0.21961 0.50607 0.66174 0.0
N387 N 0.20115 0.4738 0.67795 0.0
N388 N 0.2014 0.53846 0.67799 0.0
C389 C 0.17884 0.52376 0.69775 0.0
C390 C 0.1787 0.48864 0.69773 0.0
C391 C 0.98872 0.63308 0.23836 0.0
C392 C 0.97082 0.65594 0.21956 0.0
C393 C 0.02321 0.63309 0.23839 0.0
C394 C 0.04116 0.65595 0.21962 0.0
H395 H 0.97608 0.61599 0.25438 0.0
H396 H 0.03581 0.61601 0.25444 0.0
S397 S 0.00605 0.71748 0.1621 0.0
N398 N 0.97372 0.6995 0.1787 0.0
N399 N 0.03835 0.6995 0.17875 0.0
C400 C 0.02356 0.67743 0.199 0.0
C401 C 0.98846 0.67743 0.19897 0.0
C402 C 0.87867 0.52293 0.7377 0.0
C403 C 0.85563 0.54093 0.71921 0.0
C404 C 0.87833 0.48843 0.738 0.0
C405 C 0.85492 0.47057 0.71984 0.0
H406 H 0.89619 0.53551 0.7533 0.0
H407 H 0.89559 0.47578 0.75381 0.0
S408 S 0.79269 0.50585 0.66322 0.0
N409 N 0.81131 0.53815 0.6792 0.0
N410 N 0.81065 0.47349 0.67979 0.0
C411 C 0.83325 0.48823 0.69948 0.0
C412 C 0.83361 0.52334 0.69916 0.0
C413 C 0.98783 0.37742 0.23843 0.0
C414 C 0.96989 0.35453 0.21967 0.0
C415 C 0.02232 0.37751 0.23831 0.0
C416 C 0.04023 0.35473 0.21941 0.0
H417 H 0.97523 0.39445 0.25453 0.0
H418 H 0.03495 0.3946 0.25434 0.0
S419 S 1.005 0.2932 0.16194 0.0
N420 N 0.9727 0.31106 0.17872 0.0
N421 N 0.03733 0.31125 0.17847 0.0
C422 C 0.02258 0.33324 0.19883 0.0
C423 C 0.98749 0.33313 0.19897 0.0
C424 C 0.3089 0.18003 0.52224 0.0
C425 C 0.29349 0.15491 0.54033 0.0
C426 C 0.30888 0.17988 0.48788 0.0
C427 C 0.29343 0.1546 0.47002 0.0
H428 H 0.31998 0.20083 0.53461 0.0
H429 H 0.31994 0.20057 0.4753 0.0
S430 S 0.2538 0.0804 0.50554 0.0
N431 N 0.26547 0.10208 0.53777 0.0
N432 N 0.26542 0.10179 0.4731 0.0
C433 C 0.27986 0.12812 0.48773 0.0
C434 C 0.27988 0.12828 0.52288 0.0
C435 C 0.33326 0.80739 0.98865 0.0
C436 C 0.35829 0.79173 0.97066 0.0
C437 C 0.33319 0.80727 0.02302 0.0
C438 C 0.35815 0.79148 0.04098 0.0
H439 H 0.31269 0.81875 0.97618 0.0
H440 H 0.31257 0.81853 0.0355 0.0
S441 S 0.43204 0.75103 0.00581 0.0
N442 N 0.41072 0.76306 0.97348 0.0
N443 N 0.4106 0.76283 0.03815 0.0
C444 C 0.38456 0.77762 0.02339 0.0
C445 C 0.38462 0.77775 0.98825 0.0
C446 C 0.73678 0.87752 0.48888 0.0
C447 C 0.71768 0.85467 0.47125 0.0
C448 C 0.73718 0.87762 0.52335 0.0
C449 C 0.71851 0.85488 0.54156 0.0
H450 H 0.75276 0.8945 0.47604 0.0
H451 H 0.75345 0.89468 0.53572 0.0
S452 S 0.66036 0.79343 0.50726 0.0
N453 N 0.67667 0.81127 0.47472 0.0
N454 N 0.67743 0.81145 0.5393 0.0
C455 C 0.6976 0.83342 0.52425 0.0
C456 C 0.69719 0.83332 0.48917 0.0
C457 C 0.63178 0.23713 0.02369 0.0
C458 C 0.65374 0.21746 0.04178 0.0
C459 C 0.632 0.23706 0.98923 0.0
C460 C 0.65419 0.21731 0.9715 0.0
H461 H 0.61534 0.25394 0.03616 0.0
H462 H 0.61572 0.25381 0.97649 0.0
S463 S 0.7129 0.15724 0.00714 0.0
N464 N 0.69546 0.1747 0.03929 0.0
N465 N 0.69588 0.17457 0.97469 0.0
C466 C 0.67462 0.19581 0.98928 0.0
C467 C 0.6744 0.19588 0.02435 0.0
C468 C 0.30907 0.83193 0.48895 0.0
C469 C 0.29364 0.85704 0.47087 0.0
C470 C 0.30904 0.83207 0.52332 0.0
C471 C 0.29357 0.85731 0.54119 0.0
H472 H 0.32016 0.81115 0.47656 0.0
H473 H 0.32011 0.81138 0.53588 0.0
S474 S 0.25388 0.93147 0.50572 0.0
N475 N 0.26558 0.90983 0.47348 0.0
N476 N 0.26552 0.91008 0.53815 0.0
C477 C 0.27997 0.88378 0.52349 0.0
C478 C 0.28 0.88364 0.48835 0.0
C479 C 0.67903 0.80745 0.02356 0.0
C480 C 0.65392 0.79164 0.04132 0.0
C481 C 0.6793 0.80748 0.9892 0.0
C482 C 0.65447 0.79172 0.97102 0.0
H483 H 0.69952 0.81878 0.03621 0.0
H484 H 0.69998 0.81885 0.97689 0.0
S485 S 0.58043 0.75098 0.00556 0.0
N486 N 0.60154 0.7629 0.03807 0.0
N487 N 0.60204 0.76297 0.9734 0.0
C488 C 0.62798 0.77775 0.98838 0.0
C489 C 0.6277 0.7777 0.02352 0.0
C490 C 0.70061 0.17739 0.52379 0.0
C491 C 0.71788 0.15336 0.54168 0.0
C492 C 0.70054 0.17746 0.48942 0.0
C493 C 0.71772 0.15351 0.47135 0.0
H494 H 0.68804 0.1972 0.53635 0.0
H495 H 0.68791 0.19733 0.47701 0.0
S496 S 0.7633 0.08255 0.50625 0.0
N497 N 0.74999 0.10297 0.53866 0.0
N498 N 0.74985 0.10311 0.474 0.0
C499 C 0.73335 0.12806 0.48885 0.0
C500 C 0.73343 0.12798 0.52399 0.0
C501 C 0.37871 0.23817 0.02257 0.0
C502 C 0.35605 0.21898 0.04034 0.0
C503 C 0.37881 0.23832 0.98811 0.0
C504 C 0.35626 0.21929 0.97005 0.0
H505 H 0.39552 0.25443 0.03529 0.0
H506 H 0.39569 0.25468 0.97563 0.0
S507 S 0.29543 0.16074 1.00477 0.0
N508 N 0.31309 0.17748 0.03719 0.0
N509 N 0.31328 0.17776 0.9726 0.0
C510 C 0.33503 0.19827 0.98751 0.0
C511 C 0.33492 0.19812 0.02258 0.0
C512 C 0.52231 0.27439 0.13258 0.0
C513 C 0.54018 0.2937 0.15504 0.0
C514 C 0.48783 0.27447 0.13243 0.0
C515 C 0.46986 0.29385 0.15475 0.0
H516 H 0.53495 0.25784 0.11601 0.0
H517 H 0.47525 0.25797 0.11576 0.0
S518 S 0.50491 0.35296 0.21479 0.0
N519 N 0.53726 0.33578 0.19742 0.0
N520 N 0.47262 0.33591 0.19715 0.0
C521 C 0.48744 0.31503 0.1757 0.0
C522 C 0.52253 0.31496 0.17585 0.0
C523 C 0.5241 0.70436 0.83273 0.0
C524 C 0.54209 0.71985 0.85786 0.0
C525 C 0.48972 0.70434 0.83274 0.0
C526 C 0.47173 0.7198 0.85789 0.0
H527 H 0.53659 0.69327 0.81202 0.0
H528 H 0.47723 0.69324 0.81203 0.0
S529 S 0.50691 0.75961 0.93208 0.0
N530 N 0.53926 0.74795 0.91058 0.0
N531 N 0.47455 0.74791 0.9106 0.0
C532 C 0.48933 0.73345 0.88438 0.0
C533 C 0.52449 0.73347 0.88437 0.0
C534 C 0.77214 0.98797 0.37924 0.0
C535 C 0.79049 0.97012 0.35597 0.0
C536 C 0.77194 0.02248 0.37923 0.0
C537 C 0.79007 0.04052 0.35593 0.0
H538 H 0.7566 0.97527 0.39671 0.0
H539 H 0.75625 0.035 0.39669 0.0
S540 S 0.84618 0.00565 0.29299 0.0
N541 N 0.83023 0.97323 0.31141 0.0
N542 N 0.82983 0.03788 0.31137 0.0
C543 C 0.81024 0.023 0.33396 0.0
C544 C 0.81046 0.98788 0.33399 0.0
C545 C 0.48816 0.27482 0.87928 0.0
C546 C 0.47063 0.29421 0.85664 0.0
C547 C 0.52265 0.27446 0.87957 0.0
C548 C 0.54097 0.29347 0.85721 0.0
H549 H 0.47524 0.25855 0.89592 0.0
H550 H 0.53494 0.25793 0.89641 0.0
S551 S 0.50694 0.35257 0.79659 0.0
N552 N 0.47429 0.33593 0.81397 0.0
N553 N 0.53892 0.33525 0.8145 0.0
C554 C 0.52375 0.31472 0.83603 0.0
C555 C 0.48865 0.31509 0.83575 0.0
C556 C 0.20616 0.98784 0.33255 0.0
C557 C 0.22187 0.96989 0.35756 0.0
C558 C 0.20614 0.02224 0.3325 0.0
C559 C 0.22183 0.04029 0.35747 0.0
H560 H 0.19486 0.97531 0.31197 0.0
H561 H 0.19483 0.03469 0.31189 0.0
S562 S 0.26241 1.00523 0.43129 0.0
N563 N 0.25052 0.97282 0.40997 0.0
N564 N 0.25048 0.03756 0.40988 0.0
C565 C 0.23575 0.02273 0.38384 0.0
C566 C 0.23578 0.98755 0.38389 0.0
C567 C 0.52303 0.70236 0.17834 0.0
C568 C 0.54107 0.7182 0.15346 0.0
C569 C 0.48864 0.70235 0.17827 0.0
C570 C 0.47072 0.71819 0.15332 0.0
H571 H 0.53547 0.69099 0.19892 0.0
H572 H 0.47611 0.69098 0.1988 0.0
S573 S 0.50606 0.75897 0.07972 0.0
N574 N 0.53837 0.747 0.10112 0.0
N575 N 0.47365 0.74699 0.10099 0.0
C576 C 0.48837 0.73217 0.12703 0.0
C577 C 0.52353 0.73217 0.1271 0.0
C578 C 0.77383 0.98867 0.63309 0.0
C579 C 0.793 0.9709 0.65574 0.0
C580 C 0.77337 0.02317 0.63324 0.0
C581 C 0.79206 0.04126 0.65605 0.0
H582 H 0.7578 0.97591 0.61611 0.0
H583 H 0.75703 0.03564 0.61635 0.0
S584 S 0.85053 0.00662 0.71691 0.0
N585 N 0.8342 0.97413 0.69893 0.0
N586 N 0.83333 0.03879 0.69922 0.0
C587 C 0.8131 0.02383 0.67725 0.0
C588 C 0.81357 0.98872 0.67709 0.0
C589 C 0.2063 0.02374 0.67878 0.0
C590 C 0.22191 0.04166 0.65367 0.0
C591 C 0.20637 0.98934 0.67893 0.0
C592 C 0.22205 0.97127 0.65398 0.0
H593 H 0.19502 0.0363 0.69934 0.0
H594 H 0.19512 0.97691 0.6996 0.0
S595 S 0.26238 0.00624 0.57996 0.0
N596 N 0.25045 0.03868 0.60121 0.0
N597 N 0.25058 0.97393 0.60149 0.0
C598 C 0.23587 0.98879 0.62751 0.0
C599 C 0.2358 0.02398 0.62736 0.0
C600 C 0.18607 0.28619 0.3458 0.0
C601 C 0.16093 0.28373 0.32222 0.0
C602 C 0.2004 0.25804 0.35952 0.0
C603 C 0.19013 0.22624 0.35031 0.0
H604 H 0.19657 0.30988 0.35193 0.0
H605 H 0.22119 0.26134 0.37579 0.0
S606 S 0.11962 0.20672 0.2958 0.0
N607 N 0.12225 0.2472 0.2949 0.0
N608 N 0.14913 0.19431 0.32068 0.0
C609 C 0.16248 0.22358 0.32969 0.0
C610 C 0.14792 0.25231 0.31564 0.0
C611 C 0.25387 0.70003 0.85982 0.0
C612 C 0.28558 0.68947 0.85073 0.0
C613 C 0.22565 0.68596 0.84599 0.0
C614 C 0.22795 0.66079 0.82242 0.0
H615 H 0.25072 0.72088 0.87607 0.0
H616 H 0.20205 0.6967 0.85202 0.0
S617 S 0.30458 0.61869 0.79633 0.0
N618 N 0.31719 0.6481 0.82124 0.0
N619 N 0.26415 0.62172 0.79526 0.0
C620 C 0.25924 0.64746 0.81597 0.0
C621 C 0.28804 0.66175 0.83013 0.0
C622 C 0.82471 0.72393 0.34637 0.0
C623 C 0.84998 0.72644 0.32293 0.0
C624 C 0.81036 0.75205 0.36014 0.0
C625 C 0.82073 0.78387 0.35111 0.0
H626 H 0.81414 0.70024 0.35236 0.0
H627 H 0.78949 0.74872 0.3763 0.0
S628 S 0.89155 0.80348 0.29701 0.0
N629 N 0.88886 0.76301 0.29594 0.0
N630 N 0.86193 0.81585 0.32179 0.0
C631 C 0.84849 0.78656 0.33063 0.0
C632 C 0.86308 0.75787 0.31653 0.0
C633 C 0.78741 0.32361 0.8473 0.0
C634 C 0.78506 0.34966 0.8247 0.0
C635 C 0.75922 0.30934 0.86103 0.0
C636 C 0.72751 0.32057 0.85278 0.0
H637 H 0.81096 0.3124 0.85258 0.0
H638 H 0.76237 0.28788 0.87645 0.0
S639 S 0.70856 0.39353 0.80133 0.0
N640 N 0.74893 0.39009 0.79954 0.0
N641 N 0.69596 0.36335 0.82532 0.0
C642 C 0.72508 0.34905 0.83325 0.0
C643 C 0.75384 0.36355 0.8192 0.0
C644 C 0.20092 0.75361 0.65199 0.0
C645 C 0.19062 0.78536 0.66127 0.0
C646 C 0.18678 0.7254 0.66581 0.0
C647 C 0.16178 0.72777 0.68956 0.0
H648 H 0.22163 0.75039 0.63559 0.0
H649 H 0.19732 0.70176 0.65961 0.0
S650 S 0.12037 0.8046 0.71623 0.0
N651 N 0.14968 0.81713 0.69116 0.0
N652 N 0.12315 0.76413 0.71713 0.0
C653 C 0.14871 0.75913 0.69623 0.0
C654 C 0.16308 0.78791 0.68207 0.0
C655 C 0.72493 0.66489 0.18494 0.0
C656 C 0.72724 0.68905 0.16032 0.0
C657 C 0.75315 0.65112 0.19905 0.0
C658 C 0.78487 0.66085 0.18908 0.0
H659 H 0.70128 0.65831 0.19524 0.0
H660 H 0.74995 0.63437 0.21948 0.0
S661 S 0.80407 0.71708 0.11982 0.0
N662 N 0.76359 0.71754 0.12235 0.0
N663 N 0.81662 0.69167 0.14882 0.0
C664 C 0.78741 0.68208 0.16188 0.0
C665 C 0.75861 0.69619 0.14754 0.0
C666 C 0.84391 0.22495 0.68516 0.0
C667 C 0.81945 0.22753 0.66089 0.0
C668 C 0.858 0.25302 0.69929 0.0
C669 C 0.84829 0.28486 0.68969 0.0
H670 H 0.85056 0.20119 0.69516 0.0
H671 H 0.87502 0.24961 0.71945 0.0
S672 S 0.79115 0.30481 0.62143 0.0
N673 N 0.79056 0.2643 0.62363 0.0
N674 N 0.81702 0.31705 0.65015 0.0
C675 C 0.82667 0.28769 0.66283 0.0
C676 C 0.81225 0.25904 0.64847 0.0
C677 C 0.25781 0.35973 0.1987 0.0
C678 C 0.22609 0.35012 0.18867 0.0
C679 C 0.28601 0.34601 0.18449 0.0
C680 C 0.28366 0.32202 0.15971 0.0
H681 H 0.26104 0.37632 0.21925 0.0
H682 H 0.30967 0.35247 0.19484 0.0
S683 S 0.2068 0.29443 0.119 0.0
N684 N 0.19429 0.31965 0.14818 0.0
N685 N 0.24728 0.29387 0.12153 0.0
C686 C 0.25228 0.31503 0.14687 0.0
C687 C 0.22351 0.32909 0.16131 0.0
C688 C 0.36053 0.20025 0.25806 0.0
C689 C 0.35137 0.18954 0.22643 0.0
C690 C 0.34701 0.18603 0.28635 0.0
C691 C 0.32371 0.16057 0.2842 0.0
H692 H 0.37655 0.22129 0.2611 0.0
H693 H 0.35304 0.19688 0.30988 0.0
S694 S 0.29772 0.11806 0.20779 0.0
N695 N 0.32222 0.14777 0.19503 0.0
N696 N 0.29683 0.12112 0.24819 0.0
C697 C 0.31726 0.14712 0.25297 0.0
C698 C 0.3311 0.16156 0.2241 0.0
C699 C 0.3276 0.84647 0.78706 0.0
C700 C 0.35265 0.82274 0.78486 0.0
C701 C 0.31368 0.86034 0.75879 0.0
C702 C 0.32427 0.8511 0.72714 0.0
H703 H 0.31684 0.85261 0.8106 0.0
H704 H 0.29292 0.8767 0.76187 0.0
S705 S 0.3948 0.7963 0.70842 0.0
N706 N 0.39166 0.79532 0.74881 0.0
N707 N 0.36555 0.82135 0.6957 0.0
C708 C 0.35187 0.83036 0.72479 0.0
C709 C 0.36602 0.81617 0.75363 0.0
C710 C 0.664 0.82426 0.2875 0.0
C711 C 0.68711 0.84991 0.28541 0.0
C712 C 0.65044 0.81018 0.25916 0.0
C713 C 0.65935 0.8212 0.22757 0.0
H714 H 0.65819 0.81319 0.31098 0.0
H715 H 0.63459 0.78899 0.26213 0.0
S716 S 0.71237 0.89323 0.20922 0.0
N717 N 0.71351 0.88984 0.2496 0.0
N718 N 0.68802 0.86344 0.19635 0.0
C719 C 0.67941 0.84934 0.22536 0.0
C720 C 0.6933 0.86365 0.25427 0.0
C721 C 0.6977 0.15074 0.75928 0.0
C722 C 0.68706 0.16017 0.72772 0.0
C723 C 0.68392 0.16452 0.78766 0.0
C724 C 0.65899 0.18838 0.78564 0.0
H725 H 0.71841 0.13428 0.76221 0.0
H726 H 0.69474 0.15824 0.81113 0.0
S727 S 0.61669 0.21535 0.70949 0.0
N728 N 0.64579 0.19023 0.69655 0.0
N729 N 0.61997 0.21613 0.74988 0.0
C730 C 0.64553 0.19514 0.7545 0.0
C731 C 0.65951 0.18102 0.72555 0.0
C732 C 0.81283 0.75292 0.65218 0.0
C733 C 0.82325 0.7847 0.66126 0.0
C734 C 0.82694 0.72476 0.6661 0.0
C735 C 0.85202 0.7272 0.68975 0.0
H736 H 0.79206 0.74966 0.63587 0.0
H737 H 0.81632 0.7011 0.66006 0.0
S738 S 0.89374 0.80407 0.71588 0.0
N739 N 0.86438 0.81653 0.69084 0.0
N740 N 0.89084 0.76362 0.71699 0.0
C741 C 0.86521 0.75856 0.6962 0.0
C742 C 0.85088 0.7873 0.68194 0.0
C743 C 0.72421 0.34541 0.18477 0.0
C744 C 0.72652 0.32099 0.16042 0.0
C745 C 0.75242 0.35924 0.19886 0.0
C746 C 0.78414 0.34929 0.18913 0.0
H747 H 0.70055 0.3522 0.19488 0.0
H748 H 0.74921 0.37622 0.2191 0.0
S749 S 0.80341 0.29224 0.12057 0.0
N750 N 0.76292 0.29195 0.12292 0.0
N751 N 0.81594 0.31792 0.14935 0.0
C752 C 0.78672 0.32776 0.16216 0.0
C753 C 0.75792 0.3136 0.14785 0.0
C754 C 0.15276 0.25307 0.69904 0.0
C755 C 0.16164 0.28487 0.68853 0.0
C756 C 0.1668 0.22495 0.68493 0.0
C757 C 0.19036 0.22748 0.65978 0.0
H758 H 0.13653 0.24975 0.71986 0.0
H759 H 0.16092 0.20129 0.69562 0.0
S760 S 0.2159 0.30441 0.61784 0.0
N761 N 0.1909 0.31679 0.64725 0.0
N762 N 0.21727 0.26397 0.6208 0.0
C763 C 0.19659 0.25885 0.64652 0.0
C764 C 0.18222 0.28754 0.66085 0.0
C765 C 0.25873 0.65107 0.1992 0.0
C766 C 0.227 0.66054 0.18906 0.0
C767 C 0.28693 0.66486 0.18502 0.0
C768 C 0.28458 0.68876 0.16016 0.0
H769 H 0.26195 0.63455 0.21981 0.0
H770 H 0.31057 0.65851 0.19545 0.0
S771 S 0.20775 0.71595 0.11917 0.0
N772 N 0.19522 0.69077 0.14839 0.0
N773 N 0.24821 0.71666 0.1218 0.0
C774 C 0.25321 0.6956 0.14723 0.0
C775 C 0.22443 0.68149 0.16163 0.0
C776 C 0.82323 0.28674 0.34655 0.0
C777 C 0.84873 0.28421 0.32336 0.0
C778 C 0.8088 0.25863 0.36028 0.0
C779 C 0.8193 0.22681 0.35146 0.0
H780 H 0.81256 0.31043 0.35236 0.0
H781 H 0.78777 0.26197 0.37623 0.0
S782 S 0.89068 0.20718 0.29812 0.0
N783 N 0.88793 0.24764 0.29687 0.0
N784 N 0.86085 0.19483 0.32266 0.0
C785 C 0.84726 0.22411 0.33125 0.0
C786 C 0.86193 0.25279 0.3172 0.0
C787 C 0.25827 0.3608 0.8122 0.0
C788 C 0.22659 0.35114 0.82239 0.0
C789 C 0.28656 0.34716 0.82631 0.0
C790 C 0.28435 0.32322 0.85114 0.0
H791 H 0.26138 0.37736 0.79161 0.0
H792 H 0.31015 0.35364 0.81584 0.0
S793 S 0.20772 0.29558 0.89227 0.0
N794 N 0.19503 0.32072 0.86309 0.0
N795 N 0.24818 0.29509 0.88955 0.0
C796 C 0.25304 0.3162 0.86413 0.0
C797 C 0.22417 0.33017 0.8498 0.0
C798 C 0.16691 0.78635 0.32672 0.0
C799 C 0.19071 0.78393 0.35165 0.0
C800 C 0.15291 0.75818 0.31267 0.0
C801 C 0.16207 0.72641 0.32301 0.0
H802 H 0.16079 0.81001 0.31615 0.0
H803 H 0.13647 0.76144 0.29201 0.0
S804 S 0.21712 0.70705 0.39312 0.0
N805 N 0.2182 0.74751 0.39027 0.0
N806 N 0.19191 0.69458 0.36391 0.0
C807 C 0.18293 0.72381 0.35049 0.0
C808 C 0.19725 0.75256 0.36477 0.0
C809 C 0.78811 0.68607 0.84654 0.0
C810 C 0.78583 0.6608 0.82306 0.0
C811 C 0.75986 0.70009 0.86038 0.0
C812 C 0.72817 0.68939 0.85137 0.0
H813 H 0.81168 0.69691 0.85248 0.0
H814 H 0.76299 0.72101 0.87654 0.0
S815 S 0.70928 0.61833 0.79728 0.0
N816 N 0.74969 0.62151 0.79612 0.0
N817 N 0.69662 0.6478 0.82211 0.0
C818 C 0.72575 0.66159 0.83088 0.0
C819 C 0.75457 0.64735 0.81672 0.0
C820 C 0.66642 0.82619 0.7253 0.0
C821 C 0.69016 0.85123 0.7275 0.0
C822 C 0.65262 0.81219 0.75356 0.0
C823 C 0.66193 0.8227 0.78521 0.0
H824 H 0.66021 0.81549 0.70174 0.0
H825 H 0.63623 0.79143 0.75047 0.0
S826 S 0.71685 0.89318 0.80399 0.0
N827 N 0.71772 0.89015 0.76358 0.0
N828 N 0.69181 0.86389 0.81669 0.0
C829 C 0.6827 0.8503 0.78759 0.0
C830 C 0.69683 0.86452 0.75875 0.0
C831 C 0.66256 0.18631 0.28796 0.0
C832 C 0.68555 0.16058 0.28586 0.0
C833 C 0.64903 0.20043 0.25964 0.0
C834 C 0.65784 0.18935 0.22804 0.0
H835 H 0.65685 0.19744 0.31144 0.0
H836 H 0.6333 0.2217 0.26261 0.0
S837 S 0.71046 0.11706 0.20967 0.0
N838 N 0.71168 0.12048 0.25004 0.0
N839 N 0.68624 0.14694 0.19681 0.0
C840 C 0.67774 0.16111 0.22582 0.0
C841 C 0.69161 0.14677 0.25472 0.0
C842 C 0.34716 0.18778 0.72387 0.0
C843 C 0.32402 0.16218 0.72607 0.0
C844 C 0.36077 0.20196 0.75214 0.0
C845 C 0.35188 0.19107 0.78378 0.0
H846 H 0.35299 0.19874 0.70034 0.0
H847 H 0.37666 0.2231 0.74908 0.0
S848 S 0.29869 0.11925 0.80246 0.0
N849 N 0.29754 0.12246 0.76208 0.0
N850 N 0.32311 0.14904 0.81519 0.0
C851 C 0.33175 0.16299 0.78612 0.0
C852 C 0.31781 0.14859 0.75728 0.0
C853 C 0.31343 0.85896 0.25318 0.0
C854 C 0.32395 0.84956 0.28479 0.0
C855 C 0.32727 0.84512 0.22486 0.0
C856 C 0.35217 0.82123 0.22697 0.0
H857 H 0.29277 0.87547 0.25016 0.0
H858 H 0.31656 0.85141 0.20134 0.0
S859 S 0.39411 0.79422 0.30333 0.0
N860 N 0.36501 0.81941 0.31613 0.0
N861 N 0.39099 0.79341 0.26293 0.0
C862 C 0.36549 0.81445 0.25818 0.0
C863 C 0.35142 0.82863 0.28708 0.0
loop_
_geom_bond_atom_site_label_1
_geom_bond_atom_site_label_2
_geom_bond_distance
_geom_bond_site_symmetry_2
_ccdc_geom_bond_type
O0 Cd1 2.223 . S
O0 C8 1.315 . S
Cd1 O0 2.223 . S
Cd1 O4 2.297 . S
Cd1 O5 2.439 . S
Cd1 O11 2.240 . S
Cd2 O3 2.240 . S
Cd2 O10 2.223 . S
Cd2 O12 2.297 . S
Cd2 O13 2.439 . S
O3 Cd2 2.240 . S
O3 C8 1.279 . S
O4 Cd1 2.297 . S
O4 C6 1.247 . S
O5 Cd1 2.439 . S
O5 C6 1.208 . S
C6 O4 1.247 . S
C6 O5 1.208 . S
C7 O12 1.247 . S
C7 O13 1.208 . S
C8 O0 1.315 . S
C8 O3 1.279 . S
C9 O10 1.315 . S
C9 O11 1.279 . S
O10 Cd2 2.223 . S
O10 C9 1.315 . S
O11 Cd1 2.240 . S
O11 C9 1.279 . S
O12 Cd2 2.297 . S
O12 C7 1.247 . S
O13 Cd2 2.439 . S
O13 C7 1.208 . S
O14 Cd15 2.223 . S
O14 C22 1.315 . S
Cd15 O14 2.223 . S
Cd15 O18 2.297 . S
Cd15 O19 2.439 . S
Cd15 O25 2.240 . S
Cd16 O17 2.240 . S
Cd16 O24 2.223 . S
Cd16 O26 2.297 . S
Cd16 O27 2.439 . S
O17 Cd16 2.240 . S
O17 C22 1.279 . S
O18 Cd15 2.297 . S
O18 C20 1.247 . S
O19 Cd15 2.439 . S
O19 C20 1.208 . S
C20 O18 1.247 . S
C20 O19 1.208 . S
C21 O26 1.247 . S
C21 O27 1.208 . S
C22 O14 1.315 . S
C22 O17 1.279 . S
C23 O24 1.315 . S
C23 O25 1.279 . S
O24 Cd16 2.223 . S
O24 C23 1.315 . S
O25 Cd15 2.240 . S
O25 C23 1.279 . S
O26 Cd16 2.297 . S
O26 C21 1.247 . S
O27 Cd16 2.439 . S
O27 C21 1.208 . S
O28 Cd29 2.223 . S
O28 C36 1.315 . S
Cd29 O28 2.223 . S
Cd29 O32 2.297 . S
Cd29 O33 2.439 . S
Cd29 O39 2.240 . S
Cd30 O31 2.240 . S
Cd30 O38 2.223 . S
Cd30 O40 2.297 . S
Cd30 O41 2.439 . S
O31 Cd30 2.240 . S
O31 C36 1.279 . S
O32 Cd29 2.297 . S
O32 C34 1.247 . S
O33 Cd29 2.439 . S
O33 C34 1.208 . S
C34 O32 1.247 . S
C34 O33 1.208 . S
C35 O40 1.247 . S
C35 O41 1.208 . S
C36 O28 1.315 . S
C36 O31 1.279 . S
C37 O38 1.315 . S
C37 O39 1.279 . S
O38 Cd30 2.223 . S
O38 C37 1.315 . S
O39 Cd29 2.240 . S
O39 C37 1.279 . S
O40 Cd30 2.297 . S
O40 C35 1.247 . S
O41 Cd30 2.439 . S
O41 C35 1.208 . S
O42 Cd43 2.223 . S
O42 C50 1.315 . S
Cd43 O42 2.223 . S
Cd43 O46 2.297 . S
Cd43 O47 2.439 . S
Cd43 O53 2.240 . S
Cd44 O45 2.240 . S
Cd44 O52 2.223 . S
Cd44 O54 2.297 . S
Cd44 O55 2.439 . S
O45 Cd44 2.240 . S
O45 C50 1.279 . S
O46 Cd43 2.297 . S
O46 C48 1.247 . S
O47 Cd43 2.439 . S
O47 C48 1.208 . S
C48 O46 1.247 . S
C48 O47 1.208 . S
C49 O54 1.247 . S
C49 O55 1.208 . S
C50 O42 1.315 . S
C50 O45 1.279 . S
C51 O52 1.315 . S
C51 O53 1.279 . S
O52 Cd44 2.223 . S
O52 C51 1.315 . S
O53 Cd43 2.240 . S
O53 C51 1.279 . S
O54 Cd44 2.297 . S
O54 C49 1.247 . S
O55 Cd44 2.439 . S
O55 C49 1.208 . S
O56 Cd57 2.223 . S
O56 C64 1.315 . S
Cd57 O56 2.223 . S
Cd57 O60 2.297 . S
Cd57 O61 2.439 . S
Cd57 O67 2.240 . S
Cd58 O59 2.240 . S
Cd58 O66 2.223 . S
Cd58 O68 2.297 . S
Cd58 O69 2.439 . S
O59 Cd58 2.240 . S
O59 C64 1.279 . S
O60 Cd57 2.297 . S
O60 C62 1.247 . S
O61 Cd57 2.439 . S
O61 C62 1.208 . S
C62 O60 1.247 . S
C62 O61 1.208 . S
C63 O68 1.247 . S
C63 O69 1.208 . S
C64 O56 1.315 . S
C64 O59 1.279 . S
C65 O66 1.315 . S
C65 O67 1.279 . S
O66 Cd58 2.223 . S
O66 C65 1.315 . S
O67 Cd57 2.240 . S
O67 C65 1.279 . S
O68 Cd58 2.297 . S
O68 C63 1.247 . S
O69 Cd58 2.439 . S
O69 C63 1.208 . S
O70 Cd71 2.223 . S
O70 C78 1.315 . S
Cd71 O70 2.223 . S
Cd71 O74 2.297 . S
Cd71 O75 2.439 . S
Cd71 O81 2.240 . S
Cd72 O73 2.240 . S
Cd72 O80 2.223 . S
Cd72 O82 2.297 . S
Cd72 O83 2.439 . S
O73 Cd72 2.240 . S
O73 C78 1.279 . S
O74 Cd71 2.297 . S
O74 C76 1.247 . S
O75 Cd71 2.439 . S
O75 C76 1.208 . S
C76 O74 1.247 . S
C76 O75 1.208 . S
C77 O82 1.247 . S
C77 O83 1.208 . S
C78 O70 1.315 . S
C78 O73 1.279 . S
C79 O80 1.315 . S
C79 O81 1.279 . S
O80 Cd72 2.223 . S
O80 C79 1.315 . S
O81 Cd71 2.240 . S
O81 C79 1.279 . S
O82 Cd72 2.297 . S
O82 C77 1.247 . S
O83 Cd72 2.439 . S
O83 C77 1.208 . S
O84 Cd85 2.223 . S
O84 C92 1.315 . S
Cd85 O84 2.223 . S
Cd85 O88 2.297 . S
Cd85 O89 2.439 . S
Cd85 O95 2.240 . S
Cd86 O87 2.240 . S
Cd86 O94 2.223 . S
Cd86 O96 2.297 . S
Cd86 O97 2.439 . S
O87 Cd86 2.240 . S
O87 C92 1.279 . S
O88 Cd85 2.297 . S
O88 C90 1.247 . S
O89 Cd85 2.439 . S
O89 C90 1.208 . S
C90 O88 1.247 . S
C90 O89 1.208 . S
C91 O96 1.247 . S
C91 O97 1.208 . S
C92 O84 1.315 . S
C92 O87 1.279 . S
C93 O94 1.315 . S
C93 O95 1.279 . S
O94 Cd86 2.223 . S
O94 C93 1.315 . S
O95 Cd85 2.240 . S
O95 C93 1.279 . S
O96 Cd86 2.297 . S
O96 C91 1.247 . S
O97 Cd86 2.439 . S
O97 C91 1.208 . S
O98 Cd99 2.223 . S
O98 C106 1.315 . S
Cd99 O98 2.223 . S
Cd99 O102 2.297 . S
Cd99 O103 2.439 . S
Cd99 O109 2.240 . S
Cd100 O101 2.240 . S
Cd100 O108 2.223 . S
Cd100 O110 2.297 . S
Cd100 O111 2.439 . S
O101 Cd100 2.240 . S
O101 C106 1.279 . S
O102 Cd99 2.297 . S
O102 C104 1.247 . S
O103 Cd99 2.439 . S
O103 C104 1.208 . S
C104 O102 1.247 . S
C104 O103 1.208 . S
C105 O110 1.247 . S
C105 O111 1.208 . S
C106 O98 1.315 . S
C106 O101 1.279 . S
C107 O108 1.315 . S
C107 O109 1.279 . S
O108 Cd100 2.223 . S
O108 C107 1.315 . S
O109 Cd99 2.240 . S
O109 C107 1.279 . S
O110 Cd100 2.297 . S
O110 C105 1.247 . S
O111 Cd100 2.439 . S
O111 C105 1.208 . S
O112 Cd113 2.223 . S
O112 C120 1.315 . S
Cd113 O112 2.223 . S
Cd113 O116 2.297 . S
Cd113 O117 2.439 . S
Cd113 O123 2.240 . S
Cd114 O115 2.240 . S
Cd114 O122 2.223 . S
Cd114 O124 2.297 . S
Cd114 O125 2.439 . S
O115 Cd114 2.240 . S
O115 C120 1.279 . S
O116 Cd113 2.297 . S
O116 C118 1.247 . S
O117 Cd113 2.439 . S
O117 C118 1.208 . S
C118 O116 1.247 . S
C118 O117 1.208 . S
C119 O124 1.247 . S
C119 O125 1.208 . S
C120 O112 1.315 . S
C120 O115 1.279 . S
C121 O122 1.315 . S
C121 O123 1.279 . S
O122 Cd114 2.223 . S
O122 C121 1.315 . S
O123 Cd113 2.240 . S
O123 C121 1.279 . S
O124 Cd114 2.297 . S
O124 C119 1.247 . S
O125 Cd114 2.439 . S
O125 C119 1.208 . S
O126 Cd127 2.223 . S
O126 C134 1.315 . S
Cd127 O126 2.223 . S
Cd127 O130 2.297 . S
Cd127 O131 2.439 . S
Cd127 O137 2.240 . S
Cd128 O129 2.240 . S
Cd128 O136 2.223 . S
Cd128 O138 2.297 . S
Cd128 O139 2.439 . S
O129 Cd128 2.240 . S
O129 C134 1.279 . S
O130 Cd127 2.297 . S
O130 C132 1.247 . S
O131 Cd127 2.439 . S
O131 C132 1.208 . S
C132 O130 1.247 . S
C132 O131 1.208 . S
C133 O138 1.247 . S
C133 O139 1.208 . S
C134 O126 1.315 . S
C134 O129 1.279 . S
C135 O136 1.315 . S
C135 O137 1.279 . S
O136 Cd128 2.223 . S
O136 C135 1.315 . S
O137 Cd127 2.240 . S
O137 C135 1.279 . S
O138 Cd128 2.297 . S
O138 C133 1.247 . S
O139 Cd128 2.439 . S
O139 C133 1.208 . S
O140 Cd141 2.223 . S
O140 C148 1.315 . S
Cd141 O140 2.223 . S
Cd141 O144 2.297 . S
Cd141 O145 2.439 . S
Cd141 O151 2.240 . S
Cd142 O143 2.240 . S
Cd142 O150 2.223 . S
Cd142 O152 2.297 . S
Cd142 O153 2.439 . S
O143 Cd142 2.240 . S
O143 C148 1.279 . S
O144 Cd141 2.297 . S
O144 C146 1.247 . S
O145 Cd141 2.439 . S
O145 C146 1.208 . S
C146 O144 1.247 . S
C146 O145 1.208 . S
C147 O152 1.247 . S
C147 O153 1.208 . S
C148 O140 1.315 . S
C148 O143 1.279 . S
C149 O150 1.315 . S
C149 O151 1.279 . S
O150 Cd142 2.223 . S
O150 C149 1.315 . S
O151 Cd141 2.240 . S
O151 C149 1.279 . S
O152 Cd142 2.297 . S
O152 C147 1.247 . S
O153 Cd142 2.439 . S
O153 C147 1.208 . S
O154 Cd155 2.223 . S
O154 C162 1.315 . S
Cd155 O154 2.223 . S
Cd155 O158 2.297 . S
Cd155 O159 2.439 . S
Cd155 O165 2.240 . S
Cd156 O157 2.240 . S
Cd156 O164 2.223 . S
Cd156 O166 2.297 . S
Cd156 O167 2.439 . S
O157 Cd156 2.240 . S
O157 C162 1.279 . S
O158 Cd155 2.297 . S
O158 C160 1.247 . S
O159 Cd155 2.439 . S
O159 C160 1.208 . S
C160 O158 1.247 . S
C160 O159 1.208 . S
C161 O166 1.247 . S
C161 O167 1.208 . S
C162 O154 1.315 . S
C162 O157 1.279 . S
C163 O164 1.315 . S
C163 O165 1.279 . S
O164 Cd156 2.223 . S
O164 C163 1.315 . S
O165 Cd155 2.240 . S
O165 C163 1.279 . S
O166 Cd156 2.297 . S
O166 C161 1.247 . S
O167 Cd156 2.439 . S
O167 C161 1.208 . S
O168 Cd169 2.223 . S
O168 C176 1.315 . S
Cd169 O168 2.223 . S
Cd169 O172 2.297 . S
Cd169 O173 2.439 . S
Cd169 O179 2.240 . S
Cd170 O171 2.240 . S
Cd170 O178 2.223 . S
Cd170 O180 2.297 . S
Cd170 O181 2.439 . S
O171 Cd170 2.240 . S
O171 C176 1.279 . S
O172 Cd169 2.297 . S
O172 C174 1.247 . S
O173 Cd169 2.439 . S
O173 C174 1.208 . S
C174 O172 1.247 . S
C174 O173 1.208 . S
C175 O180 1.247 . S
C175 O181 1.208 . S
C176 O168 1.315 . S
C176 O171 1.279 . S
C177 O178 1.315 . S
C177 O179 1.279 . S
O178 Cd170 2.223 . S
O178 C177 1.315 . S
O179 Cd169 2.240 . S
O179 C177 1.279 . S
O180 Cd170 2.297 . S
O180 C175 1.247 . S
O181 Cd170 2.439 . S
O181 C175 1.208 . S
O182 Cd183 2.223 . S
O182 C190 1.315 . S
Cd183 O182 2.223 . S
Cd183 O186 2.297 . S
Cd183 O187 2.439 . S
Cd183 O193 2.240 . S
Cd184 O185 2.240 . S
Cd184 O192 2.223 . S
Cd184 O194 2.297 . S
Cd184 O195 2.439 . S
O185 Cd184 2.240 . S
O185 C190 1.279 . S
O186 Cd183 2.297 . S
O186 C188 1.247 . S
O187 Cd183 2.439 . S
O187 C188 1.208 . S
C188 O186 1.247 . S
C188 O187 1.208 . S
C189 O194 1.247 . S
C189 O195 1.208 . S
C190 O182 1.315 . S
C190 O185 1.279 . S
C191 O192 1.315 . S
C191 O193 1.279 . S
O192 Cd184 2.223 . S
O192 C191 1.315 . S
O193 Cd183 2.240 . S
O193 C191 1.279 . S
O194 Cd184 2.297 . S
O194 C189 1.247 . S
O195 Cd184 2.439 . S
O195 C189 1.208 . S
O196 Cd197 2.223 . S
O196 C204 1.315 . S
Cd197 O196 2.223 . S
Cd197 O200 2.297 . S
Cd197 O201 2.439 . S
Cd197 O207 2.240 . S
Cd198 O199 2.240 . S
Cd198 O206 2.223 . S
Cd198 O208 2.297 . S
Cd198 O209 2.439 . S
O199 Cd198 2.240 . S
O199 C204 1.279 . S
O200 Cd197 2.297 . S
O200 C202 1.247 . S
O201 Cd197 2.439 . S
O201 C202 1.208 . S
C202 O200 1.247 . S
C202 O201 1.208 . S
C203 O208 1.247 . S
C203 O209 1.208 . S
C204 O196 1.315 . S
C204 O199 1.279 . S
C205 O206 1.315 . S
C205 O207 1.279 . S
O206 Cd198 2.223 . S
O206 C205 1.315 . S
O207 Cd197 2.240 . S
O207 C205 1.279 . S
O208 Cd198 2.297 . S
O208 C203 1.247 . S
O209 Cd198 2.439 . S
O209 C203 1.208 . S
O210 Cd211 2.223 . S
O210 C218 1.315 . S
Cd211 O210 2.223 . S
Cd211 O214 2.297 . S
Cd211 O215 2.439 . S
Cd211 O221 2.240 . S
Cd212 O213 2.240 . S
Cd212 O220 2.223 . S
Cd212 O222 2.297 . S
Cd212 O223 2.439 . S
O213 Cd212 2.240 . S
O213 C218 1.279 . S
O214 Cd211 2.297 . S
O214 C216 1.247 . S
O215 Cd211 2.439 . S
O215 C216 1.208 . S
C216 O214 1.247 . S
C216 O215 1.208 . S
C217 O222 1.247 . S
C217 O223 1.208 . S
C218 O210 1.315 . S
C218 O213 1.279 . S
C219 O220 1.315 . S
C219 O221 1.279 . S
O220 Cd212 2.223 . S
O220 C219 1.315 . S
O221 Cd211 2.240 . S
O221 C219 1.279 . S
O222 Cd212 2.297 . S
O222 C217 1.247 . S
O223 Cd212 2.439 . S
O223 C217 1.208 . S
O224 Cd225 2.223 . S
O224 C232 1.315 . S
Cd225 O224 2.223 . S
Cd225 O228 2.297 . S
Cd225 O229 2.439 . S
Cd225 O235 2.240 . S
Cd226 O227 2.240 . S
Cd226 O234 2.223 . S
Cd226 O236 2.297 . S
Cd226 O237 2.439 . S
O227 Cd226 2.240 . S
O227 C232 1.279 . S
O228 Cd225 2.297 . S
O228 C230 1.247 . S
O229 Cd225 2.439 . S
O229 C230 1.208 . S
C230 O228 1.247 . S
C230 O229 1.208 . S
C231 O236 1.247 . S
C231 O237 1.208 . S
C232 O224 1.315 . S
C232 O227 1.279 . S
C233 O234 1.315 . S
C233 O235 1.279 . S
O234 Cd226 2.223 . S
O234 C233 1.315 . S
O235 Cd225 2.240 . S
O235 C233 1.279 . S
O236 Cd226 2.297 . S
O236 C231 1.247 . S
O237 Cd226 2.439 . S
O237 C231 1.208 . S
O238 Cd239 2.223 . S
O238 C246 1.315 . S
Cd239 O238 2.223 . S
Cd239 O242 2.297 . S
Cd239 O243 2.439 . S
Cd239 O249 2.240 . S
Cd240 O241 2.240 . S
Cd240 O248 2.223 . S
Cd240 O250 2.297 . S
Cd240 O251 2.439 . S
O241 Cd240 2.240 . S
O241 C246 1.279 . S
O242 Cd239 2.297 . S
O242 C244 1.247 . S
O243 Cd239 2.439 . S
O243 C244 1.208 . S
C244 O242 1.247 . S
C244 O243 1.208 . S
C245 O250 1.247 . S
C245 O251 1.208 . S
C246 O238 1.315 . S
C246 O241 1.279 . S
C247 O248 1.315 . S
C247 O249 1.279 . S
O248 Cd240 2.223 . S
O248 C247 1.315 . S
O249 Cd239 2.240 . S
O249 C247 1.279 . S
O250 Cd240 2.297 . S
O250 C245 1.247 . S
O251 Cd240 2.439 . S
O251 C245 1.208 . S
O252 Cd253 2.223 . S
O252 C260 1.315 . S
Cd253 O252 2.223 . S
Cd253 O256 2.297 . S
Cd253 O257 2.439 . S
Cd253 O263 2.240 . S
Cd254 O255 2.240 . S
Cd254 O262 2.223 . S
Cd254 O264 2.297 . S
Cd254 O265 2.439 . S
O255 Cd254 2.240 . S
O255 C260 1.279 . S
O256 Cd253 2.297 . S
O256 C258 1.247 . S
O257 Cd253 2.439 . S
O257 C258 1.208 . S
C258 O256 1.247 . S
C258 O257 1.208 . S
C259 O264 1.247 . S
C259 O265 1.208 . S
C260 O252 1.315 . S
C260 O255 1.279 . S
C261 O262 1.315 . S
C261 O263 1.279 . S
O262 Cd254 2.223 . S
O262 C261 1.315 . S
O263 Cd253 2.240 . S
O263 C261 1.279 . S
O264 Cd254 2.297 . S
O264 C259 1.247 . S
O265 Cd254 2.439 . S
O265 C259 1.208 . S
O266 Cd267 2.223 . S
O266 C274 1.315 . S
Cd267 O266 2.223 . S
Cd267 O270 2.297 . S
Cd267 O271 2.439 . S
Cd267 O277 2.240 . S
Cd268 O269 2.240 . S
Cd268 O276 2.223 . S
Cd268 O278 2.297 . S
Cd268 O279 2.439 . S
O269 Cd268 2.240 . S
O269 C274 1.279 . S
O270 Cd267 2.297 . S
O270 C272 1.247 . S
O271 Cd267 2.439 . S
O271 C272 1.208 . S
C272 O270 1.247 . S
C272 O271 1.208 . S
C273 O278 1.247 . S
C273 O279 1.208 . S
C274 O266 1.315 . S
C274 O269 1.279 . S
C275 O276 1.315 . S
C275 O277 1.279 . S
O276 Cd268 2.223 . S
O276 C275 1.315 . S
O277 Cd267 2.240 . S
O277 C275 1.279 . S
O278 Cd268 2.297 . S
O278 C273 1.247 . S
O279 Cd268 2.439 . S
O279 C273 1.208 . S
O280 Cd281 2.223 . S
O280 C288 1.315 . S
Cd281 O280 2.223 . S
Cd281 O284 2.297 . S
Cd281 O285 2.439 . S
Cd281 O291 2.240 . S
Cd282 O283 2.240 . S
Cd282 O290 2.223 . S
Cd282 O292 2.297 . S
Cd282 O293 2.439 . S
O283 Cd282 2.240 . S
O283 C288 1.279 . S
O284 Cd281 2.297 . S
O284 C286 1.247 . S
O285 Cd281 2.439 . S
O285 C286 1.208 . S
C286 O284 1.247 . S
C286 O285 1.208 . S
C287 O292 1.247 . S
C287 O293 1.208 . S
C288 O280 1.315 . S
C288 O283 1.279 . S
C289 O290 1.315 . S
C289 O291 1.279 . S
O290 Cd282 2.223 . S
O290 C289 1.315 . S
O291 Cd281 2.240 . S
O291 C289 1.279 . S
O292 Cd282 2.297 . S
O292 C287 1.247 . S
O293 Cd282 2.439 . S
O293 C287 1.208 . S
O294 Cd295 2.223 . S
O294 C302 1.315 . S
Cd295 O294 2.223 . S
Cd295 O298 2.297 . S
Cd295 O299 2.439 . S
Cd295 O305 2.240 . S
Cd296 O297 2.240 . S
Cd296 O304 2.223 . S
Cd296 O306 2.297 . S
Cd296 O307 2.439 . S
O297 Cd296 2.240 . S
O297 C302 1.279 . S
O298 Cd295 2.297 . S
O298 C300 1.247 . S
O299 Cd295 2.439 . S
O299 C300 1.208 . S
C300 O298 1.247 . S
C300 O299 1.208 . S
C301 O306 1.247 . S
C301 O307 1.208 . S
C302 O294 1.315 . S
C302 O297 1.279 . S
C303 O304 1.315 . S
C303 O305 1.279 . S
O304 Cd296 2.223 . S
O304 C303 1.315 . S
O305 Cd295 2.240 . S
O305 C303 1.279 . S
O306 Cd296 2.297 . S
O306 C301 1.247 . S
O307 Cd296 2.439 . S
O307 C301 1.208 . S
O308 Cd309 2.223 . S
O308 C316 1.315 . S
Cd309 O308 2.223 . S
Cd309 O312 2.297 . S
Cd309 O313 2.439 . S
Cd309 O319 2.240 . S
Cd310 O311 2.240 . S
Cd310 O318 2.223 . S
Cd310 O320 2.297 . S
Cd310 O321 2.439 . S
O311 Cd310 2.240 . S
O311 C316 1.279 . S
O312 Cd309 2.297 . S
O312 C314 1.247 . S
O313 Cd309 2.439 . S
O313 C314 1.208 . S
C314 O312 1.247 . S
C314 O313 1.208 . S
C315 O320 1.247 . S
C315 O321 1.208 . S
C316 O308 1.315 . S
C316 O311 1.279 . S
C317 O318 1.315 . S
C317 O319 1.279 . S
O318 Cd310 2.223 . S
O318 C317 1.315 . S
O319 Cd309 2.240 . S
O319 C317 1.279 . S
O320 Cd310 2.297 . S
O320 C315 1.247 . S
O321 Cd310 2.439 . S
O321 C315 1.208 . S
O322 Cd323 2.223 . S
O322 C330 1.315 . S
Cd323 O322 2.223 . S
Cd323 O326 2.297 . S
Cd323 O327 2.439 . S
Cd323 O333 2.240 . S
Cd324 O325 2.240 . S
Cd324 O332 2.223 . S
Cd324 O334 2.297 . S
Cd324 O335 2.439 . S
O325 Cd324 2.240 . S
O325 C330 1.279 . S
O326 Cd323 2.297 . S
O326 C328 1.247 . S
O327 Cd323 2.439 . S
O327 C328 1.208 . S
C328 O326 1.247 . S
C328 O327 1.208 . S
C329 O334 1.247 . S
C329 O335 1.208 . S
C330 O322 1.315 . S
C330 O325 1.279 . S
C331 O332 1.315 . S
C331 O333 1.279 . S
O332 Cd324 2.223 . S
O332 C331 1.315 . S
O333 Cd323 2.240 . S
O333 C331 1.279 . S
O334 Cd324 2.297 . S
O334 C329 1.247 . S
O335 Cd324 2.439 . S
O335 C329 1.208 . S
C336 C337 1.369 . S
C336 C338 1.419 . S
C336 H340 0.930 . S
C337 C336 1.369 . S
C337 C346 1.429 . S
C338 C336 1.419 . S
C338 C339 1.363 . S
C338 H341 0.929 . S
C339 C338 1.363 . S
C339 C345 1.428 . S
H340 C336 0.930 . S
H341 C338 0.929 . S
S342 N343 1.613 . S
S342 N344 1.610 . S
N343 S342 1.613 . S
N343 C346 1.350 . S
N344 S342 1.610 . S
N344 C345 1.351 . S
C345 C339 1.428 . S
C345 N344 1.351 . S
C345 C346 1.434 . S
C346 C337 1.429 . S
C346 N343 1.350 . S
C346 C345 1.434 . S
C347 C348 1.369 . S
C347 C349 1.419 1_655 S
C347 H351 0.930 . S
C348 C347 1.369 . S
C348 C357 1.429 . S
C349 C347 1.419 1_455 S
C349 C350 1.363 . S
C349 H352 0.929 . S
C350 C349 1.363 . S
C350 C356 1.428 . S
H351 C347 0.930 . S
H352 C349 0.929 . S
S353 N354 1.616 1_455 S
S353 N355 1.608 . S
N354 S353 1.616 1_655 S
N354 C357 1.350 . S
N355 S353 1.608 . S
N355 C356 1.351 . S
C356 C350 1.428 . S
C356 N355 1.351 . S
C356 C357 1.434 1_455 S
C357 C348 1.429 . S
C357 N354 1.350 . S
C357 C356 1.434 1_655 S
C358 C359 1.369 . S
C358 C360 1.419 . S
C358 H362 0.930 . S
C359 C358 1.369 . S
C359 C368 1.429 . S
C360 C358 1.419 . S
C360 C361 1.363 . S
C360 H363 0.929 . S
C361 C360 1.363 . S
C361 C367 1.428 . S
H362 C358 0.930 . S
H363 C360 0.929 . S
S364 N365 1.613 . S
S364 N366 1.610 . S
N365 S364 1.613 . S
N365 C368 1.350 . S
N366 S364 1.610 . S
N366 C367 1.351 . S
C367 C361 1.428 . S
C367 N366 1.351 . S
C367 C368 1.434 . S
C368 C359 1.429 . S
C368 N365 1.350 . S
C368 C367 1.434 . S
C369 C370 1.369 . S
C369 C371 1.419 1_455 S
C369 H373 0.930 . S
C370 C369 1.369 . S
C370 C379 1.429 . S
C371 C369 1.419 1_655 S
C371 C372 1.363 . S
C371 H374 0.929 . S
C372 C371 1.363 . S
C372 C378 1.428 . S
H373 C369 0.930 . S
H374 C371 0.929 . S
S375 N376 1.616 1_655 S
S375 N377 1.608 . S
N376 S375 1.616 1_455 S
N376 C379 1.350 . S
N377 S375 1.608 . S
N377 C378 1.351 . S
C378 C372 1.428 . S
C378 N377 1.351 . S
C378 C379 1.434 1_655 S
C379 C370 1.429 . S
C379 N376 1.350 . S
C379 C378 1.434 1_455 S
C380 C381 1.369 . S
C380 C382 1.419 . S
C380 H384 0.930 . S
C381 C380 1.369 . S
C381 C390 1.429 . S
C382 C380 1.419 . S
C382 C383 1.363 . S
C382 H385 0.929 . S
C383 C382 1.363 . S
C383 C389 1.428 . S
H384 C380 0.930 . S
H385 C382 0.929 . S
S386 N387 1.613 . S
S386 N388 1.610 . S
N387 S386 1.613 . S
N387 C390 1.350 . S
N388 S386 1.610 . S
N388 C389 1.351 . S
C389 C383 1.428 . S
C389 N388 1.351 . S
C389 C390 1.434 . S
C390 C381 1.429 . S
C390 N387 1.350 . S
C390 C389 1.434 . S
C391 C392 1.369 . S
C391 C393 1.419 1_655 S
C391 H395 0.930 . S
C392 C391 1.369 . S
C392 C401 1.429 . S
C393 C391 1.419 1_455 S
C393 C394 1.363 . S
C393 H396 0.929 . S
C394 C393 1.363 . S
C394 C400 1.428 . S
H395 C391 0.930 . S
H396 C393 0.929 . S
S397 N398 1.616 1_455 S
S397 N399 1.608 . S
N398 S397 1.616 1_655 S
N398 C401 1.350 . S
N399 S397 1.608 . S
N399 C400 1.351 . S
C400 C394 1.428 . S
C400 N399 1.351 . S
C400 C401 1.434 1_455 S
C401 C392 1.429 . S
C401 N398 1.350 . S
C401 C400 1.434 1_655 S
C402 C403 1.369 . S
C402 C404 1.419 . S
C402 H406 0.930 . S
C403 C402 1.369 . S
C403 C412 1.429 . S
C404 C402 1.419 . S
C404 C405 1.363 . S
C404 H407 0.929 . S
C405 C404 1.363 . S
C405 C411 1.428 . S
H406 C402 0.930 . S
H407 C404 0.929 . S
S408 N409 1.613 . S
S408 N410 1.610 . S
N409 S408 1.613 . S
N409 C412 1.350 . S
N410 S408 1.610 . S
N410 C411 1.351 . S
C411 C405 1.428 . S
C411 N410 1.351 . S
C411 C412 1.434 . S
C412 C403 1.429 . S
C412 N409 1.350 . S
C412 C411 1.434 . S
C413 C414 1.369 . S
C413 C415 1.419 1_655 S
C413 H417 0.930 . S
C414 C413 1.369 . S
C414 C423 1.429 . S
C415 C413 1.419 1_455 S
C415 C416 1.363 . S
C415 H418 0.929 . S
C416 C415 1.363 . S
C416 C422 1.428 . S
H417 C413 0.930 . S
H418 C415 0.929 . S
S419 N420 1.616 1_455 S
S419 N421 1.608 . S
N420 S419 1.616 1_655 S
N420 C423 1.350 . S
N421 S419 1.608 . S
N421 C422 1.351 . S
C422 C416 1.428 . S
C422 N421 1.351 . S
C422 C423 1.434 1_455 S
C423 C414 1.429 . S
C423 N420 1.350 . S
C423 C422 1.434 1_655 S
C424 C425 1.369 . S
C424 C426 1.419 . S
C424 H428 0.930 . S
C425 C424 1.369 . S
C425 C434 1.429 . S
C426 C424 1.419 . S
C426 C427 1.363 . S
C426 H429 0.929 . S
C427 C426 1.363 . S
C427 C433 1.428 . S
H428 C424 0.930 . S
H429 C426 0.929 . S
S430 N431 1.613 . S
S430 N432 1.610 . S
N431 S430 1.613 . S
N431 C434 1.350 . S
N432 S430 1.610 . S
N432 C433 1.351 . S
C433 C427 1.428 . S
C433 N432 1.351 . S
C433 C434 1.434 . S
C434 C425 1.429 . S
C434 N431 1.350 . S
C434 C433 1.434 . S
C435 C436 1.369 . S
C435 C437 1.419 1_556 S
C435 H439 0.930 . S
C436 C435 1.369 . S
C436 C445 1.429 . S
C437 C435 1.419 1_554 S
C437 C438 1.363 . S
C437 H440 0.929 . S
C438 C437 1.363 . S
C438 C444 1.428 . S
H439 C435 0.930 . S
H440 C437 0.929 . S
S441 N442 1.616 1_554 S
S441 N443 1.608 . S
N442 S441 1.616 1_556 S
N442 C445 1.350 . S
N443 S441 1.608 . S
N443 C444 1.351 . S
C444 C438 1.428 . S
C444 N443 1.351 . S
C444 C445 1.434 1_554 S
C445 C436 1.429 . S
C445 N442 1.350 . S
C445 C444 1.434 1_556 S
C446 C447 1.369 . S
C446 C448 1.419 . S
C446 H450 0.930 . S
C447 C446 1.369 . S
C447 C456 1.429 . S
C448 C446 1.419 . S
C448 C449 1.363 . S
C448 H451 0.929 . S
C449 C448 1.363 . S
C449 C455 1.428 . S
H450 C446 0.930 . S
H451 C448 0.929 . S
S452 N453 1.613 . S
S452 N454 1.610 . S
N453 S452 1.613 . S
N453 C456 1.350 . S
N454 S452 1.610 . S
N454 C455 1.351 . S
C455 C449 1.428 . S
C455 N454 1.351 . S
C455 C456 1.434 . S
C456 C447 1.429 . S
C456 N453 1.350 . S
C456 C455 1.434 . S
C457 C458 1.369 . S
C457 C459 1.419 1_554 S
C457 H461 0.930 . S
C458 C457 1.369 . S
C458 C467 1.429 . S
C459 C457 1.419 1_556 S
C459 C460 1.363 . S
C459 H462 0.929 . S
C460 C459 1.363 . S
C460 C466 1.428 . S
H461 C457 0.930 . S
H462 C459 0.929 . S
S463 N464 1.616 1_556 S
S463 N465 1.608 . S
N464 S463 1.616 1_554 S
N464 C467 1.350 . S
N465 S463 1.608 . S
N465 C466 1.351 . S
C466 C460 1.428 . S
C466 N465 1.351 . S
C466 C467 1.434 1_556 S
C467 C458 1.429 . S
C467 N464 1.350 . S
C467 C466 1.434 1_554 S
C468 C469 1.369 . S
C468 C470 1.419 . S
C468 H472 0.930 . S
C469 C468 1.369 . S
C469 C478 1.429 . S
C470 C468 1.419 . S
C470 C471 1.363 . S
C470 H473 0.929 . S
C471 C470 1.363 . S
C471 C477 1.428 . S
H472 C468 0.930 . S
H473 C470 0.929 . S
S474 N475 1.613 . S
S474 N476 1.610 . S
N475 S474 1.613 . S
N475 C478 1.350 . S
N476 S474 1.610 . S
N476 C477 1.351 . S
C477 C471 1.428 . S
C477 N476 1.351 . S
C477 C478 1.434 . S
C478 C469 1.429 . S
C478 N475 1.350 . S
C478 C477 1.434 . S
C479 C480 1.369 . S
C479 C481 1.419 1_554 S
C479 H483 0.930 . S
C480 C479 1.369 . S
C480 C489 1.429 . S
C481 C479 1.419 1_556 S
C481 C482 1.363 . S
C481 H484 0.929 . S
C482 C481 1.363 . S
C482 C488 1.428 . S
H483 C479 0.930 . S
H484 C481 0.929 . S
S485 N486 1.616 1_556 S
S485 N487 1.608 . S
N486 S485 1.616 1_554 S
N486 C489 1.350 . S
N487 S485 1.608 . S
N487 C488 1.351 . S
C488 C482 1.428 . S
C488 N487 1.351 . S
C488 C489 1.434 1_556 S
C489 C480 1.429 . S
C489 N486 1.350 . S
C489 C488 1.434 1_554 S
C490 C491 1.369 . S
C490 C492 1.419 . S
C490 H494 0.930 . S
C491 C490 1.369 . S
C491 C500 1.429 . S
C492 C490 1.419 . S
C492 C493 1.363 . S
C492 H495 0.929 . S
C493 C492 1.363 . S
C493 C499 1.428 . S
H494 C490 0.930 . S
H495 C492 0.929 . S
S496 N497 1.613 . S
S496 N498 1.610 . S
N497 S496 1.613 . S
N497 C500 1.350 . S
N498 S496 1.610 . S
N498 C499 1.351 . S
C499 C493 1.428 . S
C499 N498 1.351 . S
C499 C500 1.434 . S
C500 C491 1.429 . S
C500 N497 1.350 . S
C500 C499 1.434 . S
C501 C502 1.369 . S
C501 C503 1.419 1_554 S
C501 H505 0.930 . S
C502 C501 1.369 . S
C502 C511 1.429 . S
C503 C501 1.419 1_556 S
C503 C504 1.363 . S
C503 H506 0.929 . S
C504 C503 1.363 . S
C504 C510 1.428 . S
H505 C501 0.930 . S
H506 C503 0.929 . S
S507 N508 1.616 1_556 S
S507 N509 1.608 . S
N508 S507 1.616 1_554 S
N508 C511 1.350 . S
N509 S507 1.608 . S
N509 C510 1.351 . S
C510 C504 1.428 . S
C510 N509 1.351 . S
C510 C511 1.434 1_556 S
C511 C502 1.429 . S
C511 N508 1.350 . S
C511 C510 1.434 1_554 S
C512 C513 1.369 . S
C512 C514 1.419 . S
C512 H516 0.930 . S
C513 C512 1.369 . S
C513 C522 1.429 . S
C514 C512 1.419 . S
C514 C515 1.363 . S
C514 H517 0.929 . S
C515 C514 1.363 . S
C515 C521 1.428 . S
H516 C512 0.930 . S
H517 C514 0.929 . S
S518 N519 1.613 . S
S518 N520 1.610 . S
N519 S518 1.613 . S
N519 C522 1.350 . S
N520 S518 1.610 . S
N520 C521 1.351 . S
C521 C515 1.428 . S
C521 N520 1.351 . S
C521 C522 1.434 . S
C522 C513 1.429 . S
C522 N519 1.350 . S
C522 C521 1.434 . S
C523 C524 1.369 . S
C523 C525 1.419 . S
C523 H527 0.930 . S
C524 C523 1.369 . S
C524 C533 1.429 . S
C525 C523 1.419 . S
C525 C526 1.363 . S
C525 H528 0.929 . S
C526 C525 1.363 . S
C526 C532 1.428 . S
H527 C523 0.930 . S
H528 C525 0.929 . S
S529 N530 1.613 . S
S529 N531 1.610 . S
N530 S529 1.613 . S
N530 C533 1.350 . S
N531 S529 1.610 . S
N531 C532 1.351 . S
C532 C526 1.428 . S
C532 N531 1.351 . S
C532 C533 1.434 . S
C533 C524 1.429 . S
C533 N530 1.350 . S
C533 C532 1.434 . S
C534 C535 1.369 . S
C534 C536 1.419 1_565 S
C534 H538 0.930 . S
C535 C534 1.369 . S
C535 C544 1.429 . S
C536 C534 1.419 1_545 S
C536 C537 1.363 . S
C536 H539 0.929 . S
C537 C536 1.363 . S
C537 C543 1.428 . S
H538 C534 0.930 . S
H539 C536 0.929 . S
S540 N541 1.616 1_545 S
S540 N542 1.608 . S
N541 S540 1.616 1_565 S
N541 C544 1.350 . S
N542 S540 1.608 . S
N542 C543 1.351 . S
C543 C537 1.428 . S
C543 N542 1.351 . S
C543 C544 1.434 1_545 S
C544 C535 1.429 . S
C544 N541 1.350 . S
C544 C543 1.434 1_565 S
C545 C546 1.369 . S
C545 C547 1.419 . S
C545 H549 0.930 . S
C546 C545 1.369 . S
C546 C555 1.429 . S
C547 C545 1.419 . S
C547 C548 1.363 . S
C547 H550 0.929 . S
C548 C547 1.363 . S
C548 C554 1.428 . S
H549 C545 0.930 . S
H550 C547 0.929 . S
S551 N552 1.613 . S
S551 N553 1.610 . S
N552 S551 1.613 . S
N552 C555 1.350 . S
N553 S551 1.610 . S
N553 C554 1.351 . S
C554 C548 1.428 . S
C554 N553 1.351 . S
C554 C555 1.434 . S
C555 C546 1.429 . S
C555 N552 1.350 . S
C555 C554 1.434 . S
C556 C557 1.369 . S
C556 C558 1.419 1_565 S
C556 H560 0.930 . S
C557 C556 1.369 . S
C557 C566 1.429 . S
C558 C556 1.419 1_545 S
C558 C559 1.363 . S
C558 H561 0.929 . S
C559 C558 1.363 . S
C559 C565 1.428 . S
H560 C556 0.930 . S
H561 C558 0.929 . S
S562 N563 1.616 1_545 S
S562 N564 1.608 . S
N563 S562 1.616 1_565 S
N563 C566 1.350 . S
N564 S562 1.608 . S
N564 C565 1.351 . S
C565 C559 1.428 . S
C565 N564 1.351 . S
C565 C566 1.434 1_545 S
C566 C557 1.429 . S
C566 N563 1.350 . S
C566 C565 1.434 1_565 S
C567 C568 1.369 . S
C567 C569 1.419 . S
C567 H571 0.930 . S
C568 C567 1.369 . S
C568 C577 1.429 . S
C569 C567 1.419 . S
C569 C570 1.363 . S
C569 H572 0.929 . S
C570 C569 1.363 . S
C570 C576 1.428 . S
H571 C567 0.930 . S
H572 C569 0.929 . S
S573 N574 1.613 . S
S573 N575 1.610 . S
N574 S573 1.613 . S
N574 C577 1.350 . S
N575 S573 1.610 . S
N575 C576 1.351 . S
C576 C570 1.428 . S
C576 N575 1.351 . S
C576 C577 1.434 . S
C577 C568 1.429 . S
C577 N574 1.350 . S
C577 C576 1.434 . S
C578 C579 1.369 . S
C578 C580 1.419 1_565 S
C578 H582 0.930 . S
C579 C578 1.369 . S
C579 C588 1.429 . S
C580 C578 1.419 1_545 S
C580 C581 1.363 . S
C580 H583 0.929 . S
C581 C580 1.363 . S
C581 C587 1.428 . S
H582 C578 0.930 . S
H583 C580 0.929 . S
S584 N585 1.616 1_545 S
S584 N586 1.608 . S
N585 S584 1.616 1_565 S
N585 C588 1.350 . S
N586 S584 1.608 . S
N586 C587 1.351 . S
C587 C581 1.428 . S
C587 N586 1.351 . S
C587 C588 1.434 1_545 S
C588 C579 1.429 . S
C588 N585 1.350 . S
C588 C587 1.434 1_565 S
C589 C590 1.369 . S
C589 C591 1.419 1_545 S
C589 H593 0.930 . S
C590 C589 1.369 . S
C590 C599 1.429 . S
C591 C589 1.419 1_565 S
C591 C592 1.363 . S
C591 H594 0.929 . S
C592 C591 1.363 . S
C592 C598 1.428 . S
H593 C589 0.930 . S
H594 C591 0.929 . S
S595 N596 1.616 1_565 S
S595 N597 1.608 . S
N596 S595 1.616 1_545 S
N596 C599 1.350 . S
N597 S595 1.608 . S
N597 C598 1.351 . S
C598 C592 1.428 . S
C598 N597 1.351 . S
C598 C599 1.434 1_565 S
C599 C590 1.429 . S
C599 N596 1.350 . S
C599 C598 1.434 1_545 S
C600 C601 1.369 . S
C600 C602 1.419 . S
C600 H604 0.930 . S
C601 C600 1.369 . S
C601 C610 1.429 . S
C602 C600 1.419 . S
C602 C603 1.363 . S
C602 H605 0.929 . S
C603 C602 1.363 . S
C603 C609 1.428 . S
H604 C600 0.930 . S
H605 C602 0.929 . S
S606 N607 1.613 . S
S606 N608 1.610 . S
N607 S606 1.613 . S
N607 C610 1.350 . S
N608 S606 1.610 . S
N608 C609 1.351 . S
C609 C603 1.428 . S
C609 N608 1.351 . S
C609 C610 1.434 . S
C610 C601 1.429 . S
C610 N607 1.350 . S
C610 C609 1.434 . S
C611 C612 1.369 . S
C611 C613 1.419 . S
C611 H615 0.930 . S
C612 C611 1.369 . S
C612 C621 1.429 . S
C613 C611 1.419 . S
C613 C614 1.363 . S
C613 H616 0.929 . S
C614 C613 1.363 . S
C614 C620 1.428 . S
H615 C611 0.930 . S
H616 C613 0.929 . S
S617 N618 1.613 . S
S617 N619 1.610 . S
N618 S617 1.613 . S
N618 C621 1.350 . S
N619 S617 1.610 . S
N619 C620 1.351 . S
C620 C614 1.428 . S
C620 N619 1.351 . S
C620 C621 1.434 . S
C621 C612 1.429 . S
C621 N618 1.350 . S
C621 C620 1.434 . S
C622 C623 1.369 . S
C622 C624 1.419 . S
C622 H626 0.930 . S
C623 C622 1.369 . S
C623 C632 1.429 . S
C624 C622 1.419 . S
C624 C625 1.363 . S
C624 H627 0.929 . S
C625 C624 1.363 . S
C625 C631 1.428 . S
H626 C622 0.930 . S
H627 C624 0.929 . S
S628 N629 1.613 . S
S628 N630 1.610 . S
N629 S628 1.613 . S
N629 C632 1.350 . S
N630 S628 1.610 . S
N630 C631 1.351 . S
C631 C625 1.428 . S
C631 N630 1.351 . S
C631 C632 1.434 . S
C632 C623 1.429 . S
C632 N629 1.350 . S
C632 C631 1.434 . S
C633 C634 1.369 . S
C633 C635 1.419 . S
C633 H637 0.930 . S
C634 C633 1.369 . S
C634 C643 1.429 . S
C635 C633 1.419 . S
C635 C636 1.363 . S
C635 H638 0.929 . S
C636 C635 1.363 . S
C636 C642 1.428 . S
H637 C633 0.930 . S
H638 C635 0.929 . S
S639 N640 1.613 . S
S639 N641 1.610 . S
N640 S639 1.613 . S
N640 C643 1.350 . S
N641 S639 1.610 . S
N641 C642 1.351 . S
C642 C636 1.428 . S
C642 N641 1.351 . S
C642 C643 1.434 . S
C643 C634 1.429 . S
C643 N640 1.350 . S
C643 C642 1.434 . S
C644 C645 1.369 . S
C644 C646 1.419 . S
C644 H648 0.930 . S
C645 C644 1.369 . S
C645 C654 1.429 . S
C646 C644 1.419 . S
C646 C647 1.363 . S
C646 H649 0.929 . S
C647 C646 1.363 . S
C647 C653 1.428 . S
H648 C644 0.930 . S
H649 C646 0.929 . S
S650 N651 1.613 . S
S650 N652 1.610 . S
N651 S650 1.613 . S
N651 C654 1.350 . S
N652 S650 1.610 . S
N652 C653 1.351 . S
C653 C647 1.428 . S
C653 N652 1.351 . S
C653 C654 1.434 . S
C654 C645 1.429 . S
C654 N651 1.350 . S
C654 C653 1.434 . S
C655 C656 1.369 . S
C655 C657 1.419 . S
C655 H659 0.930 . S
C656 C655 1.369 . S
C656 C665 1.429 . S
C657 C655 1.419 . S
C657 C658 1.363 . S
C657 H660 0.929 . S
C658 C657 1.363 . S
C658 C664 1.428 . S
H659 C655 0.930 . S
H660 C657 0.929 . S
S661 N662 1.613 . S
S661 N663 1.610 . S
N662 S661 1.613 . S
N662 C665 1.350 . S
N663 S661 1.610 . S
N663 C664 1.351 . S
C664 C658 1.428 . S
C664 N663 1.351 . S
C664 C665 1.434 . S
C665 C656 1.429 . S
C665 N662 1.350 . S
C665 C664 1.434 . S
C666 C667 1.369 . S
C666 C668 1.419 . S
C666 H670 0.930 . S
C667 C666 1.369 . S
C667 C676 1.429 . S
C668 C666 1.419 . S
C668 C669 1.363 . S
C668 H671 0.929 . S
C669 C668 1.363 . S
C669 C675 1.428 . S
H670 C666 0.930 . S
H671 C668 0.929 . S
S672 N673 1.613 . S
S672 N674 1.610 . S
N673 S672 1.613 . S
N673 C676 1.350 . S
N674 S672 1.610 . S
N674 C675 1.351 . S
C675 C669 1.428 . S
C675 N674 1.351 . S
C675 C676 1.434 . S
C676 C667 1.429 . S
C676 N673 1.350 . S
C676 C675 1.434 . S
C677 C678 1.369 . S
C677 C679 1.419 . S
C677 H681 0.930 . S
C678 C677 1.369 . S
C678 C687 1.429 . S
C679 C677 1.419 . S
C679 C680 1.363 . S
C679 H682 0.929 . S
C680 C679 1.363 . S
C680 C686 1.428 . S
H681 C677 0.930 . S
H682 C679 0.929 . S
S683 N684 1.613 . S
S683 N685 1.610 . S
N684 S683 1.613 . S
N684 C687 1.350 . S
N685 S683 1.610 . S
N685 C686 1.351 . S
C686 C680 1.428 . S
C686 N685 1.351 . S
C686 C687 1.434 . S
C687 C678 1.429 . S
C687 N684 1.350 . S
C687 C686 1.434 . S
C688 C689 1.369 . S
C688 C690 1.419 . S
C688 H692 0.930 . S
C689 C688 1.369 . S
C689 C698 1.429 . S
C690 C688 1.419 . S
C690 C691 1.363 . S
C690 H693 0.929 . S
C691 C690 1.363 . S
C691 C697 1.428 . S
H692 C688 0.930 . S
H693 C690 0.929 . S
S694 N695 1.613 . S
S694 N696 1.610 . S
N695 S694 1.613 . S
N695 C698 1.350 . S
N696 S694 1.610 . S
N696 C697 1.351 . S
C697 C691 1.428 . S
C697 N696 1.351 . S
C697 C698 1.434 . S
C698 C689 1.429 . S
C698 N695 1.350 . S
C698 C697 1.434 . S
C699 C700 1.369 . S
C699 C701 1.419 . S
C699 H703 0.930 . S
C700 C699 1.369 . S
C700 C709 1.429 . S
C701 C699 1.419 . S
C701 C702 1.363 . S
C701 H704 0.929 . S
C702 C701 1.363 . S
C702 C708 1.428 . S
H703 C699 0.930 . S
H704 C701 0.929 . S
S705 N706 1.613 . S
S705 N707 1.610 . S
N706 S705 1.613 . S
N706 C709 1.350 . S
N707 S705 1.610 . S
N707 C708 1.351 . S
C708 C702 1.428 . S
C708 N707 1.351 . S
C708 C709 1.434 . S
C709 C700 1.429 . S
C709 N706 1.350 . S
C709 C708 1.434 . S
C710 C711 1.369 . S
C710 C712 1.419 . S
C710 H714 0.930 . S
C711 C710 1.369 . S
C711 C720 1.429 . S
C712 C710 1.419 . S
C712 C713 1.363 . S
C712 H715 0.929 . S
C713 C712 1.363 . S
C713 C719 1.428 . S
H714 C710 0.930 . S
H715 C712 0.929 . S
S716 N717 1.613 . S
S716 N718 1.610 . S
N717 S716 1.613 . S
N717 C720 1.350 . S
N718 S716 1.610 . S
N718 C719 1.351 . S
C719 C713 1.428 . S
C719 N718 1.351 . S
C719 C720 1.434 . S
C720 C711 1.429 . S
C720 N717 1.350 . S
C720 C719 1.434 . S
C721 C722 1.369 . S
C721 C723 1.419 . S
C721 H725 0.930 . S
C722 C721 1.369 . S
C722 C731 1.429 . S
C723 C721 1.419 . S
C723 C724 1.363 . S
C723 H726 0.929 . S
C724 C723 1.363 . S
C724 C730 1.428 . S
H725 C721 0.930 . S
H726 C723 0.929 . S
S727 N728 1.613 . S
S727 N729 1.610 . S
N728 S727 1.613 . S
N728 C731 1.350 . S
N729 S727 1.610 . S
N729 C730 1.351 . S
C730 C724 1.428 . S
C730 N729 1.351 . S
C730 C731 1.434 . S
C731 C722 1.429 . S
C731 N728 1.350 . S
C731 C730 1.434 . S
C732 C733 1.369 . S
C732 C734 1.419 . S
C732 H736 0.930 . S
C733 C732 1.369 . S
C733 C742 1.429 . S
C734 C732 1.419 . S
C734 C735 1.363 . S
C734 H737 0.929 . S
C735 C734 1.363 . S
C735 C741 1.428 . S
H736 C732 0.930 . S
H737 C734 0.929 . S
S738 N739 1.613 . S
S738 N740 1.610 . S
N739 S738 1.613 . S
N739 C742 1.350 . S
N740 S738 1.610 . S
N740 C741 1.351 . S
C741 C735 1.428 . S
C741 N740 1.351 . S
C741 C742 1.434 . S
C742 C733 1.429 . S
C742 N739 1.350 . S
C742 C741 1.434 . S
C743 C744 1.369 . S
C743 C745 1.419 . S
C743 H747 0.930 . S
C744 C743 1.369 . S
C744 C753 1.429 . S
C745 C743 1.419 . S
C745 C746 1.363 . S
C745 H748 0.929 . S
C746 C745 1.363 . S
C746 C752 1.428 . S
H747 C743 0.930 . S
H748 C745 0.929 . S
S749 N750 1.613 . S
S749 N751 1.610 . S
N750 S749 1.613 . S
N750 C753 1.350 . S
N751 S749 1.610 . S
N751 C752 1.351 . S
C752 C746 1.428 . S
C752 N751 1.351 . S
C752 C753 1.434 . S
C753 C744 1.429 . S
C753 N750 1.350 . S
C753 C752 1.434 . S
C754 C755 1.369 . S
C754 C756 1.419 . S
C754 H758 0.930 . S
C755 C754 1.369 . S
C755 C764 1.429 . S
C756 C754 1.419 . S
C756 C757 1.363 . S
C756 H759 0.929 . S
C757 C756 1.363 . S
C757 C763 1.428 . S
H758 C754 0.930 . S
H759 C756 0.929 . S
S760 N761 1.613 . S
S760 N762 1.610 . S
N761 S760 1.613 . S
N761 C764 1.350 . S
N762 S760 1.610 . S
N762 C763 1.351 . S
C763 C757 1.428 . S
C763 N762 1.351 . S
C763 C764 1.434 . S
C764 C755 1.429 . S
C764 N761 1.350 . S
C764 C763 1.434 . S
C765 C766 1.369 . S
C765 C767 1.419 . S
C765 H769 0.930 . S
C766 C765 1.369 . S
C766 C775 1.429 . S
C767 C765 1.419 . S
C767 C768 1.363 . S
C767 H770 0.929 . S
C768 C767 1.363 . S
C768 C774 1.428 . S
H769 C765 0.930 . S
H770 C767 0.929 . S
S771 N772 1.613 . S
S771 N773 1.610 . S
N772 S771 1.613 . S
N772 C775 1.350 . S
N773 S771 1.610 . S
N773 C774 1.351 . S
C774 C768 1.428 . S
C774 N773 1.351 . S
C774 C775 1.434 . S
C775 C766 1.429 . S
C775 N772 1.350 . S
C775 C774 1.434 . S
C776 C777 1.369 . S
C776 C778 1.419 . S
C776 H780 0.930 . S
C777 C776 1.369 . S
C777 C786 1.429 . S
C778 C776 1.419 . S
C778 C779 1.363 . S
C778 H781 0.929 . S
C779 C778 1.363 . S
C779 C785 1.428 . S
H780 C776 0.930 . S
H781 C778 0.929 . S
S782 N783 1.613 . S
S782 N784 1.610 . S
N783 S782 1.613 . S
N783 C786 1.350 . S
N784 S782 1.610 . S
N784 C785 1.351 . S
C785 C779 1.428 . S
C785 N784 1.351 . S
C785 C786 1.434 . S
C786 C777 1.429 . S
C786 N783 1.350 . S
C786 C785 1.434 . S
C787 C788 1.369 . S
C787 C789 1.419 . S
C787 H791 0.930 . S
C788 C787 1.369 . S
C788 C797 1.429 . S
C789 C787 1.419 . S
C789 C790 1.363 . S
C789 H792 0.929 . S
C790 C789 1.363 . S
C790 C796 1.428 . S
H791 C787 0.930 . S
H792 C789 0.929 . S
S793 N794 1.613 . S
S793 N795 1.610 . S
N794 S793 1.613 . S
N794 C797 1.350 . S
N795 S793 1.610 . S
N795 C796 1.351 . S
C796 C790 1.428 . S
C796 N795 1.351 . S
C796 C797 1.434 . S
C797 C788 1.429 . S
C797 N794 1.350 . S
C797 C796 1.434 . S
C798 C799 1.369 . S
C798 C800 1.419 . S
C798 H802 0.930 . S
C799 C798 1.369 . S
C799 C808 1.429 . S
C800 C798 1.419 . S
C800 C801 1.363 . S
C800 H803 0.929 . S
C801 C800 1.363 . S
C801 C807 1.428 . S
H802 C798 0.930 . S
H803 C800 0.929 . S
S804 N805 1.613 . S
S804 N806 1.610 . S
N805 S804 1.613 . S
N805 C808 1.350 . S
N806 S804 1.610 . S
N806 C807 1.351 . S
C807 C801 1.428 . S
C807 N806 1.351 . S
C807 C808 1.434 . S
C808 C799 1.429 . S
C808 N805 1.350 . S
C808 C807 1.434 . S
C809 C810 1.369 . S
C809 C811 1.419 . S
C809 H813 0.930 . S
C810 C809 1.369 . S
C810 C819 1.429 . S
C811 C809 1.419 . S
C811 C812 1.363 . S
C811 H814 0.929 . S
C812 C811 1.363 . S
C812 C818 1.428 . S
H813 C809 0.930 . S
H814 C811 0.929 . S
S815 N816 1.613 . S
S815 N817 1.610 . S
N816 S815 1.613 . S
N816 C819 1.350 . S
N817 S815 1.610 . S
N817 C818 1.351 . S
C818 C812 1.428 . S
C818 N817 1.351 . S
C818 C819 1.434 . S
C819 C810 1.429 . S
C819 N816 1.350 . S
C819 C818 1.434 . S
C820 C821 1.369 . S
C820 C822 1.419 . S
C820 H824 0.930 . S
C821 C820 1.369 . S
C821 C830 1.429 . S
C822 C820 1.419 . S
C822 C823 1.363 . S
C822 H825 0.929 . S
C823 C822 1.363 . S
C823 C829 1.428 . S
H824 C820 0.930 . S
H825 C822 0.929 . S
S826 N827 1.613 . S
S826 N828 1.610 . S
N827 S826 1.613 . S
N827 C830 1.350 . S
N828 S826 1.610 . S
N828 C829 1.351 . S
C829 C823 1.428 . S
C829 N828 1.351 . S
C829 C830 1.434 . S
C830 C821 1.429 . S
C830 N827 1.350 . S
C830 C829 1.434 . S
C831 C832 1.369 . S
C831 C833 1.419 . S
C831 H835 0.930 . S
C832 C831 1.369 . S
C832 C841 1.429 . S
C833 C831 1.419 . S
C833 C834 1.363 . S
C833 H836 0.929 . S
C834 C833 1.363 . S
C834 C840 1.428 . S
H835 C831 0.930 . S
H836 C833 0.929 . S
S837 N838 1.613 . S
S837 N839 1.610 . S
N838 S837 1.613 . S
N838 C841 1.350 . S
N839 S837 1.610 . S
N839 C840 1.351 . S
C840 C834 1.428 . S
C840 N839 1.351 . S
C840 C841 1.434 . S
C841 C832 1.429 . S
C841 N838 1.350 . S
C841 C840 1.434 . S
C842 C843 1.369 . S
C842 C844 1.419 . S
C842 H846 0.930 . S
C843 C842 1.369 . S
C843 C852 1.429 . S
C844 C842 1.419 . S
C844 C845 1.363 . S
C844 H847 0.929 . S
C845 C844 1.363 . S
C845 C851 1.428 . S
H846 C842 0.930 . S
H847 C844 0.929 . S
S848 N849 1.613 . S
S848 N850 1.610 . S
N849 S848 1.613 . S
N849 C852 1.350 . S
N850 S848 1.610 . S
N850 C851 1.351 . S
C851 C845 1.428 . S
C851 N850 1.351 . S
C851 C852 1.434 . S
C852 C843 1.429 . S
C852 N849 1.350 . S
C852 C851 1.434 . S
C853 C854 1.369 . S
C853 C855 1.419 . S
C853 H857 0.930 . S
C854 C853 1.369 . S
C854 C863 1.429 . S
C855 C853 1.419 . S
C855 C856 1.363 . S
C855 H858 0.929 . S
C856 C855 1.363 . S
C856 C862 1.428 . S
H857 C853 0.930 . S
H858 C855 0.929 . S
S859 N860 1.613 . S
S859 N861 1.610 . S
N860 S859 1.613 . S
N860 C863 1.350 . S
N861 S859 1.610 . S
N861 C862 1.351 . S
C862 C856 1.428 . S
C862 N861 1.351 . S
C862 C863 1.434 . S
C863 C854 1.429 . S
C863 N860 1.350 . S
C863 C862 1.434 . S
C337 C216 1.446 . S
C339 C7 1.446 . S
C348 C174 1.449 . S
C350 C20 1.448 . S
C359 C189 1.445 . S
C361 C34 1.445 . S
C370 C203 1.448 . S
C372 C49 1.448 . S
C381 C202 1.448 . S
C383 C21 1.448 . S
C392 C35 1.444 . S
C394 C217 1.445 . S
C403 C175 1.444 . S
C405 C48 1.445 . S
C414 C188 1.444 . S
C416 C6 1.445 . S
C425 C258 1.446 . S
C427 C62 1.446 . S
C436 C77 1.449 . S
C438 C273 1.448 . S
C447 C90 1.446 . S
C449 C230 1.447 . S
C458 C245 1.445 . S
C460 C105 1.445 . S
C469 C315 1.446 . S
C471 C119 1.446 . S
C480 C132 1.448 . S
C482 C328 1.448 . S
C491 C147 1.448 . S
C493 C287 1.448 . S
C502 C160 1.445 . S
C504 C300 1.446 . S
C513 C244 1.446 . S
C515 C161 1.446 . S
C524 C329 1.447 . S
C526 C76 1.447 . S
C535 C91 1.446 . S
C537 C286 1.446 . S
C546 C301 1.445 . S
C548 C104 1.445 . S
C557 C314 1.448 . S
C559 C63 1.448 . S
C568 C133 1.449 . S
C570 C272 1.448 . S
C579 C231 1.446 . S
C581 C146 1.446 . S
C590 C259 1.449 . S
C592 C118 1.448 . S
C601 C8 1.070 . S
C603 C64 1.075 . S
C612 C79 1.075 . S
C614 C23 1.067 . S
C623 C37 1.073 . S
C625 C92 1.073 . S
C634 C50 1.069 . S
C636 C107 1.075 . S
C645 C121 1.070 . S
C647 C22 1.068 . S
C656 C134 1.066 . S
C658 C36 1.074 . S
C667 C149 1.067 . S
C669 C51 1.070 . S
C678 C9 1.072 . S
C680 C162 1.067 . S
C689 C163 1.076 . S
C691 C65 1.070 . S
C700 C78 1.073 . S
C702 C120 1.073 . S
C711 C93 1.072 . S
C713 C135 1.074 . S
C722 C148 1.075 . S
C724 C106 1.067 . S
C733 C232 1.075 . S
C735 C176 1.071 . S
C744 C247 1.067 . S
C746 C191 1.071 . S
C755 C205 1.076 . S
C757 C260 1.070 . S
C766 C218 1.076 . S
C768 C275 1.068 . S
C777 C190 1.069 . S
C779 C289 1.075 . S
C788 C204 1.075 . S
C790 C302 1.071 . S
C799 C317 1.066 . S
C801 C219 1.073 . S
C810 C177 1.066 . S
C812 C330 1.074 . S
C821 C233 1.067 . S
C823 C331 1.071 . S
C832 C288 1.071 . S
C834 C246 1.074 . S
C843 C261 1.070 . S
C845 C303 1.074 . S
C854 C316 1.076 . S
C856 C274 1.069 . S
