# Generated by pormake.
# Topology snz, (6)-cn, num edge types: 1
# Building blocks:
#     Node 0, Type 0, BuildingBlock: BETFEN_clean_sbu_0, # of connection points: 6
#     Node 1, Type 0, BuildingBlock: BETFEN_clean_sbu_0, # of connection points: 6
#     Node 2, Type 0, BuildingBlock: BETFEN_clean_sbu_0, # of connection points: 6
#     Node 3, Type 0, BuildingBlock: BETFEN_clean_sbu_0, # of connection points: 6
#     Node 4, Type 0, BuildingBlock: BETFEN_clean_sbu_0, # of connection points: 6
#     Node 5, Type 0, BuildingBlock: BETFEN_clean_sbu_0, # of connection points: 6
#     Node 6, Type 0, BuildingBlock: BETFEN_clean_sbu_0, # of connection points: 6
#     Node 7, Type 0, BuildingBlock: BETFEN_clean_sbu_0, # of connection points: 6
#     Node 8, Type 0, BuildingBlock: BETFEN_clean_sbu_0, # of connection points: 6
#     Edge 9, Type (0, 0), BuildingBlock: XIVTED_clean_linker_0, # of connection points: 2
#     Edge 10, Type (0, 0), BuildingBlock: XIVTED_clean_linker_0, # of connection points: 2
#     Edge 11, Type (0, 0), BuildingBlock: XIVTED_clean_linker_0, # of connection points: 2
#     Edge 12, Type (0, 0), BuildingBlock: XIVTED_clean_linker_0, # of connection points: 2
#     Edge 13, Type (0, 0), BuildingBlock: XIVTED_clean_linker_0, # of connection points: 2
#     Edge 14, Type (0, 0), BuildingBlock: XIVTED_clean_linker_0, # of connection points: 2
#     Edge 15, Type (0, 0), BuildingBlock: XIVTED_clean_linker_0, # of connection points: 2
#     Edge 16, Type (0, 0), BuildingBlock: XIVTED_clean_linker_0, # of connection points: 2
#     Edge 17, Type (0, 0), BuildingBlock: XIVTED_clean_linker_0, # of connection points: 2
#     Edge 18, Type (0, 0), BuildingBlock: XIVTED_clean_linker_0, # of connection points: 2
#     Edge 19, Type (0, 0), BuildingBlock: XIVTED_clean_linker_0, # of connection points: 2
#     Edge 20, Type (0, 0), BuildingBlock: XIVTED_clean_linker_0, # of connection points: 2
#     Edge 21, Type (0, 0), BuildingBlock: XIVTED_clean_linker_0, # of connection points: 2
#     Edge 22, Type (0, 0), BuildingBlock: XIVTED_clean_linker_0, # of connection points: 2
#     Edge 23, Type (0, 0), BuildingBlock: XIVTED_clean_linker_0, # of connection points: 2
#     Edge 24, Type (0, 0), BuildingBlock: XIVTED_clean_linker_0, # of connection points: 2
#     Edge 25, Type (0, 0), BuildingBlock: XIVTED_clean_linker_0, # of connection points: 2
#     Edge 26, Type (0, 0), BuildingBlock: XIVTED_clean_linker_0, # of connection points: 2
#     Edge 27, Type (0, 0), BuildingBlock: XIVTED_clean_linker_0, # of connection points: 2
#     Edge 28, Type (0, 0), BuildingBlock: XIVTED_clean_linker_0, # of connection points: 2
#     Edge 29, Type (0, 0), BuildingBlock: XIVTED_clean_linker_0, # of connection points: 2
#     Edge 30, Type (0, 0), BuildingBlock: XIVTED_clean_linker_0, # of connection points: 2
#     Edge 31, Type (0, 0), BuildingBlock: XIVTED_clean_linker_0, # of connection points: 2
#     Edge 32, Type (0, 0), BuildingBlock: XIVTED_clean_linker_0, # of connection points: 2
#     Edge 33, Type (0, 0), BuildingBlock: XIVTED_clean_linker_0, # of connection points: 2
#     Edge 34, Type (0, 0), BuildingBlock: XIVTED_clean_linker_0, # of connection points: 2
#     Edge 35, Type (0, 0), BuildingBlock: XIVTED_clean_linker_0, # of connection points: 2
# Relax obj value: 0.437
# Max RMSD: 0.270
# Mean RMSD: 0.177
data_MOF--net-snz--node1-BETFEN_clean_sbu_0--edge1-XIVTED_clean_linker_0
_symmetry_space_group_name_H-M    P1
_symmetry_Int_Tables_number       1
_symmetry_cell_setting            triclinic
loop_
_symmetry_equiv_pos_as_xyz
'x, y, z'
_cell_length_a     68.952532
_cell_length_b     55.509604
_cell_length_c     15.559753
_cell_angle_alpha  97.194122
_cell_angle_beta   97.033842
_cell_angle_gamma 120.82714
loop_
_atom_site_label
_atom_site_type_symbol
_atom_site_fract_x
_atom_site_fract_y
_atom_site_fract_z
_atom_type_partial_charge
Pr0 Pr 0.11714 0.4936 0.31962 0.0
Pr1 Pr 0.08158 0.502 0.30858 0.0
C2 C 0.14247 0.47173 0.37087 0.0
C3 C 0.15535 0.45888 0.40428 0.0
C4 C 0.17232 0.4586 0.36335 0.0
C5 C 0.18253 0.44368 0.39058 0.0
C6 C 0.17594 0.42875 0.45925 0.0
C7 C 0.15954 0.42999 0.50185 0.0
C8 C 0.14938 0.44478 0.47468 0.0
C9 C 0.10974 0.50346 0.14796 0.0
C10 C 0.06406 0.43699 0.22203 0.0
C11 C 0.05158 0.51974 0.30329 0.0
C12 C 0.03919 0.52974 0.25026 0.0
C13 C 1.02008 0.52867 0.27631 0.0
C14 C 1.00879 0.53979 0.2313 0.0
C15 C 1.01641 0.55218 0.15916 0.0
C16 C 0.03543 0.55284 0.13237 0.0
C17 C 0.04675 0.54168 0.17764 0.0
C18 C 0.0917 0.49199 0.47863 0.0
C19 C 0.13324 0.56001 0.35133 0.0
O20 O 0.12334 0.46566 0.39559 0.0
O21 O 0.14905 0.49002 0.31876 0.0
O22 O 0.09354 0.48864 0.18644 0.0
O23 O 0.12994 0.5133 0.198 0.0
O24 O 0.05857 0.45623 0.21685 0.0
O25 O 0.08483 0.44541 0.26635 0.0
O26 O 0.04499 0.4928 0.28099 0.0
O27 O 0.07396 0.53705 0.32945 0.0
O28 O 0.10637 0.50911 0.43972 0.0
O29 O 0.07149 0.47774 0.42599 0.0
O30 O 0.13984 0.54349 0.38063 0.0
O31 O 0.11214 0.54784 0.30355 0.0
H32 H 0.17718 0.46915 0.30865 0.0
H33 H 0.19503 0.44308 0.35598 0.0
H34 H 0.15443 0.41939 0.55627 0.0
H35 H 0.1365 0.44476 0.50824 0.0
H36 H 1.01416 0.5197 0.33275 0.0
H37 H 0.99444 0.53932 0.25448 0.0
H38 H 0.04154 0.56194 1.0764 0.0
H39 H 0.06153 0.54268 0.15677 0.0
Pr40 Pr 0.62599 0.50926 1.05247 0.0
Pr41 Pr 0.58737 0.51332 1.03012 0.0
C42 C 0.66692 0.51325 1.05467 0.0
C43 C 0.69019 0.53174 1.03795 0.0
C44 C 0.70895 0.53195 1.08531 0.0
C45 C 0.73101 0.54811 1.06782 0.0
C46 C 0.73478 0.56439 1.00225 0.0
C47 C 0.71597 0.56458 0.95607 0.0
C48 C 0.69389 0.54846 0.9739 0.0
C49 C 0.60886 0.50321 0.21088 0.0
C50 C 0.63481 0.57503 1.08579 0.0
C51 C 0.54627 0.50836 1.03001 0.0
C52 C 0.52782 0.49397 1.07789 0.0
C53 C 0.50898 0.49741 1.0676 0.0
C54 C 0.4919 0.48469 0.11621 0.0
C55 C 0.49346 0.46838 0.176 0.0
C56 C 0.51231 0.46477 0.18506 0.0
C57 C 0.52936 0.4775 0.13656 0.0
C58 C 0.60422 0.51878 0.87092 0.0
C59 C 0.57747 0.44765 1.00606 0.0
O60 O 0.64952 0.49976 0.98613 0.0
O61 O 0.66203 0.52292 0.1241 0.0
O62 O 0.61083 0.52163 0.16573 0.0
O63 O 0.61485 0.48673 0.17202 0.0
O64 O 0.61307 0.562 1.09155 0.0
O65 O 0.64333 0.5595 1.05947 0.0
O66 O 0.54896 0.49157 0.973 0.0
O67 O 0.56587 0.52994 1.07867 0.0
O68 O 0.60231 0.50057 0.91682 0.0
O69 O 0.59798 0.53507 0.90881 0.0
O70 O 0.5991 0.4596 0.99809 0.0
O71 O 0.56998 0.46421 1.03309 0.0
H72 H 0.70644 0.51916 0.13495 0.0
H73 H 0.74498 0.54715 0.10392 0.0
H74 H 0.7183 0.57718 0.90602 0.0
H75 H 0.67968 0.54879 0.93699 0.0
H76 H 0.50764 0.51022 1.02289 0.0
H77 H 0.47777 0.48819 0.10844 0.0
H78 H 0.51389 0.45201 0.22946 0.0
H79 H 0.54387 0.4747 0.1454 0.0
Pr80 Pr 0.59087 0.05545 0.90527 0.0
Pr81 Pr 0.63446 0.10465 0.94933 0.0
C82 C 0.54596 0.01265 0.87974 0.0
C83 C 0.52912 0.99929 0.93476 0.0
C84 C 0.50736 0.97461 0.89579 0.0
C85 C 0.49091 0.96214 0.94691 0.0
C86 C 0.49596 0.97422 1.03802 0.0
C87 C 0.51799 0.99885 1.07698 0.0
C88 C 0.53444 0.01128 1.02572 0.0
C89 C 0.60786 0.06843 0.74769 0.0
C90 C 0.59278 0.11563 0.94566 0.0
C91 C 0.67922 0.14494 0.95307 0.0
C92 C 0.70077 0.14657 0.93892 0.0
C93 C 0.71349 0.16396 0.88348 0.0
C94 C 0.73378 0.16584 0.86811 0.0
C95 C 0.74199 0.15044 0.90817 0.0
C96 C 0.72922 0.13302 0.96395 0.0
C97 C 0.7088 0.13101 0.97886 0.0
C98 C 0.61817 0.09351 0.10813 0.0
C99 C 0.63041 0.04289 0.95208 0.0
O100 O 0.5527 0.03912 0.87666 0.0
O101 O 0.56294 1.00836 0.88716 0.0
O102 O 0.60916 0.08636 0.8109 0.0
O103 O 0.5987 0.04348 0.76763 0.0
O104 O 0.61338 0.12692 0.92647 0.0
O105 O 0.58248 0.08955 0.9603 0.0
O106 O 0.66248 0.13448 0.88318 0.0
O107 O 0.67171 0.13672 1.02359 0.0
O108 O 0.6158 0.07451 1.04516 0.0
O109 O 0.62857 0.11869 1.08842 0.0
O110 O 0.60939 0.03416 0.96187 0.0
O111 O 0.6427 0.06785 0.93032 0.0
H112 H 0.50305 0.96505 0.82566 0.0
H113 H 0.47428 0.94293 0.91511 0.0
H114 H 0.52236 1.00888 0.14665 0.0
H115 H 0.55122 0.03041 1.05678 0.0
H116 H 0.70771 0.17621 0.85194 0.0
H117 H 0.74324 0.17974 0.82573 0.0
H118 H 0.73483 0.12058 0.99512 0.0
H119 H 0.69927 0.1172 1.02135 0.0
Pr120 Pr 0.78439 0.85331 0.29302 0.0
Pr121 Pr 0.74754 0.85911 0.28601 0.0
C122 C 0.81731 0.84036 0.29977 0.0
C123 C 0.82875 0.8286 0.34946 0.0
C124 C 0.85096 0.83608 0.33994 0.0
C125 C 0.86177 0.82381 0.38122 0.0
C126 C 0.85054 0.80379 0.43298 0.0
C127 C 0.82835 0.79667 0.44356 0.0
C128 C 0.81752 0.80902 0.40211 0.0
C129 C 0.77432 0.86514 0.1258 0.0
C130 C 0.73425 0.793 0.25483 0.0
C131 C 0.71517 0.87275 0.25291 0.0
C132 C 0.70959 0.89199 0.21321 0.0
C133 C 0.68937 0.87966 0.14701 0.0
C134 C 0.68242 0.89684 0.11283 0.0
C135 C 0.69546 0.92689 0.14438 0.0
C136 C 0.71614 0.93936 0.209 0.0
C137 C 0.72312 0.92209 0.24323 0.0
C138 C 0.75626 0.8474 0.45409 0.0
C139 C 0.79941 0.91758 0.36643 0.0
O140 O 0.82161 0.86559 0.33557 0.0
O141 O 0.7958 0.82246 0.25826 0.0
O142 O 0.75954 0.84735 0.16289 0.0
O143 O 0.79446 0.87899 0.17888 0.0
O144 O 0.72606 0.80875 0.23288 0.0
O145 O 0.75607 0.80595 0.2955 0.0
O146 O 0.71587 0.85338 0.19897 0.0
O147 O 0.73067 0.88343 0.32704 0.0
O148 O 0.77184 0.86424 0.41699 0.0
O149 O 0.73596 0.83545 0.40253 0.0
O150 O 0.80466 0.89889 0.38385 0.0
O151 O 0.77926 0.90799 0.3133 0.0
H152 H 0.85978 0.85103 0.29899 0.0
H153 H 0.8787 0.82946 0.3706 0.0
H154 H 0.81937 0.7816 0.48388 0.0
H155 H 0.80033 0.80302 0.41018 0.0
H156 H 0.67862 0.85654 0.1227 0.0
H157 H 0.66666 0.88647 1.062 0.0
H158 H 0.72654 0.96238 0.2353 0.0
H159 H 0.73882 0.93225 0.29432 0.0
Pr160 Pr 0.28106 0.83902 0.54248 0.0
Pr161 Pr 0.24316 0.84428 0.52294 0.0
C162 C 0.32171 0.84304 0.53893 0.0
C163 C 0.34064 0.85841 0.494 0.0
C164 C 0.35936 0.85473 0.50361 0.0
C165 C 0.37691 0.86835 0.45764 0.0
C166 C 0.37596 0.88584 0.40118 0.0
C167 C 0.35724 0.88972 0.39291 0.0
C168 C 0.33972 0.87608 0.4388 0.0
C169 C 0.26497 0.83403 0.70341 0.0
C170 C 0.29199 0.90523 0.5688 0.0
C171 C 0.20277 0.84181 0.52052 0.0
C172 C 0.17938 0.82399 0.53665 0.0
C173 C 0.16223 0.82909 0.50457 0.0
C174 C 0.14004 0.81316 0.52116 0.0
C175 C 0.13455 0.79175 0.57038 0.0
C176 C 0.15178 0.78641 0.60139 0.0
C177 C 0.174 0.80237 0.58454 0.0
C178 C 0.25997 0.84998 0.36371 0.0
C179 C 0.23317 0.77788 0.49396 0.0
O180 O 0.31922 0.85896 0.60014 0.0
O181 O 0.30205 0.82266 0.48711 0.0
O182 O 0.26687 0.85239 0.65806 0.0
O183 O 0.27077 0.81744 0.66412 0.0
O184 O 0.2705 0.89371 0.57808 0.0
O185 O 0.29904 0.88828 0.54073 0.0
O186 O 0.22004 0.85464 0.58946 0.0
O187 O 0.20745 0.83165 0.45137 0.0
O188 O 0.25745 0.83112 0.40785 0.0
O189 O 0.25478 0.86708 0.40425 0.0
O190 O 0.25478 0.79012 0.48679 0.0
O191 O 0.22514 0.79413 0.51863 0.0
H192 H 0.36024 0.84102 0.54568 0.0
H193 H 0.39092 0.86462 0.4647 0.0
H194 H 0.35612 0.90335 0.35106 0.0
H195 H 0.32533 0.8791 0.43052 0.0
H196 H 0.16608 0.84572 0.4675 0.0
H197 H 0.12737 0.81815 0.49725 0.0
H198 H 0.14809 0.76985 0.6385 0.0
H199 H 0.187 0.79799 0.60937 0.0
Pr200 Pr 0.23824 0.25128 0.64 0.0
Pr201 Pr 0.28194 0.3001 0.68462 0.0
C202 C 0.19316 0.21126 0.63384 0.0
C203 C 0.17097 0.20902 0.6403 0.0
C204 C 0.15628 0.18946 0.68651 0.0
C205 C 0.1354 0.18704 0.69544 0.0
C206 C 0.12857 0.20411 0.65821 0.0
C207 C 0.14325 0.22359 0.61109 0.0
C208 C 0.16427 0.22611 0.60256 0.0
C209 C 0.25463 0.26222 0.48133 0.0
C210 C 0.2431 0.31346 0.63591 0.0
C211 C 0.32695 0.34256 0.71094 0.0
C212 C 0.3435 0.35632 0.65526 0.0
C213 C 0.36513 0.3813 0.69356 0.0
C214 C 0.38128 0.39412 0.64158 0.0
C215 C 0.37605 0.38209 0.55032 0.0
C216 C 0.35413 0.35718 0.51207 0.0
C217 C 0.33798 0.34442 0.56414 0.0
C218 C 0.26465 0.28699 0.84154 0.0
C219 C 0.27978 0.23993 0.64718 0.0
O220 O 0.20934 0.22334 0.70623 0.0
O221 O 0.20137 0.21816 0.56343 0.0
O222 O 0.25719 0.28136 0.54427 0.0
O223 O 0.24417 0.23708 0.50126 0.0
O224 O 0.26401 0.32173 0.62577 0.0
O225 O 0.23066 0.28867 0.65847 0.0
O226 O 0.31997 0.31581 0.71065 0.0
O227 O 0.3102 0.34724 0.70715 0.0
O228 O 0.26343 0.2691 0.7784 0.0
O229 O 0.27384 0.31195 0.82172 0.0
O230 O 0.25924 0.22902 0.66684 0.0
O231 O 0.29003 0.26571 0.63032 0.0
H232 H 0.16099 0.176 0.71607 0.0
H233 H 0.12449 0.17151 0.73103 0.0
H234 H 0.13874 0.23731 0.58229 0.0
H235 H 0.17534 0.24154 0.56704 0.0
H236 H 0.36958 0.39081 0.76379 0.0
H237 H 0.39783 0.41354 0.67286 0.0
H238 H 0.34962 0.34716 0.44232 0.0
H239 H 0.32129 0.32509 0.53356 0.0
Pr240 Pr 0.43747 0.17399 0.71034 0.0
Pr241 Pr 0.43316 0.17692 0.88179 0.0
C242 C 0.43645 0.14968 0.54903 0.0
C243 C 0.41614 0.12349 0.49078 0.0
C244 C 0.41779 0.10024 0.4552 0.0
C245 C 0.39785 0.07389 0.4103 0.0
C246 C 0.37588 0.07033 0.40028 0.0
C247 C 0.37444 0.09364 0.43825 0.0
C248 C 0.39423 0.11972 0.48311 0.0
C249 C 0.46393 0.23246 0.79811 0.0
C250 C 0.3971 0.18421 0.74334 0.0
C251 C 0.4191 0.18061 1.03302 0.0
C252 C 0.39489 0.16243 1.03967 0.0
C253 C 0.38908 0.15845 0.1219 0.0
C254 C 0.36701 0.13618 0.12564 0.0
C255 C 0.35061 0.11738 1.04708 0.0
C256 C 0.35597 0.12299 0.96492 0.0
C257 C 0.37792 0.14533 0.96129 0.0
C258 C 0.40712 0.11936 0.78362 0.0
C259 C 0.47694 0.17348 0.85778 0.0
O260 O 0.44442 0.14514 0.62155 0.0
O261 O 0.43541 0.17276 0.563 0.0
O262 O 0.46335 0.21242 0.83136 0.0
O263 O 0.45134 0.22269 0.71795 0.0
O264 O 0.40931 0.1928 0.82501 0.0
O265 O 0.40227 0.17152 0.6815 0.0
O266 O 0.42916 0.16651 1.01722 0.0
O267 O 0.42294 0.19904 0.98269 0.0
O268 O 0.40693 0.14016 0.76004 0.0
O269 O 0.42208 0.12829 0.85728 0.0
O270 O 0.46596 0.16575 0.77416 0.0
O271 O 0.46966 0.1833 0.9192 0.0
H272 H 0.43446 0.10236 0.46323 0.0
H273 H 0.39969 0.05647 0.38256 0.0
H274 H 0.3581 0.09234 0.43063 0.0
H275 H 0.39228 0.13692 0.51225 0.0
H276 H 0.40199 0.17122 0.18289 0.0
H277 H 0.36359 0.13211 0.19012 0.0
H278 H 0.3438 0.10884 0.90353 0.0
H279 H 0.38216 0.14788 0.89694 0.0
Pr280 Pr 0.93808 0.17162 0.8496 0.0
Pr281 Pr 0.93226 0.1885 0.69806 0.0
C282 C 0.94618 0.17474 1.0235 0.0
C283 C 0.9589 0.20321 1.08508 0.0
C284 C 0.97906 0.21205 0.14726 0.0
C285 C 0.99403 0.24109 0.18998 0.0
C286 C 0.98935 0.26203 0.17016 0.0
C287 C 0.96864 0.25268 0.11006 0.0
C288 C 0.95369 0.22381 1.06833 0.0
C289 C 0.91382 0.12192 0.71102 0.0
C290 C 0.89094 0.1723 0.79307 0.0
C291 C 0.93465 0.20986 0.55276 0.0
C292 C 0.95263 0.23943 0.54914 0.0
C293 C 0.95482 0.26358 0.60265 0.0
C294 C 0.97399 0.29126 0.60989 0.0
C295 C 0.99151 0.29527 0.56513 0.0
C296 C 0.9891 0.27118 0.51066 0.0
C297 C 0.96987 0.24365 0.50261 0.0
C298 C 0.95625 0.23616 0.84385 0.0
C299 C 0.97763 0.18349 0.74131 0.0
O300 O 0.9584 0.1703 0.97352 0.0
O301 O 0.92574 0.16667 0.97871 0.0
O302 O 0.90993 0.14194 0.71836 0.0
O303 O 0.92998 0.12698 0.7763 0.0
O304 O 0.894 0.16784 0.71241 0.0
O305 O 0.90807 0.18026 0.86038 0.0
O306 O 0.94204 0.19275 0.56432 0.0
O307 O 0.91987 0.20754 0.60123 0.0
O308 O 0.96079 0.2171 0.82642 0.0
O309 O 0.93786 0.22983 0.78917 0.0
O310 O 0.97458 0.18613 0.8226 0.0
O311 O 0.96135 0.17904 0.67583 0.0
H312 H 0.98367 0.19669 0.16034 0.0
H313 H 1.00926 0.24698 0.2384 0.0
H314 H 0.96419 0.26767 1.09175 0.0
H315 H 0.93859 0.21798 1.01914 0.0
H316 H 0.94198 0.26112 0.64047 0.0
H317 H 0.97517 0.30948 0.65061 0.0
H318 H 1.00187 0.27367 0.4724 0.0
H319 H 0.96876 0.22552 0.46151 0.0
Pr320 Pr 0.92241 0.65371 0.70341 0.0
Pr321 Pr 0.94639 0.69972 0.86075 0.0
C322 C 0.90843 0.61728 0.54623 0.0
C323 C 0.92176 0.60676 0.5067 0.0
C324 C 0.92158 0.60456 0.41602 0.0
C325 C 0.93906 0.60321 0.38309 0.0
C326 C 0.95709 0.60432 0.44073 0.0
C327 C 0.95571 0.60332 0.52963 0.0
C328 C 0.93828 0.60471 0.56249 0.0
C329 C 0.93971 0.63873 0.84565 0.0
C330 C 0.97832 0.69907 0.72762 0.0
C331 C 0.96894 0.73361 1.02347 0.0
C332 C 0.99039 0.73936 1.07866 0.0
C333 C 1.00681 0.73738 1.03808 0.0
C334 C 0.02313 0.73349 1.08591 0.0
C335 C 0.02322 0.73145 0.175 0.0
C336 C 1.00863 0.73704 0.21801 0.0
C337 C 0.99223 0.74077 0.16994 0.0
C338 C 0.92992 0.71613 0.72055 0.0
C339 C 0.88943 0.65427 0.83086 0.0
O340 O 0.9171 0.64483 0.55355 0.0
O341 O 0.90188 0.60857 0.61765 0.0
O342 O 0.95066 0.66195 0.82095 0.0
O343 O 0.91881 0.62261 0.79836 0.0
O344 O 0.97818 0.70319 0.81239 0.0
O345 O 0.95852 0.68435 0.66872 0.0
O346 O 0.97097 0.7437 0.95131 0.0
O347 O 0.95134 0.7071 1.01025 0.0
O348 O 0.91858 0.69223 0.74166 0.0
O349 O 0.95026 0.73236 0.77254 0.0
O350 O 0.88962 0.64832 0.74648 0.0
O351 O 0.90915 0.67053 0.89077 0.0
H352 H 0.90914 0.60638 0.37218 0.0
H353 H 0.93969 0.60434 0.31441 0.0
H354 H 0.96921 0.60396 0.57546 0.0
H355 H 0.9389 0.60661 0.63309 0.0
H356 H 1.00582 0.73639 0.96768 0.0
H357 H 0.03421 0.72945 1.05116 0.0
H358 H 1.00805 0.73534 0.28636 0.0
H359 H 0.97968 0.74216 0.20234 0.0
H360 H 0.06927 0.47271 1.01676 0.0
H361 H 0.13195 0.52571 0.61035 0.0
H362 H 0.14287 0.53097 1.05229 0.0
H363 H 0.05933 0.46197 0.57386 0.0
H364 H 0.13628 0.5288 0.77165 0.0
H365 H 0.06513 0.46969 0.85567 0.0
C366 C 0.08457 0.485 0.99101 0.0
C367 C 0.10647 0.50213 1.04921 0.0
C368 C 0.11938 0.51408 0.72845 0.0
C369 C 0.10185 0.49872 0.86292 0.0
C370 C 0.11692 0.51228 0.63596 0.0
C371 C 0.09523 0.49355 0.57747 0.0
C372 C 0.10002 0.49714 0.76384 0.0
C373 C 0.07642 0.47676 0.61561 0.0
C374 C 0.08221 0.4832 0.89859 0.0
C375 C 0.12561 0.51744 1.01077 0.0
N376 N 0.07922 0.47901 0.70551 0.0
N377 N 0.12287 0.51538 0.92092 0.0
H378 H 0.60895 0.47931 0.76085 0.0
H379 H 0.6039 0.54232 0.32113 0.0
H380 H 0.60271 0.55257 0.75836 0.0
H381 H 0.61039 0.46922 0.32302 0.0
H382 H 0.60313 0.54618 0.48002 0.0
H383 H 0.60964 0.47527 0.60177 0.0
C384 C 0.60781 0.49463 0.72725 0.0
C385 C 0.60575 0.51632 0.77419 0.0
C386 C 0.60469 0.52924 0.4458 0.0
C387 C 0.60642 0.51174 0.59 0.0
C388 C 0.60507 0.52699 0.35457 0.0
C389 C 0.60724 0.50542 0.3075 0.0
C390 C 0.60648 0.5098 0.49159 0.0
C391 C 0.60871 0.48626 0.35567 0.0
C392 C 0.60815 0.49228 0.63594 0.0
C393 C 0.60431 0.53545 0.72583 0.0
N394 N 0.60835 0.48892 0.44413 0.0
N395 N 0.60463 0.5327 0.63736 0.0
H396 H 0.59975 0.02872 0.60039 0.0
H397 H 0.62707 0.13385 0.25555 0.0
H398 H 0.62048 0.11724 0.67832 0.0
H399 H 0.60431 0.04459 0.1774 0.0
H400 H 0.62489 0.12835 0.40892 0.0
H401 H 0.60172 0.03433 0.4472 0.0
C402 C 0.60479 0.04944 0.58566 0.0
C403 C 0.60993 0.0725 0.65376 0.0
C404 C 0.62032 0.10989 0.3585 0.0
C405 C 0.61222 0.07916 0.47537 0.0
C406 C 0.62154 0.113 0.27027 0.0
C407 C 0.61591 0.08969 0.20211 0.0
C408 C 0.61343 0.08319 0.38052 0.0
C409 C 0.60885 0.06326 0.22677 0.0
C410 C 0.60588 0.05261 0.49748 0.0
C411 C 0.61635 0.09877 0.629 0.0
N412 N 0.60788 0.0608 0.31316 0.0
N413 N 0.61728 0.10133 0.54261 0.0
H414 H 0.72342 0.81625 0.546 0.0
H415 H 0.80686 0.8971 1.034 0.0
H416 H 0.79564 0.88247 0.58943 0.0
H417 H 0.73519 0.82904 0.99031 0.0
H418 H 0.80293 0.89259 0.87305 0.0
H419 H 0.72736 0.82068 0.70693 0.0
C420 C 0.7402 0.83167 0.5892 0.0
C421 C 0.75922 0.84897 0.55295 0.0
C422 C 0.788 0.87864 0.8983 0.0
C423 C 0.76385 0.85436 0.7399 0.0
C424 C 0.79021 0.88126 0.99073 0.0
C425 C 0.77134 0.86346 1.0269 0.0
C426 C 0.76671 0.858 0.83994 0.0
C427 C 0.75025 0.84332 0.96632 0.0
C428 C 0.74241 0.83423 0.68162 0.0
C429 C 0.78046 0.86856 0.61346 0.0
N430 N 0.74855 0.84115 0.87653 0.0
N431 N 0.78215 0.87074 0.70324 0.0
H432 H 0.26483 0.7984 0.81135 0.0
H433 H 0.26058 0.88609 0.2566 0.0
H434 H 0.26194 0.87431 0.8186 0.0
H435 H 0.26278 0.80969 0.24799 0.0
H436 H 0.26141 0.88242 0.0985 0.0
H437 H 0.26407 0.80222 0.9694 0.0
C438 C 0.26397 0.81591 0.8459 0.0
C439 C 0.26347 0.83606 0.80025 0.0
C440 C 0.26175 0.86643 0.13083 0.0
C441 C 0.26267 0.84066 0.9844 0.0
C442 C 0.26131 0.86852 0.22175 0.0
C443 C 0.26158 0.84816 0.267 0.0
C444 C 0.26246 0.84374 1.08293 0.0
C445 C 0.26255 0.82595 0.21691 0.0
C446 C 0.26356 0.81808 0.93682 0.0
C447 C 0.26234 0.85819 0.85001 0.0
N448 N 0.26292 0.82435 0.12833 0.0
N449 N 0.26202 0.85989 0.93867 0.0
H450 H 0.27269 0.32667 0.98868 0.0
H451 H 0.24555 0.22173 0.33398 0.0
H452 H 0.25215 0.23821 0.91101 0.0
H453 H 0.26858 0.31109 0.41187 0.0
H454 H 0.24765 0.22713 0.18048 0.0
H455 H 0.27079 0.32111 0.14191 0.0
C456 C 0.2677 0.30596 1.00347 0.0
C457 C 0.26259 0.28291 0.93545 0.0
C458 C 0.2523 0.24563 0.23088 0.0
C459 C 0.26039 0.27631 0.11388 0.0
C460 C 0.25113 0.24258 0.31918 0.0
C461 C 0.25686 0.26595 0.38728 0.0
C462 C 0.25923 0.27233 0.20877 0.0
C463 C 0.26397 0.29238 0.36253 0.0
C464 C 0.26665 0.30282 1.09168 0.0
C465 C 0.25624 0.25667 0.96028 0.0
N466 N 0.26488 0.29477 0.27609 0.0
N467 N 0.25535 0.25414 1.04671 0.0
H468 H 0.37386 0.03799 0.24529 0.0
H469 H 0.31931 0.10476 0.1548 0.0
H470 H 0.32951 0.04305 0.40954 0.0
H471 H 0.33725 0.06444 0.9516 0.0
H472 H 0.30318 0.06146 0.21341 0.0
H473 H 0.34321 0.02013 0.11605 0.0
C474 C 0.35741 0.03449 0.25521 0.0
C475 C 0.35513 0.04507 0.33765 0.0
C476 C 0.30979 0.06142 0.15379 0.0
C477 C 0.32075 0.02701 0.18852 0.0
C478 C 0.31904 0.08634 0.12039 0.0
C479 C 0.33106 0.08888 1.05228 0.0
C480 C 0.31405 0.04002 0.12211 0.0
C481 C 0.32922 0.06396 1.0075 0.0
C482 C 0.33971 0.02432 0.18041 0.0
C483 C 0.3328 0.03795 0.34559 0.0
N484 N 0.32179 0.04086 1.04534 0.0
N485 N 0.31671 0.03077 0.27125 0.0
H486 H 0.98891 0.34134 0.53504 0.0
H487 H 0.03694 0.2932 0.23626 0.0
H488 H 0.03849 0.31715 0.59039 0.0
H489 H 0.97885 0.30391 0.205 0.0
H490 H 0.05838 0.33703 0.35272 0.0
H491 H 1.01147 0.3705 0.43838 0.0
C492 C 1.00512 0.34312 0.53024 0.0
C493 C 1.0106 0.32439 0.56266 0.0
C494 C 0.04121 0.33027 0.31787 0.0
C495 C 0.03449 0.35471 0.44559 0.0
C496 C 0.02866 0.30473 0.2528 0.0
C497 C 1.0051 0.29298 0.21659 0.0
C498 C 0.02981 0.34347 0.34854 0.0
C499 C 0.99634 0.31061 0.23446 0.0
C500 C 1.01813 0.3599 0.47473 0.0
C501 C 0.03249 0.32916 0.55883 0.0
N502 N 1.00851 0.3346 0.30051 0.0
N503 N 0.04355 0.34339 0.49816 0.0
H504 H 0.96469 0.58611 0.28204 0.0
H505 H 0.04696 0.74356 0.34681 0.0
H506 H 1.00064 0.64516 0.53688 0.0
H507 H 0.02123 0.68346 1.09538 0.0
H508 H 0.04521 0.70653 0.42113 0.0
H509 H 0.99772 0.61636 0.22055 0.0
C510 C 0.97986 0.60487 0.32584 0.0
C511 C 0.9794 0.61386 0.41355 0.0
C512 C 0.04064 0.70166 0.34943 0.0
C513 C 1.01693 0.64898 0.34311 0.0
C514 C 0.04174 0.7229 0.30696 0.0
C515 C 0.03303 0.71604 0.21516 0.0
C516 C 0.02984 0.6733 0.3 0.0
C517 C 0.02726 0.6893 0.16666 0.0
C518 C 0.9988 0.62219 0.29072 0.0
C519 C 0.99985 0.63775 0.46805 0.0
N520 N 0.0248 0.66844 0.20979 0.0
N521 N 1.01747 0.65505 0.43122 0.0
H522 H 0.26553 0.36625 0.59499 0.0
H523 H 0.1532 0.37605 0.50318 0.0
H524 H 0.19865 0.30101 0.62926 0.0
H525 H 0.22069 0.44167 0.4754 0.0
H526 H 0.16939 0.34846 0.5503 0.0
H527 H 0.24935 0.3942 0.55295 0.0
C528 C 0.24742 0.35781 0.59415 0.0
C529 C 0.23343 0.33115 0.61577 0.0
C530 C 0.18068 0.3689 0.53402 0.0
C531 C 0.21468 0.36323 0.56683 0.0
C532 C 0.17147 0.38479 0.50748 0.0
C533 C 0.18561 0.41142 0.48571 0.0
C534 C 0.20425 0.37958 0.5389 0.0
C535 C 0.20906 0.42121 0.49073 0.0
C536 C 0.23818 0.37384 0.5699 0.0
C537 C 0.2101 0.32145 0.61336 0.0
N538 N 0.21762 0.40535 0.51692 0.0
N539 N 0.20144 0.33744 0.58905 0.0
H540 H 0.62054 0.61283 0.11051 0.0
H541 H 0.74801 0.75481 0.26537 0.0
H542 H 0.68241 0.61099 0.11392 0.0
H543 H 0.68688 0.75744 0.19092 0.0
H544 H 0.7242 0.70225 0.22299 0.0
H545 H 0.64433 0.66539 0.15134 0.0
C546 C 0.63915 0.62342 0.11976 0.0
C547 C 0.6494 0.60723 0.10853 0.0
C548 C 0.71596 0.71428 0.2159 0.0
C549 C 0.67694 0.66791 0.1565 0.0
C550 C 0.72955 0.7444 0.24055 0.0
C551 C 0.71951 0.76081 0.23196 0.0
C552 C 0.69198 0.70014 0.18313 0.0
C553 C 0.69545 0.74584 0.1988 0.0
C554 C 0.65274 0.65355 0.14298 0.0
C555 C 0.67366 0.62243 0.12144 0.0
N556 N 0.68255 0.71646 0.17604 0.0
N557 N 0.68656 0.6518 0.14518 0.0
H558 H 0.44942 0.95227 0.98969 0.0
H559 H 0.42297 0.91108 0.45537 0.0
H560 H 0.5019 0.96701 0.20889 0.0
H561 H 0.37034 0.89149 0.22887 0.0
H562 H 0.45231 0.93263 0.36787 0.0
H563 H 0.42039 0.9309 1.07796 0.0
C564 C 0.45484 0.95085 1.05621 0.0
C565 C 0.47817 0.96137 1.09167 0.0
C566 C 0.43434 0.92364 0.33738 0.0
C567 C 0.44496 0.93721 0.19385 0.0
C568 C 0.41755 0.9112 0.38717 0.0
C569 C 0.39411 0.89945 0.34954 0.0
C570 C 0.42767 0.92435 0.24919 0.0
C571 C 0.3882 0.90064 0.26119 0.0
C572 C 0.43825 0.93879 0.10684 0.0
C573 C 0.48418 0.95947 0.17906 0.0
N574 N 0.40484 0.91282 0.21412 0.0
N575 N 0.46769 0.94759 0.22706 0.0
H576 H 0.5948 0.15427 0.84607 0.0
H577 H 0.49399 0.16638 1.016 0.0
H578 H 0.56071 0.11 1.0421 0.0
H579 H 0.5054 0.17247 0.75114 0.0
H580 H 0.52481 0.15644 1.04597 0.0
H581 H 0.56868 0.17216 0.83074 0.0
C582 C 0.5822 0.14885 0.88728 0.0
C583 C 0.57995 0.13059 0.94542 0.0
C584 C 0.52068 0.16023 0.9816 0.0
C585 C 0.55007 0.15102 0.92842 0.0
C586 C 0.50317 0.16604 0.96461 0.0
C587 C 0.49697 0.17013 0.88076 0.0
C588 C 0.53248 0.15913 0.915 0.0
C589 C 0.50944 0.16926 0.81653 0.0
C590 C 0.56716 0.15884 0.87794 0.0
C591 C 0.56304 0.12394 0.99626 0.0
N592 N 0.52657 0.16394 0.83498 0.0
N593 N 0.54881 0.13414 0.9867 0.0
H594 H 1.00049 0.25856 0.93955 0.0
H595 H 1.01971 0.41263 0.12754 0.0
H596 H 0.94886 0.27967 0.88329 0.0
H597 H 0.07084 0.39182 0.20205 0.0
H598 H 0.99367 0.36373 1.0391 0.0
H599 H 0.02672 0.30688 1.03535 0.0
C600 C 0.99469 0.27335 0.94728 0.0
C601 C 0.97242 0.26504 0.90334 0.0
C602 C 1.01055 0.36974 1.07486 0.0
C603 C 1.00234 0.32037 1.01289 0.0
C604 C 0.02548 0.39777 0.12567 0.0
C605 C 0.04764 0.40658 0.17228 0.0
C606 C 1.01772 0.35013 1.06962 0.0
C607 C 0.05398 0.38612 0.16713 0.0
C608 C 1.00966 0.30093 1.002 0.0
C609 C 0.96583 0.2851 0.91586 0.0
N610 N 0.03918 0.35896 0.11644 0.0
N611 N 0.98065 0.3117 0.96928 0.0
H612 H 0.84633 0.62501 0.72218 0.0
H613 H 0.77778 0.59553 0.11569 0.0
H614 H 0.88081 0.65721 0.99921 0.0
H615 H 0.74484 0.56882 0.83753 0.0
H616 H 0.81562 0.61875 1.07596 0.0
H617 H 0.80915 0.60497 0.76468 0.0
C618 C 0.84613 0.62793 0.79213 0.0
C619 C 0.86683 0.64279 0.85721 0.0
C620 C 0.80011 0.60793 1.02368 0.0
C621 C 0.82398 0.61968 0.90657 0.0
C622 C 0.77847 0.59454 1.04626 0.0
C623 C 0.758 0.58009 0.97987 0.0
C624 C 0.80136 0.60678 0.93395 0.0
C625 C 0.76006 0.57993 0.89113 0.0
C626 C 0.8248 0.61647 0.81638 0.0
C627 C 0.86533 0.64592 0.94675 0.0
N628 N 0.78129 0.5929 0.87088 0.0
N629 N 0.84428 0.63436 0.9688 0.0
H630 H 0.98606 0.66277 0.9048 0.0
H631 H 0.96991 0.53085 0.11486 0.0
H632 H 0.91942 0.58918 0.90645 0.0
H633 H 0.03631 0.60242 0.10025 0.0
H634 H 0.95115 0.55267 1.04371 0.0
H635 H 1.00477 0.64148 0.98001 0.0
C636 C 0.97538 0.64233 0.92228 0.0
C637 C 0.95116 0.6276 0.89923 0.0
C638 C 0.96982 0.56357 1.0558 0.0
C639 C 0.97248 0.60351 0.98711 0.0
C640 C 0.98056 0.5512 1.09686 0.0
C641 C 1.00474 0.56479 0.11346 0.0
C642 C 0.98332 0.58978 1.03109 0.0
C643 C 1.01761 0.59095 1.08757 0.0
C644 C 0.98607 0.63022 0.96531 0.0
C645 C 0.93815 0.60115 0.92296 0.0
N646 N 1.00674 0.60259 1.04777 0.0
N647 N 0.94898 0.58994 0.96576 0.0
H648 H 0.53017 0.41767 0.96285 0.0
H649 H 0.5058 0.25917 0.91928 0.0
H650 H 0.5868 0.4044 0.99243 0.0
H651 H 0.46104 0.27743 0.76134 0.0
H652 H 0.53403 0.31139 0.97302 0.0
H653 H 0.50294 0.36557 0.91616 0.0
C654 C 0.53694 0.40383 0.96029 0.0
C655 C 0.56095 0.41565 0.98155 0.0
C656 C 0.51799 0.30388 0.92675 0.0
C657 C 0.52954 0.35549 0.92886 0.0
C658 C 0.50182 0.27411 0.89645 0.0
C659 C 0.48099 0.26385 0.83548 0.0
C660 C 0.51304 0.32358 0.89786 0.0
C661 C 0.47686 0.2843 0.80794 0.0
C662 C 0.52132 0.37402 0.93315 0.0
C663 C 0.56851 0.39637 0.97636 0.0
N664 N 0.49256 0.31302 0.83976 0.0
N665 N 0.55289 0.36729 0.9512 0.0
H666 H 0.85324 0.16029 0.66974 0.0
H667 H 0.77704 0.15439 1.02771 0.0
H668 H 0.87789 0.17584 0.95177 0.0
H669 H 0.75687 0.15177 0.7514 0.0
H670 H 0.81292 0.15914 0.99988 0.0
H671 H 0.81696 0.15437 0.69712 0.0
C672 C 0.85105 0.16246 0.73745 0.0
C673 C 0.86875 0.16864 0.8085 0.0
C674 C 0.80065 0.15753 0.9453 0.0
C675 C 0.82703 0.16172 0.84043 0.0
C676 C 0.78004 0.15461 0.96103 0.0
C677 C 0.7638 0.15273 0.89192 0.0
C678 C 0.80512 0.15835 0.85956 0.0
C679 C 0.76893 0.15352 0.80711 0.0
C680 C 0.8303 0.15909 0.75307 0.0
C681 C 0.86481 0.17116 0.89484 0.0
N682 N 0.78903 0.15621 0.79339 0.0
N683 N 0.84443 0.16765 0.90829 0.0
H684 H 0.60759 0.9886 0.98087 0.0
H685 H 0.72025 0.98072 0.10614 0.0
H686 H 0.67574 0.05717 0.96987 0.0
H687 H 0.65085 0.91393 0.11097 0.0
H688 H 0.70504 1.00913 1.05452 0.0
H689 H 0.62372 0.96085 1.02424 0.0
C690 C 0.62599 0.99783 0.98711 0.0
C691 C 0.64031 0.02537 0.97177 0.0
C692 C 0.69318 0.9882 1.0666 0.0
C693 C 0.6591 0.99347 1.02256 0.0
C694 C 0.70186 0.97202 1.09657 0.0
C695 C 0.68683 0.94472 0.11253 0.0
C696 C 0.6693 0.97708 1.05288 0.0
C697 C 0.66311 0.93454 0.0981 0.0
C698 C 0.63523 0.98191 1.01211 0.0
C699 C 0.66404 0.03602 0.98082 0.0
N700 N 0.65517 0.95067 1.06936 0.0
N701 N 0.67273 0.02011 1.00608 0.0
H702 H 0.18564 0.74342 0.46862 0.0
H703 H 0.18044 0.59419 0.42222 0.0
H704 H 0.24642 0.73884 0.47725 0.0
H705 H 0.12127 0.59934 0.33146 0.0
H706 H 0.2048 0.64709 0.45853 0.0
H707 H 0.16162 0.69062 0.43484 0.0
C708 C 0.19397 0.73138 0.46379 0.0
C709 C 0.21815 0.74576 0.47558 0.0
C710 C 0.18648 0.63659 0.43053 0.0
C711 C 0.19067 0.68508 0.43753 0.0
C712 C 0.17255 0.60636 0.4099 0.0
C713 C 0.14873 0.59212 0.37328 0.0
C714 C 0.1765 0.65281 0.41593 0.0
C715 C 0.13954 0.60921 0.359 0.0
C716 C 0.18023 0.70119 0.44418 0.0
C717 C 0.22788 0.72882 0.4683 0.0
N718 N 0.15334 0.63847 0.38068 0.0
N719 N 0.21418 0.69952 0.4502 0.0
H720 H 0.44631 0.44238 0.1246 0.0
H721 H 0.42279 0.40514 0.59658 0.0
H722 H 0.50023 0.46538 0.35071 0.0
H723 H 0.36921 0.38881 0.37929 0.0
H724 H 0.45126 0.42646 0.50613 0.0
H725 H 0.41765 0.42181 0.21537 0.0
C726 C 0.45215 0.44324 0.19341 0.0
C727 C 0.47575 0.45561 0.22994 0.0
C728 C 0.43328 0.41826 0.47819 0.0
C729 C 0.44298 0.43181 0.33403 0.0
C730 C 0.41701 0.40622 0.53006 0.0
C731 C 0.39353 0.39521 0.49572 0.0
C732 C 0.42609 0.41929 0.39103 0.0
C733 C 0.38706 0.3967 0.40828 0.0
C734 C 0.43576 0.43136 0.24509 0.0
C735 C 0.48223 0.4557 0.31921 0.0
N736 N 0.40324 0.40851 0.359 0.0
N737 N 0.46595 0.44399 0.36807 0.0
H738 H 0.95017 0.76999 0.68767 0.0
H739 H 0.83081 0.74736 0.4451 0.0
H740 H 0.8845 0.68935 0.6356 0.0
H741 H 0.89617 0.82887 0.51344 0.0
H742 H 0.85019 0.72505 0.50876 0.0
H743 H 0.9309 0.79098 0.61463 0.0
C744 C 0.93171 0.75664 0.66012 0.0
C745 C 0.91887 0.72797 0.66812 0.0
C746 C 0.86029 0.74781 0.50975 0.0
C747 C 0.89663 0.75188 0.58511 0.0
C748 C 0.8492 0.76062 0.47407 0.0
C749 C 0.86187 0.79006 0.4739 0.0
C750 C 0.88423 0.76455 0.54557 0.0
C751 C 0.88574 0.80605 0.51102 0.0
C752 C 0.92069 0.76865 0.61872 0.0
C753 C 0.89501 0.71159 0.63102 0.0
N754 N 0.89612 0.7931 0.5453 0.0
N755 N 0.88462 0.72383 0.59154 0.0
H756 H 0.36502 0.09412 0.66495 0.0
H757 H 0.33926 0.9345 0.6037 0.0
H758 H 0.41016 0.07363 0.80921 0.0
H759 H 0.28328 0.94899 0.58788 0.0
H760 H 0.36698 0.98648 0.64918 0.0
H761 H 0.33645 0.04215 0.60686 0.0
C762 C 0.36899 0.07875 0.68396 0.0
C763 C 0.38999 0.08827 0.74262 0.0
C764 C 0.34864 0.97832 0.63539 0.0
C765 C 0.35756 0.02892 0.6755 0.0
C766 C 0.33273 0.94858 0.60903 0.0
C767 C 0.30878 0.93714 0.59223 0.0
C768 C 0.34074 0.99715 0.64349 0.0
C769 C 0.30154 0.95673 0.60064 0.0
C770 C 0.35264 0.04913 0.65117 0.0
C771 C 0.39419 0.06733 0.76474 0.0
N772 N 0.31742 0.98574 0.62521 0.0
N773 N 0.37826 0.03881 0.73095 0.0
H774 H 0.99295 0.18534 0.58457 0.0
H775 H 0.11027 0.19788 0.80716 0.0
H776 H 1.01247 0.18802 0.86148 0.0
H777 H 0.09611 0.20494 0.53676 0.0
H778 H 0.07372 0.19257 0.82514 0.0
H779 H 0.02962 0.1908 0.56266 0.0
C780 C 1.00486 0.18696 0.64068 0.0
C781 C 0.99949 0.18615 0.72503 0.0
C782 C 0.07854 0.1953 0.76175 0.0
C783 C 0.04159 0.19245 0.70037 0.0
C784 C 0.09944 0.19818 0.75121 0.0
C785 C 0.10639 0.20172 0.67005 0.0
C786 C 0.06416 0.1958 0.69062 0.0
C787 C 0.09165 0.20248 0.60076 0.0
C788 C 0.02584 0.19018 0.62815 0.0
C789 C 1.01573 0.18852 0.79522 0.0
N790 N 0.07124 0.19942 0.61246 0.0
N791 N 0.03589 0.19149 0.78127 0.0
H792 H 0.37768 0.18733 0.58286 0.0
H793 H 0.28014 0.20534 0.75919 0.0
H794 H 0.37203 0.19136 0.85654 0.0
H795 H 0.3101 0.24246 0.54577 0.0
H796 H 0.30719 0.1889 0.77935 0.0
H797 H 0.34667 0.1969 0.55281 0.0
C798 C 0.36983 0.19002 0.63647 0.0
C799 C 0.37767 0.18881 0.72256 0.0
C800 C 0.30758 0.2003 0.72733 0.0
C801 C 0.3418 0.19917 0.68812 0.0
C802 C 0.29198 0.2094 0.71518 0.0
C803 C 0.29279 0.22523 0.65051 0.0
C804 C 0.32376 0.20652 0.67317 0.0
C805 C 0.30885 0.23033 0.59643 0.0
C806 C 0.35217 0.19553 0.6193 0.0
C807 C 0.36676 0.19244 0.78938 0.0
N808 N 0.3236 0.22099 0.60878 0.0
N809 N 0.34937 0.19732 0.77075 0.0
H810 H 0.79423 0.96404 0.36383 0.0
H811 H 0.91807 0.07542 0.69552 0.0
H812 H 0.84282 0.94229 0.46805 0.0
H813 H 0.87216 0.10148 0.59547 0.0
H814 H 0.89057 0.02679 0.60745 0.0
H815 H 0.82216 0.01449 0.44255 0.0
C816 C 0.81075 0.96982 0.40262 0.0
C817 C 0.81607 0.94871 0.40913 0.0
C818 C 0.88643 0.04306 0.60423 0.0
C819 C 0.84809 1.0064 0.49966 0.0
C820 C 0.9022 0.07094 0.6547 0.0
C821 C 0.89745 0.09264 0.65333 0.0
C822 C 0.86551 0.03648 0.55155 0.0
C823 C 0.87656 0.08544 0.59866 0.0
C824 C 0.82668 0.99863 0.44771 0.0
C825 C 0.83777 0.95758 0.46084 0.0
N826 N 0.86133 0.05798 0.5503 0.0
N827 N 0.85281 0.98551 0.50382 0.0
H828 H 0.98663 0.70061 0.5589 0.0
H829 H 0.12372 0.77607 0.72668 0.0
H830 H 0.02122 0.72344 0.8338 0.0
H831 H 0.09202 0.77127 0.46282 0.0
H832 H 0.08553 0.75162 0.76216 0.0
H833 H 0.02438 0.7216 0.5179 0.0
C834 C 1.00211 0.70994 0.61056 0.0
C835 C 1.00074 0.7105 0.70003 0.0
C836 C 0.08691 0.75588 0.69643 0.0
C837 C 0.04393 0.73428 0.65355 0.0
C838 C 0.10873 0.76964 0.67582 0.0
C839 C 0.11119 0.7758 0.59153 0.0
C840 C 0.06727 0.74806 0.63237 0.0
C841 C 0.09106 0.76735 0.52904 0.0
C842 C 0.02366 0.72194 0.58712 0.0
C843 C 0.02139 0.72273 0.76407 0.0
N844 N 0.07 0.75401 0.5508 0.0
N845 N 0.04206 0.7341 0.7396 0.0
loop_
_geom_bond_atom_site_label_1
_geom_bond_atom_site_label_2
_geom_bond_distance
_geom_bond_site_symmetry_2
_ccdc_geom_bond_type
Pr0 C2 2.880 . S
Pr0 O20 2.562 . S
Pr0 O21 2.490 . S
Pr0 O22 2.695 1_554 S
Pr0 O23 2.512 1_554 S
Pr0 O25 2.437 . S
Pr0 O28 2.436 . S
Pr0 O30 2.438 . S
Pr1 C11 2.880 . S
Pr1 O22 2.436 1_554 S
Pr1 O24 2.438 . S
Pr1 O26 2.562 1_554 S
Pr1 O27 2.490 1_455 S
Pr1 O28 2.695 . S
Pr1 O29 2.512 . S
Pr1 O31 2.437 . S
C2 Pr0 2.880 . S
C2 C3 1.491 . S
C2 O20 1.254 . S
C2 O21 1.225 . S
C3 C2 1.491 . S
C3 C4 1.392 . S
C3 C8 1.356 . S
C4 C3 1.392 . S
C4 C5 1.368 . S
C4 H32 0.929 . S
C5 C4 1.368 . S
C5 C6 1.386 . S
C5 H33 0.929 . S
C6 C5 1.386 . S
C6 C7 1.373 . S
C7 C6 1.373 . S
C7 C8 1.409 . S
C7 H34 0.931 . S
C8 C3 1.356 . S
C8 C7 1.409 . S
C8 H35 0.930 . S
C9 O22 1.270 . S
C9 O23 1.248 . S
C10 O24 1.267 . S
C10 O25 1.278 . S
C11 Pr1 2.880 . S
C11 C12 1.491 1_455 S
C11 O26 1.254 1_554 S
C11 O27 1.225 1_455 S
C12 C11 1.491 1_655 S
C12 C13 1.392 . S
C12 C17 1.356 1_654 S
C13 C12 1.392 . S
C13 C14 1.368 . S
C13 H36 0.929 . S
C14 C13 1.368 . S
C14 C15 1.378 1_554 S
C14 H37 0.929 . S
C15 C14 1.378 1_556 S
C15 C16 1.380 . S
C16 C15 1.380 . S
C16 C17 1.409 1_655 S
C16 H38 0.927 1_655 S
C17 C12 1.356 1_456 S
C17 C16 1.409 1_455 S
C17 H39 0.930 . S
C18 O28 1.270 . S
C18 O29 1.248 . S
C19 O30 1.267 . S
C19 O31 1.278 . S
O20 Pr0 2.562 . S
O20 C2 1.254 . S
O21 Pr0 2.490 . S
O21 C2 1.225 . S
O22 Pr0 2.695 1_556 S
O22 Pr1 2.436 1_556 S
O22 C9 1.270 . S
O23 Pr0 2.512 1_556 S
O23 C9 1.248 . S
O24 Pr1 2.438 . S
O24 C10 1.267 . S
O25 Pr0 2.437 . S
O25 C10 1.278 . S
O26 Pr1 2.562 1_556 S
O26 C11 1.254 1_556 S
O27 Pr1 2.490 1_655 S
O27 C11 1.225 1_655 S
O28 Pr0 2.436 . S
O28 Pr1 2.695 . S
O28 C18 1.270 . S
O29 Pr1 2.512 . S
O29 C18 1.248 . S
O30 Pr0 2.438 . S
O30 C19 1.267 . S
O31 Pr1 2.437 . S
O31 C19 1.278 . S
H32 C4 0.929 . S
H33 C5 0.929 . S
H34 C7 0.931 . S
H35 C8 0.930 . S
H36 C13 0.929 . S
H37 C14 0.929 . S
H38 C16 0.927 1_455 S
H39 C17 0.930 . S
Pr40 C42 2.880 . S
Pr40 O60 2.562 . S
Pr40 O61 2.490 . S
Pr40 O62 2.695 . S
Pr40 O63 2.512 . S
Pr40 O65 2.437 . S
Pr40 O68 2.436 . S
Pr40 O70 2.438 . S
Pr41 C51 2.880 . S
Pr41 O62 2.436 . S
Pr41 O64 2.438 . S
Pr41 O66 2.562 . S
Pr41 O67 2.490 . S
Pr41 O68 2.695 . S
Pr41 O69 2.512 1_554 S
Pr41 O71 2.437 . S
C42 Pr40 2.880 . S
C42 C43 1.491 . S
C42 O60 1.254 . S
C42 O61 1.225 . S
C43 C42 1.491 . S
C43 C44 1.392 . S
C43 C48 1.356 . S
C44 C43 1.392 . S
C44 C45 1.368 . S
C44 H72 0.929 . S
C45 C44 1.368 . S
C45 C46 1.386 . S
C45 H73 0.929 . S
C46 C45 1.386 . S
C46 C47 1.373 . S
C47 C46 1.373 . S
C47 C48 1.409 . S
C47 H74 0.931 . S
C48 C43 1.356 . S
C48 C47 1.409 . S
C48 H75 0.930 . S
C49 O62 1.270 . S
C49 O63 1.248 . S
C50 O64 1.267 . S
C50 O65 1.278 . S
C51 Pr41 2.880 . S
C51 C52 1.491 . S
C51 O66 1.254 . S
C51 O67 1.225 . S
C52 C51 1.491 . S
C52 C53 1.392 . S
C52 C57 1.356 . S
C53 C52 1.392 . S
C53 C54 1.368 . S
C53 H76 0.929 . S
C54 C53 1.368 . S
C54 C55 1.386 . S
C54 H77 0.929 . S
C55 C54 1.386 . S
C55 C56 1.373 . S
C56 C55 1.373 . S
C56 C57 1.409 . S
C56 H78 0.931 . S
C57 C52 1.356 . S
C57 C56 1.409 . S
C57 H79 0.930 . S
C58 O68 1.270 1_556 S
C58 O69 1.248 . S
C59 O70 1.267 . S
C59 O71 1.278 . S
O60 Pr40 2.562 . S
O60 C42 1.254 . S
O61 Pr40 2.490 . S
O61 C42 1.225 . S
O62 Pr40 2.695 . S
O62 Pr41 2.436 . S
O62 C49 1.270 . S
O63 Pr40 2.512 . S
O63 C49 1.248 . S
O64 Pr41 2.438 . S
O64 C50 1.267 . S
O65 Pr40 2.437 . S
O65 C50 1.278 . S
O66 Pr41 2.562 . S
O66 C51 1.254 . S
O67 Pr41 2.490 . S
O67 C51 1.225 . S
O68 Pr40 2.436 . S
O68 Pr41 2.695 . S
O68 C58 1.270 1_554 S
O69 Pr41 2.512 1_556 S
O69 C58 1.248 . S
O70 Pr40 2.438 . S
O70 C59 1.267 . S
O71 Pr41 2.437 . S
O71 C59 1.278 . S
H72 C44 0.929 . S
H73 C45 0.929 . S
H74 C47 0.931 . S
H75 C48 0.930 . S
H76 C53 0.929 . S
H77 C54 0.929 . S
H78 C56 0.931 . S
H79 C57 0.930 . S
Pr80 C82 2.880 . S
Pr80 O100 2.562 . S
Pr80 O101 2.490 . S
Pr80 O102 2.695 . S
Pr80 O103 2.512 . S
Pr80 O105 2.437 . S
Pr80 O108 2.436 . S
Pr80 O110 2.438 . S
Pr81 C91 2.880 . S
Pr81 O102 2.436 . S
Pr81 O104 2.438 . S
Pr81 O106 2.562 . S
Pr81 O107 2.490 . S
Pr81 O108 2.695 . S
Pr81 O109 2.512 . S
Pr81 O111 2.437 . S
C82 Pr80 2.880 . S
C82 C83 1.491 . S
C82 O100 1.254 . S
C82 O101 1.225 . S
C83 C82 1.491 . S
C83 C84 1.392 . S
C83 C88 1.356 . S
C84 C83 1.392 . S
C84 C85 1.368 . S
C84 H112 0.929 . S
C85 C84 1.368 . S
C85 C86 1.386 . S
C85 H113 0.929 . S
C86 C85 1.386 . S
C86 C87 1.373 . S
C87 C86 1.373 . S
C87 C88 1.409 . S
C87 H114 0.931 . S
C88 C83 1.356 . S
C88 C87 1.409 . S
C88 H115 0.930 . S
C89 O102 1.270 . S
C89 O103 1.248 . S
C90 O104 1.267 . S
C90 O105 1.278 . S
C91 Pr81 2.880 . S
C91 C92 1.491 . S
C91 O106 1.254 . S
C91 O107 1.225 . S
C92 C91 1.491 . S
C92 C93 1.392 . S
C92 C97 1.356 . S
C93 C92 1.392 . S
C93 C94 1.368 . S
C93 H116 0.929 . S
C94 C93 1.368 . S
C94 C95 1.386 . S
C94 H117 0.929 . S
C95 C94 1.386 . S
C95 C96 1.373 . S
C96 C95 1.373 . S
C96 C97 1.409 . S
C96 H118 0.931 . S
C97 C92 1.356 . S
C97 C96 1.409 . S
C97 H119 0.930 . S
C98 O108 1.270 . S
C98 O109 1.248 . S
C99 O110 1.267 . S
C99 O111 1.278 . S
O100 Pr80 2.562 . S
O100 C82 1.254 . S
O101 Pr80 2.490 . S
O101 C82 1.225 . S
O102 Pr80 2.695 . S
O102 Pr81 2.436 . S
O102 C89 1.270 . S
O103 Pr80 2.512 . S
O103 C89 1.248 . S
O104 Pr81 2.438 . S
O104 C90 1.267 . S
O105 Pr80 2.437 . S
O105 C90 1.278 . S
O106 Pr81 2.562 . S
O106 C91 1.254 . S
O107 Pr81 2.490 . S
O107 C91 1.225 . S
O108 Pr80 2.436 . S
O108 Pr81 2.695 . S
O108 C98 1.270 . S
O109 Pr81 2.512 . S
O109 C98 1.248 . S
O110 Pr80 2.438 . S
O110 C99 1.267 . S
O111 Pr81 2.437 . S
O111 C99 1.278 . S
H112 C84 0.929 . S
H113 C85 0.929 . S
H114 C87 0.931 . S
H115 C88 0.930 . S
H116 C93 0.929 . S
H117 C94 0.929 . S
H118 C96 0.931 . S
H119 C97 0.930 . S
Pr120 C122 2.880 . S
Pr120 O140 2.562 . S
Pr120 O141 2.490 . S
Pr120 O142 2.695 . S
Pr120 O143 2.512 . S
Pr120 O145 2.437 . S
Pr120 O148 2.436 . S
Pr120 O150 2.438 . S
Pr121 C131 2.880 . S
Pr121 O142 2.436 . S
Pr121 O144 2.438 . S
Pr121 O146 2.562 . S
Pr121 O147 2.490 . S
Pr121 O148 2.695 . S
Pr121 O149 2.512 . S
Pr121 O151 2.437 . S
C122 Pr120 2.880 . S
C122 C123 1.491 . S
C122 O140 1.254 . S
C122 O141 1.225 . S
C123 C122 1.491 . S
C123 C124 1.392 . S
C123 C128 1.356 . S
C124 C123 1.392 . S
C124 C125 1.368 . S
C124 H152 0.929 . S
C125 C124 1.368 . S
C125 C126 1.386 . S
C125 H153 0.929 . S
C126 C125 1.386 . S
C126 C127 1.373 . S
C127 C126 1.373 . S
C127 C128 1.409 . S
C127 H154 0.931 . S
C128 C123 1.356 . S
C128 C127 1.409 . S
C128 H155 0.930 . S
C129 O142 1.270 . S
C129 O143 1.248 . S
C130 O144 1.267 . S
C130 O145 1.278 . S
C131 Pr121 2.880 . S
C131 C132 1.491 . S
C131 O146 1.254 . S
C131 O147 1.225 . S
C132 C131 1.491 . S
C132 C133 1.392 . S
C132 C137 1.356 . S
C133 C132 1.392 . S
C133 C134 1.368 . S
C133 H156 0.929 . S
C134 C133 1.368 . S
C134 C135 1.386 . S
C134 H157 0.929 . S
C135 C134 1.386 . S
C135 C136 1.373 . S
C136 C135 1.373 . S
C136 C137 1.409 . S
C136 H158 0.931 . S
C137 C132 1.356 . S
C137 C136 1.409 . S
C137 H159 0.930 . S
C138 O148 1.270 . S
C138 O149 1.248 . S
C139 O150 1.267 . S
C139 O151 1.278 . S
O140 Pr120 2.562 . S
O140 C122 1.254 . S
O141 Pr120 2.490 . S
O141 C122 1.225 . S
O142 Pr120 2.695 . S
O142 Pr121 2.436 . S
O142 C129 1.270 . S
O143 Pr120 2.512 . S
O143 C129 1.248 . S
O144 Pr121 2.438 . S
O144 C130 1.267 . S
O145 Pr120 2.437 . S
O145 C130 1.278 . S
O146 Pr121 2.562 . S
O146 C131 1.254 . S
O147 Pr121 2.490 . S
O147 C131 1.225 . S
O148 Pr120 2.436 . S
O148 Pr121 2.695 . S
O148 C138 1.270 . S
O149 Pr121 2.512 . S
O149 C138 1.248 . S
O150 Pr120 2.438 . S
O150 C139 1.267 . S
O151 Pr121 2.437 . S
O151 C139 1.278 . S
H152 C124 0.929 . S
H153 C125 0.929 . S
H154 C127 0.931 . S
H155 C128 0.930 . S
H156 C133 0.929 . S
H157 C134 0.929 . S
H158 C136 0.931 . S
H159 C137 0.930 . S
Pr160 C162 2.880 . S
Pr160 O180 2.562 . S
Pr160 O181 2.490 . S
Pr160 O182 2.695 . S
Pr160 O183 2.512 . S
Pr160 O185 2.437 . S
Pr160 O188 2.436 . S
Pr160 O190 2.438 . S
Pr161 C171 2.880 . S
Pr161 O182 2.436 . S
Pr161 O184 2.438 . S
Pr161 O186 2.562 . S
Pr161 O187 2.490 . S
Pr161 O188 2.695 . S
Pr161 O189 2.512 . S
Pr161 O191 2.437 . S
C162 Pr160 2.880 . S
C162 C163 1.491 . S
C162 O180 1.254 . S
C162 O181 1.225 . S
C163 C162 1.491 . S
C163 C164 1.392 . S
C163 C168 1.356 . S
C164 C163 1.392 . S
C164 C165 1.368 . S
C164 H192 0.929 . S
C165 C164 1.368 . S
C165 C166 1.386 . S
C165 H193 0.929 . S
C166 C165 1.386 . S
C166 C167 1.373 . S
C167 C166 1.373 . S
C167 C168 1.409 . S
C167 H194 0.931 . S
C168 C163 1.356 . S
C168 C167 1.409 . S
C168 H195 0.930 . S
C169 O182 1.270 . S
C169 O183 1.248 . S
C170 O184 1.267 . S
C170 O185 1.278 . S
C171 Pr161 2.880 . S
C171 C172 1.491 . S
C171 O186 1.254 . S
C171 O187 1.225 . S
C172 C171 1.491 . S
C172 C173 1.392 . S
C172 C177 1.356 . S
C173 C172 1.392 . S
C173 C174 1.368 . S
C173 H196 0.929 . S
C174 C173 1.368 . S
C174 C175 1.386 . S
C174 H197 0.929 . S
C175 C174 1.386 . S
C175 C176 1.373 . S
C176 C175 1.373 . S
C176 C177 1.409 . S
C176 H198 0.931 . S
C177 C172 1.356 . S
C177 C176 1.409 . S
C177 H199 0.930 . S
C178 O188 1.270 . S
C178 O189 1.248 . S
C179 O190 1.267 . S
C179 O191 1.278 . S
O180 Pr160 2.562 . S
O180 C162 1.254 . S
O181 Pr160 2.490 . S
O181 C162 1.225 . S
O182 Pr160 2.695 . S
O182 Pr161 2.436 . S
O182 C169 1.270 . S
O183 Pr160 2.512 . S
O183 C169 1.248 . S
O184 Pr161 2.438 . S
O184 C170 1.267 . S
O185 Pr160 2.437 . S
O185 C170 1.278 . S
O186 Pr161 2.562 . S
O186 C171 1.254 . S
O187 Pr161 2.490 . S
O187 C171 1.225 . S
O188 Pr160 2.436 . S
O188 Pr161 2.695 . S
O188 C178 1.270 . S
O189 Pr161 2.512 . S
O189 C178 1.248 . S
O190 Pr160 2.438 . S
O190 C179 1.267 . S
O191 Pr161 2.437 . S
O191 C179 1.278 . S
H192 C164 0.929 . S
H193 C165 0.929 . S
H194 C167 0.931 . S
H195 C168 0.930 . S
H196 C173 0.929 . S
H197 C174 0.929 . S
H198 C176 0.931 . S
H199 C177 0.930 . S
Pr200 C202 2.880 . S
Pr200 O220 2.562 . S
Pr200 O221 2.490 . S
Pr200 O222 2.695 . S
Pr200 O223 2.512 . S
Pr200 O225 2.437 . S
Pr200 O228 2.436 . S
Pr200 O230 2.438 . S
Pr201 C211 2.880 . S
Pr201 O222 2.436 . S
Pr201 O224 2.438 . S
Pr201 O226 2.562 . S
Pr201 O227 2.490 . S
Pr201 O228 2.695 . S
Pr201 O229 2.512 . S
Pr201 O231 2.437 . S
C202 Pr200 2.880 . S
C202 C203 1.491 . S
C202 O220 1.254 . S
C202 O221 1.225 . S
C203 C202 1.491 . S
C203 C204 1.392 . S
C203 C208 1.356 . S
C204 C203 1.392 . S
C204 C205 1.368 . S
C204 H232 0.929 . S
C205 C204 1.368 . S
C205 C206 1.386 . S
C205 H233 0.929 . S
C206 C205 1.386 . S
C206 C207 1.373 . S
C207 C206 1.373 . S
C207 C208 1.409 . S
C207 H234 0.931 . S
C208 C203 1.356 . S
C208 C207 1.409 . S
C208 H235 0.930 . S
C209 O222 1.270 . S
C209 O223 1.248 . S
C210 O224 1.267 . S
C210 O225 1.278 . S
C211 Pr201 2.880 . S
C211 C212 1.491 . S
C211 O226 1.254 . S
C211 O227 1.225 . S
C212 C211 1.491 . S
C212 C213 1.392 . S
C212 C217 1.356 . S
C213 C212 1.392 . S
C213 C214 1.368 . S
C213 H236 0.929 . S
C214 C213 1.368 . S
C214 C215 1.386 . S
C214 H237 0.929 . S
C215 C214 1.386 . S
C215 C216 1.373 . S
C216 C215 1.373 . S
C216 C217 1.409 . S
C216 H238 0.931 . S
C217 C212 1.356 . S
C217 C216 1.409 . S
C217 H239 0.930 . S
C218 O228 1.270 . S
C218 O229 1.248 . S
C219 O230 1.267 . S
C219 O231 1.278 . S
O220 Pr200 2.562 . S
O220 C202 1.254 . S
O221 Pr200 2.490 . S
O221 C202 1.225 . S
O222 Pr200 2.695 . S
O222 Pr201 2.436 . S
O222 C209 1.270 . S
O223 Pr200 2.512 . S
O223 C209 1.248 . S
O224 Pr201 2.438 . S
O224 C210 1.267 . S
O225 Pr200 2.437 . S
O225 C210 1.278 . S
O226 Pr201 2.562 . S
O226 C211 1.254 . S
O227 Pr201 2.490 . S
O227 C211 1.225 . S
O228 Pr200 2.436 . S
O228 Pr201 2.695 . S
O228 C218 1.270 . S
O229 Pr201 2.512 . S
O229 C218 1.248 . S
O230 Pr200 2.438 . S
O230 C219 1.267 . S
O231 Pr201 2.437 . S
O231 C219 1.278 . S
H232 C204 0.929 . S
H233 C205 0.929 . S
H234 C207 0.931 . S
H235 C208 0.930 . S
H236 C213 0.929 . S
H237 C214 0.929 . S
H238 C216 0.931 . S
H239 C217 0.930 . S
Pr240 C242 2.880 . S
Pr240 O260 2.562 . S
Pr240 O261 2.490 . S
Pr240 O262 2.695 . S
Pr240 O263 2.512 . S
Pr240 O265 2.437 . S
Pr240 O268 2.436 . S
Pr240 O270 2.438 . S
Pr241 C251 2.880 . S
Pr241 O262 2.436 . S
Pr241 O264 2.438 . S
Pr241 O266 2.562 . S
Pr241 O267 2.490 . S
Pr241 O268 2.695 . S
Pr241 O269 2.512 . S
Pr241 O271 2.437 . S
C242 Pr240 2.880 . S
C242 C243 1.491 . S
C242 O260 1.254 . S
C242 O261 1.225 . S
C243 C242 1.491 . S
C243 C244 1.392 . S
C243 C248 1.356 . S
C244 C243 1.392 . S
C244 C245 1.368 . S
C244 H272 0.929 . S
C245 C244 1.368 . S
C245 C246 1.386 . S
C245 H273 0.929 . S
C246 C245 1.386 . S
C246 C247 1.373 . S
C247 C246 1.373 . S
C247 C248 1.409 . S
C247 H274 0.931 . S
C248 C243 1.356 . S
C248 C247 1.409 . S
C248 H275 0.930 . S
C249 O262 1.270 . S
C249 O263 1.248 . S
C250 O264 1.267 . S
C250 O265 1.278 . S
C251 Pr241 2.880 . S
C251 C252 1.491 1_556 S
C251 O266 1.254 . S
C251 O267 1.225 . S
C252 C251 1.491 1_554 S
C252 C253 1.392 . S
C252 C257 1.356 . S
C253 C252 1.392 . S
C253 C254 1.368 . S
C253 H276 0.929 . S
C254 C253 1.368 . S
C254 C255 1.386 . S
C254 H277 0.929 . S
C255 C254 1.386 . S
C255 C256 1.373 . S
C256 C255 1.373 . S
C256 C257 1.409 . S
C256 H278 0.931 . S
C257 C252 1.356 . S
C257 C256 1.409 . S
C257 H279 0.930 . S
C258 O268 1.270 . S
C258 O269 1.248 . S
C259 O270 1.267 . S
C259 O271 1.278 . S
O260 Pr240 2.562 . S
O260 C242 1.254 . S
O261 Pr240 2.490 . S
O261 C242 1.225 . S
O262 Pr240 2.695 . S
O262 Pr241 2.436 . S
O262 C249 1.270 . S
O263 Pr240 2.512 . S
O263 C249 1.248 . S
O264 Pr241 2.438 . S
O264 C250 1.267 . S
O265 Pr240 2.437 . S
O265 C250 1.278 . S
O266 Pr241 2.562 . S
O266 C251 1.254 . S
O267 Pr241 2.490 . S
O267 C251 1.225 . S
O268 Pr240 2.436 . S
O268 Pr241 2.695 . S
O268 C258 1.270 . S
O269 Pr241 2.512 . S
O269 C258 1.248 . S
O270 Pr240 2.438 . S
O270 C259 1.267 . S
O271 Pr241 2.437 . S
O271 C259 1.278 . S
H272 C244 0.929 . S
H273 C245 0.929 . S
H274 C247 0.931 . S
H275 C248 0.930 . S
H276 C253 0.929 . S
H277 C254 0.929 . S
H278 C256 0.931 . S
H279 C257 0.930 . S
Pr280 C282 2.880 . S
Pr280 O300 2.562 . S
Pr280 O301 2.490 . S
Pr280 O302 2.695 . S
Pr280 O303 2.512 . S
Pr280 O305 2.437 . S
Pr280 O308 2.436 . S
Pr280 O310 2.438 . S
Pr281 C291 2.880 . S
Pr281 O302 2.436 . S
Pr281 O304 2.438 . S
Pr281 O306 2.562 . S
Pr281 O307 2.490 . S
Pr281 O308 2.695 . S
Pr281 O309 2.512 . S
Pr281 O311 2.437 . S
C282 Pr280 2.880 . S
C282 C283 1.491 1_556 S
C282 O300 1.254 . S
C282 O301 1.225 . S
C283 C282 1.491 1_554 S
C283 C284 1.392 . S
C283 C288 1.356 . S
C284 C283 1.392 . S
C284 C285 1.368 . S
C284 H312 0.929 . S
C285 C284 1.368 . S
C285 C286 1.386 . S
C285 H313 0.929 . S
C286 C285 1.386 . S
C286 C287 1.373 . S
C287 C286 1.373 . S
C287 C288 1.409 . S
C287 H314 0.931 . S
C288 C283 1.356 . S
C288 C287 1.409 . S
C288 H315 0.930 . S
C289 O302 1.270 . S
C289 O303 1.248 . S
C290 O304 1.267 . S
C290 O305 1.278 . S
C291 Pr281 2.880 . S
C291 C292 1.491 . S
C291 O306 1.254 . S
C291 O307 1.225 . S
C292 C291 1.491 . S
C292 C293 1.392 . S
C292 C297 1.356 . S
C293 C292 1.392 . S
C293 C294 1.368 . S
C293 H316 0.929 . S
C294 C293 1.368 . S
C294 C295 1.386 . S
C294 H317 0.929 . S
C295 C294 1.386 . S
C295 C296 1.373 . S
C296 C295 1.373 . S
C296 C297 1.409 . S
C296 H318 0.931 . S
C297 C292 1.356 . S
C297 C296 1.409 . S
C297 H319 0.930 . S
C298 O308 1.270 . S
C298 O309 1.248 . S
C299 O310 1.267 . S
C299 O311 1.278 . S
O300 Pr280 2.562 . S
O300 C282 1.254 . S
O301 Pr280 2.490 . S
O301 C282 1.225 . S
O302 Pr280 2.695 . S
O302 Pr281 2.436 . S
O302 C289 1.270 . S
O303 Pr280 2.512 . S
O303 C289 1.248 . S
O304 Pr281 2.438 . S
O304 C290 1.267 . S
O305 Pr280 2.437 . S
O305 C290 1.278 . S
O306 Pr281 2.562 . S
O306 C291 1.254 . S
O307 Pr281 2.490 . S
O307 C291 1.225 . S
O308 Pr280 2.436 . S
O308 Pr281 2.695 . S
O308 C298 1.270 . S
O309 Pr281 2.512 . S
O309 C298 1.248 . S
O310 Pr280 2.438 . S
O310 C299 1.267 . S
O311 Pr281 2.437 . S
O311 C299 1.278 . S
H312 C284 0.929 . S
H313 C285 0.929 . S
H314 C287 0.931 . S
H315 C288 0.930 . S
H316 C293 0.929 . S
H317 C294 0.929 . S
H318 C296 0.931 . S
H319 C297 0.930 . S
Pr320 C322 2.880 . S
Pr320 O340 2.562 . S
Pr320 O341 2.490 . S
Pr320 O342 2.695 . S
Pr320 O343 2.512 . S
Pr320 O345 2.437 . S
Pr320 O348 2.436 . S
Pr320 O350 2.438 . S
Pr321 C331 2.880 . S
Pr321 O342 2.436 . S
Pr321 O344 2.438 . S
Pr321 O346 2.562 . S
Pr321 O347 2.490 . S
Pr321 O348 2.695 . S
Pr321 O349 2.512 . S
Pr321 O351 2.437 . S
C322 Pr320 2.880 . S
C322 C323 1.491 . S
C322 O340 1.254 . S
C322 O341 1.225 . S
C323 C322 1.491 . S
C323 C324 1.392 . S
C323 C328 1.356 . S
C324 C323 1.392 . S
C324 C325 1.368 . S
C324 H352 0.929 . S
C325 C324 1.368 . S
C325 C326 1.386 . S
C325 H353 0.929 . S
C326 C325 1.386 . S
C326 C327 1.373 . S
C327 C326 1.373 . S
C327 C328 1.409 . S
C327 H354 0.931 . S
C328 C323 1.356 . S
C328 C327 1.409 . S
C328 H355 0.930 . S
C329 O342 1.270 . S
C329 O343 1.248 . S
C330 O344 1.267 . S
C330 O345 1.278 . S
C331 Pr321 2.880 . S
C331 C332 1.491 1_556 S
C331 O346 1.254 . S
C331 O347 1.225 . S
C332 C331 1.491 1_554 S
C332 C333 1.392 . S
C332 C337 1.356 . S
C333 C332 1.392 . S
C333 C334 1.368 . S
C333 H356 0.929 . S
C334 C333 1.368 . S
C334 C335 1.386 . S
C334 H357 0.929 . S
C335 C334 1.386 . S
C335 C336 1.373 . S
C336 C335 1.373 . S
C336 C337 1.409 . S
C336 H358 0.931 . S
C337 C332 1.356 . S
C337 C336 1.409 . S
C337 H359 0.930 . S
C338 O348 1.270 . S
C338 O349 1.248 . S
C339 O350 1.267 . S
C339 O351 1.278 . S
O340 Pr320 2.562 . S
O340 C322 1.254 . S
O341 Pr320 2.490 . S
O341 C322 1.225 . S
O342 Pr320 2.695 . S
O342 Pr321 2.436 . S
O342 C329 1.270 . S
O343 Pr320 2.512 . S
O343 C329 1.248 . S
O344 Pr321 2.438 . S
O344 C330 1.267 . S
O345 Pr320 2.437 . S
O345 C330 1.278 . S
O346 Pr321 2.562 . S
O346 C331 1.254 . S
O347 Pr321 2.490 . S
O347 C331 1.225 . S
O348 Pr320 2.436 . S
O348 Pr321 2.695 . S
O348 C338 1.270 . S
O349 Pr321 2.512 . S
O349 C338 1.248 . S
O350 Pr320 2.438 . S
O350 C339 1.267 . S
O351 Pr321 2.437 . S
O351 C339 1.278 . S
H352 C324 0.929 . S
H353 C325 0.929 . S
H354 C327 0.931 . S
H355 C328 0.930 . S
H356 C333 0.929 . S
H357 C334 0.929 . S
H358 C336 0.931 . S
H359 C337 0.930 . S
H360 C366 0.930 . S
H361 C370 0.930 . S
H362 C375 0.929 . S
H363 C373 0.929 . S
H364 C368 0.929 . S
H365 C374 0.929 . S
C366 H360 0.930 . S
C366 C367 1.367 . S
C366 C374 1.378 . S
C367 C366 1.367 . S
C367 C375 1.433 . S
C368 H364 0.929 . S
C368 C370 1.378 . S
C368 C372 1.350 . S
C369 C372 1.463 . S
C369 C374 1.350 . S
C369 N377 1.427 . S
C370 H361 0.930 . S
C370 C368 1.378 . S
C370 C371 1.367 . S
C371 C370 1.367 . S
C371 C373 1.433 . S
C372 C368 1.350 . S
C372 C369 1.463 . S
C372 N376 1.427 . S
C373 H363 0.929 . S
C373 C371 1.433 . S
C373 N376 1.384 . S
C374 H365 0.929 . S
C374 C366 1.378 . S
C374 C369 1.350 . S
C375 H362 0.929 . S
C375 C367 1.433 . S
C375 N377 1.384 . S
N376 C372 1.427 . S
N376 C373 1.384 . S
N377 C369 1.427 . S
N377 C375 1.384 . S
H378 C384 0.930 . S
H379 C388 0.930 . S
H380 C393 0.929 . S
H381 C391 0.929 . S
H382 C386 0.929 . S
H383 C392 0.929 . S
C384 H378 0.930 . S
C384 C385 1.367 . S
C384 C392 1.378 . S
C385 C384 1.367 . S
C385 C393 1.433 . S
C386 H382 0.929 . S
C386 C388 1.378 . S
C386 C390 1.350 . S
C387 C390 1.463 . S
C387 C392 1.350 . S
C387 N395 1.427 . S
C388 H379 0.930 . S
C388 C386 1.378 . S
C388 C389 1.367 . S
C389 C388 1.367 . S
C389 C391 1.433 . S
C390 C386 1.350 . S
C390 C387 1.463 . S
C390 N394 1.427 . S
C391 H381 0.929 . S
C391 C389 1.433 . S
C391 N394 1.384 . S
C392 H383 0.929 . S
C392 C384 1.378 . S
C392 C387 1.350 . S
C393 H380 0.929 . S
C393 C385 1.433 . S
C393 N395 1.384 . S
N394 C390 1.427 . S
N394 C391 1.384 . S
N395 C387 1.427 . S
N395 C393 1.384 . S
H396 C402 0.930 . S
H397 C406 0.930 . S
H398 C411 0.929 . S
H399 C409 0.929 . S
H400 C404 0.929 . S
H401 C410 0.929 . S
C402 H396 0.930 . S
C402 C403 1.367 . S
C402 C410 1.378 . S
C403 C402 1.367 . S
C403 C411 1.433 . S
C404 H400 0.929 . S
C404 C406 1.378 . S
C404 C408 1.350 . S
C405 C408 1.463 . S
C405 C410 1.350 . S
C405 N413 1.427 . S
C406 H397 0.930 . S
C406 C404 1.378 . S
C406 C407 1.367 . S
C407 C406 1.367 . S
C407 C409 1.433 . S
C408 C404 1.350 . S
C408 C405 1.463 . S
C408 N412 1.427 . S
C409 H399 0.929 . S
C409 C407 1.433 . S
C409 N412 1.384 . S
C410 H401 0.929 . S
C410 C402 1.378 . S
C410 C405 1.350 . S
C411 H398 0.929 . S
C411 C403 1.433 . S
C411 N413 1.384 . S
N412 C408 1.427 . S
N412 C409 1.384 . S
N413 C405 1.427 . S
N413 C411 1.384 . S
H414 C420 0.930 . S
H415 C424 0.930 . S
H416 C429 0.929 . S
H417 C427 0.929 1_554 S
H418 C422 0.929 . S
H419 C428 0.929 . S
C420 H414 0.930 . S
C420 C421 1.367 . S
C420 C428 1.378 . S
C421 C420 1.367 . S
C421 C429 1.433 . S
C422 H418 0.929 . S
C422 C424 1.378 . S
C422 C426 1.350 . S
C423 C426 1.463 . S
C423 C428 1.350 . S
C423 N431 1.427 . S
C424 H415 0.930 . S
C424 C422 1.378 . S
C424 C425 1.367 1_556 S
C425 C424 1.367 1_554 S
C425 C427 1.433 1_554 S
C426 C422 1.350 . S
C426 C423 1.463 . S
C426 N430 1.427 . S
C427 H417 0.929 1_556 S
C427 C425 1.433 1_556 S
C427 N430 1.384 . S
C428 H419 0.929 . S
C428 C420 1.378 . S
C428 C423 1.350 . S
C429 H416 0.929 . S
C429 C421 1.433 . S
C429 N431 1.384 . S
N430 C426 1.427 . S
N430 C427 1.384 . S
N431 C423 1.427 . S
N431 C429 1.384 . S
H432 C438 0.930 . S
H433 C442 0.930 . S
H434 C447 0.929 . S
H435 C445 0.929 . S
H436 C440 0.929 . S
H437 C446 0.929 . S
C438 H432 0.930 . S
C438 C439 1.367 . S
C438 C446 1.378 . S
C439 C438 1.367 . S
C439 C447 1.433 . S
C440 H436 0.929 . S
C440 C442 1.378 . S
C440 C444 1.350 . S
C441 C444 1.463 . S
C441 C446 1.350 . S
C441 N449 1.427 . S
C442 H433 0.930 . S
C442 C440 1.378 . S
C442 C443 1.367 . S
C443 C442 1.367 . S
C443 C445 1.433 . S
C444 C440 1.350 . S
C444 C441 1.463 . S
C444 N448 1.427 . S
C445 H435 0.929 . S
C445 C443 1.433 . S
C445 N448 1.384 . S
C446 H437 0.929 . S
C446 C438 1.378 . S
C446 C441 1.350 . S
C447 H434 0.929 . S
C447 C439 1.433 . S
C447 N449 1.384 . S
N448 C444 1.427 . S
N448 C445 1.384 . S
N449 C441 1.427 . S
N449 C447 1.384 . S
H450 C456 0.930 . S
H451 C460 0.930 . S
H452 C465 0.929 . S
H453 C463 0.929 . S
H454 C458 0.929 . S
H455 C464 0.929 . S
C456 H450 0.930 . S
C456 C457 1.367 . S
C456 C464 1.378 . S
C457 C456 1.367 . S
C457 C465 1.433 . S
C458 H454 0.929 . S
C458 C460 1.378 . S
C458 C462 1.350 . S
C459 C462 1.463 . S
C459 C464 1.350 . S
C459 N467 1.427 . S
C460 H451 0.930 . S
C460 C458 1.378 . S
C460 C461 1.367 . S
C461 C460 1.367 . S
C461 C463 1.433 . S
C462 C458 1.350 . S
C462 C459 1.463 . S
C462 N466 1.427 . S
C463 H453 0.929 . S
C463 C461 1.433 . S
C463 N466 1.384 . S
C464 H455 0.929 . S
C464 C456 1.378 . S
C464 C459 1.350 . S
C465 H452 0.929 . S
C465 C457 1.433 . S
C465 N467 1.384 . S
N466 C462 1.427 . S
N466 C463 1.384 . S
N467 C459 1.427 . S
N467 C465 1.384 . S
H468 C474 0.930 . S
H469 C478 0.930 . S
H470 C483 0.929 . S
H471 C481 0.929 . S
H472 C476 0.929 . S
H473 C482 0.929 . S
C474 H468 0.930 . S
C474 C475 1.367 . S
C474 C482 1.378 . S
C475 C474 1.367 . S
C475 C483 1.433 . S
C476 H472 0.929 . S
C476 C478 1.378 . S
C476 C480 1.350 . S
C477 C480 1.463 . S
C477 C482 1.350 . S
C477 N485 1.427 . S
C478 H469 0.930 . S
C478 C476 1.378 . S
C478 C479 1.367 . S
C479 C478 1.367 . S
C479 C481 1.433 . S
C480 C476 1.350 . S
C480 C477 1.463 . S
C480 N484 1.427 . S
C481 H471 0.929 . S
C481 C479 1.433 . S
C481 N484 1.384 . S
C482 H473 0.929 . S
C482 C474 1.378 . S
C482 C477 1.350 . S
C483 H470 0.929 . S
C483 C475 1.433 . S
C483 N485 1.384 . S
N484 C480 1.427 . S
N484 C481 1.384 . S
N485 C477 1.427 . S
N485 C483 1.384 . S
H486 C492 0.930 . S
H487 C496 0.930 . S
H488 C501 0.929 . S
H489 C499 0.929 . S
H490 C494 0.929 . S
H491 C500 0.929 . S
C492 H486 0.930 . S
C492 C493 1.367 . S
C492 C500 1.378 . S
C493 C492 1.367 . S
C493 C501 1.433 . S
C494 H490 0.929 . S
C494 C496 1.378 . S
C494 C498 1.350 . S
C495 C498 1.463 . S
C495 C500 1.350 . S
C495 N503 1.427 . S
C496 H487 0.930 . S
C496 C494 1.378 . S
C496 C497 1.367 . S
C497 C496 1.367 . S
C497 C499 1.433 . S
C498 C494 1.350 . S
C498 C495 1.463 . S
C498 N502 1.427 . S
C499 H489 0.929 . S
C499 C497 1.433 . S
C499 N502 1.384 . S
C500 H491 0.929 . S
C500 C492 1.378 . S
C500 C495 1.350 . S
C501 H488 0.929 . S
C501 C493 1.433 . S
C501 N503 1.384 . S
N502 C498 1.427 . S
N502 C499 1.384 . S
N503 C495 1.427 . S
N503 C501 1.384 . S
H504 C510 0.930 . S
H505 C514 0.930 . S
H506 C519 0.929 . S
H507 C517 0.929 . S
H508 C512 0.929 . S
H509 C518 0.929 . S
C510 H504 0.930 . S
C510 C511 1.367 . S
C510 C518 1.378 . S
C511 C510 1.367 . S
C511 C519 1.433 . S
C512 H508 0.929 . S
C512 C514 1.378 . S
C512 C516 1.350 . S
C513 C516 1.463 . S
C513 C518 1.350 . S
C513 N521 1.427 . S
C514 H505 0.930 . S
C514 C512 1.378 . S
C514 C515 1.367 . S
C515 C514 1.367 . S
C515 C517 1.433 . S
C516 C512 1.350 . S
C516 C513 1.463 . S
C516 N520 1.427 . S
C517 H507 0.929 . S
C517 C515 1.433 . S
C517 N520 1.384 . S
C518 H509 0.929 . S
C518 C510 1.378 . S
C518 C513 1.350 . S
C519 H506 0.929 . S
C519 C511 1.433 . S
C519 N521 1.384 . S
N520 C516 1.427 . S
N520 C517 1.384 . S
N521 C513 1.427 . S
N521 C519 1.384 . S
H522 C528 0.930 . S
H523 C532 0.930 . S
H524 C537 0.929 . S
H525 C535 0.929 . S
H526 C530 0.929 . S
H527 C536 0.929 . S
C528 H522 0.930 . S
C528 C529 1.367 . S
C528 C536 1.378 . S
C529 C528 1.367 . S
C529 C537 1.433 . S
C530 H526 0.929 . S
C530 C532 1.378 . S
C530 C534 1.350 . S
C531 C534 1.463 . S
C531 C536 1.350 . S
C531 N539 1.427 . S
C532 H523 0.930 . S
C532 C530 1.378 . S
C532 C533 1.367 . S
C533 C532 1.367 . S
C533 C535 1.433 . S
C534 C530 1.350 . S
C534 C531 1.463 . S
C534 N538 1.427 . S
C535 H525 0.929 . S
C535 C533 1.433 . S
C535 N538 1.384 . S
C536 H527 0.929 . S
C536 C528 1.378 . S
C536 C531 1.350 . S
C537 H524 0.929 . S
C537 C529 1.433 . S
C537 N539 1.384 . S
N538 C534 1.427 . S
N538 C535 1.384 . S
N539 C531 1.427 . S
N539 C537 1.384 . S
H540 C546 0.930 . S
H541 C550 0.930 . S
H542 C555 0.929 . S
H543 C553 0.929 . S
H544 C548 0.929 . S
H545 C554 0.929 . S
C546 H540 0.930 . S
C546 C547 1.367 . S
C546 C554 1.378 . S
C547 C546 1.367 . S
C547 C555 1.433 . S
C548 H544 0.929 . S
C548 C550 1.378 . S
C548 C552 1.350 . S
C549 C552 1.463 . S
C549 C554 1.350 . S
C549 N557 1.427 . S
C550 H541 0.930 . S
C550 C548 1.378 . S
C550 C551 1.367 . S
C551 C550 1.367 . S
C551 C553 1.433 . S
C552 C548 1.350 . S
C552 C549 1.463 . S
C552 N556 1.427 . S
C553 H543 0.929 . S
C553 C551 1.433 . S
C553 N556 1.384 . S
C554 H545 0.929 . S
C554 C546 1.378 . S
C554 C549 1.350 . S
C555 H542 0.929 . S
C555 C547 1.433 . S
C555 N557 1.384 . S
N556 C552 1.427 . S
N556 C553 1.384 . S
N557 C549 1.427 . S
N557 C555 1.384 . S
H558 C564 0.930 . S
H559 C568 0.930 . S
H560 C573 0.929 . S
H561 C571 0.929 . S
H562 C566 0.929 . S
H563 C572 0.929 . S
C564 H558 0.930 . S
C564 C565 1.367 1_565 S
C564 C572 1.378 . S
C565 C564 1.367 1_545 S
C565 C573 1.433 . S
C566 H562 0.929 . S
C566 C568 1.378 . S
C566 C570 1.350 . S
C567 C570 1.463 . S
C567 C572 1.350 . S
C567 N575 1.427 1_565 S
C568 H559 0.930 . S
C568 C566 1.378 . S
C568 C569 1.367 . S
C569 C568 1.367 . S
C569 C571 1.433 . S
C570 C566 1.350 . S
C570 C567 1.463 . S
C570 N574 1.427 . S
C571 H561 0.929 . S
C571 C569 1.433 . S
C571 N574 1.384 . S
C572 H563 0.929 . S
C572 C564 1.378 . S
C572 C567 1.350 . S
C573 H560 0.929 . S
C573 C565 1.433 . S
C573 N575 1.384 . S
N574 C570 1.427 . S
N574 C571 1.384 . S
N575 C567 1.427 1_545 S
N575 C573 1.384 . S
H576 C582 0.930 . S
H577 C586 0.930 . S
H578 C591 0.929 . S
H579 C589 0.929 . S
H580 C584 0.929 . S
H581 C590 0.929 . S
C582 H576 0.930 . S
C582 C583 1.367 . S
C582 C590 1.378 . S
C583 C582 1.367 . S
C583 C591 1.433 . S
C584 H580 0.929 . S
C584 C586 1.378 . S
C584 C588 1.350 . S
C585 C588 1.463 1_554 S
C585 C590 1.350 . S
C585 N593 1.427 . S
C586 H577 0.930 . S
C586 C584 1.378 . S
C586 C587 1.367 . S
C587 C586 1.367 . S
C587 C589 1.433 . S
C588 C584 1.350 . S
C588 C585 1.463 1_556 S
C588 N592 1.427 . S
C589 H579 0.929 . S
C589 C587 1.433 . S
C589 N592 1.384 . S
C590 H581 0.929 . S
C590 C582 1.378 . S
C590 C585 1.350 . S
C591 H578 0.929 . S
C591 C583 1.433 . S
C591 N593 1.384 . S
N592 C588 1.427 . S
N592 C589 1.384 . S
N593 C585 1.427 . S
N593 C591 1.384 . S
H594 C600 0.930 . S
H595 C604 0.930 . S
H596 C609 0.929 . S
H597 C607 0.929 . S
H598 C602 0.929 . S
H599 C608 0.975 . S
C600 H594 0.930 . S
C600 C601 1.367 . S
C600 C608 1.378 . S
C601 C600 1.367 . S
C601 C609 1.433 . S
C602 H598 0.929 . S
C602 C604 1.378 . S
C602 C606 1.350 . S
C603 C606 1.463 . S
C603 C608 1.350 . S
C603 N611 1.427 . S
C604 H595 0.930 . S
C604 C602 1.378 . S
C604 C605 1.367 1_656 S
C605 C604 1.367 1_454 S
C605 C607 1.433 1_554 S
C606 C602 1.350 . S
C606 C603 1.463 . S
C606 N610 1.427 1_655 S
C607 H597 0.929 . S
C607 C605 1.433 1_556 S
C607 N610 1.384 . S
C608 H599 0.975 . S
C608 C600 1.378 . S
C608 C603 1.350 . S
C609 H596 0.929 . S
C609 C601 1.433 . S
C609 N611 1.384 . S
N610 C606 1.427 1_455 S
N610 C607 1.384 . S
N611 C603 1.427 . S
N611 C609 1.384 . S
H612 C618 0.930 . S
H613 C622 0.930 . S
H614 C627 0.929 . S
H615 C625 0.929 . S
H616 C620 0.929 . S
H617 C626 0.929 . S
C618 H612 0.930 . S
C618 C619 1.367 . S
C618 C626 1.378 . S
C619 C618 1.367 . S
C619 C627 1.433 . S
C620 H616 0.929 . S
C620 C622 1.378 . S
C620 C624 1.350 1_554 S
C621 C624 1.463 . S
C621 C626 1.350 . S
C621 N629 1.427 . S
C622 H613 0.930 . S
C622 C620 1.378 . S
C622 C623 1.367 . S
C623 C622 1.367 . S
C623 C625 1.433 . S
C624 C620 1.350 1_556 S
C624 C621 1.463 . S
C624 N628 1.427 . S
C625 H615 0.929 . S
C625 C623 1.433 . S
C625 N628 1.384 1_554 S
C626 H617 0.929 . S
C626 C618 1.378 . S
C626 C621 1.350 . S
C627 H614 0.929 . S
C627 C619 1.433 . S
C627 N629 1.384 . S
N628 C624 1.427 . S
N628 C625 1.384 1_556 S
N629 C621 1.427 . S
N629 C627 1.384 . S
H630 C636 0.930 . S
H631 C640 0.930 . S
H632 C645 0.929 . S
H633 C643 0.929 1_454 S
H634 C638 0.929 . S
H635 C644 0.929 . S
C636 H630 0.930 . S
C636 C637 1.367 . S
C636 C644 1.378 . S
C637 C636 1.367 . S
C637 C645 1.433 . S
C638 H634 0.929 . S
C638 C640 1.378 . S
C638 C642 1.350 . S
C639 C642 1.463 . S
C639 C644 1.350 . S
C639 N647 1.427 . S
C640 H631 0.930 . S
C640 C638 1.378 . S
C640 C641 1.367 . S
C641 C640 1.367 . S
C641 C643 1.433 . S
C642 C638 1.350 . S
C642 C639 1.463 . S
C642 N646 1.427 . S
C643 H633 0.929 1_656 S
C643 C641 1.433 . S
C643 N646 1.384 . S
C644 H635 0.929 . S
C644 C636 1.378 . S
C644 C639 1.350 . S
C645 H632 0.929 . S
C645 C637 1.433 . S
C645 N647 1.384 . S
N646 C642 1.427 . S
N646 C643 1.384 . S
N647 C639 1.427 . S
N647 C645 1.384 . S
H648 C654 0.930 . S
H649 C658 0.930 . S
H650 C663 0.929 . S
H651 C661 0.929 . S
H652 C656 0.929 . S
H653 C662 0.929 . S
C654 H648 0.930 . S
C654 C655 1.367 1_556 S
C654 C662 1.378 . S
C655 C654 1.367 1_554 S
C655 C663 1.433 . S
C656 H652 0.929 . S
C656 C658 1.378 . S
C656 C660 1.350 . S
C657 C660 1.463 . S
C657 C662 1.350 . S
C657 N665 1.427 1_556 S
C658 H649 0.930 . S
C658 C656 1.378 . S
C658 C659 1.367 . S
C659 C658 1.367 . S
C659 C661 1.433 . S
C660 C656 1.350 . S
C660 C657 1.463 . S
C660 N664 1.427 . S
C661 H651 0.929 . S
C661 C659 1.433 . S
C661 N664 1.384 . S
C662 H653 0.929 . S
C662 C654 1.378 . S
C662 C657 1.350 . S
C663 H650 0.929 . S
C663 C655 1.433 . S
C663 N665 1.384 . S
N664 C660 1.427 . S
N664 C661 1.384 . S
N665 C657 1.427 1_554 S
N665 C663 1.384 . S
H666 C672 0.930 . S
H667 C676 0.930 . S
H668 C681 0.929 . S
H669 C679 0.929 . S
H670 C674 0.929 . S
H671 C680 0.929 . S
C672 H666 0.930 . S
C672 C673 1.367 . S
C672 C680 1.378 . S
C673 C672 1.367 . S
C673 C681 1.433 . S
C674 H670 0.929 . S
C674 C676 1.378 . S
C674 C678 1.350 . S
C675 C678 1.463 1_556 S
C675 C680 1.350 . S
C675 N683 1.427 . S
C676 H667 0.930 . S
C676 C674 1.378 . S
C676 C677 1.367 . S
C677 C676 1.367 . S
C677 C679 1.433 . S
C678 C674 1.350 . S
C678 C675 1.463 1_554 S
C678 N682 1.427 . S
C679 H669 0.929 . S
C679 C677 1.433 . S
C679 N682 1.384 . S
C680 H671 0.929 . S
C680 C672 1.378 . S
C680 C675 1.350 . S
C681 H668 0.929 . S
C681 C673 1.433 . S
C681 N683 1.384 . S
N682 C678 1.427 . S
N682 C679 1.384 . S
N683 C675 1.427 . S
N683 C681 1.384 . S
H684 C690 0.930 . S
H685 C694 0.930 . S
H686 C699 0.929 . S
H687 C697 0.929 . S
H688 C692 0.929 . S
H689 C698 0.929 . S
C690 H684 0.930 . S
C690 C691 1.367 . S
C690 C698 1.378 . S
C691 C690 1.367 . S
C691 C699 1.433 . S
C692 H688 0.929 . S
C692 C694 1.378 . S
C692 C696 1.350 . S
C693 C696 1.463 . S
C693 C698 1.350 . S
C693 N701 1.427 . S
C694 H685 0.930 . S
C694 C692 1.378 . S
C694 C695 1.367 1_545 S
C695 C694 1.367 1_565 S
C695 C697 1.433 . S
C696 C692 1.350 . S
C696 C693 1.463 . S
C696 N700 1.427 . S
C697 H687 0.929 . S
C697 C695 1.433 . S
C697 N700 1.384 1_565 S
C698 H689 0.929 . S
C698 C690 1.378 . S
C698 C693 1.350 . S
C699 H686 0.929 . S
C699 C691 1.433 . S
C699 N701 1.384 . S
N700 C696 1.427 . S
N700 C697 1.384 1_545 S
N701 C693 1.427 . S
N701 C699 1.384 . S
H702 C708 0.930 . S
H703 C712 0.930 . S
H704 C717 0.929 . S
H705 C715 0.929 . S
H706 C710 0.929 . S
H707 C716 0.929 . S
C708 H702 0.930 . S
C708 C709 1.367 . S
C708 C716 1.378 . S
C709 C708 1.367 . S
C709 C717 1.433 . S
C710 H706 0.929 . S
C710 C712 1.378 . S
C710 C714 1.350 . S
C711 C714 1.463 . S
C711 C716 1.350 . S
C711 N719 1.427 . S
C712 H703 0.930 . S
C712 C710 1.378 . S
C712 C713 1.367 . S
C713 C712 1.367 . S
C713 C715 1.433 . S
C714 C710 1.350 . S
C714 C711 1.463 . S
C714 N718 1.427 . S
C715 H705 0.929 . S
C715 C713 1.433 . S
C715 N718 1.384 . S
C716 H707 0.929 . S
C716 C708 1.378 . S
C716 C711 1.350 . S
C717 H704 0.929 . S
C717 C709 1.433 . S
C717 N719 1.384 . S
N718 C714 1.427 . S
N718 C715 1.384 . S
N719 C711 1.427 . S
N719 C717 1.384 . S
H720 C726 0.930 . S
H721 C730 0.930 . S
H722 C735 0.929 . S
H723 C733 0.929 . S
H724 C728 0.929 . S
H725 C734 0.929 . S
C726 H720 0.930 . S
C726 C727 1.367 . S
C726 C734 1.378 . S
C727 C726 1.367 . S
C727 C735 1.433 . S
C728 H724 0.929 . S
C728 C730 1.378 . S
C728 C732 1.350 . S
C729 C732 1.463 . S
C729 C734 1.350 . S
C729 N737 1.427 . S
C730 H721 0.930 . S
C730 C728 1.378 . S
C730 C731 1.367 . S
C731 C730 1.367 . S
C731 C733 1.433 . S
C732 C728 1.350 . S
C732 C729 1.463 . S
C732 N736 1.427 . S
C733 H723 0.929 . S
C733 C731 1.433 . S
C733 N736 1.384 . S
C734 H725 0.929 . S
C734 C726 1.378 . S
C734 C729 1.350 . S
C735 H722 0.929 . S
C735 C727 1.433 . S
C735 N737 1.384 . S
N736 C732 1.427 . S
N736 C733 1.384 . S
N737 C729 1.427 . S
N737 C735 1.384 . S
H738 C744 0.930 . S
H739 C748 0.930 . S
H740 C753 0.929 . S
H741 C751 0.929 . S
H742 C746 0.929 . S
H743 C752 0.929 . S
C744 H738 0.930 . S
C744 C745 1.367 . S
C744 C752 1.378 . S
C745 C744 1.367 . S
C745 C753 1.433 . S
C746 H742 0.929 . S
C746 C748 1.378 . S
C746 C750 1.350 . S
C747 C750 1.463 . S
C747 C752 1.350 . S
C747 N755 1.427 . S
C748 H739 0.930 . S
C748 C746 1.378 . S
C748 C749 1.367 . S
C749 C748 1.367 . S
C749 C751 1.433 . S
C750 C746 1.350 . S
C750 C747 1.463 . S
C750 N754 1.427 . S
C751 H741 0.929 . S
C751 C749 1.433 . S
C751 N754 1.384 . S
C752 H743 0.929 . S
C752 C744 1.378 . S
C752 C747 1.350 . S
C753 H740 0.929 . S
C753 C745 1.433 . S
C753 N755 1.384 . S
N754 C750 1.427 . S
N754 C751 1.384 . S
N755 C747 1.427 . S
N755 C753 1.384 . S
H756 C762 0.930 . S
H757 C766 0.930 . S
H758 C771 0.929 . S
H759 C769 0.929 . S
H760 C764 0.929 . S
H761 C770 0.929 . S
C762 H756 0.930 . S
C762 C763 1.367 . S
C762 C770 1.378 . S
C763 C762 1.367 . S
C763 C771 1.433 . S
C764 H760 0.929 . S
C764 C766 1.378 . S
C764 C768 1.350 . S
C765 C768 1.463 1_545 S
C765 C770 1.350 . S
C765 N773 1.427 . S
C766 H757 0.930 . S
C766 C764 1.378 . S
C766 C767 1.367 . S
C767 C766 1.367 . S
C767 C769 1.433 . S
C768 C764 1.350 . S
C768 C765 1.463 1_565 S
C768 N772 1.415 1_565 S
C769 H759 0.929 . S
C769 C767 1.433 . S
C769 N772 1.375 1_565 S
C770 H761 0.929 . S
C770 C762 1.378 . S
C770 C765 1.350 . S
C771 H758 0.929 . S
C771 C763 1.433 . S
C771 N773 1.384 . S
N772 C768 1.415 1_545 S
N772 C769 1.375 1_545 S
N773 C765 1.427 . S
N773 C771 1.384 . S
H774 C780 0.930 . S
H775 C784 0.930 . S
H776 C789 0.929 . S
H777 C787 0.929 . S
H778 C782 0.929 1_655 S
H779 C788 0.929 . S
C780 H774 0.930 . S
C780 C781 1.367 . S
C780 C788 1.378 1_655 S
C781 C780 1.367 . S
C781 C789 1.433 . S
C782 H778 0.929 1_455 S
C782 C784 1.378 . S
C782 C786 1.350 . S
C783 C786 1.463 1_655 S
C783 C788 1.350 1_655 S
C783 N791 1.427 . S
C784 H775 0.930 . S
C784 C782 1.378 . S
C784 C785 1.367 . S
C785 C784 1.367 . S
C785 C787 1.433 . S
C786 C782 1.350 . S
C786 C783 1.463 1_455 S
C786 N790 1.427 . S
C787 H777 0.929 . S
C787 C785 1.433 . S
C787 N790 1.384 . S
C788 H779 0.929 . S
C788 C780 1.378 1_455 S
C788 C783 1.350 1_455 S
C789 H776 0.929 . S
C789 C781 1.433 . S
C789 N791 1.384 . S
N790 C786 1.427 . S
N790 C787 1.384 . S
N791 C783 1.427 . S
N791 C789 1.384 . S
H792 C798 0.930 . S
H793 C802 0.930 . S
H794 C807 0.929 . S
H795 C805 0.929 . S
H796 C800 0.929 . S
H797 C806 0.929 . S
C798 H792 0.930 . S
C798 C799 1.367 . S
C798 C806 1.378 . S
C799 C798 1.367 . S
C799 C807 1.433 . S
C800 H796 0.929 . S
C800 C802 1.378 . S
C800 C804 1.350 . S
C801 C804 1.463 . S
C801 C806 1.350 . S
C801 N809 1.427 . S
C802 H793 0.930 . S
C802 C800 1.378 . S
C802 C803 1.367 . S
C803 C802 1.367 . S
C803 C805 1.433 . S
C804 C800 1.350 . S
C804 C801 1.463 . S
C804 N808 1.427 . S
C805 H795 0.929 . S
C805 C803 1.433 . S
C805 N808 1.384 . S
C806 H797 0.929 . S
C806 C798 1.378 . S
C806 C801 1.350 . S
C807 H794 0.929 . S
C807 C799 1.433 . S
C807 N809 1.384 . S
N808 C804 1.427 . S
N808 C805 1.384 . S
N809 C801 1.427 . S
N809 C807 1.384 . S
H810 C816 0.930 . S
H811 C820 0.930 . S
H812 C825 0.929 . S
H813 C823 0.929 . S
H814 C818 0.929 . S
H815 C824 0.957 . S
C816 H810 0.930 . S
C816 C817 1.367 . S
C816 C824 1.357 1_565 S
C817 C816 1.367 . S
C817 C825 1.433 . S
C818 H814 0.929 . S
C818 C820 1.378 . S
C818 C822 1.350 . S
C819 C822 1.463 . S
C819 C824 1.342 . S
C819 N827 1.427 1_545 S
C820 H811 0.930 . S
C820 C818 1.378 . S
C820 C821 1.367 . S
C821 C820 1.367 . S
C821 C823 1.433 . S
C822 C818 1.350 . S
C822 C819 1.463 . S
C822 N826 1.427 . S
C823 H813 0.929 . S
C823 C821 1.433 . S
C823 N826 1.384 . S
C824 H815 0.957 . S
C824 C816 1.357 1_545 S
C824 C819 1.342 . S
C825 H812 0.929 . S
C825 C817 1.433 . S
C825 N827 1.384 . S
N826 C822 1.427 . S
N826 C823 1.384 . S
N827 C819 1.427 1_565 S
N827 C825 1.384 . S
H828 C834 0.930 . S
H829 C838 0.930 . S
H830 C843 0.929 1_455 S
H831 C841 0.931 . S
H832 C836 0.929 . S
H833 C842 0.929 . S
C834 H828 0.930 . S
C834 C835 1.367 . S
C834 C842 1.378 . S
C835 C834 1.367 . S
C835 C843 1.433 . S
C836 H832 0.929 . S
C836 C838 1.378 . S
C836 C840 1.350 . S
C837 C840 1.463 1_655 S
C837 C842 1.350 . S
C837 N845 1.427 1_655 S
C838 H829 0.930 . S
C838 C836 1.378 . S
C838 C839 1.367 . S
C839 C838 1.367 . S
C839 C841 1.433 . S
C840 C836 1.350 . S
C840 C837 1.463 1_455 S
C840 N844 1.427 1_455 S
C841 H831 0.931 . S
C841 C839 1.433 . S
C841 N844 1.384 1_455 S
C842 H833 0.929 . S
C842 C834 1.378 . S
C842 C837 1.350 . S
C843 H830 0.929 1_655 S
C843 C835 1.433 . S
C843 N845 1.384 1_655 S
N844 C840 1.427 1_655 S
N844 C841 1.384 1_655 S
N845 C837 1.427 1_455 S
N845 C843 1.384 1_455 S
C367 C9 3.371 . S
C371 C18 3.371 . S
C385 C58 3.452 . S
C389 C49 3.452 . S
C403 C89 3.490 1_556 S
C407 C98 3.490 . S
C421 C138 3.369 . S
C425 C129 3.369 . S
C439 C169 3.451 . S
C443 C178 3.451 1_556 S
C457 C218 3.492 . S
C461 C209 3.492 1_556 S
C475 C246 2.523 . S
C479 C255 2.523 . S
C493 C295 2.804 . S
C497 C286 2.804 . S
C511 C326 1.889 . S
C515 C335 1.889 . S
C529 C210 1.734 . S
C533 C6 1.764 . S
C547 C50 2.741 . S
C551 C130 2.767 . S
C565 C86 1.221 . S
C569 C166 1.229 . S
C583 C90 2.969 . S
C587 C259 3.118 . S
C601 C298 1.181 . S
C605 C10 1.133 . S
C619 C339 1.959 . S
C623 C46 1.849 . S
C637 C329 0.844 . S
C641 C15 0.822 . S
C655 C59 2.193 . S
C659 C249 2.253 . S
C673 C290 2.933 . S
C677 C95 2.757 . S
C691 C99 1.730 . S
C695 C135 1.763 . S
C709 C179 2.742 . S
C713 C19 2.767 . S
C727 C55 1.229 . S
C731 C215 1.222 . S
C745 C338 0.840 . S
C749 C126 0.838 . S
C763 C258 2.246 . S
C767 C170 2.191 . S
C781 C299 2.933 . S
C785 C206 2.760 . S
C799 C250 3.119 . S
C803 C219 2.964 . S
C817 C139 1.144 . S
C821 C289 1.172 . S
C835 C330 1.956 . S
C839 C175 1.833 . S
