# Generated by pormake.
# Topology wmg, (6)-cn, num edge types: 1
# Building blocks:
#     Node 0, Type 0, BuildingBlock: OJICUG_clean_sbu_0, # of connection points: 6
#     Node 1, Type 0, BuildingBlock: OJICUG_clean_sbu_0, # of connection points: 6
#     Node 2, Type 0, BuildingBlock: OJICUG_clean_sbu_0, # of connection points: 6
#     Node 3, Type 0, BuildingBlock: OJICUG_clean_sbu_0, # of connection points: 6
#     Node 4, Type 0, BuildingBlock: OJICUG_clean_sbu_0, # of connection points: 6
#     Node 5, Type 0, BuildingBlock: OJICUG_clean_sbu_0, # of connection points: 6
#     Node 6, Type 0, BuildingBlock: OJICUG_clean_sbu_0, # of connection points: 6
#     Node 7, Type 0, BuildingBlock: OJICUG_clean_sbu_0, # of connection points: 6
#     Node 8, Type 0, BuildingBlock: OJICUG_clean_sbu_0, # of connection points: 6
#     Node 9, Type 0, BuildingBlock: OJICUG_clean_sbu_0, # of connection points: 6
#     Node 10, Type 0, BuildingBlock: OJICUG_clean_sbu_0, # of connection points: 6
#     Node 11, Type 0, BuildingBlock: OJICUG_clean_sbu_0, # of connection points: 6
#     Node 12, Type 0, BuildingBlock: OJICUG_clean_sbu_0, # of connection points: 6
#     Node 13, Type 0, BuildingBlock: OJICUG_clean_sbu_0, # of connection points: 6
#     Node 14, Type 0, BuildingBlock: OJICUG_clean_sbu_0, # of connection points: 6
#     Node 15, Type 0, BuildingBlock: OJICUG_clean_sbu_0, # of connection points: 6
#     Node 16, Type 0, BuildingBlock: OJICUG_clean_sbu_0, # of connection points: 6
#     Node 17, Type 0, BuildingBlock: OJICUG_clean_sbu_0, # of connection points: 6
#     Edge 18, Type (0, 0), BuildingBlock: CIFDUS_clean_linker_0, # of connection points: 2
#     Edge 19, Type (0, 0), BuildingBlock: CIFDUS_clean_linker_0, # of connection points: 2
#     Edge 20, Type (0, 0), BuildingBlock: CIFDUS_clean_linker_0, # of connection points: 2
#     Edge 21, Type (0, 0), BuildingBlock: CIFDUS_clean_linker_0, # of connection points: 2
#     Edge 22, Type (0, 0), BuildingBlock: CIFDUS_clean_linker_0, # of connection points: 2
#     Edge 23, Type (0, 0), BuildingBlock: CIFDUS_clean_linker_0, # of connection points: 2
#     Edge 24, Type (0, 0), BuildingBlock: CIFDUS_clean_linker_0, # of connection points: 2
#     Edge 25, Type (0, 0), BuildingBlock: CIFDUS_clean_linker_0, # of connection points: 2
#     Edge 26, Type (0, 0), BuildingBlock: CIFDUS_clean_linker_0, # of connection points: 2
#     Edge 27, Type (0, 0), BuildingBlock: CIFDUS_clean_linker_0, # of connection points: 2
#     Edge 28, Type (0, 0), BuildingBlock: CIFDUS_clean_linker_0, # of connection points: 2
#     Edge 29, Type (0, 0), BuildingBlock: CIFDUS_clean_linker_0, # of connection points: 2
#     Edge 30, Type (0, 0), BuildingBlock: CIFDUS_clean_linker_0, # of connection points: 2
#     Edge 31, Type (0, 0), BuildingBlock: CIFDUS_clean_linker_0, # of connection points: 2
#     Edge 32, Type (0, 0), BuildingBlock: CIFDUS_clean_linker_0, # of connection points: 2
#     Edge 33, Type (0, 0), BuildingBlock: CIFDUS_clean_linker_0, # of connection points: 2
#     Edge 34, Type (0, 0), BuildingBlock: CIFDUS_clean_linker_0, # of connection points: 2
#     Edge 35, Type (0, 0), BuildingBlock: CIFDUS_clean_linker_0, # of connection points: 2
#     Edge 36, Type (0, 0), BuildingBlock: CIFDUS_clean_linker_0, # of connection points: 2
#     Edge 37, Type (0, 0), BuildingBlock: CIFDUS_clean_linker_0, # of connection points: 2
#     Edge 38, Type (0, 0), BuildingBlock: CIFDUS_clean_linker_0, # of connection points: 2
#     Edge 39, Type (0, 0), BuildingBlock: CIFDUS_clean_linker_0, # of connection points: 2
#     Edge 40, Type (0, 0), BuildingBlock: CIFDUS_clean_linker_0, # of connection points: 2
#     Edge 41, Type (0, 0), BuildingBlock: CIFDUS_clean_linker_0, # of connection points: 2
#     Edge 42, Type (0, 0), BuildingBlock: CIFDUS_clean_linker_0, # of connection points: 2
#     Edge 43, Type (0, 0), BuildingBlock: CIFDUS_clean_linker_0, # of connection points: 2
#     Edge 44, Type (0, 0), BuildingBlock: CIFDUS_clean_linker_0, # of connection points: 2
#     Edge 45, Type (0, 0), BuildingBlock: CIFDUS_clean_linker_0, # of connection points: 2
#     Edge 46, Type (0, 0), BuildingBlock: CIFDUS_clean_linker_0, # of connection points: 2
#     Edge 47, Type (0, 0), BuildingBlock: CIFDUS_clean_linker_0, # of connection points: 2
#     Edge 48, Type (0, 0), BuildingBlock: CIFDUS_clean_linker_0, # of connection points: 2
#     Edge 49, Type (0, 0), BuildingBlock: CIFDUS_clean_linker_0, # of connection points: 2
#     Edge 50, Type (0, 0), BuildingBlock: CIFDUS_clean_linker_0, # of connection points: 2
#     Edge 51, Type (0, 0), BuildingBlock: CIFDUS_clean_linker_0, # of connection points: 2
#     Edge 52, Type (0, 0), BuildingBlock: CIFDUS_clean_linker_0, # of connection points: 2
#     Edge 53, Type (0, 0), BuildingBlock: CIFDUS_clean_linker_0, # of connection points: 2
#     Edge 54, Type (0, 0), BuildingBlock: CIFDUS_clean_linker_0, # of connection points: 2
#     Edge 55, Type (0, 0), BuildingBlock: CIFDUS_clean_linker_0, # of connection points: 2
#     Edge 56, Type (0, 0), BuildingBlock: CIFDUS_clean_linker_0, # of connection points: 2
#     Edge 57, Type (0, 0), BuildingBlock: CIFDUS_clean_linker_0, # of connection points: 2
#     Edge 58, Type (0, 0), BuildingBlock: CIFDUS_clean_linker_0, # of connection points: 2
#     Edge 59, Type (0, 0), BuildingBlock: CIFDUS_clean_linker_0, # of connection points: 2
#     Edge 60, Type (0, 0), BuildingBlock: CIFDUS_clean_linker_0, # of connection points: 2
#     Edge 61, Type (0, 0), BuildingBlock: CIFDUS_clean_linker_0, # of connection points: 2
#     Edge 62, Type (0, 0), BuildingBlock: CIFDUS_clean_linker_0, # of connection points: 2
#     Edge 63, Type (0, 0), BuildingBlock: CIFDUS_clean_linker_0, # of connection points: 2
#     Edge 64, Type (0, 0), BuildingBlock: CIFDUS_clean_linker_0, # of connection points: 2
#     Edge 65, Type (0, 0), BuildingBlock: CIFDUS_clean_linker_0, # of connection points: 2
#     Edge 66, Type (0, 0), BuildingBlock: CIFDUS_clean_linker_0, # of connection points: 2
#     Edge 67, Type (0, 0), BuildingBlock: CIFDUS_clean_linker_0, # of connection points: 2
#     Edge 68, Type (0, 0), BuildingBlock: CIFDUS_clean_linker_0, # of connection points: 2
#     Edge 69, Type (0, 0), BuildingBlock: CIFDUS_clean_linker_0, # of connection points: 2
#     Edge 70, Type (0, 0), BuildingBlock: CIFDUS_clean_linker_0, # of connection points: 2
#     Edge 71, Type (0, 0), BuildingBlock: CIFDUS_clean_linker_0, # of connection points: 2
# Relax obj value: 0.253
# Max RMSD: 0.274
# Mean RMSD: 0.274
data_MOF--net-wmg--node1-OJICUG_clean_sbu_0--edge1-CIFDUS_clean_linker_0
_symmetry_space_group_name_H-M    P1
_symmetry_Int_Tables_number       1
_symmetry_cell_setting            triclinic
loop_
_symmetry_equiv_pos_as_xyz
'x, y, z'
_cell_length_a     57.408884
_cell_length_b     57.204282
_cell_length_c     21.629366
_cell_angle_alpha  90.068376
_cell_angle_beta   89.92127
_cell_angle_gamma 119.99995
loop_
_atom_site_label
_atom_site_type_symbol
_atom_site_fract_x
_atom_site_fract_y
_atom_site_fract_z
_atom_type_partial_charge
Sc0 Sc 0.17781 0.24889 0.98911 0.0
Sc1 Sc 0.21161 0.30105 0.09325 0.0
Sc2 Sc 0.16816 0.23653 0.14553 0.0
O3 O 0.18558 0.26212 0.07598 0.0
C4 C 0.12036 0.21822 0.05397 0.0
C5 C 0.18158 0.30319 0.97074 0.0
C6 C 0.17011 0.29133 0.19318 0.0
C7 C 0.24103 0.29183 0.98682 0.0
C8 C 0.17946 0.20078 0.0483 0.0
C9 C 0.22627 0.27103 0.19345 0.0
O10 O 0.13571 0.22079 0.00862 0.0
O11 O 0.20071 0.3147 0.0097 0.0
O12 O 0.16629 0.26749 0.20173 0.0
O13 O 0.21887 0.27708 0.9586 0.0
O14 O 0.16849 0.20294 0.09778 0.0
O15 O 0.22644 0.29243 0.17695 0.0
O16 O 0.18843 0.21876 0.0065 0.0
O17 O 0.24195 0.29764 0.04362 0.0
O18 O 0.20723 0.24753 0.18037 0.0
O19 O 0.16636 0.27785 0.96902 0.0
O20 O 0.12921 0.22537 0.1088 0.0
O21 O 0.1824 0.30533 0.14595 0.0
Sc22 Sc 0.7428 0.92476 0.96616 0.0
Sc23 Sc 0.69108 0.90739 0.06794 0.0
Sc24 Sc 0.75655 0.93951 0.12073 0.0
O25 O 0.73024 0.92387 0.05213 0.0
C26 C 0.78051 0.91074 0.04415 0.0
C27 C 0.69438 0.86917 0.96415 0.0
C28 C 0.70626 0.88605 0.18132 0.0
C29 C 0.69494 0.93696 0.94837 0.0
C30 C 0.78447 0.98157 0.00866 0.0
C31 C 0.71641 0.95866 0.15493 0.0
O32 O 0.7766 0.92055 0.99508 0.0
O33 O 0.6808 0.87784 0.99326 0.0
O34 O 0.72882 0.90817 0.1864 0.0
O35 O 0.71016 0.9289 0.9252 0.0
O36 O 0.78632 0.97266 0.0618 0.0
O37 O 0.69658 0.93553 0.14169 0.0
O38 O 0.76621 0.96723 0.97014 0.0
O39 O 0.68975 0.93526 0.00562 0.0
O40 O 0.7407 0.96526 0.14403 0.0
O41 O 0.71978 0.8821 0.96294 0.0
O42 O 0.77229 0.91359 0.09677 0.0
O43 O 0.69207 0.87997 0.13257 0.0
Sc44 Sc 0.05837 0.8061 0.00803 0.0
Sc45 Sc 0.08451 0.7796 0.11578 0.0
Sc46 Sc 0.05307 0.81467 0.16643 0.0
O47 O 0.06539 0.80012 0.09634 0.0
C48 C 0.08263 0.86398 0.07571 0.0
C49 C 0.11663 0.81345 0.99731 0.0
C50 C 0.10617 0.81838 0.22719 0.0
C51 C 0.04674 0.74526 0.00432 0.0
C52 C 0.00668 0.80172 0.06662 0.0
C53 C 0.03357 0.75516 0.20555 0.0
O54 O 0.0732 0.84862 0.02827 0.0
O55 O 0.1148 0.79969 0.04515 0.0
O56 O 0.08483 0.81993 0.23096 0.0
O57 O 0.04437 0.76435 0.98021 0.0
O58 O 0.01837 0.81164 0.11782 0.0
O59 O 0.05547 0.75677 0.18734 0.0
O60 O 0.01753 0.79503 0.02455 0.0
O61 O 0.05996 0.74825 0.05343 0.0
O62 O 0.02788 0.77386 0.19785 0.0
O63 O 0.09806 0.81773 0.98001 0.0
O64 O 0.07857 0.85496 0.13113 0.0
O65 O 0.11139 0.80875 0.18002 0.0
Sc66 Sc 0.81403 0.75234 0.85415 0.0
Sc67 Sc 0.76602 0.69131 0.91793 0.0
Sc68 Sc 0.80656 0.74457 0.01303 0.0
O69 O 0.79569 0.72938 0.92761 0.0
C70 C 0.86261 0.77082 0.94393 0.0
C71 C 0.80507 0.69392 0.81414 0.0
C72 C 0.80095 0.68946 0.03209 0.0
C73 C 0.75363 0.72184 0.81121 0.0
C74 C 0.80634 0.79205 0.94796 0.0
C75 C 0.7434 0.70485 0.02933 0.0
O76 O 0.85263 0.76172 0.89086 0.0
O77 O 0.78994 0.6813 0.85966 0.0
O78 O 0.8167 0.71475 0.03262 0.0
O79 O 0.77622 0.74358 0.8143 0.0
O80 O 0.79728 0.7753 0.99253 0.0
O81 O 0.7405 0.7003 0.97206 0.0
O82 O 0.8159 0.78783 0.8983 0.0
O83 O 0.74852 0.70037 0.83983 0.0
O84 O 0.7667 0.71819 0.05331 0.0
O85 O 0.81332 0.71886 0.80342 0.0
O86 O 0.84836 0.77127 0.98852 0.0
O87 O 0.77981 0.67813 -0.00162 0.0
Sc88 Sc 0.2297 0.05496 0.85656 0.0
Sc89 Sc 0.29425 0.07929 0.91262 0.0
Sc90 Sc 0.2414 0.06315 0.01333 0.0
O91 O 0.2552 0.066 0.92718 0.0
C92 C 0.20924 0.08538 0.93834 0.0
C93 C 0.28356 0.10599 0.80019 0.0
C94 C 0.29339 0.11747 0.02057 0.0
C95 C 0.26464 0.02898 0.82364 0.0
C96 C 0.19564 0.01017 0.96036 0.0
C97 C 0.28792 0.0482 0.03141 0.0
O98 O 0.21774 0.08337 0.88532 0.0
O99 O 0.29797 0.10922 0.84751 0.0
O100 O 0.26799 0.10504 0.02493 0.0
O101 O 0.24148 0.02647 0.82981 0.0
O102 O 0.2135 0.02095 0.00222 0.0
O103 O 0.29261 0.04952 0.97404 0.0
O104 O 0.19708 0.02209 0.90922 0.0
O105 O 0.28626 0.05025 0.8393 0.0
O106 O 0.27166 0.05503 0.0542 0.0
O107 O 0.25961 0.08598 0.79497 0.0
O108 O 0.21094 0.07297 0.9855 0.0
O109 O 0.30616 0.10887 0.98788 0.0
Sc110 Sc 0.93047 0.17498 0.82994 0.0
Sc111 Sc 0.90397 0.21372 0.88496 0.0
Sc112 Sc 0.92741 0.18325 0.98627 0.0
O113 O 0.92043 0.19065 0.90016 0.0
C114 C 0.90568 0.12706 0.92077 0.0
C115 C 0.87681 0.17355 0.77773 0.0
C116 C 0.8713 0.17667 0.00075 0.0
C117 C 0.9514 0.23413 0.7876 0.0
C118 C 0.97857 0.1906 0.92691 0.0
C119 C 0.94004 0.24408 0.99622 0.0
O120 O 0.9042 0.13519 0.86683 0.0
O121 O 0.87339 0.18441 0.82554 0.0
O122 O 0.88596 0.16605 0.00654 0.0
O123 O 0.95642 0.21509 0.79657 0.0
O124 O 0.96898 0.1997 0.96704 0.0
O125 O 0.93393 0.24523 0.94058 0.0
O126 O 0.96531 0.17777 0.87891 0.0
O127 O 0.93005 0.23351 0.80644 0.0
O128 O 0.93515 0.22209 0.02199 0.0
O129 O 0.89756 0.17097 0.77099 0.0
O130 O 0.92 0.14325 0.96329 0.0
O131 O 0.87699 0.19648 0.96449 0.0
Sc132 Sc 0.84223 0.57949 0.33178 0.0
Sc133 Sc 0.88135 0.63228 0.42845 0.0
Sc134 Sc 0.83652 0.56969 0.48952 0.0
O135 O 0.85304 0.59393 0.41719 0.0
C136 C 0.78727 0.54969 0.40532 0.0
C137 C 0.8444 0.6331 0.31754 0.0
C138 C 0.8429 0.62634 0.53584 0.0
C139 C 0.90446 0.62231 0.31317 0.0
C140 C 0.8456 0.53295 0.39031 0.0
C141 C 0.8974 0.60115 0.5235 0.0
O142 O 0.80161 0.55042 0.3596 0.0
O143 O 0.86582 0.64486 0.35031 0.0
O144 O 0.83689 0.6019 0.54624 0.0
O145 O 0.88108 0.60791 0.2902 0.0
O146 O 0.83489 0.53531 0.44022 0.0
O147 O 0.90015 0.62351 0.50494 0.0
O148 O 0.85462 0.55085 0.34826 0.0
O149 O 0.90778 0.62612 0.37073 0.0
O150 O 0.87542 0.57897 0.51942 0.0
O151 O 0.8294 0.60766 0.31629 0.0
O152 O 0.79733 0.55946 0.45786 0.0
O153 O 0.85628 0.6394 0.48875 0.0
Sc154 Sc 0.40495 0.26032 0.32554 0.0
Sc155 Sc 0.35287 0.23716 0.42904 0.0
Sc156 Sc 0.41848 0.27089 0.48056 0.0
O157 O 0.39198 0.2561 0.41233 0.0
C158 C 0.44379 0.24666 0.39486 0.0
C159 C 0.35985 0.20254 0.3206 0.0
C160 C 0.37002 0.21597 0.54025 0.0
C161 C 0.35324 0.26623 0.31142 0.0
C162 C 0.44407 0.31606 0.37343 0.0
C163 C 0.37662 0.28757 0.51992 0.0
O164 O 0.44135 0.26034 0.3518 0.0
O165 O 0.34498 0.20868 0.35297 0.0
O166 O 0.3922 0.23839 0.54545 0.0
O167 O 0.37013 0.26082 0.2867 0.0
O168 O 0.44715 0.30558 0.42306 0.0
O169 O 0.35718 0.26462 0.50363 0.0
O170 O 0.42483 0.30271 0.33617 0.0
O171 O 0.3488 0.26414 0.36897 0.0
O172 O 0.40125 0.29496 0.51007 0.0
O173 O 0.38512 0.21771 0.31683 0.0
O174 O 0.43438 0.24576 0.44872 0.0
O175 O 0.35557 0.21001 0.49201 0.0
Sc176 Sc 0.72552 0.14692 0.30103 0.0
Sc177 Sc 0.74744 0.11591 0.4027 0.0
Sc178 Sc 0.71522 0.14931 0.45656 0.0
O179 O 0.72947 0.13734 0.38722 0.0
C180 C 0.7407 0.19991 0.374 0.0
C181 C 0.78261 0.15721 0.29489 0.0
C182 C 0.76907 0.15335 0.51572 0.0
C183 C 0.71791 0.08814 0.28399 0.0
C184 C 0.6705 0.13295 0.34976 0.0
C185 C 0.69717 0.09022 0.49303 0.0
O186 O 0.72815 0.18458 0.32867 0.0
O187 O 0.77616 0.13614 0.32737 0.0
O188 O 0.74709 0.15388 0.52095 0.0
O189 O 0.72297 0.11067 0.2608 0.0
O190 O 0.6812 0.14532 0.40047 0.0
O191 O 0.71985 0.09313 0.47688 0.0
O192 O 0.68314 0.12645 0.31164 0.0
O193 O 0.72035 0.0853 0.34121 0.0
O194 O 0.69039 0.10798 0.48358 0.0
O195 O 0.76792 0.16786 0.29103 0.0
O196 O 0.74071 0.19049 0.42733 0.0
O197 O 0.77489 0.14496 0.46694 0.0
Sc198 Sc 0.47922 0.09617 0.19008 0.0
Sc199 Sc 0.44707 0.02919 0.23133 0.0
Sc200 Sc 0.47184 0.07834 0.34337 0.0
O201 O 0.46591 0.06778 0.25489 0.0
C202 C 0.52694 0.11767 0.28061 0.0
C203 C 0.48732 0.04964 0.12585 0.0
C204 C 0.48419 0.03235 0.34521 0.0
C205 C 0.42178 0.05549 0.14534 0.0
C206 C 0.45907 0.12064 0.29789 0.0
C207 C 0.41367 0.02517 0.34441 0.0
O208 O 0.51924 0.11057 0.22501 0.0
O209 O 0.47964 0.03518 0.17409 0.0
O210 O 0.49301 0.05718 0.3552 0.0
O211 O 0.43841 0.0799 0.15972 0.0
O212 O 0.45116 0.10001 0.3319 0.0
O213 O 0.41382 0.0218 0.28668 0.0
O214 O 0.47369 0.12446 0.24989 0.0
O215 O 0.42641 0.03615 0.15499 0.0
O216 O 0.43416 0.04311 0.37365 0.0
O217 O 0.4857 0.07113 0.12136 0.0
O218 O 0.51037 0.11418 0.32381 0.0
O219 O 0.46487 0.0184 0.30789 0.0
Sc220 Sc 0.89502 0.38676 0.19996 0.0
Sc221 Sc 0.96072 0.41235 0.24935 0.0
Sc222 Sc 0.91123 0.40146 0.35324 0.0
O223 O 0.92238 0.40037 0.26666 0.0
C224 C 0.8756 0.41873 0.27788 0.0
C225 C 0.94769 0.4356 0.1336 0.0
C226 C 0.96238 0.45519 0.34863 0.0
C227 C 0.92898 0.35955 0.1674 0.0
C228 C 0.86562 0.34635 0.31456 0.0
C229 C 0.95715 0.38671 0.37339 0.0
O230 O 0.88355 0.416 0.22486 0.0
O231 O 0.96306 0.43976 0.17957 0.0
O232 O 0.937 0.44379 0.35243 0.0
O233 O 0.90606 0.3574 0.17563 0.0
O234 O 0.88512 0.35914 0.35166 0.0
O235 O 0.9594 0.38446 0.3159 0.0
O236 O 0.86443 0.35592 0.26172 0.0
O237 O 0.95101 0.38078 0.18114 0.0
O238 O 0.94313 0.39644 0.39485 0.0
O239 O 0.92338 0.41588 0.13194 0.0
O240 O 0.87849 0.40754 0.3257 0.0
O241 O 0.97428 0.44458 0.31953 0.0
Sc242 Sc 0.59776 0.50444 0.1861 0.0
Sc243 Sc 0.5782 0.54969 0.23444 0.0
Sc244 Sc 0.59585 0.51649 0.3406 0.0
O245 O 0.59008 0.52322 0.25335 0.0
C246 C 0.5694 0.45858 0.28095 0.0
C247 C 0.54702 0.50791 0.13243 0.0
C248 C 0.5442 0.51788 0.3555 0.0
C249 C 0.62546 0.56426 0.14103 0.0
C250 C 0.64461 0.51783 0.28366 0.0
C251 C 0.61483 0.57911 0.34336 0.0
O252 O 0.56864 0.46623 0.22599 0.0
O253 O 0.54557 0.52127 0.17788 0.0
O254 O 0.55516 0.50343 0.35894 0.0
O255 O 0.62712 0.54318 0.15072 0.0
O256 O 0.6366 0.52921 0.32169 0.0
O257 O 0.61117 0.57986 0.28603 0.0
O258 O 0.6306 0.50436 0.23714 0.0
O259 O 0.60446 0.56549 0.15452 0.0
O260 O 0.6066 0.55693 0.372 0.0
O261 O 0.56625 0.50286 0.12663 0.0
O262 O 0.58469 0.47488 0.32228 0.0
O263 O 0.55174 0.53714 0.31629 0.0
Sc264 Sc 0.51063 0.91697 0.65884 0.0
Sc265 Sc 0.54605 0.97337 0.75101 0.0
Sc266 Sc 0.5116 0.90975 0.81628 0.0
O267 O 0.5226 0.93346 0.7423 0.0
C268 C 0.45892 0.88363 0.74135 0.0
C269 C 0.50421 0.96632 0.64402 0.0
C270 C 0.5111 0.96294 0.86694 0.0
C271 C 0.57021 0.965 0.63256 0.0
C272 C 0.52218 0.8749 0.71486 0.0
C273 C 0.57198 0.94965 0.84178 0.0
O274 O 0.47244 0.88523 0.69323 0.0
O275 O 0.52569 0.98105 0.67478 0.0
O276 O 0.50988 0.94017 0.87498 0.0
O277 O 0.54711 0.94737 0.6127 0.0
O278 O 0.51249 0.87674 0.76675 0.0
O279 O 0.56963 0.96971 0.82489 0.0
O280 O 0.52808 0.89214 0.67202 0.0
O281 O 0.57429 0.97266 0.68839 0.0
O282 O 0.55311 0.92529 0.83729 0.0
O283 O 0.49229 0.94077 0.64451 0.0
O284 O 0.47011 0.89425 0.79263 0.0
O285 O 0.51947 0.97608 0.8167 0.0
Sc286 Sc 0.07549 0.59662 0.66673 0.0
Sc287 Sc 0.02112 0.57154 0.76488 0.0
Sc288 Sc 0.08592 0.59961 0.82376 0.0
O289 O 0.06066 0.589 0.7526 0.0
C290 C 0.11191 0.57812 0.73138 0.0
C291 C 0.02857 0.53973 0.64984 0.0
C292 C 0.03455 0.54385 0.87159 0.0
C293 C 0.02746 0.60796 0.65459 0.0
C294 C 0.11438 0.64955 0.72953 0.0
C295 C 0.0451 0.61725 0.86891 0.0
O296 O 0.11017 0.59309 0.6906 0.0
O297 O 0.01363 0.54508 0.68436 0.0
O298 O 0.05794 0.56454 0.87889 0.0
O299 O 0.04329 0.6016 0.62829 0.0
O300 O 0.11624 0.63676 0.77622 0.0
O301 O 0.02527 0.59732 0.84252 0.0
O302 O 0.09665 0.63811 0.68799 0.0
O303 O 0.02012 0.60183 0.71004 0.0
O304 O 0.06941 0.62268 0.86343 0.0
O305 O 0.05389 0.55475 0.64682 0.0
O306 O 0.10172 0.57558 0.78493 0.0
O307 O 0.01987 0.54115 0.82508 0.0
Sc308 Sc 0.39235 0.47806 0.65304 0.0
Sc309 Sc 0.41193 0.44499 0.76019 0.0
Sc310 Sc 0.38818 0.48741 0.81142 0.0
O311 O 0.39761 0.47012 0.74143 0.0
C312 C 0.41954 0.53598 0.72064 0.0
C313 C 0.44838 0.4801 0.64663 0.0
C314 C 0.43768 0.48446 0.87309 0.0
C315 C 0.37604 0.41589 0.64247 0.0
C316 C 0.34264 0.47757 0.7117 0.0
C317 C 0.36066 0.42578 0.84828 0.0
O318 O 0.40924 0.52072 0.67358 0.0
O319 O 0.44433 0.46455 0.69273 0.0
O320 O 0.41954 0.49103 0.87389 0.0
O321 O 0.37644 0.43672 0.62031 0.0
O322 O 0.35471 0.48669 0.76292 0.0
O323 O 0.37963 0.42277 0.82608 0.0
O324 O 0.35228 0.46986 0.66877 0.0
O325 O 0.387 0.41614 0.69333 0.0
O326 O 0.3604 0.44792 0.84569 0.0
O327 O 0.43162 0.48699 0.62918 0.0
O328 O 0.41569 0.52694 0.77581 0.0
O329 O 0.4391 0.47004 0.83049 0.0
Sc330 Sc 0.14856 0.42988 0.51942 0.0
Sc331 Sc 0.11405 0.3629 0.56191 0.0
Sc332 Sc 0.14548 0.4116 0.67226 0.0
O333 O 0.13614 0.40155 0.58435 0.0
C334 C 0.19936 0.45051 0.60105 0.0
C335 C 0.1523 0.38112 0.45271 0.0
C336 C 0.15163 0.36221 0.67008 0.0
C337 C 0.08996 0.39098 0.48003 0.0
C338 C 0.13334 0.45581 0.6337 0.0
C339 C 0.085 0.36246 0.67988 0.0
O340 O 0.18947 0.4441 0.54684 0.0
O341 O 0.1445 0.36652 0.50082 0.0
O342 O 0.16393 0.38758 0.67655 0.0
O343 O 0.10737 0.41505 0.49452 0.0
O344 O 0.12747 0.43597 0.66905 0.0
O345 O 0.08299 0.35887 0.62191 0.0
O346 O 0.14529 0.45882 0.58171 0.0
O347 O 0.09379 0.3711 0.48784 0.0
O348 O 0.10741 0.37811 0.70621 0.0
O349 O 0.15239 0.40358 0.44942 0.0
O350 O 0.18464 0.4455 0.64897 0.0
O351 O 0.13107 0.34991 0.63518 0.0
Sc352 Sc 0.5641 0.72713 0.49938 0.0
Sc353 Sc 0.62916 0.74954 0.54908 0.0
Sc354 Sc 0.57826 0.7334 0.6553 0.0
O355 O 0.59062 0.73689 0.56763 0.0
C356 C 0.5466 0.75797 0.5877 0.0
C357 C 0.61768 0.77754 0.44099 0.0
C358 C 0.63072 0.78756 0.66008 0.0
C359 C 0.59689 0.69954 0.46004 0.0
C360 C 0.53113 0.68176 0.60245 0.0
C361 C 0.62456 0.71779 0.66532 0.0
O362 O 0.55404 0.75626 0.53323 0.0
O363 O 0.6325 0.78003 0.48687 0.0
O364 O 0.6055 0.77498 0.66821 0.0
O365 O 0.57423 0.698 0.46807 0.0
O366 O 0.54985 0.69165 0.64246 0.0
O367 O 0.62795 0.71934 0.60749 0.0
O368 O 0.53181 0.69443 0.55309 0.0
O369 O 0.61912 0.72037 0.47478 0.0
O370 O 0.60844 0.72396 0.69155 0.0
O371 O 0.59346 0.75799 0.43658 0.0
O372 O 0.54805 0.74433 0.6326 0.0
O373 O 0.64279 0.77898 0.62494 0.0
Sc374 Sc 0.26499 0.83511 0.53819 0.0
Sc375 Sc 0.24699 0.88181 0.58673 0.0
Sc376 Sc 0.26695 0.85019 0.69289 0.0
O377 O 0.25945 0.85568 0.60544 0.0
C378 C 0.23931 0.79135 0.6391 0.0
C379 C 0.2134 0.83815 0.4886 0.0
C380 C 0.21496 0.85162 0.71067 0.0
C381 C 0.29033 0.89296 0.48212 0.0
C382 C 0.31439 0.85029 0.63095 0.0
C383 C 0.28559 0.91273 0.69258 0.0
O384 O 0.23736 0.79817 0.58423 0.0
O385 O 0.21354 0.85319 0.53211 0.0
O386 O 0.22684 0.83808 0.71655 0.0
O387 O 0.29213 0.87198 0.49204 0.0
O388 O 0.30713 0.86205 0.66978 0.0
O389 O 0.28033 0.91282 0.63596 0.0
O390 O 0.29968 0.83675 0.5852 0.0
O391 O 0.27237 0.89698 0.50619 0.0
O392 O 0.27865 0.89098 0.72189 0.0
O393 O 0.23168 0.83176 0.48304 0.0
O394 O 0.25521 0.80819 0.67865 0.0
O395 O 0.22134 0.86977 0.66917 0.0
H396 H 0.19335 0.09812 0.04604 0.0
H397 H 0.20371 0.11679 0.85089 0.0
H398 H 0.19439 0.15345 0.86797 0.0
H399 H 0.1867 0.18223 0.93881 0.0
H400 H 0.17654 0.16409 0.13398 0.0
H401 H 0.18242 0.12509 0.11615 0.0
C402 C 0.19321 0.10992 0.00699 0.0
C403 C 0.19944 0.10473 0.94726 0.0
C404 C 0.1882 0.13127 0.0172 0.0
C405 C 0.19907 0.12028 0.89737 0.0
C406 C 0.19387 0.14138 0.90711 0.0
C407 C 0.18573 0.16976 0.97757 0.0
C408 C 0.18154 0.17629 0.0378 0.0
C409 C 0.18905 0.14742 0.96697 0.0
C410 C 0.17985 0.15959 0.08722 0.0
C411 C 0.18323 0.13731 0.07704 0.0
H412 H 0.83617 0.01395 0.05004 0.0
H413 H 0.77795 0.01068 0.91881 0.0
H414 H 0.81116 0.05377 0.87562 0.0
H415 H 0.85638 0.09291 0.87537 0.0
H416 H 0.91462 0.09817 0.00848 0.0
H417 H 0.8821 0.05373 0.04954 0.0
C418 C 0.83076 0.02282 0.01241 0.0
C419 C 0.80463 0.009 0.98773 0.0
C420 C 0.85009 0.0478 0.98724 0.0
C421 C 0.79797 0.02073 0.93857 0.0
C422 C 0.81697 0.04539 0.91355 0.0
C423 C 0.86213 0.08406 0.91245 0.0
C424 C 0.8879 0.09858 0.93831 0.0
C425 C 0.84311 0.05903 0.93717 0.0
C426 C 0.89489 0.0872 0.98747 0.0
C427 C 0.87625 0.06191 0.01131 0.0
H428 H 0.88949 0.78585 0.0541 0.0
H429 H 0.90021 0.77426 0.8609 0.0
H430 H 0.94563 0.78321 0.88218 0.0
H431 H 0.98142 0.79217 0.95569 0.0
H432 H 0.97121 0.80375 0.14902 0.0
H433 H 0.92637 0.7969 0.12737 0.0
C434 C 0.90182 0.78558 0.01639 0.0
C435 C 0.89127 0.77931 0.95587 0.0
C436 C 0.92792 0.79048 0.02903 0.0
C437 C 0.90766 0.779 0.90787 0.0
C438 C 0.93366 0.78402 0.92003 0.0
C439 C 0.96945 0.7932 0.99331 0.0
C440 C 0.97967 0.79824 0.05409 0.0
C441 C 0.94381 0.78936 0.98051 0.0
C442 C 0.96389 0.79984 0.10188 0.0
C443 C 0.93823 0.79592 0.0895 0.0
H444 H 0.80411 0.81511 0.05534 0.0
H445 H 0.80842 0.82658 0.85754 0.0
H446 H 0.80439 0.86691 0.87087 0.0
H447 H 0.79538 0.89603 0.93804 0.0
H448 H 0.79003 0.88361 0.1358 0.0
H449 H 0.79937 0.84673 0.12299 0.0
C450 C 0.80425 0.82645 0.01505 0.0
C451 C 0.80607 0.8176 0.95543 0.0
C452 C 0.80187 0.84946 0.02306 0.0
C453 C 0.80685 0.83287 0.90387 0.0
C454 C 0.80452 0.8559 0.91149 0.0
C455 C 0.79671 0.88562 0.97858 0.0
C456 C 0.79166 0.89244 0.03781 0.0
C457 C 0.80146 0.86402 0.97081 0.0
C458 C 0.79367 0.87876 0.08966 0.0
C459 C 0.79884 0.85753 0.08236 0.0
H460 H 0.17671 0.98538 0.07144 0.0
H461 H 0.16147 0.97375 0.8753 0.0
H462 H 0.12385 0.92829 0.89401 0.0
H463 H 0.0968 0.89106 0.96551 0.0
H464 H 0.11186 0.90296 0.16191 0.0
H465 H 0.14768 0.9492 0.14346 0.0
C466 C 0.16515 0.97293 0.03273 0.0
C467 C 0.17212 0.98294 0.97197 0.0
C468 C 0.14338 0.94687 0.04383 0.0
C469 C 0.15662 0.96661 0.92251 0.0
C470 C 0.1351 0.94058 0.93317 0.0
C471 C 0.10763 0.9038 0.00451 0.0
C472 C 0.10157 0.89328 0.06509 0.0
C473 C 0.12846 0.9304 0.9936 0.0
C474 C 0.11593 0.91033 0.11478 0.0
C475 C 0.13659 0.93681 0.10427 0.0
H476 H 0.09479 0.20479 0.94216 0.0
H477 H 0.08144 0.21176 0.13639 0.0
H478 H 0.03638 0.20341 0.11358 0.0
H479 H 0.00199 0.19705 0.0386 0.0
H480 H 0.01444 0.18955 0.84447 0.0
H481 H 0.05883 0.1953 0.86732 0.0
C482 C 0.08195 0.20414 0.97971 0.0
C483 C 0.0917 0.20911 0.04096 0.0
C484 C 0.05606 0.1996 0.96625 0.0
C485 C 0.07462 0.20809 0.08885 0.0
C486 C 0.04885 0.20345 0.07584 0.0
C487 C 0.01441 0.19673 0.00113 0.0
C488 C 0.00512 0.1933 0.93977 0.0
C489 C 0.03962 0.19976 0.01467 0.0
C490 C 0.02121 0.19232 0.89202 0.0
C491 C 0.04656 0.1956 0.9051 0.0
H492 H 0.85214 0.51462 0.28012 0.0
H493 H 0.8418 0.49557 0.47493 0.0
H494 H 0.84714 0.45635 0.45563 0.0
H495 H 0.8583 0.42999 0.38481 0.0
H496 H 0.86983 0.45001 0.19036 0.0
H497 H 0.85989 0.48625 0.20828 0.0
C498 C 0.851 0.50189 0.31849 0.0
C499 C 0.84699 0.50822 0.37906 0.0
C500 C 0.85418 0.47957 0.3071 0.0
C501 C 0.84501 0.4912 0.42796 0.0
C502 C 0.84809 0.46882 0.41694 0.0
C503 C 0.85831 0.442 0.34604 0.0
C504 C 0.8651 0.43743 0.28635 0.0
C505 C 0.85316 0.46314 0.35685 0.0
C506 C 0.86477 0.45311 0.23677 0.0
C507 C 0.85925 0.47395 0.24703 0.0
H508 H 0.51854 0.42706 0.24059 0.0
H509 H 0.57691 0.4285 0.36797 0.0
H510 H 0.54309 0.38487 0.41041 0.0
H511 H 0.49636 0.34659 0.41254 0.0
H512 H 0.43798 0.34717 0.28772 0.0
H513 H 0.47214 0.38978 0.24415 0.0
C514 C 0.52396 0.41755 0.27682 0.0
C515 C 0.55021 0.4307 0.30043 0.0
C516 C 0.50424 0.39302 0.30241 0.0
C517 C 0.55681 0.41856 0.34863 0.0
C518 C 0.53745 0.39373 0.37322 0.0
C519 C 0.49108 0.35622 0.37636 0.0
C520 C 0.46463 0.34355 0.35342 0.0
C521 C 0.51096 0.3809 0.35101 0.0
C522 C 0.4582 0.3563 0.30615 0.0
C523 C 0.47775 0.38068 0.28088 0.0
H524 H 0.5607 0.10487 0.22275 0.0
H525 H 0.55554 0.14865 0.37959 0.0
H526 H 0.59948 0.15712 0.41606 0.0
H527 H 0.63873 0.15047 0.40504 0.0
H528 H 0.64153 0.10419 0.24996 0.0
H529 H 0.59913 0.09808 0.21203 0.0
C530 C 0.56942 0.11675 0.26425 0.0
C531 C 0.55507 0.12645 0.29788 0.0
C532 C 0.59413 0.12068 0.28603 0.0
C533 C 0.56634 0.14118 0.35251 0.0
C534 C 0.59136 0.14585 0.37363 0.0
C535 C 0.62999 0.13892 0.36319 0.0
C536 C 0.64352 0.12791 0.33058 0.0
C537 C 0.60529 0.13532 0.34125 0.0
C538 C 0.63179 0.11304 0.27622 0.0
C539 C 0.60749 0.10956 0.25414 0.0
H540 H 0.48343 0.1741 0.26465 0.0
H541 H 0.42122 0.11434 0.38196 0.0
H542 H 0.41351 0.1487 0.42748 0.0
H543 H 0.42366 0.19548 0.43374 0.0
H544 H 0.48353 0.25527 0.31312 0.0
H545 H 0.49337 0.22143 0.2704 0.0
C546 C 0.46804 0.16859 0.29973 0.0
C547 C 0.45304 0.14163 0.3198 0.0
C548 C 0.46363 0.18857 0.32617 0.0
C549 C 0.43323 0.13491 0.36566 0.0
C550 C 0.42882 0.15458 0.39208 0.0
C551 C 0.43933 0.20122 0.39921 0.0
C552 C 0.45326 0.22787 0.37749 0.0
C553 C 0.44401 0.18147 0.37311 0.0
C554 C 0.47285 0.23489 0.33117 0.0
C555 C 0.47827 0.2155 0.30633 0.0
H556 H 0.78424 0.23554 0.43969 0.0
H557 H 0.7378 0.22903 0.27727 0.0
H558 H 0.7721 0.27422 0.24475 0.0
H559 H 0.81706 0.31415 0.25833 0.0
H560 H 0.86373 0.31926 0.41966 0.0
H561 H 0.8277 0.27613 0.45609 0.0
C562 C 0.7813 0.24423 0.39792 0.0
C563 C 0.75851 0.22894 0.36105 0.0
C564 C 0.80144 0.26985 0.3785 0.0
C565 C 0.75521 0.24039 0.30654 0.0
C566 C 0.7749 0.26617 0.28766 0.0
C567 C 0.81933 0.30585 0.30145 0.0
C568 C 0.84323 0.31998 0.33574 0.0
C569 C 0.79845 0.28081 0.32244 0.0
C570 C 0.84567 0.30892 0.39189 0.0
C571 C 0.82501 0.2842 0.41307 0.0
H572 H 0.66848 0.52591 0.39464 0.0
H573 H 0.67822 0.51244 0.20229 0.0
H574 H 0.72265 0.51828 0.22477 0.0
H575 H 0.75977 0.53096 0.29755 0.0
H576 H 0.74976 0.54523 0.48956 0.0
H577 H 0.70389 0.53484 0.46858 0.0
C578 C 0.68029 0.52422 0.35754 0.0
C579 C 0.67041 0.51925 0.29672 0.0
C580 C 0.7056 0.52765 0.37075 0.0
C581 C 0.68558 0.51643 0.24941 0.0
C582 C 0.71092 0.5198 0.26224 0.0
C583 C 0.74748 0.53145 0.3351 0.0
C584 C 0.75833 0.53921 0.39491 0.0
C585 C 0.7213 0.52593 0.32256 0.0
C586 C 0.74201 0.53953 0.44301 0.0
C587 C 0.71581 0.5337 0.43105 0.0
H588 H 0.53597 0.77223 0.70009 0.0
H589 H 0.53924 0.78985 0.50499 0.0
H590 H 0.5318 0.82736 0.52767 0.0
H591 H 0.52686 0.85658 0.6026 0.0
H592 H 0.52354 0.83935 0.79773 0.0
H593 H 0.52867 0.80023 0.77508 0.0
C594 C 0.53468 0.784 0.66234 0.0
C595 C 0.53825 0.77818 0.60084 0.0
C596 C 0.53077 0.80582 0.67572 0.0
C597 C 0.5366 0.7938 0.55272 0.0
C598 C 0.53248 0.81537 0.56565 0.0
C599 C 0.52733 0.84435 0.64034 0.0
C600 C 0.52513 0.85108 0.70187 0.0
C601 C 0.53006 0.82185 0.62698 0.0
C602 C 0.5253 0.83469 0.75 0.0
C603 C 0.52821 0.81231 0.73706 0.0
H604 H 0.1677 0.67699 0.76226 0.0
H605 H 0.10615 0.68578 0.66851 0.0
H606 H 0.13973 0.72963 0.62923 0.0
H607 H 0.18657 0.76443 0.61634 0.0
H608 H 0.24871 0.75848 0.71404 0.0
H609 H 0.21511 0.71442 0.75614 0.0
C610 C 0.16169 0.68881 0.73435 0.0
C611 C 0.13455 0.67804 0.71777 0.0
C612 C 0.18124 0.71417 0.71131 0.0
C613 C 0.12698 0.69351 0.68135 0.0
C614 C 0.14616 0.71854 0.65852 0.0
C615 C 0.19274 0.75326 0.6462 0.0
C616 C 0.21995 0.76408 0.66085 0.0
C617 C 0.17335 0.72872 0.67186 0.0
C618 C 0.22777 0.75009 0.70139 0.0
C619 C 0.20859 0.72508 0.72575 0.0
H620 H 0.22685 0.46407 0.70984 0.0
H621 H 0.23749 0.46007 0.51303 0.0
H622 H 0.2833 0.46924 0.53024 0.0
H623 H 0.3187 0.47429 0.60144 0.0
H624 H 0.30787 0.47766 0.79818 0.0
H625 H 0.26358 0.47269 0.78047 0.0
C626 C 0.23926 0.4656 0.67046 0.0
C627 C 0.22854 0.46111 0.6102 0.0
C628 C 0.26539 0.47035 0.68072 0.0
C629 C 0.2451 0.46336 0.55992 0.0
C630 C 0.27127 0.46842 0.56973 0.0
C631 C 0.30669 0.47399 0.64051 0.0
C632 C 0.31643 0.47598 0.70112 0.0
C633 C 0.28131 0.47119 0.63001 0.0
C634 C 0.30081 0.47605 0.7511 0.0
C635 C 0.27548 0.4732 0.74101 0.0
H636 H 0.09707 0.52856 0.77543 0.0
H637 H 0.14876 0.58716 0.64074 0.0
H638 H 0.15991 0.55445 0.59703 0.0
H639 H 0.15322 0.50817 0.59444 0.0
H640 H 0.09923 0.44964 0.72718 0.0
H641 H 0.09054 0.48315 0.77327 0.0
C642 C 0.11124 0.53438 0.73739 0.0
C643 C 0.12232 0.5603 0.71189 0.0
C644 C 0.11677 0.51525 0.71116 0.0
C645 C 0.14013 0.56733 0.66152 0.0
C646 C 0.14634 0.54857 0.63618 0.0
C647 C 0.13944 0.50275 0.63313 0.0
C648 C 0.12704 0.47639 0.6572 0.0
C649 C 0.13438 0.52226 0.65991 0.0
C650 C 0.10928 0.46978 0.70769 0.0
C651 C 0.10428 0.48896 0.73442 0.0
H652 H 0.51414 0.65679 0.71344 0.0
H653 H 0.495 0.64616 0.51887 0.0
H654 H 0.45751 0.6007 0.5389 0.0
H655 H 0.43182 0.56324 0.61093 0.0
H656 H 0.45098 0.57432 0.80574 0.0
H657 H 0.48659 0.62052 0.78621 0.0
C658 C 0.50175 0.64456 0.67535 0.0
C659 C 0.50754 0.65477 0.61464 0.0
C660 C 0.48018 0.61856 0.68724 0.0
C661 C 0.49101 0.6388 0.56601 0.0
C662 C 0.4696 0.61279 0.57743 0.0
C663 C 0.44356 0.57579 0.64934 0.0
C664 C 0.43873 0.5651 0.70974 0.0
C665 C 0.4642 0.60236 0.63779 0.0
C666 C 0.45415 0.58186 0.75878 0.0
C667 C 0.47466 0.6083 0.74764 0.0
H668 H 0.42919 0.86209 0.63732 0.0
H669 H 0.42262 0.87938 0.82914 0.0
H670 H 0.37634 0.86861 0.81178 0.0
H671 H 0.33991 0.85926 0.74027 0.0
H672 H 0.3465 0.84321 0.54788 0.0
H673 H 0.39096 0.84861 0.56755 0.0
C674 C 0.41757 0.86312 0.67572 0.0
C675 C 0.42955 0.87192 0.73434 0.0
C676 C 0.39123 0.85757 0.6651 0.0
C677 C 0.41402 0.87284 0.78352 0.0
C678 C 0.3876 0.86685 0.77355 0.0
C679 C 0.35103 0.8569 0.70252 0.0
C680 C 0.34024 0.85141 0.6424 0.0
C681 C 0.3764 0.8601 0.71414 0.0
C682 C 0.35454 0.84768 0.5944 0.0
C683 C 0.37991 0.85078 0.60566 0.0
H684 H 0.14818 0.28319 0.87277 0.0
H685 H 0.21089 0.35789 0.95099 0.0
H686 H 0.20957 0.38229 0.85951 0.0
H687 H 0.18972 0.38228 0.75973 0.0
H688 H 0.1267 0.30736 0.68297 0.0
H689 H 0.13009 0.28282 0.77135 0.0
C690 C 0.16151 0.30486 0.87039 0.0
C691 C 0.17937 0.31877 0.91917 0.0
C692 C 0.16103 0.31854 0.81756 0.0
C693 C 0.19667 0.34678 0.91455 0.0
C694 C 0.19612 0.36066 0.86205 0.0
C695 C 0.17693 0.36052 0.76167 0.0
C696 C 0.15773 0.3467 0.71506 0.0
C697 C 0.17835 0.3467 0.81342 0.0
C698 C 0.14157 0.3185 0.71822 0.0
C699 C 0.14329 0.3045 0.76904 0.0
H700 H 0.65991 0.8677 0.87919 0.0
H701 H 0.70305 0.82785 0.9371 0.0
H702 H 0.69051 0.8015 0.84116 0.0
H703 H 0.66735 0.7902 0.74065 0.0
H704 H 0.62483 0.8307 0.68276 0.0
H705 H 0.63828 0.85769 0.77754 0.0
C706 C 0.66591 0.8527 0.87132 0.0
C707 C 0.6816 0.84896 0.91542 0.0
C708 C 0.65979 0.83878 0.81507 0.0
C709 C 0.69026 0.83034 0.90412 0.0
C710 C 0.68354 0.81572 0.84898 0.0
C711 C 0.66195 0.80567 0.748 0.0
C712 C 0.6458 0.80912 0.70464 0.0
C713 C 0.66869 0.82012 0.80371 0.0
C714 C 0.6379 0.82838 0.71522 0.0
C715 C 0.6451 0.84334 0.76978 0.0
H716 H 0.20763 0.82556 0.81896 0.0
H717 H 0.1794 0.87057 0.71317 0.0
H718 H 0.14842 0.86523 0.79708 0.0
H719 H 0.12834 0.84604 0.89744 0.0
H720 H 0.15653 0.80054 0.00156 0.0
H721 H 0.18956 0.80876 0.92103 0.0
C722 C 0.19461 0.83411 0.81367 0.0
C723 C 0.19542 0.848 0.75925 0.0
C724 C 0.17726 0.83124 0.86193 0.0
C725 C 0.17887 0.85947 0.75419 0.0
C726 C 0.16131 0.85654 0.80221 0.0
C727 C 0.14184 0.83807 0.90297 0.0
C728 C 0.13971 0.82235 0.95511 0.0
C729 C 0.16024 0.84227 0.85596 0.0
C730 C 0.15768 0.81262 0.96189 0.0
C731 C 0.17639 0.8171 0.91565 0.0
H732 H 0.84408 0.70801 0.1074 0.0
H733 H 0.76844 0.63635 0.06505 0.0
H734 H 0.7744 0.61339 0.15382 0.0
H735 H 0.8006 0.61425 0.24354 0.0
H736 H 0.87609 0.68619 0.28545 0.0
H737 H 0.86986 0.70907 0.19724 0.0
C738 C 0.82885 0.68729 0.1171 0.0
C739 C 0.80579 0.6739 0.07956 0.0
C740 C 0.83205 0.67459 0.16871 0.0
C741 C 0.78645 0.64704 0.09289 0.0
C742 C 0.78971 0.63404 0.14395 0.0
C743 C 0.81566 0.63503 0.23388 0.0
C744 C 0.83885 0.6485 0.27108 0.0
C745 C 0.81229 0.64777 0.18243 0.0
C746 C 0.858 0.67543 0.25791 0.0
C747 C 0.8546 0.6884 0.20711 0.0
H748 H 0.33341 0.12376 0.0962 0.0
H749 H 0.28304 0.15726 0.04992 0.0
H750 H 0.29701 0.18451 0.14413 0.0
H751 H 0.32164 0.1969 0.24186 0.0
H752 H 0.37324 0.16485 0.28776 0.0
H753 H 0.35975 0.13777 0.19272 0.0
C754 C 0.32622 0.13769 0.10597 0.0
C755 C 0.30763 0.13896 0.0661 0.0
C756 C 0.33357 0.15249 0.16127 0.0
C757 C 0.29775 0.15642 0.07978 0.0
C758 C 0.30535 0.1716 0.13399 0.0
C759 C 0.32937 0.18345 0.23163 0.0
C760 C 0.34766 0.18207 0.27213 0.0
C761 C 0.32264 0.1692 0.1758 0.0
C762 C 0.3585 0.16551 0.25763 0.0
C763 C 0.35117 0.15045 0.203 0.0
H764 H 0.79206 0.12479 0.22249 0.0
H765 H 0.81804 0.20841 0.25893 0.0
H766 H 0.84569 0.22184 0.16518 0.0
H767 H 0.86165 0.20948 0.07194 0.0
H768 H 0.83537 0.12577 0.0358 0.0
H769 H 0.80755 0.11242 0.12913 0.0
C770 C 0.80439 0.14599 0.21068 0.0
C771 C 0.80367 0.16569 0.24788 0.0
C772 C 0.81924 0.15338 0.1557 0.0
C773 C 0.81887 0.19303 0.23125 0.0
C774 C 0.83429 0.20065 0.17736 0.0
C775 C 0.84924 0.18831 0.08382 0.0
C776 C 0.85001 0.16854 0.04697 0.0
C777 C 0.83423 0.18094 0.13868 0.0
C778 C 0.83457 0.1412 0.06337 0.0
C779 C 0.81906 0.13363 0.11703 0.0
H780 H 0.5368 0.00616 0.56666 0.0
H781 H 0.45334 0.95127 0.6087 0.0
H782 H 0.43978 0.9641 0.51326 0.0
H783 H 0.45182 0.99082 0.41784 0.0
H784 H 0.53514 0.04634 0.3767 0.0
H785 H 0.54887 0.03249 0.47056 0.0
C786 C 0.51564 -0.00241 0.55558 0.0
C787 C 0.49601 0.97833 0.59497 0.0
C788 C 0.50811 0.00434 0.49978 0.0
C789 C 0.46869 0.96657 0.57934 0.0
C790 C 0.46099 0.97358 0.5245 0.0
C791 C 0.47298 -0.00084 0.4286 0.0
C792 C 0.49255 0.01894 0.39014 0.0
C793 C 0.48055 0.99212 0.48394 0.0
C794 C 0.51989 0.03054 0.40531 0.0
C795 C 0.52766 0.02301 0.45935 0.0
H796 H 0.99089 0.53474 0.56974 0.0
H797 H 0.04159 0.50185 0.61684 0.0
H798 H 0.02842 0.47508 0.52138 0.0
H799 H 0.00249 0.46144 0.4243 0.0
H800 H 0.95311 0.49591 0.37649 0.0
H801 H 0.96696 0.52301 0.47087 0.0
C802 C -0.00146 0.52126 0.55956 0.0
C803 C 0.01647 0.51954 0.60061 0.0
C804 C 0.99204 0.5072 0.50339 0.0
C805 C 0.02714 0.50281 0.58628 0.0
C806 C 0.02 0.48793 0.53139 0.0
C807 C -0.0045 0.47554 0.43371 0.0
C808 C 0.97711 0.477 0.39341 0.0
C809 C 0.00276 0.49029 0.48915 0.0
C810 C 0.96762 0.49484 0.40665 0.0
C811 C 0.97513 0.50994 0.46101 0.0
H812 H 0.46743 0.51975 0.56084 0.0
H813 H 0.48046 0.4574 0.63705 0.0
H814 H 0.51088 0.46349 0.55156 0.0
H815 H 0.5301 0.48338 0.45199 0.0
H816 H 0.51683 0.54536 0.37415 0.0
H817 H 0.48886 0.54159 0.46338 0.0
C818 C 0.47715 0.50765 0.55927 0.0
C819 C 0.47143 0.48787 0.60488 0.0
C820 C 0.49373 0.51057 0.50907 0.0
C821 C 0.48455 0.47277 0.60272 0.0
C822 C 0.50162 0.47598 0.55342 0.0
C823 C 0.52105 0.49607 0.45392 0.0
C824 C 0.52526 0.5144 0.40573 0.0
C825 C 0.50561 0.4942 0.50556 0.0
C826 C 0.51357 0.53081 0.40996 0.0
C827 C 0.49784 0.52885 0.46122 0.0
H828 H 0.25466 0.24841 0.15425 0.0
H829 H 0.25287 0.30163 0.29299 0.0
H830 H 0.29485 0.30779 0.33753 0.0
H831 H 0.33019 0.29572 0.33997 0.0
H832 H 0.33306 0.2439 0.19873 0.0
H833 H 0.2929 0.24026 0.15014 0.0
C834 C 0.26347 0.26115 0.19457 0.0
C835 C 0.25062 0.27394 0.2219 0.0
C836 C 0.28789 0.26524 0.21828 0.0
C837 C 0.26239 0.29123 0.27246 0.0
C838 C 0.28637 0.29488 0.29743 0.0
C839 C 0.3223 0.2841 0.29777 0.0
C840 C 0.33425 0.2699 0.27311 0.0
C841 C 0.29911 0.28179 0.27098 0.0
C842 C 0.32419 0.25512 0.21821 0.0
C843 C 0.30105 0.25273 0.19101 0.0
H844 H 0.68824 0.03476 0.30732 0.0
H845 H 0.74093 0.09212 0.17158 0.0
H846 H 0.74469 0.05643 0.11831 0.0
H847 H 0.73702 0.01003 0.11764 0.0
H848 H 0.68291 0.95222 0.25053 0.0
H849 H 0.67573 0.98703 0.2983 0.0
C850 C 0.70001 0.03924 0.26519 0.0
C851 C 0.7144 0.06594 0.24347 0.0
C852 C 0.70226 0.01872 0.23532 0.0
C853 C 0.72948 0.07163 0.18876 0.0
C854 C 0.73192 0.05131 0.15881 0.0
C855 C 0.72362 0.00517 0.15699 0.0
C856 C 0.71096 0.97899 0.1818 0.0
C857 C 0.71914 0.02503 0.18296 0.0
C858 C 0.69305 0.97245 0.23148 0.0
C859 C 0.68893 0.99227 0.25856 0.0
H860 H 0.95751 0.64494 0.33748 0.0
H861 H 0.90152 0.64413 0.20342 0.0
H862 H 0.93708 0.68604 0.15842 0.0
H863 H 0.98267 0.72566 0.16556 0.0
H864 H 0.03893 0.72597 0.29767 0.0
H865 H 0.00447 0.68172 0.33643 0.0
C866 C 0.95331 0.65357 0.2973 0.0
C867 C 0.92693 0.64157 0.27402 0.0
C868 C 0.97362 0.678 0.27288 0.0
C869 C 0.92171 0.65281 0.2218 0.0
C870 C 0.94192 0.67704 0.19676 0.0
C871 C 0.98719 0.71601 0.20314 0.0
C872 C 0.01281 0.72916 0.23039 0.0
C873 C 0.96761 0.69032 0.22358 0.0
C874 C 0.01904 0.71628 0.27727 0.0
C875 C -0.00053 0.69098 0.29893 0.0
H876 H 0.70085 0.69814 0.84239 0.0
H877 H 0.75801 0.74653 0.70152 0.0
H878 H 0.72243 0.74842 0.64381 0.0
H879 H 0.67597 0.73736 0.63462 0.0
H880 H 0.61855 0.69237 0.77788 0.0
H881 H 0.65355 0.68822 0.83443 0.0
C882 C 0.70534 0.70883 0.79869 0.0
C883 C 0.73186 0.7219 0.77551 0.0
C884 C 0.68492 0.71055 0.76682 0.0
C885 C 0.73771 0.73626 0.71983 0.0
C886 C 0.71742 0.73735 0.687 0.0
C887 C 0.67092 0.72633 0.67794 0.0
C888 C 0.6446 0.71466 0.70159 0.0
C889 C 0.69108 0.72469 0.71022 0.0
C890 C 0.63863 0.70128 0.75867 0.0
C891 C 0.65861 0.69892 0.79075 0.0
H892 H 0.25197 0.91522 0.77212 0.0
H893 H 0.32859 0.9638 0.68332 0.0
H894 H 0.32971 0.00512 0.71936 0.0
H895 H 0.30621 0.02699 0.76711 0.0
H896 H 0.22645 0.97695 0.84188 0.0
H897 H 0.22885 0.93658 0.81919 0.0
C898 C 0.26932 0.9349 0.76265 0.0
C899 C 0.29056 0.93675 0.7271 0.0
C900 C 0.26874 0.95822 0.77916 0.0
C901 C 0.31244 0.96216 0.71231 0.0
C902 C 0.31282 0.98566 0.73201 0.0
C903 C 0.2894 0.00721 0.7782 0.0
C904 C 0.26608 0.00493 0.80533 0.0
C905 C 0.29064 0.98391 0.76377 0.0
C906 C 0.24441 0.97923 0.81974 0.0
C907 C 0.24586 0.95612 0.8075 0.0
H908 H 0.00131 0.26308 0.8318 0.0
H909 H 0.94852 0.26236 0.68948 0.0
H910 H 0.98501 0.30498 0.64791 0.0
H911 H 0.03272 0.34014 0.64808 0.0
H912 H 0.08502 0.34145 0.79286 0.0
H913 H 0.04752 0.30132 0.83943 0.0
C914 C -0.00204 0.27233 0.79155 0.0
C915 C 0.9728 0.25954 0.76223 0.0
C916 C 0.01867 0.29701 0.76938 0.0
C917 C 0.96806 0.27185 0.71163 0.0
C918 C 0.98879 0.29617 0.68829 0.0
C919 C 0.03572 0.33195 0.69061 0.0
C920 C 0.06156 0.3435 0.7168 0.0
C921 C 0.01427 0.30867 0.71632 0.0
C922 C 0.06525 0.33298 0.77216 0.0
C923 C 0.04393 0.30983 0.79825 0.0
H924 H 0.94374 0.64084 0.57543 0.0
H925 H 0.90527 0.55883 0.50769 0.0
H926 H 0.94547 0.5564 0.52965 0.0
H927 H 0.98985 0.57586 0.57592 0.0
H928 H 0.02649 0.65494 0.65764 0.0
H929 H 0.98936 0.66088 0.62046 0.0
C930 C 0.94425 0.62249 0.56576 0.0
C931 C 0.92147 0.59993 0.54116 0.0
C932 C 0.96731 0.62096 0.57978 0.0
C933 C 0.92233 0.57627 0.52822 0.0
C934 C 0.94541 0.57492 0.53997 0.0
C935 C 0.99005 0.5947 0.58347 0.0
C936 C 0.01087 0.61521 0.61761 0.0
C937 C 0.96783 0.59698 0.56641 0.0
C938 C 0.01077 0.63925 0.62976 0.0
C939 C 0.98939 0.64241 0.60949 0.0
H940 H 0.38282 0.33308 0.46825 0.0
H941 H 0.3552 0.28475 0.63346 0.0
H942 H 0.34721 0.31876 0.6829 0.0
H943 H 0.35344 0.36446 0.68273 0.0
H944 H 0.38115 0.413 0.51758 0.0
H945 H 0.38253 0.37617 0.46311 0.0
C946 C 0.37487 0.33006 0.51493 0.0
C947 C 0.37015 0.30699 0.54812 0.0
C948 C 0.37 0.34947 0.54242 0.0
C949 C 0.35929 0.30267 0.60782 0.0
C950 C 0.35465 0.32201 0.6358 0.0
C951 C 0.35895 0.36663 0.63419 0.0
C952 C 0.3674 0.39147 0.60431 0.0
C953 C 0.36056 0.34577 0.60403 0.0
C954 C 0.37435 0.39403 0.54142 0.0
C955 C 0.37561 0.37314 0.51063 0.0
H956 H 0.64582 0.05879 0.45804 0.0
H957 H 0.70492 0.06404 0.58851 0.0
H958 H 0.671 0.02222 0.6383 0.0
H959 H 0.62358 0.98726 0.65075 0.0
H960 H 0.56479 0.98133 0.51819 0.0
H961 H 0.59978 0.01984 0.46133 0.0
C962 C 0.65116 0.05062 0.49729 0.0
C963 C 0.6774 0.06455 0.52102 0.0
C964 C 0.63179 0.02638 0.52443 0.0
C965 C 0.6846 0.05364 0.57046 0.0
C966 C 0.6653 0.02979 0.59862 0.0
C967 C 0.61865 0.99396 0.60835 0.0
C968 C 0.59175 0.98171 0.58874 0.0
C969 C 0.63872 0.01634 0.57674 0.0
C970 C 0.58545 0.99033 0.53373 0.0
C971 C 0.60536 0.0126 0.5018 0.0
H972 H 0.3123 0.01912 0.00786 0.0
H973 H 0.30815 0.07264 0.14242 0.0
H974 H 0.34986 0.07978 0.18979 0.0
H975 H 0.39018 0.07492 0.18496 0.0
H976 H 0.3937 0.02043 0.05241 0.0
H977 H 0.3497 0.00982 0.01134 0.0
C978 C 0.32014 0.03173 0.04868 0.0
C979 C 0.30723 0.04542 0.07145 0.0
C980 C 0.34439 0.03618 0.07473 0.0
C981 C 0.31752 0.06164 0.12442 0.0
C982 C 0.34162 0.06609 0.15087 0.0
C983 C 0.38128 0.0608 0.14692 0.0
C984 C 0.39534 0.049 0.12039 0.0
C985 C 0.35572 0.05427 0.12488 0.0
C986 C 0.38334 0.03005 0.07267 0.0
C987 C 0.35818 0.0239 0.04951 0.0
H988 H 0.91164 0.24585 0.09169 0.0
H989 H 0.98183 0.29523 0.98124 0.0
H990 H 0.9862 0.33617 0.02917 0.0
H991 H 0.96677 0.35775 0.09419 0.0
H992 H 0.89286 0.30752 0.19296 0.0
H993 H 0.89293 0.26708 0.15768 0.0
C994 C 0.92833 0.26559 0.07971 0.0
C995 C 0.94676 0.26776 0.03441 0.0
C996 C 0.92956 0.28884 0.10419 0.0
C997 C 0.96779 0.29331 0.01714 0.0
C998 C 0.97006 0.31662 0.04393 0.0
C999 C 0.95082 0.33792 0.10808 0.0
C1000 C 0.92971 0.33554 0.14544 0.0
C1001 C 0.95054 0.31465 0.08608 0.0
C1002 C 0.90907 0.30979 0.16324 0.0
C1003 C 0.90919 0.28667 0.14353 0.0
H1004 H 0.74088 0.66308 0.08867 0.0
H1005 H 0.69466 0.70132 0.04547 0.0
H1006 H 0.65319 0.66045 0.0769 0.0
H1007 H 0.62995 0.61234 0.10629 0.0
H1008 H 0.67668 0.5731 0.13621 0.0
H1009 H 0.718 0.61552 0.11802 0.0
C1010 C 0.7218 0.6627 0.0883 0.0
C1011 C 0.72075 0.68529 0.06685 0.0
C1012 C 0.69806 0.63857 0.10146 0.0
C1013 C 0.69589 0.68437 0.06391 0.0
C1014 C 0.67221 0.66085 0.08061 0.0
C1015 C 0.64914 0.613 0.10835 0.0
C1016 C 0.65005 0.58938 0.12198 0.0
C1017 C 0.67298 0.63752 0.09738 0.0
C1018 C 0.6752 0.59075 0.12479 0.0
C1019 C 0.69894 0.61511 0.11519 0.0
H1020 H 0.59848 0.92607 0.79652 0.0
H1021 H 0.60449 0.98478 0.93012 0.0
H1022 H 0.64691 0.98966 0.96868 0.0
H1023 H 0.67867 0.97272 0.97207 0.0
H1024 H 0.67298 0.91457 0.83694 0.0
H1025 H 0.63441 0.91464 0.7892 0.0
C1026 C 0.60928 0.94004 0.83384 0.0
C1027 C 0.59835 0.95453 0.86197 0.0
C1028 C 0.63366 0.94299 0.85468 0.0
C1029 C 0.61258 0.9732 0.90882 0.0
C1030 C 0.63674 0.97599 0.93058 0.0
C1031 C 0.6694 0.96066 0.93108 0.0
C1032 C 0.67823 0.94336 0.90844 0.0
C1033 C 0.64702 0.96043 0.90489 0.0
C1034 C 0.66645 0.92803 0.85502 0.0
C1035 C 0.64421 0.92781 0.82829 0.0
H1036 H 0.03167 0.65275 0.82347 0.0
H1037 H 0.0476 0.62372 0.99291 0.0
H1038 H 0.0437 0.65826 0.05162 0.0
H1039 H 0.0412 0.69934 0.05276 0.0
H1040 H 0.03113 0.73258 0.88243 0.0
H1041 H 0.0262 0.69315 0.82592 0.0
C1042 C 0.03383 0.65388 0.87339 0.0
C1043 C 0.03987 0.63596 0.9044 0.0
C1044 C 0.03258 0.67443 0.90629 0.0
C1045 C 0.04297 0.63747 0.96867 0.0
C1046 C 0.04074 0.65714 0.00198 0.0
C1047 C 0.0376 0.69793 0.0033 0.0
C1048 C 0.03703 0.71918 0.9717 0.0
C1049 C 0.03634 0.67615 0.97101 0.0
C1050 C 0.03174 0.71661 0.9079 0.0
C1051 C 0.02923 0.6942 0.87552 0.0
H1052 H 0.24507 0.33164 0.91738 0.0
H1053 H 0.29021 0.29512 0.98286 0.0
H1054 H 0.33202 0.33357 0.94325 0.0
H1055 H 0.35584 0.37949 0.89763 0.0
H1056 H 0.30997 0.41752 0.84595 0.0
H1057 H 0.26838 0.37691 0.87374 0.0
C1058 C 0.26401 0.33181 0.92116 0.0
C1059 C 0.26472 0.31043 0.95082 0.0
C1060 C 0.28787 0.35465 0.90252 0.0
C1061 C 0.28933 0.31116 0.95829 0.0
C1062 C 0.31317 0.33327 0.93655 0.0
C1063 C 0.33673 0.37885 0.89277 0.0
C1064 C 0.33606 0.40161 0.87042 0.0
C1065 C 0.31276 0.35549 0.91005 0.0
C1066 C 0.31114 0.40051 0.86419 0.0
C1067 C 0.28728 0.37718 0.87938 0.0
H1068 H 0.97876 0.35505 0.35385 0.0
H1069 H 0.9806 0.41463 0.47937 0.0
H1070 H 0.02266 0.42138 0.52386 0.0
H1071 H 0.06147 0.41412 0.51802 0.0
H1072 H 0.05916 0.35418 0.39307 0.0
H1073 H 0.01481 0.3441 0.35622 0.0
C1074 C 0.98805 0.36904 0.392 0.0
C1075 C 0.97687 0.38457 0.41281 0.0
C1076 C 0.01248 0.3733 0.416 0.0
C1077 C 0.98882 0.40239 0.46269 0.0
C1078 C 0.01307 0.40655 0.48746 0.0
C1079 C 0.05125 0.399 0.48243 0.0
C1080 C 0.06367 0.38539 0.45684 0.0
C1081 C 0.02558 0.3929 0.46268 0.0
C1082 C 0.05002 0.36516 0.41245 0.0
C1083 C 0.02468 0.3593 0.39176 0.0
H1084 H 0.63914 0.69475 0.41648 0.0
H1085 H 0.55481 0.64829 0.46407 0.0
H1086 H 0.55496 0.60661 0.444 0.0
H1087 H 0.57802 0.58319 0.40819 0.0
H1088 H 0.66029 0.62859 0.34724 0.0
H1089 H 0.66244 0.67084 0.37955 0.0
C1090 C 0.6208 0.67551 0.42206 0.0
C1091 C 0.59697 0.67475 0.44111 0.0
C1092 C 0.62086 0.65142 0.40962 0.0
C1093 C 0.57335 0.6496 0.44836 0.0
C1094 C 0.57344 0.62566 0.43766 0.0
C1095 C 0.59666 0.60232 0.40407 0.0
C1096 C 0.61925 0.603 0.37762 0.0
C1097 C 0.59701 0.62634 0.41822 0.0
C1098 C 0.64299 0.62779 0.3695 0.0
C1099 C 0.64402 0.65186 0.38692 0.0
H1100 H 0.38507 0.97326 0.31288 0.0
H1101 H 0.39046 0.03002 0.4516 0.0
H1102 H 0.35087 0.99376 0.50438 0.0
H1103 H 0.3155 0.94576 0.51086 0.0
H1104 H 0.31347 0.88913 0.37601 0.0
H1105 H 0.35116 0.9259 0.32059 0.0
C1106 C 0.37744 0.97783 0.35436 0.0
C1107 C 0.39024 0.00427 0.37801 0.0
C1108 C 0.35538 0.95701 0.38456 0.0
C1109 C 0.38073 0.00978 0.43265 0.0
C1110 C 0.35815 0.98913 0.46251 0.0
C1111 C 0.32316 0.94165 0.4688 0.0
C1112 C 0.31167 0.91504 0.44654 0.0
C1113 C 0.34536 0.96268 0.43875 0.0
C1114 C 0.32202 0.90958 0.39329 0.0
C1115 C 0.34351 0.93051 0.36191 0.0
H1116 H 0.18222 0.34416 0.20239 0.0
H1117 H 0.14142 0.26752 0.29767 0.0
H1118 H 0.13304 0.28894 0.38535 0.0
H1119 H 0.13839 0.32898 0.43648 0.0
H1120 H 0.17814 0.4061 0.34374 0.0
H1121 H 0.18596 0.3848 0.25337 0.0
C1122 C 0.17124 0.33206 0.24203 0.0
C1123 C 0.16258 0.30416 0.24322 0.0
C1124 C 0.16659 0.3446 0.29296 0.0
C1125 C 0.14843 0.28894 0.29522 0.0
C1126 C 0.14368 0.3012 0.34562 0.0
C1127 C 0.14898 0.34138 0.39685 0.0
C1128 C 0.15804 0.36929 0.39746 0.0
C1129 C 0.153 0.329 0.34529 0.0
C1130 C 0.17116 0.38467 0.34483 0.0
C1131 C 0.17555 0.37245 0.29314 0.0
H1132 H 0.65503 0.84443 0.19286 0.0
H1133 H 0.73012 0.88665 0.29239 0.0
H1134 H 0.70899 0.85745 0.38217 0.0
H1135 H 0.66921 0.81993 0.43191 0.0
H1136 H 0.5942 0.77856 0.33155 0.0
H1137 H 0.61541 0.80788 0.24267 0.0
C1138 C 0.667 0.84726 0.2339 0.0
C1139 C 0.69433 0.86769 0.23539 0.0
C1140 C 0.65464 0.83072 0.28544 0.0
C1141 C 0.70917 0.87108 0.2896 0.0
C1142 C 0.69704 0.85442 0.34105 0.0
C1143 C 0.65737 0.81736 0.39082 0.0
C1144 C 0.63001 0.7969 0.38876 0.0
C1145 C 0.66976 0.83423 0.33951 0.0
C1146 C 0.61518 0.79404 0.33482 0.0
C1147 C 0.62735 0.81076 0.28377 0.0
H1148 H 0.14244 0.80218 0.24729 0.0
H1149 H 0.11038 0.84888 0.33009 0.0
H1150 H 0.13971 0.85797 0.42008 0.0
H1151 H 0.1751 0.85314 0.47404 0.0
H1152 H 0.20566 0.80523 0.38991 0.0
H1153 H 0.17587 0.79587 0.30201 0.0
C1154 C 0.14191 0.81457 0.28466 0.0
C1155 C 0.12443 0.82516 0.28133 0.0
C1156 C 0.15839 0.81926 0.3364 0.0
C1157 C 0.12375 0.84065 0.33108 0.0
C1158 C 0.14047 0.84576 0.38263 0.0
C1159 C 0.17507 0.8404 0.43685 0.0
C1160 C 0.19281 0.83 0.4389 0.0
C1161 C 0.1579 0.83516 0.38578 0.0
C1162 C 0.19238 0.81358 0.38994 0.0
C1163 C 0.1754 0.80828 0.33934 0.0
H1164 H 0.82427 0.61203 0.65481 0.0
H1165 H 0.84512 0.67453 0.5183 0.0
H1166 H 0.83646 0.70117 0.59243 0.0
H1167 H 0.82337 0.70734 0.69606 0.0
H1168 H 0.80163 0.64498 0.83304 0.0
H1169 H 0.81041 0.61802 0.75906 0.0
C1170 C 0.82671 0.63136 0.64116 0.0
C1171 C 0.83545 0.64115 0.58093 0.0
C1172 C 0.82177 0.64687 0.68433 0.0
C1173 C 0.83858 0.66639 0.56431 0.0
C1174 C 0.83367 0.68178 0.60675 0.0
C1175 C 0.82076 0.68797 0.70999 0.0
C1176 C 0.81197 0.67835 0.77017 0.0
C1177 C 0.82547 0.67235 0.667 0.0
C1178 C 0.80838 0.65296 0.787 0.0
C1179 C 0.81334 0.63745 0.74466 0.0
H1180 H 0.33485 0.14921 0.79077 0.0
H1181 H 0.26019 0.1058 0.68982 0.0
H1182 H 0.28084 0.13509 0.60078 0.0
H1183 H 0.31971 0.17257 0.55116 0.0
H1184 H 0.39442 0.21716 0.6511 0.0
H1185 H 0.37409 0.18754 0.74068 0.0
C1186 C 0.32298 0.14619 0.74948 0.0
C1187 C 0.29585 0.12517 0.74746 0.0
C1188 C 0.33506 0.16314 0.69797 0.0
C1189 C 0.28099 0.12171 0.69318 0.0
C1190 C 0.29284 0.13843 0.64198 0.0
C1191 C 0.33179 0.17583 0.59221 0.0
C1192 C 0.35876 0.19711 0.59385 0.0
C1193 C 0.31985 0.15908 0.64374 0.0
C1194 C 0.37373 0.20095 0.64812 0.0
C1195 C 0.36205 0.18406 0.69951 0.0
H1196 H 0.81069 0.14367 0.52824 0.0
H1197 H 0.76846 0.1771 0.62626 0.0
H1198 H 0.79716 0.18511 0.71669 0.0
H1199 H 0.83435 0.18267 0.76776 0.0
H1200 H 0.87581 0.14857 0.66883 0.0
H1201 H 0.84695 0.14047 0.57934 0.0
C1202 C 0.80778 0.15293 0.56908 0.0
C1203 C 0.78745 0.15998 0.56988 0.0
C1204 C 0.82406 0.15708 0.62116 0.0
C1205 C 0.78396 0.17159 0.62391 0.0
C1206 C 0.80033 0.17608 0.6758 0.0
C1207 C 0.83697 0.17322 0.72691 0.0
C1208 C 0.85737 0.16623 0.72551 0.0
C1209 C 0.82038 0.1688 0.67505 0.0
C1210 C 0.86038 0.15415 0.67169 0.0
C1211 C 0.84392 0.1496 0.62022 0.0
H1212 H 0.48483 0.00113 0.11799 0.0
H1213 H 0.50607 0.07271 0.01085 0.0
H1214 H 0.51469 0.05199 0.92075 0.0
H1215 H 0.51544 0.01303 0.87236 0.0
H1216 H 0.49269 0.9415 0.98143 0.0
H1217 H 0.48504 0.96277 0.07057 0.0
C1218 C 0.49154 0.01248 0.07522 0.0
C1219 C 0.49492 0.03865 0.07168 0.0
C1220 C 0.49588 0.00027 0.0236 0.0
C1221 C 0.50343 0.05267 0.0153 0.0
C1222 C 0.50822 0.04074 0.96364 0.0
C1223 C 0.50864 0.00198 0.91547 0.0
C1224 C 0.50464 0.97554 0.91973 0.0
C1225 C 0.5043 0.01443 0.96714 0.0
C1226 C 0.49591 0.96174 0.97632 0.0
C1227 C 0.49162 0.97395 0.02759 0.0
H1228 H 6e-05 0.4741 0.11591 0.0
H1229 H 0.92233 0.43759 0.02721 0.0
H1230 H 0.94267 0.46663 0.93694 0.0
H1231 H 0.9824 0.503 0.88424 0.0
H1232 H 0.05987 0.53929 0.97433 0.0
H1233 H 0.03964 0.50932 0.06269 0.0
C1234 C 0.98739 0.47244 0.07708 0.0
C1235 C 0.95953 0.45367 0.07892 0.0
C1236 C -0.00076 0.48903 0.02524 0.0
C1237 C 0.94373 0.45184 0.02751 0.0
C1238 C 0.9554 0.46842 0.97572 0.0
C1239 C -0.005 0.50421 0.92281 0.0
C1240 C 0.02275 0.52351 0.92223 0.0
C1241 C 0.98314 0.48711 0.97411 0.0
C1242 C 0.03854 0.52474 0.97313 0.0
C1243 C 0.02695 0.50765 0.02393 0.0
H1244 H 0.47445 0.46851 0.89317 0.0
H1245 H 0.44407 0.51746 0.97201 0.0
H1246 H 0.47434 0.52809 0.06028 0.0
H1247 H 0.50954 0.52353 0.11493 0.0
H1248 H 0.5395 0.4744 0.03495 0.0
H1249 H 0.50899 0.46362 0.94766 0.0
C1250 C 0.47445 0.48165 0.92936 0.0
C1251 C 0.45697 0.49224 0.9255 0.0
C1252 C 0.4917 0.48747 0.98019 0.0
C1253 C 0.45729 0.50906 0.97341 0.0
C1254 C 0.47456 0.51508 0.02408 0.0
C1255 C 0.50927 0.51027 0.07873 0.0
C1256 C 0.52688 0.49978 0.08185 0.0
C1257 C 0.4918 0.50432 0.02807 0.0
C1258 C 0.52627 0.4828 0.03404 0.0
C1259 C 0.50885 0.47666 0.98389 0.0
loop_
_geom_bond_atom_site_label_1
_geom_bond_atom_site_label_2
_geom_bond_distance
_geom_bond_site_symmetry_2
_ccdc_geom_bond_type
Sc0 O3 2.025 1_556 S
Sc0 O10 2.105 . S
Sc0 O13 2.105 . S
Sc0 O16 2.105 . S
Sc0 O19 2.105 . S
Sc1 O3 2.025 . S
Sc1 O11 2.105 . S
Sc1 O15 2.105 . S
Sc1 O17 2.118 . S
Sc1 O21 2.105 . S
Sc2 O3 2.025 . S
Sc2 O12 2.105 . S
Sc2 O14 2.105 . S
Sc2 O18 2.105 . S
Sc2 O20 2.105 . S
O3 Sc0 2.025 1_554 S
O3 Sc1 2.025 . S
O3 Sc2 2.025 . S
C4 O10 1.268 1_554 S
C4 O20 1.268 . S
C5 O11 1.268 1_556 S
C5 O19 1.268 . S
C6 O12 1.268 . S
C6 O21 1.268 . S
C7 O13 1.268 . S
C7 O17 1.254 1_556 S
C8 O14 1.268 . S
C8 O16 1.268 1_554 S
C9 O15 1.268 . S
C9 O18 1.268 . S
O10 Sc0 2.105 . S
O10 C4 1.268 1_556 S
O11 Sc1 2.105 . S
O11 C5 1.268 1_554 S
O12 Sc2 2.105 . S
O12 C6 1.268 . S
O13 Sc0 2.105 . S
O13 C7 1.268 . S
O14 Sc2 2.105 . S
O14 C8 1.268 . S
O15 Sc1 2.105 . S
O15 C9 1.268 . S
O16 Sc0 2.105 . S
O16 C8 1.268 1_556 S
O17 Sc1 2.118 . S
O17 C7 1.254 1_554 S
O18 Sc2 2.105 . S
O18 C9 1.268 . S
O19 Sc0 2.105 . S
O19 C5 1.268 . S
O20 Sc2 2.105 . S
O20 C4 1.268 . S
O21 Sc1 2.105 . S
O21 C6 1.268 . S
Sc22 O25 2.025 1_556 S
Sc22 O32 2.105 . S
Sc22 O35 2.105 . S
Sc22 O38 2.105 . S
Sc22 O41 2.105 . S
Sc23 O25 2.025 . S
Sc23 O33 2.105 . S
Sc23 O37 2.105 . S
Sc23 O39 2.118 . S
Sc23 O43 2.105 . S
Sc24 O25 2.025 . S
Sc24 O34 2.105 . S
Sc24 O36 2.105 . S
Sc24 O40 2.105 . S
Sc24 O42 2.105 . S
O25 Sc22 2.025 1_554 S
O25 Sc23 2.025 . S
O25 Sc24 2.025 . S
C26 O32 1.268 1_554 S
C26 O42 1.268 . S
C27 O33 1.268 1_556 S
C27 O41 1.268 . S
C28 O34 1.268 . S
C28 O43 1.268 . S
C29 O35 1.268 . S
C29 O39 1.254 1_556 S
C30 O36 1.268 . S
C30 O38 1.268 1_554 S
C31 O37 1.268 . S
C31 O40 1.268 . S
O32 Sc22 2.105 . S
O32 C26 1.268 1_556 S
O33 Sc23 2.105 . S
O33 C27 1.268 1_554 S
O34 Sc24 2.105 . S
O34 C28 1.268 . S
O35 Sc22 2.105 . S
O35 C29 1.268 . S
O36 Sc24 2.105 . S
O36 C30 1.268 . S
O37 Sc23 2.105 . S
O37 C31 1.268 . S
O38 Sc22 2.105 . S
O38 C30 1.268 1_556 S
O39 Sc23 2.118 . S
O39 C29 1.254 1_554 S
O40 Sc24 2.105 . S
O40 C31 1.268 . S
O41 Sc22 2.105 . S
O41 C27 1.268 . S
O42 Sc24 2.105 . S
O42 C26 1.268 . S
O43 Sc23 2.105 . S
O43 C28 1.268 . S
Sc44 O47 2.025 1_556 S
Sc44 O54 2.105 . S
Sc44 O57 2.105 . S
Sc44 O60 2.105 . S
Sc44 O63 2.105 . S
Sc45 O47 2.025 . S
Sc45 O55 2.105 . S
Sc45 O59 2.105 . S
Sc45 O61 2.118 . S
Sc45 O65 2.105 . S
Sc46 O47 2.025 . S
Sc46 O56 2.105 . S
Sc46 O58 2.105 . S
Sc46 O62 2.105 . S
Sc46 O64 2.105 . S
O47 Sc44 2.025 1_554 S
O47 Sc45 2.025 . S
O47 Sc46 2.025 . S
C48 O54 1.268 1_554 S
C48 O64 1.268 . S
C49 O55 1.268 1_556 S
C49 O63 1.268 . S
C50 O56 1.268 . S
C50 O65 1.268 . S
C51 O57 1.268 . S
C51 O61 1.254 1_556 S
C52 O58 1.268 . S
C52 O60 1.268 1_554 S
C53 O59 1.268 . S
C53 O62 1.268 . S
O54 Sc44 2.105 . S
O54 C48 1.268 1_556 S
O55 Sc45 2.105 . S
O55 C49 1.268 1_554 S
O56 Sc46 2.105 . S
O56 C50 1.268 . S
O57 Sc44 2.105 . S
O57 C51 1.268 . S
O58 Sc46 2.105 . S
O58 C52 1.268 . S
O59 Sc45 2.105 . S
O59 C53 1.268 . S
O60 Sc44 2.105 . S
O60 C52 1.268 1_556 S
O61 Sc45 2.118 . S
O61 C51 1.254 1_554 S
O62 Sc46 2.105 . S
O62 C53 1.268 . S
O63 Sc44 2.105 . S
O63 C49 1.268 . S
O64 Sc46 2.105 . S
O64 C48 1.268 . S
O65 Sc45 2.105 . S
O65 C50 1.268 . S
Sc66 O69 2.025 . S
Sc66 O76 2.105 . S
Sc66 O79 2.105 . S
Sc66 O82 2.105 . S
Sc66 O85 2.105 . S
Sc67 O69 2.025 . S
Sc67 O77 2.105 . S
Sc67 O81 2.118 . S
Sc67 O83 2.105 . S
Sc67 O87 2.105 . S
Sc68 O69 2.025 1_554 S
Sc68 O78 2.105 . S
Sc68 O80 2.105 . S
Sc68 O84 2.105 . S
Sc68 O86 2.105 . S
O69 Sc66 2.025 . S
O69 Sc67 2.025 . S
O69 Sc68 2.025 1_556 S
C70 O76 1.268 . S
C70 O86 1.268 1_556 S
C71 O77 1.268 . S
C71 O85 1.268 . S
C72 O78 1.268 . S
C72 O87 1.268 1_554 S
C73 O79 1.268 . S
C73 O83 1.268 . S
C74 O80 1.268 1_556 S
C74 O82 1.268 . S
C75 O81 1.254 1_554 S
C75 O84 1.268 . S
O76 Sc66 2.105 . S
O76 C70 1.268 . S
O77 Sc67 2.105 . S
O77 C71 1.268 . S
O78 Sc68 2.105 . S
O78 C72 1.268 . S
O79 Sc66 2.105 . S
O79 C73 1.268 . S
O80 Sc68 2.105 . S
O80 C74 1.268 1_554 S
O81 Sc67 2.118 . S
O81 C75 1.254 1_556 S
O82 Sc66 2.105 . S
O82 C74 1.268 . S
O83 Sc67 2.105 . S
O83 C73 1.268 . S
O84 Sc68 2.105 . S
O84 C75 1.268 . S
O85 Sc66 2.105 . S
O85 C71 1.268 . S
O86 Sc68 2.105 . S
O86 C70 1.268 1_554 S
O87 Sc67 2.105 . S
O87 C72 1.268 1_556 S
Sc88 O91 2.025 . S
Sc88 O98 2.105 . S
Sc88 O101 2.105 . S
Sc88 O104 2.105 . S
Sc88 O107 2.105 . S
Sc89 O91 2.025 . S
Sc89 O99 2.105 . S
Sc89 O103 2.118 . S
Sc89 O105 2.105 . S
Sc89 O109 2.105 . S
Sc90 O91 2.025 1_554 S
Sc90 O100 2.105 . S
Sc90 O102 2.105 . S
Sc90 O106 2.105 . S
Sc90 O108 2.105 . S
O91 Sc88 2.025 . S
O91 Sc89 2.025 . S
O91 Sc90 2.025 1_556 S
C92 O98 1.268 . S
C92 O108 1.268 1_556 S
C93 O99 1.268 . S
C93 O107 1.268 . S
C94 O100 1.268 . S
C94 O109 1.268 1_554 S
C95 O101 1.268 . S
C95 O105 1.268 . S
C96 O102 1.268 1_556 S
C96 O104 1.268 . S
C97 O103 1.254 1_554 S
C97 O106 1.268 . S
O98 Sc88 2.105 . S
O98 C92 1.268 . S
O99 Sc89 2.105 . S
O99 C93 1.268 . S
O100 Sc90 2.105 . S
O100 C94 1.268 . S
O101 Sc88 2.105 . S
O101 C95 1.268 . S
O102 Sc90 2.105 . S
O102 C96 1.268 1_554 S
O103 Sc89 2.118 . S
O103 C97 1.254 1_556 S
O104 Sc88 2.105 . S
O104 C96 1.268 . S
O105 Sc89 2.105 . S
O105 C95 1.268 . S
O106 Sc90 2.105 . S
O106 C97 1.268 . S
O107 Sc88 2.105 . S
O107 C93 1.268 . S
O108 Sc90 2.105 . S
O108 C92 1.268 1_554 S
O109 Sc89 2.105 . S
O109 C94 1.268 1_556 S
Sc110 O113 2.025 . S
Sc110 O120 2.105 . S
Sc110 O123 2.105 . S
Sc110 O126 2.105 . S
Sc110 O129 2.105 . S
Sc111 O113 2.025 . S
Sc111 O121 2.105 . S
Sc111 O125 2.118 . S
Sc111 O127 2.105 . S
Sc111 O131 2.105 . S
Sc112 O113 2.025 1_554 S
Sc112 O122 2.105 . S
Sc112 O124 2.105 . S
Sc112 O128 2.105 . S
Sc112 O130 2.105 . S
O113 Sc110 2.025 . S
O113 Sc111 2.025 . S
O113 Sc112 2.025 1_556 S
C114 O120 1.268 . S
C114 O130 1.268 1_556 S
C115 O121 1.268 . S
C115 O129 1.268 . S
C116 O122 1.268 . S
C116 O131 1.268 1_554 S
C117 O123 1.268 . S
C117 O127 1.268 . S
C118 O124 1.268 1_556 S
C118 O126 1.268 . S
C119 O125 1.254 1_554 S
C119 O128 1.268 . S
O120 Sc110 2.105 . S
O120 C114 1.268 . S
O121 Sc111 2.105 . S
O121 C115 1.268 . S
O122 Sc112 2.105 . S
O122 C116 1.268 . S
O123 Sc110 2.105 . S
O123 C117 1.268 . S
O124 Sc112 2.105 . S
O124 C118 1.268 1_554 S
O125 Sc111 2.118 . S
O125 C119 1.254 1_556 S
O126 Sc110 2.105 . S
O126 C118 1.268 . S
O127 Sc111 2.105 . S
O127 C117 1.268 . S
O128 Sc112 2.105 . S
O128 C119 1.268 . S
O129 Sc110 2.105 . S
O129 C115 1.268 . S
O130 Sc112 2.105 . S
O130 C114 1.268 1_554 S
O131 Sc111 2.105 . S
O131 C116 1.268 1_556 S
Sc132 O135 2.025 . S
Sc132 O142 2.105 . S
Sc132 O145 2.105 . S
Sc132 O148 2.105 . S
Sc132 O151 2.105 . S
Sc133 O135 2.025 . S
Sc133 O143 2.105 . S
Sc133 O147 2.105 . S
Sc133 O149 2.105 . S
Sc133 O153 2.105 . S
Sc134 O135 2.025 . S
Sc134 O144 2.105 . S
Sc134 O146 2.105 . S
Sc134 O150 2.105 . S
Sc134 O152 2.105 . S
O135 Sc132 2.025 . S
O135 Sc133 2.025 . S
O135 Sc134 2.025 . S
C136 O142 1.268 . S
C136 O152 1.268 . S
C137 O143 1.268 . S
C137 O151 1.268 . S
C138 O144 1.268 . S
C138 O153 1.268 . S
C139 O145 1.268 . S
C139 O149 1.268 . S
C140 O146 1.268 . S
C140 O148 1.268 . S
C141 O147 1.268 . S
C141 O150 1.268 . S
O142 Sc132 2.105 . S
O142 C136 1.268 . S
O143 Sc133 2.105 . S
O143 C137 1.268 . S
O144 Sc134 2.105 . S
O144 C138 1.268 . S
O145 Sc132 2.105 . S
O145 C139 1.268 . S
O146 Sc134 2.105 . S
O146 C140 1.268 . S
O147 Sc133 2.105 . S
O147 C141 1.268 . S
O148 Sc132 2.105 . S
O148 C140 1.268 . S
O149 Sc133 2.105 . S
O149 C139 1.268 . S
O150 Sc134 2.105 . S
O150 C141 1.268 . S
O151 Sc132 2.105 . S
O151 C137 1.268 . S
O152 Sc134 2.105 . S
O152 C136 1.268 . S
O153 Sc133 2.105 . S
O153 C138 1.268 . S
Sc154 O157 2.025 . S
Sc154 O164 2.105 . S
Sc154 O167 2.105 . S
Sc154 O170 2.105 . S
Sc154 O173 2.105 . S
Sc155 O157 2.025 . S
Sc155 O165 2.105 . S
Sc155 O169 2.105 . S
Sc155 O171 2.105 . S
Sc155 O175 2.105 . S
Sc156 O157 2.025 . S
Sc156 O166 2.105 . S
Sc156 O168 2.105 . S
Sc156 O172 2.105 . S
Sc156 O174 2.105 . S
O157 Sc154 2.025 . S
O157 Sc155 2.025 . S
O157 Sc156 2.025 . S
C158 O164 1.268 . S
C158 O174 1.268 . S
C159 O165 1.268 . S
C159 O173 1.268 . S
C160 O166 1.268 . S
C160 O175 1.268 . S
C161 O167 1.268 . S
C161 O171 1.268 . S
C162 O168 1.268 . S
C162 O170 1.268 . S
C163 O169 1.268 . S
C163 O172 1.268 . S
O164 Sc154 2.105 . S
O164 C158 1.268 . S
O165 Sc155 2.105 . S
O165 C159 1.268 . S
O166 Sc156 2.105 . S
O166 C160 1.268 . S
O167 Sc154 2.105 . S
O167 C161 1.268 . S
O168 Sc156 2.105 . S
O168 C162 1.268 . S
O169 Sc155 2.105 . S
O169 C163 1.268 . S
O170 Sc154 2.105 . S
O170 C162 1.268 . S
O171 Sc155 2.105 . S
O171 C161 1.268 . S
O172 Sc156 2.105 . S
O172 C163 1.268 . S
O173 Sc154 2.105 . S
O173 C159 1.268 . S
O174 Sc156 2.105 . S
O174 C158 1.268 . S
O175 Sc155 2.105 . S
O175 C160 1.268 . S
Sc176 O179 2.025 . S
Sc176 O186 2.105 . S
Sc176 O189 2.105 . S
Sc176 O192 2.105 . S
Sc176 O195 2.105 . S
Sc177 O179 2.025 . S
Sc177 O187 2.105 . S
Sc177 O191 2.105 . S
Sc177 O193 2.105 . S
Sc177 O197 2.105 . S
Sc178 O179 2.025 . S
Sc178 O188 2.105 . S
Sc178 O190 2.105 . S
Sc178 O194 2.105 . S
Sc178 O196 2.105 . S
O179 Sc176 2.025 . S
O179 Sc177 2.025 . S
O179 Sc178 2.025 . S
C180 O186 1.268 . S
C180 O196 1.268 . S
C181 O187 1.268 . S
C181 O195 1.268 . S
C182 O188 1.268 . S
C182 O197 1.268 . S
C183 O189 1.268 . S
C183 O193 1.268 . S
C184 O190 1.268 . S
C184 O192 1.268 . S
C185 O191 1.268 . S
C185 O194 1.268 . S
O186 Sc176 2.105 . S
O186 C180 1.268 . S
O187 Sc177 2.105 . S
O187 C181 1.268 . S
O188 Sc178 2.105 . S
O188 C182 1.268 . S
O189 Sc176 2.105 . S
O189 C183 1.268 . S
O190 Sc178 2.105 . S
O190 C184 1.268 . S
O191 Sc177 2.105 . S
O191 C185 1.268 . S
O192 Sc176 2.105 . S
O192 C184 1.268 . S
O193 Sc177 2.105 . S
O193 C183 1.268 . S
O194 Sc178 2.105 . S
O194 C185 1.268 . S
O195 Sc176 2.105 . S
O195 C181 1.268 . S
O196 Sc178 2.105 . S
O196 C180 1.268 . S
O197 Sc177 2.105 . S
O197 C182 1.268 . S
Sc198 O201 2.025 . S
Sc198 O208 2.105 . S
Sc198 O211 2.105 . S
Sc198 O214 2.105 . S
Sc198 O217 2.105 . S
Sc199 O201 2.025 . S
Sc199 O209 2.105 . S
Sc199 O213 2.105 . S
Sc199 O215 2.105 . S
Sc199 O219 2.105 . S
Sc200 O201 2.025 . S
Sc200 O210 2.105 . S
Sc200 O212 2.105 . S
Sc200 O216 2.105 . S
Sc200 O218 2.105 . S
O201 Sc198 2.025 . S
O201 Sc199 2.025 . S
O201 Sc200 2.025 . S
C202 O208 1.268 . S
C202 O218 1.268 . S
C203 O209 1.268 . S
C203 O217 1.268 . S
C204 O210 1.268 . S
C204 O219 1.268 . S
C205 O211 1.268 . S
C205 O215 1.268 . S
C206 O212 1.268 . S
C206 O214 1.268 . S
C207 O213 1.268 . S
C207 O216 1.268 . S
O208 Sc198 2.105 . S
O208 C202 1.268 . S
O209 Sc199 2.105 . S
O209 C203 1.268 . S
O210 Sc200 2.105 . S
O210 C204 1.268 . S
O211 Sc198 2.105 . S
O211 C205 1.268 . S
O212 Sc200 2.105 . S
O212 C206 1.268 . S
O213 Sc199 2.105 . S
O213 C207 1.268 . S
O214 Sc198 2.105 . S
O214 C206 1.268 . S
O215 Sc199 2.105 . S
O215 C205 1.268 . S
O216 Sc200 2.105 . S
O216 C207 1.268 . S
O217 Sc198 2.105 . S
O217 C203 1.268 . S
O218 Sc200 2.105 . S
O218 C202 1.268 . S
O219 Sc199 2.105 . S
O219 C204 1.268 . S
Sc220 O223 2.025 . S
Sc220 O230 2.105 . S
Sc220 O233 2.105 . S
Sc220 O236 2.105 . S
Sc220 O239 2.105 . S
Sc221 O223 2.025 . S
Sc221 O231 2.105 . S
Sc221 O235 2.105 . S
Sc221 O237 2.105 . S
Sc221 O241 2.105 . S
Sc222 O223 2.025 . S
Sc222 O232 2.105 . S
Sc222 O234 2.105 . S
Sc222 O238 2.105 . S
Sc222 O240 2.105 . S
O223 Sc220 2.025 . S
O223 Sc221 2.025 . S
O223 Sc222 2.025 . S
C224 O230 1.268 . S
C224 O240 1.268 . S
C225 O231 1.268 . S
C225 O239 1.268 . S
C226 O232 1.268 . S
C226 O241 1.268 . S
C227 O233 1.268 . S
C227 O237 1.268 . S
C228 O234 1.268 . S
C228 O236 1.268 . S
C229 O235 1.268 . S
C229 O238 1.268 . S
O230 Sc220 2.105 . S
O230 C224 1.268 . S
O231 Sc221 2.105 . S
O231 C225 1.268 . S
O232 Sc222 2.105 . S
O232 C226 1.268 . S
O233 Sc220 2.105 . S
O233 C227 1.268 . S
O234 Sc222 2.105 . S
O234 C228 1.268 . S
O235 Sc221 2.105 . S
O235 C229 1.268 . S
O236 Sc220 2.105 . S
O236 C228 1.268 . S
O237 Sc221 2.105 . S
O237 C227 1.268 . S
O238 Sc222 2.105 . S
O238 C229 1.268 . S
O239 Sc220 2.105 . S
O239 C225 1.268 . S
O240 Sc222 2.105 . S
O240 C224 1.268 . S
O241 Sc221 2.105 . S
O241 C226 1.268 . S
Sc242 O245 2.025 . S
Sc242 O252 2.105 . S
Sc242 O255 2.105 . S
Sc242 O258 2.105 . S
Sc242 O261 2.105 . S
Sc243 O245 2.025 . S
Sc243 O253 2.105 . S
Sc243 O257 2.105 . S
Sc243 O259 2.105 . S
Sc243 O263 2.105 . S
Sc244 O245 2.025 . S
Sc244 O254 2.105 . S
Sc244 O256 2.105 . S
Sc244 O260 2.105 . S
Sc244 O262 2.105 . S
O245 Sc242 2.025 . S
O245 Sc243 2.025 . S
O245 Sc244 2.025 . S
C246 O252 1.268 . S
C246 O262 1.268 . S
C247 O253 1.268 . S
C247 O261 1.268 . S
C248 O254 1.268 . S
C248 O263 1.268 . S
C249 O255 1.268 . S
C249 O259 1.268 . S
C250 O256 1.268 . S
C250 O258 1.268 . S
C251 O257 1.268 . S
C251 O260 1.268 . S
O252 Sc242 2.105 . S
O252 C246 1.268 . S
O253 Sc243 2.105 . S
O253 C247 1.268 . S
O254 Sc244 2.105 . S
O254 C248 1.268 . S
O255 Sc242 2.105 . S
O255 C249 1.268 . S
O256 Sc244 2.105 . S
O256 C250 1.268 . S
O257 Sc243 2.105 . S
O257 C251 1.268 . S
O258 Sc242 2.105 . S
O258 C250 1.268 . S
O259 Sc243 2.105 . S
O259 C249 1.268 . S
O260 Sc244 2.105 . S
O260 C251 1.268 . S
O261 Sc242 2.105 . S
O261 C247 1.268 . S
O262 Sc244 2.105 . S
O262 C246 1.268 . S
O263 Sc243 2.105 . S
O263 C248 1.268 . S
Sc264 O267 2.025 . S
Sc264 O274 2.105 . S
Sc264 O277 2.105 . S
Sc264 O280 2.105 . S
Sc264 O283 2.105 . S
Sc265 O267 2.025 . S
Sc265 O275 2.105 . S
Sc265 O279 2.105 . S
Sc265 O281 2.105 . S
Sc265 O285 2.105 . S
Sc266 O267 2.025 . S
Sc266 O276 2.105 . S
Sc266 O278 2.105 . S
Sc266 O282 2.105 . S
Sc266 O284 2.105 . S
O267 Sc264 2.025 . S
O267 Sc265 2.025 . S
O267 Sc266 2.025 . S
C268 O274 1.268 . S
C268 O284 1.268 . S
C269 O275 1.268 . S
C269 O283 1.268 . S
C270 O276 1.268 . S
C270 O285 1.268 . S
C271 O277 1.268 . S
C271 O281 1.268 . S
C272 O278 1.268 . S
C272 O280 1.268 . S
C273 O279 1.268 . S
C273 O282 1.268 . S
O274 Sc264 2.105 . S
O274 C268 1.268 . S
O275 Sc265 2.105 . S
O275 C269 1.268 . S
O276 Sc266 2.105 . S
O276 C270 1.268 . S
O277 Sc264 2.105 . S
O277 C271 1.268 . S
O278 Sc266 2.105 . S
O278 C272 1.268 . S
O279 Sc265 2.105 . S
O279 C273 1.268 . S
O280 Sc264 2.105 . S
O280 C272 1.268 . S
O281 Sc265 2.105 . S
O281 C271 1.268 . S
O282 Sc266 2.105 . S
O282 C273 1.268 . S
O283 Sc264 2.105 . S
O283 C269 1.268 . S
O284 Sc266 2.105 . S
O284 C268 1.268 . S
O285 Sc265 2.105 . S
O285 C270 1.268 . S
Sc286 O289 2.025 . S
Sc286 O296 2.105 . S
Sc286 O299 2.105 . S
Sc286 O302 2.105 . S
Sc286 O305 2.105 . S
Sc287 O289 2.025 . S
Sc287 O297 2.105 . S
Sc287 O301 2.105 . S
Sc287 O303 2.105 . S
Sc287 O307 2.105 . S
Sc288 O289 2.025 . S
Sc288 O298 2.105 . S
Sc288 O300 2.105 . S
Sc288 O304 2.105 . S
Sc288 O306 2.105 . S
O289 Sc286 2.025 . S
O289 Sc287 2.025 . S
O289 Sc288 2.025 . S
C290 O296 1.268 . S
C290 O306 1.268 . S
C291 O297 1.268 . S
C291 O305 1.268 . S
C292 O298 1.268 . S
C292 O307 1.268 . S
C293 O299 1.268 . S
C293 O303 1.268 . S
C294 O300 1.268 . S
C294 O302 1.268 . S
C295 O301 1.268 . S
C295 O304 1.268 . S
O296 Sc286 2.105 . S
O296 C290 1.268 . S
O297 Sc287 2.105 . S
O297 C291 1.268 . S
O298 Sc288 2.105 . S
O298 C292 1.268 . S
O299 Sc286 2.105 . S
O299 C293 1.268 . S
O300 Sc288 2.105 . S
O300 C294 1.268 . S
O301 Sc287 2.105 . S
O301 C295 1.268 . S
O302 Sc286 2.105 . S
O302 C294 1.268 . S
O303 Sc287 2.105 . S
O303 C293 1.268 . S
O304 Sc288 2.105 . S
O304 C295 1.268 . S
O305 Sc286 2.105 . S
O305 C291 1.268 . S
O306 Sc288 2.105 . S
O306 C290 1.268 . S
O307 Sc287 2.105 . S
O307 C292 1.268 . S
Sc308 O311 2.025 . S
Sc308 O318 2.105 . S
Sc308 O321 2.105 . S
Sc308 O324 2.105 . S
Sc308 O327 2.105 . S
Sc309 O311 2.025 . S
Sc309 O319 2.105 . S
Sc309 O323 2.105 . S
Sc309 O325 2.105 . S
Sc309 O329 2.105 . S
Sc310 O311 2.025 . S
Sc310 O320 2.105 . S
Sc310 O322 2.105 . S
Sc310 O326 2.105 . S
Sc310 O328 2.105 . S
O311 Sc308 2.025 . S
O311 Sc309 2.025 . S
O311 Sc310 2.025 . S
C312 O318 1.268 . S
C312 O328 1.268 . S
C313 O319 1.268 . S
C313 O327 1.268 . S
C314 O320 1.268 . S
C314 O329 1.268 . S
C315 O321 1.268 . S
C315 O325 1.268 . S
C316 O322 1.268 . S
C316 O324 1.268 . S
C317 O323 1.268 . S
C317 O326 1.268 . S
O318 Sc308 2.105 . S
O318 C312 1.268 . S
O319 Sc309 2.105 . S
O319 C313 1.268 . S
O320 Sc310 2.105 . S
O320 C314 1.268 . S
O321 Sc308 2.105 . S
O321 C315 1.268 . S
O322 Sc310 2.105 . S
O322 C316 1.268 . S
O323 Sc309 2.105 . S
O323 C317 1.268 . S
O324 Sc308 2.105 . S
O324 C316 1.268 . S
O325 Sc309 2.105 . S
O325 C315 1.268 . S
O326 Sc310 2.105 . S
O326 C317 1.268 . S
O327 Sc308 2.105 . S
O327 C313 1.268 . S
O328 Sc310 2.105 . S
O328 C312 1.268 . S
O329 Sc309 2.105 . S
O329 C314 1.268 . S
Sc330 O333 2.025 . S
Sc330 O340 2.105 . S
Sc330 O343 2.105 . S
Sc330 O346 2.105 . S
Sc330 O349 2.105 . S
Sc331 O333 2.025 . S
Sc331 O341 2.105 . S
Sc331 O345 2.105 . S
Sc331 O347 2.105 . S
Sc331 O351 2.105 . S
Sc332 O333 2.025 . S
Sc332 O342 2.105 . S
Sc332 O344 2.105 . S
Sc332 O348 2.105 . S
Sc332 O350 2.105 . S
O333 Sc330 2.025 . S
O333 Sc331 2.025 . S
O333 Sc332 2.025 . S
C334 O340 1.268 . S
C334 O350 1.268 . S
C335 O341 1.268 . S
C335 O349 1.268 . S
C336 O342 1.268 . S
C336 O351 1.268 . S
C337 O343 1.268 . S
C337 O347 1.268 . S
C338 O344 1.268 . S
C338 O346 1.268 . S
C339 O345 1.268 . S
C339 O348 1.268 . S
O340 Sc330 2.105 . S
O340 C334 1.268 . S
O341 Sc331 2.105 . S
O341 C335 1.268 . S
O342 Sc332 2.105 . S
O342 C336 1.268 . S
O343 Sc330 2.105 . S
O343 C337 1.268 . S
O344 Sc332 2.105 . S
O344 C338 1.268 . S
O345 Sc331 2.105 . S
O345 C339 1.268 . S
O346 Sc330 2.105 . S
O346 C338 1.268 . S
O347 Sc331 2.105 . S
O347 C337 1.268 . S
O348 Sc332 2.105 . S
O348 C339 1.268 . S
O349 Sc330 2.105 . S
O349 C335 1.268 . S
O350 Sc332 2.105 . S
O350 C334 1.268 . S
O351 Sc331 2.105 . S
O351 C336 1.268 . S
Sc352 O355 2.025 . S
Sc352 O362 2.105 . S
Sc352 O365 2.105 . S
Sc352 O368 2.105 . S
Sc352 O371 2.105 . S
Sc353 O355 2.025 . S
Sc353 O363 2.105 . S
Sc353 O367 2.105 . S
Sc353 O369 2.105 . S
Sc353 O373 2.105 . S
Sc354 O355 2.025 . S
Sc354 O364 2.105 . S
Sc354 O366 2.105 . S
Sc354 O370 2.105 . S
Sc354 O372 2.105 . S
O355 Sc352 2.025 . S
O355 Sc353 2.025 . S
O355 Sc354 2.025 . S
C356 O362 1.268 . S
C356 O372 1.268 . S
C357 O363 1.268 . S
C357 O371 1.268 . S
C358 O364 1.268 . S
C358 O373 1.268 . S
C359 O365 1.268 . S
C359 O369 1.268 . S
C360 O366 1.268 . S
C360 O368 1.268 . S
C361 O367 1.268 . S
C361 O370 1.268 . S
O362 Sc352 2.105 . S
O362 C356 1.268 . S
O363 Sc353 2.105 . S
O363 C357 1.268 . S
O364 Sc354 2.105 . S
O364 C358 1.268 . S
O365 Sc352 2.105 . S
O365 C359 1.268 . S
O366 Sc354 2.105 . S
O366 C360 1.268 . S
O367 Sc353 2.105 . S
O367 C361 1.268 . S
O368 Sc352 2.105 . S
O368 C360 1.268 . S
O369 Sc353 2.105 . S
O369 C359 1.268 . S
O370 Sc354 2.105 . S
O370 C361 1.268 . S
O371 Sc352 2.105 . S
O371 C357 1.268 . S
O372 Sc354 2.105 . S
O372 C356 1.268 . S
O373 Sc353 2.105 . S
O373 C358 1.268 . S
Sc374 O377 2.025 . S
Sc374 O384 2.105 . S
Sc374 O387 2.105 . S
Sc374 O390 2.105 . S
Sc374 O393 2.105 . S
Sc375 O377 2.025 . S
Sc375 O385 2.105 . S
Sc375 O389 2.105 . S
Sc375 O391 2.105 . S
Sc375 O395 2.105 . S
Sc376 O377 2.025 . S
Sc376 O386 2.105 . S
Sc376 O388 2.105 . S
Sc376 O392 2.105 . S
Sc376 O394 2.105 . S
O377 Sc374 2.025 . S
O377 Sc375 2.025 . S
O377 Sc376 2.025 . S
C378 O384 1.268 . S
C378 O394 1.268 . S
C379 O385 1.268 . S
C379 O393 1.268 . S
C380 O386 1.268 . S
C380 O395 1.268 . S
C381 O387 1.268 . S
C381 O391 1.268 . S
C382 O388 1.268 . S
C382 O390 1.268 . S
C383 O389 1.268 . S
C383 O392 1.268 . S
O384 Sc374 2.105 . S
O384 C378 1.268 . S
O385 Sc375 2.105 . S
O385 C379 1.268 . S
O386 Sc376 2.105 . S
O386 C380 1.268 . S
O387 Sc374 2.105 . S
O387 C381 1.268 . S
O388 Sc376 2.105 . S
O388 C382 1.268 . S
O389 Sc375 2.105 . S
O389 C383 1.268 . S
O390 Sc374 2.105 . S
O390 C382 1.268 . S
O391 Sc375 2.105 . S
O391 C381 1.268 . S
O392 Sc376 2.105 . S
O392 C383 1.268 . S
O393 Sc374 2.105 . S
O393 C379 1.268 . S
O394 Sc376 2.105 . S
O394 C378 1.268 . S
O395 Sc375 2.105 . S
O395 C380 1.268 . S
H396 C402 0.930 . S
H397 C405 0.930 . S
H398 C406 0.930 . S
H399 C407 0.930 . S
H400 C410 0.930 . S
H401 C411 0.930 . S
C402 H396 0.930 . S
C402 C403 1.355 1_554 S
C402 C404 1.415 . S
C403 C402 1.355 1_556 S
C403 C405 1.419 . S
C404 C402 1.415 . S
C404 C409 1.425 1_554 S
C404 C411 1.409 . S
C405 H397 0.930 . S
C405 C403 1.419 . S
C405 C406 1.362 . S
C406 H398 0.930 . S
C406 C405 1.362 . S
C406 C409 1.409 . S
C407 H399 0.930 . S
C407 C408 1.355 1_556 S
C407 C409 1.415 . S
C408 C407 1.355 1_554 S
C408 C410 1.419 . S
C409 C404 1.425 1_556 S
C409 C406 1.409 . S
C409 C407 1.415 . S
C410 H400 0.930 . S
C410 C408 1.419 . S
C410 C411 1.362 . S
C411 H401 0.930 . S
C411 C404 1.409 . S
C411 C410 1.362 . S
H412 C418 0.930 . S
H413 C421 0.928 1_565 S
H414 C422 0.930 . S
H415 C423 0.930 . S
H416 C426 0.930 . S
H417 C427 0.930 . S
C418 H412 0.930 . S
C418 C419 1.355 1_554 S
C418 C420 1.415 . S
C419 C418 1.355 1_556 S
C419 C421 1.419 . S
C420 C418 1.415 . S
C420 C425 1.425 1_554 S
C420 C427 1.409 . S
C421 H413 0.928 1_545 S
C421 C419 1.419 . S
C421 C422 1.362 . S
C422 H414 0.930 . S
C422 C421 1.362 . S
C422 C425 1.409 . S
C423 H415 0.930 . S
C423 C424 1.355 . S
C423 C425 1.415 . S
C424 C423 1.355 . S
C424 C426 1.419 1_556 S
C425 C420 1.425 1_556 S
C425 C422 1.409 . S
C425 C423 1.415 . S
C426 H416 0.930 . S
C426 C424 1.419 1_554 S
C426 C427 1.362 . S
C427 H417 0.930 . S
C427 C420 1.409 . S
C427 C426 1.362 . S
H428 C434 0.930 1_554 S
H429 C437 0.930 . S
H430 C438 0.930 . S
H431 C439 0.930 . S
H432 C442 0.930 1_455 S
H433 C443 0.930 . S
C434 H428 0.930 1_556 S
C434 C435 1.355 . S
C434 C436 1.415 . S
C435 C434 1.355 . S
C435 C437 1.419 . S
C436 C434 1.415 . S
C436 C441 1.425 . S
C436 C443 1.409 1_556 S
C437 H429 0.930 . S
C437 C435 1.419 . S
C437 C438 1.362 . S
C438 H430 0.930 . S
C438 C437 1.362 . S
C438 C441 1.409 . S
C439 H431 0.930 . S
C439 C440 1.355 1_556 S
C439 C441 1.415 . S
C440 C439 1.355 1_554 S
C440 C442 1.419 . S
C441 C436 1.425 . S
C441 C438 1.409 . S
C441 C439 1.415 . S
C442 H432 0.930 1_655 S
C442 C440 1.419 . S
C442 C443 1.362 . S
C443 H433 0.930 . S
C443 C436 1.409 1_554 S
C443 C442 1.362 . S
H444 C450 0.930 . S
H445 C453 0.930 . S
H446 C454 0.930 . S
H447 C455 0.930 . S
H448 C458 0.930 . S
H449 C459 0.930 . S
C450 H444 0.930 . S
C450 C451 1.355 1_554 S
C450 C452 1.415 . S
C451 C450 1.355 1_556 S
C451 C453 1.419 . S
C452 C450 1.415 . S
C452 C457 1.425 1_554 S
C452 C459 1.409 . S
C453 H445 0.930 . S
C453 C451 1.419 . S
C453 C454 1.362 . S
C454 H446 0.930 . S
C454 C453 1.362 . S
C454 C457 1.409 . S
C455 H447 0.930 . S
C455 C456 1.355 1_556 S
C455 C457 1.415 . S
C456 C455 1.355 1_554 S
C456 C458 1.419 . S
C457 C452 1.425 1_556 S
C457 C454 1.409 . S
C457 C455 1.415 . S
C458 H448 0.930 . S
C458 C456 1.419 . S
C458 C459 1.362 . S
C459 H449 0.930 . S
C459 C452 1.409 . S
C459 C458 1.362 . S
H460 C466 0.930 . S
H461 C469 0.930 . S
H462 C470 0.930 . S
H463 C471 0.930 . S
H464 C474 0.930 . S
H465 C475 0.930 . S
C466 H460 0.930 . S
C466 C467 1.355 1_554 S
C466 C468 1.415 . S
C467 C466 1.355 1_556 S
C467 C469 1.419 . S
C468 C466 1.415 . S
C468 C473 1.425 1_554 S
C468 C475 1.409 . S
C469 H461 0.930 . S
C469 C467 1.419 . S
C469 C470 1.362 . S
C470 H462 0.930 . S
C470 C469 1.362 . S
C470 C473 1.409 . S
C471 H463 0.930 . S
C471 C472 1.355 1_556 S
C471 C473 1.415 . S
C472 C471 1.355 1_554 S
C472 C474 1.419 . S
C473 C468 1.425 1_556 S
C473 C470 1.409 . S
C473 C471 1.415 . S
C474 H464 0.930 . S
C474 C472 1.419 . S
C474 C475 1.362 . S
C475 H465 0.930 . S
C475 C468 1.409 . S
C475 C474 1.362 . S
H476 C482 0.930 . S
H477 C485 0.930 . S
H478 C486 0.930 . S
H479 C487 0.930 . S
H480 C490 0.930 . S
H481 C491 0.930 . S
C482 H476 0.930 . S
C482 C483 1.355 1_556 S
C482 C484 1.415 . S
C483 C482 1.355 1_554 S
C483 C485 1.419 . S
C484 C482 1.415 . S
C484 C489 1.425 1_556 S
C484 C491 1.409 . S
C485 H477 0.930 . S
C485 C483 1.419 . S
C485 C486 1.362 . S
C486 H478 0.930 . S
C486 C485 1.362 . S
C486 C489 1.409 . S
C487 H479 0.930 . S
C487 C488 1.355 1_554 S
C487 C489 1.415 . S
C488 C487 1.355 1_556 S
C488 C490 1.419 . S
C489 C484 1.425 1_554 S
C489 C486 1.409 . S
C489 C487 1.415 . S
C490 H480 0.930 . S
C490 C488 1.419 . S
C490 C491 1.362 . S
C491 H481 0.930 . S
C491 C484 1.409 . S
C491 C490 1.362 . S
H492 C498 0.930 . S
H493 C501 0.930 . S
H494 C502 0.930 . S
H495 C503 0.930 . S
H496 C506 0.930 . S
H497 C507 0.930 . S
C498 H492 0.930 . S
C498 C499 1.355 . S
C498 C500 1.415 . S
C499 C498 1.355 . S
C499 C501 1.419 . S
C500 C498 1.415 . S
C500 C505 1.425 . S
C500 C507 1.409 . S
C501 H493 0.930 . S
C501 C499 1.419 . S
C501 C502 1.362 . S
C502 H494 0.930 . S
C502 C501 1.362 . S
C502 C505 1.409 . S
C503 H495 0.930 . S
C503 C504 1.355 . S
C503 C505 1.415 . S
C504 C503 1.355 . S
C504 C506 1.419 . S
C505 C500 1.425 . S
C505 C502 1.409 . S
C505 C503 1.415 . S
C506 H496 0.930 . S
C506 C504 1.419 . S
C506 C507 1.362 . S
C507 H497 0.930 . S
C507 C500 1.409 . S
C507 C506 1.362 . S
H508 C514 0.930 . S
H509 C517 0.930 . S
H510 C518 0.930 . S
H511 C519 0.930 . S
H512 C522 0.930 . S
H513 C523 0.930 . S
C514 H508 0.930 . S
C514 C515 1.355 . S
C514 C516 1.415 . S
C515 C514 1.355 . S
C515 C517 1.419 . S
C516 C514 1.415 . S
C516 C521 1.425 . S
C516 C523 1.409 . S
C517 H509 0.930 . S
C517 C515 1.419 . S
C517 C518 1.362 . S
C518 H510 0.930 . S
C518 C517 1.362 . S
C518 C521 1.409 . S
C519 H511 0.930 . S
C519 C520 1.355 . S
C519 C521 1.415 . S
C520 C519 1.355 . S
C520 C522 1.419 . S
C521 C516 1.425 . S
C521 C518 1.409 . S
C521 C519 1.415 . S
C522 H512 0.930 . S
C522 C520 1.419 . S
C522 C523 1.362 . S
C523 H513 0.930 . S
C523 C516 1.409 . S
C523 C522 1.362 . S
H524 C530 0.930 . S
H525 C533 0.930 . S
H526 C534 0.930 . S
H527 C535 0.930 . S
H528 C538 0.930 . S
H529 C539 0.930 . S
C530 H524 0.930 . S
C530 C531 1.355 . S
C530 C532 1.415 . S
C531 C530 1.355 . S
C531 C533 1.419 . S
C532 C530 1.415 . S
C532 C537 1.425 . S
C532 C539 1.409 . S
C533 H525 0.930 . S
C533 C531 1.419 . S
C533 C534 1.362 . S
C534 H526 0.930 . S
C534 C533 1.362 . S
C534 C537 1.409 . S
C535 H527 0.930 . S
C535 C536 1.355 . S
C535 C537 1.415 . S
C536 C535 1.355 . S
C536 C538 1.419 . S
C537 C532 1.425 . S
C537 C534 1.409 . S
C537 C535 1.415 . S
C538 H528 0.930 . S
C538 C536 1.419 . S
C538 C539 1.362 . S
C539 H529 0.930 . S
C539 C532 1.409 . S
C539 C538 1.362 . S
H540 C546 0.930 . S
H541 C549 0.930 . S
H542 C550 0.930 . S
H543 C551 0.930 . S
H544 C554 0.930 . S
H545 C555 0.930 . S
C546 H540 0.930 . S
C546 C547 1.355 . S
C546 C548 1.415 . S
C547 C546 1.355 . S
C547 C549 1.419 . S
C548 C546 1.415 . S
C548 C553 1.425 . S
C548 C555 1.409 . S
C549 H541 0.930 . S
C549 C547 1.419 . S
C549 C550 1.362 . S
C550 H542 0.930 . S
C550 C549 1.362 . S
C550 C553 1.409 . S
C551 H543 0.930 . S
C551 C552 1.355 . S
C551 C553 1.415 . S
C552 C551 1.355 . S
C552 C554 1.419 . S
C553 C548 1.425 . S
C553 C550 1.409 . S
C553 C551 1.415 . S
C554 H544 0.930 . S
C554 C552 1.419 . S
C554 C555 1.362 . S
C555 H545 0.930 . S
C555 C548 1.409 . S
C555 C554 1.362 . S
H556 C562 0.930 . S
H557 C565 0.930 . S
H558 C566 0.930 . S
H559 C567 0.930 . S
H560 C570 0.930 . S
H561 C571 0.930 . S
C562 H556 0.930 . S
C562 C563 1.355 . S
C562 C564 1.415 . S
C563 C562 1.355 . S
C563 C565 1.419 . S
C564 C562 1.415 . S
C564 C569 1.425 . S
C564 C571 1.409 . S
C565 H557 0.930 . S
C565 C563 1.419 . S
C565 C566 1.362 . S
C566 H558 0.930 . S
C566 C565 1.362 . S
C566 C569 1.409 . S
C567 H559 0.930 . S
C567 C568 1.355 . S
C567 C569 1.415 . S
C568 C567 1.355 . S
C568 C570 1.419 . S
C569 C564 1.425 . S
C569 C566 1.409 . S
C569 C567 1.415 . S
C570 H560 0.930 . S
C570 C568 1.419 . S
C570 C571 1.362 . S
C571 H561 0.930 . S
C571 C564 1.409 . S
C571 C570 1.362 . S
H572 C578 0.930 . S
H573 C581 0.930 . S
H574 C582 0.930 . S
H575 C583 0.930 . S
H576 C586 0.930 . S
H577 C587 0.930 . S
C578 H572 0.930 . S
C578 C579 1.355 . S
C578 C580 1.415 . S
C579 C578 1.355 . S
C579 C581 1.419 . S
C580 C578 1.415 . S
C580 C585 1.425 . S
C580 C587 1.409 . S
C581 H573 0.930 . S
C581 C579 1.419 . S
C581 C582 1.362 . S
C582 H574 0.930 . S
C582 C581 1.362 . S
C582 C585 1.409 . S
C583 H575 0.930 . S
C583 C584 1.355 . S
C583 C585 1.415 . S
C584 C583 1.355 . S
C584 C586 1.419 . S
C585 C580 1.425 . S
C585 C582 1.409 . S
C585 C583 1.415 . S
C586 H576 0.930 . S
C586 C584 1.419 . S
C586 C587 1.362 . S
C587 H577 0.930 . S
C587 C580 1.409 . S
C587 C586 1.362 . S
H588 C594 0.930 . S
H589 C597 0.930 . S
H590 C598 0.930 . S
H591 C599 0.930 . S
H592 C602 0.930 . S
H593 C603 0.930 . S
C594 H588 0.930 . S
C594 C595 1.355 . S
C594 C596 1.415 . S
C595 C594 1.355 . S
C595 C597 1.419 . S
C596 C594 1.415 . S
C596 C601 1.425 . S
C596 C603 1.409 . S
C597 H589 0.930 . S
C597 C595 1.419 . S
C597 C598 1.362 . S
C598 H590 0.930 . S
C598 C597 1.362 . S
C598 C601 1.409 . S
C599 H591 0.930 . S
C599 C600 1.355 . S
C599 C601 1.415 . S
C600 C599 1.355 . S
C600 C602 1.419 . S
C601 C596 1.425 . S
C601 C598 1.409 . S
C601 C599 1.415 . S
C602 H592 0.930 . S
C602 C600 1.419 . S
C602 C603 1.362 . S
C603 H593 0.930 . S
C603 C596 1.409 . S
C603 C602 1.362 . S
H604 C610 0.930 . S
H605 C613 0.930 . S
H606 C614 0.930 . S
H607 C615 0.930 . S
H608 C618 0.930 . S
H609 C619 0.930 . S
C610 H604 0.930 . S
C610 C611 1.355 . S
C610 C612 1.415 . S
C611 C610 1.355 . S
C611 C613 1.419 . S
C612 C610 1.415 . S
C612 C617 1.425 . S
C612 C619 1.409 . S
C613 H605 0.930 . S
C613 C611 1.419 . S
C613 C614 1.362 . S
C614 H606 0.930 . S
C614 C613 1.362 . S
C614 C617 1.409 . S
C615 H607 0.930 . S
C615 C616 1.355 . S
C615 C617 1.415 . S
C616 C615 1.355 . S
C616 C618 1.419 . S
C617 C612 1.425 . S
C617 C614 1.409 . S
C617 C615 1.415 . S
C618 H608 0.930 . S
C618 C616 1.419 . S
C618 C619 1.362 . S
C619 H609 0.930 . S
C619 C612 1.409 . S
C619 C618 1.362 . S
H620 C626 0.930 . S
H621 C629 0.930 . S
H622 C630 0.930 . S
H623 C631 0.930 . S
H624 C634 0.930 . S
H625 C635 0.930 . S
C626 H620 0.930 . S
C626 C627 1.355 . S
C626 C628 1.415 . S
C627 C626 1.355 . S
C627 C629 1.419 . S
C628 C626 1.415 . S
C628 C633 1.425 . S
C628 C635 1.409 . S
C629 H621 0.930 . S
C629 C627 1.419 . S
C629 C630 1.362 . S
C630 H622 0.930 . S
C630 C629 1.362 . S
C630 C633 1.409 . S
C631 H623 0.930 . S
C631 C632 1.355 . S
C631 C633 1.415 . S
C632 C631 1.355 . S
C632 C634 1.419 . S
C633 C628 1.425 . S
C633 C630 1.409 . S
C633 C631 1.415 . S
C634 H624 0.930 . S
C634 C632 1.419 . S
C634 C635 1.362 . S
C635 H625 0.930 . S
C635 C628 1.409 . S
C635 C634 1.362 . S
H636 C642 0.930 . S
H637 C645 0.930 . S
H638 C646 0.930 . S
H639 C647 0.930 . S
H640 C650 0.930 . S
H641 C651 0.930 . S
C642 H636 0.930 . S
C642 C643 1.355 . S
C642 C644 1.415 . S
C643 C642 1.355 . S
C643 C645 1.419 . S
C644 C642 1.415 . S
C644 C649 1.425 . S
C644 C651 1.409 . S
C645 H637 0.930 . S
C645 C643 1.419 . S
C645 C646 1.362 . S
C646 H638 0.930 . S
C646 C645 1.362 . S
C646 C649 1.409 . S
C647 H639 0.930 . S
C647 C648 1.355 . S
C647 C649 1.415 . S
C648 C647 1.355 . S
C648 C650 1.419 . S
C649 C644 1.425 . S
C649 C646 1.409 . S
C649 C647 1.415 . S
C650 H640 0.930 . S
C650 C648 1.419 . S
C650 C651 1.362 . S
C651 H641 0.930 . S
C651 C644 1.409 . S
C651 C650 1.362 . S
H652 C658 0.930 . S
H653 C661 0.930 . S
H654 C662 0.930 . S
H655 C663 0.930 . S
H656 C666 0.930 . S
H657 C667 0.930 . S
C658 H652 0.930 . S
C658 C659 1.355 . S
C658 C660 1.415 . S
C659 C658 1.355 . S
C659 C661 1.419 . S
C660 C658 1.415 . S
C660 C665 1.425 . S
C660 C667 1.409 . S
C661 H653 0.930 . S
C661 C659 1.419 . S
C661 C662 1.362 . S
C662 H654 0.930 . S
C662 C661 1.362 . S
C662 C665 1.409 . S
C663 H655 0.930 . S
C663 C664 1.355 . S
C663 C665 1.415 . S
C664 C663 1.355 . S
C664 C666 1.419 . S
C665 C660 1.425 . S
C665 C662 1.409 . S
C665 C663 1.415 . S
C666 H656 0.930 . S
C666 C664 1.419 . S
C666 C667 1.362 . S
C667 H657 0.930 . S
C667 C660 1.409 . S
C667 C666 1.362 . S
H668 C674 0.930 . S
H669 C677 0.930 . S
H670 C678 0.930 . S
H671 C679 0.930 . S
H672 C682 0.930 . S
H673 C683 0.930 . S
C674 H668 0.930 . S
C674 C675 1.355 . S
C674 C676 1.415 . S
C675 C674 1.355 . S
C675 C677 1.419 . S
C676 C674 1.415 . S
C676 C681 1.425 . S
C676 C683 1.409 . S
C677 H669 0.930 . S
C677 C675 1.419 . S
C677 C678 1.362 . S
C678 H670 0.930 . S
C678 C677 1.362 . S
C678 C681 1.409 . S
C679 H671 0.930 . S
C679 C680 1.355 . S
C679 C681 1.415 . S
C680 C679 1.355 . S
C680 C682 1.419 . S
C681 C676 1.425 . S
C681 C678 1.409 . S
C681 C679 1.415 . S
C682 H672 0.930 . S
C682 C680 1.419 . S
C682 C683 1.362 . S
C683 H673 0.930 . S
C683 C676 1.409 . S
C683 C682 1.362 . S
H684 C690 0.930 . S
H685 C693 0.930 . S
H686 C694 0.930 . S
H687 C695 0.930 . S
H688 C698 0.930 . S
H689 C699 0.930 . S
C690 H684 0.930 . S
C690 C691 1.355 . S
C690 C692 1.415 . S
C691 C690 1.355 . S
C691 C693 1.419 . S
C692 C690 1.415 . S
C692 C697 1.425 . S
C692 C699 1.409 . S
C693 H685 0.930 . S
C693 C691 1.419 . S
C693 C694 1.362 . S
C694 H686 0.930 . S
C694 C693 1.362 . S
C694 C697 1.409 . S
C695 H687 0.930 . S
C695 C696 1.355 . S
C695 C697 1.415 . S
C696 C695 1.355 . S
C696 C698 1.419 . S
C697 C692 1.425 . S
C697 C694 1.409 . S
C697 C695 1.415 . S
C698 H688 0.930 . S
C698 C696 1.419 . S
C698 C699 1.362 . S
C699 H689 0.930 . S
C699 C692 1.409 . S
C699 C698 1.362 . S
H700 C706 0.930 . S
H701 C709 0.930 . S
H702 C710 0.930 . S
H703 C711 0.930 . S
H704 C714 0.930 . S
H705 C715 0.930 . S
C706 H700 0.930 . S
C706 C707 1.355 . S
C706 C708 1.415 . S
C707 C706 1.355 . S
C707 C709 1.419 . S
C708 C706 1.415 . S
C708 C713 1.425 . S
C708 C715 1.409 . S
C709 H701 0.930 . S
C709 C707 1.419 . S
C709 C710 1.362 . S
C710 H702 0.930 . S
C710 C709 1.362 . S
C710 C713 1.409 . S
C711 H703 0.930 . S
C711 C712 1.355 . S
C711 C713 1.415 . S
C712 C711 1.355 . S
C712 C714 1.419 . S
C713 C708 1.425 . S
C713 C710 1.409 . S
C713 C711 1.415 . S
C714 H704 0.930 . S
C714 C712 1.419 . S
C714 C715 1.362 . S
C715 H705 0.930 . S
C715 C708 1.409 . S
C715 C714 1.362 . S
H716 C722 0.930 . S
H717 C725 0.930 . S
H718 C726 0.930 . S
H719 C727 0.930 . S
H720 C730 0.930 . S
H721 C731 0.930 . S
C722 H716 0.930 . S
C722 C723 1.355 . S
C722 C724 1.415 . S
C723 C722 1.355 . S
C723 C725 1.419 . S
C724 C722 1.415 . S
C724 C729 1.425 . S
C724 C731 1.409 . S
C725 H717 0.930 . S
C725 C723 1.419 . S
C725 C726 1.362 . S
C726 H718 0.930 . S
C726 C725 1.362 . S
C726 C729 1.409 . S
C727 H719 0.930 . S
C727 C728 1.355 . S
C727 C729 1.415 . S
C728 C727 1.355 . S
C728 C730 1.419 . S
C729 C724 1.425 . S
C729 C726 1.409 . S
C729 C727 1.415 . S
C730 H720 0.930 . S
C730 C728 1.419 . S
C730 C731 1.362 . S
C731 H721 0.930 . S
C731 C724 1.409 . S
C731 C730 1.362 . S
H732 C738 0.930 . S
H733 C741 0.930 . S
H734 C742 0.930 . S
H735 C743 0.930 . S
H736 C746 0.930 . S
H737 C747 0.930 . S
C738 H732 0.930 . S
C738 C739 1.355 . S
C738 C740 1.415 . S
C739 C738 1.355 . S
C739 C741 1.419 . S
C740 C738 1.415 . S
C740 C745 1.425 . S
C740 C747 1.409 . S
C741 H733 0.930 . S
C741 C739 1.419 . S
C741 C742 1.362 . S
C742 H734 0.930 . S
C742 C741 1.362 . S
C742 C745 1.409 . S
C743 H735 0.930 . S
C743 C744 1.355 . S
C743 C745 1.415 . S
C744 C743 1.355 . S
C744 C746 1.419 . S
C745 C740 1.425 . S
C745 C742 1.409 . S
C745 C743 1.415 . S
C746 H736 0.930 . S
C746 C744 1.419 . S
C746 C747 1.362 . S
C747 H737 0.930 . S
C747 C740 1.409 . S
C747 C746 1.362 . S
H748 C754 0.930 . S
H749 C757 0.930 . S
H750 C758 0.930 . S
H751 C759 0.930 . S
H752 C762 0.930 . S
H753 C763 0.930 . S
C754 H748 0.930 . S
C754 C755 1.355 . S
C754 C756 1.415 . S
C755 C754 1.355 . S
C755 C757 1.419 . S
C756 C754 1.415 . S
C756 C761 1.425 . S
C756 C763 1.409 . S
C757 H749 0.930 . S
C757 C755 1.419 . S
C757 C758 1.362 . S
C758 H750 0.930 . S
C758 C757 1.362 . S
C758 C761 1.409 . S
C759 H751 0.930 . S
C759 C760 1.355 . S
C759 C761 1.415 . S
C760 C759 1.355 . S
C760 C762 1.419 . S
C761 C756 1.425 . S
C761 C758 1.409 . S
C761 C759 1.415 . S
C762 H752 0.930 . S
C762 C760 1.419 . S
C762 C763 1.362 . S
C763 H753 0.930 . S
C763 C756 1.409 . S
C763 C762 1.362 . S
H764 C770 0.930 . S
H765 C773 0.930 . S
H766 C774 0.930 . S
H767 C775 0.930 . S
H768 C778 0.930 . S
H769 C779 0.930 . S
C770 H764 0.930 . S
C770 C771 1.355 . S
C770 C772 1.415 . S
C771 C770 1.355 . S
C771 C773 1.419 . S
C772 C770 1.415 . S
C772 C777 1.425 . S
C772 C779 1.409 . S
C773 H765 0.930 . S
C773 C771 1.419 . S
C773 C774 1.362 . S
C774 H766 0.930 . S
C774 C773 1.362 . S
C774 C777 1.409 . S
C775 H767 0.930 . S
C775 C776 1.355 . S
C775 C777 1.415 . S
C776 C775 1.355 . S
C776 C778 1.419 . S
C777 C772 1.425 . S
C777 C774 1.409 . S
C777 C775 1.415 . S
C778 H768 0.930 . S
C778 C776 1.419 . S
C778 C779 1.362 . S
C779 H769 0.930 . S
C779 C772 1.409 . S
C779 C778 1.362 . S
H780 C786 0.930 . S
H781 C789 0.930 . S
H782 C790 0.930 . S
H783 C791 0.930 . S
H784 C794 0.930 . S
H785 C795 0.930 . S
C786 H780 0.930 . S
C786 C787 1.355 1_545 S
C786 C788 1.415 . S
C787 C786 1.355 1_565 S
C787 C789 1.419 . S
C788 C786 1.415 . S
C788 C793 1.425 1_545 S
C788 C795 1.409 . S
C789 H781 0.930 . S
C789 C787 1.419 . S
C789 C790 1.362 . S
C790 H782 0.930 . S
C790 C789 1.362 . S
C790 C793 1.409 . S
C791 H783 0.930 . S
C791 C792 1.355 1_565 S
C791 C793 1.415 . S
C792 C791 1.355 1_545 S
C792 C794 1.419 . S
C793 C788 1.425 1_565 S
C793 C790 1.409 . S
C793 C791 1.415 . S
C794 H784 0.930 . S
C794 C792 1.419 . S
C794 C795 1.362 . S
C795 H785 0.930 . S
C795 C788 1.409 . S
C795 C794 1.362 . S
H796 C802 0.930 . S
H797 C805 0.930 . S
H798 C806 0.930 . S
H799 C807 0.930 . S
H800 C810 0.930 . S
H801 C811 0.930 . S
C802 H796 0.930 . S
C802 C803 1.355 1_655 S
C802 C804 1.415 . S
C803 C802 1.355 1_455 S
C803 C805 1.419 . S
C804 C802 1.415 . S
C804 C809 1.425 1_655 S
C804 C811 1.409 . S
C805 H797 0.930 . S
C805 C803 1.419 . S
C805 C806 1.362 . S
C806 H798 0.930 . S
C806 C805 1.362 . S
C806 C809 1.409 . S
C807 H799 0.930 . S
C807 C808 1.355 1_455 S
C807 C809 1.415 . S
C808 C807 1.355 1_655 S
C808 C810 1.419 . S
C809 C804 1.425 1_455 S
C809 C806 1.409 . S
C809 C807 1.415 . S
C810 H800 0.930 . S
C810 C808 1.419 . S
C810 C811 1.362 . S
C811 H801 0.930 . S
C811 C804 1.409 . S
C811 C810 1.362 . S
H812 C818 0.930 . S
H813 C821 0.930 . S
H814 C822 0.930 . S
H815 C823 0.930 . S
H816 C826 0.930 . S
H817 C827 0.930 . S
C818 H812 0.930 . S
C818 C819 1.355 . S
C818 C820 1.415 . S
C819 C818 1.355 . S
C819 C821 1.419 . S
C820 C818 1.415 . S
C820 C825 1.425 . S
C820 C827 1.409 . S
C821 H813 0.930 . S
C821 C819 1.419 . S
C821 C822 1.362 . S
C822 H814 0.930 . S
C822 C821 1.362 . S
C822 C825 1.409 . S
C823 H815 0.930 . S
C823 C824 1.355 . S
C823 C825 1.415 . S
C824 C823 1.355 . S
C824 C826 1.419 . S
C825 C820 1.425 . S
C825 C822 1.409 . S
C825 C823 1.415 . S
C826 H816 0.930 . S
C826 C824 1.419 . S
C826 C827 1.362 . S
C827 H817 0.930 . S
C827 C820 1.409 . S
C827 C826 1.362 . S
H828 C834 0.930 . S
H829 C837 0.930 . S
H830 C838 0.930 . S
H831 C839 0.930 . S
H832 C842 0.930 . S
H833 C843 0.930 . S
C834 H828 0.930 . S
C834 C835 1.355 . S
C834 C836 1.415 . S
C835 C834 1.355 . S
C835 C837 1.419 . S
C836 C834 1.415 . S
C836 C841 1.425 . S
C836 C843 1.409 . S
C837 H829 0.930 . S
C837 C835 1.419 . S
C837 C838 1.362 . S
C838 H830 0.930 . S
C838 C837 1.362 . S
C838 C841 1.409 . S
C839 H831 0.930 . S
C839 C840 1.355 . S
C839 C841 1.415 . S
C840 C839 1.355 . S
C840 C842 1.419 . S
C841 C836 1.425 . S
C841 C838 1.409 . S
C841 C839 1.415 . S
C842 H832 0.930 . S
C842 C840 1.419 . S
C842 C843 1.362 . S
C843 H833 0.930 . S
C843 C836 1.409 . S
C843 C842 1.362 . S
H844 C850 0.930 . S
H845 C853 0.930 . S
H846 C854 0.930 . S
H847 C855 0.943 . S
H848 C858 0.930 . S
H849 C859 0.930 . S
C850 H844 0.930 . S
C850 C851 1.355 . S
C850 C852 1.415 . S
C851 C850 1.355 . S
C851 C853 1.419 . S
C852 C850 1.415 . S
C852 C857 1.425 . S
C852 C859 1.409 . S
C853 H845 0.930 . S
C853 C851 1.419 . S
C853 C854 1.362 . S
C854 H846 0.930 . S
C854 C853 1.362 . S
C854 C857 1.409 . S
C855 H847 0.943 . S
C855 C856 1.355 1_545 S
C855 C857 1.415 . S
C856 C855 1.355 1_565 S
C856 C858 1.419 . S
C857 C852 1.425 . S
C857 C854 1.409 . S
C857 C855 1.415 . S
C858 H848 0.930 . S
C858 C856 1.419 . S
C858 C859 1.362 1_565 S
C859 H849 0.930 . S
C859 C852 1.409 . S
C859 C858 1.362 1_545 S
H860 C866 0.930 . S
H861 C869 0.930 . S
H862 C870 0.930 . S
H863 C871 0.930 . S
H864 C874 0.930 . S
H865 C875 0.930 . S
C866 H860 0.930 . S
C866 C867 1.355 . S
C866 C868 1.415 . S
C867 C866 1.355 . S
C867 C869 1.419 . S
C868 C866 1.415 . S
C868 C873 1.425 . S
C868 C875 1.409 . S
C869 H861 0.930 . S
C869 C867 1.419 . S
C869 C870 1.362 . S
C870 H862 0.930 . S
C870 C869 1.362 . S
C870 C873 1.409 . S
C871 H863 0.930 . S
C871 C872 1.355 . S
C871 C873 1.415 1_455 S
C872 C871 1.355 . S
C872 C874 1.419 . S
C873 C868 1.425 . S
C873 C870 1.409 . S
C873 C871 1.415 1_655 S
C874 H864 0.930 . S
C874 C872 1.419 . S
C874 C875 1.362 1_455 S
C875 H865 0.930 . S
C875 C868 1.409 . S
C875 C874 1.362 1_655 S
H876 C882 0.930 . S
H877 C885 0.930 . S
H878 C886 0.930 . S
H879 C887 0.930 . S
H880 C890 0.930 . S
H881 C891 0.930 . S
C882 H876 0.930 . S
C882 C883 1.355 . S
C882 C884 1.415 . S
C883 C882 1.355 . S
C883 C885 1.419 . S
C884 C882 1.415 . S
C884 C889 1.425 . S
C884 C891 1.409 . S
C885 H877 0.930 . S
C885 C883 1.419 . S
C885 C886 1.362 . S
C886 H878 0.930 . S
C886 C885 1.362 . S
C886 C889 1.409 . S
C887 H879 0.930 . S
C887 C888 1.355 . S
C887 C889 1.415 . S
C888 C887 1.355 . S
C888 C890 1.419 . S
C889 C884 1.425 . S
C889 C886 1.409 . S
C889 C887 1.415 . S
C890 H880 0.930 . S
C890 C888 1.419 . S
C890 C891 1.362 . S
C891 H881 0.930 . S
C891 C884 1.409 . S
C891 C890 1.362 . S
H892 C898 0.930 . S
H893 C901 0.930 . S
H894 C902 0.930 . S
H895 C903 0.930 . S
H896 C906 0.936 . S
H897 C907 0.930 . S
C898 H892 0.930 . S
C898 C899 1.355 . S
C898 C900 1.415 . S
C899 C898 1.355 . S
C899 C901 1.419 . S
C900 C898 1.415 . S
C900 C905 1.425 . S
C900 C907 1.409 . S
C901 H893 0.930 . S
C901 C899 1.419 . S
C901 C902 1.362 . S
C902 H894 0.930 . S
C902 C901 1.362 . S
C902 C905 1.409 . S
C903 H895 0.930 . S
C903 C904 1.355 . S
C903 C905 1.415 1_545 S
C904 C903 1.355 . S
C904 C906 1.419 1_545 S
C905 C900 1.425 . S
C905 C902 1.409 . S
C905 C903 1.415 1_565 S
C906 H896 0.936 . S
C906 C904 1.419 1_565 S
C906 C907 1.362 . S
C907 H897 0.930 . S
C907 C900 1.409 . S
C907 C906 1.362 . S
H908 C914 0.930 . S
H909 C917 0.930 . S
H910 C918 0.930 . S
H911 C919 0.930 . S
H912 C922 0.930 . S
H913 C923 0.930 . S
C914 H908 0.930 . S
C914 C915 1.355 . S
C914 C916 1.415 1_655 S
C915 C914 1.355 . S
C915 C917 1.419 . S
C916 C914 1.415 1_455 S
C916 C921 1.425 . S
C916 C923 1.409 . S
C917 H909 0.930 . S
C917 C915 1.419 . S
C917 C918 1.362 1_655 S
C918 H910 0.930 . S
C918 C917 1.362 1_455 S
C918 C921 1.409 . S
C919 H911 0.930 . S
C919 C920 1.355 . S
C919 C921 1.415 . S
C920 C919 1.355 . S
C920 C922 1.419 . S
C921 C916 1.425 . S
C921 C918 1.409 . S
C921 C919 1.415 . S
C922 H912 0.930 . S
C922 C920 1.419 . S
C922 C923 1.362 . S
C923 H913 0.930 . S
C923 C916 1.409 . S
C923 C922 1.362 . S
H924 C930 0.930 . S
H925 C933 0.930 . S
H926 C934 0.930 . S
H927 C935 0.930 . S
H928 C938 0.930 . S
H929 C939 0.930 . S
C930 H924 0.930 . S
C930 C931 1.355 . S
C930 C932 1.415 . S
C931 C930 1.355 . S
C931 C933 1.419 . S
C932 C930 1.415 . S
C932 C937 1.425 . S
C932 C939 1.409 . S
C933 H925 0.930 . S
C933 C931 1.419 . S
C933 C934 1.362 . S
C934 H926 0.930 . S
C934 C933 1.362 . S
C934 C937 1.409 . S
C935 H927 0.930 . S
C935 C936 1.355 . S
C935 C937 1.415 1_455 S
C936 C935 1.355 . S
C936 C938 1.419 . S
C937 C932 1.425 . S
C937 C934 1.409 . S
C937 C935 1.415 1_655 S
C938 H928 0.930 . S
C938 C936 1.419 . S
C938 C939 1.362 1_455 S
C939 H929 0.930 . S
C939 C932 1.409 . S
C939 C938 1.362 1_655 S
H940 C946 0.930 . S
H941 C949 0.930 . S
H942 C950 0.930 . S
H943 C951 0.930 . S
H944 C954 0.930 . S
H945 C955 0.930 . S
C946 H940 0.930 . S
C946 C947 1.355 . S
C946 C948 1.415 . S
C947 C946 1.355 . S
C947 C949 1.419 . S
C948 C946 1.415 . S
C948 C953 1.425 . S
C948 C955 1.409 . S
C949 H941 0.930 . S
C949 C947 1.419 . S
C949 C950 1.362 . S
C950 H942 0.930 . S
C950 C949 1.362 . S
C950 C953 1.409 . S
C951 H943 0.930 . S
C951 C952 1.355 . S
C951 C953 1.415 . S
C952 C951 1.355 . S
C952 C954 1.419 . S
C953 C948 1.425 . S
C953 C950 1.409 . S
C953 C951 1.415 . S
C954 H944 0.930 . S
C954 C952 1.419 . S
C954 C955 1.362 . S
C955 H945 0.930 . S
C955 C948 1.409 . S
C955 C954 1.362 . S
H956 C962 0.930 . S
H957 C965 0.930 . S
H958 C966 0.930 . S
H959 C967 0.930 . S
H960 C970 0.930 . S
H961 C971 0.930 . S
C962 H956 0.930 . S
C962 C963 1.355 . S
C962 C964 1.415 . S
C963 C962 1.355 . S
C963 C965 1.419 . S
C964 C962 1.415 . S
C964 C969 1.425 . S
C964 C971 1.409 1_545 S
C965 H957 0.930 . S
C965 C963 1.419 . S
C965 C966 1.362 . S
C966 H958 0.930 . S
C966 C965 1.362 . S
C966 C969 1.409 . S
C967 H959 0.930 . S
C967 C968 1.355 1_545 S
C967 C969 1.415 . S
C968 C967 1.355 1_565 S
C968 C970 1.419 . S
C969 C964 1.425 . S
C969 C966 1.409 . S
C969 C967 1.415 . S
C970 H960 0.930 . S
C970 C968 1.419 . S
C970 C971 1.362 . S
C971 H961 0.930 . S
C971 C964 1.409 1_565 S
C971 C970 1.362 . S
H972 C978 0.930 . S
H973 C981 0.930 . S
H974 C982 0.930 . S
H975 C983 0.930 . S
H976 C986 0.930 . S
H977 C987 0.930 . S
C978 H972 0.930 . S
C978 C979 1.355 . S
C978 C980 1.415 . S
C979 C978 1.355 . S
C979 C981 1.419 . S
C980 C978 1.415 . S
C980 C985 1.425 . S
C980 C987 1.409 . S
C981 H973 0.930 . S
C981 C979 1.419 . S
C981 C982 1.362 . S
C982 H974 0.930 . S
C982 C981 1.362 . S
C982 C985 1.409 . S
C983 H975 0.930 . S
C983 C984 1.355 . S
C983 C985 1.415 . S
C984 C983 1.355 . S
C984 C986 1.419 . S
C985 C980 1.425 . S
C985 C982 1.409 . S
C985 C983 1.415 . S
C986 H976 0.930 . S
C986 C984 1.419 . S
C986 C987 1.362 . S
C987 H977 0.930 . S
C987 C980 1.409 . S
C987 C986 1.362 . S
H988 C994 0.930 . S
H989 C997 0.930 . S
H990 C998 0.930 . S
H991 C999 0.930 . S
H992 C1002 0.930 . S
H993 C1003 0.930 . S
C994 H988 0.930 . S
C994 C995 1.355 . S
C994 C996 1.415 . S
C995 C994 1.355 . S
C995 C997 1.419 . S
C996 C994 1.415 . S
C996 C1001 1.425 . S
C996 C1003 1.409 . S
C997 H989 0.930 . S
C997 C995 1.419 . S
C997 C998 1.362 . S
C998 H990 0.930 . S
C998 C997 1.362 . S
C998 C1001 1.409 . S
C999 H991 0.930 . S
C999 C1000 1.355 . S
C999 C1001 1.415 . S
C1000 C999 1.355 . S
C1000 C1002 1.419 . S
C1001 C996 1.425 . S
C1001 C998 1.409 . S
C1001 C999 1.415 . S
C1002 H992 0.930 . S
C1002 C1000 1.419 . S
C1002 C1003 1.362 . S
C1003 H993 0.930 . S
C1003 C996 1.409 . S
C1003 C1002 1.362 . S
H1004 C1010 0.930 . S
H1005 C1013 0.930 . S
H1006 C1014 0.930 . S
H1007 C1015 0.930 . S
H1008 C1018 0.930 . S
H1009 C1019 0.930 . S
C1010 H1004 0.930 . S
C1010 C1011 1.355 . S
C1010 C1012 1.415 . S
C1011 C1010 1.355 . S
C1011 C1013 1.419 . S
C1012 C1010 1.415 . S
C1012 C1017 1.425 . S
C1012 C1019 1.409 . S
C1013 H1005 0.930 . S
C1013 C1011 1.419 . S
C1013 C1014 1.362 . S
C1014 H1006 0.930 . S
C1014 C1013 1.362 . S
C1014 C1017 1.409 . S
C1015 H1007 0.930 . S
C1015 C1016 1.355 . S
C1015 C1017 1.415 . S
C1016 C1015 1.355 . S
C1016 C1018 1.419 . S
C1017 C1012 1.425 . S
C1017 C1014 1.409 . S
C1017 C1015 1.415 . S
C1018 H1008 0.930 . S
C1018 C1016 1.419 . S
C1018 C1019 1.362 . S
C1019 H1009 0.930 . S
C1019 C1012 1.409 . S
C1019 C1018 1.362 . S
H1020 C1026 0.930 . S
H1021 C1029 0.930 . S
H1022 C1030 0.930 . S
H1023 C1031 0.930 . S
H1024 C1034 0.930 . S
H1025 C1035 0.930 . S
C1026 H1020 0.930 . S
C1026 C1027 1.355 . S
C1026 C1028 1.415 . S
C1027 C1026 1.355 . S
C1027 C1029 1.419 . S
C1028 C1026 1.415 . S
C1028 C1033 1.425 . S
C1028 C1035 1.409 . S
C1029 H1021 0.930 . S
C1029 C1027 1.419 . S
C1029 C1030 1.362 . S
C1030 H1022 0.930 . S
C1030 C1029 1.362 . S
C1030 C1033 1.409 . S
C1031 H1023 0.930 . S
C1031 C1032 1.355 . S
C1031 C1033 1.415 . S
C1032 C1031 1.355 . S
C1032 C1034 1.419 . S
C1033 C1028 1.425 . S
C1033 C1030 1.409 . S
C1033 C1031 1.415 . S
C1034 H1024 0.930 . S
C1034 C1032 1.419 . S
C1034 C1035 1.362 . S
C1035 H1025 0.930 . S
C1035 C1028 1.409 . S
C1035 C1034 1.362 . S
H1036 C1042 0.930 . S
H1037 C1045 0.930 . S
H1038 C1046 0.930 1_655 S
H1039 C1047 0.930 . S
H1040 C1050 0.930 . S
H1041 C1051 0.930 . S
C1042 H1036 0.930 . S
C1042 C1043 1.355 . S
C1042 C1044 1.415 . S
C1043 C1042 1.355 . S
C1043 C1045 1.419 . S
C1044 C1042 1.415 . S
C1044 C1049 1.425 . S
C1044 C1051 1.409 . S
C1045 H1037 0.930 . S
C1045 C1043 1.419 . S
C1045 C1046 1.362 . S
C1046 H1038 0.930 1_455 S
C1046 C1045 1.362 . S
C1046 C1049 1.409 . S
C1047 H1039 0.930 . S
C1047 C1048 1.355 . S
C1047 C1049 1.415 . S
C1048 C1047 1.355 . S
C1048 C1050 1.419 . S
C1049 C1044 1.425 . S
C1049 C1046 1.409 . S
C1049 C1047 1.415 . S
C1050 H1040 0.930 . S
C1050 C1048 1.419 . S
C1050 C1051 1.362 . S
C1051 H1041 0.930 . S
C1051 C1044 1.409 . S
C1051 C1050 1.362 . S
H1052 C1058 0.930 . S
H1053 C1061 0.930 1_554 S
H1054 C1062 0.930 . S
H1055 C1063 0.930 . S
H1056 C1066 0.930 . S
H1057 C1067 0.930 . S
C1058 H1052 0.930 . S
C1058 C1059 1.355 . S
C1058 C1060 1.415 . S
C1059 C1058 1.355 . S
C1059 C1061 1.419 . S
C1060 C1058 1.415 . S
C1060 C1065 1.425 . S
C1060 C1067 1.409 . S
C1061 H1053 0.930 1_556 S
C1061 C1059 1.419 . S
C1061 C1062 1.362 . S
C1062 H1054 0.930 . S
C1062 C1061 1.362 . S
C1062 C1065 1.409 . S
C1063 H1055 0.930 . S
C1063 C1064 1.355 . S
C1063 C1065 1.415 . S
C1064 C1063 1.355 . S
C1064 C1066 1.419 . S
C1065 C1060 1.425 . S
C1065 C1062 1.409 . S
C1065 C1063 1.415 . S
C1066 H1056 0.930 . S
C1066 C1064 1.419 . S
C1066 C1067 1.362 . S
C1067 H1057 0.930 . S
C1067 C1060 1.409 . S
C1067 C1066 1.362 . S
H1068 C1074 0.930 . S
H1069 C1077 0.930 . S
H1070 C1078 0.930 . S
H1071 C1079 0.930 . S
H1072 C1082 0.930 . S
H1073 C1083 0.930 . S
C1074 H1068 0.930 . S
C1074 C1075 1.355 1_455 S
C1074 C1076 1.415 . S
C1075 C1074 1.355 1_655 S
C1075 C1077 1.419 . S
C1076 C1074 1.415 . S
C1076 C1081 1.425 . S
C1076 C1083 1.409 . S
C1077 H1069 0.930 . S
C1077 C1075 1.419 . S
C1077 C1078 1.362 1_655 S
C1078 H1070 0.930 . S
C1078 C1077 1.362 1_455 S
C1078 C1081 1.409 . S
C1079 H1071 0.930 . S
C1079 C1080 1.355 . S
C1079 C1081 1.415 . S
C1080 C1079 1.355 . S
C1080 C1082 1.419 . S
C1081 C1076 1.425 . S
C1081 C1078 1.409 . S
C1081 C1079 1.415 . S
C1082 H1072 0.930 . S
C1082 C1080 1.419 . S
C1082 C1083 1.362 . S
C1083 H1073 0.930 . S
C1083 C1076 1.409 . S
C1083 C1082 1.362 . S
H1084 C1090 0.930 . S
H1085 C1093 0.930 . S
H1086 C1094 0.930 . S
H1087 C1095 0.930 . S
H1088 C1098 0.930 . S
H1089 C1099 0.930 . S
C1090 H1084 0.930 . S
C1090 C1091 1.355 . S
C1090 C1092 1.415 . S
C1091 C1090 1.355 . S
C1091 C1093 1.419 . S
C1092 C1090 1.415 . S
C1092 C1097 1.425 . S
C1092 C1099 1.409 . S
C1093 H1085 0.930 . S
C1093 C1091 1.419 . S
C1093 C1094 1.362 . S
C1094 H1086 0.930 . S
C1094 C1093 1.362 . S
C1094 C1097 1.409 . S
C1095 H1087 0.930 . S
C1095 C1096 1.355 . S
C1095 C1097 1.415 . S
C1096 C1095 1.355 . S
C1096 C1098 1.419 . S
C1097 C1092 1.425 . S
C1097 C1094 1.409 . S
C1097 C1095 1.415 . S
C1098 H1088 0.930 . S
C1098 C1096 1.419 . S
C1098 C1099 1.362 . S
C1099 H1089 0.930 . S
C1099 C1092 1.409 . S
C1099 C1098 1.362 . S
H1100 C1106 0.930 . S
H1101 C1109 0.930 . S
H1102 C1110 0.903 1_545 S
H1103 C1111 0.930 . S
H1104 C1114 0.930 . S
H1105 C1115 0.930 . S
C1106 H1100 0.930 . S
C1106 C1107 1.355 1_565 S
C1106 C1108 1.415 . S
C1107 C1106 1.355 1_545 S
C1107 C1109 1.419 . S
C1108 C1106 1.415 . S
C1108 C1113 1.425 . S
C1108 C1115 1.409 . S
C1109 H1101 0.930 . S
C1109 C1107 1.419 . S
C1109 C1110 1.362 1_545 S
C1110 H1102 0.903 1_565 S
C1110 C1109 1.362 1_565 S
C1110 C1113 1.409 . S
C1111 H1103 0.930 . S
C1111 C1112 1.355 . S
C1111 C1113 1.415 . S
C1112 C1111 1.355 . S
C1112 C1114 1.419 . S
C1113 C1108 1.425 . S
C1113 C1110 1.409 . S
C1113 C1111 1.415 . S
C1114 H1104 0.930 . S
C1114 C1112 1.419 . S
C1114 C1115 1.362 . S
C1115 H1105 0.930 . S
C1115 C1108 1.409 . S
C1115 C1114 1.362 . S
H1116 C1122 0.930 . S
H1117 C1125 0.930 . S
H1118 C1126 0.930 . S
H1119 C1127 0.930 . S
H1120 C1130 0.930 . S
H1121 C1131 0.930 . S
C1122 H1116 0.930 . S
C1122 C1123 1.355 . S
C1122 C1124 1.415 . S
C1123 C1122 1.355 . S
C1123 C1125 1.419 . S
C1124 C1122 1.415 . S
C1124 C1129 1.425 . S
C1124 C1131 1.409 . S
C1125 H1117 0.930 . S
C1125 C1123 1.419 . S
C1125 C1126 1.362 . S
C1126 H1118 0.930 . S
C1126 C1125 1.362 . S
C1126 C1129 1.409 . S
C1127 H1119 0.930 . S
C1127 C1128 1.355 . S
C1127 C1129 1.415 . S
C1128 C1127 1.355 . S
C1128 C1130 1.419 . S
C1129 C1124 1.425 . S
C1129 C1126 1.409 . S
C1129 C1127 1.415 . S
C1130 H1120 0.930 . S
C1130 C1128 1.419 . S
C1130 C1131 1.362 . S
C1131 H1121 0.930 . S
C1131 C1124 1.409 . S
C1131 C1130 1.362 . S
H1132 C1138 0.930 . S
H1133 C1141 0.930 . S
H1134 C1142 0.930 . S
H1135 C1143 0.930 . S
H1136 C1146 0.930 . S
H1137 C1147 0.930 . S
C1138 H1132 0.930 . S
C1138 C1139 1.355 . S
C1138 C1140 1.415 . S
C1139 C1138 1.355 . S
C1139 C1141 1.419 . S
C1140 C1138 1.415 . S
C1140 C1145 1.425 . S
C1140 C1147 1.409 . S
C1141 H1133 0.930 . S
C1141 C1139 1.419 . S
C1141 C1142 1.362 . S
C1142 H1134 0.930 . S
C1142 C1141 1.362 . S
C1142 C1145 1.409 . S
C1143 H1135 0.930 . S
C1143 C1144 1.355 . S
C1143 C1145 1.415 . S
C1144 C1143 1.355 . S
C1144 C1146 1.419 . S
C1145 C1140 1.425 . S
C1145 C1142 1.409 . S
C1145 C1143 1.415 . S
C1146 H1136 0.930 . S
C1146 C1144 1.419 . S
C1146 C1147 1.362 . S
C1147 H1137 0.930 . S
C1147 C1140 1.409 . S
C1147 C1146 1.362 . S
H1148 C1154 0.930 . S
H1149 C1157 0.930 . S
H1150 C1158 0.930 . S
H1151 C1159 0.930 . S
H1152 C1162 0.930 . S
H1153 C1163 0.930 . S
C1154 H1148 0.930 . S
C1154 C1155 1.355 . S
C1154 C1156 1.415 . S
C1155 C1154 1.355 . S
C1155 C1157 1.419 . S
C1156 C1154 1.415 . S
C1156 C1161 1.425 . S
C1156 C1163 1.409 . S
C1157 H1149 0.930 . S
C1157 C1155 1.419 . S
C1157 C1158 1.362 . S
C1158 H1150 0.930 . S
C1158 C1157 1.362 . S
C1158 C1161 1.409 . S
C1159 H1151 0.930 . S
C1159 C1160 1.355 . S
C1159 C1161 1.415 . S
C1160 C1159 1.355 . S
C1160 C1162 1.419 . S
C1161 C1156 1.425 . S
C1161 C1158 1.409 . S
C1161 C1159 1.415 . S
C1162 H1152 0.930 . S
C1162 C1160 1.419 . S
C1162 C1163 1.362 . S
C1163 H1153 0.930 . S
C1163 C1156 1.409 . S
C1163 C1162 1.362 . S
H1164 C1170 0.930 . S
H1165 C1173 0.930 . S
H1166 C1174 0.930 . S
H1167 C1175 0.930 . S
H1168 C1178 0.930 . S
H1169 C1179 0.930 . S
C1170 H1164 0.930 . S
C1170 C1171 1.355 . S
C1170 C1172 1.415 . S
C1171 C1170 1.355 . S
C1171 C1173 1.419 . S
C1172 C1170 1.415 . S
C1172 C1177 1.425 . S
C1172 C1179 1.409 . S
C1173 H1165 0.930 . S
C1173 C1171 1.419 . S
C1173 C1174 1.362 . S
C1174 H1166 0.930 . S
C1174 C1173 1.362 . S
C1174 C1177 1.409 . S
C1175 H1167 0.930 . S
C1175 C1176 1.355 . S
C1175 C1177 1.415 . S
C1176 C1175 1.355 . S
C1176 C1178 1.419 . S
C1177 C1172 1.425 . S
C1177 C1174 1.409 . S
C1177 C1175 1.415 . S
C1178 H1168 0.930 . S
C1178 C1176 1.419 . S
C1178 C1179 1.362 . S
C1179 H1169 0.930 . S
C1179 C1172 1.409 . S
C1179 C1178 1.362 . S
H1180 C1186 0.930 . S
H1181 C1189 0.930 . S
H1182 C1190 0.930 . S
H1183 C1191 0.930 . S
H1184 C1194 0.930 . S
H1185 C1195 0.930 . S
C1186 H1180 0.930 . S
C1186 C1187 1.355 . S
C1186 C1188 1.415 . S
C1187 C1186 1.355 . S
C1187 C1189 1.419 . S
C1188 C1186 1.415 . S
C1188 C1193 1.425 . S
C1188 C1195 1.409 . S
C1189 H1181 0.930 . S
C1189 C1187 1.419 . S
C1189 C1190 1.362 . S
C1190 H1182 0.930 . S
C1190 C1189 1.362 . S
C1190 C1193 1.409 . S
C1191 H1183 0.930 . S
C1191 C1192 1.355 . S
C1191 C1193 1.415 . S
C1192 C1191 1.355 . S
C1192 C1194 1.419 . S
C1193 C1188 1.425 . S
C1193 C1190 1.409 . S
C1193 C1191 1.415 . S
C1194 H1184 0.930 . S
C1194 C1192 1.419 . S
C1194 C1195 1.362 . S
C1195 H1185 0.930 . S
C1195 C1188 1.409 . S
C1195 C1194 1.362 . S
H1196 C1202 0.930 . S
H1197 C1205 0.930 . S
H1198 C1206 0.930 . S
H1199 C1207 0.930 . S
H1200 C1210 0.930 . S
H1201 C1211 0.930 . S
C1202 H1196 0.930 . S
C1202 C1203 1.355 . S
C1202 C1204 1.415 . S
C1203 C1202 1.355 . S
C1203 C1205 1.419 . S
C1204 C1202 1.415 . S
C1204 C1209 1.425 . S
C1204 C1211 1.409 . S
C1205 H1197 0.930 . S
C1205 C1203 1.419 . S
C1205 C1206 1.362 . S
C1206 H1198 0.930 . S
C1206 C1205 1.362 . S
C1206 C1209 1.409 . S
C1207 H1199 0.930 . S
C1207 C1208 1.355 . S
C1207 C1209 1.415 . S
C1208 C1207 1.355 . S
C1208 C1210 1.419 . S
C1209 C1204 1.425 . S
C1209 C1206 1.409 . S
C1209 C1207 1.415 . S
C1210 H1200 0.930 . S
C1210 C1208 1.419 . S
C1210 C1211 1.362 . S
C1211 H1201 0.930 . S
C1211 C1204 1.409 . S
C1211 C1210 1.362 . S
H1212 C1218 0.930 . S
H1213 C1221 0.930 . S
H1214 C1222 0.930 . S
H1215 C1223 0.930 . S
H1216 C1226 0.930 . S
H1217 C1227 0.930 . S
C1218 H1212 0.930 . S
C1218 C1219 1.355 . S
C1218 C1220 1.415 1_545 S
C1219 C1218 1.355 . S
C1219 C1221 1.419 . S
C1220 C1218 1.415 1_565 S
C1220 C1225 1.425 1_564 S
C1220 C1227 1.409 . S
C1221 H1213 0.930 . S
C1221 C1219 1.419 . S
C1221 C1222 1.362 1_554 S
C1222 H1214 0.930 . S
C1222 C1221 1.362 1_556 S
C1222 C1225 1.409 . S
C1223 H1215 0.930 . S
C1223 C1224 1.355 . S
C1223 C1225 1.415 1_565 S
C1224 C1223 1.355 . S
C1224 C1226 1.419 . S
C1225 C1220 1.425 1_546 S
C1225 C1222 1.409 . S
C1225 C1223 1.415 1_545 S
C1226 H1216 0.930 . S
C1226 C1224 1.419 . S
C1226 C1227 1.362 1_556 S
C1227 H1217 0.930 . S
C1227 C1220 1.409 . S
C1227 C1226 1.362 1_554 S
H1228 C1234 0.924 1_455 S
H1229 C1237 0.930 . S
H1230 C1238 0.930 . S
H1231 C1239 0.924 1_655 S
H1232 C1242 0.930 . S
H1233 C1243 0.930 . S
C1234 H1228 0.924 1_655 S
C1234 C1235 1.361 . S
C1234 C1236 1.413 1_655 S
C1235 C1234 1.361 . S
C1235 C1237 1.419 . S
C1236 C1234 1.413 1_455 S
C1236 C1241 1.425 1_454 S
C1236 C1243 1.409 . S
C1237 H1229 0.930 . S
C1237 C1235 1.419 . S
C1237 C1238 1.362 1_554 S
C1238 H1230 0.930 . S
C1238 C1237 1.362 1_556 S
C1238 C1241 1.409 . S
C1239 H1231 0.924 1_455 S
C1239 C1240 1.361 . S
C1239 C1241 1.413 1_455 S
C1240 C1239 1.361 . S
C1240 C1242 1.419 . S
C1241 C1236 1.425 1_656 S
C1241 C1238 1.409 . S
C1241 C1239 1.413 1_655 S
C1242 H1232 0.930 . S
C1242 C1240 1.419 . S
C1242 C1243 1.362 1_556 S
C1243 H1233 0.930 . S
C1243 C1236 1.409 . S
C1243 C1242 1.362 1_554 S
H1244 C1250 0.930 . S
H1245 C1253 0.930 . S
H1246 C1254 0.930 . S
H1247 C1255 0.930 . S
H1248 C1258 0.930 . S
H1249 C1259 0.930 . S
C1250 H1244 0.930 . S
C1250 C1251 1.355 . S
C1250 C1252 1.415 . S
C1251 C1250 1.355 . S
C1251 C1253 1.419 . S
C1252 C1250 1.415 . S
C1252 C1257 1.425 1_556 S
C1252 C1259 1.409 . S
C1253 H1245 0.930 . S
C1253 C1251 1.419 . S
C1253 C1254 1.362 1_556 S
C1254 H1246 0.930 . S
C1254 C1253 1.362 1_554 S
C1254 C1257 1.409 . S
C1255 H1247 0.930 . S
C1255 C1256 1.355 . S
C1255 C1257 1.415 . S
C1256 C1255 1.355 . S
C1256 C1258 1.419 . S
C1257 C1252 1.425 1_554 S
C1257 C1254 1.409 . S
C1257 C1255 1.415 . S
C1258 H1248 0.930 . S
C1258 C1256 1.419 . S
C1258 C1259 1.362 1_554 S
C1259 H1249 0.930 . S
C1259 C1252 1.409 . S
C1259 C1258 1.362 1_556 S
C403 C92 1.476 . S
C408 C8 1.470 . S
C419 C30 1.472 1_546 S
C424 C114 1.462 . S
C435 C70 1.459 . S
C440 C52 1.447 1_655 S
C451 C74 1.448 . S
C456 C26 1.463 . S
C467 C96 1.472 1_565 S
C472 C48 1.476 . S
C483 C4 1.468 . S
C488 C118 1.453 1_455 S
C499 C140 1.447 . S
C504 C224 1.459 . S
C515 C246 1.458 . S
C520 C162 1.468 . S
C531 C202 1.473 . S
C536 C184 1.476 . S
C547 C206 1.476 . S
C552 C158 1.471 . S
C563 C180 1.471 . S
C568 C228 1.476 . S
C579 C250 1.466 . S
C584 C136 1.476 . S
C595 C356 1.475 . S
C600 C272 1.474 . S
C611 C294 1.475 . S
C616 C378 1.467 . S
C627 C334 1.467 . S
C632 C316 1.451 . S
C643 C290 1.469 . S
C648 C338 1.476 . S
C659 C360 1.469 . S
C664 C312 1.476 . S
C675 C268 1.456 . S
C680 C382 1.446 . S
C691 C5 1.004 . S
C696 C336 1.004 . S
C707 C27 1.021 . S
C712 C358 1.021 . S
C723 C380 1.122 . S
C728 C49 1.122 . S
C739 C72 1.145 . S
C744 C137 1.145 . S
C755 C94 1.143 . S
C760 C159 1.143 . S
C771 C181 1.143 . S
C776 C116 1.143 . S
C787 C269 1.109 . S
C792 C204 1.109 . S
C803 C291 1.038 . S
C808 C226 1.038 . S
C819 C313 1.149 . S
C824 C248 1.149 . S
C835 C9 1.327 . S
C840 C161 1.263 . S
C851 C183 1.177 . S
C856 C31 1.317 . S
C867 C139 1.237 . S
C872 C53 1.324 . S
C883 C73 1.324 . S
C888 C361 1.260 . S
C899 C383 1.205 . S
C904 C95 1.319 . S
C915 C117 1.324 . S
C920 C339 1.232 . S
C931 C141 1.319 . S
C936 C293 1.207 . S
C947 C163 1.327 . S
C952 C315 1.279 . S
C963 C185 1.327 . S
C968 C271 1.275 . S
C979 C97 1.223 . S
C984 C205 1.323 . S
C995 C119 1.247 . S
C1000 C227 1.323 . S
C1011 C75 1.250 . S
C1016 C249 1.323 . S
C1027 C273 1.327 . S
C1032 C29 1.277 . S
C1043 C295 1.317 . S
C1048 C51 1.167 . S
C1059 C7 1.191 . S
C1064 C317 1.317 . S
C1075 C229 1.258 . S
C1080 C337 1.326 . S
C1091 C359 1.321 . S
C1096 C251 1.233 . S
C1107 C207 1.264 . S
C1112 C381 1.324 . S
C1123 C6 1.791 . S
C1128 C335 1.791 . S
C1139 C28 1.792 . S
C1144 C357 1.792 . S
C1155 C50 1.843 . S
C1160 C379 1.843 . S
C1171 C138 1.799 . S
C1176 C71 1.799 . S
C1187 C93 1.827 . S
C1192 C160 1.827 . S
C1203 C182 1.792 . S
C1208 C115 1.792 . S
C1219 C203 1.809 . S
C1224 C270 1.809 . S
C1235 C225 1.835 . S
C1240 C292 1.835 . S
C1251 C314 1.791 . S
C1256 C247 1.791 . S
