# Generated by pormake.
# Topology wgn, (5)-cn, num edge types: 1
# Building blocks:
#     Node 0, Type 0, BuildingBlock: BEQFEK_clean_sbu_0, # of connection points: 5
#     Node 1, Type 0, BuildingBlock: BEQFEK_clean_sbu_0, # of connection points: 5
#     Node 2, Type 0, BuildingBlock: BEQFEK_clean_sbu_0, # of connection points: 5
#     Node 3, Type 0, BuildingBlock: BEQFEK_clean_sbu_0, # of connection points: 5
#     Node 4, Type 0, BuildingBlock: BEQFEK_clean_sbu_0, # of connection points: 5
#     Node 5, Type 0, BuildingBlock: BEQFEK_clean_sbu_0, # of connection points: 5
#     Node 6, Type 0, BuildingBlock: BEQFEK_clean_sbu_0, # of connection points: 5
#     Node 7, Type 0, BuildingBlock: BEQFEK_clean_sbu_0, # of connection points: 5
#     Node 8, Type 0, BuildingBlock: BEQFEK_clean_sbu_0, # of connection points: 5
#     Node 9, Type 0, BuildingBlock: BEQFEK_clean_sbu_0, # of connection points: 5
#     Node 10, Type 0, BuildingBlock: BEQFEK_clean_sbu_0, # of connection points: 5
#     Node 11, Type 0, BuildingBlock: BEQFEK_clean_sbu_0, # of connection points: 5
#     Node 12, Type 0, BuildingBlock: BEQFEK_clean_sbu_0, # of connection points: 5
#     Node 13, Type 0, BuildingBlock: BEQFEK_clean_sbu_0, # of connection points: 5
#     Node 14, Type 0, BuildingBlock: BEQFEK_clean_sbu_0, # of connection points: 5
#     Node 15, Type 0, BuildingBlock: BEQFEK_clean_sbu_0, # of connection points: 5
#     Node 16, Type 0, BuildingBlock: BEQFEK_clean_sbu_0, # of connection points: 5
#     Node 17, Type 0, BuildingBlock: BEQFEK_clean_sbu_0, # of connection points: 5
#     Node 18, Type 0, BuildingBlock: BEQFEK_clean_sbu_0, # of connection points: 5
#     Node 19, Type 0, BuildingBlock: BEQFEK_clean_sbu_0, # of connection points: 5
#     Node 20, Type 0, BuildingBlock: BEQFEK_clean_sbu_0, # of connection points: 5
#     Node 21, Type 0, BuildingBlock: BEQFEK_clean_sbu_0, # of connection points: 5
#     Node 22, Type 0, BuildingBlock: BEQFEK_clean_sbu_0, # of connection points: 5
#     Node 23, Type 0, BuildingBlock: BEQFEK_clean_sbu_0, # of connection points: 5
#     Node 24, Type 0, BuildingBlock: BEQFEK_clean_sbu_0, # of connection points: 5
#     Node 25, Type 0, BuildingBlock: BEQFEK_clean_sbu_0, # of connection points: 5
#     Node 26, Type 0, BuildingBlock: BEQFEK_clean_sbu_0, # of connection points: 5
#     Node 27, Type 0, BuildingBlock: BEQFEK_clean_sbu_0, # of connection points: 5
#     Node 28, Type 0, BuildingBlock: BEQFEK_clean_sbu_0, # of connection points: 5
#     Node 29, Type 0, BuildingBlock: BEQFEK_clean_sbu_0, # of connection points: 5
#     Node 30, Type 0, BuildingBlock: BEQFEK_clean_sbu_0, # of connection points: 5
#     Node 31, Type 0, BuildingBlock: BEQFEK_clean_sbu_0, # of connection points: 5
#     Edge 32, Type (0, 0), BuildingBlock: CIFDUS_clean_linker_0, # of connection points: 2
#     Edge 33, Type (0, 0), BuildingBlock: CIFDUS_clean_linker_0, # of connection points: 2
#     Edge 34, Type (0, 0), BuildingBlock: CIFDUS_clean_linker_0, # of connection points: 2
#     Edge 35, Type (0, 0), BuildingBlock: CIFDUS_clean_linker_0, # of connection points: 2
#     Edge 36, Type (0, 0), BuildingBlock: CIFDUS_clean_linker_0, # of connection points: 2
#     Edge 37, Type (0, 0), BuildingBlock: CIFDUS_clean_linker_0, # of connection points: 2
#     Edge 38, Type (0, 0), BuildingBlock: CIFDUS_clean_linker_0, # of connection points: 2
#     Edge 39, Type (0, 0), BuildingBlock: CIFDUS_clean_linker_0, # of connection points: 2
#     Edge 40, Type (0, 0), BuildingBlock: CIFDUS_clean_linker_0, # of connection points: 2
#     Edge 41, Type (0, 0), BuildingBlock: CIFDUS_clean_linker_0, # of connection points: 2
#     Edge 42, Type (0, 0), BuildingBlock: CIFDUS_clean_linker_0, # of connection points: 2
#     Edge 43, Type (0, 0), BuildingBlock: CIFDUS_clean_linker_0, # of connection points: 2
#     Edge 44, Type (0, 0), BuildingBlock: CIFDUS_clean_linker_0, # of connection points: 2
#     Edge 45, Type (0, 0), BuildingBlock: CIFDUS_clean_linker_0, # of connection points: 2
#     Edge 46, Type (0, 0), BuildingBlock: CIFDUS_clean_linker_0, # of connection points: 2
#     Edge 47, Type (0, 0), BuildingBlock: CIFDUS_clean_linker_0, # of connection points: 2
#     Edge 48, Type (0, 0), BuildingBlock: CIFDUS_clean_linker_0, # of connection points: 2
#     Edge 49, Type (0, 0), BuildingBlock: CIFDUS_clean_linker_0, # of connection points: 2
#     Edge 50, Type (0, 0), BuildingBlock: CIFDUS_clean_linker_0, # of connection points: 2
#     Edge 51, Type (0, 0), BuildingBlock: CIFDUS_clean_linker_0, # of connection points: 2
#     Edge 52, Type (0, 0), BuildingBlock: CIFDUS_clean_linker_0, # of connection points: 2
#     Edge 53, Type (0, 0), BuildingBlock: CIFDUS_clean_linker_0, # of connection points: 2
#     Edge 54, Type (0, 0), BuildingBlock: CIFDUS_clean_linker_0, # of connection points: 2
#     Edge 55, Type (0, 0), BuildingBlock: CIFDUS_clean_linker_0, # of connection points: 2
#     Edge 56, Type (0, 0), BuildingBlock: CIFDUS_clean_linker_0, # of connection points: 2
#     Edge 57, Type (0, 0), BuildingBlock: CIFDUS_clean_linker_0, # of connection points: 2
#     Edge 58, Type (0, 0), BuildingBlock: CIFDUS_clean_linker_0, # of connection points: 2
#     Edge 59, Type (0, 0), BuildingBlock: CIFDUS_clean_linker_0, # of connection points: 2
#     Edge 60, Type (0, 0), BuildingBlock: CIFDUS_clean_linker_0, # of connection points: 2
#     Edge 61, Type (0, 0), BuildingBlock: CIFDUS_clean_linker_0, # of connection points: 2
#     Edge 62, Type (0, 0), BuildingBlock: CIFDUS_clean_linker_0, # of connection points: 2
#     Edge 63, Type (0, 0), BuildingBlock: CIFDUS_clean_linker_0, # of connection points: 2
#     Edge 64, Type (0, 0), BuildingBlock: CIFDUS_clean_linker_0, # of connection points: 2
#     Edge 65, Type (0, 0), BuildingBlock: CIFDUS_clean_linker_0, # of connection points: 2
#     Edge 66, Type (0, 0), BuildingBlock: CIFDUS_clean_linker_0, # of connection points: 2
#     Edge 67, Type (0, 0), BuildingBlock: CIFDUS_clean_linker_0, # of connection points: 2
#     Edge 68, Type (0, 0), BuildingBlock: CIFDUS_clean_linker_0, # of connection points: 2
#     Edge 69, Type (0, 0), BuildingBlock: CIFDUS_clean_linker_0, # of connection points: 2
#     Edge 70, Type (0, 0), BuildingBlock: CIFDUS_clean_linker_0, # of connection points: 2
#     Edge 71, Type (0, 0), BuildingBlock: CIFDUS_clean_linker_0, # of connection points: 2
#     Edge 72, Type (0, 0), BuildingBlock: CIFDUS_clean_linker_0, # of connection points: 2
#     Edge 73, Type (0, 0), BuildingBlock: CIFDUS_clean_linker_0, # of connection points: 2
#     Edge 74, Type (0, 0), BuildingBlock: CIFDUS_clean_linker_0, # of connection points: 2
#     Edge 75, Type (0, 0), BuildingBlock: CIFDUS_clean_linker_0, # of connection points: 2
#     Edge 76, Type (0, 0), BuildingBlock: CIFDUS_clean_linker_0, # of connection points: 2
#     Edge 77, Type (0, 0), BuildingBlock: CIFDUS_clean_linker_0, # of connection points: 2
#     Edge 78, Type (0, 0), BuildingBlock: CIFDUS_clean_linker_0, # of connection points: 2
#     Edge 79, Type (0, 0), BuildingBlock: CIFDUS_clean_linker_0, # of connection points: 2
#     Edge 80, Type (0, 0), BuildingBlock: CIFDUS_clean_linker_0, # of connection points: 2
#     Edge 81, Type (0, 0), BuildingBlock: CIFDUS_clean_linker_0, # of connection points: 2
#     Edge 82, Type (0, 0), BuildingBlock: CIFDUS_clean_linker_0, # of connection points: 2
#     Edge 83, Type (0, 0), BuildingBlock: CIFDUS_clean_linker_0, # of connection points: 2
#     Edge 84, Type (0, 0), BuildingBlock: CIFDUS_clean_linker_0, # of connection points: 2
#     Edge 85, Type (0, 0), BuildingBlock: CIFDUS_clean_linker_0, # of connection points: 2
#     Edge 86, Type (0, 0), BuildingBlock: CIFDUS_clean_linker_0, # of connection points: 2
#     Edge 87, Type (0, 0), BuildingBlock: CIFDUS_clean_linker_0, # of connection points: 2
#     Edge 88, Type (0, 0), BuildingBlock: CIFDUS_clean_linker_0, # of connection points: 2
#     Edge 89, Type (0, 0), BuildingBlock: CIFDUS_clean_linker_0, # of connection points: 2
#     Edge 90, Type (0, 0), BuildingBlock: CIFDUS_clean_linker_0, # of connection points: 2
#     Edge 91, Type (0, 0), BuildingBlock: CIFDUS_clean_linker_0, # of connection points: 2
#     Edge 92, Type (0, 0), BuildingBlock: CIFDUS_clean_linker_0, # of connection points: 2
#     Edge 93, Type (0, 0), BuildingBlock: CIFDUS_clean_linker_0, # of connection points: 2
#     Edge 94, Type (0, 0), BuildingBlock: CIFDUS_clean_linker_0, # of connection points: 2
#     Edge 95, Type (0, 0), BuildingBlock: CIFDUS_clean_linker_0, # of connection points: 2
#     Edge 96, Type (0, 0), BuildingBlock: CIFDUS_clean_linker_0, # of connection points: 2
#     Edge 97, Type (0, 0), BuildingBlock: CIFDUS_clean_linker_0, # of connection points: 2
#     Edge 98, Type (0, 0), BuildingBlock: CIFDUS_clean_linker_0, # of connection points: 2
#     Edge 99, Type (0, 0), BuildingBlock: CIFDUS_clean_linker_0, # of connection points: 2
#     Edge 100, Type (0, 0), BuildingBlock: CIFDUS_clean_linker_0, # of connection points: 2
#     Edge 101, Type (0, 0), BuildingBlock: CIFDUS_clean_linker_0, # of connection points: 2
#     Edge 102, Type (0, 0), BuildingBlock: CIFDUS_clean_linker_0, # of connection points: 2
#     Edge 103, Type (0, 0), BuildingBlock: CIFDUS_clean_linker_0, # of connection points: 2
#     Edge 104, Type (0, 0), BuildingBlock: CIFDUS_clean_linker_0, # of connection points: 2
#     Edge 105, Type (0, 0), BuildingBlock: CIFDUS_clean_linker_0, # of connection points: 2
#     Edge 106, Type (0, 0), BuildingBlock: CIFDUS_clean_linker_0, # of connection points: 2
#     Edge 107, Type (0, 0), BuildingBlock: CIFDUS_clean_linker_0, # of connection points: 2
#     Edge 108, Type (0, 0), BuildingBlock: CIFDUS_clean_linker_0, # of connection points: 2
#     Edge 109, Type (0, 0), BuildingBlock: CIFDUS_clean_linker_0, # of connection points: 2
#     Edge 110, Type (0, 0), BuildingBlock: CIFDUS_clean_linker_0, # of connection points: 2
#     Edge 111, Type (0, 0), BuildingBlock: CIFDUS_clean_linker_0, # of connection points: 2
# Relax obj value: 0.166
# Max RMSD: 0.138
# Mean RMSD: 0.136
data_MOF--net-wgn--node1-BEQFEK_clean_sbu_0--edge1-CIFDUS_clean_linker_0
_symmetry_space_group_name_H-M    P1
_symmetry_Int_Tables_number       1
_symmetry_cell_setting            triclinic
loop_
_symmetry_equiv_pos_as_xyz
'x, y, z'
_cell_length_a     27.249968
_cell_length_b     27.291303
_cell_length_c     134.13223
_cell_angle_alpha  89.956037
_cell_angle_beta   90.040081
_cell_angle_gamma 90.093586
loop_
_atom_site_label
_atom_site_type_symbol
_atom_site_fract_x
_atom_site_fract_y
_atom_site_fract_z
_atom_type_partial_charge
Co0 Co 0.30285 0.1471 0.33694 0.0
Co1 Co 0.30143 0.16312 0.31329 0.0
C2 C 0.26089 0.23786 0.32727 0.0
O3 O 0.27207 0.21374 0.33514 0.0
O4 O 0.26714 0.22011 0.3186 0.0
C5 C 0.27749 0.12669 0.3585 0.0
O6 O 0.23343 0.14463 0.35694 0.0
C7 C 0.27105 0.19241 0.29294 0.0
C8 C 0.33704 0.17191 0.28441 0.0
C9 C 0.29278 0.19672 0.2835 0.0
N10 N 0.30173 0.1675 0.29899 0.0
N11 N 0.34081 0.15495 0.29378 0.0
C12 C 0.22246 0.21126 0.29638 0.0
H13 H 0.22542 0.25109 0.29792 0.0
H14 H 0.21105 0.19237 0.30333 0.0
H15 H 0.19411 0.20507 0.29057 0.0
C16 C 0.26314 0.05076 0.33026 0.0
N17 N 0.27671 0.09731 0.32831 0.0
N18 N 0.27755 0.10365 0.31857 0.0
C19 C 0.26541 0.06143 0.31402 0.0
C20 C 0.25587 0.02621 0.32128 0.0
C21 C 0.25828 0.03027 0.34056 0.0
H22 H 0.23783 0.0565 0.34529 0.0
H23 H 0.23861 0.99465 0.34056 0.0
H24 H 0.29536 0.02539 0.34384 0.0
O25 O 0.37185 0.15955 0.33355 0.0
O26 O 0.36962 0.17304 0.31725 0.0
H27 H 0.30675 0.06632 0.30054 0.0
H28 H 0.26529 0.01518 0.30078 0.0
C29 C 0.26995 0.05397 0.303 0.0
H30 H 0.24228 0.07691 0.29912 0.0
H31 H 0.37122 0.13701 0.29677 0.0
O32 O 0.30789 0.12487 0.3513 0.0
C33 C 0.39294 0.17129 0.32544 0.0
Co34 Co 0.08677 0.03937 0.58752 0.0
Co35 Co 0.07524 0.03638 0.56383 0.0
C36 C 0.0035 0.98511 0.57689 0.0
O37 O 0.0255 -0.00112 0.58486 0.0
O38 O 0.02131 0.99426 0.56832 0.0
C39 C 0.12183 0.01257 0.60823 0.0
O40 O 0.13028 0.9675 0.60527 0.0
C41 C 0.04697 0.01816 0.54278 0.0
C42 C 0.08511 0.07904 0.53521 0.0
C43 C 0.05147 0.04171 0.5336 0.0
N44 N 0.07572 0.04123 0.54949 0.0
N45 N 0.09862 0.07738 0.54486 0.0
C46 C 0.01623 0.97431 0.54516 0.0
H47 H 0.03328 0.95282 0.55127 0.0
H48 H 0.01185 0.95057 0.53851 0.0
H49 H 0.97947 0.98682 0.54761 0.0
C50 C 0.19084 0.0277 0.58144 0.0
N51 N 0.14251 0.02556 0.57929 0.0
N52 N 0.13711 0.02023 0.56959 0.0
C53 C 0.18171 0.01562 0.56535 0.0
C54 C 0.21771 0.02096 0.57269 0.0
C55 C 0.21028 0.04535 0.59125 0.0
H56 H 0.18409 0.07132 0.59469 0.0
H57 H 0.21516 0.01361 0.59633 0.0
H58 H 0.24601 0.06438 0.59038 0.0
O59 O 0.06628 0.10562 0.58455 0.0
O60 O 0.05579 0.10261 0.56815 0.0
H61 H 0.19201 0.04194 0.55049 0.0
H62 H 0.22338 0.98532 0.55318 0.0
C63 C 0.18918 0.00643 0.55446 0.0
H64 H 0.15754 0.98583 0.55137 0.0
H65 H 0.12174 0.10245 0.5484 0.0
O66 O 0.10401 0.04344 0.6021 0.0
C67 C 0.05369 0.1255 0.57639 0.0
Co68 Co 0.19524 0.85139 0.83319 0.0
Co69 Co 0.20503 0.8455 0.80947 0.0
C70 C 0.2567 0.77494 0.82213 0.0
O71 O 0.23899 0.79266 0.83019 0.0
O72 O 0.25084 0.79617 0.8138 0.0
C73 C 0.21654 0.89369 0.85346 0.0
O74 O 0.25368 0.91731 0.84946 0.0
C75 C 0.23209 0.82038 0.78886 0.0
C76 C 0.16514 0.84268 0.78082 0.0
C77 C 0.20832 0.81634 0.77964 0.0
N78 N 0.20341 0.84623 0.79513 0.0
N79 N 0.16387 0.86014 0.7902 0.0
C80 C 0.28126 0.80081 0.79179 0.0
H81 H 0.2973 0.82359 0.79782 0.0
H82 H 0.30668 0.80095 0.78533 0.0
H83 H 0.27709 0.76278 0.79461 0.0
C84 C 0.19769 0.9575 0.82757 0.0
N85 N 0.20564 0.90991 0.82535 0.0
N86 N 0.21486 0.90653 0.81573 0.0
C87 C 0.21672 0.95163 0.8117 0.0
C88 C 0.20531 0.98586 0.81905 0.0
C89 C 0.17243 0.97405 0.8369 0.0
H90 H 0.15165 0.94337 0.8403 0.0
H91 H 0.2 0.98768 0.84231 0.0
H92 H 0.14657 0.00441 0.83528 0.0
O93 O 0.13087 0.82597 0.82959 0.0
O94 O 0.14003 0.8195 0.81318 0.0
H95 H 0.19373 0.96007 0.79656 0.0
H96 H 0.24626 -0.00301 0.79996 0.0
C97 C 0.22824 0.96082 0.80096 0.0
H98 H 0.25275 0.93168 0.79807 0.0
H99 H 0.13438 0.87853 0.79343 0.0
O100 O 0.19084 0.86499 0.84806 0.0
C101 C 0.11489 0.81324 0.82107 0.0
Co102 Co 0.39895 0.94635 0.08481 0.0
Co103 Co 0.40427 0.94664 0.0611 0.0
C104 C 0.48191 -0.00503 0.07315 0.0
O105 O 0.46179 0.98128 0.08131 0.0
O106 O 0.46062 0.98862 0.0648 0.0
C107 C 0.41405 0.9379 0.10624 0.0
O108 O 0.45988 0.92915 0.10379 0.0
C109 C 0.43829 0.94792 0.04022 0.0
C110 C 0.37623 0.91419 0.03218 0.0
C111 C 0.4232 0.93254 0.03081 0.0
N112 N 0.40128 0.94059 0.04674 0.0
N113 N 0.36465 0.91964 0.04188 0.0
C114 C 0.48954 0.96062 0.04334 0.0
H115 H 0.49796 0.94359 0.05064 0.0
H116 H 0.49274 0.00098 0.04405 0.0
H117 H 0.51703 0.94745 0.03787 0.0
C118 C 0.29671 0.97095 0.08044 0.0
N119 N 0.34306 0.96472 0.07723 0.0
N120 N 0.34411 0.96702 0.06741 0.0
C121 C 0.29822 0.97726 0.06414 0.0
C122 C 0.26658 0.97925 0.07228 0.0
C123 C 0.281 0.96181 0.09098 0.0
H124 H 0.29477 0.99191 0.09579 0.0
H125 H 0.24061 0.95908 0.09175 0.0
H126 H 0.29732 0.92697 0.09364 0.0
O127 O 0.413 0.87818 0.08212 0.0
O128 O 0.42265 0.88016 0.06569 0.0
H129 H 0.26797 0.95437 0.05019 0.0
H130 H 0.25689 0.01715 0.05321 0.0
C131 C 0.28472 0.98753 0.05354 0.0
H132 H 0.31753 -0.00139 0.0492 0.0
H133 H 0.333 0.90614 0.04525 0.0
O134 O 0.38347 0.94884 0.09942 0.0
C135 C 0.4242 0.85744 0.07397 0.0
Co136 Co 0.30612 0.85326 0.17986 0.0
Co137 Co 0.29952 0.84928 0.20371 0.0
C138 C 0.26303 0.76723 0.19016 0.0
O139 O 0.27258 0.78918 0.18197 0.0
O140 O 0.27092 0.78742 0.19857 0.0
C141 C 0.28731 0.86346 0.15801 0.0
O142 O 0.2437 0.84427 0.15954 0.0
C143 C 0.26821 0.82346 0.22444 0.0
C144 C 0.32877 0.85774 0.23287 0.0
C145 C 0.28924 0.82618 0.23394 0.0
N146 N 0.29495 0.85132 0.21811 0.0
N147 N 0.33045 0.8723 0.2233 0.0
C148 C 0.22694 0.79087 0.22121 0.0
H149 H 0.21948 0.79496 0.21316 0.0
H150 H 0.19291 0.80126 0.22519 0.0
H151 H 0.23554 0.75214 0.22304 0.0
C152 C 0.26734 0.95199 0.18385 0.0
N153 N 0.2777 0.90644 0.18707 0.0
N154 N 0.27672 0.90593 0.19689 0.0
C155 C 0.26711 0.95149 0.20023 0.0
C156 C 0.26119 0.98248 0.19204 0.0
C157 C 0.2653 0.9662 0.17308 0.0
H158 H 0.24407 0.93835 0.16889 0.0
H159 H 0.24755 0.0024 0.17203 0.0
H160 H 0.30308 0.96743 0.17001 0.0
O161 O 0.37319 0.84142 0.18467 0.0
O162 O 0.36947 0.84262 0.20119 0.0
H163 H 0.31131 0.96008 0.21322 0.0
H164 H 0.26331 0.00461 0.21236 0.0
C165 C 0.27265 0.96582 0.21095 0.0
H166 H 0.24924 0.94182 0.21564 0.0
H167 H 0.35835 0.89352 0.22015 0.0
O168 O 0.31609 0.86969 0.16538 0.0
C169 C 0.39364 0.83806 0.19316 0.0
Co170 Co 0.38846 0.03958 0.43189 0.0
Co171 Co 0.39214 0.04896 0.45566 0.0
C172 C 0.46465 0.98826 0.44454 0.0
O173 O 0.44586 -0.00375 0.43593 0.0
O174 O 0.4449 0.00429 0.45246 0.0
C175 C 0.40177 0.04972 0.41049 0.0
O176 O 0.44684 0.06122 0.41308 0.0
C177 C 0.41215 0.03355 0.47717 0.0
C178 C 0.3691 0.09345 0.48391 0.0
C179 C 0.40128 0.05587 0.48621 0.0
N180 N 0.38771 0.05715 0.46986 0.0
N181 N 0.36237 0.0931 0.47397 0.0
C182 C 0.44417 0.98986 0.4755 0.0
H183 H 0.42731 0.96552 0.46983 0.0
H184 H 0.44983 0.96894 0.48251 0.0
H185 H 0.48032 0.00229 0.47265 0.0
C186 C 0.2827 0.03332 0.43678 0.0
N187 N 0.3301 0.03228 0.43966 0.0
N188 N 0.33206 0.03193 0.44946 0.0
C189 C 0.28612 0.02959 0.45313 0.0
C190 C 0.25292 0.03136 0.44523 0.0
C191 C 0.26709 0.04464 0.42632 0.0
H192 H 0.29199 0.07257 0.42307 0.0
H193 H 0.26963 0.0109 0.42174 0.0
H194 H 0.22916 0.05913 0.42597 0.0
O195 O 0.41397 0.10545 0.434 0.0
O196 O 0.41609 0.11213 0.45051 0.0
H197 H 0.27071 0.06178 0.46731 0.0
H198 H 0.23968 0.0045 0.4651 0.0
C199 C 0.27457 0.02481 0.46399 0.0
H200 H 0.30462 0.00525 0.4679 0.0
H201 H 0.34115 0.11808 0.46995 0.0
O202 O 0.37175 0.03613 0.41723 0.0
C203 C 0.42429 0.12938 0.44185 0.0
Co204 Co 0.19476 0.13185 0.68169 0.0
Co205 Co 0.18476 0.13626 0.70537 0.0
C206 C 0.24081 0.21227 0.69399 0.0
O207 O 0.23499 0.19201 0.68546 0.0
O208 O 0.22458 0.19268 0.70192 0.0
C209 C 0.17776 0.14251 0.66073 0.0
O210 O 0.15836 0.18393 0.66377 0.0
C211 C 0.20073 0.15889 0.72667 0.0
C212 C 0.14402 0.11304 0.73386 0.0
C213 C 0.1798 0.14781 0.73583 0.0
N214 N 0.17801 0.13222 0.71959 0.0
N215 N 0.14404 0.10506 0.72396 0.0
C216 C 0.24245 0.19324 0.72471 0.0
H217 H 0.26687 0.17771 0.7189 0.0
H218 H 0.26408 0.20015 0.73158 0.0
H219 H 0.22768 0.22857 0.72193 0.0
C220 C 0.21203 0.02759 0.68688 0.0
N221 N 0.20747 0.07494 0.68959 0.0
N222 N 0.20714 0.07768 0.69938 0.0
C223 C 0.21421 0.03265 0.70322 0.0
C224 C 0.21664 -0.00104 0.69544 0.0
C225 C 0.20413 0.01002 0.67642 0.0
H226 H 0.17365 0.03079 0.67295 0.0
H227 H 0.23788 0.0168 0.672 0.0
H228 H 0.1948 0.97051 0.67613 0.0
O229 O 0.12661 0.15198 0.68381 0.0
O230 O 0.11957 0.1537 0.70031 0.0
H231 H 0.18252 0.01599 0.7174 0.0
H232 H 0.24223 0.98947 0.71543 0.0
C233 C 0.21933 0.02246 0.71414 0.0
H234 H 0.23636 0.05427 0.71795 0.0
H235 H 0.12006 0.08182 0.72014 0.0
O236 O 0.19905 0.1152 0.66709 0.0
C237 C 0.10173 0.16008 0.69164 0.0
Co238 Co 0.12117 0.96464 0.92868 0.0
Co239 Co 0.12075 0.96019 0.95256 0.0
C240 C 0.03815 0.00477 0.9408 0.0
O241 O 0.05754 -0.00014 0.93216 0.0
O242 O 0.06067 0.9919 0.94866 0.0
C243 C 0.14202 -0.00419 0.90757 0.0
O244 O 0.13867 0.04154 0.91055 0.0
C245 C 0.09768 0.98333 0.97364 0.0
C246 C 0.14349 0.92906 0.98153 0.0
C247 C 0.10857 0.96508 0.98305 0.0
N248 N 0.12473 0.9589 0.96686 0.0
N249 N 0.15182 0.9264 0.97166 0.0
C250 C 0.06274 0.02375 0.97117 0.0
H251 H 0.07596 0.04446 0.96457 0.0
H252 H 0.05844 0.04906 0.97758 0.0
H253 H 0.02635 0.00773 0.96939 0.0
C254 C 0.22402 -0.00364 0.93338 0.0
N255 N 0.17748 0.98645 0.9362 0.0
N256 N 0.17558 0.98717 0.94603 0.0
C257 C 0.21984 -0.00068 0.94971 0.0
C258 C 0.25218 0.00495 0.94184 0.0
C259 C 0.24198 0.99415 0.92285 0.0
H260 H 0.22942 0.9596 0.91931 0.0
H261 H 0.22631 0.02532 0.91863 0.0
H262 H 0.28254 -0.00336 0.92242 0.0
O263 O 0.10731 0.89587 0.9321 0.0
O264 O 0.11159 0.89231 0.94861 0.0
H265 H 0.23796 0.96012 0.96298 0.0
H266 H 0.26641 0.01926 0.96221 0.0
C267 C 0.23236 -0.00141 0.96058 0.0
H268 H 0.20191 0.01465 0.96496 0.0
H269 H 0.17503 0.90132 0.96816 0.0
O270 O 0.13523 0.96145 0.91385 0.0
C271 C 0.1045 0.87196 0.94022 0.0
Co272 Co 0.7201 0.85353 0.71588 0.0
Co273 Co 0.69336 0.85855 0.69312 0.0
C274 C 0.7591 0.783 0.69958 0.0
O275 O 0.7531 0.79852 0.70845 0.0
O276 O 0.74113 0.80587 0.69218 0.0
C277 C 0.73826 0.80371 0.73263 0.0
O278 O 0.71738 0.77327 0.72634 0.0
C279 C 0.68543 0.86412 0.67127 0.0
C280 C 0.61257 0.89863 0.66957 0.0
C281 C 0.65136 0.87926 0.66419 0.0
N282 N 0.66721 0.87379 0.68036 0.0
N283 N 0.62374 0.89448 0.67929 0.0
C284 C 0.73556 0.84351 0.66954 0.0
H285 H 0.7333 0.80291 0.66945 0.0
H286 H 0.76059 0.85449 0.67568 0.0
H287 H 0.75082 0.85641 0.66233 0.0
C288 C 0.73418 0.96181 0.71217 0.0
N289 N 0.72631 0.91523 0.70918 0.0
N290 N 0.71792 0.91536 0.69951 0.0
C291 C 0.72225 0.96124 0.69597 0.0
C292 C 0.73139 0.99285 0.70387 0.0
C293 C 0.73976 0.97628 0.72286 0.0
H294 H 0.72358 0.9479 0.7278 0.0
H295 H 0.7794 0.97957 0.72464 0.0
H296 H 0.72201 0.01219 0.72427 0.0
O297 O 0.6505 0.83546 0.71672 0.0
O298 O 0.63788 0.82925 0.70044 0.0
H299 H 0.68194 0.97906 0.68276 0.0
H300 H 0.74162 0.00772 0.6835 0.0
C301 C 0.72062 0.97376 0.6851 0.0
H302 H 0.73656 0.94348 0.68067 0.0
H303 H 0.60151 0.90532 0.68522 0.0
O304 O 0.74496 0.84804 0.7299 0.0
C305 C 0.62395 0.82287 0.70939 0.0
Co306 Co 0.89784 0.97344 0.46242 0.0
Co307 Co 0.88311 0.93008 0.44071 0.0
C308 C 0.96388 -0.00281 0.4443 0.0
O309 O 0.95094 -0.00037 0.45342 0.0
O310 O 0.93845 0.9735 0.43799 0.0
C311 C 0.9535 0.00222 0.47809 0.0
O312 O 0.98364 0.98124 0.47177 0.0
C313 C 0.86676 0.91443 0.41918 0.0
C314 C 0.8314 0.84152 0.41915 0.0
C315 C 0.84737 0.8787 0.41289 0.0
N316 N 0.86249 0.89877 0.42866 0.0
N317 N 0.84143 0.85514 0.42858 0.0
C318 C 0.88574 0.96411 0.41642 0.0
H319 H 0.88002 0.99022 0.42265 0.0
H320 H 0.86709 0.97811 0.40964 0.0
H321 H 0.92573 0.96169 0.41496 0.0
C322 C 0.78896 0.98737 0.45997 0.0
N323 N 0.83408 0.97672 0.45645 0.0
N324 N 0.82987 0.96192 0.44714 0.0
C325 C 0.78264 0.965 0.44429 0.0
C326 C 0.7545 0.97986 0.45238 0.0
C327 C 0.77907 -0.00054 0.47066 0.0
H328 H 0.80913 0.98554 0.47547 0.0
H329 H 0.77731 0.03986 0.47151 0.0
H330 H 0.74354 0.98356 0.4731 0.0
O331 O 0.91388 0.90491 0.4648 0.0
O332 O 0.91071 0.87751 0.44922 0.0
H333 H 0.75967 0.91685 0.43259 0.0
H334 H 0.73095 0.9765 0.43225 0.0
C335 C 0.76559 0.95662 0.43382 0.0
H336 H 0.79378 0.96976 0.42851 0.0
H337 H 0.83383 0.83471 0.43497 0.0
O338 O 0.9081 0.0052 0.4758 0.0
C339 C 0.91994 0.87123 0.45843 0.0
Co340 Co 0.77779 0.12565 0.21324 0.0
Co341 Co 0.78919 0.1077 0.19013 0.0
C342 C 0.73236 0.19131 0.19689 0.0
O343 O 0.74238 0.17943 0.20587 0.0
O344 O 0.74461 0.16399 0.18961 0.0
C345 C 0.72803 0.15922 0.23072 0.0
O346 O 0.6957 0.17454 0.22416 0.0
C347 C 0.79559 0.09844 0.16806 0.0
C348 C 0.8436 0.03354 0.16685 0.0
C349 C 0.81798 0.06739 0.16118 0.0
N350 N 0.80634 0.08238 0.1773 0.0
N351 N 0.83574 0.04416 0.17649 0.0
C352 C 0.77036 0.14607 0.16606 0.0
H353 H 0.77741 0.17183 0.17225 0.0
H354 H 0.73021 0.13975 0.1655 0.0
H355 H 0.78376 0.16311 0.15906 0.0
C356 C 0.76511 0.01634 0.21225 0.0
N357 N 0.76735 0.06125 0.20804 0.0
N358 N 0.76556 0.05625 0.1983 0.0
C359 C 0.75863 0.00875 0.19601 0.0
C360 C 0.76014 0.98123 0.20472 0.0
C361 C 0.77301 0.00735 0.22313 0.0
H362 H 0.7927 0.0387 0.22657 0.0
H363 H 0.73685 0.00341 0.22684 0.0
H364 H 0.79421 0.97315 0.22433 0.0
O365 O 0.84658 0.14358 0.21176 0.0
O366 O 0.85131 0.13498 0.19536 0.0
H367 H 0.77637 0.97466 0.18199 0.0
H368 H 0.71596 0.96184 0.18647 0.0
C369 C 0.74438 0.99087 0.18584 0.0
H370 H 0.72992 0.02148 0.18125 0.0
H371 H 0.85086 0.02556 0.18255 0.0
O372 O 0.76377 0.13307 0.22776 0.0
C373 C 0.87016 0.14773 0.20365 0.0
Co374 Co 0.61196 0.01859 0.96362 0.0
Co375 Co 0.62137 0.02463 0.9404 0.0
C376 C 0.53969 0.97437 0.94792 0.0
O377 O 0.5541 0.98942 0.95644 0.0
O378 O 0.56652 0.97887 0.94024 0.0
C379 C 0.57962 0.96509 0.98078 0.0
O380 O 0.56296 0.93484 0.97395 0.0
C381 C 0.63735 0.02231 0.91854 0.0
C382 C 0.66986 0.0959 0.91648 0.0
C383 C 0.65551 0.05434 0.91129 0.0
N384 N 0.64095 0.04447 0.92746 0.0
N385 N 0.66047 0.0883 0.92617 0.0
C386 C 0.6192 0.97091 0.9173 0.0
H387 H 0.62151 0.95074 0.92447 0.0
H388 H 0.64103 0.95142 0.91156 0.0
H389 H 0.58015 0.97166 0.91495 0.0
C390 C 0.7204 0.00223 0.96104 0.0
N391 N 0.67396 0.00441 0.95755 0.0
N392 N 0.67536 0.00235 0.94776 0.0
C393 C 0.72189 -0.0034 0.94471 0.0
C394 C 0.75252 -0.00206 0.95296 0.0
C395 C 0.73369 0.01047 0.97173 0.0
H396 H 0.74051 0.97453 0.97534 0.0
H397 H 0.76766 0.0328 0.97231 0.0
H398 H 0.70322 0.02891 0.97572 0.0
O399 O 0.59885 0.08878 0.96266 0.0
O400 O 0.59607 0.08617 0.94617 0.0
H401 H 0.77153 0.96884 0.9335 0.0
H402 H 0.70751 0.96804 0.93011 0.0
C403 C 0.73636 0.98911 0.93405 0.0
H404 H 0.74064 0.02515 0.93033 0.0
H405 H 0.6671 0.11316 0.93191 0.0
O406 O 0.60606 0.00123 0.97806 0.0
C407 C 0.58959 0.10895 0.95433 0.0
Co408 Co 0.70262 0.15494 0.80064 0.0
Co409 Co 0.69047 0.14001 0.82377 0.0
C410 C 0.74236 0.22577 0.81658 0.0
O411 O 0.7349 0.21138 0.80767 0.0
O412 O 0.72877 0.2004 0.82404 0.0
C413 C 0.76252 0.17791 0.78381 0.0
O414 O 0.7972 0.17864 0.79062 0.0
C415 C 0.69892 0.12073 0.84542 0.0
C416 C 0.628 0.08343 0.84805 0.0
C417 C 0.67044 0.09876 0.85283 0.0
N418 N 0.67416 0.11798 0.83677 0.0
N419 N 0.63183 0.09583 0.8384 0.0
C420 C 0.74974 0.14121 0.8462 0.0
H421 H 0.7673 0.14266 0.83874 0.0
H422 H 0.77243 0.11854 0.85129 0.0
H423 H 0.7479 0.17913 0.84915 0.0
C424 C 0.72457 0.04674 0.80262 0.0
N425 N 0.71861 0.09232 0.80638 0.0
N426 N 0.7187 0.0893 0.81618 0.0
C427 C 0.72686 0.04273 0.81896 0.0
C428 C 0.72912 0.01356 0.81052 0.0
C429 C 0.72009 0.03476 0.79179 0.0
H430 H 0.70092 0.06466 0.78776 0.0
H431 H 0.75738 0.03061 0.78859 0.0
H432 H 0.70007 -0.00034 0.79075 0.0
O433 O 0.63148 0.16688 0.80178 0.0
O434 O 0.62666 0.1576 0.81816 0.0
H435 H 0.69712 0.02077 0.83306 0.0
H436 H 0.75481 0.99216 0.83 0.0
C437 C 0.73349 0.0267 0.82956 0.0
H438 H 0.75341 0.05534 0.83377 0.0
H439 H 0.60565 0.08888 0.8329 0.0
O440 O 0.71973 0.16368 0.78627 0.0
C441 C 0.6068 0.16717 0.80982 0.0
Co442 Co 0.57497 0.95956 0.55505 0.0
Co443 Co 0.58181 0.91267 0.57646 0.0
C444 C 0.50766 0.98901 0.57201 0.0
O445 O 0.52217 0.99272 0.56301 0.0
O446 O 0.53026 0.96185 0.57817 0.0
C447 C 0.52887 0.98816 0.53809 0.0
O448 O 0.49443 0.97073 0.54396 0.0
C449 C 0.60122 0.91163 0.59772 0.0
C450 C 0.603 0.83256 0.60125 0.0
C451 C 0.60702 0.87866 0.60553 0.0
N452 N 0.59398 0.88615 0.5893 0.0
N453 N 0.59492 0.83891 0.59143 0.0
C454 C 0.60519 0.96631 0.59797 0.0
H455 H 0.61623 0.9805 0.59054 0.0
H456 H 0.63217 0.97821 0.60368 0.0
H457 H 0.5688 0.98206 0.59981 0.0
C458 C 0.68435 0.97008 0.55891 0.0
N459 N 0.63807 0.95826 0.56166 0.0
N460 N 0.63993 0.93668 0.57044 0.0
C461 C 0.68699 0.93278 0.5734 0.0
C462 C 0.71706 0.95458 0.56632 0.0
C463 C 0.69678 0.99478 0.54928 0.0
H464 H 0.70294 0.96645 0.54349 0.0
H465 H 0.66589 0.01834 0.54683 0.0
H466 H 0.73069 0.01704 0.55005 0.0
O467 O 0.55023 0.89177 0.55301 0.0
O468 O 0.55138 0.86164 0.56841 0.0
H469 H 0.68049 0.86851 0.58252 0.0
H470 H 0.74204 0.89065 0.58139 0.0
C471 C 0.70319 0.90211 0.58208 0.0
H472 H 0.6987 0.92329 0.58907 0.0
H473 H 0.58999 0.81107 0.58619 0.0
O474 O 0.57295 0.98888 0.54131 0.0
C475 C 0.54056 0.85791 0.55922 0.0
Co476 Co 0.78719 0.84812 0.3032 0.0
Co477 Co 0.82768 0.85174 0.32517 0.0
C478 C 0.76038 0.7757 0.31993 0.0
O479 O 0.76397 0.79098 0.31101 0.0
O480 O 0.7785 0.79981 0.32714 0.0
C481 C 0.765 0.79936 0.28647 0.0
O482 O 0.7942 0.77134 0.29178 0.0
C483 C 0.83957 0.87027 0.3467 0.0
C484 C 0.9203 0.8739 0.34805 0.0
C485 C 0.8774 0.87696 0.35357 0.0
N486 N 0.8595 0.86364 0.33763 0.0
N487 N 0.90775 0.86563 0.33851 0.0
C488 C 0.78544 0.87289 0.34845 0.0
H489 H 0.76607 0.88221 0.34141 0.0
H490 H 0.77685 0.90052 0.35426 0.0
H491 H 0.77207 0.83656 0.35099 0.0
C492 C 0.77165 0.95436 0.30739 0.0
N493 N 0.78229 0.90835 0.31033 0.0
N494 N 0.80203 0.90993 0.3193 0.0
C495 C 0.80583 0.95694 0.32224 0.0
C496 C 0.78617 0.9869 0.31486 0.0
C497 C 0.75076 0.96656 0.29738 0.0
H498 H 0.78121 0.97073 0.29196 0.0
H499 H 0.7267 0.93635 0.29477 0.0
H500 H 0.7297 0.00131 0.29767 0.0
O501 O 0.85699 0.83493 0.30061 0.0
O502 O 0.87772 0.82247 0.31643 0.0
H503 H 0.87031 0.95151 0.33131 0.0
H504 H 0.84636 0.01214 0.33062 0.0
C505 C 0.83593 0.97295 0.33102 0.0
H506 H 0.81495 0.96636 0.33797 0.0
H507 H 0.93212 0.86154 0.33257 0.0
O508 O 0.75365 0.84143 0.28994 0.0
C509 C 0.88688 0.81954 0.30715 0.0
Co510 Co 0.91133 0.03033 0.05056 0.0
Co511 Co 0.90318 0.05051 0.07367 0.0
C512 C 0.97657 0.98154 0.06632 0.0
O513 O 0.96241 0.99003 0.05744 0.0
O514 O 0.95375 -0.00086 0.07378 0.0
C515 C 0.9614 0.01804 0.03342 0.0
O516 O 0.99308 0.03331 0.04012 0.0
C517 C 0.88643 0.04444 0.09532 0.0
C518 C 0.87127 0.12203 0.09892 0.0
C519 C 0.87473 0.07579 0.10309 0.0
N520 N 0.88928 0.07096 0.08691 0.0
N521 N 0.88082 0.11738 0.08914 0.0
C522 C 0.89277 0.99009 0.09576 0.0
H523 H 0.88287 0.97341 0.08848 0.0
H524 H 0.87 0.97404 0.1018 0.0
H525 H 0.93186 0.9817 0.09733 0.0
C526 C 0.80128 0.01709 0.05344 0.0
N527 N 0.8475 0.02499 0.05679 0.0
N528 N 0.84529 0.03524 0.06638 0.0
C529 C 0.79809 0.03597 0.06933 0.0
C530 C 0.76818 0.02346 0.06132 0.0
C531 C 0.78935 0.0042 0.04288 0.0
H532 H 0.82082 0.98515 0.03936 0.0
H533 H 0.7561 0.9807 0.04253 0.0
H534 H 0.78214 0.03837 0.03864 0.0
O535 O 0.93759 0.09857 0.05143 0.0
O536 O 0.93718 0.10543 0.06788 0.0
H537 H 0.80079 0.09135 0.08054 0.0
H538 H 0.74217 0.06369 0.07954 0.0
C539 C 0.782 0.05606 0.07921 0.0
H540 H 0.79216 0.03006 0.08522 0.0
H541 H 0.88093 0.14584 0.08393 0.0
O542 O 0.91668 0.01271 0.03605 0.0
C543 C 0.94928 0.12132 0.05935 0.0
Co544 Co 0.77239 0.64819 0.83637 0.0
Co545 Co 0.78448 0.64358 0.81274 0.0
C546 C 0.736 0.72866 0.82307 0.0
O547 O 0.73822 0.71057 0.83187 0.0
O548 O 0.75179 0.70521 0.81557 0.0
C549 C 0.79709 0.649 0.85742 0.0
O550 O 0.83235 0.6784 0.85443 0.0
C551 C 0.76842 0.66307 0.79141 0.0
C552 C 0.82484 0.61631 0.78445 0.0
C553 C 0.78993 0.65166 0.78234 0.0
N554 N 0.79015 0.63629 0.79859 0.0
N555 N 0.82379 0.60835 0.79436 0.0
C556 C 0.72724 0.69817 0.79319 0.0
H557 H 0.70398 0.68513 0.79944 0.0
H558 H 0.70436 0.70237 0.78639 0.0
H559 H 0.74265 0.73449 0.79517 0.0
C560 C 0.74407 0.54518 0.83251 0.0
N561 N 0.75318 0.59084 0.82913 0.0
N562 N 0.75561 0.58976 0.81933 0.0
C563 C 0.74653 0.54386 0.81615 0.0
C564 C 0.73964 0.51375 0.82439 0.0
C565 C 0.74821 0.53106 0.84328 0.0
H566 H 0.78284 0.54603 0.84639 0.0
H567 H 0.71716 0.54734 0.84746 0.0
H568 H 0.74827 0.49085 0.84439 0.0
O569 O 0.84288 0.65985 0.83404 0.0
O570 O 0.85121 0.65289 0.81764 0.0
H571 H 0.78461 0.52163 0.803 0.0
H572 H 0.72432 0.49512 0.80431 0.0
C573 C 0.74641 0.52888 0.80542 0.0
H574 H 0.73116 0.55874 0.80075 0.0
H575 H 0.84732 0.58513 0.79828 0.0
O576 O 0.76504 0.63486 0.85111 0.0
C577 C 0.86931 0.66059 0.82623 0.0
Co578 Co 0.60726 0.536 0.086 0.0
Co579 Co 0.61215 0.52697 0.06218 0.0
C580 C 0.52849 0.4871 0.07483 0.0
O581 O 0.54754 0.49574 0.08335 0.0
O582 O 0.55052 0.49758 0.06675 0.0
C583 C 0.62388 0.52347 0.1082 0.0
O584 O 0.62649 0.47568 0.10718 0.0
C585 C 0.57909 0.51462 0.04142 0.0
C586 C 0.64457 0.53615 0.03281 0.0
C587 C 0.5956 0.52343 0.03174 0.0
N588 N 0.61699 0.52051 0.04781 0.0
N589 N 0.65582 0.5339 0.04257 0.0
C590 C 0.52675 0.51149 0.04476 0.0
H591 H 0.5206 0.53853 0.05078 0.0
H592 H 0.51943 0.47434 0.04778 0.0
H593 H 0.50047 0.5195 0.03867 0.0
C594 C 0.70969 0.50222 0.08365 0.0
N595 N 0.66505 0.51141 0.07975 0.0
N596 N 0.66647 0.50404 0.07001 0.0
C597 C 0.71151 0.48734 0.0676 0.0
C598 C 0.74034 0.48643 0.07611 0.0
C599 C 0.72487 0.51542 0.09404 0.0
H600 H 0.70676 0.54988 0.09636 0.0
H601 H 0.71395 0.48553 0.09917 0.0
H602 H 0.76516 0.52045 0.09464 0.0
O603 O 0.59096 0.60013 0.08046 0.0
O604 O 0.6024 0.5974 0.06411 0.0
H605 H 0.74727 0.5011 0.0537 0.0
H606 H 0.75257 0.43949 0.05807 0.0
C607 C 0.72705 0.47103 0.05745 0.0
H608 H 0.69475 0.46013 0.05294 0.0
H609 H 0.68875 0.54584 0.04567 0.0
O610 O 0.6162 0.55032 0.10059 0.0
C611 C 0.59071 0.62059 0.07195 0.0
Co612 Co 0.71975 0.3593 0.3334 0.0
Co613 Co 0.72513 0.3492 0.30976 0.0
C614 C 0.76986 0.2744 0.32339 0.0
O615 O 0.75665 0.29714 0.33127 0.0
O616 O 0.76244 0.29223 0.31473 0.0
C617 C 0.68984 0.36117 0.35415 0.0
O618 O 0.66257 0.3234 0.35162 0.0
C619 C 0.72781 0.31134 0.28914 0.0
C620 C 0.69499 0.37261 0.28072 0.0
C621 C 0.71193 0.32508 0.27966 0.0
N622 N 0.72185 0.34961 0.29539 0.0
N623 N 0.70157 0.38578 0.29029 0.0
C624 C 0.73926 0.26047 0.29261 0.0
H625 H 0.72242 0.25384 0.3 0.0
H626 H 0.77962 0.25644 0.29329 0.0
H627 H 0.72508 0.23236 0.28738 0.0
C628 C 0.75473 0.45811 0.32833 0.0
N629 N 0.74328 0.41221 0.32549 0.0
N630 N 0.74768 0.40859 0.31573 0.0
C631 C 0.7638 0.452 0.31213 0.0
C632 C 0.76747 0.48507 0.31998 0.0
C633 C 0.75323 0.47582 0.33888 0.0
H634 H 0.77566 0.45117 0.34361 0.0
H635 H 0.76777 0.51363 0.33961 0.0
H636 H 0.71481 0.47466 0.3416 0.0
O637 O 0.65186 0.34301 0.32994 0.0
O638 O 0.65699 0.33628 0.3135 0.0
H639 H 0.74184 0.48206 0.29811 0.0
H640 H 0.80616 0.48644 0.3005 0.0
C641 C 0.77366 0.46244 0.30137 0.0
H642 H 0.78061 0.42802 0.29725 0.0
H643 H 0.68887 0.4182 0.29347 0.0
O644 O 0.71868 0.37976 0.34771 0.0
C645 C 0.63252 0.33386 0.32152 0.0
Co646 Co 0.8809 0.45713 0.58456 0.0
Co647 Co 0.88341 0.45846 0.56061 0.0
C648 C 0.96529 0.49928 0.57369 0.0
O649 O 0.94469 0.49185 0.58211 0.0
O650 O 0.94456 0.48784 0.56554 0.0
C651 C 0.85987 0.47362 0.60669 0.0
O652 O 0.86217 0.52138 0.60559 0.0
C653 C 0.90951 0.48957 0.53999 0.0
C654 C 0.87928 0.4269 0.53159 0.0
C655 C 0.90914 0.46773 0.53056 0.0
N656 N 0.88206 0.46201 0.54624 0.0
N657 N 0.86346 0.42522 0.54106 0.0
C658 C 0.93957 0.53263 0.54326 0.0
H659 H 0.93455 0.54021 0.55128 0.0
H660 H 0.92744 0.56585 0.53921 0.0
H661 H 0.97891 0.52625 0.54157 0.0
C662 C 0.77929 0.49044 0.58008 0.0
N663 N 0.82584 0.4823 0.57711 0.0
N664 N 0.8268 0.48152 0.56728 0.0
C665 C 0.78105 0.48788 0.56371 0.0
C666 C 0.74909 0.49342 0.57173 0.0
C667 C 0.76373 0.49283 0.59076 0.0
H668 H 0.76856 0.45637 0.59429 0.0
H669 H 0.7872 0.5196 0.59471 0.0
H670 H 0.72506 0.50478 0.59155 0.0
O671 O 0.89438 0.39008 0.57995 0.0
O672 O 0.89036 0.38912 0.56342 0.0
H673 H 0.77606 0.43978 0.55126 0.0
H674 H 0.72873 0.48504 0.55137 0.0
C675 C 0.76789 0.47855 0.55303 0.0
H676 H 0.79081 0.50204 0.54814 0.0
H677 H 0.84335 0.39648 0.54419 0.0
O678 O 0.86651 0.44568 0.59921 0.0
C679 C 0.89669 0.3674 0.57168 0.0
Co680 Co 0.78555 0.35836 0.68033 0.0
Co681 Co 0.78181 0.36149 0.70421 0.0
C682 C 0.73728 0.27943 0.69192 0.0
O683 O 0.74408 0.29848 0.68333 0.0
O684 O 0.75008 0.30158 0.69981 0.0
C685 C 0.75728 0.38632 0.65988 0.0
O686 O 0.71355 0.39347 0.66374 0.0
C687 C 0.75059 0.33576 0.72465 0.0
C688 C 0.80536 0.3759 0.73363 0.0
C689 C 0.76823 0.34132 0.73433 0.0
N690 N 0.77639 0.36552 0.71854 0.0
N691 N 0.80847 0.38996 0.72402 0.0
C692 C 0.7158 0.29721 0.72101 0.0
H693 H 0.73723 0.26568 0.71816 0.0
H694 H 0.69312 0.31206 0.71484 0.0
H695 H 0.69136 0.28362 0.72698 0.0
C696 C 0.7653 0.46434 0.68395 0.0
N697 N 0.7671 0.41756 0.68722 0.0
N698 N 0.76164 0.41762 0.697 0.0
C699 C 0.75387 0.46386 0.70014 0.0
C700 C 0.75614 0.4951 0.69198 0.0
C701 C 0.78234 0.48059 0.67385 0.0
H702 H 0.81079 0.45539 0.67098 0.0
H703 H 0.75066 0.48132 0.66867 0.0
H704 H 0.7983 0.518 0.67411 0.0
O705 O 0.85147 0.33941 0.68492 0.0
O706 O 0.85109 0.34893 0.7014 0.0
H707 H 0.78337 0.48281 0.71437 0.0
H708 H 0.72629 0.51282 0.71143 0.0
C709 C 0.74693 0.47792 0.71082 0.0
H710 H 0.72686 0.44859 0.71485 0.0
H711 H 0.83505 0.41351 0.7211 0.0
O712 O 0.7914 0.36998 0.66546 0.0
C713 C 0.87298 0.3377 0.69335 0.0
Co714 Co 0.89379 0.56203 0.93389 0.0
Co715 Co 0.90345 0.55011 0.95743 0.0
C716 C 0.97474 0.50182 0.94392 0.0
O717 O 0.95321 0.51869 0.93615 0.0
O718 O 0.95685 0.50821 0.95259 0.0
C719 C 0.85735 0.54957 0.91243 0.0
O720 O 0.83692 0.50708 0.91444 0.0
C721 C 0.93024 0.52527 0.97806 0.0
C722 C 0.9015 0.59005 0.98593 0.0
C723 C 0.93188 0.54974 0.98723 0.0
N724 N 0.90201 0.5511 0.97172 0.0
N725 N 0.88415 0.58921 0.97655 0.0
C726 C 0.95457 0.47832 0.97521 0.0
H727 H 0.93495 0.4611 0.96886 0.0
H728 H 0.95477 0.4524 0.98159 0.0
H729 H 0.99286 0.48606 0.97291 0.0
C730 C 0.78813 0.54851 0.93958 0.0
N731 N 0.83655 0.54676 0.94172 0.0
N732 N 0.84173 0.53774 0.95131 0.0
C733 C 0.79723 0.53058 0.95543 0.0
C734 C 0.76128 0.53773 0.94817 0.0
C735 C 0.76806 0.56875 0.93003 0.0
H736 H 0.79476 0.59433 0.9266 0.0
H737 H 0.76066 0.53823 0.92479 0.0
H738 H 0.73318 0.58866 0.93135 0.0
O739 O 0.91809 0.62582 0.93795 0.0
O740 O 0.92588 0.61686 0.9543 0.0
H741 H 0.7875 0.55094 0.97068 0.0
H742 H 0.75579 0.49544 0.96714 0.0
C743 C 0.78995 0.51707 0.96615 0.0
H744 H 0.82163 0.49532 0.96886 0.0
H745 H 0.86312 0.61667 0.97323 0.0
O746 O 0.88018 0.57271 0.91926 0.0
C747 C 0.93081 0.64218 0.94642 0.0
Co748 Co 0.70652 0.61492 0.18452 0.0
Co749 Co 0.69279 0.62308 0.20798 0.0
C750 C 0.75735 0.69238 0.19704 0.0
O751 O 0.74933 0.67307 0.1885 0.0
O752 O 0.74072 0.67309 0.20496 0.0
C753 C 0.69181 0.61657 0.1632 0.0
O754 O 0.66636 0.65606 0.16532 0.0
C755 C 0.71511 0.63846 0.22905 0.0
C756 C 0.64093 0.63953 0.23569 0.0
C757 C 0.68982 0.64884 0.23777 0.0
N758 N 0.68257 0.62409 0.22209 0.0
N759 N 0.6384 0.62401 0.22616 0.0
C760 C 0.7679 0.64921 0.22687 0.0
H761 H 0.77208 0.68888 0.22524 0.0
H762 H 0.78034 0.62786 0.2203 0.0
H763 H 0.79144 0.64035 0.23336 0.0
C764 C 0.70754 0.51006 0.19028 0.0
N765 N 0.71029 0.55777 0.19281 0.0
N766 N 0.70861 0.56138 0.20258 0.0
C767 C 0.70798 0.51619 0.20662 0.0
C768 C 0.70671 0.4816 0.19895 0.0
C769 C 0.69651 0.49335 0.17987 0.0
H770 H 0.67215 0.52015 0.17613 0.0
H771 H 0.73125 0.49094 0.17559 0.0
H772 H 0.67777 0.45727 0.17977 0.0
O773 O 0.64023 0.64092 0.18554 0.0
O774 O 0.63205 0.64856 0.20196 0.0
H775 H 0.67004 0.5077 0.22045 0.0
H776 H 0.72527 0.4713 0.21941 0.0
C777 C 0.7083 0.50717 0.21762 0.0
H778 H 0.72914 0.53656 0.22146 0.0
H779 H 0.60609 0.6167 0.22224 0.0
O780 O 0.71542 0.59529 0.17017 0.0
C781 C 0.61593 0.65443 0.19313 0.0
Co782 Co 0.59336 0.45216 0.43002 0.0
Co783 Co 0.58789 0.47048 0.45351 0.0
C784 C 0.50456 0.49486 0.43949 0.0
O785 O 0.52742 0.48209 0.43162 0.0
O786 O 0.5249 0.49331 0.44802 0.0
C787 C 0.61344 0.46175 0.40799 0.0
O788 O 0.61393 0.50975 0.40868 0.0
C789 C 0.55457 0.50222 0.47343 0.0
C790 C 0.60559 0.46146 0.48315 0.0
C791 C 0.56346 0.48975 0.48332 0.0
N792 N 0.58986 0.48219 0.46769 0.0
N793 N 0.62057 0.45848 0.47361 0.0
C794 C 0.50888 0.52476 0.46932 0.0
H795 H 0.51879 0.55128 0.46338 0.0
H796 H 0.48698 0.54366 0.47509 0.0
H797 H 0.48583 0.4954 0.46602 0.0
C798 C 0.69063 0.49772 0.43327 0.0
N799 N 0.6452 0.48648 0.43652 0.0
N800 N 0.64258 0.49532 0.44618 0.0
C801 C 0.68585 0.51385 0.44927 0.0
C802 C 0.71775 0.51567 0.44122 0.0
C803 C 0.71039 0.48299 0.4233 0.0
H804 H 0.69491 0.44709 0.42107 0.0
H805 H 0.69987 0.51093 0.4177 0.0
H806 H 0.75098 0.48005 0.42336 0.0
O807 O 0.5867 0.38792 0.43608 0.0
O808 O 0.58476 0.39865 0.45243 0.0
H809 H 0.70879 0.49301 0.46388 0.0
H810 H 0.72837 0.55334 0.46019 0.0
C811 C 0.69763 0.52665 0.45984 0.0
H812 H 0.66489 0.54233 0.46355 0.0
H813 H 0.64949 0.4368 0.47105 0.0
O814 O 0.60605 0.43581 0.41573 0.0
C815 C 0.58308 0.37086 0.44485 0.0
Co816 Co 0.19132 0.35041 0.21494 0.0
Co817 Co 0.17104 0.35331 0.19169 0.0
C818 C 0.21814 0.26918 0.19969 0.0
O819 O 0.21025 0.28852 0.20816 0.0
O820 O 0.21113 0.293 0.19165 0.0
C821 C 0.25916 0.32177 0.2297 0.0
O822 O 0.28435 0.31157 0.22161 0.0
C823 C 0.15939 0.36133 0.16945 0.0
C824 C 0.08769 0.39894 0.16892 0.0
C825 C 0.12435 0.38023 0.16288 0.0
N826 N 0.14399 0.36936 0.17886 0.0
N827 N 0.101 0.39156 0.17844 0.0
C828 C 0.20519 0.33383 0.16695 0.0
H829 H 0.21719 0.31106 0.17332 0.0
H830 H 0.23491 0.36037 0.16524 0.0
H831 H 0.19922 0.31008 0.16034 0.0
C832 C 0.22429 0.45282 0.21032 0.0
N833 N 0.20994 0.40759 0.20749 0.0
N834 N 0.20198 0.40787 0.19781 0.0
C835 C 0.2107 0.45302 0.19416 0.0
C836 C 0.22503 0.48348 0.20197 0.0
C837 C 0.23431 0.46672 0.22091 0.0
H838 H 0.25284 0.43607 0.22482 0.0
H839 H 0.25745 0.50017 0.22132 0.0
H840 H 0.19896 0.47373 0.22475 0.0
O841 O 0.11939 0.34358 0.21579 0.0
O842 O 0.11345 0.33427 0.19945 0.0
H843 H 0.15653 0.46749 0.18307 0.0
H844 H 0.20954 0.50482 0.18165 0.0
C845 C 0.19703 0.46778 0.18374 0.0
H846 H 0.21237 0.441 0.17838 0.0
H847 H 0.08068 0.40175 0.18468 0.0
O848 O 0.21877 0.34469 0.22877 0.0
C849 C 0.09475 0.33161 0.20811 0.0
Co850 Co 0.4036 0.45136 0.9647 0.0
Co851 Co 0.39378 0.42047 0.94218 0.0
C852 C 0.47288 0.48789 0.94843 0.0
O853 O 0.45912 0.48487 0.9575 0.0
O854 O 0.44833 0.4675 0.94151 0.0
C855 C 0.43485 0.50568 0.98191 0.0
O856 O 0.45464 0.53421 0.97513 0.0
C857 C 0.37404 0.42491 0.9207 0.0
C858 C 0.36741 0.34625 0.91702 0.0
C859 C 0.3658 0.3927 0.91284 0.0
N860 N 0.3801 0.39848 0.92906 0.0
N861 N 0.37629 0.35153 0.92681 0.0
C862 C 0.37361 0.4797 0.92057 0.0
H863 H 0.36479 0.49412 0.9281 0.0
H864 H 0.34651 0.49348 0.91506 0.0
H865 H 0.41061 0.49327 0.91848 0.0
C866 C 0.29479 0.4702 0.96132 0.0
N867 N 0.34041 0.45848 0.95814 0.0
N868 N 0.33725 0.44376 0.94881 0.0
C869 C 0.28997 0.44393 0.94588 0.0
C870 C 0.2611 0.4616 0.95362 0.0
C871 C 0.28386 0.48807 0.97161 0.0
H872 H 0.31569 0.50878 0.97461 0.0
H873 H 0.25069 0.51163 0.97163 0.0
H874 H 0.2772 0.45609 0.97655 0.0
O875 O 0.42349 0.3811 0.96515 0.0
O876 O 0.41955 0.36377 0.94905 0.0
H877 H 0.29246 0.38512 0.93532 0.0
H878 H 0.23267 0.41037 0.93685 0.0
C879 C 0.27221 0.41971 0.93651 0.0
H880 H 0.27878 0.44439 0.93008 0.0
H881 H 0.37968 0.32307 0.93196 0.0
O882 O 0.40623 0.47138 0.9791 0.0
C883 C 0.43007 0.35166 0.95793 0.0
Co884 Co 0.29349 0.64143 0.71235 0.0
Co885 Co 0.32285 0.62295 0.68988 0.0
C886 C 0.27012 0.71225 0.69519 0.0
O887 O 0.26966 0.69848 0.70427 0.0
O888 O 0.28852 0.68549 0.68842 0.0
C889 C 0.22788 0.6777 0.727 0.0
O890 O 0.20168 0.6864 0.71897 0.0
C891 C 0.32589 0.61147 0.66817 0.0
C892 C 0.39011 0.56301 0.66623 0.0
C893 C 0.3545 0.58853 0.66101 0.0
N894 N 0.34403 0.60029 0.6772 0.0
N895 N 0.38244 0.57138 0.67599 0.0
C896 C 0.28038 0.64112 0.6666 0.0
H897 H 0.25471 0.63568 0.67292 0.0
H898 H 0.26185 0.6308 0.65953 0.0
H899 H 0.29036 0.68053 0.66628 0.0
C900 C 0.26557 0.53491 0.71002 0.0
N901 N 0.27844 0.5792 0.70633 0.0
N902 N 0.28624 0.57466 0.69669 0.0
C903 C 0.2764 0.52848 0.69385 0.0
C904 C 0.26449 0.50089 0.70221 0.0
C905 C 0.26012 0.5246 0.72091 0.0
H906 H 0.27899 0.55321 0.72537 0.0
H907 H 0.22056 0.5249 0.72286 0.0
H908 H 0.27525 0.48799 0.72278 0.0
O909 O 0.36513 0.65014 0.71312 0.0
O910 O 0.3835 0.63714 0.69722 0.0
H911 H 0.31446 0.50109 0.68106 0.0
H912 H 0.25192 0.47994 0.68212 0.0
C913 C 0.2767 0.5118 0.68321 0.0
H914 H 0.26446 0.54197 0.67827 0.0
H915 H 0.40353 0.55755 0.68185 0.0
O916 O 0.26705 0.65264 0.72615 0.0
C917 C 0.39628 0.64755 0.70609 0.0
Co918 Co 0.08692 0.53648 0.46416 0.0
Co919 Co 0.095 0.57113 0.44173 0.0
C920 C 0.00649 0.5193 0.4491 0.0
O921 O 0.02545 0.51452 0.45772 0.0
O922 O 0.02953 0.54024 0.44204 0.0
C923 C 0.06338 0.47035 0.47994 0.0
O924 O 0.05353 0.44044 0.47253 0.0
C925 C 0.10449 0.57219 0.41964 0.0
C926 C 0.13915 0.64469 0.41749 0.0
C927 C 0.12333 0.60356 0.41234 0.0
N928 N 0.11014 0.59374 0.42859 0.0
N929 N 0.13034 0.63725 0.42722 0.0
C930 C 0.08033 0.52338 0.41828 0.0
H931 H 0.05796 0.51376 0.42489 0.0
H932 H 0.10894 0.49482 0.41742 0.0
H933 H 0.05668 0.52355 0.41154 0.0
C934 C 0.18801 0.50154 0.45937 0.0
N935 N 0.14361 0.51851 0.45661 0.0
N936 N 0.14555 0.53165 0.44716 0.0
C937 C 0.19101 0.52359 0.44361 0.0
C938 C 0.21971 0.50431 0.45123 0.0
C939 C 0.20084 0.48785 0.46984 0.0
H940 H 0.17098 0.46527 0.47309 0.0
H941 H 0.23595 0.46732 0.47015 0.0
H942 H 0.20419 0.52166 0.47438 0.0
O943 O 0.08231 0.60847 0.46542 0.0
O944 O 0.09042 0.63068 0.44959 0.0
H945 H 0.20409 0.58402 0.43385 0.0
H946 H 0.24771 0.53619 0.4323 0.0
C947 C 0.20866 0.54373 0.43384 0.0
H948 H 0.1864 0.52797 0.42772 0.0
H949 H 0.13881 0.66164 0.43295 0.0
O950 O 0.08361 0.51134 0.47806 0.0
C951 C 0.08508 0.64134 0.45873 0.0
Co952 Co 0.22251 0.6558 0.30189 0.0
Co953 Co 0.19249 0.6472 0.32451 0.0
C954 C 0.24213 0.73534 0.3176 0.0
O955 O 0.24132 0.71844 0.30873 0.0
O956 O 0.22662 0.71051 0.32497 0.0
C957 C 0.28789 0.68254 0.28595 0.0
O958 O 0.31754 0.69433 0.2933 0.0
C959 C 0.17948 0.64491 0.34642 0.0
C960 C 0.11795 0.59231 0.34771 0.0
C961 C 0.14915 0.62161 0.35326 0.0
N962 N 0.16683 0.62978 0.33724 0.0
N963 N 0.12974 0.59875 0.33807 0.0
C964 C 0.22141 0.67879 0.34853 0.0
H965 H 0.2084 0.71719 0.34794 0.0
H966 H 0.25092 0.67336 0.34294 0.0
H967 H 0.23622 0.67271 0.35614 0.0
C968 C 0.25596 0.55288 0.30653 0.0
N969 N 0.24115 0.59802 0.30932 0.0
N970 N 0.23171 0.59711 0.31895 0.0
C971 C 0.24198 0.55247 0.32266 0.0
C972 C 0.25651 0.5221 0.31488 0.0
C973 C 0.2647 0.53858 0.29592 0.0
H974 H 0.22883 0.53431 0.29209 0.0
H975 H 0.28531 0.56804 0.29204 0.0
H976 H 0.28529 0.50359 0.29545 0.0
O977 O 0.151 0.65826 0.30043 0.0
O978 O 0.13293 0.65495 0.31651 0.0
H979 H 0.19115 0.52557 0.33351 0.0
H980 H 0.25294 0.5072 0.33588 0.0
C981 C 0.22998 0.53758 0.33314 0.0
H982 H 0.23606 0.56881 0.33825 0.0
H983 H 0.11266 0.58171 0.33203 0.0
O984 O 0.24774 0.66084 0.28795 0.0
C985 C 0.11987 0.65814 0.30745 0.0
Co986 Co 0.10477 0.47266 0.05355 0.0
Co987 Co 0.11511 0.4316 0.07552 0.0
C988 C 0.02895 0.48806 0.0702 0.0
O989 O 0.04615 0.492 0.06142 0.0
O990 O 0.05256 0.46616 0.07707 0.0
C991 C 0.07147 0.54403 0.03976 0.0
O992 O 0.05883 0.5668 0.04799 0.0
C993 C 0.1263 0.41477 0.09725 0.0
C994 C 0.17842 0.35277 0.09732 0.0
C995 C 0.15282 0.38411 0.10352 0.0
N996 N 0.13607 0.40222 0.08776 0.0
N997 N 0.16676 0.36474 0.08787 0.0
C998 C 0.09533 0.45764 0.10015 0.0
H999 H 0.09757 0.48664 0.09437 0.0
H1000 H 0.10701 0.4727 0.10747 0.0
H1001 H 0.05653 0.44557 0.10073 0.0
C1002 C 0.2091 0.49895 0.05785 0.0
N1003 N 0.16395 0.48424 0.06068 0.0
N1004 N 0.16533 0.47166 0.07016 0.0
C1005 C 0.21051 0.48018 0.07378 0.0
C1006 C 0.24036 0.49616 0.06607 0.0
C1007 C 0.22301 0.50936 0.04728 0.0
H1008 H 0.19561 0.49343 0.04208 0.0
H1009 H 0.22415 0.54961 0.04613 0.0
H1010 H 0.25994 0.49438 0.04561 0.0
O1011 O 0.097 0.40269 0.05082 0.0
O1012 O 0.10201 0.37633 0.06644 0.0
H1013 H 0.23486 0.43555 0.08595 0.0
H1014 H 0.25635 0.49789 0.08641 0.0
C1015 C 0.22458 0.47417 0.0845 0.0
H1016 H 0.19324 0.48399 0.08936 0.0
H1017 H 0.1807 0.34812 0.08148 0.0
O1018 O 0.09813 0.50593 0.0404 0.0
C1019 C 0.09568 0.36821 0.05717 0.0
Co1020 Co 0.26192 0.34405 0.8027 0.0
Co1021 Co 0.2914 0.35546 0.82522 0.0
C1022 C 0.22726 0.27549 0.81967 0.0
O1023 O 0.23092 0.28907 0.8106 0.0
O1024 O 0.24625 0.30067 0.82664 0.0
C1025 C 0.24163 0.29282 0.78598 0.0
O1026 O 0.26244 0.26177 0.79216 0.0
C1027 C 0.29598 0.36713 0.84694 0.0
C1028 C 0.36889 0.40152 0.84883 0.0
C1029 C 0.32873 0.38416 0.8541 0.0
N1030 N 0.31617 0.3739 0.83791 0.0
N1031 N 0.35968 0.39451 0.83908 0.0
C1032 C 0.24518 0.34761 0.84848 0.0
H1033 H 0.24682 0.30717 0.84925 0.0
H1034 H 0.2218 0.35632 0.84194 0.0
H1035 H 0.22842 0.36336 0.8553 0.0
C1036 C 0.24836 0.45298 0.80535 0.0
N1037 N 0.25526 0.40711 0.80886 0.0
N1038 N 0.26387 0.40971 0.8185 0.0
C1039 C 0.26026 0.4565 0.82153 0.0
C1040 C 0.25183 0.48614 0.81329 0.0
C1041 C 0.24423 0.46478 0.79449 0.0
H1042 H 0.25976 0.43464 0.78994 0.0
H1043 H 0.2049 0.46895 0.79252 0.0
H1044 H 0.26347 0.49962 0.79275 0.0
O1045 O 0.3318 0.32801 0.80174 0.0
O1046 O 0.34858 0.32918 0.81792 0.0
H1047 H 0.30137 0.47671 0.83451 0.0
H1048 H 0.24255 0.50674 0.83347 0.0
C1049 C 0.26251 0.47187 0.83224 0.0
H1050 H 0.24568 0.44331 0.83701 0.0
H1051 H 0.38321 0.40345 0.83322 0.0
O1052 O 0.23588 0.33706 0.78881 0.0
C1053 C 0.36101 0.32065 0.80895 0.0
Co1054 Co 0.37211 0.53227 0.54876 0.0
Co1055 Co 0.37192 0.53998 0.5721 0.0
C1056 C 0.46049 0.50995 0.56259 0.0
O1057 O 0.43861 0.51781 0.55435 0.0
O1058 O 0.43779 0.51215 0.57084 0.0
C1059 C 0.39917 0.47334 0.53241 0.0
O1060 O 0.40801 0.44195 0.53962 0.0
C1061 C 0.37192 0.53896 0.59437 0.0
C1062 C 0.3126 0.59251 0.5971 0.0
C1063 C 0.34575 0.56223 0.60191 0.0
N1064 N 0.35423 0.5544 0.58554 0.0
N1065 N 0.31903 0.58655 0.58726 0.0
C1066 C 0.41488 0.50529 0.59548 0.0
H1067 H 0.44142 0.51124 0.58936 0.0
H1068 H 0.40182 0.4668 0.5951 0.0
H1069 H 0.4339 0.5112 0.6027 0.0
C1070 C 0.27384 0.48784 0.55356 0.0
N1071 N 0.3195 0.5026 0.55609 0.0
N1072 N 0.32341 0.50112 0.56588 0.0
C1073 C 0.28193 0.48255 0.56979 0.0
C1074 C 0.24857 0.47463 0.56218 0.0
C1075 C 0.25282 0.49258 0.54332 0.0
H1076 H 0.28134 0.48445 0.53766 0.0
H1077 H 0.2209 0.46769 0.54236 0.0
H1078 H 0.24036 0.53088 0.54219 0.0
O1079 O 0.36762 0.60344 0.54937 0.0
O1080 O 0.37476 0.60557 0.56583 0.0
H1081 H 0.25478 0.5132 0.58337 0.0
H1082 H 0.24547 0.44843 0.58226 0.0
C1083 C 0.27166 0.47864 0.58072 0.0
H1084 H 0.30606 0.47159 0.58488 0.0
H1085 H 0.2994 0.60453 0.58167 0.0
O1086 O 0.37754 0.51328 0.53451 0.0
C1087 C 0.37212 0.62724 0.55745 0.0
H1088 H 0.43714 0.22494 0.31111 0.0
H1089 H 0.45835 0.16884 0.34093 0.0
H1090 H 0.53266 0.21836 0.34266 0.0
H1091 H 0.58985 0.27914 0.33585 0.0
H1092 H 0.56821 0.3347 0.30603 0.0
H1093 H 0.49423 0.28476 0.30429 0.0
C1094 C 0.45835 0.2228 0.31794 0.0
C1095 C 0.44232 0.19314 0.32587 0.0
C1096 C 0.49995 0.25229 0.31899 0.0
C1097 C 0.47007 0.19124 0.3347 0.0
C1098 C 0.5122 0.21991 0.33574 0.0
C1099 C 0.56833 0.28107 0.32905 0.0
C1100 C 0.58385 0.31095 0.32113 0.0
C1101 C 0.52688 0.25123 0.328 0.0
C1102 C 0.55649 0.31225 0.31226 0.0
C1103 C 0.51461 0.28339 0.31122 0.0
H1104 H 0.95074 0.32477 0.58603 0.0
H1105 H 0.88923 0.29969 0.55679 0.0
H1106 H 0.93506 0.22302 0.55546 0.0
H1107 H 0.99482 0.16543 0.56236 0.0
H1108 H 0.05757 0.19222 0.59145 0.0
H1109 H 0.00964 0.26721 0.59296 0.0
C1110 C 0.94653 0.30208 0.57944 0.0
C1111 C 0.91648 0.3175 0.57155 0.0
C1112 C 0.97408 0.25926 0.5786 0.0
C1113 C 0.91205 0.28824 0.56299 0.0
C1114 C 0.93853 0.24477 0.56218 0.0
C1115 C -0.00149 0.18801 0.56897 0.0
C1116 C 0.02982 0.17359 0.57675 0.0
C1117 C 0.97035 0.23051 0.56987 0.0
C1118 C 0.03376 0.20276 0.58534 0.0
C1119 C 0.00616 0.24537 0.58625 0.0
H1120 H 0.9257 0.69205 0.81099 0.0
H1121 H 0.92514 0.67392 0.84299 0.0
H1122 H 0.00135 0.72083 0.8442 0.0
H1123 H 0.06451 0.7714 0.83626 0.0
H1124 H 0.06294 0.7912 0.80429 0.0
H1125 H 0.99003 0.73974 0.80303 0.0
C1126 C 0.94258 0.69753 0.81823 0.0
C1127 C 0.91969 0.67975 0.8269 0.0
C1128 C 0.9852 0.72576 0.8189 0.0
C1129 C 0.94203 0.68737 0.83621 0.0
C1130 C 0.98532 0.7145 0.83692 0.0
C1131 C 0.04797 0.76486 0.82902 0.0
C1132 C 0.06871 0.78554 0.8204 0.0
C1133 C 0.00641 0.73493 0.82833 0.0
C1134 C 0.0474 0.77601 0.81106 0.0
C1135 C 0.00594 0.74636 0.81031 0.0
H1136 H 0.48397 0.81621 0.06022 0.0
H1137 H 0.41747 0.79097 0.08901 0.0
H1138 H 0.46676 0.71731 0.09117 0.0
H1139 H 0.52983 0.66216 0.0852 0.0
H1140 H 0.59582 0.68502 0.0563 0.0
H1141 H 0.54624 0.75894 0.05398 0.0
C1142 C 0.4796 0.79408 0.06688 0.0
C1143 C 0.44712 0.80885 0.07444 0.0
C1144 C 0.50874 0.75237 0.06817 0.0
C1145 C 0.44224 0.78022 0.08308 0.0
C1146 C 0.47065 0.7384 0.08437 0.0
C1147 C 0.53408 0.68365 0.07845 0.0
C1148 C 0.56691 0.66863 0.07099 0.0
C1149 C 0.50458 0.72476 0.07705 0.0
C1150 C 0.57112 0.69628 0.06219 0.0
C1151 C 0.5425 0.73816 0.06083 0.0
H1152 H 0.57877 0.72047 0.20597 0.0
H1153 H 0.55821 0.6596 0.17655 0.0
H1154 H 0.49205 0.71788 0.17335 0.0
H1155 H 0.43841 0.78322 0.1792 0.0
H1156 H 0.45749 0.84253 0.2088 0.0
H1157 H 0.5279 0.7888 0.21149 0.0
C1158 C 0.55936 0.71946 0.19891 0.0
C1159 C 0.57255 0.68525 0.19157 0.0
C1160 C 0.52226 0.75352 0.19706 0.0
C1161 C 0.54808 0.68523 0.18235 0.0
C1162 C 0.51069 0.71878 0.18049 0.0
C1163 C 0.45874 0.78537 0.18615 0.0
C1164 C 0.44289 0.81666 0.1938 0.0
C1165 C 0.49756 0.75303 0.1878 0.0
C1166 C 0.4692 0.81869 0.2028 0.0
C1167 C 0.50897 0.78761 0.20439 0.0
H1168 H 0.55188 0.31127 0.43017 0.0
H1169 H 0.57168 0.31784 0.4621 0.0
H1170 H 0.52297 0.24303 0.46401 0.0
H1171 H 0.46908 0.18057 0.45666 0.0
H1172 H 0.44572 0.17883 0.42476 0.0
H1173 H 0.50052 0.24862 0.42286 0.0
C1174 C 0.54642 0.29606 0.43756 0.0
C1175 C 0.56509 0.32029 0.44599 0.0
C1176 C 0.5165 0.25495 0.43863 0.0
C1177 C 0.55764 0.29985 0.45549 0.0
C1178 C 0.52932 0.2575 0.45659 0.0
C1179 C 0.47553 0.19576 0.4493 0.0
C1180 C 0.45292 0.17484 0.44088 0.0
C1181 C 0.50726 0.23577 0.44823 0.0
C1182 C 0.46227 0.19451 0.43138 0.0
C1183 C 0.49394 0.23412 0.43026 0.0
H1184 H 0.06089 0.21977 0.70526 0.0
H1185 H 0.04019 0.16202 0.67558 0.0
H1186 H 0.96982 0.21623 0.67314 0.0
H1187 H 0.91514 0.27995 0.67942 0.0
H1188 H 0.93662 0.3381 0.70906 0.0
H1189 H 0.00737 0.28458 0.7114 0.0
C1190 C 0.04045 0.21835 0.69832 0.0
C1191 C 0.05511 0.18651 0.69066 0.0
C1192 C 0.00125 0.2505 0.69686 0.0
C1193 C 0.0291 0.18592 0.68162 0.0
C1194 C 0.98928 0.21719 0.68019 0.0
C1195 C 0.9358 0.28166 0.68633 0.0
C1196 C 0.92079 0.31303 0.69405 0.0
C1197 C 0.97548 0.24998 0.68772 0.0
C1198 C 0.9476 0.31434 0.703 0.0
C1199 C 0.9877 0.28345 0.70438 0.0
H1200 H 0.06222 0.8251 0.95572 0.0
H1201 H 0.09363 0.81054 0.92429 0.0
H1202 H 0.03987 0.73896 0.9234 0.0
H1203 H 0.98057 0.68427 0.93131 0.0
H1204 H 0.94829 0.69965 0.96267 0.0
H1205 H 0.0051 0.76884 0.96375 0.0
C1206 C 0.05821 0.80575 0.9487 0.0
C1207 C 0.08183 0.82307 0.94007 0.0
C1208 C 0.02605 0.76596 0.94817 0.0
C1209 C 0.07586 0.79779 0.93103 0.0
C1210 C 0.04476 0.75728 0.9305 0.0
C1211 C 0.98537 0.70319 0.93836 0.0
C1212 C 0.9598 0.68748 0.94687 0.0
C1213 C 0.01873 0.74197 0.93896 0.0
C1214 C 0.96725 0.71155 0.956 0.0
C1215 C -1e-05 0.75071 0.95663 0.0
H1216 H 0.4276 0.71325 0.71991 0.0
H1217 H 0.47689 0.62404 0.69531 0.0
H1218 H 0.55312 0.6706 0.69447 0.0
H1219 H 0.60035 0.74257 0.69923 0.0
H1220 H 0.55335 0.8325 0.72382 0.0
H1221 H 0.48087 0.7799 0.72614 0.0
C1222 C 0.45569 0.7031 0.71458 0.0
C1223 C 0.44655 0.66571 0.7076 0.0
C1224 C 0.49888 0.73098 0.71395 0.0
C1225 C 0.48308 0.65298 0.7007 0.0
C1226 C 0.52641 0.67981 0.70015 0.0
C1227 C 0.57405 0.75073 0.70508 0.0
C1228 C 0.58081 0.79197 0.71115 0.0
C1229 C 0.5336 0.72009 0.70644 0.0
C1230 C 0.54792 0.80132 0.71895 0.0
C1231 C 0.50683 0.7712 0.72029 0.0
H1232 H 0.01405 0.67189 0.47124 0.0
H1233 H 0.12444 0.72313 0.45068 0.0
H1234 H 0.08326 0.80219 0.44942 0.0
H1235 H 0.00864 0.8501 0.45177 0.0
H1236 H 0.89628 0.79966 0.47188 0.0
H1237 H 0.94498 0.72608 0.47568 0.0
C1238 C 0.03005 0.70116 0.46683 0.0
C1239 C 0.07184 0.69203 0.461 0.0
C1240 C 0.00486 0.7456 0.46578 0.0
C1241 C 0.09218 0.72973 0.4552 0.0
C1242 C 0.06833 0.77455 0.45438 0.0
C1243 C 0.99514 0.82293 0.45702 0.0
C1244 C 0.94879 0.82866 0.46133 0.0
C1245 C 0.02335 0.78169 0.45919 0.0
C1246 C 0.9317 0.79475 0.46836 0.0
C1247 C 0.95957 0.75311 0.47055 0.0
H1248 H 0.91098 0.20094 0.21878 0.0
H1249 H 0.9325 0.15862 0.18802 0.0
H1250 H 0.00032 0.21601 0.18661 0.0
H1251 H 0.05129 0.27877 0.19375 0.0
H1252 H 0.03589 0.31946 0.2247 0.0
H1253 H 0.96617 0.26281 0.2263 0.0
C1254 C 0.93106 0.20365 0.21182 0.0
C1255 C 0.91656 0.17555 0.20351 0.0
C1256 C 0.97 0.23715 0.21102 0.0
C1257 C 0.9428 0.17974 0.19453 0.0
C1258 C 0.98134 0.21285 0.19369 0.0
C1259 C 0.0326 0.27598 0.20086 0.0
C1260 C 0.0485 0.30381 0.20908 0.0
C1261 C 0.99457 0.24218 0.20182 0.0
C1262 C 0.024 0.29886 0.21824 0.0
C1263 C 0.98457 0.26613 0.21917 0.0
H1264 H 0.54914 0.1614 0.96968 0.0
H1265 H 0.57542 0.16467 0.93789 0.0
H1266 H 0.52595 0.23795 0.93635 0.0
H1267 H 0.47397 0.29906 0.94367 0.0
H1268 H 0.44869 0.30149 0.97544 0.0
H1269 H 0.49886 0.22726 0.97732 0.0
C1270 C 0.54463 0.17865 0.96246 0.0
C1271 C 0.56578 0.15737 0.95392 0.0
C1272 C 0.51581 0.22111 0.96158 0.0
C1273 C 0.55943 0.18003 0.94459 0.0
C1274 C 0.53095 0.22187 0.94367 0.0
C1275 C 0.47884 0.28335 0.95104 0.0
C1276 C 0.45702 0.30535 0.95939 0.0
C1277 C 0.50846 0.24214 0.95207 0.0
C1278 C 0.46475 0.28488 0.96888 0.0
C1279 C 0.49361 0.2427 0.96995 0.0
H1280 H 0.56051 0.2234 0.79586 0.0
H1281 H 0.53928 0.15166 0.82427 0.0
H1282 H 0.46169 0.19401 0.82647 0.0
H1283 H 0.40327 0.25548 0.82105 0.0
H1284 H 0.42067 0.32625 0.79252 0.0
H1285 H 0.49692 0.28048 0.78967 0.0
C1286 C 0.53833 0.21628 0.80242 0.0
C1287 C 0.55582 0.18487 0.80993 0.0
C1288 C 0.49383 0.24133 0.80372 0.0
C1289 C 0.52681 0.17604 0.81841 0.0
C1290 C 0.48257 0.20041 0.81972 0.0
C1291 C 0.42399 0.26122 0.81424 0.0
C1292 C 0.4074 0.29492 0.80711 0.0
C1293 C 0.46655 0.23411 0.81257 0.0
C1294 C 0.43345 0.30089 0.79817 0.0
C1295 C 0.47675 0.27461 0.79652 0.0
H1296 H 0.46436 0.82483 0.56961 0.0
H1297 H 0.54228 0.80352 0.54201 0.0
H1298 H 0.48847 0.73389 0.53792 0.0
H1299 H 0.42631 0.67362 0.54341 0.0
H1300 H 0.35063 0.6959 0.57129 0.0
H1301 H 0.39533 0.77232 0.57391 0.0
C1302 C 0.46954 0.80485 0.56269 0.0
C1303 C 0.50797 0.81772 0.55625 0.0
C1304 C 0.4384 0.76585 0.5604 0.0
C1305 C 0.51338 0.7932 0.54714 0.0
C1306 C 0.48256 0.75373 0.54481 0.0
C1307 C 0.41834 0.69622 0.54986 0.0
C1308 C 0.38556 0.67929 0.5572 0.0
C1309 C 0.4457 0.73904 0.55151 0.0
C1310 C 0.37583 0.7084 0.56558 0.0
C1311 C 0.40176 0.75168 0.56713 0.0
H1312 H 0.08564 0.72435 0.2942 0.0
H1313 H 0.04033 0.62131 0.31681 0.0
H1314 H 0.96022 0.66071 0.31785 0.0
H1315 H 0.91034 0.73279 0.31465 0.0
H1316 H 0.95476 0.83855 0.29256 0.0
H1317 H 0.0287 0.79002 0.28898 0.0
C1318 C 0.05745 0.70952 0.29906 0.0
C1319 C 0.06855 0.67045 0.30549 0.0
C1320 C 0.01236 0.7338 0.29994 0.0
C1321 C 0.03225 0.65157 0.31184 0.0
C1322 C 0.98681 0.67436 0.31251 0.0
C1323 C 0.93612 0.74493 0.309 0.0
C1324 C 0.92859 0.78958 0.30408 0.0
C1325 C 0.97771 0.71701 0.30701 0.0
C1326 C 0.96087 0.80454 0.29654 0.0
C1327 C 0.00282 0.77681 0.2945 0.0
H1328 H 0.96405 0.19046 0.04472 0.0
H1329 H 0.01663 0.14069 0.07338 0.0
H1330 H 0.07451 0.20788 0.07411 0.0
H1331 H 0.10324 0.28537 0.0678 0.0
H1332 H 0.04769 0.34173 0.03995 0.0
H1333 H -0.00029 0.26671 0.0375 0.0
C1334 C 0.98841 0.19445 0.05106 0.0
C1335 C 0.98502 0.16167 0.0591 0.0
C1336 C 0.02141 0.2341 0.05156 0.0
C1337 C 0.01734 0.16648 0.06723 0.0
C1338 C 0.05089 0.20459 0.06764 0.0
C1339 C 0.0813 0.28098 0.0611 0.0
C1340 C 0.0782 0.31928 0.05418 0.0
C1341 C 0.05217 0.23933 0.06001 0.0
C1342 C 0.05048 0.3127 0.04543 0.0
C1343 C 0.02256 0.27009 0.04408 0.0
H1344 H 0.33384 0.19046 0.2652 0.0
H1345 H 0.22089 0.26975 0.28099 0.0
H1346 H 0.20107 0.31466 0.26596 0.0
H1347 H 0.21583 0.33252 0.24809 0.0
H1348 H 0.33376 0.2577 0.23294 0.0
H1349 H 0.35219 0.21169 0.248 0.0
C1350 C 0.30473 0.21746 0.26544 0.0
C1351 C 0.27812 0.2248 0.27434 0.0
C1352 C 0.29476 0.245 0.25683 0.0
C1353 C 0.24103 0.26078 0.27434 0.0
C1354 C 0.23003 0.28752 0.2657 0.0
C1355 C 0.24587 0.30651 0.24811 0.0
C1356 C 0.27319 0.29866 0.23933 0.0
C1357 C 0.25666 0.27997 0.25688 0.0
C1358 C 0.31206 0.26479 0.23954 0.0
C1359 C 0.32254 0.23811 0.24816 0.0
H1360 H 0.91162 -0.00183 0.49669 0.0
H1361 H 0.04223 0.04304 0.48098 0.0
H1362 H 0.08364 0.05973 0.49672 0.0
H1363 H 0.08508 0.05655 0.51493 0.0
H1364 H 0.95531 0.01183 0.53092 0.0
H1365 H 0.91188 -0.00078 0.51522 0.0
C1366 C 0.94874 0.01255 0.49675 0.0
C1367 C 0.97378 0.01956 0.48769 0.0
C1368 C 0.97305 0.02085 0.5059 0.0
C1369 C 0.0222 0.03739 0.48786 0.0
C1370 C 0.04604 0.04671 0.49686 0.0
C1371 C 0.04727 0.04401 0.51499 0.0
C1372 C 0.02428 0.03346 0.52412 0.0
C1373 C 0.02224 0.03758 0.50592 0.0
C1374 C 0.97496 0.018 0.52404 0.0
C1375 C 0.94969 0.01155 0.51503 0.0
H1376 H 0.26835 0.6653 0.74561 0.0
H1377 H 0.16353 0.75286 0.72931 0.0
H1378 H 0.15088 0.8043 0.74388 0.0
H1379 H 0.1705 0.8261 0.76108 0.0
H1380 H 0.2685 0.73379 0.77802 0.0
H1381 H 0.28373 0.68415 0.76339 0.0
C1382 C 0.24245 0.69538 0.74527 0.0
C1383 C 0.21703 0.70501 0.73633 0.0
C1384 C 0.23487 0.72496 0.75376 0.0
C1385 C 0.18347 0.74416 0.73607 0.0
C1386 C 0.17639 0.77397 0.7444 0.0
C1387 C 0.19544 0.79529 0.76162 0.0
C1388 C 0.21988 0.78572 0.77068 0.0
C1389 C 0.20217 0.765 0.75325 0.0
C1390 C 0.25117 0.74469 0.77115 0.0
C1391 C 0.25919 0.71522 0.76276 0.0
H1392 H 0.49269 -0.00285 0.02391 0.0
H1393 H 0.41573 0.8642 0.01616 0.0
H1394 H 0.45968 0.86061 1.00034 0.0
H1395 H 0.51806 0.8963 0.98849 0.0
H1396 H 0.59625 0.02857 0.99626 0.0
H1397 H 0.55527 0.03008 0.01246 0.0
C1398 C 0.48644 0.96667 0.01889 0.0
C1399 C 0.45153 0.93048 0.02134 0.0
C1400 C 0.5123 0.96451 0.00982 0.0
C1401 C 0.44244 0.89249 0.01451 0.0
C1402 C 0.46774 0.89026 1.00546 0.0
C1403 C 0.5267 0.92518 0.99376 0.0
C1404 C 0.56016 0.96235 0.99111 0.0
C1405 C 0.50257 0.92618 1.00302 0.0
C1406 C 0.57075 -0.00057 0.99808 0.0
C1407 C 0.54707 0.0005 1.00733 0.0
H1408 H 0.35681 0.79277 0.24707 0.0
H1409 H 0.20079 0.79237 0.24156 0.0
H1410 H 0.18774 0.74255 0.25639 0.0
H1411 H 0.22005 0.70313 0.27159 0.0
H1412 H 0.3753 0.70969 0.27779 0.0
H1413 H 0.38915 0.75297 0.26207 0.0
C1414 C 0.31985 0.7818 0.24908 0.0
C1415 C 0.28001 0.7956 0.24298 0.0
C1416 C 0.31246 0.7542 0.25781 0.0
C1417 C 0.23248 0.78097 0.24578 0.0
C1418 C 0.22487 0.75287 0.25439 0.0
C1419 C 0.25703 0.71325 0.26942 0.0
C1420 C 0.29668 0.70286 0.27584 0.0
C1421 C 0.26456 0.73949 0.2605 0.0
C1422 C 0.34421 0.71709 0.27298 0.0
C1423 C 0.35211 0.74203 0.26402 0.0
H1424 H 0.49547 0.03727 0.49235 0.0
H1425 H 0.34649 0.04943 0.50288 0.0
H1426 H 0.37337 0.03141 0.51986 0.0
H1427 H 0.43828 0.011 0.53161 0.0
H1428 H 0.58832 0.00057 0.52163 0.0
H1429 H 0.56215 0.01957 0.50452 0.0
C1430 C 0.46898 0.03536 0.49837 0.0
C1431 C 0.41888 0.04368 0.49636 0.0
C1432 C 0.48492 0.02573 0.50818 0.0
C1433 C 0.3851 0.04273 0.50425 0.0
C1434 C 0.40046 0.03249 0.51394 0.0
C1435 C 0.46545 0.01296 0.52571 0.0
C1436 C 0.51518 0.00404 0.52788 0.0
C1437 C 0.45016 0.02383 0.51598 0.0
C1438 C 0.54985 0.00741 0.52016 0.0
C1439 C 0.53482 0.01799 0.51038 0.0
H1440 H 0.22572 0.19922 0.78059 0.0
H1441 H 0.22386 0.34662 0.76897 0.0
H1442 H 0.20539 0.31472 0.75225 0.0
H1443 H 0.19159 0.24408 0.74093 0.0
H1444 H 0.19113 0.09765 0.75303 0.0
H1445 H 0.20881 0.13003 0.76963 0.0
C1446 C 0.22125 0.22452 0.77441 0.0
C1447 C 0.22657 0.27522 0.77599 0.0
C1448 C 0.21054 0.20598 0.76492 0.0
C1449 C 0.21988 0.30746 0.76794 0.0
C1450 C 0.20958 0.28918 0.75839 0.0
C1451 C 0.19595 0.21938 0.7472 0.0
C1452 C 0.19114 0.16847 0.74576 0.0
C1453 C 0.20533 0.23842 0.75677 0.0
C1454 C 0.19516 0.13688 0.75397 0.0
C1455 C 0.20522 0.15537 0.76345 0.0
H1456 H 0.0556 0.00975 0.02768 0.0
H1457 H 0.90789 0.00258 0.01617 0.0
H1458 H 0.94036 0.98804 0.99934 0.0
H1459 H 0.01164 0.97653 0.98797 0.0
H1460 H 0.15817 0.9809 1.00012 0.0
H1461 H 0.12518 -0.00223 0.01668 0.0
C1462 C 0.03025 0.00516 0.02152 0.0
C1463 C 0.97931 0.00749 0.02319 0.0
C1464 C 0.04911 -0.00341 0.01197 0.0
C1465 C 0.94723 0.00087 0.0151 0.0
C1466 C 0.96583 0.99274 1.00547 0.0
C1467 C 0.0362 0.98198 0.99423 0.0
C1468 C 0.08735 0.97832 0.99283 0.0
C1469 C 0.0168 0.99063 1.00381 0.0
C1470 C 0.11877 0.9839 1.00103 0.0
C1471 C 0.09993 0.99345 0.01049 0.0
H1472 H 0.78066 0.74874 0.77768 0.0
H1473 H 0.78156 0.604 0.76479 0.0
H1474 H 0.76772 0.63891 0.74825 0.0
H1475 H 0.75356 0.70968 0.73759 0.0
H1476 H 0.75427 0.85543 0.75001 0.0
H1477 H 0.76975 0.82108 0.76667 0.0
C1478 C 0.77715 0.72494 0.77125 0.0
C1479 C 0.78094 0.67377 0.77244 0.0
C1480 C 0.76991 0.74543 0.76173 0.0
C1481 C 0.77823 0.64339 0.76404 0.0
C1482 C 0.77038 0.66333 0.7546 0.0
C1483 C 0.75715 0.73412 0.74393 0.0
C1484 C 0.75231 0.78503 0.7426 0.0
C1485 C 0.76594 0.71418 0.75338 0.0
C1486 C 0.75792 0.81613 0.75085 0.0
C1487 C 0.76647 0.79645 0.76037 0.0
H1488 H 0.77286 0.25257 0.27281 0.0
H1489 H 0.64009 0.33121 0.2657 0.0
H1490 H 0.63129 0.28433 0.25034 0.0
H1491 H 0.66251 0.22315 0.23865 0.0
H1492 H 0.79489 0.14359 0.24568 0.0
H1493 H 0.80142 0.18725 0.26153 0.0
C1494 C 0.74137 0.25862 0.26803 0.0
C1495 C 0.70678 0.29488 0.27051 0.0
C1496 C 0.73625 0.23115 0.25921 0.0
C1497 C 0.66726 0.30353 0.264 0.0
C1498 C 0.66203 0.27656 0.25522 0.0
C1499 C 0.69248 0.21478 0.24369 0.0
C1500 C 0.72821 0.18019 0.24093 0.0
C1501 C 0.69644 0.2405 0.25272 0.0
C1502 C 0.76679 0.16999 0.24759 0.0
C1503 C 0.77074 0.19517 0.25665 0.0
H1504 H 0.83491 0.29548 0.74597 0.0
H1505 H 0.67937 0.31867 0.74269 0.0
H1506 H 0.6635 0.26584 0.7571 0.0
H1507 H 0.69422 0.21553 0.77104 0.0
H1508 H 0.85028 0.19622 0.77481 0.0
H1509 H 0.86559 0.24462 0.75979 0.0
C1510 C 0.79755 0.2889 0.74843 0.0
C1511 C 0.75828 0.3101 0.74316 0.0
C1512 C 0.78884 0.259 0.75679 0.0
C1513 C 0.7101 0.30159 0.74644 0.0
C1514 C 0.70106 0.27166 0.75473 0.0
C1515 C 0.73155 0.22123 0.76849 0.0
C1516 C 0.77106 0.20197 0.77403 0.0
C1517 C 0.74016 0.25018 0.75997 0.0
C1518 C 0.81921 0.21046 0.77068 0.0
C1519 C 0.82801 0.23835 0.76212 0.0
H1520 H 0.79563 0.71827 0.27693 0.0
H1521 H 0.69153 0.83668 0.27447 0.0
H1522 H 0.65846 0.79998 0.25914 0.0
H1523 H 0.65857 0.73269 0.24663 0.0
H1524 H 0.76355 0.61552 0.2495 0.0
H1525 H 0.79688 0.65324 0.26457 0.0
C1526 C 0.7657 0.73632 0.27307 0.0
C1527 C 0.7459 0.78011 0.27688 0.0
C1528 C 0.74705 0.71507 0.26436 0.0
C1529 C 0.70746 0.80301 0.27169 0.0
C1530 C 0.68847 0.78191 0.26296 0.0
C1531 C 0.6887 0.71559 0.2506 0.0
C1532 C 0.70912 0.67174 0.24695 0.0
C1533 C 0.70778 0.73771 0.25926 0.0
C1534 C 0.74806 0.64974 0.25209 0.0
C1535 C 0.76689 0.67116 0.26072 0.0
H1536 H 0.50269 0.5682 0.98958 0.0
H1537 H 0.41165 0.4447 0.99755 0.0
H1538 H 0.45268 0.43942 0.01374 0.0
H1539 H 0.51892 0.46622 0.02516 0.0
H1540 H 0.60921 0.58985 0.01696 0.0
H1541 H 0.56493 0.5977 1.00125 0.0
C1542 C 0.49122 0.54047 0.99489 0.0
C1543 C 0.4541 0.50686 0.9923 0.0
C1544 C 0.51551 0.5371 1.00411 0.0
C1545 C 0.43998 0.47118 0.99932 0.0
C1546 C 0.4637 0.46791 0.00857 0.0
C1547 C 0.52815 0.49554 0.02004 0.0
C1548 C 0.56694 0.52785 0.02233 0.0
C1549 C 0.50216 0.50014 0.01099 0.0
C1550 C 0.57956 0.56447 0.01541 0.0
C1551 C 0.55408 0.56918 1.00643 0.0
H1552 H 0.03956 0.53773 0.49408 0.0
H1553 H 0.03553 0.38266 0.48786 0.0
H1554 H 0.98881 0.3685 0.50315 0.0
H1555 H 0.94554 0.40053 0.51775 0.0
H1556 H 0.94327 0.55643 0.52312 0.0
H1557 H -0.00361 0.56973 0.50881 0.0
C1558 C 0.02927 0.50071 0.49616 0.0
C1559 C 0.04137 0.46121 0.48987 0.0
C1560 C 0.00104 0.49302 0.50481 0.0
C1561 C 0.02688 0.41363 0.49259 0.0
C1562 C -5e-05 0.40556 0.50131 0.0
C1563 C 0.95656 0.43754 0.51581 0.0
C1564 C 0.94108 0.47726 0.52175 0.0
C1565 C 0.98607 0.44508 0.50737 0.0
C1566 C 0.95586 0.52483 0.51904 0.0
C1567 C 0.9859 0.53259 0.51073 0.0
H1568 H 0.92107 0.59101 1.00544 0.0
H1569 H 0.01824 0.49496 0.98918 0.0
H1570 H 0.06934 0.4858 1.00375 0.0
H1571 H 0.08746 0.50476 0.02131 0.0
H1572 H 0.99474 0.60672 0.0371 0.0
H1573 H 0.94271 0.61526 0.02243 0.0
C1574 C 0.95331 0.56785 1.00503 0.0
C1575 C 0.96377 0.54205 0.99618 0.0
C1576 C 0.9844 0.56458 0.01337 0.0
C1577 C 0.0066 0.5132 0.99587 0.0
C1578 C 0.03695 0.50869 1.00424 0.0
C1579 C 0.05622 0.52932 0.02151 0.0
C1580 C 0.04506 0.55485 0.03034 0.0
C1581 C 0.02619 0.53412 0.01303 0.0
C1582 C 0.00448 0.58668 0.03042 0.0
C1583 C 0.97435 0.59131 0.02205 0.0
H1584 H 0.53197 0.41793 0.49563 0.0
H1585 H 0.52086 0.57332 0.49042 0.0
H1586 H 0.46434 0.58116 0.50453 0.0
H1587 H 0.42098 0.54417 0.51877 0.0
H1588 H 0.43528 0.38912 0.52438 0.0
H1589 H 0.48707 0.38062 0.50963 0.0
C1590 C 0.51714 0.45348 0.49761 0.0
C1591 C 0.52997 0.49493 0.49194 0.0
C1592 C 0.485 0.45765 0.50575 0.0
C1593 C 0.51067 0.54079 0.49457 0.0
C1594 C 0.47853 0.54527 0.50264 0.0
C1595 C 0.43467 0.50835 0.51667 0.0
C1596 C 0.42405 0.46727 0.52266 0.0
C1597 C 0.46552 0.50395 0.50831 0.0
C1598 C 0.44277 0.42129 0.5199 0.0
C1599 C 0.47263 0.41644 0.51149 0.0
H1600 H 0.30225 0.94964 0.33023 0.0
H1601 H 0.1897 0.98418 0.30875 0.0
H1602 H 0.17908 0.89706 0.30505 0.0
H1603 H 0.2014 0.81113 0.30803 0.0
H1604 H 0.30596 0.77544 0.33099 0.0
H1605 H 0.3202 0.86304 0.33412 0.0
C1606 C 0.27484 0.93799 0.32487 0.0
C1607 C 0.24704 0.97319 0.31969 0.0
C1608 C 0.26796 0.88779 0.32301 0.0
C1609 C 0.21202 0.95767 0.31269 0.0
C1610 C 0.20589 0.90796 0.3106 0.0
C1611 C 0.22773 0.82274 0.31362 0.0
C1612 C 0.25358 0.78742 0.31912 0.0
C1613 C 0.23388 0.87276 0.31566 0.0
C1614 C 0.28638 0.80237 0.32659 0.0
C1615 C 0.29425 0.85227 0.32839 0.0
H1616 H 0.28835 0.9879 0.58537 0.0
H1617 H 0.27011 0.06326 0.55733 0.0
H1618 H 0.35875 0.0642 0.55494 0.0
H1619 H 0.44155 0.03918 0.56042 0.0
H1620 H 0.45914 0.97338 0.58952 0.0
H1621 H 0.371 0.9766 0.59216 0.0
C1622 C 0.30359 0.00565 0.57884 0.0
C1623 C 0.27209 0.02422 0.57143 0.0
C1624 C 0.35479 0.00873 0.57777 0.0
C1625 C 0.29296 0.04655 0.56297 0.0
C1626 C 0.3439 0.048 0.56167 0.0
C1627 C 0.42634 0.02675 0.56746 0.0
C1628 C 0.45725 0.00524 0.57466 0.0
C1629 C 0.37522 0.02858 0.56897 0.0
C1630 C 0.43657 0.98977 0.58377 0.0
C1631 C 0.38592 0.99108 0.58527 0.0
H1632 H 0.18426 0.20901 0.8071 0.0
H1633 H 0.23701 0.22648 0.83729 0.0
H1634 H 0.23414 0.13831 0.83974 0.0
H1635 H 0.22809 0.05615 0.8326 0.0
H1636 H 0.16605 0.03751 0.80324 0.0
H1637 H 0.16322 0.12615 0.80106 0.0
C1638 C 0.19394 0.19369 0.8143 0.0
C1639 C 0.21169 0.22453 0.82192 0.0
C1640 C 0.19232 0.14261 0.81571 0.0
C1641 C 0.22352 0.20388 0.83124 0.0
C1642 C 0.22239 0.15325 0.83264 0.0
C1643 C 0.21262 0.07121 0.82582 0.0
C1644 C 0.19883 0.03984 0.81799 0.0
C1645 C 0.20864 0.12223 0.82481 0.0
C1646 C 0.17933 0.06048 0.80923 0.0
C1647 C 0.17682 0.11134 0.80803 0.0
H1648 H 0.04144 0.018 0.07943 0.0
H1649 H 0.02786 0.91345 0.05552 0.0
H1650 H 0.11731 0.90314 0.05524 0.0
H1651 H 0.19982 0.92842 0.06113 0.0
H1652 H 0.21193 0.03976 0.08378 0.0
H1653 H 0.12259 0.04349 0.08515 0.0
C1654 C 0.05788 0.99176 0.07437 0.0
C1655 C 0.02797 0.96551 0.06768 0.0
C1656 C 0.1092 0.98836 0.07385 0.0
C1657 C 0.05006 0.93319 0.06089 0.0
C1658 C 0.10121 0.92787 0.06063 0.0
C1659 C 0.18277 0.95393 0.06625 0.0
C1660 C 0.21232 0.98384 0.07236 0.0
C1661 C 0.13123 0.95625 0.06691 0.0
C1662 C 0.18985 0.01623 0.07906 0.0
C1663 C 0.13884 0.01822 0.07987 0.0
H1664 H 0.27717 0.2133 0.18763 0.0
H1665 H 0.16834 0.20488 0.21092 0.0
H1666 H 0.16951 0.11583 0.21017 0.0
H1667 H 0.20031 0.04003 0.2028 0.0
H1668 H 0.31723 0.04654 0.18123 0.0
H1669 H 0.3132 0.13605 0.18116 0.0
C1670 C 0.25414 0.19175 0.19256 0.0
C1671 C 0.22305 0.21546 0.19935 0.0
C1672 C 0.25593 0.14017 0.19231 0.0
C1673 C 0.19321 0.18734 0.20573 0.0
C1674 C 0.19352 0.13642 0.20527 0.0
C1675 C 0.22541 0.0611 0.19821 0.0
C1676 C 0.25874 0.03676 0.19201 0.0
C1677 C 0.2247 0.11243 0.1986 0.0
C1678 C 0.29047 0.06446 0.18594 0.0
C1679 C 0.28856 0.11567 0.18597 0.0
H1680 H 0.02724 0.05515 0.4548 0.0
H1681 H 0.01575 0.96882 0.42792 0.0
H1682 H 0.10441 0.97174 0.42585 0.0
H1683 H 0.18573 0.98948 0.43286 0.0
H1684 H 0.19748 0.0837 0.45855 0.0
H1685 H 0.1084 0.08513 0.46014 0.0
C1686 C 0.04398 0.03802 0.44835 0.0
C1687 C 0.01475 0.01124 0.44162 0.0
C1688 C 0.09522 0.03969 0.44718 0.0
C1689 C 0.03714 0.98965 0.43325 0.0
C1690 C 0.08804 0.99078 0.43211 0.0
C1691 C 0.16889 0.01133 0.43866 0.0
C1692 C 0.19851 0.0353 0.44573 0.0
C1693 C 0.11752 0.01421 0.43922 0.0
C1694 C 0.17584 0.06307 0.45326 0.0
C1695 C 0.12475 0.06465 0.45407 0.0
H1696 H 0.26777 0.93535 0.68381 0.0
H1697 H 0.16708 0.9402 0.70858 0.0
H1698 H 0.17305 0.85161 0.71053 0.0
H1699 H 0.20961 0.77291 0.70557 0.0
H1700 H 0.30278 0.76712 0.67959 0.0
H1701 H 0.29486 0.85548 0.67741 0.0
C1702 C 0.24636 0.91695 0.68951 0.0
C1703 C 0.21801 0.94463 0.69619 0.0
C1704 C 0.24802 0.86566 0.69027 0.0
C1705 C 0.19077 0.92014 0.70358 0.0
C1706 C 0.19354 0.86931 0.70461 0.0
C1707 C 0.22747 0.79089 0.69934 0.0
C1708 C 0.25702 0.76351 0.69282 0.0
C1709 C 0.22252 0.84174 0.69807 0.0
C1710 C 0.27963 0.78726 0.68471 0.0
C1711 C 0.27553 0.83791 0.6835 0.0
H1712 H 0.47212 0.03792 0.95362 0.0
H1713 H 0.48994 0.90108 0.93807 0.0
H1714 H 0.40135 0.89924 0.93439 0.0
H1715 H 0.31889 0.93745 0.93582 0.0
H1716 H 0.30493 0.07831 0.95004 0.0
H1717 H 0.39262 0.07846 0.95393 0.0
C1718 C 0.45637 0.00724 0.94957 0.0
C1719 C 0.48667 0.9688 0.94639 0.0
C1720 C 0.40656 0.00784 0.94712 0.0
C1721 C 0.46668 0.93032 0.94078 0.0
C1722 C 0.41634 0.92959 0.93862 0.0
C1723 C 0.33549 0.96846 0.93959 0.0
C1724 C 0.30599 0.00785 0.94269 0.0
C1725 C 0.38598 0.96836 0.94172 0.0
C1726 C 0.32731 0.04773 0.94764 0.0
C1727 C 0.37718 0.04764 0.9499 0.0
H1728 H 0.78154 0.21818 0.70452 0.0
H1729 H 0.67047 0.2218 0.68162 0.0
H1730 H 0.65593 0.13339 0.68401 0.0
H1731 H 0.67594 0.05567 0.69263 0.0
H1732 H 0.79447 0.05266 0.714 0.0
H1733 H 0.80332 0.14132 0.71257 0.0
C1734 C 0.75355 0.19986 0.70012 0.0
C1735 C 0.72633 0.22658 0.69303 0.0
C1736 C 0.74656 0.14945 0.70137 0.0
C1737 C 0.69152 0.20203 0.68716 0.0
C1738 C 0.68327 0.15164 0.68856 0.0
C1739 C 0.70428 0.07422 0.69686 0.0
C1740 C 0.73477 0.04726 0.70339 0.0
C1741 C 0.71083 0.12499 0.69561 0.0
C1742 C 0.77005 0.07232 0.70906 0.0
C1743 C 0.77551 0.123 0.70815 0.0
H1744 H 0.68625 0.91989 0.44358 0.0
H1745 H 0.69974 0.04875 0.46206 0.0
H1746 H 0.61084 0.0581 0.46204 0.0
H1747 H 0.53064 0.03416 0.45577 0.0
H1748 H 0.51641 0.91436 0.43502 0.0
H1749 H 0.60508 0.89801 0.43654 0.0
C1750 C 0.66995 0.95063 0.44745 0.0
C1751 C 0.70001 0.98384 0.45277 0.0
C1752 C 0.61889 0.95759 0.44689 0.0
C1753 C 0.6778 0.02219 0.45805 0.0
C1754 C 0.62692 0.02792 0.45794 0.0
C1755 C 0.54671 0.00389 0.45167 0.0
C1756 C 0.51697 0.97474 0.44544 0.0
C1757 C 0.59735 -0.00368 0.45227 0.0
C1758 C 0.53854 0.93684 0.43993 0.0
C1759 C 0.5891 0.92766 0.44081 0.0
H1760 H 0.73499 0.75473 0.21191 0.0
H1761 H 0.81229 0.74807 0.18385 0.0
H1762 H 0.82446 0.83731 0.18442 0.0
H1763 H 0.80763 0.9171 0.1924 0.0
H1764 H 0.71749 0.92248 0.21882 0.0
H1765 H 0.71725 0.83314 0.21959 0.0
C1766 C 0.75548 0.7723 0.20597 0.0
C1767 C 0.77328 0.74436 0.19787 0.0
C1768 C 0.75962 0.82344 0.20606 0.0
C1769 C 0.79866 0.76845 0.19019 0.0
C1770 C 0.80524 0.81948 0.1905 0.0
C1771 C 0.78688 0.8989 0.19819 0.0
C1772 C 0.76182 0.92678 0.20545 0.0
C1773 C 0.78466 0.84741 0.19827 0.0
C1774 C 0.73741 0.90224 0.2132 0.0
C1775 C 0.73694 0.85108 0.21358 0.0
H1776 H 0.81064 0.04968 0.94013 0.0
H1777 H 0.81675 0.95279 0.96555 0.0
H1778 H 0.9062 0.95147 0.96447 0.0
H1779 H 0.98067 0.97085 0.95544 0.0
H1780 H 0.97588 0.05914 0.92874 0.0
H1781 H 0.8867 0.06911 0.93089 0.0
C1782 C 0.83143 0.02758 0.94534 0.0
C1783 C 0.80692 0.00057 0.95282 0.0
C1784 C 0.88265 0.02503 0.94434 0.0
C1785 C 0.83461 0.97403 0.95978 0.0
C1786 C 0.88569 0.9729 0.95909 0.0
C1787 C 0.96059 0.9933 0.95017 0.0
C1788 C 0.98513 0.01508 0.94202 0.0
C1789 C 0.90982 -0.00258 0.95129 0.0
C1790 C 0.95795 0.04239 0.9351 0.0
C1791 C 0.90709 0.04799 0.93634 0.0
H1792 H 0.67586 0.95211 0.8223 0.0
H1793 H 0.78158 0.95247 0.79838 0.0
H1794 H 0.78859 0.86324 0.79963 0.0
H1795 H 0.77156 0.78738 0.80867 0.0
H1796 H 0.67363 0.78767 0.83394 0.0
H1797 H 0.65821 0.87547 0.83133 0.0
C1798 C 0.70096 0.9328 0.81744 0.0
C1799 C 0.72907 0.95908 0.81039 0.0
C1800 C 0.70666 0.88198 0.81857 0.0
C1801 C 0.75961 0.93321 0.80385 0.0
C1802 C 0.76396 0.88228 0.80464 0.0
C1803 C 0.74597 0.80626 0.81351 0.0
C1804 C 0.72312 0.7808 0.82142 0.0
C1805 C 0.73858 0.8566 0.81213 0.0
C1806 C 0.69142 0.80633 0.82779 0.0
C1807 C 0.68265 0.85643 0.82629 0.0
H1808 H 0.94811 0.94683 0.56183 0.0
H1809 H 0.93994 0.99009 0.59272 0.0
H1810 H 0.85045 0.98601 0.59199 0.0
H1811 H 0.77451 0.97842 0.58214 0.0
H1812 H 0.78248 0.93469 0.5513 0.0
H1813 H 0.8722 0.93395 0.55226 0.0
C1814 C 0.9269 0.95498 0.56844 0.0
C1815 C 0.95111 0.96942 0.57728 0.0
C1816 C 0.87535 0.95429 0.56787 0.0
C1817 C 0.9227 0.97867 0.58582 0.0
C1818 C 0.87136 0.9771 0.58537 0.0
C1819 C 0.79588 0.96832 0.57564 0.0
C1820 C 0.77172 0.95694 0.56663 0.0
C1821 C 0.84735 0.96645 0.57635 0.0
C1822 C 0.8 0.94459 0.55826 0.0
C1823 C 0.85132 0.94342 0.55886 0.0
H1824 H 0.80595 0.21559 0.30871 0.0
H1825 H 0.76032 0.21397 0.33953 0.0
H1826 H 0.75902 0.12471 0.33936 0.0
H1827 H 0.76255 0.04758 0.33002 0.0
H1828 H 0.81286 0.04823 0.29955 0.0
H1829 H 0.81742 0.1377 0.29982 0.0
C1830 C 0.79642 0.19578 0.31543 0.0
C1831 C 0.78261 0.2217 0.32407 0.0
C1832 C 0.79466 0.14436 0.31523 0.0
C1833 C 0.77123 0.19523 0.33277 0.0
C1834 C 0.76975 0.14408 0.33265 0.0
C1835 C 0.77502 0.0673 0.32346 0.0
C1836 C 0.78681 0.04129 0.31475 0.0
C1837 C 0.77988 0.11842 0.32384 0.0
C1838 C 0.80232 0.06733 0.30627 0.0
C1839 C 0.80578 0.11846 0.30648 0.0
H1840 H 0.7115 0.98334 0.07575 0.0
H1841 H 0.70142 0.05634 0.04732 0.0
H1842 H 0.61168 0.05681 0.04865 0.0
H1843 H 0.536 0.03803 0.05824 0.0
H1844 H 0.54898 0.97426 0.0876 0.0
H1845 H 0.63786 0.97253 0.08592 0.0
C1846 C 0.68981 0.00016 0.0699 0.0
C1847 C 0.71343 0.02011 0.06148 0.0
C1848 C 0.63872 0.00347 0.07105 0.0
C1849 C 0.68446 0.04016 0.05383 0.0
C1850 C 0.6331 0.0412 0.05467 0.0
C1851 C 0.5583 0.0245 0.06433 0.0
C1852 C 0.53542 0.0061 0.07302 0.0
C1853 C 0.60983 0.02349 0.06332 0.0
C1854 C 0.56517 0.98912 0.08087 0.0
C1855 C 0.61615 0.98738 0.07986 0.0
H1856 H 0.79661 0.4494 0.81414 0.0
H1857 H 0.67705 0.45678 0.83512 0.0
H1858 H 0.67329 0.36727 0.83574 0.0
H1859 H 0.70024 0.28753 0.82948 0.0
H1860 H 0.81142 0.28002 0.8067 0.0
H1861 H 0.82255 0.36921 0.80757 0.0
C1862 C 0.7693 0.4314 0.81873 0.0
C1863 C 0.73701 0.45955 0.82457 0.0
C1864 C 0.76629 0.38005 0.81877 0.0
C1865 C 0.70252 0.43577 0.83065 0.0
C1866 C 0.70033 0.38469 0.83098 0.0
C1867 C 0.72775 0.30535 0.82488 0.0
C1868 C 0.7558 0.27743 0.81819 0.0
C1869 C 0.73177 0.35653 0.82502 0.0
C1870 C 0.79008 0.30092 0.81201 0.0
C1871 C 0.79607 0.3518 0.81246 0.0
H1872 H 0.80616 0.53927 0.06577 0.0
H1873 H 0.7939 0.42594 0.08799 0.0
H1874 H 0.88366 0.42121 0.08919 0.0
H1875 H 0.96507 0.44622 0.08312 0.0
H1876 H 0.97642 0.55776 0.0604 0.0
H1877 H 0.88737 0.56722 0.06033 0.0
C1878 C 0.82333 0.51319 0.07077 0.0
C1879 C 0.7941 0.48218 0.07662 0.0
C1880 C 0.87454 0.51101 0.07144 0.0
C1881 C 0.81621 0.44957 0.08333 0.0
C1882 C 0.8673 0.44712 0.08405 0.0
C1883 C 0.94811 0.47344 0.07834 0.0
C1884 C 0.97718 0.50132 0.07179 0.0
C1885 C 0.89681 0.47744 0.07808 0.0
C1886 C 0.95472 0.53592 0.06551 0.0
C1887 C 0.90384 0.54107 0.06541 0.0
H1888 H 0.82028 0.70716 0.31339 0.0
H1889 H 0.68482 0.72713 0.32938 0.0
H1890 H 0.67489 0.63753 0.33068 0.0
H1891 H 0.70491 0.55398 0.32685 0.0
H1892 H 0.84431 0.53598 0.31211 0.0
H1893 H 0.85273 0.62488 0.31059 0.0
C1894 C 0.78863 0.69169 0.31717 0.0
C1895 C 0.75299 0.72294 0.32121 0.0
C1896 C 0.78396 0.6409 0.31801 0.0
C1897 C 0.71239 0.70326 0.3262 0.0
C1898 C 0.70685 0.65229 0.32692 0.0
C1899 C 0.73722 0.56972 0.32337 0.0
C1900 C 0.77354 0.53875 0.31939 0.0
C1901 C 0.74238 0.62082 0.32281 0.0
C1902 C 0.81527 0.55919 0.31492 0.0
C1903 C 0.82029 0.60991 0.31415 0.0
H1904 H 0.6878 0.54673 0.56011 0.0
H1905 H 0.68862 0.43386 0.5826 0.0
H1906 H 0.5991 0.42941 0.58204 0.0
H1907 H 0.52011 0.45722 0.57491 0.0
H1908 H 0.52158 0.56034 0.55052 0.0
H1909 H 0.61059 0.56738 0.55172 0.0
C1910 C 0.66839 0.52064 0.56477 0.0
C1911 C 0.69472 0.49119 0.57146 0.0
C1912 C 0.6173 0.51593 0.56394 0.0
C1913 C 0.66909 0.45797 0.57757 0.0
C1914 C 0.61793 0.4549 0.57716 0.0
C1915 C 0.54016 0.48064 0.56979 0.0
C1916 C 0.51451 0.50806 0.56263 0.0
C1917 C 0.59161 0.48359 0.57034 0.0
C1918 C 0.54068 0.53833 0.55602 0.0
C1919 C 0.59151 0.54278 0.55675 0.0
H1920 H 0.80473 0.55859 0.70429 0.0
H1921 H 0.70693 0.55306 0.67902 0.0
H1922 H 0.70697 0.6424 0.67805 0.0
H1923 H 0.72974 0.72156 0.68505 0.0
H1924 H 0.81993 0.72834 0.71146 0.0
H1925 H 0.8287 0.63898 0.71125 0.0
C1926 C 0.78293 0.57702 0.69867 0.0
C1927 C 0.75544 0.54938 0.69179 0.0
C1928 C 0.78239 0.62851 0.69828 0.0
C1929 C 0.72839 0.57366 0.68438 0.0
C1930 C 0.72847 0.62467 0.68381 0.0
C1931 C 0.75248 0.70371 0.69061 0.0
C1932 C 0.7747 0.73161 0.69819 0.0
C1933 C 0.75499 0.65243 0.69077 0.0
C1934 C 0.80297 0.70768 0.70548 0.0
C1935 C 0.80748 0.65659 0.70543 0.0
H1936 H 0.53713 0.53648 0.96072 0.0
H1937 H 0.52301 0.47775 0.93095 0.0
H1938 H 0.61064 0.48815 0.92828 0.0
H1939 H 0.69259 0.50481 0.93501 0.0
H1940 H 0.70673 0.57193 0.96397 0.0
H1941 H 0.61828 0.56563 0.96645 0.0
C1942 C 0.55298 0.52693 0.95357 0.0
C1943 C 0.52325 0.50573 0.94612 0.0
C1944 C 0.60378 0.53304 0.95203 0.0
C1945 C 0.54466 0.494 0.93687 0.0
C1946 C 0.59504 0.49951 0.93534 0.0
C1947 C 0.6764 0.51917 0.94178 0.0
C1948 C 0.70681 0.53755 0.94939 0.0
C1949 C 0.62516 0.51758 0.94297 0.0
C1950 C 0.68478 0.55555 0.95814 0.0
C1951 C 0.63393 0.5527 0.95951 0.0
H1952 H 0.74662 0.41356 0.18663 0.0
H1953 H 0.65542 0.42639 0.21277 0.0
H1954 H 0.65305 0.33734 0.21436 0.0
H1955 H 0.68029 0.25526 0.20858 0.0
H1956 H 0.75885 0.24467 0.18073 0.0
H1957 H 0.75931 0.33318 0.17915 0.0
C1958 C 0.72485 0.39719 0.19252 0.0
C1959 C 0.70224 0.42716 0.19968 0.0
C1960 C 0.72041 0.34603 0.19296 0.0
C1961 C 0.67517 0.40468 0.20737 0.0
C1962 C 0.67293 0.35354 0.20819 0.0
C1963 C 0.69625 0.27233 0.20203 0.0
C1964 C 0.71962 0.24309 0.19481 0.0
C1965 C 0.69589 0.32377 0.20106 0.0
C1966 C 0.74008 0.26587 0.18636 0.0
C1967 C 0.74106 0.31675 0.18551 0.0
H1968 H 0.78226 0.46828 0.45304 0.0
H1969 H 0.77278 0.57575 0.42958 0.0
H1970 H 0.8625 0.58253 0.42918 0.0
H1971 H 0.94302 0.55946 0.4359 0.0
H1972 H 0.95205 0.45414 0.45985 0.0
H1973 H 0.86291 0.44425 0.45959 0.0
C1974 C 0.79996 0.4937 0.44797 0.0
C1975 C 0.77142 0.52217 0.44147 0.0
C1976 C 0.85126 0.49712 0.44777 0.0
C1977 C 0.79443 0.55397 0.43471 0.0
C1978 C 0.84553 0.55759 0.43445 0.0
C1979 C 0.92557 0.53364 0.44093 0.0
C1980 C 0.95405 0.50733 0.44784 0.0
C1981 C 0.87429 0.52933 0.44095 0.0
C1982 C 0.93086 0.47466 0.45444 0.0
C1983 C 0.87993 0.46925 0.45434 0.0
H1984 H 0.2776 0.53794 0.1888 0.0
H1985 H 0.18251 0.55098 0.21433 0.0
H1986 H 0.18417 0.64026 0.21278 0.0
H1987 H 0.21097 0.71464 0.2038 0.0
H1988 H 0.29595 0.70004 0.17684 0.0
H1989 H 0.29672 0.61111 0.17884 0.0
C1990 C 0.25642 0.56028 0.19391 0.0
C1991 C 0.22972 0.53774 0.20162 0.0
C1992 C 0.25446 0.61122 0.19251 0.0
C1993 C 0.20401 0.5673 0.20841 0.0
C1994 C 0.20423 0.61835 0.20742 0.0
C1995 C 0.22878 0.69188 0.19826 0.0
C1996 C 0.25315 0.71394 0.19016 0.0
C1997 C 0.22879 0.64067 0.19941 0.0
C1998 C 0.27618 0.684 0.18305 0.0
C1999 C 0.27732 0.63317 0.18427 0.0
H2000 H 0.02964 0.45629 0.95826 0.0
H2001 H 0.03867 0.51437 0.92839 0.0
H2002 H 0.12801 0.5098 0.92908 0.0
H2003 H 0.20369 0.49664 0.93869 0.0
H2004 H 0.19543 0.43494 0.96824 0.0
H2005 H 0.10568 0.43686 0.96743 0.0
C2006 C 0.05103 0.46742 0.95185 0.0
C2007 C 0.02705 0.48615 0.94333 0.0
C2008 C 0.10263 0.46585 0.95239 0.0
C2009 C 0.05569 0.49951 0.93503 0.0
C2010 C 0.10697 0.49765 0.93548 0.0
C2011 C 0.18228 0.48311 0.94492 0.0
C2012 C 0.20646 0.46586 0.95353 0.0
C2013 C 0.1308 0.48221 0.94421 0.0
C2014 C 0.17803 0.44933 0.9616 0.0
C2015 C 0.12664 0.44966 0.96107 0.0
H2016 H 0.3162 0.43123 0.69203 0.0
H2017 H 0.19912 0.44826 0.71341 0.0
H2018 H 0.18574 0.35973 0.71336 0.0
H2019 H 0.20269 0.27913 0.70634 0.0
H2020 H 0.31115 0.26248 0.68318 0.0
H2021 H 0.33133 0.3502 0.68449 0.0
C2022 C 0.28703 0.41586 0.69654 0.0
C2023 C 0.25819 0.4467 0.70262 0.0
C2024 C 0.2778 0.36523 0.69605 0.0
C2025 C 0.22213 0.42558 0.70873 0.0
C2026 C 0.21415 0.37499 0.70863 0.0
C2027 C 0.23137 0.29441 0.70166 0.0
C2028 C 0.25613 0.2642 0.69478 0.0
C2029 C 0.24124 0.3447 0.70221 0.0
C2030 C 0.29196 0.28492 0.68857 0.0
C2031 C 0.30337 0.33496 0.68933 0.0
H2032 H 0.44678 0.54396 0.45258 0.0
H2033 H 0.44101 0.45475 0.42608 0.0
H2034 H 0.35259 0.44445 0.42817 0.0
H2035 H 0.27767 0.45702 0.43807 0.0
H2036 H 0.28268 0.5499 0.46402 0.0
H2037 H 0.3715 0.55913 0.46213 0.0
C2038 C 0.42615 0.52247 0.44725 0.0
C2039 C 0.45058 0.49985 0.43925 0.0
C2040 C 0.37561 0.51564 0.44864 0.0
C2041 C 0.42311 0.4731 0.43224 0.0
C2042 C 0.37267 0.46639 0.43354 0.0
C2043 C 0.29847 0.47893 0.44334 0.0
C2044 C 0.27394 0.5025 0.45119 0.0
C2045 C 0.34882 0.48655 0.44183 0.0
C2046 C 0.30095 0.5307 0.45801 0.0
C2047 C 0.35151 0.53679 0.45682 0.0
H2048 H 0.30607 0.46188 0.32754 0.0
H2049 H 0.20393 0.45988 0.30299 0.0
H2050 H 0.19215 0.37166 0.3052 0.0
H2051 H 0.20942 0.29545 0.31448 0.0
H2052 H 0.30208 0.30079 0.34054 0.0
H2053 H 0.31497 0.3885 0.33804 0.0
C2054 C 0.28026 0.44241 0.32283 0.0
C2055 C 0.25555 0.46764 0.31519 0.0
C2056 C 0.27038 0.39272 0.32469 0.0
C2057 C 0.22412 0.44132 0.30883 0.0
C2058 C 0.21653 0.39105 0.31023 0.0
C2059 C 0.23124 0.31616 0.31977 0.0
C2060 C 0.25452 0.29161 0.32772 0.0
C2061 C 0.23882 0.36657 0.31824 0.0
C2062 C 0.28294 0.31884 0.33449 0.0
C2063 C 0.29121 0.36883 0.33293 0.0
H2064 H 0.30389 0.43293 0.07485 0.0
H2065 H 0.29832 0.56634 0.0576 0.0
H2066 H 0.3878 0.57304 0.05848 0.0
H2067 H 0.46626 0.54337 0.06487 0.0
H2068 H 0.47215 0.41461 0.08344 0.0
H2069 H 0.38266 0.40456 0.08175 0.0
C2070 C 0.3221 0.46403 0.07145 0.0
C2071 C 0.29453 0.49959 0.06629 0.0
C2072 C 0.37315 0.46851 0.07232 0.0
C2073 C 0.31882 0.5385 0.06157 0.0
C2074 C 0.36981 0.54249 0.06214 0.0
C2075 C 0.44798 0.51261 0.06841 0.0
C2076 C 0.47538 0.47899 0.07407 0.0
C2077 C 0.39712 0.50795 0.06756 0.0
C2078 C 0.45149 0.44046 0.07897 0.0
C2079 C 0.4006 0.43483 0.07799 0.0
H2080 H 0.3094 0.54963 0.82399 0.0
H2081 H 0.19301 0.54588 0.80213 0.0
H2082 H 0.1889 0.63512 0.80239 0.0
H2083 H 0.21367 0.7131 0.80963 0.0
H2084 H 0.32017 0.7178 0.8334 0.0
H2085 H 0.33151 0.62841 0.83196 0.0
C2086 C 0.28236 0.56812 0.81943 0.0
C2087 C 0.25115 0.54072 0.8131 0.0
C2088 C 0.27817 0.61937 0.82007 0.0
C2089 C 0.2179 0.56575 0.80695 0.0
C2090 C 0.21515 0.61681 0.80719 0.0
C2091 C 0.23991 0.69467 0.81444 0.0
C2092 C 0.26688 0.72191 0.82149 0.0
C2093 C 0.24457 0.64377 0.81381 0.0
C2094 C 0.29951 0.69755 0.82786 0.0
C2095 C 0.30585 0.64662 0.82702 0.0
H2096 H 0.18083 0.54631 0.56018 0.0
H2097 H 0.1984 0.39489 0.56848 0.0
H2098 H 0.11318 0.39178 0.57426 0.0
H2099 H 0.03388 0.43221 0.57694 0.0
H2100 H 0.01367 0.58188 0.56772 0.0
H2101 H 0.10016 0.58663 0.5626 0.0
C2102 C 0.1654 0.51246 0.56305 0.0
C2103 C 0.19512 0.47052 0.56374 0.0
C2104 C 0.11666 0.51133 0.5665 0.0
C2105 C 0.17558 0.42715 0.56771 0.0
C2106 C 0.12723 0.42564 0.57113 0.0
C2107 C 0.04904 0.4663 0.57411 0.0
C2108 C 0.01846 0.50736 0.57309 0.0
C2109 C 0.09767 0.46765 0.57069 0.0
C2110 C 0.03736 0.55059 0.56893 0.0
C2111 C 0.08642 0.55291 0.56584 0.0
H2112 H 0.36917 0.10159 0.36497 0.0
H2113 H 0.21895 0.11249 0.37487 0.0
H2114 H 0.24329 0.08611 0.39158 0.0
H2115 H 0.30793 0.06308 0.40364 0.0
H2116 H 0.45852 0.05647 0.39383 0.0
H2117 H 0.43329 0.07746 0.37689 0.0
C2118 C 0.34162 0.09797 0.37076 0.0
C2119 C 0.29221 0.10917 0.36861 0.0
C2120 C 0.35599 0.08343 0.38041 0.0
C2121 C 0.25724 0.10438 0.37627 0.0
C2122 C 0.27114 0.08919 0.38585 0.0
C2123 C 0.33515 0.06563 0.39777 0.0
C2124 C 0.38513 0.05799 0.40004 0.0
C2125 C 0.32049 0.07898 0.38804 0.0
C2126 C 0.41988 0.06213 0.39233 0.0
C2127 C 0.40547 0.07426 0.38263 0.0
H2128 H 0.19016 0.0504 0.65288 0.0
H2129 H 0.14588 0.19732 0.64507 0.0
H2130 H 0.125 0.1702 0.62828 0.0
H2131 H 0.11658 0.10476 0.61594 0.0
H2132 H 0.15955 0.95727 0.62355 0.0
H2133 H 0.18335 0.9846 0.64024 0.0
C2134 C 0.17645 0.07658 0.64747 0.0
C2135 C 0.16968 0.12594 0.65028 0.0
C2136 C 0.16375 0.06056 0.6378 0.0
C2137 C 0.15145 0.15916 0.64316 0.0
C2138 C 0.13934 0.14366 0.63354 0.0
C2139 C 0.13107 0.07842 0.62123 0.0
C2140 C 0.13591 0.02886 0.61845 0.0
C2141 C 0.14477 0.09439 0.63081 0.0
C2142 C 0.15515 -0.00443 0.62545 0.0
C2143 C 0.16889 0.01121 0.63501 0.0
H2144 H 0.22925 0.97855 0.86386 0.0
H2145 H 0.16757 0.8335 0.86635 0.0
H2146 H 0.13968 0.85174 0.8833 0.0
H2147 H 0.13216 0.90932 0.89743 0.0
H2148 H 0.18891 0.05625 0.89442 0.0
H2149 H 0.21896 0.03705 0.87772 0.0
C2150 C 0.21006 0.9508 0.86815 0.0
C2151 C 0.20106 0.90447 0.86388 0.0
C2152 C 0.19286 0.96205 0.8778 0.0
C2153 C 0.17518 0.86933 0.86947 0.0
C2154 C 0.15916 0.87979 0.87916 0.0
C2155 C 0.15105 0.93716 0.89312 0.0
C2156 C 0.15827 0.9842 0.89723 0.0
C2157 C 0.16763 0.92609 0.88341 0.0
C2158 C 0.18253 0.01987 0.89146 0.0
C2159 C 0.19997 0.00884 0.88191 0.0
H2160 H 0.32068 0.92027 0.1127 0.0
H2161 H 0.46972 0.93531 0.12315 0.0
H2162 H 0.44347 0.91532 0.14009 0.0
H2163 H 0.37884 0.89045 0.15185 0.0
H2164 H 0.23049 0.87115 0.14125 0.0
H2165 H 0.25584 0.89572 0.12449 0.0
C2166 C 0.34735 0.91971 0.1187 0.0
C2167 C 0.39713 0.92952 0.11664 0.0
C2168 C 0.33218 0.90697 0.1284 0.0
C2169 C 0.43122 0.92795 0.1245 0.0
C2170 C 0.41624 0.91641 0.1342 0.0
C2171 C 0.35195 0.89176 0.14589 0.0
C2172 C 0.30276 0.87886 0.14784 0.0
C2173 C 0.36692 0.90531 0.13622 0.0
C2174 C 0.2686 0.88062 0.13998 0.0
C2175 C 0.28306 0.8948 0.13039 0.0
H2176 H 0.65822 0.82336 0.61858 0.0
H2177 H 0.57 0.95424 0.61674 0.0
H2178 H 0.58019 0.96789 0.63454 0.0
H2179 H 0.61035 0.94042 0.65081 0.0
H2180 H 0.69199 0.80547 0.65294 0.0
H2181 H 0.68851 0.79586 0.6349 0.0
C2182 C 0.64149 0.85504 0.62208 0.0
C2183 C 0.61454 0.88841 0.61627 0.0
C2184 C 0.64635 0.86195 0.63239 0.0
C2185 C 0.59264 0.92901 0.62091 0.0
C2186 C 0.59786 0.9365 0.63114 0.0
C2187 C 0.62773 0.9091 0.64731 0.0
C2188 C 0.6525 0.87447 0.65321 0.0
C2189 C 0.62428 0.903 0.63696 0.0
C2190 C 0.67439 0.83379 0.64859 0.0
C2191 C 0.67177 0.82784 0.63826 0.0
H2192 H 0.81002 0.84211 0.36708 0.0
H2193 H 0.94236 0.92843 0.36475 0.0
H2194 H 0.94459 0.93772 0.38283 0.0
H2195 H 0.91136 0.91791 0.39929 0.0
H2196 H 0.77718 0.8346 0.40164 0.0
H2197 H 0.77326 0.82764 0.38351 0.0
C2198 C 0.83847 0.86429 0.37045 0.0
C2199 C 0.87544 0.88528 0.3645 0.0
C2200 C 0.83948 0.86968 0.38087 0.0
C2201 C 0.91332 0.91194 0.36914 0.0
C2202 C 0.91465 0.91733 0.37948 0.0
C2203 C 0.88035 0.89965 0.39587 0.0
C2204 C 0.84403 0.87779 0.40185 0.0
C2205 C 0.87814 0.89604 0.38543 0.0
C2206 C 0.80553 0.85201 0.39722 0.0
C2207 C 0.8032 0.84805 0.38684 0.0
H2208 H 0.79977 0.10367 0.1148 0.0
H2209 H 0.93609 0.02387 0.11509 0.0
H2210 H 0.92986 0.01345 0.13319 0.0
H2211 H 0.88814 0.03174 0.14893 0.0
H2212 H 0.74762 0.10457 0.14842 0.0
H2213 H 0.75328 0.1137 0.1304 0.0
C2214 C 0.82777 0.08361 0.11886 0.0
C2215 C 0.8683 0.06456 0.11372 0.0
C2216 C 0.82363 0.07741 0.1292 0.0
C2217 C 0.90432 0.03832 0.11894 0.0
C2218 C 0.90093 0.03272 0.12927 0.0
C2219 C 0.85857 0.04945 0.1449 0.0
C2220 C 0.8188 0.06989 0.15013 0.0
C2221 C 0.86111 0.05279 0.13448 0.0
C2222 C 0.78022 0.09138 0.14472 0.0
C2223 C 0.78298 0.09584 0.13436 0.0
H2224 H 0.71382 0.10621 0.89895 0.0
H2225 H 0.6006 -0.00488 0.89861 0.0
H2226 H 0.60134 -0.00493 0.88056 0.0
H2227 H 0.62823 0.03171 0.86488 0.0
H2228 H 0.73097 0.15249 0.86542 0.0
H2229 H 0.7402 0.14328 0.88329 0.0
C2230 C 0.68945 0.08161 0.89496 0.0
C2231 C 0.65805 0.04991 0.90027 0.0
C2232 C 0.68799 0.08369 0.88454 0.0
C2233 C 0.6267 0.01857 0.8949 0.0
C2234 C 0.62643 0.01911 0.8845 0.0
C2235 C 0.65297 0.05595 0.86887 0.0
C2236 C 0.67972 0.09199 0.86365 0.0
C2237 C 0.65619 0.05222 0.87926 0.0
C2238 C 0.71132 0.12307 0.86902 0.0
C2239 C 0.71606 0.11837 0.87934 0.0
H2240 H 0.86006 0.67245 0.87244 0.0
H2241 H 0.73873 0.5767 0.86541 0.0
H2242 H 0.74719 0.53663 0.88164 0.0
H2243 H 0.79062 0.52737 0.89777 0.0
H2244 H 0.9108 0.62485 0.90469 0.0
H2245 H 0.90133 0.66517 0.88859 0.0
C2246 C 0.83515 0.64305 0.87445 0.0
C2247 C 0.79886 0.62767 0.86765 0.0
C2248 C 0.84032 0.62005 0.88379 0.0
C2249 C 0.76696 0.58948 0.87047 0.0
C2250 C 0.77193 0.56634 0.87975 0.0
C2251 C 0.81488 0.55726 0.89573 0.0
C2252 C 0.85163 0.57272 0.90244 0.0
C2253 C 0.80883 0.58096 0.88644 0.0
C2254 C 0.88227 0.61202 0.8997 0.0
C2255 C 0.87686 0.63523 0.89048 0.0
H2256 H 0.64799 0.65472 0.14671 0.0
H2257 H 0.72423 0.52611 0.15718 0.0
H2258 H 0.70896 0.48536 0.14125 0.0
H2259 H 0.6718 0.4854 0.1244 0.0
H2260 H 0.5977 0.61533 0.11396 0.0
H2261 H 0.61397 0.65604 0.1298 0.0
C2262 C 0.66163 0.61789 0.14551 0.0
C2263 C 0.68713 0.59359 0.15319 0.0
C2264 C 0.65265 0.59462 0.13633 0.0
C2265 C 0.70461 0.54587 0.15143 0.0
C2266 C 0.69565 0.52238 0.14232 0.0
C2267 C 0.659 0.52251 0.12562 0.0
C2268 C 0.63317 0.54706 0.11801 0.0
C2269 C 0.66922 0.54618 0.13474 0.0
C2270 C 0.61755 0.59547 0.11967 0.0
C2271 C 0.6269 0.61887 0.12874 0.0
H2272 H 0.63906 0.32654 0.37015 0.0
H2273 H 0.72443 0.45059 0.36021 0.0
H2274 H 0.70699 0.49344 0.37577 0.0
H2275 H 0.66602 0.49649 0.39217 0.0
H2276 H 0.58422 0.37063 0.40237 0.0
H2277 H 0.60148 0.328 0.38677 0.0
C2278 C 0.65409 0.36285 0.3714 0.0
C2279 C 0.68279 0.38531 0.36397 0.0
C2280 C 0.64423 0.38722 0.38041 0.0
C2281 C 0.70221 0.43229 0.36577 0.0
C2282 C 0.69209 0.45699 0.37467 0.0
C2283 C 0.65177 0.45986 0.39094 0.0
C2284 C 0.6235 0.43698 0.39838 0.0
C2285 C 0.66276 0.43502 0.38202 0.0
C2286 C 0.60602 0.38913 0.39675 0.0
C2287 C 0.61589 0.36467 0.38784 0.0
H2288 H 0.82941 0.35652 0.64706 0.0
H2289 H 0.71214 0.46134 0.65016 0.0
H2290 H 0.73489 0.49914 0.63431 0.0
H2291 H 0.78897 0.50347 0.61956 0.0
H2292 H 0.90091 0.39397 0.61558 0.0
H2293 H 0.87976 0.35718 0.63169 0.0
C2294 C 0.8087 0.38744 0.64422 0.0
C2295 C 0.76917 0.40606 0.64982 0.0
C2296 C 0.82131 0.40844 0.63495 0.0
C2297 C 0.74248 0.44596 0.64599 0.0
C2298 C 0.75565 0.46786 0.63694 0.0
C2299 C 0.80882 0.47171 0.62227 0.0
C2300 C 0.84694 0.45187 0.61648 0.0
C2301 C 0.79519 0.44966 0.63138 0.0
C2302 C 0.87162 0.41002 0.61994 0.0
C2303 C 0.8595 0.38897 0.62915 0.0
H2304 H 0.07755 0.38839 0.1167 0.0
H2305 H 0.2351 0.37927 0.11485 0.0
H2306 H 0.24103 0.37804 0.13306 0.0
H2307 H 0.20124 0.38088 0.14944 0.0
H2308 H 0.04303 0.38345 0.15123 0.0
H2309 H 0.03764 0.38745 0.13313 0.0
C2310 C 0.11312 0.38663 0.12032 0.0
C2311 C 0.15586 0.38463 0.11451 0.0
C2312 C 0.11614 0.38479 0.13077 0.0
C2313 C 0.20174 0.38106 0.11922 0.0
C2314 C 0.20513 0.38037 0.12962 0.0
C2315 C 0.16551 0.38071 0.14594 0.0
C2316 C 0.12264 0.38062 0.15179 0.0
C2317 C 0.16252 0.38199 0.13548 0.0
C2318 C 0.07678 0.3832 0.14697 0.0
C2319 C 0.07355 0.38543 0.13659 0.0
H2320 H 0.36804 0.44826 0.8672 0.0
H2321 H 0.28455 0.31391 0.86573 0.0
H2322 H 0.28434 0.30845 0.88382 0.0
H2323 H 0.31296 0.33827 0.9 0.0
H2324 H 0.40374 0.46782 0.90141 0.0
H2325 H 0.39566 0.47891 0.88348 0.0
C2326 C 0.3494 0.41804 0.87085 0.0
C2327 C 0.32524 0.38231 0.8651 0.0
C2328 C 0.35085 0.41419 0.88128 0.0
C2329 C 0.3017 0.34308 0.86993 0.0
C2330 C 0.3022 0.33948 0.88031 0.0
C2331 C 0.33067 0.3692 0.8964 0.0
C2332 C 0.35807 0.40267 0.90211 0.0
C2333 C 0.32725 0.37443 0.88603 0.0
C2334 C 0.38097 0.44241 0.89732 0.0
C2335 C 0.37697 0.4484 0.887 0.0
H2336 H 0.36888 0.51522 0.6478 0.0
H2337 H 0.33359 0.66895 0.64969 0.0
H2338 H 0.32801 0.67388 0.63157 0.0
H2339 H 0.33369 0.63481 0.61522 0.0
H2340 H 0.36705 0.48069 0.61316 0.0
H2341 H 0.37394 0.47575 0.6313 0.0
C2342 C 0.35992 0.54972 0.64421 0.0
C2343 C 0.35051 0.59137 0.65005 0.0
C2344 C 0.35711 0.55234 0.63378 0.0
C2345 C 0.33932 0.63599 0.64537 0.0
C2346 C 0.33667 0.63897 0.635 0.0
C2347 C 0.34254 0.60013 0.61874 0.0
C2348 C 0.35113 0.55851 0.61284 0.0
C2349 C 0.34539 0.59738 0.62915 0.0
C2350 C 0.36213 0.51372 0.6175 0.0
C2351 C 0.36544 0.51073 0.62788 0.0
H2352 H 0.14126 0.54846 0.36665 0.0
H2353 H 0.15277 0.70557 0.36422 0.0
H2354 H 0.14479 0.71341 0.38232 0.0
H2355 H 0.13227 0.67566 0.39866 0.0
H2356 H 0.12803 0.51787 0.40118 0.0
H2357 H 0.13412 0.51035 0.38321 0.0
C2358 C 0.14225 0.58434 0.37012 0.0
C2359 C 0.14796 0.62636 0.36419 0.0
C2360 C 0.13798 0.58847 0.3805 0.0
C2361 C 0.14933 0.6727 0.3687 0.0
C2362 C 0.14434 0.67718 0.37902 0.0
C2363 C 0.13265 0.63949 0.39532 0.0
C2364 C 0.12748 0.59752 0.40136 0.0
C2365 C 0.13834 0.6353 0.38497 0.0
C2366 C 0.12901 0.55108 0.39683 0.0
C2367 C 0.1335 0.54663 0.3865 0.0
loop_
_geom_bond_atom_site_label_1
_geom_bond_atom_site_label_2
_geom_bond_distance
_geom_bond_site_symmetry_2
_ccdc_geom_bond_type
Co0 O3 1.970 . S
Co0 N17 1.989 . S
Co0 O25 1.967 . S
Co0 O32 1.920 . S
Co1 O4 1.966 . S
Co1 N10 2.022 . S
Co1 N18 1.993 . S
Co1 O26 1.941 . S
C2 O3 1.258 . S
C2 O4 1.263 . S
O3 Co0 1.970 . S
O3 C2 1.258 . S
O4 Co1 1.966 . S
O4 C2 1.263 . S
C5 O6 1.235 . S
C5 O32 1.289 . S
O6 C5 1.235 . S
C7 C9 1.400 . S
C7 N10 1.351 . S
C7 C12 1.501 . S
C8 C9 1.387 . S
C8 N11 1.341 . S
C9 C7 1.400 . S
C9 C8 1.387 . S
N10 Co1 2.022 . S
N10 C7 1.351 . S
N10 N11 1.365 . S
N11 C8 1.341 . S
N11 N10 1.365 . S
N11 H31 0.862 . S
C12 C7 1.501 . S
C12 H13 0.961 . S
C12 H14 0.961 . S
C12 H15 0.960 . S
H13 C12 0.961 . S
H14 C12 0.961 . S
H15 C12 0.960 . S
C16 N17 1.342 . S
C16 C20 1.401 . S
C16 C21 1.499 . S
N17 Co0 1.989 . S
N17 C16 1.342 . S
N17 N18 1.388 . S
N18 Co1 1.993 . S
N18 N17 1.388 . S
N18 C19 1.346 . S
C19 N18 1.346 . S
C19 C20 1.396 . S
C19 C29 1.510 . S
C20 C16 1.401 . S
C20 C19 1.396 . S
C21 C16 1.499 . S
C21 H22 0.959 . S
C21 H23 0.960 . S
C21 H24 0.961 . S
H22 C21 0.959 . S
H23 C21 0.960 . S
H24 C21 0.961 . S
O25 Co0 1.967 . S
O25 C33 1.258 . S
O26 Co1 1.941 . S
O26 C33 1.266 . S
H27 C29 0.959 . S
H28 C29 0.961 . S
C29 C19 1.510 . S
C29 H27 0.959 . S
C29 H28 0.961 . S
C29 H30 0.960 . S
H30 C29 0.960 . S
H31 N11 0.862 . S
O32 Co0 1.920 . S
O32 C5 1.289 . S
C33 O25 1.258 . S
C33 O26 1.266 . S
Co34 O37 1.989 . S
Co34 N51 1.989 . S
Co34 O59 1.967 . S
Co34 O66 1.920 . S
Co35 O38 1.966 1_455 S
Co35 N44 2.022 . S
Co35 N52 1.993 . S
Co35 O60 1.941 . S
C36 O37 1.246 1_655 S
C36 O38 1.263 . S
O37 Co34 1.989 . S
O37 C36 1.246 1_455 S
O38 Co35 1.966 1_655 S
O38 C36 1.263 . S
C39 O40 1.235 . S
C39 O66 1.289 . S
O40 C39 1.235 . S
C41 C43 1.400 . S
C41 N44 1.351 . S
C41 C46 1.501 1_445 S
C42 C43 1.387 . S
C42 N45 1.341 . S
C43 C41 1.400 . S
C43 C42 1.387 . S
N44 Co35 2.022 . S
N44 C41 1.351 . S
N44 N45 1.365 . S
N45 C42 1.341 . S
N45 N44 1.365 . S
N45 H65 0.862 . S
C46 C41 1.501 1_665 S
C46 H47 0.961 . S
C46 H48 0.961 1_655 S
C46 H49 0.960 . S
H47 C46 0.961 . S
H48 C46 0.961 1_455 S
H49 C46 0.960 . S
C50 N51 1.342 . S
C50 C54 1.401 . S
C50 C55 1.499 . S
N51 Co34 1.989 . S
N51 C50 1.342 . S
N51 N52 1.388 . S
N52 Co35 1.993 . S
N52 N51 1.388 . S
N52 C53 1.346 . S
C53 N52 1.346 . S
C53 C54 1.396 . S
C53 C63 1.510 . S
C54 C50 1.401 . S
C54 C53 1.396 . S
C55 C50 1.499 . S
C55 H56 0.959 . S
C55 H57 0.960 . S
C55 H58 0.961 . S
H56 C55 0.959 . S
H57 C55 0.960 . S
H58 C55 0.961 . S
O59 Co34 1.967 . S
O59 C67 1.258 . S
O60 Co35 1.941 . S
O60 C67 1.266 . S
H61 C63 0.959 . S
H62 C63 0.961 1_565 S
C63 C53 1.510 . S
C63 H61 0.959 . S
C63 H62 0.961 1_545 S
C63 H64 0.960 . S
H64 C63 0.960 . S
H65 N45 0.862 . S
O66 Co34 1.920 . S
O66 C39 1.289 . S
C67 O59 1.258 . S
C67 O60 1.266 . S
Co68 O71 1.970 . S
Co68 N85 1.989 . S
Co68 O93 1.967 . S
Co68 O100 1.920 . S
Co69 O72 1.966 . S
Co69 N78 2.022 . S
Co69 N86 1.993 . S
Co69 O94 1.941 . S
C70 O71 1.258 . S
C70 O72 1.263 . S
O71 Co68 1.970 . S
O71 C70 1.258 . S
O72 Co69 1.966 . S
O72 C70 1.263 . S
C73 O74 1.235 . S
C73 O100 1.289 . S
O74 C73 1.235 . S
C75 C77 1.400 . S
C75 N78 1.351 . S
C75 C80 1.501 . S
C76 C77 1.387 . S
C76 N79 1.341 . S
C77 C75 1.400 . S
C77 C76 1.387 . S
N78 Co69 2.022 . S
N78 C75 1.351 . S
N78 N79 1.365 . S
N79 C76 1.341 . S
N79 N78 1.365 . S
N79 H99 0.862 . S
C80 C75 1.501 . S
C80 H81 0.961 . S
C80 H82 0.961 . S
C80 H83 0.960 . S
H81 C80 0.961 . S
H82 C80 0.961 . S
H83 C80 0.960 . S
C84 N85 1.342 . S
C84 C88 1.401 . S
C84 C89 1.499 . S
N85 Co68 1.989 . S
N85 C84 1.342 . S
N85 N86 1.388 . S
N86 Co69 1.993 . S
N86 N85 1.388 . S
N86 C87 1.346 . S
C87 N86 1.346 . S
C87 C88 1.396 . S
C87 C97 1.510 . S
C88 C84 1.401 . S
C88 C87 1.396 . S
C89 C84 1.499 . S
C89 H90 0.959 . S
C89 H91 0.960 . S
C89 H92 0.961 . S
H90 C89 0.959 . S
H91 C89 0.960 . S
H92 C89 0.961 . S
O93 Co68 1.967 . S
O93 C101 1.258 . S
O94 Co69 1.941 . S
O94 C101 1.266 . S
H95 C97 0.959 . S
H96 C97 0.961 . S
C97 C87 1.510 . S
C97 H95 0.959 . S
C97 H96 0.961 . S
C97 H98 0.960 . S
H98 C97 0.960 . S
H99 N79 0.862 . S
O100 Co68 1.920 . S
O100 C73 1.289 . S
C101 O93 1.258 . S
C101 O94 1.266 . S
Co102 O105 1.970 . S
Co102 N119 1.989 . S
Co102 O127 1.967 . S
Co102 O134 1.920 . S
Co103 O106 1.966 . S
Co103 N112 2.022 . S
Co103 N120 1.993 . S
Co103 O128 1.941 . S
C104 O105 1.258 . S
C104 O106 1.263 . S
O105 Co102 1.970 . S
O105 C104 1.258 . S
O106 Co103 1.966 . S
O106 C104 1.263 . S
C107 O108 1.235 . S
C107 O134 1.289 . S
O108 C107 1.235 . S
C109 C111 1.400 . S
C109 N112 1.351 . S
C109 C114 1.501 1_565 S
C110 C111 1.387 . S
C110 N113 1.341 . S
C111 C109 1.400 . S
C111 C110 1.387 . S
N112 Co103 2.022 . S
N112 C109 1.351 . S
N112 N113 1.365 . S
N113 C110 1.341 . S
N113 N112 1.365 . S
N113 H133 0.862 . S
C114 C109 1.501 1_545 S
C114 H115 0.961 . S
C114 H116 0.961 . S
C114 H117 0.960 . S
H115 C114 0.961 . S
H116 C114 0.961 . S
H117 C114 0.960 . S
C118 N119 1.342 . S
C118 C122 1.401 . S
C118 C123 1.499 . S
N119 Co102 1.989 . S
N119 C118 1.342 . S
N119 N120 1.388 . S
N120 Co103 1.993 . S
N120 N119 1.388 . S
N120 C121 1.346 . S
C121 N120 1.346 . S
C121 C122 1.396 . S
C121 C131 1.510 . S
C122 C118 1.401 . S
C122 C121 1.396 . S
C123 C118 1.499 . S
C123 H124 0.959 . S
C123 H125 0.960 . S
C123 H126 0.961 . S
H124 C123 0.959 . S
H125 C123 0.960 . S
H126 C123 0.961 . S
O127 Co102 1.967 . S
O127 C135 1.258 . S
O128 Co103 1.941 . S
O128 C135 1.266 . S
H129 C131 0.959 . S
H130 C131 0.961 1_545 S
C131 C121 1.510 . S
C131 H129 0.959 . S
C131 H130 0.961 1_565 S
C131 H132 0.960 . S
H132 C131 0.960 . S
H133 N113 0.862 . S
O134 Co102 1.920 . S
O134 C107 1.289 . S
C135 O127 1.258 . S
C135 O128 1.266 . S
Co136 O139 1.970 . S
Co136 N153 1.989 . S
Co136 O161 1.967 . S
Co136 O168 1.920 . S
Co137 O140 1.966 . S
Co137 N146 2.022 . S
Co137 N154 1.993 . S
Co137 O162 1.941 . S
C138 O139 1.258 . S
C138 O140 1.263 . S
O139 Co136 1.970 . S
O139 C138 1.258 . S
O140 Co137 1.966 . S
O140 C138 1.263 . S
C141 O142 1.235 . S
C141 O168 1.289 . S
O142 C141 1.235 . S
C143 C145 1.400 . S
C143 N146 1.351 . S
C143 C148 1.501 . S
C144 C145 1.387 . S
C144 N147 1.341 . S
C145 C143 1.400 . S
C145 C144 1.387 . S
N146 Co137 2.022 . S
N146 C143 1.351 . S
N146 N147 1.365 . S
N147 C144 1.341 . S
N147 N146 1.365 . S
N147 H167 0.862 . S
C148 C143 1.501 . S
C148 H149 0.961 . S
C148 H150 0.961 . S
C148 H151 0.960 . S
H149 C148 0.961 . S
H150 C148 0.961 . S
H151 C148 0.960 . S
C152 N153 1.342 . S
C152 C156 1.401 . S
C152 C157 1.499 . S
N153 Co136 1.989 . S
N153 C152 1.342 . S
N153 N154 1.388 . S
N154 Co137 1.993 . S
N154 N153 1.388 . S
N154 C155 1.346 . S
C155 N154 1.346 . S
C155 C156 1.396 . S
C155 C165 1.510 . S
C156 C152 1.401 . S
C156 C155 1.396 . S
C157 C152 1.499 . S
C157 H158 0.959 . S
C157 H159 0.960 . S
C157 H160 0.961 . S
H158 C157 0.959 . S
H159 C157 0.960 . S
H160 C157 0.961 . S
O161 Co136 1.967 . S
O161 C169 1.258 . S
O162 Co137 1.941 . S
O162 C169 1.266 . S
H163 C165 0.959 . S
H164 C165 0.961 . S
C165 C155 1.510 . S
C165 H163 0.959 . S
C165 H164 0.961 . S
C165 H166 0.960 . S
H166 C165 0.960 . S
H167 N147 0.862 . S
O168 Co136 1.920 . S
O168 C141 1.289 . S
C169 O161 1.258 . S
C169 O162 1.266 . S
Co170 O173 1.970 . S
Co170 N187 1.989 . S
Co170 O195 1.967 . S
Co170 O202 1.920 . S
Co171 O174 1.966 . S
Co171 N180 2.022 . S
Co171 N188 1.993 . S
Co171 O196 1.941 . S
C172 O173 1.258 . S
C172 O174 1.263 . S
O173 Co170 1.970 . S
O173 C172 1.258 . S
O174 Co171 1.966 . S
O174 C172 1.263 . S
C175 O176 1.235 . S
C175 O202 1.289 . S
O176 C175 1.235 . S
C177 C179 1.400 . S
C177 N180 1.351 . S
C177 C182 1.501 1_545 S
C178 C179 1.387 . S
C178 N181 1.341 . S
C179 C177 1.400 . S
C179 C178 1.387 . S
N180 Co171 2.022 . S
N180 C177 1.351 . S
N180 N181 1.365 . S
N181 C178 1.341 . S
N181 N180 1.365 . S
N181 H201 0.862 . S
C182 C177 1.501 1_565 S
C182 H183 0.961 . S
C182 H184 0.961 . S
C182 H185 0.960 . S
H183 C182 0.961 . S
H184 C182 0.961 . S
H185 C182 0.960 . S
C186 N187 1.342 . S
C186 C190 1.401 . S
C186 C191 1.499 . S
N187 Co170 1.989 . S
N187 C186 1.342 . S
N187 N188 1.388 . S
N188 Co171 1.993 . S
N188 N187 1.388 . S
N188 C189 1.346 . S
C189 N188 1.346 . S
C189 C190 1.396 . S
C189 C199 1.510 . S
C190 C186 1.401 . S
C190 C189 1.396 . S
C191 C186 1.499 . S
C191 H192 0.959 . S
C191 H193 0.960 . S
C191 H194 0.961 . S
H192 C191 0.959 . S
H193 C191 0.960 . S
H194 C191 0.961 . S
O195 Co170 1.967 . S
O195 C203 1.258 . S
O196 Co171 1.941 . S
O196 C203 1.266 . S
H197 C199 0.959 . S
H198 C199 0.961 1_565 S
C199 C189 1.510 . S
C199 H197 0.959 . S
C199 H198 0.961 1_545 S
C199 H200 0.960 . S
H200 C199 0.960 . S
H201 N181 0.862 . S
O202 Co170 1.920 . S
O202 C175 1.289 . S
C203 O195 1.258 . S
C203 O196 1.266 . S
Co204 O207 1.970 . S
Co204 N221 1.989 . S
Co204 O229 1.967 . S
Co204 O236 1.920 . S
Co205 O208 1.966 . S
Co205 N214 2.022 . S
Co205 N222 1.993 . S
Co205 O230 1.941 . S
C206 O207 1.258 . S
C206 O208 1.263 . S
O207 Co204 1.970 . S
O207 C206 1.258 . S
O208 Co205 1.966 . S
O208 C206 1.263 . S
C209 O210 1.235 . S
C209 O236 1.289 . S
O210 C209 1.235 . S
C211 C213 1.400 . S
C211 N214 1.351 . S
C211 C216 1.501 . S
C212 C213 1.387 . S
C212 N215 1.341 . S
C213 C211 1.400 . S
C213 C212 1.387 . S
N214 Co205 2.022 . S
N214 C211 1.351 . S
N214 N215 1.365 . S
N215 C212 1.341 . S
N215 N214 1.365 . S
N215 H235 0.862 . S
C216 C211 1.501 . S
C216 H217 0.961 . S
C216 H218 0.961 . S
C216 H219 0.960 . S
H217 C216 0.961 . S
H218 C216 0.961 . S
H219 C216 0.960 . S
C220 N221 1.342 . S
C220 C224 1.401 . S
C220 C225 1.499 . S
N221 Co204 1.989 . S
N221 C220 1.342 . S
N221 N222 1.388 . S
N222 Co205 1.993 . S
N222 N221 1.388 . S
N222 C223 1.346 . S
C223 N222 1.346 . S
C223 C224 1.396 . S
C223 C233 1.510 . S
C224 C220 1.401 . S
C224 C223 1.396 . S
C225 C220 1.499 . S
C225 H226 0.959 . S
C225 H227 0.960 . S
C225 H228 0.961 . S
H226 C225 0.959 . S
H227 C225 0.960 . S
H228 C225 0.961 . S
O229 Co204 1.967 . S
O229 C237 1.258 . S
O230 Co205 1.941 . S
O230 C237 1.266 . S
H231 C233 0.959 . S
H232 C233 0.961 . S
C233 C223 1.510 . S
C233 H231 0.959 . S
C233 H232 0.961 . S
C233 H234 0.960 . S
H234 C233 0.960 . S
H235 N215 0.862 . S
O236 Co204 1.920 . S
O236 C209 1.289 . S
C237 O229 1.258 . S
C237 O230 1.266 . S
Co238 O241 1.989 . S
Co238 N255 1.989 . S
Co238 O263 1.967 . S
Co238 O270 1.920 . S
Co239 O242 1.966 1_455 S
Co239 N248 2.022 . S
Co239 N256 1.993 . S
Co239 O264 1.941 . S
C240 O241 1.246 1_655 S
C240 O242 1.263 . S
O241 Co238 1.989 . S
O241 C240 1.246 1_455 S
O242 Co239 1.966 1_655 S
O242 C240 1.263 . S
C243 O244 1.235 . S
C243 O270 1.289 . S
O244 C243 1.235 . S
C245 C247 1.400 . S
C245 N248 1.351 . S
C245 C250 1.501 1_465 S
C246 C247 1.387 . S
C246 N249 1.341 . S
C247 C245 1.400 . S
C247 C246 1.387 . S
N248 Co239 2.022 . S
N248 C245 1.351 . S
N248 N249 1.365 . S
N249 C246 1.341 . S
N249 N248 1.365 . S
N249 H269 0.862 . S
C250 C245 1.501 1_645 S
C250 H251 0.961 . S
C250 H252 0.961 1_655 S
C250 H253 0.960 . S
H251 C250 0.961 . S
H252 C250 0.961 1_455 S
H253 C250 0.960 . S
C254 N255 1.342 . S
C254 C258 1.401 . S
C254 C259 1.499 . S
N255 Co238 1.989 . S
N255 C254 1.342 . S
N255 N256 1.388 . S
N256 Co239 1.993 . S
N256 N255 1.388 . S
N256 C257 1.346 . S
C257 N256 1.346 . S
C257 C258 1.396 . S
C257 C267 1.510 . S
C258 C254 1.401 . S
C258 C257 1.396 . S
C259 C254 1.499 . S
C259 H260 0.959 . S
C259 H261 0.960 . S
C259 H262 0.961 . S
H260 C259 0.959 . S
H261 C259 0.960 . S
H262 C259 0.961 . S
O263 Co238 1.967 . S
O263 C271 1.258 . S
O264 Co239 1.941 . S
O264 C271 1.266 . S
H265 C267 0.959 . S
H266 C267 0.961 1_545 S
C267 C257 1.510 . S
C267 H265 0.959 . S
C267 H266 0.961 1_565 S
C267 H268 0.960 . S
H268 C267 0.960 . S
H269 N249 0.862 . S
O270 Co238 1.920 . S
O270 C243 1.289 . S
C271 O263 1.258 . S
C271 O264 1.266 . S
Co272 O275 1.970 . S
Co272 N289 1.989 . S
Co272 O297 1.967 . S
Co272 O304 1.920 . S
Co273 O276 1.966 . S
Co273 N282 2.022 . S
Co273 N290 1.993 . S
Co273 O298 1.941 . S
C274 O275 1.258 . S
C274 O276 1.263 . S
O275 Co272 1.970 . S
O275 C274 1.258 . S
O276 Co273 1.966 . S
O276 C274 1.263 . S
C277 O278 1.235 . S
C277 O304 1.289 . S
O278 C277 1.235 . S
C279 C281 1.400 . S
C279 N282 1.351 . S
C279 C284 1.501 . S
C280 C281 1.387 . S
C280 N283 1.341 . S
C281 C279 1.400 . S
C281 C280 1.387 . S
N282 Co273 2.022 . S
N282 C279 1.351 . S
N282 N283 1.365 . S
N283 C280 1.341 . S
N283 N282 1.365 . S
N283 H303 0.862 . S
C284 C279 1.501 . S
C284 H285 0.961 . S
C284 H286 0.961 . S
C284 H287 0.960 . S
H285 C284 0.961 . S
H286 C284 0.961 . S
H287 C284 0.960 . S
C288 N289 1.342 . S
C288 C292 1.401 . S
C288 C293 1.499 . S
N289 Co272 1.989 . S
N289 C288 1.342 . S
N289 N290 1.388 . S
N290 Co273 1.993 . S
N290 N289 1.388 . S
N290 C291 1.346 . S
C291 N290 1.346 . S
C291 C292 1.396 . S
C291 C301 1.510 . S
C292 C288 1.401 . S
C292 C291 1.396 . S
C293 C288 1.499 . S
C293 H294 0.959 . S
C293 H295 0.960 . S
C293 H296 0.961 . S
H294 C293 0.959 . S
H295 C293 0.960 . S
H296 C293 0.961 . S
O297 Co272 1.967 . S
O297 C305 1.258 . S
O298 Co273 1.941 . S
O298 C305 1.266 . S
H299 C301 0.959 . S
H300 C301 0.961 . S
C301 C291 1.510 . S
C301 H299 0.959 . S
C301 H300 0.961 . S
C301 H302 0.960 . S
H302 C301 0.960 . S
H303 N283 0.862 . S
O304 Co272 1.920 . S
O304 C277 1.289 . S
C305 O297 1.258 . S
C305 O298 1.266 . S
Co306 O309 1.970 1_655 S
Co306 N323 1.989 . S
Co306 O331 1.967 . S
Co306 O338 1.920 . S
Co307 O310 1.966 . S
Co307 N316 2.022 . S
Co307 N324 1.993 . S
Co307 O332 1.941 . S
C308 O309 1.258 . S
C308 O310 1.263 1_455 S
O309 Co306 1.970 1_455 S
O309 C308 1.258 . S
O310 Co307 1.966 . S
O310 C308 1.263 1_655 S
C311 O312 1.235 1_565 S
C311 O338 1.289 . S
O312 C311 1.235 1_545 S
C313 C315 1.400 . S
C313 N316 1.351 . S
C313 C318 1.501 . S
C314 C315 1.387 . S
C314 N317 1.341 . S
C315 C313 1.400 . S
C315 C314 1.387 . S
N316 Co307 2.022 . S
N316 C313 1.351 . S
N316 N317 1.365 . S
N317 C314 1.341 . S
N317 N316 1.365 . S
N317 H337 0.862 . S
C318 C313 1.501 . S
C318 H319 0.961 . S
C318 H320 0.961 1_565 S
C318 H321 0.960 . S
H319 C318 0.961 . S
H320 C318 0.961 1_545 S
H321 C318 0.960 . S
C322 N323 1.342 . S
C322 C326 1.401 . S
C322 C327 1.499 . S
N323 Co306 1.989 . S
N323 C322 1.342 . S
N323 N324 1.388 . S
N324 Co307 1.993 . S
N324 N323 1.388 . S
N324 C325 1.346 . S
C325 N324 1.346 . S
C325 C326 1.396 . S
C325 C335 1.510 . S
C326 C322 1.401 . S
C326 C325 1.396 . S
C327 C322 1.499 . S
C327 H328 0.959 . S
C327 H329 0.960 1_565 S
C327 H330 0.961 . S
H328 C327 0.959 . S
H329 C327 0.960 1_545 S
H330 C327 0.961 . S
O331 Co306 1.967 . S
O331 C339 1.258 . S
O332 Co307 1.941 . S
O332 C339 1.266 . S
H333 C335 0.959 . S
H334 C335 0.961 . S
C335 C325 1.510 . S
C335 H333 0.959 . S
C335 H334 0.961 . S
C335 H336 0.960 . S
H336 C335 0.960 . S
H337 N317 0.862 . S
O338 Co306 1.920 . S
O338 C311 1.289 . S
C339 O331 1.258 . S
C339 O332 1.266 . S
Co340 O343 1.970 . S
Co340 N357 1.989 . S
Co340 O365 1.967 . S
Co340 O372 1.920 . S
Co341 O344 1.966 . S
Co341 N350 2.022 . S
Co341 N358 1.993 . S
Co341 O366 1.941 . S
C342 O343 1.258 . S
C342 O344 1.263 . S
O343 Co340 1.970 . S
O343 C342 1.258 . S
O344 Co341 1.966 . S
O344 C342 1.263 . S
C345 O346 1.235 . S
C345 O372 1.289 . S
O346 C345 1.235 . S
C347 C349 1.400 . S
C347 N350 1.351 . S
C347 C352 1.501 . S
C348 C349 1.387 . S
C348 N351 1.341 . S
C349 C347 1.400 . S
C349 C348 1.387 . S
N350 Co341 2.022 . S
N350 C347 1.351 . S
N350 N351 1.365 . S
N351 C348 1.341 . S
N351 N350 1.365 . S
N351 H371 0.862 . S
C352 C347 1.501 . S
C352 H353 0.961 . S
C352 H354 0.961 . S
C352 H355 0.960 . S
H353 C352 0.961 . S
H354 C352 0.961 . S
H355 C352 0.960 . S
C356 N357 1.342 . S
C356 C360 1.401 . S
C356 C361 1.499 . S
N357 Co340 1.989 . S
N357 C356 1.342 . S
N357 N358 1.388 . S
N358 Co341 1.993 . S
N358 N357 1.388 . S
N358 C359 1.346 . S
C359 N358 1.346 . S
C359 C360 1.396 . S
C359 C369 1.510 . S
C360 C356 1.401 . S
C360 C359 1.396 . S
C361 C356 1.499 . S
C361 H362 0.959 . S
C361 H363 0.960 . S
C361 H364 0.961 . S
H362 C361 0.959 . S
H363 C361 0.960 . S
H364 C361 0.961 . S
O365 Co340 1.967 . S
O365 C373 1.258 . S
O366 Co341 1.941 . S
O366 C373 1.266 . S
H367 C369 0.959 . S
H368 C369 0.961 . S
C369 C359 1.510 . S
C369 H367 0.959 . S
C369 H368 0.961 . S
C369 H370 0.960 . S
H370 C369 0.960 . S
H371 N351 0.862 . S
O372 Co340 1.920 . S
O372 C345 1.289 . S
C373 O365 1.258 . S
C373 O366 1.266 . S
Co374 O377 1.970 . S
Co374 N391 1.989 . S
Co374 O399 1.967 . S
Co374 O406 1.920 . S
Co375 O378 1.966 . S
Co375 N384 2.022 . S
Co375 N392 1.993 . S
Co375 O400 1.941 . S
C376 O377 1.258 . S
C376 O378 1.263 . S
O377 Co374 1.970 . S
O377 C376 1.258 . S
O378 Co375 1.966 . S
O378 C376 1.263 . S
C379 O380 1.235 1_545 S
C379 O406 1.289 . S
O380 C379 1.235 1_565 S
C381 C383 1.400 . S
C381 N384 1.351 . S
C381 C386 1.501 . S
C382 C383 1.387 . S
C382 N385 1.341 . S
C383 C381 1.400 . S
C383 C382 1.387 . S
N384 Co375 2.022 . S
N384 C381 1.351 . S
N384 N385 1.365 . S
N385 C382 1.341 . S
N385 N384 1.365 . S
N385 H405 0.862 . S
C386 C381 1.501 . S
C386 H387 0.961 . S
C386 H388 0.961 1_545 S
C386 H389 0.960 . S
H387 C386 0.961 . S
H388 C386 0.961 1_565 S
H389 C386 0.960 . S
C390 N391 1.342 . S
C390 C394 1.401 . S
C390 C395 1.499 . S
N391 Co374 1.989 . S
N391 C390 1.342 . S
N391 N392 1.388 . S
N392 Co375 1.993 . S
N392 N391 1.388 . S
N392 C393 1.346 . S
C393 N392 1.346 . S
C393 C394 1.396 . S
C393 C403 1.510 . S
C394 C390 1.401 . S
C394 C393 1.396 . S
C395 C390 1.499 . S
C395 H396 0.959 . S
C395 H397 0.960 1_545 S
C395 H398 0.961 . S
H396 C395 0.959 . S
H397 C395 0.960 1_565 S
H398 C395 0.961 . S
O399 Co374 1.967 . S
O399 C407 1.258 . S
O400 Co375 1.941 . S
O400 C407 1.266 . S
H401 C403 0.959 . S
H402 C403 0.961 . S
C403 C393 1.510 . S
C403 H401 0.959 . S
C403 H402 0.961 . S
C403 H404 0.960 . S
H404 C403 0.960 . S
H405 N385 0.862 . S
O406 Co374 1.920 . S
O406 C379 1.289 . S
C407 O399 1.258 . S
C407 O400 1.266 . S
Co408 O411 1.970 . S
Co408 N425 1.989 . S
Co408 O433 1.967 . S
Co408 O440 1.920 . S
Co409 O412 1.966 . S
Co409 N418 2.022 . S
Co409 N426 1.993 . S
Co409 O434 1.941 . S
C410 O411 1.258 . S
C410 O412 1.263 . S
O411 Co408 1.970 . S
O411 C410 1.258 . S
O412 Co409 1.966 . S
O412 C410 1.263 . S
C413 O414 1.235 . S
C413 O440 1.289 . S
O414 C413 1.235 . S
C415 C417 1.400 . S
C415 N418 1.351 . S
C415 C420 1.501 . S
C416 C417 1.387 . S
C416 N419 1.341 . S
C417 C415 1.400 . S
C417 C416 1.387 . S
N418 Co409 2.022 . S
N418 C415 1.351 . S
N418 N419 1.365 . S
N419 C416 1.341 . S
N419 N418 1.365 . S
N419 H439 0.862 . S
C420 C415 1.501 . S
C420 H421 0.961 . S
C420 H422 0.961 . S
C420 H423 0.960 . S
H421 C420 0.961 . S
H422 C420 0.961 . S
H423 C420 0.960 . S
C424 N425 1.342 . S
C424 C428 1.401 . S
C424 C429 1.499 . S
N425 Co408 1.989 . S
N425 C424 1.342 . S
N425 N426 1.388 . S
N426 Co409 1.993 . S
N426 N425 1.388 . S
N426 C427 1.346 . S
C427 N426 1.346 . S
C427 C428 1.396 . S
C427 C437 1.510 . S
C428 C424 1.401 . S
C428 C427 1.396 . S
C429 C424 1.499 . S
C429 H430 0.959 . S
C429 H431 0.960 . S
C429 H432 0.961 . S
H430 C429 0.959 . S
H431 C429 0.960 . S
H432 C429 0.961 . S
O433 Co408 1.967 . S
O433 C441 1.258 . S
O434 Co409 1.941 . S
O434 C441 1.266 . S
H435 C437 0.959 . S
H436 C437 0.961 . S
C437 C427 1.510 . S
C437 H435 0.959 . S
C437 H436 0.961 . S
C437 H438 0.960 . S
H438 C437 0.960 . S
H439 N419 0.862 . S
O440 Co408 1.920 . S
O440 C413 1.289 . S
C441 O433 1.258 . S
C441 O434 1.266 . S
Co442 O445 1.970 . S
Co442 N459 1.989 . S
Co442 O467 1.967 . S
Co442 O474 1.920 . S
Co443 O446 1.966 . S
Co443 N452 2.022 . S
Co443 N460 1.993 . S
Co443 O468 1.941 . S
C444 O445 1.258 . S
C444 O446 1.263 . S
O445 Co442 1.970 . S
O445 C444 1.258 . S
O446 Co443 1.966 . S
O446 C444 1.263 . S
C447 O448 1.235 1_565 S
C447 O474 1.289 . S
O448 C447 1.235 1_545 S
C449 C451 1.400 . S
C449 N452 1.351 . S
C449 C454 1.501 . S
C450 C451 1.387 . S
C450 N453 1.341 . S
C451 C449 1.400 . S
C451 C450 1.387 . S
N452 Co443 2.022 . S
N452 C449 1.351 . S
N452 N453 1.365 . S
N453 C450 1.341 . S
N453 N452 1.365 . S
N453 H473 0.862 . S
C454 C449 1.501 . S
C454 H455 0.961 . S
C454 H456 0.961 1_565 S
C454 H457 0.960 . S
H455 C454 0.961 . S
H456 C454 0.961 1_545 S
H457 C454 0.960 . S
C458 N459 1.342 . S
C458 C462 1.401 . S
C458 C463 1.499 . S
N459 Co442 1.989 . S
N459 C458 1.342 . S
N459 N460 1.388 . S
N460 Co443 1.993 . S
N460 N459 1.388 . S
N460 C461 1.346 . S
C461 N460 1.346 . S
C461 C462 1.396 . S
C461 C471 1.510 . S
C462 C458 1.401 . S
C462 C461 1.396 . S
C463 C458 1.499 . S
C463 H464 0.959 . S
C463 H465 0.960 1_565 S
C463 H466 0.961 . S
H464 C463 0.959 . S
H465 C463 0.960 1_545 S
H466 C463 0.961 . S
O467 Co442 1.967 . S
O467 C475 1.258 . S
O468 Co443 1.941 . S
O468 C475 1.266 . S
H469 C471 0.959 . S
H470 C471 0.961 . S
C471 C461 1.510 . S
C471 H469 0.959 . S
C471 H470 0.961 . S
C471 H472 0.960 . S
H472 C471 0.960 . S
H473 N453 0.862 . S
O474 Co442 1.920 . S
O474 C447 1.289 . S
C475 O467 1.258 . S
C475 O468 1.266 . S
Co476 O479 1.970 . S
Co476 N493 1.989 . S
Co476 O501 1.967 . S
Co476 O508 1.920 . S
Co477 O480 1.966 . S
Co477 N486 2.022 . S
Co477 N494 1.993 . S
Co477 O502 1.941 . S
C478 O479 1.258 . S
C478 O480 1.263 . S
O479 Co476 1.970 . S
O479 C478 1.258 . S
O480 Co477 1.966 . S
O480 C478 1.263 . S
C481 O482 1.235 . S
C481 O508 1.289 . S
O482 C481 1.235 . S
C483 C485 1.400 . S
C483 N486 1.351 . S
C483 C488 1.501 . S
C484 C485 1.387 . S
C484 N487 1.341 . S
C485 C483 1.400 . S
C485 C484 1.387 . S
N486 Co477 2.022 . S
N486 C483 1.351 . S
N486 N487 1.365 . S
N487 C484 1.341 . S
N487 N486 1.365 . S
N487 H507 0.862 . S
C488 C483 1.501 . S
C488 H489 0.961 . S
C488 H490 0.961 . S
C488 H491 0.960 . S
H489 C488 0.961 . S
H490 C488 0.961 . S
H491 C488 0.960 . S
C492 N493 1.342 . S
C492 C496 1.401 . S
C492 C497 1.499 . S
N493 Co476 1.989 . S
N493 C492 1.342 . S
N493 N494 1.388 . S
N494 Co477 1.993 . S
N494 N493 1.388 . S
N494 C495 1.346 . S
C495 N494 1.346 . S
C495 C496 1.396 . S
C495 C505 1.510 . S
C496 C492 1.401 . S
C496 C495 1.396 . S
C497 C492 1.499 . S
C497 H498 0.959 . S
C497 H499 0.960 . S
C497 H500 0.961 . S
H498 C497 0.959 . S
H499 C497 0.960 . S
H500 C497 0.961 . S
O501 Co476 1.967 . S
O501 C509 1.258 . S
O502 Co477 1.941 . S
O502 C509 1.266 . S
H503 C505 0.959 . S
H504 C505 0.961 . S
C505 C495 1.510 . S
C505 H503 0.959 . S
C505 H504 0.961 . S
C505 H506 0.960 . S
H506 C505 0.960 . S
H507 N487 0.862 . S
O508 Co476 1.920 . S
O508 C481 1.289 . S
C509 O501 1.258 . S
C509 O502 1.266 . S
Co510 O513 1.970 1_655 S
Co510 N527 1.989 . S
Co510 O535 1.967 . S
Co510 O542 1.920 . S
Co511 O514 1.966 . S
Co511 N520 2.022 . S
Co511 N528 1.993 . S
Co511 O536 1.941 . S
C512 O513 1.258 . S
C512 O514 1.263 1_455 S
O513 Co510 1.970 1_455 S
O513 C512 1.258 . S
O514 Co511 1.966 . S
O514 C512 1.263 1_655 S
C515 O516 1.235 1_545 S
C515 O542 1.289 . S
O516 C515 1.235 1_565 S
C517 C519 1.400 . S
C517 N520 1.351 . S
C517 C522 1.501 . S
C518 C519 1.387 . S
C518 N521 1.341 . S
C519 C517 1.400 . S
C519 C518 1.387 . S
N520 Co511 2.022 . S
N520 C517 1.351 . S
N520 N521 1.365 . S
N521 C518 1.341 . S
N521 N520 1.365 . S
N521 H541 0.862 . S
C522 C517 1.501 . S
C522 H523 0.961 . S
C522 H524 0.961 1_545 S
C522 H525 0.960 . S
H523 C522 0.961 . S
H524 C522 0.961 1_565 S
H525 C522 0.960 . S
C526 N527 1.342 . S
C526 C530 1.401 . S
C526 C531 1.499 . S
N527 Co510 1.989 . S
N527 C526 1.342 . S
N527 N528 1.388 . S
N528 Co511 1.993 . S
N528 N527 1.388 . S
N528 C529 1.346 . S
C529 N528 1.346 . S
C529 C530 1.396 . S
C529 C539 1.510 . S
C530 C526 1.401 . S
C530 C529 1.396 . S
C531 C526 1.499 . S
C531 H532 0.959 . S
C531 H533 0.960 1_545 S
C531 H534 0.961 . S
H532 C531 0.959 . S
H533 C531 0.960 1_565 S
H534 C531 0.961 . S
O535 Co510 1.967 . S
O535 C543 1.258 . S
O536 Co511 1.941 . S
O536 C543 1.266 . S
H537 C539 0.959 . S
H538 C539 0.961 . S
C539 C529 1.510 . S
C539 H537 0.959 . S
C539 H538 0.961 . S
C539 H540 0.960 . S
H540 C539 0.960 . S
H541 N521 0.862 . S
O542 Co510 1.920 . S
O542 C515 1.289 . S
C543 O535 1.258 . S
C543 O536 1.266 . S
Co544 O547 1.970 . S
Co544 N561 1.989 . S
Co544 O569 1.967 . S
Co544 O576 1.920 . S
Co545 O548 1.966 . S
Co545 N554 2.022 . S
Co545 N562 1.993 . S
Co545 O570 1.941 . S
C546 O547 1.258 . S
C546 O548 1.263 . S
O547 Co544 1.970 . S
O547 C546 1.258 . S
O548 Co545 1.966 . S
O548 C546 1.263 . S
C549 O550 1.235 . S
C549 O576 1.289 . S
O550 C549 1.235 . S
C551 C553 1.400 . S
C551 N554 1.351 . S
C551 C556 1.501 . S
C552 C553 1.387 . S
C552 N555 1.341 . S
C553 C551 1.400 . S
C553 C552 1.387 . S
N554 Co545 2.022 . S
N554 C551 1.351 . S
N554 N555 1.365 . S
N555 C552 1.341 . S
N555 N554 1.365 . S
N555 H575 0.862 . S
C556 C551 1.501 . S
C556 H557 0.961 . S
C556 H558 0.961 . S
C556 H559 0.960 . S
H557 C556 0.961 . S
H558 C556 0.961 . S
H559 C556 0.960 . S
C560 N561 1.342 . S
C560 C564 1.401 . S
C560 C565 1.499 . S
N561 Co544 1.989 . S
N561 C560 1.342 . S
N561 N562 1.388 . S
N562 Co545 1.993 . S
N562 N561 1.388 . S
N562 C563 1.346 . S
C563 N562 1.346 . S
C563 C564 1.396 . S
C563 C573 1.510 . S
C564 C560 1.401 . S
C564 C563 1.396 . S
C565 C560 1.499 . S
C565 H566 0.959 . S
C565 H567 0.960 . S
C565 H568 0.961 . S
H566 C565 0.959 . S
H567 C565 0.960 . S
H568 C565 0.961 . S
O569 Co544 1.967 . S
O569 C577 1.258 . S
O570 Co545 1.941 . S
O570 C577 1.266 . S
H571 C573 0.959 . S
H572 C573 0.961 . S
C573 C563 1.510 . S
C573 H571 0.959 . S
C573 H572 0.961 . S
C573 H574 0.960 . S
H574 C573 0.960 . S
H575 N555 0.862 . S
O576 Co544 1.920 . S
O576 C549 1.289 . S
C577 O569 1.258 . S
C577 O570 1.266 . S
Co578 O581 1.970 . S
Co578 N595 1.989 . S
Co578 O603 1.967 . S
Co578 O610 1.920 . S
Co579 O582 1.966 . S
Co579 N588 2.022 . S
Co579 N596 1.993 . S
Co579 O604 1.941 . S
C580 O581 1.258 . S
C580 O582 1.263 . S
O581 Co578 1.970 . S
O581 C580 1.258 . S
O582 Co579 1.966 . S
O582 C580 1.263 . S
C583 O584 1.235 . S
C583 O610 1.289 . S
O584 C583 1.235 . S
C585 C587 1.400 . S
C585 N588 1.351 . S
C585 C590 1.501 . S
C586 C587 1.387 . S
C586 N589 1.341 . S
C587 C585 1.400 . S
C587 C586 1.387 . S
N588 Co579 2.022 . S
N588 C585 1.351 . S
N588 N589 1.365 . S
N589 C586 1.341 . S
N589 N588 1.365 . S
N589 H609 0.862 . S
C590 C585 1.501 . S
C590 H591 0.961 . S
C590 H592 0.961 . S
C590 H593 0.960 . S
H591 C590 0.961 . S
H592 C590 0.961 . S
H593 C590 0.960 . S
C594 N595 1.342 . S
C594 C598 1.401 . S
C594 C599 1.499 . S
N595 Co578 1.989 . S
N595 C594 1.342 . S
N595 N596 1.388 . S
N596 Co579 1.993 . S
N596 N595 1.388 . S
N596 C597 1.346 . S
C597 N596 1.346 . S
C597 C598 1.396 . S
C597 C607 1.510 . S
C598 C594 1.401 . S
C598 C597 1.396 . S
C599 C594 1.499 . S
C599 H600 0.959 . S
C599 H601 0.960 . S
C599 H602 0.961 . S
H600 C599 0.959 . S
H601 C599 0.960 . S
H602 C599 0.961 . S
O603 Co578 1.967 . S
O603 C611 1.258 . S
O604 Co579 1.941 . S
O604 C611 1.266 . S
H605 C607 0.959 . S
H606 C607 0.961 . S
C607 C597 1.510 . S
C607 H605 0.959 . S
C607 H606 0.961 . S
C607 H608 0.960 . S
H608 C607 0.960 . S
H609 N589 0.862 . S
O610 Co578 1.920 . S
O610 C583 1.289 . S
C611 O603 1.258 . S
C611 O604 1.266 . S
Co612 O615 1.970 . S
Co612 N629 1.989 . S
Co612 O637 1.967 . S
Co612 O644 1.920 . S
Co613 O616 1.966 . S
Co613 N622 2.022 . S
Co613 N630 1.993 . S
Co613 O638 1.941 . S
C614 O615 1.258 . S
C614 O616 1.263 . S
O615 Co612 1.970 . S
O615 C614 1.258 . S
O616 Co613 1.966 . S
O616 C614 1.263 . S
C617 O618 1.235 . S
C617 O644 1.289 . S
O618 C617 1.235 . S
C619 C621 1.400 . S
C619 N622 1.351 . S
C619 C624 1.501 . S
C620 C621 1.387 . S
C620 N623 1.341 . S
C621 C619 1.400 . S
C621 C620 1.387 . S
N622 Co613 2.022 . S
N622 C619 1.351 . S
N622 N623 1.365 . S
N623 C620 1.341 . S
N623 N622 1.365 . S
N623 H643 0.862 . S
C624 C619 1.501 . S
C624 H625 0.961 . S
C624 H626 0.961 . S
C624 H627 0.960 . S
H625 C624 0.961 . S
H626 C624 0.961 . S
H627 C624 0.960 . S
C628 N629 1.342 . S
C628 C632 1.401 . S
C628 C633 1.499 . S
N629 Co612 1.989 . S
N629 C628 1.342 . S
N629 N630 1.388 . S
N630 Co613 1.993 . S
N630 N629 1.388 . S
N630 C631 1.346 . S
C631 N630 1.346 . S
C631 C632 1.396 . S
C631 C641 1.510 . S
C632 C628 1.401 . S
C632 C631 1.396 . S
C633 C628 1.499 . S
C633 H634 0.959 . S
C633 H635 0.960 . S
C633 H636 0.961 . S
H634 C633 0.959 . S
H635 C633 0.960 . S
H636 C633 0.961 . S
O637 Co612 1.967 . S
O637 C645 1.258 . S
O638 Co613 1.941 . S
O638 C645 1.266 . S
H639 C641 0.959 . S
H640 C641 0.961 . S
C641 C631 1.510 . S
C641 H639 0.959 . S
C641 H640 0.961 . S
C641 H642 0.960 . S
H642 C641 0.960 . S
H643 N623 0.862 . S
O644 Co612 1.920 . S
O644 C617 1.289 . S
C645 O637 1.258 . S
C645 O638 1.266 . S
Co646 O649 1.961 1_655 S
Co646 N663 1.989 . S
Co646 O671 1.967 . S
Co646 O678 1.920 . S
Co647 O650 1.966 1_655 S
Co647 N656 2.022 . S
Co647 N664 1.993 . S
Co647 O672 1.941 . S
C648 O649 1.264 . S
C648 O650 1.263 . S
O649 Co646 1.961 1_455 S
O649 C648 1.264 . S
O650 Co647 1.966 1_455 S
O650 C648 1.263 . S
C651 O652 1.235 . S
C651 O678 1.289 . S
O652 C651 1.235 . S
C653 C655 1.400 . S
C653 N656 1.351 . S
C653 C658 1.501 1_655 S
C654 C655 1.387 . S
C654 N657 1.341 . S
C655 C653 1.400 . S
C655 C654 1.387 . S
N656 Co647 2.022 . S
N656 C653 1.351 . S
N656 N657 1.365 . S
N657 C654 1.341 . S
N657 N656 1.365 . S
N657 H677 0.862 . S
C658 C653 1.501 1_455 S
C658 H659 0.961 . S
C658 H660 0.961 1_455 S
C658 H661 0.960 . S
H659 C658 0.961 . S
H660 C658 0.961 1_655 S
H661 C658 0.960 . S
C662 N663 1.342 . S
C662 C666 1.401 . S
C662 C667 1.499 . S
N663 Co646 1.989 . S
N663 C662 1.342 . S
N663 N664 1.388 . S
N664 Co647 1.993 . S
N664 N663 1.388 . S
N664 C665 1.346 . S
C665 N664 1.346 . S
C665 C666 1.396 . S
C665 C675 1.510 . S
C666 C662 1.401 . S
C666 C665 1.396 . S
C667 C662 1.499 . S
C667 H668 0.959 . S
C667 H669 0.960 . S
C667 H670 0.961 . S
H668 C667 0.959 . S
H669 C667 0.960 . S
H670 C667 0.961 . S
O671 Co646 1.967 . S
O671 C679 1.258 . S
O672 Co647 1.941 . S
O672 C679 1.266 . S
H673 C675 0.959 . S
H674 C675 0.961 . S
C675 C665 1.510 . S
C675 H673 0.959 . S
C675 H674 0.961 . S
C675 H676 0.960 . S
H676 C675 0.960 . S
H677 N657 0.862 . S
O678 Co646 1.920 . S
O678 C651 1.289 . S
C679 O671 1.258 . S
C679 O672 1.266 . S
Co680 O683 1.970 . S
Co680 N697 1.989 . S
Co680 O705 1.967 . S
Co680 O712 1.920 . S
Co681 O684 1.966 . S
Co681 N690 2.022 . S
Co681 N698 1.993 . S
Co681 O706 1.941 . S
C682 O683 1.258 . S
C682 O684 1.263 . S
O683 Co680 1.970 . S
O683 C682 1.258 . S
O684 Co681 1.966 . S
O684 C682 1.263 . S
C685 O686 1.235 . S
C685 O712 1.289 . S
O686 C685 1.235 . S
C687 C689 1.400 . S
C687 N690 1.351 . S
C687 C692 1.501 . S
C688 C689 1.387 . S
C688 N691 1.341 . S
C689 C687 1.400 . S
C689 C688 1.387 . S
N690 Co681 2.022 . S
N690 C687 1.351 . S
N690 N691 1.365 . S
N691 C688 1.341 . S
N691 N690 1.365 . S
N691 H711 0.862 . S
C692 C687 1.501 . S
C692 H693 0.961 . S
C692 H694 0.961 . S
C692 H695 0.960 . S
H693 C692 0.961 . S
H694 C692 0.961 . S
H695 C692 0.960 . S
C696 N697 1.342 . S
C696 C700 1.401 . S
C696 C701 1.499 . S
N697 Co680 1.989 . S
N697 C696 1.342 . S
N697 N698 1.388 . S
N698 Co681 1.993 . S
N698 N697 1.388 . S
N698 C699 1.346 . S
C699 N698 1.346 . S
C699 C700 1.396 . S
C699 C709 1.510 . S
C700 C696 1.401 . S
C700 C699 1.396 . S
C701 C696 1.499 . S
C701 H702 0.959 . S
C701 H703 0.960 . S
C701 H704 0.961 . S
H702 C701 0.959 . S
H703 C701 0.960 . S
H704 C701 0.961 . S
O705 Co680 1.967 . S
O705 C713 1.258 . S
O706 Co681 1.941 . S
O706 C713 1.266 . S
H707 C709 0.959 . S
H708 C709 0.961 . S
C709 C699 1.510 . S
C709 H707 0.959 . S
C709 H708 0.961 . S
C709 H710 0.960 . S
H710 C709 0.960 . S
H711 N691 0.862 . S
O712 Co680 1.920 . S
O712 C685 1.289 . S
C713 O705 1.258 . S
C713 O706 1.266 . S
Co714 O717 1.961 1_655 S
Co714 N731 1.989 . S
Co714 O739 1.967 . S
Co714 O746 1.920 . S
Co715 O718 1.966 1_655 S
Co715 N724 2.022 . S
Co715 N732 1.993 . S
Co715 O740 1.941 . S
C716 O717 1.264 . S
C716 O718 1.263 . S
O717 Co714 1.961 1_455 S
O717 C716 1.264 . S
O718 Co715 1.966 1_455 S
O718 C716 1.263 . S
C719 O720 1.235 . S
C719 O746 1.289 . S
O720 C719 1.235 . S
C721 C723 1.400 . S
C721 N724 1.351 . S
C721 C726 1.501 1_655 S
C722 C723 1.387 . S
C722 N725 1.341 . S
C723 C721 1.400 . S
C723 C722 1.387 . S
N724 Co715 2.022 . S
N724 C721 1.351 . S
N724 N725 1.365 . S
N725 C722 1.341 . S
N725 N724 1.365 . S
N725 H745 0.862 . S
C726 C721 1.501 1_455 S
C726 H727 0.961 . S
C726 H728 0.961 1_455 S
C726 H729 0.960 . S
H727 C726 0.961 . S
H728 C726 0.961 1_655 S
H729 C726 0.960 . S
C730 N731 1.342 . S
C730 C734 1.401 . S
C730 C735 1.499 . S
N731 Co714 1.989 . S
N731 C730 1.342 . S
N731 N732 1.388 . S
N732 Co715 1.993 . S
N732 N731 1.388 . S
N732 C733 1.346 . S
C733 N732 1.346 . S
C733 C734 1.396 . S
C733 C743 1.510 . S
C734 C730 1.401 . S
C734 C733 1.396 . S
C735 C730 1.499 . S
C735 H736 0.959 . S
C735 H737 0.960 . S
C735 H738 0.961 . S
H736 C735 0.959 . S
H737 C735 0.960 . S
H738 C735 0.961 . S
O739 Co714 1.967 . S
O739 C747 1.258 . S
O740 Co715 1.941 . S
O740 C747 1.266 . S
H741 C743 0.959 . S
H742 C743 0.961 . S
C743 C733 1.510 . S
C743 H741 0.959 . S
C743 H742 0.961 . S
C743 H744 0.960 . S
H744 C743 0.960 . S
H745 N725 0.862 . S
O746 Co714 1.920 . S
O746 C719 1.289 . S
C747 O739 1.258 . S
C747 O740 1.266 . S
Co748 O751 1.970 . S
Co748 N765 1.989 . S
Co748 O773 1.967 . S
Co748 O780 1.920 . S
Co749 O752 1.966 . S
Co749 N758 2.022 . S
Co749 N766 1.993 . S
Co749 O774 1.941 . S
C750 O751 1.258 . S
C750 O752 1.263 . S
O751 Co748 1.970 . S
O751 C750 1.258 . S
O752 Co749 1.966 . S
O752 C750 1.263 . S
C753 O754 1.235 . S
C753 O780 1.289 . S
O754 C753 1.235 . S
C755 C757 1.400 . S
C755 N758 1.351 . S
C755 C760 1.501 . S
C756 C757 1.387 . S
C756 N759 1.341 . S
C757 C755 1.400 . S
C757 C756 1.387 . S
N758 Co749 2.022 . S
N758 C755 1.351 . S
N758 N759 1.365 . S
N759 C756 1.341 . S
N759 N758 1.365 . S
N759 H779 0.862 . S
C760 C755 1.501 . S
C760 H761 0.961 . S
C760 H762 0.961 . S
C760 H763 0.960 . S
H761 C760 0.961 . S
H762 C760 0.961 . S
H763 C760 0.960 . S
C764 N765 1.342 . S
C764 C768 1.401 . S
C764 C769 1.499 . S
N765 Co748 1.989 . S
N765 C764 1.342 . S
N765 N766 1.388 . S
N766 Co749 1.993 . S
N766 N765 1.388 . S
N766 C767 1.346 . S
C767 N766 1.346 . S
C767 C768 1.396 . S
C767 C777 1.510 . S
C768 C764 1.401 . S
C768 C767 1.396 . S
C769 C764 1.499 . S
C769 H770 0.959 . S
C769 H771 0.960 . S
C769 H772 0.961 . S
H770 C769 0.959 . S
H771 C769 0.960 . S
H772 C769 0.961 . S
O773 Co748 1.967 . S
O773 C781 1.258 . S
O774 Co749 1.941 . S
O774 C781 1.266 . S
H775 C777 0.959 . S
H776 C777 0.961 . S
C777 C767 1.510 . S
C777 H775 0.959 . S
C777 H776 0.961 . S
C777 H778 0.960 . S
H778 C777 0.960 . S
H779 N759 0.862 . S
O780 Co748 1.920 . S
O780 C753 1.289 . S
C781 O773 1.258 . S
C781 O774 1.266 . S
Co782 O785 1.970 . S
Co782 N799 1.989 . S
Co782 O807 1.967 . S
Co782 O814 1.920 . S
Co783 O786 1.966 . S
Co783 N792 2.022 . S
Co783 N800 1.993 . S
Co783 O808 1.941 . S
C784 O785 1.258 . S
C784 O786 1.263 . S
O785 Co782 1.970 . S
O785 C784 1.258 . S
O786 Co783 1.966 . S
O786 C784 1.263 . S
C787 O788 1.235 . S
C787 O814 1.289 . S
O788 C787 1.235 . S
C789 C791 1.400 . S
C789 N792 1.351 . S
C789 C794 1.501 . S
C790 C791 1.387 . S
C790 N793 1.341 . S
C791 C789 1.400 . S
C791 C790 1.387 . S
N792 Co783 2.022 . S
N792 C789 1.351 . S
N792 N793 1.365 . S
N793 C790 1.341 . S
N793 N792 1.365 . S
N793 H813 0.862 . S
C794 C789 1.501 . S
C794 H795 0.961 . S
C794 H796 0.961 . S
C794 H797 0.960 . S
H795 C794 0.961 . S
H796 C794 0.961 . S
H797 C794 0.960 . S
C798 N799 1.342 . S
C798 C802 1.401 . S
C798 C803 1.499 . S
N799 Co782 1.989 . S
N799 C798 1.342 . S
N799 N800 1.388 . S
N800 Co783 1.993 . S
N800 N799 1.388 . S
N800 C801 1.346 . S
C801 N800 1.346 . S
C801 C802 1.396 . S
C801 C811 1.510 . S
C802 C798 1.401 . S
C802 C801 1.396 . S
C803 C798 1.499 . S
C803 H804 0.959 . S
C803 H805 0.960 . S
C803 H806 0.961 . S
H804 C803 0.959 . S
H805 C803 0.960 . S
H806 C803 0.961 . S
O807 Co782 1.967 . S
O807 C815 1.258 . S
O808 Co783 1.941 . S
O808 C815 1.266 . S
H809 C811 0.959 . S
H810 C811 0.961 . S
C811 C801 1.510 . S
C811 H809 0.959 . S
C811 H810 0.961 . S
C811 H812 0.960 . S
H812 C811 0.960 . S
H813 N793 0.862 . S
O814 Co782 1.920 . S
O814 C787 1.289 . S
C815 O807 1.258 . S
C815 O808 1.266 . S
Co816 O819 1.970 . S
Co816 N833 1.989 . S
Co816 O841 1.967 . S
Co816 O848 1.920 . S
Co817 O820 1.966 . S
Co817 N826 2.022 . S
Co817 N834 1.993 . S
Co817 O842 1.941 . S
C818 O819 1.258 . S
C818 O820 1.263 . S
O819 Co816 1.970 . S
O819 C818 1.258 . S
O820 Co817 1.966 . S
O820 C818 1.263 . S
C821 O822 1.235 . S
C821 O848 1.289 . S
O822 C821 1.235 . S
C823 C825 1.400 . S
C823 N826 1.351 . S
C823 C828 1.501 . S
C824 C825 1.387 . S
C824 N827 1.341 . S
C825 C823 1.400 . S
C825 C824 1.387 . S
N826 Co817 2.022 . S
N826 C823 1.351 . S
N826 N827 1.365 . S
N827 C824 1.341 . S
N827 N826 1.365 . S
N827 H847 0.862 . S
C828 C823 1.501 . S
C828 H829 0.961 . S
C828 H830 0.961 . S
C828 H831 0.960 . S
H829 C828 0.961 . S
H830 C828 0.961 . S
H831 C828 0.960 . S
C832 N833 1.342 . S
C832 C836 1.401 . S
C832 C837 1.499 . S
N833 Co816 1.989 . S
N833 C832 1.342 . S
N833 N834 1.388 . S
N834 Co817 1.993 . S
N834 N833 1.388 . S
N834 C835 1.346 . S
C835 N834 1.346 . S
C835 C836 1.396 . S
C835 C845 1.510 . S
C836 C832 1.401 . S
C836 C835 1.396 . S
C837 C832 1.499 . S
C837 H838 0.959 . S
C837 H839 0.960 . S
C837 H840 0.961 . S
H838 C837 0.959 . S
H839 C837 0.960 . S
H840 C837 0.961 . S
O841 Co816 1.967 . S
O841 C849 1.258 . S
O842 Co817 1.941 . S
O842 C849 1.266 . S
H843 C845 0.959 . S
H844 C845 0.961 . S
C845 C835 1.510 . S
C845 H843 0.959 . S
C845 H844 0.961 . S
C845 H846 0.960 . S
H846 C845 0.960 . S
H847 N827 0.862 . S
O848 Co816 1.920 . S
O848 C821 1.289 . S
C849 O841 1.258 . S
C849 O842 1.266 . S
Co850 O853 1.970 . S
Co850 N867 1.989 . S
Co850 O875 1.967 . S
Co850 O882 1.920 . S
Co851 O854 1.966 . S
Co851 N860 2.022 . S
Co851 N868 1.993 . S
Co851 O876 1.941 . S
C852 O853 1.258 . S
C852 O854 1.263 . S
O853 Co850 1.970 . S
O853 C852 1.258 . S
O854 Co851 1.966 . S
O854 C852 1.263 . S
C855 O856 1.235 . S
C855 O882 1.289 . S
O856 C855 1.235 . S
C857 C859 1.400 . S
C857 N860 1.351 . S
C857 C862 1.501 . S
C858 C859 1.387 . S
C858 N861 1.341 . S
C859 C857 1.400 . S
C859 C858 1.387 . S
N860 Co851 2.022 . S
N860 C857 1.351 . S
N860 N861 1.365 . S
N861 C858 1.341 . S
N861 N860 1.365 . S
N861 H881 0.862 . S
C862 C857 1.501 . S
C862 H863 0.961 . S
C862 H864 0.961 . S
C862 H865 0.960 . S
H863 C862 0.961 . S
H864 C862 0.961 . S
H865 C862 0.960 . S
C866 N867 1.342 . S
C866 C870 1.401 . S
C866 C871 1.499 . S
N867 Co850 1.989 . S
N867 C866 1.342 . S
N867 N868 1.388 . S
N868 Co851 1.993 . S
N868 N867 1.388 . S
N868 C869 1.346 . S
C869 N868 1.346 . S
C869 C870 1.396 . S
C869 C879 1.510 . S
C870 C866 1.401 . S
C870 C869 1.396 . S
C871 C866 1.499 . S
C871 H872 0.959 . S
C871 H873 0.960 . S
C871 H874 0.961 . S
H872 C871 0.959 . S
H873 C871 0.960 . S
H874 C871 0.961 . S
O875 Co850 1.967 . S
O875 C883 1.258 . S
O876 Co851 1.941 . S
O876 C883 1.266 . S
H877 C879 0.959 . S
H878 C879 0.961 . S
C879 C869 1.510 . S
C879 H877 0.959 . S
C879 H878 0.961 . S
C879 H880 0.960 . S
H880 C879 0.960 . S
H881 N861 0.862 . S
O882 Co850 1.920 . S
O882 C855 1.289 . S
C883 O875 1.258 . S
C883 O876 1.266 . S
Co884 O887 1.970 . S
Co884 N901 1.989 . S
Co884 O909 1.967 . S
Co884 O916 1.920 . S
Co885 O888 1.966 . S
Co885 N894 2.022 . S
Co885 N902 1.993 . S
Co885 O910 1.941 . S
C886 O887 1.258 . S
C886 O888 1.263 . S
O887 Co884 1.970 . S
O887 C886 1.258 . S
O888 Co885 1.966 . S
O888 C886 1.263 . S
C889 O890 1.235 . S
C889 O916 1.289 . S
O890 C889 1.235 . S
C891 C893 1.400 . S
C891 N894 1.351 . S
C891 C896 1.501 . S
C892 C893 1.387 . S
C892 N895 1.341 . S
C893 C891 1.400 . S
C893 C892 1.387 . S
N894 Co885 2.022 . S
N894 C891 1.351 . S
N894 N895 1.365 . S
N895 C892 1.341 . S
N895 N894 1.365 . S
N895 H915 0.862 . S
C896 C891 1.501 . S
C896 H897 0.961 . S
C896 H898 0.961 . S
C896 H899 0.960 . S
H897 C896 0.961 . S
H898 C896 0.961 . S
H899 C896 0.960 . S
C900 N901 1.342 . S
C900 C904 1.401 . S
C900 C905 1.499 . S
N901 Co884 1.989 . S
N901 C900 1.342 . S
N901 N902 1.388 . S
N902 Co885 1.993 . S
N902 N901 1.388 . S
N902 C903 1.346 . S
C903 N902 1.346 . S
C903 C904 1.396 . S
C903 C913 1.510 . S
C904 C900 1.401 . S
C904 C903 1.396 . S
C905 C900 1.499 . S
C905 H906 0.959 . S
C905 H907 0.960 . S
C905 H908 0.961 . S
H906 C905 0.959 . S
H907 C905 0.960 . S
H908 C905 0.961 . S
O909 Co884 1.967 . S
O909 C917 1.258 . S
O910 Co885 1.941 . S
O910 C917 1.266 . S
H911 C913 0.959 . S
H912 C913 0.961 . S
C913 C903 1.510 . S
C913 H911 0.959 . S
C913 H912 0.961 . S
C913 H914 0.960 . S
H914 C913 0.960 . S
H915 N895 0.862 . S
O916 Co884 1.920 . S
O916 C889 1.289 . S
C917 O909 1.258 . S
C917 O910 1.266 . S
Co918 O921 1.970 1_455 S
Co918 N935 1.989 . S
Co918 O943 1.967 . S
Co918 O950 1.920 . S
Co919 O922 1.966 . S
Co919 N928 2.022 . S
Co919 N936 1.993 . S
Co919 O944 1.941 . S
C920 O921 1.258 . S
C920 O922 1.263 1_655 S
O921 Co918 1.970 1_655 S
O921 C920 1.258 . S
O922 Co919 1.966 . S
O922 C920 1.263 1_455 S
C923 O924 1.235 . S
C923 O950 1.289 . S
O924 C923 1.235 . S
C925 C927 1.400 . S
C925 N928 1.351 . S
C925 C930 1.501 . S
C926 C927 1.387 . S
C926 N929 1.341 . S
C927 C925 1.400 . S
C927 C926 1.387 . S
N928 Co919 2.022 . S
N928 C925 1.351 . S
N928 N929 1.365 . S
N929 C926 1.341 . S
N929 N928 1.365 . S
N929 H949 0.862 . S
C930 C925 1.501 . S
C930 H931 0.961 . S
C930 H932 0.961 . S
C930 H933 0.960 . S
H931 C930 0.961 . S
H932 C930 0.961 . S
H933 C930 0.960 . S
C934 N935 1.342 . S
C934 C938 1.401 . S
C934 C939 1.499 . S
N935 Co918 1.989 . S
N935 C934 1.342 . S
N935 N936 1.388 . S
N936 Co919 1.993 . S
N936 N935 1.388 . S
N936 C937 1.346 . S
C937 N936 1.346 . S
C937 C938 1.396 . S
C937 C947 1.510 . S
C938 C934 1.401 . S
C938 C937 1.396 . S
C939 C934 1.499 . S
C939 H940 0.959 . S
C939 H941 0.960 . S
C939 H942 0.961 . S
H940 C939 0.959 . S
H941 C939 0.960 . S
H942 C939 0.961 . S
O943 Co918 1.967 . S
O943 C951 1.258 . S
O944 Co919 1.941 . S
O944 C951 1.266 . S
H945 C947 0.959 . S
H946 C947 0.961 . S
C947 C937 1.510 . S
C947 H945 0.959 . S
C947 H946 0.961 . S
C947 H948 0.960 . S
H948 C947 0.960 . S
H949 N929 0.862 . S
O950 Co918 1.920 . S
O950 C923 1.289 . S
C951 O943 1.258 . S
C951 O944 1.266 . S
Co952 O955 1.970 . S
Co952 N969 1.989 . S
Co952 O977 1.967 . S
Co952 O984 1.920 . S
Co953 O956 1.966 . S
Co953 N962 2.022 . S
Co953 N970 1.993 . S
Co953 O978 1.941 . S
C954 O955 1.258 . S
C954 O956 1.263 . S
O955 Co952 1.970 . S
O955 C954 1.258 . S
O956 Co953 1.966 . S
O956 C954 1.263 . S
C957 O958 1.235 . S
C957 O984 1.289 . S
O958 C957 1.235 . S
C959 C961 1.400 . S
C959 N962 1.351 . S
C959 C964 1.501 . S
C960 C961 1.387 . S
C960 N963 1.341 . S
C961 C959 1.400 . S
C961 C960 1.387 . S
N962 Co953 2.022 . S
N962 C959 1.351 . S
N962 N963 1.365 . S
N963 C960 1.341 . S
N963 N962 1.365 . S
N963 H983 0.862 . S
C964 C959 1.501 . S
C964 H965 0.961 . S
C964 H966 0.961 . S
C964 H967 0.960 . S
H965 C964 0.961 . S
H966 C964 0.961 . S
H967 C964 0.960 . S
C968 N969 1.342 . S
C968 C972 1.401 . S
C968 C973 1.499 . S
N969 Co952 1.989 . S
N969 C968 1.342 . S
N969 N970 1.388 . S
N970 Co953 1.993 . S
N970 N969 1.388 . S
N970 C971 1.346 . S
C971 N970 1.346 . S
C971 C972 1.396 . S
C971 C981 1.510 . S
C972 C968 1.401 . S
C972 C971 1.396 . S
C973 C968 1.499 . S
C973 H974 0.959 . S
C973 H975 0.960 . S
C973 H976 0.961 . S
H974 C973 0.959 . S
H975 C973 0.960 . S
H976 C973 0.961 . S
O977 Co952 1.967 . S
O977 C985 1.258 . S
O978 Co953 1.941 . S
O978 C985 1.266 . S
H979 C981 0.959 . S
H980 C981 0.961 . S
C981 C971 1.510 . S
C981 H979 0.959 . S
C981 H980 0.961 . S
C981 H982 0.960 . S
H982 C981 0.960 . S
H983 N963 0.862 . S
O984 Co952 1.920 . S
O984 C957 1.289 . S
C985 O977 1.258 . S
C985 O978 1.266 . S
Co986 O989 1.970 1_455 S
Co986 N1003 1.989 . S
Co986 O1011 1.967 . S
Co986 O1018 1.920 . S
Co987 O990 1.966 . S
Co987 N996 2.022 . S
Co987 N1004 1.993 . S
Co987 O1012 1.941 . S
C988 O989 1.258 . S
C988 O990 1.263 1_655 S
O989 Co986 1.970 1_655 S
O989 C988 1.258 . S
O990 Co987 1.966 . S
O990 C988 1.263 1_455 S
C991 O992 1.235 . S
C991 O1018 1.289 . S
O992 C991 1.235 . S
C993 C995 1.400 . S
C993 N996 1.351 . S
C993 C998 1.501 . S
C994 C995 1.387 . S
C994 N997 1.341 . S
C995 C993 1.400 . S
C995 C994 1.387 . S
N996 Co987 2.022 . S
N996 C993 1.351 . S
N996 N997 1.365 . S
N997 C994 1.341 . S
N997 N996 1.365 . S
N997 H1017 0.862 . S
C998 C993 1.501 . S
C998 H999 0.961 . S
C998 H1000 0.961 . S
C998 H1001 0.960 . S
H999 C998 0.961 . S
H1000 C998 0.961 . S
H1001 C998 0.960 . S
C1002 N1003 1.342 . S
C1002 C1006 1.401 . S
C1002 C1007 1.499 . S
N1003 Co986 1.989 . S
N1003 C1002 1.342 . S
N1003 N1004 1.388 . S
N1004 Co987 1.993 . S
N1004 N1003 1.388 . S
N1004 C1005 1.346 . S
C1005 N1004 1.346 . S
C1005 C1006 1.396 . S
C1005 C1015 1.510 . S
C1006 C1002 1.401 . S
C1006 C1005 1.396 . S
C1007 C1002 1.499 . S
C1007 H1008 0.959 . S
C1007 H1009 0.960 . S
C1007 H1010 0.961 . S
H1008 C1007 0.959 . S
H1009 C1007 0.960 . S
H1010 C1007 0.961 . S
O1011 Co986 1.967 . S
O1011 C1019 1.258 . S
O1012 Co987 1.941 . S
O1012 C1019 1.266 . S
H1013 C1015 0.959 . S
H1014 C1015 0.961 . S
C1015 C1005 1.510 . S
C1015 H1013 0.959 . S
C1015 H1014 0.961 . S
C1015 H1016 0.960 . S
H1016 C1015 0.960 . S
H1017 N997 0.862 . S
O1018 Co986 1.920 . S
O1018 C991 1.289 . S
C1019 O1011 1.258 . S
C1019 O1012 1.266 . S
Co1020 O1023 1.970 . S
Co1020 N1037 1.989 . S
Co1020 O1045 1.967 . S
Co1020 O1052 1.920 . S
Co1021 O1024 1.966 . S
Co1021 N1030 2.022 . S
Co1021 N1038 1.993 . S
Co1021 O1046 1.941 . S
C1022 O1023 1.258 . S
C1022 O1024 1.263 . S
O1023 Co1020 1.970 . S
O1023 C1022 1.258 . S
O1024 Co1021 1.966 . S
O1024 C1022 1.263 . S
C1025 O1026 1.235 . S
C1025 O1052 1.289 . S
O1026 C1025 1.235 . S
C1027 C1029 1.400 . S
C1027 N1030 1.351 . S
C1027 C1032 1.501 . S
C1028 C1029 1.387 . S
C1028 N1031 1.341 . S
C1029 C1027 1.400 . S
C1029 C1028 1.387 . S
N1030 Co1021 2.022 . S
N1030 C1027 1.351 . S
N1030 N1031 1.365 . S
N1031 C1028 1.341 . S
N1031 N1030 1.365 . S
N1031 H1051 0.862 . S
C1032 C1027 1.501 . S
C1032 H1033 0.961 . S
C1032 H1034 0.961 . S
C1032 H1035 0.960 . S
H1033 C1032 0.961 . S
H1034 C1032 0.961 . S
H1035 C1032 0.960 . S
C1036 N1037 1.342 . S
C1036 C1040 1.401 . S
C1036 C1041 1.499 . S
N1037 Co1020 1.989 . S
N1037 C1036 1.342 . S
N1037 N1038 1.388 . S
N1038 Co1021 1.993 . S
N1038 N1037 1.388 . S
N1038 C1039 1.346 . S
C1039 N1038 1.346 . S
C1039 C1040 1.396 . S
C1039 C1049 1.510 . S
C1040 C1036 1.401 . S
C1040 C1039 1.396 . S
C1041 C1036 1.499 . S
C1041 H1042 0.959 . S
C1041 H1043 0.960 . S
C1041 H1044 0.961 . S
H1042 C1041 0.959 . S
H1043 C1041 0.960 . S
H1044 C1041 0.961 . S
O1045 Co1020 1.967 . S
O1045 C1053 1.258 . S
O1046 Co1021 1.941 . S
O1046 C1053 1.266 . S
H1047 C1049 0.959 . S
H1048 C1049 0.961 . S
C1049 C1039 1.510 . S
C1049 H1047 0.959 . S
C1049 H1048 0.961 . S
C1049 H1050 0.960 . S
H1050 C1049 0.960 . S
H1051 N1031 0.862 . S
O1052 Co1020 1.920 . S
O1052 C1025 1.289 . S
C1053 O1045 1.258 . S
C1053 O1046 1.266 . S
Co1054 O1057 1.970 . S
Co1054 N1071 1.989 . S
Co1054 O1079 1.967 . S
Co1054 O1086 1.920 . S
Co1055 O1058 1.966 . S
Co1055 N1064 2.022 . S
Co1055 N1072 1.993 . S
Co1055 O1080 1.941 . S
C1056 O1057 1.258 . S
C1056 O1058 1.263 . S
O1057 Co1054 1.970 . S
O1057 C1056 1.258 . S
O1058 Co1055 1.966 . S
O1058 C1056 1.263 . S
C1059 O1060 1.235 . S
C1059 O1086 1.289 . S
O1060 C1059 1.235 . S
C1061 C1063 1.400 . S
C1061 N1064 1.351 . S
C1061 C1066 1.501 . S
C1062 C1063 1.387 . S
C1062 N1065 1.341 . S
C1063 C1061 1.400 . S
C1063 C1062 1.387 . S
N1064 Co1055 2.022 . S
N1064 C1061 1.351 . S
N1064 N1065 1.365 . S
N1065 C1062 1.341 . S
N1065 N1064 1.365 . S
N1065 H1085 0.862 . S
C1066 C1061 1.501 . S
C1066 H1067 0.961 . S
C1066 H1068 0.961 . S
C1066 H1069 0.960 . S
H1067 C1066 0.961 . S
H1068 C1066 0.961 . S
H1069 C1066 0.960 . S
C1070 N1071 1.342 . S
C1070 C1074 1.401 . S
C1070 C1075 1.499 . S
N1071 Co1054 1.989 . S
N1071 C1070 1.342 . S
N1071 N1072 1.388 . S
N1072 Co1055 1.993 . S
N1072 N1071 1.388 . S
N1072 C1073 1.346 . S
C1073 N1072 1.346 . S
C1073 C1074 1.396 . S
C1073 C1083 1.510 . S
C1074 C1070 1.401 . S
C1074 C1073 1.396 . S
C1075 C1070 1.499 . S
C1075 H1076 0.959 . S
C1075 H1077 0.960 . S
C1075 H1078 0.961 . S
H1076 C1075 0.959 . S
H1077 C1075 0.960 . S
H1078 C1075 0.961 . S
O1079 Co1054 1.967 . S
O1079 C1087 1.258 . S
O1080 Co1055 1.941 . S
O1080 C1087 1.266 . S
H1081 C1083 0.959 . S
H1082 C1083 0.961 . S
C1083 C1073 1.510 . S
C1083 H1081 0.959 . S
C1083 H1082 0.961 . S
C1083 H1084 0.960 . S
H1084 C1083 0.960 . S
H1085 N1065 0.862 . S
O1086 Co1054 1.920 . S
O1086 C1059 1.289 . S
C1087 O1079 1.258 . S
C1087 O1080 1.266 . S
H1088 C1094 0.930 . S
H1089 C1097 0.930 . S
H1090 C1098 0.930 . S
H1091 C1099 0.930 . S
H1092 C1102 0.930 . S
H1093 C1103 0.930 . S
C1094 H1088 0.930 . S
C1094 C1095 1.355 . S
C1094 C1096 1.415 . S
C1095 C1094 1.355 . S
C1095 C1097 1.419 . S
C1096 C1094 1.415 . S
C1096 C1101 1.425 . S
C1096 C1103 1.409 . S
C1097 H1089 0.930 . S
C1097 C1095 1.419 . S
C1097 C1098 1.362 . S
C1098 H1090 0.930 . S
C1098 C1097 1.362 . S
C1098 C1101 1.409 . S
C1099 H1091 0.930 . S
C1099 C1100 1.355 . S
C1099 C1101 1.415 . S
C1100 C1099 1.355 . S
C1100 C1102 1.419 . S
C1101 C1096 1.425 . S
C1101 C1098 1.409 . S
C1101 C1099 1.415 . S
C1102 H1092 0.930 . S
C1102 C1100 1.419 . S
C1102 C1103 1.362 . S
C1103 H1093 0.930 . S
C1103 C1096 1.409 . S
C1103 C1102 1.362 . S
H1104 C1110 0.930 . S
H1105 C1113 0.930 . S
H1106 C1114 0.930 . S
H1107 C1115 0.930 . S
H1108 C1118 0.930 . S
H1109 C1119 0.930 . S
C1110 H1104 0.930 . S
C1110 C1111 1.355 . S
C1110 C1112 1.415 . S
C1111 C1110 1.355 . S
C1111 C1113 1.419 1_655 S
C1112 C1110 1.415 . S
C1112 C1117 1.425 1_655 S
C1112 C1119 1.409 . S
C1113 H1105 0.930 . S
C1113 C1111 1.419 1_455 S
C1113 C1114 1.362 . S
C1114 H1106 0.930 . S
C1114 C1113 1.362 . S
C1114 C1117 1.409 . S
C1115 H1107 0.930 . S
C1115 C1116 1.355 . S
C1115 C1117 1.415 . S
C1116 C1115 1.355 . S
C1116 C1118 1.419 1_455 S
C1117 C1112 1.425 1_455 S
C1117 C1114 1.409 . S
C1117 C1115 1.415 . S
C1118 H1108 0.930 . S
C1118 C1116 1.419 1_655 S
C1118 C1119 1.362 . S
C1119 H1109 0.930 . S
C1119 C1112 1.409 . S
C1119 C1118 1.362 . S
H1120 C1126 0.930 . S
H1121 C1129 0.930 . S
H1122 C1130 0.930 . S
H1123 C1131 0.930 . S
H1124 C1134 0.930 . S
H1125 C1135 0.930 . S
C1126 H1120 0.930 . S
C1126 C1127 1.355 . S
C1126 C1128 1.415 1_655 S
C1127 C1126 1.355 . S
C1127 C1129 1.419 . S
C1128 C1126 1.415 1_455 S
C1128 C1133 1.425 1_455 S
C1128 C1135 1.409 . S
C1129 H1121 0.930 . S
C1129 C1127 1.419 . S
C1129 C1130 1.362 . S
C1130 H1122 0.930 . S
C1130 C1129 1.362 . S
C1130 C1133 1.409 . S
C1131 H1123 0.930 . S
C1131 C1132 1.355 . S
C1131 C1133 1.415 1_455 S
C1132 C1131 1.355 . S
C1132 C1134 1.419 . S
C1133 C1128 1.425 1_655 S
C1133 C1130 1.409 . S
C1133 C1131 1.415 1_655 S
C1134 H1124 0.930 . S
C1134 C1132 1.419 . S
C1134 C1135 1.362 . S
C1135 H1125 0.930 . S
C1135 C1128 1.409 . S
C1135 C1134 1.362 . S
H1136 C1142 0.930 . S
H1137 C1145 0.930 . S
H1138 C1146 0.930 . S
H1139 C1147 0.930 . S
H1140 C1150 0.930 . S
H1141 C1151 0.930 . S
C1142 H1136 0.930 . S
C1142 C1143 1.355 . S
C1142 C1144 1.415 . S
C1143 C1142 1.355 . S
C1143 C1145 1.419 . S
C1144 C1142 1.415 . S
C1144 C1149 1.425 . S
C1144 C1151 1.409 . S
C1145 H1137 0.930 . S
C1145 C1143 1.419 . S
C1145 C1146 1.362 . S
C1146 H1138 0.930 . S
C1146 C1145 1.362 . S
C1146 C1149 1.409 . S
C1147 H1139 0.930 . S
C1147 C1148 1.355 . S
C1147 C1149 1.415 . S
C1148 C1147 1.355 . S
C1148 C1150 1.419 . S
C1149 C1144 1.425 . S
C1149 C1146 1.409 . S
C1149 C1147 1.415 . S
C1150 H1140 0.930 . S
C1150 C1148 1.419 . S
C1150 C1151 1.362 . S
C1151 H1141 0.930 . S
C1151 C1144 1.409 . S
C1151 C1150 1.362 . S
H1152 C1158 0.930 . S
H1153 C1161 0.930 . S
H1154 C1162 0.930 . S
H1155 C1163 0.930 . S
H1156 C1166 0.930 . S
H1157 C1167 0.930 . S
C1158 H1152 0.930 . S
C1158 C1159 1.355 . S
C1158 C1160 1.415 . S
C1159 C1158 1.355 . S
C1159 C1161 1.419 . S
C1160 C1158 1.415 . S
C1160 C1165 1.425 . S
C1160 C1167 1.409 . S
C1161 H1153 0.930 . S
C1161 C1159 1.419 . S
C1161 C1162 1.362 . S
C1162 H1154 0.930 . S
C1162 C1161 1.362 . S
C1162 C1165 1.409 . S
C1163 H1155 0.930 . S
C1163 C1164 1.355 . S
C1163 C1165 1.415 . S
C1164 C1163 1.355 . S
C1164 C1166 1.419 . S
C1165 C1160 1.425 . S
C1165 C1162 1.409 . S
C1165 C1163 1.415 . S
C1166 H1156 0.930 . S
C1166 C1164 1.419 . S
C1166 C1167 1.362 . S
C1167 H1157 0.930 . S
C1167 C1160 1.409 . S
C1167 C1166 1.362 . S
H1168 C1174 0.930 . S
H1169 C1177 0.930 . S
H1170 C1178 0.930 . S
H1171 C1179 0.930 . S
H1172 C1182 0.930 . S
H1173 C1183 0.930 . S
C1174 H1168 0.930 . S
C1174 C1175 1.355 . S
C1174 C1176 1.415 . S
C1175 C1174 1.355 . S
C1175 C1177 1.419 . S
C1176 C1174 1.415 . S
C1176 C1181 1.425 . S
C1176 C1183 1.409 . S
C1177 H1169 0.930 . S
C1177 C1175 1.419 . S
C1177 C1178 1.362 . S
C1178 H1170 0.930 . S
C1178 C1177 1.362 . S
C1178 C1181 1.409 . S
C1179 H1171 0.930 . S
C1179 C1180 1.355 . S
C1179 C1181 1.415 . S
C1180 C1179 1.355 . S
C1180 C1182 1.419 . S
C1181 C1176 1.425 . S
C1181 C1178 1.409 . S
C1181 C1179 1.415 . S
C1182 H1172 0.930 . S
C1182 C1180 1.419 . S
C1182 C1183 1.362 . S
C1183 H1173 0.930 . S
C1183 C1176 1.409 . S
C1183 C1182 1.362 . S
H1184 C1190 0.930 . S
H1185 C1193 0.930 . S
H1186 C1194 0.930 . S
H1187 C1195 0.930 . S
H1188 C1198 0.930 . S
H1189 C1199 0.930 . S
C1190 H1184 0.930 . S
C1190 C1191 1.355 . S
C1190 C1192 1.415 1_455 S
C1191 C1190 1.355 . S
C1191 C1193 1.419 . S
C1192 C1190 1.415 1_655 S
C1192 C1197 1.425 1_655 S
C1192 C1199 1.409 . S
C1193 H1185 0.930 . S
C1193 C1191 1.419 . S
C1193 C1194 1.362 . S
C1194 H1186 0.930 . S
C1194 C1193 1.362 . S
C1194 C1197 1.409 . S
C1195 H1187 0.930 . S
C1195 C1196 1.355 . S
C1195 C1197 1.415 1_655 S
C1196 C1195 1.355 . S
C1196 C1198 1.419 . S
C1197 C1192 1.425 1_455 S
C1197 C1194 1.409 . S
C1197 C1195 1.415 1_455 S
C1198 H1188 0.930 . S
C1198 C1196 1.419 . S
C1198 C1199 1.362 . S
C1199 H1189 0.930 . S
C1199 C1192 1.409 . S
C1199 C1198 1.362 . S
H1200 C1206 0.930 . S
H1201 C1209 0.930 . S
H1202 C1210 0.930 . S
H1203 C1211 0.930 . S
H1204 C1214 0.930 . S
H1205 C1215 0.930 . S
C1206 H1200 0.930 . S
C1206 C1207 1.355 1_655 S
C1206 C1208 1.415 . S
C1207 C1206 1.355 1_455 S
C1207 C1209 1.419 . S
C1208 C1206 1.415 . S
C1208 C1213 1.425 1_655 S
C1208 C1215 1.409 . S
C1209 H1201 0.930 . S
C1209 C1207 1.419 . S
C1209 C1210 1.362 . S
C1210 H1202 0.930 . S
C1210 C1209 1.362 . S
C1210 C1213 1.409 . S
C1211 H1203 0.930 . S
C1211 C1212 1.355 1_455 S
C1211 C1213 1.415 . S
C1212 C1211 1.355 1_655 S
C1212 C1214 1.419 . S
C1213 C1208 1.425 1_455 S
C1213 C1210 1.409 . S
C1213 C1211 1.415 . S
C1214 H1204 0.930 . S
C1214 C1212 1.419 . S
C1214 C1215 1.362 . S
C1215 H1205 0.930 . S
C1215 C1208 1.409 . S
C1215 C1214 1.362 . S
H1216 C1222 0.930 . S
H1217 C1225 0.930 . S
H1218 C1226 0.930 . S
H1219 C1227 0.930 . S
H1220 C1230 0.930 . S
H1221 C1231 0.930 . S
C1222 H1216 0.930 . S
C1222 C1223 1.355 . S
C1222 C1224 1.415 . S
C1223 C1222 1.355 . S
C1223 C1225 1.419 . S
C1224 C1222 1.415 . S
C1224 C1229 1.425 . S
C1224 C1231 1.409 . S
C1225 H1217 0.930 . S
C1225 C1223 1.419 . S
C1225 C1226 1.362 . S
C1226 H1218 0.930 . S
C1226 C1225 1.362 . S
C1226 C1229 1.409 . S
C1227 H1219 0.930 . S
C1227 C1228 1.355 . S
C1227 C1229 1.415 . S
C1228 C1227 1.355 . S
C1228 C1230 1.419 . S
C1229 C1224 1.425 . S
C1229 C1226 1.409 . S
C1229 C1227 1.415 . S
C1230 H1220 0.930 . S
C1230 C1228 1.419 . S
C1230 C1231 1.362 . S
C1231 H1221 0.930 . S
C1231 C1224 1.409 . S
C1231 C1230 1.362 . S
H1232 C1238 0.930 1_655 S
H1233 C1241 0.930 . S
H1234 C1242 0.930 . S
H1235 C1243 0.930 1_455 S
H1236 C1246 0.930 . S
H1237 C1247 0.930 . S
C1238 H1232 0.930 1_455 S
C1238 C1239 1.355 . S
C1238 C1240 1.415 1_455 S
C1239 C1238 1.355 . S
C1239 C1241 1.419 . S
C1240 C1238 1.415 1_655 S
C1240 C1245 1.425 1_655 S
C1240 C1247 1.409 . S
C1241 H1233 0.930 . S
C1241 C1239 1.419 . S
C1241 C1242 1.362 . S
C1242 H1234 0.930 . S
C1242 C1241 1.362 . S
C1242 C1245 1.409 . S
C1243 H1235 0.930 1_655 S
C1243 C1244 1.355 . S
C1243 C1245 1.415 1_655 S
C1244 C1243 1.355 . S
C1244 C1246 1.419 . S
C1245 C1240 1.425 1_455 S
C1245 C1242 1.409 . S
C1245 C1243 1.415 1_455 S
C1246 H1236 0.930 . S
C1246 C1244 1.419 . S
C1246 C1247 1.362 . S
C1247 H1237 0.930 . S
C1247 C1240 1.409 . S
C1247 C1246 1.362 . S
H1248 C1254 0.930 . S
H1249 C1257 0.930 . S
H1250 C1258 0.930 . S
H1251 C1259 0.930 . S
H1252 C1262 0.930 . S
H1253 C1263 0.930 . S
C1254 H1248 0.930 . S
C1254 C1255 1.355 . S
C1254 C1256 1.415 1_655 S
C1255 C1254 1.355 . S
C1255 C1257 1.419 . S
C1256 C1254 1.415 1_455 S
C1256 C1261 1.424 1_455 S
C1256 C1263 1.409 . S
C1257 H1249 0.930 . S
C1257 C1255 1.419 . S
C1257 C1258 1.362 . S
C1258 H1250 0.930 . S
C1258 C1257 1.362 . S
C1258 C1261 1.424 . S
C1259 H1251 0.930 . S
C1259 C1260 1.355 . S
C1259 C1261 1.401 1_455 S
C1260 C1259 1.355 . S
C1260 C1262 1.419 . S
C1261 C1256 1.424 1_655 S
C1261 C1258 1.424 . S
C1261 C1259 1.401 1_655 S
C1262 H1252 0.930 . S
C1262 C1260 1.419 . S
C1262 C1263 1.362 . S
C1263 H1253 0.930 . S
C1263 C1256 1.409 . S
C1263 C1262 1.362 . S
H1264 C1270 0.930 . S
H1265 C1273 0.930 . S
H1266 C1274 0.930 . S
H1267 C1275 0.930 . S
H1268 C1278 0.930 . S
H1269 C1279 0.930 . S
C1270 H1264 0.930 . S
C1270 C1271 1.355 . S
C1270 C1272 1.415 . S
C1271 C1270 1.355 . S
C1271 C1273 1.419 . S
C1272 C1270 1.415 . S
C1272 C1277 1.425 . S
C1272 C1279 1.409 . S
C1273 H1265 0.930 . S
C1273 C1271 1.419 . S
C1273 C1274 1.362 . S
C1274 H1266 0.930 . S
C1274 C1273 1.362 . S
C1274 C1277 1.409 . S
C1275 H1267 0.930 . S
C1275 C1276 1.355 . S
C1275 C1277 1.415 . S
C1276 C1275 1.355 . S
C1276 C1278 1.419 . S
C1277 C1272 1.425 . S
C1277 C1274 1.409 . S
C1277 C1275 1.415 . S
C1278 H1268 0.930 . S
C1278 C1276 1.419 . S
C1278 C1279 1.362 . S
C1279 H1269 0.930 . S
C1279 C1272 1.409 . S
C1279 C1278 1.362 . S
H1280 C1286 0.930 . S
H1281 C1289 0.930 . S
H1282 C1290 0.930 . S
H1283 C1291 0.930 . S
H1284 C1294 0.930 . S
H1285 C1295 0.930 . S
C1286 H1280 0.930 . S
C1286 C1287 1.355 . S
C1286 C1288 1.415 . S
C1287 C1286 1.355 . S
C1287 C1289 1.419 . S
C1288 C1286 1.415 . S
C1288 C1293 1.425 . S
C1288 C1295 1.409 . S
C1289 H1281 0.930 . S
C1289 C1287 1.419 . S
C1289 C1290 1.362 . S
C1290 H1282 0.930 . S
C1290 C1289 1.362 . S
C1290 C1293 1.409 . S
C1291 H1283 0.930 . S
C1291 C1292 1.355 . S
C1291 C1293 1.415 . S
C1292 C1291 1.355 . S
C1292 C1294 1.419 . S
C1293 C1288 1.425 . S
C1293 C1290 1.409 . S
C1293 C1291 1.415 . S
C1294 H1284 0.930 . S
C1294 C1292 1.419 . S
C1294 C1295 1.362 . S
C1295 H1285 0.930 . S
C1295 C1288 1.409 . S
C1295 C1294 1.362 . S
H1296 C1302 0.930 . S
H1297 C1305 0.930 . S
H1298 C1306 0.930 . S
H1299 C1307 0.930 . S
H1300 C1310 0.930 . S
H1301 C1311 0.930 . S
C1302 H1296 0.930 . S
C1302 C1303 1.355 . S
C1302 C1304 1.415 . S
C1303 C1302 1.355 . S
C1303 C1305 1.419 . S
C1304 C1302 1.415 . S
C1304 C1309 1.425 . S
C1304 C1311 1.409 . S
C1305 H1297 0.930 . S
C1305 C1303 1.419 . S
C1305 C1306 1.362 . S
C1306 H1298 0.930 . S
C1306 C1305 1.362 . S
C1306 C1309 1.409 . S
C1307 H1299 0.930 . S
C1307 C1308 1.355 . S
C1307 C1309 1.415 . S
C1308 C1307 1.355 . S
C1308 C1310 1.419 . S
C1309 C1304 1.425 . S
C1309 C1306 1.409 . S
C1309 C1307 1.415 . S
C1310 H1300 0.930 . S
C1310 C1308 1.419 . S
C1310 C1311 1.362 . S
C1311 H1301 0.930 . S
C1311 C1304 1.409 . S
C1311 C1310 1.362 . S
H1312 C1318 0.930 . S
H1313 C1321 0.930 . S
H1314 C1322 0.930 . S
H1315 C1323 0.930 . S
H1316 C1326 0.930 . S
H1317 C1327 0.930 . S
C1318 H1312 0.930 . S
C1318 C1319 1.355 . S
C1318 C1320 1.415 . S
C1319 C1318 1.355 . S
C1319 C1321 1.419 . S
C1320 C1318 1.415 . S
C1320 C1325 1.425 1_455 S
C1320 C1327 1.409 1_455 S
C1321 H1313 0.930 . S
C1321 C1319 1.419 . S
C1321 C1322 1.362 . S
C1322 H1314 0.930 . S
C1322 C1321 1.362 . S
C1322 C1325 1.409 1_455 S
C1323 H1315 0.930 . S
C1323 C1324 1.355 . S
C1323 C1325 1.415 . S
C1324 C1323 1.355 . S
C1324 C1326 1.419 . S
C1325 C1320 1.425 1_655 S
C1325 C1322 1.409 1_655 S
C1325 C1323 1.415 . S
C1326 H1316 0.930 . S
C1326 C1324 1.419 . S
C1326 C1327 1.362 . S
C1327 H1317 0.930 . S
C1327 C1320 1.409 1_655 S
C1327 C1326 1.362 . S
H1328 C1334 0.930 . S
H1329 C1337 0.930 1_455 S
H1330 C1338 0.930 . S
H1331 C1339 0.930 . S
H1332 C1342 0.930 1_655 S
H1333 C1343 0.930 . S
C1334 H1328 0.930 . S
C1334 C1335 1.355 . S
C1334 C1336 1.415 . S
C1335 C1334 1.355 . S
C1335 C1337 1.419 . S
C1336 C1334 1.415 . S
C1336 C1341 1.425 1_655 S
C1336 C1343 1.409 . S
C1337 H1329 0.930 1_655 S
C1337 C1335 1.419 . S
C1337 C1338 1.362 1_655 S
C1338 H1330 0.930 . S
C1338 C1337 1.362 1_455 S
C1338 C1341 1.409 . S
C1339 H1331 0.930 . S
C1339 C1340 1.355 . S
C1339 C1341 1.415 . S
C1340 C1339 1.355 . S
C1340 C1342 1.419 . S
C1341 C1336 1.425 1_455 S
C1341 C1338 1.409 . S
C1341 C1339 1.415 . S
C1342 H1332 0.930 1_455 S
C1342 C1340 1.419 . S
C1342 C1343 1.362 1_455 S
C1343 H1333 0.930 . S
C1343 C1336 1.409 . S
C1343 C1342 1.362 1_655 S
H1344 C1350 0.930 . S
H1345 C1353 0.930 . S
H1346 C1354 0.930 . S
H1347 C1355 0.930 . S
H1348 C1358 0.930 . S
H1349 C1359 0.930 . S
C1350 H1344 0.930 . S
C1350 C1351 1.355 . S
C1350 C1352 1.415 . S
C1351 C1350 1.355 . S
C1351 C1353 1.419 . S
C1352 C1350 1.415 . S
C1352 C1357 1.425 . S
C1352 C1359 1.409 . S
C1353 H1345 0.930 . S
C1353 C1351 1.419 . S
C1353 C1354 1.362 . S
C1354 H1346 0.930 . S
C1354 C1353 1.362 . S
C1354 C1357 1.409 . S
C1355 H1347 0.930 . S
C1355 C1356 1.355 . S
C1355 C1357 1.415 . S
C1356 C1355 1.355 . S
C1356 C1358 1.419 . S
C1357 C1352 1.425 . S
C1357 C1354 1.409 . S
C1357 C1355 1.415 . S
C1358 H1348 0.930 . S
C1358 C1356 1.419 . S
C1358 C1359 1.362 . S
C1359 H1349 0.930 . S
C1359 C1352 1.409 . S
C1359 C1358 1.362 . S
H1360 C1366 0.930 . S
H1361 C1369 0.930 . S
H1362 C1370 0.930 . S
H1363 C1371 0.930 . S
H1364 C1374 0.930 . S
H1365 C1375 0.930 . S
C1366 H1360 0.930 . S
C1366 C1367 1.355 . S
C1366 C1368 1.415 . S
C1367 C1366 1.355 . S
C1367 C1369 1.419 1_655 S
C1368 C1366 1.415 . S
C1368 C1373 1.425 1_655 S
C1368 C1375 1.409 . S
C1369 H1361 0.930 . S
C1369 C1367 1.419 1_455 S
C1369 C1370 1.362 . S
C1370 H1362 0.930 . S
C1370 C1369 1.362 . S
C1370 C1373 1.409 . S
C1371 H1363 0.930 . S
C1371 C1372 1.355 . S
C1371 C1373 1.415 . S
C1372 C1371 1.355 . S
C1372 C1374 1.419 1_455 S
C1373 C1368 1.425 1_455 S
C1373 C1370 1.409 . S
C1373 C1371 1.415 . S
C1374 H1364 0.930 . S
C1374 C1372 1.419 1_655 S
C1374 C1375 1.362 . S
C1375 H1365 0.930 . S
C1375 C1368 1.409 . S
C1375 C1374 1.362 . S
H1376 C1382 0.930 . S
H1377 C1385 0.930 . S
H1378 C1386 0.930 . S
H1379 C1387 0.930 . S
H1380 C1390 0.930 . S
H1381 C1391 0.930 . S
C1382 H1376 0.930 . S
C1382 C1383 1.355 . S
C1382 C1384 1.415 . S
C1383 C1382 1.355 . S
C1383 C1385 1.419 . S
C1384 C1382 1.415 . S
C1384 C1389 1.425 . S
C1384 C1391 1.409 . S
C1385 H1377 0.930 . S
C1385 C1383 1.419 . S
C1385 C1386 1.362 . S
C1386 H1378 0.930 . S
C1386 C1385 1.362 . S
C1386 C1389 1.409 . S
C1387 H1379 0.930 . S
C1387 C1388 1.355 . S
C1387 C1389 1.415 . S
C1388 C1387 1.355 . S
C1388 C1390 1.419 . S
C1389 C1384 1.425 . S
C1389 C1386 1.409 . S
C1389 C1387 1.415 . S
C1390 H1380 0.930 . S
C1390 C1388 1.419 . S
C1390 C1391 1.362 . S
C1391 H1381 0.930 . S
C1391 C1384 1.409 . S
C1391 C1390 1.362 . S
H1392 C1398 0.930 . S
H1393 C1401 0.930 . S
H1394 C1402 0.889 1_556 S
H1395 C1403 0.930 . S
H1396 C1406 0.930 . S
H1397 C1407 0.943 . S
C1398 H1392 0.930 . S
C1398 C1399 1.355 . S
C1398 C1400 1.415 . S
C1399 C1398 1.355 . S
C1399 C1401 1.419 1_545 S
C1400 C1398 1.415 . S
C1400 C1405 1.425 1_544 S
C1400 C1407 1.409 1_554 S
C1401 H1393 0.930 . S
C1401 C1399 1.419 1_565 S
C1401 C1402 1.448 . S
C1402 H1394 0.889 1_554 S
C1402 C1401 1.448 . S
C1402 C1405 1.369 1_554 S
C1403 H1395 0.930 . S
C1403 C1404 1.355 1_565 S
C1403 C1405 1.415 . S
C1404 C1403 1.355 1_545 S
C1404 C1406 1.419 . S
C1405 C1400 1.425 1_566 S
C1405 C1402 1.369 1_556 S
C1405 C1403 1.415 . S
C1406 H1396 0.930 . S
C1406 C1404 1.419 . S
C1406 C1407 1.362 . S
C1407 H1397 0.943 . S
C1407 C1400 1.409 1_556 S
C1407 C1406 1.362 . S
H1408 C1414 0.930 . S
H1409 C1417 0.930 . S
H1410 C1418 0.930 . S
H1411 C1419 0.930 . S
H1412 C1422 0.930 . S
H1413 C1423 0.930 . S
C1414 H1408 0.930 . S
C1414 C1415 1.355 . S
C1414 C1416 1.415 . S
C1415 C1414 1.355 . S
C1415 C1417 1.419 . S
C1416 C1414 1.415 . S
C1416 C1421 1.425 . S
C1416 C1423 1.409 . S
C1417 H1409 0.930 . S
C1417 C1415 1.419 . S
C1417 C1418 1.362 . S
C1418 H1410 0.930 . S
C1418 C1417 1.362 . S
C1418 C1421 1.409 . S
C1419 H1411 0.930 . S
C1419 C1420 1.355 . S
C1419 C1421 1.415 . S
C1420 C1419 1.355 . S
C1420 C1422 1.419 . S
C1421 C1416 1.425 . S
C1421 C1418 1.409 . S
C1421 C1419 1.415 . S
C1422 H1412 0.930 . S
C1422 C1420 1.419 . S
C1422 C1423 1.362 . S
C1423 H1413 0.930 . S
C1423 C1416 1.409 . S
C1423 C1422 1.362 . S
H1424 C1430 0.930 . S
H1425 C1433 0.930 . S
H1426 C1434 0.930 . S
H1427 C1435 0.930 . S
H1428 C1438 0.930 . S
H1429 C1439 0.930 . S
C1430 H1424 0.930 . S
C1430 C1431 1.355 . S
C1430 C1432 1.415 . S
C1431 C1430 1.355 . S
C1431 C1433 1.419 1_565 S
C1432 C1430 1.415 . S
C1432 C1437 1.425 . S
C1432 C1439 1.409 . S
C1433 H1425 0.930 . S
C1433 C1431 1.419 1_545 S
C1433 C1434 1.362 . S
C1434 H1426 0.930 . S
C1434 C1433 1.362 . S
C1434 C1437 1.409 1_545 S
C1435 H1427 0.930 . S
C1435 C1436 1.355 1_545 S
C1435 C1437 1.415 1_545 S
C1436 C1435 1.355 1_565 S
C1436 C1438 1.419 . S
C1437 C1432 1.425 . S
C1437 C1434 1.409 1_565 S
C1437 C1435 1.415 1_565 S
C1438 H1428 0.930 . S
C1438 C1436 1.419 . S
C1438 C1439 1.362 . S
C1439 H1429 0.930 . S
C1439 C1432 1.409 . S
C1439 C1438 1.362 . S
H1440 C1446 0.930 . S
H1441 C1449 0.930 . S
H1442 C1450 0.930 . S
H1443 C1451 0.930 . S
H1444 C1454 0.930 . S
H1445 C1455 0.930 . S
C1446 H1440 0.930 . S
C1446 C1447 1.355 . S
C1446 C1448 1.415 . S
C1447 C1446 1.355 . S
C1447 C1449 1.419 . S
C1448 C1446 1.415 . S
C1448 C1453 1.425 . S
C1448 C1455 1.409 . S
C1449 H1441 0.930 . S
C1449 C1447 1.419 . S
C1449 C1450 1.362 . S
C1450 H1442 0.930 . S
C1450 C1449 1.362 . S
C1450 C1453 1.409 . S
C1451 H1443 0.930 . S
C1451 C1452 1.355 . S
C1451 C1453 1.415 . S
C1452 C1451 1.355 . S
C1452 C1454 1.419 . S
C1453 C1448 1.425 . S
C1453 C1450 1.409 . S
C1453 C1451 1.415 . S
C1454 H1444 0.930 . S
C1454 C1452 1.419 . S
C1454 C1455 1.362 . S
C1455 H1445 0.930 . S
C1455 C1448 1.409 . S
C1455 C1454 1.362 . S
H1456 C1462 0.930 1_565 S
H1457 C1465 0.930 . S
H1458 C1466 0.930 1_556 S
H1459 C1467 0.930 . S
H1460 C1470 0.930 . S
H1461 C1471 0.930 . S
C1462 H1456 0.930 1_545 S
C1462 C1463 1.355 1_455 S
C1462 C1464 1.415 . S
C1463 C1462 1.355 1_655 S
C1463 C1465 1.419 . S
C1464 C1462 1.415 . S
C1464 C1469 1.425 1_454 S
C1464 C1471 1.409 1_545 S
C1465 H1457 0.930 . S
C1465 C1463 1.419 . S
C1465 C1466 1.362 . S
C1466 H1458 0.930 1_554 S
C1466 C1465 1.362 . S
C1466 C1469 1.409 1_554 S
C1467 H1459 0.930 . S
C1467 C1468 1.355 1_655 S
C1467 C1469 1.415 . S
C1468 C1467 1.355 1_455 S
C1468 C1470 1.419 1_545 S
C1469 C1464 1.425 1_656 S
C1469 C1466 1.409 1_556 S
C1469 C1467 1.415 . S
C1470 H1460 0.930 . S
C1470 C1468 1.419 1_565 S
C1470 C1471 1.362 1_556 S
C1471 H1461 0.930 . S
C1471 C1464 1.409 1_565 S
C1471 C1470 1.362 1_554 S
H1472 C1478 0.930 . S
H1473 C1481 0.930 . S
H1474 C1482 0.930 . S
H1475 C1483 0.930 . S
H1476 C1486 0.930 . S
H1477 C1487 0.930 . S
C1478 H1472 0.930 . S
C1478 C1479 1.355 . S
C1478 C1480 1.415 . S
C1479 C1478 1.355 . S
C1479 C1481 1.419 . S
C1480 C1478 1.415 . S
C1480 C1485 1.425 . S
C1480 C1487 1.409 . S
C1481 H1473 0.930 . S
C1481 C1479 1.419 . S
C1481 C1482 1.362 . S
C1482 H1474 0.930 . S
C1482 C1481 1.362 . S
C1482 C1485 1.409 . S
C1483 H1475 0.930 . S
C1483 C1484 1.355 . S
C1483 C1485 1.415 . S
C1484 C1483 1.355 . S
C1484 C1486 1.419 . S
C1485 C1480 1.425 . S
C1485 C1482 1.409 . S
C1485 C1483 1.415 . S
C1486 H1476 0.930 . S
C1486 C1484 1.419 . S
C1486 C1487 1.362 . S
C1487 H1477 0.930 . S
C1487 C1480 1.409 . S
C1487 C1486 1.362 . S
H1488 C1494 0.930 . S
H1489 C1497 0.930 . S
H1490 C1498 0.930 . S
H1491 C1499 0.930 . S
H1492 C1502 0.930 . S
H1493 C1503 0.930 . S
C1494 H1488 0.930 . S
C1494 C1495 1.355 . S
C1494 C1496 1.415 . S
C1495 C1494 1.355 . S
C1495 C1497 1.419 . S
C1496 C1494 1.415 . S
C1496 C1501 1.425 . S
C1496 C1503 1.409 . S
C1497 H1489 0.930 . S
C1497 C1495 1.419 . S
C1497 C1498 1.362 . S
C1498 H1490 0.930 . S
C1498 C1497 1.362 . S
C1498 C1501 1.409 . S
C1499 H1491 0.930 . S
C1499 C1500 1.355 . S
C1499 C1501 1.415 . S
C1500 C1499 1.355 . S
C1500 C1502 1.419 . S
C1501 C1496 1.425 . S
C1501 C1498 1.409 . S
C1501 C1499 1.415 . S
C1502 H1492 0.930 . S
C1502 C1500 1.419 . S
C1502 C1503 1.362 . S
C1503 H1493 0.930 . S
C1503 C1496 1.409 . S
C1503 C1502 1.362 . S
H1504 C1510 0.930 . S
H1505 C1513 0.930 . S
H1506 C1514 0.930 . S
H1507 C1515 0.930 . S
H1508 C1518 0.930 . S
H1509 C1519 0.930 . S
C1510 H1504 0.930 . S
C1510 C1511 1.355 . S
C1510 C1512 1.415 . S
C1511 C1510 1.355 . S
C1511 C1513 1.419 . S
C1512 C1510 1.415 . S
C1512 C1517 1.425 . S
C1512 C1519 1.409 . S
C1513 H1505 0.930 . S
C1513 C1511 1.419 . S
C1513 C1514 1.362 . S
C1514 H1506 0.930 . S
C1514 C1513 1.362 . S
C1514 C1517 1.409 . S
C1515 H1507 0.930 . S
C1515 C1516 1.355 . S
C1515 C1517 1.415 . S
C1516 C1515 1.355 . S
C1516 C1518 1.419 . S
C1517 C1512 1.425 . S
C1517 C1514 1.409 . S
C1517 C1515 1.415 . S
C1518 H1508 0.930 . S
C1518 C1516 1.419 . S
C1518 C1519 1.362 . S
C1519 H1509 0.930 . S
C1519 C1512 1.409 . S
C1519 C1518 1.362 . S
H1520 C1526 0.930 . S
H1521 C1529 0.930 . S
H1522 C1530 0.930 . S
H1523 C1531 0.930 . S
H1524 C1534 0.930 . S
H1525 C1535 0.930 . S
C1526 H1520 0.930 . S
C1526 C1527 1.355 . S
C1526 C1528 1.415 . S
C1527 C1526 1.355 . S
C1527 C1529 1.419 . S
C1528 C1526 1.415 . S
C1528 C1533 1.425 . S
C1528 C1535 1.409 . S
C1529 H1521 0.930 . S
C1529 C1527 1.419 . S
C1529 C1530 1.362 . S
C1530 H1522 0.930 . S
C1530 C1529 1.362 . S
C1530 C1533 1.409 . S
C1531 H1523 0.930 . S
C1531 C1532 1.355 . S
C1531 C1533 1.415 . S
C1532 C1531 1.355 . S
C1532 C1534 1.419 . S
C1533 C1528 1.425 . S
C1533 C1530 1.409 . S
C1533 C1531 1.415 . S
C1534 H1524 0.930 . S
C1534 C1532 1.419 . S
C1534 C1535 1.362 . S
C1535 H1525 0.930 . S
C1535 C1528 1.409 . S
C1535 C1534 1.362 . S
H1536 C1542 0.930 . S
H1537 C1545 0.930 . S
H1538 C1546 0.930 . S
H1539 C1547 0.930 . S
H1540 C1550 0.930 . S
H1541 C1551 0.930 . S
C1542 H1536 0.930 . S
C1542 C1543 1.355 . S
C1542 C1544 1.415 . S
C1543 C1542 1.355 . S
C1543 C1545 1.419 . S
C1544 C1542 1.415 . S
C1544 C1549 1.428 . S
C1544 C1551 1.409 1_556 S
C1545 H1537 0.930 . S
C1545 C1543 1.419 . S
C1545 C1546 1.362 . S
C1546 H1538 0.930 . S
C1546 C1545 1.362 . S
C1546 C1549 1.417 . S
C1547 H1539 0.930 . S
C1547 C1548 1.355 . S
C1547 C1549 1.404 1_554 S
C1548 C1547 1.355 . S
C1548 C1550 1.419 . S
C1549 C1544 1.428 . S
C1549 C1546 1.417 . S
C1549 C1547 1.404 1_556 S
C1550 H1540 0.930 . S
C1550 C1548 1.419 . S
C1550 C1551 1.362 . S
C1551 H1541 0.930 . S
C1551 C1544 1.409 1_554 S
C1551 C1550 1.362 . S
H1552 C1558 0.930 . S
H1553 C1561 0.930 . S
H1554 C1562 0.930 . S
H1555 C1563 0.930 . S
H1556 C1566 0.930 . S
H1557 C1567 0.930 . S
C1558 H1552 0.930 . S
C1558 C1559 1.355 . S
C1558 C1560 1.415 . S
C1559 C1558 1.355 . S
C1559 C1561 1.419 1_455 S
C1560 C1558 1.415 . S
C1560 C1565 1.425 1_455 S
C1560 C1567 1.409 . S
C1561 H1553 0.930 . S
C1561 C1559 1.419 1_655 S
C1561 C1562 1.362 . S
C1562 H1554 0.930 . S
C1562 C1561 1.362 . S
C1562 C1565 1.409 . S
C1563 H1555 0.930 . S
C1563 C1564 1.355 . S
C1563 C1565 1.415 . S
C1564 C1563 1.355 . S
C1564 C1566 1.419 1_655 S
C1565 C1560 1.425 1_655 S
C1565 C1562 1.409 . S
C1565 C1563 1.415 . S
C1566 H1556 0.930 . S
C1566 C1564 1.419 1_455 S
C1566 C1567 1.362 . S
C1567 H1557 0.930 . S
C1567 C1560 1.409 . S
C1567 C1566 1.362 . S
H1568 C1574 0.930 . S
H1569 C1577 0.930 . S
H1570 C1578 0.930 . S
H1571 C1579 0.930 . S
H1572 C1582 0.930 . S
H1573 C1583 0.930 . S
C1574 H1568 0.930 . S
C1574 C1575 1.355 . S
C1574 C1576 1.415 1_556 S
C1575 C1574 1.355 . S
C1575 C1577 1.419 1_655 S
C1576 C1574 1.415 1_554 S
C1576 C1581 1.425 1_655 S
C1576 C1583 1.409 . S
C1577 H1569 0.930 . S
C1577 C1575 1.419 1_455 S
C1577 C1578 1.362 . S
C1578 H1570 0.930 . S
C1578 C1577 1.362 . S
C1578 C1581 1.409 1_556 S
C1579 H1571 0.930 . S
C1579 C1580 1.355 . S
C1579 C1581 1.415 . S
C1580 C1579 1.355 . S
C1580 C1582 1.419 1_455 S
C1581 C1576 1.425 1_455 S
C1581 C1578 1.409 1_554 S
C1581 C1579 1.415 . S
C1582 H1572 0.930 . S
C1582 C1580 1.419 1_655 S
C1582 C1583 1.362 . S
C1583 H1573 0.930 . S
C1583 C1576 1.409 . S
C1583 C1582 1.362 . S
H1584 C1590 0.930 . S
H1585 C1593 0.930 . S
H1586 C1594 0.930 . S
H1587 C1595 0.930 . S
H1588 C1598 0.930 . S
H1589 C1599 0.930 . S
C1590 H1584 0.930 . S
C1590 C1591 1.355 . S
C1590 C1592 1.415 . S
C1591 C1590 1.355 . S
C1591 C1593 1.419 . S
C1592 C1590 1.415 . S
C1592 C1597 1.425 . S
C1592 C1599 1.409 . S
C1593 H1585 0.930 . S
C1593 C1591 1.419 . S
C1593 C1594 1.362 . S
C1594 H1586 0.930 . S
C1594 C1593 1.362 . S
C1594 C1597 1.409 . S
C1595 H1587 0.930 . S
C1595 C1596 1.355 . S
C1595 C1597 1.415 . S
C1596 C1595 1.355 . S
C1596 C1598 1.419 . S
C1597 C1592 1.425 . S
C1597 C1594 1.409 . S
C1597 C1595 1.415 . S
C1598 H1588 0.930 . S
C1598 C1596 1.419 . S
C1598 C1599 1.362 . S
C1599 H1589 0.930 . S
C1599 C1592 1.409 . S
C1599 C1598 1.362 . S
H1600 C1606 0.930 . S
H1601 C1609 0.930 1_545 S
H1602 C1610 0.930 . S
H1603 C1611 0.930 . S
H1604 C1614 0.930 . S
H1605 C1615 0.930 . S
C1606 H1600 0.930 . S
C1606 C1607 1.355 1_565 S
C1606 C1608 1.415 . S
C1607 C1606 1.355 1_545 S
C1607 C1609 1.419 1_545 S
C1608 C1606 1.415 . S
C1608 C1613 1.425 . S
C1608 C1615 1.409 . S
C1609 H1601 0.930 1_565 S
C1609 C1607 1.419 1_565 S
C1609 C1610 1.362 . S
C1610 H1602 0.930 . S
C1610 C1609 1.362 . S
C1610 C1613 1.409 . S
C1611 H1603 0.930 . S
C1611 C1612 1.355 . S
C1611 C1613 1.415 . S
C1612 C1611 1.355 . S
C1612 C1614 1.419 . S
C1613 C1608 1.425 . S
C1613 C1610 1.409 . S
C1613 C1611 1.415 . S
C1614 H1604 0.930 . S
C1614 C1612 1.419 . S
C1614 C1615 1.362 . S
C1615 H1605 0.930 . S
C1615 C1608 1.409 . S
C1615 C1614 1.362 . S
H1616 C1622 0.930 . S
H1617 C1625 0.930 . S
H1618 C1626 0.930 . S
H1619 C1627 0.930 . S
H1620 C1630 0.930 . S
H1621 C1631 0.930 . S
C1622 H1616 0.930 . S
C1622 C1623 1.355 1_565 S
C1622 C1624 1.415 . S
C1623 C1622 1.355 1_545 S
C1623 C1625 1.419 . S
C1624 C1622 1.415 . S
C1624 C1629 1.425 1_565 S
C1624 C1631 1.409 . S
C1625 H1617 0.930 . S
C1625 C1623 1.419 . S
C1625 C1626 1.362 . S
C1626 H1618 0.930 . S
C1626 C1625 1.362 . S
C1626 C1629 1.409 . S
C1627 H1619 0.930 . S
C1627 C1628 1.355 1_545 S
C1627 C1629 1.415 . S
C1628 C1627 1.355 1_565 S
C1628 C1630 1.419 . S
C1629 C1624 1.425 1_545 S
C1629 C1626 1.409 . S
C1629 C1627 1.415 . S
C1630 H1620 0.930 . S
C1630 C1628 1.419 . S
C1630 C1631 1.362 . S
C1631 H1621 0.930 . S
C1631 C1624 1.409 . S
C1631 C1630 1.362 . S
H1632 C1638 0.930 . S
H1633 C1641 0.930 . S
H1634 C1642 0.930 . S
H1635 C1643 0.930 . S
H1636 C1646 0.928 1_565 S
H1637 C1647 0.930 . S
C1638 H1632 0.930 . S
C1638 C1639 1.355 . S
C1638 C1640 1.415 . S
C1639 C1638 1.355 . S
C1639 C1641 1.419 . S
C1640 C1638 1.415 . S
C1640 C1645 1.425 . S
C1640 C1647 1.409 . S
C1641 H1633 0.930 . S
C1641 C1639 1.419 . S
C1641 C1642 1.362 . S
C1642 H1634 0.930 . S
C1642 C1641 1.362 . S
C1642 C1645 1.409 . S
C1643 H1635 0.930 . S
C1643 C1644 1.355 1_545 S
C1643 C1645 1.415 . S
C1644 C1643 1.355 1_565 S
C1644 C1646 1.419 1_565 S
C1645 C1640 1.425 . S
C1645 C1642 1.409 . S
C1645 C1643 1.415 . S
C1646 H1636 0.928 1_545 S
C1646 C1644 1.419 1_545 S
C1646 C1647 1.362 . S
C1647 H1637 0.930 . S
C1647 C1640 1.409 . S
C1647 C1646 1.362 . S
H1648 C1654 0.930 . S
H1649 C1657 0.930 . S
H1650 C1658 0.930 . S
H1651 C1659 0.930 . S
H1652 C1662 0.930 . S
H1653 C1663 0.930 . S
C1654 H1648 0.930 . S
C1654 C1655 1.355 . S
C1654 C1656 1.415 . S
C1655 C1654 1.355 . S
C1655 C1657 1.419 1_545 S
C1656 C1654 1.415 . S
C1656 C1661 1.425 1_545 S
C1656 C1663 1.409 . S
C1657 H1649 0.930 . S
C1657 C1655 1.419 1_565 S
C1657 C1658 1.362 . S
C1658 H1650 0.930 . S
C1658 C1657 1.362 . S
C1658 C1661 1.409 . S
C1659 H1651 0.930 . S
C1659 C1660 1.355 . S
C1659 C1661 1.415 . S
C1660 C1659 1.355 . S
C1660 C1662 1.419 1_565 S
C1661 C1656 1.425 1_565 S
C1661 C1658 1.409 . S
C1661 C1659 1.415 . S
C1662 H1652 0.930 . S
C1662 C1660 1.419 1_545 S
C1662 C1663 1.362 . S
C1663 H1653 0.930 . S
C1663 C1656 1.409 . S
C1663 C1662 1.362 . S
H1664 C1670 0.930 . S
H1665 C1673 0.930 . S
H1666 C1674 0.930 . S
H1667 C1675 0.930 . S
H1668 C1678 0.930 1_565 S
H1669 C1679 0.930 . S
C1670 H1664 0.930 . S
C1670 C1671 1.355 . S
C1670 C1672 1.415 . S
C1671 C1670 1.355 . S
C1671 C1673 1.419 . S
C1672 C1670 1.415 . S
C1672 C1677 1.425 . S
C1672 C1679 1.409 . S
C1673 H1665 0.930 . S
C1673 C1671 1.419 . S
C1673 C1674 1.362 . S
C1674 H1666 0.930 . S
C1674 C1673 1.362 . S
C1674 C1677 1.409 . S
C1675 H1667 0.930 . S
C1675 C1676 1.355 1_545 S
C1675 C1677 1.415 . S
C1676 C1675 1.355 1_565 S
C1676 C1678 1.419 1_565 S
C1677 C1672 1.425 . S
C1677 C1674 1.409 . S
C1677 C1675 1.415 . S
C1678 H1668 0.930 1_545 S
C1678 C1676 1.419 1_545 S
C1678 C1679 1.362 . S
C1679 H1669 0.930 . S
C1679 C1672 1.409 . S
C1679 C1678 1.362 . S
H1680 C1686 0.930 . S
H1681 C1689 0.930 . S
H1682 C1690 0.930 . S
H1683 C1691 0.930 . S
H1684 C1694 0.930 . S
H1685 C1695 0.930 . S
C1686 H1680 0.930 . S
C1686 C1687 1.355 1_545 S
C1686 C1688 1.415 . S
C1687 C1686 1.355 1_565 S
C1687 C1689 1.419 . S
C1688 C1686 1.415 . S
C1688 C1693 1.425 1_545 S
C1688 C1695 1.409 . S
C1689 H1681 0.930 . S
C1689 C1687 1.419 . S
C1689 C1690 1.362 . S
C1690 H1682 0.930 . S
C1690 C1689 1.362 . S
C1690 C1693 1.409 . S
C1691 H1683 0.930 . S
C1691 C1692 1.355 1_565 S
C1691 C1693 1.415 . S
C1692 C1691 1.355 1_545 S
C1692 C1694 1.419 . S
C1693 C1688 1.425 1_565 S
C1693 C1690 1.409 . S
C1693 C1691 1.415 . S
C1694 H1684 0.930 . S
C1694 C1692 1.419 . S
C1694 C1695 1.362 . S
C1695 H1685 0.930 . S
C1695 C1688 1.409 . S
C1695 C1694 1.362 . S
H1696 C1702 0.930 . S
H1697 C1705 0.930 1_545 S
H1698 C1706 0.930 . S
H1699 C1707 0.930 . S
H1700 C1710 0.930 . S
H1701 C1711 0.930 . S
C1702 H1696 0.930 . S
C1702 C1703 1.355 1_565 S
C1702 C1704 1.415 . S
C1703 C1702 1.355 1_545 S
C1703 C1705 1.419 1_545 S
C1704 C1702 1.415 . S
C1704 C1709 1.425 . S
C1704 C1711 1.409 . S
C1705 H1697 0.930 1_565 S
C1705 C1703 1.419 1_565 S
C1705 C1706 1.362 . S
C1706 H1698 0.930 . S
C1706 C1705 1.362 . S
C1706 C1709 1.409 . S
C1707 H1699 0.930 . S
C1707 C1708 1.355 . S
C1707 C1709 1.415 . S
C1708 C1707 1.355 . S
C1708 C1710 1.419 . S
C1709 C1704 1.425 . S
C1709 C1706 1.409 . S
C1709 C1707 1.415 . S
C1710 H1700 0.930 . S
C1710 C1708 1.419 . S
C1710 C1711 1.362 . S
C1711 H1701 0.930 . S
C1711 C1704 1.409 . S
C1711 C1710 1.362 . S
H1712 C1718 0.930 . S
H1713 C1721 0.930 . S
H1714 C1722 0.930 . S
H1715 C1723 0.930 . S
H1716 C1726 0.930 . S
H1717 C1727 0.930 . S
C1718 H1712 0.930 . S
C1718 C1719 1.355 . S
C1718 C1720 1.415 . S
C1719 C1718 1.355 . S
C1719 C1721 1.419 1_545 S
C1720 C1718 1.415 . S
C1720 C1725 1.425 1_545 S
C1720 C1727 1.409 . S
C1721 H1713 0.930 . S
C1721 C1719 1.419 1_565 S
C1721 C1722 1.362 . S
C1722 H1714 0.930 . S
C1722 C1721 1.362 . S
C1722 C1725 1.409 . S
C1723 H1715 0.930 . S
C1723 C1724 1.355 . S
C1723 C1725 1.415 . S
C1724 C1723 1.355 . S
C1724 C1726 1.419 1_565 S
C1725 C1720 1.425 1_565 S
C1725 C1722 1.409 . S
C1725 C1723 1.415 . S
C1726 H1716 0.930 . S
C1726 C1724 1.419 1_545 S
C1726 C1727 1.362 . S
C1727 H1717 0.930 . S
C1727 C1720 1.409 . S
C1727 C1726 1.362 . S
H1728 C1734 0.930 . S
H1729 C1737 0.930 . S
H1730 C1738 0.930 . S
H1731 C1739 0.930 . S
H1732 C1742 0.930 1_565 S
H1733 C1743 0.930 . S
C1734 H1728 0.930 . S
C1734 C1735 1.355 . S
C1734 C1736 1.415 . S
C1735 C1734 1.355 . S
C1735 C1737 1.419 . S
C1736 C1734 1.415 . S
C1736 C1741 1.425 . S
C1736 C1743 1.409 . S
C1737 H1729 0.930 . S
C1737 C1735 1.419 . S
C1737 C1738 1.362 . S
C1738 H1730 0.930 . S
C1738 C1737 1.362 . S
C1738 C1741 1.409 . S
C1739 H1731 0.930 . S
C1739 C1740 1.355 1_545 S
C1739 C1741 1.415 . S
C1740 C1739 1.355 1_565 S
C1740 C1742 1.419 1_565 S
C1741 C1736 1.425 . S
C1741 C1738 1.409 . S
C1741 C1739 1.415 . S
C1742 H1732 0.930 1_545 S
C1742 C1740 1.419 1_545 S
C1742 C1743 1.362 . S
C1743 H1733 0.930 . S
C1743 C1736 1.409 . S
C1743 C1742 1.362 . S
H1744 C1750 0.930 . S
H1745 C1753 0.930 . S
H1746 C1754 0.930 . S
H1747 C1755 0.930 . S
H1748 C1758 0.930 . S
H1749 C1759 0.930 . S
C1750 H1744 0.930 . S
C1750 C1751 1.355 . S
C1750 C1752 1.415 . S
C1751 C1750 1.355 . S
C1751 C1753 1.419 1_565 S
C1752 C1750 1.415 . S
C1752 C1757 1.425 1_565 S
C1752 C1759 1.409 . S
C1753 H1745 0.930 . S
C1753 C1751 1.419 1_545 S
C1753 C1754 1.362 . S
C1754 H1746 0.930 . S
C1754 C1753 1.362 . S
C1754 C1757 1.409 . S
C1755 H1747 0.930 . S
C1755 C1756 1.355 . S
C1755 C1757 1.415 . S
C1756 C1755 1.355 . S
C1756 C1758 1.419 1_545 S
C1757 C1752 1.425 1_545 S
C1757 C1754 1.409 . S
C1757 C1755 1.415 . S
C1758 H1748 0.930 . S
C1758 C1756 1.419 1_565 S
C1758 C1759 1.362 . S
C1759 H1749 0.930 . S
C1759 C1752 1.409 . S
C1759 C1758 1.362 . S
H1760 C1766 0.930 . S
H1761 C1769 0.930 . S
H1762 C1770 0.930 . S
H1763 C1771 0.930 . S
H1764 C1774 0.933 . S
H1765 C1775 0.930 . S
C1766 H1760 0.930 . S
C1766 C1767 1.355 . S
C1766 C1768 1.415 . S
C1767 C1766 1.355 . S
C1767 C1769 1.419 . S
C1768 C1766 1.415 . S
C1768 C1773 1.425 . S
C1768 C1775 1.409 . S
C1769 H1761 0.930 . S
C1769 C1767 1.419 . S
C1769 C1770 1.362 . S
C1770 H1762 0.930 . S
C1770 C1769 1.362 . S
C1770 C1773 1.409 . S
C1771 H1763 0.930 . S
C1771 C1772 1.355 1_565 S
C1771 C1773 1.415 . S
C1772 C1771 1.355 1_545 S
C1772 C1774 1.419 1_545 S
C1773 C1768 1.425 . S
C1773 C1770 1.409 . S
C1773 C1771 1.415 . S
C1774 H1764 0.933 . S
C1774 C1772 1.419 1_565 S
C1774 C1775 1.362 . S
C1775 H1765 0.930 . S
C1775 C1768 1.409 . S
C1775 C1774 1.362 . S
H1776 C1782 0.930 . S
H1777 C1785 0.930 . S
H1778 C1786 0.930 . S
H1779 C1787 0.930 . S
H1780 C1790 0.930 . S
H1781 C1791 0.930 . S
C1782 H1776 0.930 . S
C1782 C1783 1.355 . S
C1782 C1784 1.415 . S
C1783 C1782 1.355 . S
C1783 C1785 1.419 . S
C1784 C1782 1.415 . S
C1784 C1789 1.425 1_545 S
C1784 C1791 1.409 1_545 S
C1785 H1777 0.930 . S
C1785 C1783 1.419 . S
C1785 C1786 1.362 . S
C1786 H1778 0.930 . S
C1786 C1785 1.362 . S
C1786 C1789 1.409 1_545 S
C1787 H1779 0.930 . S
C1787 C1788 1.355 . S
C1787 C1789 1.415 . S
C1788 C1787 1.355 . S
C1788 C1790 1.419 . S
C1789 C1784 1.425 1_565 S
C1789 C1786 1.409 1_565 S
C1789 C1787 1.415 . S
C1790 H1780 0.930 . S
C1790 C1788 1.419 . S
C1790 C1791 1.362 . S
C1791 H1781 0.930 . S
C1791 C1784 1.409 1_565 S
C1791 C1790 1.362 . S
H1792 C1798 0.930 . S
H1793 C1801 0.930 1_545 S
H1794 C1802 0.930 . S
H1795 C1803 0.930 . S
H1796 C1806 0.930 . S
H1797 C1807 0.930 . S
C1798 H1792 0.930 . S
C1798 C1799 1.355 1_565 S
C1798 C1800 1.415 . S
C1799 C1798 1.355 1_545 S
C1799 C1801 1.419 1_545 S
C1800 C1798 1.415 . S
C1800 C1805 1.425 . S
C1800 C1807 1.409 . S
C1801 H1793 0.930 1_565 S
C1801 C1799 1.419 1_565 S
C1801 C1802 1.362 . S
C1802 H1794 0.930 . S
C1802 C1801 1.362 . S
C1802 C1805 1.409 . S
C1803 H1795 0.930 . S
C1803 C1804 1.355 . S
C1803 C1805 1.415 . S
C1804 C1803 1.355 . S
C1804 C1806 1.419 . S
C1805 C1800 1.425 . S
C1805 C1802 1.409 . S
C1805 C1803 1.415 . S
C1806 H1796 0.930 . S
C1806 C1804 1.419 . S
C1806 C1807 1.362 . S
C1807 H1797 0.930 . S
C1807 C1800 1.409 . S
C1807 C1806 1.362 . S
H1808 C1814 0.930 . S
H1809 C1817 0.930 . S
H1810 C1818 0.930 . S
H1811 C1819 0.930 . S
H1812 C1822 0.930 . S
H1813 C1823 0.930 . S
C1814 H1808 0.930 . S
C1814 C1815 1.355 1_565 S
C1814 C1816 1.415 . S
C1815 C1814 1.355 1_545 S
C1815 C1817 1.419 . S
C1816 C1814 1.415 . S
C1816 C1821 1.425 1_565 S
C1816 C1823 1.409 . S
C1817 H1809 0.930 . S
C1817 C1815 1.419 . S
C1817 C1818 1.362 . S
C1818 H1810 0.930 . S
C1818 C1817 1.362 . S
C1818 C1821 1.409 . S
C1819 H1811 0.930 . S
C1819 C1820 1.355 1_545 S
C1819 C1821 1.415 . S
C1820 C1819 1.355 1_565 S
C1820 C1822 1.419 . S
C1821 C1816 1.425 1_545 S
C1821 C1818 1.409 . S
C1821 C1819 1.415 . S
C1822 H1812 0.930 . S
C1822 C1820 1.419 . S
C1822 C1823 1.362 . S
C1823 H1813 0.930 . S
C1823 C1816 1.409 . S
C1823 C1822 1.362 . S
H1824 C1830 0.930 . S
H1825 C1833 0.930 . S
H1826 C1834 0.930 . S
H1827 C1835 0.930 . S
H1828 C1838 0.930 1_565 S
H1829 C1839 0.930 . S
C1830 H1824 0.930 . S
C1830 C1831 1.355 . S
C1830 C1832 1.415 . S
C1831 C1830 1.355 . S
C1831 C1833 1.419 . S
C1832 C1830 1.415 . S
C1832 C1837 1.425 . S
C1832 C1839 1.409 . S
C1833 H1825 0.930 . S
C1833 C1831 1.419 . S
C1833 C1834 1.362 . S
C1834 H1826 0.930 . S
C1834 C1833 1.362 . S
C1834 C1837 1.409 . S
C1835 H1827 0.930 . S
C1835 C1836 1.355 1_545 S
C1835 C1837 1.415 . S
C1836 C1835 1.355 1_565 S
C1836 C1838 1.419 1_565 S
C1837 C1832 1.425 . S
C1837 C1834 1.409 . S
C1837 C1835 1.415 . S
C1838 H1828 0.930 1_545 S
C1838 C1836 1.419 1_545 S
C1838 C1839 1.362 . S
C1839 H1829 0.930 . S
C1839 C1832 1.409 . S
C1839 C1838 1.362 . S
H1840 C1846 0.930 . S
H1841 C1849 0.930 . S
H1842 C1850 0.930 . S
H1843 C1851 0.932 . S
H1844 C1854 0.930 . S
H1845 C1855 0.930 . S
C1846 H1840 0.930 . S
C1846 C1847 1.355 . S
C1846 C1848 1.415 1_545 S
C1847 C1846 1.355 . S
C1847 C1849 1.419 . S
C1848 C1846 1.415 1_565 S
C1848 C1853 1.425 1_565 S
C1848 C1855 1.409 . S
C1849 H1841 0.930 . S
C1849 C1847 1.419 . S
C1849 C1850 1.362 . S
C1850 H1842 0.930 . S
C1850 C1849 1.362 . S
C1850 C1853 1.409 . S
C1851 H1843 0.932 . S
C1851 C1852 1.355 . S
C1851 C1853 1.415 1_565 S
C1852 C1851 1.355 . S
C1852 C1854 1.419 . S
C1853 C1848 1.425 1_545 S
C1853 C1850 1.409 . S
C1853 C1851 1.415 1_545 S
C1854 H1844 0.930 . S
C1854 C1852 1.419 . S
C1854 C1855 1.362 . S
C1855 H1845 0.930 . S
C1855 C1848 1.409 . S
C1855 C1854 1.362 . S
H1856 C1862 0.930 . S
H1857 C1865 0.930 . S
H1858 C1866 0.930 . S
H1859 C1867 0.930 . S
H1860 C1870 0.930 . S
H1861 C1871 0.930 . S
C1862 H1856 0.930 . S
C1862 C1863 1.355 . S
C1862 C1864 1.415 . S
C1863 C1862 1.355 . S
C1863 C1865 1.419 . S
C1864 C1862 1.415 . S
C1864 C1869 1.425 . S
C1864 C1871 1.409 . S
C1865 H1857 0.930 . S
C1865 C1863 1.419 . S
C1865 C1866 1.362 . S
C1866 H1858 0.930 . S
C1866 C1865 1.362 . S
C1866 C1869 1.409 . S
C1867 H1859 0.930 . S
C1867 C1868 1.355 . S
C1867 C1869 1.415 . S
C1868 C1867 1.355 . S
C1868 C1870 1.419 . S
C1869 C1864 1.425 . S
C1869 C1866 1.409 . S
C1869 C1867 1.415 . S
C1870 H1860 0.930 . S
C1870 C1868 1.419 . S
C1870 C1871 1.362 . S
C1871 H1861 0.930 . S
C1871 C1864 1.409 . S
C1871 C1870 1.362 . S
H1872 C1878 0.930 . S
H1873 C1881 0.930 . S
H1874 C1882 0.930 . S
H1875 C1883 0.930 . S
H1876 C1886 0.930 . S
H1877 C1887 0.930 . S
C1878 H1872 0.930 . S
C1878 C1879 1.355 . S
C1878 C1880 1.415 . S
C1879 C1878 1.355 . S
C1879 C1881 1.419 . S
C1880 C1878 1.415 . S
C1880 C1885 1.425 . S
C1880 C1887 1.409 . S
C1881 H1873 0.930 . S
C1881 C1879 1.419 . S
C1881 C1882 1.362 . S
C1882 H1874 0.930 . S
C1882 C1881 1.362 . S
C1882 C1885 1.409 . S
C1883 H1875 0.930 . S
C1883 C1884 1.355 . S
C1883 C1885 1.415 . S
C1884 C1883 1.355 . S
C1884 C1886 1.419 . S
C1885 C1880 1.425 . S
C1885 C1882 1.409 . S
C1885 C1883 1.415 . S
C1886 H1876 0.930 . S
C1886 C1884 1.419 . S
C1886 C1887 1.362 . S
C1887 H1877 0.930 . S
C1887 C1880 1.409 . S
C1887 C1886 1.362 . S
H1888 C1894 0.930 . S
H1889 C1897 0.930 . S
H1890 C1898 0.930 . S
H1891 C1899 0.930 . S
H1892 C1902 0.930 . S
H1893 C1903 0.930 . S
C1894 H1888 0.930 . S
C1894 C1895 1.355 . S
C1894 C1896 1.415 . S
C1895 C1894 1.355 . S
C1895 C1897 1.419 . S
C1896 C1894 1.415 . S
C1896 C1901 1.425 . S
C1896 C1903 1.409 . S
C1897 H1889 0.930 . S
C1897 C1895 1.419 . S
C1897 C1898 1.362 . S
C1898 H1890 0.930 . S
C1898 C1897 1.362 . S
C1898 C1901 1.409 . S
C1899 H1891 0.930 . S
C1899 C1900 1.355 . S
C1899 C1901 1.415 . S
C1900 C1899 1.355 . S
C1900 C1902 1.419 . S
C1901 C1896 1.425 . S
C1901 C1898 1.409 . S
C1901 C1899 1.415 . S
C1902 H1892 0.930 . S
C1902 C1900 1.419 . S
C1902 C1903 1.362 . S
C1903 H1893 0.930 . S
C1903 C1896 1.409 . S
C1903 C1902 1.362 . S
H1904 C1910 0.930 . S
H1905 C1913 0.930 . S
H1906 C1914 0.930 . S
H1907 C1915 0.930 . S
H1908 C1918 0.930 . S
H1909 C1919 0.930 . S
C1910 H1904 0.930 . S
C1910 C1911 1.355 . S
C1910 C1912 1.415 . S
C1911 C1910 1.355 . S
C1911 C1913 1.419 . S
C1912 C1910 1.415 . S
C1912 C1917 1.425 . S
C1912 C1919 1.409 . S
C1913 H1905 0.930 . S
C1913 C1911 1.419 . S
C1913 C1914 1.362 . S
C1914 H1906 0.930 . S
C1914 C1913 1.362 . S
C1914 C1917 1.409 . S
C1915 H1907 0.930 . S
C1915 C1916 1.355 . S
C1915 C1917 1.415 . S
C1916 C1915 1.355 . S
C1916 C1918 1.419 . S
C1917 C1912 1.425 . S
C1917 C1914 1.409 . S
C1917 C1915 1.415 . S
C1918 H1908 0.930 . S
C1918 C1916 1.419 . S
C1918 C1919 1.362 . S
C1919 H1909 0.930 . S
C1919 C1912 1.409 . S
C1919 C1918 1.362 . S
H1920 C1926 0.930 . S
H1921 C1929 0.930 . S
H1922 C1930 0.930 . S
H1923 C1931 0.930 . S
H1924 C1934 0.930 . S
H1925 C1935 0.930 . S
C1926 H1920 0.930 . S
C1926 C1927 1.355 . S
C1926 C1928 1.415 . S
C1927 C1926 1.355 . S
C1927 C1929 1.419 . S
C1928 C1926 1.415 . S
C1928 C1933 1.425 . S
C1928 C1935 1.409 . S
C1929 H1921 0.930 . S
C1929 C1927 1.419 . S
C1929 C1930 1.362 . S
C1930 H1922 0.930 . S
C1930 C1929 1.362 . S
C1930 C1933 1.409 . S
C1931 H1923 0.930 . S
C1931 C1932 1.355 . S
C1931 C1933 1.415 . S
C1932 C1931 1.355 . S
C1932 C1934 1.419 . S
C1933 C1928 1.425 . S
C1933 C1930 1.409 . S
C1933 C1931 1.415 . S
C1934 H1924 0.930 . S
C1934 C1932 1.419 . S
C1934 C1935 1.362 . S
C1935 H1925 0.930 . S
C1935 C1928 1.409 . S
C1935 C1934 1.362 . S
H1936 C1942 0.930 . S
H1937 C1945 0.930 . S
H1938 C1946 0.930 . S
H1939 C1947 0.930 . S
H1940 C1950 0.930 . S
H1941 C1951 0.930 . S
C1942 H1936 0.930 . S
C1942 C1943 1.355 . S
C1942 C1944 1.415 . S
C1943 C1942 1.355 . S
C1943 C1945 1.419 . S
C1944 C1942 1.415 . S
C1944 C1949 1.425 . S
C1944 C1951 1.409 . S
C1945 H1937 0.930 . S
C1945 C1943 1.419 . S
C1945 C1946 1.362 . S
C1946 H1938 0.930 . S
C1946 C1945 1.362 . S
C1946 C1949 1.409 . S
C1947 H1939 0.930 . S
C1947 C1948 1.355 . S
C1947 C1949 1.415 . S
C1948 C1947 1.355 . S
C1948 C1950 1.419 . S
C1949 C1944 1.425 . S
C1949 C1946 1.409 . S
C1949 C1947 1.415 . S
C1950 H1940 0.930 . S
C1950 C1948 1.419 . S
C1950 C1951 1.362 . S
C1951 H1941 0.930 . S
C1951 C1944 1.409 . S
C1951 C1950 1.362 . S
H1952 C1958 0.930 . S
H1953 C1961 0.930 . S
H1954 C1962 0.930 . S
H1955 C1963 0.930 . S
H1956 C1966 0.930 . S
H1957 C1967 0.930 . S
C1958 H1952 0.930 . S
C1958 C1959 1.355 . S
C1958 C1960 1.415 . S
C1959 C1958 1.355 . S
C1959 C1961 1.419 . S
C1960 C1958 1.415 . S
C1960 C1965 1.425 . S
C1960 C1967 1.409 . S
C1961 H1953 0.930 . S
C1961 C1959 1.419 . S
C1961 C1962 1.362 . S
C1962 H1954 0.930 . S
C1962 C1961 1.362 . S
C1962 C1965 1.409 . S
C1963 H1955 0.930 . S
C1963 C1964 1.355 . S
C1963 C1965 1.415 . S
C1964 C1963 1.355 . S
C1964 C1966 1.419 . S
C1965 C1960 1.425 . S
C1965 C1962 1.409 . S
C1965 C1963 1.415 . S
C1966 H1956 0.930 . S
C1966 C1964 1.419 . S
C1966 C1967 1.362 . S
C1967 H1957 0.930 . S
C1967 C1960 1.409 . S
C1967 C1966 1.362 . S
H1968 C1974 0.930 . S
H1969 C1977 0.930 . S
H1970 C1978 0.930 . S
H1971 C1979 0.930 . S
H1972 C1982 0.930 . S
H1973 C1983 0.930 . S
C1974 H1968 0.930 . S
C1974 C1975 1.355 . S
C1974 C1976 1.415 . S
C1975 C1974 1.355 . S
C1975 C1977 1.419 . S
C1976 C1974 1.415 . S
C1976 C1981 1.425 . S
C1976 C1983 1.409 . S
C1977 H1969 0.930 . S
C1977 C1975 1.419 . S
C1977 C1978 1.362 . S
C1978 H1970 0.930 . S
C1978 C1977 1.362 . S
C1978 C1981 1.409 . S
C1979 H1971 0.930 . S
C1979 C1980 1.355 . S
C1979 C1981 1.415 . S
C1980 C1979 1.355 . S
C1980 C1982 1.419 . S
C1981 C1976 1.425 . S
C1981 C1978 1.409 . S
C1981 C1979 1.415 . S
C1982 H1972 0.930 . S
C1982 C1980 1.419 . S
C1982 C1983 1.362 . S
C1983 H1973 0.930 . S
C1983 C1976 1.409 . S
C1983 C1982 1.362 . S
H1984 C1990 0.930 . S
H1985 C1993 0.930 . S
H1986 C1994 0.930 . S
H1987 C1995 0.930 . S
H1988 C1998 0.930 . S
H1989 C1999 0.930 . S
C1990 H1984 0.930 . S
C1990 C1991 1.355 . S
C1990 C1992 1.415 . S
C1991 C1990 1.355 . S
C1991 C1993 1.419 . S
C1992 C1990 1.415 . S
C1992 C1997 1.425 . S
C1992 C1999 1.409 . S
C1993 H1985 0.930 . S
C1993 C1991 1.419 . S
C1993 C1994 1.362 . S
C1994 H1986 0.930 . S
C1994 C1993 1.362 . S
C1994 C1997 1.409 . S
C1995 H1987 0.930 . S
C1995 C1996 1.355 . S
C1995 C1997 1.415 . S
C1996 C1995 1.355 . S
C1996 C1998 1.419 . S
C1997 C1992 1.425 . S
C1997 C1994 1.409 . S
C1997 C1995 1.415 . S
C1998 H1988 0.930 . S
C1998 C1996 1.419 . S
C1998 C1999 1.362 . S
C1999 H1989 0.930 . S
C1999 C1992 1.409 . S
C1999 C1998 1.362 . S
H2000 C2006 0.930 . S
H2001 C2009 0.930 . S
H2002 C2010 0.930 . S
H2003 C2011 0.930 . S
H2004 C2014 0.930 . S
H2005 C2015 0.930 . S
C2006 H2000 0.930 . S
C2006 C2007 1.355 . S
C2006 C2008 1.415 . S
C2007 C2006 1.355 . S
C2007 C2009 1.419 . S
C2008 C2006 1.415 . S
C2008 C2013 1.425 . S
C2008 C2015 1.409 . S
C2009 H2001 0.930 . S
C2009 C2007 1.419 . S
C2009 C2010 1.362 . S
C2010 H2002 0.930 . S
C2010 C2009 1.362 . S
C2010 C2013 1.409 . S
C2011 H2003 0.930 . S
C2011 C2012 1.355 . S
C2011 C2013 1.415 . S
C2012 C2011 1.355 . S
C2012 C2014 1.419 . S
C2013 C2008 1.425 . S
C2013 C2010 1.409 . S
C2013 C2011 1.415 . S
C2014 H2004 0.930 . S
C2014 C2012 1.419 . S
C2014 C2015 1.362 . S
C2015 H2005 0.930 . S
C2015 C2008 1.409 . S
C2015 C2014 1.362 . S
H2016 C2022 0.930 . S
H2017 C2025 0.930 . S
H2018 C2026 0.930 . S
H2019 C2027 0.930 . S
H2020 C2030 0.930 . S
H2021 C2031 0.930 . S
C2022 H2016 0.930 . S
C2022 C2023 1.355 . S
C2022 C2024 1.415 . S
C2023 C2022 1.355 . S
C2023 C2025 1.419 . S
C2024 C2022 1.415 . S
C2024 C2029 1.425 . S
C2024 C2031 1.409 . S
C2025 H2017 0.930 . S
C2025 C2023 1.419 . S
C2025 C2026 1.362 . S
C2026 H2018 0.930 . S
C2026 C2025 1.362 . S
C2026 C2029 1.409 . S
C2027 H2019 0.930 . S
C2027 C2028 1.355 . S
C2027 C2029 1.415 . S
C2028 C2027 1.355 . S
C2028 C2030 1.419 . S
C2029 C2024 1.425 . S
C2029 C2026 1.409 . S
C2029 C2027 1.415 . S
C2030 H2020 0.930 . S
C2030 C2028 1.419 . S
C2030 C2031 1.362 . S
C2031 H2021 0.930 . S
C2031 C2024 1.409 . S
C2031 C2030 1.362 . S
H2032 C2038 0.930 . S
H2033 C2041 0.930 . S
H2034 C2042 0.930 . S
H2035 C2043 0.930 . S
H2036 C2046 0.930 . S
H2037 C2047 0.930 . S
C2038 H2032 0.930 . S
C2038 C2039 1.355 . S
C2038 C2040 1.415 . S
C2039 C2038 1.355 . S
C2039 C2041 1.419 . S
C2040 C2038 1.415 . S
C2040 C2045 1.425 . S
C2040 C2047 1.409 . S
C2041 H2033 0.930 . S
C2041 C2039 1.419 . S
C2041 C2042 1.362 . S
C2042 H2034 0.930 . S
C2042 C2041 1.362 . S
C2042 C2045 1.409 . S
C2043 H2035 0.930 . S
C2043 C2044 1.355 . S
C2043 C2045 1.415 . S
C2044 C2043 1.355 . S
C2044 C2046 1.419 . S
C2045 C2040 1.425 . S
C2045 C2042 1.409 . S
C2045 C2043 1.415 . S
C2046 H2036 0.930 . S
C2046 C2044 1.419 . S
C2046 C2047 1.362 . S
C2047 H2037 0.930 . S
C2047 C2040 1.409 . S
C2047 C2046 1.362 . S
H2048 C2054 0.930 . S
H2049 C2057 0.930 . S
H2050 C2058 0.930 . S
H2051 C2059 0.930 . S
H2052 C2062 0.930 . S
H2053 C2063 0.930 . S
C2054 H2048 0.930 . S
C2054 C2055 1.355 . S
C2054 C2056 1.415 . S
C2055 C2054 1.355 . S
C2055 C2057 1.419 . S
C2056 C2054 1.415 . S
C2056 C2061 1.425 . S
C2056 C2063 1.409 . S
C2057 H2049 0.930 . S
C2057 C2055 1.419 . S
C2057 C2058 1.362 . S
C2058 H2050 0.930 . S
C2058 C2057 1.362 . S
C2058 C2061 1.409 . S
C2059 H2051 0.930 . S
C2059 C2060 1.355 . S
C2059 C2061 1.415 . S
C2060 C2059 1.355 . S
C2060 C2062 1.419 . S
C2061 C2056 1.425 . S
C2061 C2058 1.409 . S
C2061 C2059 1.415 . S
C2062 H2052 0.930 . S
C2062 C2060 1.419 . S
C2062 C2063 1.362 . S
C2063 H2053 0.930 . S
C2063 C2056 1.409 . S
C2063 C2062 1.362 . S
H2064 C2070 0.930 . S
H2065 C2073 0.930 . S
H2066 C2074 0.930 . S
H2067 C2075 0.930 . S
H2068 C2078 0.930 . S
H2069 C2079 0.930 . S
C2070 H2064 0.930 . S
C2070 C2071 1.355 . S
C2070 C2072 1.415 . S
C2071 C2070 1.355 . S
C2071 C2073 1.419 . S
C2072 C2070 1.415 . S
C2072 C2077 1.425 . S
C2072 C2079 1.409 . S
C2073 H2065 0.930 . S
C2073 C2071 1.419 . S
C2073 C2074 1.362 . S
C2074 H2066 0.930 . S
C2074 C2073 1.362 . S
C2074 C2077 1.409 . S
C2075 H2067 0.930 . S
C2075 C2076 1.355 . S
C2075 C2077 1.415 . S
C2076 C2075 1.355 . S
C2076 C2078 1.419 . S
C2077 C2072 1.425 . S
C2077 C2074 1.409 . S
C2077 C2075 1.415 . S
C2078 H2068 0.930 . S
C2078 C2076 1.419 . S
C2078 C2079 1.362 . S
C2079 H2069 0.930 . S
C2079 C2072 1.409 . S
C2079 C2078 1.362 . S
H2080 C2086 0.930 . S
H2081 C2089 0.930 . S
H2082 C2090 0.930 . S
H2083 C2091 0.930 . S
H2084 C2094 0.930 . S
H2085 C2095 0.930 . S
C2086 H2080 0.930 . S
C2086 C2087 1.355 . S
C2086 C2088 1.415 . S
C2087 C2086 1.355 . S
C2087 C2089 1.419 . S
C2088 C2086 1.415 . S
C2088 C2093 1.425 . S
C2088 C2095 1.409 . S
C2089 H2081 0.930 . S
C2089 C2087 1.419 . S
C2089 C2090 1.362 . S
C2090 H2082 0.930 . S
C2090 C2089 1.362 . S
C2090 C2093 1.409 . S
C2091 H2083 0.930 . S
C2091 C2092 1.355 . S
C2091 C2093 1.415 . S
C2092 C2091 1.355 . S
C2092 C2094 1.419 . S
C2093 C2088 1.425 . S
C2093 C2090 1.409 . S
C2093 C2091 1.415 . S
C2094 H2084 0.930 . S
C2094 C2092 1.419 . S
C2094 C2095 1.362 . S
C2095 H2085 0.930 . S
C2095 C2088 1.409 . S
C2095 C2094 1.362 . S
H2096 C2102 0.930 . S
H2097 C2105 0.930 . S
H2098 C2106 0.930 . S
H2099 C2107 0.930 . S
H2100 C2110 0.930 . S
H2101 C2111 0.930 . S
C2102 H2096 0.930 . S
C2102 C2103 1.355 . S
C2102 C2104 1.415 . S
C2103 C2102 1.355 . S
C2103 C2105 1.419 . S
C2104 C2102 1.415 . S
C2104 C2109 1.425 . S
C2104 C2111 1.409 . S
C2105 H2097 0.930 . S
C2105 C2103 1.419 . S
C2105 C2106 1.362 . S
C2106 H2098 0.930 . S
C2106 C2105 1.362 . S
C2106 C2109 1.409 . S
C2107 H2099 0.930 . S
C2107 C2108 1.355 . S
C2107 C2109 1.415 . S
C2108 C2107 1.355 . S
C2108 C2110 1.419 . S
C2109 C2104 1.425 . S
C2109 C2106 1.409 . S
C2109 C2107 1.415 . S
C2110 H2100 0.930 . S
C2110 C2108 1.419 . S
C2110 C2111 1.362 . S
C2111 H2101 0.930 . S
C2111 C2104 1.409 . S
C2111 C2110 1.362 . S
H2112 C2118 0.930 . S
H2113 C2121 0.930 . S
H2114 C2122 0.930 . S
H2115 C2123 0.930 . S
H2116 C2126 0.930 . S
H2117 C2127 0.930 . S
C2118 H2112 0.930 . S
C2118 C2119 1.355 . S
C2118 C2120 1.415 . S
C2119 C2118 1.355 . S
C2119 C2121 1.419 . S
C2120 C2118 1.415 . S
C2120 C2125 1.425 . S
C2120 C2127 1.409 . S
C2121 H2113 0.930 . S
C2121 C2119 1.419 . S
C2121 C2122 1.362 . S
C2122 H2114 0.930 . S
C2122 C2121 1.362 . S
C2122 C2125 1.409 . S
C2123 H2115 0.930 . S
C2123 C2124 1.355 . S
C2123 C2125 1.415 . S
C2124 C2123 1.355 . S
C2124 C2126 1.419 . S
C2125 C2120 1.425 . S
C2125 C2122 1.409 . S
C2125 C2123 1.415 . S
C2126 H2116 0.930 . S
C2126 C2124 1.419 . S
C2126 C2127 1.362 . S
C2127 H2117 0.930 . S
C2127 C2120 1.409 . S
C2127 C2126 1.362 . S
H2128 C2134 0.930 . S
H2129 C2137 0.930 . S
H2130 C2138 0.930 . S
H2131 C2139 0.930 . S
H2132 C2142 0.930 . S
H2133 C2143 0.930 . S
C2134 H2128 0.930 . S
C2134 C2135 1.355 . S
C2134 C2136 1.415 . S
C2135 C2134 1.355 . S
C2135 C2137 1.419 . S
C2136 C2134 1.415 . S
C2136 C2141 1.425 . S
C2136 C2143 1.409 . S
C2137 H2129 0.930 . S
C2137 C2135 1.419 . S
C2137 C2138 1.362 . S
C2138 H2130 0.930 . S
C2138 C2137 1.362 . S
C2138 C2141 1.409 . S
C2139 H2131 0.930 . S
C2139 C2140 1.355 . S
C2139 C2141 1.415 . S
C2140 C2139 1.355 . S
C2140 C2142 1.419 . S
C2141 C2136 1.425 . S
C2141 C2138 1.409 . S
C2141 C2139 1.415 . S
C2142 H2132 0.930 . S
C2142 C2140 1.419 . S
C2142 C2143 1.362 . S
C2143 H2133 0.930 . S
C2143 C2136 1.409 . S
C2143 C2142 1.362 . S
H2144 C2150 0.930 . S
H2145 C2153 0.930 . S
H2146 C2154 0.930 . S
H2147 C2155 0.930 . S
H2148 C2158 0.930 . S
H2149 C2159 0.930 . S
C2150 H2144 0.930 . S
C2150 C2151 1.355 . S
C2150 C2152 1.415 . S
C2151 C2150 1.355 . S
C2151 C2153 1.419 . S
C2152 C2150 1.415 . S
C2152 C2157 1.425 . S
C2152 C2159 1.409 . S
C2153 H2145 0.930 . S
C2153 C2151 1.419 . S
C2153 C2154 1.362 . S
C2154 H2146 0.930 . S
C2154 C2153 1.362 . S
C2154 C2157 1.409 . S
C2155 H2147 0.930 . S
C2155 C2156 1.355 . S
C2155 C2157 1.415 . S
C2156 C2155 1.355 . S
C2156 C2158 1.419 . S
C2157 C2152 1.425 . S
C2157 C2154 1.409 . S
C2157 C2155 1.415 . S
C2158 H2148 0.930 . S
C2158 C2156 1.419 . S
C2158 C2159 1.362 . S
C2159 H2149 0.930 . S
C2159 C2152 1.409 . S
C2159 C2158 1.362 . S
H2160 C2166 0.930 . S
H2161 C2169 0.930 . S
H2162 C2170 0.930 . S
H2163 C2171 0.930 . S
H2164 C2174 0.930 . S
H2165 C2175 0.930 . S
C2166 H2160 0.930 . S
C2166 C2167 1.355 . S
C2166 C2168 1.415 . S
C2167 C2166 1.355 . S
C2167 C2169 1.419 . S
C2168 C2166 1.415 . S
C2168 C2173 1.425 . S
C2168 C2175 1.409 . S
C2169 H2161 0.930 . S
C2169 C2167 1.419 . S
C2169 C2170 1.362 . S
C2170 H2162 0.930 . S
C2170 C2169 1.362 . S
C2170 C2173 1.409 . S
C2171 H2163 0.930 . S
C2171 C2172 1.355 . S
C2171 C2173 1.415 . S
C2172 C2171 1.355 . S
C2172 C2174 1.419 . S
C2173 C2168 1.425 . S
C2173 C2170 1.409 . S
C2173 C2171 1.415 . S
C2174 H2164 0.930 . S
C2174 C2172 1.419 . S
C2174 C2175 1.362 . S
C2175 H2165 0.930 . S
C2175 C2168 1.409 . S
C2175 C2174 1.362 . S
H2176 C2182 0.930 . S
H2177 C2185 0.930 1_545 S
H2178 C2186 0.930 . S
H2179 C2187 0.930 . S
H2180 C2190 0.930 . S
H2181 C2191 0.930 . S
C2182 H2176 0.930 . S
C2182 C2183 1.355 . S
C2182 C2184 1.415 . S
C2183 C2182 1.355 . S
C2183 C2185 1.419 . S
C2184 C2182 1.415 . S
C2184 C2189 1.425 . S
C2184 C2191 1.409 . S
C2185 H2177 0.930 1_565 S
C2185 C2183 1.419 . S
C2185 C2186 1.362 . S
C2186 H2178 0.930 . S
C2186 C2185 1.362 . S
C2186 C2189 1.409 . S
C2187 H2179 0.930 . S
C2187 C2188 1.355 . S
C2187 C2189 1.415 . S
C2188 C2187 1.355 . S
C2188 C2190 1.419 . S
C2189 C2184 1.425 . S
C2189 C2186 1.409 . S
C2189 C2187 1.415 . S
C2190 H2180 0.930 . S
C2190 C2188 1.419 . S
C2190 C2191 1.362 . S
C2191 H2181 0.930 . S
C2191 C2184 1.409 . S
C2191 C2190 1.362 . S
H2192 C2198 0.930 . S
H2193 C2201 0.930 . S
H2194 C2202 0.930 . S
H2195 C2203 0.930 . S
H2196 C2206 0.930 . S
H2197 C2207 0.930 . S
C2198 H2192 0.930 . S
C2198 C2199 1.355 . S
C2198 C2200 1.415 . S
C2199 C2198 1.355 . S
C2199 C2201 1.419 . S
C2200 C2198 1.415 . S
C2200 C2205 1.425 . S
C2200 C2207 1.409 . S
C2201 H2193 0.930 . S
C2201 C2199 1.419 . S
C2201 C2202 1.362 . S
C2202 H2194 0.930 . S
C2202 C2201 1.362 . S
C2202 C2205 1.409 . S
C2203 H2195 0.930 . S
C2203 C2204 1.355 . S
C2203 C2205 1.415 . S
C2204 C2203 1.355 . S
C2204 C2206 1.419 . S
C2205 C2200 1.425 . S
C2205 C2202 1.409 . S
C2205 C2203 1.415 . S
C2206 H2196 0.930 . S
C2206 C2204 1.419 . S
C2206 C2207 1.362 . S
C2207 H2197 0.930 . S
C2207 C2200 1.409 . S
C2207 C2206 1.362 . S
H2208 C2214 0.930 . S
H2209 C2217 0.930 . S
H2210 C2218 0.930 . S
H2211 C2219 0.930 . S
H2212 C2222 0.930 . S
H2213 C2223 0.930 . S
C2214 H2208 0.930 . S
C2214 C2215 1.355 . S
C2214 C2216 1.415 . S
C2215 C2214 1.355 . S
C2215 C2217 1.419 . S
C2216 C2214 1.415 . S
C2216 C2221 1.425 . S
C2216 C2223 1.409 . S
C2217 H2209 0.930 . S
C2217 C2215 1.419 . S
C2217 C2218 1.362 . S
C2218 H2210 0.930 . S
C2218 C2217 1.362 . S
C2218 C2221 1.409 . S
C2219 H2211 0.930 . S
C2219 C2220 1.355 . S
C2219 C2221 1.415 . S
C2220 C2219 1.355 . S
C2220 C2222 1.419 . S
C2221 C2216 1.425 . S
C2221 C2218 1.409 . S
C2221 C2219 1.415 . S
C2222 H2212 0.930 . S
C2222 C2220 1.419 . S
C2222 C2223 1.362 . S
C2223 H2213 0.930 . S
C2223 C2216 1.409 . S
C2223 C2222 1.362 . S
H2224 C2230 0.930 . S
H2225 C2233 0.930 . S
H2226 C2234 0.930 . S
H2227 C2235 0.930 . S
H2228 C2238 0.930 . S
H2229 C2239 0.930 . S
C2230 H2224 0.930 . S
C2230 C2231 1.355 . S
C2230 C2232 1.415 . S
C2231 C2230 1.355 . S
C2231 C2233 1.419 . S
C2232 C2230 1.415 . S
C2232 C2237 1.425 . S
C2232 C2239 1.409 . S
C2233 H2225 0.930 . S
C2233 C2231 1.419 . S
C2233 C2234 1.362 . S
C2234 H2226 0.930 . S
C2234 C2233 1.362 . S
C2234 C2237 1.409 . S
C2235 H2227 0.930 . S
C2235 C2236 1.355 . S
C2235 C2237 1.415 . S
C2236 C2235 1.355 . S
C2236 C2238 1.419 . S
C2237 C2232 1.425 . S
C2237 C2234 1.409 . S
C2237 C2235 1.415 . S
C2238 H2228 0.930 . S
C2238 C2236 1.419 . S
C2238 C2239 1.362 . S
C2239 H2229 0.930 . S
C2239 C2232 1.409 . S
C2239 C2238 1.362 . S
H2240 C2246 0.930 . S
H2241 C2249 0.930 . S
H2242 C2250 0.930 . S
H2243 C2251 0.930 . S
H2244 C2254 0.930 . S
H2245 C2255 0.930 . S
C2246 H2240 0.930 . S
C2246 C2247 1.355 . S
C2246 C2248 1.415 . S
C2247 C2246 1.355 . S
C2247 C2249 1.419 . S
C2248 C2246 1.415 . S
C2248 C2253 1.425 . S
C2248 C2255 1.409 . S
C2249 H2241 0.930 . S
C2249 C2247 1.419 . S
C2249 C2250 1.362 . S
C2250 H2242 0.930 . S
C2250 C2249 1.362 . S
C2250 C2253 1.409 . S
C2251 H2243 0.930 . S
C2251 C2252 1.355 . S
C2251 C2253 1.415 . S
C2252 C2251 1.355 . S
C2252 C2254 1.419 . S
C2253 C2248 1.425 . S
C2253 C2250 1.409 . S
C2253 C2251 1.415 . S
C2254 H2244 0.930 . S
C2254 C2252 1.419 . S
C2254 C2255 1.362 . S
C2255 H2245 0.930 . S
C2255 C2248 1.409 . S
C2255 C2254 1.362 . S
H2256 C2262 0.930 . S
H2257 C2265 0.930 . S
H2258 C2266 0.930 . S
H2259 C2267 0.930 . S
H2260 C2270 0.930 . S
H2261 C2271 0.930 . S
C2262 H2256 0.930 . S
C2262 C2263 1.355 . S
C2262 C2264 1.415 . S
C2263 C2262 1.355 . S
C2263 C2265 1.419 . S
C2264 C2262 1.415 . S
C2264 C2269 1.425 . S
C2264 C2271 1.409 . S
C2265 H2257 0.930 . S
C2265 C2263 1.419 . S
C2265 C2266 1.362 . S
C2266 H2258 0.930 . S
C2266 C2265 1.362 . S
C2266 C2269 1.409 . S
C2267 H2259 0.930 . S
C2267 C2268 1.355 . S
C2267 C2269 1.415 . S
C2268 C2267 1.355 . S
C2268 C2270 1.419 . S
C2269 C2264 1.425 . S
C2269 C2266 1.409 . S
C2269 C2267 1.415 . S
C2270 H2260 0.930 . S
C2270 C2268 1.419 . S
C2270 C2271 1.362 . S
C2271 H2261 0.930 . S
C2271 C2264 1.409 . S
C2271 C2270 1.362 . S
H2272 C2278 0.930 . S
H2273 C2281 0.930 . S
H2274 C2282 0.930 . S
H2275 C2283 0.930 . S
H2276 C2286 0.930 . S
H2277 C2287 0.930 . S
C2278 H2272 0.930 . S
C2278 C2279 1.355 . S
C2278 C2280 1.415 . S
C2279 C2278 1.355 . S
C2279 C2281 1.419 . S
C2280 C2278 1.415 . S
C2280 C2285 1.425 . S
C2280 C2287 1.409 . S
C2281 H2273 0.930 . S
C2281 C2279 1.419 . S
C2281 C2282 1.362 . S
C2282 H2274 0.930 . S
C2282 C2281 1.362 . S
C2282 C2285 1.409 . S
C2283 H2275 0.930 . S
C2283 C2284 1.355 . S
C2283 C2285 1.415 . S
C2284 C2283 1.355 . S
C2284 C2286 1.419 . S
C2285 C2280 1.425 . S
C2285 C2282 1.409 . S
C2285 C2283 1.415 . S
C2286 H2276 0.930 . S
C2286 C2284 1.419 . S
C2286 C2287 1.362 . S
C2287 H2277 0.930 . S
C2287 C2280 1.409 . S
C2287 C2286 1.362 . S
H2288 C2294 0.930 . S
H2289 C2297 0.930 . S
H2290 C2298 0.930 . S
H2291 C2299 0.930 . S
H2292 C2302 0.930 . S
H2293 C2303 0.930 . S
C2294 H2288 0.930 . S
C2294 C2295 1.355 . S
C2294 C2296 1.415 . S
C2295 C2294 1.355 . S
C2295 C2297 1.419 . S
C2296 C2294 1.415 . S
C2296 C2301 1.425 . S
C2296 C2303 1.409 . S
C2297 H2289 0.930 . S
C2297 C2295 1.419 . S
C2297 C2298 1.362 . S
C2298 H2290 0.930 . S
C2298 C2297 1.362 . S
C2298 C2301 1.409 . S
C2299 H2291 0.930 . S
C2299 C2300 1.355 . S
C2299 C2301 1.415 . S
C2300 C2299 1.355 . S
C2300 C2302 1.419 . S
C2301 C2296 1.425 . S
C2301 C2298 1.409 . S
C2301 C2299 1.415 . S
C2302 H2292 0.930 . S
C2302 C2300 1.419 . S
C2302 C2303 1.362 . S
C2303 H2293 0.930 . S
C2303 C2296 1.409 . S
C2303 C2302 1.362 . S
H2304 C2310 0.930 . S
H2305 C2313 0.930 . S
H2306 C2314 0.930 . S
H2307 C2315 0.930 . S
H2308 C2318 0.930 . S
H2309 C2319 0.930 . S
C2310 H2304 0.930 . S
C2310 C2311 1.355 . S
C2310 C2312 1.415 . S
C2311 C2310 1.355 . S
C2311 C2313 1.419 . S
C2312 C2310 1.415 . S
C2312 C2317 1.425 . S
C2312 C2319 1.409 . S
C2313 H2305 0.930 . S
C2313 C2311 1.419 . S
C2313 C2314 1.362 . S
C2314 H2306 0.930 . S
C2314 C2313 1.362 . S
C2314 C2317 1.409 . S
C2315 H2307 0.930 . S
C2315 C2316 1.355 . S
C2315 C2317 1.415 . S
C2316 C2315 1.355 . S
C2316 C2318 1.419 . S
C2317 C2312 1.425 . S
C2317 C2314 1.409 . S
C2317 C2315 1.415 . S
C2318 H2308 0.930 . S
C2318 C2316 1.419 . S
C2318 C2319 1.362 . S
C2319 H2309 0.930 . S
C2319 C2312 1.409 . S
C2319 C2318 1.362 . S
H2320 C2326 0.930 . S
H2321 C2329 0.930 . S
H2322 C2330 0.930 . S
H2323 C2331 0.930 . S
H2324 C2334 0.930 . S
H2325 C2335 0.930 . S
C2326 H2320 0.930 . S
C2326 C2327 1.355 . S
C2326 C2328 1.415 . S
C2327 C2326 1.355 . S
C2327 C2329 1.419 . S
C2328 C2326 1.415 . S
C2328 C2333 1.425 . S
C2328 C2335 1.409 . S
C2329 H2321 0.930 . S
C2329 C2327 1.419 . S
C2329 C2330 1.362 . S
C2330 H2322 0.930 . S
C2330 C2329 1.362 . S
C2330 C2333 1.409 . S
C2331 H2323 0.930 . S
C2331 C2332 1.355 . S
C2331 C2333 1.415 . S
C2332 C2331 1.355 . S
C2332 C2334 1.419 . S
C2333 C2328 1.425 . S
C2333 C2330 1.409 . S
C2333 C2331 1.415 . S
C2334 H2324 0.930 . S
C2334 C2332 1.419 . S
C2334 C2335 1.362 . S
C2335 H2325 0.930 . S
C2335 C2328 1.409 . S
C2335 C2334 1.362 . S
H2336 C2342 0.930 . S
H2337 C2345 0.930 . S
H2338 C2346 0.930 . S
H2339 C2347 0.930 . S
H2340 C2350 0.930 . S
H2341 C2351 0.930 . S
C2342 H2336 0.930 . S
C2342 C2343 1.355 . S
C2342 C2344 1.415 . S
C2343 C2342 1.355 . S
C2343 C2345 1.419 . S
C2344 C2342 1.415 . S
C2344 C2349 1.425 . S
C2344 C2351 1.409 . S
C2345 H2337 0.930 . S
C2345 C2343 1.419 . S
C2345 C2346 1.362 . S
C2346 H2338 0.930 . S
C2346 C2345 1.362 . S
C2346 C2349 1.409 . S
C2347 H2339 0.930 . S
C2347 C2348 1.355 . S
C2347 C2349 1.415 . S
C2348 C2347 1.355 . S
C2348 C2350 1.419 . S
C2349 C2344 1.425 . S
C2349 C2346 1.409 . S
C2349 C2347 1.415 . S
C2350 H2340 0.930 . S
C2350 C2348 1.419 . S
C2350 C2351 1.362 . S
C2351 H2341 0.930 . S
C2351 C2344 1.409 . S
C2351 C2350 1.362 . S
H2352 C2358 0.930 . S
H2353 C2361 0.930 . S
H2354 C2362 0.930 . S
H2355 C2363 0.930 . S
H2356 C2366 0.930 . S
H2357 C2367 0.930 . S
C2358 H2352 0.930 . S
C2358 C2359 1.355 . S
C2358 C2360 1.415 . S
C2359 C2358 1.355 . S
C2359 C2361 1.419 . S
C2360 C2358 1.415 . S
C2360 C2365 1.425 . S
C2360 C2367 1.409 . S
C2361 H2353 0.930 . S
C2361 C2359 1.419 . S
C2361 C2362 1.362 . S
C2362 H2354 0.930 . S
C2362 C2361 1.362 . S
C2362 C2365 1.409 . S
C2363 H2355 0.930 . S
C2363 C2364 1.355 . S
C2363 C2365 1.415 . S
C2364 C2363 1.355 . S
C2364 C2366 1.419 . S
C2365 C2360 1.425 . S
C2365 C2362 1.409 . S
C2365 C2363 1.415 . S
C2366 H2356 0.930 . S
C2366 C2364 1.419 . S
C2366 C2367 1.362 . S
C2367 H2357 0.930 . S
C2367 C2360 1.409 . S
C2367 C2366 1.362 . S
C1095 C33 0.189 . S
C1100 C645 0.172 . S
C1111 C679 0.170 . S
C1116 C67 0.160 . S
C1127 C577 0.202 . S
C1132 C101 0.182 . S
C1143 C135 0.272 . S
C1148 C611 0.248 . S
C1159 C781 0.342 . S
C1164 C169 0.327 . S
C1175 C815 0.178 . S
C1180 C203 0.164 . S
C1191 C237 0.170 . S
C1196 C713 0.160 . S
C1207 C271 0.361 . S
C1212 C747 0.363 . S
C1223 C917 0.310 . S
C1228 C305 0.404 . S
C1239 C951 0.273 . S
C1244 C339 0.400 . S
C1255 C373 0.202 . S
C1260 C849 0.250 . S
C1271 C407 0.213 . S
C1276 C883 0.238 . S
C1287 C441 0.272 . S
C1292 C1053 0.187 . S
C1303 C475 0.400 . S
C1308 C1087 0.274 . S
C1319 C985 0.174 . S
C1324 C509 0.306 . S
C1335 C543 0.180 . S
C1340 C1019 0.287 . S
C1351 C9 1.417 . S
C1356 C821 1.552 . S
C1367 C311 1.543 . S
C1372 C43 1.470 1_565 S
C1383 C889 1.547 . S
C1388 C77 1.492 . S
C1399 C111 1.427 1_545 S
C1404 C379 1.580 . S
C1415 C145 1.451 . S
C1420 C957 1.543 . S
C1431 C179 1.456 1_565 S
C1436 C447 1.582 . S
C1447 C1025 1.577 . S
C1452 C213 1.419 . S
C1463 C515 1.580 . S
C1468 C247 1.428 1_545 S
C1479 C553 1.447 . S
C1484 C277 1.582 . S
C1495 C621 1.420 . S
C1500 C345 1.577 . S
C1511 C689 1.503 . S
C1516 C413 1.567 . S
C1527 C481 1.573 . S
C1532 C757 1.496 . S
C1543 C855 1.555 . S
C1548 C587 1.412 . S
C1559 C923 1.548 . S
C1564 C655 1.429 . S
C1575 C723 1.428 . S
C1580 C991 1.548 . S
C1591 C791 1.503 . S
C1596 C1059 1.553 . S
C1607 C20 1.470 . S
C1612 C954 1.468 . S
C1623 C54 1.453 . S
C1628 C444 1.428 . S
C1639 C1022 1.443 . S
C1644 C88 1.462 . S
C1655 C512 1.457 . S
C1660 C122 1.463 . S
C1671 C818 1.429 . S
C1676 C156 1.454 . S
C1687 C308 1.452 . S
C1692 C190 1.467 . S
C1703 C224 1.469 . S
C1708 C886 1.457 . S
C1719 C376 1.458 . S
C1724 C258 1.464 . S
C1735 C682 1.443 . S
C1740 C292 1.445 . S
C1751 C326 1.418 . S
C1756 C172 1.412 . S
C1767 C750 1.441 . S
C1772 C360 1.448 . S
C1783 C394 1.411 . S
C1788 C240 1.393 . S
C1799 C428 1.443 . S
C1804 C546 1.442 . S
C1815 C36 1.408 . S
C1820 C462 1.431 . S
C1831 C614 1.392 . S
C1836 C496 1.414 . S
C1847 C530 1.449 . S
C1852 C104 1.442 . S
C1863 C564 1.463 . S
C1868 C410 1.458 . S
C1879 C598 1.456 . S
C1884 C988 1.444 . S
C1895 C478 1.463 . S
C1900 C632 1.467 . S
C1911 C666 1.452 . S
C1916 C1056 1.426 . S
C1927 C700 1.463 . S
C1932 C274 1.457 . S
C1943 C852 1.447 . S
C1948 C734 1.465 . S
C1959 C768 1.471 . S
C1964 C342 1.462 . S
C1975 C802 1.467 . S
C1980 C920 1.464 . S
C1991 C836 1.418 . S
C1996 C138 1.394 . S
C2007 C716 1.423 . S
C2012 C870 1.441 . S
C2023 C904 1.441 . S
C2028 C206 1.441 . S
C2039 C784 1.433 . S
C2044 C938 1.446 . S
C2055 C972 1.435 . S
C2060 C2 1.414 . S
C2071 C1006 1.445 . S
C2076 C580 1.444 . S
C2087 C1040 1.431 . S
C2092 C70 1.431 . S
C2103 C1074 1.411 . S
C2108 C648 1.394 . S
C2119 C5 1.981 . S
C2124 C175 1.989 . S
C2135 C209 1.989 . S
C2140 C39 1.989 . S
C2151 C73 1.986 . S
C2156 C243 1.976 . S
C2167 C107 1.990 . S
C2172 C141 1.988 . S
C2183 C451 1.377 . S
C2188 C281 1.332 . S
C2199 C485 1.263 . S
C2204 C315 1.252 . S
C2215 C519 1.335 . S
C2220 C349 1.379 . S
C2231 C383 1.364 . S
C2236 C417 1.388 . S
C2247 C549 1.961 . S
C2252 C719 1.966 . S
C2263 C753 1.967 . S
C2268 C583 1.962 . S
C2279 C617 1.962 . S
C2284 C787 1.964 . S
C2295 C685 1.968 . S
C2300 C651 1.979 . S
C2311 C995 1.287 . S
C2316 C825 1.252 . S
C2327 C1029 1.256 . S
C2332 C859 1.299 . S
C2343 C893 1.315 . S
C2348 C1063 1.367 . S
C2359 C961 1.264 . S
C2364 C927 1.313 . S
