# Generated by pormake.
# Topology fcr, (5)-cn, num edge types: 1
# Building blocks:
#     Node 0, Type 0, BuildingBlock: XOMCOT_clean_sbu_0, # of connection points: 5
#     Node 1, Type 0, BuildingBlock: XOMCOT_clean_sbu_0, # of connection points: 5
#     Node 2, Type 0, BuildingBlock: XOMCOT_clean_sbu_0, # of connection points: 5
#     Node 3, Type 0, BuildingBlock: XOMCOT_clean_sbu_0, # of connection points: 5
#     Node 4, Type 0, BuildingBlock: XOMCOT_clean_sbu_0, # of connection points: 5
#     Node 5, Type 0, BuildingBlock: XOMCOT_clean_sbu_0, # of connection points: 5
#     Node 6, Type 0, BuildingBlock: XOMCOT_clean_sbu_0, # of connection points: 5
#     Node 7, Type 0, BuildingBlock: XOMCOT_clean_sbu_0, # of connection points: 5
#     Node 8, Type 0, BuildingBlock: XOMCOT_clean_sbu_0, # of connection points: 5
#     Node 9, Type 0, BuildingBlock: XOMCOT_clean_sbu_0, # of connection points: 5
#     Node 10, Type 0, BuildingBlock: XOMCOT_clean_sbu_0, # of connection points: 5
#     Node 11, Type 0, BuildingBlock: XOMCOT_clean_sbu_0, # of connection points: 5
#     Node 12, Type 0, BuildingBlock: XOMCOT_clean_sbu_0, # of connection points: 5
#     Node 13, Type 0, BuildingBlock: XOMCOT_clean_sbu_0, # of connection points: 5
#     Node 14, Type 0, BuildingBlock: XOMCOT_clean_sbu_0, # of connection points: 5
#     Node 15, Type 0, BuildingBlock: XOMCOT_clean_sbu_0, # of connection points: 5
#     Node 16, Type 0, BuildingBlock: XOMCOT_clean_sbu_0, # of connection points: 5
#     Node 17, Type 0, BuildingBlock: XOMCOT_clean_sbu_0, # of connection points: 5
#     Node 18, Type 0, BuildingBlock: XOMCOT_clean_sbu_0, # of connection points: 5
#     Node 19, Type 0, BuildingBlock: XOMCOT_clean_sbu_0, # of connection points: 5
#     Node 20, Type 0, BuildingBlock: XOMCOT_clean_sbu_0, # of connection points: 5
#     Node 21, Type 0, BuildingBlock: XOMCOT_clean_sbu_0, # of connection points: 5
#     Node 22, Type 0, BuildingBlock: XOMCOT_clean_sbu_0, # of connection points: 5
#     Node 23, Type 0, BuildingBlock: XOMCOT_clean_sbu_0, # of connection points: 5
#     Node 24, Type 0, BuildingBlock: XOMCOT_clean_sbu_0, # of connection points: 5
#     Node 25, Type 0, BuildingBlock: XOMCOT_clean_sbu_0, # of connection points: 5
#     Node 26, Type 0, BuildingBlock: XOMCOT_clean_sbu_0, # of connection points: 5
#     Node 27, Type 0, BuildingBlock: XOMCOT_clean_sbu_0, # of connection points: 5
#     Node 28, Type 0, BuildingBlock: XOMCOT_clean_sbu_0, # of connection points: 5
#     Node 29, Type 0, BuildingBlock: XOMCOT_clean_sbu_0, # of connection points: 5
#     Node 30, Type 0, BuildingBlock: XOMCOT_clean_sbu_0, # of connection points: 5
#     Node 31, Type 0, BuildingBlock: XOMCOT_clean_sbu_0, # of connection points: 5
#     Node 32, Type 0, BuildingBlock: XOMCOT_clean_sbu_0, # of connection points: 5
#     Node 33, Type 0, BuildingBlock: XOMCOT_clean_sbu_0, # of connection points: 5
#     Node 34, Type 0, BuildingBlock: XOMCOT_clean_sbu_0, # of connection points: 5
#     Node 35, Type 0, BuildingBlock: XOMCOT_clean_sbu_0, # of connection points: 5
#     Node 36, Type 0, BuildingBlock: XOMCOT_clean_sbu_0, # of connection points: 5
#     Node 37, Type 0, BuildingBlock: XOMCOT_clean_sbu_0, # of connection points: 5
#     Node 38, Type 0, BuildingBlock: XOMCOT_clean_sbu_0, # of connection points: 5
#     Node 39, Type 0, BuildingBlock: XOMCOT_clean_sbu_0, # of connection points: 5
#     Node 40, Type 0, BuildingBlock: XOMCOT_clean_sbu_0, # of connection points: 5
#     Node 41, Type 0, BuildingBlock: XOMCOT_clean_sbu_0, # of connection points: 5
#     Node 42, Type 0, BuildingBlock: XOMCOT_clean_sbu_0, # of connection points: 5
#     Node 43, Type 0, BuildingBlock: XOMCOT_clean_sbu_0, # of connection points: 5
#     Node 44, Type 0, BuildingBlock: XOMCOT_clean_sbu_0, # of connection points: 5
#     Node 45, Type 0, BuildingBlock: XOMCOT_clean_sbu_0, # of connection points: 5
#     Node 46, Type 0, BuildingBlock: XOMCOT_clean_sbu_0, # of connection points: 5
#     Node 47, Type 0, BuildingBlock: XOMCOT_clean_sbu_0, # of connection points: 5
#     Edge 48, Type (0, 0), BuildingBlock: EZIPEK_clean_linker_0, # of connection points: 2
#     Edge 49, Type (0, 0), BuildingBlock: EZIPEK_clean_linker_0, # of connection points: 2
#     Edge 50, Type (0, 0), BuildingBlock: EZIPEK_clean_linker_0, # of connection points: 2
#     Edge 51, Type (0, 0), BuildingBlock: EZIPEK_clean_linker_0, # of connection points: 2
#     Edge 52, Type (0, 0), BuildingBlock: EZIPEK_clean_linker_0, # of connection points: 2
#     Edge 53, Type (0, 0), BuildingBlock: EZIPEK_clean_linker_0, # of connection points: 2
#     Edge 54, Type (0, 0), BuildingBlock: EZIPEK_clean_linker_0, # of connection points: 2
#     Edge 55, Type (0, 0), BuildingBlock: EZIPEK_clean_linker_0, # of connection points: 2
#     Edge 56, Type (0, 0), BuildingBlock: EZIPEK_clean_linker_0, # of connection points: 2
#     Edge 57, Type (0, 0), BuildingBlock: EZIPEK_clean_linker_0, # of connection points: 2
#     Edge 58, Type (0, 0), BuildingBlock: EZIPEK_clean_linker_0, # of connection points: 2
#     Edge 59, Type (0, 0), BuildingBlock: EZIPEK_clean_linker_0, # of connection points: 2
#     Edge 60, Type (0, 0), BuildingBlock: EZIPEK_clean_linker_0, # of connection points: 2
#     Edge 61, Type (0, 0), BuildingBlock: EZIPEK_clean_linker_0, # of connection points: 2
#     Edge 62, Type (0, 0), BuildingBlock: EZIPEK_clean_linker_0, # of connection points: 2
#     Edge 63, Type (0, 0), BuildingBlock: EZIPEK_clean_linker_0, # of connection points: 2
#     Edge 64, Type (0, 0), BuildingBlock: EZIPEK_clean_linker_0, # of connection points: 2
#     Edge 65, Type (0, 0), BuildingBlock: EZIPEK_clean_linker_0, # of connection points: 2
#     Edge 66, Type (0, 0), BuildingBlock: EZIPEK_clean_linker_0, # of connection points: 2
#     Edge 67, Type (0, 0), BuildingBlock: EZIPEK_clean_linker_0, # of connection points: 2
#     Edge 68, Type (0, 0), BuildingBlock: EZIPEK_clean_linker_0, # of connection points: 2
#     Edge 69, Type (0, 0), BuildingBlock: EZIPEK_clean_linker_0, # of connection points: 2
#     Edge 70, Type (0, 0), BuildingBlock: EZIPEK_clean_linker_0, # of connection points: 2
#     Edge 71, Type (0, 0), BuildingBlock: EZIPEK_clean_linker_0, # of connection points: 2
#     Edge 72, Type (0, 0), BuildingBlock: EZIPEK_clean_linker_0, # of connection points: 2
#     Edge 73, Type (0, 0), BuildingBlock: EZIPEK_clean_linker_0, # of connection points: 2
#     Edge 74, Type (0, 0), BuildingBlock: EZIPEK_clean_linker_0, # of connection points: 2
#     Edge 75, Type (0, 0), BuildingBlock: EZIPEK_clean_linker_0, # of connection points: 2
#     Edge 76, Type (0, 0), BuildingBlock: EZIPEK_clean_linker_0, # of connection points: 2
#     Edge 77, Type (0, 0), BuildingBlock: EZIPEK_clean_linker_0, # of connection points: 2
#     Edge 78, Type (0, 0), BuildingBlock: EZIPEK_clean_linker_0, # of connection points: 2
#     Edge 79, Type (0, 0), BuildingBlock: EZIPEK_clean_linker_0, # of connection points: 2
#     Edge 80, Type (0, 0), BuildingBlock: EZIPEK_clean_linker_0, # of connection points: 2
#     Edge 81, Type (0, 0), BuildingBlock: EZIPEK_clean_linker_0, # of connection points: 2
#     Edge 82, Type (0, 0), BuildingBlock: EZIPEK_clean_linker_0, # of connection points: 2
#     Edge 83, Type (0, 0), BuildingBlock: EZIPEK_clean_linker_0, # of connection points: 2
#     Edge 84, Type (0, 0), BuildingBlock: EZIPEK_clean_linker_0, # of connection points: 2
#     Edge 85, Type (0, 0), BuildingBlock: EZIPEK_clean_linker_0, # of connection points: 2
#     Edge 86, Type (0, 0), BuildingBlock: EZIPEK_clean_linker_0, # of connection points: 2
#     Edge 87, Type (0, 0), BuildingBlock: EZIPEK_clean_linker_0, # of connection points: 2
#     Edge 88, Type (0, 0), BuildingBlock: EZIPEK_clean_linker_0, # of connection points: 2
#     Edge 89, Type (0, 0), BuildingBlock: EZIPEK_clean_linker_0, # of connection points: 2
#     Edge 90, Type (0, 0), BuildingBlock: EZIPEK_clean_linker_0, # of connection points: 2
#     Edge 91, Type (0, 0), BuildingBlock: EZIPEK_clean_linker_0, # of connection points: 2
#     Edge 92, Type (0, 0), BuildingBlock: EZIPEK_clean_linker_0, # of connection points: 2
#     Edge 93, Type (0, 0), BuildingBlock: EZIPEK_clean_linker_0, # of connection points: 2
#     Edge 94, Type (0, 0), BuildingBlock: EZIPEK_clean_linker_0, # of connection points: 2
#     Edge 95, Type (0, 0), BuildingBlock: EZIPEK_clean_linker_0, # of connection points: 2
#     Edge 96, Type (0, 0), BuildingBlock: EZIPEK_clean_linker_0, # of connection points: 2
#     Edge 97, Type (0, 0), BuildingBlock: EZIPEK_clean_linker_0, # of connection points: 2
#     Edge 98, Type (0, 0), BuildingBlock: EZIPEK_clean_linker_0, # of connection points: 2
#     Edge 99, Type (0, 0), BuildingBlock: EZIPEK_clean_linker_0, # of connection points: 2
#     Edge 100, Type (0, 0), BuildingBlock: EZIPEK_clean_linker_0, # of connection points: 2
#     Edge 101, Type (0, 0), BuildingBlock: EZIPEK_clean_linker_0, # of connection points: 2
#     Edge 102, Type (0, 0), BuildingBlock: EZIPEK_clean_linker_0, # of connection points: 2
#     Edge 103, Type (0, 0), BuildingBlock: EZIPEK_clean_linker_0, # of connection points: 2
#     Edge 104, Type (0, 0), BuildingBlock: EZIPEK_clean_linker_0, # of connection points: 2
#     Edge 105, Type (0, 0), BuildingBlock: EZIPEK_clean_linker_0, # of connection points: 2
#     Edge 106, Type (0, 0), BuildingBlock: EZIPEK_clean_linker_0, # of connection points: 2
#     Edge 107, Type (0, 0), BuildingBlock: EZIPEK_clean_linker_0, # of connection points: 2
#     Edge 108, Type (0, 0), BuildingBlock: EZIPEK_clean_linker_0, # of connection points: 2
#     Edge 109, Type (0, 0), BuildingBlock: EZIPEK_clean_linker_0, # of connection points: 2
#     Edge 110, Type (0, 0), BuildingBlock: EZIPEK_clean_linker_0, # of connection points: 2
#     Edge 111, Type (0, 0), BuildingBlock: EZIPEK_clean_linker_0, # of connection points: 2
#     Edge 112, Type (0, 0), BuildingBlock: EZIPEK_clean_linker_0, # of connection points: 2
#     Edge 113, Type (0, 0), BuildingBlock: EZIPEK_clean_linker_0, # of connection points: 2
#     Edge 114, Type (0, 0), BuildingBlock: EZIPEK_clean_linker_0, # of connection points: 2
#     Edge 115, Type (0, 0), BuildingBlock: EZIPEK_clean_linker_0, # of connection points: 2
#     Edge 116, Type (0, 0), BuildingBlock: EZIPEK_clean_linker_0, # of connection points: 2
#     Edge 117, Type (0, 0), BuildingBlock: EZIPEK_clean_linker_0, # of connection points: 2
#     Edge 118, Type (0, 0), BuildingBlock: EZIPEK_clean_linker_0, # of connection points: 2
#     Edge 119, Type (0, 0), BuildingBlock: EZIPEK_clean_linker_0, # of connection points: 2
#     Edge 120, Type (0, 0), BuildingBlock: EZIPEK_clean_linker_0, # of connection points: 2
#     Edge 121, Type (0, 0), BuildingBlock: EZIPEK_clean_linker_0, # of connection points: 2
#     Edge 122, Type (0, 0), BuildingBlock: EZIPEK_clean_linker_0, # of connection points: 2
#     Edge 123, Type (0, 0), BuildingBlock: EZIPEK_clean_linker_0, # of connection points: 2
#     Edge 124, Type (0, 0), BuildingBlock: EZIPEK_clean_linker_0, # of connection points: 2
#     Edge 125, Type (0, 0), BuildingBlock: EZIPEK_clean_linker_0, # of connection points: 2
#     Edge 126, Type (0, 0), BuildingBlock: EZIPEK_clean_linker_0, # of connection points: 2
#     Edge 127, Type (0, 0), BuildingBlock: EZIPEK_clean_linker_0, # of connection points: 2
#     Edge 128, Type (0, 0), BuildingBlock: EZIPEK_clean_linker_0, # of connection points: 2
#     Edge 129, Type (0, 0), BuildingBlock: EZIPEK_clean_linker_0, # of connection points: 2
#     Edge 130, Type (0, 0), BuildingBlock: EZIPEK_clean_linker_0, # of connection points: 2
#     Edge 131, Type (0, 0), BuildingBlock: EZIPEK_clean_linker_0, # of connection points: 2
#     Edge 132, Type (0, 0), BuildingBlock: EZIPEK_clean_linker_0, # of connection points: 2
#     Edge 133, Type (0, 0), BuildingBlock: EZIPEK_clean_linker_0, # of connection points: 2
#     Edge 134, Type (0, 0), BuildingBlock: EZIPEK_clean_linker_0, # of connection points: 2
#     Edge 135, Type (0, 0), BuildingBlock: EZIPEK_clean_linker_0, # of connection points: 2
#     Edge 136, Type (0, 0), BuildingBlock: EZIPEK_clean_linker_0, # of connection points: 2
#     Edge 137, Type (0, 0), BuildingBlock: EZIPEK_clean_linker_0, # of connection points: 2
#     Edge 138, Type (0, 0), BuildingBlock: EZIPEK_clean_linker_0, # of connection points: 2
#     Edge 139, Type (0, 0), BuildingBlock: EZIPEK_clean_linker_0, # of connection points: 2
#     Edge 140, Type (0, 0), BuildingBlock: EZIPEK_clean_linker_0, # of connection points: 2
#     Edge 141, Type (0, 0), BuildingBlock: EZIPEK_clean_linker_0, # of connection points: 2
#     Edge 142, Type (0, 0), BuildingBlock: EZIPEK_clean_linker_0, # of connection points: 2
#     Edge 143, Type (0, 0), BuildingBlock: EZIPEK_clean_linker_0, # of connection points: 2
#     Edge 144, Type (0, 0), BuildingBlock: EZIPEK_clean_linker_0, # of connection points: 2
#     Edge 145, Type (0, 0), BuildingBlock: EZIPEK_clean_linker_0, # of connection points: 2
#     Edge 146, Type (0, 0), BuildingBlock: EZIPEK_clean_linker_0, # of connection points: 2
#     Edge 147, Type (0, 0), BuildingBlock: EZIPEK_clean_linker_0, # of connection points: 2
#     Edge 148, Type (0, 0), BuildingBlock: EZIPEK_clean_linker_0, # of connection points: 2
#     Edge 149, Type (0, 0), BuildingBlock: EZIPEK_clean_linker_0, # of connection points: 2
#     Edge 150, Type (0, 0), BuildingBlock: EZIPEK_clean_linker_0, # of connection points: 2
#     Edge 151, Type (0, 0), BuildingBlock: EZIPEK_clean_linker_0, # of connection points: 2
#     Edge 152, Type (0, 0), BuildingBlock: EZIPEK_clean_linker_0, # of connection points: 2
#     Edge 153, Type (0, 0), BuildingBlock: EZIPEK_clean_linker_0, # of connection points: 2
#     Edge 154, Type (0, 0), BuildingBlock: EZIPEK_clean_linker_0, # of connection points: 2
#     Edge 155, Type (0, 0), BuildingBlock: EZIPEK_clean_linker_0, # of connection points: 2
#     Edge 156, Type (0, 0), BuildingBlock: EZIPEK_clean_linker_0, # of connection points: 2
#     Edge 157, Type (0, 0), BuildingBlock: EZIPEK_clean_linker_0, # of connection points: 2
#     Edge 158, Type (0, 0), BuildingBlock: EZIPEK_clean_linker_0, # of connection points: 2
#     Edge 159, Type (0, 0), BuildingBlock: EZIPEK_clean_linker_0, # of connection points: 2
#     Edge 160, Type (0, 0), BuildingBlock: EZIPEK_clean_linker_0, # of connection points: 2
#     Edge 161, Type (0, 0), BuildingBlock: EZIPEK_clean_linker_0, # of connection points: 2
#     Edge 162, Type (0, 0), BuildingBlock: EZIPEK_clean_linker_0, # of connection points: 2
#     Edge 163, Type (0, 0), BuildingBlock: EZIPEK_clean_linker_0, # of connection points: 2
#     Edge 164, Type (0, 0), BuildingBlock: EZIPEK_clean_linker_0, # of connection points: 2
#     Edge 165, Type (0, 0), BuildingBlock: EZIPEK_clean_linker_0, # of connection points: 2
#     Edge 166, Type (0, 0), BuildingBlock: EZIPEK_clean_linker_0, # of connection points: 2
#     Edge 167, Type (0, 0), BuildingBlock: EZIPEK_clean_linker_0, # of connection points: 2
# Relax obj value: 0.109
# Max RMSD: 0.155
# Mean RMSD: 0.155
data_MOF--net-fcr--node1-XOMCOT_clean_sbu_0--edge1-EZIPEK_clean_linker_0
_symmetry_space_group_name_H-M    P1
_symmetry_Int_Tables_number       1
_symmetry_cell_setting            triclinic
loop_
_symmetry_equiv_pos_as_xyz
'x, y, z'
_cell_length_a     50.111799
_cell_length_b     50.236325
_cell_length_c     50.266519
_cell_angle_alpha  90.019347
_cell_angle_beta   90.014897
_cell_angle_gamma 89.994286
loop_
_atom_site_label
_atom_site_type_symbol
_atom_site_fract_x
_atom_site_fract_y
_atom_site_fract_z
_atom_type_partial_charge
Co0 Co 0.14672 0.33721 0.25583 0.0
C1 C 0.16472 0.28922 0.28561 0.0
C2 C 0.17776 0.32536 0.30394 0.0
C3 C 0.18984 0.30446 0.3168 0.0
N4 N 0.16151 0.31591 0.28462 0.0
N5 N 0.18168 0.28188 0.30507 0.0
H6 H 0.15731 0.27547 0.27093 0.0
H7 H 0.1824 0.34606 0.3071 0.0
C8 C 0.13106 0.36629 0.30572 0.0
O9 O 0.12444 0.34343 0.31659 0.0
N10 N 0.13324 0.35883 0.22718 0.0
C11 C 0.11738 0.35112 0.20692 0.0
C12 C 0.11582 0.37164 0.18876 0.0
C13 C 0.14122 0.38374 0.22113 0.0
N14 N 0.13086 0.39196 0.1978 0.0
C15 C 0.10899 0.29459 0.25158 0.0
C16 C 0.06435 0.3218 0.26884 0.0
C17 C 0.06192 0.29483 0.26198 0.0
C18 C 0.0846 0.2813 0.25315 0.0
C19 C 0.08936 0.33436 0.26723 0.0
N20 N 0.11158 0.32046 0.25957 0.0
H21 H 0.12561 0.2841 0.243 0.0
H22 H 0.09057 0.35538 0.27142 0.0
H23 H 0.10859 0.33157 0.20487 0.0
H24 H 0.1553 0.3951 0.23288 0.0
O25 O 0.16234 0.31341 0.22972 0.0
O26 O 0.18282 0.348 0.24729 0.0
O27 O 0.13795 0.36717 0.2813 0.0
C28 C 0.18384 0.32783 0.23107 0.0
H29 H 0.20534 0.3058 0.33174 0.0
H30 H 0.10543 0.37133 0.16988 0.0
H31 H 0.047 0.33313 0.27493 0.0
H32 H 0.08331 0.26072 0.24682 0.0
Co33 Co 0.5877 0.62652 0.01542 0.0
C34 C 0.54052 0.60808 0.98444 0.0
C35 C 0.57721 0.59436 0.96755 0.0
C36 C 0.55652 0.58215 0.95435 0.0
N37 N 0.56729 0.61097 0.98627 0.0
N38 N 0.53357 0.59077 0.96513 0.0
H39 H 0.52631 0.61617 0.99832 0.0
H40 H 0.59805 0.58973 0.96496 0.0
C41 C 0.61676 0.64252 0.9659 0.0
O42 O 0.59369 0.64802 0.95473 0.0
N43 N 0.60823 0.64074 0.04466 0.0
C44 C 0.59949 0.65686 0.06426 0.0
C45 C 0.61863 0.65787 0.08393 0.0
C46 C 0.63252 0.63217 0.0526 0.0
N47 N 0.63914 0.64214 0.07663 0.0
C48 C 0.54367 0.66282 0.01994 0.0
C49 C 0.56925 0.70796 1.00174 0.0
C50 C 0.54238 0.70969 1.00929 0.0
C51 C 0.52966 0.6868 0.01861 0.0
C52 C 0.58259 0.68341 1.00329 0.0
N53 N 0.56951 0.6609 1.01139 0.0
H54 H 0.5338 0.64601 0.02882 0.0
H55 H 0.60361 0.68288 0.99879 0.0
H56 H 0.57999 0.66603 0.06498 0.0
H57 H 0.64444 0.61786 0.04173 0.0
O58 O 0.56372 0.60976 0.04053 0.0
O59 O 0.60042 0.59127 0.02432 0.0
O60 O 0.61779 0.63644 0.99052 0.0
C61 C 0.57966 0.58934 0.03971 0.0
H62 H 0.55815 0.56675 0.93937 0.0
H63 H 0.61723 0.66847 0.10263 0.0
H64 H 0.57996 0.72553 0.99528 0.0
H65 H 0.50918 0.68761 0.02548 0.0
Co66 Co 0.87946 0.18832 0.25591 0.0
C67 C 0.86107 0.238 0.28357 0.0
C68 C 0.85188 0.20241 0.30523 0.0
C69 C 0.84049 0.22361 0.31826 0.0
N70 N 0.86477 0.21131 0.2834 0.0
N71 N 0.84612 0.24588 0.30451 0.0
H72 H 0.86787 0.25137 0.26823 0.0
H73 H 0.84936 0.18171 0.31052 0.0
C74 C 0.9 0.13934 0.28626 0.0
O75 O 0.91602 0.13213 0.26692 0.0
N76 N 0.89341 0.16476 0.22858 0.0
C77 C 0.91308 0.16977 0.21095 0.0
C78 C 0.91476 0.14874 0.19333 0.0
C79 C 0.88322 0.14093 0.22124 0.0
N80 N 0.89592 0.13078 0.19986 0.0
C81 C 0.91633 0.2311 0.24828 0.0
C82 C 0.96032 0.20932 0.27307 0.0
C83 C 0.96237 0.23486 0.26208 0.0
C84 C 0.93996 0.24573 0.24965 0.0
C85 C 0.93607 0.19537 0.27153 0.0
N86 N 0.91421 0.2063 0.25937 0.0
H87 H 0.89973 0.23994 0.23795 0.0
H88 H 0.93544 0.1758 0.27982 0.0
H89 H 0.92489 0.18776 0.21032 0.0
H90 H 0.86658 0.13137 0.23108 0.0
O91 O 0.86416 0.2104 0.22807 0.0
O92 O 0.84316 0.17708 0.24734 0.0
O93 O 0.88692 0.16119 0.28507 0.0
C94 C 0.84242 0.19657 0.23028 0.0
H95 H 0.82752 0.22262 0.33546 0.0
H96 H 0.92816 0.1471 0.17652 0.0
H97 H 0.9774 0.20014 0.28258 0.0
H98 H 0.94086 0.26532 0.24067 0.0
Co99 Co 0.43939 0.89294 0.01946 0.0
C100 C 0.48571 0.913 0.98708 0.0
C101 C 0.44785 0.92522 0.97172 0.0
C102 C 0.46741 0.93708 0.95679 0.0
N103 N 0.45914 0.9094 0.99032 0.0
N104 N 0.49119 0.93004 0.96701 0.0
H105 H 0.5008 0.90549 1.00039 0.0
H106 H 0.42674 0.92924 0.97007 0.0
C107 C 0.40982 0.87765 0.96968 0.0
O108 O 0.43303 0.87233 0.95872 0.0
N109 N 0.41867 0.87801 0.04814 0.0
C110 C 0.42774 0.8685 0.07151 0.0
C111 C 0.40665 0.8674 0.08917 0.0
C112 C 0.39225 0.88194 0.05163 0.0
N113 N 0.38449 0.87616 0.07667 0.0
C114 C 0.48317 0.85632 0.02042 0.0
C115 C 0.45564 0.81133 1.00479 0.0
C116 C 0.48298 0.8093 1.0104 0.0
C117 C 0.49671 0.83214 0.01836 0.0
C118 C 0.4428 0.8361 1.00702 0.0
N119 N 0.45678 0.85847 0.01393 0.0
H120 H 0.49393 0.87312 0.02824 0.0
H121 H 0.42151 0.83699 1.00392 0.0
H122 H 0.4485 0.8647 0.07602 0.0
H123 H 0.37939 0.89106 0.03691 0.0
O124 O 0.46439 0.908 0.04502 0.0
O125 O 0.42806 0.92837 0.03056 0.0
O126 O 0.40893 0.8841 0.99427 0.0
C127 C 0.44927 0.92896 0.04555 0.0
H128 H 0.46443 0.95185 0.94139 0.0
H129 H 0.40771 0.86189 0.10997 0.0
H130 H 0.44424 0.79384 0.99935 0.0
H131 H 0.51764 0.83112 0.02367 0.0
Co132 Co 0.14437 0.68741 0.26868 0.0
C133 C 0.17023 0.73399 0.24239 0.0
C134 C 0.14645 0.71138 0.21503 0.0
C135 C 0.15695 0.73293 0.20168 0.0
N136 N 0.15505 0.71179 0.24052 0.0
N137 N 0.17184 0.74691 0.21898 0.0
H138 H 0.17983 0.74087 0.26039 0.0
H139 H 0.133 0.69682 0.20666 0.0
C140 C 0.1235 0.63771 0.24044 0.0
O141 O 0.11075 0.62911 0.26153 0.0
N142 N 0.13371 0.66348 0.2972 0.0
C143 C 0.11499 0.66803 0.31597 0.0
C144 C 0.11527 0.64736 0.33401 0.0
C145 C 0.14565 0.64044 0.30456 0.0
N146 N 0.13446 0.63011 0.32669 0.0
C147 C 0.10879 0.73087 0.27567 0.0
C148 C 0.06213 0.70588 0.26036 0.0
C149 C 0.06134 0.73277 0.26764 0.0
C150 C 0.08498 0.74529 0.2754 0.0
C151 C 0.08644 0.69212 0.26093 0.0
N152 N 0.10945 0.70463 0.26849 0.0
H153 H 0.12692 0.74098 0.28139 0.0
H154 H 0.08645 0.6715 0.25544 0.0
H155 H 0.10237 0.68545 0.31697 0.0
H156 H 0.16224 0.63149 0.29411 0.0
O157 O 0.16214 0.70928 0.29512 0.0
O158 O 0.18088 0.67595 0.27308 0.0
O159 O 0.1347 0.66057 0.24013 0.0
C160 C 0.18325 0.69482 0.2906 0.0
H161 H 0.15387 0.73804 0.18099 0.0
H162 H 0.10257 0.64521 0.3513 0.0
H163 H 0.04408 0.69563 0.25435 0.0
H164 H 0.08503 0.76608 0.28111 0.0
Co165 Co 0.93911 0.62883 1.00854 0.0
C166 C 0.98317 0.60059 0.03672 0.0
C167 C 0.96047 0.62548 0.06301 0.0
C168 C 0.9813 0.61458 0.07718 0.0
N169 N 0.96148 0.61658 0.03765 0.0
N170 N 0.99537 0.59905 0.06054 0.0
H171 H 0.99065 0.59099 0.01897 0.0
H172 H 0.94629 0.63981 0.07057 0.0
C173 C 0.88749 0.64764 0.0355 0.0
O174 O 0.8783 0.65928 0.01402 0.0
N175 N 0.9171 0.64101 0.97909 0.0
C176 C 0.92381 0.65978 0.96108 0.0
C177 C 0.90511 0.65994 0.94103 0.0
C178 C 0.89476 0.62943 0.96924 0.0
N179 N 0.88702 0.64083 0.94616 0.0
C180 C 0.98285 0.6648 1.00858 0.0
C181 C 0.95488 0.71134 0.0177 0.0
C182 C 0.98259 0.71254 0.01411 0.0
C183 C 0.99662 0.68893 1.00966 0.0
C184 C 0.94181 0.68667 0.01649 0.0
N185 N 0.95581 0.66377 0.01191 0.0
H186 H 0.99399 0.64679 1.00481 0.0
H187 H 0.92045 0.68625 0.01836 0.0
H188 H 0.94165 0.67184 0.96176 0.0
H189 H 0.8846 0.61284 0.9785 0.0
O190 O 0.96312 0.61339 0.98269 0.0
O191 O 0.92863 0.59253 1.00077 0.0
O192 O 0.91061 0.6369 0.03599 0.0
C193 C 0.94867 0.59191 0.98429 0.0
H194 H 0.98624 0.61833 0.09781 0.0
H195 H 0.90504 0.6727 0.92367 0.0
H196 H 0.94343 0.72934 0.02091 0.0
H197 H 0.01803 0.6892 1.0067 0.0
Co198 Co 0.87922 0.8379 0.27198 0.0
C199 C 0.85524 0.79236 0.24239 0.0
C200 C 0.85746 0.82649 0.21722 0.0
C201 C 0.84598 0.80606 0.20304 0.0
N202 N 0.86452 0.81774 0.24171 0.0
N203 N 0.84424 0.78478 0.2191 0.0
H204 H 0.85518 0.77987 0.25988 0.0
H205 H 0.85874 0.84662 0.21013 0.0
C206 C 0.90142 0.86889 0.22554 0.0
O207 O 0.91109 0.84682 0.21531 0.0
N208 N 0.89267 0.85734 0.30226 0.0
C209 C 0.90598 0.84684 0.32307 0.0
C210 C 0.90677 0.86538 0.34323 0.0
C211 C 0.8856 0.88212 0.30992 0.0
N212 N 0.89379 0.88738 0.33498 0.0
C213 C 0.91426 0.79265 0.27168 0.0
C214 C 0.96143 0.82046 0.26527 0.0
C215 C 0.96225 0.79268 0.2674 0.0
C216 C 0.93837 0.77875 0.27075 0.0
C217 C 0.93681 0.83364 0.26633 0.0
N218 N 0.91349 0.81967 0.26872 0.0
H219 H 0.89633 0.78164 0.2757 0.0
H220 H 0.93656 0.85513 0.2658 0.0
H221 H 0.91308 0.82654 0.32416 0.0
H222 H 0.87322 0.8953 0.29817 0.0
O223 O 0.86119 0.81384 0.29618 0.0
O224 O 0.84399 0.85106 0.27961 0.0
O225 O 0.89058 0.8685 0.24847 0.0
C226 C 0.84105 0.83017 0.29455 0.0
H227 H 0.83778 0.80725 0.18314 0.0
H228 H 0.9151 0.86254 0.3629 0.0
H229 H 0.97968 0.83185 0.26332 0.0
H230 H 0.93842 0.75732 0.27316 0.0
Co231 Co 0.08559 0.89576 1.0052 0.0
C232 C 0.03969 0.91477 0.03849 0.0
C233 C 0.07742 0.92618 0.05474 0.0
C234 C 0.05766 0.93814 0.06948 0.0
N235 N 0.06631 0.91098 0.03551 0.0
N236 N 0.03397 0.93142 0.05884 0.0
H237 H 0.02472 0.9076 0.0249 0.0
H238 H 0.09849 0.92996 0.05687 0.0
C239 C 0.11647 0.8781 0.05328 0.0
O240 O 0.09378 0.87205 0.06491 0.0
N241 N 0.10486 0.88165 0.97491 0.0
C242 C 0.09457 0.86705 0.95485 0.0
C243 C 0.11423 0.86269 0.93615 0.0
C244 C 0.13054 0.88622 0.96809 0.0
N245 N 0.13667 0.87486 0.94449 0.0
C246 C 0.0413 0.8596 1.00285 0.0
C247 C 0.0684 0.81409 0.01775 0.0
C248 C 0.04106 0.81245 0.01221 0.0
C249 C 0.02754 0.8355 1.00448 0.0
C250 C 0.08147 0.83871 0.01584 0.0
N251 N 0.0677 0.86137 1.00947 0.0
H252 H 0.03078 0.87666 0.99525 0.0
H253 H 0.10279 0.83924 0.01872 0.0
H254 H 0.07407 0.86046 0.95363 0.0
H255 H 0.14428 0.89799 0.97983 0.0
O256 O 0.06079 0.91286 0.98096 0.0
O257 O 0.0978 0.93123 0.99648 0.0
O258 O 0.1166 0.88539 0.02894 0.0
C259 C 0.07653 0.93344 0.98182 0.0
H260 H 0.0605 0.95264 0.08517 0.0
H261 H 0.11218 0.85182 0.91767 0.0
H262 H 0.07963 0.79642 0.02293 0.0
H263 H 1.0066 0.83473 0.99917 0.0
Co264 Co 0.26047 0.14561 0.3307 0.0
C265 C 0.29175 0.16241 0.28357 0.0
C266 C 0.3137 0.16762 0.31985 0.0
C267 C 0.32845 0.17813 0.29932 0.0
N268 N 0.29056 0.158 0.31 0.0
N269 N 0.3143 0.17541 0.27671 0.0
H270 H 0.27564 0.15799 0.26991 0.0
H271 H 0.31885 0.16872 0.34069 0.0
C272 C 0.28642 0.12239 0.38084 0.0
O273 O 0.26708 0.10521 0.3848 0.0
N274 N 0.23034 0.1336 0.35199 0.0
C275 C 0.20927 0.11894 0.34387 0.0
C276 C 0.19021 0.1189 0.36357 0.0
C277 C 0.22358 0.14234 0.37659 0.0
N278 N 0.19916 0.13374 0.384 0.0
C279 C 0.24771 0.10531 0.29282 0.0
C280 C 0.28528 0.06779 0.30726 0.0
C281 C 0.26747 0.062 0.28652 0.0
C282 C 0.2488 0.08122 0.27922 0.0
C283 C 0.28348 0.09242 0.32057 0.0
N284 N 0.26416 0.11053 0.3139 0.0
H285 H 0.23307 0.1196 0.28638 0.0
H286 H 0.29797 0.09684 0.33574 0.0
H287 H 0.20697 0.10987 0.3246 0.0
H288 H 0.23584 0.15538 0.38849 0.0
O289 O 0.23561 0.16184 0.30562 0.0
O290 O 0.25229 0.1822 0.34081 0.0
O291 O 0.28645 0.13754 0.36047 0.0
C292 C 0.23686 0.1832 0.32001 0.0
H293 H 0.34694 0.18913 0.30117 0.0
H294 H 0.17098 0.10911 0.36282 0.0
H295 H 0.30041 0.05351 0.31302 0.0
H296 H 0.23498 0.07758 0.26303 0.0
Co297 Co 0.39496 0.51601 0.93605 0.0
C298 C 0.41429 0.48906 0.98562 0.0
C299 C 0.42207 0.46633 0.95038 0.0
C300 C 0.43395 0.4537 0.97156 0.0
N301 N 0.4097 0.48858 0.95909 0.0
N302 N 0.42916 0.46814 0.99359 0.0
H303 H 0.4082 0.50483 0.99879 0.0
H304 H 0.42395 0.46047 0.92977 0.0
C305 C 0.37501 0.48543 0.88692 0.0
O306 O 0.35994 0.50511 0.87867 0.0
N307 N 0.38093 0.54339 0.91269 0.0
C308 C 0.36177 0.56143 0.91832 0.0
C309 C 0.36053 0.57975 0.89791 0.0
C310 C 0.39126 0.55118 0.88911 0.0
N311 N 0.37919 0.57328 0.87975 0.0
C312 C 0.35823 0.52278 0.979 0.0
C313 C 0.31344 0.50129 0.95535 0.0
C314 C 0.3115 0.51121 0.98133 0.0
C315 C 0.33432 0.52189 0.99318 0.0
C316 C 0.338 0.50212 0.94196 0.0
N317 N 0.36022 0.51261 0.95383 0.0
H318 H 0.37503 0.53229 0.98833 0.0
H319 H 0.33857 0.49491 0.92195 0.0
H320 H 0.35025 0.56203 0.93649 0.0
H321 H 0.40771 0.54128 0.87928 0.0
O322 O 0.41025 0.54389 0.95806 0.0
O323 O 0.43115 0.52446 0.92472 0.0
O324 O 0.38738 0.48672 0.90916 0.0
C325 C 0.43194 0.54158 0.94417 0.0
H326 H 0.44666 0.4363 0.97066 0.0
H327 H 0.34774 0.59709 0.89694 0.0
H328 H 0.29604 0.49324 0.9454 0.0
H329 H 0.33349 0.53011 0.0131 0.0
Co330 Co 0.76939 0.38273 0.33605 0.0
C331 C 0.74357 0.35592 0.28975 0.0
C332 C 0.71565 0.37901 0.31243 0.0
C333 C 0.7024 0.36813 0.29105 0.0
N334 N 0.74143 0.37108 0.31188 0.0
N335 N 0.72003 0.35366 0.27704 0.0
H336 H 0.76184 0.34695 0.28268 0.0
H337 H 0.70702 0.39236 0.32691 0.0
C338 C 0.73995 0.40255 0.38569 0.0
O339 O 0.76064 0.41599 0.39427 0.0
N340 N 0.79766 0.39453 0.35999 0.0
C341 C 0.81456 0.41514 0.35625 0.0
C342 C 0.83304 0.41547 0.37657 0.0
C343 C 0.80667 0.38216 0.38221 0.0
N344 N 0.82806 0.39472 0.39274 0.0
C345 C 0.77516 0.41834 0.29257 0.0
C346 C 0.75781 0.4645 0.31692 0.0
C347 C 0.76559 0.4654 0.29014 0.0
C348 C 0.7743 0.44197 0.27798 0.0
C349 C 0.75898 0.44032 0.3309 0.0
N350 N 0.7677 0.41758 0.31872 0.0
H351 H 0.78163 0.40044 0.28262 0.0
H352 H 0.75317 0.44023 0.35144 0.0
H353 H 0.8141 0.4287 0.33958 0.0
H354 H 0.79791 0.3643 0.39048 0.0
O355 O 0.79653 0.36616 0.31395 0.0
O356 O 0.77547 0.34624 0.34711 0.0
O357 O 0.74029 0.39107 0.36299 0.0
C358 C 0.79291 0.34472 0.32801 0.0
H359 H 0.68156 0.37076 0.28599 0.0
H360 H 0.84925 0.42951 0.37904 0.0
H361 H 0.75104 0.48236 0.32693 0.0
H362 H 0.78038 0.44194 0.25729 0.0
Co363 Co 0.62936 1.00518 0.93595 0.0
C364 C 0.6134 0.03639 0.9835 0.0
C365 C 0.59931 0.05424 0.94751 0.0
C366 C 0.58746 0.06704 0.96864 0.0
N367 N 0.6157 0.03497 0.95673 0.0
N368 N 0.5963 0.05564 0.99115 0.0
H369 H 0.62137 0.02198 0.9972 0.0
H370 H 0.59427 0.05724 0.92688 0.0
C371 C 0.64726 0.0542 0.90653 0.0
O372 O 0.65294 0.06564 0.92935 0.0
N373 N 0.64181 0.97532 0.9153 0.0
C374 C 0.65692 0.95481 0.92383 0.0
C375 C 0.65723 0.93546 0.90439 0.0
C376 C 0.63301 0.9682 0.89093 0.0
N377 N 0.64203 0.94391 0.88397 0.0
C378 C 0.66586 0.99797 0.97949 0.0
C379 C 0.71152 0.01586 0.95452 0.0
C380 C 0.71304 1.00799 0.98126 0.0
C381 C 0.68984 0.99875 0.99362 0.0
C382 C 0.68691 0.01501 0.94111 0.0
N383 N 0.66413 1.00719 0.95395 0.0
H384 H 0.64878 0.98924 0.98911 0.0
H385 H 0.6865 0.01995 0.92026 0.0
H386 H 0.666 0.95338 0.94328 0.0
H387 H 0.61935 0.97996 0.87908 0.0
O388 O 0.611 0.98082 0.95975 0.0
O389 O 0.5935 0.99833 0.92333 0.0
O390 O 0.64039 0.02972 0.90587 0.0
C391 C 0.59056 0.983 0.94393 0.0
H392 H 0.57201 0.08206 0.96755 0.0
H393 H 0.66703 0.91629 0.90547 0.0
H394 H 0.72927 0.02226 0.94402 0.0
H395 H 0.69039 0.99166 0.01397 0.0
Co396 Co 0.25837 0.87714 0.18593 0.0
C397 C 0.28486 0.84998 0.23145 0.0
C398 C 0.31253 0.87291 0.20832 0.0
C399 C 0.32607 0.86197 0.2295 0.0
N400 N 0.28672 0.86516 0.20935 0.0
N401 N 0.30856 0.84764 0.24379 0.0
H402 H 0.26664 0.84117 0.23885 0.0
H403 H 0.32092 0.88626 0.19368 0.0
C404 C 0.28674 0.89305 0.13433 0.0
O405 O 0.2657 0.90492 0.12433 0.0
N406 N 0.22965 0.88924 0.16294 0.0
C407 C 0.21218 0.90894 0.16848 0.0
C408 C 0.1924 0.90898 0.1495 0.0
C409 C 0.21977 0.87709 0.14098 0.0
N410 N 0.19717 0.88895 0.13238 0.0
C411 C 0.25644 0.91504 0.22804 0.0
C412 C 0.27067 0.95955 0.19948 0.0
C413 C 0.26134 0.96345 0.2258 0.0
C414 C 0.25673 0.93991 0.2405 0.0
C415 C 0.26997 0.93429 0.18761 0.0
N416 N 0.26197 0.91251 0.20163 0.0
H417 H 0.25163 0.89764 0.23972 0.0
H418 H 0.2756 0.93252 0.16711 0.0
H419 H 0.21306 0.92183 0.18567 0.0
H420 H 0.22872 0.85985 0.13164 0.0
O421 O 0.23149 0.86251 0.20951 0.0
O422 O 0.25046 0.8408 0.17612 0.0
O423 O 0.28668 0.8836 0.15792 0.0
C424 C 0.23343 0.84068 0.19563 0.0
H425 H 0.34697 0.86456 0.23429 0.0
H426 H 0.17552 0.9224 0.14853 0.0
H427 H 0.27908 0.97521 0.18759 0.0
H428 H 0.25322 0.94033 0.2617 0.0
Co429 Co 0.13029 0.51858 0.08947 0.0
C430 C 0.11155 0.49526 0.03876 0.0
C431 C 0.1044 0.46912 0.07176 0.0
C432 C 0.09286 0.45821 0.0494 0.0
N433 N 0.11614 0.49236 0.06506 0.0
N434 N 0.09736 0.47478 0.02884 0.0
H435 H 0.11694 0.51259 0.02727 0.0
H436 H 0.10303 0.46125 0.09172 0.0
C437 C 0.15064 0.48685 0.1371 0.0
O438 O 0.16475 0.50686 0.1462 0.0
N439 N 0.14378 0.54533 0.11404 0.0
C440 C 0.1654 0.56113 0.11107 0.0
C441 C 0.16632 0.57901 0.13188 0.0
C442 C 0.13157 0.55427 0.13634 0.0
N443 N 0.14502 0.57464 0.14757 0.0
C444 C 0.16696 0.52888 0.04692 0.0
C445 C 0.21081 0.50279 0.06753 0.0
C446 C 0.21268 0.51426 0.04222 0.0
C447 C 0.19041 0.5275 0.03197 0.0
C448 C 0.18673 0.50421 0.08167 0.0
N449 N 0.16488 0.51672 0.07118 0.0
H450 H 0.15048 0.53997 0.0388 0.0
H451 H 0.18623 0.4957 0.10116 0.0
H452 H 0.17927 0.5604 0.09465 0.0
H453 H 0.11313 0.54626 0.14416 0.0
O454 O 0.11365 0.54666 0.0689 0.0
O455 O 0.09437 0.52501 0.10207 0.0
O456 O 0.13875 0.48825 0.11468 0.0
C457 C 0.09251 0.54281 0.08341 0.0
H458 H 0.08142 0.43997 0.04838 0.0
H459 H 0.18107 0.59445 0.13496 0.0
H460 H 0.22785 0.49285 0.07632 0.0
H461 H 0.19126 0.53702 0.01265 0.0
Co462 Co 0.7679 0.64805 0.18607 0.0
C463 C 0.73913 0.67068 0.23283 0.0
C464 C 0.71201 0.66509 0.20058 0.0
C465 C 0.69804 0.6753 0.22173 0.0
N466 N 0.73778 0.66103 0.20765 0.0
N467 N 0.71526 0.67924 0.24178 0.0
H468 H 0.75733 0.67253 0.24424 0.0
H469 H 0.70356 0.66279 0.18113 0.0
C470 C 0.72164 0.62549 0.15401 0.0
O471 O 0.7125 0.61299 0.17509 0.0
N472 N 0.79778 0.63611 0.1649 0.0
C473 C 0.81886 0.62161 0.17314 0.0
C474 C 0.83713 0.62012 0.15267 0.0
C475 C 0.80348 0.6434 0.13969 0.0
N476 N 0.82735 0.63383 0.1318 0.0
C477 C 0.76814 0.61171 0.2299 0.0
C478 C 0.76314 0.56508 0.20114 0.0
C479 C 0.76484 0.56375 0.22897 0.0
C480 C 0.76751 0.5874 0.24332 0.0
C481 C 0.76386 0.58997 0.18841 0.0
N482 N 0.76556 0.61299 0.20288 0.0
H483 H 0.77141 0.62948 0.24137 0.0
H484 H 0.76339 0.59072 0.16693 0.0
H485 H 0.82122 0.61352 0.19294 0.0
H486 H 0.79091 0.6562 0.12772 0.0
O487 O 0.79276 0.66495 0.21045 0.0
O488 O 0.77494 0.68421 0.17496 0.0
O489 O 0.74367 0.63813 0.15534 0.0
C490 C 0.79061 0.68602 0.19551 0.0
H491 H 0.6773 0.68135 0.22175 0.0
H492 H 0.85643 0.61044 0.15325 0.0
H493 H 0.76165 0.54706 0.1894 0.0
H494 H 0.76952 0.58705 0.26478 0.0
Co495 Co 0.89489 1.00617 0.08936 0.0
C496 C 0.90953 0.03343 0.0394 0.0
C497 C 0.9207 0.05604 0.07386 0.0
C498 C 0.93147 0.06811 0.05174 0.0
N499 N 0.9072 0.03413 0.0661 0.0
N500 N 0.92444 0.05375 0.03024 0.0
H501 H 0.90291 0.01719 0.027 0.0
H502 H 0.92429 0.06168 0.09431 0.0
C503 C 0.87501 0.03568 0.13903 0.0
O504 O 0.86395 0.01434 0.14925 0.0
N505 N 0.88326 0.97777 0.11276 0.0
C506 C 0.86444 0.95927 0.10756 0.0
C507 C 0.86537 0.94 0.12698 0.0
C508 C 0.89571 0.96917 0.13506 0.0
N509 N 0.88512 0.9462 0.14406 0.0
C510 C 0.8579 0.9948 0.04718 0.0
C511 C 0.81333 0.0187 0.06887 0.0
C512 C 0.81153 1.00764 0.04331 0.0
C513 C 0.83415 0.99539 0.03262 0.0
C514 C 0.83768 0.01793 0.08272 0.0
N515 N 0.85991 1.00675 0.07157 0.0
H516 H 0.87469 0.98448 0.03866 0.0
H517 H 0.83824 0.0258 0.10253 0.0
H518 H 0.8515 0.95907 0.09038 0.0
H519 H 0.91248 0.97914 0.14424 0.0
O520 O 0.91284 0.97975 0.06742 0.0
O521 O 0.93141 1.00081 0.10126 0.0
O522 O 0.88512 0.03533 0.11569 0.0
C523 C 0.9339 0.98371 0.08199 0.0
H524 H 0.94467 0.08517 0.05153 0.0
H525 H 0.85281 0.92252 0.12832 0.0
H526 H 0.79602 0.02776 0.07807 0.0
H527 H 0.8334 0.9861 0.01318 0.0
Co528 Co 0.33931 0.25605 0.14091 0.0
C529 C 0.29564 0.28339 0.17146 0.0
C530 C 0.30897 0.30558 0.13756 0.0
C531 C 0.28695 0.31811 0.148 0.0
N532 N 0.31436 0.28361 0.15203 0.0
N533 N 0.27878 0.30433 0.16949 0.0
H534 H 0.29314 0.26759 0.18579 0.0
H535 H 0.31937 0.31126 0.11958 0.0
C536 C 0.38776 0.28608 0.11987 0.0
O537 O 0.39721 0.26508 0.10758 0.0
N538 N 0.3641 0.22831 0.1295 0.0
C539 C 0.36088 0.21111 0.10909 0.0
C540 C 0.38177 0.19329 0.10901 0.0
C541 C 0.38663 0.22009 0.14201 0.0
N542 N 0.39789 0.19898 0.12968 0.0
C543 C 0.29514 0.24872 0.10633 0.0
C544 C 0.31885 0.26446 0.05927 0.0
C545 C 0.29187 0.25708 0.05914 0.0
C546 C 0.28003 0.24917 0.08302 0.0
C547 C 0.33329 0.26392 0.08318 0.0
N548 N 0.3214 0.25607 0.10636 0.0
H549 H 0.28549 0.24295 0.12464 0.0
H550 H 0.35396 0.26951 0.08277 0.0
H551 H 0.34406 0.21072 0.09565 0.0
H552 H 0.39442 0.22897 0.16002 0.0
O553 O 0.31826 0.22893 0.15854 0.0
O554 O 0.35149 0.25124 0.17709 0.0
O555 O 0.36494 0.28568 0.1312 0.0
C556 C 0.33316 0.23307 0.17937 0.0
H557 H 0.27722 0.33563 0.14007 0.0
H558 H 0.38443 0.17674 0.09546 0.0
H559 H 0.32863 0.27058 0.04106 0.0
H560 H 0.2592 0.2434 0.08363 0.0
Co561 Co 0.34021 0.76441 0.37563 0.0
C562 C 0.29294 0.7368 0.35284 0.0
C563 C 0.32624 0.71032 0.35386 0.0
C564 C 0.30494 0.69701 0.3429 0.0
N565 N 0.31857 0.73508 0.36131 0.0
N566 N 0.28419 0.71389 0.34196 0.0
H567 H 0.28105 0.75474 0.3533 0.0
H568 H 0.34615 0.70245 0.35454 0.0
C569 C 0.37088 0.71688 0.39604 0.0
O570 O 0.34885 0.7074 0.40662 0.0
N571 N 0.36127 0.79383 0.38872 0.0
C572 C 0.35255 0.81381 0.40441 0.0
C573 C 0.37174 0.83339 0.40515 0.0
C574 C 0.38556 0.80154 0.37999 0.0
N575 N 0.39224 0.82572 0.38961 0.0
C576 C 0.29651 0.7641 0.41251 0.0
C577 C 0.32614 0.75682 0.45833 0.0
C578 C 0.29837 0.75943 0.46029 0.0
C579 C 0.28354 0.76319 0.43707 0.0
C580 C 0.33838 0.75788 0.43326 0.0
N581 N 0.32349 0.76077 0.41061 0.0
H582 H 0.28479 0.76845 0.39515 0.0
H583 H 0.35989 0.757 0.43213 0.0
H584 H 0.33302 0.81473 0.41352 0.0
H585 H 0.39746 0.79037 0.3659 0.0
O586 O 0.31587 0.78979 0.35977 0.0
O587 O 0.35155 0.77271 0.33992 0.0
O588 O 0.37073 0.73968 0.38488 0.0
C589 C 0.33098 0.78847 0.33875 0.0
H590 H 0.30515 0.67717 0.33449 0.0
H591 H 0.3704 0.85227 0.41545 0.0
H592 H 0.33824 0.75453 0.47604 0.0
H593 H 0.26212 0.76597 0.43798 0.0
Co594 Co 0.02518 0.44296 0.89112 0.0
C595 C 0.99402 0.4833 0.92233 0.0
C596 C 0.97597 0.47443 0.88475 0.0
C597 C 0.96152 0.49439 0.89671 0.0
N598 N 0.99666 0.46764 0.9006 0.0
N599 N 0.97315 0.5001 0.92014 0.0
H600 H 1.00709 0.48293 0.93931 0.0
H601 H 0.97229 0.46648 0.86516 0.0
C602 C 0.98102 0.40707 0.90194 0.0
O603 O 0.98181 0.41803 0.92564 0.0
N604 N 0.05322 0.4185 0.8812 0.0
C605 C 0.07667 0.42556 0.87019 0.0
C606 C 0.09342 0.40389 0.87037 0.0
C607 C 0.05581 0.39247 0.88762 0.0
N608 N 0.08043 0.3832 0.88151 0.0
C609 C 0.03367 0.48107 0.8503 0.0
C610 C 1.00904 0.45422 0.80906 0.0
C611 C 0.01903 0.47997 0.80453 0.0
C612 C 0.03203 0.49303 0.82539 0.0
C613 C 1.01211 0.44238 0.83421 0.0
N614 N 0.02363 0.45618 0.85467 0.0
H615 H 0.04245 0.49235 0.8663 0.0
H616 H 1.00456 0.42249 0.83724 0.0
H617 H 0.08165 0.44544 0.86361 0.0
H618 H 0.0405 0.38093 0.89747 0.0
O619 O 0.05205 0.46729 0.90496 0.0
O620 O 0.03273 0.43556 0.92842 0.0
O621 O 0.99759 0.41453 0.88413 0.0
C622 C 0.04996 0.45494 0.92746 0.0
H623 H 0.94477 0.50501 0.88821 0.0
H624 H 0.11387 0.40343 0.86344 0.0
H625 H 0.99887 0.44348 0.79337 0.0
H626 H 0.04004 0.51289 0.8227 0.0
Co627 Co 0.68587 0.75724 0.37805 0.0
C628 C 0.73279 0.7875 0.35809 0.0
C629 C 0.69655 0.8087 0.35077 0.0
C630 C 0.71724 0.8228 0.33962 0.0
N631 N 0.70628 0.78693 0.36327 0.0
N632 N 0.73992 0.80924 0.3441 0.0
H633 H 0.74644 0.77147 0.3623 0.0
H634 H 0.67573 0.81337 0.34826 0.0
C635 C 0.65658 0.80585 0.39715 0.0
O636 O 0.67949 0.81638 0.40433 0.0
N637 N 0.66581 0.7274 0.3916 0.0
C638 C 0.67526 0.70741 0.40681 0.0
C639 C 0.65654 0.68735 0.4075 0.0
C640 C 0.64157 0.71926 0.38313 0.0
N641 N 0.63563 0.69478 0.39241 0.0
C642 C 0.73073 0.75311 0.41347 0.0
C643 C 0.7048 0.76794 0.45965 0.0
C644 C 0.73206 0.76184 0.46073 0.0
C645 C 0.74497 0.75415 0.43734 0.0
C646 C 0.69124 0.76665 0.43524 0.0
N647 N 0.70446 0.76032 0.41226 0.0
H648 H 0.74078 0.74549 0.39618 0.0
H649 H 0.66999 0.77007 0.4351 0.0
H650 H 0.69496 0.70673 0.41554 0.0
H651 H 0.62921 0.73031 0.36934 0.0
O652 O 0.70963 0.7327 0.35995 0.0
O653 O 0.6725 0.74949 0.34291 0.0
O654 O 0.65572 0.78174 0.38916 0.0
C655 C 0.69331 0.73436 0.33985 0.0
H656 H 0.71557 0.84042 0.32734 0.0
H657 H 0.65852 0.6683 0.41739 0.0
H658 H 0.69401 0.77313 0.47758 0.0
H659 H 0.76581 0.74842 0.43764 0.0
Co660 Co 0.50948 0.5826 0.3978 0.0
C661 C 0.53855 0.5366 0.42115 0.0
C662 C 0.56437 0.57032 0.41896 0.0
C663 C 0.5783 0.54965 0.43026 0.0
N664 N 0.53959 0.562 0.41209 0.0
N665 N 0.56184 0.52866 0.43195 0.0
H666 H 0.52084 0.52434 0.42117 0.0
H667 H 0.57186 0.59029 0.4177 0.0
C668 C 0.55603 0.61474 0.37679 0.0
O669 O 0.56645 0.59324 0.36609 0.0
N670 N 0.47942 0.60272 0.38474 0.0
C671 C 0.4593 0.5936 0.36943 0.0
C672 C 0.43971 0.6128 0.36823 0.0
C673 C 0.47183 0.62721 0.39279 0.0
N674 N 0.4476 0.63369 0.38308 0.0
C675 C 0.51008 0.53834 0.36172 0.0
C676 C 0.51639 0.56703 0.31523 0.0
C677 C 0.51393 0.53926 0.31382 0.0
C678 C 0.51072 0.52492 0.33739 0.0
C679 C 0.51562 0.57975 0.3401 0.0
N680 N 0.51311 0.56534 0.36307 0.0
H681 H 0.50615 0.52695 0.37938 0.0
H682 H 0.51633 0.60123 0.3408 0.0
H683 H 0.45837 0.57391 0.36077 0.0
H684 H 0.4832 0.63952 0.40636 0.0
O685 O 0.48478 0.55804 0.4145 0.0
O686 O 0.50134 0.5944 0.4334 0.0
O687 O 0.53321 0.61361 0.3879 0.0
C688 C 0.48602 0.5736 0.4352 0.0
H689 H 0.59829 0.55049 0.43839 0.0
H690 H 0.42075 0.61128 0.35801 0.0
H691 H 0.5183 0.57877 0.29727 0.0
H692 H 0.50812 0.50352 0.33695 0.0
Co693 Co 0.19262 0.76532 0.6418 0.0
C694 C 0.23781 0.73829 0.66932 0.0
C695 C 0.21354 0.71048 0.64782 0.0
C696 C 0.2345 0.69682 0.65917 0.0
N697 N 0.2154 0.73651 0.65439 0.0
N698 N 0.24953 0.71441 0.67264 0.0
H699 H 0.24578 0.75658 0.67741 0.0
H700 H 0.19843 0.7019 0.63516 0.0
C701 C 0.14203 0.73859 0.62038 0.0
O702 O 0.13468 0.75979 0.60699 0.0
N703 N 0.17053 0.79457 0.62941 0.0
C704 C 0.17832 0.81384 0.61243 0.0
C705 C 0.1597 0.83397 0.61271 0.0
C706 C 0.14739 0.80353 0.64011 0.0
N707 N 0.14028 0.82749 0.63009 0.0
C708 C 0.23739 0.76859 0.60719 0.0
C709 C 0.21224 0.75479 0.56026 0.0
C710 C 0.23955 0.76067 0.55985 0.0
C711 C 0.25217 0.76758 0.58366 0.0
C712 C 0.19813 0.75606 0.5843 0.0
N713 N 0.21071 0.76295 0.60744 0.0
H714 H 0.24752 0.77393 0.62538 0.0
H715 H 0.17719 0.75179 0.58396 0.0
H716 H 0.19696 0.814 0.60161 0.0
H717 H 0.13646 0.79319 0.65553 0.0
O718 O 0.21538 0.79147 0.65889 0.0
O719 O 0.18054 0.7719 0.67773 0.0
O720 O 0.16454 0.73769 0.63239 0.0
C721 C 0.20024 0.78864 0.67975 0.0
H722 H 0.23858 0.67572 0.65752 0.0
H723 H 0.16062 0.85235 0.6015 0.0
H724 H 0.20189 0.74948 0.54209 0.0
H725 H 0.27327 0.77225 0.58401 0.0
Co726 Co 0.01782 0.59003 0.62577 0.0
C727 C 0.99455 0.54168 0.59968 0.0
C728 C 0.96451 0.56618 0.61759 0.0
C729 C 0.9525 0.54368 0.60781 0.0
N730 N 0.99104 0.56486 0.613 0.0
N731 N 0.97129 0.52847 0.59618 0.0
H732 H 0.01361 0.5344 0.5927 0.0
H733 H 0.95424 0.58213 0.6277 0.0
C734 C 0.98702 0.63908 0.62494 0.0
O735 O 1.00716 0.64883 0.61142 0.0
N736 N 0.0441 0.61557 0.63905 0.0
C737 C 0.04622 0.62408 0.66447 0.0
C738 C 0.06448 0.6445 0.66569 0.0
C739 C 0.06094 0.63144 0.6251 0.0
N740 N 0.07358 0.64911 0.64095 0.0
C741 C 0.03891 0.56051 0.6695 0.0
C742 C 0.99187 0.55564 0.69785 0.0
C743 C 0.01477 0.54258 0.70721 0.0
C744 C 0.03865 0.54567 0.69301 0.0
C745 C 0.99325 0.57123 0.67482 0.0
N746 N 0.01639 0.57291 0.66053 0.0
H747 H 0.05729 0.56208 0.65838 0.0
H748 H 0.97552 0.58147 0.66836 0.0
H749 H 0.03428 0.61702 0.68092 0.0
H750 H 0.06288 0.63133 0.60368 0.0
O751 O 0.0459 0.56883 0.61001 0.0
O752 O 0.02419 0.60136 0.58954 0.0
O753 O 0.98855 0.61573 0.63482 0.0
C754 C 0.04223 0.58276 0.5885 0.0
H755 H 0.93145 0.53896 0.60884 0.0
H756 H 0.06956 0.65613 0.68311 0.0
H757 H 0.97308 0.55388 0.70836 0.0
H758 H 0.05683 0.53614 0.69975 0.0
Co759 Co 1.0111 0.93767 0.62902 0.0
C760 C 0.0437 0.9751 0.59605 0.0
C761 C 0.05952 0.97152 0.63534 0.0
C762 C 0.07312 0.99139 0.62251 0.0
N763 N 0.04087 0.96102 0.61887 0.0
N764 N 0.06276 0.99393 0.59804 0.0
H765 H 0.0309 0.97337 0.57888 0.0
H766 H 0.06095 0.96815 0.65641 0.0
C767 C 0.05844 0.9052 0.65076 0.0
O768 O 0.06584 0.92372 0.66753 0.0
N769 N 0.98135 0.91513 0.63906 0.0
C770 C 0.96041 0.92302 0.65399 0.0
C771 C 0.94121 0.90349 0.65357 0.0
C772 C 0.97444 0.89093 0.62941 0.0
N773 N 0.94997 0.88351 0.63805 0.0
C774 C 1.00698 0.98026 0.6656 0.0
C775 C 0.01394 0.95215 0.71233 0.0
C776 C 1.01071 0.97992 0.7134 0.0
C777 C 1.00694 0.99389 0.68971 0.0
C778 C 0.01383 0.93913 0.68753 0.0
N779 N 1.01123 0.95341 0.66453 0.0
H780 H 1.00426 0.99147 0.64746 0.0
H781 H 0.01579 0.91771 0.68678 0.0
H782 H 0.95863 0.94223 0.66354 0.0
H783 H 0.98646 0.87954 0.61561 0.0
O784 O 0.98553 0.96148 0.61243 0.0
O785 O 1.0057 0.92824 0.59206 0.0
O786 O 0.03684 0.9075 0.63738 0.0
C787 C 0.98848 0.94758 0.59076 0.0
H788 H 0.08717 1.00508 0.6315 0.0
H789 H 0.92184 0.90428 0.66306 0.0
H790 H 0.01637 0.94072 0.73042 0.0
H791 H 1.00405 0.01527 0.68986 0.0
Co792 Co 0.64745 0.83883 0.75252 0.0
C793 C 0.66979 0.79203 0.78184 0.0
C794 C 0.67231 0.82743 0.80525 0.0
C795 C 0.68356 0.80697 0.81947 0.0
N796 N 0.66246 0.81803 0.78201 0.0
N797 N 0.68228 0.78484 0.80454 0.0
H798 H 0.66786 0.77893 0.76494 0.0
H799 H 0.67306 0.84797 0.81117 0.0
C800 C 0.62698 0.86814 0.80076 0.0
O801 O 0.61855 0.84556 0.81094 0.0
N802 N 0.63373 0.85966 0.72329 0.0
C803 C 0.61791 0.85162 0.70313 0.0
C804 C 0.61564 0.87222 0.68507 0.0
C805 C 0.64105 0.88478 0.71721 0.0
N806 N 0.63028 0.89288 0.69402 0.0
C807 C 0.61226 0.79369 0.75012 0.0
C808 C 0.56543 0.82017 0.76209 0.0
C809 C 0.56461 0.79262 0.75773 0.0
C810 C 0.58835 0.77943 0.75147 0.0
C811 C 0.58988 0.83374 0.76054 0.0
N812 N 0.61313 0.82033 0.75555 0.0
H813 H 0.62993 0.7833 0.74389 0.0
H814 H 0.58995 0.85511 0.76284 0.0
H815 H 0.60945 0.83192 0.70117 0.0
H816 H 0.65477 0.89653 0.72899 0.0
O817 O 0.66532 0.8155 0.7274 0.0
O818 O 0.68272 0.85214 0.74483 0.0
O819 O 0.63638 0.86864 0.77722 0.0
C820 C 0.68553 0.8317 0.72924 0.0
H821 H 0.69382 0.80861 0.83836 0.0
H822 H 0.60496 0.87176 0.66635 0.0
H823 H 0.54729 0.83112 0.76624 0.0
H824 H 0.58832 0.75829 0.7472 0.0
Co825 Co 0.08878 0.12573 0.51223 0.0
C826 C 0.04219 0.10859 0.48066 0.0
C827 C 0.07861 0.09326 0.46456 0.0
C828 C 0.0576 0.0809 0.45191 0.0
N829 N 0.06897 0.11082 0.48254 0.0
N830 N 0.03486 0.09055 0.46229 0.0
H831 H 0.02816 0.11751 0.49419 0.0
H832 H 0.09938 0.08797 0.46244 0.0
C833 C 0.11939 0.1416 0.46352 0.0
O834 O 0.09675 0.14642 0.45125 0.0
N835 N 0.10839 0.13948 0.54225 0.0
C836 C 0.09909 0.15567 0.56156 0.0
C837 C 0.1176 0.15668 0.58178 0.0
C838 C 0.1323 0.13075 0.55097 0.0
N839 N 0.13822 0.14088 0.57507 0.0
C840 C 0.04509 0.16229 0.51749 0.0
C841 C 0.0709 0.20734 0.49942 0.0
C842 C 0.04423 0.20928 0.50757 0.0
C843 C 0.03138 0.18643 0.51677 0.0
C844 C 0.08393 0.18262 0.50035 0.0
N845 N 0.07075 0.16018 0.50844 0.0
H846 H 0.03519 0.14552 0.52644 0.0
H847 H 0.10487 0.18197 0.49557 0.0
H848 H 0.07963 0.16493 0.56172 0.0
H849 H 0.14444 0.11624 0.5406 0.0
O850 O 0.06421 0.10837 0.53631 0.0
O851 O 0.10135 0.09032 0.52078 0.0
O852 O 0.11953 0.13599 0.48829 0.0
C853 C 0.0802 0.08799 0.53555 0.0
H854 H 0.05887 0.06467 0.4378 0.0
H855 H 0.11563 0.16723 0.60046 0.0
H856 H 0.08171 0.22489 0.49305 0.0
H857 H 1.01106 0.18741 0.52408 0.0
Co858 Co 0.38256 0.68599 0.7571 0.0
C859 C 0.35408 0.7321 0.78193 0.0
C860 C 0.3788 0.71124 0.80985 0.0
C861 C 0.36722 0.7325 0.82272 0.0
N862 N 0.37037 0.71074 0.78431 0.0
N863 N 0.35172 0.74538 0.80511 0.0
H864 H 0.34452 0.73832 0.76367 0.0
H865 H 0.39304 0.6976 0.81851 0.0
C866 C 0.40206 0.63707 0.78752 0.0
O867 O 0.41574 0.62812 0.7672 0.0
N868 N 0.39473 0.66132 0.72959 0.0
C869 C 0.41567 0.66443 0.71296 0.0
C870 C 0.41631 0.6434 0.69532 0.0
C871 C 0.38244 0.63877 0.72117 0.0
N872 N 0.39545 0.62737 0.70055 0.0
C873 C 0.41836 0.72949 0.75136 0.0
C874 C 0.46472 0.70485 0.76806 0.0
C875 C 0.46576 0.73158 0.76009 0.0
C876 C 0.44219 0.74391 0.7518 0.0
C877 C 0.44034 0.69107 0.76739 0.0
N878 N 0.41751 0.70335 0.75887 0.0
H879 H 0.40038 0.7395 0.74505 0.0
H880 H 0.44018 0.67056 0.77327 0.0
H881 H 0.42928 0.68111 0.71306 0.0
H882 H 0.36431 0.6309 0.72978 0.0
O883 O 0.36644 0.70748 0.72936 0.0
O884 O 0.34618 0.67467 0.75073 0.0
O885 O 0.39054 0.65974 0.78674 0.0
C886 C 0.34499 0.69323 0.73274 0.0
H887 H 0.37026 0.73838 0.84322 0.0
H888 H 0.43066 0.64033 0.67952 0.0
H889 H 0.48264 0.69469 0.77454 0.0
H890 H 0.44224 0.76457 0.7456 0.0
Co891 Co 0.94085 0.39204 0.51659 0.0
C892 C 0.98584 0.42164 0.49096 0.0
C893 C 0.96872 0.39215 0.46522 0.0
C894 C 0.98995 0.40375 0.45225 0.0
N895 N 0.96607 0.40338 0.4895 0.0
N896 N 1.00053 0.42219 0.46852 0.0
H897 H 0.99007 0.43389 0.50808 0.0
H898 H 0.95664 0.37596 0.45776 0.0
C899 C 0.89134 0.37381 0.48608 0.0
O900 O 0.88174 0.36106 0.50672 0.0
N901 N 0.91594 0.38076 0.54402 0.0
C902 C 0.92025 0.36182 0.56259 0.0
C903 C 0.89968 0.36233 0.58079 0.0
C904 C 0.89312 0.39301 0.55165 0.0
N905 N 0.88275 0.38189 0.5738 0.0
C906 C 0.98357 0.35549 0.52128 0.0
C907 C 0.95726 0.30973 0.5057 0.0
C908 C 0.98452 0.30839 0.51186 0.0
C909 C 0.99766 0.3316 0.51975 0.0
C910 C 0.94384 0.3342 0.50737 0.0
N911 N 0.95705 0.35673 0.51505 0.0
H912 H 0.99416 0.3733 0.52706 0.0
H913 H 0.92298 0.33473 0.50265 0.0
H914 H 0.93762 0.3491 0.56352 0.0
H915 H 0.88442 0.40983 0.54145 0.0
O916 O 0.9623 0.40724 0.54486 0.0
O917 O 0.93126 0.42877 0.52266 0.0
O918 O 0.91448 0.3846 0.48674 0.0
C919 C 0.94928 0.42935 0.54132 0.0
H920 H 0.99753 0.39861 0.43274 0.0
H921 H 0.89752 0.34968 0.59809 0.0
H922 H 0.94649 0.29204 0.49967 0.0
H923 H 0.01872 0.33125 0.52463 0.0
Co924 Co 0.65161 0.1913 0.76942 0.0
C925 C 0.66777 0.23947 0.73824 0.0
C926 C 0.67459 0.20311 0.71707 0.0
C927 C 0.68531 0.22368 0.70253 0.0
N928 N 0.66373 0.21291 0.73964 0.0
N929 N 0.68146 0.24638 0.71618 0.0
H930 H 0.66266 0.25341 0.75375 0.0
H931 H 0.67657 0.18223 0.71227 0.0
C932 C 0.63139 0.13994 0.74199 0.0
O933 O 0.61794 0.13147 0.76273 0.0
N934 N 0.64032 0.16906 0.79888 0.0
C935 C 0.62413 0.17613 0.81908 0.0
C936 C 0.62436 0.15618 0.83791 0.0
C937 C 0.65047 0.14508 0.80591 0.0
N938 N 0.64105 0.13677 0.8297 0.0
C939 C 0.61411 0.23352 0.77553 0.0
C940 C 0.56892 0.20763 0.75787 0.0
C941 C 0.56704 0.23427 0.76589 0.0
C942 C 0.58994 0.24717 0.77487 0.0
C943 C 0.5937 0.19462 0.75881 0.0
N944 N 0.61616 0.2077 0.76709 0.0
H945 H 0.63112 0.24394 0.78336 0.0
H946 H 0.59434 0.17403 0.75343 0.0
H947 H 0.61348 0.19479 0.82043 0.0
H948 H 0.66466 0.13412 0.79397 0.0
O949 O 0.66727 0.21591 0.7949 0.0
O950 O 0.68865 0.18188 0.777 0.0
O951 O 0.64325 0.16248 0.74217 0.0
C952 C 0.68916 0.20238 0.7929 0.0
H953 H 0.69716 0.22185 0.68461 0.0
H954 H 0.61318 0.15591 0.85633 0.0
H955 H 0.55136 0.19692 0.75131 0.0
H956 H 0.58906 0.26762 0.78168 0.0
Co957 Co 0.43311 0.12842 0.50745 0.0
C958 C 0.48237 0.11134 0.53595 0.0
C959 C 0.4469 0.10415 0.5587 0.0
C960 C 0.46822 0.09325 0.57209 0.0
N961 N 0.45573 0.11548 0.53599 0.0
N962 N 0.49041 0.0978 0.55774 0.0
H963 H 0.49545 0.11618 0.5196 0.0
H964 H 0.42618 0.10239 0.56442 0.0
C965 C 0.38359 0.14993 0.53598 0.0
O966 O 0.37476 0.16296 0.51513 0.0
N967 N 0.41012 0.14046 0.47874 0.0
C968 C 0.416 0.15848 0.45973 0.0
C969 C 0.39603 0.15826 0.44084 0.0
C970 C 0.38688 0.12917 0.47084 0.0
N971 N 0.37787 0.13978 0.44786 0.0
C972 C 0.47657 0.16432 0.49802 0.0
C973 C 0.45401 0.20973 0.51926 0.0
C974 C 0.48013 0.21093 0.50942 0.0
C975 C 0.49132 0.1879 0.49855 0.0
C976 C 0.43994 0.18559 0.51851 0.0
N977 N 0.45142 0.16298 0.50854 0.0
H978 H 0.48552 0.14715 0.48883 0.0
H979 H 0.41975 0.18555 0.52549 0.0
H980 H 0.43395 0.17039 0.45903 0.0
H981 H 0.37695 0.11324 0.48142 0.0
O982 O 0.45531 0.11063 0.48141 0.0
O983 O 0.42062 0.09242 0.50174 0.0
O984 O 0.40629 0.13841 0.53578 0.0
C985 C 0.44017 0.08992 0.48492 0.0
H986 H 0.46739 0.08179 0.59031 0.0
H987 H 0.39503 0.17045 0.42312 0.0
H988 H 0.44453 0.22736 0.52731 0.0
H989 H 0.51128 0.18821 0.49029 0.0
Co990 Co 0.38137 0.33162 0.76988 0.0
C991 C 0.34764 0.29336 0.73816 0.0
C992 C 0.38711 0.29652 0.72241 0.0
C993 C 0.37403 0.27686 0.70881 0.0
N994 N 0.37075 0.30722 0.74102 0.0
N995 N 0.34941 0.27455 0.719 0.0
H996 H 0.33036 0.29557 0.75075 0.0
H997 H 0.40822 0.29993 0.7207 0.0
C998 C 0.40133 0.36333 0.72156 0.0
O999 O 0.41775 0.34455 0.71399 0.0
N1000 N 0.39203 0.35534 0.79837 0.0
C1001 C 0.40727 0.34863 0.81945 0.0
C1002 C 0.40825 0.36981 0.83678 0.0
C1003 C 0.38377 0.3805 0.80321 0.0
N1004 N 0.39331 0.38967 0.82666 0.0
C1005 C 0.4198 0.2905 0.77344 0.0
C1006 C 0.46509 0.32075 0.76497 0.0
C1007 C 0.46751 0.29311 0.76829 0.0
C1008 C 0.44458 0.27803 0.77288 0.0
C1009 C 0.43969 0.33254 0.76565 0.0
N1010 N 0.41741 0.3172 0.76886 0.0
H1011 H 0.40221 0.27852 0.7768 0.0
H1012 H 0.4379 0.35388 0.7636 0.0
H1013 H 0.41628 0.3293 0.82248 0.0
H1014 H 0.37009 0.39135 0.79055 0.0
O1015 O 0.3665 0.30777 0.79645 0.0
O1016 O 0.34431 0.34025 0.77666 0.0
O1017 O 0.38819 0.3613 0.74328 0.0
C1018 C 0.34432 0.32101 0.79401 0.0
H1019 H 0.38286 0.26329 0.69455 0.0
H1020 H 0.41814 0.37025 0.85593 0.0
H1021 H 0.48261 0.333 0.76196 0.0
H1022 H 0.44585 0.25671 0.77591 0.0
Co1023 Co 0.58933 0.39097 0.50793 0.0
C1024 C 0.54244 0.41754 0.53371 0.0
C1025 C 0.56476 0.39378 0.5613 0.0
C1026 C 0.54318 0.40451 0.57448 0.0
N1027 N 0.56458 0.40219 0.53575 0.0
N1028 N 0.52935 0.41941 0.55708 0.0
H1029 H 0.53568 0.42698 0.51559 0.0
H1030 H 0.57915 0.38023 0.56982 0.0
C1031 C 0.63864 0.37032 0.53702 0.0
O1032 O 0.64747 0.35751 0.51608 0.0
N1033 N 0.61382 0.37978 0.47972 0.0
C1034 C 0.61054 0.35933 0.46257 0.0
C1035 C 0.63115 0.35943 0.44439 0.0
C1036 C 0.6361 0.39252 0.47109 0.0
N1037 N 0.6471 0.38031 0.44974 0.0
C1038 C 0.54546 0.35578 0.50133 0.0
C1039 C 0.56995 0.30903 0.51689 0.0
C1040 C 0.54294 0.30846 0.50962 0.0
C1041 C 0.5307 0.33221 0.50183 0.0
C1042 C 0.58402 0.33318 0.51631 0.0
N1043 N 0.57178 0.35621 0.50847 0.0
H1044 H 0.53553 0.37391 0.49546 0.0
H1045 H 0.6047 0.33302 0.52182 0.0
H1046 H 0.59395 0.3456 0.4626 0.0
H1047 H 0.64403 0.41044 0.48003 0.0
O1048 O 0.56777 0.40835 0.48103 0.0
O1049 O 0.60097 0.42729 0.50321 0.0
O1050 O 0.61582 0.38166 0.53696 0.0
C1051 C 0.58222 0.42945 0.48547 0.0
H1052 H 0.53788 0.40147 0.59513 0.0
H1053 H 0.63389 0.34567 0.42804 0.0
H1054 H 0.58005 0.29095 0.52293 0.0
H1055 H 0.50985 0.33252 0.49615 0.0
Co1056 Co 0.75861 0.64777 0.83581 0.0
C1057 C 0.78955 0.66745 0.78943 0.0
C1058 C 0.80784 0.67872 0.8262 0.0
C1059 C 0.82083 0.69167 0.80584 0.0
N1060 N 0.78832 0.66318 0.81599 0.0
N1061 N 0.80914 0.68461 0.78284 0.0
H1062 H 0.77495 0.66057 0.77528 0.0
H1063 H 0.81108 0.68227 0.84711 0.0
C1064 C 0.80762 0.63025 0.86549 0.0
O1065 O 0.81917 0.6249 0.84263 0.0
N1066 N 0.72869 0.63358 0.85533 0.0
C1067 C 0.70905 0.61792 0.84573 0.0
C1068 C 0.68911 0.61622 0.8645 0.0
C1069 C 0.72042 0.64136 0.87968 0.0
N1070 N 0.6963 0.63106 0.88562 0.0
C1071 C 0.7543 0.61221 0.79125 0.0
C1072 C 0.77123 0.56651 0.81672 0.0
C1073 C 0.76411 0.56516 0.78981 0.0
C1074 C 0.75541 0.58831 0.77711 0.0
C1075 C 0.76986 0.59093 0.83017 0.0
N1076 N 0.76242 0.61371 0.81717 0.0
H1077 H 0.7458 0.62926 0.78145 0.0
H1078 H 0.77391 0.59115 0.85123 0.0
H1079 H 0.70854 0.60947 0.82596 0.0
H1080 H 0.73112 0.65528 0.89218 0.0
O1081 O 0.73412 0.66575 0.81186 0.0
O1082 O 0.75006 0.68277 0.84923 0.0
O1083 O 0.78301 0.63686 0.86608 0.0
C1084 C 0.73529 0.68582 0.82821 0.0
H1085 H 0.83629 0.70657 0.80786 0.0
H1086 H 0.67028 0.60585 0.86244 0.0
H1087 H 0.77719 0.54873 0.82736 0.0
H1088 H 0.74888 0.58776 0.75657 0.0
Co1089 Co 0.89313 0.02065 0.43907 0.0
C1090 C 0.92738 0.99014 0.47807 0.0
C1091 C 0.88746 0.97525 0.47671 0.0
C1092 C 0.9007 0.96228 0.4967 0.0
N1093 N 0.90397 0.99291 0.46469 0.0
N1094 N 0.92565 0.97178 0.4977 0.0
H1095 H 0.94493 1.00213 0.47475 0.0
H1096 H 0.86628 0.97361 0.47362 0.0
C1097 C 0.8725 0.97076 0.4103 0.0
O1098 O 0.85606 0.96408 0.4294 0.0
N1099 N 0.88199 0.0482 0.4144 0.0
C1100 C 0.86674 0.06936 0.42087 0.0
C1101 C 0.86576 0.0865 0.39959 0.0
C1102 C 0.89021 0.05278 0.38919 0.0
N1103 N 0.88074 0.07624 0.37985 0.0
C1104 C 0.85582 0.02683 0.48092 0.0
C1105 C 0.80987 0.01586 0.45248 0.0
C1106 C 0.80817 0.02039 0.47999 0.0
C1107 C 0.83142 0.02632 0.49412 0.0
C1108 C 0.83489 0.01641 0.43997 0.0
N1109 N 0.85752 0.02077 0.45448 0.0
H1110 H 0.87369 0.03109 0.49217 0.0
H1111 H 0.83613 0.0132 0.41874 0.0
H1112 H 0.85797 0.07278 0.44023 0.0
H1113 H 0.90405 0.04013 0.37853 0.0
O1114 O 0.90935 0.04818 0.46092 0.0
O1115 O 0.92988 0.02616 0.42881 0.0
O1116 O 0.88543 0.99267 0.41104 0.0
C1117 C 0.93098 0.04451 0.44701 0.0
H1118 H 0.89207 0.94852 0.51087 0.0
H1119 H 0.85612 0.10578 0.39912 0.0
H1120 H 0.79209 1.01183 0.44091 0.0
H1121 H 0.83072 0.03034 0.51529 0.0
Co1122 Co 0.26649 0.87685 0.83733 0.0
C1123 C 0.24308 0.85275 0.7884 0.0
C1124 C 0.21301 0.8611 0.81763 0.0
C1125 C 0.20083 0.85007 0.79573 0.0
N1126 N 0.23955 0.86294 0.81307 0.0
N1127 N 0.2198 0.84469 0.7776 0.0
H1128 H 0.26218 0.85079 0.77859 0.0
H1129 H 0.2029 0.86707 0.83563 0.0
C1130 C 0.23653 0.87623 0.88736 0.0
O1131 O 0.2574 0.864 0.89736 0.0
N1132 N 0.2932 0.89094 0.86212 0.0
C1133 C 0.29606 0.91663 0.8695 0.0
C1134 C 0.31588 0.91848 0.88834 0.0
C1135 C 0.31093 0.87744 0.87747 0.0
N1136 N 0.32503 0.89381 0.8936 0.0
C1137 C 0.28562 0.92189 0.80831 0.0
C1138 C 0.23711 0.9475 0.80241 0.0
C1139 C 0.25991 0.95878 0.79068 0.0
C1140 C 0.28444 0.94579 0.79413 0.0
C1141 C 0.23933 0.924 0.81733 0.0
N1142 N 0.26337 0.91143 0.82 0.0
H1143 H 0.30457 0.91177 0.81018 0.0
H1144 H 0.22159 0.91565 0.8262 0.0
H1145 H 0.28401 0.93301 0.86243 0.0
H1146 H 0.31302 0.85601 0.87765 0.0
O1147 O 0.29429 0.86191 0.81523 0.0
O1148 O 0.27451 0.84075 0.84844 0.0
O1149 O 0.2375 0.8854 0.86368 0.0
C1150 C 0.2918 0.8402 0.82907 0.0
H1151 H 0.17983 0.84549 0.79355 0.0
H1152 H 0.32239 0.93648 0.89826 0.0
H1153 H 0.21777 0.95683 0.80005 0.0
H1154 H 0.3025 0.95382 0.78542 0.0
Co1155 Co 0.13217 0.50782 0.43795 0.0
C1156 C 0.10361 0.536 0.48161 0.0
C1157 C 0.128 0.56256 0.45872 0.0
C1158 C 0.1165 0.57681 0.47913 0.0
N1159 N 0.11974 0.53698 0.4601 0.0
N1160 N 0.10125 0.55998 0.49329 0.0
H1161 H 0.09432 0.51814 0.48924 0.0
H1162 H 0.14216 0.5703 0.44448 0.0
C1163 C 0.15205 0.53456 0.3868 0.0
O1164 O 0.16423 0.51313 0.37813 0.0
N1165 N 0.14444 0.47839 0.41612 0.0
C1166 C 0.16297 0.4601 0.42289 0.0
C1167 C 0.16297 0.44009 0.40417 0.0
C1168 C 0.13289 0.46881 0.39372 0.0
N1169 N 0.144 0.44559 0.38603 0.0
C1170 C 0.1676 0.50724 0.48205 0.0
C1171 C 0.21464 0.51687 0.45501 0.0
C1172 C 0.21544 0.51289 0.48259 0.0
C1173 C 0.19158 0.50818 0.49616 0.0
C1174 C 0.19012 0.51576 0.44159 0.0
N1175 N 0.16697 0.51091 0.45513 0.0
H1176 H 0.14939 0.50332 0.49284 0.0
H1177 H 0.19004 0.51801 0.42035 0.0
H1178 H 0.17496 0.46059 0.44077 0.0
H1179 H 0.11645 0.47835 0.38351 0.0
O1180 O 0.1161 0.48197 0.46159 0.0
O1181 O 0.0959 0.50037 0.42695 0.0
O1182 O 0.14081 0.53518 0.40961 0.0
C1183 C 0.0948 0.48384 0.44686 0.0
H1184 H 0.11954 0.59765 0.48366 0.0
H1185 H 0.1755 0.42253 0.40412 0.0
H1186 H 0.23285 0.52032 0.44393 0.0
H1187 H 0.19154 0.50494 0.51746 0.0
Co1188 Co 0.76049 0.38225 0.68646 0.0
C1189 C 0.78755 0.35619 0.73256 0.0
C1190 C 0.81428 0.38083 0.71012 0.0
C1191 C 0.8279 0.37089 0.73175 0.0
N1192 N 0.78902 0.37143 0.71041 0.0
N1193 N 0.811 0.35547 0.74565 0.0
H1194 H 0.76972 0.34628 0.73951 0.0
H1195 H 0.82218 0.39472 0.69574 0.0
C1196 C 0.78864 0.40187 0.63596 0.0
O1197 O 0.76748 0.41453 0.62728 0.0
N1198 N 0.73166 0.39302 0.66292 0.0
C1199 C 0.71266 0.41139 0.66796 0.0
C1200 C 0.69386 0.41059 0.64792 0.0
C1201 C 0.72373 0.3808 0.64023 0.0
N1202 N 0.70095 0.39142 0.63062 0.0
C1203 C 0.75618 0.41849 0.72956 0.0
C1204 C 0.7692 0.46479 0.70292 0.0
C1205 C 0.76353 0.46597 0.7302 0.0
C1206 C 0.75697 0.44248 0.74353 0.0
C1207 C 0.76825 0.44025 0.68964 0.0
N1208 N 0.7618 0.41743 0.70298 0.0
H1209 H 0.75121 0.40054 0.74028 0.0
H1210 H 0.77239 0.43991 0.66872 0.0
H1211 H 0.71193 0.42394 0.68541 0.0
H1212 H 0.73418 0.3643 0.63112 0.0
O1213 O 0.73403 0.36584 0.70933 0.0
O1214 O 0.75468 0.34566 0.676 0.0
O1215 O 0.7889 0.39076 0.65886 0.0
C1216 C 0.73736 0.34435 0.69522 0.0
H1217 H 0.84842 0.37491 0.73712 0.0
H1218 H 0.67616 0.42284 0.64632 0.0
H1219 H 0.7742 0.4827 0.69201 0.0
H1220 H 0.75246 0.44271 0.76461 0.0
Co1221 Co 0.62828 0.02303 0.58886 0.0
C1222 C 0.60874 0.99627 0.53915 0.0
C1223 C 0.59967 0.97443 0.57464 0.0
C1224 C 0.58814 0.96154 0.55348 0.0
N1225 N 0.61266 0.99625 0.56576 0.0
N1226 N 0.59369 0.97544 0.53132 0.0
H1227 H 0.61557 1.01156 0.52577 0.0
H1228 H 0.59724 0.96899 0.59529 0.0
C1229 C 0.64826 0.99038 0.63657 0.0
O1230 O 0.66398 1.00929 0.64538 0.0
N1231 N 0.64324 0.04949 0.61276 0.0
C1232 C 0.664 0.06599 0.60818 0.0
C1233 C 0.66658 0.08316 0.62946 0.0
C1234 C 0.63326 0.05713 0.63657 0.0
N1235 N 0.6472 0.07754 0.64715 0.0
C1236 C 0.6643 0.03026 0.54561 0.0
C1237 C 0.70879 1.00616 0.56717 0.0
C1238 C 0.71037 0.01715 0.54161 0.0
C1239 C 0.68777 0.0292 0.53084 0.0
C1240 C 0.68467 1.00744 0.5813 0.0
N1241 N 0.66258 0.01919 0.57042 0.0
H1242 H 0.64761 0.04054 0.53694 0.0
H1243 H 0.68436 0.9996 0.60108 0.0
H1244 H 0.67601 0.0662 0.59033 0.0
H1245 H 0.61594 0.04821 0.64584 0.0
O1246 O 0.61363 0.05157 0.56747 0.0
O1247 O 0.59233 0.03221 0.6006 0.0
O1248 O 0.63543 0.99299 0.6148 0.0
C1249 C 0.59189 0.04943 0.58122 0.0
H1250 H 0.57511 0.94437 0.55445 0.0
H1251 H 0.68095 0.09912 0.63144 0.0
H1252 H 0.72614 0.99705 0.57624 0.0
H1253 H 0.68843 0.03824 0.51128 0.0
Co1254 Co 0.26588 0.14201 0.68588 0.0
C1255 C 0.23583 0.15866 0.73374 0.0
C1256 C 0.21591 0.17048 0.69796 0.0
C1257 C 0.20245 0.18122 0.71916 0.0
N1258 N 0.23646 0.15561 0.70703 0.0
N1259 N 0.21521 0.17398 0.74156 0.0
H1260 H 0.25148 0.15226 0.74703 0.0
H1261 H 0.21207 0.17504 0.67737 0.0
C1262 C 0.21659 0.12555 0.65589 0.0
O1263 O 0.20509 0.11871 0.67837 0.0
N1264 N 0.2953 0.12954 0.66468 0.0
C1265 C 0.31618 0.11443 0.6723 0.0
C1266 C 0.33443 0.11365 0.65173 0.0
C1267 C 0.30104 0.13782 0.63983 0.0
N1268 N 0.32476 0.1284 0.63152 0.0
C1269 C 0.27312 0.10432 0.72823 0.0
C1270 C 0.25129 0.06042 0.70333 0.0
C1271 C 0.2606 0.05775 0.72954 0.0
C1272 C 0.27213 0.08001 0.74171 0.0
C1273 C 0.25361 0.08494 0.69014 0.0
N1274 N 0.26319 0.10697 0.70303 0.0
H1275 H 0.28245 0.12091 0.73811 0.0
H1276 H 0.24805 0.08582 0.66947 0.0
H1277 H 0.31858 0.10565 0.69179 0.0
H1278 H 0.28871 0.15143 0.62853 0.0
O1279 O 0.29047 0.15924 0.71013 0.0
O1280 O 0.27349 0.17803 0.67423 0.0
O1281 O 0.24115 0.13222 0.65559 0.0
C1282 C 0.28873 0.18021 0.69504 0.0
H1283 H 0.18626 0.19546 0.71813 0.0
H1284 H 0.35372 0.10396 0.65194 0.0
H1285 H 0.24284 0.04351 0.69294 0.0
H1286 H 0.28021 0.07866 0.76166 0.0
Co1287 Co 0.39683 0.50387 0.58878 0.0
C1288 C 0.42562 0.53011 0.54421 0.0
C1289 C 0.40258 0.55807 0.56687 0.0
C1290 C 0.41389 0.57131 0.54569 0.0
N1291 N 0.41012 0.53223 0.56611 0.0
N1292 N 0.42827 0.55361 0.53168 0.0
H1293 H 0.43417 0.51177 0.53687 0.0
H1294 H 0.38893 0.56665 0.58113 0.0
C1295 C 0.37686 0.53234 0.63916 0.0
O1296 O 0.36446 0.51126 0.64835 0.0
N1297 N 0.38352 0.4751 0.61082 0.0
C1298 C 0.36606 0.45628 0.60284 0.0
C1299 C 0.36561 0.43614 0.62133 0.0
C1300 C 0.39385 0.46582 0.63392 0.0
N1301 N 0.38305 0.44214 0.64083 0.0
C1302 C 0.36189 0.50295 0.5442 0.0
C1303 C 0.31496 0.51503 0.57045 0.0
C1304 C 0.31435 0.51065 0.54292 0.0
C1305 C 0.33815 0.50461 0.52977 0.0
C1306 C 0.33924 0.51317 0.5842 0.0
N1307 N 0.36236 0.50726 0.57104 0.0
H1308 H 0.38006 0.49806 0.53375 0.0
H1309 H 0.33917 0.5159 0.60539 0.0
H1310 H 0.35545 0.45638 0.58411 0.0
H1311 H 0.40954 0.47567 0.64495 0.0
O1312 O 0.41298 0.47714 0.56601 0.0
O1313 O 0.43285 0.49606 0.60054 0.0
O1314 O 0.38824 0.53215 0.61639 0.0
C1315 C 0.43417 0.47925 0.58088 0.0
H1316 H 0.41129 0.59208 0.54055 0.0
H1317 H 0.35394 0.41803 0.62024 0.0
H1318 H 0.29678 0.51949 0.58122 0.0
H1319 H 0.33831 0.50098 0.50852 0.0
Co1320 Co 0.83731 0.75773 0.64307 0.0
C1321 C 0.79154 0.7911 0.66031 0.0
C1322 C 0.82889 0.80843 0.67145 0.0
C1323 C 0.80875 0.82316 0.68278 0.0
N1324 N 0.81817 0.78856 0.65681 0.0
N1325 N 0.78533 0.81185 0.67615 0.0
H1326 H 0.77695 0.77677 0.65381 0.0
H1327 H 0.84989 0.81093 0.67543 0.0
C1328 C 0.8691 0.80509 0.6244 0.0
O1329 O 0.84674 0.81714 0.61792 0.0
N1330 N 0.85611 0.72677 0.63023 0.0
C1331 C 0.84521 0.70594 0.61723 0.0
C1332 C 0.86457 0.68685 0.61343 0.0
C1333 C 0.88184 0.72008 0.63443 0.0
N1334 N 0.8874 0.6958 0.62435 0.0
C1335 C 0.79309 0.75317 0.60704 0.0
C1336 C 0.81943 0.76821 0.56119 0.0
C1337 C 0.79222 0.76192 0.55979 0.0
C1338 C 0.77911 0.75411 0.58303 0.0
C1339 C 0.83272 0.76705 0.58575 0.0
N1340 N 0.81929 0.76059 0.60856 0.0
H1341 H 0.78287 0.74557 0.62427 0.0
H1342 H 0.85392 0.77065 0.58609 0.0
H1343 H 0.82449 0.70447 0.61141 0.0
H1344 H 0.89603 0.73242 0.645 0.0
O1345 O 0.81262 0.73422 0.66151 0.0
O1346 O 0.8496 0.75066 0.67887 0.0
O1347 O 0.86862 0.78078 0.63181 0.0
C1348 C 0.82849 0.73595 0.68195 0.0
H1349 H 0.81116 0.83919 0.69699 0.0
H1350 H 0.86209 0.66776 0.60375 0.0
H1351 H 0.83038 0.7735 0.54338 0.0
H1352 H 0.75831 0.74826 0.5825 0.0
Co1353 Co 0.84162 0.27493 0.88032 0.0
C1354 C 0.79524 0.24292 0.862 0.0
C1355 C 0.83217 0.2265 0.84839 0.0
C1356 C 0.81167 0.21258 0.83666 0.0
N1357 N 0.82196 0.24537 0.86465 0.0
N1358 N 0.78858 0.22302 0.84531 0.0
H1359 H 0.78086 0.25691 0.86961 0.0
H1360 H 0.853 0.22434 0.84357 0.0
C1361 C 0.8711 0.22566 0.8965 0.0
O1362 O 0.84826 0.21417 0.90223 0.0
N1363 N 0.86125 0.30455 0.89501 0.0
C1364 C 0.85133 0.32468 0.90974 0.0
C1365 C 0.87098 0.34357 0.91312 0.0
C1366 C 0.88672 0.31142 0.88951 0.0
N1367 N 0.89307 0.33516 0.90039 0.0
C1368 C 0.79664 0.2797 0.91561 0.0
C1369 C 0.82056 0.26027 0.96112 0.0
C1370 C 0.79365 0.26794 0.96222 0.0
C1371 C 0.78182 0.27792 0.9391 0.0
C1372 C 0.83472 0.26226 0.93703 0.0
N1373 N 0.82245 0.27092 0.91427 0.0
H1374 H 0.78734 0.2889 0.89862 0.0
H1375 H 0.85569 0.25748 0.93704 0.0
H1376 H 0.83093 0.32611 0.91658 0.0
H1377 H 0.89993 0.2999 0.87695 0.0
O1378 O 0.81783 0.29954 0.86223 0.0
O1379 O 0.85536 0.28369 0.8454 0.0
O1380 O 0.87186 0.25041 0.89087 0.0
C1381 C 0.83433 0.29847 0.84225 0.0
H1382 H 0.81351 0.19761 0.82127 0.0
H1383 H 0.86903 0.36243 0.92337 0.0
H1384 H 0.83066 0.25326 0.97883 0.0
H1385 H 0.76134 0.28486 0.93936 0.0
Co1386 Co 0.5171 0.93944 0.39658 0.0
C1387 C 0.48637 0.98464 0.41978 0.0
C1388 C 0.46108 0.95074 0.41543 0.0
C1389 C 0.4464 0.97093 0.42664 0.0
N1390 N 0.48609 0.95946 0.41001 0.0
N1391 N 0.46253 0.99201 0.42978 0.0
H1392 H 0.50388 0.99717 0.42077 0.0
H1393 H 0.45383 0.93076 0.41339 0.0
C1394 C 0.47238 0.90529 0.37483 0.0
O1395 O 0.46224 0.92615 0.36269 0.0
N1396 N 0.54791 0.91973 0.38452 0.0
C1397 C 0.56823 0.92882 0.36946 0.0
C1398 C 0.58801 0.90974 0.36886 0.0
C1399 C 0.55562 0.89544 0.39309 0.0
N1400 N 0.58003 0.88899 0.38383 0.0
C1401 C 0.5133 0.98257 0.35951 0.0
C1402 C 0.51224 0.95258 0.31342 0.0
C1403 C 0.51177 0.98045 0.31151 0.0
C1404 C 0.51219 0.99542 0.33494 0.0
C1405 C 0.51307 0.94044 0.33858 0.0
N1406 N 0.51315 0.95545 0.36131 0.0
H1407 H 0.51523 0.99463 0.37707 0.0
H1408 H 0.51428 0.91899 0.33978 0.0
H1409 H 0.56907 0.94836 0.36048 0.0
H1410 H 0.5441 0.88321 0.40659 0.0
O1411 O 0.54084 0.96549 0.41232 0.0
O1412 O 0.52554 0.92936 0.43268 0.0
O1413 O 0.49439 0.90741 0.38738 0.0
C1414 C 0.54009 0.9508 0.43364 0.0
H1415 H 0.42605 0.96966 0.43376 0.0
H1416 H 0.60711 0.91126 0.35891 0.0
H1417 H 0.51246 0.9404 0.29565 0.0
H1418 H 0.51246 0.01697 0.3342 0.0
Co1419 Co 0.18616 0.2512 0.87751 0.0
C1420 C 0.23474 0.28046 0.86048 0.0
C1421 C 0.19917 0.30001 0.8473 0.0
C1422 C 0.22073 0.31211 0.83538 0.0
N1423 N 0.20785 0.28017 0.86327 0.0
N1424 N 0.24297 0.29957 0.84354 0.0
H1425 H 0.24804 0.26561 0.86839 0.0
H1426 H 0.17855 0.30403 0.84268 0.0
C1427 C 0.15607 0.30085 0.89298 0.0
O1428 O 0.17854 0.31268 0.89942 0.0
N1429 N 0.16485 0.2221 0.8907 0.0
C1430 C 0.17297 0.20211 0.90668 0.0
C1431 C 0.15309 0.1832 0.9078 0.0
C1432 C 0.14028 0.2151 0.88219 0.0
N1433 N 0.13279 0.19138 0.89228 0.0
C1434 C 0.22894 0.24507 0.91485 0.0
C1435 C 0.20306 0.26469 0.95921 0.0
C1436 C 0.22973 0.25653 0.96147 0.0
C1437 C 0.24255 0.2464 0.93899 0.0
C1438 C 0.19013 0.26313 0.93447 0.0
N1439 N 0.20343 0.25439 0.91234 0.0
H1440 H 0.23887 0.2357 0.89834 0.0
H1441 H 0.16927 0.26821 0.93345 0.0
H1442 H 0.19242 0.20071 0.91586 0.0
H1443 H 0.12868 0.22644 0.868 0.0
O1444 O 0.2101 0.22589 0.86079 0.0
O1445 O 0.17413 0.24328 0.84191 0.0
O1446 O 0.15591 0.27624 0.88675 0.0
C1447 C 0.19467 0.22763 0.84005 0.0
H1448 H 0.22006 0.32771 0.82054 0.0
H1449 H 0.15382 0.16443 0.91835 0.0
H1450 H 0.19226 0.27177 0.97647 0.0
H1451 H 0.26285 0.23907 0.94025 0.0
Co1452 Co 1.00061 0.08495 0.89483 0.0
C1453 C 0.03368 0.03851 0.91375 0.0
C1454 C 0.04876 0.07616 0.92661 0.0
C1455 C 0.06398 0.05662 0.93813 0.0
N1456 N 0.0301 0.06503 0.91064 0.0
N1457 N 0.05436 0.03304 0.93009 0.0
H1458 H 0.0204 0.02339 0.90631 0.0
H1459 H 0.05013 0.09706 0.9312 0.0
C1460 C 0.04985 0.11511 0.8795 0.0
O1461 O 0.06077 0.0924 0.87238 0.0
N1462 N 0.97174 0.10609 0.88082 0.0
C1463 C 0.94839 0.09748 0.87073 0.0
C1464 C 0.93065 0.11855 0.87055 0.0
C1465 C 0.9681 0.13217 0.88625 0.0
N1466 N 0.94304 0.14015 0.88068 0.0
C1467 C 0.9998 0.04194 0.85776 0.0
C1468 C 0.01473 0.06969 0.81279 0.0
C1469 C 1.0095 0.0423 0.8108 0.0
C1470 C 1.00183 0.02853 0.8336 0.0
C1471 C 1.01244 0.08248 0.83761 0.0
N1472 N 1.00597 0.06836 0.85998 0.0
H1473 H 0.9923 0.03097 0.87451 0.0
H1474 H 0.01526 0.10376 0.83863 0.0
H1475 H 0.94398 0.07701 0.86572 0.0
H1476 H 0.98284 0.14457 0.89596 0.0
O1477 O 0.97523 0.05955 0.90879 0.0
O1478 O 0.98962 0.09499 0.93057 0.0
O1479 O 0.02551 0.11567 0.88691 0.0
C1480 C 0.9749 0.07357 0.9304 0.0
H1481 H 0.07923 0.05937 0.95314 0.0
H1482 H 0.90989 0.1178 0.86464 0.0
H1483 H 0.01994 0.08112 0.79528 0.0
H1484 H 0.99682 1.00757 0.83262 0.0
Co1485 Co 0.6877 0.27034 0.14482 0.0
C1486 C 0.73494 0.2386 0.16198 0.0
C1487 C 0.69824 0.22144 0.17531 0.0
C1488 C 0.71894 0.20797 0.18721 0.0
N1489 N 0.70814 0.24054 0.15915 0.0
N1490 N 0.74191 0.21892 0.1789 0.0
H1491 H 0.74911 0.25275 0.15425 0.0
H1492 H 0.67743 0.21885 0.18003 0.0
C1493 C 0.65603 0.22176 0.12897 0.0
O1494 O 0.6781 0.20913 0.12265 0.0
N1495 N 0.66699 0.30001 0.13179 0.0
C1496 C 0.675 0.32044 0.11634 0.0
C1497 C 0.65459 0.3389 0.11501 0.0
C1498 C 0.64201 0.30623 0.13966 0.0
N1499 N 0.63403 0.32983 0.12973 0.0
C1500 C 0.73102 0.27541 0.10781 0.0
C1501 C 0.70492 0.25787 0.06273 0.0
C1502 C 0.7318 0.26551 0.06072 0.0
C1503 C 0.74474 0.27446 0.08365 0.0
C1504 C 0.69187 0.259 0.08751 0.0
N1505 N 0.70518 0.26691 0.10995 0.0
H1506 H 0.74121 0.28384 0.12468 0.0
H1507 H 0.67089 0.2543 0.08831 0.0
H1508 H 0.69461 0.32233 0.10758 0.0
H1509 H 0.63028 0.29423 0.1532 0.0
O1510 O 0.71238 0.29483 0.16171 0.0
O1511 O 0.67591 0.27865 0.18055 0.0
O1512 O 0.65673 0.24633 0.13526 0.0
C1513 C 0.6969 0.29373 0.18245 0.0
H1514 H 0.71726 0.19273 0.20235 0.0
H1515 H 0.65504 0.35784 0.10476 0.0
H1516 H 0.69401 0.25159 0.04522 0.0
H1517 H 0.76523 0.28128 0.08276 0.0
Co1518 Co 0.51996 0.08491 0.12838 0.0
C1519 C 0.4907 0.03573 0.11314 0.0
C1520 C 0.46875 0.07118 0.10379 0.0
C1521 C 0.45479 0.04968 0.09414 0.0
N1522 N 0.49128 0.06246 0.11566 0.0
N1523 N 0.46872 0.02753 0.09988 0.0
H1524 H 0.50664 0.02267 0.11945 0.0
H1525 H 0.46356 0.09183 0.10071 0.0
C1526 C 0.48928 0.13264 0.15163 0.0
O1527 O 0.50642 0.13617 0.1711 0.0
N1528 N 0.54847 0.10805 0.14046 0.0
C1529 C 0.57141 0.10026 0.15209 0.0
C1530 C 0.58905 0.12124 0.15195 0.0
C1531 C 0.55255 0.13374 0.13334 0.0
N1532 N 0.57729 0.1422 0.14002 0.0
C1533 C 0.53361 0.04681 0.1686 0.0
C1534 C 0.49693 0.06112 0.20689 0.0
C1535 C 0.51394 0.03957 0.21187 0.0
C1536 C 0.53235 0.03243 0.19233 0.0
C1537 C 0.49866 0.07489 0.18265 0.0
N1538 N 0.51713 0.06805 0.16376 0.0
H1539 H 0.54806 0.04042 0.15413 0.0
H1540 H 0.48483 0.09068 0.17949 0.0
H1541 H 0.57576 0.08031 0.15878 0.0
H1542 H 0.53815 0.14555 0.1225 0.0
O1543 O 0.54639 0.06109 0.113 0.0
O1544 O 0.52815 0.09483 0.09172 0.0
O1545 O 0.49213 0.11341 0.13526 0.0
C1546 C 0.54447 0.07466 0.09121 0.0
H1547 H 0.43698 0.05035 0.08196 0.0
H1548 H 0.60934 0.12096 0.15936 0.0
H1549 H 0.48228 0.06711 0.22156 0.0
H1550 H 0.54577 0.0158 0.19542 0.0
Co1551 Co 0.50701 0.43775 0.1299 0.0
C1552 C 0.53378 0.48365 0.1035 0.0
C1553 C 0.56072 0.46149 0.12818 0.0
C1554 C 0.57443 0.48263 0.11739 0.0
N1555 N 0.53529 0.46188 0.11919 0.0
N1556 N 0.55739 0.49628 0.10194 0.0
H1557 H 0.5159 0.49054 0.09364 0.0
H1558 H 0.56877 0.44725 0.14213 0.0
C1559 C 0.53655 0.3874 0.1483 0.0
O1560 O 0.51566 0.37726 0.1603 0.0
N1561 N 0.47852 0.41387 0.14065 0.0
C1562 C 0.4594 0.41886 0.1589 0.0
C1563 C 0.44088 0.39858 0.15824 0.0
C1564 C 0.47093 0.39098 0.12862 0.0
N1565 N 0.44825 0.38118 0.13926 0.0
C1566 C 0.50298 0.48055 0.16661 0.0
C1567 C 0.51623 0.45328 0.21249 0.0
C1568 C 0.51087 0.48064 0.21401 0.0
C1569 C 0.50411 0.49426 0.19075 0.0
C1570 C 0.51482 0.44023 0.18782 0.0
N1571 N 0.50841 0.45393 0.16521 0.0
H1572 H 0.49796 0.49149 0.14881 0.0
H1573 H 0.51859 0.4192 0.18715 0.0
H1574 H 0.45843 0.43642 0.17129 0.0
H1575 H 0.48159 0.38181 0.1123 0.0
O1576 O 0.48024 0.46054 0.11374 0.0
O1577 O 0.50113 0.42757 0.0932 0.0
O1578 O 0.53587 0.41061 0.13795 0.0
C1579 C 0.48371 0.44673 0.09207 0.0
H1580 H 0.59515 0.48774 0.12071 0.0
H1581 H 0.4232 0.39682 0.1705 0.0
H1582 H 0.52131 0.44213 0.23022 0.0
H1583 H 0.4998 0.51539 0.19125 0.0
C1584 C 0.19612 0.21176 0.32675 0.0
C1585 C 0.22074 0.20725 0.31357 0.0
C1586 C 0.2176 0.25104 0.29232 0.0
C1587 C 0.19438 0.25639 0.30737 0.0
N1588 N 0.16179 0.2434 0.33972 0.0
N1589 N 0.24865 0.21812 0.27619 0.0
C1590 C 0.18356 0.23706 0.32466 0.0
C1591 C 0.22978 0.22565 0.29417 0.0
N1592 N 0.18377 0.19117 0.33941 0.0
N1593 N 0.22853 0.27066 0.27697 0.0
H1594 H 0.25686 0.19921 0.27624 0.0
H1595 H 0.25378 0.22929 0.25951 0.0
H1596 H 0.21962 0.28924 0.27445 0.0
H1597 H 0.24724 0.2692 0.26807 0.0
H1598 H 0.16451 0.19217 0.3471 0.0
H1599 H 0.19189 0.17213 0.33988 0.0
H1600 H 0.15452 0.23146 0.355 0.0
H1601 H 0.15198 0.26165 0.33795 0.0
C1602 C 0.46969 0.57222 0.93042 0.0
C1603 C 0.45673 0.55697 0.95056 0.0
C1604 C 0.49542 0.5635 0.97986 0.0
C1605 C 0.50749 0.57979 0.9604 0.0
N1606 N 0.50478 0.60378 0.91933 0.0
N1607 N 0.4548 0.54503 0.99738 0.0
C1608 C 0.49422 0.58529 0.93625 0.0
C1609 C 0.46876 0.55477 0.9762 0.0
N1610 N 0.45849 0.57446 0.90579 0.0
N1611 N 0.50986 0.55545 1.00146 0.0
H1612 H 0.43489 0.5397 0.99643 0.0
H1613 H 0.462 0.54532 0.01681 0.0
H1614 H 0.52948 0.56142 1.00472 0.0
H1615 H 0.50335 0.54091 0.01473 0.0
H1616 H 0.4684 0.58222 0.88933 0.0
H1617 H 0.43938 0.56776 0.90158 0.0
H1618 H 0.49493 0.61097 0.90257 0.0
H1619 H 0.52268 0.61361 0.92333 0.0
C1620 C 0.80573 0.27376 0.30401 0.0
C1621 C 0.8335 0.27138 0.30831 0.0
C1622 C 0.83532 0.31802 0.32276 0.0
C1623 C 0.80694 0.31936 0.32156 0.0
N1624 N 0.76478 0.29672 0.31463 0.0
N1625 N 0.87476 0.28976 0.32391 0.0
C1626 C 0.79202 0.2967 0.31329 0.0
C1627 C 0.84837 0.2932 0.31809 0.0
N1628 N 0.79264 0.25431 0.2902 0.0
N1629 N 0.84978 0.34034 0.32852 0.0
H1630 H 0.8847 0.27185 0.32037 0.0
H1631 H 0.88632 0.30384 0.33382 0.0
H1632 H 0.84104 0.35845 0.3336 0.0
H1633 H 0.87046 0.34136 0.32681 0.0
H1634 H 0.77296 0.25609 0.28377 0.0
H1635 H 0.80235 0.23753 0.28271 0.0
H1636 H 0.75322 0.27976 0.31158 0.0
H1637 H 0.7536 0.31296 0.32095 0.0
C1638 C 0.53903 0.92783 0.9545 0.0
C1639 C 0.51637 0.94301 0.96179 0.0
C1640 C 0.5413 0.98411 0.9537 0.0
C1641 C 0.56494 0.96908 0.9494 0.0
N1642 N 0.587 0.92625 0.94874 0.0
N1643 N 0.49839 0.98544 0.97537 0.0
C1644 C 0.56407 0.9408 0.95095 0.0
C1645 C 0.51817 0.97112 0.96331 0.0
N1646 N 0.53627 0.90122 0.94966 0.0
N1647 N 0.54066 1.01083 0.94873 0.0
H1648 H 0.48184 0.97664 0.98427 0.0
H1649 H 0.5 1.00571 0.97948 0.0
H1650 H 0.5572 0.02172 0.94279 0.0
H1651 H 0.52305 0.02187 0.94859 0.0
H1652 H 0.55137 0.88947 0.94161 0.0
H1653 H 0.51803 0.89138 0.95137 0.0
H1654 H 0.58796 0.90594 0.95277 0.0
H1655 H 0.60545 0.93465 0.94423 0.0
C1656 C 0.21451 0.76797 0.20706 0.0
C1657 C 0.18718 0.77042 0.21337 0.0
C1658 C 0.1894 0.81857 0.20611 0.0
C1659 C 0.21747 0.81652 0.20207 0.0
N1660 N 0.25749 0.78947 0.20396 0.0
N1661 N 0.14904 0.79759 0.22282 0.0
C1662 C 0.23027 0.79125 0.2039 0.0
C1663 C 0.17478 0.79565 0.21412 0.0
N1664 N 0.22522 0.74322 0.2035 0.0
N1665 N 0.17644 0.84195 0.20092 0.0
H1666 H 0.13782 0.78094 0.22822 0.0
H1667 H 0.13957 0.81564 0.22664 0.0
H1668 H 0.18605 0.85895 0.19396 0.0
H1669 H 0.15575 0.8438 0.2009 0.0
H1670 H 0.24433 0.73998 0.19605 0.0
H1671 H 0.21409 0.72584 0.20592 0.0
H1672 H 0.26776 0.77199 0.20835 0.0
H1673 H 0.27005 0.80584 0.20215 0.0
C1674 C 0.04276 0.54314 0.07553 0.0
C1675 C 0.06722 0.55738 0.07824 0.0
C1676 C 0.04407 0.59897 0.06707 0.0
C1677 C 0.0196 0.58503 0.06653 0.0
N1678 N 0.99436 0.5452 0.07377 0.0
N1679 N 0.09013 0.5996 0.08152 0.0
C1680 C 0.0186 0.55749 0.07187 0.0
C1681 C 0.06763 0.58554 0.07528 0.0
N1682 N 0.04268 0.51593 0.07495 0.0
N1683 N 0.04474 0.62497 0.05914 0.0
H1684 H 0.10758 0.59066 0.08836 0.0
H1685 H 0.09076 0.6203 0.08238 0.0
H1686 H 0.02765 0.63529 0.0533 0.0
H1687 H 0.06236 0.63558 0.05628 0.0
H1688 H 0.02594 0.50464 0.07015 0.0
H1689 H 0.05987 0.50444 0.07652 0.0
H1690 H 0.99188 0.52576 0.08052 0.0
H1691 H 0.97641 0.55525 0.07056 0.0
C1692 C 0.78938 0.73492 0.20602 0.0
C1693 C 0.80455 0.71133 0.20209 0.0
C1694 C 0.84587 0.73618 0.21131 0.0
C1695 C 0.8308 0.75997 0.21352 0.0
N1696 N 0.7887 0.78289 0.21083 0.0
N1697 N 0.84736 0.68975 0.19798 0.0
C1698 C 0.8027 0.75956 0.21018 0.0
C1699 C 0.83285 0.71196 0.20418 0.0
N1700 N 0.76214 0.73358 0.2071 0.0
N1701 N 0.87275 0.73695 0.21582 0.0
H1702 H 0.83864 0.67175 0.1925 0.0
H1703 H 0.86804 0.68947 0.19625 0.0
H1704 H 0.88315 0.75466 0.21886 0.0
H1705 H 0.88463 0.72009 0.21784 0.0
H1706 H 0.75005 0.74925 0.21325 0.0
H1707 H 0.75145 0.71614 0.20384 0.0
H1708 H 0.76886 0.78467 0.20497 0.0
H1709 H 0.7973 0.80105 0.2158 0.0
C1710 C 0.98643 0.92903 0.07246 0.0
C1711 C 1.00865 0.94425 0.06406 0.0
C1712 C 0.98284 0.98531 0.07016 0.0
C1713 C 0.95973 0.97003 0.0763 0.0
N1714 N 0.93869 0.92683 0.07986 0.0
N1715 N 0.02587 0.98611 0.04835 0.0
C1716 C 0.96122 0.94171 0.07622 0.0
C1717 C 1.00628 0.9722 0.06117 0.0
N1718 N 0.9898 0.90264 0.07806 0.0
N1719 N 0.98255 0.0124 0.07261 0.0
H1720 H 0.04258 0.977 0.04003 0.0
H1721 H 0.02415 1.00613 0.04326 0.0
H1722 H 0.96552 0.02331 0.07708 0.0
H1723 H 0.99974 0.02403 0.07173 0.0
H1724 H 0.97521 0.89091 0.08701 0.0
H1725 H 1.00811 0.89301 0.07588 0.0
H1726 H 0.938 0.90634 0.07681 0.0
H1727 H 0.92021 0.93504 0.08468 0.0
C1728 C 0.32484 0.17559 0.22874 0.0
C1729 C 0.3189 0.18972 0.25229 0.0
C1730 C 0.32511 0.23219 0.22899 0.0
C1731 C 0.32895 0.21813 0.20465 0.0
N1732 N 0.3309 0.17621 0.18095 0.0
N1733 N 0.30837 0.23101 0.27416 0.0
C1734 C 0.32818 0.18974 0.20439 0.0
C1735 C 0.3178 0.2179 0.25225 0.0
N1736 N 0.32842 0.14865 0.23006 0.0
N1737 N 0.32836 0.2592 0.23017 0.0
H1738 H 0.30207 0.22125 0.29133 0.0
H1739 H 0.30392 0.25125 0.27442 0.0
H1740 H 0.3316 0.27127 0.21371 0.0
H1741 H 0.32959 0.26973 0.24798 0.0
H1742 H 0.33562 0.13715 0.2144 0.0
H1743 H 0.32604 0.13796 0.24769 0.0
H1744 H 0.32702 0.15596 0.17888 0.0
H1745 H 0.33611 0.18529 0.16308 0.0
C1746 C 0.42759 0.45634 0.04133 0.0
C1747 C 0.44225 0.46488 0.0189 0.0
C1748 C 0.48404 0.46052 0.04377 0.0
C1749 C 0.46935 0.45328 0.06694 0.0
N1750 N 0.42663 0.4484 0.08886 0.0
N1751 N 0.48299 0.48189 1.00052 0.0
C1752 C 0.44093 0.45265 0.06611 0.0
C1753 C 0.47008 0.46898 0.02068 0.0
N1754 N 0.40109 0.45063 0.03853 0.0
N1755 N 0.51128 0.45907 0.0435 0.0
H1756 H 0.47308 0.48886 0.98365 0.0
H1757 H 0.50277 0.48815 1.00172 0.0
H1758 H 0.52269 0.4537 0.05991 0.0
H1759 H 0.52262 0.46123 0.02627 0.0
H1760 H 0.3897 0.44143 0.0532 0.0
H1761 H 0.39092 0.45339 0.02062 0.0
H1762 H 0.40603 0.45082 0.09004 0.0
H1763 H 0.43539 0.44374 0.10707 0.0
C1764 C 0.70669 0.3117 0.25568 0.0
C1765 C 0.71463 0.33856 0.25341 0.0
C1766 C 0.7085 0.33688 0.20517 0.0
C1767 C 0.70276 0.30918 0.20701 0.0
N1768 N 0.70014 0.26928 0.23393 0.0
N1769 N 0.72673 0.37617 0.22671 0.0
C1770 C 0.70271 0.29631 0.23228 0.0
C1771 C 0.7167 0.35095 0.22831 0.0
N1772 N 0.70259 0.30111 0.28037 0.0
N1773 N 0.7046 0.35012 0.18174 0.0
H1774 H 0.73213 0.38712 0.24352 0.0
H1775 H 0.73157 0.38544 0.20882 0.0
H1776 H 0.6975 0.34092 0.16458 0.0
H1777 H 0.7058 0.37072 0.17991 0.0
H1778 H 0.69389 0.28258 0.28363 0.0
H1779 H 0.70617 0.31179 0.29782 0.0
H1780 H 0.70299 0.25854 0.2514 0.0
H1781 H 0.69766 0.25707 0.21741 0.0
C1782 C 0.5906 0.08298 0.0315 0.0
C1783 C 0.58523 0.05927 0.01734 0.0
C1784 C 0.55791 0.04293 0.05438 0.0
C1785 C 0.56063 0.06799 0.06719 0.0
N1786 N 0.58779 0.10687 0.07322 0.0
N1787 N 0.56155 0.01779 0.01348 0.0
C1788 C 0.57915 0.08681 0.05711 0.0
C1789 C 0.56858 0.03937 0.02845 0.0
N1790 N 0.60631 0.10204 0.02009 0.0
N1791 N 0.54628 0.02206 0.06732 0.0
H1792 H 0.56865 0.01463 0.99431 0.0
H1793 H 0.54695 1.00418 0.01907 0.0
H1794 H 0.53805 0.02358 0.08617 0.0
H1795 H 0.54689 1.00254 0.06036 0.0
H1796 H 0.6084 0.12123 0.02764 0.0
H1797 H 0.61627 0.09899 1.00212 0.0
H1798 H 0.60366 0.11936 0.06853 0.0
H1799 H 0.58119 0.10886 0.09275 0.0
C1800 C 0.32146 0.83189 0.31566 0.0
C1801 C 0.32486 0.80381 0.3143 0.0
C1802 C 0.31932 0.80536 0.26581 0.0
C1803 C 0.31398 0.83288 0.26759 0.0
N1804 N 0.30597 0.87206 0.29362 0.0
N1805 N 0.3226 0.76313 0.28867 0.0
C1806 C 0.31384 0.84606 0.2924 0.0
C1807 C 0.32269 0.79032 0.28949 0.0
N1808 N 0.32683 0.84521 0.33877 0.0
N1809 N 0.3216 0.7938 0.24131 0.0
H1810 H 0.32448 0.75128 0.30555 0.0
H1811 H 0.31835 0.75221 0.27158 0.0
H1812 H 0.31866 0.80438 0.22369 0.0
H1813 H 0.32833 0.77442 0.23832 0.0
H1814 H 0.3275 0.86588 0.34018 0.0
H1815 H 0.33308 0.83573 0.35608 0.0
H1816 H 0.3026 0.88218 0.31139 0.0
H1817 H 0.30081 0.88295 0.27671 0.0
C1818 C 0.08469 0.44406 0.96191 0.0
C1819 C 0.06622 0.46251 0.95104 0.0
C1820 C 0.06999 0.49023 0.99082 0.0
C1821 C 0.08801 0.47157 1.00196 0.0
N1822 N 0.11812 0.43497 0.99583 0.0
N1823 N 0.05062 0.50806 0.95059 0.0
C1824 C 0.09706 0.44968 0.98676 0.0
C1825 C 0.06181 0.48721 0.96398 0.0
N1826 N 0.09078 0.42147 0.94816 0.0
N1827 N 0.05961 0.51007 1.00622 0.0
H1828 H 0.04573 0.50718 0.93048 0.0
H1829 H 0.04905 0.52713 0.95862 0.0
H1830 H 0.06473 0.5126 0.02612 0.0
H1831 H 0.04413 0.52242 0.99993 0.0
H1832 H 0.10197 0.4059 0.95599 0.0
H1833 H 0.08419 0.41825 0.92879 0.0
H1834 H 0.12741 0.42001 0.98491 0.0
H1835 H 0.12796 0.43938 0.01358 0.0
C1836 C 0.71136 0.67917 0.29075 0.0
C1837 C 0.70992 0.69311 0.26632 0.0
C1838 C 0.69751 0.73416 0.28985 0.0
C1839 C 0.69839 0.72003 0.31442 0.0
N1840 N 0.70097 0.67814 0.33784 0.0
N1841 N 0.70073 0.73307 0.24164 0.0
C1842 C 0.70415 0.6923 0.31481 0.0
C1843 C 0.70251 0.72035 0.26563 0.0
N1844 N 0.71943 0.65318 0.29079 0.0
N1845 N 0.69314 0.76104 0.28973 0.0
H1846 H 0.70735 0.7247 0.2239 0.0
H1847 H 0.69197 0.75161 0.2388 0.0
H1848 H 0.6904 0.77235 0.30683 0.0
H1849 H 0.69404 0.77304 0.27293 0.0
H1850 H 0.72435 0.64266 0.30794 0.0
H1851 H 0.72252 0.64232 0.27339 0.0
H1852 H 0.7021 0.6575 0.33899 0.0
H1853 H 0.69465 0.68668 0.35563 0.0
C1854 C 0.92755 0.07996 0.98893 0.0
C1855 C 0.9345 0.05697 1.00363 0.0
C1856 C 0.96169 0.04091 0.96639 0.0
C1857 C 0.95819 0.06587 0.95361 0.0
N1858 N 0.92899 0.103 0.94665 0.0
N1859 N 0.95942 0.01614 1.0076 0.0
C1860 C 0.93871 0.08385 0.96325 0.0
C1861 C 0.95149 0.03733 0.99249 0.0
N1862 N 0.91052 0.09818 0.99981 0.0
N1863 N 0.97389 0.02034 0.95344 0.0
H1864 H 0.95378 0.01358 0.02731 0.0
H1865 H 0.97329 1.00205 1.00148 0.0
H1866 H 0.98225 0.02199 0.93463 0.0
H1867 H 0.97373 1.00081 0.96036 0.0
H1868 H 0.90721 0.11702 0.99185 0.0
H1869 H 0.90037 0.09476 0.0176 0.0
H1870 H 0.91269 0.11503 0.95111 0.0
H1871 H 0.93537 0.10466 0.92701 0.0
C1872 C 0.2511 0.33569 0.19599 0.0
C1873 C 0.25541 0.30985 0.18548 0.0
C1874 C 0.21467 0.29482 0.20778 0.0
C1875 C 0.20831 0.32158 0.21502 0.0
N1876 N 0.21931 0.36851 0.20966 0.0
N1877 N 0.23626 0.26705 0.175 0.0
C1878 C 0.22609 0.34229 0.20718 0.0
C1879 C 0.23575 0.29001 0.18951 0.0
N1880 N 0.27052 0.35462 0.19573 0.0
N1881 N 0.2019 0.27372 0.21921 0.0
H1882 H 0.2501 0.26362 0.15991 0.0
H1883 H 0.22094 0.25302 0.17571 0.0
H1884 H 0.18818 0.27563 0.23457 0.0
H1885 H 0.20776 0.25406 0.21598 0.0
H1886 H 0.29006 0.35114 0.18946 0.0
H1887 H 0.29006 0.35114 0.18946 0.0
H1888 H 0.23235 0.38382 0.20435 0.0
H1889 H 0.20005 0.37493 0.21399 0.0
C1890 C 0.23264 0.70363 0.28831 0.0
C1891 C 0.2092 0.70021 0.30394 0.0
C1892 C 0.23535 0.70794 0.34466 0.0
C1893 C 0.25886 0.70949 0.32911 0.0
N1894 N 0.28082 0.70698 0.28661 0.0
N1895 N 0.18847 0.69615 0.34714 0.0
C1896 C 0.25773 0.70673 0.30108 0.0
C1897 C 0.21055 0.70185 0.33218 0.0
N1898 N 0.23083 0.70538 0.2612 0.0
N1899 N 0.23693 0.71209 0.37149 0.0
H1900 H 0.17008 0.69106 0.33895 0.0
H1901 H 0.18866 0.69427 0.36774 0.0
H1902 H 0.25504 0.71435 0.38146 0.0
H1903 H 0.22042 0.71462 0.38377 0.0
H1904 H 0.24644 0.71148 0.249 0.0
H1905 H 0.21318 0.70277 0.25068 0.0
H1906 H 0.282 0.70125 0.26675 0.0
H1907 H 0.29932 0.71156 0.29479 0.0
C1908 C 0.97088 0.54878 0.92608 0.0
C1909 C 0.96769 0.52289 0.93666 0.0
C1910 C 0.95531 0.54214 0.97971 0.0
C1911 C 0.9549 0.56796 0.96798 0.0
N1912 N 0.95682 0.59465 0.92789 0.0
N1913 N 0.95334 0.49443 0.97223 0.0
C1914 C 0.96122 0.57099 0.94057 0.0
C1915 C 0.9589 0.51942 0.96315 0.0
N1916 N 0.98406 0.55222 0.90255 0.0
N1917 N 0.95366 0.53925 1.00669 0.0
H1918 H 0.95573 0.47751 0.96042 0.0
H1919 H 0.94424 0.49076 0.99049 0.0
H1920 H 0.95203 0.55525 0.01976 0.0
H1921 H 0.95665 0.52114 0.01632 0.0
H1922 H 0.98921 0.57089 0.89512 0.0
H1923 H 0.99244 0.53642 0.892 0.0
H1924 H 0.95865 0.59694 0.90737 0.0
H1925 H 0.94836 0.61115 0.93719 0.0
C1926 C 0.79219 0.82041 0.29171 0.0
C1927 C 0.81521 0.82451 0.30765 0.0
C1928 C 0.78785 0.82031 0.34798 0.0
C1929 C 0.7655 0.81407 0.33194 0.0
N1930 N 0.74775 0.80217 0.28915 0.0
N1931 N 0.83585 0.82602 0.35105 0.0
C1932 C 0.76804 0.81256 0.30396 0.0
C1933 C 0.81336 0.82357 0.33587 0.0
N1934 N 0.79311 0.8242 0.26481 0.0
N1935 N 0.78432 0.8242 0.37464 0.0
H1936 H 0.85458 0.83005 0.34303 0.0
H1937 H 0.83627 0.82267 0.37148 0.0
H1938 H 0.76576 0.82215 0.38383 0.0
H1939 H 0.7991 0.83142 0.38727 0.0
H1940 H 0.77603 0.82531 0.25304 0.0
H1941 H 0.81056 0.82814 0.25436 0.0
H1942 H 0.74949 0.79748 0.26903 0.0
H1943 H 0.73005 0.79571 0.29767 0.0
C1944 C 0.56967 0.50341 0.47342 0.0
C1945 C 0.56695 0.50384 0.44536 0.0
C1946 C 0.57589 0.45585 0.44336 0.0
C1947 C 0.57704 0.45508 0.47162 0.0
N1948 N 0.5712 0.47747 0.51387 0.0
N1949 N 0.56515 0.48099 0.40345 0.0
C1950 C 0.5731 0.47871 0.48675 0.0
C1951 C 0.56922 0.48012 0.43032 0.0
N1952 N 0.5691 0.52675 0.48737 0.0
N1953 N 0.58262 0.43376 0.42893 0.0
H1954 H 0.56235 0.49875 0.3931 0.0
H1955 H 0.56314 0.46415 0.39155 0.0
H1956 H 0.58818 0.41579 0.43762 0.0
H1957 H 0.58484 0.43365 0.40835 0.0
H1958 H 0.57469 0.52842 0.50724 0.0
H1959 H 0.5645 0.54499 0.47872 0.0
H1960 H 0.56469 0.4932 0.52568 0.0
H1961 H 0.57416 0.46016 0.52478 0.0
C1962 C 0.29831 0.70845 0.67457 0.0
C1963 C 0.27335 0.70887 0.68759 0.0
C1964 C 0.29519 0.70101 0.73045 0.0
C1965 C 0.32019 0.69833 0.71718 0.0
N1966 N 0.34461 0.69476 0.67583 0.0
N1967 N 0.24688 0.70176 0.72664 0.0
C1968 C 0.32154 0.70088 0.68899 0.0
C1969 C 0.27149 0.70399 0.71518 0.0
N1970 N 0.29972 0.71569 0.64842 0.0
N1971 N 0.2941 0.70211 0.75761 0.0
H1972 H 0.22925 0.7043 0.71589 0.0
H1973 H 0.24388 0.69533 0.7461 0.0
H1974 H 0.31075 0.70025 0.76981 0.0
H1975 H 0.27694 0.70722 0.76813 0.0
H1976 H 0.31762 0.7187 0.63834 0.0
H1977 H 0.28284 0.72068 0.63732 0.0
H1978 H 0.346 0.69364 0.65519 0.0
H1979 H 0.36184 0.68824 0.68542 0.0
C1980 C 0.98291 0.48106 0.58709 0.0
C1981 C 0.96675 0.50367 0.58226 0.0
C1982 C 0.93654 0.4757 0.55656 0.0
C1983 C 0.95533 0.45439 0.55661 0.0
N1984 N 1.00129 0.44164 0.56723 0.0
N1985 N 0.93263 0.52343 0.5547 0.0
C1986 C 0.98 0.45829 0.57052 0.0
C1987 C 0.94498 0.50133 0.56452 0.0
N1988 N 1.00029 0.48072 0.60797 0.0
N1989 N 0.91027 0.4716 0.5507 0.0
H1990 H 0.93972 0.54262 0.55829 0.0
H1991 H 0.91762 0.52231 0.54035 0.0
H1992 H 0.90196 0.45272 0.54896 0.0
H1993 H 0.89609 0.48677 0.55195 0.0
H1994 H 1.0109 0.46369 0.61336 0.0
H1995 H 1.00156 0.49619 0.62173 0.0
H1996 H 0.01983 0.44551 0.57584 0.0
H1997 H 1.0021 0.42635 0.55338 0.0
C1998 C 0.05753 0.04221 0.59135 0.0
C1999 C 0.06537 0.01706 0.58141 0.0
C2000 C 0.07855 0.03784 0.5395 0.0
C2001 C 0.0748 0.06345 0.55114 0.0
N2002 N 0.06623 0.08935 0.59095 0.0
N2003 N 0.08605 0.99076 0.54734 0.0
C2004 C 0.06568 0.06552 0.57783 0.0
C2005 C 0.07664 0.01481 0.5558 0.0
N2006 N 0.04169 0.04377 0.61339 0.0
N2007 N 0.08258 0.0353 0.51275 0.0
H2008 H 0.08462 0.97357 0.55891 0.0
H2009 H 0.09707 0.98836 0.52993 0.0
H2010 H 0.08266 0.05143 0.4998 0.0
H2011 H 0.08288 0.017 0.50301 0.0
H2012 H 0.03341 0.06159 0.62009 0.0
H2013 H 0.03436 0.02694 0.62308 0.0
H2014 H 0.06211 0.09111 0.6112 0.0
H2015 H 0.07385 0.10675 0.58267 0.0
C2016 C 0.73608 0.73555 0.82191 0.0
C2017 C 0.72131 0.71135 0.82265 0.0
C2018 C 0.68011 0.7364 0.81329 0.0
C2019 C 0.69538 0.75987 0.81009 0.0
N2020 N 0.73831 0.78087 0.80622 0.0
N2021 N 0.67922 0.68832 0.81751 0.0
C2022 C 0.72344 0.75919 0.81312 0.0
C2023 C 0.69332 0.71162 0.81766 0.0
N2024 N 0.76225 0.73628 0.82954 0.0
N2025 N 0.65291 0.73814 0.81351 0.0
H2026 H 0.68734 0.6701 0.82318 0.0
H2027 H 0.65965 0.6868 0.81073 0.0
H2028 H 0.64282 0.7561 0.8108 0.0
H2029 H 0.64036 0.72242 0.81853 0.0
H2030 H 0.77255 0.75394 0.83311 0.0
H2031 H 0.77356 0.71952 0.83373 0.0
H2032 H 0.75901 0.78053 0.80435 0.0
H2033 H 0.72979 0.79861 0.79994 0.0
C2034 C 0.96864 0.05888 0.47737 0.0
C2035 C 0.95627 0.05949 0.45187 0.0
C2036 C 0.995 0.08411 0.43441 0.0
C2037 C 1.00847 0.07993 0.45867 0.0
N2038 N 1.01046 0.05878 0.50151 0.0
N2039 N 0.95865 0.07191 0.40538 0.0
C2040 C 0.99591 0.06614 0.47973 0.0
C2041 C 0.96979 0.07185 0.43015 0.0
N2042 N 0.9546 0.05166 0.49948 0.0
N2043 N 1.00602 0.1006 0.4158 0.0
H2044 H 0.93931 0.06553 0.40176 0.0
H2045 H 0.96895 0.07736 0.38823 0.0
H2046 H 0.02448 0.10981 0.41857 0.0
H2047 H 0.99601 0.10693 0.39879 0.0
H2048 H 0.96212 0.05367 0.5187 0.0
H2049 H 0.93462 0.04631 0.49911 0.0
H2050 H 1.00318 0.04616 0.51627 0.0
H2051 H 0.03074 0.06294 0.50341 0.0
C2052 C 0.29396 0.79074 0.82033 0.0
C2053 C 0.30727 0.81572 0.82236 0.0
C2054 C 0.34931 0.79416 0.80908 0.0
C2055 C 0.33653 0.76915 0.81005 0.0
N2056 N 0.29798 0.74256 0.81948 0.0
N2057 N 0.34867 0.8406 0.82172 0.0
C2058 C 0.3092 0.76716 0.81653 0.0
C2059 C 0.33524 0.81733 0.81737 0.0
N2060 N 0.26671 0.7896 0.82048 0.0
N2061 N 0.37489 0.79567 0.7998 0.0
H2062 H 0.33945 0.85803 0.82806 0.0
H2063 H 0.36938 0.84216 0.8213 0.0
H2064 H 0.3857 0.77886 0.79408 0.0
H2065 H 0.3846 0.81353 0.79572 0.0
H2066 H 0.25598 0.77235 0.8163 0.0
H2067 H 0.2546 0.80635 0.82209 0.0
H2068 H 0.27889 0.73952 0.82709 0.0
H2069 H 0.30863 0.72502 0.8162 0.0
C2070 C 0.0216 0.46492 0.45683 0.0
C2071 C 0.02409 0.4378 0.46371 0.0
C2072 C 0.07248 0.44016 0.4576 0.0
C2073 C 0.07038 0.46801 0.4527 0.0
N2074 N 0.04309 0.50783 0.45292 0.0
N2075 N 0.05149 0.40051 0.47558 0.0
C2076 C 0.04495 0.48069 0.45367 0.0
C2077 C 0.04946 0.42571 0.46559 0.0
N2078 N 0.99679 0.4754 0.45272 0.0
N2079 N 0.09608 0.42718 0.45332 0.0
H2080 H 0.03486 0.3895 0.4815 0.0
H2081 H 0.06962 0.39148 0.48019 0.0
H2082 H 0.11323 0.4366 0.44641 0.0
H2083 H 0.09797 0.40655 0.45389 0.0
H2084 H 0.99355 0.49427 0.44478 0.0
H2085 H 0.97939 0.46429 0.45528 0.0
H2086 H 0.02544 0.51815 0.45657 0.0
H2087 H 0.05954 0.52034 0.45113 0.0
C2088 C 0.7374 0.29555 0.70684 0.0
C2089 C 0.7228 0.31925 0.70133 0.0
C2090 C 0.68072 0.29424 0.70498 0.0
C2091 C 0.69528 0.27117 0.71183 0.0
N2092 N 0.73668 0.2509 0.72507 0.0
N2093 N 0.6803 0.34204 0.6988 0.0
C2094 C 0.72342 0.27211 0.71431 0.0
C2095 C 0.69436 0.31891 0.70169 0.0
N2096 N 0.76463 0.29527 0.70505 0.0
N2097 N 0.65392 0.29217 0.70045 0.0
H2098 H 0.6891 0.36022 0.69414 0.0
H2099 H 0.65987 0.34353 0.70222 0.0
H2100 H 0.64355 0.27431 0.70278 0.0
H2101 H 0.64236 0.30742 0.69246 0.0
H2102 H 0.77593 0.27787 0.70533 0.0
H2103 H 0.77616 0.31213 0.70167 0.0
H2104 H 0.75676 0.25133 0.73037 0.0
H2105 H 0.72702 0.23368 0.73146 0.0
C2106 C 0.55536 0.06139 0.54863 0.0
C2107 C 0.56728 0.06467 0.57416 0.0
C2108 C 0.53019 0.09419 0.58672 0.0
C2109 C 0.51661 0.08714 0.56303 0.0
N2110 N 0.51408 0.05946 0.52399 0.0
N2111 N 0.56563 0.08431 0.61799 0.0
C2112 C 0.5286 0.06949 0.54468 0.0
C2113 C 0.55446 0.08101 0.59344 0.0
N2114 N 0.56951 0.05126 0.52777 0.0
N2115 N 0.52038 0.11432 0.60215 0.0
H2116 H 0.58451 0.07718 0.62276 0.0
H2117 H 0.55576 0.09322 0.6339 0.0
H2118 H 0.50312 0.1248 0.59717 0.0
H2119 H 0.53054 0.12228 0.61837 0.0
H2120 H 0.56214 0.05056 0.50839 0.0
H2121 H 0.58969 0.04702 0.52872 0.0
H2122 H 0.52092 0.04424 0.51166 0.0
H2123 H 0.49418 0.06432 0.52082 0.0
C2124 C 0.34224 0.22627 0.72261 0.0
C2125 C 0.33247 0.25164 0.71541 0.0
C2126 C 0.29207 0.23083 0.69748 0.0
C2127 C 0.30375 0.20514 0.70129 0.0
N2128 N 0.34385 0.17987 0.71073 0.0
N2129 N 0.29984 0.27841 0.69307 0.0
C2130 C 0.32989 0.20321 0.71212 0.0
C2131 C 0.30782 0.25403 0.70203 0.0
N2132 N 0.36332 0.22425 0.7397 0.0
N2133 N 0.2658 0.23331 0.69064 0.0
H2134 H 0.31085 0.29568 0.69664 0.0
H2135 H 0.28353 0.28115 0.68052 0.0
H2136 H 0.25299 0.21721 0.68818 0.0
H2137 H 0.25586 0.25152 0.69025 0.0
H2138 H 0.36984 0.20613 0.74744 0.0
H2139 H 0.37223 0.2409 0.74838 0.0
H2140 H 0.36381 0.1783 0.71636 0.0
H2141 H 0.33684 0.16308 0.70077 0.0
C2142 C 0.50756 0.46179 0.56892 0.0
C2143 C 0.50554 0.43447 0.56263 0.0
C2144 C 0.4574 0.43575 0.57116 0.0
C2145 C 0.45891 0.46378 0.57507 0.0
N2146 N 0.48519 0.50423 0.57315 0.0
N2147 N 0.47883 0.39583 0.55408 0.0
C2148 C 0.48395 0.47704 0.57283 0.0
C2149 C 0.48048 0.42159 0.56263 0.0
N2150 N 0.53223 0.47297 0.57183 0.0
N2151 N 0.43434 0.42241 0.57694 0.0
H2152 H 0.49558 0.38499 0.54816 0.0
H2153 H 0.46084 0.38598 0.55085 0.0
H2154 H 0.41728 0.43179 0.58417 0.0
H2155 H 0.43285 0.40174 0.57709 0.0
H2156 H 0.53531 0.49209 0.57923 0.0
H2157 H 0.5498 0.46223 0.56888 0.0
H2158 H 0.50235 0.51489 0.56837 0.0
H2159 H 0.46863 0.51639 0.5759 0.0
C2160 C 0.8373 0.69142 0.74329 0.0
C2161 C 0.81349 0.69678 0.75726 0.0
C2162 C 0.79798 0.72525 0.72077 0.0
C2163 C 0.82298 0.72189 0.7076 0.0
N2164 N 0.8679 0.7039 0.70839 0.0
N2165 N 0.77328 0.72229 0.7621 0.0
C2166 C 0.84311 0.70569 0.71953 0.0
C2167 C 0.79434 0.71454 0.74669 0.0
N2168 N 0.85388 0.67182 0.75233 0.0
N2169 N 0.7776 0.73876 0.70881 0.0
H2170 H 0.7701 0.71481 0.78113 0.0
H2171 H 0.76039 0.73778 0.75713 0.0
H2172 H 0.77955 0.74886 0.69097 0.0
H2173 H 0.75807 0.7387 0.71591 0.0
H2174 H 0.87014 0.66463 0.74162 0.0
H2175 H 0.84994 0.66106 0.76965 0.0
H2176 H 0.88425 0.6956 0.71814 0.0
H2177 H 0.87273 0.71178 0.6899 0.0
C2178 C 0.96625 0.98104 0.56003 0.0
C2179 C 0.97391 0.95423 0.56554 0.0
C2180 C 0.95512 0.94121 0.52218 0.0
C2181 C 0.94395 0.9668 0.51923 0.0
N2182 N 0.9325 1.00856 0.53962 0.0
N2183 N 0.96925 0.90756 0.55325 0.0
C2184 C 0.94774 0.98608 0.53932 0.0
C2185 C 0.96686 0.9339 0.54689 0.0
N2186 N 0.97719 1.00194 0.57358 0.0
N2187 N 0.95405 0.92375 0.50141 0.0
H2188 H 0.97508 0.90075 0.57187 0.0
H2189 H 0.96205 0.89234 0.54114 0.0
H2190 H 0.94527 0.92875 0.48324 0.0
H2191 H 0.96403 0.90555 0.50142 0.0
H2192 H 0.97348 0.0217 0.56838 0.0
H2193 H 0.99241 0.99992 0.5875 0.0
H2194 H 0.93287 0.02213 0.55532 0.0
H2195 H 0.91749 0.01204 0.52568 0.0
C2196 C 0.20851 0.78867 0.72916 0.0
C2197 C 0.20571 0.80313 0.70496 0.0
C2198 C 0.21536 0.84483 0.72874 0.0
C2199 C 0.21603 0.83058 0.75297 0.0
N2200 N 0.21074 0.78981 0.77734 0.0
N2201 N 0.20256 0.84539 0.68223 0.0
C2202 C 0.21186 0.80274 0.75345 0.0
C2203 C 0.20831 0.83135 0.70482 0.0
N2204 N 0.20923 0.76145 0.72888 0.0
N2205 N 0.22139 0.87135 0.72876 0.0
H2206 H 0.19659 0.83643 0.66452 0.0
H2207 H 0.20132 0.86606 0.68153 0.0
H2208 H 0.22528 0.88191 0.74621 0.0
H2209 H 0.22427 0.88249 0.71155 0.0
H2210 H 0.21467 0.74996 0.74522 0.0
H2211 H 0.20643 0.75011 0.71181 0.0
H2212 H 0.2044 0.7702 0.77952 0.0
H2213 H 0.21457 0.79925 0.79539 0.0
C2214 C 0.10004 0.56723 0.54167 0.0
C2215 C 0.08656 0.56598 0.51704 0.0
C2216 C 0.04382 0.57359 0.53924 0.0
C2217 C 0.05754 0.57726 0.5638 0.0
N2218 N 0.09937 0.5819 0.58748 0.0
N2219 N 0.04684 0.57143 0.49107 0.0
C2220 C 0.08586 0.57517 0.56482 0.0
C2221 C 0.05877 0.57022 0.51547 0.0
N2222 N 0.12633 0.56014 0.54292 0.0
N2223 N 0.01659 0.5719 0.53871 0.0
H2224 H 0.0574 0.56859 0.4734 0.0
H2225 H 0.02712 0.5773 0.48821 0.0
H2226 H 1.00465 0.57378 0.55554 0.0
H2227 H 1.00581 0.56623 0.52193 0.0
H2228 H 0.13672 0.55772 0.5607 0.0
H2229 H 0.13722 0.55453 0.52613 0.0
H2230 H 0.12006 0.58366 0.58839 0.0
H2231 H 0.08998 0.58806 0.60488 0.0
C2232 C 0.82679 0.31494 0.76814 0.0
C2233 C 0.8169 0.3412 0.76973 0.0
C2234 C 0.822 0.34071 0.81818 0.0
C2235 C 0.82931 0.31335 0.81704 0.0
N2236 N 0.83616 0.27349 0.79065 0.0
N2237 N 0.80202 0.37849 0.79551 0.0
C2238 C 0.83128 0.30023 0.79191 0.0
C2239 C 0.81355 0.35387 0.79458 0.0
N2240 N 0.83213 0.30427 0.7437 0.0
N2241 N 0.8247 0.35457 0.84143 0.0
H2242 H 0.79639 0.38882 0.77839 0.0
H2243 H 0.79625 0.38776 0.81312 0.0
H2244 H 0.83223 0.34612 0.85881 0.0
H2245 H 0.8222 0.37509 0.84287 0.0
H2246 H 0.84234 0.28645 0.74088 0.0
H2247 H 0.82794 0.31428 0.72601 0.0
H2248 H 0.83471 0.26234 0.77325 0.0
H2249 H 0.83924 0.26163 0.80728 0.0
C2250 C 0.59591 0.96354 0.48365 0.0
C2251 C 0.58092 0.97191 0.50595 0.0
C2252 C 0.53937 0.96571 0.48126 0.0
C2253 C 0.55429 0.95865 0.45829 0.0
N2254 N 0.59698 0.95509 0.43618 0.0
N2255 N 0.5396 0.98802 0.52398 0.0
C2256 C 0.58268 0.95909 0.45897 0.0
C2257 C 0.55298 0.97512 0.50411 0.0
N2258 N 0.62257 0.95868 0.4865 0.0
N2259 N 0.51226 0.963 0.48157 0.0
H2260 H 0.54929 0.99595 0.54056 0.0
H2261 H 0.51954 0.99333 0.52271 0.0
H2262 H 0.50123 0.95681 0.46516 0.0
H2263 H 0.50092 0.96478 0.49884 0.0
H2264 H 0.63425 0.94973 0.4719 0.0
H2265 H 0.63264 0.9619 0.50438 0.0
H2266 H 0.61752 0.95792 0.4349 0.0
H2267 H 0.58813 0.95052 0.41801 0.0
C2268 C 0.2009 0.18497 0.81438 0.0
C2269 C 0.20071 0.21331 0.81502 0.0
C2270 C 0.21599 0.21439 0.76895 0.0
C2271 C 0.21224 0.18664 0.76704 0.0
N2272 N 0.19892 0.14525 0.78678 0.0
N2273 N 0.20344 0.255 0.79081 0.0
C2274 C 0.20428 0.17175 0.78953 0.0
C2275 C 0.20672 0.22804 0.79166 0.0
N2276 N 0.19765 0.17073 0.8373 0.0
N2277 N 0.22959 0.22753 0.74945 0.0
H2278 H 0.19735 0.2662 0.80704 0.0
H2279 H 0.20487 0.26599 0.77329 0.0
H2280 H 0.23805 0.21756 0.73339 0.0
H2281 H 0.23526 0.24744 0.75095 0.0
H2282 H 0.20039 0.15022 0.83843 0.0
H2283 H 0.19365 0.17957 0.85562 0.0
H2284 H 0.19032 0.13371 0.8017 0.0
H2285 H 0.20133 0.13523 0.76876 0.0
C2286 C 0.42908 0.55734 0.48288 0.0
C2287 C 0.44264 0.55843 0.50749 0.0
C2288 C 0.48493 0.56659 0.48466 0.0
C2289 C 0.47104 0.56781 0.45999 0.0
N2290 N 0.4292 0.56852 0.43604 0.0
N2291 N 0.48218 0.56692 0.53292 0.0
C2292 C 0.4429 0.56415 0.45915 0.0
C2293 C 0.47023 0.5639 0.50867 0.0
N2294 N 0.40303 0.54936 0.48231 0.0
N2295 N 0.5122 0.5668 0.48508 0.0
H2296 H 0.47186 0.56439 0.55077 0.0
H2297 H 0.50162 0.57377 0.53545 0.0
H2298 H 0.52379 0.56821 0.46795 0.0
H2299 H 0.52345 0.56327 0.50211 0.0
H2300 H 0.39264 0.54528 0.46484 0.0
H2301 H 0.39234 0.54487 0.49956 0.0
H2302 H 0.40846 0.56901 0.43489 0.0
H2303 H 0.43841 0.57408 0.41835 0.0
C2304 C 0.73469 0.82212 0.73016 0.0
C2305 C 0.71109 0.82657 0.71518 0.0
C2306 C 0.73725 0.82326 0.67395 0.0
C2307 C 0.76002 0.81621 0.68907 0.0
N2308 N 0.77797 0.80109 0.73087 0.0
N2309 N 0.68913 0.82841 0.67242 0.0
C2310 C 0.75808 0.81347 0.717 0.0
C2311 C 0.71207 0.82603 0.6869 0.0
N2312 N 0.73513 0.82633 0.75697 0.0
N2313 N 0.74001 0.82836 0.64741 0.0
H2314 H 0.67057 0.832 0.68105 0.0
H2315 H 0.68822 0.82532 0.65196 0.0
H2316 H 0.7583 0.82682 0.63762 0.0
H2317 H 0.72482 0.83619 0.63563 0.0
H2318 H 0.75285 0.82685 0.76785 0.0
H2319 H 0.71834 0.83129 0.76808 0.0
H2320 H 0.77629 0.79614 0.75094 0.0
H2321 H 0.79469 0.79284 0.72169 0.0
C2322 C 0.74582 0.19897 0.84331 0.0
C2323 C 0.76284 0.21906 0.83343 0.0
C2324 C 0.72924 0.23187 0.80059 0.0
C2325 C 0.71338 0.20983 0.80841 0.0
N2326 N 0.70123 0.18048 0.84409 0.0
N2327 N 0.77207 0.25406 0.80222 0.0
C2328 C 0.7202 0.19544 0.83169 0.0
C2329 C 0.75482 0.23548 0.81204 0.0
N2330 N 0.75458 0.18287 0.86337 0.0
N2331 N 0.71899 0.25062 0.78391 0.0
H2332 H 0.79036 0.25811 0.81113 0.0
H2333 H 0.76909 0.26426 0.78443 0.0
H2334 H 0.69955 0.24966 0.77713 0.0
H2335 H 0.7283 0.26862 0.77955 0.0
H2336 H 0.74445 0.16587 0.86958 0.0
H2337 H 0.773 0.18569 0.87264 0.0
H2338 H 0.70386 0.17188 0.86275 0.0
H2339 H 0.68176 0.17916 0.83697 0.0
C2340 C 0.45528 0.04059 0.42915 0.0
C2341 C 0.45646 0.01642 0.44358 0.0
C2342 C 0.44773 0.04039 0.48525 0.0
C2343 C 0.44525 0.06452 0.47064 0.0
N2344 N 0.44253 0.08714 0.42831 0.0
N2345 N 0.4513 0.9923 0.48466 0.0
C2346 C 0.44811 0.06455 0.44248 0.0
C2347 C 0.45177 0.01604 0.47141 0.0
N2348 N 0.46089 0.04046 0.40254 0.0
N2349 N 0.44784 0.04088 0.51248 0.0
H2350 H 0.45657 0.9743 0.47589 0.0
H2351 H 0.4443 0.99008 0.50402 0.0
H2352 H 0.44551 0.05817 0.52363 0.0
H2353 H 0.45283 0.02462 0.52429 0.0
H2354 H 0.46386 0.0576 0.39131 0.0
H2355 H 0.4639 0.02297 0.39177 0.0
H2356 H 0.44148 0.08784 0.40766 0.0
H2357 H 0.43647 0.10491 0.43712 0.0
C2358 C 0.30858 0.2882 0.80815 0.0
C2359 C 0.31977 0.31426 0.80948 0.0
C2360 C 0.28238 0.3283 0.83802 0.0
C2361 C 0.26957 0.30373 0.83334 0.0
N2362 N 0.26849 0.26146 0.81082 0.0
N2363 N 0.31636 0.35977 0.82499 0.0
C2364 C 0.28223 0.28388 0.81777 0.0
C2365 C 0.30635 0.33451 0.82421 0.0
N2366 N 0.32281 0.26746 0.79771 0.0
N2367 N 0.27194 0.34534 0.85648 0.0
H2368 H 0.33489 0.36482 0.81729 0.0
H2369 H 0.30576 0.37604 0.83229 0.0
H2370 H 0.25463 0.34097 0.86715 0.0
H2371 H 0.28164 0.36246 0.86305 0.0
H2372 H 0.31669 0.2477 0.79917 0.0
H2373 H 0.34174 0.26931 0.7895 0.0
H2374 H 0.27519 0.24788 0.79665 0.0
H2375 H 0.24924 0.25756 0.81744 0.0
C2376 C 0.08189 0.99256 0.93409 0.0
C2377 C 0.05997 1.00797 0.94257 0.0
C2378 C 0.04695 0.97322 0.97374 0.0
C2379 C 0.07035 0.95855 0.96734 0.0
N2380 N 0.11278 0.95705 0.94438 0.0
N2381 N 0.02731 0.017 0.97623 0.0
C2382 C 0.08871 0.96908 0.94841 0.0
C2383 C 0.04413 0.99948 0.96407 0.0
N2384 N 0.09595 1.00033 0.91217 0.0
N2385 N 0.02707 0.96226 0.98866 0.0
H2386 H 0.02471 0.03652 0.96965 0.0
H2387 H 0.0181 0.01286 0.99433 0.0
H2388 H 0.02767 0.94295 0.99581 0.0
H2389 H 1.00873 0.97158 0.9916 0.0
H2390 H 0.11056 0.98861 0.90323 0.0
H2391 H 0.09147 0.01778 0.90181 0.0
H2392 H 0.12805 0.96563 0.93326 0.0
H2393 H 0.11823 0.93935 0.95362 0.0
C2394 C 0.77972 0.23321 0.20707 0.0
C2395 C 0.7679 0.21404 0.19019 0.0
C2396 C 0.80496 0.18335 0.19896 0.0
C2397 C 0.81772 0.20319 0.21479 0.0
N2398 N 0.81969 0.24977 0.22773 0.0
N2399 N 0.77077 0.173 0.16615 0.0
C2400 C 0.80594 0.22898 0.21688 0.0
C2401 C 0.78098 0.18967 0.18506 0.0
N2402 N 0.76537 0.255 0.21479 0.0
N2403 N 0.81581 0.15851 0.19699 0.0
H2404 H 0.75332 0.1774 0.15569 0.0
H2405 H 0.78053 0.15607 0.15924 0.0
H2406 H 0.83449 0.15382 0.20455 0.0
H2407 H 0.80593 0.14228 0.18868 0.0
H2408 H 0.77149 0.26795 0.2298 0.0
H2409 H 0.74613 0.25879 0.20801 0.0
H2410 H 0.81299 0.26939 0.22709 0.0
H2411 H 0.83898 0.24825 0.23484 0.0
C2412 C 0.47623 0.97048 0.05251 0.0
C2413 C 0.45636 0.95276 0.06183 0.0
C2414 C 0.44791 0.98295 0.0995 0.0
C2415 C 0.46482 1.00202 0.08753 0.0
N2416 N 0.49068 0.01618 0.04982 0.0
N2417 N 0.42455 0.94071 0.09559 0.0
C2418 C 0.47774 0.99642 0.06324 0.0
C2419 C 0.44247 0.95862 0.0858 0.0
N2420 N 0.49473 0.96216 0.03451 0.0
N2421 N 0.43744 0.9882 0.12402 0.0
H2422 H 0.42218 0.92191 0.08724 0.0
H2423 H 0.41176 0.94449 0.11145 0.0
H2424 H 0.44109 1.00609 0.13396 0.0
H2425 H 0.42648 0.9746 0.13514 0.0
H2426 H 0.51119 0.9736 0.02909 0.0
H2427 H 0.49563 0.94262 0.02797 0.0
H2428 H 0.4979 0.01376 0.03053 0.0
H2429 H 0.49232 0.03554 0.05713 0.0
C2430 C 0.57452 0.53957 0.0436 0.0
C2431 C 0.57453 0.56514 0.05586 0.0
C2432 C 0.56141 0.54488 0.09831 0.0
C2433 C 0.56328 0.5195 0.08646 0.0
N2434 N 0.57495 0.49159 0.04958 0.0
N2435 N 0.5733 0.59147 0.09615 0.0
C2436 C 0.57088 0.51655 0.05959 0.0
C2437 C 0.56931 0.56767 0.08358 0.0
N2438 N 0.57662 0.53726 0.01659 0.0
N2439 N 0.5517 0.54709 0.1236 0.0
H2440 H 0.58011 0.60843 0.0864 0.0
H2441 H 0.57248 0.59381 0.11672 0.0
H2442 H 0.54642 0.53054 0.13499 0.0
H2443 H 0.54699 0.56521 0.1325 0.0
H2444 H 0.57367 0.5195 1.00633 0.0
H2445 H 0.57885 0.55349 1.00397 0.0
H2446 H 0.58337 0.4879 0.031 0.0
H2447 H 0.57172 0.47441 0.06078 0.0
C2448 C 0.02387 0.27264 0.23794 0.0
C2449 C 0.03559 0.28081 0.26234 0.0
C2450 C 0.99808 0.26071 0.28669 0.0
C2451 C 0.98805 0.25004 0.26248 0.0
N2452 N 0.99429 0.24173 0.21561 0.0
N2453 N 0.03606 0.27917 0.3103 0.0
C2454 C 1.00177 0.25488 0.23824 0.0
C2455 C 0.02327 0.27394 0.28685 0.0
N2456 N 0.03339 0.28251 0.21444 0.0
N2457 N 0.98314 0.25899 0.30937 0.0
H2458 H 0.05444 0.28886 0.31127 0.0
H2459 H 0.02953 0.272 0.32861 0.0
H2460 H 0.96462 0.24954 0.31004 0.0
H2461 H 0.98802 0.26887 0.32693 0.0
H2462 H 0.02395 0.27945 0.19623 0.0
H2463 H 0.04922 0.29596 0.21343 0.0
H2464 H 1.00527 0.2423 0.19803 0.0
H2465 H 0.97855 0.22816 0.21508 0.0
C2466 C 0.5184 0.74666 0.9849 0.0
C2467 C 0.52775 0.73562 1.00919 0.0
C2468 C 0.5045 0.77075 0.03408 0.0
C2469 C 0.49721 0.78317 1.00976 0.0
N2470 N 0.50031 0.78519 0.96196 0.0
N2471 N 0.5337 0.73958 0.05663 0.0
C2472 C 0.50499 0.77171 0.98511 0.0
C2473 C 0.5219 0.74837 0.03372 0.0
N2474 N 0.5216 0.73279 0.96171 0.0
N2475 N 0.49412 0.77992 0.05751 0.0
H2476 H 0.54673 0.72339 0.05715 0.0
H2477 H 0.53254 0.74972 0.07466 0.0
H2478 H 0.48116 0.79614 0.05856 0.0
H2479 H 0.49635 0.77004 0.07558 0.0
H2480 H 0.51266 0.73827 0.94383 0.0
H2481 H 0.53157 0.71459 0.96073 0.0
H2482 H 0.50811 0.77942 0.94364 0.0
H2483 H 0.49023 0.80335 0.9613 0.0
C2484 C 0.9992 0.76931 0.29184 0.0
C2485 C 0.9881 0.77805 0.26736 0.0
C2486 C 0.02595 0.75858 0.24315 0.0
C2487 C 0.03582 0.74795 0.2674 0.0
N2488 N 0.03023 0.73981 0.31432 0.0
N2489 N 0.98866 0.77833 0.21942 0.0
C2490 C 0.02198 0.75239 0.29163 0.0
C2491 C 1.00089 0.77198 0.2429 0.0
N2492 N 0.98834 0.77781 0.31531 0.0
N2493 N 0.04092 0.75651 0.2205 0.0
H2494 H 0.97058 0.78858 0.21848 0.0
H2495 H 0.99537 0.77182 0.20093 0.0
H2496 H 0.05912 0.74646 0.21982 0.0
H2497 H 0.03635 0.76637 0.20286 0.0
H2498 H 0.99714 0.77458 0.33379 0.0
H2499 H 0.97156 0.79007 0.31625 0.0
H2500 H 0.01936 0.73982 0.33196 0.0
H2501 H 0.04697 0.72749 0.31498 0.0
C2502 C 1.00447 0.75085 0.03815 0.0
C2503 C 0.99701 0.73849 0.01384 0.0
C2504 C 0.02103 0.77297 0.9888 0.0
C2505 C 0.02667 0.78648 0.01297 0.0
N2506 N 0.02093 0.79051 0.0604 0.0
N2507 N 0.99455 0.73959 0.96597 0.0
C2508 C 0.01763 0.77601 0.03761 0.0
C2509 C 1.00429 0.75008 0.98913 0.0
N2510 N 0.99964 0.73814 0.06171 0.0
N2511 N 0.03235 0.78163 0.9656 0.0
H2512 H 0.98239 0.72275 0.9654 0.0
H2513 H 0.99664 0.74875 0.94751 0.0
H2514 H 0.04462 0.79837 0.96456 0.0
H2515 H 0.03146 0.77105 0.94781 0.0
H2516 H 1.0072 0.74454 0.07991 0.0
H2517 H 0.9896 0.71998 0.06288 0.0
H2518 H 1.0122 0.7855 0.0785 0.0
H2519 H 0.03089 0.80874 0.06084 0.0
C2520 C 0.24471 0.99365 0.26377 0.0
C2521 C 0.25848 0.99082 0.23913 0.0
C2522 C 0.27743 0.03544 0.2455 0.0
C2523 C 0.26744 0.03617 0.27186 0.0
N2524 N 0.24205 0.01526 0.30679 0.0
N2525 N 0.26685 0.01969 0.20177 0.0
C2526 C 0.25127 0.015 0.28123 0.0
C2527 C 0.26957 0.01448 0.22823 0.0
N2528 N 0.22251 0.97862 0.26845 0.0
N2529 N 0.29389 0.05516 0.23659 0.0
H2530 H 0.2537 1.00868 0.19 0.0
H2531 H 0.27296 0.03751 0.19306 0.0
H2532 H 0.29992 0.071 0.24862 0.0
H2533 H 0.30327 0.05427 0.21809 0.0
H2534 H 0.21003 0.98138 0.28479 0.0
H2535 H 0.21456 0.96602 0.25394 0.0
H2536 H 0.2325 0.99901 0.31547 0.0
H2537 H 0.24597 0.03081 0.31998 0.0
C2538 C 0.27382 0.53647 1.00278 0.0
C2539 C 0.28554 0.51166 0.99594 0.0
C2540 C 0.24794 0.48846 0.01705 0.0
C2541 C 0.23806 0.51319 0.02664 0.0
N2542 N 0.24489 0.56033 0.03306 0.0
N2543 N 0.28614 0.46384 1.00064 0.0
C2544 C 0.25193 0.53711 0.02074 0.0
C2545 C 0.27324 0.48755 1.00417 0.0
N2546 N 0.28305 0.55943 0.99145 0.0
N2547 N 0.23277 0.46598 0.01938 0.0
H2548 H 0.3048 0.46233 0.99158 0.0
H2549 H 0.27944 0.446 1.0088 0.0
H2550 H 0.21397 0.46586 0.02828 0.0
H2551 H 0.23772 0.448 1.0103 0.0
H2552 H 0.27354 0.57774 0.99366 0.0
H2553 H 0.29859 0.55975 0.97765 0.0
H2554 H 0.25604 0.57776 0.03156 0.0
H2555 H 0.22945 0.56154 0.04693 0.0
C2556 C 0.78947 0.52726 0.25291 0.0
C2557 C 0.76495 0.53776 0.2434 0.0
C2558 C 0.74089 0.49998 0.26325 0.0
C2559 C 0.76513 0.49078 0.27468 0.0
N2560 N 0.81191 0.4974 0.28361 0.0
N2561 N 0.71691 0.53627 0.24208 0.0
C2562 C 0.78928 0.50491 0.27037 0.0
C2563 C 0.74052 0.52467 0.24923 0.0
N2564 N 0.81301 0.53829 0.24467 0.0
N2565 N 0.71839 0.48472 0.26517 0.0
H2566 H 0.71587 0.55398 0.2313 0.0
H2567 H 0.69835 0.52942 0.24837 0.0
H2568 H 0.71778 0.46683 0.27569 0.0
H2569 H 0.70086 0.48871 0.2548 0.0
H2570 H 0.83162 0.52992 0.24851 0.0
H2571 H 0.81391 0.55469 0.23198 0.0
H2572 H 0.82943 0.50851 0.28368 0.0
H2573 H 0.81258 0.48105 0.29639 0.0
C2574 C 0.7724 0.98384 0.02245 0.0
C2575 C 0.78599 1.00807 0.02782 0.0
C2576 C 0.75096 0.03263 1.00378 0.0
C2577 C 0.73888 1.00817 0.99626 0.0
N2578 N 0.74128 0.96027 0.99402 0.0
N2579 N 0.7908 0.05513 0.0195 0.0
C2580 C 0.75054 0.98369 1.00434 0.0
C2581 C 0.77598 0.03239 0.01734 0.0
N2582 N 0.77978 0.96107 0.03539 0.0
N2583 N 0.73811 0.05611 0.99885 0.0
H2584 H 0.80923 0.05577 0.02914 0.0
H2585 H 0.78598 0.07278 1.00976 0.0
H2586 H 0.71979 0.05716 0.98904 0.0
H2587 H 0.74445 0.07433 1.00645 0.0
H2588 H 0.76889 0.94344 0.03442 0.0
H2589 H 0.79534 0.96045 0.04917 0.0
H2590 H 0.75072 0.94204 0.99701 0.0
H2591 H 0.72567 0.95936 0.98031 0.0
C2592 C 0.25371 0.28158 0.9979 0.0
C2593 C 0.24415 0.25711 0.98742 0.0
C2594 C 0.26806 0.2327 0.0224 0.0
C2595 C 0.27588 0.25722 0.0341 0.0
N2596 N 0.2723 0.30506 0.03581 0.0
N2597 N 0.23779 0.20982 0.9925 0.0
C2598 C 0.26761 0.28171 0.02264 0.0
C2599 C 0.25003 0.23278 1.00054 0.0
N2600 N 0.25036 0.30457 0.98374 0.0
N2601 N 0.27862 0.20935 0.0316 0.0
H2602 H 0.22427 0.20916 0.97673 0.0
H2603 H 0.23908 0.19197 1.00295 0.0
H2604 H 0.29208 0.20847 0.0474 0.0
H2605 H 0.27595 0.19112 0.02209 0.0
H2606 H 0.25951 0.32249 0.98879 0.0
H2607 H 0.24008 0.30534 0.96572 0.0
H2608 H 0.26423 0.32325 0.02997 0.0
H2609 H 0.28245 0.30598 0.05391 0.0
C2610 C 0.27784 0.73524 0.49916 0.0
C2611 C 0.28465 0.75962 0.48659 0.0
C2612 C 0.26033 0.78446 0.52102 0.0
C2613 C 0.25494 0.76021 0.53449 0.0
N2614 N 0.26175 0.71294 0.53891 0.0
N2615 N 0.28635 0.80755 0.48746 0.0
C2616 C 0.26462 0.73569 0.52426 0.0
C2617 C 0.27704 0.78428 0.49811 0.0
N2618 N 0.28329 0.71167 0.48667 0.0
N2619 N 0.24878 0.80756 0.52969 0.0
H2620 H 0.29847 0.80819 0.47059 0.0
H2621 H 0.28398 0.82604 0.4965 0.0
H2622 H 0.23667 0.80853 0.54654 0.0
H2623 H 0.24942 0.82536 0.51911 0.0
H2624 H 0.27616 0.69334 0.4932 0.0
H2625 H 0.29348 0.71056 0.46862 0.0
H2626 H 0.27088 0.69497 0.53407 0.0
H2627 H 0.25179 0.71244 0.55713 0.0
C2628 C 1.00243 0.51951 0.77869 0.0
C2629 C 0.01518 0.49425 0.77868 0.0
C2630 C 0.02201 0.49853 0.73054 0.0
C2631 C 0.01387 0.52563 0.73169 0.0
N2632 N 1.00135 0.56331 0.75897 0.0
N2633 N 0.04139 0.46169 0.75475 0.0
C2634 C 1.00532 0.53653 0.75634 0.0
C2635 C 0.02606 0.48417 0.75461 0.0
N2636 N 0.98713 0.52711 0.79987 0.0
N2637 N 0.02515 0.48621 0.70652 0.0
H2638 H 0.0457 0.45103 0.77201 0.0
H2639 H 0.05194 0.45515 0.73813 0.0
H2640 H 0.02126 0.49568 0.68846 0.0
H2641 H 0.02873 0.46585 0.70468 0.0
H2642 H 0.97558 0.54437 0.79981 0.0
H2643 H 0.98364 0.51473 0.81617 0.0
H2644 H 0.99758 0.57237 0.77724 0.0
H2645 H 1.0047 0.57681 0.74359 0.0
C2646 C 0.75566 0.7866 0.49759 0.0
C2647 C 0.747 0.7621 0.48643 0.0
C2648 C 0.77085 0.73766 0.52148 0.0
C2649 C 0.77752 0.76214 0.53394 0.0
N2650 N 0.77318 0.80988 0.53616 0.0
N2651 N 0.74257 0.71445 0.4899 0.0
C2652 C 0.7691 0.78664 0.5226 0.0
C2653 C 0.75355 0.73765 0.499 0.0
N2654 N 0.75176 0.80977 0.48387 0.0
N2655 N 0.78171 0.71445 0.53068 0.0
H2656 H 0.7298 0.71364 0.47352 0.0
H2657 H 0.74419 0.69636 0.49989 0.0
H2658 H 0.79452 0.71367 0.54703 0.0
H2659 H 0.77998 0.69632 0.5208 0.0
H2660 H 0.7602 0.82788 0.4894 0.0
H2661 H 0.7417 0.81057 0.46571 0.0
H2662 H 0.76491 0.82802 0.53048 0.0
H2663 H 0.78321 0.81074 0.55433 0.0
C2664 C 0.48786 0.50046 0.25387 0.0
C2665 C 0.5119 0.4952 0.23988 0.0
C2666 C 0.53752 0.51818 0.27477 0.0
C2667 C 0.5133 0.52505 0.28774 0.0
N2668 N 0.46523 0.52634 0.28787 0.0
N2669 N 0.55923 0.50191 0.23472 0.0
C2670 C 0.4884 0.51719 0.27677 0.0
C2671 C 0.53665 0.50485 0.24972 0.0
N2672 N 0.4646 0.48885 0.24562 0.0
N2673 N 0.56135 0.52372 0.28681 0.0
H2674 H 0.55947 0.49176 0.21662 0.0
H2675 H 0.57731 0.51107 0.23921 0.0
H2676 H 0.56276 0.53397 0.30481 0.0
H2677 H 0.57963 0.51661 0.28 0.0
H2678 H 0.44694 0.48942 0.25651 0.0
H2679 H 0.46339 0.47675 0.22879 0.0
H2680 H 0.44652 0.5238 0.27925 0.0
H2681 H 0.46484 0.53844 0.30474 0.0
C2682 C 0.03487 0.01764 0.77509 0.0
C2683 C 1.01032 0.02779 0.78489 0.0
C2684 C 0.98603 1.00347 0.75003 0.0
C2685 C 1.01068 0.99488 0.73906 0.0
N2686 N 0.05874 0.99662 0.73864 0.0
N2687 N 0.96295 0.03398 0.77959 0.0
C2688 C 0.03518 1.00274 0.75092 0.0
C2689 C 0.986 0.02173 0.77171 0.0
N2690 N 0.05779 0.02156 0.78933 0.0
N2691 N 0.96264 0.99358 0.74009 0.0
H2692 H 0.9622 0.04743 0.79539 0.0
H2693 H 0.94505 0.03265 0.76917 0.0
H2694 H 0.96192 0.98023 0.7242 0.0
H2695 H 0.94412 0.99675 0.74889 0.0
H2696 H 0.07577 0.01212 0.78502 0.0
H2697 H 0.05846 0.03299 0.80665 0.0
H2698 H 0.07711 1.00433 0.74449 0.0
H2699 H 0.05978 0.98519 0.72133 0.0
C2700 C 0.50239 0.75676 0.78383 0.0
C2701 C 0.49145 0.7467 0.75976 0.0
C2702 C 0.5267 0.76937 0.73436 0.0
C2703 C 0.5389 0.77754 0.75852 0.0
N2704 N 0.54071 0.77591 0.80641 0.0
N2705 N 0.49537 0.73973 0.71248 0.0
C2706 C 0.52737 0.77039 0.78333 0.0
C2707 C 0.50424 0.75199 0.73511 0.0
N2708 N 0.48848 0.75402 0.80706 0.0
N2709 N 0.53612 0.7789 0.71068 0.0
H2710 H 0.47901 0.72689 0.71224 0.0
H2711 H 0.50551 0.74042 0.69442 0.0
H2712 H 0.55251 0.79163 0.70933 0.0
H2713 H 0.5264 0.77608 0.69258 0.0
H2714 H 0.49381 0.76345 0.82472 0.0
H2715 H 0.47033 0.74392 0.80826 0.0
H2716 H 0.53495 0.76862 0.82492 0.0
H2717 H 0.55881 0.78616 0.80686 0.0
C2718 C 1.0069 0.27195 0.48544 0.0
C2719 C 0.99948 0.28276 0.51048 0.0
C2720 C 0.02481 0.24764 0.53319 0.0
C2721 C 0.03 0.23534 0.50828 0.0
N2722 N 0.02293 0.23354 0.46087 0.0
N2723 N 0.99759 0.27868 0.55824 0.0
C2724 C 0.02024 0.24691 0.48441 0.0
C2725 C 1.00741 0.26998 0.53439 0.0
N2726 N 1.00196 0.28601 0.46268 0.0
N2727 N 0.03717 0.2384 0.55562 0.0
H2728 H 0.98468 0.29488 0.55992 0.0
H2729 H 1.0003 0.26848 0.57607 0.0
H2730 H 0.05022 0.22222 0.55549 0.0
H2731 H 0.03645 0.24819 0.57387 0.0
H2732 H 1.00948 0.28064 0.44413 0.0
H2733 H 0.9921 0.3043 0.46261 0.0
H2734 H 0.01362 0.23942 0.44331 0.0
H2735 H 0.03284 0.21535 0.45928 0.0
C2736 C 0.50551 0.27049 0.7916 0.0
C2737 C 0.49387 0.27949 0.76749 0.0
C2738 C 0.53082 0.25971 0.74218 0.0
C2739 C 0.54111 0.24872 0.76609 0.0
N2740 N 0.53633 0.24005 0.81301 0.0
N2741 N 0.49308 0.2798 0.71953 0.0
C2742 C 0.5279 0.25312 0.79067 0.0
C2743 C 0.50591 0.27336 0.74266 0.0
N2744 N 0.49551 0.27913 0.81539 0.0
N2745 N 0.54524 0.25777 0.71918 0.0
H2746 H 0.47509 0.29023 0.71906 0.0
H2747 H 0.49923 0.27319 0.70088 0.0
H2748 H 0.56329 0.2475 0.71795 0.0
H2749 H 0.54037 0.26793 0.70179 0.0
H2750 H 0.50474 0.27559 0.83361 0.0
H2751 H 0.47915 0.29191 0.8168 0.0
H2752 H 0.52588 0.24015 0.83091 0.0
H2753 H 0.55264 0.22713 0.81308 0.0
C2754 C 0.51923 0.27153 0.4853 0.0
C2755 C 0.52734 0.28312 0.50977 0.0
C2756 C 0.50593 0.24643 0.53408 0.0
C2757 C 0.49571 0.23628 0.50974 0.0
N2758 N 0.48856 0.24188 0.46263 0.0
N2759 N 0.52466 0.2842 0.55767 0.0
C2760 C 0.50122 0.24962 0.48545 0.0
C2761 C 0.51966 0.27128 0.53426 0.0
N2762 N 0.52943 0.28094 0.46189 0.0
N2763 N 0.50333 0.23188 0.55692 0.0
H2764 H 0.53465 0.30239 0.55864 0.0
H2765 H 0.51697 0.27806 0.5759 0.0
H2766 H 0.49342 0.21364 0.55763 0.0
H2767 H 0.5129 0.23676 0.57465 0.0
H2768 H 0.52653 0.27154 0.44365 0.0
H2769 H 0.54287 0.29677 0.46097 0.0
H2770 H 0.48955 0.25256 0.4449 0.0
H2771 H 0.47502 0.22612 0.46199 0.0
C2772 C 0.78866 0.52839 0.76591 0.0
C2773 C 0.76423 0.53936 0.77511 0.0
C2774 C 0.73942 0.50393 0.75225 0.0
C2775 C 0.76389 0.49173 0.74494 0.0
N2776 N 0.81187 0.48991 0.74806 0.0
N2777 N 0.71665 0.53536 0.78101 0.0
C2778 C 0.78857 0.50331 0.75266 0.0
C2779 C 0.73966 0.52649 0.76938 0.0
N2780 N 0.81186 0.54235 0.76912 0.0
N2781 N 0.71594 0.49438 0.74217 0.0
H2782 H 0.71604 0.55176 0.79373 0.0
H2783 H 0.69859 0.52516 0.77996 0.0
H2784 H 0.71496 0.4779 0.72957 0.0
H2785 H 0.69771 0.50408 0.74438 0.0
H2786 H 0.82983 0.53693 0.76027 0.0
H2787 H 0.81276 0.56059 0.77901 0.0
H2788 H 0.83021 0.49579 0.75583 0.0
H2789 H 0.81262 0.47167 0.73816 0.0
C2790 C 0.74537 0.99388 0.51405 0.0
C2791 C 0.73581 0.01747 0.52634 0.0
C2792 C 0.77113 0.04328 0.50453 0.0
C2793 C 0.78226 0.01937 0.49441 0.0
N2794 N 0.78253 0.97136 0.49284 0.0
N2795 N 0.74218 0.06381 0.53722 0.0
C2796 C 0.77006 0.99448 0.50003 0.0
C2797 C 0.74944 0.04197 0.52268 0.0
N2798 N 0.73047 0.97111 0.51506 0.0
N2799 N 0.78088 0.0673 0.49621 0.0
H2800 H 0.72661 0.06354 0.55099 0.0
H2801 H 0.7531 0.08144 0.53751 0.0
H2802 H 0.79658 0.06902 0.48269 0.0
H2803 H 0.77185 0.08542 0.50071 0.0
H2804 H 0.73489 0.95413 0.50401 0.0
H2805 H 0.71242 0.96984 0.52531 0.0
H2806 H 0.77616 0.95262 0.49902 0.0
H2807 H 0.80052 0.97094 0.48242 0.0
C2808 C 0.24861 1.00785 0.78573 0.0
C2809 C 0.25831 0.98379 0.77441 0.0
C2810 C 0.27113 1.00846 0.73416 0.0
C2811 C 0.25879 0.03183 0.74431 0.0
N2812 N 0.22947 0.05124 0.77716 0.0
N2813 N 0.27199 0.96031 0.73474 0.0
C2814 C 0.24557 0.03075 0.76932 0.0
C2815 C 0.26748 0.98382 0.74764 0.0
N2816 N 0.2435 1.00938 0.81238 0.0
N2817 N 0.28747 1.00984 0.71246 0.0
H2818 H 0.26845 0.94182 0.7435 0.0
H2819 H 0.27635 0.95925 0.71449 0.0
H2820 H 0.29187 0.02762 0.70272 0.0
H2821 H 0.29891 0.99378 0.70593 0.0
H2822 H 0.23892 0.02722 0.82195 0.0
H2823 H 0.24657 0.99353 0.8254 0.0
H2824 H 0.2175 0.05033 0.79409 0.0
H2825 H 0.22583 0.06788 0.76528 0.0
C2826 C 0.27808 0.53623 0.51934 0.0
C2827 C 0.28876 0.51146 0.52781 0.0
C2828 C 0.2531 0.48778 0.50405 0.0
C2829 C 0.24123 0.51255 0.49737 0.0
N2830 N 0.24015 0.56034 0.5013 0.0
N2831 N 0.2847 0.46381 0.53172 0.0
C2832 C 0.25312 0.53681 0.50572 0.0
C2833 C 0.27577 0.48725 0.52111 0.0
N2834 N 0.29219 0.55912 0.52367 0.0
N2835 N 0.24306 0.46477 0.49347 0.0
H2836 H 0.30136 0.46261 0.5441 0.0
H2837 H 0.27444 0.44587 0.53006 0.0
H2838 H 0.22635 0.46434 0.4811 0.0
H2839 H 0.25246 0.44637 0.49513 0.0
H2840 H 0.28707 0.57744 0.51544 0.0
H2841 H 0.31025 0.55951 0.534 0.0
H2842 H 0.24615 0.57842 0.50947 0.0
H2843 H 0.22216 0.56157 0.49091 0.0
C2844 C 0.75532 0.24156 0.02296 0.0
C2845 C 0.74635 0.26573 0.03464 0.0
C2846 C 0.77094 0.29107 1.00066 0.0
C2847 C 0.77804 0.26697 0.98767 0.0
N2848 N 0.77336 0.21936 0.98397 0.0
N2849 N 0.74137 0.31336 0.03172 0.0
C2850 C 0.76922 0.24221 0.99814 0.0
C2851 C 0.75295 0.29046 0.02261 0.0
N2852 N 0.75139 0.21803 0.03602 0.0
N2853 N 0.78214 0.31454 0.9926 0.0
H2854 H 0.7279 0.31367 0.04754 0.0
H2855 H 0.74313 0.33162 0.02208 0.0
H2856 H 0.79564 0.31579 0.97686 0.0
H2857 H 0.78003 0.33234 1.00302 0.0
H2858 H 0.76006 0.20013 0.03014 0.0
H2859 H 0.7411 0.21671 0.05401 0.0
H2860 H 0.76488 0.20112 0.989 0.0
H2861 H 0.78355 0.219 0.96588 0.0
C2862 C 0.48961 0.99464 0.26853 0.0
C2863 C 0.51247 0.99435 0.28524 0.0
C2864 C 0.53478 0.02604 0.25542 0.0
C2865 C 0.51293 0.0245 0.2375 0.0
N2866 N 0.4716 1.00351 0.22461 0.0
N2867 N 0.55886 1.00536 0.29175 0.0
C2868 C 0.49088 1.00772 0.24338 0.0
C2869 C 0.53567 1.00878 0.27783 0.0
N2870 N 0.46638 0.98323 0.27706 0.0
N2871 N 0.55428 0.04468 0.25156 0.0
H2872 H 0.56044 0.99254 0.308 0.0
H2873 H 0.57711 0.01318 0.28566 0.0
H2874 H 0.55414 0.05801 0.23565 0.0
H2875 H 0.5692 0.04864 0.26545 0.0
H2876 H 0.44826 0.98538 0.26713 0.0
H2877 H 0.46468 0.97339 0.29525 0.0
H2878 H 0.45661 0.9893 0.22662 0.0
H2879 H 0.47187 0.01259 0.20595 0.0
C2880 C 0.15809 0.4379 0.14539 0.0
C2881 C 0.14703 0.46262 0.15368 0.0
C2882 C 0.12508 0.4403 0.19133 0.0
C2883 C 0.13721 0.41607 0.18369 0.0
N2884 N 0.16912 0.39232 0.15723 0.0
N2885 N 0.12212 0.4882 0.18598 0.0
C2886 C 0.15485 0.41505 0.16177 0.0
C2887 C 0.13133 0.46411 0.17724 0.0
N2888 N 0.17126 0.43609 0.12166 0.0
N2889 N 0.10667 0.44014 0.21137 0.0
H2890 H 0.12448 0.50582 0.17531 0.0
H2891 H 0.11333 0.49111 0.2045 0.0
H2892 H 0.10195 0.42294 0.22202 0.0
H2893 H 0.09479 0.45638 0.21635 0.0
H2894 H 0.17701 0.41811 0.11311 0.0
H2895 H 0.17492 0.45244 0.10951 0.0
H2896 H 0.18444 0.39094 0.14332 0.0
H2897 H 0.16721 0.3754 0.16911 0.0
C2898 C 0.69978 0.65452 0.11819 0.0
C2899 C 0.70375 0.62899 0.13035 0.0
C2900 C 0.66576 0.6114 0.10478 0.0
C2901 C 0.66252 0.63647 0.09237 0.0
N2902 N 0.68064 0.67907 0.0812 0.0
N2903 N 0.69545 0.58168 0.12857 0.0
C2904 C 0.68105 0.65703 0.09709 0.0
C2905 C 0.68825 0.60696 0.12153 0.0
N2906 N 0.71209 0.6769 0.12767 0.0
N2907 N 0.64677 0.59221 0.1015 0.0
H2908 H 0.71252 0.5776 0.13973 0.0
H2909 H 0.68627 0.56474 0.12089 0.0
H2910 H 0.63014 0.59483 0.08932 0.0
H2911 H 0.64646 0.57458 0.1124 0.0
H2912 H 0.7069 0.69602 0.12153 0.0
H2913 H 0.72568 0.67736 0.14321 0.0
H2914 H 0.69543 0.69364 0.08161 0.0
H2915 H 0.66696 0.68128 0.06569 0.0
C2916 C 0.89994 0.08209 0.19406 0.0
C2917 C 0.88937 0.10675 0.1855 0.0
C2918 C 0.86644 0.08439 0.14847 0.0
C2919 C 0.8787 0.05993 0.15581 0.0
N2920 N 0.90993 0.03604 0.18359 0.0
N2921 N 0.86421 0.13247 0.15411 0.0
C2922 C 0.896 0.05885 0.17827 0.0
C2923 C 0.87303 0.10817 0.16256 0.0
N2924 N 0.91386 0.08105 0.21738 0.0
N2925 N 0.84785 0.0847 0.12859 0.0
H2926 H 0.8678 0.14996 0.16472 0.0
H2927 H 0.85466 0.13568 0.13601 0.0
H2928 H 0.84257 0.06775 0.11793 0.0
H2929 H 0.83615 0.10115 0.12388 0.0
H2930 H 0.91943 0.06341 0.22672 0.0
H2931 H 0.91842 0.09806 0.22835 0.0
H2932 H 0.92504 0.03478 0.19774 0.0
H2933 H 0.90791 0.01865 0.17251 0.0
C2934 C 0.34346 0.85855 0.09746 0.0
C2935 C 0.35864 0.88066 0.08867 0.0
C2936 C 0.32622 0.91121 0.10921 0.0
C2937 C 0.31082 0.88906 0.11756 0.0
N2938 N 0.30164 0.84199 0.11541 0.0
N2939 N 0.36187 0.9281 0.08149 0.0
C2940 C 0.3186 0.86278 0.11053 0.0
C2941 C 0.34916 0.90702 0.09301 0.0
N2942 N 0.35297 0.83342 0.09317 0.0
N2943 N 0.3197 0.93618 0.11788 0.0
H2944 H 0.37911 0.92625 0.07021 0.0
H2945 H 0.35418 0.94735 0.08125 0.0
H2946 H 0.30283 0.94017 0.1293 0.0
H2947 H 0.33198 0.95272 0.11549 0.0
H2948 H 0.34492 0.81643 0.10186 0.0
H2949 H 0.36982 0.82964 0.08159 0.0
H2950 H 0.30479 0.8227 0.10858 0.0
H2951 H 0.28309 0.84438 0.12452 0.0
C2952 C 0.16017 0.60546 0.36061 0.0
C2953 C 0.14106 0.60548 0.3399 0.0
C2954 C 0.13282 0.55782 0.34693 0.0
C2955 C 0.15003 0.55841 0.36942 0.0
N2956 N 0.17946 0.58267 0.39865 0.0
N2957 N 0.10754 0.58309 0.31427 0.0
C2958 C 0.16362 0.58222 0.3765 0.0
C2959 C 0.12711 0.58194 0.33315 0.0
N2960 N 0.17518 0.62775 0.36474 0.0
N2961 N 0.12175 0.53426 0.33888 0.0
H2962 H 0.10321 0.60046 0.30381 0.0
H2963 H 0.09443 0.56757 0.31014 0.0
H2964 H 0.12421 0.51645 0.3492 0.0
H2965 H 0.11147 0.53187 0.32106 0.0
H2966 H 0.19128 0.62874 0.37778 0.0
H2967 H 0.17257 0.64496 0.3535 0.0
H2968 H 0.1875 0.59995 0.40676 0.0
H2969 H 0.18367 0.56571 0.40982 0.0
C2970 C 0.84251 0.60914 0.89457 0.0
C2971 C 0.8241 0.63028 0.89033 0.0
C2972 C 0.84275 0.65334 0.92936 0.0
C2973 C 0.86397 0.63491 0.93004 0.0
N2974 N 0.88506 0.59545 0.91323 0.0
N2975 N 0.80766 0.67389 0.90376 0.0
C2976 C 0.86396 0.61263 0.91284 0.0
C2977 C 0.82405 0.65255 0.90806 0.0
N2978 N 0.83903 0.58547 0.88162 0.0
N2979 N 0.84061 0.67167 0.94932 0.0
H2980 H 0.79311 0.67474 0.88909 0.0
H2981 H 0.80964 0.6919 0.91382 0.0
H2982 H 0.8543 0.67263 0.96494 0.0
H2983 H 0.8241 0.684 0.95182 0.0
H2984 H 0.8504 0.56857 0.88552 0.0
H2985 H 0.82287 0.58191 0.86901 0.0
H2986 H 0.88792 0.58055 0.89911 0.0
H2987 H 0.90061 0.59721 0.92688 0.0
C2988 C 0.85635 0.93895 0.37505 0.0
C2989 C 0.87792 0.95133 0.38859 0.0
C2990 C 0.90938 0.92553 0.36147 0.0
C2991 C 0.88798 0.91041 0.35113 0.0
N2992 N 0.84109 0.89975 0.35148 0.0
N2993 N 0.92536 0.9521 0.39817 0.0
C2994 C 0.86138 0.91639 0.35868 0.0
C2995 C 0.90462 0.94369 0.3826 0.0
N2996 N 0.83115 0.9491 0.3773 0.0
N2997 N 0.93428 0.92254 0.35091 0.0
H2998 H 0.92293 0.96395 0.415 0.0
H2999 H 0.94475 0.9449 0.3961 0.0
H3000 H 0.93814 0.90956 0.33515 0.0
H3001 H 0.9503 0.93481 0.35589 0.0
H3002 H 0.81513 0.94232 0.36596 0.0
H3003 H 0.82686 0.9661 0.38843 0.0
H3004 H 0.82172 0.90161 0.35879 0.0
H3005 H 0.84408 0.88261 0.34021 0.0
C3006 C 0.16868 0.89777 0.91477 0.0
C3007 C 0.16185 0.87555 0.93062 0.0
C3008 C 0.20183 0.85242 0.91499 0.0
C3009 C 0.21081 0.87621 0.90235 0.0
N3010 N 0.20427 0.92327 0.89455 0.0
N3011 N 0.17345 0.83303 0.94895 0.0
C3012 C 0.19464 0.89944 0.90344 0.0
C3013 C 0.17904 0.85333 0.9318 0.0
N3014 N 0.14988 0.91666 0.90954 0.0
N3015 N 0.21369 0.82854 0.90945 0.0
H3016 H 0.15657 0.83308 0.96112 0.0
H3017 H 0.18665 0.81744 0.95267 0.0
H3018 H 0.22875 0.82631 0.89534 0.0
H3019 H 0.20635 0.81042 0.91638 0.0
H3020 H 0.1529 0.93227 0.89622 0.0
H3021 H 0.13029 0.91478 0.91624 0.0
H3022 H 0.19405 0.94116 0.89708 0.0
H3023 H 0.22357 0.92564 0.88718 0.0
C3024 C 0.17297 0.16301 0.41403 0.0
C3025 C 0.18504 0.13808 0.4087 0.0
C3026 C 0.16059 0.11816 0.44609 0.0
C3027 C 0.14472 0.14168 0.44792 0.0
N3028 N 0.13697 0.18735 0.43532 0.0
N3029 N 0.19297 0.09264 0.42055 0.0
C3030 C 0.15146 0.16445 0.43252 0.0
C3031 C 0.17987 0.11601 0.42537 0.0
N3032 N 0.18238 0.1853 0.40172 0.0
N3033 N 0.15724 0.09781 0.46385 0.0
H3034 H 0.20869 0.09133 0.40698 0.0
H3035 H 0.18791 0.07448 0.42912 0.0
H3036 H 0.14294 0.09772 0.47879 0.0
H3037 H 0.17001 0.08154 0.46521 0.0
H3038 H 0.176 0.20452 0.40608 0.0
H3039 H 0.19862 0.1849 0.38887 0.0
H3040 H 0.13827 0.20346 0.42238 0.0
H3041 H 0.12279 0.18996 0.45027 0.0
C3042 C 0.40886 0.62684 0.83608 0.0
C3043 C 0.39785 0.61965 0.81106 0.0
C3044 C 0.37713 0.5801 0.83118 0.0
C3045 C 0.38637 0.58841 0.85644 0.0
N3046 N 0.41008 0.6195 0.88394 0.0
N3047 N 0.36943 0.59103 0.78482 0.0
C3048 C 0.40204 0.61175 0.85915 0.0
C3049 C 0.38167 0.59651 0.80854 0.0
N3050 N 0.42649 0.64757 0.83754 0.0
N3051 N 0.36392 0.55643 0.82902 0.0
H3052 H 0.37221 0.60243 0.76776 0.0
H3053 H 0.3551 0.57626 0.78229 0.0
H3054 H 0.35882 0.54499 0.84553 0.0
H3055 H 0.35935 0.54732 0.81099 0.0
H3056 H 0.4372 0.65257 0.85455 0.0
H3057 H 0.4319 0.65891 0.82103 0.0
H3058 H 0.41917 0.63764 0.88809 0.0
H3059 H 0.40658 0.60804 0.90088 0.0
C3060 C 0.85001 0.39221 0.46442 0.0
C3061 C 0.87421 0.37755 0.46219 0.0
C3062 C 0.8677 0.37415 0.41384 0.0
C3063 C 0.84299 0.38767 0.4163 0.0
N3064 N 0.80885 0.40687 0.44368 0.0
N3065 N 0.90399 0.35072 0.43578 0.0
C3066 C 0.83357 0.39567 0.4416 0.0
C3067 C 0.88251 0.36746 0.43713 0.0
N3068 N 0.84352 0.40423 0.48797 0.0
N3069 N 0.87717 0.36823 0.38908 0.0
H3070 H 0.91499 0.34515 0.45248 0.0
H3071 H 0.90964 0.34061 0.41861 0.0
H3072 H 0.86631 0.37223 0.37186 0.0
H3073 H 0.89627 0.36098 0.38541 0.0
H3074 H 0.82786 0.41766 0.49015 0.0
H3075 H 0.85503 0.40254 0.50513 0.0
H3076 H 0.7991 0.41011 0.46167 0.0
H3077 H 0.79733 0.41144 0.4271 0.0
C3078 C 0.65528 0.92748 0.83998 0.0
C3079 C 0.63598 0.92903 0.86026 0.0
C3080 C 0.60751 0.89777 0.8359 0.0
C3081 C 0.62898 0.89216 0.81828 0.0
N3082 N 0.6747 0.90194 0.8044 0.0
N3083 N 0.59378 0.91586 0.87854 0.0
C3084 C 0.6531 0.90743 0.82011 0.0
C3085 C 0.61194 0.91444 0.85836 0.0
N3086 N 0.67576 0.94542 0.83984 0.0
N3087 N 0.58271 0.88775 0.83068 0.0
H3088 H 0.59622 0.92861 0.89471 0.0
H3089 H 0.57725 0.90339 0.88002 0.0
H3090 H 0.57856 0.87651 0.8137 0.0
H3091 H 0.56575 0.89287 0.8415 0.0
H3092 H 0.68902 0.94758 0.82403 0.0
H3093 H 0.67786 0.95997 0.85453 0.0
H3094 H 0.69361 0.90977 0.80793 0.0
H3095 H 0.67489 0.88844 0.78881 0.0
C3096 C 0.18072 0.90112 0.08802 0.0
C3097 C 0.18128 0.88279 0.10926 0.0
C3098 C 0.14596 0.85689 0.08766 0.0
C3099 C 0.14158 0.87809 0.06942 0.0
N3100 N 0.15511 0.92173 0.05306 0.0
N3101 N 0.16433 0.84332 0.13022 0.0
C3102 C 0.15936 0.90037 0.06938 0.0
C3103 C 0.16412 0.86046 0.10916 0.0
N3104 N 0.20085 0.9193 0.0858 0.0
N3105 N 0.13324 0.83312 0.08399 0.0
H3106 H 0.17784 0.84513 0.14586 0.0
H3107 H 0.15015 0.82842 0.13294 0.0
H3108 H 0.12078 0.8295 0.06775 0.0
H3109 H 0.13726 0.8162 0.09528 0.0
H3110 H 0.2034 0.93156 0.06929 0.0
H3111 H 0.21659 0.92014 0.09938 0.0
H3112 H 0.1652 0.93973 0.05516 0.0
H3113 H 0.14052 0.92263 0.03846 0.0
C3114 C 0.14461 0.57947 0.19642 0.0
C3115 C 0.13775 0.58947 0.17103 0.0
C3116 C 0.11718 0.62871 0.19168 0.0
C3117 C 0.12651 0.62006 0.21691 0.0
N3118 N 0.15175 0.58855 0.24319 0.0
N3119 N 0.11963 0.62416 0.14363 0.0
C3120 C 0.14065 0.5956 0.21934 0.0
C3121 C 0.12456 0.61427 0.16844 0.0
N3122 N 0.15516 0.5545 0.19846 0.0
N3123 N 0.10053 0.65021 0.1901 0.0
H3124 H 0.12423 0.61361 0.12639 0.0
H3125 H 0.11269 0.64336 0.14004 0.0
H3126 H 0.09432 0.66086 0.2068 0.0
H3127 H 0.09099 0.65614 0.17269 0.0
H3128 H 0.15761 0.54448 0.21642 0.0
H3129 H 0.1599 0.54305 0.18186 0.0
H3130 H 0.16488 0.57267 0.24554 0.0
H3131 H 0.14953 0.59967 0.26051 0.0
C3132 C 0.84815 0.62843 0.05988 0.0
C3133 C 0.87048 0.64593 0.05965 0.0
C3134 C 0.86145 0.65818 0.10611 0.0
C3135 C 0.84087 0.63893 0.10702 0.0
N3136 N 0.81549 0.60422 0.08632 0.0
N3137 N 0.89969 0.67635 0.08274 0.0
C3138 C 0.83428 0.62381 0.08421 0.0
C3139 C 0.87749 0.66053 0.08285 0.0
N3140 N 0.84033 0.61612 0.03689 0.0
N3141 N 0.86502 0.67469 0.12741 0.0
H3142 H 0.91104 0.67977 0.06572 0.0
H3143 H 0.90775 0.68502 0.09974 0.0
H3144 H 0.85334 0.67334 0.14451 0.0
H3145 H 0.87789 0.69094 0.12747 0.0
H3146 H 0.82266 0.60542 0.03497 0.0
H3147 H 0.85076 0.61781 0.01903 0.0
H3148 H 0.81145 0.59038 0.07146 0.0
H3149 H 0.80493 0.60074 0.10387 0.0
C3150 C 0.91615 0.9169 0.16917 0.0
C3151 C 0.89199 0.93142 0.16766 0.0
C3152 C 0.87472 0.90797 0.20662 0.0
C3153 C 0.89908 0.89311 0.20837 0.0
N3154 N 0.94567 0.89024 0.19654 0.0
N3155 N 0.85274 0.94745 0.18945 0.0
C3156 C 0.92068 0.89977 0.19126 0.0
C3157 C 0.87286 0.92916 0.18804 0.0
N3158 N 0.93423 0.91861 0.14897 0.0
N3159 N 0.85253 0.90097 0.22085 0.0
H3160 H 0.85116 0.96317 0.17597 0.0
H3161 H 0.83958 0.9487 0.20545 0.0
H3162 H 0.85156 0.88556 0.23452 0.0
H3163 H 0.83378 0.90919 0.21731 0.0
H3164 H 0.95076 0.90613 0.14733 0.0
H3165 H 0.93175 0.93148 0.13295 0.0
H3166 H 0.96259 0.89618 0.18608 0.0
H3167 H 0.9499 0.87868 0.21327 0.0
C3168 C 0.46924 0.17816 0.14333 0.0
C3169 C 0.46557 0.15053 0.14869 0.0
C3170 C 0.41692 0.15704 0.14671 0.0
C3171 C 0.42073 0.18352 0.13809 0.0
N3172 N 0.45026 0.21865 0.12482 0.0
N3173 N 0.43523 0.11298 0.15182 0.0
C3174 C 0.44684 0.19404 0.13579 0.0
C3175 C 0.43922 0.13977 0.14937 0.0
N3176 N 0.49413 0.18921 0.1448 0.0
N3177 N 0.39181 0.1486 0.15301 0.0
H3178 H 0.45048 0.09933 0.15468 0.0
H3179 H 0.41676 0.10393 0.14889 0.0
H3180 H 0.37518 0.16091 0.1513 0.0
H3181 H 0.38782 0.13052 0.16233 0.0
H3182 H 0.49754 0.20964 0.1442 0.0
H3183 H 0.51138 0.17822 0.14837 0.0
H3184 H 0.46877 0.22658 0.1198 0.0
H3185 H 0.43426 0.23033 0.11862 0.0
C3186 C 0.43404 0.84606 0.40474 0.0
C3187 C 0.41569 0.84135 0.38404 0.0
C3188 C 0.44068 0.87181 0.3553 0.0
C3189 C 0.45571 0.88069 0.37763 0.0
N3190 N 0.46427 0.87696 0.42539 0.0
N3191 N 0.39999 0.85074 0.33985 0.0
C3192 C 0.45218 0.86773 0.40279 0.0
C3193 C 0.41873 0.85426 0.35923 0.0
N3194 N 0.43389 0.82971 0.42643 0.0
N3195 N 0.44781 0.87963 0.33026 0.0
H3196 H 0.38383 0.83787 0.34206 0.0
H3197 H 0.39943 0.86197 0.32243 0.0
H3198 H 0.46454 0.89144 0.32657 0.0
H3199 H 0.43899 0.87204 0.31309 0.0
H3200 H 0.44857 0.83015 0.44111 0.0
H3201 H 0.42057 0.81383 0.42821 0.0
H3202 H 0.45929 0.87021 0.44434 0.0
H3203 H 0.47753 0.89278 0.42621 0.0
C3204 C 0.12188 0.33095 0.91413 0.0
C3205 C 0.13101 0.31685 0.89138 0.0
C3206 C 0.09966 0.34195 0.86337 0.0
C3207 C 0.09199 0.35717 0.88575 0.0
N3208 N 0.0879 0.35951 0.93329 0.0
N3209 N 0.12224 0.30311 0.84591 0.0
C3210 C 0.10053 0.34949 0.91147 0.0
C3211 C 0.11772 0.32029 0.86652 0.0
N3212 N 0.13393 0.32697 0.93819 0.0
N3213 N 0.09023 0.34905 0.83888 0.0
H3214 H 0.1352 0.28701 0.84697 0.0
H3215 H 0.11126 0.30326 0.82834 0.0
H3216 H 0.07551 0.36357 0.83649 0.0
H3217 H 0.09761 0.34147 0.82107 0.0
H3218 H 0.13063 0.33903 0.95472 0.0
H3219 H 0.14819 0.31218 0.94134 0.0
H3220 H 0.09162 0.35308 0.95262 0.0
H3221 H 0.07157 0.3722 0.93182 0.0
C3222 C 0.61032 0.66535 0.36192 0.0
C3223 C 0.61258 0.67869 0.3866 0.0
C3224 C 0.57542 0.65276 0.4046 0.0
C3225 C 0.57284 0.63922 0.37961 0.0
N3226 N 0.58254 0.63889 0.33259 0.0
N3227 N 0.59328 0.69098 0.4283 0.0
C3228 C 0.58868 0.6475 0.35765 0.0
C3229 C 0.59366 0.67432 0.40683 0.0
N3230 N 0.62948 0.66894 0.34296 0.0
N3231 N 0.5622 0.64422 0.42682 0.0
H3232 H 0.60672 0.70674 0.43033 0.0
H3233 H 0.57817 0.6909 0.44253 0.0
H3234 H 0.54848 0.62878 0.4273 0.0
H3235 H 0.56647 0.65124 0.44585 0.0
H3236 H 0.63075 0.65746 0.32574 0.0
H3237 H 0.6452 0.6823 0.34534 0.0
H3238 H 0.59192 0.64602 0.31553 0.0
H3239 H 0.56609 0.62679 0.32861 0.0
C3240 C 0.40853 0.69551 0.36914 0.0
C3241 C 0.39478 0.69916 0.39387 0.0
C3242 C 0.4187 0.66072 0.41251 0.0
C3243 C 0.43228 0.6574 0.38809 0.0
N3244 N 0.44607 0.67523 0.3462 0.0
N3245 N 0.39334 0.69028 0.44103 0.0
C3246 C 0.42913 0.67612 0.36747 0.0
C3247 C 0.40196 0.6833 0.41619 0.0
N3248 N 0.40101 0.70893 0.34667 0.0
N3249 N 0.42096 0.6417 0.43177 0.0
H3250 H 0.38207 0.70739 0.44457 0.0
H3251 H 0.39975 0.68084 0.45833 0.0
H3252 H 0.43336 0.62517 0.42973 0.0
H3253 H 0.4092 0.64137 0.44885 0.0
H3254 H 0.408 0.70405 0.32778 0.0
H3255 H 0.38645 0.72357 0.34591 0.0
H3256 H 0.44693 0.69002 0.3317 0.0
H3257 H 0.46112 0.66096 0.34456 0.0
C3258 C 0.10057 0.85237 0.61522 0.0
C3259 C 0.11714 0.84361 0.63625 0.0
C3260 C 0.08988 0.86959 0.66744 0.0
C3261 C 0.07682 0.88226 0.64574 0.0
N3262 N 0.07464 0.88885 0.5979 0.0
N3263 N 0.12991 0.84715 0.68241 0.0
C3264 C 0.08322 0.87435 0.61927 0.0
C3265 C 0.11233 0.85291 0.66248 0.0
N3266 N 0.1014 0.83953 0.59131 0.0
N3267 N 0.08051 0.87295 0.69273 0.0
H3268 H 0.14701 0.83578 0.67947 0.0
H3269 H 0.12879 0.85577 0.70123 0.0
H3270 H 0.06339 0.88399 0.69698 0.0
H3271 H 0.08791 0.86237 0.70896 0.0
H3272 H 0.0881 0.8436 0.57589 0.0
H3273 H 0.11338 0.82282 0.58812 0.0
H3274 H 0.08101 0.88505 0.57853 0.0
H3275 H 0.06388 0.90649 0.59953 0.0
C3276 C 0.07968 0.69751 0.63551 0.0
C3277 C 0.08983 0.67138 0.63284 0.0
C3278 C 0.13212 0.68952 0.61629 0.0
C3279 C 0.12338 0.71563 0.62288 0.0
N3280 N 0.08976 0.74396 0.6428 0.0
N3281 N 0.12636 0.64201 0.62321 0.0
C3282 C 0.09729 0.71957 0.63335 0.0
C3283 C 0.11622 0.66722 0.62374 0.0
N3284 N 0.05301 0.70119 0.63968 0.0
N3285 N 0.15515 0.6861 0.60215 0.0
H3286 H 0.11513 0.62543 0.62872 0.0
H3287 H 0.14634 0.6378 0.61939 0.0
H3288 H 0.16676 0.70203 0.59561 0.0
H3289 H 0.16133 0.66776 0.59471 0.0
H3290 H 0.04387 0.71981 0.63918 0.0
H3291 H 0.03961 0.68534 0.64092 0.0
H3292 H 0.07209 0.74712 0.65326 0.0
H3293 H 0.10213 0.7606 0.64255 0.0
C3294 C 0.91182 0.82046 0.64778 0.0
C3295 C 0.89451 0.82088 0.6251 0.0
C3296 C 0.91765 0.86076 0.60861 0.0
C3297 C 0.93455 0.8603 0.63112 0.0
N3298 N 0.95284 0.83663 0.66809 0.0
N3299 N 0.8873 0.83618 0.58019 0.0
C3300 C 0.93338 0.8389 0.64921 0.0
C3301 C 0.89951 0.83938 0.60428 0.0
N3302 N 0.90681 0.8041 0.66894 0.0
N3303 N 0.91806 0.88231 0.5921 0.0
H3304 H 0.87485 0.82005 0.57605 0.0
H3305 H 0.89178 0.84774 0.56359 0.0
H3306 H 0.93119 0.89818 0.59489 0.0
H3307 H 0.90424 0.88529 0.5769 0.0
H3308 H 0.91661 0.8058 0.68712 0.0
H3309 H 0.89176 0.78994 0.66954 0.0
H3310 H 0.95499 0.82004 0.68032 0.0
H3311 H 0.9684 0.85035 0.66966 0.0
C3312 C 0.65413 0.94078 0.64153 0.0
C3313 C 0.64494 0.9654 0.65209 0.0
C3314 C 0.62502 0.94166 0.69001 0.0
C3315 C 0.63568 0.91748 0.68024 0.0
N3316 N 0.66476 0.89445 0.65009 0.0
N3317 N 0.62397 0.98991 0.6878 0.0
C3318 C 0.65145 0.91718 0.6569 0.0
C3319 C 0.63126 0.96604 0.6769 0.0
N3320 N 0.6651 0.93979 0.61666 0.0
N3321 N 0.6079 0.941 0.71115 0.0
H3322 H 0.6265 1.00807 0.67811 0.0
H3323 H 0.61679 0.99196 0.70712 0.0
H3324 H 0.6029 0.92336 0.72089 0.0
H3325 H 0.59709 0.95739 0.71779 0.0
H3326 H 0.66913 0.92208 0.60667 0.0
H3327 H 0.66853 0.95662 0.60511 0.0
H3328 H 0.67889 0.89349 0.63494 0.0
H3329 H 0.66348 0.87705 0.66129 0.0
C3330 C 0.20025 0.15086 0.61512 0.0
C3331 C 0.20015 0.12735 0.63119 0.0
C3332 C 0.16049 0.11127 0.60741 0.0
C3333 C 0.16067 0.13461 0.59173 0.0
N3334 N 0.18368 0.17293 0.57537 0.0
N3335 N 0.18522 0.08205 0.63681 0.0
C3336 C 0.18166 0.15312 0.59386 0.0
C3337 C 0.18179 0.10655 0.62549 0.0
N3338 N 0.21661 0.17186 0.62097 0.0
N3339 N 0.1394 0.09415 0.60569 0.0
H3340 H 0.20131 0.07762 0.64922 0.0
H3341 H 0.17387 0.06545 0.63172 0.0
H3342 H 0.12385 0.09688 0.59217 0.0
H3343 H 0.13645 0.07832 0.61873 0.0
H3344 H 0.21462 0.19054 0.61223 0.0
H3345 H 0.23116 0.17171 0.63564 0.0
H3346 H 0.20011 0.18553 0.57383 0.0
H3347 H 0.16992 0.17509 0.55992 0.0
C3348 C 0.39732 0.57833 0.69619 0.0
C3349 C 0.38858 0.60327 0.68638 0.0
C3350 C 0.36852 0.58109 0.6476 0.0
C3351 C 0.37946 0.55646 0.65619 0.0
N3352 N 0.40718 0.532 0.68697 0.0
N3353 N 0.36785 0.62928 0.65213 0.0
C3354 C 0.39438 0.55509 0.68022 0.0
C3355 C 0.37465 0.60485 0.6619 0.0
N3356 N 0.40864 0.57701 0.72083 0.0
N3357 N 0.35163 0.58159 0.62625 0.0
H3358 H 0.37139 0.64679 0.66267 0.0
H3359 H 0.36027 0.63242 0.63311 0.0
H3360 H 0.34657 0.56455 0.61553 0.0
H3361 H 0.34093 0.59834 0.62038 0.0
H3362 H 0.41254 0.55926 0.73079 0.0
H3363 H 0.41252 0.59392 0.73211 0.0
H3364 H 0.42082 0.5305 0.70252 0.0
H3365 H 0.40589 0.51459 0.67578 0.0
C3366 C 0.85984 0.40746 0.60899 0.0
C3367 C 0.85862 0.3892 0.5876 0.0
C3368 C 0.81068 0.38273 0.59525 0.0
C3369 C 0.81237 0.39906 0.61834 0.0
N3370 N 0.83827 0.42678 0.64779 0.0
N3371 N 0.8343 0.35792 0.56101 0.0
C3372 C 0.8369 0.41145 0.62535 0.0
C3373 C 0.83433 0.37662 0.58075 0.0
N3374 N 0.88298 0.42119 0.61325 0.0
N3375 N 0.78651 0.37292 0.58724 0.0
H3376 H 0.85127 0.3535 0.54985 0.0
H3377 H 0.81818 0.34562 0.55668 0.0
H3378 H 0.76896 0.37551 0.59801 0.0
H3379 H 0.78336 0.36353 0.56906 0.0
H3380 H 0.88498 0.43662 0.62691 0.0
H3381 H 0.9 0.41823 0.60166 0.0
H3382 H 0.85598 0.43403 0.6558 0.0
H3383 H 0.82156 0.4315 0.65922 0.0
C3384 C 0.62415 0.07392 0.86616 0.0
C3385 C 0.64782 0.07049 0.88162 0.0
C3386 C 0.66996 0.10558 0.85543 0.0
C3387 C 0.64521 0.11161 0.84318 0.0
N3388 N 0.60194 0.09696 0.82967 0.0
N3389 N 0.6941 0.08087 0.88938 0.0
C3390 C 0.62328 0.09425 0.84639 0.0
C3391 C 0.67108 0.08552 0.87551 0.0
N3392 N 0.60195 0.05898 0.87138 0.0
N3393 N 0.69246 0.11839 0.84715 0.0
H3394 H 0.69629 0.06481 0.90234 0.0
H3395 H 0.71085 0.09306 0.8887 0.0
H3396 H 0.69236 0.13174 0.83139 0.0
H3397 H 0.71162 0.1141 0.85383 0.0
H3398 H 0.58309 0.06312 0.8638 0.0
H3399 H 0.60184 0.0426 0.88398 0.0
H3400 H 0.58597 0.08377 0.82877 0.0
H3401 H 0.60142 0.11139 0.81473 0.0
C3402 C 0.35085 0.1094 0.4196 0.0
C3403 C 0.35349 0.13365 0.43378 0.0
C3404 C 0.31165 0.14991 0.41443 0.0
C3405 C 0.30847 0.12534 0.4006 0.0
N3406 N 0.32291 0.08012 0.39303 0.0
N3407 N 0.33398 0.17407 0.4499 0.0
C3408 C 0.32731 0.10448 0.40433 0.0
C3409 C 0.33309 0.15301 0.43271 0.0
N3410 N 0.37151 0.09169 0.41969 0.0
N3411 N 0.29454 0.17056 0.40973 0.0
H3412 H 0.34933 0.1765 0.46371 0.0
H3413 H 0.31844 0.18762 0.45227 0.0
H3414 H 0.27782 0.16897 0.39758 0.0
H3415 H 0.29781 0.18986 0.41654 0.0
H3416 H 0.37251 0.07501 0.40746 0.0
H3417 H 0.38867 0.09465 0.43099 0.0
H3418 H 0.33429 0.06332 0.39725 0.0
H3419 H 0.30673 0.07611 0.38064 0.0
C3420 C 0.39689 0.43862 0.83106 0.0
C3421 C 0.38648 0.41409 0.8402 0.0
C3422 C 0.36827 0.43615 0.87986 0.0
C3423 C 0.37777 0.46104 0.87026 0.0
N3424 N 0.39827 0.48673 0.83511 0.0
N3425 N 0.35811 0.38991 0.87011 0.0
C3426 C 0.39099 0.46253 0.84522 0.0
C3427 C 0.37095 0.41302 0.86371 0.0
N3428 N 0.4137 0.43871 0.80966 0.0
N3429 N 0.35704 0.43447 0.90458 0.0
H3430 H 0.35978 0.37268 0.85868 0.0
H3431 H 0.34406 0.38834 0.88528 0.0
H3432 H 0.35327 0.451 0.91648 0.0
H3433 H 0.35286 0.41653 0.91405 0.0
H3434 H 0.42449 0.4553 0.80352 0.0
H3435 H 0.41839 0.42148 0.79907 0.0
H3436 H 0.40501 0.48947 0.81572 0.0
H3437 H 0.39618 0.50453 0.84554 0.0
C3438 C 0.69622 0.38074 0.44417 0.0
C3439 C 0.67058 0.38805 0.43484 0.0
C3440 C 0.69089 0.40847 0.39521 0.0
C3441 C 0.7163 0.39895 0.40333 0.0
N3442 N 0.7429 0.37307 0.43394 0.0
N3443 N 0.64275 0.40653 0.40065 0.0
C3444 C 0.71898 0.38456 0.42757 0.0
C3445 C 0.66774 0.40133 0.41011 0.0
N3446 N 0.69869 0.3698 0.46888 0.0
N3447 N 0.68903 0.42506 0.37374 0.0
H3448 H 0.62561 0.40215 0.41149 0.0
H3449 H 0.63888 0.41348 0.38153 0.0
H3450 H 0.70558 0.43089 0.36261 0.0
H3451 H 0.67158 0.43484 0.36822 0.0
H3452 H 0.71687 0.36694 0.47847 0.0
H3453 H 0.68222 0.36509 0.48056 0.0
H3454 H 0.74552 0.35994 0.44973 0.0
H3455 H 0.75993 0.3749 0.42221 0.0
C3456 C 0.67921 0.61775 0.92939 0.0
C3457 C 0.68003 0.63648 0.90855 0.0
C3458 C 0.64563 0.66306 0.93074 0.0
C3459 C 0.64132 0.64196 0.94909 0.0
N3460 N 0.65425 0.59822 0.96549 0.0
N3461 N 0.6642 0.67672 0.88828 0.0
C3462 C 0.65851 0.61922 0.94872 0.0
C3463 C 0.66347 0.65925 0.90906 0.0
N3464 N 0.69844 0.59851 0.93056 0.0
N3465 N 0.63321 0.68698 0.93455 0.0
H3466 H 0.67769 0.67477 0.87262 0.0
H3467 H 0.65051 0.69211 0.88575 0.0
H3468 H 0.62092 0.69073 0.95088 0.0
H3469 H 0.63722 0.70386 0.92322 0.0
H3470 H 0.701 0.58581 0.94672 0.0
H3471 H 0.71344 0.5969 0.91623 0.0
H3472 H 0.6636 0.57984 0.96331 0.0
H3473 H 0.64042 0.59815 0.98084 0.0
C3474 C 0.90343 0.11389 0.35789 0.0
C3475 C 0.8883 0.09016 0.35588 0.0
C3476 C 0.88457 0.09657 0.30758 0.0
C3477 C 0.89706 0.12193 0.31009 0.0
N3478 N 0.9162 0.15597 0.33821 0.0
N3479 N 0.86218 0.05983 0.32984 0.0
C3480 C 0.9059 0.13094 0.33542 0.0
C3481 C 0.87852 0.08156 0.33092 0.0
N3482 N 0.91606 0.11969 0.38127 0.0
N3483 N 0.8781 0.08696 0.28296 0.0
H3484 H 0.85748 0.04856 0.34662 0.0
H3485 H 0.85179 0.05401 0.31288 0.0
H3486 H 0.88039 0.09794 0.26554 0.0
H3487 H 0.87192 0.06748 0.27953 0.0
H3488 H 0.9298 0.13508 0.38343 0.0
H3489 H 0.91466 0.10751 0.398 0.0
H3490 H 0.91988 0.16485 0.35657 0.0
H3491 H 0.91949 0.16874 0.32225 0.0
C3492 C 0.36651 0.87041 0.90815 0.0
C3493 C 0.34425 0.88675 0.91399 0.0
C3494 C 0.36408 0.89738 0.95724 0.0
C3495 C 0.38532 0.87893 0.95243 0.0
N3496 N 0.3994 0.84063 0.92669 0.0
N3497 N 0.31768 0.90722 0.94822 0.0
C3498 C 0.3842 0.86307 0.92897 0.0
C3499 C 0.34165 0.89738 0.93993 0.0
N3500 N 0.37188 0.8632 0.88258 0.0
N3501 N 0.3656 0.9163 0.97672 0.0
H3502 H 0.30053 0.90608 0.93649 0.0
H3503 H 0.31426 0.91332 0.96776 0.0
H3504 H 0.38224 0.91968 0.98854 0.0
H3505 H 0.35125 0.93118 0.97887 0.0
H3506 H 0.38911 0.85287 0.8772 0.0
H3507 H 0.3609 0.87049 0.86662 0.0
H3508 H 0.3978 0.8277 0.91054 0.0
H3509 H 0.41078 0.83319 0.94241 0.0
C3510 C 0.15642 0.42867 0.34192 0.0
C3511 C 0.13785 0.4297 0.36296 0.0
C3512 C 0.11086 0.39552 0.3409 0.0
C3513 C 0.13201 0.39076 0.32265 0.0
N3514 N 0.17621 0.403 0.30655 0.0
N3515 N 0.09748 0.41415 0.38341 0.0
C3516 C 0.15496 0.4077 0.32295 0.0
C3517 C 0.11488 0.41335 0.36255 0.0
N3518 N 0.17545 0.44805 0.34014 0.0
N3519 N 0.08666 0.38358 0.33704 0.0
H3520 H 0.09956 0.42762 0.39903 0.0
H3521 H 0.08203 0.40054 0.38599 0.0
H3522 H 0.0827 0.3714 0.3207 0.0
H3523 H 0.06979 0.38797 0.34831 0.0
H3524 H 0.18796 0.45037 0.32376 0.0
H3525 H 0.17687 0.46346 0.354 0.0
H3526 H 0.19463 0.41233 0.30883 0.0
H3527 H 0.17655 0.38876 0.29161 0.0
C3528 C 0.64959 0.361 0.58502 0.0
C3529 C 0.65619 0.37365 0.56062 0.0
C3530 C 0.69313 0.39729 0.58253 0.0
C3531 C 0.68692 0.38418 0.60663 0.0
N3532 N 0.66244 0.35104 0.63063 0.0
N3533 N 0.68604 0.40135 0.53496 0.0
C3534 C 0.66606 0.36523 0.60776 0.0
C3535 C 0.67867 0.3909 0.55898 0.0
N3536 N 0.62736 0.34529 0.58649 0.0
N3537 N 0.71217 0.41676 0.5826 0.0
H3538 H 0.67501 0.39874 0.5176 0.0
H3539 H 0.70389 0.41143 0.53176 0.0
H3540 H 0.72317 0.42154 0.59954 0.0
H3541 H 0.71598 0.42933 0.5666 0.0
H3542 H 0.61964 0.33784 0.6042 0.0
H3543 H 0.61571 0.34062 0.56995 0.0
H3544 H 0.6493 0.33513 0.63251 0.0
H3545 H 0.67423 0.35414 0.64742 0.0
C3546 C 0.64724 0.09808 0.71931 0.0
C3547 C 0.63351 0.12284 0.71782 0.0
C3548 C 0.62808 0.11699 0.66948 0.0
C3549 C 0.64132 0.09215 0.67117 0.0
N3550 N 0.66059 0.05715 0.69723 0.0
N3551 N 0.60762 0.15434 0.69241 0.0
C3552 C 0.64985 0.08209 0.69604 0.0
C3553 C 0.62307 0.13191 0.6931 0.0
N3554 N 0.65918 0.09058 0.74262 0.0
N3555 N 0.62063 0.12634 0.64505 0.0
H3556 H 0.60363 0.16579 0.70919 0.0
H3557 H 0.59718 0.16077 0.67572 0.0
H3558 H 0.62254 0.11506 0.62773 0.0
H3559 H 0.61365 0.14552 0.64157 0.0
H3560 H 0.67201 0.0744 0.74438 0.0
H3561 H 0.65782 0.10159 0.76011 0.0
H3562 H 0.66432 0.04698 0.71488 0.0
H3563 H 0.66432 0.04587 0.68027 0.0
C3564 C 0.33031 0.1235 0.58302 0.0
C3565 C 0.33834 0.13531 0.60726 0.0
C3566 C 0.37517 0.15808 0.58471 0.0
C3567 C 0.36665 0.14703 0.56007 0.0
N3568 N 0.33403 0.12198 0.53493 0.0
N3569 N 0.36439 0.16766 0.63086 0.0
C3570 C 0.34341 0.13076 0.55894 0.0
C3571 C 0.35965 0.15372 0.60799 0.0
N3572 N 0.3109 0.1044 0.58338 0.0
N3573 N 0.39834 0.17237 0.58598 0.0
H3574 H 0.35311 0.16495 0.64808 0.0
H3575 H 0.37783 0.1834 0.63218 0.0
H3576 H 0.40946 0.17738 0.56924 0.0
H3577 H 0.40735 0.17806 0.60375 0.0
H3578 H 0.30583 0.09273 0.56704 0.0
H3579 H 0.30104 0.09884 0.6008 0.0
H3580 H 0.31569 0.11259 0.53248 0.0
H3581 H 0.34373 0.12552 0.51696 0.0
C3582 C 0.36731 0.4176 0.68023 0.0
C3583 C 0.38869 0.42576 0.66378 0.0
C3584 C 0.41912 0.39869 0.69073 0.0
C3585 C 0.39695 0.38659 0.7036 0.0
N3586 N 0.3488 0.38164 0.70601 0.0
N3587 N 0.4348 0.42075 0.65091 0.0
C3588 C 0.37067 0.39543 0.6974 0.0
C3589 C 0.41468 0.41561 0.66846 0.0
N3590 N 0.34374 0.43119 0.67943 0.0
N3591 N 0.44437 0.39456 0.70011 0.0
H3592 H 0.43217 0.43217 0.63384 0.0
H3593 H 0.45341 0.41153 0.65199 0.0
H3594 H 0.44827 0.38338 0.71715 0.0
H3595 H 0.46095 0.40471 0.69279 0.0
H3596 H 0.32814 0.42756 0.69264 0.0
H3597 H 0.34108 0.44801 0.66753 0.0
H3598 H 0.32947 0.38609 0.69977 0.0
H3599 H 0.34989 0.36398 0.71678 0.0
C3600 C 0.9509 0.6641 0.60088 0.0
C3601 C 0.96122 0.65366 0.62514 0.0
C3602 C 0.92068 0.66832 0.64807 0.0
C3603 C 0.91251 0.68196 0.62485 0.0
N3604 N 0.92142 0.69628 0.58021 0.0
N3605 N 0.95761 0.6497 0.67294 0.0
C3606 C 0.92822 0.68098 0.6016 0.0
C3607 C 0.94657 0.65682 0.64912 0.0
N3608 N 0.96148 0.65647 0.57699 0.0
N3609 N 0.90317 0.66539 0.66861 0.0
H3610 H 0.97686 0.64199 0.67465 0.0
H3611 H 0.94865 0.65386 0.69117 0.0
H3612 H 0.88361 0.67236 0.66745 0.0
H3613 H 0.90707 0.65369 0.68527 0.0
H3614 H 0.9531 0.6617 0.55876 0.0
H3615 H 0.97662 0.64235 0.57524 0.0
H3616 H 0.93362 0.69845 0.56356 0.0
H3617 H 0.90465 0.70861 0.58019 0.0
C3618 C 0.91943 0.36949 0.87717 0.0
C3619 C 0.91747 0.35 0.89738 0.0
C3620 C 0.96129 0.36311 0.91457 0.0
C3621 C 0.96137 0.38532 0.89707 0.0
N3622 N 0.9406 0.40992 0.86137 0.0
N3623 N 0.93551 0.32797 0.93563 0.0
C3624 C 0.94071 0.38833 0.87787 0.0
C3625 C 0.93831 0.34653 0.91599 0.0
N3626 N 0.90074 0.36985 0.85738 0.0
N3627 N 0.98351 0.35763 0.92938 0.0
H3628 H 0.91915 0.31514 0.93655 0.0
H3629 H 0.94844 0.32626 0.95175 0.0
H3630 H 1.00087 0.36905 0.92823 0.0
H3631 H 0.98573 0.34051 0.94082 0.0
H3632 H 0.90205 0.38179 0.84052 0.0
H3633 H 0.88479 0.3565 0.85687 0.0
H3634 H 0.92457 0.41512 0.84928 0.0
H3635 H 0.95621 0.42351 0.86055 0.0
C3636 C 0.61632 0.82481 0.37228 0.0
C3637 C 0.63236 0.82328 0.39583 0.0
C3638 C 0.61073 0.86374 0.41296 0.0
C3639 C 0.59536 0.8654 0.38944 0.0
N3640 N 0.57794 0.84471 0.35029 0.0
N3641 N 0.63852 0.83645 0.44154 0.0
C3642 C 0.59635 0.84489 0.37033 0.0
C3643 C 0.62756 0.84129 0.41712 0.0
N3644 N 0.621 0.80849 0.35101 0.0
N3645 N 0.60987 0.88415 0.43087 0.0
H3646 H 0.64993 0.81952 0.4455 0.0
H3647 H 0.63405 0.84754 0.45846 0.0
H3648 H 0.59706 0.90035 0.42862 0.0
H3649 H 0.62285 0.88582 0.44696 0.0
H3650 H 0.61266 0.8116 0.33229 0.0
H3651 H 0.63425 0.79263 0.35101 0.0
H3652 H 0.57537 0.82883 0.33722 0.0
H3653 H 0.56349 0.85955 0.34832 0.0
C3654 C 0.10734 0.16096 0.86312 0.0
C3655 C 0.10896 0.17648 0.88652 0.0
C3656 C 0.06798 0.15611 0.90358 0.0
C3657 C 0.06681 0.13958 0.8804 0.0
N3658 N 0.08006 0.13294 0.83478 0.0
N3659 N 0.08811 0.19449 0.92531 0.0
C3660 C 0.08488 0.14415 0.8591 0.0
C3661 C 0.08827 0.17587 0.90549 0.0
N3662 N 0.12784 0.16158 0.84526 0.0
N3663 N 0.05098 0.15219 0.92448 0.0
H3664 H 0.10306 0.20885 0.92712 0.0
H3665 H 0.0722 0.19729 0.93833 0.0
H3666 H 0.03448 0.13973 0.92402 0.0
H3667 H 0.05382 0.16069 0.94315 0.0
H3668 H 0.12955 0.14842 0.82934 0.0
H3669 H 0.14403 0.17441 0.84735 0.0
H3670 H 0.09119 0.13723 0.81783 0.0
H3671 H 0.06311 0.12152 0.83092 0.0
C3672 C 0.9037 0.19299 0.91595 0.0
C3673 C 0.8955 0.20882 0.89408 0.0
C3674 C 0.92364 0.18217 0.86425 0.0
C3675 C 0.93087 0.16572 0.88587 0.0
N3676 N 0.93619 0.16187 0.93336 0.0
N3677 N 0.90578 0.2244 0.84958 0.0
C3678 C 0.92361 0.17315 0.91213 0.0
C3679 C 0.90812 0.20544 0.8689 0.0
N3680 N 0.89224 0.19668 0.94034 0.0
N3681 N 0.93127 0.17515 0.83914 0.0
H3682 H 0.89557 0.24221 0.85222 0.0
H3683 H 0.91644 0.22386 0.83181 0.0
H3684 H 0.94416 0.15925 0.83546 0.0
H3685 H 0.92385 0.1842 0.82203 0.0
H3686 H 0.89476 0.18354 0.95617 0.0
H3687 H 0.87922 0.21238 0.94438 0.0
H3688 H 0.93332 0.16807 0.95292 0.0
H3689 H 0.95174 0.14835 0.93126 0.0
C3690 C 0.58501 0.37893 0.15865 0.0
C3691 C 0.56124 0.37123 0.14526 0.0
C3692 C 0.58595 0.33627 0.1214 0.0
C3693 C 0.60935 0.34346 0.13536 0.0
N3694 N 0.63099 0.3682 0.16998 0.0
N3695 N 0.53797 0.34063 0.1163 0.0
C3696 C 0.60881 0.36388 0.15476 0.0
C3697 C 0.56135 0.34917 0.12746 0.0
N3698 N 0.58483 0.40075 0.17491 0.0
N3699 N 0.58766 0.31773 0.10156 0.0
H3700 H 0.51979 0.35029 0.11907 0.0
H3701 H 0.53612 0.32303 0.10554 0.0
H3702 H 0.60543 0.3079 0.097 0.0
H3703 H 0.5722 0.31329 0.08849 0.0
H3704 H 0.60197 0.40937 0.18281 0.0
H3705 H 0.56747 0.41116 0.17961 0.0
H3706 H 0.63151 0.38094 0.1863 0.0
H3707 H 0.64857 0.35741 0.1674 0.0
C3708 C 0.62082 0.19298 0.10763 0.0
C3709 C 0.63038 0.20669 0.13043 0.0
C3710 C 0.59796 0.18275 0.15824 0.0
C3711 C 0.58987 0.1678 0.13582 0.0
N3712 N 0.58551 0.16631 0.08821 0.0
N3713 N 0.6216 0.22094 0.17574 0.0
C3714 C 0.5987 0.17535 0.11014 0.0
C3715 C 0.61677 0.20378 0.15518 0.0
N3716 N 0.6331 0.19651 0.08362 0.0
N3717 N 0.58806 0.1761 0.18266 0.0
H3718 H 0.6349 0.23676 0.17465 0.0
H3719 H 0.6105 0.22117 0.19323 0.0
H3720 H 0.5727 0.16225 0.18496 0.0
H3721 H 0.59563 0.18341 0.20052 0.0
H3722 H 0.62938 0.18459 0.06708 0.0
H3723 H 0.64795 0.21073 0.08055 0.0
H3724 H 0.58954 0.17284 0.06897 0.0
H3725 H 0.5685 0.15456 0.08951 0.0
C3726 C 0.44099 0.33319 0.1465 0.0
C3727 C 0.43473 0.35678 0.13249 0.0
C3728 C 0.39806 0.33399 0.10942 0.0
C3729 C 0.40478 0.31008 0.12292 0.0
N3730 N 0.43437 0.28569 0.15202 0.0
N3731 N 0.41054 0.37943 0.09819 0.0
C3732 C 0.42693 0.30928 0.14063 0.0
C3733 C 0.4142 0.35706 0.11316 0.0
N3734 N 0.45968 0.33413 0.16627 0.0
N3735 N 0.37601 0.33471 0.09341 0.0
H3736 H 0.42207 0.39646 0.10092 0.0
H3737 H 0.39764 0.38063 0.08202 0.0
H3738 H 0.36453 0.31791 0.08923 0.0
H3739 H 0.36822 0.35208 0.08525 0.0
H3740 H 0.46343 0.3186 0.17944 0.0
H3741 H 0.47046 0.35133 0.17064 0.0
H3742 H 0.45206 0.28302 0.16252 0.0
H3743 H 0.42356 0.26813 0.14981 0.0
loop_
_geom_bond_atom_site_label_1
_geom_bond_atom_site_label_2
_geom_bond_distance
_geom_bond_site_symmetry_2
_ccdc_geom_bond_type
Co0 N4 2.148 . S
Co0 N10 2.128 . S
Co0 N20 2.194 . S
Co0 O25 2.351 . S
Co0 O26 2.155 . S
Co0 O27 2.096 . S
C1 N4 1.301 . S
C1 N5 1.328 . S
C1 H6 0.930 . S
C2 C3 1.333 . S
C2 N4 1.317 . S
C2 H7 0.930 . S
C3 C2 1.333 . S
C3 N5 1.350 . S
C3 H29 0.931 . S
N4 Co0 2.148 . S
N4 C1 1.301 . S
N4 C2 1.317 . S
N5 C1 1.328 . S
N5 C3 1.350 . S
H6 C1 0.930 . S
H7 C2 0.930 . S
C8 O9 1.224 . S
C8 O27 1.247 . S
O9 C8 1.224 . S
N10 Co0 2.128 . S
N10 C11 1.355 . S
N10 C13 1.311 . S
C11 N10 1.355 . S
C11 C12 1.363 . S
C11 H23 0.929 . S
C12 C11 1.363 . S
C12 N14 1.375 . S
C12 H30 0.931 . S
C13 N10 1.311 . S
C13 N14 1.347 . S
C13 H24 0.929 . S
N14 C12 1.375 . S
N14 C13 1.347 . S
C15 C18 1.365 . S
C15 N20 1.328 . S
C15 H21 0.929 . S
C16 C17 1.362 . S
C16 C19 1.378 . S
C16 H31 0.929 . S
C17 C16 1.362 . S
C17 C18 1.366 . S
C18 C15 1.365 . S
C18 C17 1.366 . S
C18 H32 0.930 . S
C19 C16 1.378 . S
C19 N20 1.315 . S
C19 H22 0.930 . S
N20 Co0 2.194 . S
N20 C15 1.328 . S
N20 C19 1.315 . S
H21 C15 0.929 . S
H22 C19 0.930 . S
H23 C11 0.929 . S
H24 C13 0.929 . S
O25 Co0 2.351 . S
O25 C28 1.244 . S
O26 Co0 2.155 . S
O26 C28 1.240 . S
O27 Co0 2.096 . S
O27 C8 1.247 . S
C28 O25 1.244 . S
C28 O26 1.240 . S
H29 C3 0.931 . S
H30 C12 0.931 . S
H31 C16 0.929 . S
H32 C18 0.930 . S
Co33 N37 2.148 1_554 S
Co33 N43 2.128 . S
Co33 N53 2.194 . S
Co33 O58 2.351 . S
Co33 O59 2.155 . S
Co33 O60 2.096 1_554 S
C34 N37 1.301 . S
C34 N38 1.328 . S
C34 H39 0.930 1_556 S
C35 C36 1.333 . S
C35 N37 1.317 . S
C35 H40 0.930 . S
C36 C35 1.333 . S
C36 N38 1.350 . S
C36 H62 0.931 . S
N37 Co33 2.148 1_556 S
N37 C34 1.301 . S
N37 C35 1.317 . S
N38 C34 1.328 . S
N38 C36 1.350 . S
H39 C34 0.930 1_554 S
H40 C35 0.930 . S
C41 O42 1.224 . S
C41 O60 1.247 . S
O42 C41 1.224 . S
N43 Co33 2.128 . S
N43 C44 1.355 . S
N43 C46 1.311 . S
C44 N43 1.355 . S
C44 C45 1.363 . S
C44 H56 0.929 . S
C45 C44 1.363 . S
C45 N47 1.375 . S
C45 H63 0.931 . S
C46 N43 1.311 . S
C46 N47 1.347 . S
C46 H57 0.929 . S
N47 C45 1.375 . S
N47 C46 1.347 . S
C48 C51 1.365 . S
C48 N53 1.328 . S
C48 H54 0.929 . S
C49 C50 1.362 . S
C49 C52 1.378 . S
C49 H64 0.929 . S
C50 C49 1.362 . S
C50 C51 1.366 . S
C51 C48 1.365 . S
C51 C50 1.366 . S
C51 H65 0.930 . S
C52 C49 1.378 . S
C52 N53 1.315 . S
C52 H55 0.927 . S
N53 Co33 2.194 . S
N53 C48 1.328 . S
N53 C52 1.315 . S
H54 C48 0.929 . S
H55 C52 0.927 . S
H56 C44 0.929 . S
H57 C46 0.929 . S
O58 Co33 2.351 . S
O58 C61 1.244 . S
O59 Co33 2.155 . S
O59 C61 1.240 . S
O60 Co33 2.096 1_556 S
O60 C41 1.247 . S
C61 O58 1.244 . S
C61 O59 1.240 . S
H62 C36 0.931 . S
H63 C45 0.931 . S
H64 C49 0.929 . S
H65 C51 0.930 . S
Co66 N70 2.148 . S
Co66 N76 2.128 . S
Co66 N86 2.194 . S
Co66 O91 2.351 . S
Co66 O92 2.155 . S
Co66 O93 2.096 . S
C67 N70 1.301 . S
C67 N71 1.328 . S
C67 H72 0.930 . S
C68 C69 1.333 . S
C68 N70 1.317 . S
C68 H73 0.930 . S
C69 C68 1.333 . S
C69 N71 1.350 . S
C69 H95 0.931 . S
N70 Co66 2.148 . S
N70 C67 1.301 . S
N70 C68 1.317 . S
N71 C67 1.328 . S
N71 C69 1.350 . S
H72 C67 0.930 . S
H73 C68 0.930 . S
C74 O75 1.224 . S
C74 O93 1.247 . S
O75 C74 1.224 . S
N76 Co66 2.128 . S
N76 C77 1.355 . S
N76 C79 1.311 . S
C77 N76 1.355 . S
C77 C78 1.363 . S
C77 H89 0.929 . S
C78 C77 1.363 . S
C78 N80 1.375 . S
C78 H96 0.931 . S
C79 N76 1.311 . S
C79 N80 1.347 . S
C79 H90 0.929 . S
N80 C78 1.375 . S
N80 C79 1.347 . S
C81 C84 1.365 . S
C81 N86 1.328 . S
C81 H87 0.929 . S
C82 C83 1.362 . S
C82 C85 1.378 . S
C82 H97 0.929 . S
C83 C82 1.362 . S
C83 C84 1.366 . S
C84 C81 1.365 . S
C84 C83 1.366 . S
C84 H98 0.930 . S
C85 C82 1.378 . S
C85 N86 1.315 . S
C85 H88 0.930 . S
N86 Co66 2.194 . S
N86 C81 1.328 . S
N86 C85 1.315 . S
H87 C81 0.929 . S
H88 C85 0.930 . S
H89 C77 0.929 . S
H90 C79 0.929 . S
O91 Co66 2.351 . S
O91 C94 1.244 . S
O92 Co66 2.155 . S
O92 C94 1.240 . S
O93 Co66 2.096 . S
O93 C74 1.247 . S
C94 O91 1.244 . S
C94 O92 1.240 . S
H95 C69 0.931 . S
H96 C78 0.931 . S
H97 C82 0.929 . S
H98 C84 0.930 . S
Co99 N103 2.148 1_554 S
Co99 N109 2.128 . S
Co99 N119 2.194 . S
Co99 O124 2.351 . S
Co99 O125 2.155 . S
Co99 O126 2.096 1_554 S
C100 N103 1.301 . S
C100 N104 1.328 . S
C100 H105 0.930 1_556 S
C101 C102 1.333 . S
C101 N103 1.317 . S
C101 H106 0.930 . S
C102 C101 1.333 . S
C102 N104 1.350 . S
C102 H128 0.931 . S
N103 Co99 2.148 1_556 S
N103 C100 1.301 . S
N103 C101 1.317 . S
N104 C100 1.328 . S
N104 C102 1.350 . S
H105 C100 0.930 1_554 S
H106 C101 0.930 . S
C107 O108 1.224 . S
C107 O126 1.247 . S
O108 C107 1.224 . S
N109 Co99 2.128 . S
N109 C110 1.355 . S
N109 C112 1.311 . S
C110 N109 1.355 . S
C110 C111 1.363 . S
C110 H122 0.929 . S
C111 C110 1.363 . S
C111 N113 1.375 . S
C111 H129 0.931 . S
C112 N109 1.311 . S
C112 N113 1.347 . S
C112 H123 0.929 . S
N113 C111 1.375 . S
N113 C112 1.347 . S
C114 C117 1.365 . S
C114 N119 1.328 . S
C114 H120 0.929 . S
C115 C116 1.362 . S
C115 C118 1.378 . S
C115 H130 0.929 . S
C116 C115 1.362 . S
C116 C117 1.366 . S
C117 C114 1.365 . S
C117 C116 1.366 . S
C117 H131 0.930 . S
C118 C115 1.378 . S
C118 N119 1.315 . S
C118 H121 0.927 . S
N119 Co99 2.194 . S
N119 C114 1.328 . S
N119 C118 1.315 . S
H120 C114 0.929 . S
H121 C118 0.927 . S
H122 C110 0.929 . S
H123 C112 0.929 . S
O124 Co99 2.351 . S
O124 C127 1.244 . S
O125 Co99 2.155 . S
O125 C127 1.240 . S
O126 Co99 2.096 1_556 S
O126 C107 1.247 . S
C127 O124 1.244 . S
C127 O125 1.240 . S
H128 C102 0.931 . S
H129 C111 0.931 . S
H130 C115 0.929 . S
H131 C117 0.930 . S
Co132 N136 2.148 . S
Co132 N142 2.128 . S
Co132 N152 2.194 . S
Co132 O157 2.351 . S
Co132 O158 2.155 . S
Co132 O159 2.096 . S
C133 N136 1.301 . S
C133 N137 1.328 . S
C133 H138 0.930 . S
C134 C135 1.333 . S
C134 N136 1.317 . S
C134 H139 0.930 . S
C135 C134 1.333 . S
C135 N137 1.350 . S
C135 H161 0.931 . S
N136 Co132 2.148 . S
N136 C133 1.301 . S
N136 C134 1.317 . S
N137 C133 1.328 . S
N137 C135 1.350 . S
H138 C133 0.930 . S
H139 C134 0.930 . S
C140 O141 1.224 . S
C140 O159 1.247 . S
O141 C140 1.224 . S
N142 Co132 2.128 . S
N142 C143 1.355 . S
N142 C145 1.311 . S
C143 N142 1.355 . S
C143 C144 1.363 . S
C143 H155 0.929 . S
C144 C143 1.363 . S
C144 N146 1.375 . S
C144 H162 0.931 . S
C145 N142 1.311 . S
C145 N146 1.347 . S
C145 H156 0.929 . S
N146 C144 1.375 . S
N146 C145 1.347 . S
C147 C150 1.365 . S
C147 N152 1.328 . S
C147 H153 0.929 . S
C148 C149 1.362 . S
C148 C151 1.378 . S
C148 H163 0.929 . S
C149 C148 1.362 . S
C149 C150 1.366 . S
C150 C147 1.365 . S
C150 C149 1.366 . S
C150 H164 0.930 . S
C151 C148 1.378 . S
C151 N152 1.315 . S
C151 H154 0.930 . S
N152 Co132 2.194 . S
N152 C147 1.328 . S
N152 C151 1.315 . S
H153 C147 0.929 . S
H154 C151 0.930 . S
H155 C143 0.929 . S
H156 C145 0.929 . S
O157 Co132 2.351 . S
O157 C160 1.244 . S
O158 Co132 2.155 . S
O158 C160 1.240 . S
O159 Co132 2.096 . S
O159 C140 1.247 . S
C160 O157 1.244 . S
C160 O158 1.240 . S
H161 C135 0.931 . S
H162 C144 0.931 . S
H163 C148 0.929 . S
H164 C150 0.930 . S
Co165 N169 2.148 1_556 S
Co165 N175 2.128 . S
Co165 N185 2.194 . S
Co165 O190 2.351 . S
Co165 O191 2.155 . S
Co165 O192 2.096 1_556 S
C166 N169 1.301 . S
C166 N170 1.328 . S
C166 H171 0.930 1_554 S
C167 C168 1.333 . S
C167 N169 1.317 . S
C167 H172 0.930 . S
C168 C167 1.333 . S
C168 N170 1.350 . S
C168 H194 0.931 . S
N169 Co165 2.148 1_554 S
N169 C166 1.301 . S
N169 C167 1.317 . S
N170 C166 1.328 . S
N170 C168 1.350 . S
H171 C166 0.930 1_556 S
H172 C167 0.930 . S
C173 O174 1.224 . S
C173 O192 1.247 . S
O174 C173 1.224 . S
N175 Co165 2.128 . S
N175 C176 1.355 . S
N175 C178 1.311 . S
C176 N175 1.355 . S
C176 C177 1.363 . S
C176 H188 0.929 . S
C177 C176 1.363 . S
C177 N179 1.375 . S
C177 H195 0.931 . S
C178 N175 1.311 . S
C178 N179 1.347 . S
C178 H189 0.929 . S
N179 C177 1.375 . S
N179 C178 1.347 . S
C180 C183 1.365 . S
C180 N185 1.328 . S
C180 H186 0.929 . S
C181 C182 1.362 . S
C181 C184 1.378 . S
C181 H196 0.929 . S
C182 C181 1.362 . S
C182 C183 1.366 . S
C183 C180 1.365 . S
C183 C182 1.366 . S
C183 H197 0.930 . S
C184 C181 1.378 . S
C184 N185 1.315 . S
C184 H187 0.927 . S
N185 Co165 2.194 . S
N185 C180 1.328 . S
N185 C184 1.315 . S
H186 C180 0.929 . S
H187 C184 0.927 . S
H188 C176 0.929 . S
H189 C178 0.929 . S
O190 Co165 2.351 . S
O190 C193 1.244 . S
O191 Co165 2.155 . S
O191 C193 1.240 . S
O192 Co165 2.096 1_554 S
O192 C173 1.247 . S
C193 O190 1.244 . S
C193 O191 1.240 . S
H194 C168 0.931 . S
H195 C177 0.931 . S
H196 C181 0.929 . S
H197 C183 0.930 . S
Co198 N202 2.148 . S
Co198 N208 2.128 . S
Co198 N218 2.194 . S
Co198 O223 2.351 . S
Co198 O224 2.155 . S
Co198 O225 2.096 . S
C199 N202 1.301 . S
C199 N203 1.328 . S
C199 H204 0.930 . S
C200 C201 1.333 . S
C200 N202 1.317 . S
C200 H205 0.930 . S
C201 C200 1.333 . S
C201 N203 1.350 . S
C201 H227 0.931 . S
N202 Co198 2.148 . S
N202 C199 1.301 . S
N202 C200 1.317 . S
N203 C199 1.328 . S
N203 C201 1.350 . S
H204 C199 0.930 . S
H205 C200 0.930 . S
C206 O207 1.224 . S
C206 O225 1.247 . S
O207 C206 1.224 . S
N208 Co198 2.128 . S
N208 C209 1.355 . S
N208 C211 1.311 . S
C209 N208 1.355 . S
C209 C210 1.363 . S
C209 H221 0.929 . S
C210 C209 1.363 . S
C210 N212 1.375 . S
C210 H228 0.931 . S
C211 N208 1.311 . S
C211 N212 1.347 . S
C211 H222 0.929 . S
N212 C210 1.375 . S
N212 C211 1.347 . S
C213 C216 1.365 . S
C213 N218 1.328 . S
C213 H219 0.929 . S
C214 C215 1.362 . S
C214 C217 1.378 . S
C214 H229 0.929 . S
C215 C214 1.362 . S
C215 C216 1.366 . S
C216 C213 1.365 . S
C216 C215 1.366 . S
C216 H230 0.930 . S
C217 C214 1.378 . S
C217 N218 1.315 . S
C217 H220 0.930 . S
N218 Co198 2.194 . S
N218 C213 1.328 . S
N218 C217 1.315 . S
H219 C213 0.929 . S
H220 C217 0.930 . S
H221 C209 0.929 . S
H222 C211 0.929 . S
O223 Co198 2.351 . S
O223 C226 1.244 . S
O224 Co198 2.155 . S
O224 C226 1.240 . S
O225 Co198 2.096 . S
O225 C206 1.247 . S
C226 O223 1.244 . S
C226 O224 1.240 . S
H227 C201 0.931 . S
H228 C210 0.931 . S
H229 C214 0.929 . S
H230 C216 0.930 . S
Co231 N235 2.148 1_556 S
Co231 N241 2.128 . S
Co231 N251 2.194 . S
Co231 O256 2.351 . S
Co231 O257 2.155 . S
Co231 O258 2.096 1_556 S
C232 N235 1.301 . S
C232 N236 1.328 . S
C232 H237 0.930 1_554 S
C233 C234 1.333 . S
C233 N235 1.317 . S
C233 H238 0.930 . S
C234 C233 1.333 . S
C234 N236 1.350 . S
C234 H260 0.931 . S
N235 Co231 2.148 1_554 S
N235 C232 1.301 . S
N235 C233 1.317 . S
N236 C232 1.328 . S
N236 C234 1.350 . S
H237 C232 0.930 1_556 S
H238 C233 0.930 . S
C239 O240 1.224 . S
C239 O258 1.247 . S
O240 C239 1.224 . S
N241 Co231 2.128 . S
N241 C242 1.355 . S
N241 C244 1.311 . S
C242 N241 1.355 . S
C242 C243 1.363 . S
C242 H254 0.929 . S
C243 C242 1.363 . S
C243 N245 1.375 . S
C243 H261 0.931 . S
C244 N241 1.311 . S
C244 N245 1.347 . S
C244 H255 0.929 . S
N245 C243 1.375 . S
N245 C244 1.347 . S
C246 C249 1.365 . S
C246 N251 1.328 . S
C246 H252 0.929 . S
C247 C248 1.362 . S
C247 C250 1.378 . S
C247 H262 0.929 . S
C248 C247 1.362 . S
C248 C249 1.366 . S
C249 C246 1.365 . S
C249 C248 1.366 . S
C249 H263 0.930 . S
C250 C247 1.378 . S
C250 N251 1.315 . S
C250 H253 0.927 . S
N251 Co231 2.194 . S
N251 C246 1.328 . S
N251 C250 1.315 . S
H252 C246 0.929 . S
H253 C250 0.927 . S
H254 C242 0.929 . S
H255 C244 0.929 . S
O256 Co231 2.351 . S
O256 C259 1.244 . S
O257 Co231 2.155 . S
O257 C259 1.240 . S
O258 Co231 2.096 1_554 S
O258 C239 1.247 . S
C259 O256 1.244 . S
C259 O257 1.240 . S
H260 C234 0.931 . S
H261 C243 0.931 . S
H262 C247 0.929 . S
H263 C249 0.930 . S
Co264 N268 2.148 . S
Co264 N274 2.128 . S
Co264 N284 2.194 . S
Co264 O289 2.351 . S
Co264 O290 2.155 . S
Co264 O291 2.096 . S
C265 N268 1.301 . S
C265 N269 1.328 . S
C265 H270 0.930 . S
C266 C267 1.333 . S
C266 N268 1.317 . S
C266 H271 0.930 . S
C267 C266 1.333 . S
C267 N269 1.350 . S
C267 H293 0.931 . S
N268 Co264 2.148 . S
N268 C265 1.301 . S
N268 C266 1.317 . S
N269 C265 1.328 . S
N269 C267 1.350 . S
H270 C265 0.930 . S
H271 C266 0.930 . S
C272 O273 1.224 . S
C272 O291 1.247 . S
O273 C272 1.224 . S
N274 Co264 2.128 . S
N274 C275 1.355 . S
N274 C277 1.311 . S
C275 N274 1.355 . S
C275 C276 1.363 . S
C275 H287 0.929 . S
C276 C275 1.363 . S
C276 N278 1.375 . S
C276 H294 0.931 . S
C277 N274 1.311 . S
C277 N278 1.347 . S
C277 H288 0.929 . S
N278 C276 1.375 . S
N278 C277 1.347 . S
C279 C282 1.365 . S
C279 N284 1.328 . S
C279 H285 0.929 . S
C280 C281 1.362 . S
C280 C283 1.378 . S
C280 H295 0.929 . S
C281 C280 1.362 . S
C281 C282 1.366 . S
C282 C279 1.365 . S
C282 C281 1.366 . S
C282 H296 0.930 . S
C283 C280 1.378 . S
C283 N284 1.315 . S
C283 H286 0.930 . S
N284 Co264 2.194 . S
N284 C279 1.328 . S
N284 C283 1.315 . S
H285 C279 0.929 . S
H286 C283 0.930 . S
H287 C275 0.929 . S
H288 C277 0.929 . S
O289 Co264 2.351 . S
O289 C292 1.244 . S
O290 Co264 2.155 . S
O290 C292 1.240 . S
O291 Co264 2.096 . S
O291 C272 1.247 . S
C292 O289 1.244 . S
C292 O290 1.240 . S
H293 C267 0.931 . S
H294 C276 0.931 . S
H295 C280 0.929 . S
H296 C282 0.930 . S
Co297 N301 2.148 . S
Co297 N307 2.128 . S
Co297 N317 2.194 . S
Co297 O322 2.351 . S
Co297 O323 2.155 . S
Co297 O324 2.096 . S
C298 N301 1.301 . S
C298 N302 1.328 . S
C298 H303 0.930 . S
C299 C300 1.333 . S
C299 N301 1.317 . S
C299 H304 0.930 . S
C300 C299 1.333 . S
C300 N302 1.350 . S
C300 H326 0.931 . S
N301 Co297 2.148 . S
N301 C298 1.301 . S
N301 C299 1.317 . S
N302 C298 1.328 . S
N302 C300 1.350 . S
H303 C298 0.930 . S
H304 C299 0.930 . S
C305 O306 1.224 . S
C305 O324 1.247 . S
O306 C305 1.224 . S
N307 Co297 2.128 . S
N307 C308 1.355 . S
N307 C310 1.311 . S
C308 N307 1.355 . S
C308 C309 1.363 . S
C308 H320 0.929 . S
C309 C308 1.363 . S
C309 N311 1.375 . S
C309 H327 0.931 . S
C310 N307 1.311 . S
C310 N311 1.347 . S
C310 H321 0.929 . S
N311 C309 1.375 . S
N311 C310 1.347 . S
C312 C315 1.365 . S
C312 N317 1.328 . S
C312 H318 0.929 . S
C313 C314 1.362 . S
C313 C316 1.378 . S
C313 H328 0.929 . S
C314 C313 1.362 . S
C314 C315 1.366 . S
C315 C312 1.365 . S
C315 C314 1.366 . S
C315 H329 0.930 . S
C316 C313 1.378 . S
C316 N317 1.315 . S
C316 H319 0.930 . S
N317 Co297 2.194 . S
N317 C312 1.328 . S
N317 C316 1.315 . S
H318 C312 0.929 . S
H319 C316 0.930 . S
H320 C308 0.929 . S
H321 C310 0.929 . S
O322 Co297 2.351 . S
O322 C325 1.244 . S
O323 Co297 2.155 . S
O323 C325 1.240 . S
O324 Co297 2.096 . S
O324 C305 1.247 . S
C325 O322 1.244 . S
C325 O323 1.240 . S
H326 C300 0.931 . S
H327 C309 0.931 . S
H328 C313 0.929 . S
H329 C315 0.930 . S
Co330 N334 2.148 . S
Co330 N340 2.128 . S
Co330 N350 2.194 . S
Co330 O355 2.351 . S
Co330 O356 2.155 . S
Co330 O357 2.096 . S
C331 N334 1.301 . S
C331 N335 1.328 . S
C331 H336 0.930 . S
C332 C333 1.333 . S
C332 N334 1.317 . S
C332 H337 0.930 . S
C333 C332 1.333 . S
C333 N335 1.350 . S
C333 H359 0.931 . S
N334 Co330 2.148 . S
N334 C331 1.301 . S
N334 C332 1.317 . S
N335 C331 1.328 . S
N335 C333 1.350 . S
H336 C331 0.930 . S
H337 C332 0.930 . S
C338 O339 1.224 . S
C338 O357 1.247 . S
O339 C338 1.224 . S
N340 Co330 2.128 . S
N340 C341 1.355 . S
N340 C343 1.311 . S
C341 N340 1.355 . S
C341 C342 1.363 . S
C341 H353 0.929 . S
C342 C341 1.363 . S
C342 N344 1.375 . S
C342 H360 0.931 . S
C343 N340 1.311 . S
C343 N344 1.347 . S
C343 H354 0.929 . S
N344 C342 1.375 . S
N344 C343 1.347 . S
C345 C348 1.365 . S
C345 N350 1.328 . S
C345 H351 0.929 . S
C346 C347 1.362 . S
C346 C349 1.378 . S
C346 H361 0.929 . S
C347 C346 1.362 . S
C347 C348 1.366 . S
C348 C345 1.365 . S
C348 C347 1.366 . S
C348 H362 0.930 . S
C349 C346 1.378 . S
C349 N350 1.315 . S
C349 H352 0.930 . S
N350 Co330 2.194 . S
N350 C345 1.328 . S
N350 C349 1.315 . S
H351 C345 0.929 . S
H352 C349 0.930 . S
H353 C341 0.929 . S
H354 C343 0.929 . S
O355 Co330 2.351 . S
O355 C358 1.244 . S
O356 Co330 2.155 . S
O356 C358 1.240 . S
O357 Co330 2.096 . S
O357 C338 1.247 . S
C358 O355 1.244 . S
C358 O356 1.240 . S
H359 C333 0.931 . S
H360 C342 0.931 . S
H361 C346 0.929 . S
H362 C348 0.930 . S
Co363 N367 2.148 1_565 S
Co363 N373 2.128 . S
Co363 N383 2.194 . S
Co363 O388 2.351 . S
Co363 O389 2.155 . S
Co363 O390 2.096 1_565 S
C364 N367 1.301 . S
C364 N368 1.328 . S
C364 H369 0.930 1_545 S
C365 C366 1.333 . S
C365 N367 1.317 . S
C365 H370 0.930 . S
C366 C365 1.333 . S
C366 N368 1.350 . S
C366 H392 0.931 . S
N367 Co363 2.148 1_545 S
N367 C364 1.301 . S
N367 C365 1.317 . S
N368 C364 1.328 . S
N368 C366 1.350 . S
H369 C364 0.930 1_565 S
H370 C365 0.930 . S
C371 O372 1.224 . S
C371 O390 1.247 . S
O372 C371 1.224 . S
N373 Co363 2.128 . S
N373 C374 1.355 . S
N373 C376 1.311 . S
C374 N373 1.355 . S
C374 C375 1.363 . S
C374 H386 0.929 . S
C375 C374 1.363 . S
C375 N377 1.375 . S
C375 H393 0.931 . S
C376 N373 1.311 . S
C376 N377 1.347 . S
C376 H387 0.929 . S
N377 C375 1.375 . S
N377 C376 1.347 . S
C378 C381 1.365 . S
C378 N383 1.328 . S
C378 H384 0.929 . S
C379 C380 1.362 . S
C379 C382 1.378 . S
C379 H394 0.929 . S
C380 C379 1.362 . S
C380 C381 1.366 . S
C381 C378 1.365 . S
C381 C380 1.366 . S
C381 H395 0.930 . S
C382 C379 1.378 . S
C382 N383 1.315 . S
C382 H385 0.927 . S
N383 Co363 2.194 . S
N383 C378 1.328 . S
N383 C382 1.315 . S
H384 C378 0.929 . S
H385 C382 0.927 . S
H386 C374 0.929 . S
H387 C376 0.929 . S
O388 Co363 2.351 . S
O388 C391 1.244 . S
O389 Co363 2.155 . S
O389 C391 1.240 . S
O390 Co363 2.096 1_545 S
O390 C371 1.247 . S
C391 O388 1.244 . S
C391 O389 1.240 . S
H392 C366 0.931 . S
H393 C375 0.931 . S
H394 C379 0.929 . S
H395 C381 0.930 . S
Co396 N400 2.148 . S
Co396 N406 2.128 . S
Co396 N416 2.194 . S
Co396 O421 2.351 . S
Co396 O422 2.155 . S
Co396 O423 2.096 . S
C397 N400 1.301 . S
C397 N401 1.328 . S
C397 H402 0.930 . S
C398 C399 1.333 . S
C398 N400 1.317 . S
C398 H403 0.930 . S
C399 C398 1.333 . S
C399 N401 1.350 . S
C399 H425 0.931 . S
N400 Co396 2.148 . S
N400 C397 1.301 . S
N400 C398 1.317 . S
N401 C397 1.328 . S
N401 C399 1.350 . S
H402 C397 0.930 . S
H403 C398 0.930 . S
C404 O405 1.224 . S
C404 O423 1.247 . S
O405 C404 1.224 . S
N406 Co396 2.128 . S
N406 C407 1.355 . S
N406 C409 1.311 . S
C407 N406 1.355 . S
C407 C408 1.363 . S
C407 H419 0.929 . S
C408 C407 1.363 . S
C408 N410 1.375 . S
C408 H426 0.931 . S
C409 N406 1.311 . S
C409 N410 1.347 . S
C409 H420 0.929 . S
N410 C408 1.375 . S
N410 C409 1.347 . S
C411 C414 1.365 . S
C411 N416 1.328 . S
C411 H417 0.929 . S
C412 C413 1.362 . S
C412 C415 1.378 . S
C412 H427 0.929 . S
C413 C412 1.362 . S
C413 C414 1.366 . S
C414 C411 1.365 . S
C414 C413 1.366 . S
C414 H428 0.930 . S
C415 C412 1.378 . S
C415 N416 1.315 . S
C415 H418 0.930 . S
N416 Co396 2.194 . S
N416 C411 1.328 . S
N416 C415 1.315 . S
H417 C411 0.929 . S
H418 C415 0.930 . S
H419 C407 0.929 . S
H420 C409 0.929 . S
O421 Co396 2.351 . S
O421 C424 1.244 . S
O422 Co396 2.155 . S
O422 C424 1.240 . S
O423 Co396 2.096 . S
O423 C404 1.247 . S
C424 O421 1.244 . S
C424 O422 1.240 . S
H425 C399 0.931 . S
H426 C408 0.931 . S
H427 C412 0.929 . S
H428 C414 0.930 . S
Co429 N433 2.148 . S
Co429 N439 2.128 . S
Co429 N449 2.194 . S
Co429 O454 2.351 . S
Co429 O455 2.155 . S
Co429 O456 2.096 . S
C430 N433 1.301 . S
C430 N434 1.328 . S
C430 H435 0.930 . S
C431 C432 1.333 . S
C431 N433 1.317 . S
C431 H436 0.930 . S
C432 C431 1.333 . S
C432 N434 1.350 . S
C432 H458 0.931 . S
N433 Co429 2.148 . S
N433 C430 1.301 . S
N433 C431 1.317 . S
N434 C430 1.328 . S
N434 C432 1.350 . S
H435 C430 0.930 . S
H436 C431 0.930 . S
C437 O438 1.224 . S
C437 O456 1.247 . S
O438 C437 1.224 . S
N439 Co429 2.128 . S
N439 C440 1.355 . S
N439 C442 1.311 . S
C440 N439 1.355 . S
C440 C441 1.363 . S
C440 H452 0.929 . S
C441 C440 1.363 . S
C441 N443 1.375 . S
C441 H459 0.931 . S
C442 N439 1.311 . S
C442 N443 1.347 . S
C442 H453 0.929 . S
N443 C441 1.375 . S
N443 C442 1.347 . S
C444 C447 1.365 . S
C444 N449 1.328 . S
C444 H450 0.929 . S
C445 C446 1.362 . S
C445 C448 1.378 . S
C445 H460 0.929 . S
C446 C445 1.362 . S
C446 C447 1.366 . S
C447 C444 1.365 . S
C447 C446 1.366 . S
C447 H461 0.930 . S
C448 C445 1.378 . S
C448 N449 1.315 . S
C448 H451 0.930 . S
N449 Co429 2.194 . S
N449 C444 1.328 . S
N449 C448 1.315 . S
H450 C444 0.929 . S
H451 C448 0.930 . S
H452 C440 0.929 . S
H453 C442 0.929 . S
O454 Co429 2.351 . S
O454 C457 1.244 . S
O455 Co429 2.155 . S
O455 C457 1.240 . S
O456 Co429 2.096 . S
O456 C437 1.247 . S
C457 O454 1.244 . S
C457 O455 1.240 . S
H458 C432 0.931 . S
H459 C441 0.931 . S
H460 C445 0.929 . S
H461 C447 0.930 . S
Co462 N466 2.148 . S
Co462 N472 2.128 . S
Co462 N482 2.194 . S
Co462 O487 2.351 . S
Co462 O488 2.155 . S
Co462 O489 2.096 . S
C463 N466 1.301 . S
C463 N467 1.328 . S
C463 H468 0.930 . S
C464 C465 1.333 . S
C464 N466 1.317 . S
C464 H469 0.930 . S
C465 C464 1.333 . S
C465 N467 1.350 . S
C465 H491 0.931 . S
N466 Co462 2.148 . S
N466 C463 1.301 . S
N466 C464 1.317 . S
N467 C463 1.328 . S
N467 C465 1.350 . S
H468 C463 0.930 . S
H469 C464 0.930 . S
C470 O471 1.224 . S
C470 O489 1.247 . S
O471 C470 1.224 . S
N472 Co462 2.128 . S
N472 C473 1.355 . S
N472 C475 1.311 . S
C473 N472 1.355 . S
C473 C474 1.363 . S
C473 H485 0.929 . S
C474 C473 1.363 . S
C474 N476 1.375 . S
C474 H492 0.931 . S
C475 N472 1.311 . S
C475 N476 1.347 . S
C475 H486 0.929 . S
N476 C474 1.375 . S
N476 C475 1.347 . S
C477 C480 1.365 . S
C477 N482 1.328 . S
C477 H483 0.929 . S
C478 C479 1.362 . S
C478 C481 1.378 . S
C478 H493 0.929 . S
C479 C478 1.362 . S
C479 C480 1.366 . S
C480 C477 1.365 . S
C480 C479 1.366 . S
C480 H494 0.930 . S
C481 C478 1.378 . S
C481 N482 1.315 . S
C481 H484 0.930 . S
N482 Co462 2.194 . S
N482 C477 1.328 . S
N482 C481 1.315 . S
H483 C477 0.929 . S
H484 C481 0.930 . S
H485 C473 0.929 . S
H486 C475 0.929 . S
O487 Co462 2.351 . S
O487 C490 1.244 . S
O488 Co462 2.155 . S
O488 C490 1.240 . S
O489 Co462 2.096 . S
O489 C470 1.247 . S
C490 O487 1.244 . S
C490 O488 1.240 . S
H491 C465 0.931 . S
H492 C474 0.931 . S
H493 C478 0.929 . S
H494 C480 0.930 . S
Co495 N499 2.148 1_565 S
Co495 N505 2.128 . S
Co495 N515 2.194 . S
Co495 O520 2.351 . S
Co495 O521 2.155 . S
Co495 O522 2.096 1_565 S
C496 N499 1.301 . S
C496 N500 1.328 . S
C496 H501 0.930 1_545 S
C497 C498 1.333 . S
C497 N499 1.317 . S
C497 H502 0.930 . S
C498 C497 1.333 . S
C498 N500 1.350 . S
C498 H524 0.931 . S
N499 Co495 2.148 1_545 S
N499 C496 1.301 . S
N499 C497 1.317 . S
N500 C496 1.328 . S
N500 C498 1.350 . S
H501 C496 0.930 1_565 S
H502 C497 0.930 . S
C503 O504 1.224 . S
C503 O522 1.247 . S
O504 C503 1.224 . S
N505 Co495 2.128 . S
N505 C506 1.355 . S
N505 C508 1.311 . S
C506 N505 1.355 . S
C506 C507 1.363 . S
C506 H518 0.929 . S
C507 C506 1.363 . S
C507 N509 1.375 . S
C507 H525 0.931 . S
C508 N505 1.311 . S
C508 N509 1.347 . S
C508 H519 0.929 . S
N509 C507 1.375 . S
N509 C508 1.347 . S
C510 C513 1.365 . S
C510 N515 1.328 . S
C510 H516 0.929 . S
C511 C512 1.362 . S
C511 C514 1.378 . S
C511 H526 0.929 . S
C512 C511 1.362 . S
C512 C513 1.366 . S
C513 C510 1.365 . S
C513 C512 1.366 . S
C513 H527 0.930 . S
C514 C511 1.378 . S
C514 N515 1.315 . S
C514 H517 0.927 . S
N515 Co495 2.194 . S
N515 C510 1.328 . S
N515 C514 1.315 . S
H516 C510 0.929 . S
H517 C514 0.927 . S
H518 C506 0.929 . S
H519 C508 0.929 . S
O520 Co495 2.351 . S
O520 C523 1.244 . S
O521 Co495 2.155 . S
O521 C523 1.240 . S
O522 Co495 2.096 1_545 S
O522 C503 1.247 . S
C523 O520 1.244 . S
C523 O521 1.240 . S
H524 C498 0.931 . S
H525 C507 0.931 . S
H526 C511 0.929 . S
H527 C513 0.930 . S
Co528 N532 2.148 . S
Co528 N538 2.128 . S
Co528 N548 2.194 . S
Co528 O553 2.351 . S
Co528 O554 2.155 . S
Co528 O555 2.096 . S
C529 N532 1.301 . S
C529 N533 1.328 . S
C529 H534 0.930 . S
C530 C531 1.333 . S
C530 N532 1.317 . S
C530 H535 0.930 . S
C531 C530 1.333 . S
C531 N533 1.350 . S
C531 H557 0.931 . S
N532 Co528 2.148 . S
N532 C529 1.301 . S
N532 C530 1.317 . S
N533 C529 1.328 . S
N533 C531 1.350 . S
H534 C529 0.930 . S
H535 C530 0.930 . S
C536 O537 1.224 . S
C536 O555 1.247 . S
O537 C536 1.224 . S
N538 Co528 2.128 . S
N538 C539 1.355 . S
N538 C541 1.311 . S
C539 N538 1.355 . S
C539 C540 1.363 . S
C539 H551 0.929 . S
C540 C539 1.363 . S
C540 N542 1.375 . S
C540 H558 0.931 . S
C541 N538 1.311 . S
C541 N542 1.347 . S
C541 H552 0.929 . S
N542 C540 1.375 . S
N542 C541 1.347 . S
C543 C546 1.365 . S
C543 N548 1.328 . S
C543 H549 0.929 . S
C544 C545 1.362 . S
C544 C547 1.378 . S
C544 H559 0.929 . S
C545 C544 1.362 . S
C545 C546 1.366 . S
C546 C543 1.365 . S
C546 C545 1.366 . S
C546 H560 0.930 . S
C547 C544 1.378 . S
C547 N548 1.315 . S
C547 H550 0.930 . S
N548 Co528 2.194 . S
N548 C543 1.328 . S
N548 C547 1.315 . S
H549 C543 0.929 . S
H550 C547 0.930 . S
H551 C539 0.929 . S
H552 C541 0.929 . S
O553 Co528 2.351 . S
O553 C556 1.244 . S
O554 Co528 2.155 . S
O554 C556 1.240 . S
O555 Co528 2.096 . S
O555 C536 1.247 . S
C556 O553 1.244 . S
C556 O554 1.240 . S
H557 C531 0.931 . S
H558 C540 0.931 . S
H559 C544 0.929 . S
H560 C546 0.930 . S
Co561 N565 2.148 . S
Co561 N571 2.128 . S
Co561 N581 2.194 . S
Co561 O586 2.351 . S
Co561 O587 2.155 . S
Co561 O588 2.096 . S
C562 N565 1.301 . S
C562 N566 1.328 . S
C562 H567 0.930 . S
C563 C564 1.333 . S
C563 N565 1.317 . S
C563 H568 0.930 . S
C564 C563 1.333 . S
C564 N566 1.350 . S
C564 H590 0.931 . S
N565 Co561 2.148 . S
N565 C562 1.301 . S
N565 C563 1.317 . S
N566 C562 1.328 . S
N566 C564 1.350 . S
H567 C562 0.930 . S
H568 C563 0.930 . S
C569 O570 1.224 . S
C569 O588 1.247 . S
O570 C569 1.224 . S
N571 Co561 2.128 . S
N571 C572 1.355 . S
N571 C574 1.311 . S
C572 N571 1.355 . S
C572 C573 1.363 . S
C572 H584 0.929 . S
C573 C572 1.363 . S
C573 N575 1.375 . S
C573 H591 0.931 . S
C574 N571 1.311 . S
C574 N575 1.347 . S
C574 H585 0.929 . S
N575 C573 1.375 . S
N575 C574 1.347 . S
C576 C579 1.365 . S
C576 N581 1.328 . S
C576 H582 0.929 . S
C577 C578 1.362 . S
C577 C580 1.378 . S
C577 H592 0.929 . S
C578 C577 1.362 . S
C578 C579 1.366 . S
C579 C576 1.365 . S
C579 C578 1.366 . S
C579 H593 0.930 . S
C580 C577 1.378 . S
C580 N581 1.315 . S
C580 H583 0.930 . S
N581 Co561 2.194 . S
N581 C576 1.328 . S
N581 C580 1.315 . S
H582 C576 0.929 . S
H583 C580 0.930 . S
H584 C572 0.929 . S
H585 C574 0.929 . S
O586 Co561 2.351 . S
O586 C589 1.244 . S
O587 Co561 2.155 . S
O587 C589 1.240 . S
O588 Co561 2.096 . S
O588 C569 1.247 . S
C589 O586 1.244 . S
C589 O587 1.240 . S
H590 C564 0.931 . S
H591 C573 0.931 . S
H592 C577 0.929 . S
H593 C579 0.930 . S
Co594 N598 2.148 1_455 S
Co594 N604 2.128 . S
Co594 N614 2.194 . S
Co594 O619 2.351 . S
Co594 O620 2.155 . S
Co594 O621 2.096 1_455 S
C595 N598 1.301 . S
C595 N599 1.328 . S
C595 H600 0.930 1_655 S
C596 C597 1.333 . S
C596 N598 1.317 . S
C596 H601 0.930 . S
C597 C596 1.333 . S
C597 N599 1.350 . S
C597 H623 0.931 . S
N598 Co594 2.148 1_655 S
N598 C595 1.301 . S
N598 C596 1.317 . S
N599 C595 1.328 . S
N599 C597 1.350 . S
H600 C595 0.930 1_455 S
H601 C596 0.930 . S
C602 O603 1.224 . S
C602 O621 1.247 . S
O603 C602 1.224 . S
N604 Co594 2.128 . S
N604 C605 1.355 . S
N604 C607 1.311 . S
C605 N604 1.355 . S
C605 C606 1.363 . S
C605 H617 0.929 . S
C606 C605 1.363 . S
C606 N608 1.375 . S
C606 H624 0.931 . S
C607 N604 1.311 . S
C607 N608 1.347 . S
C607 H618 0.929 . S
N608 C606 1.375 . S
N608 C607 1.347 . S
C609 C612 1.365 . S
C609 N614 1.328 . S
C609 H615 0.929 . S
C610 C611 1.362 . S
C610 C613 1.378 . S
C610 H625 0.929 . S
C611 C610 1.362 . S
C611 C612 1.366 . S
C612 C609 1.365 . S
C612 C611 1.366 . S
C612 H626 0.930 . S
C613 C610 1.378 . S
C613 N614 1.315 . S
C613 H616 0.927 . S
N614 Co594 2.194 . S
N614 C609 1.328 . S
N614 C613 1.315 . S
H615 C609 0.929 . S
H616 C613 0.927 . S
H617 C605 0.929 . S
H618 C607 0.929 . S
O619 Co594 2.351 . S
O619 C622 1.244 . S
O620 Co594 2.155 . S
O620 C622 1.240 . S
O621 Co594 2.096 1_655 S
O621 C602 1.247 . S
C622 O619 1.244 . S
C622 O620 1.240 . S
H623 C597 0.931 . S
H624 C606 0.931 . S
H625 C610 0.929 . S
H626 C612 0.930 . S
Co627 N631 2.148 . S
Co627 N637 2.128 . S
Co627 N647 2.194 . S
Co627 O652 2.351 . S
Co627 O653 2.155 . S
Co627 O654 2.096 . S
C628 N631 1.301 . S
C628 N632 1.328 . S
C628 H633 0.930 . S
C629 C630 1.333 . S
C629 N631 1.317 . S
C629 H634 0.930 . S
C630 C629 1.333 . S
C630 N632 1.350 . S
C630 H656 0.931 . S
N631 Co627 2.148 . S
N631 C628 1.301 . S
N631 C629 1.317 . S
N632 C628 1.328 . S
N632 C630 1.350 . S
H633 C628 0.930 . S
H634 C629 0.930 . S
C635 O636 1.224 . S
C635 O654 1.247 . S
O636 C635 1.224 . S
N637 Co627 2.128 . S
N637 C638 1.355 . S
N637 C640 1.311 . S
C638 N637 1.355 . S
C638 C639 1.363 . S
C638 H650 0.929 . S
C639 C638 1.363 . S
C639 N641 1.375 . S
C639 H657 0.931 . S
C640 N637 1.311 . S
C640 N641 1.347 . S
C640 H651 0.929 . S
N641 C639 1.375 . S
N641 C640 1.347 . S
C642 C645 1.365 . S
C642 N647 1.328 . S
C642 H648 0.929 . S
C643 C644 1.362 . S
C643 C646 1.378 . S
C643 H658 0.929 . S
C644 C643 1.362 . S
C644 C645 1.366 . S
C645 C642 1.365 . S
C645 C644 1.366 . S
C645 H659 0.930 . S
C646 C643 1.378 . S
C646 N647 1.315 . S
C646 H649 0.930 . S
N647 Co627 2.194 . S
N647 C642 1.328 . S
N647 C646 1.315 . S
H648 C642 0.929 . S
H649 C646 0.930 . S
H650 C638 0.929 . S
H651 C640 0.929 . S
O652 Co627 2.351 . S
O652 C655 1.244 . S
O653 Co627 2.155 . S
O653 C655 1.240 . S
O654 Co627 2.096 . S
O654 C635 1.247 . S
C655 O652 1.244 . S
C655 O653 1.240 . S
H656 C630 0.931 . S
H657 C639 0.931 . S
H658 C643 0.929 . S
H659 C645 0.930 . S
Co660 N664 2.148 . S
Co660 N670 2.128 . S
Co660 N680 2.194 . S
Co660 O685 2.351 . S
Co660 O686 2.155 . S
Co660 O687 2.096 . S
C661 N664 1.301 . S
C661 N665 1.328 . S
C661 H666 0.930 . S
C662 C663 1.333 . S
C662 N664 1.317 . S
C662 H667 0.930 . S
C663 C662 1.333 . S
C663 N665 1.350 . S
C663 H689 0.931 . S
N664 Co660 2.148 . S
N664 C661 1.301 . S
N664 C662 1.317 . S
N665 C661 1.328 . S
N665 C663 1.350 . S
H666 C661 0.930 . S
H667 C662 0.930 . S
C668 O669 1.224 . S
C668 O687 1.247 . S
O669 C668 1.224 . S
N670 Co660 2.128 . S
N670 C671 1.355 . S
N670 C673 1.311 . S
C671 N670 1.355 . S
C671 C672 1.363 . S
C671 H683 0.929 . S
C672 C671 1.363 . S
C672 N674 1.375 . S
C672 H690 0.931 . S
C673 N670 1.311 . S
C673 N674 1.347 . S
C673 H684 0.929 . S
N674 C672 1.375 . S
N674 C673 1.347 . S
C675 C678 1.365 . S
C675 N680 1.328 . S
C675 H681 0.929 . S
C676 C677 1.362 . S
C676 C679 1.378 . S
C676 H691 0.929 . S
C677 C676 1.362 . S
C677 C678 1.366 . S
C678 C675 1.365 . S
C678 C677 1.366 . S
C678 H692 0.930 . S
C679 C676 1.378 . S
C679 N680 1.315 . S
C679 H682 0.930 . S
N680 Co660 2.194 . S
N680 C675 1.328 . S
N680 C679 1.315 . S
H681 C675 0.929 . S
H682 C679 0.930 . S
H683 C671 0.929 . S
H684 C673 0.929 . S
O685 Co660 2.351 . S
O685 C688 1.244 . S
O686 Co660 2.155 . S
O686 C688 1.240 . S
O687 Co660 2.096 . S
O687 C668 1.247 . S
C688 O685 1.244 . S
C688 O686 1.240 . S
H689 C663 0.931 . S
H690 C672 0.931 . S
H691 C676 0.929 . S
H692 C678 0.930 . S
Co693 N697 2.148 . S
Co693 N703 2.128 . S
Co693 N713 2.194 . S
Co693 O718 2.351 . S
Co693 O719 2.155 . S
Co693 O720 2.096 . S
C694 N697 1.301 . S
C694 N698 1.328 . S
C694 H699 0.930 . S
C695 C696 1.333 . S
C695 N697 1.317 . S
C695 H700 0.930 . S
C696 C695 1.333 . S
C696 N698 1.350 . S
C696 H722 0.931 . S
N697 Co693 2.148 . S
N697 C694 1.301 . S
N697 C695 1.317 . S
N698 C694 1.328 . S
N698 C696 1.350 . S
H699 C694 0.930 . S
H700 C695 0.930 . S
C701 O702 1.224 . S
C701 O720 1.247 . S
O702 C701 1.224 . S
N703 Co693 2.128 . S
N703 C704 1.355 . S
N703 C706 1.311 . S
C704 N703 1.355 . S
C704 C705 1.363 . S
C704 H716 0.929 . S
C705 C704 1.363 . S
C705 N707 1.375 . S
C705 H723 0.931 . S
C706 N703 1.311 . S
C706 N707 1.347 . S
C706 H717 0.929 . S
N707 C705 1.375 . S
N707 C706 1.347 . S
C708 C711 1.365 . S
C708 N713 1.328 . S
C708 H714 0.929 . S
C709 C710 1.362 . S
C709 C712 1.378 . S
C709 H724 0.929 . S
C710 C709 1.362 . S
C710 C711 1.366 . S
C711 C708 1.365 . S
C711 C710 1.366 . S
C711 H725 0.930 . S
C712 C709 1.378 . S
C712 N713 1.315 . S
C712 H715 0.930 . S
N713 Co693 2.194 . S
N713 C708 1.328 . S
N713 C712 1.315 . S
H714 C708 0.929 . S
H715 C712 0.930 . S
H716 C704 0.929 . S
H717 C706 0.929 . S
O718 Co693 2.351 . S
O718 C721 1.244 . S
O719 Co693 2.155 . S
O719 C721 1.240 . S
O720 Co693 2.096 . S
O720 C701 1.247 . S
C721 O718 1.244 . S
C721 O719 1.240 . S
H722 C696 0.931 . S
H723 C705 0.931 . S
H724 C709 0.929 . S
H725 C711 0.930 . S
Co726 N730 2.148 1_455 S
Co726 N736 2.128 . S
Co726 N746 2.194 . S
Co726 O751 2.351 . S
Co726 O752 2.155 . S
Co726 O753 2.096 1_455 S
C727 N730 1.301 . S
C727 N731 1.328 . S
C727 H732 0.930 1_655 S
C728 C729 1.333 . S
C728 N730 1.317 . S
C728 H733 0.930 . S
C729 C728 1.333 . S
C729 N731 1.350 . S
C729 H755 0.931 . S
N730 Co726 2.148 1_655 S
N730 C727 1.301 . S
N730 C728 1.317 . S
N731 C727 1.328 . S
N731 C729 1.350 . S
H732 C727 0.930 1_455 S
H733 C728 0.930 . S
C734 O735 1.224 . S
C734 O753 1.247 . S
O735 C734 1.224 . S
N736 Co726 2.128 . S
N736 C737 1.355 . S
N736 C739 1.311 . S
C737 N736 1.355 . S
C737 C738 1.363 . S
C737 H749 0.929 . S
C738 C737 1.363 . S
C738 N740 1.375 . S
C738 H756 0.931 . S
C739 N736 1.311 . S
C739 N740 1.347 . S
C739 H750 0.929 . S
N740 C738 1.375 . S
N740 C739 1.347 . S
C741 C744 1.365 . S
C741 N746 1.328 . S
C741 H747 0.929 . S
C742 C743 1.362 . S
C742 C745 1.378 . S
C742 H757 0.929 . S
C743 C742 1.362 . S
C743 C744 1.366 . S
C744 C741 1.365 . S
C744 C743 1.366 . S
C744 H758 0.930 . S
C745 C742 1.378 . S
C745 N746 1.315 . S
C745 H748 0.927 . S
N746 Co726 2.194 . S
N746 C741 1.328 . S
N746 C745 1.315 . S
H747 C741 0.929 . S
H748 C745 0.927 . S
H749 C737 0.929 . S
H750 C739 0.929 . S
O751 Co726 2.351 . S
O751 C754 1.244 . S
O752 Co726 2.155 . S
O752 C754 1.240 . S
O753 Co726 2.096 1_655 S
O753 C734 1.247 . S
C754 O751 1.244 . S
C754 O752 1.240 . S
H755 C729 0.931 . S
H756 C738 0.931 . S
H757 C742 0.929 . S
H758 C744 0.930 . S
Co759 N763 2.148 1_655 S
Co759 N769 2.128 . S
Co759 N779 2.194 . S
Co759 O784 2.351 . S
Co759 O785 2.155 . S
Co759 O786 2.096 1_655 S
C760 N763 1.301 . S
C760 N764 1.328 . S
C760 H765 0.930 1_455 S
C761 C762 1.333 . S
C761 N763 1.317 . S
C761 H766 0.930 . S
C762 C761 1.333 . S
C762 N764 1.350 . S
C762 H788 0.931 . S
N763 Co759 2.148 1_455 S
N763 C760 1.301 . S
N763 C761 1.317 . S
N764 C760 1.328 . S
N764 C762 1.350 . S
H765 C760 0.930 1_655 S
H766 C761 0.930 . S
C767 O768 1.224 . S
C767 O786 1.247 . S
O768 C767 1.224 . S
N769 Co759 2.128 . S
N769 C770 1.355 . S
N769 C772 1.311 . S
C770 N769 1.355 . S
C770 C771 1.363 . S
C770 H782 0.929 . S
C771 C770 1.363 . S
C771 N773 1.375 . S
C771 H789 0.931 . S
C772 N769 1.311 . S
C772 N773 1.347 . S
C772 H783 0.929 . S
N773 C771 1.375 . S
N773 C772 1.347 . S
C774 C777 1.365 . S
C774 N779 1.328 . S
C774 H780 0.929 . S
C775 C776 1.362 . S
C775 C778 1.378 . S
C775 H790 0.929 . S
C776 C775 1.362 . S
C776 C777 1.366 . S
C777 C774 1.365 . S
C777 C776 1.366 . S
C777 H791 0.930 . S
C778 C775 1.378 . S
C778 N779 1.315 . S
C778 H781 0.927 . S
N779 Co759 2.194 . S
N779 C774 1.328 . S
N779 C778 1.315 . S
H780 C774 0.929 . S
H781 C778 0.927 . S
H782 C770 0.929 . S
H783 C772 0.929 . S
O784 Co759 2.351 . S
O784 C787 1.244 . S
O785 Co759 2.155 . S
O785 C787 1.240 . S
O786 Co759 2.096 1_455 S
O786 C767 1.247 . S
C787 O784 1.244 . S
C787 O785 1.240 . S
H788 C762 0.931 . S
H789 C771 0.931 . S
H790 C775 0.929 . S
H791 C777 0.930 . S
Co792 N796 2.148 . S
Co792 N802 2.128 . S
Co792 N812 2.194 . S
Co792 O817 2.351 . S
Co792 O818 2.155 . S
Co792 O819 2.096 . S
C793 N796 1.301 . S
C793 N797 1.328 . S
C793 H798 0.930 . S
C794 C795 1.333 . S
C794 N796 1.317 . S
C794 H799 0.930 . S
C795 C794 1.333 . S
C795 N797 1.350 . S
C795 H821 0.931 . S
N796 Co792 2.148 . S
N796 C793 1.301 . S
N796 C794 1.317 . S
N797 C793 1.328 . S
N797 C795 1.350 . S
H798 C793 0.930 . S
H799 C794 0.930 . S
C800 O801 1.224 . S
C800 O819 1.247 . S
O801 C800 1.224 . S
N802 Co792 2.128 . S
N802 C803 1.355 . S
N802 C805 1.311 . S
C803 N802 1.355 . S
C803 C804 1.363 . S
C803 H815 0.929 . S
C804 C803 1.363 . S
C804 N806 1.375 . S
C804 H822 0.931 . S
C805 N802 1.311 . S
C805 N806 1.347 . S
C805 H816 0.929 . S
N806 C804 1.375 . S
N806 C805 1.347 . S
C807 C810 1.365 . S
C807 N812 1.328 . S
C807 H813 0.929 . S
C808 C809 1.362 . S
C808 C811 1.378 . S
C808 H823 0.929 . S
C809 C808 1.362 . S
C809 C810 1.366 . S
C810 C807 1.365 . S
C810 C809 1.366 . S
C810 H824 0.930 . S
C811 C808 1.378 . S
C811 N812 1.315 . S
C811 H814 0.930 . S
N812 Co792 2.194 . S
N812 C807 1.328 . S
N812 C811 1.315 . S
H813 C807 0.929 . S
H814 C811 0.930 . S
H815 C803 0.929 . S
H816 C805 0.929 . S
O817 Co792 2.351 . S
O817 C820 1.244 . S
O818 Co792 2.155 . S
O818 C820 1.240 . S
O819 Co792 2.096 . S
O819 C800 1.247 . S
C820 O817 1.244 . S
C820 O818 1.240 . S
H821 C795 0.931 . S
H822 C804 0.931 . S
H823 C808 0.929 . S
H824 C810 0.930 . S
Co825 N829 2.148 . S
Co825 N835 2.128 . S
Co825 N845 2.194 . S
Co825 O850 2.351 . S
Co825 O851 2.155 . S
Co825 O852 2.096 . S
C826 N829 1.301 . S
C826 N830 1.328 . S
C826 H831 0.930 . S
C827 C828 1.333 . S
C827 N829 1.317 . S
C827 H832 0.930 . S
C828 C827 1.333 . S
C828 N830 1.350 . S
C828 H854 0.931 . S
N829 Co825 2.148 . S
N829 C826 1.301 . S
N829 C827 1.317 . S
N830 C826 1.328 . S
N830 C828 1.350 . S
H831 C826 0.930 . S
H832 C827 0.930 . S
C833 O834 1.224 . S
C833 O852 1.247 . S
O834 C833 1.224 . S
N835 Co825 2.128 . S
N835 C836 1.355 . S
N835 C838 1.311 . S
C836 N835 1.355 . S
C836 C837 1.363 . S
C836 H848 0.929 . S
C837 C836 1.363 . S
C837 N839 1.375 . S
C837 H855 0.931 . S
C838 N835 1.311 . S
C838 N839 1.347 . S
C838 H849 0.929 . S
N839 C837 1.375 . S
N839 C838 1.347 . S
C840 C843 1.365 . S
C840 N845 1.328 . S
C840 H846 0.929 . S
C841 C842 1.362 . S
C841 C844 1.378 . S
C841 H856 0.929 . S
C842 C841 1.362 . S
C842 C843 1.366 . S
C843 C840 1.365 . S
C843 C842 1.366 . S
C843 H857 0.930 . S
C844 C841 1.378 . S
C844 N845 1.315 . S
C844 H847 0.930 . S
N845 Co825 2.194 . S
N845 C840 1.328 . S
N845 C844 1.315 . S
H846 C840 0.929 . S
H847 C844 0.930 . S
H848 C836 0.929 . S
H849 C838 0.929 . S
O850 Co825 2.351 . S
O850 C853 1.244 . S
O851 Co825 2.155 . S
O851 C853 1.240 . S
O852 Co825 2.096 . S
O852 C833 1.247 . S
C853 O850 1.244 . S
C853 O851 1.240 . S
H854 C828 0.931 . S
H855 C837 0.931 . S
H856 C841 0.929 . S
H857 C843 0.930 . S
Co858 N862 2.148 . S
Co858 N868 2.128 . S
Co858 N878 2.194 . S
Co858 O883 2.351 . S
Co858 O884 2.155 . S
Co858 O885 2.096 . S
C859 N862 1.301 . S
C859 N863 1.328 . S
C859 H864 0.930 . S
C860 C861 1.333 . S
C860 N862 1.317 . S
C860 H865 0.930 . S
C861 C860 1.333 . S
C861 N863 1.350 . S
C861 H887 0.931 . S
N862 Co858 2.148 . S
N862 C859 1.301 . S
N862 C860 1.317 . S
N863 C859 1.328 . S
N863 C861 1.350 . S
H864 C859 0.930 . S
H865 C860 0.930 . S
C866 O867 1.224 . S
C866 O885 1.247 . S
O867 C866 1.224 . S
N868 Co858 2.128 . S
N868 C869 1.355 . S
N868 C871 1.311 . S
C869 N868 1.355 . S
C869 C870 1.363 . S
C869 H881 0.929 . S
C870 C869 1.363 . S
C870 N872 1.375 . S
C870 H888 0.931 . S
C871 N868 1.311 . S
C871 N872 1.347 . S
C871 H882 0.929 . S
N872 C870 1.375 . S
N872 C871 1.347 . S
C873 C876 1.365 . S
C873 N878 1.328 . S
C873 H879 0.929 . S
C874 C875 1.362 . S
C874 C877 1.378 . S
C874 H889 0.929 . S
C875 C874 1.362 . S
C875 C876 1.366 . S
C876 C873 1.365 . S
C876 C875 1.366 . S
C876 H890 0.930 . S
C877 C874 1.378 . S
C877 N878 1.315 . S
C877 H880 0.930 . S
N878 Co858 2.194 . S
N878 C873 1.328 . S
N878 C877 1.315 . S
H879 C873 0.929 . S
H880 C877 0.930 . S
H881 C869 0.929 . S
H882 C871 0.929 . S
O883 Co858 2.351 . S
O883 C886 1.244 . S
O884 Co858 2.155 . S
O884 C886 1.240 . S
O885 Co858 2.096 . S
O885 C866 1.247 . S
C886 O883 1.244 . S
C886 O884 1.240 . S
H887 C861 0.931 . S
H888 C870 0.931 . S
H889 C874 0.929 . S
H890 C876 0.930 . S
Co891 N895 2.148 . S
Co891 N901 2.128 . S
Co891 N911 2.194 . S
Co891 O916 2.351 . S
Co891 O917 2.155 . S
Co891 O918 2.096 . S
C892 N895 1.301 . S
C892 N896 1.328 . S
C892 H897 0.930 . S
C893 C894 1.333 . S
C893 N895 1.317 . S
C893 H898 0.930 . S
C894 C893 1.333 . S
C894 N896 1.350 . S
C894 H920 0.931 . S
N895 Co891 2.148 . S
N895 C892 1.301 . S
N895 C893 1.317 . S
N896 C892 1.328 . S
N896 C894 1.350 . S
H897 C892 0.930 . S
H898 C893 0.930 . S
C899 O900 1.224 . S
C899 O918 1.247 . S
O900 C899 1.224 . S
N901 Co891 2.128 . S
N901 C902 1.355 . S
N901 C904 1.311 . S
C902 N901 1.355 . S
C902 C903 1.363 . S
C902 H914 0.929 . S
C903 C902 1.363 . S
C903 N905 1.375 . S
C903 H921 0.931 . S
C904 N901 1.311 . S
C904 N905 1.347 . S
C904 H915 0.929 . S
N905 C903 1.375 . S
N905 C904 1.347 . S
C906 C909 1.365 . S
C906 N911 1.328 . S
C906 H912 0.929 . S
C907 C908 1.362 . S
C907 C910 1.378 . S
C907 H922 0.929 . S
C908 C907 1.362 . S
C908 C909 1.366 . S
C909 C906 1.365 . S
C909 C908 1.366 . S
C909 H923 0.930 . S
C910 C907 1.378 . S
C910 N911 1.315 . S
C910 H913 0.930 . S
N911 Co891 2.194 . S
N911 C906 1.328 . S
N911 C910 1.315 . S
H912 C906 0.929 . S
H913 C910 0.930 . S
H914 C902 0.929 . S
H915 C904 0.929 . S
O916 Co891 2.351 . S
O916 C919 1.244 . S
O917 Co891 2.155 . S
O917 C919 1.240 . S
O918 Co891 2.096 . S
O918 C899 1.247 . S
C919 O916 1.244 . S
C919 O917 1.240 . S
H920 C894 0.931 . S
H921 C903 0.931 . S
H922 C907 0.929 . S
H923 C909 0.930 . S
Co924 N928 2.148 . S
Co924 N934 2.128 . S
Co924 N944 2.194 . S
Co924 O949 2.351 . S
Co924 O950 2.155 . S
Co924 O951 2.096 . S
C925 N928 1.301 . S
C925 N929 1.328 . S
C925 H930 0.930 . S
C926 C927 1.333 . S
C926 N928 1.317 . S
C926 H931 0.930 . S
C927 C926 1.333 . S
C927 N929 1.350 . S
C927 H953 0.931 . S
N928 Co924 2.148 . S
N928 C925 1.301 . S
N928 C926 1.317 . S
N929 C925 1.328 . S
N929 C927 1.350 . S
H930 C925 0.930 . S
H931 C926 0.930 . S
C932 O933 1.224 . S
C932 O951 1.247 . S
O933 C932 1.224 . S
N934 Co924 2.128 . S
N934 C935 1.355 . S
N934 C937 1.311 . S
C935 N934 1.355 . S
C935 C936 1.363 . S
C935 H947 0.929 . S
C936 C935 1.363 . S
C936 N938 1.375 . S
C936 H954 0.931 . S
C937 N934 1.311 . S
C937 N938 1.347 . S
C937 H948 0.929 . S
N938 C936 1.375 . S
N938 C937 1.347 . S
C939 C942 1.365 . S
C939 N944 1.328 . S
C939 H945 0.929 . S
C940 C941 1.362 . S
C940 C943 1.378 . S
C940 H955 0.929 . S
C941 C940 1.362 . S
C941 C942 1.366 . S
C942 C939 1.365 . S
C942 C941 1.366 . S
C942 H956 0.930 . S
C943 C940 1.378 . S
C943 N944 1.315 . S
C943 H946 0.930 . S
N944 Co924 2.194 . S
N944 C939 1.328 . S
N944 C943 1.315 . S
H945 C939 0.929 . S
H946 C943 0.930 . S
H947 C935 0.929 . S
H948 C937 0.929 . S
O949 Co924 2.351 . S
O949 C952 1.244 . S
O950 Co924 2.155 . S
O950 C952 1.240 . S
O951 Co924 2.096 . S
O951 C932 1.247 . S
C952 O949 1.244 . S
C952 O950 1.240 . S
H953 C927 0.931 . S
H954 C936 0.931 . S
H955 C940 0.929 . S
H956 C942 0.930 . S
Co957 N961 2.148 . S
Co957 N967 2.128 . S
Co957 N977 2.194 . S
Co957 O982 2.351 . S
Co957 O983 2.155 . S
Co957 O984 2.096 . S
C958 N961 1.301 . S
C958 N962 1.328 . S
C958 H963 0.930 . S
C959 C960 1.333 . S
C959 N961 1.317 . S
C959 H964 0.930 . S
C960 C959 1.333 . S
C960 N962 1.350 . S
C960 H986 0.931 . S
N961 Co957 2.148 . S
N961 C958 1.301 . S
N961 C959 1.317 . S
N962 C958 1.328 . S
N962 C960 1.350 . S
H963 C958 0.930 . S
H964 C959 0.930 . S
C965 O966 1.224 . S
C965 O984 1.247 . S
O966 C965 1.224 . S
N967 Co957 2.128 . S
N967 C968 1.355 . S
N967 C970 1.311 . S
C968 N967 1.355 . S
C968 C969 1.363 . S
C968 H980 0.929 . S
C969 C968 1.363 . S
C969 N971 1.375 . S
C969 H987 0.931 . S
C970 N967 1.311 . S
C970 N971 1.347 . S
C970 H981 0.929 . S
N971 C969 1.375 . S
N971 C970 1.347 . S
C972 C975 1.365 . S
C972 N977 1.328 . S
C972 H978 0.929 . S
C973 C974 1.362 . S
C973 C976 1.378 . S
C973 H988 0.929 . S
C974 C973 1.362 . S
C974 C975 1.366 . S
C975 C972 1.365 . S
C975 C974 1.366 . S
C975 H989 0.930 . S
C976 C973 1.378 . S
C976 N977 1.315 . S
C976 H979 0.930 . S
N977 Co957 2.194 . S
N977 C972 1.328 . S
N977 C976 1.315 . S
H978 C972 0.929 . S
H979 C976 0.930 . S
H980 C968 0.929 . S
H981 C970 0.929 . S
O982 Co957 2.351 . S
O982 C985 1.244 . S
O983 Co957 2.155 . S
O983 C985 1.240 . S
O984 Co957 2.096 . S
O984 C965 1.247 . S
C985 O982 1.244 . S
C985 O983 1.240 . S
H986 C960 0.931 . S
H987 C969 0.931 . S
H988 C973 0.929 . S
H989 C975 0.930 . S
Co990 N994 2.148 . S
Co990 N1000 2.128 . S
Co990 N1010 2.194 . S
Co990 O1015 2.351 . S
Co990 O1016 2.155 . S
Co990 O1017 2.096 . S
C991 N994 1.301 . S
C991 N995 1.328 . S
C991 H996 0.930 . S
C992 C993 1.333 . S
C992 N994 1.317 . S
C992 H997 0.930 . S
C993 C992 1.333 . S
C993 N995 1.350 . S
C993 H1019 0.931 . S
N994 Co990 2.148 . S
N994 C991 1.301 . S
N994 C992 1.317 . S
N995 C991 1.328 . S
N995 C993 1.350 . S
H996 C991 0.930 . S
H997 C992 0.930 . S
C998 O999 1.224 . S
C998 O1017 1.247 . S
O999 C998 1.224 . S
N1000 Co990 2.128 . S
N1000 C1001 1.355 . S
N1000 C1003 1.311 . S
C1001 N1000 1.355 . S
C1001 C1002 1.363 . S
C1001 H1013 0.929 . S
C1002 C1001 1.363 . S
C1002 N1004 1.375 . S
C1002 H1020 0.931 . S
C1003 N1000 1.311 . S
C1003 N1004 1.347 . S
C1003 H1014 0.929 . S
N1004 C1002 1.375 . S
N1004 C1003 1.347 . S
C1005 C1008 1.365 . S
C1005 N1010 1.328 . S
C1005 H1011 0.929 . S
C1006 C1007 1.362 . S
C1006 C1009 1.378 . S
C1006 H1021 0.929 . S
C1007 C1006 1.362 . S
C1007 C1008 1.366 . S
C1008 C1005 1.365 . S
C1008 C1007 1.366 . S
C1008 H1022 0.930 . S
C1009 C1006 1.378 . S
C1009 N1010 1.315 . S
C1009 H1012 0.930 . S
N1010 Co990 2.194 . S
N1010 C1005 1.328 . S
N1010 C1009 1.315 . S
H1011 C1005 0.929 . S
H1012 C1009 0.930 . S
H1013 C1001 0.929 . S
H1014 C1003 0.929 . S
O1015 Co990 2.351 . S
O1015 C1018 1.244 . S
O1016 Co990 2.155 . S
O1016 C1018 1.240 . S
O1017 Co990 2.096 . S
O1017 C998 1.247 . S
C1018 O1015 1.244 . S
C1018 O1016 1.240 . S
H1019 C993 0.931 . S
H1020 C1002 0.931 . S
H1021 C1006 0.929 . S
H1022 C1008 0.930 . S
Co1023 N1027 2.148 . S
Co1023 N1033 2.128 . S
Co1023 N1043 2.194 . S
Co1023 O1048 2.351 . S
Co1023 O1049 2.155 . S
Co1023 O1050 2.096 . S
C1024 N1027 1.301 . S
C1024 N1028 1.328 . S
C1024 H1029 0.930 . S
C1025 C1026 1.333 . S
C1025 N1027 1.317 . S
C1025 H1030 0.930 . S
C1026 C1025 1.333 . S
C1026 N1028 1.350 . S
C1026 H1052 0.931 . S
N1027 Co1023 2.148 . S
N1027 C1024 1.301 . S
N1027 C1025 1.317 . S
N1028 C1024 1.328 . S
N1028 C1026 1.350 . S
H1029 C1024 0.930 . S
H1030 C1025 0.930 . S
C1031 O1032 1.224 . S
C1031 O1050 1.247 . S
O1032 C1031 1.224 . S
N1033 Co1023 2.128 . S
N1033 C1034 1.355 . S
N1033 C1036 1.311 . S
C1034 N1033 1.355 . S
C1034 C1035 1.363 . S
C1034 H1046 0.929 . S
C1035 C1034 1.363 . S
C1035 N1037 1.375 . S
C1035 H1053 0.931 . S
C1036 N1033 1.311 . S
C1036 N1037 1.347 . S
C1036 H1047 0.929 . S
N1037 C1035 1.375 . S
N1037 C1036 1.347 . S
C1038 C1041 1.365 . S
C1038 N1043 1.328 . S
C1038 H1044 0.929 . S
C1039 C1040 1.362 . S
C1039 C1042 1.378 . S
C1039 H1054 0.929 . S
C1040 C1039 1.362 . S
C1040 C1041 1.366 . S
C1041 C1038 1.365 . S
C1041 C1040 1.366 . S
C1041 H1055 0.930 . S
C1042 C1039 1.378 . S
C1042 N1043 1.315 . S
C1042 H1045 0.930 . S
N1043 Co1023 2.194 . S
N1043 C1038 1.328 . S
N1043 C1042 1.315 . S
H1044 C1038 0.929 . S
H1045 C1042 0.930 . S
H1046 C1034 0.929 . S
H1047 C1036 0.929 . S
O1048 Co1023 2.351 . S
O1048 C1051 1.244 . S
O1049 Co1023 2.155 . S
O1049 C1051 1.240 . S
O1050 Co1023 2.096 . S
O1050 C1031 1.247 . S
C1051 O1048 1.244 . S
C1051 O1049 1.240 . S
H1052 C1026 0.931 . S
H1053 C1035 0.931 . S
H1054 C1039 0.929 . S
H1055 C1041 0.930 . S
Co1056 N1060 2.148 . S
Co1056 N1066 2.128 . S
Co1056 N1076 2.194 . S
Co1056 O1081 2.351 . S
Co1056 O1082 2.155 . S
Co1056 O1083 2.096 . S
C1057 N1060 1.301 . S
C1057 N1061 1.328 . S
C1057 H1062 0.930 . S
C1058 C1059 1.333 . S
C1058 N1060 1.317 . S
C1058 H1063 0.930 . S
C1059 C1058 1.333 . S
C1059 N1061 1.350 . S
C1059 H1085 0.931 . S
N1060 Co1056 2.148 . S
N1060 C1057 1.301 . S
N1060 C1058 1.317 . S
N1061 C1057 1.328 . S
N1061 C1059 1.350 . S
H1062 C1057 0.930 . S
H1063 C1058 0.930 . S
C1064 O1065 1.224 . S
C1064 O1083 1.247 . S
O1065 C1064 1.224 . S
N1066 Co1056 2.128 . S
N1066 C1067 1.355 . S
N1066 C1069 1.311 . S
C1067 N1066 1.355 . S
C1067 C1068 1.363 . S
C1067 H1079 0.929 . S
C1068 C1067 1.363 . S
C1068 N1070 1.375 . S
C1068 H1086 0.931 . S
C1069 N1066 1.311 . S
C1069 N1070 1.347 . S
C1069 H1080 0.929 . S
N1070 C1068 1.375 . S
N1070 C1069 1.347 . S
C1071 C1074 1.365 . S
C1071 N1076 1.328 . S
C1071 H1077 0.929 . S
C1072 C1073 1.362 . S
C1072 C1075 1.378 . S
C1072 H1087 0.929 . S
C1073 C1072 1.362 . S
C1073 C1074 1.366 . S
C1074 C1071 1.365 . S
C1074 C1073 1.366 . S
C1074 H1088 0.930 . S
C1075 C1072 1.378 . S
C1075 N1076 1.315 . S
C1075 H1078 0.930 . S
N1076 Co1056 2.194 . S
N1076 C1071 1.328 . S
N1076 C1075 1.315 . S
H1077 C1071 0.929 . S
H1078 C1075 0.930 . S
H1079 C1067 0.929 . S
H1080 C1069 0.929 . S
O1081 Co1056 2.351 . S
O1081 C1084 1.244 . S
O1082 Co1056 2.155 . S
O1082 C1084 1.240 . S
O1083 Co1056 2.096 . S
O1083 C1064 1.247 . S
C1084 O1081 1.244 . S
C1084 O1082 1.240 . S
H1085 C1059 0.931 . S
H1086 C1068 0.931 . S
H1087 C1072 0.929 . S
H1088 C1074 0.930 . S
Co1089 N1093 2.148 1_545 S
Co1089 N1099 2.128 . S
Co1089 N1109 2.194 . S
Co1089 O1114 2.351 . S
Co1089 O1115 2.155 . S
Co1089 O1116 2.096 1_545 S
C1090 N1093 1.301 . S
C1090 N1094 1.328 . S
C1090 H1095 0.930 1_565 S
C1091 C1092 1.333 . S
C1091 N1093 1.317 . S
C1091 H1096 0.930 . S
C1092 C1091 1.333 . S
C1092 N1094 1.350 . S
C1092 H1118 0.931 . S
N1093 Co1089 2.148 1_565 S
N1093 C1090 1.301 . S
N1093 C1091 1.317 . S
N1094 C1090 1.328 . S
N1094 C1092 1.350 . S
H1095 C1090 0.930 1_545 S
H1096 C1091 0.930 . S
C1097 O1098 1.224 . S
C1097 O1116 1.247 . S
O1098 C1097 1.224 . S
N1099 Co1089 2.128 . S
N1099 C1100 1.355 . S
N1099 C1102 1.311 . S
C1100 N1099 1.355 . S
C1100 C1101 1.363 . S
C1100 H1112 0.929 . S
C1101 C1100 1.363 . S
C1101 N1103 1.375 . S
C1101 H1119 0.931 . S
C1102 N1099 1.311 . S
C1102 N1103 1.347 . S
C1102 H1113 0.929 . S
N1103 C1101 1.375 . S
N1103 C1102 1.347 . S
C1104 C1107 1.365 . S
C1104 N1109 1.328 . S
C1104 H1110 0.929 . S
C1105 C1106 1.362 . S
C1105 C1108 1.378 . S
C1105 H1120 0.929 . S
C1106 C1105 1.362 . S
C1106 C1107 1.366 . S
C1107 C1104 1.365 . S
C1107 C1106 1.366 . S
C1107 H1121 0.930 . S
C1108 C1105 1.378 . S
C1108 N1109 1.315 . S
C1108 H1111 0.927 . S
N1109 Co1089 2.194 . S
N1109 C1104 1.328 . S
N1109 C1108 1.315 . S
H1110 C1104 0.929 . S
H1111 C1108 0.927 . S
H1112 C1100 0.929 . S
H1113 C1102 0.929 . S
O1114 Co1089 2.351 . S
O1114 C1117 1.244 . S
O1115 Co1089 2.155 . S
O1115 C1117 1.240 . S
O1116 Co1089 2.096 1_565 S
O1116 C1097 1.247 . S
C1117 O1114 1.244 . S
C1117 O1115 1.240 . S
H1118 C1092 0.931 . S
H1119 C1101 0.931 . S
H1120 C1105 0.929 . S
H1121 C1107 0.930 . S
Co1122 N1126 2.148 . S
Co1122 N1132 2.128 . S
Co1122 N1142 2.194 . S
Co1122 O1147 2.351 . S
Co1122 O1148 2.155 . S
Co1122 O1149 2.096 . S
C1123 N1126 1.301 . S
C1123 N1127 1.328 . S
C1123 H1128 0.930 . S
C1124 C1125 1.333 . S
C1124 N1126 1.317 . S
C1124 H1129 0.930 . S
C1125 C1124 1.333 . S
C1125 N1127 1.350 . S
C1125 H1151 0.931 . S
N1126 Co1122 2.148 . S
N1126 C1123 1.301 . S
N1126 C1124 1.317 . S
N1127 C1123 1.328 . S
N1127 C1125 1.350 . S
H1128 C1123 0.930 . S
H1129 C1124 0.930 . S
C1130 O1131 1.224 . S
C1130 O1149 1.247 . S
O1131 C1130 1.224 . S
N1132 Co1122 2.128 . S
N1132 C1133 1.355 . S
N1132 C1135 1.311 . S
C1133 N1132 1.355 . S
C1133 C1134 1.363 . S
C1133 H1145 0.929 . S
C1134 C1133 1.363 . S
C1134 N1136 1.375 . S
C1134 H1152 0.931 . S
C1135 N1132 1.311 . S
C1135 N1136 1.347 . S
C1135 H1146 0.929 . S
N1136 C1134 1.375 . S
N1136 C1135 1.347 . S
C1137 C1140 1.365 . S
C1137 N1142 1.328 . S
C1137 H1143 0.929 . S
C1138 C1139 1.362 . S
C1138 C1141 1.378 . S
C1138 H1153 0.929 . S
C1139 C1138 1.362 . S
C1139 C1140 1.366 . S
C1140 C1137 1.365 . S
C1140 C1139 1.366 . S
C1140 H1154 0.930 . S
C1141 C1138 1.378 . S
C1141 N1142 1.315 . S
C1141 H1144 0.930 . S
N1142 Co1122 2.194 . S
N1142 C1137 1.328 . S
N1142 C1141 1.315 . S
H1143 C1137 0.929 . S
H1144 C1141 0.930 . S
H1145 C1133 0.929 . S
H1146 C1135 0.929 . S
O1147 Co1122 2.351 . S
O1147 C1150 1.244 . S
O1148 Co1122 2.155 . S
O1148 C1150 1.240 . S
O1149 Co1122 2.096 . S
O1149 C1130 1.247 . S
C1150 O1147 1.244 . S
C1150 O1148 1.240 . S
H1151 C1125 0.931 . S
H1152 C1134 0.931 . S
H1153 C1138 0.929 . S
H1154 C1140 0.930 . S
Co1155 N1159 2.148 . S
Co1155 N1165 2.128 . S
Co1155 N1175 2.194 . S
Co1155 O1180 2.351 . S
Co1155 O1181 2.155 . S
Co1155 O1182 2.096 . S
C1156 N1159 1.301 . S
C1156 N1160 1.328 . S
C1156 H1161 0.930 . S
C1157 C1158 1.333 . S
C1157 N1159 1.317 . S
C1157 H1162 0.930 . S
C1158 C1157 1.333 . S
C1158 N1160 1.350 . S
C1158 H1184 0.931 . S
N1159 Co1155 2.148 . S
N1159 C1156 1.301 . S
N1159 C1157 1.317 . S
N1160 C1156 1.328 . S
N1160 C1158 1.350 . S
H1161 C1156 0.930 . S
H1162 C1157 0.930 . S
C1163 O1164 1.224 . S
C1163 O1182 1.247 . S
O1164 C1163 1.224 . S
N1165 Co1155 2.128 . S
N1165 C1166 1.355 . S
N1165 C1168 1.311 . S
C1166 N1165 1.355 . S
C1166 C1167 1.363 . S
C1166 H1178 0.929 . S
C1167 C1166 1.363 . S
C1167 N1169 1.375 . S
C1167 H1185 0.931 . S
C1168 N1165 1.311 . S
C1168 N1169 1.347 . S
C1168 H1179 0.929 . S
N1169 C1167 1.375 . S
N1169 C1168 1.347 . S
C1170 C1173 1.365 . S
C1170 N1175 1.328 . S
C1170 H1176 0.929 . S
C1171 C1172 1.362 . S
C1171 C1174 1.378 . S
C1171 H1186 0.929 . S
C1172 C1171 1.362 . S
C1172 C1173 1.366 . S
C1173 C1170 1.365 . S
C1173 C1172 1.366 . S
C1173 H1187 0.930 . S
C1174 C1171 1.378 . S
C1174 N1175 1.315 . S
C1174 H1177 0.930 . S
N1175 Co1155 2.194 . S
N1175 C1170 1.328 . S
N1175 C1174 1.315 . S
H1176 C1170 0.929 . S
H1177 C1174 0.930 . S
H1178 C1166 0.929 . S
H1179 C1168 0.929 . S
O1180 Co1155 2.351 . S
O1180 C1183 1.244 . S
O1181 Co1155 2.155 . S
O1181 C1183 1.240 . S
O1182 Co1155 2.096 . S
O1182 C1163 1.247 . S
C1183 O1180 1.244 . S
C1183 O1181 1.240 . S
H1184 C1158 0.931 . S
H1185 C1167 0.931 . S
H1186 C1171 0.929 . S
H1187 C1173 0.930 . S
Co1188 N1192 2.148 . S
Co1188 N1198 2.128 . S
Co1188 N1208 2.194 . S
Co1188 O1213 2.351 . S
Co1188 O1214 2.155 . S
Co1188 O1215 2.096 . S
C1189 N1192 1.301 . S
C1189 N1193 1.328 . S
C1189 H1194 0.930 . S
C1190 C1191 1.333 . S
C1190 N1192 1.317 . S
C1190 H1195 0.930 . S
C1191 C1190 1.333 . S
C1191 N1193 1.350 . S
C1191 H1217 0.931 . S
N1192 Co1188 2.148 . S
N1192 C1189 1.301 . S
N1192 C1190 1.317 . S
N1193 C1189 1.328 . S
N1193 C1191 1.350 . S
H1194 C1189 0.930 . S
H1195 C1190 0.930 . S
C1196 O1197 1.224 . S
C1196 O1215 1.247 . S
O1197 C1196 1.224 . S
N1198 Co1188 2.128 . S
N1198 C1199 1.355 . S
N1198 C1201 1.311 . S
C1199 N1198 1.355 . S
C1199 C1200 1.363 . S
C1199 H1211 0.929 . S
C1200 C1199 1.363 . S
C1200 N1202 1.375 . S
C1200 H1218 0.931 . S
C1201 N1198 1.311 . S
C1201 N1202 1.347 . S
C1201 H1212 0.929 . S
N1202 C1200 1.375 . S
N1202 C1201 1.347 . S
C1203 C1206 1.365 . S
C1203 N1208 1.328 . S
C1203 H1209 0.929 . S
C1204 C1205 1.362 . S
C1204 C1207 1.378 . S
C1204 H1219 0.929 . S
C1205 C1204 1.362 . S
C1205 C1206 1.366 . S
C1206 C1203 1.365 . S
C1206 C1205 1.366 . S
C1206 H1220 0.930 . S
C1207 C1204 1.378 . S
C1207 N1208 1.315 . S
C1207 H1210 0.930 . S
N1208 Co1188 2.194 . S
N1208 C1203 1.328 . S
N1208 C1207 1.315 . S
H1209 C1203 0.929 . S
H1210 C1207 0.930 . S
H1211 C1199 0.929 . S
H1212 C1201 0.929 . S
O1213 Co1188 2.351 . S
O1213 C1216 1.244 . S
O1214 Co1188 2.155 . S
O1214 C1216 1.240 . S
O1215 Co1188 2.096 . S
O1215 C1196 1.247 . S
C1216 O1213 1.244 . S
C1216 O1214 1.240 . S
H1217 C1191 0.931 . S
H1218 C1200 0.931 . S
H1219 C1204 0.929 . S
H1220 C1206 0.930 . S
Co1221 N1225 2.148 1_545 S
Co1221 N1231 2.128 . S
Co1221 N1241 2.194 . S
Co1221 O1246 2.351 . S
Co1221 O1247 2.155 . S
Co1221 O1248 2.096 1_545 S
C1222 N1225 1.301 . S
C1222 N1226 1.328 . S
C1222 H1227 0.930 1_565 S
C1223 C1224 1.333 . S
C1223 N1225 1.317 . S
C1223 H1228 0.930 . S
C1224 C1223 1.333 . S
C1224 N1226 1.350 . S
C1224 H1250 0.931 . S
N1225 Co1221 2.148 1_565 S
N1225 C1222 1.301 . S
N1225 C1223 1.317 . S
N1226 C1222 1.328 . S
N1226 C1224 1.350 . S
H1227 C1222 0.930 1_545 S
H1228 C1223 0.930 . S
C1229 O1230 1.224 . S
C1229 O1248 1.247 . S
O1230 C1229 1.224 . S
N1231 Co1221 2.128 . S
N1231 C1232 1.355 . S
N1231 C1234 1.311 . S
C1232 N1231 1.355 . S
C1232 C1233 1.363 . S
C1232 H1244 0.929 . S
C1233 C1232 1.363 . S
C1233 N1235 1.375 . S
C1233 H1251 0.931 . S
C1234 N1231 1.311 . S
C1234 N1235 1.347 . S
C1234 H1245 0.929 . S
N1235 C1233 1.375 . S
N1235 C1234 1.347 . S
C1236 C1239 1.365 . S
C1236 N1241 1.328 . S
C1236 H1242 0.929 . S
C1237 C1238 1.362 . S
C1237 C1240 1.378 . S
C1237 H1252 0.929 . S
C1238 C1237 1.362 . S
C1238 C1239 1.366 . S
C1239 C1236 1.365 . S
C1239 C1238 1.366 . S
C1239 H1253 0.930 . S
C1240 C1237 1.378 . S
C1240 N1241 1.315 . S
C1240 H1243 0.927 . S
N1241 Co1221 2.194 . S
N1241 C1236 1.328 . S
N1241 C1240 1.315 . S
H1242 C1236 0.929 . S
H1243 C1240 0.927 . S
H1244 C1232 0.929 . S
H1245 C1234 0.929 . S
O1246 Co1221 2.351 . S
O1246 C1249 1.244 . S
O1247 Co1221 2.155 . S
O1247 C1249 1.240 . S
O1248 Co1221 2.096 1_565 S
O1248 C1229 1.247 . S
C1249 O1246 1.244 . S
C1249 O1247 1.240 . S
H1250 C1224 0.931 . S
H1251 C1233 0.931 . S
H1252 C1237 0.929 . S
H1253 C1239 0.930 . S
Co1254 N1258 2.148 . S
Co1254 N1264 2.128 . S
Co1254 N1274 2.194 . S
Co1254 O1279 2.351 . S
Co1254 O1280 2.155 . S
Co1254 O1281 2.096 . S
C1255 N1258 1.301 . S
C1255 N1259 1.328 . S
C1255 H1260 0.930 . S
C1256 C1257 1.333 . S
C1256 N1258 1.317 . S
C1256 H1261 0.930 . S
C1257 C1256 1.333 . S
C1257 N1259 1.350 . S
C1257 H1283 0.931 . S
N1258 Co1254 2.148 . S
N1258 C1255 1.301 . S
N1258 C1256 1.317 . S
N1259 C1255 1.328 . S
N1259 C1257 1.350 . S
H1260 C1255 0.930 . S
H1261 C1256 0.930 . S
C1262 O1263 1.224 . S
C1262 O1281 1.247 . S
O1263 C1262 1.224 . S
N1264 Co1254 2.128 . S
N1264 C1265 1.355 . S
N1264 C1267 1.311 . S
C1265 N1264 1.355 . S
C1265 C1266 1.363 . S
C1265 H1277 0.929 . S
C1266 C1265 1.363 . S
C1266 N1268 1.375 . S
C1266 H1284 0.931 . S
C1267 N1264 1.311 . S
C1267 N1268 1.347 . S
C1267 H1278 0.929 . S
N1268 C1266 1.375 . S
N1268 C1267 1.347 . S
C1269 C1272 1.365 . S
C1269 N1274 1.328 . S
C1269 H1275 0.929 . S
C1270 C1271 1.362 . S
C1270 C1273 1.378 . S
C1270 H1285 0.929 . S
C1271 C1270 1.362 . S
C1271 C1272 1.366 . S
C1272 C1269 1.365 . S
C1272 C1271 1.366 . S
C1272 H1286 0.930 . S
C1273 C1270 1.378 . S
C1273 N1274 1.315 . S
C1273 H1276 0.930 . S
N1274 Co1254 2.194 . S
N1274 C1269 1.328 . S
N1274 C1273 1.315 . S
H1275 C1269 0.929 . S
H1276 C1273 0.930 . S
H1277 C1265 0.929 . S
H1278 C1267 0.929 . S
O1279 Co1254 2.351 . S
O1279 C1282 1.244 . S
O1280 Co1254 2.155 . S
O1280 C1282 1.240 . S
O1281 Co1254 2.096 . S
O1281 C1262 1.247 . S
C1282 O1279 1.244 . S
C1282 O1280 1.240 . S
H1283 C1257 0.931 . S
H1284 C1266 0.931 . S
H1285 C1270 0.929 . S
H1286 C1272 0.930 . S
Co1287 N1291 2.148 . S
Co1287 N1297 2.128 . S
Co1287 N1307 2.194 . S
Co1287 O1312 2.351 . S
Co1287 O1313 2.155 . S
Co1287 O1314 2.096 . S
C1288 N1291 1.301 . S
C1288 N1292 1.328 . S
C1288 H1293 0.930 . S
C1289 C1290 1.333 . S
C1289 N1291 1.317 . S
C1289 H1294 0.930 . S
C1290 C1289 1.333 . S
C1290 N1292 1.350 . S
C1290 H1316 0.931 . S
N1291 Co1287 2.148 . S
N1291 C1288 1.301 . S
N1291 C1289 1.317 . S
N1292 C1288 1.328 . S
N1292 C1290 1.350 . S
H1293 C1288 0.930 . S
H1294 C1289 0.930 . S
C1295 O1296 1.224 . S
C1295 O1314 1.247 . S
O1296 C1295 1.224 . S
N1297 Co1287 2.128 . S
N1297 C1298 1.355 . S
N1297 C1300 1.311 . S
C1298 N1297 1.355 . S
C1298 C1299 1.363 . S
C1298 H1310 0.929 . S
C1299 C1298 1.363 . S
C1299 N1301 1.375 . S
C1299 H1317 0.931 . S
C1300 N1297 1.311 . S
C1300 N1301 1.347 . S
C1300 H1311 0.929 . S
N1301 C1299 1.375 . S
N1301 C1300 1.347 . S
C1302 C1305 1.365 . S
C1302 N1307 1.328 . S
C1302 H1308 0.929 . S
C1303 C1304 1.362 . S
C1303 C1306 1.378 . S
C1303 H1318 0.929 . S
C1304 C1303 1.362 . S
C1304 C1305 1.366 . S
C1305 C1302 1.365 . S
C1305 C1304 1.366 . S
C1305 H1319 0.930 . S
C1306 C1303 1.378 . S
C1306 N1307 1.315 . S
C1306 H1309 0.930 . S
N1307 Co1287 2.194 . S
N1307 C1302 1.328 . S
N1307 C1306 1.315 . S
H1308 C1302 0.929 . S
H1309 C1306 0.930 . S
H1310 C1298 0.929 . S
H1311 C1300 0.929 . S
O1312 Co1287 2.351 . S
O1312 C1315 1.244 . S
O1313 Co1287 2.155 . S
O1313 C1315 1.240 . S
O1314 Co1287 2.096 . S
O1314 C1295 1.247 . S
C1315 O1312 1.244 . S
C1315 O1313 1.240 . S
H1316 C1290 0.931 . S
H1317 C1299 0.931 . S
H1318 C1303 0.929 . S
H1319 C1305 0.930 . S
Co1320 N1324 2.148 . S
Co1320 N1330 2.128 . S
Co1320 N1340 2.194 . S
Co1320 O1345 2.351 . S
Co1320 O1346 2.155 . S
Co1320 O1347 2.096 . S
C1321 N1324 1.301 . S
C1321 N1325 1.328 . S
C1321 H1326 0.930 . S
C1322 C1323 1.333 . S
C1322 N1324 1.317 . S
C1322 H1327 0.930 . S
C1323 C1322 1.333 . S
C1323 N1325 1.350 . S
C1323 H1349 0.931 . S
N1324 Co1320 2.148 . S
N1324 C1321 1.301 . S
N1324 C1322 1.317 . S
N1325 C1321 1.328 . S
N1325 C1323 1.350 . S
H1326 C1321 0.930 . S
H1327 C1322 0.930 . S
C1328 O1329 1.224 . S
C1328 O1347 1.247 . S
O1329 C1328 1.224 . S
N1330 Co1320 2.128 . S
N1330 C1331 1.355 . S
N1330 C1333 1.311 . S
C1331 N1330 1.355 . S
C1331 C1332 1.363 . S
C1331 H1343 0.929 . S
C1332 C1331 1.363 . S
C1332 N1334 1.375 . S
C1332 H1350 0.931 . S
C1333 N1330 1.311 . S
C1333 N1334 1.347 . S
C1333 H1344 0.929 . S
N1334 C1332 1.375 . S
N1334 C1333 1.347 . S
C1335 C1338 1.365 . S
C1335 N1340 1.328 . S
C1335 H1341 0.929 . S
C1336 C1337 1.362 . S
C1336 C1339 1.378 . S
C1336 H1351 0.929 . S
C1337 C1336 1.362 . S
C1337 C1338 1.366 . S
C1338 C1335 1.365 . S
C1338 C1337 1.366 . S
C1338 H1352 0.930 . S
C1339 C1336 1.378 . S
C1339 N1340 1.315 . S
C1339 H1342 0.930 . S
N1340 Co1320 2.194 . S
N1340 C1335 1.328 . S
N1340 C1339 1.315 . S
H1341 C1335 0.929 . S
H1342 C1339 0.930 . S
H1343 C1331 0.929 . S
H1344 C1333 0.929 . S
O1345 Co1320 2.351 . S
O1345 C1348 1.244 . S
O1346 Co1320 2.155 . S
O1346 C1348 1.240 . S
O1347 Co1320 2.096 . S
O1347 C1328 1.247 . S
C1348 O1345 1.244 . S
C1348 O1346 1.240 . S
H1349 C1323 0.931 . S
H1350 C1332 0.931 . S
H1351 C1336 0.929 . S
H1352 C1338 0.930 . S
Co1353 N1357 2.148 . S
Co1353 N1363 2.128 . S
Co1353 N1373 2.194 . S
Co1353 O1378 2.351 . S
Co1353 O1379 2.155 . S
Co1353 O1380 2.096 . S
C1354 N1357 1.301 . S
C1354 N1358 1.328 . S
C1354 H1359 0.930 . S
C1355 C1356 1.333 . S
C1355 N1357 1.317 . S
C1355 H1360 0.930 . S
C1356 C1355 1.333 . S
C1356 N1358 1.350 . S
C1356 H1382 0.931 . S
N1357 Co1353 2.148 . S
N1357 C1354 1.301 . S
N1357 C1355 1.317 . S
N1358 C1354 1.328 . S
N1358 C1356 1.350 . S
H1359 C1354 0.930 . S
H1360 C1355 0.930 . S
C1361 O1362 1.224 . S
C1361 O1380 1.247 . S
O1362 C1361 1.224 . S
N1363 Co1353 2.128 . S
N1363 C1364 1.355 . S
N1363 C1366 1.311 . S
C1364 N1363 1.355 . S
C1364 C1365 1.363 . S
C1364 H1376 0.929 . S
C1365 C1364 1.363 . S
C1365 N1367 1.375 . S
C1365 H1383 0.931 . S
C1366 N1363 1.311 . S
C1366 N1367 1.347 . S
C1366 H1377 0.929 . S
N1367 C1365 1.375 . S
N1367 C1366 1.347 . S
C1368 C1371 1.365 . S
C1368 N1373 1.328 . S
C1368 H1374 0.929 . S
C1369 C1370 1.362 . S
C1369 C1372 1.378 . S
C1369 H1384 0.929 . S
C1370 C1369 1.362 . S
C1370 C1371 1.366 . S
C1371 C1368 1.365 . S
C1371 C1370 1.366 . S
C1371 H1385 0.930 . S
C1372 C1369 1.378 . S
C1372 N1373 1.315 . S
C1372 H1375 0.930 . S
N1373 Co1353 2.194 . S
N1373 C1368 1.328 . S
N1373 C1372 1.315 . S
H1374 C1368 0.929 . S
H1375 C1372 0.930 . S
H1376 C1364 0.929 . S
H1377 C1366 0.929 . S
O1378 Co1353 2.351 . S
O1378 C1381 1.244 . S
O1379 Co1353 2.155 . S
O1379 C1381 1.240 . S
O1380 Co1353 2.096 . S
O1380 C1361 1.247 . S
C1381 O1378 1.244 . S
C1381 O1379 1.240 . S
H1382 C1356 0.931 . S
H1383 C1365 0.931 . S
H1384 C1369 0.929 . S
H1385 C1371 0.930 . S
Co1386 N1390 2.148 . S
Co1386 N1396 2.128 . S
Co1386 N1406 2.194 . S
Co1386 O1411 2.351 . S
Co1386 O1412 2.155 . S
Co1386 O1413 2.096 . S
C1387 N1390 1.301 . S
C1387 N1391 1.328 . S
C1387 H1392 0.930 . S
C1388 C1389 1.333 . S
C1388 N1390 1.317 . S
C1388 H1393 0.930 . S
C1389 C1388 1.333 . S
C1389 N1391 1.350 . S
C1389 H1415 0.931 . S
N1390 Co1386 2.148 . S
N1390 C1387 1.301 . S
N1390 C1388 1.317 . S
N1391 C1387 1.328 . S
N1391 C1389 1.350 . S
H1392 C1387 0.930 . S
H1393 C1388 0.930 . S
C1394 O1395 1.224 . S
C1394 O1413 1.247 . S
O1395 C1394 1.224 . S
N1396 Co1386 2.128 . S
N1396 C1397 1.355 . S
N1396 C1399 1.311 . S
C1397 N1396 1.355 . S
C1397 C1398 1.363 . S
C1397 H1409 0.929 . S
C1398 C1397 1.363 . S
C1398 N1400 1.375 . S
C1398 H1416 0.931 . S
C1399 N1396 1.311 . S
C1399 N1400 1.347 . S
C1399 H1410 0.929 . S
N1400 C1398 1.375 . S
N1400 C1399 1.347 . S
C1401 C1404 1.365 . S
C1401 N1406 1.328 . S
C1401 H1407 0.929 . S
C1402 C1403 1.362 . S
C1402 C1405 1.378 . S
C1402 H1417 0.929 . S
C1403 C1402 1.362 . S
C1403 C1404 1.366 . S
C1404 C1401 1.365 . S
C1404 C1403 1.366 . S
C1404 H1418 0.930 . S
C1405 C1402 1.378 . S
C1405 N1406 1.315 . S
C1405 H1408 0.930 . S
N1406 Co1386 2.194 . S
N1406 C1401 1.328 . S
N1406 C1405 1.315 . S
H1407 C1401 0.929 . S
H1408 C1405 0.930 . S
H1409 C1397 0.929 . S
H1410 C1399 0.929 . S
O1411 Co1386 2.351 . S
O1411 C1414 1.244 . S
O1412 Co1386 2.155 . S
O1412 C1414 1.240 . S
O1413 Co1386 2.096 . S
O1413 C1394 1.247 . S
C1414 O1411 1.244 . S
C1414 O1412 1.240 . S
H1415 C1389 0.931 . S
H1416 C1398 0.931 . S
H1417 C1402 0.929 . S
H1418 C1404 0.930 . S
Co1419 N1423 2.148 . S
Co1419 N1429 2.128 . S
Co1419 N1439 2.194 . S
Co1419 O1444 2.351 . S
Co1419 O1445 2.155 . S
Co1419 O1446 2.096 . S
C1420 N1423 1.301 . S
C1420 N1424 1.328 . S
C1420 H1425 0.930 . S
C1421 C1422 1.333 . S
C1421 N1423 1.317 . S
C1421 H1426 0.930 . S
C1422 C1421 1.333 . S
C1422 N1424 1.350 . S
C1422 H1448 0.931 . S
N1423 Co1419 2.148 . S
N1423 C1420 1.301 . S
N1423 C1421 1.317 . S
N1424 C1420 1.328 . S
N1424 C1422 1.350 . S
H1425 C1420 0.930 . S
H1426 C1421 0.930 . S
C1427 O1428 1.224 . S
C1427 O1446 1.247 . S
O1428 C1427 1.224 . S
N1429 Co1419 2.128 . S
N1429 C1430 1.355 . S
N1429 C1432 1.311 . S
C1430 N1429 1.355 . S
C1430 C1431 1.363 . S
C1430 H1442 0.929 . S
C1431 C1430 1.363 . S
C1431 N1433 1.375 . S
C1431 H1449 0.931 . S
C1432 N1429 1.311 . S
C1432 N1433 1.347 . S
C1432 H1443 0.929 . S
N1433 C1431 1.375 . S
N1433 C1432 1.347 . S
C1434 C1437 1.365 . S
C1434 N1439 1.328 . S
C1434 H1440 0.929 . S
C1435 C1436 1.362 . S
C1435 C1438 1.378 . S
C1435 H1450 0.929 . S
C1436 C1435 1.362 . S
C1436 C1437 1.366 . S
C1437 C1434 1.365 . S
C1437 C1436 1.366 . S
C1437 H1451 0.930 . S
C1438 C1435 1.378 . S
C1438 N1439 1.315 . S
C1438 H1441 0.930 . S
N1439 Co1419 2.194 . S
N1439 C1434 1.328 . S
N1439 C1438 1.315 . S
H1440 C1434 0.929 . S
H1441 C1438 0.930 . S
H1442 C1430 0.929 . S
H1443 C1432 0.929 . S
O1444 Co1419 2.351 . S
O1444 C1447 1.244 . S
O1445 Co1419 2.155 . S
O1445 C1447 1.240 . S
O1446 Co1419 2.096 . S
O1446 C1427 1.247 . S
C1447 O1444 1.244 . S
C1447 O1445 1.240 . S
H1448 C1422 0.931 . S
H1449 C1431 0.931 . S
H1450 C1435 0.929 . S
H1451 C1437 0.930 . S
Co1452 N1456 2.148 1_655 S
Co1452 N1462 2.128 . S
Co1452 N1472 2.194 . S
Co1452 O1477 2.351 . S
Co1452 O1478 2.155 . S
Co1452 O1479 2.096 1_655 S
C1453 N1456 1.301 . S
C1453 N1457 1.328 . S
C1453 H1458 0.930 1_455 S
C1454 C1455 1.333 . S
C1454 N1456 1.317 . S
C1454 H1459 0.930 . S
C1455 C1454 1.333 . S
C1455 N1457 1.350 . S
C1455 H1481 0.931 . S
N1456 Co1452 2.148 1_455 S
N1456 C1453 1.301 . S
N1456 C1454 1.317 . S
N1457 C1453 1.328 . S
N1457 C1455 1.350 . S
H1458 C1453 0.930 1_655 S
H1459 C1454 0.930 . S
C1460 O1461 1.224 . S
C1460 O1479 1.247 . S
O1461 C1460 1.224 . S
N1462 Co1452 2.128 . S
N1462 C1463 1.355 . S
N1462 C1465 1.311 . S
C1463 N1462 1.355 . S
C1463 C1464 1.363 . S
C1463 H1475 0.929 . S
C1464 C1463 1.363 . S
C1464 N1466 1.375 . S
C1464 H1482 0.931 . S
C1465 N1462 1.311 . S
C1465 N1466 1.347 . S
C1465 H1476 0.929 . S
N1466 C1464 1.375 . S
N1466 C1465 1.347 . S
C1467 C1470 1.365 . S
C1467 N1472 1.328 . S
C1467 H1473 0.929 . S
C1468 C1469 1.362 . S
C1468 C1471 1.378 . S
C1468 H1483 0.929 . S
C1469 C1468 1.362 . S
C1469 C1470 1.366 . S
C1470 C1467 1.365 . S
C1470 C1469 1.366 . S
C1470 H1484 0.930 . S
C1471 C1468 1.378 . S
C1471 N1472 1.315 . S
C1471 H1474 0.927 . S
N1472 Co1452 2.194 . S
N1472 C1467 1.328 . S
N1472 C1471 1.315 . S
H1473 C1467 0.929 . S
H1474 C1471 0.927 . S
H1475 C1463 0.929 . S
H1476 C1465 0.929 . S
O1477 Co1452 2.351 . S
O1477 C1480 1.244 . S
O1478 Co1452 2.155 . S
O1478 C1480 1.240 . S
O1479 Co1452 2.096 1_455 S
O1479 C1460 1.247 . S
C1480 O1477 1.244 . S
C1480 O1478 1.240 . S
H1481 C1455 0.931 . S
H1482 C1464 0.931 . S
H1483 C1468 0.929 . S
H1484 C1470 0.930 . S
Co1485 N1489 2.148 . S
Co1485 N1495 2.128 . S
Co1485 N1505 2.194 . S
Co1485 O1510 2.351 . S
Co1485 O1511 2.155 . S
Co1485 O1512 2.096 . S
C1486 N1489 1.301 . S
C1486 N1490 1.328 . S
C1486 H1491 0.930 . S
C1487 C1488 1.333 . S
C1487 N1489 1.317 . S
C1487 H1492 0.930 . S
C1488 C1487 1.333 . S
C1488 N1490 1.350 . S
C1488 H1514 0.931 . S
N1489 Co1485 2.148 . S
N1489 C1486 1.301 . S
N1489 C1487 1.317 . S
N1490 C1486 1.328 . S
N1490 C1488 1.350 . S
H1491 C1486 0.930 . S
H1492 C1487 0.930 . S
C1493 O1494 1.224 . S
C1493 O1512 1.247 . S
O1494 C1493 1.224 . S
N1495 Co1485 2.128 . S
N1495 C1496 1.355 . S
N1495 C1498 1.311 . S
C1496 N1495 1.355 . S
C1496 C1497 1.363 . S
C1496 H1508 0.929 . S
C1497 C1496 1.363 . S
C1497 N1499 1.375 . S
C1497 H1515 0.931 . S
C1498 N1495 1.311 . S
C1498 N1499 1.347 . S
C1498 H1509 0.929 . S
N1499 C1497 1.375 . S
N1499 C1498 1.347 . S
C1500 C1503 1.365 . S
C1500 N1505 1.328 . S
C1500 H1506 0.929 . S
C1501 C1502 1.362 . S
C1501 C1504 1.378 . S
C1501 H1516 0.929 . S
C1502 C1501 1.362 . S
C1502 C1503 1.366 . S
C1503 C1500 1.365 . S
C1503 C1502 1.366 . S
C1503 H1517 0.930 . S
C1504 C1501 1.378 . S
C1504 N1505 1.315 . S
C1504 H1507 0.930 . S
N1505 Co1485 2.194 . S
N1505 C1500 1.328 . S
N1505 C1504 1.315 . S
H1506 C1500 0.929 . S
H1507 C1504 0.930 . S
H1508 C1496 0.929 . S
H1509 C1498 0.929 . S
O1510 Co1485 2.351 . S
O1510 C1513 1.244 . S
O1511 Co1485 2.155 . S
O1511 C1513 1.240 . S
O1512 Co1485 2.096 . S
O1512 C1493 1.247 . S
C1513 O1510 1.244 . S
C1513 O1511 1.240 . S
H1514 C1488 0.931 . S
H1515 C1497 0.931 . S
H1516 C1501 0.929 . S
H1517 C1503 0.930 . S
Co1518 N1522 2.148 . S
Co1518 N1528 2.128 . S
Co1518 N1538 2.194 . S
Co1518 O1543 2.351 . S
Co1518 O1544 2.155 . S
Co1518 O1545 2.096 . S
C1519 N1522 1.301 . S
C1519 N1523 1.328 . S
C1519 H1524 0.930 . S
C1520 C1521 1.333 . S
C1520 N1522 1.317 . S
C1520 H1525 0.930 . S
C1521 C1520 1.333 . S
C1521 N1523 1.350 . S
C1521 H1547 0.931 . S
N1522 Co1518 2.148 . S
N1522 C1519 1.301 . S
N1522 C1520 1.317 . S
N1523 C1519 1.328 . S
N1523 C1521 1.350 . S
H1524 C1519 0.930 . S
H1525 C1520 0.930 . S
C1526 O1527 1.224 . S
C1526 O1545 1.247 . S
O1527 C1526 1.224 . S
N1528 Co1518 2.128 . S
N1528 C1529 1.355 . S
N1528 C1531 1.311 . S
C1529 N1528 1.355 . S
C1529 C1530 1.363 . S
C1529 H1541 0.929 . S
C1530 C1529 1.363 . S
C1530 N1532 1.375 . S
C1530 H1548 0.931 . S
C1531 N1528 1.311 . S
C1531 N1532 1.347 . S
C1531 H1542 0.929 . S
N1532 C1530 1.375 . S
N1532 C1531 1.347 . S
C1533 C1536 1.365 . S
C1533 N1538 1.328 . S
C1533 H1539 0.929 . S
C1534 C1535 1.362 . S
C1534 C1537 1.378 . S
C1534 H1549 0.929 . S
C1535 C1534 1.362 . S
C1535 C1536 1.366 . S
C1536 C1533 1.365 . S
C1536 C1535 1.366 . S
C1536 H1550 0.930 . S
C1537 C1534 1.378 . S
C1537 N1538 1.315 . S
C1537 H1540 0.930 . S
N1538 Co1518 2.194 . S
N1538 C1533 1.328 . S
N1538 C1537 1.315 . S
H1539 C1533 0.929 . S
H1540 C1537 0.930 . S
H1541 C1529 0.929 . S
H1542 C1531 0.929 . S
O1543 Co1518 2.351 . S
O1543 C1546 1.244 . S
O1544 Co1518 2.155 . S
O1544 C1546 1.240 . S
O1545 Co1518 2.096 . S
O1545 C1526 1.247 . S
C1546 O1543 1.244 . S
C1546 O1544 1.240 . S
H1547 C1521 0.931 . S
H1548 C1530 0.931 . S
H1549 C1534 0.929 . S
H1550 C1536 0.930 . S
Co1551 N1555 2.148 . S
Co1551 N1561 2.128 . S
Co1551 N1571 2.194 . S
Co1551 O1576 2.351 . S
Co1551 O1577 2.155 . S
Co1551 O1578 2.096 . S
C1552 N1555 1.301 . S
C1552 N1556 1.328 . S
C1552 H1557 0.930 . S
C1553 C1554 1.333 . S
C1553 N1555 1.317 . S
C1553 H1558 0.930 . S
C1554 C1553 1.333 . S
C1554 N1556 1.350 . S
C1554 H1580 0.931 . S
N1555 Co1551 2.148 . S
N1555 C1552 1.301 . S
N1555 C1553 1.317 . S
N1556 C1552 1.328 . S
N1556 C1554 1.350 . S
H1557 C1552 0.930 . S
H1558 C1553 0.930 . S
C1559 O1560 1.224 . S
C1559 O1578 1.247 . S
O1560 C1559 1.224 . S
N1561 Co1551 2.128 . S
N1561 C1562 1.355 . S
N1561 C1564 1.311 . S
C1562 N1561 1.355 . S
C1562 C1563 1.363 . S
C1562 H1574 0.929 . S
C1563 C1562 1.363 . S
C1563 N1565 1.375 . S
C1563 H1581 0.931 . S
C1564 N1561 1.311 . S
C1564 N1565 1.347 . S
C1564 H1575 0.929 . S
N1565 C1563 1.375 . S
N1565 C1564 1.347 . S
C1566 C1569 1.365 . S
C1566 N1571 1.328 . S
C1566 H1572 0.929 . S
C1567 C1568 1.362 . S
C1567 C1570 1.378 . S
C1567 H1582 0.929 . S
C1568 C1567 1.362 . S
C1568 C1569 1.366 . S
C1569 C1566 1.365 . S
C1569 C1568 1.366 . S
C1569 H1583 0.930 . S
C1570 C1567 1.378 . S
C1570 N1571 1.315 . S
C1570 H1573 0.930 . S
N1571 Co1551 2.194 . S
N1571 C1566 1.328 . S
N1571 C1570 1.315 . S
H1572 C1566 0.929 . S
H1573 C1570 0.930 . S
H1574 C1562 0.929 . S
H1575 C1564 0.929 . S
O1576 Co1551 2.351 . S
O1576 C1579 1.244 . S
O1577 Co1551 2.155 . S
O1577 C1579 1.240 . S
O1578 Co1551 2.096 . S
O1578 C1559 1.247 . S
C1579 O1576 1.244 . S
C1579 O1577 1.240 . S
H1580 C1554 0.931 . S
H1581 C1563 0.931 . S
H1582 C1567 0.929 . S
H1583 C1569 0.930 . S
C1584 C1585 1.363 . S
C1584 C1590 1.379 . S
C1584 N1592 1.356 . S
C1585 C1584 1.363 . S
C1585 C1591 1.363 . S
C1586 C1587 1.363 . S
C1586 C1591 1.379 . S
C1586 N1593 1.356 . S
C1587 C1586 1.363 . S
C1587 C1590 1.363 . S
N1588 C1590 1.356 . S
N1588 H1600 0.984 . S
N1588 H1601 0.985 . S
N1589 C1591 1.356 . S
N1589 H1594 0.984 . S
N1589 H1595 0.985 . S
C1590 C1584 1.379 . S
C1590 C1587 1.363 . S
C1590 N1588 1.356 . S
C1591 C1585 1.363 . S
C1591 C1586 1.379 . S
C1591 N1589 1.356 . S
N1592 C1584 1.356 . S
N1592 H1598 0.984 . S
N1592 H1599 0.984 . S
N1593 C1586 1.356 . S
N1593 H1596 0.984 . S
N1593 H1597 0.985 . S
H1594 N1589 0.984 . S
H1595 N1589 0.985 . S
H1596 N1593 0.984 . S
H1597 N1593 0.985 . S
H1598 N1592 0.984 . S
H1599 N1592 0.984 . S
H1600 N1588 0.984 . S
H1601 N1588 0.985 . S
C1602 C1603 1.363 . S
C1602 C1608 1.379 . S
C1602 N1610 1.356 . S
C1603 C1602 1.363 . S
C1603 C1609 1.363 . S
C1604 C1605 1.363 . S
C1604 C1609 1.379 . S
C1604 N1611 1.356 1_556 S
C1605 C1604 1.363 . S
C1605 C1608 1.363 . S
N1606 C1608 1.356 . S
N1606 H1618 0.984 . S
N1606 H1619 0.985 . S
N1607 C1609 1.356 . S
N1607 H1612 0.984 . S
N1607 H1613 0.985 1_556 S
C1608 C1602 1.379 . S
C1608 C1605 1.363 . S
C1608 N1606 1.356 . S
C1609 C1603 1.363 . S
C1609 C1604 1.379 . S
C1609 N1607 1.356 . S
N1610 C1602 1.356 . S
N1610 H1616 0.984 . S
N1610 H1617 0.984 . S
N1611 C1604 1.356 1_554 S
N1611 H1614 0.984 . S
N1611 H1615 0.985 . S
H1612 N1607 0.984 . S
H1613 N1607 0.985 1_554 S
H1614 N1611 0.984 . S
H1615 N1611 0.985 . S
H1616 N1610 0.984 . S
H1617 N1610 0.984 . S
H1618 N1606 0.984 . S
H1619 N1606 0.985 . S
C1620 C1621 1.363 . S
C1620 C1626 1.379 . S
C1620 N1628 1.356 . S
C1621 C1620 1.363 . S
C1621 C1627 1.363 . S
C1622 C1623 1.363 . S
C1622 C1627 1.379 . S
C1622 N1629 1.356 . S
C1623 C1622 1.363 . S
C1623 C1626 1.363 . S
N1624 C1626 1.356 . S
N1624 H1636 0.984 . S
N1624 H1637 0.985 . S
N1625 C1627 1.356 . S
N1625 H1630 0.984 . S
N1625 H1631 0.985 . S
C1626 C1620 1.379 . S
C1626 C1623 1.363 . S
C1626 N1624 1.356 . S
C1627 C1621 1.363 . S
C1627 C1622 1.379 . S
C1627 N1625 1.356 . S
N1628 C1620 1.356 . S
N1628 H1634 0.984 . S
N1628 H1635 0.984 . S
N1629 C1622 1.356 . S
N1629 H1632 0.984 . S
N1629 H1633 0.985 . S
H1630 N1625 0.984 . S
H1631 N1625 0.985 . S
H1632 N1629 0.984 . S
H1633 N1629 0.985 . S
H1634 N1628 0.984 . S
H1635 N1628 0.984 . S
H1636 N1624 0.984 . S
H1637 N1624 0.985 . S
C1638 C1639 1.363 . S
C1638 C1644 1.379 . S
C1638 N1646 1.356 . S
C1639 C1638 1.363 . S
C1639 C1645 1.363 . S
C1640 C1641 1.363 . S
C1640 C1645 1.379 . S
C1640 N1647 1.356 . S
C1641 C1640 1.363 . S
C1641 C1644 1.363 . S
N1642 C1644 1.356 . S
N1642 H1654 0.984 . S
N1642 H1655 0.985 . S
N1643 C1645 1.356 . S
N1643 H1648 0.984 . S
N1643 H1649 0.985 . S
C1644 C1638 1.379 . S
C1644 C1641 1.363 . S
C1644 N1642 1.356 . S
C1645 C1639 1.363 . S
C1645 C1640 1.379 . S
C1645 N1643 1.356 . S
N1646 C1638 1.356 . S
N1646 H1652 0.984 . S
N1646 H1653 0.984 . S
N1647 C1640 1.356 . S
N1647 H1650 0.984 . S
N1647 H1651 0.985 . S
H1648 N1643 0.984 . S
H1649 N1643 0.985 . S
H1650 N1647 0.984 . S
H1651 N1647 0.985 . S
H1652 N1646 0.984 . S
H1653 N1646 0.984 . S
H1654 N1642 0.984 . S
H1655 N1642 0.985 . S
C1656 C1657 1.363 . S
C1656 C1662 1.379 . S
C1656 N1664 1.356 . S
C1657 C1656 1.363 . S
C1657 C1663 1.363 . S
C1658 C1659 1.363 . S
C1658 C1663 1.379 . S
C1658 N1665 1.356 . S
C1659 C1658 1.363 . S
C1659 C1662 1.363 . S
N1660 C1662 1.356 . S
N1660 H1672 0.984 . S
N1660 H1673 0.985 . S
N1661 C1663 1.356 . S
N1661 H1666 0.984 . S
N1661 H1667 0.985 . S
C1662 C1656 1.379 . S
C1662 C1659 1.363 . S
C1662 N1660 1.356 . S
C1663 C1657 1.363 . S
C1663 C1658 1.379 . S
C1663 N1661 1.356 . S
N1664 C1656 1.356 . S
N1664 H1670 0.984 . S
N1664 H1671 0.984 . S
N1665 C1658 1.356 . S
N1665 H1668 0.984 . S
N1665 H1669 0.985 . S
H1666 N1661 0.984 . S
H1667 N1661 0.985 . S
H1668 N1665 0.984 . S
H1669 N1665 0.985 . S
H1670 N1664 0.984 . S
H1671 N1664 0.984 . S
H1672 N1660 0.984 . S
H1673 N1660 0.985 . S
C1674 C1675 1.363 . S
C1674 C1680 1.379 . S
C1674 N1682 1.356 . S
C1675 C1674 1.363 . S
C1675 C1681 1.363 . S
C1676 C1677 1.363 . S
C1676 C1681 1.379 . S
C1676 N1683 1.356 1_455 S
C1677 C1676 1.363 . S
C1677 C1680 1.363 . S
N1678 C1680 1.356 1_556 S
N1678 H1690 0.984 . S
N1678 H1691 0.985 . S
N1679 C1681 1.356 . S
N1679 H1684 0.984 . S
N1679 H1685 0.985 . S
C1680 C1674 1.379 . S
C1680 C1677 1.363 . S
C1680 N1678 1.356 1_554 S
C1681 C1675 1.363 . S
C1681 C1676 1.379 . S
C1681 N1679 1.356 . S
N1682 C1674 1.356 . S
N1682 H1688 0.984 1_554 S
N1682 H1689 0.984 . S
N1683 C1676 1.356 1_655 S
N1683 H1686 0.984 . S
N1683 H1687 0.985 . S
H1684 N1679 0.984 . S
H1685 N1679 0.985 . S
H1686 N1683 0.984 . S
H1687 N1683 0.985 . S
H1688 N1682 0.984 1_556 S
H1689 N1682 0.984 . S
H1690 N1678 0.984 . S
H1691 N1678 0.985 . S
C1692 C1693 1.363 . S
C1692 C1698 1.379 . S
C1692 N1700 1.356 . S
C1693 C1692 1.363 . S
C1693 C1699 1.363 . S
C1694 C1695 1.363 . S
C1694 C1699 1.379 . S
C1694 N1701 1.356 . S
C1695 C1694 1.363 . S
C1695 C1698 1.363 . S
N1696 C1698 1.356 . S
N1696 H1708 0.984 . S
N1696 H1709 0.985 . S
N1697 C1699 1.356 . S
N1697 H1702 0.984 . S
N1697 H1703 0.985 . S
C1698 C1692 1.379 . S
C1698 C1695 1.363 . S
C1698 N1696 1.356 . S
C1699 C1693 1.363 . S
C1699 C1694 1.379 . S
C1699 N1697 1.356 . S
N1700 C1692 1.356 . S
N1700 H1706 0.984 . S
N1700 H1707 0.984 . S
N1701 C1694 1.356 . S
N1701 H1704 0.984 . S
N1701 H1705 0.985 . S
H1702 N1697 0.984 . S
H1703 N1697 0.985 . S
H1704 N1701 0.984 . S
H1705 N1701 0.985 . S
H1706 N1700 0.984 . S
H1707 N1700 0.984 . S
H1708 N1696 0.984 . S
H1709 N1696 0.985 . S
C1710 C1711 1.363 . S
C1710 C1716 1.379 . S
C1710 N1718 1.356 . S
C1711 C1710 1.363 . S
C1711 C1717 1.363 . S
C1712 C1713 1.363 . S
C1712 C1717 1.379 . S
C1712 N1719 1.356 . S
C1713 C1712 1.363 . S
C1713 C1716 1.363 . S
N1714 C1716 1.356 . S
N1714 H1726 0.984 . S
N1714 H1727 0.985 . S
N1715 C1717 1.356 1_455 S
N1715 H1720 0.984 . S
N1715 H1721 0.985 . S
C1716 C1710 1.379 . S
C1716 C1713 1.363 . S
C1716 N1714 1.356 . S
C1717 C1711 1.363 . S
C1717 C1712 1.379 . S
C1717 N1715 1.356 1_655 S
N1718 C1710 1.356 . S
N1718 H1724 0.984 . S
N1718 H1725 0.984 . S
N1719 C1712 1.356 . S
N1719 H1722 0.984 . S
N1719 H1723 0.985 . S
H1720 N1715 0.984 . S
H1721 N1715 0.985 . S
H1722 N1719 0.984 . S
H1723 N1719 0.985 . S
H1724 N1718 0.984 . S
H1725 N1718 0.984 . S
H1726 N1714 0.984 . S
H1727 N1714 0.985 . S
C1728 C1729 1.363 . S
C1728 C1734 1.379 . S
C1728 N1736 1.356 . S
C1729 C1728 1.363 . S
C1729 C1735 1.363 . S
C1730 C1731 1.363 . S
C1730 C1735 1.379 . S
C1730 N1737 1.356 . S
C1731 C1730 1.363 . S
C1731 C1734 1.363 . S
N1732 C1734 1.356 . S
N1732 H1744 0.984 . S
N1732 H1745 0.985 . S
N1733 C1735 1.356 . S
N1733 H1738 0.984 . S
N1733 H1739 0.985 . S
C1734 C1728 1.379 . S
C1734 C1731 1.363 . S
C1734 N1732 1.356 . S
C1735 C1729 1.363 . S
C1735 C1730 1.379 . S
C1735 N1733 1.356 . S
N1736 C1728 1.356 . S
N1736 H1742 0.984 . S
N1736 H1743 0.984 . S
N1737 C1730 1.356 . S
N1737 H1740 0.984 . S
N1737 H1741 0.985 . S
H1738 N1733 0.984 . S
H1739 N1733 0.985 . S
H1740 N1737 0.984 . S
H1741 N1737 0.985 . S
H1742 N1736 0.984 . S
H1743 N1736 0.984 . S
H1744 N1732 0.984 . S
H1745 N1732 0.985 . S
C1746 C1747 1.363 . S
C1746 C1752 1.379 . S
C1746 N1754 1.356 . S
C1747 C1746 1.363 . S
C1747 C1753 1.363 . S
C1748 C1749 1.363 . S
C1748 C1753 1.379 . S
C1748 N1755 1.356 . S
C1749 C1748 1.363 . S
C1749 C1752 1.363 . S
N1750 C1752 1.356 . S
N1750 H1762 0.984 . S
N1750 H1763 0.985 . S
N1751 C1753 1.355 . S
N1751 H1756 0.986 1_554 S
N1751 H1757 0.985 . S
C1752 C1746 1.379 . S
C1752 C1749 1.363 . S
C1752 N1750 1.356 . S
C1753 C1747 1.363 . S
C1753 C1748 1.379 . S
C1753 N1751 1.355 . S
N1754 C1746 1.356 . S
N1754 H1760 0.984 . S
N1754 H1761 0.984 1_554 S
N1755 C1748 1.356 . S
N1755 H1758 0.984 . S
N1755 H1759 0.985 . S
H1756 N1751 0.986 1_556 S
H1757 N1751 0.985 . S
H1758 N1755 0.984 . S
H1759 N1755 0.985 . S
H1760 N1754 0.984 . S
H1761 N1754 0.984 1_556 S
H1762 N1750 0.984 . S
H1763 N1750 0.985 . S
C1764 C1765 1.363 . S
C1764 C1770 1.379 . S
C1764 N1772 1.356 . S
C1765 C1764 1.363 . S
C1765 C1771 1.363 . S
C1766 C1767 1.363 . S
C1766 C1771 1.379 . S
C1766 N1773 1.356 . S
C1767 C1766 1.363 . S
C1767 C1770 1.363 . S
N1768 C1770 1.356 . S
N1768 H1780 0.984 . S
N1768 H1781 0.985 . S
N1769 C1771 1.356 . S
N1769 H1774 0.984 . S
N1769 H1775 0.985 . S
C1770 C1764 1.379 . S
C1770 C1767 1.363 . S
C1770 N1768 1.356 . S
C1771 C1765 1.363 . S
C1771 C1766 1.379 . S
C1771 N1769 1.356 . S
N1772 C1764 1.356 . S
N1772 H1778 0.984 . S
N1772 H1779 0.984 . S
N1773 C1766 1.356 . S
N1773 H1776 0.984 . S
N1773 H1777 0.985 . S
H1774 N1769 0.984 . S
H1775 N1769 0.985 . S
H1776 N1773 0.984 . S
H1777 N1773 0.985 . S
H1778 N1772 0.984 . S
H1779 N1772 0.984 . S
H1780 N1768 0.984 . S
H1781 N1768 0.985 . S
C1782 C1783 1.363 . S
C1782 C1788 1.379 . S
C1782 N1790 1.356 . S
C1783 C1782 1.363 . S
C1783 C1789 1.363 . S
C1784 C1785 1.363 . S
C1784 C1789 1.379 . S
C1784 N1791 1.356 . S
C1785 C1784 1.363 . S
C1785 C1788 1.363 . S
N1786 C1788 1.356 . S
N1786 H1798 0.984 . S
N1786 H1799 0.985 . S
N1787 C1789 1.356 1_565 S
N1787 H1792 0.984 1_554 S
N1787 H1793 0.985 . S
C1788 C1782 1.379 . S
C1788 C1785 1.363 . S
C1788 N1786 1.356 . S
C1789 C1783 1.363 . S
C1789 C1784 1.379 . S
C1789 N1787 1.356 1_545 S
N1790 C1782 1.356 . S
N1790 H1796 0.984 . S
N1790 H1797 0.984 1_554 S
N1791 C1784 1.356 . S
N1791 H1794 0.984 . S
N1791 H1795 0.985 1_545 S
H1792 N1787 0.984 1_556 S
H1793 N1787 0.985 . S
H1794 N1791 0.984 . S
H1795 N1791 0.985 1_565 S
H1796 N1790 0.984 . S
H1797 N1790 0.984 1_556 S
H1798 N1786 0.984 . S
H1799 N1786 0.985 . S
C1800 C1801 1.363 . S
C1800 C1806 1.379 . S
C1800 N1808 1.356 . S
C1801 C1800 1.363 . S
C1801 C1807 1.363 . S
C1802 C1803 1.363 . S
C1802 C1807 1.379 . S
C1802 N1809 1.356 . S
C1803 C1802 1.363 . S
C1803 C1806 1.363 . S
N1804 C1806 1.356 . S
N1804 H1816 0.984 . S
N1804 H1817 0.985 . S
N1805 C1807 1.356 . S
N1805 H1810 0.984 . S
N1805 H1811 0.985 . S
C1806 C1800 1.379 . S
C1806 C1803 1.363 . S
C1806 N1804 1.356 . S
C1807 C1801 1.363 . S
C1807 C1802 1.379 . S
C1807 N1805 1.356 . S
N1808 C1800 1.356 . S
N1808 H1814 0.984 . S
N1808 H1815 0.984 . S
N1809 C1802 1.356 . S
N1809 H1812 0.984 . S
N1809 H1813 0.985 . S
H1810 N1805 0.984 . S
H1811 N1805 0.985 . S
H1812 N1809 0.984 . S
H1813 N1809 0.985 . S
H1814 N1808 0.984 . S
H1815 N1808 0.984 . S
H1816 N1804 0.984 . S
H1817 N1804 0.985 . S
C1818 C1819 1.363 . S
C1818 C1824 1.379 . S
C1818 N1826 1.356 . S
C1819 C1818 1.363 . S
C1819 C1825 1.363 . S
C1820 C1821 1.363 . S
C1820 C1825 1.379 . S
C1820 N1827 1.356 . S
C1821 C1820 1.363 . S
C1821 C1824 1.363 . S
N1822 C1824 1.356 1_554 S
N1822 H1834 0.984 . S
N1822 H1835 0.985 . S
N1823 C1825 1.356 . S
N1823 H1828 0.984 . S
N1823 H1829 0.985 . S
C1824 C1818 1.379 . S
C1824 C1821 1.363 . S
C1824 N1822 1.356 1_556 S
C1825 C1819 1.363 . S
C1825 C1820 1.379 . S
C1825 N1823 1.356 . S
N1826 C1818 1.356 . S
N1826 H1832 0.984 . S
N1826 H1833 0.984 . S
N1827 C1820 1.356 . S
N1827 H1830 0.984 . S
N1827 H1831 0.985 . S
H1828 N1823 0.984 . S
H1829 N1823 0.985 . S
H1830 N1827 0.984 . S
H1831 N1827 0.985 . S
H1832 N1826 0.984 . S
H1833 N1826 0.984 . S
H1834 N1822 0.984 . S
H1835 N1822 0.985 . S
C1836 C1837 1.363 . S
C1836 C1842 1.379 . S
C1836 N1844 1.356 . S
C1837 C1836 1.363 . S
C1837 C1843 1.363 . S
C1838 C1839 1.363 . S
C1838 C1843 1.379 . S
C1838 N1845 1.356 . S
C1839 C1838 1.363 . S
C1839 C1842 1.363 . S
N1840 C1842 1.356 . S
N1840 H1852 0.984 . S
N1840 H1853 0.985 . S
N1841 C1843 1.356 . S
N1841 H1846 0.984 . S
N1841 H1847 0.985 . S
C1842 C1836 1.379 . S
C1842 C1839 1.363 . S
C1842 N1840 1.356 . S
C1843 C1837 1.363 . S
C1843 C1838 1.379 . S
C1843 N1841 1.356 . S
N1844 C1836 1.356 . S
N1844 H1850 0.984 . S
N1844 H1851 0.984 . S
N1845 C1838 1.356 . S
N1845 H1848 0.984 . S
N1845 H1849 0.985 . S
H1846 N1841 0.984 . S
H1847 N1841 0.985 . S
H1848 N1845 0.984 . S
H1849 N1845 0.985 . S
H1850 N1844 0.984 . S
H1851 N1844 0.984 . S
H1852 N1840 0.984 . S
H1853 N1840 0.985 . S
C1854 C1855 1.363 . S
C1854 C1860 1.379 . S
C1854 N1862 1.356 . S
C1855 C1854 1.363 . S
C1855 C1861 1.363 . S
C1856 C1857 1.363 . S
C1856 C1861 1.379 . S
C1856 N1863 1.356 . S
C1857 C1856 1.363 . S
C1857 C1860 1.363 . S
N1858 C1860 1.356 . S
N1858 H1870 0.984 . S
N1858 H1871 0.985 . S
N1859 C1861 1.356 1_565 S
N1859 H1864 0.984 1_556 S
N1859 H1865 0.985 . S
C1860 C1854 1.379 . S
C1860 C1857 1.363 . S
C1860 N1858 1.356 . S
C1861 C1855 1.363 . S
C1861 C1856 1.379 . S
C1861 N1859 1.356 1_545 S
N1862 C1854 1.356 . S
N1862 H1868 0.984 . S
N1862 H1869 0.984 1_556 S
N1863 C1856 1.356 . S
N1863 H1866 0.984 . S
N1863 H1867 0.985 1_545 S
H1864 N1859 0.984 1_554 S
H1865 N1859 0.985 . S
H1866 N1863 0.984 . S
H1867 N1863 0.985 1_565 S
H1868 N1862 0.984 . S
H1869 N1862 0.984 1_554 S
H1870 N1858 0.984 . S
H1871 N1858 0.985 . S
C1872 C1873 1.363 . S
C1872 C1878 1.379 . S
C1872 N1880 1.356 . S
C1873 C1872 1.363 . S
C1873 C1879 1.363 . S
C1874 C1875 1.363 . S
C1874 C1879 1.379 . S
C1874 N1881 1.356 . S
C1875 C1874 1.363 . S
C1875 C1878 1.363 . S
N1876 C1878 1.356 . S
N1876 H1888 0.984 . S
N1876 H1889 0.985 . S
N1877 C1879 1.356 . S
N1877 H1882 0.984 . S
N1877 H1883 0.985 . S
C1878 C1872 1.379 . S
C1878 C1875 1.363 . S
C1878 N1876 1.356 . S
C1879 C1873 1.363 . S
C1879 C1874 1.379 . S
C1879 N1877 1.356 . S
N1880 C1872 1.356 . S
N1880 H1886 0.984 . S
N1880 H1887 0.984 . S
N1881 C1874 1.356 . S
N1881 H1884 0.984 . S
N1881 H1885 0.985 . S
H1882 N1877 0.984 . S
H1883 N1877 0.985 . S
H1884 N1881 0.984 . S
H1885 N1881 0.985 . S
H1886 N1880 0.984 . S
H1887 N1880 0.984 . S
H1888 N1876 0.984 . S
H1889 N1876 0.985 . S
C1890 C1891 1.363 . S
C1890 C1896 1.379 . S
C1890 N1898 1.356 . S
C1891 C1890 1.363 . S
C1891 C1897 1.363 . S
C1892 C1893 1.363 . S
C1892 C1897 1.379 . S
C1892 N1899 1.356 . S
C1893 C1892 1.363 . S
C1893 C1896 1.363 . S
N1894 C1896 1.356 . S
N1894 H1906 0.984 . S
N1894 H1907 0.985 . S
N1895 C1897 1.356 . S
N1895 H1900 0.984 . S
N1895 H1901 0.985 . S
C1896 C1890 1.379 . S
C1896 C1893 1.363 . S
C1896 N1894 1.356 . S
C1897 C1891 1.363 . S
C1897 C1892 1.379 . S
C1897 N1895 1.356 . S
N1898 C1890 1.356 . S
N1898 H1904 0.984 . S
N1898 H1905 0.984 . S
N1899 C1892 1.356 . S
N1899 H1902 0.984 . S
N1899 H1903 0.985 . S
H1900 N1895 0.984 . S
H1901 N1895 0.985 . S
H1902 N1899 0.984 . S
H1903 N1899 0.985 . S
H1904 N1898 0.984 . S
H1905 N1898 0.984 . S
H1906 N1894 0.984 . S
H1907 N1894 0.985 . S
C1908 C1909 1.363 . S
C1908 C1914 1.379 . S
C1908 N1916 1.356 . S
C1909 C1908 1.363 . S
C1909 C1915 1.363 . S
C1910 C1911 1.363 . S
C1910 C1915 1.379 . S
C1910 N1917 1.356 . S
C1911 C1910 1.363 . S
C1911 C1914 1.363 . S
N1912 C1914 1.356 . S
N1912 H1924 0.984 . S
N1912 H1925 0.985 . S
N1913 C1915 1.356 . S
N1913 H1918 0.984 . S
N1913 H1919 0.985 . S
C1914 C1908 1.379 . S
C1914 C1911 1.363 . S
C1914 N1912 1.356 . S
C1915 C1909 1.363 . S
C1915 C1910 1.379 . S
C1915 N1913 1.356 . S
N1916 C1908 1.356 . S
N1916 H1922 0.984 1_655 S
N1916 H1923 0.984 . S
N1917 C1910 1.356 . S
N1917 H1920 0.984 . S
N1917 H1921 0.985 . S
H1918 N1913 0.984 . S
H1919 N1913 0.985 . S
H1920 N1917 0.984 . S
H1921 N1917 0.985 . S
H1922 N1916 0.984 1_455 S
H1923 N1916 0.984 . S
H1924 N1912 0.984 . S
H1925 N1912 0.985 . S
C1926 C1927 1.363 . S
C1926 C1932 1.379 . S
C1926 N1934 1.356 . S
C1927 C1926 1.363 . S
C1927 C1933 1.363 . S
C1928 C1929 1.363 . S
C1928 C1933 1.379 . S
C1928 N1935 1.356 . S
C1929 C1928 1.363 . S
C1929 C1932 1.363 . S
N1930 C1932 1.356 . S
N1930 H1942 0.984 . S
N1930 H1943 0.985 . S
N1931 C1933 1.356 . S
N1931 H1936 0.984 . S
N1931 H1937 0.985 . S
C1932 C1926 1.379 . S
C1932 C1929 1.363 . S
C1932 N1930 1.356 . S
C1933 C1927 1.363 . S
C1933 C1928 1.379 . S
C1933 N1931 1.356 . S
N1934 C1926 1.356 . S
N1934 H1940 0.984 . S
N1934 H1941 0.984 . S
N1935 C1928 1.356 . S
N1935 H1938 0.984 . S
N1935 H1939 0.985 . S
H1936 N1931 0.984 . S
H1937 N1931 0.985 . S
H1938 N1935 0.984 . S
H1939 N1935 0.985 . S
H1940 N1934 0.984 . S
H1941 N1934 0.984 . S
H1942 N1930 0.984 . S
H1943 N1930 0.985 . S
C1944 C1945 1.363 . S
C1944 C1950 1.379 . S
C1944 N1952 1.356 . S
C1945 C1944 1.363 . S
C1945 C1951 1.363 . S
C1946 C1947 1.363 . S
C1946 C1951 1.379 . S
C1946 N1953 1.356 . S
C1947 C1946 1.363 . S
C1947 C1950 1.363 . S
N1948 C1950 1.356 . S
N1948 H1960 0.984 . S
N1948 H1961 0.985 . S
N1949 C1951 1.356 . S
N1949 H1954 0.984 . S
N1949 H1955 0.985 . S
C1950 C1944 1.379 . S
C1950 C1947 1.363 . S
C1950 N1948 1.356 . S
C1951 C1945 1.363 . S
C1951 C1946 1.379 . S
C1951 N1949 1.356 . S
N1952 C1944 1.356 . S
N1952 H1958 0.984 . S
N1952 H1959 0.984 . S
N1953 C1946 1.356 . S
N1953 H1956 0.984 . S
N1953 H1957 0.985 . S
H1954 N1949 0.984 . S
H1955 N1949 0.985 . S
H1956 N1953 0.984 . S
H1957 N1953 0.985 . S
H1958 N1952 0.984 . S
H1959 N1952 0.984 . S
H1960 N1948 0.984 . S
H1961 N1948 0.985 . S
C1962 C1963 1.363 . S
C1962 C1968 1.379 . S
C1962 N1970 1.356 . S
C1963 C1962 1.363 . S
C1963 C1969 1.363 . S
C1964 C1965 1.363 . S
C1964 C1969 1.379 . S
C1964 N1971 1.356 . S
C1965 C1964 1.363 . S
C1965 C1968 1.363 . S
N1966 C1968 1.356 . S
N1966 H1978 0.984 . S
N1966 H1979 0.985 . S
N1967 C1969 1.356 . S
N1967 H1972 0.984 . S
N1967 H1973 0.985 . S
C1968 C1962 1.379 . S
C1968 C1965 1.363 . S
C1968 N1966 1.356 . S
C1969 C1963 1.363 . S
C1969 C1964 1.379 . S
C1969 N1967 1.356 . S
N1970 C1962 1.356 . S
N1970 H1976 0.984 . S
N1970 H1977 0.984 . S
N1971 C1964 1.356 . S
N1971 H1974 0.984 . S
N1971 H1975 0.985 . S
H1972 N1967 0.984 . S
H1973 N1967 0.985 . S
H1974 N1971 0.984 . S
H1975 N1971 0.985 . S
H1976 N1970 0.984 . S
H1977 N1970 0.984 . S
H1978 N1966 0.984 . S
H1979 N1966 0.985 . S
C1980 C1981 1.363 . S
C1980 C1986 1.379 . S
C1980 N1988 1.339 1_655 S
C1981 C1980 1.363 . S
C1981 C1987 1.363 . S
C1982 C1983 1.363 . S
C1982 C1987 1.379 . S
C1982 N1989 1.356 . S
C1983 C1982 1.363 . S
C1983 C1986 1.363 . S
N1984 C1986 1.356 . S
N1984 H1996 1.007 . S
N1984 H1997 0.985 . S
N1985 C1987 1.356 . S
N1985 H1990 0.984 . S
N1985 H1991 0.985 . S
C1986 C1980 1.379 . S
C1986 C1983 1.363 . S
C1986 N1984 1.356 . S
C1987 C1981 1.363 . S
C1987 C1982 1.379 . S
C1987 N1985 1.356 . S
N1988 C1980 1.339 1_455 S
N1988 H1994 1.002 . S
N1988 H1995 0.984 . S
N1989 C1982 1.356 . S
N1989 H1992 0.984 . S
N1989 H1993 0.985 . S
H1990 N1985 0.984 . S
H1991 N1985 0.985 . S
H1992 N1989 0.984 . S
H1993 N1989 0.985 . S
H1994 N1988 1.002 . S
H1995 N1988 0.984 . S
H1996 N1984 1.007 . S
H1997 N1984 0.985 . S
C1998 C1999 1.363 . S
C1998 C2004 1.379 . S
C1998 N2006 1.356 . S
C1999 C1998 1.363 . S
C1999 C2005 1.363 . S
C2000 C2001 1.363 . S
C2000 C2005 1.379 . S
C2000 N2007 1.356 . S
C2001 C2000 1.363 . S
C2001 C2004 1.363 . S
N2002 C2004 1.356 . S
N2002 H2014 0.984 . S
N2002 H2015 0.985 . S
N2003 C2005 1.356 1_565 S
N2003 H2008 0.984 . S
N2003 H2009 0.985 . S
C2004 C1998 1.379 . S
C2004 C2001 1.363 . S
C2004 N2002 1.356 . S
C2005 C1999 1.363 . S
C2005 C2000 1.379 . S
C2005 N2003 1.356 1_545 S
N2006 C1998 1.356 . S
N2006 H2012 0.984 . S
N2006 H2013 0.984 . S
N2007 C2000 1.356 . S
N2007 H2010 0.984 . S
N2007 H2011 0.985 . S
H2008 N2003 0.984 . S
H2009 N2003 0.985 . S
H2010 N2007 0.984 . S
H2011 N2007 0.985 . S
H2012 N2006 0.984 . S
H2013 N2006 0.984 . S
H2014 N2002 0.984 . S
H2015 N2002 0.985 . S
C2016 C2017 1.363 . S
C2016 C2022 1.379 . S
C2016 N2024 1.356 . S
C2017 C2016 1.363 . S
C2017 C2023 1.363 . S
C2018 C2019 1.363 . S
C2018 C2023 1.379 . S
C2018 N2025 1.356 . S
C2019 C2018 1.363 . S
C2019 C2022 1.363 . S
N2020 C2022 1.356 . S
N2020 H2032 0.984 . S
N2020 H2033 0.985 . S
N2021 C2023 1.356 . S
N2021 H2026 0.984 . S
N2021 H2027 0.985 . S
C2022 C2016 1.379 . S
C2022 C2019 1.363 . S
C2022 N2020 1.356 . S
C2023 C2017 1.363 . S
C2023 C2018 1.379 . S
C2023 N2021 1.356 . S
N2024 C2016 1.356 . S
N2024 H2030 0.984 . S
N2024 H2031 0.984 . S
N2025 C2018 1.356 . S
N2025 H2028 0.984 . S
N2025 H2029 0.985 . S
H2026 N2021 0.984 . S
H2027 N2021 0.985 . S
H2028 N2025 0.984 . S
H2029 N2025 0.985 . S
H2030 N2024 0.984 . S
H2031 N2024 0.984 . S
H2032 N2020 0.984 . S
H2033 N2020 0.985 . S
C2034 C2035 1.363 . S
C2034 C2040 1.379 . S
C2034 N2042 1.356 . S
C2035 C2034 1.363 . S
C2035 C2041 1.363 . S
C2036 C2037 1.363 . S
C2036 C2041 1.379 . S
C2036 N2043 1.356 1_655 S
C2037 C2036 1.363 . S
C2037 C2040 1.363 . S
N2038 C2040 1.356 . S
N2038 H2050 0.984 . S
N2038 H2051 0.985 . S
N2039 C2041 1.356 . S
N2039 H2044 0.984 . S
N2039 H2045 0.985 . S
C2040 C2034 1.379 . S
C2040 C2037 1.363 . S
C2040 N2038 1.356 . S
C2041 C2035 1.363 . S
C2041 C2036 1.379 . S
C2041 N2039 1.356 . S
N2042 C2034 1.356 . S
N2042 H2048 0.984 . S
N2042 H2049 0.984 . S
N2043 C2036 1.356 1_455 S
N2043 H2046 0.984 . S
N2043 H2047 0.985 . S
H2044 N2039 0.984 . S
H2045 N2039 0.985 . S
H2046 N2043 0.984 . S
H2047 N2043 0.985 . S
H2048 N2042 0.984 . S
H2049 N2042 0.984 . S
H2050 N2038 0.984 . S
H2051 N2038 0.985 . S
C2052 C2053 1.363 . S
C2052 C2058 1.379 . S
C2052 N2060 1.356 . S
C2053 C2052 1.363 . S
C2053 C2059 1.363 . S
C2054 C2055 1.363 . S
C2054 C2059 1.379 . S
C2054 N2061 1.356 . S
C2055 C2054 1.363 . S
C2055 C2058 1.363 . S
N2056 C2058 1.356 . S
N2056 H2068 0.984 . S
N2056 H2069 0.985 . S
N2057 C2059 1.356 . S
N2057 H2062 0.984 . S
N2057 H2063 0.985 . S
C2058 C2052 1.379 . S
C2058 C2055 1.363 . S
C2058 N2056 1.356 . S
C2059 C2053 1.363 . S
C2059 C2054 1.379 . S
C2059 N2057 1.356 . S
N2060 C2052 1.356 . S
N2060 H2066 0.984 . S
N2060 H2067 0.984 . S
N2061 C2054 1.356 . S
N2061 H2064 0.984 . S
N2061 H2065 0.985 . S
H2062 N2057 0.984 . S
H2063 N2057 0.985 . S
H2064 N2061 0.984 . S
H2065 N2061 0.985 . S
H2066 N2060 0.984 . S
H2067 N2060 0.984 . S
H2068 N2056 0.984 . S
H2069 N2056 0.985 . S
C2070 C2071 1.363 . S
C2070 C2076 1.379 . S
C2070 N2078 1.346 1_455 S
C2071 C2070 1.363 . S
C2071 C2077 1.363 . S
C2072 C2073 1.363 . S
C2072 C2077 1.379 . S
C2072 N2079 1.356 . S
C2073 C2072 1.363 . S
C2073 C2076 1.363 . S
N2074 C2076 1.356 . S
N2074 H2086 0.984 . S
N2074 H2087 0.985 . S
N2075 C2077 1.356 . S
N2075 H2080 0.984 1_455 S
N2075 H2081 0.985 . S
C2076 C2070 1.379 . S
C2076 C2073 1.363 . S
C2076 N2074 1.356 . S
C2077 C2071 1.363 . S
C2077 C2072 1.379 . S
C2077 N2075 1.356 . S
N2078 C2070 1.346 1_655 S
N2078 H2084 0.984 . S
N2078 H2085 0.995 . S
N2079 C2072 1.356 . S
N2079 H2082 0.984 . S
N2079 H2083 0.985 . S
H2080 N2075 0.984 1_655 S
H2081 N2075 0.985 . S
H2082 N2079 0.984 . S
H2083 N2079 0.985 . S
H2084 N2078 0.984 . S
H2085 N2078 0.995 . S
H2086 N2074 0.984 . S
H2087 N2074 0.985 . S
C2088 C2089 1.363 . S
C2088 C2094 1.379 . S
C2088 N2096 1.356 . S
C2089 C2088 1.363 . S
C2089 C2095 1.363 . S
C2090 C2091 1.363 . S
C2090 C2095 1.379 . S
C2090 N2097 1.356 . S
C2091 C2090 1.363 . S
C2091 C2094 1.363 . S
N2092 C2094 1.356 . S
N2092 H2104 0.984 . S
N2092 H2105 0.985 . S
N2093 C2095 1.356 . S
N2093 H2098 0.984 . S
N2093 H2099 0.985 . S
C2094 C2088 1.379 . S
C2094 C2091 1.363 . S
C2094 N2092 1.356 . S
C2095 C2089 1.363 . S
C2095 C2090 1.379 . S
C2095 N2093 1.356 . S
N2096 C2088 1.356 . S
N2096 H2102 0.984 . S
N2096 H2103 0.984 . S
N2097 C2090 1.356 . S
N2097 H2100 0.984 . S
N2097 H2101 0.985 . S
H2098 N2093 0.984 . S
H2099 N2093 0.985 . S
H2100 N2097 0.984 . S
H2101 N2097 0.985 . S
H2102 N2096 0.984 . S
H2103 N2096 0.984 . S
H2104 N2092 0.984 . S
H2105 N2092 0.985 . S
C2106 C2107 1.363 . S
C2106 C2112 1.379 . S
C2106 N2114 1.356 . S
C2107 C2106 1.363 . S
C2107 C2113 1.363 . S
C2108 C2109 1.363 . S
C2108 C2113 1.379 . S
C2108 N2115 1.356 . S
C2109 C2108 1.363 . S
C2109 C2112 1.363 . S
N2110 C2112 1.356 . S
N2110 H2122 0.984 . S
N2110 H2123 0.985 . S
N2111 C2113 1.356 . S
N2111 H2116 0.984 . S
N2111 H2117 0.985 . S
C2112 C2106 1.379 . S
C2112 C2109 1.363 . S
C2112 N2110 1.356 . S
C2113 C2107 1.363 . S
C2113 C2108 1.379 . S
C2113 N2111 1.356 . S
N2114 C2106 1.356 . S
N2114 H2120 0.984 . S
N2114 H2121 0.984 . S
N2115 C2108 1.356 . S
N2115 H2118 0.984 . S
N2115 H2119 0.985 . S
H2116 N2111 0.984 . S
H2117 N2111 0.985 . S
H2118 N2115 0.984 . S
H2119 N2115 0.985 . S
H2120 N2114 0.984 . S
H2121 N2114 0.984 . S
H2122 N2110 0.984 . S
H2123 N2110 0.985 . S
C2124 C2125 1.363 . S
C2124 C2130 1.379 . S
C2124 N2132 1.356 . S
C2125 C2124 1.363 . S
C2125 C2131 1.363 . S
C2126 C2127 1.363 . S
C2126 C2131 1.379 . S
C2126 N2133 1.356 . S
C2127 C2126 1.363 . S
C2127 C2130 1.363 . S
N2128 C2130 1.356 . S
N2128 H2140 0.984 . S
N2128 H2141 0.985 . S
N2129 C2131 1.356 . S
N2129 H2134 0.984 . S
N2129 H2135 0.985 . S
C2130 C2124 1.379 . S
C2130 C2127 1.363 . S
C2130 N2128 1.356 . S
C2131 C2125 1.363 . S
C2131 C2126 1.379 . S
C2131 N2129 1.356 . S
N2132 C2124 1.356 . S
N2132 H2138 0.984 . S
N2132 H2139 0.984 . S
N2133 C2126 1.356 . S
N2133 H2136 0.984 . S
N2133 H2137 0.985 . S
H2134 N2129 0.984 . S
H2135 N2129 0.985 . S
H2136 N2133 0.984 . S
H2137 N2133 0.985 . S
H2138 N2132 0.984 . S
H2139 N2132 0.984 . S
H2140 N2128 0.984 . S
H2141 N2128 0.985 . S
C2142 C2143 1.363 . S
C2142 C2148 1.379 . S
C2142 N2150 1.356 . S
C2143 C2142 1.363 . S
C2143 C2149 1.363 . S
C2144 C2145 1.363 . S
C2144 C2149 1.379 . S
C2144 N2151 1.356 . S
C2145 C2144 1.363 . S
C2145 C2148 1.363 . S
N2146 C2148 1.356 . S
N2146 H2158 0.984 . S
N2146 H2159 0.985 . S
N2147 C2149 1.356 . S
N2147 H2152 0.984 . S
N2147 H2153 0.985 . S
C2148 C2142 1.379 . S
C2148 C2145 1.363 . S
C2148 N2146 1.356 . S
C2149 C2143 1.363 . S
C2149 C2144 1.379 . S
C2149 N2147 1.356 . S
N2150 C2142 1.356 . S
N2150 H2156 0.984 . S
N2150 H2157 0.984 . S
N2151 C2144 1.356 . S
N2151 H2154 0.984 . S
N2151 H2155 0.985 . S
H2152 N2147 0.984 . S
H2153 N2147 0.985 . S
H2154 N2151 0.984 . S
H2155 N2151 0.985 . S
H2156 N2150 0.984 . S
H2157 N2150 0.984 . S
H2158 N2146 0.984 . S
H2159 N2146 0.985 . S
C2160 C2161 1.363 . S
C2160 C2166 1.379 . S
C2160 N2168 1.356 . S
C2161 C2160 1.363 . S
C2161 C2167 1.363 . S
C2162 C2163 1.363 . S
C2162 C2167 1.379 . S
C2162 N2169 1.356 . S
C2163 C2162 1.363 . S
C2163 C2166 1.363 . S
N2164 C2166 1.356 . S
N2164 H2176 0.984 . S
N2164 H2177 0.985 . S
N2165 C2167 1.356 . S
N2165 H2170 0.984 . S
N2165 H2171 0.985 . S
C2166 C2160 1.379 . S
C2166 C2163 1.363 . S
C2166 N2164 1.356 . S
C2167 C2161 1.363 . S
C2167 C2162 1.379 . S
C2167 N2165 1.356 . S
N2168 C2160 1.356 . S
N2168 H2174 0.984 . S
N2168 H2175 0.984 . S
N2169 C2162 1.356 . S
N2169 H2172 0.984 . S
N2169 H2173 0.985 . S
H2170 N2165 0.984 . S
H2171 N2165 0.985 . S
H2172 N2169 0.984 . S
H2173 N2169 0.985 . S
H2174 N2168 0.984 . S
H2175 N2168 0.984 . S
H2176 N2164 0.984 . S
H2177 N2164 0.985 . S
C2178 C2179 1.363 . S
C2178 C2184 1.379 . S
C2178 N2186 1.356 . S
C2179 C2178 1.363 . S
C2179 C2185 1.363 . S
C2180 C2181 1.363 . S
C2180 C2185 1.379 . S
C2180 N2187 1.356 . S
C2181 C2180 1.363 . S
C2181 C2184 1.363 . S
N2182 C2184 1.356 . S
N2182 H2194 0.984 1_565 S
N2182 H2195 0.985 . S
N2183 C2185 1.356 . S
N2183 H2188 0.984 . S
N2183 H2189 0.985 . S
C2184 C2178 1.379 . S
C2184 C2181 1.363 . S
C2184 N2182 1.356 . S
C2185 C2179 1.363 . S
C2185 C2180 1.379 . S
C2185 N2183 1.356 . S
N2186 C2178 1.356 . S
N2186 H2192 0.984 . S
N2186 H2193 0.984 . S
N2187 C2180 1.356 . S
N2187 H2190 0.984 . S
N2187 H2191 0.985 . S
H2188 N2183 0.984 . S
H2189 N2183 0.985 . S
H2190 N2187 0.984 . S
H2191 N2187 0.985 . S
H2192 N2186 0.984 . S
H2193 N2186 0.984 . S
H2194 N2182 0.984 1_545 S
H2195 N2182 0.985 . S
C2196 C2197 1.363 . S
C2196 C2202 1.379 . S
C2196 N2204 1.356 . S
C2197 C2196 1.363 . S
C2197 C2203 1.363 . S
C2198 C2199 1.363 . S
C2198 C2203 1.379 . S
C2198 N2205 1.356 . S
C2199 C2198 1.363 . S
C2199 C2202 1.363 . S
N2200 C2202 1.356 . S
N2200 H2212 0.984 . S
N2200 H2213 0.985 . S
N2201 C2203 1.356 . S
N2201 H2206 0.984 . S
N2201 H2207 0.985 . S
C2202 C2196 1.379 . S
C2202 C2199 1.363 . S
C2202 N2200 1.356 . S
C2203 C2197 1.363 . S
C2203 C2198 1.379 . S
C2203 N2201 1.356 . S
N2204 C2196 1.356 . S
N2204 H2210 0.984 . S
N2204 H2211 0.984 . S
N2205 C2198 1.356 . S
N2205 H2208 0.984 . S
N2205 H2209 0.985 . S
H2206 N2201 0.984 . S
H2207 N2201 0.985 . S
H2208 N2205 0.984 . S
H2209 N2205 0.985 . S
H2210 N2204 0.984 . S
H2211 N2204 0.984 . S
H2212 N2200 0.984 . S
H2213 N2200 0.985 . S
C2214 C2215 1.363 . S
C2214 C2220 1.379 . S
C2214 N2222 1.356 . S
C2215 C2214 1.363 . S
C2215 C2221 1.363 . S
C2216 C2217 1.363 . S
C2216 C2221 1.379 . S
C2216 N2223 1.356 . S
C2217 C2216 1.363 . S
C2217 C2220 1.363 . S
N2218 C2220 1.356 . S
N2218 H2230 0.984 . S
N2218 H2231 0.985 . S
N2219 C2221 1.356 . S
N2219 H2224 0.984 . S
N2219 H2225 0.985 . S
C2220 C2214 1.379 . S
C2220 C2217 1.363 . S
C2220 N2218 1.356 . S
C2221 C2215 1.363 . S
C2221 C2216 1.379 . S
C2221 N2219 1.356 . S
N2222 C2214 1.356 . S
N2222 H2228 0.984 . S
N2222 H2229 0.984 . S
N2223 C2216 1.356 . S
N2223 H2226 0.984 . S
N2223 H2227 0.985 . S
H2224 N2219 0.984 . S
H2225 N2219 0.985 . S
H2226 N2223 0.984 . S
H2227 N2223 0.985 . S
H2228 N2222 0.984 . S
H2229 N2222 0.984 . S
H2230 N2218 0.984 . S
H2231 N2218 0.985 . S
C2232 C2233 1.363 . S
C2232 C2238 1.379 . S
C2232 N2240 1.356 . S
C2233 C2232 1.363 . S
C2233 C2239 1.363 . S
C2234 C2235 1.363 . S
C2234 C2239 1.379 . S
C2234 N2241 1.356 . S
C2235 C2234 1.363 . S
C2235 C2238 1.363 . S
N2236 C2238 1.356 . S
N2236 H2248 0.984 . S
N2236 H2249 0.985 . S
N2237 C2239 1.356 . S
N2237 H2242 0.984 . S
N2237 H2243 0.985 . S
C2238 C2232 1.379 . S
C2238 C2235 1.363 . S
C2238 N2236 1.356 . S
C2239 C2233 1.363 . S
C2239 C2234 1.379 . S
C2239 N2237 1.356 . S
N2240 C2232 1.356 . S
N2240 H2246 0.984 . S
N2240 H2247 0.984 . S
N2241 C2234 1.356 . S
N2241 H2244 0.984 . S
N2241 H2245 0.985 . S
H2242 N2237 0.984 . S
H2243 N2237 0.985 . S
H2244 N2241 0.984 . S
H2245 N2241 0.985 . S
H2246 N2240 0.984 . S
H2247 N2240 0.984 . S
H2248 N2236 0.984 . S
H2249 N2236 0.985 . S
C2250 C2251 1.363 . S
C2250 C2256 1.379 . S
C2250 N2258 1.356 . S
C2251 C2250 1.363 . S
C2251 C2257 1.363 . S
C2252 C2253 1.363 . S
C2252 C2257 1.379 . S
C2252 N2259 1.356 . S
C2253 C2252 1.363 . S
C2253 C2256 1.363 . S
N2254 C2256 1.356 . S
N2254 H2266 0.984 . S
N2254 H2267 0.985 . S
N2255 C2257 1.356 1_545 S
N2255 H2260 0.984 . S
N2255 H2261 0.985 . S
C2256 C2250 1.379 . S
C2256 C2253 1.363 . S
C2256 N2254 1.356 . S
C2257 C2251 1.363 . S
C2257 C2252 1.379 . S
C2257 N2255 1.356 1_565 S
N2258 C2250 1.356 . S
N2258 H2264 0.984 . S
N2258 H2265 0.984 . S
N2259 C2252 1.356 . S
N2259 H2262 0.984 . S
N2259 H2263 0.985 1_565 S
H2260 N2255 0.984 . S
H2261 N2255 0.985 . S
H2262 N2259 0.984 . S
H2263 N2259 0.985 1_545 S
H2264 N2258 0.984 . S
H2265 N2258 0.984 . S
H2266 N2254 0.984 . S
H2267 N2254 0.985 . S
C2268 C2269 1.363 . S
C2268 C2274 1.379 . S
C2268 N2276 1.356 . S
C2269 C2268 1.363 . S
C2269 C2275 1.363 . S
C2270 C2271 1.363 . S
C2270 C2275 1.379 . S
C2270 N2277 1.356 . S
C2271 C2270 1.363 . S
C2271 C2274 1.363 . S
N2272 C2274 1.356 . S
N2272 H2284 0.984 . S
N2272 H2285 0.985 . S
N2273 C2275 1.356 . S
N2273 H2278 0.984 . S
N2273 H2279 0.985 . S
C2274 C2268 1.379 . S
C2274 C2271 1.363 . S
C2274 N2272 1.356 . S
C2275 C2269 1.363 . S
C2275 C2270 1.379 . S
C2275 N2273 1.356 . S
N2276 C2268 1.356 . S
N2276 H2282 0.984 . S
N2276 H2283 0.984 . S
N2277 C2270 1.356 . S
N2277 H2280 0.984 . S
N2277 H2281 0.985 . S
H2278 N2273 0.984 . S
H2279 N2273 0.985 . S
H2280 N2277 0.984 . S
H2281 N2277 0.985 . S
H2282 N2276 0.984 . S
H2283 N2276 0.984 . S
H2284 N2272 0.984 . S
H2285 N2272 0.985 . S
C2286 C2287 1.363 . S
C2286 C2292 1.379 . S
C2286 N2294 1.356 . S
C2287 C2286 1.363 . S
C2287 C2293 1.363 . S
C2288 C2289 1.363 . S
C2288 C2293 1.379 . S
C2288 N2295 1.356 . S
C2289 C2288 1.363 . S
C2289 C2292 1.363 . S
N2290 C2292 1.356 . S
N2290 H2302 0.984 . S
N2290 H2303 0.985 . S
N2291 C2293 1.356 . S
N2291 H2296 0.984 . S
N2291 H2297 0.985 . S
C2292 C2286 1.379 . S
C2292 C2289 1.363 . S
C2292 N2290 1.356 . S
C2293 C2287 1.363 . S
C2293 C2288 1.379 . S
C2293 N2291 1.356 . S
N2294 C2286 1.356 . S
N2294 H2300 0.984 . S
N2294 H2301 0.984 . S
N2295 C2288 1.356 . S
N2295 H2298 0.984 . S
N2295 H2299 0.985 . S
H2296 N2291 0.984 . S
H2297 N2291 0.985 . S
H2298 N2295 0.984 . S
H2299 N2295 0.985 . S
H2300 N2294 0.984 . S
H2301 N2294 0.984 . S
H2302 N2290 0.984 . S
H2303 N2290 0.985 . S
C2304 C2305 1.363 . S
C2304 C2310 1.379 . S
C2304 N2312 1.356 . S
C2305 C2304 1.363 . S
C2305 C2311 1.363 . S
C2306 C2307 1.363 . S
C2306 C2311 1.379 . S
C2306 N2313 1.356 . S
C2307 C2306 1.363 . S
C2307 C2310 1.363 . S
N2308 C2310 1.356 . S
N2308 H2320 0.984 . S
N2308 H2321 0.985 . S
N2309 C2311 1.356 . S
N2309 H2314 0.984 . S
N2309 H2315 0.985 . S
C2310 C2304 1.379 . S
C2310 C2307 1.363 . S
C2310 N2308 1.356 . S
C2311 C2305 1.363 . S
C2311 C2306 1.379 . S
C2311 N2309 1.356 . S
N2312 C2304 1.356 . S
N2312 H2318 0.984 . S
N2312 H2319 0.984 . S
N2313 C2306 1.356 . S
N2313 H2316 0.984 . S
N2313 H2317 0.985 . S
H2314 N2309 0.984 . S
H2315 N2309 0.985 . S
H2316 N2313 0.984 . S
H2317 N2313 0.985 . S
H2318 N2312 0.984 . S
H2319 N2312 0.984 . S
H2320 N2308 0.984 . S
H2321 N2308 0.985 . S
C2322 C2323 1.363 . S
C2322 C2328 1.379 . S
C2322 N2330 1.356 . S
C2323 C2322 1.363 . S
C2323 C2329 1.363 . S
C2324 C2325 1.363 . S
C2324 C2329 1.379 . S
C2324 N2331 1.356 . S
C2325 C2324 1.363 . S
C2325 C2328 1.363 . S
N2326 C2328 1.356 . S
N2326 H2338 0.984 . S
N2326 H2339 0.985 . S
N2327 C2329 1.356 . S
N2327 H2332 0.984 . S
N2327 H2333 0.985 . S
C2328 C2322 1.379 . S
C2328 C2325 1.363 . S
C2328 N2326 1.356 . S
C2329 C2323 1.363 . S
C2329 C2324 1.379 . S
C2329 N2327 1.356 . S
N2330 C2322 1.356 . S
N2330 H2336 0.984 . S
N2330 H2337 0.984 . S
N2331 C2324 1.356 . S
N2331 H2334 0.984 . S
N2331 H2335 0.985 . S
H2332 N2327 0.984 . S
H2333 N2327 0.985 . S
H2334 N2331 0.984 . S
H2335 N2331 0.985 . S
H2336 N2330 0.984 . S
H2337 N2330 0.984 . S
H2338 N2326 0.984 . S
H2339 N2326 0.985 . S
C2340 C2341 1.363 . S
C2340 C2346 1.379 . S
C2340 N2348 1.356 . S
C2341 C2340 1.363 . S
C2341 C2347 1.363 . S
C2342 C2343 1.363 . S
C2342 C2347 1.379 . S
C2342 N2349 1.356 . S
C2343 C2342 1.363 . S
C2343 C2346 1.363 . S
N2344 C2346 1.356 . S
N2344 H2356 0.984 . S
N2344 H2357 0.985 . S
N2345 C2347 1.356 1_565 S
N2345 H2350 0.984 . S
N2345 H2351 0.985 . S
C2346 C2340 1.379 . S
C2346 C2343 1.363 . S
C2346 N2344 1.356 . S
C2347 C2341 1.363 . S
C2347 C2342 1.379 . S
C2347 N2345 1.356 1_545 S
N2348 C2340 1.356 . S
N2348 H2354 0.984 . S
N2348 H2355 0.984 . S
N2349 C2342 1.356 . S
N2349 H2352 0.984 . S
N2349 H2353 0.985 . S
H2350 N2345 0.984 . S
H2351 N2345 0.985 . S
H2352 N2349 0.984 . S
H2353 N2349 0.985 . S
H2354 N2348 0.984 . S
H2355 N2348 0.984 . S
H2356 N2344 0.984 . S
H2357 N2344 0.985 . S
C2358 C2359 1.363 . S
C2358 C2364 1.379 . S
C2358 N2366 1.356 . S
C2359 C2358 1.363 . S
C2359 C2365 1.363 . S
C2360 C2361 1.363 . S
C2360 C2365 1.379 . S
C2360 N2367 1.356 . S
C2361 C2360 1.363 . S
C2361 C2364 1.363 . S
N2362 C2364 1.356 . S
N2362 H2374 0.984 . S
N2362 H2375 0.985 . S
N2363 C2365 1.356 . S
N2363 H2368 0.984 . S
N2363 H2369 0.985 . S
C2364 C2358 1.379 . S
C2364 C2361 1.363 . S
C2364 N2362 1.356 . S
C2365 C2359 1.363 . S
C2365 C2360 1.379 . S
C2365 N2363 1.356 . S
N2366 C2358 1.356 . S
N2366 H2372 0.984 . S
N2366 H2373 0.984 . S
N2367 C2360 1.356 . S
N2367 H2370 0.984 . S
N2367 H2371 0.985 . S
H2368 N2363 0.984 . S
H2369 N2363 0.985 . S
H2370 N2367 0.984 . S
H2371 N2367 0.985 . S
H2372 N2366 0.984 . S
H2373 N2366 0.984 . S
H2374 N2362 0.984 . S
H2375 N2362 0.985 . S
C2376 C2377 1.363 . S
C2376 C2382 1.379 . S
C2376 N2384 1.356 . S
C2377 C2376 1.363 . S
C2377 C2383 1.363 . S
C2378 C2379 1.363 . S
C2378 C2383 1.379 . S
C2378 N2385 1.356 . S
C2379 C2378 1.363 . S
C2379 C2382 1.363 . S
N2380 C2382 1.356 . S
N2380 H2392 0.984 . S
N2380 H2393 0.985 . S
N2381 C2383 1.356 1_655 S
N2381 H2386 0.984 1_565 S
N2381 H2387 0.985 . S
C2382 C2376 1.379 . S
C2382 C2379 1.363 . S
C2382 N2380 1.356 . S
C2383 C2377 1.363 . S
C2383 C2378 1.379 . S
C2383 N2381 1.356 1_455 S
N2384 C2376 1.356 . S
N2384 H2390 0.984 . S
N2384 H2391 0.984 1_565 S
N2385 C2378 1.356 . S
N2385 H2388 0.984 . S
N2385 H2389 0.985 1_455 S
H2386 N2381 0.984 1_545 S
H2387 N2381 0.985 . S
H2388 N2385 0.984 . S
H2389 N2385 0.985 1_655 S
H2390 N2384 0.984 . S
H2391 N2384 0.984 1_545 S
H2392 N2380 0.984 . S
H2393 N2380 0.985 . S
C2394 C2395 1.363 . S
C2394 C2400 1.379 . S
C2394 N2402 1.356 . S
C2395 C2394 1.363 . S
C2395 C2401 1.363 . S
C2396 C2397 1.363 . S
C2396 C2401 1.379 . S
C2396 N2403 1.356 . S
C2397 C2396 1.363 . S
C2397 C2400 1.363 . S
N2398 C2400 1.356 . S
N2398 H2410 0.984 . S
N2398 H2411 0.985 . S
N2399 C2401 1.356 . S
N2399 H2404 0.984 . S
N2399 H2405 0.985 . S
C2400 C2394 1.379 . S
C2400 C2397 1.363 . S
C2400 N2398 1.356 . S
C2401 C2395 1.363 . S
C2401 C2396 1.379 . S
C2401 N2399 1.356 . S
N2402 C2394 1.356 . S
N2402 H2408 0.984 . S
N2402 H2409 0.984 . S
N2403 C2396 1.356 . S
N2403 H2406 0.984 . S
N2403 H2407 0.985 . S
H2404 N2399 0.984 . S
H2405 N2399 0.985 . S
H2406 N2403 0.984 . S
H2407 N2403 0.985 . S
H2408 N2402 0.984 . S
H2409 N2402 0.984 . S
H2410 N2398 0.984 . S
H2411 N2398 0.985 . S
C2412 C2413 1.363 . S
C2412 C2418 1.379 . S
C2412 N2420 1.356 . S
C2413 C2412 1.363 . S
C2413 C2419 1.363 . S
C2414 C2415 1.363 . S
C2414 C2419 1.379 . S
C2414 N2421 1.356 . S
C2415 C2414 1.363 . S
C2415 C2418 1.363 . S
N2416 C2418 1.356 . S
N2416 H2428 0.984 . S
N2416 H2429 0.985 1_565 S
N2417 C2419 1.356 . S
N2417 H2422 0.984 . S
N2417 H2423 0.985 . S
C2418 C2412 1.379 . S
C2418 C2415 1.363 . S
C2418 N2416 1.356 . S
C2419 C2413 1.363 . S
C2419 C2414 1.379 . S
C2419 N2417 1.356 . S
N2420 C2412 1.356 . S
N2420 H2426 0.984 . S
N2420 H2427 0.984 . S
N2421 C2414 1.356 . S
N2421 H2424 0.984 1_565 S
N2421 H2425 0.985 . S
H2422 N2417 0.984 . S
H2423 N2417 0.985 . S
H2424 N2421 0.984 1_545 S
H2425 N2421 0.985 . S
H2426 N2420 0.984 . S
H2427 N2420 0.984 . S
H2428 N2416 0.984 . S
H2429 N2416 0.985 1_545 S
C2430 C2431 1.363 . S
C2430 C2436 1.379 . S
C2430 N2438 1.356 . S
C2431 C2430 1.363 . S
C2431 C2437 1.363 . S
C2432 C2433 1.363 . S
C2432 C2437 1.379 . S
C2432 N2439 1.356 . S
C2433 C2432 1.363 . S
C2433 C2436 1.363 . S
N2434 C2436 1.356 . S
N2434 H2446 0.984 . S
N2434 H2447 0.985 . S
N2435 C2437 1.356 . S
N2435 H2440 0.984 . S
N2435 H2441 0.985 . S
C2436 C2430 1.379 . S
C2436 C2433 1.363 . S
C2436 N2434 1.356 . S
C2437 C2431 1.363 . S
C2437 C2432 1.379 . S
C2437 N2435 1.356 . S
N2438 C2430 1.356 . S
N2438 H2444 0.984 . S
N2438 H2445 0.984 . S
N2439 C2432 1.356 . S
N2439 H2442 0.984 . S
N2439 H2443 0.985 . S
H2440 N2435 0.984 . S
H2441 N2435 0.985 . S
H2442 N2439 0.984 . S
H2443 N2439 0.985 . S
H2444 N2438 0.984 . S
H2445 N2438 0.984 . S
H2446 N2434 0.984 . S
H2447 N2434 0.985 . S
C2448 C2449 1.363 . S
C2448 C2454 1.379 1_455 S
C2448 N2456 1.356 . S
C2449 C2448 1.363 . S
C2449 C2455 1.363 . S
C2450 C2451 1.363 . S
C2450 C2455 1.379 1_655 S
C2450 N2457 1.356 . S
C2451 C2450 1.363 . S
C2451 C2454 1.363 . S
N2452 C2454 1.356 . S
N2452 H2464 0.984 . S
N2452 H2465 0.985 . S
N2453 C2455 1.356 . S
N2453 H2458 0.984 . S
N2453 H2459 0.985 . S
C2454 C2448 1.379 1_655 S
C2454 C2451 1.363 . S
C2454 N2452 1.356 . S
C2455 C2449 1.363 . S
C2455 C2450 1.379 1_455 S
C2455 N2453 1.356 . S
N2456 C2448 1.356 . S
N2456 H2462 0.990 . S
N2456 H2463 0.984 . S
N2457 C2450 1.356 . S
N2457 H2460 0.984 . S
N2457 H2461 0.990 . S
H2458 N2453 0.984 . S
H2459 N2453 0.985 . S
H2460 N2457 0.984 . S
H2461 N2457 0.990 . S
H2462 N2456 0.990 . S
H2463 N2456 0.984 . S
H2464 N2452 0.984 . S
H2465 N2452 0.985 . S
C2466 C2467 1.363 . S
C2466 C2472 1.379 . S
C2466 N2474 1.356 . S
C2467 C2466 1.363 . S
C2467 C2473 1.363 . S
C2468 C2469 1.363 . S
C2468 C2473 1.379 . S
C2468 N2475 1.356 . S
C2469 C2468 1.363 . S
C2469 C2472 1.363 . S
N2470 C2472 1.356 . S
N2470 H2482 0.984 1_554 S
N2470 H2483 0.985 . S
N2471 C2473 1.356 . S
N2471 H2476 0.984 . S
N2471 H2477 0.985 . S
C2472 C2466 1.379 . S
C2472 C2469 1.363 . S
C2472 N2470 1.356 . S
C2473 C2467 1.363 . S
C2473 C2468 1.379 . S
C2473 N2471 1.356 . S
N2474 C2466 1.356 . S
N2474 H2480 0.984 1_554 S
N2474 H2481 0.984 . S
N2475 C2468 1.356 . S
N2475 H2478 0.984 . S
N2475 H2479 0.985 . S
H2476 N2471 0.984 . S
H2477 N2471 0.985 . S
H2478 N2475 0.984 . S
H2479 N2475 0.985 . S
H2480 N2474 0.984 1_556 S
H2481 N2474 0.984 . S
H2482 N2470 0.984 1_556 S
H2483 N2470 0.985 . S
C2484 C2485 1.363 . S
C2484 C2490 1.379 1_655 S
C2484 N2492 1.356 . S
C2485 C2484 1.363 . S
C2485 C2491 1.363 . S
C2486 C2487 1.363 . S
C2486 C2491 1.379 1_455 S
C2486 N2493 1.356 . S
C2487 C2486 1.363 . S
C2487 C2490 1.363 . S
N2488 C2490 1.356 . S
N2488 H2500 0.984 . S
N2488 H2501 0.985 . S
N2489 C2491 1.356 . S
N2489 H2494 0.984 . S
N2489 H2495 0.985 . S
C2490 C2484 1.379 1_455 S
C2490 C2487 1.363 . S
C2490 N2488 1.356 . S
C2491 C2485 1.363 . S
C2491 C2486 1.379 1_655 S
C2491 N2489 1.356 . S
N2492 C2484 1.356 . S
N2492 H2498 0.990 . S
N2492 H2499 0.984 . S
N2493 C2486 1.356 . S
N2493 H2496 0.984 . S
N2493 H2497 0.990 . S
H2494 N2489 0.984 . S
H2495 N2489 0.985 . S
H2496 N2493 0.984 . S
H2497 N2493 0.990 . S
H2498 N2492 0.990 . S
H2499 N2492 0.984 . S
H2500 N2488 0.984 . S
H2501 N2488 0.985 . S
C2502 C2503 1.363 . S
C2502 C2508 1.379 . S
C2502 N2510 1.356 . S
C2503 C2502 1.363 . S
C2503 C2509 1.363 1_655 S
C2504 C2505 1.363 . S
C2504 C2509 1.379 . S
C2504 N2511 1.356 . S
C2505 C2504 1.363 . S
C2505 C2508 1.363 1_455 S
N2506 C2508 1.356 1_455 S
N2506 H2518 0.984 1_456 S
N2506 H2519 0.985 . S
N2507 C2509 1.356 1_655 S
N2507 H2512 0.984 . S
N2507 H2513 0.985 1_655 S
C2508 C2502 1.379 . S
C2508 C2505 1.363 1_655 S
C2508 N2506 1.356 1_655 S
C2509 C2503 1.363 1_455 S
C2509 C2504 1.379 . S
C2509 N2507 1.356 1_455 S
N2510 C2502 1.356 . S
N2510 H2516 0.984 1_556 S
N2510 H2517 0.984 . S
N2511 C2504 1.356 . S
N2511 H2514 0.984 . S
N2511 H2515 0.985 . S
H2512 N2507 0.984 . S
H2513 N2507 0.985 1_455 S
H2514 N2511 0.984 . S
H2515 N2511 0.985 . S
H2516 N2510 0.984 1_554 S
H2517 N2510 0.984 . S
H2518 N2506 0.984 1_654 S
H2519 N2506 0.985 . S
C2520 C2521 1.363 . S
C2520 C2526 1.379 . S
C2520 N2528 1.356 . S
C2521 C2520 1.363 . S
C2521 C2527 1.363 1_565 S
C2522 C2523 1.363 . S
C2522 C2527 1.379 . S
C2522 N2529 1.356 . S
C2523 C2522 1.363 . S
C2523 C2526 1.363 1_545 S
N2524 C2526 1.356 1_545 S
N2524 H2536 0.984 1_545 S
N2524 H2537 0.985 . S
N2525 C2527 1.356 1_565 S
N2525 H2530 0.984 . S
N2525 H2531 0.985 1_565 S
C2526 C2520 1.379 . S
C2526 C2523 1.363 1_565 S
C2526 N2524 1.356 1_565 S
C2527 C2521 1.363 1_545 S
C2527 C2522 1.379 . S
C2527 N2525 1.356 1_545 S
N2528 C2520 1.356 . S
N2528 H2534 0.984 . S
N2528 H2535 0.984 . S
N2529 C2522 1.356 . S
N2529 H2532 0.984 . S
N2529 H2533 0.985 . S
H2530 N2525 0.984 . S
H2531 N2525 0.985 1_545 S
H2532 N2529 0.984 . S
H2533 N2529 0.985 . S
H2534 N2528 0.984 . S
H2535 N2528 0.984 . S
H2536 N2524 0.984 1_565 S
H2537 N2524 0.985 . S
C2538 C2539 1.363 1_554 S
C2538 C2544 1.379 . S
C2538 N2546 1.356 1_554 S
C2539 C2538 1.363 1_556 S
C2539 C2545 1.363 . S
C2540 C2541 1.363 1_556 S
C2540 C2545 1.379 . S
C2540 N2547 1.356 1_556 S
C2541 C2540 1.363 1_554 S
C2541 C2544 1.363 . S
N2542 C2544 1.356 . S
N2542 H2554 0.984 . S
N2542 H2555 0.985 . S
N2543 C2545 1.356 . S
N2543 H2548 0.984 . S
N2543 H2549 0.985 . S
C2544 C2538 1.379 . S
C2544 C2541 1.363 . S
C2544 N2542 1.356 . S
C2545 C2539 1.363 . S
C2545 C2540 1.379 . S
C2545 N2543 1.356 . S
N2546 C2538 1.356 1_556 S
N2546 H2552 0.984 1_556 S
N2546 H2553 0.984 . S
N2547 C2540 1.356 1_554 S
N2547 H2550 0.984 . S
N2547 H2551 0.985 1_554 S
H2548 N2543 0.984 . S
H2549 N2543 0.985 . S
H2550 N2547 0.984 . S
H2551 N2547 0.985 1_556 S
H2552 N2546 0.984 1_554 S
H2553 N2546 0.984 . S
H2554 N2542 0.984 . S
H2555 N2542 0.985 . S
C2556 C2557 1.363 . S
C2556 C2562 1.379 . S
C2556 N2564 1.356 . S
C2557 C2556 1.363 . S
C2557 C2563 1.363 . S
C2558 C2559 1.363 . S
C2558 C2563 1.379 . S
C2558 N2565 1.356 . S
C2559 C2558 1.363 . S
C2559 C2562 1.363 . S
N2560 C2562 1.356 . S
N2560 H2572 0.984 . S
N2560 H2573 0.985 . S
N2561 C2563 1.356 . S
N2561 H2566 0.984 . S
N2561 H2567 0.985 . S
C2562 C2556 1.379 . S
C2562 C2559 1.363 . S
C2562 N2560 1.356 . S
C2563 C2557 1.363 . S
C2563 C2558 1.379 . S
C2563 N2561 1.356 . S
N2564 C2556 1.356 . S
N2564 H2570 0.984 . S
N2564 H2571 0.984 . S
N2565 C2558 1.356 . S
N2565 H2568 0.984 . S
N2565 H2569 0.985 . S
H2566 N2561 0.984 . S
H2567 N2561 0.985 . S
H2568 N2565 0.984 . S
H2569 N2565 0.985 . S
H2570 N2564 0.984 . S
H2571 N2564 0.984 . S
H2572 N2560 0.984 . S
H2573 N2560 0.985 . S
C2574 C2575 1.363 1_556 S
C2574 C2580 1.379 . S
C2574 N2582 1.356 1_556 S
C2575 C2574 1.363 1_554 S
C2575 C2581 1.363 . S
C2576 C2577 1.363 1_554 S
C2576 C2581 1.379 . S
C2576 N2583 1.356 1_554 S
C2577 C2576 1.363 1_556 S
C2577 C2580 1.363 . S
N2578 C2580 1.356 . S
N2578 H2590 0.984 . S
N2578 H2591 0.985 . S
N2579 C2581 1.356 . S
N2579 H2584 0.984 . S
N2579 H2585 0.985 1_565 S
C2580 C2574 1.379 . S
C2580 C2577 1.363 . S
C2580 N2578 1.356 . S
C2581 C2575 1.363 . S
C2581 C2576 1.379 . S
C2581 N2579 1.356 . S
N2582 C2574 1.356 1_554 S
N2582 H2588 0.984 1_554 S
N2582 H2589 0.984 . S
N2583 C2576 1.356 1_556 S
N2583 H2586 0.984 . S
N2583 H2587 0.985 1_566 S
H2584 N2579 0.984 . S
H2585 N2579 0.985 1_545 S
H2586 N2583 0.984 . S
H2587 N2583 0.985 1_544 S
H2588 N2582 0.984 1_556 S
H2589 N2582 0.984 . S
H2590 N2578 0.984 . S
H2591 N2578 0.985 . S
C2592 C2593 1.363 . S
C2592 C2598 1.379 1_556 S
C2592 N2600 1.356 . S
C2593 C2592 1.363 . S
C2593 C2599 1.363 . S
C2594 C2595 1.363 . S
C2594 C2599 1.379 1_554 S
C2594 N2601 1.356 . S
C2595 C2594 1.363 . S
C2595 C2598 1.363 . S
N2596 C2598 1.356 . S
N2596 H2608 0.990 . S
N2596 H2609 0.985 . S
N2597 C2599 1.356 . S
N2597 H2602 0.984 . S
N2597 H2603 0.990 . S
C2598 C2592 1.379 1_554 S
C2598 C2595 1.363 . S
C2598 N2596 1.356 . S
C2599 C2593 1.363 . S
C2599 C2594 1.379 1_556 S
C2599 N2597 1.356 . S
N2600 C2592 1.356 . S
N2600 H2606 0.984 . S
N2600 H2607 0.984 . S
N2601 C2594 1.356 . S
N2601 H2604 0.984 . S
N2601 H2605 0.985 . S
H2602 N2597 0.984 . S
H2603 N2597 0.990 . S
H2604 N2601 0.984 . S
H2605 N2601 0.985 . S
H2606 N2600 0.984 . S
H2607 N2600 0.984 . S
H2608 N2596 0.990 . S
H2609 N2596 0.985 . S
C2610 C2611 1.363 . S
C2610 C2616 1.379 . S
C2610 N2618 1.356 . S
C2611 C2610 1.363 . S
C2611 C2617 1.363 . S
C2612 C2613 1.363 . S
C2612 C2617 1.379 . S
C2612 N2619 1.356 . S
C2613 C2612 1.363 . S
C2613 C2616 1.363 . S
N2614 C2616 1.356 . S
N2614 H2626 0.984 . S
N2614 H2627 0.985 . S
N2615 C2617 1.356 . S
N2615 H2620 0.984 . S
N2615 H2621 0.985 . S
C2616 C2610 1.379 . S
C2616 C2613 1.363 . S
C2616 N2614 1.356 . S
C2617 C2611 1.363 . S
C2617 C2612 1.379 . S
C2617 N2615 1.356 . S
N2618 C2610 1.356 . S
N2618 H2624 0.984 . S
N2618 H2625 0.984 . S
N2619 C2612 1.356 . S
N2619 H2622 0.984 . S
N2619 H2623 0.985 . S
H2620 N2615 0.984 . S
H2621 N2615 0.985 . S
H2622 N2619 0.984 . S
H2623 N2619 0.985 . S
H2624 N2618 0.984 . S
H2625 N2618 0.984 . S
H2626 N2614 0.984 . S
H2627 N2614 0.985 . S
C2628 C2629 1.363 . S
C2628 C2634 1.379 . S
C2628 N2636 1.356 . S
C2629 C2628 1.363 . S
C2629 C2635 1.363 . S
C2630 C2631 1.363 . S
C2630 C2635 1.379 . S
C2630 N2637 1.356 . S
C2631 C2630 1.363 . S
C2631 C2634 1.363 . S
N2632 C2634 1.356 . S
N2632 H2644 0.984 . S
N2632 H2645 0.985 . S
N2633 C2635 1.356 . S
N2633 H2638 0.984 . S
N2633 H2639 0.985 . S
C2634 C2628 1.379 . S
C2634 C2631 1.363 . S
C2634 N2632 1.356 . S
C2635 C2629 1.363 . S
C2635 C2630 1.379 . S
C2635 N2633 1.356 . S
N2636 C2628 1.356 . S
N2636 H2642 0.984 . S
N2636 H2643 0.984 . S
N2637 C2630 1.356 . S
N2637 H2640 0.984 . S
N2637 H2641 0.985 . S
H2638 N2633 0.984 . S
H2639 N2633 0.985 . S
H2640 N2637 0.984 . S
H2641 N2637 0.985 . S
H2642 N2636 0.984 . S
H2643 N2636 0.984 . S
H2644 N2632 0.984 . S
H2645 N2632 0.985 . S
C2646 C2647 1.363 . S
C2646 C2652 1.379 . S
C2646 N2654 1.356 . S
C2647 C2646 1.363 . S
C2647 C2653 1.363 . S
C2648 C2649 1.363 . S
C2648 C2653 1.379 . S
C2648 N2655 1.356 . S
C2649 C2648 1.363 . S
C2649 C2652 1.363 . S
N2650 C2652 1.356 . S
N2650 H2662 0.984 . S
N2650 H2663 0.985 . S
N2651 C2653 1.356 . S
N2651 H2656 0.984 . S
N2651 H2657 0.985 . S
C2652 C2646 1.379 . S
C2652 C2649 1.363 . S
C2652 N2650 1.356 . S
C2653 C2647 1.363 . S
C2653 C2648 1.379 . S
C2653 N2651 1.356 . S
N2654 C2646 1.356 . S
N2654 H2660 0.984 . S
N2654 H2661 0.984 . S
N2655 C2648 1.356 . S
N2655 H2658 0.984 . S
N2655 H2659 0.985 . S
H2656 N2651 0.984 . S
H2657 N2651 0.985 . S
H2658 N2655 0.984 . S
H2659 N2655 0.985 . S
H2660 N2654 0.984 . S
H2661 N2654 0.984 . S
H2662 N2650 0.984 . S
H2663 N2650 0.985 . S
C2664 C2665 1.363 . S
C2664 C2670 1.379 . S
C2664 N2672 1.356 . S
C2665 C2664 1.363 . S
C2665 C2671 1.363 . S
C2666 C2667 1.363 . S
C2666 C2671 1.379 . S
C2666 N2673 1.356 . S
C2667 C2666 1.363 . S
C2667 C2670 1.363 . S
N2668 C2670 1.356 . S
N2668 H2680 0.984 . S
N2668 H2681 0.985 . S
N2669 C2671 1.356 . S
N2669 H2674 0.984 . S
N2669 H2675 0.985 . S
C2670 C2664 1.379 . S
C2670 C2667 1.363 . S
C2670 N2668 1.356 . S
C2671 C2665 1.363 . S
C2671 C2666 1.379 . S
C2671 N2669 1.356 . S
N2672 C2664 1.356 . S
N2672 H2678 0.984 . S
N2672 H2679 0.984 . S
N2673 C2666 1.356 . S
N2673 H2676 0.984 . S
N2673 H2677 0.985 . S
H2674 N2669 0.984 . S
H2675 N2669 0.985 . S
H2676 N2673 0.984 . S
H2677 N2673 0.985 . S
H2678 N2672 0.984 . S
H2679 N2672 0.984 . S
H2680 N2668 0.984 . S
H2681 N2668 0.985 . S
C2682 C2683 1.363 1_565 S
C2682 C2688 1.379 . S
C2682 N2690 1.356 . S
C2683 C2682 1.363 1_545 S
C2683 C2689 1.363 . S
C2684 C2685 1.363 1_545 S
C2684 C2689 1.379 . S
C2684 N2691 1.356 . S
C2685 C2684 1.363 1_565 S
C2685 C2688 1.363 . S
N2686 C2688 1.356 . S
N2686 H2698 0.984 1_655 S
N2686 H2699 0.985 . S
N2687 C2689 1.356 . S
N2687 H2692 0.984 . S
N2687 H2693 0.985 . S
C2688 C2682 1.379 . S
C2688 C2685 1.363 . S
C2688 N2686 1.356 . S
C2689 C2683 1.363 . S
C2689 C2684 1.379 . S
C2689 N2687 1.356 . S
N2690 C2682 1.356 . S
N2690 H2696 0.984 1_655 S
N2690 H2697 0.984 1_565 S
N2691 C2684 1.356 . S
N2691 H2694 0.984 1_545 S
N2691 H2695 0.985 . S
H2692 N2687 0.984 . S
H2693 N2687 0.985 . S
H2694 N2691 0.984 1_565 S
H2695 N2691 0.985 . S
H2696 N2690 0.984 1_455 S
H2697 N2690 0.984 1_545 S
H2698 N2686 0.984 1_455 S
H2699 N2686 0.985 . S
C2700 C2701 1.363 . S
C2700 C2706 1.379 . S
C2700 N2708 1.356 . S
C2701 C2700 1.363 . S
C2701 C2707 1.363 . S
C2702 C2703 1.363 . S
C2702 C2707 1.379 . S
C2702 N2709 1.356 . S
C2703 C2702 1.363 . S
C2703 C2706 1.363 . S
N2704 C2706 1.356 . S
N2704 H2716 0.984 . S
N2704 H2717 0.985 . S
N2705 C2707 1.356 . S
N2705 H2710 0.984 . S
N2705 H2711 0.985 . S
C2706 C2700 1.379 . S
C2706 C2703 1.363 . S
C2706 N2704 1.356 . S
C2707 C2701 1.363 . S
C2707 C2702 1.379 . S
C2707 N2705 1.356 . S
N2708 C2700 1.356 . S
N2708 H2714 0.984 . S
N2708 H2715 0.984 . S
N2709 C2702 1.356 . S
N2709 H2712 0.984 . S
N2709 H2713 0.985 . S
H2710 N2705 0.984 . S
H2711 N2705 0.985 . S
H2712 N2709 0.984 . S
H2713 N2709 0.985 . S
H2714 N2708 0.984 . S
H2715 N2708 0.984 . S
H2716 N2704 0.984 . S
H2717 N2704 0.985 . S
C2718 C2719 1.363 . S
C2718 C2724 1.379 . S
C2718 N2726 1.356 . S
C2719 C2718 1.363 . S
C2719 C2725 1.363 1_655 S
C2720 C2721 1.363 . S
C2720 C2725 1.379 . S
C2720 N2727 1.356 . S
C2721 C2720 1.363 . S
C2721 C2724 1.363 1_455 S
N2722 C2724 1.356 1_455 S
N2722 H2734 0.984 1_455 S
N2722 H2735 0.985 . S
N2723 C2725 1.356 1_655 S
N2723 H2728 0.984 . S
N2723 H2729 0.985 1_655 S
C2724 C2718 1.379 . S
C2724 C2721 1.363 1_655 S
C2724 N2722 1.356 1_655 S
C2725 C2719 1.363 1_455 S
C2725 C2720 1.379 . S
C2725 N2723 1.356 1_455 S
N2726 C2718 1.356 . S
N2726 H2732 0.984 . S
N2726 H2733 0.984 . S
N2727 C2720 1.356 . S
N2727 H2730 0.984 . S
N2727 H2731 0.985 . S
H2728 N2723 0.984 . S
H2729 N2723 0.985 1_455 S
H2730 N2727 0.984 . S
H2731 N2727 0.985 . S
H2732 N2726 0.984 . S
H2733 N2726 0.984 . S
H2734 N2722 0.984 1_655 S
H2735 N2722 0.985 . S
C2736 C2737 1.363 . S
C2736 C2742 1.379 . S
C2736 N2744 1.356 . S
C2737 C2736 1.363 . S
C2737 C2743 1.363 . S
C2738 C2739 1.363 . S
C2738 C2743 1.379 . S
C2738 N2745 1.356 . S
C2739 C2738 1.363 . S
C2739 C2742 1.363 . S
N2740 C2742 1.356 . S
N2740 H2752 0.984 . S
N2740 H2753 0.985 . S
N2741 C2743 1.356 . S
N2741 H2746 0.984 . S
N2741 H2747 0.985 . S
C2742 C2736 1.379 . S
C2742 C2739 1.363 . S
C2742 N2740 1.356 . S
C2743 C2737 1.363 . S
C2743 C2738 1.379 . S
C2743 N2741 1.356 . S
N2744 C2736 1.356 . S
N2744 H2750 0.984 . S
N2744 H2751 0.984 . S
N2745 C2738 1.356 . S
N2745 H2748 0.984 . S
N2745 H2749 0.985 . S
H2746 N2741 0.984 . S
H2747 N2741 0.985 . S
H2748 N2745 0.984 . S
H2749 N2745 0.985 . S
H2750 N2744 0.984 . S
H2751 N2744 0.984 . S
H2752 N2740 0.984 . S
H2753 N2740 0.985 . S
C2754 C2755 1.363 . S
C2754 C2760 1.379 . S
C2754 N2762 1.356 . S
C2755 C2754 1.363 . S
C2755 C2761 1.363 . S
C2756 C2757 1.363 . S
C2756 C2761 1.379 . S
C2756 N2763 1.356 . S
C2757 C2756 1.363 . S
C2757 C2760 1.363 . S
N2758 C2760 1.356 . S
N2758 H2770 0.984 . S
N2758 H2771 0.985 . S
N2759 C2761 1.356 . S
N2759 H2764 0.984 . S
N2759 H2765 0.985 . S
C2760 C2754 1.379 . S
C2760 C2757 1.363 . S
C2760 N2758 1.356 . S
C2761 C2755 1.363 . S
C2761 C2756 1.379 . S
C2761 N2759 1.356 . S
N2762 C2754 1.356 . S
N2762 H2768 0.984 . S
N2762 H2769 0.984 . S
N2763 C2756 1.356 . S
N2763 H2766 0.984 . S
N2763 H2767 0.985 . S
H2764 N2759 0.984 . S
H2765 N2759 0.985 . S
H2766 N2763 0.984 . S
H2767 N2763 0.985 . S
H2768 N2762 0.984 . S
H2769 N2762 0.984 . S
H2770 N2758 0.984 . S
H2771 N2758 0.985 . S
C2772 C2773 1.363 . S
C2772 C2778 1.379 . S
C2772 N2780 1.356 . S
C2773 C2772 1.363 . S
C2773 C2779 1.363 . S
C2774 C2775 1.363 . S
C2774 C2779 1.379 . S
C2774 N2781 1.356 . S
C2775 C2774 1.363 . S
C2775 C2778 1.363 . S
N2776 C2778 1.356 . S
N2776 H2788 0.984 . S
N2776 H2789 0.985 . S
N2777 C2779 1.356 . S
N2777 H2782 0.984 . S
N2777 H2783 0.985 . S
C2778 C2772 1.379 . S
C2778 C2775 1.363 . S
C2778 N2776 1.356 . S
C2779 C2773 1.363 . S
C2779 C2774 1.379 . S
C2779 N2777 1.356 . S
N2780 C2772 1.356 . S
N2780 H2786 0.984 . S
N2780 H2787 0.984 . S
N2781 C2774 1.356 . S
N2781 H2784 0.984 . S
N2781 H2785 0.985 . S
H2782 N2777 0.984 . S
H2783 N2777 0.985 . S
H2784 N2781 0.984 . S
H2785 N2781 0.985 . S
H2786 N2780 0.984 . S
H2787 N2780 0.984 . S
H2788 N2776 0.984 . S
H2789 N2776 0.985 . S
C2790 C2791 1.363 . S
C2790 C2796 1.379 . S
C2790 N2798 1.356 . S
C2791 C2790 1.363 . S
C2791 C2797 1.363 . S
C2792 C2793 1.363 . S
C2792 C2797 1.379 . S
C2792 N2799 1.356 . S
C2793 C2792 1.363 . S
C2793 C2796 1.363 . S
N2794 C2796 1.356 . S
N2794 H2806 0.984 1_545 S
N2794 H2807 0.985 . S
N2795 C2797 1.356 . S
N2795 H2800 0.984 . S
N2795 H2801 0.985 . S
C2796 C2790 1.379 . S
C2796 C2793 1.363 . S
C2796 N2794 1.356 . S
C2797 C2791 1.363 . S
C2797 C2792 1.379 . S
C2797 N2795 1.356 . S
N2798 C2790 1.356 . S
N2798 H2804 0.984 1_545 S
N2798 H2805 0.984 . S
N2799 C2792 1.356 . S
N2799 H2802 0.984 . S
N2799 H2803 0.985 . S
H2800 N2795 0.984 . S
H2801 N2795 0.985 . S
H2802 N2799 0.984 . S
H2803 N2799 0.985 . S
H2804 N2798 0.984 1_565 S
H2805 N2798 0.984 . S
H2806 N2794 0.984 1_565 S
H2807 N2794 0.985 . S
C2808 C2809 1.363 1_545 S
C2808 C2814 1.379 . S
C2808 N2816 1.358 . S
C2809 C2808 1.363 1_565 S
C2809 C2815 1.363 . S
C2810 C2811 1.363 1_565 S
C2810 C2815 1.379 . S
C2810 N2817 1.358 . S
C2811 C2810 1.363 1_545 S
C2811 C2814 1.363 . S
N2812 C2814 1.356 . S
N2812 H2824 0.984 . S
N2812 H2825 0.985 . S
N2813 C2815 1.356 . S
N2813 H2818 0.984 . S
N2813 H2819 0.985 . S
C2814 C2808 1.379 . S
C2814 C2811 1.363 . S
C2814 N2812 1.356 . S
C2815 C2809 1.363 . S
C2815 C2810 1.379 . S
C2815 N2813 1.356 . S
N2816 C2808 1.358 . S
N2816 H2822 0.995 . S
N2816 H2823 0.973 1_545 S
N2817 C2810 1.358 . S
N2817 H2820 0.973 1_565 S
N2817 H2821 0.995 . S
H2818 N2813 0.984 . S
H2819 N2813 0.985 . S
H2820 N2817 0.973 1_545 S
H2821 N2817 0.995 . S
H2822 N2816 0.995 . S
H2823 N2816 0.973 1_565 S
H2824 N2812 0.984 . S
H2825 N2812 0.985 . S
C2826 C2827 1.363 . S
C2826 C2832 1.379 . S
C2826 N2834 1.356 . S
C2827 C2826 1.363 . S
C2827 C2833 1.363 . S
C2828 C2829 1.363 . S
C2828 C2833 1.379 . S
C2828 N2835 1.356 . S
C2829 C2828 1.363 . S
C2829 C2832 1.363 . S
N2830 C2832 1.356 . S
N2830 H2842 0.984 . S
N2830 H2843 0.985 . S
N2831 C2833 1.356 . S
N2831 H2836 0.984 . S
N2831 H2837 0.985 . S
C2832 C2826 1.379 . S
C2832 C2829 1.363 . S
C2832 N2830 1.356 . S
C2833 C2827 1.363 . S
C2833 C2828 1.379 . S
C2833 N2831 1.356 . S
N2834 C2826 1.356 . S
N2834 H2840 0.984 . S
N2834 H2841 0.984 . S
N2835 C2828 1.356 . S
N2835 H2838 0.984 . S
N2835 H2839 0.985 . S
H2836 N2831 0.984 . S
H2837 N2831 0.985 . S
H2838 N2835 0.984 . S
H2839 N2835 0.985 . S
H2840 N2834 0.984 . S
H2841 N2834 0.984 . S
H2842 N2830 0.984 . S
H2843 N2830 0.985 . S
C2844 C2845 1.363 . S
C2844 C2850 1.379 1_554 S
C2844 N2852 1.356 . S
C2845 C2844 1.363 . S
C2845 C2851 1.363 . S
C2846 C2847 1.363 . S
C2846 C2851 1.379 1_556 S
C2846 N2853 1.356 . S
C2847 C2846 1.363 . S
C2847 C2850 1.363 . S
N2848 C2850 1.356 . S
N2848 H2860 0.990 . S
N2848 H2861 0.985 . S
N2849 C2851 1.356 . S
N2849 H2854 0.984 . S
N2849 H2855 0.990 . S
C2850 C2844 1.379 1_556 S
C2850 C2847 1.363 . S
C2850 N2848 1.356 . S
C2851 C2845 1.363 . S
C2851 C2846 1.379 1_554 S
C2851 N2849 1.356 . S
N2852 C2844 1.356 . S
N2852 H2858 0.984 . S
N2852 H2859 0.984 . S
N2853 C2846 1.356 . S
N2853 H2856 0.984 . S
N2853 H2857 0.985 . S
H2854 N2849 0.984 . S
H2855 N2849 0.990 . S
H2856 N2853 0.984 . S
H2857 N2853 0.985 . S
H2858 N2852 0.984 . S
H2859 N2852 0.984 . S
H2860 N2848 0.990 . S
H2861 N2848 0.985 . S
C2862 C2863 1.363 1_545 S
C2862 C2868 1.379 . S
C2862 N2870 1.356 . S
C2863 C2862 1.363 1_565 S
C2863 C2869 1.363 . S
C2864 C2865 1.363 1_565 S
C2864 C2869 1.379 . S
C2864 N2871 1.356 . S
C2865 C2864 1.363 1_545 S
C2865 C2868 1.363 . S
N2866 C2868 1.356 . S
N2866 H2878 0.984 . S
N2866 H2879 0.985 . S
N2867 C2869 1.356 . S
N2867 H2872 0.984 . S
N2867 H2873 0.985 . S
C2868 C2862 1.379 . S
C2868 C2865 1.363 . S
C2868 N2866 1.356 . S
C2869 C2863 1.363 . S
C2869 C2864 1.379 . S
C2869 N2867 1.356 . S
N2870 C2862 1.356 . S
N2870 H2876 0.984 . S
N2870 H2877 0.984 1_545 S
N2871 C2864 1.356 . S
N2871 H2874 0.984 1_565 S
N2871 H2875 0.985 . S
H2872 N2867 0.984 . S
H2873 N2867 0.985 . S
H2874 N2871 0.984 1_545 S
H2875 N2871 0.985 . S
H2876 N2870 0.984 . S
H2877 N2870 0.984 1_565 S
H2878 N2866 0.984 . S
H2879 N2866 0.985 . S
C2880 C2881 1.363 . S
C2880 C2886 1.379 . S
C2880 N2888 1.356 . S
C2881 C2880 1.363 . S
C2881 C2887 1.363 . S
C2882 C2883 1.363 . S
C2882 C2887 1.379 . S
C2882 N2889 1.356 . S
C2883 C2882 1.363 . S
C2883 C2886 1.363 . S
N2884 C2886 1.356 . S
N2884 H2896 0.984 . S
N2884 H2897 0.985 . S
N2885 C2887 1.356 . S
N2885 H2890 0.984 . S
N2885 H2891 0.985 . S
C2886 C2880 1.379 . S
C2886 C2883 1.363 . S
C2886 N2884 1.356 . S
C2887 C2881 1.363 . S
C2887 C2882 1.379 . S
C2887 N2885 1.356 . S
N2888 C2880 1.356 . S
N2888 H2894 0.984 . S
N2888 H2895 0.984 . S
N2889 C2882 1.356 . S
N2889 H2892 0.984 . S
N2889 H2893 0.985 . S
H2890 N2885 0.984 . S
H2891 N2885 0.985 . S
H2892 N2889 0.984 . S
H2893 N2889 0.985 . S
H2894 N2888 0.984 . S
H2895 N2888 0.984 . S
H2896 N2884 0.984 . S
H2897 N2884 0.985 . S
C2898 C2899 1.363 . S
C2898 C2904 1.379 . S
C2898 N2906 1.356 . S
C2899 C2898 1.363 . S
C2899 C2905 1.363 . S
C2900 C2901 1.363 . S
C2900 C2905 1.379 . S
C2900 N2907 1.356 . S
C2901 C2900 1.363 . S
C2901 C2904 1.363 . S
N2902 C2904 1.356 . S
N2902 H2914 0.984 . S
N2902 H2915 0.985 . S
N2903 C2905 1.356 . S
N2903 H2908 0.984 . S
N2903 H2909 0.985 . S
C2904 C2898 1.379 . S
C2904 C2901 1.363 . S
C2904 N2902 1.356 . S
C2905 C2899 1.363 . S
C2905 C2900 1.379 . S
C2905 N2903 1.356 . S
N2906 C2898 1.356 . S
N2906 H2912 0.984 . S
N2906 H2913 0.984 . S
N2907 C2900 1.356 . S
N2907 H2910 0.984 . S
N2907 H2911 0.985 . S
H2908 N2903 0.984 . S
H2909 N2903 0.985 . S
H2910 N2907 0.984 . S
H2911 N2907 0.985 . S
H2912 N2906 0.984 . S
H2913 N2906 0.984 . S
H2914 N2902 0.984 . S
H2915 N2902 0.985 . S
C2916 C2917 1.363 . S
C2916 C2922 1.379 . S
C2916 N2924 1.356 . S
C2917 C2916 1.363 . S
C2917 C2923 1.363 . S
C2918 C2919 1.363 . S
C2918 C2923 1.379 . S
C2918 N2925 1.356 . S
C2919 C2918 1.363 . S
C2919 C2922 1.363 . S
N2920 C2922 1.356 . S
N2920 H2932 0.984 . S
N2920 H2933 0.985 . S
N2921 C2923 1.356 . S
N2921 H2926 0.984 . S
N2921 H2927 0.985 . S
C2922 C2916 1.379 . S
C2922 C2919 1.363 . S
C2922 N2920 1.356 . S
C2923 C2917 1.363 . S
C2923 C2918 1.379 . S
C2923 N2921 1.356 . S
N2924 C2916 1.356 . S
N2924 H2930 0.984 . S
N2924 H2931 0.984 . S
N2925 C2918 1.356 . S
N2925 H2928 0.984 . S
N2925 H2929 0.985 . S
H2926 N2921 0.984 . S
H2927 N2921 0.985 . S
H2928 N2925 0.984 . S
H2929 N2925 0.985 . S
H2930 N2924 0.984 . S
H2931 N2924 0.984 . S
H2932 N2920 0.984 . S
H2933 N2920 0.985 . S
C2934 C2935 1.363 . S
C2934 C2940 1.379 . S
C2934 N2942 1.356 . S
C2935 C2934 1.363 . S
C2935 C2941 1.363 . S
C2936 C2937 1.363 . S
C2936 C2941 1.379 . S
C2936 N2943 1.356 . S
C2937 C2936 1.363 . S
C2937 C2940 1.363 . S
N2938 C2940 1.356 . S
N2938 H2950 0.984 . S
N2938 H2951 0.985 . S
N2939 C2941 1.356 . S
N2939 H2944 0.984 . S
N2939 H2945 0.985 . S
C2940 C2934 1.379 . S
C2940 C2937 1.363 . S
C2940 N2938 1.356 . S
C2941 C2935 1.363 . S
C2941 C2936 1.379 . S
C2941 N2939 1.356 . S
N2942 C2934 1.356 . S
N2942 H2948 0.984 . S
N2942 H2949 0.984 . S
N2943 C2936 1.356 . S
N2943 H2946 0.984 . S
N2943 H2947 0.985 . S
H2944 N2939 0.984 . S
H2945 N2939 0.985 . S
H2946 N2943 0.984 . S
H2947 N2943 0.985 . S
H2948 N2942 0.984 . S
H2949 N2942 0.984 . S
H2950 N2938 0.984 . S
H2951 N2938 0.985 . S
C2952 C2953 1.363 . S
C2952 C2958 1.379 . S
C2952 N2960 1.356 . S
C2953 C2952 1.363 . S
C2953 C2959 1.363 . S
C2954 C2955 1.363 . S
C2954 C2959 1.379 . S
C2954 N2961 1.356 . S
C2955 C2954 1.363 . S
C2955 C2958 1.363 . S
N2956 C2958 1.356 . S
N2956 H2968 0.984 . S
N2956 H2969 0.985 . S
N2957 C2959 1.356 . S
N2957 H2962 0.984 . S
N2957 H2963 0.985 . S
C2958 C2952 1.379 . S
C2958 C2955 1.363 . S
C2958 N2956 1.356 . S
C2959 C2953 1.363 . S
C2959 C2954 1.379 . S
C2959 N2957 1.356 . S
N2960 C2952 1.356 . S
N2960 H2966 0.984 . S
N2960 H2967 0.984 . S
N2961 C2954 1.356 . S
N2961 H2964 0.984 . S
N2961 H2965 0.985 . S
H2962 N2957 0.984 . S
H2963 N2957 0.985 . S
H2964 N2961 0.984 . S
H2965 N2961 0.985 . S
H2966 N2960 0.984 . S
H2967 N2960 0.984 . S
H2968 N2956 0.984 . S
H2969 N2956 0.985 . S
C2970 C2971 1.363 . S
C2970 C2976 1.379 . S
C2970 N2978 1.356 . S
C2971 C2970 1.363 . S
C2971 C2977 1.363 . S
C2972 C2973 1.363 . S
C2972 C2977 1.379 . S
C2972 N2979 1.356 . S
C2973 C2972 1.363 . S
C2973 C2976 1.363 . S
N2974 C2976 1.356 . S
N2974 H2986 0.984 . S
N2974 H2987 0.985 . S
N2975 C2977 1.356 . S
N2975 H2980 0.984 . S
N2975 H2981 0.985 . S
C2976 C2970 1.379 . S
C2976 C2973 1.363 . S
C2976 N2974 1.356 . S
C2977 C2971 1.363 . S
C2977 C2972 1.379 . S
C2977 N2975 1.356 . S
N2978 C2970 1.356 . S
N2978 H2984 0.984 . S
N2978 H2985 0.984 . S
N2979 C2972 1.356 . S
N2979 H2982 0.984 . S
N2979 H2983 0.985 . S
H2980 N2975 0.984 . S
H2981 N2975 0.985 . S
H2982 N2979 0.984 . S
H2983 N2979 0.985 . S
H2984 N2978 0.984 . S
H2985 N2978 0.984 . S
H2986 N2974 0.984 . S
H2987 N2974 0.985 . S
C2988 C2989 1.363 . S
C2988 C2994 1.379 . S
C2988 N2996 1.356 . S
C2989 C2988 1.363 . S
C2989 C2995 1.363 . S
C2990 C2991 1.363 . S
C2990 C2995 1.379 . S
C2990 N2997 1.356 . S
C2991 C2990 1.363 . S
C2991 C2994 1.363 . S
N2992 C2994 1.356 . S
N2992 H3004 0.984 . S
N2992 H3005 0.985 . S
N2993 C2995 1.356 . S
N2993 H2998 0.984 . S
N2993 H2999 0.985 . S
C2994 C2988 1.379 . S
C2994 C2991 1.363 . S
C2994 N2992 1.356 . S
C2995 C2989 1.363 . S
C2995 C2990 1.379 . S
C2995 N2993 1.356 . S
N2996 C2988 1.356 . S
N2996 H3002 0.984 . S
N2996 H3003 0.984 . S
N2997 C2990 1.356 . S
N2997 H3000 0.984 . S
N2997 H3001 0.985 . S
H2998 N2993 0.984 . S
H2999 N2993 0.985 . S
H3000 N2997 0.984 . S
H3001 N2997 0.985 . S
H3002 N2996 0.984 . S
H3003 N2996 0.984 . S
H3004 N2992 0.984 . S
H3005 N2992 0.985 . S
C3006 C3007 1.363 . S
C3006 C3012 1.379 . S
C3006 N3014 1.356 . S
C3007 C3006 1.363 . S
C3007 C3013 1.363 . S
C3008 C3009 1.363 . S
C3008 C3013 1.379 . S
C3008 N3015 1.356 . S
C3009 C3008 1.363 . S
C3009 C3012 1.363 . S
N3010 C3012 1.356 . S
N3010 H3022 0.984 . S
N3010 H3023 0.985 . S
N3011 C3013 1.356 . S
N3011 H3016 0.984 . S
N3011 H3017 0.985 . S
C3012 C3006 1.379 . S
C3012 C3009 1.363 . S
C3012 N3010 1.356 . S
C3013 C3007 1.363 . S
C3013 C3008 1.379 . S
C3013 N3011 1.356 . S
N3014 C3006 1.356 . S
N3014 H3020 0.984 . S
N3014 H3021 0.984 . S
N3015 C3008 1.356 . S
N3015 H3018 0.984 . S
N3015 H3019 0.985 . S
H3016 N3011 0.984 . S
H3017 N3011 0.985 . S
H3018 N3015 0.984 . S
H3019 N3015 0.985 . S
H3020 N3014 0.984 . S
H3021 N3014 0.984 . S
H3022 N3010 0.984 . S
H3023 N3010 0.985 . S
C3024 C3025 1.363 . S
C3024 C3030 1.379 . S
C3024 N3032 1.356 . S
C3025 C3024 1.363 . S
C3025 C3031 1.363 . S
C3026 C3027 1.363 . S
C3026 C3031 1.379 . S
C3026 N3033 1.356 . S
C3027 C3026 1.363 . S
C3027 C3030 1.363 . S
N3028 C3030 1.356 . S
N3028 H3040 0.984 . S
N3028 H3041 0.985 . S
N3029 C3031 1.356 . S
N3029 H3034 0.984 . S
N3029 H3035 0.985 . S
C3030 C3024 1.379 . S
C3030 C3027 1.363 . S
C3030 N3028 1.356 . S
C3031 C3025 1.363 . S
C3031 C3026 1.379 . S
C3031 N3029 1.356 . S
N3032 C3024 1.356 . S
N3032 H3038 0.984 . S
N3032 H3039 0.984 . S
N3033 C3026 1.356 . S
N3033 H3036 0.984 . S
N3033 H3037 0.985 . S
H3034 N3029 0.984 . S
H3035 N3029 0.985 . S
H3036 N3033 0.984 . S
H3037 N3033 0.985 . S
H3038 N3032 0.984 . S
H3039 N3032 0.984 . S
H3040 N3028 0.984 . S
H3041 N3028 0.985 . S
C3042 C3043 1.363 . S
C3042 C3048 1.379 . S
C3042 N3050 1.356 . S
C3043 C3042 1.363 . S
C3043 C3049 1.363 . S
C3044 C3045 1.363 . S
C3044 C3049 1.379 . S
C3044 N3051 1.356 . S
C3045 C3044 1.363 . S
C3045 C3048 1.363 . S
N3046 C3048 1.356 . S
N3046 H3058 0.984 . S
N3046 H3059 0.985 . S
N3047 C3049 1.356 . S
N3047 H3052 0.984 . S
N3047 H3053 0.985 . S
C3048 C3042 1.379 . S
C3048 C3045 1.363 . S
C3048 N3046 1.356 . S
C3049 C3043 1.363 . S
C3049 C3044 1.379 . S
C3049 N3047 1.356 . S
N3050 C3042 1.356 . S
N3050 H3056 0.984 . S
N3050 H3057 0.984 . S
N3051 C3044 1.356 . S
N3051 H3054 0.984 . S
N3051 H3055 0.985 . S
H3052 N3047 0.984 . S
H3053 N3047 0.985 . S
H3054 N3051 0.984 . S
H3055 N3051 0.985 . S
H3056 N3050 0.984 . S
H3057 N3050 0.984 . S
H3058 N3046 0.984 . S
H3059 N3046 0.985 . S
C3060 C3061 1.363 . S
C3060 C3066 1.379 . S
C3060 N3068 1.356 . S
C3061 C3060 1.363 . S
C3061 C3067 1.363 . S
C3062 C3063 1.363 . S
C3062 C3067 1.379 . S
C3062 N3069 1.356 . S
C3063 C3062 1.363 . S
C3063 C3066 1.363 . S
N3064 C3066 1.356 . S
N3064 H3076 0.984 . S
N3064 H3077 0.985 . S
N3065 C3067 1.356 . S
N3065 H3070 0.984 . S
N3065 H3071 0.985 . S
C3066 C3060 1.379 . S
C3066 C3063 1.363 . S
C3066 N3064 1.356 . S
C3067 C3061 1.363 . S
C3067 C3062 1.379 . S
C3067 N3065 1.356 . S
N3068 C3060 1.356 . S
N3068 H3074 0.984 . S
N3068 H3075 0.984 . S
N3069 C3062 1.356 . S
N3069 H3072 0.984 . S
N3069 H3073 0.985 . S
H3070 N3065 0.984 . S
H3071 N3065 0.985 . S
H3072 N3069 0.984 . S
H3073 N3069 0.985 . S
H3074 N3068 0.984 . S
H3075 N3068 0.984 . S
H3076 N3064 0.984 . S
H3077 N3064 0.985 . S
C3078 C3079 1.363 . S
C3078 C3084 1.379 . S
C3078 N3086 1.356 . S
C3079 C3078 1.363 . S
C3079 C3085 1.363 . S
C3080 C3081 1.363 . S
C3080 C3085 1.379 . S
C3080 N3087 1.356 . S
C3081 C3080 1.363 . S
C3081 C3084 1.363 . S
N3082 C3084 1.356 . S
N3082 H3094 0.984 . S
N3082 H3095 0.985 . S
N3083 C3085 1.356 . S
N3083 H3088 0.984 . S
N3083 H3089 0.985 . S
C3084 C3078 1.379 . S
C3084 C3081 1.363 . S
C3084 N3082 1.356 . S
C3085 C3079 1.363 . S
C3085 C3080 1.379 . S
C3085 N3083 1.356 . S
N3086 C3078 1.356 . S
N3086 H3092 0.984 . S
N3086 H3093 0.984 . S
N3087 C3080 1.356 . S
N3087 H3090 0.984 . S
N3087 H3091 0.985 . S
H3088 N3083 0.984 . S
H3089 N3083 0.985 . S
H3090 N3087 0.984 . S
H3091 N3087 0.985 . S
H3092 N3086 0.984 . S
H3093 N3086 0.984 . S
H3094 N3082 0.984 . S
H3095 N3082 0.985 . S
C3096 C3097 1.363 . S
C3096 C3102 1.379 . S
C3096 N3104 1.356 . S
C3097 C3096 1.363 . S
C3097 C3103 1.363 . S
C3098 C3099 1.363 . S
C3098 C3103 1.379 . S
C3098 N3105 1.356 . S
C3099 C3098 1.363 . S
C3099 C3102 1.363 . S
N3100 C3102 1.356 . S
N3100 H3112 0.984 . S
N3100 H3113 0.985 . S
N3101 C3103 1.356 . S
N3101 H3106 0.984 . S
N3101 H3107 0.985 . S
C3102 C3096 1.379 . S
C3102 C3099 1.363 . S
C3102 N3100 1.356 . S
C3103 C3097 1.363 . S
C3103 C3098 1.379 . S
C3103 N3101 1.356 . S
N3104 C3096 1.356 . S
N3104 H3110 0.984 . S
N3104 H3111 0.984 . S
N3105 C3098 1.356 . S
N3105 H3108 0.984 . S
N3105 H3109 0.985 . S
H3106 N3101 0.984 . S
H3107 N3101 0.985 . S
H3108 N3105 0.984 . S
H3109 N3105 0.985 . S
H3110 N3104 0.984 . S
H3111 N3104 0.984 . S
H3112 N3100 0.984 . S
H3113 N3100 0.985 . S
C3114 C3115 1.363 . S
C3114 C3120 1.379 . S
C3114 N3122 1.356 . S
C3115 C3114 1.363 . S
C3115 C3121 1.363 . S
C3116 C3117 1.363 . S
C3116 C3121 1.379 . S
C3116 N3123 1.356 . S
C3117 C3116 1.363 . S
C3117 C3120 1.363 . S
N3118 C3120 1.356 . S
N3118 H3130 0.984 . S
N3118 H3131 0.985 . S
N3119 C3121 1.356 . S
N3119 H3124 0.984 . S
N3119 H3125 0.985 . S
C3120 C3114 1.379 . S
C3120 C3117 1.363 . S
C3120 N3118 1.356 . S
C3121 C3115 1.363 . S
C3121 C3116 1.379 . S
C3121 N3119 1.356 . S
N3122 C3114 1.356 . S
N3122 H3128 0.984 . S
N3122 H3129 0.984 . S
N3123 C3116 1.356 . S
N3123 H3126 0.984 . S
N3123 H3127 0.985 . S
H3124 N3119 0.984 . S
H3125 N3119 0.985 . S
H3126 N3123 0.984 . S
H3127 N3123 0.985 . S
H3128 N3122 0.984 . S
H3129 N3122 0.984 . S
H3130 N3118 0.984 . S
H3131 N3118 0.985 . S
C3132 C3133 1.363 . S
C3132 C3138 1.379 . S
C3132 N3140 1.356 . S
C3133 C3132 1.363 . S
C3133 C3139 1.363 . S
C3134 C3135 1.363 . S
C3134 C3139 1.379 . S
C3134 N3141 1.356 . S
C3135 C3134 1.363 . S
C3135 C3138 1.363 . S
N3136 C3138 1.356 . S
N3136 H3148 0.984 . S
N3136 H3149 0.985 . S
N3137 C3139 1.356 . S
N3137 H3142 0.984 . S
N3137 H3143 0.985 . S
C3138 C3132 1.379 . S
C3138 C3135 1.363 . S
C3138 N3136 1.356 . S
C3139 C3133 1.363 . S
C3139 C3134 1.379 . S
C3139 N3137 1.356 . S
N3140 C3132 1.356 . S
N3140 H3146 0.984 . S
N3140 H3147 0.984 . S
N3141 C3134 1.356 . S
N3141 H3144 0.984 . S
N3141 H3145 0.985 . S
H3142 N3137 0.984 . S
H3143 N3137 0.985 . S
H3144 N3141 0.984 . S
H3145 N3141 0.985 . S
H3146 N3140 0.984 . S
H3147 N3140 0.984 . S
H3148 N3136 0.984 . S
H3149 N3136 0.985 . S
C3150 C3151 1.363 . S
C3150 C3156 1.379 . S
C3150 N3158 1.356 . S
C3151 C3150 1.363 . S
C3151 C3157 1.363 . S
C3152 C3153 1.363 . S
C3152 C3157 1.379 . S
C3152 N3159 1.356 . S
C3153 C3152 1.363 . S
C3153 C3156 1.363 . S
N3154 C3156 1.356 . S
N3154 H3166 0.984 . S
N3154 H3167 0.985 . S
N3155 C3157 1.356 . S
N3155 H3160 0.984 . S
N3155 H3161 0.985 . S
C3156 C3150 1.379 . S
C3156 C3153 1.363 . S
C3156 N3154 1.356 . S
C3157 C3151 1.363 . S
C3157 C3152 1.379 . S
C3157 N3155 1.356 . S
N3158 C3150 1.356 . S
N3158 H3164 0.984 . S
N3158 H3165 0.984 . S
N3159 C3152 1.356 . S
N3159 H3162 0.984 . S
N3159 H3163 0.985 . S
H3160 N3155 0.984 . S
H3161 N3155 0.985 . S
H3162 N3159 0.984 . S
H3163 N3159 0.985 . S
H3164 N3158 0.984 . S
H3165 N3158 0.984 . S
H3166 N3154 0.984 . S
H3167 N3154 0.985 . S
C3168 C3169 1.363 . S
C3168 C3174 1.379 . S
C3168 N3176 1.356 . S
C3169 C3168 1.363 . S
C3169 C3175 1.363 . S
C3170 C3171 1.363 . S
C3170 C3175 1.379 . S
C3170 N3177 1.356 . S
C3171 C3170 1.363 . S
C3171 C3174 1.363 . S
N3172 C3174 1.356 . S
N3172 H3184 0.984 . S
N3172 H3185 0.985 . S
N3173 C3175 1.356 . S
N3173 H3178 0.984 . S
N3173 H3179 0.985 . S
C3174 C3168 1.379 . S
C3174 C3171 1.363 . S
C3174 N3172 1.356 . S
C3175 C3169 1.363 . S
C3175 C3170 1.379 . S
C3175 N3173 1.356 . S
N3176 C3168 1.356 . S
N3176 H3182 0.984 . S
N3176 H3183 0.984 . S
N3177 C3170 1.356 . S
N3177 H3180 0.984 . S
N3177 H3181 0.985 . S
H3178 N3173 0.984 . S
H3179 N3173 0.985 . S
H3180 N3177 0.984 . S
H3181 N3177 0.985 . S
H3182 N3176 0.984 . S
H3183 N3176 0.984 . S
H3184 N3172 0.984 . S
H3185 N3172 0.985 . S
C3186 C3187 1.363 . S
C3186 C3192 1.379 . S
C3186 N3194 1.356 . S
C3187 C3186 1.363 . S
C3187 C3193 1.363 . S
C3188 C3189 1.363 . S
C3188 C3193 1.379 . S
C3188 N3195 1.356 . S
C3189 C3188 1.363 . S
C3189 C3192 1.363 . S
N3190 C3192 1.356 . S
N3190 H3202 0.984 . S
N3190 H3203 0.985 . S
N3191 C3193 1.356 . S
N3191 H3196 0.984 . S
N3191 H3197 0.985 . S
C3192 C3186 1.379 . S
C3192 C3189 1.363 . S
C3192 N3190 1.356 . S
C3193 C3187 1.363 . S
C3193 C3188 1.379 . S
C3193 N3191 1.356 . S
N3194 C3186 1.356 . S
N3194 H3200 0.984 . S
N3194 H3201 0.984 . S
N3195 C3188 1.356 . S
N3195 H3198 0.984 . S
N3195 H3199 0.985 . S
H3196 N3191 0.984 . S
H3197 N3191 0.985 . S
H3198 N3195 0.984 . S
H3199 N3195 0.985 . S
H3200 N3194 0.984 . S
H3201 N3194 0.984 . S
H3202 N3190 0.984 . S
H3203 N3190 0.985 . S
C3204 C3205 1.363 . S
C3204 C3210 1.379 . S
C3204 N3212 1.356 . S
C3205 C3204 1.363 . S
C3205 C3211 1.363 . S
C3206 C3207 1.363 . S
C3206 C3211 1.379 . S
C3206 N3213 1.356 . S
C3207 C3206 1.363 . S
C3207 C3210 1.363 . S
N3208 C3210 1.356 . S
N3208 H3220 0.984 . S
N3208 H3221 0.985 . S
N3209 C3211 1.356 . S
N3209 H3214 0.984 . S
N3209 H3215 0.985 . S
C3210 C3204 1.379 . S
C3210 C3207 1.363 . S
C3210 N3208 1.356 . S
C3211 C3205 1.363 . S
C3211 C3206 1.379 . S
C3211 N3209 1.356 . S
N3212 C3204 1.356 . S
N3212 H3218 0.984 . S
N3212 H3219 0.984 . S
N3213 C3206 1.356 . S
N3213 H3216 0.984 . S
N3213 H3217 0.985 . S
H3214 N3209 0.984 . S
H3215 N3209 0.985 . S
H3216 N3213 0.984 . S
H3217 N3213 0.985 . S
H3218 N3212 0.984 . S
H3219 N3212 0.984 . S
H3220 N3208 0.984 . S
H3221 N3208 0.985 . S
C3222 C3223 1.363 . S
C3222 C3228 1.379 . S
C3222 N3230 1.356 . S
C3223 C3222 1.363 . S
C3223 C3229 1.363 . S
C3224 C3225 1.363 . S
C3224 C3229 1.379 . S
C3224 N3231 1.356 . S
C3225 C3224 1.363 . S
C3225 C3228 1.363 . S
N3226 C3228 1.356 . S
N3226 H3238 0.984 . S
N3226 H3239 0.985 . S
N3227 C3229 1.356 . S
N3227 H3232 0.984 . S
N3227 H3233 0.985 . S
C3228 C3222 1.379 . S
C3228 C3225 1.363 . S
C3228 N3226 1.356 . S
C3229 C3223 1.363 . S
C3229 C3224 1.379 . S
C3229 N3227 1.356 . S
N3230 C3222 1.356 . S
N3230 H3236 0.984 . S
N3230 H3237 0.984 . S
N3231 C3224 1.356 . S
N3231 H3234 0.984 . S
N3231 H3235 0.985 . S
H3232 N3227 0.984 . S
H3233 N3227 0.985 . S
H3234 N3231 0.984 . S
H3235 N3231 0.985 . S
H3236 N3230 0.984 . S
H3237 N3230 0.984 . S
H3238 N3226 0.984 . S
H3239 N3226 0.985 . S
C3240 C3241 1.363 . S
C3240 C3246 1.379 . S
C3240 N3248 1.356 . S
C3241 C3240 1.363 . S
C3241 C3247 1.363 . S
C3242 C3243 1.363 . S
C3242 C3247 1.379 . S
C3242 N3249 1.356 . S
C3243 C3242 1.363 . S
C3243 C3246 1.363 . S
N3244 C3246 1.356 . S
N3244 H3256 0.984 . S
N3244 H3257 0.985 . S
N3245 C3247 1.356 . S
N3245 H3250 0.984 . S
N3245 H3251 0.985 . S
C3246 C3240 1.379 . S
C3246 C3243 1.363 . S
C3246 N3244 1.356 . S
C3247 C3241 1.363 . S
C3247 C3242 1.379 . S
C3247 N3245 1.356 . S
N3248 C3240 1.356 . S
N3248 H3254 0.984 . S
N3248 H3255 0.984 . S
N3249 C3242 1.356 . S
N3249 H3252 0.984 . S
N3249 H3253 0.985 . S
H3250 N3245 0.984 . S
H3251 N3245 0.985 . S
H3252 N3249 0.984 . S
H3253 N3249 0.985 . S
H3254 N3248 0.984 . S
H3255 N3248 0.984 . S
H3256 N3244 0.984 . S
H3257 N3244 0.985 . S
C3258 C3259 1.363 . S
C3258 C3264 1.379 . S
C3258 N3266 1.356 . S
C3259 C3258 1.363 . S
C3259 C3265 1.363 . S
C3260 C3261 1.363 . S
C3260 C3265 1.379 . S
C3260 N3267 1.356 . S
C3261 C3260 1.363 . S
C3261 C3264 1.363 . S
N3262 C3264 1.356 . S
N3262 H3274 0.984 . S
N3262 H3275 0.985 . S
N3263 C3265 1.356 . S
N3263 H3268 0.984 . S
N3263 H3269 0.985 . S
C3264 C3258 1.379 . S
C3264 C3261 1.363 . S
C3264 N3262 1.356 . S
C3265 C3259 1.363 . S
C3265 C3260 1.379 . S
C3265 N3263 1.356 . S
N3266 C3258 1.356 . S
N3266 H3272 0.984 . S
N3266 H3273 0.984 . S
N3267 C3260 1.356 . S
N3267 H3270 0.984 . S
N3267 H3271 0.985 . S
H3268 N3263 0.984 . S
H3269 N3263 0.985 . S
H3270 N3267 0.984 . S
H3271 N3267 0.985 . S
H3272 N3266 0.984 . S
H3273 N3266 0.984 . S
H3274 N3262 0.984 . S
H3275 N3262 0.985 . S
C3276 C3277 1.363 . S
C3276 C3282 1.379 . S
C3276 N3284 1.356 . S
C3277 C3276 1.363 . S
C3277 C3283 1.363 . S
C3278 C3279 1.363 . S
C3278 C3283 1.379 . S
C3278 N3285 1.356 . S
C3279 C3278 1.363 . S
C3279 C3282 1.363 . S
N3280 C3282 1.356 . S
N3280 H3292 0.984 . S
N3280 H3293 0.985 . S
N3281 C3283 1.356 . S
N3281 H3286 0.984 . S
N3281 H3287 0.985 . S
C3282 C3276 1.379 . S
C3282 C3279 1.363 . S
C3282 N3280 1.356 . S
C3283 C3277 1.363 . S
C3283 C3278 1.379 . S
C3283 N3281 1.356 . S
N3284 C3276 1.356 . S
N3284 H3290 0.984 . S
N3284 H3291 0.984 . S
N3285 C3278 1.356 . S
N3285 H3288 0.984 . S
N3285 H3289 0.985 . S
H3286 N3281 0.984 . S
H3287 N3281 0.985 . S
H3288 N3285 0.984 . S
H3289 N3285 0.985 . S
H3290 N3284 0.984 . S
H3291 N3284 0.984 . S
H3292 N3280 0.984 . S
H3293 N3280 0.985 . S
C3294 C3295 1.363 . S
C3294 C3300 1.379 . S
C3294 N3302 1.356 . S
C3295 C3294 1.363 . S
C3295 C3301 1.363 . S
C3296 C3297 1.363 . S
C3296 C3301 1.379 . S
C3296 N3303 1.356 . S
C3297 C3296 1.363 . S
C3297 C3300 1.363 . S
N3298 C3300 1.356 . S
N3298 H3310 0.984 . S
N3298 H3311 0.985 . S
N3299 C3301 1.356 . S
N3299 H3304 0.984 . S
N3299 H3305 0.985 . S
C3300 C3294 1.379 . S
C3300 C3297 1.363 . S
C3300 N3298 1.356 . S
C3301 C3295 1.363 . S
C3301 C3296 1.379 . S
C3301 N3299 1.356 . S
N3302 C3294 1.356 . S
N3302 H3308 0.984 . S
N3302 H3309 0.984 . S
N3303 C3296 1.356 . S
N3303 H3306 0.984 . S
N3303 H3307 0.985 . S
H3304 N3299 0.984 . S
H3305 N3299 0.985 . S
H3306 N3303 0.984 . S
H3307 N3303 0.985 . S
H3308 N3302 0.984 . S
H3309 N3302 0.984 . S
H3310 N3298 0.984 . S
H3311 N3298 0.985 . S
C3312 C3313 1.363 . S
C3312 C3318 1.379 . S
C3312 N3320 1.356 . S
C3313 C3312 1.363 . S
C3313 C3319 1.363 . S
C3314 C3315 1.363 . S
C3314 C3319 1.379 . S
C3314 N3321 1.356 . S
C3315 C3314 1.363 . S
C3315 C3318 1.363 . S
N3316 C3318 1.356 . S
N3316 H3328 0.984 . S
N3316 H3329 0.985 . S
N3317 C3319 1.356 . S
N3317 H3322 0.984 . S
N3317 H3323 0.985 . S
C3318 C3312 1.379 . S
C3318 C3315 1.363 . S
C3318 N3316 1.356 . S
C3319 C3313 1.363 . S
C3319 C3314 1.379 . S
C3319 N3317 1.356 . S
N3320 C3312 1.356 . S
N3320 H3326 0.984 . S
N3320 H3327 0.984 . S
N3321 C3314 1.356 . S
N3321 H3324 0.984 . S
N3321 H3325 0.985 . S
H3322 N3317 0.984 . S
H3323 N3317 0.985 . S
H3324 N3321 0.984 . S
H3325 N3321 0.985 . S
H3326 N3320 0.984 . S
H3327 N3320 0.984 . S
H3328 N3316 0.984 . S
H3329 N3316 0.985 . S
C3330 C3331 1.363 . S
C3330 C3336 1.379 . S
C3330 N3338 1.356 . S
C3331 C3330 1.363 . S
C3331 C3337 1.363 . S
C3332 C3333 1.363 . S
C3332 C3337 1.379 . S
C3332 N3339 1.356 . S
C3333 C3332 1.363 . S
C3333 C3336 1.363 . S
N3334 C3336 1.356 . S
N3334 H3346 0.984 . S
N3334 H3347 0.985 . S
N3335 C3337 1.356 . S
N3335 H3340 0.984 . S
N3335 H3341 0.985 . S
C3336 C3330 1.379 . S
C3336 C3333 1.363 . S
C3336 N3334 1.356 . S
C3337 C3331 1.363 . S
C3337 C3332 1.379 . S
C3337 N3335 1.356 . S
N3338 C3330 1.356 . S
N3338 H3344 0.984 . S
N3338 H3345 0.984 . S
N3339 C3332 1.356 . S
N3339 H3342 0.984 . S
N3339 H3343 0.985 . S
H3340 N3335 0.984 . S
H3341 N3335 0.985 . S
H3342 N3339 0.984 . S
H3343 N3339 0.985 . S
H3344 N3338 0.984 . S
H3345 N3338 0.984 . S
H3346 N3334 0.984 . S
H3347 N3334 0.985 . S
C3348 C3349 1.363 . S
C3348 C3354 1.379 . S
C3348 N3356 1.356 . S
C3349 C3348 1.363 . S
C3349 C3355 1.363 . S
C3350 C3351 1.363 . S
C3350 C3355 1.379 . S
C3350 N3357 1.356 . S
C3351 C3350 1.363 . S
C3351 C3354 1.363 . S
N3352 C3354 1.356 . S
N3352 H3364 0.984 . S
N3352 H3365 0.985 . S
N3353 C3355 1.356 . S
N3353 H3358 0.984 . S
N3353 H3359 0.985 . S
C3354 C3348 1.379 . S
C3354 C3351 1.363 . S
C3354 N3352 1.356 . S
C3355 C3349 1.363 . S
C3355 C3350 1.379 . S
C3355 N3353 1.356 . S
N3356 C3348 1.356 . S
N3356 H3362 0.984 . S
N3356 H3363 0.984 . S
N3357 C3350 1.356 . S
N3357 H3360 0.984 . S
N3357 H3361 0.985 . S
H3358 N3353 0.984 . S
H3359 N3353 0.985 . S
H3360 N3357 0.984 . S
H3361 N3357 0.985 . S
H3362 N3356 0.984 . S
H3363 N3356 0.984 . S
H3364 N3352 0.984 . S
H3365 N3352 0.985 . S
C3366 C3367 1.363 . S
C3366 C3372 1.379 . S
C3366 N3374 1.356 . S
C3367 C3366 1.363 . S
C3367 C3373 1.363 . S
C3368 C3369 1.363 . S
C3368 C3373 1.379 . S
C3368 N3375 1.356 . S
C3369 C3368 1.363 . S
C3369 C3372 1.363 . S
N3370 C3372 1.356 . S
N3370 H3382 0.984 . S
N3370 H3383 0.985 . S
N3371 C3373 1.356 . S
N3371 H3376 0.984 . S
N3371 H3377 0.985 . S
C3372 C3366 1.379 . S
C3372 C3369 1.363 . S
C3372 N3370 1.356 . S
C3373 C3367 1.363 . S
C3373 C3368 1.379 . S
C3373 N3371 1.356 . S
N3374 C3366 1.356 . S
N3374 H3380 0.984 . S
N3374 H3381 0.984 . S
N3375 C3368 1.356 . S
N3375 H3378 0.984 . S
N3375 H3379 0.985 . S
H3376 N3371 0.984 . S
H3377 N3371 0.985 . S
H3378 N3375 0.984 . S
H3379 N3375 0.985 . S
H3380 N3374 0.984 . S
H3381 N3374 0.984 . S
H3382 N3370 0.984 . S
H3383 N3370 0.985 . S
C3384 C3385 1.363 . S
C3384 C3390 1.379 . S
C3384 N3392 1.356 . S
C3385 C3384 1.363 . S
C3385 C3391 1.363 . S
C3386 C3387 1.363 . S
C3386 C3391 1.379 . S
C3386 N3393 1.356 . S
C3387 C3386 1.363 . S
C3387 C3390 1.363 . S
N3388 C3390 1.356 . S
N3388 H3400 0.984 . S
N3388 H3401 0.985 . S
N3389 C3391 1.356 . S
N3389 H3394 0.984 . S
N3389 H3395 0.985 . S
C3390 C3384 1.379 . S
C3390 C3387 1.363 . S
C3390 N3388 1.356 . S
C3391 C3385 1.363 . S
C3391 C3386 1.379 . S
C3391 N3389 1.356 . S
N3392 C3384 1.356 . S
N3392 H3398 0.984 . S
N3392 H3399 0.984 . S
N3393 C3386 1.356 . S
N3393 H3396 0.984 . S
N3393 H3397 0.985 . S
H3394 N3389 0.984 . S
H3395 N3389 0.985 . S
H3396 N3393 0.984 . S
H3397 N3393 0.985 . S
H3398 N3392 0.984 . S
H3399 N3392 0.984 . S
H3400 N3388 0.984 . S
H3401 N3388 0.985 . S
C3402 C3403 1.363 . S
C3402 C3408 1.379 . S
C3402 N3410 1.356 . S
C3403 C3402 1.363 . S
C3403 C3409 1.363 . S
C3404 C3405 1.363 . S
C3404 C3409 1.379 . S
C3404 N3411 1.356 . S
C3405 C3404 1.363 . S
C3405 C3408 1.363 . S
N3406 C3408 1.356 . S
N3406 H3418 0.984 . S
N3406 H3419 0.985 . S
N3407 C3409 1.356 . S
N3407 H3412 0.984 . S
N3407 H3413 0.985 . S
C3408 C3402 1.379 . S
C3408 C3405 1.363 . S
C3408 N3406 1.356 . S
C3409 C3403 1.363 . S
C3409 C3404 1.379 . S
C3409 N3407 1.356 . S
N3410 C3402 1.356 . S
N3410 H3416 0.984 . S
N3410 H3417 0.984 . S
N3411 C3404 1.356 . S
N3411 H3414 0.984 . S
N3411 H3415 0.985 . S
H3412 N3407 0.984 . S
H3413 N3407 0.985 . S
H3414 N3411 0.984 . S
H3415 N3411 0.985 . S
H3416 N3410 0.984 . S
H3417 N3410 0.984 . S
H3418 N3406 0.984 . S
H3419 N3406 0.985 . S
C3420 C3421 1.363 . S
C3420 C3426 1.379 . S
C3420 N3428 1.356 . S
C3421 C3420 1.363 . S
C3421 C3427 1.363 . S
C3422 C3423 1.363 . S
C3422 C3427 1.379 . S
C3422 N3429 1.356 . S
C3423 C3422 1.363 . S
C3423 C3426 1.363 . S
N3424 C3426 1.356 . S
N3424 H3436 0.984 . S
N3424 H3437 0.985 . S
N3425 C3427 1.356 . S
N3425 H3430 0.984 . S
N3425 H3431 0.985 . S
C3426 C3420 1.379 . S
C3426 C3423 1.363 . S
C3426 N3424 1.356 . S
C3427 C3421 1.363 . S
C3427 C3422 1.379 . S
C3427 N3425 1.356 . S
N3428 C3420 1.356 . S
N3428 H3434 0.984 . S
N3428 H3435 0.984 . S
N3429 C3422 1.356 . S
N3429 H3432 0.984 . S
N3429 H3433 0.985 . S
H3430 N3425 0.984 . S
H3431 N3425 0.985 . S
H3432 N3429 0.984 . S
H3433 N3429 0.985 . S
H3434 N3428 0.984 . S
H3435 N3428 0.984 . S
H3436 N3424 0.984 . S
H3437 N3424 0.985 . S
C3438 C3439 1.363 . S
C3438 C3444 1.379 . S
C3438 N3446 1.356 . S
C3439 C3438 1.363 . S
C3439 C3445 1.363 . S
C3440 C3441 1.363 . S
C3440 C3445 1.379 . S
C3440 N3447 1.356 . S
C3441 C3440 1.363 . S
C3441 C3444 1.363 . S
N3442 C3444 1.356 . S
N3442 H3454 0.984 . S
N3442 H3455 0.985 . S
N3443 C3445 1.356 . S
N3443 H3448 0.984 . S
N3443 H3449 0.985 . S
C3444 C3438 1.379 . S
C3444 C3441 1.363 . S
C3444 N3442 1.356 . S
C3445 C3439 1.363 . S
C3445 C3440 1.379 . S
C3445 N3443 1.356 . S
N3446 C3438 1.356 . S
N3446 H3452 0.984 . S
N3446 H3453 0.984 . S
N3447 C3440 1.356 . S
N3447 H3450 0.984 . S
N3447 H3451 0.985 . S
H3448 N3443 0.984 . S
H3449 N3443 0.985 . S
H3450 N3447 0.984 . S
H3451 N3447 0.985 . S
H3452 N3446 0.984 . S
H3453 N3446 0.984 . S
H3454 N3442 0.984 . S
H3455 N3442 0.985 . S
C3456 C3457 1.363 . S
C3456 C3462 1.379 . S
C3456 N3464 1.356 . S
C3457 C3456 1.363 . S
C3457 C3463 1.363 . S
C3458 C3459 1.363 . S
C3458 C3463 1.379 . S
C3458 N3465 1.356 . S
C3459 C3458 1.363 . S
C3459 C3462 1.363 . S
N3460 C3462 1.356 . S
N3460 H3472 0.984 . S
N3460 H3473 0.985 . S
N3461 C3463 1.356 . S
N3461 H3466 0.984 . S
N3461 H3467 0.985 . S
C3462 C3456 1.379 . S
C3462 C3459 1.363 . S
C3462 N3460 1.356 . S
C3463 C3457 1.363 . S
C3463 C3458 1.379 . S
C3463 N3461 1.356 . S
N3464 C3456 1.356 . S
N3464 H3470 0.984 . S
N3464 H3471 0.984 . S
N3465 C3458 1.356 . S
N3465 H3468 0.984 . S
N3465 H3469 0.985 . S
H3466 N3461 0.984 . S
H3467 N3461 0.985 . S
H3468 N3465 0.984 . S
H3469 N3465 0.985 . S
H3470 N3464 0.984 . S
H3471 N3464 0.984 . S
H3472 N3460 0.984 . S
H3473 N3460 0.985 . S
C3474 C3475 1.363 . S
C3474 C3480 1.379 . S
C3474 N3482 1.356 . S
C3475 C3474 1.363 . S
C3475 C3481 1.363 . S
C3476 C3477 1.363 . S
C3476 C3481 1.379 . S
C3476 N3483 1.356 . S
C3477 C3476 1.363 . S
C3477 C3480 1.363 . S
N3478 C3480 1.356 . S
N3478 H3490 0.984 . S
N3478 H3491 0.985 . S
N3479 C3481 1.356 . S
N3479 H3484 0.984 . S
N3479 H3485 0.985 . S
C3480 C3474 1.379 . S
C3480 C3477 1.363 . S
C3480 N3478 1.356 . S
C3481 C3475 1.363 . S
C3481 C3476 1.379 . S
C3481 N3479 1.356 . S
N3482 C3474 1.356 . S
N3482 H3488 0.984 . S
N3482 H3489 0.984 . S
N3483 C3476 1.356 . S
N3483 H3486 0.984 . S
N3483 H3487 0.985 . S
H3484 N3479 0.984 . S
H3485 N3479 0.985 . S
H3486 N3483 0.984 . S
H3487 N3483 0.985 . S
H3488 N3482 0.984 . S
H3489 N3482 0.984 . S
H3490 N3478 0.984 . S
H3491 N3478 0.985 . S
C3492 C3493 1.363 . S
C3492 C3498 1.379 . S
C3492 N3500 1.356 . S
C3493 C3492 1.363 . S
C3493 C3499 1.363 . S
C3494 C3495 1.363 . S
C3494 C3499 1.379 . S
C3494 N3501 1.356 . S
C3495 C3494 1.363 . S
C3495 C3498 1.363 . S
N3496 C3498 1.356 . S
N3496 H3508 0.984 . S
N3496 H3509 0.985 . S
N3497 C3499 1.356 . S
N3497 H3502 0.984 . S
N3497 H3503 0.985 . S
C3498 C3492 1.379 . S
C3498 C3495 1.363 . S
C3498 N3496 1.356 . S
C3499 C3493 1.363 . S
C3499 C3494 1.379 . S
C3499 N3497 1.356 . S
N3500 C3492 1.356 . S
N3500 H3506 0.984 . S
N3500 H3507 0.984 . S
N3501 C3494 1.356 . S
N3501 H3504 0.984 . S
N3501 H3505 0.985 . S
H3502 N3497 0.984 . S
H3503 N3497 0.985 . S
H3504 N3501 0.984 . S
H3505 N3501 0.985 . S
H3506 N3500 0.984 . S
H3507 N3500 0.984 . S
H3508 N3496 0.984 . S
H3509 N3496 0.985 . S
C3510 C3511 1.363 . S
C3510 C3516 1.379 . S
C3510 N3518 1.356 . S
C3511 C3510 1.363 . S
C3511 C3517 1.363 . S
C3512 C3513 1.363 . S
C3512 C3517 1.379 . S
C3512 N3519 1.356 . S
C3513 C3512 1.363 . S
C3513 C3516 1.363 . S
N3514 C3516 1.356 . S
N3514 H3526 0.984 . S
N3514 H3527 0.985 . S
N3515 C3517 1.356 . S
N3515 H3520 0.984 . S
N3515 H3521 0.985 . S
C3516 C3510 1.379 . S
C3516 C3513 1.363 . S
C3516 N3514 1.356 . S
C3517 C3511 1.363 . S
C3517 C3512 1.379 . S
C3517 N3515 1.356 . S
N3518 C3510 1.356 . S
N3518 H3524 0.984 . S
N3518 H3525 0.984 . S
N3519 C3512 1.356 . S
N3519 H3522 0.984 . S
N3519 H3523 0.985 . S
H3520 N3515 0.984 . S
H3521 N3515 0.985 . S
H3522 N3519 0.984 . S
H3523 N3519 0.985 . S
H3524 N3518 0.984 . S
H3525 N3518 0.984 . S
H3526 N3514 0.984 . S
H3527 N3514 0.985 . S
C3528 C3529 1.363 . S
C3528 C3534 1.379 . S
C3528 N3536 1.356 . S
C3529 C3528 1.363 . S
C3529 C3535 1.363 . S
C3530 C3531 1.363 . S
C3530 C3535 1.379 . S
C3530 N3537 1.356 . S
C3531 C3530 1.363 . S
C3531 C3534 1.363 . S
N3532 C3534 1.356 . S
N3532 H3544 0.984 . S
N3532 H3545 0.985 . S
N3533 C3535 1.356 . S
N3533 H3538 0.984 . S
N3533 H3539 0.985 . S
C3534 C3528 1.379 . S
C3534 C3531 1.363 . S
C3534 N3532 1.356 . S
C3535 C3529 1.363 . S
C3535 C3530 1.379 . S
C3535 N3533 1.356 . S
N3536 C3528 1.356 . S
N3536 H3542 0.984 . S
N3536 H3543 0.984 . S
N3537 C3530 1.356 . S
N3537 H3540 0.984 . S
N3537 H3541 0.985 . S
H3538 N3533 0.984 . S
H3539 N3533 0.985 . S
H3540 N3537 0.984 . S
H3541 N3537 0.985 . S
H3542 N3536 0.984 . S
H3543 N3536 0.984 . S
H3544 N3532 0.984 . S
H3545 N3532 0.985 . S
C3546 C3547 1.363 . S
C3546 C3552 1.379 . S
C3546 N3554 1.356 . S
C3547 C3546 1.363 . S
C3547 C3553 1.363 . S
C3548 C3549 1.363 . S
C3548 C3553 1.379 . S
C3548 N3555 1.356 . S
C3549 C3548 1.363 . S
C3549 C3552 1.363 . S
N3550 C3552 1.356 . S
N3550 H3562 0.984 . S
N3550 H3563 0.985 . S
N3551 C3553 1.356 . S
N3551 H3556 0.984 . S
N3551 H3557 0.985 . S
C3552 C3546 1.379 . S
C3552 C3549 1.363 . S
C3552 N3550 1.356 . S
C3553 C3547 1.363 . S
C3553 C3548 1.379 . S
C3553 N3551 1.356 . S
N3554 C3546 1.356 . S
N3554 H3560 0.984 . S
N3554 H3561 0.984 . S
N3555 C3548 1.356 . S
N3555 H3558 0.984 . S
N3555 H3559 0.985 . S
H3556 N3551 0.984 . S
H3557 N3551 0.985 . S
H3558 N3555 0.984 . S
H3559 N3555 0.985 . S
H3560 N3554 0.984 . S
H3561 N3554 0.984 . S
H3562 N3550 0.984 . S
H3563 N3550 0.985 . S
C3564 C3565 1.363 . S
C3564 C3570 1.379 . S
C3564 N3572 1.356 . S
C3565 C3564 1.363 . S
C3565 C3571 1.363 . S
C3566 C3567 1.363 . S
C3566 C3571 1.379 . S
C3566 N3573 1.356 . S
C3567 C3566 1.363 . S
C3567 C3570 1.363 . S
N3568 C3570 1.356 . S
N3568 H3580 0.984 . S
N3568 H3581 0.985 . S
N3569 C3571 1.356 . S
N3569 H3574 0.984 . S
N3569 H3575 0.985 . S
C3570 C3564 1.379 . S
C3570 C3567 1.363 . S
C3570 N3568 1.356 . S
C3571 C3565 1.363 . S
C3571 C3566 1.379 . S
C3571 N3569 1.356 . S
N3572 C3564 1.356 . S
N3572 H3578 0.984 . S
N3572 H3579 0.984 . S
N3573 C3566 1.356 . S
N3573 H3576 0.984 . S
N3573 H3577 0.985 . S
H3574 N3569 0.984 . S
H3575 N3569 0.985 . S
H3576 N3573 0.984 . S
H3577 N3573 0.985 . S
H3578 N3572 0.984 . S
H3579 N3572 0.984 . S
H3580 N3568 0.984 . S
H3581 N3568 0.985 . S
C3582 C3583 1.363 . S
C3582 C3588 1.379 . S
C3582 N3590 1.356 . S
C3583 C3582 1.363 . S
C3583 C3589 1.363 . S
C3584 C3585 1.363 . S
C3584 C3589 1.379 . S
C3584 N3591 1.356 . S
C3585 C3584 1.363 . S
C3585 C3588 1.363 . S
N3586 C3588 1.356 . S
N3586 H3598 0.984 . S
N3586 H3599 0.985 . S
N3587 C3589 1.356 . S
N3587 H3592 0.984 . S
N3587 H3593 0.985 . S
C3588 C3582 1.379 . S
C3588 C3585 1.363 . S
C3588 N3586 1.356 . S
C3589 C3583 1.363 . S
C3589 C3584 1.379 . S
C3589 N3587 1.356 . S
N3590 C3582 1.356 . S
N3590 H3596 0.984 . S
N3590 H3597 0.984 . S
N3591 C3584 1.356 . S
N3591 H3594 0.984 . S
N3591 H3595 0.985 . S
H3592 N3587 0.984 . S
H3593 N3587 0.985 . S
H3594 N3591 0.984 . S
H3595 N3591 0.985 . S
H3596 N3590 0.984 . S
H3597 N3590 0.984 . S
H3598 N3586 0.984 . S
H3599 N3586 0.985 . S
C3600 C3601 1.363 . S
C3600 C3606 1.379 . S
C3600 N3608 1.356 . S
C3601 C3600 1.363 . S
C3601 C3607 1.363 . S
C3602 C3603 1.363 . S
C3602 C3607 1.379 . S
C3602 N3609 1.356 . S
C3603 C3602 1.363 . S
C3603 C3606 1.363 . S
N3604 C3606 1.356 . S
N3604 H3616 0.984 . S
N3604 H3617 0.985 . S
N3605 C3607 1.356 . S
N3605 H3610 0.984 . S
N3605 H3611 0.985 . S
C3606 C3600 1.379 . S
C3606 C3603 1.363 . S
C3606 N3604 1.356 . S
C3607 C3601 1.363 . S
C3607 C3602 1.379 . S
C3607 N3605 1.356 . S
N3608 C3600 1.356 . S
N3608 H3614 0.984 . S
N3608 H3615 0.984 . S
N3609 C3602 1.356 . S
N3609 H3612 0.984 . S
N3609 H3613 0.985 . S
H3610 N3605 0.984 . S
H3611 N3605 0.985 . S
H3612 N3609 0.984 . S
H3613 N3609 0.985 . S
H3614 N3608 0.984 . S
H3615 N3608 0.984 . S
H3616 N3604 0.984 . S
H3617 N3604 0.985 . S
C3618 C3619 1.363 . S
C3618 C3624 1.379 . S
C3618 N3626 1.356 . S
C3619 C3618 1.363 . S
C3619 C3625 1.363 . S
C3620 C3621 1.363 . S
C3620 C3625 1.379 . S
C3620 N3627 1.356 . S
C3621 C3620 1.363 . S
C3621 C3624 1.363 . S
N3622 C3624 1.356 . S
N3622 H3634 0.984 . S
N3622 H3635 0.985 . S
N3623 C3625 1.356 . S
N3623 H3628 0.984 . S
N3623 H3629 0.985 . S
C3624 C3618 1.379 . S
C3624 C3621 1.363 . S
C3624 N3622 1.356 . S
C3625 C3619 1.363 . S
C3625 C3620 1.379 . S
C3625 N3623 1.356 . S
N3626 C3618 1.356 . S
N3626 H3632 0.984 . S
N3626 H3633 0.984 . S
N3627 C3620 1.356 . S
N3627 H3630 0.984 . S
N3627 H3631 0.985 . S
H3628 N3623 0.984 . S
H3629 N3623 0.985 . S
H3630 N3627 0.984 . S
H3631 N3627 0.985 . S
H3632 N3626 0.984 . S
H3633 N3626 0.984 . S
H3634 N3622 0.984 . S
H3635 N3622 0.985 . S
C3636 C3637 1.363 . S
C3636 C3642 1.379 . S
C3636 N3644 1.356 . S
C3637 C3636 1.363 . S
C3637 C3643 1.363 . S
C3638 C3639 1.363 . S
C3638 C3643 1.379 . S
C3638 N3645 1.356 . S
C3639 C3638 1.363 . S
C3639 C3642 1.363 . S
N3640 C3642 1.356 . S
N3640 H3652 0.984 . S
N3640 H3653 0.985 . S
N3641 C3643 1.356 . S
N3641 H3646 0.984 . S
N3641 H3647 0.985 . S
C3642 C3636 1.379 . S
C3642 C3639 1.363 . S
C3642 N3640 1.356 . S
C3643 C3637 1.363 . S
C3643 C3638 1.379 . S
C3643 N3641 1.356 . S
N3644 C3636 1.356 . S
N3644 H3650 0.984 . S
N3644 H3651 0.984 . S
N3645 C3638 1.356 . S
N3645 H3648 0.984 . S
N3645 H3649 0.985 . S
H3646 N3641 0.984 . S
H3647 N3641 0.985 . S
H3648 N3645 0.984 . S
H3649 N3645 0.985 . S
H3650 N3644 0.984 . S
H3651 N3644 0.984 . S
H3652 N3640 0.984 . S
H3653 N3640 0.985 . S
C3654 C3655 1.363 . S
C3654 C3660 1.379 . S
C3654 N3662 1.356 . S
C3655 C3654 1.363 . S
C3655 C3661 1.363 . S
C3656 C3657 1.363 . S
C3656 C3661 1.379 . S
C3656 N3663 1.356 . S
C3657 C3656 1.363 . S
C3657 C3660 1.363 . S
N3658 C3660 1.356 . S
N3658 H3670 0.984 . S
N3658 H3671 0.985 . S
N3659 C3661 1.356 . S
N3659 H3664 0.984 . S
N3659 H3665 0.985 . S
C3660 C3654 1.379 . S
C3660 C3657 1.363 . S
C3660 N3658 1.356 . S
C3661 C3655 1.363 . S
C3661 C3656 1.379 . S
C3661 N3659 1.356 . S
N3662 C3654 1.356 . S
N3662 H3668 0.984 . S
N3662 H3669 0.984 . S
N3663 C3656 1.356 . S
N3663 H3666 0.984 . S
N3663 H3667 0.985 . S
H3664 N3659 0.984 . S
H3665 N3659 0.985 . S
H3666 N3663 0.984 . S
H3667 N3663 0.985 . S
H3668 N3662 0.984 . S
H3669 N3662 0.984 . S
H3670 N3658 0.984 . S
H3671 N3658 0.985 . S
C3672 C3673 1.363 . S
C3672 C3678 1.379 . S
C3672 N3680 1.356 . S
C3673 C3672 1.363 . S
C3673 C3679 1.363 . S
C3674 C3675 1.363 . S
C3674 C3679 1.379 . S
C3674 N3681 1.356 . S
C3675 C3674 1.363 . S
C3675 C3678 1.363 . S
N3676 C3678 1.356 . S
N3676 H3688 0.984 . S
N3676 H3689 0.985 . S
N3677 C3679 1.356 . S
N3677 H3682 0.984 . S
N3677 H3683 0.985 . S
C3678 C3672 1.379 . S
C3678 C3675 1.363 . S
C3678 N3676 1.356 . S
C3679 C3673 1.363 . S
C3679 C3674 1.379 . S
C3679 N3677 1.356 . S
N3680 C3672 1.356 . S
N3680 H3686 0.984 . S
N3680 H3687 0.984 . S
N3681 C3674 1.356 . S
N3681 H3684 0.984 . S
N3681 H3685 0.985 . S
H3682 N3677 0.984 . S
H3683 N3677 0.985 . S
H3684 N3681 0.984 . S
H3685 N3681 0.985 . S
H3686 N3680 0.984 . S
H3687 N3680 0.984 . S
H3688 N3676 0.984 . S
H3689 N3676 0.985 . S
C3690 C3691 1.363 . S
C3690 C3696 1.379 . S
C3690 N3698 1.356 . S
C3691 C3690 1.363 . S
C3691 C3697 1.363 . S
C3692 C3693 1.363 . S
C3692 C3697 1.379 . S
C3692 N3699 1.356 . S
C3693 C3692 1.363 . S
C3693 C3696 1.363 . S
N3694 C3696 1.356 . S
N3694 H3706 0.984 . S
N3694 H3707 0.985 . S
N3695 C3697 1.356 . S
N3695 H3700 0.984 . S
N3695 H3701 0.985 . S
C3696 C3690 1.379 . S
C3696 C3693 1.363 . S
C3696 N3694 1.356 . S
C3697 C3691 1.363 . S
C3697 C3692 1.379 . S
C3697 N3695 1.356 . S
N3698 C3690 1.356 . S
N3698 H3704 0.984 . S
N3698 H3705 0.984 . S
N3699 C3692 1.356 . S
N3699 H3702 0.984 . S
N3699 H3703 0.985 . S
H3700 N3695 0.984 . S
H3701 N3695 0.985 . S
H3702 N3699 0.984 . S
H3703 N3699 0.985 . S
H3704 N3698 0.984 . S
H3705 N3698 0.984 . S
H3706 N3694 0.984 . S
H3707 N3694 0.985 . S
C3708 C3709 1.363 . S
C3708 C3714 1.379 . S
C3708 N3716 1.356 . S
C3709 C3708 1.363 . S
C3709 C3715 1.363 . S
C3710 C3711 1.363 . S
C3710 C3715 1.379 . S
C3710 N3717 1.356 . S
C3711 C3710 1.363 . S
C3711 C3714 1.363 . S
N3712 C3714 1.356 . S
N3712 H3724 0.984 . S
N3712 H3725 0.985 . S
N3713 C3715 1.356 . S
N3713 H3718 0.984 . S
N3713 H3719 0.985 . S
C3714 C3708 1.379 . S
C3714 C3711 1.363 . S
C3714 N3712 1.356 . S
C3715 C3709 1.363 . S
C3715 C3710 1.379 . S
C3715 N3713 1.356 . S
N3716 C3708 1.356 . S
N3716 H3722 0.984 . S
N3716 H3723 0.984 . S
N3717 C3710 1.356 . S
N3717 H3720 0.984 . S
N3717 H3721 0.985 . S
H3718 N3713 0.984 . S
H3719 N3713 0.985 . S
H3720 N3717 0.984 . S
H3721 N3717 0.985 . S
H3722 N3716 0.984 . S
H3723 N3716 0.984 . S
H3724 N3712 0.984 . S
H3725 N3712 0.985 . S
C3726 C3727 1.363 . S
C3726 C3732 1.379 . S
C3726 N3734 1.356 . S
C3727 C3726 1.363 . S
C3727 C3733 1.363 . S
C3728 C3729 1.363 . S
C3728 C3733 1.379 . S
C3728 N3735 1.356 . S
C3729 C3728 1.363 . S
C3729 C3732 1.363 . S
N3730 C3732 1.356 . S
N3730 H3742 0.984 . S
N3730 H3743 0.985 . S
N3731 C3733 1.356 . S
N3731 H3736 0.984 . S
N3731 H3737 0.985 . S
C3732 C3726 1.379 . S
C3732 C3729 1.363 . S
C3732 N3730 1.356 . S
C3733 C3727 1.363 . S
C3733 C3728 1.379 . S
C3733 N3731 1.356 . S
N3734 C3726 1.356 . S
N3734 H3740 0.984 . S
N3734 H3741 0.984 . S
N3735 C3728 1.356 . S
N3735 H3738 0.984 . S
N3735 H3739 0.985 . S
H3736 N3731 0.984 . S
H3737 N3731 0.985 . S
H3738 N3735 0.984 . S
H3739 N3735 0.985 . S
H3740 N3734 0.984 . S
H3741 N3734 0.984 . S
H3742 N3730 0.984 . S
H3743 N3730 0.985 . S
C1585 C292 1.226 . S
C1587 N5 1.218 . S
C1603 C325 1.226 . S
C1605 N38 1.218 . S
C1621 N71 1.218 . S
C1623 C358 1.226 . S
C1639 N104 1.218 . S
C1641 C391 1.226 . S
C1657 N137 1.218 . S
C1659 C424 1.226 . S
C1675 C457 1.226 . S
C1677 N170 1.218 1_455 S
C1693 C490 1.226 . S
C1695 N203 1.218 . S
C1711 N236 1.218 1_655 S
C1713 C523 1.226 . S
C1729 N269 1.218 . S
C1731 C556 1.226 . S
C1747 N302 1.218 1_554 S
C1749 C1579 1.226 . S
C1765 N335 1.218 . S
C1767 C1513 1.226 . S
C1783 N368 1.218 1_554 S
C1785 C1546 1.226 . S
C1801 C589 1.226 . S
C1803 N401 1.218 . S
C1819 C622 1.226 . S
C1821 N434 1.218 1_556 S
C1837 N467 1.218 . S
C1839 C655 1.226 . S
C1855 N500 1.218 1_556 S
C1857 C1480 1.226 . S
C1873 N533 1.218 . S
C1875 C28 1.226 . S
C1891 C160 1.226 . S
C1893 N566 1.218 . S
C1909 N599 1.218 . S
C1911 C193 1.226 . S
C1927 C226 1.226 . S
C1929 N632 1.218 . S
C1945 N665 1.218 . S
C1947 C1051 1.226 . S
C1963 N698 1.218 . S
C1965 C886 1.226 . S
C1981 N731 1.218 . S
C1983 C919 1.226 . S
C1999 N764 1.218 1_545 S
C2001 C853 1.226 . S
C2017 C1084 1.226 . S
C2019 N797 1.218 . S
C2035 C1117 1.226 . S
C2037 N830 1.218 1_655 S
C2053 C1150 1.226 . S
C2055 N863 1.218 . S
C2071 N896 1.218 1_455 S
C2073 C1183 1.226 . S
C2089 C1216 1.226 . S
C2091 N929 1.218 . S
C2107 C1249 1.226 . S
C2109 N962 1.218 . S
C2125 N995 1.218 . S
C2127 C1282 1.226 . S
C2143 N1028 1.218 . S
C2145 C1315 1.226 . S
C2161 N1061 1.218 . S
C2163 C1348 1.226 . S
C2179 C787 1.226 . S
C2181 N1094 1.218 . S
C2197 C721 1.226 . S
C2199 N1127 1.218 . S
C2215 N1160 1.218 . S
C2217 C754 1.226 . S
C2233 N1193 1.218 . S
C2235 C1381 1.226 . S
C2251 N1226 1.218 . S
C2253 C1414 1.226 . S
C2269 C1447 1.226 . S
C2271 N1259 1.218 . S
C2287 N1292 1.218 . S
C2289 C688 1.226 . S
C2305 C820 1.226 . S
C2307 N1325 1.218 . S
C2323 N1358 1.218 . S
C2325 C952 1.226 . S
C2341 N1391 1.218 1_545 S
C2343 C985 1.226 . S
C2359 C1018 1.226 . S
C2361 N1424 1.218 . S
C2377 N1457 1.218 1_565 S
C2379 C259 1.226 . S
C2395 N1490 1.218 . S
C2397 C94 1.226 . S
C2413 C127 1.226 . S
C2415 N1523 1.218 1_565 S
C2431 C61 1.226 . S
C2433 N1556 1.218 . S
C2449 C17 1.692 . S
C2451 C83 1.692 . S
C2467 C50 1.692 . S
C2469 C116 1.692 . S
C2485 C215 1.692 . S
C2487 C149 1.692 . S
C2503 C182 1.692 . S
C2505 C248 1.692 . S
C2521 C413 1.692 . S
C2523 C281 1.692 . S
C2539 C314 1.692 . S
C2541 C446 1.692 . S
C2557 C479 1.692 . S
C2559 C347 1.692 . S
C2575 C512 1.692 . S
C2577 C380 1.692 . S
C2593 C1436 1.692 . S
C2595 C545 1.692 . S
C2611 C578 1.692 . S
C2613 C710 1.692 . S
C2629 C611 1.692 . S
C2631 C743 1.692 . S
C2647 C644 1.692 . S
C2649 C1337 1.692 . S
C2665 C1568 1.692 . S
C2667 C677 1.692 . S
C2683 C1469 1.692 . S
C2685 C776 1.692 . S
C2701 C875 1.692 . S
C2703 C809 1.692 . S
C2719 C908 1.692 . S
C2721 C842 1.692 . S
C2737 C1007 1.692 . S
C2739 C941 1.692 . S
C2755 C1040 1.692 . S
C2757 C974 1.692 . S
C2773 C1073 1.692 . S
C2775 C1205 1.692 . S
C2791 C1238 1.692 . S
C2793 C1106 1.692 . S
C2809 C1139 1.692 . S
C2811 C1271 1.692 . S
C2827 C1304 1.692 . S
C2829 C1172 1.692 . S
C2845 C1502 1.692 . S
C2847 C1370 1.692 . S
C2863 C1403 1.692 . S
C2865 C1535 1.692 . S
C2881 C437 1.688 . S
C2883 N14 1.608 . S
C2899 C470 1.688 . S
C2901 N47 1.608 . S
C2917 N80 1.608 . S
C2919 C503 1.688 . S
C2935 N113 1.608 . S
C2937 C404 1.688 . S
C2953 N146 1.608 . S
C2955 C1163 1.688 . S
C2971 C1064 1.688 . S
C2973 N179 1.608 . S
C2989 C1097 1.688 . S
C2991 N212 1.608 . S
C3007 N245 1.608 . S
C3009 C1130 1.688 . S
C3025 N278 1.608 . S
C3027 C833 1.688 . S
C3043 C866 1.688 . S
C3045 N311 1.608 . S
C3061 C899 1.688 . S
C3063 N344 1.608 . S
C3079 N377 1.608 . S
C3081 C800 1.688 . S
C3097 N410 1.608 . S
C3099 C239 1.688 . S
C3115 N443 1.608 . S
C3117 C140 1.688 . S
C3133 C173 1.688 . S
C3135 N476 1.608 . S
C3151 N509 1.608 . S
C3153 C206 1.688 . S
C3169 C1526 1.688 . S
C3171 N542 1.608 . S
C3187 N575 1.608 . S
C3189 C1394 1.688 . S
C3205 C1427 1.688 . S
C3207 N608 1.608 . S
C3223 N641 1.608 . S
C3225 C668 1.688 . S
C3241 C569 1.688 . S
C3243 N674 1.608 . S
C3259 N707 1.608 . S
C3261 C767 1.688 . S
C3277 N740 1.608 . S
C3279 C701 1.688 . S
C3295 C1328 1.688 . S
C3297 N773 1.608 . S
C3313 C1229 1.688 . S
C3315 N806 1.608 . S
C3331 C1262 1.688 . S
C3333 N839 1.608 . S
C3349 N872 1.608 . S
C3351 C1295 1.688 . S
C3367 N905 1.608 . S
C3369 C1196 1.688 . S
C3385 C371 1.688 . S
C3387 N938 1.608 . S
C3403 N971 1.608 . S
C3405 C272 1.688 . S
C3421 N1004 1.608 . S
C3423 C305 1.688 . S
C3439 N1037 1.608 . S
C3441 C338 1.688 . S
C3457 N1070 1.608 . S
C3459 C41 1.688 . S
C3475 N1103 1.608 . S
C3477 C74 1.688 . S
C3493 N1136 1.608 . S
C3495 C107 1.688 . S
C3511 N1169 1.608 . S
C3513 C8 1.688 . S
C3529 C1031 1.688 . S
C3531 N1202 1.608 . S
C3547 C932 1.688 . S
C3549 N1235 1.608 . S
C3565 N1268 1.608 . S
C3567 C965 1.688 . S
C3583 N1301 1.608 . S
C3585 C998 1.688 . S
C3601 C734 1.688 . S
C3603 N1334 1.608 . S
C3619 N1367 1.608 . S
C3621 C602 1.688 . S
C3637 C635 1.688 . S
C3639 N1400 1.608 . S
C3655 N1433 1.608 . S
C3657 C1460 1.688 . S
C3673 C1361 1.688 . S
C3675 N1466 1.608 . S
C3691 C1559 1.688 . S
C3693 N1499 1.608 . S
C3709 C1493 1.688 . S
C3711 N1532 1.608 . S
C3727 N1565 1.608 . S
C3729 C536 1.688 . S
