# Generated by pormake.
# Topology lcy, (6)-cn, num edge types: 1
# Building blocks:
#     Node 0, Type 0, BuildingBlock: FUNLAD_clean_sbu_0, # of connection points: 6
#     Node 1, Type 0, BuildingBlock: FUNLAD_clean_sbu_0, # of connection points: 6
#     Node 2, Type 0, BuildingBlock: FUNLAD_clean_sbu_0, # of connection points: 6
#     Node 3, Type 0, BuildingBlock: FUNLAD_clean_sbu_0, # of connection points: 6
#     Edge 4, Type (0, 0), BuildingBlock: UVAHIK_clean_linker_0, # of connection points: 2
#     Edge 5, Type (0, 0), BuildingBlock: UVAHIK_clean_linker_0, # of connection points: 2
#     Edge 6, Type (0, 0), BuildingBlock: UVAHIK_clean_linker_0, # of connection points: 2
#     Edge 7, Type (0, 0), BuildingBlock: UVAHIK_clean_linker_0, # of connection points: 2
#     Edge 8, Type (0, 0), BuildingBlock: UVAHIK_clean_linker_0, # of connection points: 2
#     Edge 9, Type (0, 0), BuildingBlock: UVAHIK_clean_linker_0, # of connection points: 2
#     Edge 10, Type (0, 0), BuildingBlock: UVAHIK_clean_linker_0, # of connection points: 2
#     Edge 11, Type (0, 0), BuildingBlock: UVAHIK_clean_linker_0, # of connection points: 2
#     Edge 12, Type (0, 0), BuildingBlock: UVAHIK_clean_linker_0, # of connection points: 2
#     Edge 13, Type (0, 0), BuildingBlock: UVAHIK_clean_linker_0, # of connection points: 2
#     Edge 14, Type (0, 0), BuildingBlock: UVAHIK_clean_linker_0, # of connection points: 2
#     Edge 15, Type (0, 0), BuildingBlock: UVAHIK_clean_linker_0, # of connection points: 2
# Relax obj value: 0.582
# Max RMSD: 0.338
# Mean RMSD: 0.311
data_MOF--net-lcy--node1-FUNLAD_clean_sbu_0--edge1-UVAHIK_clean_linker_0
_symmetry_space_group_name_H-M    P1
_symmetry_Int_Tables_number       1
_symmetry_cell_setting            triclinic
loop_
_symmetry_equiv_pos_as_xyz
'x, y, z'
_cell_length_a     34.767019
_cell_length_b     34.697842
_cell_length_c     34.226936
_cell_angle_alpha  82.701641
_cell_angle_beta   82.522808
_cell_angle_gamma 75.5401
loop_
_atom_site_label
_atom_site_type_symbol
_atom_site_fract_x
_atom_site_fract_y
_atom_site_fract_z
_atom_type_partial_charge
C0 C 0.31555 0.45033 0.32995 0.0
N1 N 0.4243 0.46071 0.36149 0.0
C2 C 0.43517 0.46773 0.32212 0.0
C3 C 0.45916 0.49449 0.30875 0.0
C4 C 0.47192 0.51431 0.33618 0.0
C5 C 0.46191 0.5049 0.37673 0.0
C6 C 0.43796 0.47789 0.3888 0.0
Zn7 Zn 0.38312 0.42785 0.38003 0.0
C8 C 0.32279 0.46639 0.44382 0.0
N9 N 0.29533 0.36134 0.42003 0.0
C10 C 0.27982 0.34792 0.39133 0.0
C11 C 0.28149 0.35571 0.45887 0.0
C12 C 0.25001 0.33687 0.46993 0.0
C13 C 0.23258 0.32401 0.44067 0.0
C14 C 0.24832 0.32916 0.40102 0.0
Zn15 Zn 0.33757 0.39331 0.40228 0.0
O16 O 0.34821 0.45857 0.33435 0.0
C17 C 0.39883 0.35204 0.34226 0.0
O18 O 0.30274 0.42489 0.35505 0.0
H19 H 0.29421 0.36672 0.48116 0.0
H20 H 0.42409 0.45362 0.30096 0.0
H21 H 0.29131 0.35253 0.36064 0.0
O22 O 0.41329 0.38251 0.34135 0.0
O23 O 0.36727 0.35009 0.36479 0.0
H24 H 0.42898 0.47187 0.41998 0.0
O25 O 0.37445 0.36128 0.44801 0.0
O26 O 0.41764 0.39737 0.42464 0.0
O27 O 0.30817 0.43681 0.4413 0.0
O28 O 0.35327 0.4711 0.42051 0.0
C29 C 0.40744 0.37053 0.44959 0.0
H30 H 0.46672 0.50043 0.27722 0.0
H31 H 0.47076 0.51973 0.39888 0.0
H32 H 0.23853 0.33367 0.50084 0.0
H33 H 0.23612 0.31915 0.37764 0.0
C34 C 0.77571 0.17824 0.60827 0.0
N35 N 0.85343 0.06654 0.58661 0.0
C36 C 0.82494 0.04562 0.58795 0.0
C37 C 0.83224 0.01206 0.56704 0.0
C38 C 0.86889 0.00041 0.54375 0.0
C39 C 0.8973 0.02323 0.54241 0.0
C40 C 0.88917 0.05582 0.56453 0.0
Zn41 Zn 0.84643 0.11094 0.62239 0.0
C42 C 0.89241 0.17038 0.59046 0.0
N43 N 0.83467 0.19933 0.70074 0.0
C44 C 0.83457 0.23734 0.68493 0.0
C45 C 0.83695 0.18842 0.74014 0.0
C46 C 0.84167 0.21562 0.76487 0.0
C47 C 0.84446 0.25431 0.74883 0.0
C48 C 0.83957 0.26537 0.70848 0.0
Zn49 Zn 0.83834 0.15671 0.6635 0.0
O50 O 0.79302 0.1433 0.59886 0.0
C51 C 0.79427 0.09779 0.69709 0.0
O52 O 0.79031 0.19357 0.6331 0.0
H53 H 0.83692 0.15804 0.75213 0.0
H54 H 0.79684 0.05438 0.60595 0.0
H55 H 0.83272 0.24538 0.65353 0.0
O56 O 0.81313 0.08016 0.66747 0.0
O57 O 0.79733 0.1326 0.70129 0.0
H58 H 0.9119 0.07211 0.5645 0.0
O59 O 0.88555 0.11677 0.69469 0.0
O60 O 0.8984 0.07867 0.64604 0.0
O61 O 0.8802 0.18122 0.62483 0.0
O62 O 0.88074 0.14203 0.57932 0.0
C63 C 0.90642 0.08593 0.67894 0.0
H64 H 0.80951 0.99526 0.5696 0.0
H65 H 0.92556 0.01637 0.52423 0.0
H66 H 0.84455 0.20596 0.79592 0.0
H67 H 0.84198 0.29461 0.69458 0.0
C68 C 0.17643 0.59065 0.94624 0.0
N69 N 0.18886 0.70335 0.89514 0.0
C70 C 0.18779 0.71268 0.93272 0.0
C71 C 0.20919 0.7392 0.94074 0.0
C72 C 0.23283 0.75587 0.91001 0.0
C73 C 0.23321 0.74597 0.87133 0.0
C74 C 0.21073 0.71962 0.8645 0.0
Zn75 Zn 0.15648 0.66382 0.88717 0.0
C76 C 0.19432 0.60835 0.82704 0.0
N77 N 0.08711 0.58074 0.87832 0.0
C78 C 0.07207 0.55972 0.91046 0.0
C79 C 0.08053 0.57626 0.84103 0.0
C80 C 0.05833 0.54958 0.83492 0.0
C81 C 0.0427 0.52719 0.86748 0.0
C82 C 0.04965 0.53268 0.90569 0.0
Zn83 Zn 0.12021 0.61991 0.88539 0.0
O84 O 0.18395 0.62424 0.93336 0.0
C85 C 0.07925 0.67598 0.9419 0.0
O86 O 0.15134 0.5785 0.92987 0.0
H87 H 0.0926 0.5934 0.81592 0.0
H88 H 0.17039 0.69937 0.95672 0.0
H89 H 0.07763 0.56378 0.93986 0.0
O90 O 0.10839 0.69181 0.92907 0.0
O91 O 0.07781 0.64355 0.92962 0.0
H92 H 0.21107 0.71189 0.83481 0.0
O93 O 0.08789 0.66459 0.84274 0.0
O94 O 0.1296 0.70286 0.84276 0.0
O95 O 0.16327 0.59569 0.83969 0.0
O96 O 0.20141 0.63668 0.84309 0.0
C97 C 0.09933 0.69655 0.83012 0.0
H98 H 0.2071 0.74653 0.97088 0.0
H99 H 0.25123 0.75776 0.84674 0.0
H100 H 0.05322 0.54674 0.80498 0.0
H101 H 0.03851 0.51575 0.93159 0.0
C102 C 0.598 0.98332 0.17972 0.0
N103 N 0.71223 0.90902 0.1956 0.0
C104 C 0.73129 0.93913 0.19332 0.0
C105 C 0.76548 0.9338 0.21264 0.0
C106 C 0.77964 0.89749 0.23552 0.0
C107 C 0.7589 0.8672 0.23762 0.0
C108 C 0.72561 0.87339 0.21693 0.0
Zn109 Zn 0.66606 0.91427 0.16271 0.0
C110 C 0.61026 0.86596 0.19676 0.0
N111 N 0.57455 0.92357 0.08884 0.0
C112 C 0.55107 0.95852 0.07388 0.0
C113 C 0.56794 0.88764 0.08361 0.0
C114 C 0.53584 0.88583 0.06417 0.0
C115 C 0.51029 0.92129 0.04965 0.0
C116 C 0.51861 0.95805 0.05376 0.0
Zn117 Zn 0.61917 0.92176 0.1228 0.0
O118 O 0.63291 0.966 0.18886 0.0
C119 C 0.67466 0.96792 0.08694 0.0
O120 O 0.58305 0.96951 0.15404 0.0
H121 H 0.58702 0.8602 0.0955 0.0
H122 H 0.72042 0.96714 0.17597 0.0
H123 H 0.55691 0.98674 0.0784 0.0
O124 O 0.69282 0.95023 0.11655 0.0
O125 O 0.64054 0.96295 0.08304 0.0
H126 H 0.71074 0.8494 0.2177 0.0
O127 O 0.65822 0.87502 0.09049 0.0
O128 O 0.69882 0.86366 0.13674 0.0
O129 O 0.59734 0.87964 0.16356 0.0
O130 O 0.63919 0.87741 0.20678 0.0
C131 C 0.69004 0.85497 0.10476 0.0
H132 H 0.78062 0.95791 0.20939 0.0
H133 H 0.76773 0.83904 0.25548 0.0
H134 H 0.53062 0.8569 0.06108 0.0
H135 H 0.49939 0.98599 0.04293 0.0
C136 C 0.1762 0.5401 0.00628 0.0
C137 C 0.19332 0.56917 0.98295 0.0
C138 C 0.18799 0.52533 0.04417 0.0
C139 C 0.23331 0.55557 0.12416 0.0
H140 H 0.24636 0.4452 0.16861 0.0
C141 C 0.30957 0.49587 0.26684 0.0
C142 C 0.2954 0.46703 0.29359 0.0
C143 C 0.29416 0.5084 0.23035 0.0
C144 C 0.24228 0.47628 0.15687 0.0
H145 H 0.23803 0.60353 0.9803 0.0
H146 H 0.25894 0.57738 0.04542 0.0
H147 H 0.2269 0.46475 0.1014 0.0
H148 H 0.25309 0.42939 0.303 0.0
H149 H 0.22581 0.45167 0.2393 0.0
H150 H 0.24874 0.56726 0.17927 0.0
C151 C 0.23568 0.56669 0.03512 0.0
C152 C 0.23121 0.48746 0.11825 0.0
C153 C 0.22392 0.58143 -0.00249 0.0
C154 C 0.26458 0.4518 0.28324 0.0
C155 C 0.24923 0.46427 0.24652 0.0
C156 C 0.24431 0.54445 0.16262 0.0
C157 C 0.21712 0.53934 0.0595 0.0
C158 C 0.22719 0.52717 0.10117 0.0
C159 C 0.26414 0.49244 0.21938 0.0
C160 C 0.24952 0.50456 0.17938 0.0
H161 H 0.15238 0.53019 0.9961 0.0
H162 H 0.17302 0.5043 0.06211 0.0
H163 H 0.22949 0.58664 0.11247 0.0
H164 H 0.33343 0.50812 0.27362 0.0
H165 H 0.3068 0.52974 0.21014 0.0
C166 C 0.82059 0.92475 0.27549 0.0
C167 C 0.81402 0.89201 0.25919 0.0
C168 C 0.84851 0.91897 0.30265 0.0
C169 C 0.91583 0.89816 0.35575 0.0
H170 H 0.86327 0.84823 0.44823 0.0
C171 C 0.91616 0.94374 0.50996 0.0
C172 C 0.87687 0.96615 0.5193 0.0
C173 C 0.92424 0.91632 0.48165 0.0
C174 C 0.87943 0.861 0.42269 0.0
H175 H 0.83515 0.82781 0.25591 0.0
H176 H 0.88169 0.81766 0.30603 0.0
H177 H 0.85375 0.83499 0.38224 0.0
H178 H 0.81503 0.97444 0.50809 0.0
H179 H 0.82903 0.92558 0.46052 0.0
H180 H 0.93835 0.9272 0.39617 0.0
C181 C 0.86547 0.84775 0.29694 0.0
C182 C 0.87412 0.85335 0.38495 0.0
C183 C 0.83827 0.85364 0.26881 0.0
C184 C 0.84557 0.95768 0.50232 0.0
C185 C 0.85356 0.92955 0.47492 0.0
C186 C 0.92169 0.90527 0.3935 0.0
C187 C 0.86993 0.8803 0.31482 0.0
C188 C 0.88979 0.87432 0.35133 0.0
C189 C 0.89303 0.90981 0.46327 0.0
C190 C 0.90101 0.8891 0.42703 0.0
H191 H 0.80241 0.95467 0.26955 0.0
H192 H 0.85087 0.9445 0.31663 0.0
H193 H 0.92817 0.91459 0.33015 0.0
H194 H 0.94097 0.94839 0.52335 0.0
H195 H 0.9549 0.90142 0.47296 0.0
C196 C 0.2216 0.55425 0.78234 0.0
C197 C 0.21799 0.59372 0.79039 0.0
C198 C 0.23654 0.54218 0.74473 0.0
C199 C 0.28403 0.57523 0.64475 0.0
H200 H 0.23607 0.49655 0.61224 0.0
C201 C 0.33524 0.50636 0.49486 0.0
C202 C 0.30848 0.49072 0.47779 0.0
C203 C 0.32433 0.52221 0.53149 0.0
C204 C 0.24934 0.51914 0.62025 0.0
H205 H 0.2282 0.65132 0.76572 0.0
H206 H 0.25266 0.63103 0.69957 0.0
H207 H 0.21875 0.51676 0.67829 0.0
H208 H 0.2484 0.48199 0.48435 0.0
H209 H 0.2283 0.51203 0.54658 0.0
H210 H 0.31274 0.57927 0.58565 0.0
C211 C 0.24527 0.60874 0.72245 0.0
C212 C 0.24007 0.53012 0.6589 0.0
C213 C 0.23125 0.6205 0.7605 0.0
C214 C 0.26975 0.49363 0.49686 0.0
C215 C 0.25849 0.51037 0.53298 0.0
C216 C 0.29272 0.56479 0.60571 0.0
C217 C 0.24707 0.56964 0.71364 0.0
C218 C 0.25752 0.55805 0.67204 0.0
C219 C 0.28605 0.52358 0.55168 0.0
C220 C 0.27567 0.53638 0.59284 0.0
H221 H 0.21168 0.53293 0.80488 0.0
H222 H 0.23877 0.51144 0.73991 0.0
H223 H 0.29848 0.59657 0.65349 0.0
H224 H 0.36553 0.50407 0.48116 0.0
H225 H 0.34674 0.53152 0.54472 0.0
C226 C 0.67218 0.02138 0.03171 0.0
C227 C 0.69479 0.98876 0.0538 0.0
C228 C 0.68747 0.03445 0.99414 0.0
C229 C 0.7485 0.99138 0.91091 0.0
H230 H 0.73616 0.10128 0.86518 0.0
C231 C 0.79712 0.03945 0.7471 0.0
C232 C 0.77543 0.07627 0.73061 0.0
C233 C 0.78699 0.02573 0.78633 0.0
C234 C 0.73917 0.07043 0.8774 0.0
H235 H 0.75171 0.94555 0.0556 0.0
H236 H 0.77843 0.96816 0.98915 0.0
H237 H 0.7246 0.08695 0.93666 0.0
H238 H 0.72395 0.12548 0.73969 0.0
H239 H 0.70464 0.10042 0.8073 0.0
H240 H 0.76174 0.97487 0.85158 0.0
C241 C 0.74909 0.98375 0.00114 0.0
C242 C 0.73309 0.06231 0.91831 0.0
C243 C 0.73403 0.97118 0.03917 0.0
C244 C 0.741 0.09696 0.75201 0.0
C245 C 0.73043 0.08293 0.79084 0.0
C246 C 0.75424 0.99953 0.86985 0.0
C247 C 0.7253 0.01453 0.97789 0.0
C248 C 0.73723 0.02279 0.93536 0.0
C249 C 0.75475 0.04853 0.80916 0.0
C250 C 0.74898 0.03921 0.85264 0.0
H251 H 0.64172 0.03511 0.04248 0.0
H252 H 0.6685 0.05811 0.97668 0.0
H253 H 0.75122 0.96065 0.92344 0.0
H254 H 0.82422 0.02341 0.7312 0.0
H255 H 0.8063 0.99911 0.79956 0.0
C256 C 0.94743 0.16862 0.5351 0.0
C257 C 0.92236 0.1887 0.56553 0.0
C258 C 0.97941 0.18353 0.5155 0.0
C259 C 0.01981 0.27369 0.49606 0.0
H260 H 0.12338 0.19859 0.49286 0.0
C261 C 0.19515 0.27849 0.48387 0.0
C262 C 0.19711 0.3069 0.45101 0.0
C263 C 0.16131 0.26295 0.49366 0.0
C264 C 0.09464 0.21986 0.49357 0.0
H265 H 0.90968 0.2411 0.59784 0.0
H266 H 0.96502 0.26723 0.5634 0.0
H267 H 0.06309 0.17457 0.51564 0.0
H268 H 0.16508 0.34159 0.40289 0.0
H269 H 0.10611 0.31441 0.41996 0.0
H270 H 0.05136 0.31914 0.47498 0.0
C271 C 0.96015 0.24 0.55472 0.0
C272 C 0.06014 0.20607 0.50614 0.0
C273 C 0.92857 0.22491 0.57458 0.0
C274 C 0.16461 0.3194 0.42814 0.0
C275 C 0.13072 0.30412 0.43809 0.0
C276 C 0.05425 0.28742 0.48318 0.0
C277 C 0.98643 0.21901 0.52563 0.0
C278 C 0.02245 0.23296 0.50812 0.0
C279 C 0.12866 0.27582 0.471 0.0
C280 C 0.09206 0.26074 0.48238 0.0
H281 H 0.9434 0.14057 0.52761 0.0
H282 H -0.00092 0.16695 0.49295 0.0
H283 H 0.99111 0.29503 0.49713 0.0
H284 H 0.21984 0.26814 0.50187 0.0
H285 H 0.16037 0.24145 0.51944 0.0
C286 C 0.09369 0.7508 0.77521 0.0
C287 C 0.07486 0.72987 0.80657 0.0
C288 C 0.07463 0.78934 0.76063 0.0
C289 C 0.97828 0.86762 0.76749 0.0
H290 H 0.04995 0.93881 0.7403 0.0
C291 C 0.92023 0.03891 0.7393 0.0
C292 C 0.93363 0.05379 0.70122 0.0
C293 C 0.93905 0.00073 0.75542 0.0
C294 C 0.02961 0.91927 0.74791 0.0
H295 H 0.02096 0.73187 0.84649 0.0
H296 H 0.98782 0.79959 0.82193 0.0
H297 H 0.07709 0.86801 0.75864 0.0
H298 H 0.97842 0.04196 0.65127 0.0
H299 H 0.01259 0.97625 0.68027 0.0
H300 H 0.93077 0.91964 0.75754 0.0
C301 C 0.01683 0.78609 0.80758 0.0
C302 C 0.04512 0.87851 0.75794 0.0
C303 C 0.03565 0.74708 0.82155 0.0
C304 C 0.96801 0.03139 0.68097 0.0
C305 C 0.98735 0.99372 0.69745 0.0
C306 C 0.96275 0.90858 0.75804 0.0
C307 C 0.03676 0.80836 0.77798 0.0
C308 C 0.01976 0.85192 0.76734 0.0
C309 C 0.97204 0.97733 0.73406 0.0
C310 C 0.98831 0.93471 0.74777 0.0
H311 H 0.12413 0.73821 0.76349 0.0
H312 H 0.09046 0.80485 0.73692 0.0
H313 H 0.95776 0.84824 0.77413 0.0
H314 H 0.89318 0.05519 0.75506 0.0
H315 H 0.92681 0.98881 0.78379 0.0
C316 C 0.26317 0.8157 0.89237 0.0
C317 C 0.2574 0.78259 0.91889 0.0
C318 C 0.28538 0.84119 0.90192 0.0
C319 C 0.31541 0.87543 0.98699 0.0
H320 H 0.41255 0.88796 0.92233 0.0
C321 C 0.44925 0.89554 0.05316 0.0
C322 C 0.47408 0.91919 0.03248 0.0
C323 C 0.41709 0.8899 0.03617 0.0
C324 C 0.38498 0.88572 0.94026 0.0
H325 H 0.27233 0.74947 0.97536 0.0
H326 H 0.30945 0.79454 0.99234 0.0
H327 H 0.36644 0.85656 0.89677 0.0
H328 H 0.48408 0.95678 0.97845 0.0
H329 H 0.42737 0.94665 0.94821 0.0
H330 H 0.33426 0.90317 0.03102 0.0
C331 C 0.2964 0.801 0.96445 0.0
C332 C 0.35872 0.86766 0.92565 0.0
C333 C 0.27493 0.77529 0.95472 0.0
C334 C 0.46525 0.93843 0.99494 0.0
C335 C 0.43305 0.93246 0.97763 0.0
C336 C 0.34136 0.89372 0.00142 0.0
C337 C 0.30157 0.83431 0.93836 0.0
C338 C 0.32465 0.86086 0.94965 0.0
C339 C 0.40894 0.90771 -0.00202 0.0
C340 C 0.37734 0.89736 0.97897 0.0
H341 H 0.24991 0.82242 0.86463 0.0
H342 H 0.28921 0.86666 0.88128 0.0
H343 H 0.28897 0.87099 0.00578 0.0
H344 H 0.45526 0.88066 0.0823 0.0
H345 H 0.39957 0.87015 0.05243 0.0
C346 C 0.40385 0.28295 0.32581 0.0
C347 C 0.41931 0.3173 0.32012 0.0
C348 C 0.4243 0.24833 0.30867 0.0
C349 C 0.49577 0.20716 0.22902 0.0
H350 H 0.5135 0.11031 0.30151 0.0
C351 C 0.54474 0.04717 0.17825 0.0
C352 C 0.57651 0.02094 0.19663 0.0
C353 C 0.52683 0.08434 0.19224 0.0
C354 C 0.50894 0.1371 0.28095 0.0
H355 H 0.4677 0.34261 0.2904 0.0
H356 H 0.50337 0.28158 0.25949 0.0
H357 H 0.4806 0.17442 0.32674 0.0
H358 H 0.61388 0.01279 0.24451 0.0
H359 H 0.58192 0.07722 0.26946 0.0
H360 H 0.5235 0.16948 0.18307 0.0
C361 C 0.47542 0.28184 0.27772 0.0
C362 C 0.49 0.17371 0.29534 0.0
C363 C 0.45507 0.31664 0.2954 0.0
C364 C 0.5894 0.03227 0.22977 0.0
C365 C 0.57113 0.06914 0.24407 0.0
C366 C 0.51425 0.17032 0.21448 0.0
C367 C 0.46055 0.24715 0.28501 0.0
C368 C 0.48299 0.20904 0.26951 0.0
C369 C 0.53995 0.09571 0.22522 0.0
C370 C 0.52087 0.13493 0.24035 0.0
H371 H 0.37628 0.2823 0.34444 0.0
H372 H 0.41191 0.22219 0.31427 0.0
H373 H 0.49052 0.23398 0.20853 0.0
H374 H 0.53432 0.03943 0.15248 0.0
H375 H 0.50256 0.1041 0.17744 0.0
C376 C 0.71664 0.17848 0.57334 0.0
C377 C 0.73711 0.19918 0.59304 0.0
C378 C 0.67871 0.19686 0.5618 0.0
C379 C 0.6125 0.29458 0.53726 0.0
H380 H 0.52795 0.23764 0.55893 0.0
C381 C 0.45588 0.3721 0.49598 0.0
C382 C 0.43572 0.34968 0.47826 0.0
C383 C 0.48931 0.35326 0.51568 0.0
C384 C 0.55127 0.25384 0.55229 0.0
H385 H 0.73395 0.25576 0.61538 0.0
H386 H 0.66791 0.28815 0.59443 0.0
H387 H 0.59401 0.20599 0.58007 0.0
H388 H 0.43335 0.29 0.46851 0.0
H389 H 0.49273 0.25673 0.50197 0.0
H390 H 0.57077 0.34179 0.50828 0.0
C391 C 0.68128 0.25758 0.58816 0.0
C392 C 0.5891 0.23572 0.56448 0.0
C393 C 0.71907 0.23902 0.60016 0.0
C394 C 0.44813 0.30783 0.4825 0.0
C395 C 0.48224 0.28888 0.5016 0.0
C396 C 0.57492 0.3125 0.52469 0.0
C397 C 0.66051 0.23652 0.56925 0.0
C398 C 0.62011 0.25591 0.55704 0.0
C399 C 0.5041 0.31153 0.5172 0.0
C400 C 0.54369 0.29247 0.53205 0.0
H401 H 0.72955 0.14769 0.56751 0.0
H402 H 0.66366 0.18006 0.54682 0.0
H403 H 0.63595 0.31064 0.53058 0.0
H404 H 0.44672 0.40449 0.49313 0.0
H405 H 0.50443 0.37167 0.52841 0.0
C406 C 0.03251 0.4735 0.83018 0.0
C407 C 0.01987 0.49789 0.86141 0.0
C408 C 0.01109 0.44612 0.82405 0.0
C409 C 0.91183 0.4239 0.84441 0.0
H410 H 0.97004 0.3206 0.81143 0.0
C411 C 0.84235 0.32315 0.76653 0.0
C412 C 0.85675 0.28142 0.77261 0.0
C413 C 0.85872 0.3487 0.78423 0.0
C414 C 0.95318 0.34902 0.82122 0.0
H415 H 0.97465 0.51271 0.91066 0.0
H416 H 0.93747 0.46429 0.90028 0.0
H417 H 0.00639 0.36603 0.82927 0.0
H418 H 0.89829 0.23396 0.80401 0.0
H419 H 0.92562 0.27836 0.83586 0.0
H420 H 0.85853 0.40667 0.8364 0.0
C421 C 0.96384 0.46668 0.88036 0.0
C422 C 0.97412 0.37533 0.83091 0.0
C423 C 0.98535 0.49411 0.88653 0.0
C424 C 0.88615 0.26587 0.79879 0.0
C425 C 0.9023 0.29138 0.81666 0.0
C426 C 0.8908 0.39749 0.83474 0.0
C427 C 0.97652 0.44235 0.84905 0.0
C428 C 0.95378 0.41335 0.84193 0.0
C429 C 0.88974 0.33309 0.80857 0.0
C430 C 0.9113 0.35994 0.82249 0.0
H431 H 0.05922 0.47531 0.81057 0.0
H432 H 0.02139 0.42824 0.79932 0.0
H433 H 0.89528 0.45306 0.85261 0.0
H434 H 0.81927 0.33615 0.74708 0.0
H435 H 0.84839 0.38066 0.77723 0.0
C436 C 0.02311 0.67513 0.9945 0.0
C437 C 0.04403 0.69716 0.96595 0.0
C438 C 0.98472 0.69267 0.01072 0.0
C439 C 0.89619 0.76373 0.98257 0.0
H440 H 0.85956 0.75925 0.09453 0.0
C441 C 0.73663 0.84256 0.04415 0.0
C442 C 0.7213 0.82794 0.08147 0.0
C443 C 0.7748 0.82405 0.02784 0.0
C444 C 0.86895 0.75998 0.06308 0.0
H445 H 0.04199 0.75488 0.93259 0.0
H446 H 0.97412 0.78551 0.96054 0.0
H447 H 0.93016 0.73499 0.07329 0.0
H448 H 0.73167 0.78089 0.12947 0.0
H449 H 0.79676 0.74655 0.09973 0.0
H450 H 0.83504 0.78722 0.97201 0.0
C451 C 0.98781 0.75488 0.9707 0.0
C452 C 0.90956 0.74655 0.05104 0.0
C453 C 0.0267 0.73758 0.95516 0.0
C454 C 0.74286 0.79244 0.10046 0.0
C455 C 0.78052 0.77335 0.08373 0.0
C456 C 0.85539 0.77649 0.99455 0.0
C457 C 0.96622 0.73222 -0.00211 0.0
C458 C 0.92354 0.74845 0.01073 0.0
C459 C 0.79798 0.79017 0.04832 0.0
C460 C 0.84115 0.77481 0.03502 0.0
H461 H 0.03576 0.64376 0.00285 0.0
H462 H 0.96859 0.67457 0.03152 0.0
H463 H 0.90627 0.76486 0.95122 0.0
H464 H 0.7209 0.8705 0.02946 0.0
H465 H 0.7871 0.83817 0.0007 0.0
C466 C 0.56102 0.82363 0.20942 0.0
C467 C 0.59472 0.83341 0.22038 0.0
C468 C 0.5504 0.78847 0.22575 0.0
C469 C 0.56063 0.70803 0.30607 0.0
H470 H 0.54482 0.64624 0.22516 0.0
C471 C 0.52327 0.55249 0.34251 0.0
C472 C 0.49233 0.54714 0.32257 0.0
C473 C 0.5401 0.5854 0.3312 0.0
C474 C 0.5489 0.66319 0.24815 0.0
H475 H 0.64201 0.81546 0.25924 0.0
H476 H 0.62294 0.75366 0.28827 0.0
H477 H 0.56377 0.70943 0.20589 0.0
H478 H 0.45463 0.57237 0.27542 0.0
H479 H 0.48387 0.62932 0.25574 0.0
H480 H 0.54458 0.66212 0.34842 0.0
C481 C 0.60507 0.77335 0.26678 0.0
C482 C 0.55976 0.69934 0.23711 0.0
C483 C 0.61588 0.80869 0.25024 0.0
C484 C 0.47902 0.57503 0.29081 0.0
C485 C 0.49577 0.60778 0.27957 0.0
C486 C 0.54943 0.67181 0.31721 0.0
C487 C 0.57313 0.76232 0.2535 0.0
C488 C 0.56483 0.72254 0.26594 0.0
C489 C 0.52633 0.61351 0.29973 0.0
C490 C 0.54258 0.64949 0.28831 0.0
H491 H 0.5438 0.84225 0.18682 0.0
H492 H 0.5251 0.78104 0.21567 0.0
H493 H 0.56448 0.72541 0.32881 0.0
H494 H 0.53437 0.53132 0.36691 0.0
H495 H 0.56387 0.58881 0.34704 0.0
loop_
_geom_bond_atom_site_label_1
_geom_bond_atom_site_label_2
_geom_bond_distance
_geom_bond_site_symmetry_2
_ccdc_geom_bond_type
C0 O16 1.251 . S
C0 O18 1.254 . S
N1 C2 1.333 . S
N1 C6 1.307 . S
N1 Zn7 2.020 . S
C2 N1 1.333 . S
C2 C3 1.379 . S
C2 H20 0.952 . S
C3 C2 1.379 . S
C3 C4 1.390 . S
C3 H30 0.949 . S
C4 C3 1.390 . S
C4 C5 1.357 . S
C5 C4 1.357 . S
C5 C6 1.370 . S
C5 H31 0.950 . S
C6 N1 1.307 . S
C6 C5 1.370 . S
C6 H24 0.948 . S
Zn7 N1 2.020 . S
Zn7 O16 2.039 . S
Zn7 O22 2.034 . S
Zn7 O26 2.025 . S
Zn7 O28 2.024 . S
C8 O27 1.246 . S
C8 O28 1.249 . S
N9 C10 1.307 . S
N9 C11 1.333 . S
N9 Zn15 2.020 . S
C10 N9 1.307 . S
C10 C14 1.370 . S
C10 H21 0.948 . S
C11 N9 1.333 . S
C11 C12 1.379 . S
C11 H19 0.952 . S
C12 C11 1.379 . S
C12 C13 1.390 . S
C12 H32 0.949 . S
C13 C12 1.390 . S
C13 C14 1.357 . S
C14 C10 1.370 . S
C14 C13 1.357 . S
C14 H33 0.950 . S
Zn15 N9 2.020 . S
Zn15 O18 2.025 . S
Zn15 O23 2.024 . S
Zn15 O25 2.039 . S
Zn15 O27 2.034 . S
O16 C0 1.251 . S
O16 Zn7 2.039 . S
C17 O22 1.246 . S
C17 O23 1.249 . S
O18 C0 1.254 . S
O18 Zn15 2.025 . S
H19 C11 0.952 . S
H20 C2 0.952 . S
H21 C10 0.948 . S
O22 Zn7 2.034 . S
O22 C17 1.246 . S
O23 Zn15 2.024 . S
O23 C17 1.249 . S
H24 C6 0.948 . S
O25 Zn15 2.039 . S
O25 C29 1.251 . S
O26 Zn7 2.025 . S
O26 C29 1.254 . S
O27 C8 1.246 . S
O27 Zn15 2.034 . S
O28 Zn7 2.024 . S
O28 C8 1.249 . S
C29 O25 1.251 . S
C29 O26 1.254 . S
H30 C3 0.949 . S
H31 C5 0.950 . S
H32 C12 0.949 . S
H33 C14 0.950 . S
C34 O50 1.251 . S
C34 O52 1.254 . S
N35 C36 1.333 . S
N35 C40 1.307 . S
N35 Zn41 2.020 . S
C36 N35 1.333 . S
C36 C37 1.379 . S
C36 H54 0.952 . S
C37 C36 1.379 . S
C37 C38 1.390 . S
C37 H64 0.949 . S
C38 C37 1.390 . S
C38 C39 1.357 . S
C39 C38 1.357 . S
C39 C40 1.370 . S
C39 H65 0.950 1_545 S
C40 N35 1.307 . S
C40 C39 1.370 . S
C40 H58 0.948 . S
Zn41 N35 2.020 . S
Zn41 O50 2.039 . S
Zn41 O56 2.034 . S
Zn41 O60 2.025 . S
Zn41 O62 2.024 . S
C42 O61 1.246 . S
C42 O62 1.249 . S
N43 C44 1.307 . S
N43 C45 1.333 . S
N43 Zn49 2.020 . S
C44 N43 1.307 . S
C44 C48 1.370 . S
C44 H55 0.948 . S
C45 N43 1.333 . S
C45 C46 1.379 . S
C45 H53 0.952 . S
C46 C45 1.379 . S
C46 C47 1.390 . S
C46 H66 0.949 . S
C47 C46 1.390 . S
C47 C48 1.357 . S
C48 C44 1.370 . S
C48 C47 1.357 . S
C48 H67 0.950 . S
Zn49 N43 2.020 . S
Zn49 O52 2.025 . S
Zn49 O57 2.024 . S
Zn49 O59 2.039 . S
Zn49 O61 2.034 . S
O50 C34 1.251 . S
O50 Zn41 2.039 . S
C51 O56 1.246 . S
C51 O57 1.249 . S
O52 C34 1.254 . S
O52 Zn49 2.025 . S
H53 C45 0.952 . S
H54 C36 0.952 . S
H55 C44 0.948 . S
O56 Zn41 2.034 . S
O56 C51 1.246 . S
O57 Zn49 2.024 . S
O57 C51 1.249 . S
H58 C40 0.948 . S
O59 Zn49 2.039 . S
O59 C63 1.251 . S
O60 Zn41 2.025 . S
O60 C63 1.254 . S
O61 C42 1.246 . S
O61 Zn49 2.034 . S
O62 Zn41 2.024 . S
O62 C42 1.249 . S
C63 O59 1.251 . S
C63 O60 1.254 . S
H64 C37 0.949 . S
H65 C39 0.950 1_565 S
H66 C46 0.949 . S
H67 C48 0.950 . S
C68 O84 1.251 . S
C68 O86 1.254 . S
N69 C70 1.333 . S
N69 C74 1.307 . S
N69 Zn75 2.020 . S
C70 N69 1.333 . S
C70 C71 1.379 . S
C70 H88 0.952 . S
C71 C70 1.379 . S
C71 C72 1.390 . S
C71 H98 0.949 . S
C72 C71 1.390 . S
C72 C73 1.357 . S
C73 C72 1.357 . S
C73 C74 1.370 . S
C73 H99 0.950 . S
C74 N69 1.307 . S
C74 C73 1.370 . S
C74 H92 0.948 . S
Zn75 N69 2.020 . S
Zn75 O84 2.039 . S
Zn75 O90 2.034 . S
Zn75 O94 2.025 . S
Zn75 O96 2.024 . S
C76 O95 1.246 . S
C76 O96 1.249 . S
N77 C78 1.307 . S
N77 C79 1.333 . S
N77 Zn83 2.020 . S
C78 N77 1.307 . S
C78 C82 1.370 . S
C78 H89 0.948 . S
C79 N77 1.333 . S
C79 C80 1.379 . S
C79 H87 0.952 . S
C80 C79 1.379 . S
C80 C81 1.390 . S
C80 H100 0.949 . S
C81 C80 1.390 . S
C81 C82 1.357 . S
C82 C78 1.370 . S
C82 C81 1.357 . S
C82 H101 0.950 . S
Zn83 N77 2.020 . S
Zn83 O86 2.025 . S
Zn83 O91 2.024 . S
Zn83 O93 2.039 . S
Zn83 O95 2.034 . S
O84 C68 1.251 . S
O84 Zn75 2.039 . S
C85 O90 1.246 . S
C85 O91 1.249 . S
O86 C68 1.254 . S
O86 Zn83 2.025 . S
H87 C79 0.952 . S
H88 C70 0.952 . S
H89 C78 0.948 . S
O90 Zn75 2.034 . S
O90 C85 1.246 . S
O91 Zn83 2.024 . S
O91 C85 1.249 . S
H92 C74 0.948 . S
O93 Zn83 2.039 . S
O93 C97 1.251 . S
O94 Zn75 2.025 . S
O94 C97 1.254 . S
O95 C76 1.246 . S
O95 Zn83 2.034 . S
O96 Zn75 2.024 . S
O96 C76 1.249 . S
C97 O93 1.251 . S
C97 O94 1.254 . S
H98 C71 0.949 . S
H99 C73 0.950 . S
H100 C80 0.949 . S
H101 C82 0.950 . S
C102 O118 1.251 . S
C102 O120 1.254 . S
N103 C104 1.333 . S
N103 C108 1.307 . S
N103 Zn109 2.020 . S
C104 N103 1.333 . S
C104 C105 1.379 . S
C104 H122 0.952 . S
C105 C104 1.379 . S
C105 C106 1.390 . S
C105 H132 0.949 1_565 S
C106 C105 1.390 . S
C106 C107 1.357 . S
C107 C106 1.357 . S
C107 C108 1.370 . S
C107 H133 0.950 . S
C108 N103 1.307 . S
C108 C107 1.370 . S
C108 H126 0.948 . S
Zn109 N103 2.020 . S
Zn109 O118 2.039 . S
Zn109 O124 2.034 . S
Zn109 O128 2.025 . S
Zn109 O130 2.024 . S
C110 O129 1.246 . S
C110 O130 1.249 . S
N111 C112 1.307 . S
N111 C113 1.333 . S
N111 Zn117 2.020 . S
C112 N111 1.307 . S
C112 C116 1.370 . S
C112 H123 0.948 . S
C113 N111 1.333 . S
C113 C114 1.379 . S
C113 H121 0.952 . S
C114 C113 1.379 . S
C114 C115 1.390 . S
C114 H134 0.949 . S
C115 C114 1.390 . S
C115 C116 1.357 . S
C116 C112 1.370 . S
C116 C115 1.357 . S
C116 H135 0.950 . S
Zn117 N111 2.020 . S
Zn117 O120 2.025 . S
Zn117 O125 2.024 . S
Zn117 O127 2.039 . S
Zn117 O129 2.034 . S
O118 C102 1.251 . S
O118 Zn109 2.039 . S
C119 O124 1.246 . S
C119 O125 1.249 . S
O120 C102 1.254 . S
O120 Zn117 2.025 . S
H121 C113 0.952 . S
H122 C104 0.952 . S
H123 C112 0.948 . S
O124 Zn109 2.034 . S
O124 C119 1.246 . S
O125 Zn117 2.024 . S
O125 C119 1.249 . S
H126 C108 0.948 . S
O127 Zn117 2.039 . S
O127 C131 1.251 . S
O128 Zn109 2.025 . S
O128 C131 1.254 . S
O129 C110 1.246 . S
O129 Zn117 2.034 . S
O130 Zn109 2.024 . S
O130 C110 1.249 . S
C131 O127 1.251 . S
C131 O128 1.254 . S
H132 C105 0.949 1_545 S
H133 C107 0.950 . S
H134 C114 0.949 . S
H135 C116 0.950 . S
C136 C137 1.347 1_554 S
C136 C138 1.327 . S
C136 H161 0.950 1_554 S
C137 C136 1.347 1_556 S
C137 C153 1.326 1_556 S
C138 C136 1.327 . S
C138 C157 1.429 . S
C138 H162 0.950 . S
C139 C156 1.574 . S
C139 C158 1.368 . S
C139 H163 0.949 . S
H140 C144 0.949 . S
C141 C142 1.349 . S
C141 C143 1.327 . S
C141 H164 0.950 . S
C142 C141 1.349 . S
C142 C154 1.349 . S
C143 C141 1.327 . S
C143 C159 1.429 . S
C143 H165 0.950 . S
C144 H140 0.949 . S
C144 C152 1.574 . S
C144 C160 1.368 . S
H145 C153 0.950 . S
H146 C151 0.950 . S
H147 C152 0.949 . S
H148 C154 0.950 . S
H149 C155 0.950 . S
H150 C156 0.949 . S
C151 H146 0.950 . S
C151 C153 1.327 . S
C151 C157 1.429 . S
C152 C144 1.574 . S
C152 H147 0.949 . S
C152 C158 1.368 . S
C153 C137 1.326 1_554 S
C153 H145 0.950 . S
C153 C151 1.327 . S
C154 C142 1.349 . S
C154 H148 0.950 . S
C154 C155 1.327 . S
C155 H149 0.950 . S
C155 C154 1.327 . S
C155 C159 1.429 . S
C156 C139 1.574 . S
C156 H150 0.949 . S
C156 C160 1.368 . S
C157 C138 1.429 . S
C157 C151 1.429 . S
C157 C158 1.523 . S
C158 C139 1.368 . S
C158 C152 1.368 . S
C158 C157 1.523 . S
C159 C143 1.429 . S
C159 C155 1.429 . S
C159 C160 1.523 . S
C160 C144 1.368 . S
C160 C156 1.368 . S
C160 C159 1.523 . S
H161 C136 0.950 1_556 S
H162 C138 0.950 . S
H163 C139 0.949 . S
H164 C141 0.950 . S
H165 C143 0.950 . S
C166 C167 1.349 . S
C166 C168 1.327 1_565 S
C166 H191 0.950 1_565 S
C167 C166 1.349 . S
C167 C183 1.349 . S
C168 C166 1.327 1_545 S
C168 C187 1.429 1_545 S
C168 H192 0.949 . S
C169 C186 1.574 . S
C169 C188 1.368 . S
C169 H193 0.949 . S
H170 C174 0.949 . S
C171 C172 1.349 1_565 S
C171 C173 1.327 . S
C171 H194 0.950 . S
C172 C171 1.349 1_545 S
C172 C184 1.349 . S
C173 C171 1.327 . S
C173 C189 1.429 . S
C173 H195 0.950 . S
C174 H170 0.949 . S
C174 C182 1.574 . S
C174 C190 1.368 1_545 S
H175 C183 0.950 . S
H176 C181 0.950 . S
H177 C182 0.949 . S
H178 C184 0.950 . S
H179 C185 0.950 . S
H180 C186 0.949 . S
C181 H176 0.950 . S
C181 C183 1.327 . S
C181 C187 1.429 . S
C182 C174 1.574 . S
C182 H177 0.949 . S
C182 C188 1.368 1_545 S
C183 C167 1.349 . S
C183 H175 0.950 . S
C183 C181 1.327 . S
C184 C172 1.349 . S
C184 H178 0.950 . S
C184 C185 1.327 . S
C185 H179 0.950 . S
C185 C184 1.327 . S
C185 C189 1.428 1_545 S
C186 C169 1.574 . S
C186 H180 0.949 . S
C186 C190 1.368 . S
C187 C168 1.429 1_565 S
C187 C181 1.429 . S
C187 C188 1.523 . S
C188 C169 1.368 . S
C188 C182 1.368 1_565 S
C188 C187 1.523 . S
C189 C173 1.429 . S
C189 C185 1.428 1_565 S
C189 C190 1.523 . S
C190 C174 1.368 1_565 S
C190 C186 1.368 . S
C190 C189 1.523 . S
H191 C166 0.950 1_545 S
H192 C168 0.949 . S
H193 C169 0.949 . S
H194 C171 0.950 . S
H195 C173 0.950 . S
C196 C197 1.349 . S
C196 C198 1.327 . S
C196 H221 0.950 . S
C197 C196 1.349 . S
C197 C213 1.349 . S
C198 C196 1.327 . S
C198 C217 1.429 . S
C198 H222 0.950 . S
C199 C216 1.574 . S
C199 C218 1.368 . S
C199 H223 0.949 . S
H200 C204 0.949 . S
C201 C202 1.349 . S
C201 C203 1.327 . S
C201 H224 0.950 . S
C202 C201 1.349 . S
C202 C214 1.349 . S
C203 C201 1.327 . S
C203 C219 1.429 . S
C203 H225 0.950 . S
C204 H200 0.949 . S
C204 C212 1.574 . S
C204 C220 1.368 . S
H205 C213 0.950 . S
H206 C211 0.950 . S
H207 C212 0.949 . S
H208 C214 0.950 . S
H209 C215 0.950 . S
H210 C216 0.949 . S
C211 H206 0.950 . S
C211 C213 1.327 . S
C211 C217 1.429 . S
C212 C204 1.574 . S
C212 H207 0.949 . S
C212 C218 1.368 . S
C213 C197 1.349 . S
C213 H205 0.950 . S
C213 C211 1.327 . S
C214 C202 1.349 . S
C214 H208 0.950 . S
C214 C215 1.327 . S
C215 H209 0.950 . S
C215 C214 1.327 . S
C215 C219 1.429 . S
C216 C199 1.574 . S
C216 H210 0.949 . S
C216 C220 1.368 . S
C217 C198 1.429 . S
C217 C211 1.429 . S
C217 C218 1.523 . S
C218 C199 1.368 . S
C218 C212 1.368 . S
C218 C217 1.523 . S
C219 C203 1.429 . S
C219 C215 1.429 . S
C219 C220 1.523 . S
C220 C204 1.368 . S
C220 C216 1.368 . S
C220 C219 1.523 . S
H221 C196 0.950 . S
H222 C198 0.950 . S
H223 C199 0.949 . S
H224 C201 0.950 . S
H225 C203 0.950 . S
C226 C227 1.349 1_545 S
C226 C228 1.337 . S
C226 H251 0.950 . S
C227 C226 1.349 1_565 S
C227 C243 1.349 . S
C228 C226 1.337 . S
C228 C247 1.420 1_554 S
C228 H252 0.948 1_554 S
C229 C246 1.574 1_565 S
C229 C248 1.368 1_565 S
C229 H253 0.949 . S
H230 C234 0.949 . S
C231 C232 1.349 . S
C231 C233 1.327 . S
C231 H254 0.950 . S
C232 C231 1.349 . S
C232 C244 1.349 . S
C233 C231 1.327 . S
C233 C249 1.429 . S
C233 H255 0.950 . S
C234 H230 0.949 . S
C234 C242 1.574 . S
C234 C250 1.368 . S
H235 C243 0.950 . S
H236 C241 0.950 . S
H237 C242 0.949 . S
H238 C244 0.950 . S
H239 C245 0.950 . S
H240 C246 0.949 1_565 S
C241 H236 0.950 . S
C241 C243 1.327 1_556 S
C241 C247 1.429 1_565 S
C242 C234 1.574 . S
C242 H237 0.949 . S
C242 C248 1.368 . S
C243 C227 1.349 . S
C243 H235 0.950 . S
C243 C241 1.327 1_554 S
C244 C232 1.349 . S
C244 H238 0.950 . S
C244 C245 1.327 . S
C245 H239 0.950 . S
C245 C244 1.327 . S
C245 C249 1.429 . S
C246 C229 1.574 1_545 S
C246 H240 0.949 1_545 S
C246 C250 1.368 . S
C247 C228 1.420 1_556 S
C247 C241 1.429 1_545 S
C247 C248 1.523 . S
C248 C229 1.368 1_545 S
C248 C242 1.368 . S
C248 C247 1.523 . S
C249 C233 1.429 . S
C249 C245 1.429 . S
C249 C250 1.523 . S
C250 C234 1.368 . S
C250 C246 1.368 . S
C250 C249 1.523 . S
H251 C226 0.950 . S
H252 C228 0.948 1_556 S
H253 C229 0.949 . S
H254 C231 0.950 . S
H255 C233 0.950 . S
C256 C257 1.349 . S
C256 C258 1.327 . S
C256 H281 0.950 . S
C257 C256 1.349 . S
C257 C273 1.349 . S
C258 C256 1.327 . S
C258 C277 1.429 1_655 S
C258 H282 0.950 . S
C259 C276 1.574 . S
C259 C278 1.368 . S
C259 H283 0.949 . S
H260 C264 0.949 . S
C261 C262 1.349 . S
C261 C263 1.327 . S
C261 H284 0.950 . S
C262 C261 1.349 . S
C262 C274 1.349 . S
C263 C261 1.327 . S
C263 C279 1.429 . S
C263 H285 0.950 . S
C264 H260 0.949 . S
C264 C272 1.574 . S
C264 C280 1.368 . S
H265 C273 0.950 . S
H266 C271 0.950 . S
H267 C272 0.949 . S
H268 C274 0.950 . S
H269 C275 0.950 . S
H270 C276 0.949 . S
C271 H266 0.950 . S
C271 C273 1.327 1_455 S
C271 C277 1.429 . S
C272 C264 1.574 . S
C272 H267 0.949 . S
C272 C278 1.368 . S
C273 C257 1.349 . S
C273 H265 0.950 . S
C273 C271 1.327 1_655 S
C274 C262 1.349 . S
C274 H268 0.950 . S
C274 C275 1.327 . S
C275 H269 0.950 . S
C275 C274 1.327 . S
C275 C279 1.429 . S
C276 C259 1.574 . S
C276 H270 0.949 . S
C276 C280 1.368 . S
C277 C258 1.429 1_455 S
C277 C271 1.429 . S
C277 C278 1.523 . S
C278 C259 1.368 . S
C278 C272 1.368 . S
C278 C277 1.523 . S
C279 C263 1.429 . S
C279 C275 1.429 . S
C279 C280 1.523 . S
C280 C264 1.368 . S
C280 C276 1.368 . S
C280 C279 1.523 . S
H281 C256 0.950 . S
H282 C258 0.950 . S
H283 C259 0.949 . S
H284 C261 0.950 . S
H285 C263 0.950 . S
C286 C287 1.349 . S
C286 C288 1.327 . S
C286 H311 0.950 . S
C287 C286 1.349 . S
C287 C303 1.349 . S
C288 C286 1.327 . S
C288 C307 1.429 . S
C288 H312 0.950 . S
C289 C306 1.574 . S
C289 C308 1.368 1_655 S
C289 H313 0.949 . S
H290 C294 0.949 . S
C291 C292 1.349 . S
C291 C293 1.327 1_545 S
C291 H314 0.950 . S
C292 C291 1.349 . S
C292 C304 1.349 . S
C293 C291 1.327 1_565 S
C293 C309 1.429 . S
C293 H315 0.950 . S
C294 H290 0.949 . S
C294 C302 1.574 . S
C294 C310 1.368 1_455 S
H295 C303 0.950 . S
H296 C301 0.961 . S
H297 C302 0.949 . S
H298 C304 0.950 . S
H299 C305 0.950 1_455 S
H300 C306 0.949 . S
C301 H296 0.961 . S
C301 C303 1.327 . S
C301 C307 1.429 . S
C302 C294 1.574 . S
C302 H297 0.949 . S
C302 C308 1.368 . S
C303 C287 1.349 . S
C303 H295 0.950 . S
C303 C301 1.327 . S
C304 C292 1.349 . S
C304 H298 0.950 . S
C304 C305 1.327 . S
C305 H299 0.950 1_655 S
C305 C304 1.327 . S
C305 C309 1.429 1_545 S
C306 C289 1.574 . S
C306 H300 0.949 . S
C306 C310 1.368 . S
C307 C288 1.429 . S
C307 C301 1.429 . S
C307 C308 1.523 . S
C308 C289 1.368 1_455 S
C308 C302 1.368 . S
C308 C307 1.523 . S
C309 C293 1.429 . S
C309 C305 1.429 1_565 S
C309 C310 1.523 . S
C310 C294 1.368 1_655 S
C310 C306 1.368 . S
C310 C309 1.523 . S
H311 C286 0.950 . S
H312 C288 0.950 . S
H313 C289 0.949 . S
H314 C291 0.950 . S
H315 C293 0.950 . S
C316 C317 1.349 . S
C316 C318 1.327 . S
C316 H341 0.950 . S
C317 C316 1.349 . S
C317 C333 1.349 . S
C318 C316 1.327 . S
C318 C337 1.429 . S
C318 H342 0.950 . S
C319 C336 1.574 . S
C319 C338 1.368 . S
C319 H343 0.949 1_556 S
H320 C324 0.949 . S
C321 C322 1.349 1_554 S
C321 C323 1.327 . S
C321 H344 0.950 . S
C322 C321 1.349 1_556 S
C322 C334 1.349 . S
C323 C321 1.327 . S
C323 C339 1.429 1_554 S
C323 H345 0.950 . S
C324 H320 0.949 . S
C324 C332 1.574 . S
C324 C340 1.368 . S
H325 C333 0.950 . S
H326 C331 0.950 . S
H327 C332 0.949 . S
H328 C334 0.950 . S
H329 C335 0.950 . S
H330 C336 0.949 1_554 S
C331 H326 0.950 . S
C331 C333 1.327 . S
C331 C337 1.429 . S
C332 C324 1.574 . S
C332 H327 0.949 . S
C332 C338 1.368 . S
C333 C317 1.349 . S
C333 H325 0.950 . S
C333 C331 1.327 . S
C334 C322 1.349 . S
C334 H328 0.950 . S
C334 C335 1.327 . S
C335 H329 0.950 . S
C335 C334 1.327 . S
C335 C339 1.429 . S
C336 C319 1.574 . S
C336 H330 0.949 1_556 S
C336 C340 1.368 . S
C337 C318 1.429 . S
C337 C331 1.429 . S
C337 C338 1.523 . S
C338 C319 1.368 . S
C338 C332 1.368 . S
C338 C337 1.523 . S
C339 C323 1.429 1_556 S
C339 C335 1.429 . S
C339 C340 1.523 . S
C340 C324 1.368 . S
C340 C336 1.368 . S
C340 C339 1.523 . S
H341 C316 0.950 . S
H342 C318 0.950 . S
H343 C319 0.949 1_554 S
H344 C321 0.950 . S
H345 C323 0.950 . S
C346 C347 1.349 . S
C346 C348 1.327 . S
C346 H371 0.950 . S
C347 C346 1.349 . S
C347 C363 1.349 . S
C348 C346 1.327 . S
C348 C367 1.429 . S
C348 H372 0.950 . S
C349 C366 1.574 . S
C349 C368 1.368 . S
C349 H373 0.949 . S
H350 C354 0.949 . S
C351 C352 1.349 . S
C351 C353 1.327 . S
C351 H374 0.950 . S
C352 C351 1.349 . S
C352 C364 1.349 . S
C353 C351 1.327 . S
C353 C369 1.429 . S
C353 H375 0.950 . S
C354 H350 0.949 . S
C354 C362 1.574 . S
C354 C370 1.368 . S
H355 C363 0.950 . S
H356 C361 0.950 . S
H357 C362 0.949 . S
H358 C364 0.950 1_565 S
H359 C365 0.950 . S
H360 C366 0.949 . S
C361 H356 0.950 . S
C361 C363 1.327 . S
C361 C367 1.429 . S
C362 C354 1.574 . S
C362 H357 0.949 . S
C362 C368 1.368 . S
C363 C347 1.349 . S
C363 H355 0.950 . S
C363 C361 1.327 . S
C364 C352 1.349 . S
C364 H358 0.950 1_545 S
C364 C365 1.327 . S
C365 H359 0.950 . S
C365 C364 1.327 . S
C365 C369 1.429 . S
C366 C349 1.574 . S
C366 H360 0.949 . S
C366 C370 1.368 . S
C367 C348 1.429 . S
C367 C361 1.429 . S
C367 C368 1.523 . S
C368 C349 1.368 . S
C368 C362 1.368 . S
C368 C367 1.523 . S
C369 C353 1.429 . S
C369 C365 1.429 . S
C369 C370 1.523 . S
C370 C354 1.368 . S
C370 C366 1.368 . S
C370 C369 1.523 . S
H371 C346 0.950 . S
H372 C348 0.950 . S
H373 C349 0.949 . S
H374 C351 0.950 . S
H375 C353 0.950 . S
C376 C377 1.349 . S
C376 C378 1.327 . S
C376 H401 0.950 . S
C377 C376 1.349 . S
C377 C393 1.349 . S
C378 C376 1.327 . S
C378 C397 1.429 . S
C378 H402 0.950 . S
C379 C396 1.574 . S
C379 C398 1.368 . S
C379 H403 0.949 . S
H380 C384 0.949 . S
C381 C382 1.349 . S
C381 C383 1.327 . S
C381 H404 0.950 . S
C382 C381 1.349 . S
C382 C394 1.349 . S
C383 C381 1.327 . S
C383 C399 1.429 . S
C383 H405 0.950 . S
C384 H380 0.949 . S
C384 C392 1.574 . S
C384 C400 1.368 . S
H385 C393 0.950 . S
H386 C391 0.950 . S
H387 C392 0.949 . S
H388 C394 0.950 . S
H389 C395 0.950 . S
H390 C396 0.949 . S
C391 H386 0.950 . S
C391 C393 1.327 . S
C391 C397 1.429 . S
C392 C384 1.574 . S
C392 H387 0.949 . S
C392 C398 1.368 . S
C393 C377 1.349 . S
C393 H385 0.950 . S
C393 C391 1.327 . S
C394 C382 1.349 . S
C394 H388 0.950 . S
C394 C395 1.327 . S
C395 H389 0.950 . S
C395 C394 1.327 . S
C395 C399 1.429 . S
C396 C379 1.574 . S
C396 H390 0.949 . S
C396 C400 1.368 . S
C397 C378 1.429 . S
C397 C391 1.429 . S
C397 C398 1.523 . S
C398 C379 1.368 . S
C398 C392 1.368 . S
C398 C397 1.523 . S
C399 C383 1.429 . S
C399 C395 1.429 . S
C399 C400 1.523 . S
C400 C384 1.368 . S
C400 C396 1.368 . S
C400 C399 1.523 . S
H401 C376 0.950 . S
H402 C378 0.950 . S
H403 C379 0.949 . S
H404 C381 0.950 . S
H405 C383 0.950 . S
C406 C407 1.349 1_455 S
C406 C408 1.327 . S
C406 H431 0.950 . S
C407 C406 1.349 1_655 S
C407 C423 1.349 . S
C408 C406 1.327 . S
C408 C427 1.429 1_455 S
C408 H432 0.950 . S
C409 C426 1.574 . S
C409 C428 1.368 . S
C409 H433 0.949 . S
H410 C414 0.949 . S
C411 C412 1.349 . S
C411 C413 1.327 . S
C411 H434 0.950 . S
C412 C411 1.349 . S
C412 C424 1.349 . S
C413 C411 1.327 . S
C413 C429 1.429 . S
C413 H435 0.950 . S
C414 H410 0.949 . S
C414 C422 1.574 . S
C414 C430 1.368 . S
H415 C423 0.950 . S
H416 C421 0.950 . S
H417 C422 0.949 1_455 S
H418 C424 0.950 . S
H419 C425 0.950 . S
H420 C426 0.949 . S
C421 H416 0.950 . S
C421 C423 1.327 . S
C421 C427 1.429 . S
C422 C414 1.574 . S
C422 H417 0.949 1_655 S
C422 C428 1.368 . S
C423 C407 1.349 . S
C423 H415 0.950 . S
C423 C421 1.327 . S
C424 C412 1.349 . S
C424 H418 0.950 . S
C424 C425 1.327 . S
C425 H419 0.950 . S
C425 C424 1.327 . S
C425 C429 1.429 . S
C426 C409 1.574 . S
C426 H420 0.949 . S
C426 C430 1.368 . S
C427 C408 1.429 1_655 S
C427 C421 1.429 . S
C427 C428 1.523 . S
C428 C409 1.368 . S
C428 C422 1.368 . S
C428 C427 1.523 . S
C429 C413 1.429 . S
C429 C425 1.429 . S
C429 C430 1.523 . S
C430 C414 1.368 . S
C430 C426 1.368 . S
C430 C429 1.523 . S
H431 C406 0.950 . S
H432 C408 0.950 . S
H433 C409 0.949 . S
H434 C411 0.950 . S
H435 C413 0.950 . S
C436 C437 1.328 1_554 S
C436 C438 1.334 1_455 S
C436 H461 0.965 . S
C437 C436 1.328 1_556 S
C437 C453 1.349 . S
C438 C436 1.334 1_655 S
C438 C457 1.429 1_554 S
C438 H462 0.950 . S
C439 C456 1.574 . S
C439 C458 1.368 1_556 S
C439 H463 0.949 . S
H440 C444 0.949 . S
C441 C442 1.349 . S
C441 C443 1.327 . S
C441 H464 0.950 . S
C442 C441 1.349 . S
C442 C454 1.349 . S
C443 C441 1.327 . S
C443 C459 1.429 . S
C443 H465 0.950 1_554 S
C444 H440 0.949 . S
C444 C452 1.574 . S
C444 C460 1.368 . S
H445 C453 0.950 . S
H446 C451 0.950 . S
H447 C452 0.949 . S
H448 C454 0.950 . S
H449 C455 0.950 . S
H450 C456 0.949 . S
C451 H446 0.950 . S
C451 C453 1.327 1_655 S
C451 C457 1.429 . S
C452 C444 1.574 . S
C452 H447 0.949 . S
C452 C458 1.368 . S
C453 C437 1.349 . S
C453 H445 0.950 . S
C453 C451 1.327 1_455 S
C454 C442 1.349 . S
C454 H448 0.950 . S
C454 C455 1.327 . S
C455 H449 0.950 . S
C455 C454 1.327 . S
C455 C459 1.429 . S
C456 C439 1.574 . S
C456 H450 0.949 . S
C456 C460 1.368 1_556 S
C457 C438 1.429 1_556 S
C457 C451 1.429 . S
C457 C458 1.523 1_556 S
C458 C439 1.368 1_554 S
C458 C452 1.368 . S
C458 C457 1.523 1_554 S
C459 C443 1.429 . S
C459 C455 1.429 . S
C459 C460 1.523 . S
C460 C444 1.368 . S
C460 C456 1.368 1_554 S
C460 C459 1.523 . S
H461 C436 0.965 . S
H462 C438 0.950 . S
H463 C439 0.949 . S
H464 C441 0.950 . S
H465 C443 0.950 1_556 S
C466 C467 1.349 . S
C466 C468 1.327 . S
C466 H491 0.950 . S
C467 C466 1.349 . S
C467 C483 1.349 . S
C468 C466 1.327 . S
C468 C487 1.429 . S
C468 H492 0.950 . S
C469 C486 1.574 . S
C469 C488 1.368 . S
C469 H493 0.949 . S
H470 C474 0.949 . S
C471 C472 1.349 . S
C471 C473 1.327 . S
C471 H494 0.950 . S
C472 C471 1.349 . S
C472 C484 1.349 . S
C473 C471 1.327 . S
C473 C489 1.429 . S
C473 H495 0.950 . S
C474 H470 0.949 . S
C474 C482 1.574 . S
C474 C490 1.368 . S
H475 C483 0.950 . S
H476 C481 0.950 . S
H477 C482 0.949 . S
H478 C484 0.950 . S
H479 C485 0.950 . S
H480 C486 0.949 . S
C481 H476 0.950 . S
C481 C483 1.327 . S
C481 C487 1.429 . S
C482 C474 1.574 . S
C482 H477 0.949 . S
C482 C488 1.368 . S
C483 C467 1.349 . S
C483 H475 0.950 . S
C483 C481 1.327 . S
C484 C472 1.349 . S
C484 H478 0.950 . S
C484 C485 1.327 . S
C485 H479 0.950 . S
C485 C484 1.327 . S
C485 C489 1.429 . S
C486 C469 1.574 . S
C486 H480 0.949 . S
C486 C490 1.368 . S
C487 C468 1.429 . S
C487 C481 1.429 . S
C487 C488 1.523 . S
C488 C469 1.368 . S
C488 C482 1.368 . S
C488 C487 1.523 . S
C489 C473 1.429 . S
C489 C485 1.429 . S
C489 C490 1.523 . S
C490 C474 1.368 . S
C490 C486 1.368 . S
C490 C489 1.523 . S
H491 C466 0.950 . S
H492 C468 0.950 . S
H493 C469 0.949 . S
H494 C471 0.950 . S
H495 C473 0.950 . S
C137 C68 2.251 . S
C142 C0 2.242 . S
C167 C106 0.586 . S
C172 C38 0.586 . S
C197 C76 2.140 . S
C202 C8 2.152 . S
C227 C119 0.828 . S
C232 C51 0.828 . S
C257 C42 1.519 . S
C262 C13 1.529 . S
C287 C97 0.997 . S
C292 C63 1.000 . S
C317 C72 0.837 . S
C322 C115 0.827 1_556 S
C347 C17 1.901 . S
C352 C102 1.871 1_545 S
C377 C34 1.880 . S
C382 C29 1.911 . S
C407 C81 0.905 1_655 S
C412 C47 0.896 . S
C437 C85 0.988 . S
C442 C131 0.987 . S
C467 C110 1.429 . S
C472 C4 1.464 . S
