# Generated by pormake.
# Topology eci, (8)-cn, num edge types: 1
# Building blocks:
#     Node 0, Type 0, BuildingBlock: TAGTUT_clean_sbu_1, # of connection points: 8
#     Node 1, Type 0, BuildingBlock: TAGTUT_clean_sbu_1, # of connection points: 8
#     Node 2, Type 0, BuildingBlock: TAGTUT_clean_sbu_1, # of connection points: 8
#     Node 3, Type 0, BuildingBlock: TAGTUT_clean_sbu_1, # of connection points: 8
#     Edge 4, Type (0, 0), BuildingBlock: AJUNOK_clean_linker_0, # of connection points: 2
#     Edge 5, Type (0, 0), BuildingBlock: AJUNOK_clean_linker_0, # of connection points: 2
#     Edge 6, Type (0, 0), BuildingBlock: AJUNOK_clean_linker_0, # of connection points: 2
#     Edge 7, Type (0, 0), BuildingBlock: AJUNOK_clean_linker_0, # of connection points: 2
#     Edge 8, Type (0, 0), BuildingBlock: AJUNOK_clean_linker_0, # of connection points: 2
#     Edge 9, Type (0, 0), BuildingBlock: AJUNOK_clean_linker_0, # of connection points: 2
#     Edge 10, Type (0, 0), BuildingBlock: AJUNOK_clean_linker_0, # of connection points: 2
#     Edge 11, Type (0, 0), BuildingBlock: AJUNOK_clean_linker_0, # of connection points: 2
#     Edge 12, Type (0, 0), BuildingBlock: AJUNOK_clean_linker_0, # of connection points: 2
#     Edge 13, Type (0, 0), BuildingBlock: AJUNOK_clean_linker_0, # of connection points: 2
#     Edge 14, Type (0, 0), BuildingBlock: AJUNOK_clean_linker_0, # of connection points: 2
#     Edge 15, Type (0, 0), BuildingBlock: AJUNOK_clean_linker_0, # of connection points: 2
#     Edge 16, Type (0, 0), BuildingBlock: AJUNOK_clean_linker_0, # of connection points: 2
#     Edge 17, Type (0, 0), BuildingBlock: AJUNOK_clean_linker_0, # of connection points: 2
#     Edge 18, Type (0, 0), BuildingBlock: AJUNOK_clean_linker_0, # of connection points: 2
#     Edge 19, Type (0, 0), BuildingBlock: AJUNOK_clean_linker_0, # of connection points: 2
# Relax obj value: 0.215
# Max RMSD: 0.271
# Mean RMSD: 0.259
data_MOF--net-eci--node1-TAGTUT_clean_sbu_1--edge1-AJUNOK_clean_linker_0
_symmetry_space_group_name_H-M    P1
_symmetry_Int_Tables_number       1
_symmetry_cell_setting            triclinic
loop_
_symmetry_equiv_pos_as_xyz
'x, y, z'
_cell_length_a     21.354926
_cell_length_b     22.985887
_cell_length_c     14.956217
_cell_angle_alpha  94.347149
_cell_angle_beta   94.329827
_cell_angle_gamma 89.563028
loop_
_atom_site_label
_atom_site_type_symbol
_atom_site_fract_x
_atom_site_fract_y
_atom_site_fract_z
_atom_type_partial_charge
C0 C 0.85376 0.63452 0.20231 0.0
C1 C 0.87786 0.80309 0.34932 0.0
C2 C 0.72657 0.87908 0.05932 0.0
Mg3 Mg 0.93627 0.7424 0.1868 0.0
O4 O 0.86324 0.75747 0.11301 0.0
Mg5 Mg 0.78124 0.76168 0.16726 0.0
Mg6 Mg 0.85502 0.82572 0.04273 0.0
O7 O 0.84606 0.89297 0.96618 0.0
Mg8 Mg 0.77261 0.8909 0.8842 0.0
Mg9 Mg 0.93049 0.891 0.91689 0.0
C10 C 0.00246 0.78214 0.01596 0.0
C11 C 0.95534 0.92655 0.13038 0.0
O12 O 0.80474 0.66736 0.20048 0.0
O13 O 0.90931 0.65401 0.19699 0.0
O14 O 0.82611 0.79571 0.30208 0.0
O15 O 0.93013 0.7883 0.31795 0.0
O16 O 0.0068 0.76094 0.09338 0.0
O17 O 0.94963 0.80069 0.97981 0.0
C18 C 0.73853 0.73564 0.95808 0.0
O19 O 0.78412 0.7671 0.93582 0.0
O20 O 0.73453 0.72638 0.03974 0.0
O21 O 0.89243 0.97872 0.86652 0.0
O22 O 0.78567 0.97968 0.85667 0.0
O23 O 0.89797 0.84857 0.7797 0.0
C24 C 0.83891 1.00412 0.85149 0.0
O25 O 0.79378 0.84375 0.76075 0.0
O26 O 0.71618 0.85229 -0.01766 0.0
C27 C 0.84782 0.8358 0.7311 0.0
O28 O 0.7667 0.85693 0.11584 0.0
O29 O 0.91731 0.88636 0.14702 0.0
O30 O 0.96571 0.93566 0.04991 0.0
C31 C 0.71913 0.12544 0.00743 0.0
C32 C 0.68734 0.28426 0.86635 0.0
C33 C 0.81198 0.38747 0.18397 0.0
Mg34 Mg 0.62765 0.22818 0.01797 0.0
O35 O 0.69292 0.25346 0.1011 0.0
Mg36 Mg 0.77681 0.26146 0.05891 0.0
Mg37 Mg 0.68575 0.32407 0.18134 0.0
O38 O 0.67743 0.39649 0.26722 0.0
Mg39 Mg 0.74324 0.42065 0.35605 0.0
Mg40 Mg 0.59635 0.37188 0.31354 0.0
C41 C 0.55081 0.26778 0.18329 0.0
C42 C 0.56767 0.39917 0.10392 0.0
O43 O 0.76669 0.16027 0.01769 0.0
O44 O 0.66246 0.14351 0.00604 0.0
O45 O 0.73864 0.28537 0.91645 0.0
O46 O 0.63609 0.26676 0.89356 0.0
O47 O 0.55117 0.24633 0.1016 0.0
O48 O 0.60052 0.28537 0.2304 0.0
C49 C 0.79828 0.24795 0.27186 0.0
O50 O 0.75021 0.27925 0.28816 0.0
O51 O 0.81354 0.23786 0.19181 0.0
O52 O 0.59812 0.46124 0.38469 0.0
O53 O 0.69419 0.50231 0.39827 0.0
O54 O 0.64165 0.33669 0.44511 0.0
C55 C 0.63464 0.50444 0.40785 0.0
O56 O 0.73705 0.37471 0.47431 0.0
O57 O 0.81059 0.37613 0.26607 0.0
C58 C 0.69212 0.34405 0.49613 0.0
O59 O 0.77399 0.36075 0.1237 0.0
O60 O 0.61665 0.37035 0.08146 0.0
O61 O 0.5532 0.40555 0.18554 0.0
C62 C 0.31078 0.2823 0.30559 0.0
C63 C 0.14429 0.2165 0.17989 0.0
C64 C 0.0253 0.31414 0.45195 0.0
Mg65 Mg 0.22756 0.17915 0.34158 0.0
O66 O 0.20015 0.2399 0.41862 0.0
Mg67 Mg 0.16734 0.31196 0.3593 0.0
Mg68 Mg 0.12895 0.22369 0.49008 0.0
O69 O 0.05557 0.20976 0.56176 0.0
Mg70 Mg 0.02221 0.2724 0.63473 0.0
Mg71 Mg 0.08493 0.13767 0.61867 0.0
C72 C 0.20932 0.10445 0.51198 0.0
C73 C 0.05983 0.09863 0.40857 0.0
O74 O 0.26564 0.31911 0.31149 0.0
O75 O 0.30683 0.22806 0.3187 0.0
O76 O 0.13834 0.2647 0.22576 0.0
O77 O 0.17451 0.17401 0.21251 0.0
O78 O 0.22823 0.10916 0.43316 0.0
O79 O 0.18185 0.1469 0.55589 0.0
C80 C 0.19353 0.35287 0.56722 0.0
O81 O 0.16954 0.30544 0.5918 0.0
O82 O 0.1965 0.36127 0.48506 0.0
O83 O 0.98542 0.13991 0.66923 0.0
O84 O 0.93884 0.22852 0.66358 0.0
O85 O 0.11654 0.18635 0.75143 0.0
C86 C 0.93832 0.17449 0.67896 0.0
O87 O 0.07797 0.27694 0.7617 0.0
O88 O 0.03189 0.33535 0.53381 0.0
C89 C 0.1084 0.23494 0.79604 0.0
O90 O 0.07342 0.29269 0.41592 0.0
O91 O 0.08916 0.14469 0.39045 0.0
O92 O 0.05101 0.08862 0.48924 0.0
C93 C 0.28143 0.86933 0.58708 0.0
C94 C 0.35165 0.71461 0.43202 0.0
C95 C 0.23392 0.59373 0.68909 0.0
Mg96 Mg 0.39446 0.78519 0.61175 0.0
O97 O 0.33469 0.74522 0.67036 0.0
Mg98 Mg 0.25409 0.72332 0.60129 0.0
Mg99 Mg 0.3526 0.67484 0.73718 0.0
O100 O 0.37204 0.60496 0.81072 0.0
Mg101 Mg 0.29446 0.58206 0.86823 0.0
Mg102 Mg 0.46232 0.62979 0.87688 0.0
C103 C 0.48401 0.74537 0.78082 0.0
C104 C 0.4839 0.61895 0.66194 0.0
O105 O 0.24522 0.8242 0.57414 0.0
O106 O 0.34072 0.86497 0.60693 0.0
O107 O 0.30156 0.70426 0.46946 0.0
O108 O 0.39634 0.74421 0.47488 0.0
O109 O 0.47546 0.77276 0.70883 0.0
O110 O 0.43862 0.71856 0.8138 0.0
C111 C 0.22078 0.73484 0.80871 0.0
O112 O 0.2741 0.71253 0.83527 0.0
O113 O 0.20726 0.74239 0.72633 0.0
O114 O 0.3924 0.55405 0.83414 0.0
O115 O 0.32401 0.49156 0.86778 0.0
O116 O 0.41299 0.65101 0.01101 0.0
C117 C 0.38178 0.50357 0.86253 0.0
O118 O 0.31109 0.62529 0.0023 0.0
O119 O 0.22351 0.61083 0.76941 0.0
C120 C 0.36033 0.64703 0.04658 0.0
O121 O 0.27082 0.62477 0.64708 0.0
O122 O 0.42866 0.63971 0.64364 0.0
O123 O 0.50489 0.61097 0.74265 0.0
C124 C 0.91854 0.79659 0.50944 0.0
C125 C 0.87381 0.8183 0.4465 0.0
C126 C 0.90864 0.80034 0.60133 0.0
C127 C 0.85332 0.82504 0.63342 0.0
H128 H 0.96052 0.77486 0.48748 0.0
H129 H 0.94461 0.78384 0.64768 0.0
S130 S 0.72564 0.89539 0.49737 0.0
N131 N 0.77505 0.87065 0.42369 0.0
N132 N 0.75624 0.87687 0.5958 0.0
C133 C 0.80923 0.84863 0.57144 0.0
C134 C 0.81966 0.84562 0.47829 0.0
C135 C 0.72994 0.35625 0.65894 0.0
C136 C 0.69488 0.3241 0.58843 0.0
C137 C 0.7273 0.34326 0.74878 0.0
C138 C 0.68894 0.29812 0.77156 0.0
H139 H 0.75826 0.39295 0.64509 0.0
H140 H 0.75444 0.36953 0.8009 0.0
S141 S 0.59656 0.19463 0.61169 0.0
N142 N 0.62717 0.24044 0.54714 0.0
N143 N 0.62073 0.21705 0.71599 0.0
C144 C 0.65566 0.26417 0.70166 0.0
C145 C 0.65903 0.27688 0.61014 0.0
C146 C 0.16293 0.19435 0.93096 0.0
C147 C 0.12051 0.23524 0.89479 0.0
C148 C 0.16708 0.1852 0.02271 0.0
C149 C 0.12896 0.2166 0.08204 0.0
H150 H 0.19286 0.16864 0.88774 0.0
H151 H 0.20202 0.15479 0.04764 0.0
S152 S 0.00644 0.32517 0.0213 0.0
N153 N 0.03702 0.30509 0.92557 0.0
N154 N 0.04503 0.28788 0.09794 0.0
C155 C 0.0854 0.25671 0.04674 0.0
C156 C 0.08137 0.2663 0.9534 0.0
C157 C 0.4039 0.70026 0.19189 0.0
C158 C 0.35742 0.66418 0.14467 0.0
C159 C 0.40258 0.71555 0.28477 0.0
C160 C 0.35496 0.69509 0.3347 0.0
H161 H 0.44146 0.71732 0.15674 0.0
H162 H 0.43886 0.74418 0.31733 0.0
S163 S 0.22536 0.59467 0.24502 0.0
N164 N 0.26442 0.60556 0.1568 0.0
N165 N 0.26217 0.63356 0.32995 0.0
C166 C 0.30907 0.65775 0.28856 0.0
C167 C 0.31023 0.64254 0.19418 0.0
C168 C 0.56143 0.72227 0.90805 0.0
C169 C 0.55035 0.73814 0.81974 0.0
C170 C 0.62249 0.71627 0.9474 0.0
C171 C 0.6768 0.72763 0.90205 0.0
H172 H 0.52252 0.71602 0.94874 0.0
H173 H 0.6263 0.70559 0.01688 0.0
S174 S 0.67413 0.75887 0.66239 0.0
N175 N 0.59918 0.75632 0.68221 0.0
N176 N 0.71415 0.74691 0.7582 0.0
C177 C 0.66658 0.74 0.81157 0.0
C178 C 0.60367 0.74513 0.77035 0.0
C179 C 0.7745 0.03905 0.07016 0.0
C180 C 0.72703 0.06195 0.01208 0.0
C181 C 0.77321 0.98028 0.09072 0.0
C182 C 0.72408 0.94306 0.0542 0.0
H183 H 0.81163 0.06702 0.10202 0.0
H184 H 0.81129 0.96379 0.13374 0.0
S185 S 0.58932 0.98195 0.89801 0.0
N186 N 0.63129 0.04216 0.91612 0.0
N187 N 0.62659 0.93385 0.95899 0.0
C188 C 0.6762 0.96609 -0.00277 0.0
C189 C 0.67853 0.0247 0.97445 0.0
C190 C 0.37873 0.30093 0.1884 0.0
C191 C 0.37044 0.30098 0.28018 0.0
C192 C 0.43811 0.29162 0.15762 0.0
C193 C 0.49022 0.28225 0.2182 0.0
H194 H 0.33855 0.30272 0.13982 0.0
H195 H 0.44271 0.28966 0.08579 0.0
S196 S 0.49104 0.28515 0.46651 0.0
N197 N 0.4173 0.29734 0.43199 0.0
N198 N 0.5297 0.27796 0.37473 0.0
C199 C 0.48261 0.28667 0.3109 0.0
C200 C 0.42228 0.29688 0.34185 0.0
C201 C 0.21039 0.93966 0.50716 0.0
C202 C 0.25458 0.92888 0.57855 0.0
C203 C 0.19201 0.99697 0.49028 0.0
C204 C 0.21542 0.04552 0.54584 0.0
H205 H 0.19291 0.90398 0.46071 0.0
H206 H 0.16153 1.00357 0.43062 0.0
S207 S 0.32575 0.04035 0.74817 0.0
N208 N 0.31715 0.97132 0.70975 0.0
N209 N 0.28087 0.07855 0.67914 0.0
C210 C 0.25592 0.03503 0.62108 0.0
C211 C 0.27594 0.97685 0.63711 0.0
C212 C 0.11962 0.78621 0.00136 0.0
C213 C 0.05814 0.77442 0.96226 0.0
C214 C 0.1733 0.77187 0.954 0.0
C215 C 0.16711 0.74404 0.86677 0.0
H216 H 0.12616 0.80681 0.06897 0.0
H217 H 0.21943 0.78351 -0.01502 0.0
S218 S 0.01729 0.69379 0.74211 0.0
N219 N 0.99525 0.72802 0.83556 0.0
N220 N 0.09451 0.69884 0.74848 0.0
C221 C 0.10581 0.72955 0.82945 0.0
C222 C 0.05179 0.74537 0.87644 0.0
C223 C 0.77765 0.48688 0.14842 0.0
C224 C 0.82586 0.44857 0.17449 0.0
C225 C 0.78684 0.54719 0.15975 0.0
C226 C 0.84457 0.57093 0.19701 0.0
H227 H 0.73181 0.47031 0.12306 0.0
H228 H 0.74837 0.57531 0.13887 0.0
S229 S 0.98543 0.48756 0.27406 0.0
N230 N 0.93284 0.43724 0.23784 0.0
N231 N 0.95084 0.55085 0.25814 0.0
C232 C 0.89351 0.53266 0.22131 0.0
C233 C 0.88391 0.47138 0.21023 0.0
C234 C 0.85192 0.27616 0.42234 0.0
C235 C 0.84881 0.23914 0.34298 0.0
C236 C 0.90986 0.29744 0.46166 0.0
C237 C 0.96611 0.2823 0.4221 0.0
H238 H 0.8095 0.2936 0.44837 0.0
H239 H 0.90993 0.32949 0.51862 0.0
S240 S 0.98173 0.17288 0.22728 0.0
N241 N 0.90654 0.17326 0.24443 0.0
N242 N 0.01376 0.2208 0.30445 0.0
C243 C 0.9633 0.23886 0.34952 0.0
C244 C 0.90497 0.21399 0.31537 0.0
C245 C 0.1675 0.4386 0.6706 0.0
C246 C 0.21341 0.40479 0.62819 0.0
C247 C 0.17567 0.49921 0.69119 0.0
C248 C 0.2294 0.52894 0.66859 0.0
H249 H 0.12275 0.41924 0.68088 0.0
H250 H 0.13796 0.52365 0.72114 0.0
S251 S 0.36769 0.45887 0.56937 0.0
N252 N 0.31801 0.40462 0.57422 0.0
N253 N 0.33265 0.51792 0.61164 0.0
C254 C 0.27752 0.49497 0.63207 0.0
C255 C 0.26975 0.43321 0.61276 0.0
C256 C 0.98079 0.02221 0.34944 0.0
C257 C 0.03497 0.05458 0.33672 0.0
C258 C 0.95651 0.97923 0.28435 0.0
C259 C 0.98543 0.96685 0.20369 0.0
H260 H 0.95622 0.03076 0.40987 0.0
H261 H 0.91382 0.95682 0.29626 0.0
S262 S 0.13263 0.03404 0.14234 0.0
N263 N 0.11973 0.06715 0.2411 0.0
N264 N 0.07413 0.98762 0.11789 0.0
C265 C 0.04076 0.99766 0.19143 0.0
C266 C 0.06546 0.04117 0.25797 0.0
C267 C 0.62981 0.57171 0.545 0.0
C268 C 0.60492 0.55357 0.45798 0.0
C269 C 0.59073 0.59626 0.60933 0.0
C270 C 0.52556 0.60336 0.5887 0.0
H271 H 0.67801 0.56147 0.56623 0.0
H272 H 0.61119 0.60651 0.67717 0.0
S273 S 0.44034 0.57058 0.36543 0.0
N274 N 0.51373 0.5518 0.35049 0.0
N275 N 0.44004 0.59645 0.47143 0.0
C276 C 0.50173 0.59092 0.49925 0.0
C277 C 0.54163 0.56665 0.43379 0.0
C278 C 0.84695 0.11083 0.67998 0.0
C279 C 0.88772 0.15225 0.7263 0.0
C280 C 0.82249 0.0661 0.72527 0.0
C281 C 0.8399 0.06151 0.81688 0.0
H282 H 0.84027 0.1088 0.60725 0.0
H283 H 0.79681 0.03109 0.6863 0.0
S284 S 0.9348 0.16594 0.97014 0.0
N285 N 0.93476 0.19242 0.87045 0.0
N286 N 0.89132 0.10637 0.9549 0.0
C287 C 0.87386 0.10672 0.86564 0.0
C288 C 0.89707 0.15305 0.82018 0.0
C289 C 0.45876 0.42623 0.05495 0.0
C290 C 0.52229 0.42231 0.03576 0.0
C291 C 0.41367 0.45059 -0.00329 0.0
C292 C 0.43026 0.47353 0.91756 0.0
H293 H 0.44347 0.41088 0.11641 0.0
H294 H 0.36571 0.45327 0.01578 0.0
S295 S 0.58933 0.47272 0.83359 0.0
N296 N 0.59913 0.44132 0.92957 0.0
N297 N 0.51392 0.48946 0.82058 0.0
C298 C 0.49329 0.46944 0.89626 0.0
C299 C 0.5394 0.44311 0.95507 0.0
loop_
_geom_bond_atom_site_label_1
_geom_bond_atom_site_label_2
_geom_bond_distance
_geom_bond_site_symmetry_2
_ccdc_geom_bond_type
C0 O12 1.241 . S
C0 O13 1.280 . S
C1 O14 1.277 . S
C1 O15 1.245 . S
C2 O26 1.247 1_554 S
C2 O28 1.289 . S
Mg3 O4 1.926 . S
Mg3 O13 1.984 . S
Mg3 O15 1.988 . S
Mg3 O16 2.061 . S
O4 Mg3 1.926 . S
O4 Mg5 1.986 . S
O4 Mg6 1.917 . S
Mg5 O4 1.986 . S
Mg5 O12 2.042 . S
Mg5 O14 2.041 . S
Mg5 O20 2.038 . S
Mg5 O28 2.238 . S
Mg6 O4 1.917 . S
Mg6 O7 1.917 1_554 S
Mg6 O17 2.106 1_554 S
Mg6 O19 2.079 1_554 S
Mg6 O28 2.106 . S
Mg6 O29 2.079 . S
O7 Mg6 1.917 1_556 S
O7 Mg8 1.926 . S
O7 Mg9 1.986 . S
Mg8 O7 1.926 . S
Mg8 O22 1.984 1_565 S
Mg8 O25 1.988 . S
Mg8 O26 2.061 . S
Mg9 O7 1.986 . S
Mg9 O17 2.238 . S
Mg9 O21 2.042 . S
Mg9 O23 2.041 . S
Mg9 O30 2.038 1_556 S
C10 O16 1.247 1_556 S
C10 O17 1.289 . S
C11 O29 1.245 . S
C11 O30 1.274 . S
O12 C0 1.241 . S
O12 Mg5 2.042 . S
O13 C0 1.280 . S
O13 Mg3 1.984 . S
O14 C1 1.277 . S
O14 Mg5 2.041 . S
O15 C1 1.245 . S
O15 Mg3 1.988 . S
O16 Mg3 2.061 . S
O16 C10 1.247 1_554 S
O17 Mg6 2.106 1_556 S
O17 Mg9 2.238 . S
O17 C10 1.289 . S
C18 O19 1.245 . S
C18 O20 1.274 1_556 S
O19 Mg6 2.079 1_556 S
O19 C18 1.245 . S
O20 Mg5 2.038 . S
O20 C18 1.274 1_554 S
O21 Mg9 2.042 . S
O21 C24 1.241 1_565 S
O22 Mg8 1.984 1_545 S
O22 C24 1.280 . S
O23 Mg9 2.041 . S
O23 C27 1.277 . S
C24 O21 1.241 1_545 S
C24 O22 1.280 . S
O25 Mg8 1.988 . S
O25 C27 1.245 . S
O26 C2 1.247 1_556 S
O26 Mg8 2.061 . S
C27 O23 1.277 . S
C27 O25 1.245 . S
O28 C2 1.289 . S
O28 Mg5 2.238 . S
O28 Mg6 2.106 . S
O29 Mg6 2.079 . S
O29 C11 1.245 . S
O30 Mg9 2.038 1_554 S
O30 C11 1.274 . S
C31 O43 1.241 . S
C31 O44 1.280 . S
C32 O45 1.277 1_556 S
C32 O46 1.245 . S
C33 O57 1.247 . S
C33 O59 1.289 . S
Mg34 O35 1.926 . S
Mg34 O44 1.984 . S
Mg34 O46 1.988 1_554 S
Mg34 O47 2.061 . S
O35 Mg34 1.926 . S
O35 Mg36 1.986 . S
O35 Mg37 1.917 . S
Mg36 O35 1.986 . S
Mg36 O43 2.042 . S
Mg36 O45 2.041 . S
Mg36 O51 2.038 . S
Mg36 O59 2.238 . S
Mg37 O35 1.917 . S
Mg37 O38 1.917 . S
Mg37 O48 2.106 . S
Mg37 O50 2.079 . S
Mg37 O59 2.106 . S
Mg37 O60 2.079 . S
O38 Mg37 1.917 . S
O38 Mg39 1.926 . S
O38 Mg40 1.986 . S
Mg39 O38 1.926 . S
Mg39 O53 1.984 . S
Mg39 O56 1.988 . S
Mg39 O57 2.061 . S
Mg40 O38 1.986 . S
Mg40 O48 2.238 . S
Mg40 O52 2.042 . S
Mg40 O54 2.041 . S
Mg40 O61 2.038 . S
C41 O47 1.247 . S
C41 O48 1.289 . S
C42 O60 1.245 . S
C42 O61 1.274 . S
O43 C31 1.241 . S
O43 Mg36 2.042 . S
O44 C31 1.280 . S
O44 Mg34 1.984 . S
O45 C32 1.277 1_554 S
O45 Mg36 2.041 . S
O46 C32 1.245 . S
O46 Mg34 1.988 1_556 S
O47 Mg34 2.061 . S
O47 C41 1.247 . S
O48 Mg37 2.106 . S
O48 Mg40 2.238 . S
O48 C41 1.289 . S
C49 O50 1.245 . S
C49 O51 1.274 . S
O50 Mg37 2.079 . S
O50 C49 1.245 . S
O51 Mg36 2.038 . S
O51 C49 1.274 . S
O52 Mg40 2.042 . S
O52 C55 1.241 . S
O53 Mg39 1.984 . S
O53 C55 1.280 . S
O54 Mg40 2.041 . S
O54 C58 1.277 . S
C55 O52 1.241 . S
C55 O53 1.280 . S
O56 Mg39 1.988 . S
O56 C58 1.245 . S
O57 C33 1.247 . S
O57 Mg39 2.061 . S
C58 O54 1.277 . S
C58 O56 1.245 . S
O59 C33 1.289 . S
O59 Mg36 2.238 . S
O59 Mg37 2.106 . S
O60 Mg37 2.079 . S
O60 C42 1.245 . S
O61 Mg40 2.038 . S
O61 C42 1.274 . S
C62 O74 1.241 . S
C62 O75 1.280 . S
C63 O76 1.277 . S
C63 O77 1.245 . S
C64 O88 1.247 . S
C64 O90 1.289 . S
Mg65 O66 1.926 . S
Mg65 O75 1.984 . S
Mg65 O77 1.988 . S
Mg65 O78 2.061 . S
O66 Mg65 1.926 . S
O66 Mg67 1.986 . S
O66 Mg68 1.917 . S
Mg67 O66 1.986 . S
Mg67 O74 2.042 . S
Mg67 O76 2.041 . S
Mg67 O82 2.038 . S
Mg67 O90 2.238 . S
Mg68 O66 1.917 . S
Mg68 O69 1.917 . S
Mg68 O79 2.106 . S
Mg68 O81 2.079 . S
Mg68 O90 2.106 . S
Mg68 O91 2.079 . S
O69 Mg68 1.917 . S
O69 Mg70 1.926 . S
O69 Mg71 1.986 . S
Mg70 O69 1.926 . S
Mg70 O84 1.984 1_455 S
Mg70 O87 1.988 . S
Mg70 O88 2.061 . S
Mg71 O69 1.986 . S
Mg71 O79 2.238 . S
Mg71 O83 2.042 . S
Mg71 O85 2.041 . S
Mg71 O92 2.038 . S
C72 O78 1.247 . S
C72 O79 1.289 . S
C73 O91 1.245 . S
C73 O92 1.274 . S
O74 C62 1.241 . S
O74 Mg67 2.042 . S
O75 C62 1.280 . S
O75 Mg65 1.984 . S
O76 C63 1.277 . S
O76 Mg67 2.041 . S
O77 C63 1.245 . S
O77 Mg65 1.988 . S
O78 Mg65 2.061 . S
O78 C72 1.247 . S
O79 Mg68 2.106 . S
O79 Mg71 2.238 . S
O79 C72 1.289 . S
C80 O81 1.245 . S
C80 O82 1.274 . S
O81 Mg68 2.079 . S
O81 C80 1.245 . S
O82 Mg67 2.038 . S
O82 C80 1.274 . S
O83 Mg71 2.042 . S
O83 C86 1.241 1_455 S
O84 Mg70 1.984 1_655 S
O84 C86 1.280 . S
O85 Mg71 2.041 . S
O85 C89 1.277 . S
C86 O83 1.241 1_655 S
C86 O84 1.280 . S
O87 Mg70 1.988 . S
O87 C89 1.245 . S
O88 C64 1.247 . S
O88 Mg70 2.061 . S
C89 O85 1.277 . S
C89 O87 1.245 . S
O90 C64 1.289 . S
O90 Mg67 2.238 . S
O90 Mg68 2.106 . S
O91 Mg68 2.079 . S
O91 C73 1.245 . S
O92 Mg71 2.038 . S
O92 C73 1.274 . S
C93 O105 1.241 . S
C93 O106 1.280 . S
C94 O107 1.277 . S
C94 O108 1.245 . S
C95 O119 1.247 . S
C95 O121 1.289 . S
Mg96 O97 1.926 . S
Mg96 O106 1.984 . S
Mg96 O108 1.988 . S
Mg96 O109 2.061 . S
O97 Mg96 1.926 . S
O97 Mg98 1.986 . S
O97 Mg99 1.917 . S
Mg98 O97 1.986 . S
Mg98 O105 2.042 . S
Mg98 O107 2.041 . S
Mg98 O113 2.038 . S
Mg98 O121 2.238 . S
Mg99 O97 1.917 . S
Mg99 O100 1.917 . S
Mg99 O110 2.106 . S
Mg99 O112 2.079 . S
Mg99 O121 2.106 . S
Mg99 O122 2.079 . S
O100 Mg99 1.917 . S
O100 Mg101 1.926 . S
O100 Mg102 1.986 . S
Mg101 O100 1.926 . S
Mg101 O115 1.984 . S
Mg101 O118 1.988 1_556 S
Mg101 O119 2.061 . S
Mg102 O100 1.986 . S
Mg102 O110 2.238 . S
Mg102 O114 2.042 . S
Mg102 O116 2.041 1_556 S
Mg102 O123 2.038 . S
C103 O109 1.247 . S
C103 O110 1.289 . S
C104 O122 1.245 . S
C104 O123 1.274 . S
O105 C93 1.241 . S
O105 Mg98 2.042 . S
O106 C93 1.280 . S
O106 Mg96 1.984 . S
O107 C94 1.277 . S
O107 Mg98 2.041 . S
O108 C94 1.245 . S
O108 Mg96 1.988 . S
O109 Mg96 2.061 . S
O109 C103 1.247 . S
O110 Mg99 2.106 . S
O110 Mg102 2.238 . S
O110 C103 1.289 . S
C111 O112 1.245 . S
C111 O113 1.274 . S
O112 Mg99 2.079 . S
O112 C111 1.245 . S
O113 Mg98 2.038 . S
O113 C111 1.274 . S
O114 Mg102 2.042 . S
O114 C117 1.241 . S
O115 Mg101 1.984 . S
O115 C117 1.280 . S
O116 Mg102 2.041 1_554 S
O116 C120 1.277 . S
C117 O114 1.241 . S
C117 O115 1.280 . S
O118 Mg101 1.988 1_554 S
O118 C120 1.245 . S
O119 C95 1.247 . S
O119 Mg101 2.061 . S
C120 O116 1.277 . S
C120 O118 1.245 . S
O121 C95 1.289 . S
O121 Mg98 2.238 . S
O121 Mg99 2.106 . S
O122 Mg99 2.079 . S
O122 C104 1.245 . S
O123 Mg102 2.038 . S
O123 C104 1.274 . S
C124 C125 1.369 . S
C124 C126 1.419 . S
C124 H128 0.930 . S
C125 C124 1.369 . S
C125 C134 1.429 . S
C126 C124 1.419 . S
C126 C127 1.363 . S
C126 H129 0.929 . S
C127 C126 1.363 . S
C127 C133 1.428 . S
H128 C124 0.930 . S
H129 C126 0.929 . S
S130 N131 1.613 . S
S130 N132 1.610 . S
N131 S130 1.613 . S
N131 C134 1.350 . S
N132 S130 1.610 . S
N132 C133 1.351 . S
C133 C127 1.428 . S
C133 N132 1.351 . S
C133 C134 1.434 . S
C134 C125 1.429 . S
C134 N131 1.350 . S
C134 C133 1.434 . S
C135 C136 1.369 . S
C135 C137 1.419 . S
C135 H139 0.930 . S
C136 C135 1.369 . S
C136 C145 1.429 . S
C137 C135 1.419 . S
C137 C138 1.363 . S
C137 H140 0.929 . S
C138 C137 1.363 . S
C138 C144 1.428 . S
H139 C135 0.930 . S
H140 C137 0.929 . S
S141 N142 1.613 . S
S141 N143 1.610 . S
N142 S141 1.613 . S
N142 C145 1.350 . S
N143 S141 1.610 . S
N143 C144 1.351 . S
C144 C138 1.428 . S
C144 N143 1.351 . S
C144 C145 1.434 . S
C145 C136 1.429 . S
C145 N142 1.350 . S
C145 C144 1.434 . S
C146 C147 1.369 . S
C146 C148 1.419 1_556 S
C146 H150 0.930 . S
C147 C146 1.369 . S
C147 C156 1.429 . S
C148 C146 1.419 1_554 S
C148 C149 1.363 . S
C148 H151 0.929 . S
C149 C148 1.363 . S
C149 C155 1.428 . S
H150 C146 0.930 . S
H151 C148 0.929 . S
S152 N153 1.613 1_655 S
S152 N154 1.610 1_656 S
N153 S152 1.613 1_455 S
N153 C156 1.350 . S
N154 S152 1.610 1_454 S
N154 C155 1.351 . S
C155 C149 1.428 . S
C155 N154 1.351 . S
C155 C156 1.434 1_554 S
C156 C147 1.429 . S
C156 N153 1.350 . S
C156 C155 1.434 1_556 S
C157 C158 1.369 . S
C157 C159 1.419 . S
C157 H161 0.930 . S
C158 C157 1.369 . S
C158 C167 1.429 . S
C159 C157 1.419 . S
C159 C160 1.363 . S
C159 H162 0.929 . S
C160 C159 1.363 . S
C160 C166 1.428 . S
H161 C157 0.930 . S
H162 C159 0.929 . S
S163 N164 1.613 . S
S163 N165 1.610 . S
N164 S163 1.613 . S
N164 C167 1.350 . S
N165 S163 1.610 . S
N165 C166 1.351 . S
C166 C160 1.428 . S
C166 N165 1.351 . S
C166 C167 1.434 . S
C167 C158 1.429 . S
C167 N164 1.350 . S
C167 C166 1.434 . S
C168 C169 1.369 . S
C168 C170 1.419 . S
C168 H172 0.930 . S
C169 C168 1.369 . S
C169 C178 1.429 . S
C170 C168 1.419 . S
C170 C171 1.363 . S
C170 H173 0.929 . S
C171 C170 1.363 . S
C171 C177 1.428 . S
H172 C168 0.930 . S
H173 C170 0.929 . S
S174 N175 1.613 . S
S174 N176 1.610 . S
N175 S174 1.613 . S
N175 C178 1.350 . S
N176 S174 1.610 . S
N176 C177 1.351 . S
C177 C171 1.428 . S
C177 N176 1.351 . S
C177 C178 1.434 . S
C178 C169 1.429 . S
C178 N175 1.350 . S
C178 C177 1.434 . S
C179 C180 1.369 . S
C179 C181 1.419 . S
C179 H183 0.930 . S
C180 C179 1.369 . S
C180 C189 1.429 . S
C181 C179 1.419 . S
C181 C182 1.369 . S
C181 H184 0.929 . S
C182 C181 1.369 . S
C182 C188 1.435 . S
H183 C179 0.930 . S
H184 C181 0.929 . S
S185 N186 1.613 . S
S185 N187 1.610 . S
N186 S185 1.613 . S
N186 C189 1.350 . S
N187 S185 1.610 . S
N187 C188 1.351 . S
C188 C182 1.435 . S
C188 N187 1.351 . S
C188 C189 1.434 . S
C189 C180 1.429 . S
C189 N186 1.350 . S
C189 C188 1.434 . S
C190 C191 1.369 . S
C190 C192 1.419 . S
C190 H194 0.930 . S
C191 C190 1.369 . S
C191 C200 1.429 . S
C192 C190 1.419 . S
C192 C193 1.363 . S
C192 H195 0.929 . S
C193 C192 1.363 . S
C193 C199 1.428 . S
H194 C190 0.930 . S
H195 C192 0.929 . S
S196 N197 1.613 . S
S196 N198 1.610 . S
N197 S196 1.613 . S
N197 C200 1.350 . S
N198 S196 1.610 . S
N198 C199 1.351 . S
C199 C193 1.428 . S
C199 N198 1.351 . S
C199 C200 1.434 . S
C200 C191 1.429 . S
C200 N197 1.350 . S
C200 C199 1.434 . S
C201 C202 1.369 . S
C201 C203 1.419 . S
C201 H205 0.930 . S
C202 C201 1.369 . S
C202 C211 1.429 . S
C203 C201 1.419 . S
C203 C204 1.363 1_565 S
C203 H206 0.929 . S
C204 C203 1.363 1_545 S
C204 C210 1.428 1_545 S
H205 C201 0.930 . S
H206 C203 0.929 . S
S207 N208 1.613 . S
S207 N209 1.610 1_565 S
N208 S207 1.613 . S
N208 C211 1.350 . S
N209 S207 1.610 1_545 S
N209 C210 1.351 1_545 S
C210 C204 1.428 1_565 S
C210 N209 1.351 1_565 S
C210 C211 1.434 . S
C211 C202 1.429 . S
C211 N208 1.350 . S
C211 C210 1.434 . S
C212 C213 1.369 . S
C212 C214 1.419 . S
C212 H216 0.930 1_556 S
C213 C212 1.369 . S
C213 C222 1.429 . S
C214 C212 1.419 . S
C214 C215 1.363 . S
C214 H217 0.929 . S
C215 C214 1.363 . S
C215 C221 1.428 . S
H216 C212 0.930 1_554 S
H217 C214 0.929 . S
S218 N219 1.613 . S
S218 N220 1.610 . S
N219 S218 1.613 . S
N219 C222 1.350 . S
N220 S218 1.610 . S
N220 C221 1.351 . S
C221 C215 1.428 . S
C221 N220 1.351 . S
C221 C222 1.434 . S
C222 C213 1.429 . S
C222 N219 1.350 . S
C222 C221 1.434 . S
C223 C224 1.369 . S
C223 C225 1.419 . S
C223 H227 0.930 . S
C224 C223 1.369 . S
C224 C233 1.429 . S
C225 C223 1.419 . S
C225 C226 1.363 . S
C225 H228 0.929 . S
C226 C225 1.363 . S
C226 C232 1.428 . S
H227 C223 0.930 . S
H228 C225 0.929 . S
S229 N230 1.613 . S
S229 N231 1.610 . S
N230 S229 1.613 . S
N230 C233 1.350 . S
N231 S229 1.610 . S
N231 C232 1.351 . S
C232 C226 1.428 . S
C232 N231 1.351 . S
C232 C233 1.434 . S
C233 C224 1.429 . S
C233 N230 1.350 . S
C233 C232 1.434 . S
C234 C235 1.369 . S
C234 C236 1.419 . S
C234 H238 0.930 . S
C235 C234 1.369 . S
C235 C244 1.429 . S
C236 C234 1.419 . S
C236 C237 1.363 . S
C236 H239 0.929 . S
C237 C236 1.363 . S
C237 C243 1.428 . S
H238 C234 0.930 . S
H239 C236 0.929 . S
S240 N241 1.613 . S
S240 N242 1.610 . S
N241 S240 1.613 . S
N241 C244 1.350 . S
N242 S240 1.610 . S
N242 C243 1.351 . S
C243 C237 1.428 . S
C243 N242 1.351 . S
C243 C244 1.434 . S
C244 C235 1.429 . S
C244 N241 1.350 . S
C244 C243 1.434 . S
C245 C246 1.369 . S
C245 C247 1.419 . S
C245 H249 0.930 . S
C246 C245 1.369 . S
C246 C255 1.429 . S
C247 C245 1.419 . S
C247 C248 1.363 . S
C247 H250 0.929 . S
C248 C247 1.363 . S
C248 C254 1.428 . S
H249 C245 0.930 . S
H250 C247 0.929 . S
S251 N252 1.613 . S
S251 N253 1.610 . S
N252 S251 1.613 . S
N252 C255 1.350 . S
N253 S251 1.610 . S
N253 C254 1.351 . S
C254 C248 1.428 . S
C254 N253 1.351 . S
C254 C255 1.434 . S
C255 C246 1.429 . S
C255 N252 1.350 . S
C255 C254 1.434 . S
C256 C257 1.369 1_665 S
C256 C258 1.419 . S
C256 H260 0.930 . S
C257 C256 1.369 1_445 S
C257 C266 1.429 . S
C258 C256 1.419 . S
C258 C259 1.363 . S
C258 H261 0.929 . S
C259 C258 1.363 . S
C259 C265 1.428 1_655 S
H260 C256 0.930 . S
H261 C258 0.929 . S
S262 N263 1.613 . S
S262 N264 1.610 1_545 S
N263 S262 1.613 . S
N263 C266 1.350 . S
N264 S262 1.610 1_565 S
N264 C265 1.351 . S
C265 C259 1.428 1_455 S
C265 N264 1.351 . S
C265 C266 1.434 1_565 S
C266 C257 1.429 . S
C266 N263 1.350 . S
C266 C265 1.434 1_545 S
C267 C268 1.369 . S
C267 C269 1.419 . S
C267 H271 0.930 . S
C268 C267 1.369 . S
C268 C277 1.429 . S
C269 C267 1.419 . S
C269 C270 1.363 . S
C269 H272 0.929 . S
C270 C269 1.363 . S
C270 C276 1.428 . S
H271 C267 0.930 . S
H272 C269 0.929 . S
S273 N274 1.613 . S
S273 N275 1.610 . S
N274 S273 1.613 . S
N274 C277 1.350 . S
N275 S273 1.610 . S
N275 C276 1.351 . S
C276 C270 1.428 . S
C276 N275 1.351 . S
C276 C277 1.434 . S
C277 C268 1.429 . S
C277 N274 1.350 . S
C277 C276 1.434 . S
C278 C279 1.369 . S
C278 C280 1.419 . S
C278 H282 0.930 . S
C279 C278 1.369 . S
C279 C288 1.429 . S
C280 C278 1.419 . S
C280 C281 1.363 . S
C280 H283 0.929 . S
C281 C280 1.363 . S
C281 C287 1.428 . S
H282 C278 0.930 . S
H283 C280 0.929 . S
S284 N285 1.613 . S
S284 N286 1.610 . S
N285 S284 1.613 . S
N285 C288 1.350 1_455 S
N286 S284 1.610 . S
N286 C287 1.351 1_455 S
C287 C281 1.428 . S
C287 N286 1.351 1_655 S
C287 C288 1.434 . S
C288 C279 1.429 . S
C288 N285 1.350 1_655 S
C288 C287 1.434 . S
C289 C290 1.369 . S
C289 C291 1.419 1_554 S
C289 H293 0.930 . S
C290 C289 1.369 . S
C290 C299 1.429 . S
C291 C289 1.419 1_556 S
C291 C292 1.363 . S
C291 H294 0.929 . S
C292 C291 1.363 . S
C292 C298 1.428 1_556 S
H293 C289 0.930 . S
H294 C291 0.929 . S
S295 N296 1.613 . S
S295 N297 1.610 1_554 S
N296 S295 1.613 . S
N296 C299 1.350 . S
N297 S295 1.610 1_556 S
N297 C298 1.351 1_556 S
C298 C292 1.428 1_554 S
C298 N297 1.351 1_554 S
C298 C299 1.434 . S
C299 C290 1.429 . S
C299 N296 1.350 . S
C299 C298 1.434 . S
C125 C1 1.466 . S
C127 C27 1.457 . S
C136 C58 1.504 . S
C138 C32 1.497 . S
C147 C89 1.468 . S
C149 C63 1.475 . S
C158 C120 1.510 . S
C160 C94 1.510 . S
C169 C103 1.712 . S
C171 C18 1.756 . S
C180 C31 1.497 . S
C182 C2 1.374 1_545 S
C191 C62 1.518 . S
C193 C41 1.299 . S
C202 C93 1.978 . S
C204 C72 1.762 . S
C213 C10 2.131 1_455 S
C215 C111 2.161 . S
C224 C33 1.656 . S
C226 C0 1.734 . S
C235 C49 1.541 . S
C237 C64 1.615 1_655 S
C246 C80 2.125 . S
C248 C95 2.212 . S
C257 C73 1.370 . S
C259 C11 1.373 . S
C268 C55 0.911 . S
C270 C104 1.054 . S
C279 C86 0.746 . S
C281 C24 0.769 . S
C290 C42 1.034 . S
C292 C117 0.881 . S
