# Generated by pormake.
# Topology wld, (5)-cn, num edge types: 1
# Building blocks:
#     Node 0, Type 0, BuildingBlock: XOMCOT_clean_sbu_0, # of connection points: 5
#     Node 1, Type 0, BuildingBlock: XOMCOT_clean_sbu_0, # of connection points: 5
#     Node 2, Type 0, BuildingBlock: XOMCOT_clean_sbu_0, # of connection points: 5
#     Node 3, Type 0, BuildingBlock: XOMCOT_clean_sbu_0, # of connection points: 5
#     Node 4, Type 0, BuildingBlock: XOMCOT_clean_sbu_0, # of connection points: 5
#     Node 5, Type 0, BuildingBlock: XOMCOT_clean_sbu_0, # of connection points: 5
#     Node 6, Type 0, BuildingBlock: XOMCOT_clean_sbu_0, # of connection points: 5
#     Node 7, Type 0, BuildingBlock: XOMCOT_clean_sbu_0, # of connection points: 5
#     Node 8, Type 0, BuildingBlock: XOMCOT_clean_sbu_0, # of connection points: 5
#     Node 9, Type 0, BuildingBlock: XOMCOT_clean_sbu_0, # of connection points: 5
#     Node 10, Type 0, BuildingBlock: XOMCOT_clean_sbu_0, # of connection points: 5
#     Node 11, Type 0, BuildingBlock: XOMCOT_clean_sbu_0, # of connection points: 5
#     Edge 12, Type (0, 0), BuildingBlock: AJUNOK_clean_linker_0, # of connection points: 2
#     Edge 13, Type (0, 0), BuildingBlock: AJUNOK_clean_linker_0, # of connection points: 2
#     Edge 14, Type (0, 0), BuildingBlock: AJUNOK_clean_linker_0, # of connection points: 2
#     Edge 15, Type (0, 0), BuildingBlock: AJUNOK_clean_linker_0, # of connection points: 2
#     Edge 16, Type (0, 0), BuildingBlock: AJUNOK_clean_linker_0, # of connection points: 2
#     Edge 17, Type (0, 0), BuildingBlock: AJUNOK_clean_linker_0, # of connection points: 2
#     Edge 18, Type (0, 0), BuildingBlock: AJUNOK_clean_linker_0, # of connection points: 2
#     Edge 19, Type (0, 0), BuildingBlock: AJUNOK_clean_linker_0, # of connection points: 2
#     Edge 20, Type (0, 0), BuildingBlock: AJUNOK_clean_linker_0, # of connection points: 2
#     Edge 21, Type (0, 0), BuildingBlock: AJUNOK_clean_linker_0, # of connection points: 2
#     Edge 22, Type (0, 0), BuildingBlock: AJUNOK_clean_linker_0, # of connection points: 2
#     Edge 23, Type (0, 0), BuildingBlock: AJUNOK_clean_linker_0, # of connection points: 2
#     Edge 24, Type (0, 0), BuildingBlock: AJUNOK_clean_linker_0, # of connection points: 2
#     Edge 25, Type (0, 0), BuildingBlock: AJUNOK_clean_linker_0, # of connection points: 2
#     Edge 26, Type (0, 0), BuildingBlock: AJUNOK_clean_linker_0, # of connection points: 2
#     Edge 27, Type (0, 0), BuildingBlock: AJUNOK_clean_linker_0, # of connection points: 2
#     Edge 28, Type (0, 0), BuildingBlock: AJUNOK_clean_linker_0, # of connection points: 2
#     Edge 29, Type (0, 0), BuildingBlock: AJUNOK_clean_linker_0, # of connection points: 2
#     Edge 30, Type (0, 0), BuildingBlock: AJUNOK_clean_linker_0, # of connection points: 2
#     Edge 31, Type (0, 0), BuildingBlock: AJUNOK_clean_linker_0, # of connection points: 2
#     Edge 32, Type (0, 0), BuildingBlock: AJUNOK_clean_linker_0, # of connection points: 2
#     Edge 33, Type (0, 0), BuildingBlock: AJUNOK_clean_linker_0, # of connection points: 2
#     Edge 34, Type (0, 0), BuildingBlock: AJUNOK_clean_linker_0, # of connection points: 2
#     Edge 35, Type (0, 0), BuildingBlock: AJUNOK_clean_linker_0, # of connection points: 2
#     Edge 36, Type (0, 0), BuildingBlock: AJUNOK_clean_linker_0, # of connection points: 2
#     Edge 37, Type (0, 0), BuildingBlock: AJUNOK_clean_linker_0, # of connection points: 2
#     Edge 38, Type (0, 0), BuildingBlock: AJUNOK_clean_linker_0, # of connection points: 2
#     Edge 39, Type (0, 0), BuildingBlock: AJUNOK_clean_linker_0, # of connection points: 2
#     Edge 40, Type (0, 0), BuildingBlock: AJUNOK_clean_linker_0, # of connection points: 2
#     Edge 41, Type (0, 0), BuildingBlock: AJUNOK_clean_linker_0, # of connection points: 2
# Relax obj value: 0.215
# Max RMSD: 0.220
# Mean RMSD: 0.220
data_MOF--net-wld--node1-XOMCOT_clean_sbu_0--edge1-AJUNOK_clean_linker_0
_symmetry_space_group_name_H-M    P1
_symmetry_Int_Tables_number       1
_symmetry_cell_setting            triclinic
loop_
_symmetry_equiv_pos_as_xyz
'x, y, z'
_cell_length_a     28.957398
_cell_length_b     29.034709
_cell_length_c     39.561228
_cell_angle_alpha  89.967623
_cell_angle_beta   89.989234
_cell_angle_gamma 120.08297
loop_
_atom_site_label
_atom_site_type_symbol
_atom_site_fract_x
_atom_site_fract_y
_atom_site_fract_z
_atom_type_partial_charge
Co0 Co 0.40298 0.25254 0.0859 0.0
C1 C 0.33295 0.2901 0.05435 0.0
C2 C 0.41559 0.3383 0.04129 0.0
C3 C 0.3877 0.35883 0.02543 0.0
N4 N 0.3818 0.29639 0.06055 0.0
N5 N 0.33595 0.32857 0.03379 0.0
H6 H 0.29574 0.25776 0.06352 0.0
H7 H 0.45775 0.35252 0.0384 0.0
C8 C 0.48615 0.36351 0.10636 0.0
O9 O 0.44799 0.37487 0.11099 0.0
N10 N 0.42607 0.20965 0.10946 0.0
C11 C 0.39984 0.17029 0.13213 0.0
C12 C 0.43207 0.14947 0.14055 0.0
C13 C 0.47296 0.2119 0.10405 0.0
N14 N 0.47761 0.17546 0.12249 0.0
C15 C 0.31798 0.23981 0.13007 0.0
C16 C 0.38132 0.28693 0.18607 0.0
C17 C 0.32719 0.27123 0.18748 0.0
C18 C 0.29497 0.24639 0.15941 0.0
C19 C 0.40273 0.28023 0.15611 0.0
N20 N 0.37182 0.26006 0.12783 0.0
H21 H 0.29222 0.21738 0.1095 0.0
H22 H 0.44424 0.29106 0.15583 0.0
H23 H 0.3601 0.15733 0.14154 0.0
H24 H 0.50303 0.23971 0.0868 0.0
O25 O 0.34256 0.18844 0.06825 0.0
O26 O 0.42199 0.2329 0.04394 0.0
O27 O 0.47466 0.31713 0.09634 0.0
C28 C 0.3741 0.19166 0.04372 0.0
H29 H 0.40382 0.39248 0.00832 0.0
H30 H 0.42241 0.11709 0.15796 0.0
H31 H 0.40695 0.30487 0.20779 0.0
H32 H 0.25249 0.232 0.16023 0.0
Co33 Co 0.75263 0.14453 0.09133 0.0
C34 C 0.72155 0.0384 0.06083 0.0
C35 C 0.67188 0.07009 0.04519 0.0
C36 C 0.65281 0.0211 0.03055 0.0
N37 N 0.71446 0.08078 0.06445 0.0
N38 N 0.68389 1.00124 0.04031 0.0
H39 H 0.75275 0.03448 0.07319 0.0
H40 H 0.65576 0.09625 0.04189 0.0
C41 C 0.66561 0.1547 0.12548 0.0
O42 O 0.6909 0.16296 0.15435 0.0
N43 N 0.78963 0.21096 0.11729 0.0
C44 C 0.80457 0.22054 0.1501 0.0
C45 C 0.81983 0.27254 0.15765 0.0
C46 C 0.79671 0.25793 0.10569 0.0
N47 N 0.81439 0.29607 0.12975 0.0
C48 C 0.78569 0.10424 0.1471 0.0
C49 C 0.68448 0.0359 0.17179 0.0
C50 C 0.72883 0.04497 0.19105 0.0
C51 C 0.77996 0.07805 0.17784 0.0
C52 C 0.6921 0.06363 0.1415 0.0
N53 N 0.74224 0.10051 0.131 0.0
H54 H 0.82534 0.13081 0.13753 0.0
H55 H 0.65754 0.05651 0.12699 0.0
H56 H 0.80092 0.19178 0.16862 0.0
H57 H 0.78786 0.26356 0.0801 0.0
O58 O 0.82072 0.1546 0.07569 0.0
O59 O 0.77389 0.18563 0.05024 0.0
O60 O 0.68367 0.14438 0.09883 0.0
C61 C 0.81724 0.18277 0.05122 0.0
H62 H 0.61906 1.00169 0.01356 0.0
H63 H 0.83102 0.29052 0.18245 0.0
H64 H 0.64432 0.00927 0.18072 0.0
H65 H 0.81513 0.08464 0.19157 0.0
Co66 Co 0.85787 0.60565 0.09059 0.0
C67 C 0.9619 0.67895 0.058 0.0
C68 C 0.92755 0.59835 0.04022 0.0
C69 C 0.97415 0.6295 0.02274 0.0
N70 N 0.91999 0.62927 0.0623 0.0
N71 N 0.99553 0.67981 0.03403 0.0
H72 H 0.967 0.71366 0.07143 0.0
H73 H 0.90028 0.5563 0.03647 0.0
C74 C 0.84488 0.50876 0.12546 0.0
O75 O 0.83863 0.52816 0.15397 0.0
N76 N 0.79326 0.57985 0.11762 0.0
C77 C 0.77669 0.60677 0.13734 0.0
C78 C 0.72316 0.57461 0.14422 0.0
C79 C 0.74893 0.53214 0.11235 0.0
N80 N 0.70577 0.5277 0.12842 0.0
C81 C 0.90527 0.67944 0.1464 0.0
C82 C 0.96999 0.64088 0.1683 0.0
C83 C 0.96535 0.67798 0.18858 0.0
C84 C 0.93381 0.69871 0.17662 0.0
C85 C 0.94028 0.62241 0.13856 0.0
N86 N 0.90484 0.63828 0.1295 0.0
H87 H 0.8835 0.69766 0.13668 0.0
H88 H 0.94499 0.59429 0.12319 0.0
H89 H 0.79953 0.6481 0.14411 0.0
H90 H 0.74735 0.50314 0.09453 0.0
O91 O 0.84974 0.66477 0.07505 0.0
O92 O 0.81378 0.58542 0.05098 0.0
O93 O 0.85498 0.53535 0.098 0.0
C94 C 0.81907 0.63256 0.05146 0.0
H95 H 0.99067 0.61657 1.0028 0.0
H96 H 0.69827 0.58602 0.15814 0.0
H97 H 0.99592 0.62568 0.17558 0.0
H98 H 0.92994 0.72846 0.19081 0.0
Co99 Co 0.25682 0.39916 0.41976 0.0
C100 C 0.2944 0.33723 0.46074 0.0
C101 C 0.35564 0.39593 0.42891 0.0
C102 C 0.37671 0.37023 0.44658 0.0
N103 N 0.30397 0.37545 0.43758 0.0
N104 N 0.33857 0.33388 0.46696 0.0
H105 H 0.25656 0.31311 0.47334 0.0
H106 H 0.3773 0.42781 0.41114 0.0
C107 C 0.32837 0.50874 0.39088 0.0
O108 O 0.29365 0.49875 0.3666 0.0
N109 N 0.20955 0.42299 0.40267 0.0
C110 C 0.16594 0.39654 0.38307 0.0
C111 C 0.14004 0.42541 0.38149 0.0
C112 C 0.2087 0.46666 0.41338 0.0
N113 N 0.16697 0.46959 0.4006 0.0
C114 C 0.22336 0.32423 0.36463 0.0
C115 C 0.31093 0.38235 0.32355 0.0
C116 C 0.27029 0.33309 0.31223 0.0
C117 C 0.22637 0.30328 0.33331 0.0
C118 C 0.30685 0.4013 0.35503 0.0
N119 N 0.26266 0.37343 0.37496 0.0
H120 H 0.18926 0.30058 0.38057 0.0
H121 H 0.34071 0.43778 0.36315 0.0
H122 H 0.15242 0.35811 0.3717 0.0
H123 H 0.23898 0.49597 0.42976 0.0
O124 O 0.19418 0.33616 0.43711 0.0
O125 O 0.24061 0.41193 0.46482 0.0
O126 O 0.32092 0.47265 0.41236 0.0
C127 C 0.19881 0.36455 0.46375 0.0
H128 H 0.41714 0.37766 0.44441 0.0
H129 H 0.10335 0.4139 0.36797 0.0
H130 H 0.34652 0.40555 0.30847 0.0
H131 H 0.19466 0.26436 0.3256 0.0
Co132 Co 0.6158 0.86052 0.42905 0.0
C133 C 0.6925 0.967 0.45769 0.0
C134 C 0.61121 0.9392 0.47245 0.0
C135 C 0.6428 0.98889 0.48599 0.0
N136 N 0.64212 0.92574 0.4544 0.0
N137 N 0.69362 0.00624 0.47666 0.0
H138 H 0.72718 0.96865 0.44612 0.0
H139 H 0.56854 0.91458 0.47561 0.0
C140 C 0.52053 0.85204 0.39314 0.0
O141 O 0.53892 0.84333 0.36493 0.0
N142 N 0.58713 0.79296 0.40514 0.0
C143 C 0.61312 0.76799 0.39407 0.0
C144 C 0.57637 0.71599 0.38621 0.0
C145 C 0.53515 0.75456 0.40538 0.0
N146 N 0.5274 0.70798 0.39309 0.0
C147 C 0.68084 0.89225 0.36846 0.0
C148 C 0.65597 0.96839 0.34825 0.0
C149 C 0.68535 0.95487 0.3264 0.0
C150 C 0.69883 0.91717 0.33709 0.0
C151 C 0.63801 0.9418 0.37912 0.0
N152 N 0.64784 0.90197 0.38803 0.0
H153 H 0.6936 0.86525 0.37686 0.0
H154 H 0.61453 0.95204 0.3954 0.0
H155 H 0.65573 0.78411 0.39464 0.0
H156 H 0.50388 0.75898 0.41712 0.0
O157 O 0.67439 0.85222 0.44545 0.0
O158 O 0.59593 0.82072 0.47059 0.0
O159 O 0.54689 0.86059 0.42061 0.0
C160 C 0.64256 0.82435 0.47004 0.0
H161 H 0.62969 0.01055 0.50185 0.0
H162 H 0.5851 0.68569 0.37779 0.0
H163 H 0.64546 0.99798 0.34106 0.0
H164 H 0.72311 0.90713 0.32133 0.0
Co165 Co 0.15548 0.75513 0.42715 0.0
C166 C 0.04588 0.72148 0.4562 0.0
C167 C 0.08143 0.67711 0.47491 0.0
C168 C 0.03273 0.65797 0.49012 0.0
N169 N 0.08932 0.71569 0.45267 0.0
N170 N 0.01046 0.68579 0.47842 0.0
H171 H 0.04037 0.75145 0.44382 0.0
H172 H 0.10987 0.66433 0.48033 0.0
C173 C 0.12191 0.64144 0.41318 0.0
O174 O 0.07459 0.63349 0.4047 0.0
N175 N 0.22265 0.79358 0.40361 0.0
C176 C 0.23734 0.83157 0.37976 0.0
C177 C 0.29033 0.85055 0.37187 0.0
C178 C 0.26653 0.79036 0.41024 0.0
N179 N 0.30853 0.8249 0.39136 0.0
C180 C 0.08601 0.76388 0.37772 0.0
C181 C 0.10591 0.71128 0.32654 0.0
C182 C 0.06944 0.72859 0.32064 0.0
C183 C 0.06038 0.75629 0.34641 0.0
C184 C 0.13105 0.72033 0.35786 0.0
N185 N 0.11856 0.74333 0.38381 0.0
H186 H 0.08085 0.78758 0.39662 0.0
H187 H 0.16108 0.70905 0.36108 0.0
H188 H 0.21165 0.84505 0.36929 0.0
H189 H 0.26767 0.76344 0.42872 0.0
O190 O 0.1617 0.82245 0.44025 0.0
O191 O 0.19343 0.77919 0.46927 0.0
O192 O 0.15897 0.6876 0.42224 0.0
C193 C 0.18904 0.82141 0.46615 0.0
H194 H 0.01556 0.62712 0.50922 0.0
H195 H 0.31408 0.88178 0.35394 0.0
H196 H 0.11559 0.69158 0.30684 0.0
H197 H 0.03361 0.77169 0.34246 0.0
Co198 Co 0.60356 0.7495 0.9275 0.0
C199 C 0.67396 0.71226 0.95937 0.0
C200 C 0.59122 0.66411 0.97216 0.0
C201 C 0.61901 0.64424 0.98879 0.0
N202 N 0.62504 0.70546 0.9525 0.0
N203 N 0.67084 0.67443 0.98067 0.0
H204 H 0.71123 0.74481 0.95037 0.0
H205 H 0.54912 0.65013 0.97508 0.0
C206 C 0.5213 0.63875 0.90764 0.0
O207 O 0.56025 0.62866 0.90268 0.0
N208 N 0.58025 0.79298 0.90461 0.0
C209 C 0.61048 0.83855 0.8876 0.0
C210 C 0.58 0.86182 0.88098 0.0
C211 C 0.53211 0.78905 0.90814 0.0
N212 N 0.5305 0.83052 0.89381 0.0
C213 C 0.6852 0.75796 0.88116 0.0
C214 C 0.6184 0.71563 0.82597 0.0
C215 C 0.67202 0.72961 0.82254 0.0
C216 C 0.70577 0.75162 0.85055 0.0
C217 C 0.59962 0.72265 0.85692 0.0
N218 N 0.6321 0.74077 0.88467 0.0
H219 H 0.7124 0.77814 0.9016 0.0
H220 H 0.55864 0.71348 0.85844 0.0
H221 H 0.6525 0.8552 0.8822 0.0
H222 H 0.49969 0.75752 0.92228 0.0
O223 O 0.66548 0.81327 0.9441 0.0
O224 O 0.58721 0.77062 0.97002 0.0
O225 O 0.53152 0.68472 0.91791 0.0
C226 C 0.63567 0.8111 0.9694 0.0
H227 H 0.6028 0.61126 1.00643 0.0
H228 H 0.59461 0.90057 0.86962 0.0
H229 H 0.59085 0.69878 0.80501 0.0
H230 H 0.74789 0.76469 0.84864 0.0
Co231 Co 0.25077 0.85536 0.92419 0.0
C232 C 0.28871 0.96499 0.95326 0.0
C233 C 0.33499 0.92981 0.96888 0.0
C234 C 0.35604 0.97883 0.98378 0.0
N235 N 0.29405 0.92163 0.9486 0.0
N236 N 0.32711 1.00088 0.97383 0.0
H237 H 0.25698 0.97001 0.9431 0.0
H238 H 0.34804 0.90137 0.97334 0.0
C239 C 0.36211 0.88188 0.90681 0.0
O240 O 0.37216 0.92994 0.89869 0.0
N241 N 0.2086 0.78801 0.90185 0.0
C242 C 0.17279 0.77417 0.87666 0.0
C243 C 0.15165 0.72053 0.87025 0.0
C244 C 0.20805 0.74315 0.91082 0.0
N245 N 0.17416 0.70119 0.89172 0.0
C246 C 0.24486 0.92684 0.87584 0.0
C247 C 0.29132 0.90325 0.82261 0.0
C248 C 0.27821 0.94323 0.81836 0.0
C249 C 0.25338 0.95394 0.84517 0.0
C250 C 0.28222 0.87729 0.85372 0.0
N251 N 0.26234 0.89154 0.88063 0.0
H252 H 0.22286 0.93326 0.89536 0.0
H253 H 0.29125 0.84558 0.85612 0.0
H254 H 0.16252 0.8009 0.86408 0.0
H255 H 0.23056 0.74137 0.93205 0.0
O256 O 0.18571 0.85354 0.93784 0.0
O257 O 0.22658 0.81943 0.96721 0.0
O258 O 0.31596 0.84732 0.91786 0.0
C259 C 0.18591 0.82669 0.96417 0.0
H260 H 0.38892 0.99632 1.00151 0.0
H261 H 0.12196 0.69761 0.8513 0.0
H262 H 0.30917 0.89263 0.80221 0.0
H263 H 0.23999 0.9825 0.84232 0.0
Co264 Co 0.1504 0.39922 0.92701 0.0
C265 C 0.04261 0.32885 0.95935 0.0
C266 C 0.07891 0.41099 0.9735 0.0
C267 C 0.03097 0.38342 0.99001 0.0
N268 N 0.08568 0.37744 0.95321 0.0
N269 N 0.00819 0.33197 0.98101 0.0
H270 H 0.03676 0.2918 0.94934 0.0
H271 H 0.10762 0.45278 0.97675 0.0
C272 C 0.12108 0.48176 0.9089 0.0
O273 O 0.07185 0.44346 0.90335 0.0
N274 N 0.21618 0.42268 0.90262 0.0
C275 C 0.23028 0.39284 0.88399 0.0
C276 C 0.2839 0.4231 0.87634 0.0
C277 C 0.26091 0.47034 0.90604 0.0
N278 N 0.30277 0.47179 0.89009 0.0
C279 C 0.07679 0.31646 0.88157 0.0
C280 C 0.09687 0.38309 0.8268 0.0
C281 C 0.0581 0.32929 0.82365 0.0
C282 C 0.04891 0.29548 0.8513 0.0
C283 C 0.12361 0.40223 0.85736 0.0
N284 N 0.11126 0.3698 0.88498 0.0
H285 H 0.07191 0.28954 0.90176 0.0
H286 H 0.15483 0.4434 0.85861 0.0
H287 H 0.20415 0.3513 0.87795 0.0
H288 H 0.26371 0.50191 0.92196 0.0
O289 O 0.15496 0.33878 0.94371 0.0
O290 O 0.19009 0.41767 0.96842 0.0
O291 O 0.15657 0.47043 0.91798 0.0
C292 C 0.1843 0.3703 0.96798 0.0
H293 H 0.01471 0.39953 0.00809 0.0
H294 H 0.30764 0.40984 0.86283 0.0
H295 H 0.10634 0.4104 0.80582 0.0
H296 H 0.02136 0.25309 0.84934 0.0
Co297 Co 0.75858 0.60655 0.5917 0.0
C298 C 0.72101 0.67726 0.56082 0.0
C299 C 0.67144 0.59477 0.54847 0.0
C300 C 0.65112 0.62284 0.53268 0.0
N301 N 0.71401 0.62828 0.56738 0.0
N302 N 0.68216 0.67453 0.54055 0.0
H303 H 0.75439 0.7143 0.5693 0.0
H304 H 0.65682 0.55267 0.5455 0.0
C305 C 0.64797 0.52384 0.61249 0.0
O306 O 0.63753 0.56234 0.61802 0.0
N307 N 0.80252 0.58316 0.61401 0.0
C308 C 0.84772 0.61294 0.63154 0.0
C309 C 0.87135 0.58267 0.63778 0.0
C310 C 0.79924 0.53555 0.60972 0.0
N311 N 0.84067 0.53381 0.62414 0.0
C312 C 0.76737 0.68777 0.63821 0.0
C313 C 0.72368 0.62079 0.69318 0.0
C314 C 0.73582 0.67378 0.69619 0.0
C315 C 0.75955 0.70788 0.6685 0.0
C316 C 0.73228 0.60249 0.66251 0.0
N317 N 0.75045 0.63488 0.63474 0.0
H318 H 0.78814 0.71504 0.6179 0.0
H319 H 0.72379 0.56182 0.6611 0.0
H320 H 0.86385 0.65453 0.63766 0.0
H321 H 0.76818 0.50364 0.59505 0.0
O322 O 0.82238 0.66827 0.57475 0.0
O323 O 0.77897 0.59025 0.5489 0.0
O324 O 0.6939 0.53458 0.60153 0.0
C325 C 0.81978 0.63844 0.5494 0.0
H326 H 0.61728 0.60688 0.51567 0.0
H327 H 0.90988 0.59699 0.64953 0.0
H328 H 0.70675 0.59333 0.71417 0.0
H329 H 0.77251 0.74985 0.67034 0.0
Co330 Co 0.40638 0.15643 0.58874 0.0
C331 C 0.33377 0.04996 0.55572 0.0
C332 C 0.41355 0.09021 0.53606 0.0
C333 C 0.38481 0.04306 0.51894 0.0
N334 N 0.38229 0.09415 0.55988 0.0
N335 N 0.33487 0.01804 0.5313 0.0
H336 H 0.29814 0.04116 0.56941 0.0
H337 H 0.45466 0.12003 0.53124 0.0
C338 C 0.48943 0.12463 0.59935 0.0
O339 O 0.45117 0.07497 0.60321 0.0
N340 N 0.43195 0.21976 0.61591 0.0
C341 C 0.40315 0.2328 0.63643 0.0
C342 C 0.43423 0.28563 0.6454 0.0
C343 C 0.4799 0.26427 0.61281 0.0
N344 N 0.48243 0.30507 0.6306 0.0
C345 C 0.32482 0.08185 0.63461 0.0
C346 C 0.39435 0.09519 0.68654 0.0
C347 C 0.33985 0.05974 0.69113 0.0
C348 C 0.30472 0.05319 0.66477 0.0
C349 C 0.41263 0.12252 0.65607 0.0
N350 N 0.37847 0.11389 0.62982 0.0
H351 H 0.29706 0.07989 0.61576 0.0
H352 H 0.45442 0.15195 0.65411 0.0
H353 H 0.36159 0.20672 0.64273 0.0
H354 H 0.51061 0.268 0.59558 0.0
O355 O 0.34552 0.16344 0.57516 0.0
O356 O 0.42392 0.19993 0.54909 0.0
O357 O 0.47783 0.16109 0.59423 0.0
C358 C 0.37679 0.1947 0.5514 0.0
H359 H 0.39912 0.02843 0.49866 0.0
H360 H 0.42167 0.30861 0.66037 0.0
H361 H 0.42273 0.1021 0.70649 0.0
H362 H 0.26206 0.02755 0.66789 0.0
Co363 Co 0.8679 0.25776 0.58675 0.0
C364 C 0.97552 0.29005 0.55712 0.0
C365 C 0.95222 0.3486 0.5494 0.0
C366 C 1.00085 0.36626 0.53426 0.0
N367 N 0.937 0.30179 0.56509 0.0
N368 N 0.01538 0.32946 0.53909 0.0
H369 H 0.97375 0.25286 0.56294 0.0
H370 H 0.92859 0.36777 0.54744 0.0
C371 C 0.89331 0.36673 0.60967 0.0
O372 O 0.94 0.3751 0.62009 0.0
N373 N 0.79821 0.21421 0.60651 0.0
C374 C 0.78245 0.17521 0.62968 0.0
C375 C 0.72825 0.15301 0.6346 0.0
C376 C 0.75369 0.21442 0.59708 0.0
N377 N 0.71014 0.17778 0.61407 0.0
C378 C 0.93722 0.24853 0.63565 0.0
C379 C 0.90514 0.28476 0.69041 0.0
C380 C 0.94566 0.27236 0.69494 0.0
C381 C 0.96117 0.25333 0.66715 0.0
C382 C 0.88225 0.27923 0.65855 0.0
N383 N 0.90022 0.26397 0.63116 0.0
H384 H 0.9478 0.23136 0.61514 0.0
H385 H 0.85015 0.28776 0.65588 0.0
H386 H 0.80834 0.16337 0.64184 0.0
H387 H 0.75339 0.23939 0.57693 0.0
O388 O 0.86558 0.19362 0.57066 0.0
O389 O 0.83555 0.23932 0.54265 0.0
O390 O 0.86059 0.32281 0.59525 0.0
C391 C 0.841 0.1975 0.54416 0.0
H392 H 0.02274 0.40217 0.51936 0.0
H393 H 0.70409 0.12095 0.6519 0.0
H394 H 0.89185 0.29963 0.71112 0.0
H395 H 0.99125 0.24183 0.66982 0.0
C396 C 0.58859 0.15537 0.15391 0.0
C397 C 0.61578 0.15726 0.12392 0.0
C398 C 0.54248 0.1597 0.15322 0.0
C399 C 0.52233 0.1668 0.1226 0.0
H400 H 0.60315 0.1508 0.17818 0.0
H401 H 0.52329 0.15906 0.17685 0.0
S402 S 0.57661 0.17198 0.03691 0.0
N403 N 0.61776 0.16519 0.06255 0.0
N404 N 0.53098 0.17283 0.06148 0.0
C405 C 0.54831 0.1677 0.09241 0.0
C406 C 0.59503 0.16301 0.09302 0.0
C407 C 0.85701 0.38921 0.15016 0.0
C408 C 0.82246 0.34949 0.12732 0.0
C409 C 0.86423 0.44073 0.14937 0.0
C410 C 0.83845 0.4551 0.12508 0.0
H411 H 0.87882 0.38058 0.16891 0.0
H412 H 0.89061 0.46972 0.16771 0.0
S413 S 0.74174 0.36711 0.06063 0.0
N414 N 0.7592 0.32857 0.08098 0.0
N415 N 0.77642 0.42642 0.07815 0.0
C416 C 0.80441 0.41659 0.10183 0.0
C417 C 0.79554 0.36357 0.10324 0.0
C418 C 0.61015 0.49832 0.12106 0.0
C419 C 0.65108 0.48587 0.12425 0.0
C420 C 0.55704 0.45851 0.11554 0.0
C421 C 0.54266 0.40459 0.11292 0.0
H422 H 0.6194 0.53933 0.12206 0.0
H423 H 0.52721 0.47033 0.11276 0.0
S424 S 0.63438 0.35064 0.12247 0.0
N425 N 0.67332 0.41566 0.12649 0.0
N426 N 0.57375 0.34072 0.11593 0.0
C427 C 0.58317 0.39151 0.11673 0.0
C428 C 0.63726 0.43214 0.1224 0.0
C429 C 0.12643 0.52169 0.37973 0.0
C430 C 0.15468 0.51179 0.40503 0.0
C431 C 0.11528 0.56323 0.38281 0.0
C432 C 0.13296 0.59723 0.41093 0.0
H433 H 0.11358 0.4978 0.35701 0.0
H434 H 0.09378 0.5696 0.36263 0.0
S435 S 0.2035 0.58627 0.48584 0.0
N436 N 0.19541 0.53721 0.4609 0.0
N437 N 0.17732 0.61726 0.46535 0.0
C438 C 0.16063 0.58783 0.43657 0.0
C439 C 0.1708 0.54464 0.43396 0.0
C440 C 0.47479 0.61104 0.4027 0.0
C441 C 0.4776 0.65851 0.39191 0.0
C442 C 0.42618 0.56282 0.40274 0.0
C443 C 0.37891 0.56023 0.39131 0.0
H444 H 0.51026 0.61142 0.41177 0.0
H445 H 0.42582 0.52727 0.41141 0.0
S446 S 0.36518 0.6736 0.36068 0.0
N447 N 0.42919 0.70024 0.36981 0.0
N448 N 0.33787 0.60952 0.36938 0.0
C449 C 0.38128 0.60743 0.38032 0.0
C450 C 0.4306 0.65661 0.38079 0.0
C451 C 0.44145 0.84562 0.36281 0.0
C452 C 0.467 0.84739 0.3935 0.0
C453 C 0.39007 0.83918 0.3623 0.0
C454 C 0.36198 0.83349 0.39241 0.0
H455 H 0.46113 0.84903 0.33889 0.0
H456 H 0.37165 0.83747 0.33817 0.0
S457 S 0.41104 0.83755 0.47951 0.0
N458 N 0.46018 0.84436 0.45496 0.0
N459 N 0.36388 0.83239 0.45372 0.0
C460 C 0.38708 0.83588 0.42325 0.0
C461 C 0.43952 0.84286 0.42387 0.0
C462 C 0.40943 0.83418 0.92583 0.0
C463 C 0.40408 0.86752 0.90236 0.0
C464 C 0.45047 0.82203 0.92277 0.0
C465 C 0.48722 0.84192 0.89572 0.0
H466 H 0.38259 0.81852 0.94726 0.0
H467 H 0.45397 0.79782 0.94225 0.0
S468 S 0.48494 0.92483 0.82485 0.0
N469 N 0.43591 0.917 0.84989 0.0
N470 N 0.51138 0.89229 0.84312 0.0
C471 C 0.48062 0.87352 0.87129 0.0
C472 C 0.43948 0.88673 0.87485 0.0
C473 C 0.09849 0.55116 0.89115 0.0
C474 C 0.13585 0.53831 0.90425 0.0
C475 C 0.11148 0.60427 0.88668 0.0
C476 C 0.1624 0.64676 0.89504 0.0
H477 H 0.05868 0.52001 0.88443 0.0
H478 H 0.08094 0.612 0.87724 0.0
S479 S 0.27515 0.63475 0.92975 0.0
N480 N 0.22605 0.57283 0.92578 0.0
N481 N 0.25116 0.67206 0.91576 0.0
C482 C 0.20045 0.63443 0.90761 0.0
C483 C 0.18702 0.58044 0.9126 0.0
C484 C 0.45071 0.54261 0.9053 0.0
C485 C 0.46543 0.59649 0.90158 0.0
C486 C 0.39766 0.5019 0.90076 0.0
C487 C 0.35756 0.51367 0.89227 0.0
H488 H 0.48014 0.53181 0.91252 0.0
H489 H 0.38762 0.46103 0.9048 0.0
S490 S 0.37665 0.6474 0.87448 0.0
N491 N 0.43647 0.6589 0.88556 0.0
N492 N 0.33683 0.58225 0.87706 0.0
C493 C 0.37201 0.5671 0.88729 0.0
C494 C 0.42595 0.60855 0.89192 0.0
C495 C 0.83432 0.45591 0.59392 0.0
C496 C 0.85257 0.49101 0.62175 0.0
C497 C 0.84681 0.41524 0.59049 0.0
C498 C 0.87882 0.40854 0.61444 0.0
H499 H 0.81111 0.46044 0.57414 0.0
H500 H 0.83239 0.38971 0.56846 0.0
S501 S 0.9317 0.48513 0.69383 0.0
N502 N 0.90011 0.51244 0.67536 0.0
N503 N 0.92532 0.43754 0.6681 0.0
C504 C 0.89642 0.44238 0.6427 0.0
C505 C 0.88293 0.48321 0.64654 0.0
C506 C 0.55193 0.45315 0.61776 0.0
C507 C 0.60622 0.46786 0.61886 0.0
C508 C 0.51161 0.40009 0.62257 0.0
C509 C 0.52414 0.35988 0.62859 0.0
H510 H 0.5404 0.48259 0.61237 0.0
H511 H 0.47034 0.39013 0.62047 0.0
S512 S 0.65961 0.37855 0.639 0.0
N513 N 0.67011 0.43854 0.62989 0.0
N514 N 0.59416 0.33887 0.63868 0.0
C515 C 0.57808 0.37425 0.63097 0.0
C516 C 0.61915 0.42823 0.62617 0.0
C517 C 0.61293 0.11395 0.61707 0.0
C518 C 0.65543 0.16554 0.61006 0.0
C519 C 0.55957 0.10098 0.61332 0.0
C520 C 0.54631 0.13899 0.6023 0.0
H521 H 0.6208 0.08296 0.62519 0.0
H522 H 0.52853 0.06079 0.61927 0.0
S523 S 0.64227 0.27952 0.57952 0.0
N524 N 0.68011 0.25508 0.59175 0.0
N525 N 0.58031 0.23009 0.58315 0.0
C526 C 0.58835 0.19056 0.59472 0.0
C527 C 0.64268 0.20396 0.59894 0.0
C528 C 0.30776 0.10134 0.02141 0.0
C529 C 0.35922 0.14671 0.02006 0.0
C530 C 0.29591 0.05441 1.00407 0.0
C531 C 0.33528 0.05134 0.98516 0.0
H532 H 0.27713 0.10114 0.03723 0.0
H533 H 0.25693 0.01938 1.00717 0.0
S534 S 0.47364 0.15977 0.9698 0.0
N535 N 0.44802 0.18649 0.99503 0.0
N536 N 0.42546 0.09795 0.96328 0.0
C537 C 0.38555 0.09705 0.98185 0.0
C538 C 0.39758 0.1449 0.99905 0.0
C539 C 0.90864 0.21021 0.02846 0.0
C540 C 0.86309 0.21599 0.02857 0.0
C541 C 0.95531 0.2464 0.01102 0.0
C542 C 0.95811 0.2899 0.9936 0.0
H543 H 0.90891 0.17862 0.04288 0.0
H544 H 0.99029 0.24209 0.01264 0.0
S545 S 0.84955 0.32098 0.98346 0.0
N546 N 0.82324 0.26697 1.00724 0.0
N547 N 0.91117 0.33495 0.97536 0.0
C548 C 0.91241 0.29478 0.99221 0.0
C549 C 0.8648 0.25779 0.00943 0.0
C550 C 0.79046 0.69638 0.03058 0.0
C551 C 0.78641 0.64595 0.02891 0.0
C552 C 0.7545 0.70693 0.01299 0.0
C553 C 0.71313 0.66721 0.99355 0.0
H554 H 0.82028 0.72728 0.04653 0.0
H555 H 0.75721 0.74528 0.01599 0.0
S556 S 0.68775 0.53085 0.97795 0.0
N557 N 0.73976 0.5575 1.00353 0.0
N558 N 0.67223 0.57761 0.97141 0.0
C559 C 0.71019 0.61781 0.99035 0.0
C560 C 0.74686 0.60712 0.00776 0.0
C561 C 0.11188 0.37932 0.52895 0.0
C562 C 0.06268 0.33216 0.52539 0.0
C563 C 0.15696 0.3874 0.51096 0.0
C564 C 0.15438 0.34895 0.48813 0.0
H565 H 0.11483 0.41111 0.54478 0.0
H566 H 0.1932 0.42556 0.51352 0.0
S567 S 0.0354 0.21648 0.47204 0.0
N568 N 0.01448 0.24476 0.4996 0.0
N569 N 0.09906 0.25986 0.46518 0.0
C570 C 0.10603 0.30015 0.48589 0.0
C571 C 0.06017 0.29177 0.50465 0.0
C572 C 0.70576 0.79529 0.49156 0.0
C573 C 0.65534 0.79165 0.49299 0.0
C574 C 0.7157 0.75882 0.50894 0.0
C575 C 0.67534 0.71718 0.52791 0.0
H576 H 0.73715 0.8252 0.47588 0.0
H577 H 0.75409 0.76134 0.50607 0.0
S578 S 0.53869 0.69272 0.54289 0.0
N579 N 0.56622 0.74516 0.51774 0.0
N580 N 0.5851 0.67659 0.5495 0.0
C581 C 0.62593 0.71466 0.53096 0.0
C582 C 0.61589 0.75195 0.51377 0.0
C583 C 0.25129 0.96301 0.49988 0.0
C584 C 0.29271 0.96701 0.52038 0.0
C585 C 0.21578 0.91479 0.48376 0.0
C586 C 0.22045 0.869 0.48786 0.0
H587 H 0.2482 0.99805 0.49493 0.0
H588 H 0.18593 0.91405 0.46693 0.0
S589 S 0.32035 0.85919 0.54178 0.0
N590 N 0.33494 0.92168 0.54568 0.0
N591 N 0.26821 0.83077 0.51633 0.0
C592 C 0.26019 0.87226 0.50999 0.0
C593 C 0.29641 0.9214 0.52594 0.0
C594 C 0.62575 0.90555 0.03076 0.0
C595 C 0.67683 0.95093 0.02934 0.0
C596 C 0.61399 0.85896 0.01333 0.0
C597 C 0.65271 0.85627 0.99324 0.0
H598 H 0.59394 0.90717 0.04412 0.0
H599 H 0.57329 0.82607 0.01397 0.0
S600 S 0.79427 0.96293 0.98415 0.0
N601 N 0.76765 0.98923 0.00895 0.0
N602 N 0.7459 0.90183 0.97568 0.0
C603 C 0.70502 0.90035 0.99344 0.0
C604 C 0.71702 0.94767 0.01163 0.0
C605 C 0.04051 0.74717 0.98983 0.0
C606 C 0.04271 0.72472 0.02077 0.0
C607 C 0.0874 0.78357 0.97287 0.0
C608 C 0.13808 0.79778 0.98598 0.0
H609 H 1.00225 0.73445 0.978 0.0
H610 H 0.08375 0.7979 0.94828 0.0
S611 S 0.16434 0.75275 0.06785 0.0
N612 N 0.09855 0.72158 0.06515 0.0
N613 N 0.18711 0.78936 0.03326 0.0
C614 C 0.14051 0.77739 0.01781 0.0
C615 C 0.09267 0.7409 0.03519 0.0
C616 C 0.21283 0.30627 0.98813 0.0
C617 C 0.21724 0.35682 0.99012 0.0
C618 C 0.25012 0.296 1.00414 0.0
C619 C 0.29331 0.33618 0.02215 0.0
H620 H 0.18173 0.27509 0.97299 0.0
H621 H 0.2469 0.25747 1.00093 0.0
S622 S 0.3202 0.47291 0.03839 0.0
N623 N 0.26605 0.44579 0.01464 0.0
N624 N 0.33618 0.42623 0.04373 0.0
C625 C 0.29663 0.38569 0.02586 0.0
C626 C 0.25851 0.39605 0.01015 0.0
C627 C 0.91498 0.62713 0.48914 0.0
C628 C 0.95997 0.67844 0.48959 0.0
C629 C 0.86822 0.61565 0.50647 0.0
C630 C 0.86505 0.65489 0.52557 0.0
H631 H 0.91703 0.59508 0.47656 0.0
H632 H 0.83562 0.57484 0.50657 0.0
S633 S 0.97083 0.79689 0.53219 0.0
N634 N 0.99755 0.7698 0.50817 0.0
N635 N 0.90991 0.74853 0.54138 0.0
C636 C 0.90885 0.70724 0.52455 0.0
C637 C 0.95629 0.71897 0.5064 0.0
C638 C 0.31499 0.21201 0.51561 0.0
C639 C 0.36438 0.23045 0.53186 0.0
C640 C 0.30576 0.24638 0.49514 0.0
C641 C 0.34542 0.30015 0.49079 0.0
H642 H 0.28423 0.17058 0.51776 0.0
H643 H 0.26824 0.23047 0.48174 0.0
S644 S 0.47725 0.36952 0.53345 0.0
N645 N 0.45067 0.30688 0.54546 0.0
N646 N 0.43262 0.37139 0.50844 0.0
C647 C 0.3934 0.31944 0.50886 0.0
C648 C 0.40304 0.28458 0.52902 0.0
C649 C 0.81361 0.10477 0.52512 0.0
C650 C 0.81206 0.15217 0.52044 0.0
C651 C 0.77748 0.05753 0.50836 0.0
C652 C 0.73858 0.05618 0.48658 0.0
H653 H 0.84073 0.10326 0.54334 0.0
H654 H 0.77739 0.02106 0.51427 0.0
S655 S 0.72205 0.1699 0.46168 0.0
N656 N 0.77193 0.19544 0.48893 0.0
N657 N 0.70383 0.10635 0.4583 0.0
C658 C 0.73912 0.10378 0.47974 0.0
C659 C 0.77603 0.15192 0.49639 0.0
C660 C 0.2805 0.26672 0.27755 0.0
C661 C 0.27615 0.3128 0.27917 0.0
C662 C 0.29535 0.25216 0.24735 0.0
C663 C 0.30532 0.28279 0.21787 0.0
H664 H 0.27502 0.24339 0.30013 0.0
H665 H 0.30055 0.21772 0.24724 0.0
S666 S 0.29577 0.40457 0.20837 0.0
N667 N 0.28051 0.38733 0.24839 0.0
N668 N 0.30747 0.35932 0.19157 0.0
C669 C 0.29877 0.32742 0.2188 0.0
C670 C 0.28437 0.3426 0.24951 0.0
C671 C 0.69133 0.96708 0.23071 0.0
C672 C 0.7215 0.02239 0.22555 0.0
C673 C 0.6813 0.94547 0.26346 0.0
C674 C 0.70008 0.97853 0.29212 0.0
H675 H 0.67512 0.94044 0.20929 0.0
H676 H 0.65739 0.90269 0.26644 0.0
S677 S 0.78099 0.12579 0.29215 0.0
N678 N 0.77064 0.10965 0.25171 0.0
N679 N 0.7508 0.06904 0.31324 0.0
C680 C 0.73054 0.0338 0.28727 0.0
C681 C 0.74155 0.05573 0.25397 0.0
C682 C 0.98904 0.65265 0.24375 0.0
C683 C 0.99165 0.69279 0.22242 0.0
C684 C 0.01362 0.66467 0.27555 0.0
C685 C 0.04143 0.71726 0.2876 0.0
H686 H 0.96754 0.61137 0.23587 0.0
H687 H 0.01078 0.63244 0.29092 0.0
S688 S 0.06234 0.83746 0.24157 0.0
N689 N 0.02616 0.78784 0.21546 0.0
N690 N 0.07135 0.81007 0.27568 0.0
C691 C 0.04414 0.75784 0.26685 0.0
C692 C 0.01949 0.7457 0.2342 0.0
C693 C 0.73613 0.67945 0.75962 0.0
C694 C 0.72337 0.69271 0.72807 0.0
C695 C 0.72102 0.69318 0.79002 0.0
C696 C 0.69213 0.72029 0.79009 0.0
H697 H 0.75748 0.65771 0.76084 0.0
H698 H 0.73054 0.68092 0.81364 0.0
S699 S 0.65119 0.76671 0.71445 0.0
N700 N 0.68152 0.73605 0.6989 0.0
N701 N 0.65407 0.76267 0.75596 0.0
C702 C 0.68053 0.73521 0.75877 0.0
C703 C 0.696 0.72134 0.72783 0.0
C704 C 0.27628 0.94676 0.75491 0.0
C705 C 0.29072 0.97361 0.78615 0.0
C706 C 0.29045 0.97491 0.7242 0.0
C707 C 0.32026 0.03085 0.72368 0.0
H708 H 0.25419 0.90366 0.75421 0.0
H709 H 0.27952 0.95276 0.70072 0.0
S710 S 0.36656 0.11997 0.79837 0.0
N711 N 0.33539 0.05936 0.81454 0.0
N712 N 0.36187 0.11211 0.75694 0.0
C713 C 0.33394 0.05813 0.7547 0.0
C714 C 0.31917 0.02957 0.78589 0.0
C715 C 0.05635 0.32391 0.76039 0.0
C716 C 0.02848 0.30928 0.7913 0.0
C717 C 0.02924 0.31013 0.72941 0.0
C718 C 0.97315 0.28146 0.72809 0.0
H719 H 0.09955 0.34701 0.76014 0.0
H720 H 0.05241 0.32368 0.70632 0.0
S721 S 0.88146 0.23052 0.80169 0.0
N722 N 0.94165 0.26257 0.81863 0.0
N723 N 0.89067 0.23583 0.76036 0.0
C724 C 0.9448 0.26492 0.75877 0.0
C725 C 0.97245 0.27889 0.79035 0.0
loop_
_geom_bond_atom_site_label_1
_geom_bond_atom_site_label_2
_geom_bond_distance
_geom_bond_site_symmetry_2
_ccdc_geom_bond_type
Co0 N4 2.148 . S
Co0 N10 2.128 . S
Co0 N20 2.194 . S
Co0 O25 2.351 . S
Co0 O26 2.155 . S
Co0 O27 2.096 . S
C1 N4 1.301 . S
C1 N5 1.328 . S
C1 H6 0.930 . S
C2 C3 1.333 . S
C2 N4 1.317 . S
C2 H7 0.930 . S
C3 C2 1.333 . S
C3 N5 1.350 . S
C3 H29 0.931 . S
N4 Co0 2.148 . S
N4 C1 1.301 . S
N4 C2 1.317 . S
N5 C1 1.328 . S
N5 C3 1.350 . S
H6 C1 0.930 . S
H7 C2 0.930 . S
C8 O9 1.224 . S
C8 O27 1.247 . S
O9 C8 1.224 . S
N10 Co0 2.128 . S
N10 C11 1.355 . S
N10 C13 1.311 . S
C11 N10 1.355 . S
C11 C12 1.363 . S
C11 H23 0.929 . S
C12 C11 1.363 . S
C12 N14 1.375 . S
C12 H30 0.931 . S
C13 N10 1.311 . S
C13 N14 1.347 . S
C13 H24 0.929 . S
N14 C12 1.375 . S
N14 C13 1.347 . S
C15 C18 1.365 . S
C15 N20 1.328 . S
C15 H21 0.929 . S
C16 C17 1.362 . S
C16 C19 1.378 . S
C16 H31 0.929 . S
C17 C16 1.362 . S
C17 C18 1.366 . S
C18 C15 1.365 . S
C18 C17 1.366 . S
C18 H32 0.930 . S
C19 C16 1.378 . S
C19 N20 1.315 . S
C19 H22 0.930 . S
N20 Co0 2.194 . S
N20 C15 1.328 . S
N20 C19 1.315 . S
H21 C15 0.929 . S
H22 C19 0.930 . S
H23 C11 0.929 . S
H24 C13 0.929 . S
O25 Co0 2.351 . S
O25 C28 1.244 . S
O26 Co0 2.155 . S
O26 C28 1.240 . S
O27 Co0 2.096 . S
O27 C8 1.247 . S
C28 O25 1.244 . S
C28 O26 1.240 . S
H29 C3 0.931 . S
H30 C12 0.931 . S
H31 C16 0.929 . S
H32 C18 0.930 . S
Co33 N37 2.148 . S
Co33 N43 2.128 . S
Co33 N53 2.194 . S
Co33 O58 2.351 . S
Co33 O59 2.155 . S
Co33 O60 2.096 . S
C34 N37 1.301 . S
C34 N38 1.328 . S
C34 H39 0.930 . S
C35 C36 1.333 . S
C35 N37 1.317 . S
C35 H40 0.930 . S
C36 C35 1.333 . S
C36 N38 1.350 . S
C36 H62 0.931 1_545 S
N37 Co33 2.148 . S
N37 C34 1.301 . S
N37 C35 1.317 . S
N38 C34 1.328 . S
N38 C36 1.350 . S
H39 C34 0.930 . S
H40 C35 0.930 . S
C41 O42 1.224 . S
C41 O60 1.247 . S
O42 C41 1.224 . S
N43 Co33 2.128 . S
N43 C44 1.355 . S
N43 C46 1.311 . S
C44 N43 1.355 . S
C44 C45 1.363 . S
C44 H56 0.929 . S
C45 C44 1.363 . S
C45 N47 1.375 . S
C45 H63 0.931 . S
C46 N43 1.311 . S
C46 N47 1.347 . S
C46 H57 0.929 . S
N47 C45 1.375 . S
N47 C46 1.347 . S
C48 C51 1.365 . S
C48 N53 1.328 . S
C48 H54 0.929 . S
C49 C50 1.362 . S
C49 C52 1.378 . S
C49 H64 0.929 . S
C50 C49 1.362 . S
C50 C51 1.366 . S
C51 C48 1.365 . S
C51 C50 1.366 . S
C51 H65 0.930 . S
C52 C49 1.378 . S
C52 N53 1.315 . S
C52 H55 0.930 . S
N53 Co33 2.194 . S
N53 C48 1.328 . S
N53 C52 1.315 . S
H54 C48 0.929 . S
H55 C52 0.930 . S
H56 C44 0.929 . S
H57 C46 0.929 . S
O58 Co33 2.351 . S
O58 C61 1.244 . S
O59 Co33 2.155 . S
O59 C61 1.240 . S
O60 Co33 2.096 . S
O60 C41 1.247 . S
C61 O58 1.244 . S
C61 O59 1.240 . S
H62 C36 0.931 1_565 S
H63 C45 0.931 . S
H64 C49 0.929 . S
H65 C51 0.930 . S
Co66 N70 2.148 . S
Co66 N76 2.128 . S
Co66 N86 2.194 . S
Co66 O91 2.351 . S
Co66 O92 2.155 . S
Co66 O93 2.096 . S
C67 N70 1.301 . S
C67 N71 1.328 . S
C67 H72 0.930 . S
C68 C69 1.333 . S
C68 N70 1.317 . S
C68 H73 0.930 . S
C69 C68 1.333 . S
C69 N71 1.350 . S
C69 H95 0.931 1_655 S
N70 Co66 2.148 . S
N70 C67 1.301 . S
N70 C68 1.317 . S
N71 C67 1.328 . S
N71 C69 1.350 . S
H72 C67 0.930 . S
H73 C68 0.930 . S
C74 O75 1.224 . S
C74 O93 1.247 . S
O75 C74 1.224 . S
N76 Co66 2.128 . S
N76 C77 1.355 . S
N76 C79 1.311 . S
C77 N76 1.355 . S
C77 C78 1.363 . S
C77 H89 0.929 . S
C78 C77 1.363 . S
C78 N80 1.375 . S
C78 H96 0.931 . S
C79 N76 1.311 . S
C79 N80 1.347 . S
C79 H90 0.929 . S
N80 C78 1.375 . S
N80 C79 1.347 . S
C81 C84 1.365 . S
C81 N86 1.328 . S
C81 H87 0.929 . S
C82 C83 1.362 . S
C82 C85 1.378 . S
C82 H97 0.929 . S
C83 C82 1.362 . S
C83 C84 1.366 . S
C84 C81 1.365 . S
C84 C83 1.366 . S
C84 H98 0.930 . S
C85 C82 1.378 . S
C85 N86 1.315 . S
C85 H88 0.930 . S
N86 Co66 2.194 . S
N86 C81 1.328 . S
N86 C85 1.315 . S
H87 C81 0.929 . S
H88 C85 0.930 . S
H89 C77 0.929 . S
H90 C79 0.929 . S
O91 Co66 2.351 . S
O91 C94 1.244 . S
O92 Co66 2.155 . S
O92 C94 1.240 . S
O93 Co66 2.096 . S
O93 C74 1.247 . S
C94 O91 1.244 . S
C94 O92 1.240 . S
H95 C69 0.931 1_455 S
H96 C78 0.931 . S
H97 C82 0.929 . S
H98 C84 0.930 . S
Co99 N103 2.148 . S
Co99 N109 2.128 . S
Co99 N119 2.194 . S
Co99 O124 2.351 . S
Co99 O125 2.155 . S
Co99 O126 2.096 . S
C100 N103 1.301 . S
C100 N104 1.328 . S
C100 H105 0.930 . S
C101 C102 1.333 . S
C101 N103 1.317 . S
C101 H106 0.930 . S
C102 C101 1.333 . S
C102 N104 1.350 . S
C102 H128 0.931 . S
N103 Co99 2.148 . S
N103 C100 1.301 . S
N103 C101 1.317 . S
N104 C100 1.328 . S
N104 C102 1.350 . S
H105 C100 0.930 . S
H106 C101 0.930 . S
C107 O108 1.224 . S
C107 O126 1.247 . S
O108 C107 1.224 . S
N109 Co99 2.128 . S
N109 C110 1.355 . S
N109 C112 1.311 . S
C110 N109 1.355 . S
C110 C111 1.363 . S
C110 H122 0.929 . S
C111 C110 1.363 . S
C111 N113 1.375 . S
C111 H129 0.931 . S
C112 N109 1.311 . S
C112 N113 1.347 . S
C112 H123 0.929 . S
N113 C111 1.375 . S
N113 C112 1.347 . S
C114 C117 1.365 . S
C114 N119 1.328 . S
C114 H120 0.929 . S
C115 C116 1.362 . S
C115 C118 1.378 . S
C115 H130 0.929 . S
C116 C115 1.362 . S
C116 C117 1.366 . S
C117 C114 1.365 . S
C117 C116 1.366 . S
C117 H131 0.930 . S
C118 C115 1.378 . S
C118 N119 1.315 . S
C118 H121 0.930 . S
N119 Co99 2.194 . S
N119 C114 1.328 . S
N119 C118 1.315 . S
H120 C114 0.929 . S
H121 C118 0.930 . S
H122 C110 0.929 . S
H123 C112 0.929 . S
O124 Co99 2.351 . S
O124 C127 1.244 . S
O125 Co99 2.155 . S
O125 C127 1.240 . S
O126 Co99 2.096 . S
O126 C107 1.247 . S
C127 O124 1.244 . S
C127 O125 1.240 . S
H128 C102 0.931 . S
H129 C111 0.931 . S
H130 C115 0.929 . S
H131 C117 0.930 . S
Co132 N136 2.148 . S
Co132 N142 2.128 . S
Co132 N152 2.194 . S
Co132 O157 2.351 . S
Co132 O158 2.155 . S
Co132 O159 2.096 . S
C133 N136 1.301 . S
C133 N137 1.328 . S
C133 H138 0.930 . S
C134 C135 1.333 . S
C134 N136 1.317 . S
C134 H139 0.930 . S
C135 C134 1.333 . S
C135 N137 1.350 . S
C135 H161 0.931 1_565 S
N136 Co132 2.148 . S
N136 C133 1.301 . S
N136 C134 1.317 . S
N137 C133 1.328 . S
N137 C135 1.350 . S
H138 C133 0.930 . S
H139 C134 0.930 . S
C140 O141 1.224 . S
C140 O159 1.247 . S
O141 C140 1.224 . S
N142 Co132 2.128 . S
N142 C143 1.355 . S
N142 C145 1.311 . S
C143 N142 1.355 . S
C143 C144 1.363 . S
C143 H155 0.929 . S
C144 C143 1.363 . S
C144 N146 1.375 . S
C144 H162 0.931 . S
C145 N142 1.311 . S
C145 N146 1.347 . S
C145 H156 0.929 . S
N146 C144 1.375 . S
N146 C145 1.347 . S
C147 C150 1.365 . S
C147 N152 1.328 . S
C147 H153 0.929 . S
C148 C149 1.362 . S
C148 C151 1.378 . S
C148 H163 0.929 . S
C149 C148 1.362 . S
C149 C150 1.366 . S
C150 C147 1.365 . S
C150 C149 1.366 . S
C150 H164 0.930 . S
C151 C148 1.378 . S
C151 N152 1.315 . S
C151 H154 0.930 . S
N152 Co132 2.194 . S
N152 C147 1.328 . S
N152 C151 1.315 . S
H153 C147 0.929 . S
H154 C151 0.930 . S
H155 C143 0.929 . S
H156 C145 0.929 . S
O157 Co132 2.351 . S
O157 C160 1.244 . S
O158 Co132 2.155 . S
O158 C160 1.240 . S
O159 Co132 2.096 . S
O159 C140 1.247 . S
C160 O157 1.244 . S
C160 O158 1.240 . S
H161 C135 0.931 1_545 S
H162 C144 0.931 . S
H163 C148 0.929 . S
H164 C150 0.930 . S
Co165 N169 2.148 . S
Co165 N175 2.128 . S
Co165 N185 2.194 . S
Co165 O190 2.351 . S
Co165 O191 2.155 . S
Co165 O192 2.096 . S
C166 N169 1.301 . S
C166 N170 1.328 . S
C166 H171 0.930 . S
C167 C168 1.333 . S
C167 N169 1.317 . S
C167 H172 0.930 . S
C168 C167 1.333 . S
C168 N170 1.350 . S
C168 H194 0.931 1_455 S
N169 Co165 2.148 . S
N169 C166 1.301 . S
N169 C167 1.317 . S
N170 C166 1.328 . S
N170 C168 1.350 . S
H171 C166 0.930 . S
H172 C167 0.930 . S
C173 O174 1.224 . S
C173 O192 1.247 . S
O174 C173 1.224 . S
N175 Co165 2.128 . S
N175 C176 1.355 . S
N175 C178 1.311 . S
C176 N175 1.355 . S
C176 C177 1.363 . S
C176 H188 0.929 . S
C177 C176 1.363 . S
C177 N179 1.375 . S
C177 H195 0.931 . S
C178 N175 1.311 . S
C178 N179 1.347 . S
C178 H189 0.929 . S
N179 C177 1.375 . S
N179 C178 1.347 . S
C180 C183 1.365 . S
C180 N185 1.328 . S
C180 H186 0.929 . S
C181 C182 1.362 . S
C181 C184 1.378 . S
C181 H196 0.929 . S
C182 C181 1.362 . S
C182 C183 1.366 . S
C183 C180 1.365 . S
C183 C182 1.366 . S
C183 H197 0.930 . S
C184 C181 1.378 . S
C184 N185 1.315 . S
C184 H187 0.930 . S
N185 Co165 2.194 . S
N185 C180 1.328 . S
N185 C184 1.315 . S
H186 C180 0.929 . S
H187 C184 0.930 . S
H188 C176 0.929 . S
H189 C178 0.929 . S
O190 Co165 2.351 . S
O190 C193 1.244 . S
O191 Co165 2.155 . S
O191 C193 1.240 . S
O192 Co165 2.096 . S
O192 C173 1.247 . S
C193 O190 1.244 . S
C193 O191 1.240 . S
H194 C168 0.931 1_655 S
H195 C177 0.931 . S
H196 C181 0.929 . S
H197 C183 0.930 . S
Co198 N202 2.148 . S
Co198 N208 2.128 . S
Co198 N218 2.194 . S
Co198 O223 2.351 . S
Co198 O224 2.155 . S
Co198 O225 2.096 . S
C199 N202 1.301 . S
C199 N203 1.328 . S
C199 H204 0.930 . S
C200 C201 1.333 . S
C200 N202 1.317 . S
C200 H205 0.930 . S
C201 C200 1.333 . S
C201 N203 1.350 . S
C201 H227 0.931 . S
N202 Co198 2.148 . S
N202 C199 1.301 . S
N202 C200 1.317 . S
N203 C199 1.328 . S
N203 C201 1.350 . S
H204 C199 0.930 . S
H205 C200 0.930 . S
C206 O207 1.224 . S
C206 O225 1.247 . S
O207 C206 1.224 . S
N208 Co198 2.128 . S
N208 C209 1.355 . S
N208 C211 1.311 . S
C209 N208 1.355 . S
C209 C210 1.363 . S
C209 H221 0.929 . S
C210 C209 1.363 . S
C210 N212 1.375 . S
C210 H228 0.931 . S
C211 N208 1.311 . S
C211 N212 1.347 . S
C211 H222 0.929 . S
N212 C210 1.375 . S
N212 C211 1.347 . S
C213 C216 1.365 . S
C213 N218 1.328 . S
C213 H219 0.929 . S
C214 C215 1.362 . S
C214 C217 1.378 . S
C214 H229 0.929 . S
C215 C214 1.362 . S
C215 C216 1.366 . S
C216 C213 1.365 . S
C216 C215 1.366 . S
C216 H230 0.930 . S
C217 C214 1.378 . S
C217 N218 1.315 . S
C217 H220 0.930 . S
N218 Co198 2.194 . S
N218 C213 1.328 . S
N218 C217 1.315 . S
H219 C213 0.929 . S
H220 C217 0.930 . S
H221 C209 0.929 . S
H222 C211 0.929 . S
O223 Co198 2.351 . S
O223 C226 1.244 . S
O224 Co198 2.155 . S
O224 C226 1.240 . S
O225 Co198 2.096 . S
O225 C206 1.247 . S
C226 O223 1.244 . S
C226 O224 1.240 . S
H227 C201 0.931 . S
H228 C210 0.931 . S
H229 C214 0.929 . S
H230 C216 0.930 . S
Co231 N235 2.148 . S
Co231 N241 2.128 . S
Co231 N251 2.194 . S
Co231 O256 2.351 . S
Co231 O257 2.155 . S
Co231 O258 2.096 . S
C232 N235 1.301 . S
C232 N236 1.328 . S
C232 H237 0.930 . S
C233 C234 1.333 . S
C233 N235 1.317 . S
C233 H238 0.930 . S
C234 C233 1.333 . S
C234 N236 1.350 . S
C234 H260 0.931 1_565 S
N235 Co231 2.148 . S
N235 C232 1.301 . S
N235 C233 1.317 . S
N236 C232 1.328 . S
N236 C234 1.350 . S
H237 C232 0.930 . S
H238 C233 0.930 . S
C239 O240 1.224 . S
C239 O258 1.247 . S
O240 C239 1.224 . S
N241 Co231 2.128 . S
N241 C242 1.355 . S
N241 C244 1.311 . S
C242 N241 1.355 . S
C242 C243 1.363 . S
C242 H254 0.929 . S
C243 C242 1.363 . S
C243 N245 1.375 . S
C243 H261 0.931 . S
C244 N241 1.311 . S
C244 N245 1.347 . S
C244 H255 0.929 . S
N245 C243 1.375 . S
N245 C244 1.347 . S
C246 C249 1.365 . S
C246 N251 1.328 . S
C246 H252 0.929 . S
C247 C248 1.362 . S
C247 C250 1.378 . S
C247 H262 0.929 . S
C248 C247 1.362 . S
C248 C249 1.366 . S
C249 C246 1.365 . S
C249 C248 1.366 . S
C249 H263 0.930 . S
C250 C247 1.378 . S
C250 N251 1.315 . S
C250 H253 0.930 . S
N251 Co231 2.194 . S
N251 C246 1.328 . S
N251 C250 1.315 . S
H252 C246 0.929 . S
H253 C250 0.930 . S
H254 C242 0.929 . S
H255 C244 0.929 . S
O256 Co231 2.351 . S
O256 C259 1.244 . S
O257 Co231 2.155 . S
O257 C259 1.240 . S
O258 Co231 2.096 . S
O258 C239 1.247 . S
C259 O256 1.244 . S
C259 O257 1.240 . S
H260 C234 0.931 1_545 S
H261 C243 0.931 . S
H262 C247 0.929 . S
H263 C249 0.930 . S
Co264 N268 2.148 . S
Co264 N274 2.128 . S
Co264 N284 2.194 . S
Co264 O289 2.351 . S
Co264 O290 2.155 . S
Co264 O291 2.096 . S
C265 N268 1.301 . S
C265 N269 1.328 . S
C265 H270 0.930 . S
C266 C267 1.333 . S
C266 N268 1.317 . S
C266 H271 0.930 . S
C267 C266 1.333 . S
C267 N269 1.350 . S
C267 H293 0.931 1_455 S
N268 Co264 2.148 . S
N268 C265 1.301 . S
N268 C266 1.317 . S
N269 C265 1.328 . S
N269 C267 1.350 . S
H270 C265 0.930 . S
H271 C266 0.930 . S
C272 O273 1.224 . S
C272 O291 1.247 . S
O273 C272 1.224 . S
N274 Co264 2.128 . S
N274 C275 1.355 . S
N274 C277 1.311 . S
C275 N274 1.355 . S
C275 C276 1.363 . S
C275 H287 0.929 . S
C276 C275 1.363 . S
C276 N278 1.375 . S
C276 H294 0.931 . S
C277 N274 1.311 . S
C277 N278 1.347 . S
C277 H288 0.929 . S
N278 C276 1.375 . S
N278 C277 1.347 . S
C279 C282 1.365 . S
C279 N284 1.328 . S
C279 H285 0.929 . S
C280 C281 1.362 . S
C280 C283 1.378 . S
C280 H295 0.929 . S
C281 C280 1.362 . S
C281 C282 1.366 . S
C282 C279 1.365 . S
C282 C281 1.366 . S
C282 H296 0.930 . S
C283 C280 1.378 . S
C283 N284 1.315 . S
C283 H286 0.930 . S
N284 Co264 2.194 . S
N284 C279 1.328 . S
N284 C283 1.315 . S
H285 C279 0.929 . S
H286 C283 0.930 . S
H287 C275 0.929 . S
H288 C277 0.929 . S
O289 Co264 2.351 . S
O289 C292 1.244 . S
O290 Co264 2.155 . S
O290 C292 1.240 . S
O291 Co264 2.096 . S
O291 C272 1.247 . S
C292 O289 1.244 . S
C292 O290 1.240 . S
H293 C267 0.931 1_655 S
H294 C276 0.931 . S
H295 C280 0.929 . S
H296 C282 0.930 . S
Co297 N301 2.148 . S
Co297 N307 2.128 . S
Co297 N317 2.194 . S
Co297 O322 2.351 . S
Co297 O323 2.155 . S
Co297 O324 2.096 . S
C298 N301 1.301 . S
C298 N302 1.328 . S
C298 H303 0.930 . S
C299 C300 1.333 . S
C299 N301 1.317 . S
C299 H304 0.930 . S
C300 C299 1.333 . S
C300 N302 1.350 . S
C300 H326 0.931 . S
N301 Co297 2.148 . S
N301 C298 1.301 . S
N301 C299 1.317 . S
N302 C298 1.328 . S
N302 C300 1.350 . S
H303 C298 0.930 . S
H304 C299 0.930 . S
C305 O306 1.224 . S
C305 O324 1.247 . S
O306 C305 1.224 . S
N307 Co297 2.128 . S
N307 C308 1.355 . S
N307 C310 1.311 . S
C308 N307 1.355 . S
C308 C309 1.363 . S
C308 H320 0.929 . S
C309 C308 1.363 . S
C309 N311 1.375 . S
C309 H327 0.931 . S
C310 N307 1.311 . S
C310 N311 1.347 . S
C310 H321 0.929 . S
N311 C309 1.375 . S
N311 C310 1.347 . S
C312 C315 1.365 . S
C312 N317 1.328 . S
C312 H318 0.929 . S
C313 C314 1.362 . S
C313 C316 1.378 . S
C313 H328 0.929 . S
C314 C313 1.362 . S
C314 C315 1.366 . S
C315 C312 1.365 . S
C315 C314 1.366 . S
C315 H329 0.930 . S
C316 C313 1.378 . S
C316 N317 1.315 . S
C316 H319 0.930 . S
N317 Co297 2.194 . S
N317 C312 1.328 . S
N317 C316 1.315 . S
H318 C312 0.929 . S
H319 C316 0.930 . S
H320 C308 0.929 . S
H321 C310 0.929 . S
O322 Co297 2.351 . S
O322 C325 1.244 . S
O323 Co297 2.155 . S
O323 C325 1.240 . S
O324 Co297 2.096 . S
O324 C305 1.247 . S
C325 O322 1.244 . S
C325 O323 1.240 . S
H326 C300 0.931 . S
H327 C309 0.931 . S
H328 C313 0.929 . S
H329 C315 0.930 . S
Co330 N334 2.148 . S
Co330 N340 2.128 . S
Co330 N350 2.194 . S
Co330 O355 2.351 . S
Co330 O356 2.155 . S
Co330 O357 2.096 . S
C331 N334 1.301 . S
C331 N335 1.328 . S
C331 H336 0.930 . S
C332 C333 1.333 . S
C332 N334 1.317 . S
C332 H337 0.930 . S
C333 C332 1.333 . S
C333 N335 1.350 . S
C333 H359 0.931 1_545 S
N334 Co330 2.148 . S
N334 C331 1.301 . S
N334 C332 1.317 . S
N335 C331 1.328 . S
N335 C333 1.350 . S
H336 C331 0.930 . S
H337 C332 0.930 . S
C338 O339 1.224 . S
C338 O357 1.247 . S
O339 C338 1.224 . S
N340 Co330 2.128 . S
N340 C341 1.355 . S
N340 C343 1.311 . S
C341 N340 1.355 . S
C341 C342 1.363 . S
C341 H353 0.929 . S
C342 C341 1.363 . S
C342 N344 1.375 . S
C342 H360 0.931 . S
C343 N340 1.311 . S
C343 N344 1.347 . S
C343 H354 0.929 . S
N344 C342 1.375 . S
N344 C343 1.347 . S
C345 C348 1.365 . S
C345 N350 1.328 . S
C345 H351 0.929 . S
C346 C347 1.362 . S
C346 C349 1.378 . S
C346 H361 0.929 . S
C347 C346 1.362 . S
C347 C348 1.366 . S
C348 C345 1.365 . S
C348 C347 1.366 . S
C348 H362 0.930 . S
C349 C346 1.378 . S
C349 N350 1.315 . S
C349 H352 0.930 . S
N350 Co330 2.194 . S
N350 C345 1.328 . S
N350 C349 1.315 . S
H351 C345 0.929 . S
H352 C349 0.930 . S
H353 C341 0.929 . S
H354 C343 0.929 . S
O355 Co330 2.351 . S
O355 C358 1.244 . S
O356 Co330 2.155 . S
O356 C358 1.240 . S
O357 Co330 2.096 . S
O357 C338 1.247 . S
C358 O355 1.244 . S
C358 O356 1.240 . S
H359 C333 0.931 1_565 S
H360 C342 0.931 . S
H361 C346 0.929 . S
H362 C348 0.930 . S
Co363 N367 2.148 . S
Co363 N373 2.128 . S
Co363 N383 2.194 . S
Co363 O388 2.351 . S
Co363 O389 2.155 . S
Co363 O390 2.096 . S
C364 N367 1.301 . S
C364 N368 1.328 . S
C364 H369 0.930 . S
C365 C366 1.333 . S
C365 N367 1.317 . S
C365 H370 0.930 . S
C366 C365 1.333 . S
C366 N368 1.350 . S
C366 H392 0.931 1_655 S
N367 Co363 2.148 . S
N367 C364 1.301 . S
N367 C365 1.317 . S
N368 C364 1.328 . S
N368 C366 1.350 . S
H369 C364 0.930 . S
H370 C365 0.930 . S
C371 O372 1.224 . S
C371 O390 1.247 . S
O372 C371 1.224 . S
N373 Co363 2.128 . S
N373 C374 1.355 . S
N373 C376 1.311 . S
C374 N373 1.355 . S
C374 C375 1.363 . S
C374 H386 0.929 . S
C375 C374 1.363 . S
C375 N377 1.375 . S
C375 H393 0.931 . S
C376 N373 1.311 . S
C376 N377 1.347 . S
C376 H387 0.929 . S
N377 C375 1.375 . S
N377 C376 1.347 . S
C378 C381 1.365 . S
C378 N383 1.328 . S
C378 H384 0.929 . S
C379 C380 1.362 . S
C379 C382 1.378 . S
C379 H394 0.929 . S
C380 C379 1.362 . S
C380 C381 1.366 . S
C381 C378 1.365 . S
C381 C380 1.366 . S
C381 H395 0.930 . S
C382 C379 1.378 . S
C382 N383 1.315 . S
C382 H385 0.930 . S
N383 Co363 2.194 . S
N383 C378 1.328 . S
N383 C382 1.315 . S
H384 C378 0.929 . S
H385 C382 0.930 . S
H386 C374 0.929 . S
H387 C376 0.929 . S
O388 Co363 2.351 . S
O388 C391 1.244 . S
O389 Co363 2.155 . S
O389 C391 1.240 . S
O390 Co363 2.096 . S
O390 C371 1.247 . S
C391 O388 1.244 . S
C391 O389 1.240 . S
H392 C366 0.931 1_455 S
H393 C375 0.931 . S
H394 C379 0.929 . S
H395 C381 0.930 . S
C396 C397 1.369 . S
C396 C398 1.419 . S
C396 H400 0.930 . S
C397 C396 1.369 . S
C397 C406 1.429 . S
C398 C396 1.419 . S
C398 C399 1.363 . S
C398 H401 0.929 . S
C399 C398 1.363 . S
C399 C405 1.428 . S
H400 C396 0.930 . S
H401 C398 0.929 . S
S402 N403 1.613 . S
S402 N404 1.610 . S
N403 S402 1.613 . S
N403 C406 1.350 . S
N404 S402 1.610 . S
N404 C405 1.351 . S
C405 C399 1.428 . S
C405 N404 1.351 . S
C405 C406 1.434 . S
C406 C397 1.429 . S
C406 N403 1.350 . S
C406 C405 1.434 . S
C407 C408 1.369 . S
C407 C409 1.419 . S
C407 H411 0.930 . S
C408 C407 1.369 . S
C408 C417 1.429 . S
C409 C407 1.419 . S
C409 C410 1.363 . S
C409 H412 0.929 . S
C410 C409 1.363 . S
C410 C416 1.428 . S
H411 C407 0.930 . S
H412 C409 0.929 . S
S413 N414 1.613 . S
S413 N415 1.610 . S
N414 S413 1.613 . S
N414 C417 1.350 . S
N415 S413 1.610 . S
N415 C416 1.351 . S
C416 C410 1.428 . S
C416 N415 1.351 . S
C416 C417 1.434 . S
C417 C408 1.429 . S
C417 N414 1.350 . S
C417 C416 1.434 . S
C418 C419 1.369 . S
C418 C420 1.419 . S
C418 H422 0.930 . S
C419 C418 1.369 . S
C419 C428 1.429 . S
C420 C418 1.419 . S
C420 C421 1.363 . S
C420 H423 0.929 . S
C421 C420 1.363 . S
C421 C427 1.428 . S
H422 C418 0.930 . S
H423 C420 0.929 . S
S424 N425 1.613 . S
S424 N426 1.610 . S
N425 S424 1.613 . S
N425 C428 1.350 . S
N426 S424 1.610 . S
N426 C427 1.351 . S
C427 C421 1.428 . S
C427 N426 1.351 . S
C427 C428 1.434 . S
C428 C419 1.429 . S
C428 N425 1.350 . S
C428 C427 1.434 . S
C429 C430 1.369 . S
C429 C431 1.419 . S
C429 H433 0.930 . S
C430 C429 1.369 . S
C430 C439 1.429 . S
C431 C429 1.419 . S
C431 C432 1.363 . S
C431 H434 0.929 . S
C432 C431 1.363 . S
C432 C438 1.428 . S
H433 C429 0.930 . S
H434 C431 0.929 . S
S435 N436 1.613 . S
S435 N437 1.610 . S
N436 S435 1.613 . S
N436 C439 1.350 . S
N437 S435 1.610 . S
N437 C438 1.351 . S
C438 C432 1.428 . S
C438 N437 1.351 . S
C438 C439 1.434 . S
C439 C430 1.429 . S
C439 N436 1.350 . S
C439 C438 1.434 . S
C440 C441 1.369 . S
C440 C442 1.419 . S
C440 H444 0.930 . S
C441 C440 1.369 . S
C441 C450 1.429 . S
C442 C440 1.419 . S
C442 C443 1.363 . S
C442 H445 0.929 . S
C443 C442 1.363 . S
C443 C449 1.428 . S
H444 C440 0.930 . S
H445 C442 0.929 . S
S446 N447 1.613 . S
S446 N448 1.610 . S
N447 S446 1.613 . S
N447 C450 1.350 . S
N448 S446 1.610 . S
N448 C449 1.351 . S
C449 C443 1.428 . S
C449 N448 1.351 . S
C449 C450 1.434 . S
C450 C441 1.429 . S
C450 N447 1.350 . S
C450 C449 1.434 . S
C451 C452 1.369 . S
C451 C453 1.419 . S
C451 H455 0.930 . S
C452 C451 1.369 . S
C452 C461 1.429 . S
C453 C451 1.419 . S
C453 C454 1.363 . S
C453 H456 0.929 . S
C454 C453 1.363 . S
C454 C460 1.428 . S
H455 C451 0.930 . S
H456 C453 0.929 . S
S457 N458 1.613 . S
S457 N459 1.610 . S
N458 S457 1.613 . S
N458 C461 1.350 . S
N459 S457 1.610 . S
N459 C460 1.351 . S
C460 C454 1.428 . S
C460 N459 1.351 . S
C460 C461 1.434 . S
C461 C452 1.429 . S
C461 N458 1.350 . S
C461 C460 1.434 . S
C462 C463 1.369 . S
C462 C464 1.419 . S
C462 H466 0.930 . S
C463 C462 1.369 . S
C463 C472 1.429 . S
C464 C462 1.419 . S
C464 C465 1.363 . S
C464 H467 0.929 . S
C465 C464 1.363 . S
C465 C471 1.428 . S
H466 C462 0.930 . S
H467 C464 0.929 . S
S468 N469 1.613 . S
S468 N470 1.610 . S
N469 S468 1.613 . S
N469 C472 1.350 . S
N470 S468 1.610 . S
N470 C471 1.351 . S
C471 C465 1.428 . S
C471 N470 1.351 . S
C471 C472 1.434 . S
C472 C463 1.429 . S
C472 N469 1.350 . S
C472 C471 1.434 . S
C473 C474 1.369 . S
C473 C475 1.419 . S
C473 H477 0.930 . S
C474 C473 1.369 . S
C474 C483 1.429 . S
C475 C473 1.419 . S
C475 C476 1.363 . S
C475 H478 0.929 . S
C476 C475 1.363 . S
C476 C482 1.428 . S
H477 C473 0.930 . S
H478 C475 0.929 . S
S479 N480 1.613 . S
S479 N481 1.610 . S
N480 S479 1.613 . S
N480 C483 1.350 . S
N481 S479 1.610 . S
N481 C482 1.351 . S
C482 C476 1.428 . S
C482 N481 1.351 . S
C482 C483 1.434 . S
C483 C474 1.429 . S
C483 N480 1.350 . S
C483 C482 1.434 . S
C484 C485 1.369 . S
C484 C486 1.419 . S
C484 H488 0.930 . S
C485 C484 1.369 . S
C485 C494 1.429 . S
C486 C484 1.419 . S
C486 C487 1.363 . S
C486 H489 0.929 . S
C487 C486 1.363 . S
C487 C493 1.428 . S
H488 C484 0.930 . S
H489 C486 0.929 . S
S490 N491 1.613 . S
S490 N492 1.610 . S
N491 S490 1.613 . S
N491 C494 1.350 . S
N492 S490 1.610 . S
N492 C493 1.351 . S
C493 C487 1.428 . S
C493 N492 1.351 . S
C493 C494 1.434 . S
C494 C485 1.429 . S
C494 N491 1.350 . S
C494 C493 1.434 . S
C495 C496 1.369 . S
C495 C497 1.419 . S
C495 H499 0.930 . S
C496 C495 1.369 . S
C496 C505 1.429 . S
C497 C495 1.419 . S
C497 C498 1.363 . S
C497 H500 0.929 . S
C498 C497 1.363 . S
C498 C504 1.428 . S
H499 C495 0.930 . S
H500 C497 0.929 . S
S501 N502 1.613 . S
S501 N503 1.610 . S
N502 S501 1.613 . S
N502 C505 1.350 . S
N503 S501 1.610 . S
N503 C504 1.351 . S
C504 C498 1.428 . S
C504 N503 1.351 . S
C504 C505 1.434 . S
C505 C496 1.429 . S
C505 N502 1.350 . S
C505 C504 1.434 . S
C506 C507 1.369 . S
C506 C508 1.419 . S
C506 H510 0.930 . S
C507 C506 1.369 . S
C507 C516 1.429 . S
C508 C506 1.419 . S
C508 C509 1.363 . S
C508 H511 0.929 . S
C509 C508 1.363 . S
C509 C515 1.428 . S
H510 C506 0.930 . S
H511 C508 0.929 . S
S512 N513 1.613 . S
S512 N514 1.610 . S
N513 S512 1.613 . S
N513 C516 1.350 . S
N514 S512 1.610 . S
N514 C515 1.351 . S
C515 C509 1.428 . S
C515 N514 1.351 . S
C515 C516 1.434 . S
C516 C507 1.429 . S
C516 N513 1.350 . S
C516 C515 1.434 . S
C517 C518 1.369 . S
C517 C519 1.419 . S
C517 H521 0.930 . S
C518 C517 1.369 . S
C518 C527 1.429 . S
C519 C517 1.419 . S
C519 C520 1.363 . S
C519 H522 0.929 . S
C520 C519 1.363 . S
C520 C526 1.428 . S
H521 C517 0.930 . S
H522 C519 0.929 . S
S523 N524 1.613 . S
S523 N525 1.610 . S
N524 S523 1.613 . S
N524 C527 1.350 . S
N525 S523 1.610 . S
N525 C526 1.351 . S
C526 C520 1.428 . S
C526 N525 1.351 . S
C526 C527 1.434 . S
C527 C518 1.429 . S
C527 N524 1.350 . S
C527 C526 1.434 . S
C528 C529 1.369 . S
C528 C530 1.419 . S
C528 H532 0.930 . S
C529 C528 1.369 . S
C529 C538 1.429 1_554 S
C530 C528 1.419 . S
C530 C531 1.363 1_554 S
C530 H533 0.933 . S
C531 C530 1.363 1_556 S
C531 C537 1.428 . S
H532 C528 0.930 . S
H533 C530 0.933 . S
S534 N535 1.613 . S
S534 N536 1.610 . S
N535 S534 1.613 . S
N535 C538 1.350 . S
N536 S534 1.610 . S
N536 C537 1.351 . S
C537 C531 1.428 . S
C537 N536 1.351 . S
C537 C538 1.434 . S
C538 C529 1.429 1_556 S
C538 N535 1.350 . S
C538 C537 1.434 . S
C539 C540 1.369 . S
C539 C541 1.419 1_554 S
C539 H543 0.930 . S
C540 C539 1.369 . S
C540 C549 1.429 . S
C541 C539 1.419 1_556 S
C541 C542 1.363 . S
C541 H544 0.929 . S
C542 C541 1.363 . S
C542 C548 1.428 . S
H543 C539 0.930 . S
H544 C541 0.929 . S
S545 N546 1.613 1_556 S
S545 N547 1.610 . S
N546 S545 1.613 1_554 S
N546 C549 1.350 . S
N547 S545 1.610 . S
N547 C548 1.351 . S
C548 C542 1.428 . S
C548 N547 1.351 . S
C548 C549 1.434 1_556 S
C549 C540 1.429 . S
C549 N546 1.350 . S
C549 C548 1.434 1_554 S
C550 C551 1.369 . S
C550 C552 1.419 1_554 S
C550 H554 0.930 . S
C551 C550 1.369 . S
C551 C560 1.429 . S
C552 C550 1.419 1_556 S
C552 C553 1.363 . S
C552 H555 0.929 . S
C553 C552 1.363 . S
C553 C559 1.428 . S
H554 C550 0.930 . S
H555 C552 0.929 . S
S556 N557 1.613 . S
S556 N558 1.610 1_554 S
N557 S556 1.613 . S
N557 C560 1.350 . S
N558 S556 1.610 1_556 S
N558 C559 1.351 . S
C559 C553 1.428 . S
C559 N558 1.351 . S
C559 C560 1.434 1_556 S
C560 C551 1.429 . S
C560 N557 1.350 . S
C560 C559 1.434 1_554 S
C561 C562 1.369 . S
C561 C563 1.419 . S
C561 H565 0.930 . S
C562 C561 1.369 . S
C562 C571 1.429 . S
C563 C561 1.419 . S
C563 C564 1.363 . S
C563 H566 0.929 . S
C564 C563 1.363 . S
C564 C570 1.428 . S
H565 C561 0.930 . S
H566 C563 0.929 . S
S567 N568 1.613 . S
S567 N569 1.610 1_655 S
N568 S567 1.613 . S
N568 C571 1.350 1_655 S
N569 S567 1.610 1_455 S
N569 C570 1.351 . S
C570 C564 1.428 . S
C570 N569 1.351 . S
C570 C571 1.434 . S
C571 C562 1.429 . S
C571 N568 1.350 1_455 S
C571 C570 1.434 . S
C572 C573 1.369 . S
C572 C574 1.419 . S
C572 H576 0.930 . S
C573 C572 1.369 . S
C573 C582 1.429 . S
C574 C572 1.419 . S
C574 C575 1.363 . S
C574 H577 0.929 . S
C575 C574 1.363 . S
C575 C581 1.428 . S
H576 C572 0.930 . S
H577 C574 0.929 . S
S578 N579 1.613 . S
S578 N580 1.610 . S
N579 S578 1.613 . S
N579 C582 1.350 . S
N580 S578 1.610 . S
N580 C581 1.351 . S
C581 C575 1.428 . S
C581 N580 1.351 . S
C581 C582 1.434 . S
C582 C573 1.429 . S
C582 N579 1.350 . S
C582 C581 1.434 . S
C583 C584 1.369 . S
C583 C585 1.419 . S
C583 H587 0.930 . S
C584 C583 1.369 . S
C584 C593 1.429 . S
C585 C583 1.419 . S
C585 C586 1.363 . S
C585 H588 0.929 . S
C586 C585 1.363 . S
C586 C592 1.428 . S
H587 C583 0.930 . S
H588 C585 0.929 . S
S589 N590 1.613 . S
S589 N591 1.610 . S
N590 S589 1.613 . S
N590 C593 1.350 . S
N591 S589 1.610 . S
N591 C592 1.351 . S
C592 C586 1.428 . S
C592 N591 1.351 . S
C592 C593 1.434 . S
C593 C584 1.429 . S
C593 N590 1.350 . S
C593 C592 1.434 . S
C594 C595 1.369 . S
C594 C596 1.419 1_554 S
C594 H598 0.930 . S
C595 C594 1.369 . S
C595 C604 1.429 1_554 S
C596 C594 1.419 1_556 S
C596 C597 1.363 . S
C596 H599 0.929 . S
C597 C596 1.363 . S
C597 C603 1.428 . S
H598 C594 0.930 . S
H599 C596 0.929 . S
S600 N601 1.613 . S
S600 N602 1.610 1_545 S
N601 S600 1.613 . S
N601 C604 1.350 1_545 S
N602 S600 1.610 1_565 S
N602 C603 1.351 . S
C603 C597 1.428 . S
C603 N602 1.351 . S
C603 C604 1.434 . S
C604 C595 1.429 1_556 S
C604 N601 1.350 1_565 S
C604 C603 1.434 . S
C605 C606 1.369 . S
C605 C607 1.419 1_554 S
C605 H609 0.930 . S
C606 C605 1.369 . S
C606 C615 1.429 . S
C607 C605 1.419 1_556 S
C607 C608 1.363 . S
C607 H610 0.929 . S
C608 C607 1.363 . S
C608 C614 1.428 . S
H609 C605 0.930 . S
H610 C607 0.929 . S
S611 N612 1.613 . S
S611 N613 1.610 1_554 S
N612 S611 1.613 . S
N612 C615 1.350 . S
N613 S611 1.610 1_556 S
N613 C614 1.351 . S
C614 C608 1.428 . S
C614 N613 1.351 . S
C614 C615 1.434 1_556 S
C615 C606 1.429 . S
C615 N612 1.350 . S
C615 C614 1.434 1_554 S
C616 C617 1.369 . S
C616 C618 1.419 . S
C616 H620 0.930 . S
C617 C616 1.369 . S
C617 C626 1.446 . S
C618 C616 1.419 . S
C618 C619 1.363 1_556 S
C618 H621 0.929 . S
C619 C618 1.363 1_554 S
C619 C625 1.428 . S
H620 C616 0.930 . S
H621 C618 0.929 . S
S622 N623 1.613 . S
S622 N624 1.610 . S
N623 S622 1.613 . S
N623 C626 1.347 1_554 S
N624 S622 1.610 . S
N624 C625 1.351 . S
C625 C619 1.428 . S
C625 N624 1.351 . S
C625 C626 1.418 1_554 S
C626 C617 1.446 . S
C626 N623 1.347 1_556 S
C626 C625 1.418 1_556 S
C627 C628 1.369 . S
C627 C629 1.419 . S
C627 H631 0.930 . S
C628 C627 1.369 . S
C628 C637 1.429 . S
C629 C627 1.419 . S
C629 C630 1.363 . S
C629 H632 0.929 . S
C630 C629 1.363 . S
C630 C636 1.428 . S
H631 C627 0.930 . S
H632 C629 0.929 . S
S633 N634 1.613 1_655 S
S633 N635 1.610 . S
N634 S633 1.613 1_455 S
N634 C637 1.350 1_455 S
N635 S633 1.610 . S
N635 C636 1.351 . S
C636 C630 1.428 . S
C636 N635 1.351 . S
C636 C637 1.434 . S
C637 C628 1.429 . S
C637 N634 1.350 1_655 S
C637 C636 1.434 . S
C638 C639 1.369 . S
C638 C640 1.419 . S
C638 H642 0.930 . S
C639 C638 1.369 . S
C639 C648 1.429 . S
C640 C638 1.419 . S
C640 C641 1.363 . S
C640 H643 0.929 . S
C641 C640 1.363 . S
C641 C647 1.428 . S
H642 C638 0.930 . S
H643 C640 0.929 . S
S644 N645 1.613 . S
S644 N646 1.610 . S
N645 S644 1.613 . S
N645 C648 1.350 . S
N646 S644 1.610 . S
N646 C647 1.351 . S
C647 C641 1.428 . S
C647 N646 1.351 . S
C647 C648 1.434 . S
C648 C639 1.429 . S
C648 N645 1.350 . S
C648 C647 1.434 . S
C649 C650 1.369 . S
C649 C651 1.419 . S
C649 H653 0.930 . S
C650 C649 1.369 . S
C650 C659 1.429 . S
C651 C649 1.419 . S
C651 C652 1.363 . S
C651 H654 0.929 . S
C652 C651 1.363 . S
C652 C658 1.428 . S
H653 C649 0.930 . S
H654 C651 0.929 . S
S655 N656 1.613 . S
S655 N657 1.610 . S
N656 S655 1.613 . S
N656 C659 1.350 . S
N657 S655 1.610 . S
N657 C658 1.351 . S
C658 C652 1.428 . S
C658 N657 1.351 . S
C658 C659 1.434 . S
C659 C650 1.429 . S
C659 N656 1.350 . S
C659 C658 1.434 . S
C660 C661 1.369 . S
C660 C662 1.419 . S
C660 H664 0.930 . S
C661 C660 1.369 . S
C661 C670 1.429 . S
C662 C660 1.419 . S
C662 C663 1.363 . S
C662 H665 0.929 . S
C663 C662 1.363 . S
C663 C669 1.428 . S
H664 C660 0.930 . S
H665 C662 0.929 . S
S666 N667 1.613 . S
S666 N668 1.610 . S
N667 S666 1.613 . S
N667 C670 1.350 . S
N668 S666 1.610 . S
N668 C669 1.351 . S
C669 C663 1.428 . S
C669 N668 1.351 . S
C669 C670 1.434 . S
C670 C661 1.429 . S
C670 N667 1.350 . S
C670 C669 1.434 . S
C671 C672 1.369 . S
C671 C673 1.419 1_545 S
C671 H675 0.930 . S
C672 C671 1.369 . S
C672 C681 1.429 . S
C673 C671 1.419 1_565 S
C673 C674 1.363 . S
C673 H676 0.929 . S
C674 C673 1.363 . S
C674 C680 1.428 . S
H675 C671 0.930 . S
H676 C673 0.929 . S
S677 N678 1.613 . S
S677 N679 1.610 1_545 S
N678 S677 1.613 . S
N678 C681 1.350 . S
N679 S677 1.610 1_565 S
N679 C680 1.351 . S
C680 C674 1.428 . S
C680 N679 1.351 . S
C680 C681 1.434 1_565 S
C681 C672 1.429 . S
C681 N678 1.350 . S
C681 C680 1.434 1_545 S
C682 C683 1.369 . S
C682 C684 1.419 1_655 S
C682 H686 0.930 . S
C683 C682 1.369 . S
C683 C692 1.429 . S
C684 C682 1.419 1_455 S
C684 C685 1.363 . S
C684 H687 0.929 . S
C685 C684 1.363 . S
C685 C691 1.428 . S
H686 C682 0.930 . S
H687 C684 0.929 . S
S688 N689 1.613 . S
S688 N690 1.610 . S
N689 S688 1.613 . S
N689 C692 1.350 1_455 S
N690 S688 1.610 . S
N690 C691 1.351 . S
C691 C685 1.428 . S
C691 N690 1.351 . S
C691 C692 1.434 1_455 S
C692 C683 1.429 . S
C692 N689 1.350 1_655 S
C692 C691 1.434 1_655 S
C693 C694 1.369 . S
C693 C695 1.419 . S
C693 H697 0.930 . S
C694 C693 1.369 . S
C694 C703 1.429 . S
C695 C693 1.419 . S
C695 C696 1.363 . S
C695 H698 0.929 . S
C696 C695 1.363 . S
C696 C702 1.428 . S
H697 C693 0.930 . S
H698 C695 0.929 . S
S699 N700 1.613 . S
S699 N701 1.610 . S
N700 S699 1.613 . S
N700 C703 1.350 . S
N701 S699 1.610 . S
N701 C702 1.351 . S
C702 C696 1.428 . S
C702 N701 1.351 . S
C702 C703 1.434 . S
C703 C694 1.429 . S
C703 N700 1.350 . S
C703 C702 1.434 . S
C704 C705 1.369 . S
C704 C706 1.419 1_565 S
C704 H708 0.930 . S
C705 C704 1.369 . S
C705 C714 1.429 . S
C706 C704 1.419 1_545 S
C706 C707 1.363 . S
C706 H709 0.929 . S
C707 C706 1.363 . S
C707 C713 1.428 . S
H708 C704 0.930 . S
H709 C706 0.929 . S
S710 N711 1.613 . S
S710 N712 1.610 . S
N711 S710 1.613 . S
N711 C714 1.350 1_545 S
N712 S710 1.610 . S
N712 C713 1.351 . S
C713 C707 1.428 . S
C713 N712 1.351 . S
C713 C714 1.434 1_545 S
C714 C705 1.429 . S
C714 N711 1.350 1_565 S
C714 C713 1.434 1_565 S
C715 C716 1.369 . S
C715 C717 1.419 . S
C715 H719 0.930 . S
C716 C715 1.369 . S
C716 C725 1.429 1_455 S
C717 C715 1.419 . S
C717 C718 1.363 1_455 S
C717 H720 0.929 . S
C718 C717 1.363 1_655 S
C718 C724 1.428 . S
H719 C715 0.930 . S
H720 C717 0.929 . S
S721 N722 1.613 . S
S721 N723 1.610 . S
N722 S721 1.613 . S
N722 C725 1.350 . S
N723 S721 1.610 . S
N723 C724 1.351 . S
C724 C718 1.428 . S
C724 N723 1.351 . S
C724 C725 1.434 . S
C725 C716 1.429 1_655 S
C725 N722 1.350 . S
C725 C724 1.434 . S
C397 C41 1.750 . S
C399 N14 1.732 . S
C408 N47 1.730 . S
C410 C74 1.752 . S
C419 N80 1.737 . S
C421 C8 1.748 . S
C430 N113 1.729 . S
C432 C173 1.752 . S
C441 N146 1.730 . S
C443 C107 1.752 . S
C452 C140 1.751 . S
C454 N179 1.732 . S
C463 C239 1.744 . S
C465 N212 1.738 . S
C474 C272 1.754 . S
C476 N245 1.731 . S
C485 C206 1.748 . S
C487 N278 1.736 . S
C496 N311 1.739 . S
C498 C371 1.745 . S
C507 C305 1.751 . S
C509 N344 1.735 . S
C518 N377 1.733 . S
C520 C338 1.751 . S
C529 C28 1.380 . S
C531 N236 1.345 1_545 S
C540 C61 1.375 . S
C542 N269 1.339 1_655 S
C551 C94 1.375 . S
C553 N203 1.339 . S
C562 N368 1.339 1_455 S
C564 C127 1.380 . S
C573 C160 1.376 . S
C575 N302 1.342 . S
C584 N335 1.337 1_565 S
C586 C193 1.376 . S
C595 N38 1.338 1_565 S
C597 C226 1.379 . S
C606 N71 1.344 1_455 S
C608 C259 1.380 . S
C617 C292 1.375 . S
C619 N5 1.340 . S
C628 N170 1.335 1_655 S
C630 C325 1.376 . S
C639 C358 1.376 . S
C641 N104 1.337 . S
C650 C391 1.375 . S
C652 N137 1.337 1_545 S
C661 C116 1.418 . S
C663 C17 1.411 . S
C672 C50 1.418 . S
C674 C149 1.417 . S
C683 C83 1.413 . S
C685 C182 1.418 . S
C694 C314 1.413 . S
C696 C215 1.419 . S
C705 C248 1.416 . S
C707 C347 1.418 . S
C716 C281 1.414 . S
C718 C380 1.418 . S
