# Generated by pormake.
# Topology dmp, (4)-cn, num edge types: 1
# Building blocks:
#     Node 0, Type 0, BuildingBlock: QUQFOY_clean_sbu_3, # of connection points: 4
#     Node 1, Type 0, BuildingBlock: QUQFOY_clean_sbu_3, # of connection points: 4
#     Node 2, Type 0, BuildingBlock: QUQFOY_clean_sbu_3, # of connection points: 4
#     Node 3, Type 0, BuildingBlock: QUQFOY_clean_sbu_3, # of connection points: 4
#     Edge 4, Type (0, 0), BuildingBlock: FUNLAD_clean_linker_1, # of connection points: 2
#     Edge 5, Type (0, 0), BuildingBlock: FUNLAD_clean_linker_1, # of connection points: 2
#     Edge 6, Type (0, 0), BuildingBlock: FUNLAD_clean_linker_1, # of connection points: 2
#     Edge 7, Type (0, 0), BuildingBlock: FUNLAD_clean_linker_1, # of connection points: 2
#     Edge 8, Type (0, 0), BuildingBlock: FUNLAD_clean_linker_1, # of connection points: 2
#     Edge 9, Type (0, 0), BuildingBlock: FUNLAD_clean_linker_1, # of connection points: 2
#     Edge 10, Type (0, 0), BuildingBlock: FUNLAD_clean_linker_1, # of connection points: 2
#     Edge 11, Type (0, 0), BuildingBlock: FUNLAD_clean_linker_1, # of connection points: 2
# Relax obj value: 0.084
# Max RMSD: 0.187
# Mean RMSD: 0.187
data_MOF--net-dmp--node1-QUQFOY_clean_sbu_3--edge1-FUNLAD_clean_linker_1
_symmetry_space_group_name_H-M    P1
_symmetry_Int_Tables_number       1
_symmetry_cell_setting            triclinic
loop_
_symmetry_equiv_pos_as_xyz
'x, y, z'
_cell_length_a     42.161937
_cell_length_b     19.860338
_cell_length_c     16.352475
_cell_angle_alpha  90.131632
_cell_angle_beta   94.084542
_cell_angle_gamma 89.4933
loop_
_atom_site_label
_atom_site_type_symbol
_atom_site_fract_x
_atom_site_fract_y
_atom_site_fract_z
_atom_type_partial_charge
C0 C 0.06292 0.17107 0.05813 0.0
O1 O 0.08489 0.18078 0.01061 0.0
Cd2 Cd 0.13025 0.24908 0.04718 0.0
O3 O 0.0632 0.20078 0.12726 0.0
Cd4 Cd 0.09838 0.28336 0.20177 0.0
C5 C 0.15982 0.17673 0.2269 0.0
O6 O 0.1148 0.35873 0.09226 0.0
O7 O 0.14392 0.35614 0.20643 0.0
O8 O 0.05588 0.3578 0.24279 0.0
C9 C 0.13697 0.3846 0.13813 0.0
O10 O 0.16406 0.19051 0.15243 0.0
C11 C 0.06247 0.35034 0.3192 0.0
O12 O 0.13564 0.19923 0.26062 0.0
O13 O 0.08473 0.30947 0.34102 0.0
C14 C 0.40585 0.68132 0.41898 0.0
O15 O 0.38085 0.69927 0.45269 0.0
Cd16 Cd 0.34363 0.78562 0.39829 0.0
O17 O 0.41266 0.70643 0.35113 0.0
Cd18 Cd 0.3901 0.7838 0.24658 0.0
C19 C 0.31874 0.70629 0.22014 0.0
O20 O 0.37233 0.87266 0.33732 0.0
O21 O 0.36052 0.88421 0.20718 0.0
O22 O 0.4428 0.82092 0.21747 0.0
C23 C 0.35888 0.907 0.27906 0.0
O24 O 0.31153 0.73389 0.28676 0.0
C25 C 0.43983 0.80504 0.14202 0.0
O26 O 0.34677 0.70916 0.19601 0.0
O27 O 0.41415 0.7769 0.11586 0.0
C28 C 0.90146 0.7863 0.95787 0.0
O29 O 0.87956 0.75963 0.99609 0.0
Cd30 Cd 0.8431 0.67312 0.94545 0.0
O31 O 0.90674 0.76795 0.88524 0.0
Cd32 Cd 0.88589 0.68819 0.77901 0.0
C33 C 0.81095 0.75636 0.77362 0.0
O34 O 0.87366 0.59818 0.87076 0.0
O35 O 0.86048 0.58156 0.74289 0.0
O36 O 0.93827 0.65704 0.7379 0.0
C37 C 0.86021 0.56094 0.81593 0.0
O38 O 0.80758 0.72861 0.84253 0.0
C39 C 0.93225 0.67199 0.66281 0.0
O40 O 0.83735 0.75414 0.73992 0.0
O41 O 0.90538 0.69891 0.64283 0.0
C42 C 0.55601 0.30228 0.61143 0.0
O43 O 0.57585 0.3095 0.5575 0.0
Cd44 Cd 0.62871 0.26371 0.57866 0.0
O45 O 0.56337 0.2675 0.67506 0.0
Cd46 Cd 0.61091 0.20256 0.72592 0.0
C47 C 0.65568 0.33453 0.7605 0.0
O48 O 0.63409 0.14505 0.6088 0.0
O49 O 0.66594 0.17276 0.7129 0.0
O50 O 0.58082 0.104 0.75989 0.0
C51 C 0.66107 0.13851 0.64796 0.0
O52 O 0.65905 0.32876 0.68398 0.0
C53 C 0.58853 0.10637 0.83626 0.0
O54 O 0.63564 0.29878 0.79471 0.0
O55 O 0.60661 0.15377 0.86178 0.0
H56 H 0.32908 -0.00719 0.23897 0.0
C57 C 0.33679 0.96271 0.29238 0.0
H58 H 0.32708 0.93641 0.41315 0.0
H59 H 0.24833 0.21699 0.27522 0.0
H60 H 0.29878 0.27388 0.30339 0.0
H61 H 0.34641 0.21106 0.35817 0.0
H62 H 0.34378 0.09064 0.38507 0.0
C63 C 0.32148 0.96945 0.36115 0.0
C64 C 0.2919 0.01093 0.35743 0.0
C65 C 0.29355 0.08112 0.34427 0.0
C66 C 0.26612 0.11712 0.31296 0.0
C67 C 0.26859 0.18707 0.29839 0.0
C68 C 0.29734 0.22033 0.31459 0.0
C69 C 0.32416 0.18496 0.34541 0.0
C70 C 0.32243 0.11605 0.36014 0.0
H71 H 0.17973 0.12536 0.33944 0.0
C72 C 0.18386 0.13681 0.27611 0.0
H73 H 0.216 0.13098 0.1832 0.0
H74 H 0.2795 0.88 0.39456 0.0
H75 H 0.2287 0.82383 0.37359 0.0
H76 H 0.18127 0.88481 0.31441 0.0
H77 H 0.18422 0.00272 0.27773 0.0
C78 C 0.21109 0.11704 0.24525 0.0
C79 C 0.23711 0.08271 0.29546 0.0
C80 C 0.23464 0.01394 0.31719 0.0
C81 C 0.2621 0.97825 0.34954 0.0
C82 C 0.2594 0.90926 0.36922 0.0
C83 C 0.23039 0.8764 0.35738 0.0
C84 C 0.20367 0.91084 0.32436 0.0
C85 C 0.20567 0.97869 0.3039 0.0
H86 H 0.14613 0.47119 0.05793 0.0
C87 C 0.15454 0.4439 0.11289 0.0
H88 H 0.18783 0.43904 0.21528 0.0
H89 H 0.27362 0.64229 0.014 0.0
H90 H 0.27615 0.5545 0.91042 0.0
H91 H 0.24249 0.45366 0.91462 0.0
H92 H 0.2056 0.44072 0.0209 0.0
C93 C 0.17999 0.46547 0.15918 0.0
C94 C 0.19583 0.53014 0.14465 0.0
C95 C 0.21754 0.53587 0.08293 0.0
C96 C 0.23795 0.59242 0.08264 0.0
C97 C 0.25864 0.59869 0.01875 0.0
C98 C 0.26011 0.54904 0.95876 0.0
C99 C 0.24109 0.49234 0.96101 0.0
C100 C 0.22002 0.48551 0.02233 0.0
H101 H 0.30069 0.61359 0.16096 0.0
C102 C 0.2946 0.66542 0.17491 0.0
H103 H 0.25955 0.74075 0.17559 0.0
H104 H 0.15157 0.54098 0.25823 0.0
H105 H 0.14713 0.63107 0.35747 0.0
H106 H 0.18415 0.72671 0.36178 0.0
H107 H 0.22541 0.7332 0.26714 0.0
C108 C 0.26456 0.68831 0.16217 0.0
C109 C 0.23761 0.64092 0.14642 0.0
C110 C 0.21331 0.639 0.20225 0.0
C111 C 0.19231 0.58347 0.2009 0.0
C112 C 0.16847 0.58169 0.25771 0.0
C113 C 0.16558 0.63311 0.31476 0.0
C114 C 0.18639 0.68696 0.31709 0.0
C115 C 0.21009 0.68999 0.26204 0.0
H116 H 0.71038 0.10713 0.64026 0.0
C117 C 0.68598 0.0923 0.62368 0.0
H118 H 0.65566 0.00974 0.59682 0.0
H119 H 0.78033 0.83074 0.52661 0.0
H120 H 0.75804 0.84463 0.38644 0.0
H121 H 0.71185 0.91967 0.35472 0.0
H122 H 0.68735 0.98078 0.46331 0.0
C123 C 0.67994 0.02721 0.60794 0.0
C124 C 0.70573 0.97672 0.62651 0.0
C125 C 0.71986 0.94197 0.56262 0.0
C126 C 0.74675 0.89931 0.58094 0.0
C127 C 0.76007 0.86419 0.51605 0.0
C128 C 0.7475 0.87173 0.43538 0.0
C129 C 0.72148 0.91401 0.4175 0.0
C130 C 0.70771 0.94887 0.48019 0.0
H131 H 0.76078 0.78688 0.7613 0.0
C132 C 0.78371 0.79481 0.73641 0.0
H133 H 0.80942 0.85468 0.65769 0.0
H134 H 0.68027 0.02428 0.76574 0.0
H135 H 0.70454 0.01785 0.90436 0.0
H136 H 0.75599 0.95937 0.93331 0.0
H137 H 0.78259 0.90477 0.82446 0.0
C138 C 0.78677 0.84538 0.68327 0.0
C139 C 0.75967 0.89255 0.66303 0.0
C140 C 0.74597 0.92915 0.72668 0.0
C141 C 0.71792 0.9679 0.70899 0.0
C142 C 0.70278 -0.00214 0.77492 0.0
C143 C 0.7163 -0.00592 0.85497 0.0
C144 C 0.74512 0.96083 0.87132 0.0
C145 C 0.75994 0.92887 0.80822 0.0
H146 H 0.82819 0.47806 0.78322 0.0
C147 C 0.83713 0.50939 0.83433 0.0
H148 H 0.82869 0.54508 0.95265 0.0
H149 H 0.68366 0.51785 0.81933 0.0
H150 H 0.68771 0.63706 0.85268 0.0
H151 H 0.7384 0.68477 0.91008 0.0
H152 H 0.78523 0.61366 0.93488 0.0
C153 C 0.82158 0.51063 0.90318 0.0
C154 C 0.78977 0.47891 0.90079 0.0
C155 C 0.76229 0.52062 0.89122 0.0
C156 C 0.73309 0.49323 0.85826 0.0
C157 C 0.70637 0.53637 0.84448 0.0
C158 C 0.70839 0.60473 0.86336 0.0
C159 C 0.73693 0.6316 0.8957 0.0
C160 C 0.76367 0.5903 0.90939 0.0
H161 H 0.67474 0.38026 0.87722 0.0
C162 C 0.67807 0.3757 0.81212 0.0
H163 H 0.70907 0.39134 0.7183 0.0
H164 H 0.83593 0.38397 0.93273 0.0
H165 H 0.83132 0.26344 0.90595 0.0
H166 H 0.78073 0.21558 0.84784 0.0
H167 H 0.73451 0.28756 0.8164 0.0
C168 C 0.70468 0.39895 0.78236 0.0
C169 C 0.73158 0.42434 0.83644 0.0
C170 C 0.75795 0.3812 0.85602 0.0
C171 C 0.78709 0.4086 0.88887 0.0
C172 C 0.8134 0.36512 0.90659 0.0
C173 C 0.81099 0.29614 0.89189 0.0
C174 C 0.7825 0.26919 0.8592 0.0
C175 C 0.7562 0.311 0.84123 0.0
H176 H 0.03785 0.10098 0.97207 0.0
C177 C 0.03791 0.12239 0.03338 0.0
H178 H 0.0175 0.11838 0.14774 0.0
H179 H 0.91342 0.96926 0.87818 0.0
H180 H 0.90201 0.08225 0.82739 0.0
H181 H 0.93267 0.17922 0.8835 0.0
H182 H 0.975 0.16369 0.99062 0.0
C183 C 0.01689 0.10025 0.0849 0.0
C184 C -0.00479 0.04413 0.05981 0.0
C185 C 0.97032 0.05422 0.99805 0.0
C186 C 0.95249 -0.00157 0.96633 0.0
C187 C 0.92785 0.00982 0.90423 0.0
C188 C 0.92098 0.07445 0.87469 0.0
C189 C 0.93825 0.12904 0.90623 0.0
C190 C 0.96262 0.11938 0.96731 0.0
H191 H 0.91568 0.85491 0.06038 0.0
C192 C 0.92033 0.84081 0.99804 0.0
H193 H 0.94618 0.86281 0.89548 0.0
H194 H 0.0392 0.00893 0.18397 0.0
H195 H 0.04984 0.89648 0.23732 0.0
H196 H 0.01965 0.79916 0.18053 0.0
H197 H 0.97858 0.8137 0.07044 0.0
C198 C 0.94222 0.87443 0.95895 0.0
C199 C 0.95934 0.93285 0.9972 0.0
C200 C 0.9833 0.92319 0.06163 0.0
C201 C 0.00103 0.97914 0.09356 0.0
C202 C 0.02504 0.96819 0.15734 0.0
C203 C 0.03142 0.90389 0.18851 0.0
C204 C 0.0144 0.84912 0.1566 0.0
C205 C 0.99072 0.85827 0.09363 0.0
H206 H 0.5808 0.0671 0.95914 0.0
C207 C 0.57576 0.05866 0.8938 0.0
H208 H 0.55042 0.00083 0.80275 0.0
H209 H 0.54141 0.81184 0.13554 0.0
H210 H 0.59726 0.78652 0.12154 0.0
H211 H 0.62679 0.84434 0.01764 0.0
H212 H 0.60068 0.92788 0.92712 0.0
C213 C 0.5565 0.00843 0.8678 0.0
C214 C 0.5387 0.97005 0.9269 0.0
C215 C 0.55432 0.92122 0.9788 0.0
C216 C 0.53726 0.88758 0.03824 0.0
C217 C 0.55332 0.83891 0.08939 0.0
C218 C 0.58533 0.82387 0.08193 0.0
C219 C 0.60197 0.85647 0.02346 0.0
C220 C 0.58675 0.90451 0.97216 0.0
H221 H 0.45869 0.81234 0.02029 0.0
C222 C 0.46325 0.82537 0.08466 0.0
H223 H 0.49173 0.88186 0.17123 0.0
H224 H 0.50166 0.05996 0.83491 0.0
H225 H 0.44637 0.08754 0.85116 0.0
H226 H 0.41732 0.03293 0.9583 0.0
H227 H 0.44324 0.95006 0.04895 0.0
C228 C 0.48682 0.86792 0.10731 0.0
C229 C 0.50467 0.90269 0.04508 0.0
C230 C 0.48914 0.95221 0.99365 0.0
C231 C 0.50607 0.98496 0.93341 0.0
C232 C 0.48998 0.03367 0.88209 0.0
C233 C 0.45824 0.05014 0.8908 0.0
C234 C 0.44188 0.01931 0.95098 0.0
C235 C 0.45704 0.97122 0.00222 0.0
H236 H 0.94603 0.66224 0.53581 0.0
C237 C 0.95319 0.6501 0.59931 0.0
H238 H 0.98306 0.59028 0.67918 0.0
H239 H 0.9865 0.3582 0.41591 0.0
H240 H 0.94975 0.31257 0.5083 0.0
H241 H 0.93096 0.38135 0.62127 0.0
H242 H 0.94859 0.49626 0.64198 0.0
C243 C 0.977 0.60588 0.61628 0.0
C244 C 0.98971 0.56457 0.55002 0.0
C245 C 0.97976 0.4968 0.54015 0.0
C246 C 0.99108 0.4567 0.47613 0.0
C247 C 0.97956 0.39022 0.46524 0.0
C248 C 0.95822 0.36352 0.51745 0.0
C249 C 0.9476 0.40227 0.58095 0.0
C250 C 0.95802 0.46819 0.59225 0.0
H251 H 0.05172 0.37755 0.44501 0.0
C252 C 0.04623 0.38937 0.38063 0.0
H253 H 0.02216 0.45559 0.29591 0.0
H254 H 0.01354 0.69221 0.55309 0.0
H255 H 0.05041 0.73813 0.46062 0.0
H256 H 0.07075 0.66816 0.35063 0.0
H257 H 0.05428 0.55207 0.33213 0.0
C258 C 0.02656 0.44104 0.35977 0.0
C259 C 0.01304 0.48389 0.42361 0.0
C260 C 0.02269 0.55192 0.4329 0.0
C261 C 0.011 0.59233 0.49629 0.0
C262 C 0.02144 0.65965 0.50531 0.0
C263 C 0.04268 0.68652 0.45289 0.0
C264 C 0.05413 0.64712 0.39096 0.0
C265 C 0.04442 0.58055 0.38092 0.0
H266 H 0.45066 0.62442 0.43096 0.0
C267 C 0.42751 0.62967 0.45594 0.0
H268 H 0.39579 0.58702 0.53575 0.0
H269 H 0.47344 0.31152 0.48434 0.0
H270 H 0.42164 0.28439 0.41812 0.0
H271 H 0.37855 0.36949 0.40687 0.0
H272 H 0.38695 0.48231 0.46186 0.0
C273 C 0.4194 0.58596 0.51314 0.0
C274 C 0.44196 0.53057 0.53821 0.0
C275 C 0.4363 0.46454 0.5079 0.0
C276 C 0.46112 0.41546 0.5144 0.0
C277 C 0.45532 0.35054 0.48113 0.0
C278 C 0.42573 0.33437 0.44301 0.0
C279 C 0.40147 0.38232 0.43666 0.0
C280 C 0.40659 0.44684 0.46834 0.0
H281 H 0.50895 0.33127 0.6524 0.0
C282 C 0.52534 0.33885 0.60491 0.0
H283 H 0.53558 0.39636 0.50173 0.0
H284 H 0.45789 0.64775 0.61792 0.0
H285 H 0.5089 0.67362 0.68947 0.0
H286 H 0.55238 0.58936 0.69865 0.0
H287 H 0.54512 0.47876 0.63686 0.0
C288 C 0.51881 0.38601 0.54746 0.0
C289 C 0.49131 0.43268 0.55172 0.0
C290 C 0.49604 0.49689 0.58829 0.0
C291 C 0.47119 0.54571 0.58216 0.0
C292 C 0.47633 0.60941 0.61953 0.0
C293 C 0.50538 0.62471 0.66109 0.0
C294 C 0.52985 0.57724 0.66633 0.0
C295 C 0.52539 0.514 0.63045 0.0
loop_
_geom_bond_atom_site_label_1
_geom_bond_atom_site_label_2
_geom_bond_distance
_geom_bond_site_symmetry_2
_ccdc_geom_bond_type
C0 O1 1.306 . S
C0 O3 1.160 . S
O1 C0 1.306 . S
O1 Cd2 2.228 . S
Cd2 O1 2.228 . S
Cd2 O6 2.273 . S
Cd2 O10 2.277 . S
O3 C0 1.160 . S
O3 Cd4 2.203 . S
Cd4 O3 2.203 . S
Cd4 O6 2.411 . S
Cd4 O7 2.333 . S
Cd4 O8 2.352 . S
Cd4 O12 2.277 . S
Cd4 O13 2.356 . S
C5 O10 1.209 . S
C5 O12 1.226 . S
O6 Cd2 2.273 . S
O6 Cd4 2.411 . S
O6 C9 1.320 . S
O7 Cd4 2.333 . S
O7 C9 1.214 . S
O8 Cd4 2.352 . S
O8 C11 1.258 . S
C9 O6 1.320 . S
C9 O7 1.214 . S
O10 Cd2 2.277 . S
O10 C5 1.209 . S
C11 O8 1.258 . S
C11 O13 1.282 . S
O12 Cd4 2.277 . S
O12 C5 1.226 . S
O13 Cd4 2.356 . S
O13 C11 1.282 . S
C14 O15 1.306 . S
C14 O17 1.160 . S
O15 C14 1.306 . S
O15 Cd16 2.228 . S
Cd16 O15 2.228 . S
Cd16 O20 2.273 . S
Cd16 O24 2.277 . S
O17 C14 1.160 . S
O17 Cd18 2.203 . S
Cd18 O17 2.203 . S
Cd18 O20 2.411 . S
Cd18 O21 2.333 . S
Cd18 O22 2.352 . S
Cd18 O26 2.277 . S
Cd18 O27 2.356 . S
C19 O24 1.209 . S
C19 O26 1.226 . S
O20 Cd16 2.273 . S
O20 Cd18 2.411 . S
O20 C23 1.320 . S
O21 Cd18 2.333 . S
O21 C23 1.214 . S
O22 Cd18 2.352 . S
O22 C25 1.258 . S
C23 O20 1.320 . S
C23 O21 1.214 . S
O24 Cd16 2.277 . S
O24 C19 1.209 . S
C25 O22 1.258 . S
C25 O27 1.282 . S
O26 Cd18 2.277 . S
O26 C19 1.226 . S
O27 Cd18 2.356 . S
O27 C25 1.282 . S
C28 O29 1.306 . S
C28 O31 1.160 . S
O29 C28 1.306 . S
O29 Cd30 2.228 . S
Cd30 O29 2.228 . S
Cd30 O34 2.273 . S
Cd30 O38 2.277 . S
O31 C28 1.160 . S
O31 Cd32 2.203 . S
Cd32 O31 2.203 . S
Cd32 O34 2.411 . S
Cd32 O35 2.333 . S
Cd32 O36 2.352 . S
Cd32 O40 2.277 . S
Cd32 O41 2.356 . S
C33 O38 1.209 . S
C33 O40 1.226 . S
O34 Cd30 2.273 . S
O34 Cd32 2.411 . S
O34 C37 1.320 . S
O35 Cd32 2.333 . S
O35 C37 1.214 . S
O36 Cd32 2.352 . S
O36 C39 1.258 . S
C37 O34 1.320 . S
C37 O35 1.214 . S
O38 Cd30 2.277 . S
O38 C33 1.209 . S
C39 O36 1.258 . S
C39 O41 1.282 . S
O40 Cd32 2.277 . S
O40 C33 1.226 . S
O41 Cd32 2.356 . S
O41 C39 1.282 . S
C42 O43 1.306 . S
C42 O45 1.160 . S
O43 C42 1.306 . S
O43 Cd44 2.228 . S
Cd44 O43 2.228 . S
Cd44 O48 2.273 . S
Cd44 O52 2.277 . S
O45 C42 1.160 . S
O45 Cd46 2.203 . S
Cd46 O45 2.203 . S
Cd46 O48 2.411 . S
Cd46 O49 2.333 . S
Cd46 O50 2.352 . S
Cd46 O54 2.277 . S
Cd46 O55 2.356 . S
C47 O52 1.209 . S
C47 O54 1.226 . S
O48 Cd44 2.273 . S
O48 Cd46 2.411 . S
O48 C51 1.320 . S
O49 Cd46 2.333 . S
O49 C51 1.214 . S
O50 Cd46 2.352 . S
O50 C53 1.258 . S
C51 O48 1.320 . S
C51 O49 1.214 . S
O52 Cd44 2.277 . S
O52 C47 1.209 . S
C53 O50 1.258 . S
C53 O55 1.282 . S
O54 Cd46 2.277 . S
O54 C47 1.226 . S
O55 Cd46 2.356 . S
O55 C53 1.282 . S
H56 C57 0.951 . S
C57 H56 0.951 . S
C57 C63 1.265 . S
H58 C63 0.950 . S
H59 C67 0.949 . S
H60 C68 0.950 . S
H61 C69 0.951 . S
H62 C70 0.951 . S
C63 C57 1.265 . S
C63 H58 0.950 . S
C63 C64 1.478 . S
C64 C63 1.478 . S
C64 C65 1.397 1_565 S
C64 C81 1.394 . S
C65 C64 1.397 1_545 S
C65 C66 1.438 . S
C65 C70 1.429 . S
C66 C65 1.438 . S
C66 C67 1.428 . S
C66 C79 1.394 . S
C67 H59 0.949 . S
C67 C66 1.428 . S
C67 C68 1.345 . S
C68 H60 0.950 . S
C68 C67 1.345 . S
C68 C69 1.424 . S
C69 H61 0.951 . S
C69 C68 1.424 . S
C69 C70 1.347 . S
C70 H62 0.951 . S
C70 C65 1.429 . S
C70 C69 1.347 . S
H71 C72 0.951 . S
C72 H71 0.951 . S
C72 C78 1.265 . S
H73 C78 0.950 . S
H74 C82 0.949 . S
H75 C83 0.950 . S
H76 C84 0.951 . S
H77 C85 0.951 . S
C78 C72 1.265 . S
C78 H73 0.950 . S
C78 C79 1.478 . S
C79 C66 1.394 . S
C79 C78 1.478 . S
C79 C80 1.397 1_545 S
C80 C79 1.397 1_565 S
C80 C81 1.438 . S
C80 C85 1.429 . S
C81 C64 1.394 . S
C81 C80 1.438 . S
C81 C82 1.428 . S
C82 H74 0.949 . S
C82 C81 1.428 . S
C82 C83 1.345 . S
C83 H75 0.950 . S
C83 C82 1.345 . S
C83 C84 1.424 . S
C84 H76 0.951 . S
C84 C83 1.424 . S
C84 C85 1.347 . S
C85 H77 0.951 . S
C85 C80 1.429 . S
C85 C84 1.347 . S
H86 C87 0.951 . S
C87 H86 0.951 . S
C87 C93 1.265 . S
H88 C93 0.950 . S
H89 C97 0.949 . S
H90 C98 0.950 1_556 S
H91 C99 0.951 1_556 S
H92 C100 0.951 . S
C93 C87 1.265 . S
C93 H88 0.950 . S
C93 C94 1.478 . S
C94 C93 1.478 . S
C94 C95 1.397 . S
C94 C111 1.394 . S
C95 C94 1.397 . S
C95 C96 1.438 . S
C95 C100 1.429 . S
C96 C95 1.438 . S
C96 C97 1.428 . S
C96 C109 1.394 . S
C97 H89 0.949 . S
C97 C96 1.428 . S
C97 C98 1.345 . S
C98 H90 0.950 1_554 S
C98 C97 1.345 . S
C98 C99 1.424 . S
C99 H91 0.951 1_554 S
C99 C98 1.424 . S
C99 C100 1.347 . S
C100 H92 0.951 . S
C100 C95 1.429 . S
C100 C99 1.347 . S
H101 C102 0.951 . S
C102 H101 0.951 . S
C102 C108 1.265 . S
H103 C108 0.950 . S
H104 C112 0.949 . S
H105 C113 0.950 . S
H106 C114 0.951 . S
H107 C115 0.951 . S
C108 C102 1.265 . S
C108 H103 0.950 . S
C108 C109 1.478 . S
C109 C96 1.394 . S
C109 C108 1.478 . S
C109 C110 1.397 . S
C110 C109 1.397 . S
C110 C111 1.438 . S
C110 C115 1.429 . S
C111 C94 1.394 . S
C111 C110 1.438 . S
C111 C112 1.428 . S
C112 H104 0.949 . S
C112 C111 1.428 . S
C112 C113 1.345 . S
C113 H105 0.950 . S
C113 C112 1.345 . S
C113 C114 1.424 . S
C114 H106 0.951 . S
C114 C113 1.424 . S
C114 C115 1.347 . S
C115 H107 0.951 . S
C115 C110 1.429 . S
C115 C114 1.347 . S
H116 C117 0.951 . S
C117 H116 0.951 . S
C117 C123 1.265 . S
H118 C123 0.950 . S
H119 C127 0.949 . S
H120 C128 0.950 . S
H121 C129 0.951 . S
H122 C130 0.951 . S
C123 C117 1.265 . S
C123 H118 0.950 . S
C123 C124 1.478 . S
C124 C123 1.478 . S
C124 C125 1.397 . S
C124 C141 1.394 . S
C125 C124 1.397 . S
C125 C126 1.438 1_545 S
C125 C130 1.429 . S
C126 C125 1.438 1_565 S
C126 C127 1.428 . S
C126 C139 1.394 . S
C127 H119 0.949 . S
C127 C126 1.428 . S
C127 C128 1.345 . S
C128 H120 0.950 . S
C128 C127 1.345 . S
C128 C129 1.424 . S
C129 H121 0.951 . S
C129 C128 1.424 . S
C129 C130 1.347 1_565 S
C130 H122 0.951 . S
C130 C125 1.429 . S
C130 C129 1.347 1_545 S
H131 C132 0.951 . S
C132 H131 0.951 . S
C132 C138 1.265 . S
H133 C138 0.950 . S
H134 C142 0.949 . S
H135 C143 0.950 . S
H136 C144 0.951 . S
H137 C145 0.951 1_565 S
C138 C132 1.265 . S
C138 H133 0.950 . S
C138 C139 1.478 . S
C139 C126 1.394 . S
C139 C138 1.478 . S
C139 C140 1.397 1_565 S
C140 C139 1.397 1_545 S
C140 C141 1.438 . S
C140 C145 1.429 . S
C141 C124 1.394 . S
C141 C140 1.438 . S
C141 C142 1.428 . S
C142 H134 0.949 . S
C142 C141 1.428 . S
C142 C143 1.345 . S
C143 H135 0.950 . S
C143 C142 1.345 . S
C143 C144 1.424 . S
C144 H136 0.951 . S
C144 C143 1.424 . S
C144 C145 1.347 . S
C145 H137 0.951 1_545 S
C145 C140 1.429 . S
C145 C144 1.347 . S
H146 C147 0.951 . S
C147 H146 0.951 . S
C147 C153 1.265 . S
H148 C153 0.950 . S
H149 C157 0.949 . S
H150 C158 0.950 . S
H151 C159 0.951 . S
H152 C160 0.951 . S
C153 C147 1.265 . S
C153 H148 0.950 . S
C153 C154 1.478 . S
C154 C153 1.478 . S
C154 C155 1.397 . S
C154 C171 1.394 . S
C155 C154 1.397 . S
C155 C156 1.438 . S
C155 C160 1.429 . S
C156 C155 1.438 . S
C156 C157 1.428 . S
C156 C169 1.394 . S
C157 H149 0.949 . S
C157 C156 1.428 . S
C157 C158 1.345 1_556 S
C158 H150 0.950 . S
C158 C157 1.345 1_554 S
C158 C159 1.424 . S
C159 H151 0.951 . S
C159 C158 1.424 . S
C159 C160 1.347 1_554 S
C160 H152 0.951 . S
C160 C155 1.429 . S
C160 C159 1.347 1_556 S
H161 C162 0.951 . S
C162 H161 0.951 . S
C162 C168 1.265 . S
H163 C168 0.950 . S
H164 C172 0.949 . S
H165 C173 0.950 . S
H166 C174 0.951 . S
H167 C175 0.951 . S
C168 C162 1.265 . S
C168 H163 0.950 . S
C168 C169 1.478 . S
C169 C156 1.394 . S
C169 C168 1.478 . S
C169 C170 1.397 . S
C170 C169 1.397 . S
C170 C171 1.438 . S
C170 C175 1.429 . S
C171 C154 1.394 . S
C171 C170 1.438 . S
C171 C172 1.428 . S
C172 H164 0.949 . S
C172 C171 1.428 . S
C172 C173 1.345 . S
C173 H165 0.950 . S
C173 C172 1.345 . S
C173 C174 1.424 . S
C174 H166 0.951 . S
C174 C173 1.424 . S
C174 C175 1.347 . S
C175 H167 0.951 . S
C175 C170 1.429 . S
C175 C174 1.347 . S
H176 C177 0.951 . S
C177 H176 0.951 . S
C177 C183 1.265 . S
H178 C183 0.950 . S
H179 C187 0.949 1_565 S
H180 C188 0.950 . S
H181 C189 0.951 . S
H182 C190 0.965 . S
C183 C177 1.265 . S
C183 H178 0.950 . S
C183 C184 1.478 . S
C184 C183 1.478 . S
C184 C185 1.397 1_454 S
C184 C201 1.394 1_545 S
C185 C184 1.397 1_656 S
C185 C186 1.438 . S
C185 C190 1.429 . S
C186 C185 1.438 . S
C186 C187 1.428 . S
C186 C199 1.394 1_545 S
C187 H179 0.949 1_545 S
C187 C186 1.428 . S
C187 C188 1.345 . S
C188 H180 0.950 . S
C188 C187 1.345 . S
C188 C189 1.424 . S
C189 H181 0.951 . S
C189 C188 1.424 . S
C189 C190 1.347 . S
C190 H182 0.965 . S
C190 C185 1.429 . S
C190 C189 1.347 . S
H191 C192 0.951 . S
C192 H191 0.951 . S
C192 C198 1.265 . S
H193 C198 0.950 . S
H194 C202 0.949 1_545 S
H195 C203 0.950 . S
H196 C204 0.951 . S
H197 C205 0.965 . S
C198 C192 1.265 . S
C198 H193 0.950 . S
C198 C199 1.478 . S
C199 C186 1.394 1_565 S
C199 C198 1.478 . S
C199 C200 1.397 1_656 S
C200 C199 1.397 1_454 S
C200 C201 1.438 . S
C200 C205 1.429 . S
C201 C184 1.394 1_565 S
C201 C200 1.438 . S
C201 C202 1.428 . S
C202 H194 0.949 1_565 S
C202 C201 1.428 . S
C202 C203 1.345 . S
C203 H195 0.950 . S
C203 C202 1.345 . S
C203 C204 1.424 . S
C204 H196 0.951 . S
C204 C203 1.424 . S
C204 C205 1.347 . S
C205 H197 0.965 . S
C205 C200 1.429 . S
C205 C204 1.347 . S
H206 C207 0.951 . S
C207 H206 0.951 . S
C207 C213 1.265 . S
H208 C213 0.950 . S
H209 C217 0.949 . S
H210 C218 0.950 . S
H211 C219 0.951 . S
H212 C220 0.951 1_556 S
C213 C207 1.265 . S
C213 H208 0.950 . S
C213 C214 1.478 . S
C214 C213 1.478 . S
C214 C215 1.397 1_546 S
C214 C231 1.394 . S
C215 C214 1.397 1_564 S
C215 C216 1.438 . S
C215 C220 1.429 . S
C216 C215 1.438 . S
C216 C217 1.428 . S
C216 C229 1.394 . S
C217 H209 0.949 . S
C217 C216 1.428 . S
C217 C218 1.345 . S
C218 H210 0.950 . S
C218 C217 1.345 . S
C218 C219 1.424 . S
C219 H211 0.951 . S
C219 C218 1.424 . S
C219 C220 1.347 . S
C220 H212 0.951 1_554 S
C220 C215 1.429 . S
C220 C219 1.347 . S
H221 C222 0.951 . S
C222 H221 0.951 . S
C222 C228 1.265 . S
H223 C228 0.950 . S
H224 C232 0.949 . S
H225 C233 0.950 . S
H226 C234 0.951 . S
H227 C235 0.951 1_554 S
C228 C222 1.265 . S
C228 H223 0.950 . S
C228 C229 1.478 . S
C229 C216 1.394 . S
C229 C228 1.478 . S
C229 C230 1.397 1_564 S
C230 C229 1.397 1_546 S
C230 C231 1.438 . S
C230 C235 1.429 . S
C231 C214 1.394 . S
C231 C230 1.438 . S
C231 C232 1.428 . S
C232 H224 0.949 . S
C232 C231 1.428 . S
C232 C233 1.345 . S
C233 H225 0.950 . S
C233 C232 1.345 . S
C233 C234 1.424 . S
C234 H226 0.951 . S
C234 C233 1.424 . S
C234 C235 1.347 . S
C235 H227 0.951 1_556 S
C235 C230 1.429 . S
C235 C234 1.347 . S
H236 C237 0.951 . S
C237 H236 0.951 . S
C237 C243 1.265 . S
H238 C243 0.950 . S
H239 C247 0.949 . S
H240 C248 0.950 . S
H241 C249 0.951 . S
H242 C250 0.951 . S
C243 C237 1.265 . S
C243 H238 0.950 . S
C243 C244 1.478 . S
C244 C243 1.478 . S
C244 C245 1.397 . S
C244 C261 1.394 . S
C245 C244 1.397 . S
C245 C246 1.438 1_655 S
C245 C250 1.429 . S
C246 C245 1.438 1_455 S
C246 C247 1.428 . S
C246 C259 1.394 . S
C247 H239 0.949 . S
C247 C246 1.428 . S
C247 C248 1.345 . S
C248 H240 0.950 . S
C248 C247 1.345 . S
C248 C249 1.424 1_455 S
C249 H241 0.951 . S
C249 C248 1.424 1_655 S
C249 C250 1.347 . S
C250 H242 0.951 . S
C250 C245 1.429 . S
C250 C249 1.347 . S
H251 C252 0.951 . S
C252 H251 0.951 . S
C252 C258 1.265 . S
H253 C258 0.950 . S
H254 C262 0.949 . S
H255 C263 0.950 . S
H256 C264 0.951 . S
H257 C265 0.951 . S
C258 C252 1.265 . S
C258 H253 0.950 . S
C258 C259 1.478 . S
C259 C246 1.394 . S
C259 C258 1.478 . S
C259 C260 1.397 . S
C260 C259 1.397 . S
C260 C261 1.438 1_455 S
C260 C265 1.429 . S
C261 C244 1.394 . S
C261 C260 1.438 1_655 S
C261 C262 1.428 . S
C262 H254 0.949 . S
C262 C261 1.428 . S
C262 C263 1.345 . S
C263 H255 0.950 . S
C263 C262 1.345 . S
C263 C264 1.424 1_655 S
C264 H256 0.951 . S
C264 C263 1.424 1_455 S
C264 C265 1.347 . S
C265 H257 0.951 . S
C265 C260 1.429 . S
C265 C264 1.347 . S
H266 C267 0.951 . S
C267 H266 0.951 . S
C267 C273 1.265 . S
H268 C273 0.950 . S
H269 C277 0.949 . S
H270 C278 0.950 . S
H271 C279 0.951 . S
H272 C280 0.951 . S
C273 C267 1.265 . S
C273 H268 0.950 . S
C273 C274 1.478 . S
C274 C273 1.478 . S
C274 C275 1.397 . S
C274 C291 1.394 . S
C275 C274 1.397 . S
C275 C276 1.438 . S
C275 C280 1.429 . S
C276 C275 1.438 . S
C276 C277 1.428 . S
C276 C289 1.394 . S
C277 H269 0.949 . S
C277 C276 1.428 . S
C277 C278 1.345 . S
C278 H270 0.950 . S
C278 C277 1.345 . S
C278 C279 1.424 . S
C279 H271 0.951 . S
C279 C278 1.424 . S
C279 C280 1.347 . S
C280 H272 0.951 . S
C280 C275 1.429 . S
C280 C279 1.347 . S
H281 C282 0.951 . S
C282 H281 0.951 . S
C282 C288 1.265 . S
H283 C288 0.950 . S
H284 C292 0.949 . S
H285 C293 0.950 . S
H286 C294 0.951 . S
H287 C295 0.951 . S
C288 C282 1.265 . S
C288 H283 0.950 . S
C288 C289 1.478 . S
C289 C276 1.394 . S
C289 C288 1.478 . S
C289 C290 1.397 . S
C290 C289 1.397 . S
C290 C291 1.438 . S
C290 C295 1.429 . S
C291 C274 1.394 . S
C291 C290 1.438 . S
C291 C292 1.428 . S
C292 H284 0.949 . S
C292 C291 1.428 . S
C292 C293 1.345 . S
C293 H285 0.950 . S
C293 C292 1.345 . S
C293 C294 1.424 . S
C294 H286 0.951 . S
C294 C293 1.424 . S
C294 C295 1.347 . S
C295 H287 0.951 . S
C295 C290 1.429 . S
C295 C294 1.347 . S
C57 C23 0.983 . S
C72 C5 0.979 . S
C87 C9 1.028 . S
C102 C19 1.034 . S
C117 C51 0.978 . S
C132 C33 0.984 . S
C147 C37 0.982 . S
C162 C47 0.980 . S
C177 C0 1.494 . S
C192 C28 1.494 . S
C207 C53 1.554 . S
C222 C25 1.554 . S
C237 C39 1.530 . S
C252 C11 1.530 . S
C267 C14 1.539 . S
C282 C42 1.539 . S
