# Generated by pormake.
# Topology wke, (5)-cn, num edge types: 1
# Building blocks:
#     Node 0, Type 0, BuildingBlock: BEQFEK_clean_sbu_0, # of connection points: 5
#     Node 1, Type 0, BuildingBlock: BEQFEK_clean_sbu_0, # of connection points: 5
#     Node 2, Type 0, BuildingBlock: BEQFEK_clean_sbu_0, # of connection points: 5
#     Node 3, Type 0, BuildingBlock: BEQFEK_clean_sbu_0, # of connection points: 5
#     Node 4, Type 0, BuildingBlock: BEQFEK_clean_sbu_0, # of connection points: 5
#     Node 5, Type 0, BuildingBlock: BEQFEK_clean_sbu_0, # of connection points: 5
#     Node 6, Type 0, BuildingBlock: BEQFEK_clean_sbu_0, # of connection points: 5
#     Node 7, Type 0, BuildingBlock: BEQFEK_clean_sbu_0, # of connection points: 5
#     Node 8, Type 0, BuildingBlock: BEQFEK_clean_sbu_0, # of connection points: 5
#     Node 9, Type 0, BuildingBlock: BEQFEK_clean_sbu_0, # of connection points: 5
#     Node 10, Type 0, BuildingBlock: BEQFEK_clean_sbu_0, # of connection points: 5
#     Node 11, Type 0, BuildingBlock: BEQFEK_clean_sbu_0, # of connection points: 5
#     Edge 12, Type (0, 0), BuildingBlock: UVAHIK_clean_linker_0, # of connection points: 2
#     Edge 13, Type (0, 0), BuildingBlock: UVAHIK_clean_linker_0, # of connection points: 2
#     Edge 14, Type (0, 0), BuildingBlock: UVAHIK_clean_linker_0, # of connection points: 2
#     Edge 15, Type (0, 0), BuildingBlock: UVAHIK_clean_linker_0, # of connection points: 2
#     Edge 16, Type (0, 0), BuildingBlock: UVAHIK_clean_linker_0, # of connection points: 2
#     Edge 17, Type (0, 0), BuildingBlock: UVAHIK_clean_linker_0, # of connection points: 2
#     Edge 18, Type (0, 0), BuildingBlock: UVAHIK_clean_linker_0, # of connection points: 2
#     Edge 19, Type (0, 0), BuildingBlock: UVAHIK_clean_linker_0, # of connection points: 2
#     Edge 20, Type (0, 0), BuildingBlock: UVAHIK_clean_linker_0, # of connection points: 2
#     Edge 21, Type (0, 0), BuildingBlock: UVAHIK_clean_linker_0, # of connection points: 2
#     Edge 22, Type (0, 0), BuildingBlock: UVAHIK_clean_linker_0, # of connection points: 2
#     Edge 23, Type (0, 0), BuildingBlock: UVAHIK_clean_linker_0, # of connection points: 2
#     Edge 24, Type (0, 0), BuildingBlock: UVAHIK_clean_linker_0, # of connection points: 2
#     Edge 25, Type (0, 0), BuildingBlock: UVAHIK_clean_linker_0, # of connection points: 2
#     Edge 26, Type (0, 0), BuildingBlock: UVAHIK_clean_linker_0, # of connection points: 2
#     Edge 27, Type (0, 0), BuildingBlock: UVAHIK_clean_linker_0, # of connection points: 2
#     Edge 28, Type (0, 0), BuildingBlock: UVAHIK_clean_linker_0, # of connection points: 2
#     Edge 29, Type (0, 0), BuildingBlock: UVAHIK_clean_linker_0, # of connection points: 2
#     Edge 30, Type (0, 0), BuildingBlock: UVAHIK_clean_linker_0, # of connection points: 2
#     Edge 31, Type (0, 0), BuildingBlock: UVAHIK_clean_linker_0, # of connection points: 2
#     Edge 32, Type (0, 0), BuildingBlock: UVAHIK_clean_linker_0, # of connection points: 2
#     Edge 33, Type (0, 0), BuildingBlock: UVAHIK_clean_linker_0, # of connection points: 2
#     Edge 34, Type (0, 0), BuildingBlock: UVAHIK_clean_linker_0, # of connection points: 2
#     Edge 35, Type (0, 0), BuildingBlock: UVAHIK_clean_linker_0, # of connection points: 2
#     Edge 36, Type (0, 0), BuildingBlock: UVAHIK_clean_linker_0, # of connection points: 2
#     Edge 37, Type (0, 0), BuildingBlock: UVAHIK_clean_linker_0, # of connection points: 2
#     Edge 38, Type (0, 0), BuildingBlock: UVAHIK_clean_linker_0, # of connection points: 2
#     Edge 39, Type (0, 0), BuildingBlock: UVAHIK_clean_linker_0, # of connection points: 2
#     Edge 40, Type (0, 0), BuildingBlock: UVAHIK_clean_linker_0, # of connection points: 2
#     Edge 41, Type (0, 0), BuildingBlock: UVAHIK_clean_linker_0, # of connection points: 2
# Relax obj value: 0.203
# Max RMSD: 0.170
# Mean RMSD: 0.170
data_MOF--net-wke--node1-BEQFEK_clean_sbu_0--edge1-UVAHIK_clean_linker_0
_symmetry_space_group_name_H-M    P1
_symmetry_Int_Tables_number       1
_symmetry_cell_setting            triclinic
loop_
_symmetry_equiv_pos_as_xyz
'x, y, z'
_cell_length_a     92.706289
_cell_length_b     92.689733
_cell_length_c     22.861593
_cell_angle_alpha  89.997006
_cell_angle_beta   89.989425
_cell_angle_gamma 120.01297
loop_
_atom_site_label
_atom_site_type_symbol
_atom_site_fract_x
_atom_site_fract_y
_atom_site_fract_z
_atom_type_partial_charge
Co0 Co 0.10228 0.44636 0.27455 0.0
Co1 Co 0.11567 0.45801 0.40071 0.0
C2 C 0.08047 0.4309 0.37836 0.0
O3 O 0.08262 0.43151 0.32321 0.0
O4 O 0.09216 0.4406 0.4125 0.0
C5 C 0.09246 0.42559 0.16926 0.0
O6 O 0.09082 0.41315 0.20162 0.0
C7 C 0.12317 0.45456 0.52236 0.0
C8 C 0.13999 0.48076 0.54777 0.0
C9 C 0.13185 0.46463 0.56931 0.0
N10 N 0.1261 0.4643 0.4752 0.0
N11 N 0.13638 0.47992 0.49042 0.0
C12 C 0.11106 0.43622 0.52332 0.0
H13 H 0.10725 0.4313 0.4784 0.0
H14 H 0.11674 0.42946 0.54412 0.0
H15 H 0.09997 0.43376 0.54942 0.0
C16 C 0.13278 0.44315 0.26881 0.0
N17 N 0.12182 0.44607 0.29785 0.0
N18 N 0.127 0.4503 0.35205 0.0
C19 C 0.14108 0.44968 0.35982 0.0
C20 C 0.14526 0.44519 0.30725 0.0
C21 C 0.13252 0.44058 0.20408 0.0
H22 H 0.12756 0.44774 0.18138 0.0
H23 H 0.12444 0.42715 0.19416 0.0
H24 H 0.14519 0.44462 0.18706 0.0
O25 O 0.10649 0.46942 0.2773 0.0
O26 O 0.11648 0.47813 0.36644 0.0
H27 H 0.15547 0.46632 0.42864 0.0
H28 H 0.16014 0.44981 0.41551 0.0
C29 C 0.1501 0.45299 0.41692 0.0
H30 H 0.14118 0.44537 0.45152 0.0
H31 H 0.14037 0.49007 0.46223 0.0
O32 O 0.09689 0.43963 0.19259 0.0
C33 C 0.11228 0.48073 0.31623 0.0
Co34 Co 0.65555 0.1039 0.78405 0.0
Co35 Co 0.65625 0.11636 0.9112 0.0
C36 C 0.64815 0.08126 0.88571 0.0
O37 O 0.6503 0.08387 0.83092 0.0
O38 O 0.64983 0.09269 0.92051 0.0
C39 C 0.66733 0.09434 0.68122 0.0
O40 O 0.67776 0.09281 0.71605 0.0
C41 C 0.66718 0.12199 0.03225 0.0
C42 C 0.65563 0.13607 0.06682 0.0
C43 C 0.66472 0.12856 0.08317 0.0
N44 N 0.65994 0.12548 0.98785 0.0
N45 N 0.65331 0.13417 0.00855 0.0
C46 C 0.67461 0.11094 0.02676 0.0
H47 H 0.6761 0.10864 0.98018 0.0
H48 H 0.68701 0.1168 0.04793 0.0
H49 H 0.66648 0.09894 0.04928 0.0
C50 C 0.68921 0.13436 0.78226 0.0
N51 N 0.6752 0.12318 0.81004 0.0
N52 N 0.67567 0.12811 0.86435 0.0
C53 C 0.69017 0.14236 0.8733 0.0
C54 C 0.69924 0.14679 0.82153 0.0
C55 C 0.69195 0.13442 0.71767 0.0
H56 H 0.67996 0.12948 0.69407 0.0
H57 H 0.69744 0.12645 0.7079 0.0
H58 H 0.70061 0.14718 0.70146 0.0
O59 O 0.6368 0.10825 0.78639 0.0
O60 O 0.63728 0.11768 0.87606 0.0
H61 H 0.68623 0.15568 0.94202 0.0
H62 H 0.70797 0.16228 0.92929 0.0
C63 C 0.69515 0.15146 0.93043 0.0
H64 H 0.69462 0.14286 0.96507 0.0
H65 H 0.64642 0.138 0.9835 0.0
O66 O 0.65748 0.09884 0.7019 0.0
C67 C 0.63095 0.11383 0.82501 0.0
Co68 Co 0.54928 0.65509 0.2731 0.0
Co69 Co 0.53818 0.6564 0.40075 0.0
C70 C 0.56462 0.64762 0.37449 0.0
O71 O 0.56394 0.64953 0.31964 0.0
O72 O 0.55521 0.64972 0.40965 0.0
C73 C 0.57056 0.667 0.17063 0.0
O74 O 0.58233 0.67754 0.2058 0.0
C75 C 0.54357 0.66746 0.52194 0.0
C76 C 0.5179 0.65651 0.55577 0.0
C77 C 0.53449 0.66533 0.57249 0.0
N78 N 0.53288 0.66033 0.47733 0.0
N79 N 0.51755 0.65405 0.4976 0.0
C80 C 0.56201 0.67456 0.51714 0.0
H81 H 0.56591 0.67571 0.47075 0.0
H82 H 0.56867 0.6871 0.53738 0.0
H83 H 0.56564 0.66646 0.54109 0.0
C84 C 0.55274 0.68887 0.2705 0.0
N85 N 0.55002 0.67496 0.29878 0.0
N86 N 0.546 0.67574 0.35344 0.0
C87 C 0.54659 0.69041 0.36223 0.0
C88 C 0.55085 0.69921 0.30988 0.0
C89 C 0.55465 0.69116 0.20554 0.0
H90 H 0.54756 0.67898 0.18311 0.0
H91 H 0.56802 0.69687 0.19393 0.0
H92 H 0.55009 0.69948 0.18971 0.0
O93 O 0.52605 0.63661 0.27605 0.0
O94 O 0.51767 0.6375 0.3663 0.0
H95 H 0.52999 0.68745 0.43219 0.0
H96 H 0.54594 0.7089 0.41893 0.0
C97 C 0.54321 0.69581 0.41984 0.0
H98 H 0.55116 0.69481 0.4538 0.0
H99 H 0.50684 0.64733 0.47233 0.0
O100 O 0.55622 0.65692 0.19096 0.0
C101 C 0.51484 0.63103 0.3154 0.0
Co102 Co 0.88998 0.55041 0.78128 0.0
Co103 Co 0.88111 0.53817 0.90951 0.0
C104 C 0.91547 0.56567 0.87286 0.0
O105 O 0.91159 0.56536 0.81934 0.0
O106 O 0.90487 0.55579 0.9098 0.0
C107 C 0.90121 0.57082 0.67653 0.0
O108 O 0.91346 0.58218 0.70815 0.0
C109 C 0.87951 0.54656 0.02846 0.0
C110 C 0.86625 0.52237 0.07424 0.0
C111 C 0.87422 0.53946 0.08312 0.0
N112 N 0.87511 0.53431 0.98925 0.0
N113 N 0.86711 0.51984 0.01657 0.0
C114 C 0.88772 0.56463 0.01246 0.0
H115 H 0.88494 0.56611 0.96639 0.0
H116 H 0.8835 0.57133 0.04184 0.0
H117 H 0.9014 0.57034 0.01681 0.0
C118 C 0.86136 0.55589 0.79779 0.0
N119 N 0.87225 0.55147 0.81797 0.0
N120 N 0.86784 0.54541 0.87107 0.0
C121 C 0.85376 0.54539 0.88595 0.0
C122 C 0.84933 0.55221 0.84022 0.0
C123 C 0.86159 0.56201 0.73704 0.0
H124 H 0.85987 0.55221 0.70536 0.0
H125 H 0.87387 0.57321 0.72848 0.0
H126 H 0.85162 0.56512 0.73016 0.0
O127 O 0.88555 0.52702 0.78079 0.0
O128 O 0.87874 0.5179 0.87213 0.0
H129 H 0.84374 0.52643 0.95194 0.0
H130 H 0.83174 0.53673 0.93993 0.0
C131 C 0.84447 0.53849 0.94197 0.0
H132 H 0.8513 0.54727 0.97804 0.0
H133 H 0.86248 0.50829 -0.00393 0.0
O134 O 0.89078 0.55699 0.6994 0.0
C135 C 0.88116 0.51554 0.81897 0.0
Co136 Co 0.33954 0.89418 0.27541 0.0
Co137 Co 0.3385 0.88122 0.40209 0.0
C138 C 0.34748 0.91672 0.37715 0.0
O139 O 0.34538 0.91437 0.32222 0.0
O140 O 0.34545 0.90503 0.41137 0.0
C141 C 0.32949 0.90531 0.17162 0.0
O142 O 0.32048 0.90902 0.20613 0.0
C143 C 0.32699 0.87534 0.52259 0.0
C144 C 0.33903 0.86184 0.55818 0.0
C145 C 0.32965 0.86908 0.57403 0.0
N146 N 0.33453 0.87204 0.47867 0.0
N147 N 0.34141 0.86365 0.49995 0.0
C148 C 0.31908 0.88592 0.51611 0.0
H149 H 0.32576 0.89725 0.54365 0.0
H150 H 0.31909 0.88945 0.46981 0.0
H151 H 0.30597 0.87891 0.53116 0.0
C152 C 0.30529 0.8646 0.27411 0.0
N153 N 0.31956 0.87531 0.30164 0.0
N154 N 0.31907 0.87002 0.35545 0.0
C155 C 0.30439 0.85596 0.36416 0.0
C156 C 0.29518 0.85213 0.31302 0.0
C157 C 0.30172 0.86584 0.21103 0.0
H158 H 0.29929 0.87632 0.20557 0.0
H159 H 0.29063 0.85433 0.19525 0.0
H160 H 0.31267 0.86838 0.18398 0.0
O161 O 0.35788 0.88912 0.27775 0.0
O162 O 0.35709 0.87932 0.36698 0.0
H163 H 0.3104 0.84344 0.43023 0.0
H164 H 0.28847 0.8333 0.41236 0.0
C165 C 0.29998 0.84551 0.4183 0.0
H166 H 0.29806 0.85224 0.45482 0.0
H167 H 0.34855 0.86002 0.47535 0.0
O168 O 0.33782 0.89909 0.19289 0.0
C169 C 0.36345 0.88318 0.316 0.0
Co170 Co 0.44777 0.34169 0.77994 0.0
Co171 Co 0.45981 0.34199 0.9069 0.0
C172 C 0.43346 0.35101 0.87752 0.0
O173 O 0.43309 0.34769 0.82344 0.0
O174 O 0.44345 0.34968 0.9121 0.0
C175 C 0.42641 0.33039 0.67845 0.0
O176 O 0.41419 0.32154 0.71504 0.0
C177 C 0.45094 0.33098 0.02496 0.0
C178 C 0.47493 0.33943 0.06987 0.0
C179 C 0.45788 0.33179 0.07933 0.0
N180 N 0.46325 0.33802 0.98551 0.0
N181 N 0.4776 0.34295 0.01229 0.0
C182 C 0.43286 0.32307 0.00949 0.0
H183 H 0.4308 0.31839 0.96383 0.0
H184 H 0.42513 0.31266 0.03978 0.0
H185 H 0.42888 0.33252 0.01255 0.0
C186 C 0.44264 0.30726 0.78364 0.0
N187 N 0.4464 0.32188 0.80888 0.0
N188 N 0.4517 0.32215 0.8625 0.0
C189 C 0.45153 0.30776 0.87303 0.0
C190 C 0.44562 0.29782 0.82364 0.0
C191 C 0.43831 0.3032 0.7204 0.0
H192 H 0.4462 0.31429 0.69308 0.0
H193 H 0.42507 0.29955 0.71369 0.0
H194 H 0.44006 0.29275 0.70596 0.0
O195 O 0.47134 0.3601 0.78282 0.0
O196 O 0.48062 0.35998 0.87238 0.0
H197 H 0.4704 0.31434 0.93811 0.0
H198 H 0.45779 0.29212 0.92527 0.0
C199 C 0.45767 0.304 0.92828 0.0
H200 H 0.44942 0.30306 0.96495 0.0
H201 H 0.48919 0.3491 0.99166 0.0
O202 O 0.44115 0.33932 0.69751 0.0
C203 C 0.48298 0.36594 0.82075 0.0
Co204 Co 0.54812 0.8918 0.21512 0.0
Co205 Co 0.53741 0.88077 0.08666 0.0
C206 C 0.56416 0.91584 0.11938 0.0
O207 O 0.56333 0.9129 0.17402 0.0
O208 O 0.55479 0.90454 0.08345 0.0
C209 C 0.56734 0.9042 0.32249 0.0
O210 O 0.57933 0.91585 0.29081 0.0
C211 C 0.54682 0.8773 0.97061 0.0
C212 C 0.523 0.86433 0.92254 0.0
C213 C 0.54013 0.87179 0.91548 0.0
N214 N 0.53431 0.87354 0.0081 0.0
N215 N 0.52005 0.86565 0.97945 0.0
C216 C 0.56472 0.88542 0.98867 0.0
H217 H 0.56574 0.88281 0.03538 0.0
H218 H 0.57157 0.88097 0.96114 0.0
H219 H 0.5706 0.8991 0.98356 0.0
C220 C 0.55325 0.86268 0.21134 0.0
N221 N 0.54954 0.87347 0.18536 0.0
N222 N 0.5445 0.86841 0.13164 0.0
C223 C 0.54475 0.8542 0.12175 0.0
C224 C 0.55034 0.85016 0.17195 0.0
C225 C 0.55896 0.86406 0.27333 0.0
H226 H 0.56967 0.87672 0.28103 0.0
H227 H 0.56281 0.85477 0.28356 0.0
H228 H 0.54869 0.86212 0.30306 0.0
O229 O 0.52475 0.88708 0.21012 0.0
O230 O 0.51662 0.87865 0.1189 0.0
H231 H 0.53555 0.83092 0.07494 0.0
H232 H 0.54758 0.84952 0.03225 0.0
C233 C 0.53819 0.84385 0.06759 0.0
H234 H 0.52664 0.84358 0.05308 0.0
H235 H 0.50839 0.86159 -0.00165 0.0
O236 O 0.55369 0.89381 0.29849 0.0
C237 C 0.51365 0.88187 0.17025 0.0
Co238 Co 0.65603 0.5519 0.7161 0.0
Co239 Co 0.65857 0.54069 0.58992 0.0
C240 C 0.64864 0.5666 0.61321 0.0
O241 O 0.65035 0.56612 0.66829 0.0
O242 O 0.6512 0.55728 0.57894 0.0
C243 C 0.66526 0.57227 0.8225 0.0
O244 O 0.67463 0.58544 0.79029 0.0
C245 C 0.67073 0.54537 0.46924 0.0
C246 C 0.66155 0.51939 0.44137 0.0
C247 C 0.66974 0.5357 0.42134 0.0
N248 N 0.66342 0.53521 0.51512 0.0
N249 N 0.6582 0.51973 0.49843 0.0
C250 C 0.6775 0.56381 0.47068 0.0
H251 H 0.67182 0.5675 0.4352 0.0
H252 H 0.67527 0.56785 0.51357 0.0
H253 H 0.69115 0.57036 0.46369 0.0
C254 C 0.69045 0.55715 0.72222 0.0
N255 N 0.67645 0.55355 0.69269 0.0
N256 N 0.67751 0.54886 0.63925 0.0
C257 C 0.69223 0.54941 0.63303 0.0
C258 C 0.70093 0.55477 0.68524 0.0
C259 C 0.69288 0.56064 0.78649 0.0
H260 H 0.6812 0.55231 0.81027 0.0
H261 H 0.69623 0.57375 0.79443 0.0
H262 H 0.703 0.5588 0.80408 0.0
O263 O 0.63798 0.52838 0.71219 0.0
O264 O 0.63984 0.52001 0.62306 0.0
H265 H 0.68833 0.53111 0.56841 0.0
H266 H 0.71007 0.54558 0.58387 0.0
C267 C 0.69756 0.54425 0.5789 0.0
H268 H 0.69794 0.55214 0.54183 0.0
H269 H 0.65178 0.50934 0.52542 0.0
O270 O 0.65697 0.55806 0.7986 0.0
C271 C 0.63295 0.5171 0.67318 0.0
Co272 Co 0.10148 0.65583 0.21108 0.0
Co273 Co 0.11534 0.65743 0.0856 0.0
C274 C 0.08005 0.64937 0.10634 0.0
O275 O 0.08198 0.65101 0.16156 0.0
O276 O 0.09186 0.65126 0.07303 0.0
C277 C 0.09154 0.66665 0.31702 0.0
O278 O 0.08984 0.67751 0.28521 0.0
C279 C 0.12308 0.66849 0.96406 0.0
C280 C 0.13938 0.65854 0.93828 0.0
C281 C 0.13152 0.66683 0.91688 0.0
N282 N 0.12584 0.66153 0.01115 0.0
N283 N 0.13583 0.65585 0.9957 0.0
C284 C 0.11136 0.6752 0.96339 0.0
H285 H 0.10058 0.66733 0.93472 0.0
H286 H 0.10701 0.67566 0.00808 0.0
H287 H 0.11769 0.68803 0.94558 0.0
C288 C 0.132 0.6895 0.21729 0.0
N289 N 0.12111 0.67563 0.18807 0.0
N290 N 0.12651 0.6765 0.13421 0.0
C291 C 0.14069 0.69116 0.12685 0.0
C292 C 0.14468 0.69987 0.17933 0.0
C293 C 0.13153 0.69182 0.28194 0.0
H294 H 0.12655 0.6797 0.30472 0.0
H295 H 0.12337 0.69711 0.29128 0.0
H296 H 0.14413 0.7005 0.2994 0.0
O297 O 0.10572 0.63702 0.20896 0.0
O298 O 0.11612 0.63815 0.12062 0.0
H299 H 0.15519 0.68858 0.0592 0.0
H300 H 0.16022 0.7099 0.07194 0.0
C301 C 0.15002 0.69675 0.07025 0.0
H302 H 0.14133 0.69564 0.03503 0.0
H303 H 0.13961 0.64949 0.02375 0.0
O304 O 0.09598 0.65712 0.29308 0.0
C305 C 0.11169 0.63144 0.17092 0.0
Co306 Co 0.44595 0.10454 0.71501 0.0
Co307 Co 0.45778 0.11653 0.58754 0.0
C308 C 0.43063 0.0815 0.61486 0.0
O309 O 0.43116 0.0843 0.66951 0.0
O310 O 0.44035 0.09281 0.57958 0.0
C311 C 0.42457 0.09465 0.81773 0.0
O312 O 0.41232 0.09206 0.78244 0.0
C313 C 0.45206 0.12196 0.46686 0.0
C314 C 0.4775 0.13499 0.4302 0.0
C315 C 0.46084 0.12796 0.41509 0.0
N316 N 0.463 0.12527 0.51042 0.0
N317 N 0.47822 0.13336 0.48849 0.0
C318 C 0.43357 0.11153 0.47405 0.0
H319 H 0.43013 0.10907 0.5209 0.0
H320 H 0.42738 0.11805 0.45524 0.0
H321 H 0.42896 0.09959 0.45022 0.0
C322 C 0.442 0.13458 0.71375 0.0
N323 N 0.4453 0.12354 0.68736 0.0
N324 N 0.45036 0.12859 0.63352 0.0
C325 C 0.45043 0.14297 0.62396 0.0
C326 C 0.44501 0.14713 0.67429 0.0
C327 C 0.438 0.13427 0.77734 0.0
H328 H 0.44552 0.13039 0.80362 0.0
H329 H 0.42461 0.12519 0.78436 0.0
H330 H 0.44049 0.14666 0.79274 0.0
O331 O 0.46917 0.10895 0.71274 0.0
O332 O 0.47799 0.11789 0.62256 0.0
H333 H 0.46876 0.1552 0.55709 0.0
H334 H 0.45618 0.16474 0.57162 0.0
C335 C 0.45609 0.15276 0.56833 0.0
H336 H 0.44755 0.14533 0.53246 0.0
H337 H 0.48903 0.13692 0.51273 0.0
O338 O 0.43911 0.09991 0.79738 0.0
C339 C 0.48054 0.11428 0.67387 0.0
Co340 Co 0.34016 0.44516 0.20874 0.0
Co341 Co 0.33847 0.45777 0.08422 0.0
C342 C 0.34803 0.43148 0.10447 0.0
O343 O 0.34564 0.43095 0.15945 0.0
O344 O 0.34605 0.44149 0.07196 0.0
C345 C 0.33103 0.42438 0.31496 0.0
O346 O 0.32153 0.41113 0.2833 0.0
C347 C 0.32773 0.45336 0.9631 0.0
C348 C 0.33557 0.4791 0.9354 0.0
C349 C 0.32854 0.46287 0.91507 0.0
N350 N 0.33395 0.4635 0.00954 0.0
N351 N 0.33838 0.47883 0.99304 0.0
C352 C 0.32318 0.43542 0.96404 0.0
H353 H 0.31926 0.43023 0.0087 0.0
H354 H 0.31299 0.42788 0.93302 0.0
H355 H 0.33422 0.43447 0.95127 0.0
C356 C 0.30581 0.44022 0.21388 0.0
N357 N 0.31999 0.44404 0.18521 0.0
N358 N 0.31918 0.44892 0.13187 0.0
C359 C 0.30433 0.44802 0.12447 0.0
C360 C 0.29538 0.44245 0.17611 0.0
C361 C 0.30259 0.43528 0.27693 0.0
H362 H 0.31365 0.44371 0.3035 0.0
H363 H 0.30028 0.4224 0.28166 0.0
H364 H 0.29152 0.43557 0.29384 0.0
O365 O 0.35854 0.46863 0.20675 0.0
O366 O 0.35689 0.47818 0.11954 0.0
H367 H 0.30909 0.46705 0.06192 0.0
H368 H 0.28722 0.45314 0.07627 0.0
C369 C 0.2995 0.45394 0.07104 0.0
H370 H 0.29896 0.44626 0.03304 0.0
H371 H 0.34397 0.48919 0.02055 0.0
O372 O 0.33904 0.4386 0.2909 0.0
C373 C 0.3637 0.48041 0.16959 0.0
Co374 Co 0.89276 0.34161 0.71453 0.0
Co375 Co 0.8807 0.34 0.5863 0.0
C376 C 0.91578 0.34848 0.61441 0.0
O377 O 0.91297 0.34675 0.66916 0.0
O378 O 0.90445 0.34645 0.57847 0.0
C379 C 0.90325 0.331 0.81707 0.0
O380 O 0.90624 0.32171 0.78129 0.0
C381 C 0.87521 0.32823 0.46623 0.0
C382 C 0.86146 0.33987 0.42931 0.0
C383 C 0.86892 0.33061 0.41442 0.0
N384 N 0.8717 0.33579 0.50953 0.0
N385 N 0.86317 0.34242 0.48747 0.0
C386 C 0.88611 0.32071 0.47357 0.0
H387 H 0.88852 0.31975 0.52049 0.0
H388 H 0.88002 0.30804 0.45439 0.0
H389 H 0.89807 0.32843 0.45022 0.0
C390 C 0.86263 0.30778 0.71712 0.0
N391 N 0.87377 0.3217 0.68881 0.0
N392 N 0.86892 0.32089 0.63418 0.0
C393 C 0.85474 0.30629 0.62571 0.0
C394 C 0.85035 0.29753 0.67791 0.0
C395 C 0.86328 0.30469 0.78108 0.0
H396 H 0.86644 0.31612 0.80625 0.0
H397 H 0.8731 0.30142 0.7888 0.0
H398 H 0.85132 0.29425 0.79724 0.0
O399 O 0.88822 0.36027 0.70963 0.0
O400 O 0.87915 0.35906 0.61891 0.0
H401 H 0.84254 0.31181 0.5571 0.0
H402 H 0.83263 0.28993 0.57568 0.0
C403 C 0.84477 0.30158 0.57044 0.0
H404 H 0.85194 0.2998 0.53519 0.0
H405 H 0.85936 0.34951 0.51148 0.0
O406 O 0.89752 0.33993 0.79718 0.0
C407 C 0.88274 0.36577 0.66942 0.0
C408 C 0.06197 0.41698 0.4644 0.0
C409 C 0.06393 0.41924 0.40352 0.0
C410 C 0.04623 0.40699 0.48882 0.0
C411 C 0.00251 0.37515 0.45361 0.0
H412 H 0.99266 0.39333 0.59077 0.0
C413 C 0.93576 0.35486 0.5315 0.0
C414 C 0.93266 0.3536 0.59205 0.0
C415 C 0.95188 0.36079 0.51027 0.0
C416 C 0.99527 0.38793 0.55306 0.0
H417 H 0.05091 0.41232 0.32039 0.0
H418 H 0.02336 0.39518 0.3631 0.0
H419 H 0.02064 0.4075 0.55011 0.0
H420 H 0.94402 0.35704 0.67771 0.0
H421 H 0.97218 0.36742 0.64049 0.0
H422 H 0.97689 0.35583 0.45587 0.0
C423 C 0.03404 0.40093 0.39196 0.0
C424 C 0.01133 0.39605 0.52972 0.0
C425 C 0.04984 0.41084 0.36746 0.0
C426 C 0.94598 0.35793 0.63083 0.0
C427 C 0.96212 0.36395 0.60956 0.0
C428 C 0.98639 0.36707 0.47686 0.0
C429 C 0.03202 0.39912 0.45301 0.0
C430 C 0.01513 0.38984 0.47943 0.0
C431 C 0.96528 0.36567 0.54908 0.0
C432 C 0.98258 0.37346 0.52654 0.0
H433 H 0.07257 0.42312 0.49345 0.0
H434 H 0.04517 0.4056 0.53592 0.0
H435 H 0.00507 0.36991 0.41536 0.0
H436 H 0.92579 0.35158 0.50035 0.0
H437 H 0.95394 0.36212 0.46345 0.0
C438 C 0.63851 0.05092 0.87181 0.0
C439 C 0.64285 0.06447 0.90947 0.0
C440 C 0.63215 0.03485 0.89432 0.0
C441 C 0.62794 0.01087 0.0287 0.0
H442 H 0.58737 0.97709 0.95477 0.0
C443 C 0.58397 0.94647 0.13419 0.0
C444 C 0.57571 0.93273 0.0965 0.0
C445 C 0.5938 0.96254 0.11144 0.0
C446 C 0.59885 0.98626 0.97544 0.0
H447 H 0.64455 0.07182 0.00054 0.0
H448 H 0.63348 0.0438 0.0396 0.0
H449 H 0.60203 0.00502 0.91405 0.0
H450 H 0.57189 0.92506 0.00541 0.0
H451 H 0.58936 0.95277 0.96621 0.0
H452 H 0.62469 0.99204 0.09026 0.0
C453 C 0.63504 0.04562 0.99272 0.0
C454 C 0.60724 0.00229 0.95204 0.0
C455 C 0.6413 0.06167 0.97023 0.0
C456 C 0.57798 0.93533 0.03582 0.0
C457 C 0.58791 0.95129 0.01322 0.0
C458 C 0.61958 0.99474 0.05196 0.0
C459 C 0.63009 0.032 0.95495 0.0
C460 C 0.62182 0.01479 0.9785 0.0
C461 C 0.59565 0.96515 0.05058 0.0
C462 C 0.6049 0.98226 0.02566 0.0
H463 H 0.63962 0.05263 0.82482 0.0
H464 H 0.62862 0.02459 0.86422 0.0
H465 H 0.63922 0.02025 0.04978 0.0
H466 H 0.58246 0.94489 0.18116 0.0
H467 H 0.59947 0.97296 0.14149 0.0
C468 C 0.63797 0.58648 0.62573 0.0
C469 C 0.64289 0.57763 0.58859 0.0
C470 C 0.63137 0.5959 0.60259 0.0
C471 C 0.62759 0.6157 0.46766 0.0
H472 H 0.58697 0.60911 0.54061 0.0
C473 C 0.5841 0.63641 0.36093 0.0
C474 C 0.57601 0.6422 0.39816 0.0
C475 C 0.59375 0.63004 0.38414 0.0
C476 C 0.59845 0.61133 0.52022 0.0
H477 H 0.64535 0.57231 0.4978 0.0
H478 H 0.63375 0.5887 0.45759 0.0
H479 H 0.60135 0.59556 0.58153 0.0
H480 H 0.57238 0.64655 0.48886 0.0
H481 H 0.58945 0.63587 0.52903 0.0
H482 H 0.62461 0.63145 0.40613 0.0
C483 C 0.63506 0.58838 0.50458 0.0
C484 C 0.60668 0.60354 0.5437 0.0
C485 C 0.6416 0.5789 0.5277 0.0
C486 C 0.57829 0.64205 0.45889 0.0
C487 C 0.58801 0.63582 0.482 0.0
C488 C 0.61937 0.62359 0.44426 0.0
C489 C 0.6296 0.59674 0.54183 0.0
C490 C 0.62131 0.60559 0.51764 0.0
C491 C 0.59558 0.62942 0.44503 0.0
C492 C 0.60468 0.62146 0.47024 0.0
H493 H 0.63887 0.58587 0.6728 0.0
H494 H 0.62748 0.6024 0.63235 0.0
H495 H 0.63892 0.61762 0.44693 0.0
H496 H 0.58259 0.63633 0.31393 0.0
H497 H 0.5993 0.6251 0.35442 0.0
C498 C 0.04934 0.63853 0.11507 0.0
C499 C 0.06367 0.64455 0.08006 0.0
C500 C 0.03371 0.63274 0.08946 0.0
C501 C 0.01181 0.61602 0.94931 0.0
H502 H 0.97666 0.62006 0.02574 0.0
C503 C 0.94533 0.5872 0.85306 0.0
C504 C 0.9326 0.57744 0.89304 0.0
C505 C 0.96163 0.59769 0.87262 0.0
C506 C 0.98638 0.61886 0.00391 0.0
H507 H 0.07289 0.64998 0.99087 0.0
H508 H 0.04575 0.64031 0.94647 0.0
H509 H 0.0048 0.63459 0.06616 0.0
H510 H 0.92702 0.57132 0.98505 0.0
H511 H 0.95527 0.58968 0.01884 0.0
H512 H 0.99331 0.60016 0.88741 0.0
C513 C 0.0465 0.63962 0.99357 0.0
C514 C 0.00247 0.62711 0.02716 0.0
C515 C 0.06209 0.64525 0.0191 0.0
C516 C 0.93646 0.5787 0.953 0.0
C517 C 0.95265 0.5893 0.9725 0.0
C518 C 0.99575 0.60788 0.92584 0.0
C519 C 0.03207 0.63299 0.02831 0.0
C520 C 0.01532 0.62553 0.00079 0.0
C521 C 0.96544 0.59877 0.93254 0.0
C522 C 0.98281 0.60896 0.95356 0.0
H523 H 0.05012 0.63778 0.16214 0.0
H524 H 0.02285 0.62752 0.11756 0.0
H525 H 0.02131 0.61429 0.92829 0.0
H526 H 0.94278 0.58653 0.8066 0.0
H527 H 0.97126 0.60492 0.84092 0.0
C528 C 0.41751 0.06169 0.53122 0.0
C529 C 0.419 0.06466 0.59186 0.0
C530 C 0.40745 0.0456 0.50945 0.0
C531 C 0.39096 0.00213 0.55135 0.0
H532 H 0.36346 0.99257 0.41295 0.0
C533 C 0.35274 0.93545 0.46293 0.0
C534 C 0.35287 0.93339 0.40205 0.0
C535 C 0.35882 0.95126 0.48713 0.0
C536 C 0.37119 0.99507 0.45136 0.0
H537 H 0.41061 0.05312 0.67707 0.0
H538 H 0.39307 0.02502 0.63889 0.0
H539 H 0.3776 0.02072 0.45372 0.0
H540 H 0.35907 0.94631 0.31872 0.0
H541 H 0.37006 0.974 0.36107 0.0
H542 H 0.38504 0.97672 0.54835 0.0
C543 C 0.39982 0.03515 0.60833 0.0
C544 C 0.37924 0.01117 0.47476 0.0
C545 C 0.40981 0.05126 0.63015 0.0
C546 C 0.35879 0.94747 0.36579 0.0
C547 C 0.365 0.96334 0.39008 0.0
C548 C 0.38301 0.98609 0.52783 0.0
C549 C 0.39872 0.03212 0.5478 0.0
C550 C 0.3893 0.01487 0.52479 0.0
C551 C 0.36531 0.96544 0.45112 0.0
C552 C 0.3731 0.98237 0.47734 0.0
H553 H 0.42437 0.07173 0.50046 0.0
H554 H 0.40697 0.04364 0.46261 0.0
H555 H 0.39886 0.00467 0.58933 0.0
H556 H 0.3481 0.92485 0.49214 0.0
H557 H 0.35854 0.95238 0.53422 0.0
C558 C 0.42662 0.36577 0.95433 0.0
C559 C 0.42267 0.35718 0.90074 0.0
C560 C 0.41712 0.37251 0.97522 0.0
C561 C 0.37685 0.36914 0.97647 0.0
H562 H 0.40061 0.41703 0.00026 0.0
C563 C 0.35309 0.40728 0.10808 0.0
C564 C 0.35413 0.42098 0.07784 0.0
C565 C 0.35987 0.39811 0.08387 0.0
C566 C 0.39384 0.40366 0.99369 0.0
H567 H 0.40526 0.34835 0.82817 0.0
H568 H 0.3883 0.35985 0.86594 0.0
H569 H 0.4156 0.40334 0.96399 0.0
H570 H 0.36277 0.43557 -0.00201 0.0
H571 H 0.37498 0.41983 0.95684 0.0
H572 H 0.35517 0.36948 0.00794 0.0
C573 C 0.39892 0.36147 0.89104 0.0
C574 C 0.4024 0.39586 0.97323 0.0
C575 C 0.40865 0.35499 0.86942 0.0
C576 C 0.36175 0.42509 0.02245 0.0
C577 C 0.36878 0.41613 -0.00113 0.0
C578 C 0.36834 0.37693 -0.00177 0.0
C579 C 0.40327 0.37049 0.9436 0.0
C580 C 0.39397 0.37856 0.96438 0.0
C581 C 0.36805 0.4027 0.02963 0.0
C582 C 0.37679 0.39426 0.00672 0.0
H583 H 0.43733 0.36768 0.97955 0.0
H584 H 0.42063 0.37939 0.01599 0.0
H585 H 0.37016 0.35577 0.97008 0.0
H586 H 0.34722 0.40377 0.15069 0.0
H587 H 0.35924 0.38781 0.10839 0.0
C588 C 0.11561 0.60745 0.1424 0.0
C589 C 0.11345 0.61687 0.18606 0.0
C590 C 0.1166 0.59331 0.15721 0.0
C591 C 0.10621 0.56282 0.2781 0.0
H592 H 0.13441 0.55059 0.19116 0.0
C593 C 0.1163 0.50849 0.34726 0.0
C594 C 0.114 0.49713 0.30252 0.0
C595 C 0.11725 0.52368 0.33402 0.0
C596 C 0.12645 0.55386 0.21567 0.0
H597 H 0.11123 0.61919 0.27964 0.0
H598 H 0.11348 0.59499 0.30548 0.0
H599 H 0.13433 0.57616 0.16618 0.0
H600 H 0.11137 0.49302 0.20868 0.0
H601 H 0.11323 0.51958 0.18576 0.0
H602 H 0.09853 0.54059 0.32802 0.0
C603 C 0.11388 0.59812 0.25966 0.0
C604 C 0.12632 0.56845 0.20121 0.0
C605 C 0.11269 0.61209 0.24483 0.0
C606 C 0.11306 0.50145 0.24423 0.0
C607 C 0.11424 0.5167 0.23098 0.0
C608 C 0.1065 0.54835 0.29295 0.0
C609 C 0.11564 0.58841 0.21605 0.0
C610 C 0.11612 0.57308 0.23202 0.0
C611 C 0.11617 0.5279 0.27576 0.0
C612 C 0.11653 0.54367 0.26165 0.0
H613 H 0.11619 0.61078 0.0967 0.0
H614 H 0.11773 0.58603 0.12235 0.0
H615 H 0.09793 0.56576 0.30208 0.0
H616 H 0.11708 0.50554 0.39259 0.0
H617 H 0.11886 0.53215 0.36932 0.0
C618 C 0.50841 0.11827 0.64471 0.0
C619 C 0.4969 0.11607 0.68878 0.0
C620 C 0.52354 0.11925 0.65893 0.0
C621 C 0.55327 0.12841 0.77901 0.0
H622 H 0.56566 0.10025 0.69266 0.0
C623 C 0.60684 0.11758 0.85332 0.0
C624 C 0.61645 0.1157 0.80972 0.0
C625 C 0.59272 0.11857 0.83833 0.0
C626 C 0.56257 0.10842 0.71666 0.0
H627 H 0.49248 0.11364 0.78248 0.0
H628 H 0.51895 0.1155 0.80711 0.0
H629 H 0.5405 0.10074 0.66595 0.0
H630 H 0.61915 0.11402 0.71606 0.0
H631 H 0.59496 0.11624 0.68995 0.0
H632 H 0.57543 0.13625 0.82937 0.0
C633 C 0.51623 0.11643 0.76164 0.0
C634 C 0.54811 0.10865 0.70136 0.0
C635 C 0.50103 0.11526 0.74743 0.0
C636 C 0.6119 0.11525 0.75083 0.0
C637 C 0.59794 0.11643 0.73584 0.0
C638 C 0.56785 0.12832 0.79398 0.0
C639 C 0.52756 0.11826 0.71752 0.0
C640 C 0.54327 0.11858 0.73254 0.0
C641 C 0.58802 0.11787 0.77936 0.0
C642 C 0.57266 0.11826 0.76312 0.0
H643 H 0.50562 0.11896 0.59913 0.0
H644 H 0.53212 0.12079 0.62408 0.0
H645 H 0.54989 0.13629 0.80345 0.0
H646 H 0.60999 0.11792 0.89912 0.0
H647 H 0.58528 0.11948 0.87309 0.0
C648 C 0.49358 0.61239 0.24253 0.0
C649 C 0.49829 0.61666 0.30121 0.0
C650 C 0.47831 0.59848 0.22845 0.0
C651 C 0.43706 0.56767 0.29055 0.0
H652 H 0.43629 0.54132 0.15747 0.0
C653 C 0.38365 0.5006 0.24298 0.0
C654 C 0.37809 0.49687 0.18475 0.0
C655 C 0.3976 0.51587 0.25717 0.0
C656 C 0.43627 0.54866 0.19435 0.0
H657 H 0.49054 0.60978 0.39123 0.0
H658 H 0.46405 0.58511 0.36673 0.0
H659 H 0.46202 0.56653 0.18304 0.0
H660 H 0.3827 0.5064 0.09592 0.0
H661 H 0.40724 0.53301 0.12076 0.0
H662 H 0.41133 0.54931 0.30262 0.0
C663 C 0.47201 0.59274 0.33148 0.0
C664 C 0.45101 0.56315 0.20899 0.0
C665 C 0.48724 0.60684 0.34559 0.0
C666 C 0.38666 0.50887 0.14116 0.0
C667 C 0.40075 0.52407 0.15529 0.0
C668 C 0.42235 0.55303 0.27625 0.0
C669 C 0.46742 0.58829 0.27266 0.0
C670 C 0.45161 0.57289 0.25721 0.0
C671 C 0.40641 0.52767 0.21337 0.0
C672 C 0.42182 0.54341 0.22795 0.0
H673 H 0.50171 0.61983 0.20725 0.0
H674 H 0.47505 0.59572 0.18272 0.0
H675 H 0.43697 0.57496 0.3274 0.0
H676 H 0.37729 0.49166 0.27766 0.0
H677 H 0.40177 0.51828 0.30221 0.0
C678 C 0.87917 0.4954 0.74179 0.0
C679 C 0.87919 0.49927 0.80126 0.0
C680 C 0.87787 0.48029 0.72505 0.0
C681 C 0.86636 0.43815 0.78099 0.0
H682 H 0.89374 0.4386 0.65192 0.0
C683 C 0.88138 0.38572 0.7399 0.0
C684 C 0.88062 0.38027 0.68197 0.0
C685 C 0.87973 0.39957 0.75209 0.0
C686 C 0.88587 0.43824 0.68756 0.0
H687 H 0.87774 0.49022 0.8898 0.0
H688 H 0.87593 0.46411 0.86075 0.0
H689 H 0.89369 0.46406 0.67799 0.0
H690 H 0.87739 0.38509 0.59141 0.0
H691 H 0.8747 0.4095 0.61285 0.0
H692 H 0.85899 0.4124 0.79153 0.0
C693 C 0.87654 0.47256 0.82687 0.0
C694 C 0.8858 0.45282 0.70249 0.0
C695 C 0.87769 0.4876 0.84359 0.0
C696 C 0.87804 0.38896 0.6365 0.0
C697 C 0.87657 0.40296 0.6487 0.0
C698 C 0.86656 0.42362 0.76638 0.0
C699 C 0.87671 0.46875 0.76738 0.0
C700 C 0.87615 0.45301 0.74974 0.0
C701 C 0.87743 0.40841 0.70663 0.0
C702 C 0.87643 0.42355 0.71984 0.0
H703 H 0.88016 0.50404 0.708 0.0
H704 H 0.87774 0.47766 0.67885 0.0
H705 H 0.85853 0.43773 0.81685 0.0
H706 H 0.8833 0.37929 0.77601 0.0
H707 H 0.88061 0.40359 0.79709 0.0
C708 C 0.48591 0.87785 0.13914 0.0
C709 C 0.49712 0.87983 0.18403 0.0
C710 C 0.47065 0.87674 0.15232 0.0
C711 C 0.44013 0.867 0.2703 0.0
H712 H 0.42852 0.89583 0.18448 0.0
C713 C 0.38706 0.8786 0.34406 0.0
C714 C 0.37772 0.88093 0.30054 0.0
C715 C 0.401 0.8773 0.32906 0.0
C716 C 0.43138 0.88747 0.20827 0.0
H717 H 0.50086 0.88168 0.27809 0.0
H718 H 0.47419 0.87959 0.30091 0.0
H719 H 0.45367 0.8952 0.15878 0.0
H720 H 0.37529 0.88306 0.20697 0.0
H721 H 0.39919 0.8803 0.1808 0.0
H722 H 0.41778 0.85913 0.31952 0.0
C723 C 0.47723 0.87893 0.25559 0.0
C724 C 0.44584 0.88715 0.19356 0.0
C725 C 0.49255 0.88024 0.24242 0.0
C726 C 0.38234 0.88148 0.24167 0.0
C727 C 0.39613 0.87999 0.22666 0.0
C728 C 0.42556 0.86718 0.28467 0.0
C729 C 0.46621 0.87736 0.21067 0.0
C730 C 0.45042 0.87701 0.22466 0.0
C731 C 0.4058 0.87812 0.27016 0.0
C732 C 0.42104 0.8775 0.25407 0.0
H733 H 0.48904 0.87747 0.09372 0.0
H734 H 0.46232 0.8754 0.11687 0.0
H735 H 0.4433 0.85895 0.29464 0.0
H736 H 0.38384 0.87817 0.38983 0.0
H737 H 0.40824 0.87607 0.36382 0.0
C738 C 0.5111 0.38984 0.84731 0.0
C739 C 0.49946 0.38009 0.8043 0.0
C740 C 0.52629 0.40372 0.83149 0.0
C741 C 0.54634 0.43321 0.70827 0.0
H742 H 0.58663 0.4466 0.7977 0.0
C743 C 0.61019 0.48886 0.64153 0.0
C744 C 0.61872 0.50037 0.68651 0.0
C745 C 0.59629 0.47337 0.65427 0.0
C746 C 0.57544 0.443 0.77244 0.0
H747 H 0.49491 0.37684 0.71083 0.0
H748 H 0.52152 0.40066 0.68322 0.0
H749 H 0.56119 0.42082 0.82271 0.0
H750 H 0.61964 0.50442 0.78031 0.0
H751 H 0.59552 0.47733 0.80237 0.0
H752 H 0.5607 0.45537 0.6578 0.0
C753 C 0.51877 0.39796 0.72928 0.0
C754 C 0.56085 0.42828 0.78689 0.0
C755 C 0.50352 0.38422 0.74511 0.0
C756 C 0.61331 0.49588 0.74458 0.0
C757 C 0.59956 0.48033 0.75733 0.0
C758 C 0.56097 0.44781 0.69346 0.0
C759 C 0.53026 0.40804 0.77225 0.0
C760 C 0.54605 0.42329 0.75537 0.0
C761 C 0.59081 0.46899 0.71227 0.0
C762 C 0.57562 0.45294 0.72577 0.0
H763 H 0.50832 0.38702 0.89331 0.0
H764 H 0.5347 0.41131 0.86587 0.0
H765 H 0.53514 0.42997 0.68366 0.0
H766 H 0.61405 0.49194 0.59636 0.0
H767 H 0.58982 0.4648 0.61875 0.0
C768 C 0.12596 0.46895 0.67155 0.0
C769 C 0.12984 0.45995 0.63155 0.0
C770 C 0.12255 0.46389 0.7297 0.0
C771 C 0.10817 0.42713 0.82365 0.0
H772 H 0.12251 0.46026 0.94672 0.0
C773 C 0.09732 0.41443 0.07606 0.0
C774 C 0.09262 0.42482 0.10499 0.0
C775 C 0.10121 0.4167 0.01634 0.0
C776 C 0.11836 0.45088 0.91272 0.0
H777 H 0.13457 0.43944 0.62151 0.0
H778 H 0.12841 0.43039 0.72356 0.0
H779 H 0.13241 0.46895 0.84732 0.0
H780 H 0.0867 0.44452 0.09362 0.0
H781 H 0.09329 0.44831 0.98983 0.0
H782 H 0.09405 0.40907 0.88994 0.0
C783 C 0.12755 0.44109 0.70947 0.0
C784 C 0.12402 0.45584 0.85587 0.0
C785 C 0.13098 0.4462 0.65111 0.0
C786 C 0.09052 0.43649 0.07253 0.0
C787 C 0.09436 0.43872 0.01327 0.0
C788 C 0.10255 0.42212 0.88094 0.0
C789 C 0.12313 0.44979 0.74917 0.0
C790 C 0.11866 0.4441 0.81044 0.0
C791 C 0.10043 0.42937 0.98525 0.0
C792 C 0.10727 0.43405 0.92552 0.0
H793 H 0.12497 0.47958 0.65741 0.0
H794 H 0.11897 0.47074 0.75901 0.0
H795 H 0.10377 0.41781 0.78941 0.0
H796 H 0.09909 0.40538 0.10022 0.0
H797 H 0.10582 0.4093 0.99545 0.0
C798 C 0.65437 0.08974 0.58304 0.0
C799 C 0.66824 0.09303 0.6173 0.0
C800 C 0.6556 0.09076 0.52235 0.0
C801 C 0.68573 0.11353 0.40893 0.0
H802 H 0.64902 0.08468 0.30716 0.0
C803 C 0.68265 0.12684 0.16167 0.0
C804 C 0.66724 0.12468 0.14348 0.0
C805 C 0.68438 0.12166 0.21742 0.0
C806 C 0.65937 0.09285 0.33505 0.0
H807 H 0.69412 0.09933 0.61518 0.0
H808 H 0.69635 0.10132 0.50815 0.0
H809 H 0.64922 0.07643 0.40833 0.0
H810 H 0.64174 0.1161 0.16932 0.0
H811 H 0.64474 0.10722 0.2668 0.0
H812 H 0.69557 0.13023 0.336 0.0
C813 C 0.68452 0.0979 0.5286 0.0
C814 C 0.65951 0.0881 0.3928 0.0
C815 C 0.68322 0.09665 0.58964 0.0
C816 C 0.65374 0.11784 0.18238 0.0
C817 C 0.65542 0.11258 0.2378 0.0
C818 C 0.6856 0.11828 0.35097 0.0
C819 C 0.67078 0.09526 0.49453 0.0
C820 C 0.67239 0.09865 0.43087 0.0
C821 C 0.67067 0.11421 0.25557 0.0
C822 C 0.67212 0.10824 0.31415 0.0
H823 H 0.64266 0.08687 0.60327 0.0
H824 H 0.64485 0.08886 0.49741 0.0
H825 H 0.69575 0.12198 0.43744 0.0
H826 H 0.69335 0.1325 0.13289 0.0
H827 H 0.69631 0.12319 0.23022 0.0
C828 C 0.5541 0.68327 0.65102 0.0
C829 C 0.54075 0.66789 0.63295 0.0
C830 C 0.5609 0.68501 0.70693 0.0
C831 C 0.56463 0.66004 0.82431 0.0
H832 H 0.57141 0.69605 0.92778 0.0
C833 C 0.56249 0.65432 0.07196 0.0
C834 C 0.57288 0.66814 0.10676 0.0
C835 C 0.56276 0.65574 0.01134 0.0
C836 C 0.56997 0.68614 0.89897 0.0
H837 H 0.52359 0.64247 0.65908 0.0
H838 H 0.53536 0.64549 0.75678 0.0
H839 H 0.56311 0.69605 0.82625 0.0
H840 H 0.59218 0.69414 0.10566 0.0
H841 H 0.59255 0.6967 -0.00125 0.0
H842 H 0.57094 0.64983 0.89723 0.0
C843 C 0.54077 0.65613 0.72762 0.0
C844 C 0.56516 0.68611 0.84099 0.0
C845 C 0.53391 0.65445 0.67208 0.0
C846 C 0.58411 0.68327 0.0797 0.0
C847 C 0.58424 0.68477 0.01872 0.0
C848 C 0.56948 0.66009 0.88203 0.0
C849 C 0.55449 0.67134 0.74527 0.0
C850 C 0.56188 0.67275 0.80382 0.0
C851 C 0.57333 0.67106 0.98411 0.0
C852 C 0.57162 0.67283 0.92051 0.0
H853 H 0.5593 0.69392 0.62196 0.0
H854 H 0.57138 0.69691 0.71969 0.0
H855 H 0.56254 0.64978 0.7961 0.0
H856 H 0.55374 0.64249 0.09173 0.0
H857 H 0.55405 0.64501 0.98599 0.0
C858 C 0.88398 0.56335 0.58639 0.0
C859 C 0.89909 0.57394 0.6148 0.0
C860 C 0.88204 0.56533 0.52719 0.0
C861 C 0.90628 0.57824 0.39514 0.0
H862 H 0.86405 0.56842 0.32651 0.0
C863 C 0.8927 0.56236 0.15153 0.0
C864 C 0.87733 0.54801 0.14 0.0
C865 C 0.89592 0.57001 0.20619 0.0
C866 C 0.87593 0.57123 0.34503 0.0
H867 H 0.92381 0.59537 0.60412 0.0
H868 H 0.9205 0.59862 0.49932 0.0
H869 H 0.86901 0.57495 0.43064 0.0
H870 H 0.85333 0.53028 0.17646 0.0
H871 H 0.85906 0.5434 0.27279 0.0
H872 H 0.91289 0.57364 0.31056 0.0
C873 C 0.91017 0.58884 0.52343 0.0
C874 C 0.87879 0.57504 0.40444 0.0
C875 C 0.91205 0.58698 0.58321 0.0
C876 C 0.86523 0.54142 0.18416 0.0
C877 C 0.86845 0.54905 0.23898 0.0
C878 C 0.90341 0.57441 0.33578 0.0
C879 C 0.8952 0.57785 0.49479 0.0
C880 C 0.89373 0.57791 0.43045 0.0
C881 C 0.88391 0.56333 0.2507 0.0
C882 C 0.88796 0.57025 0.31066 0.0
H883 H 0.8737 0.55324 0.60955 0.0
H884 H 0.87046 0.55649 0.50619 0.0
H885 H 0.91784 0.58023 0.41413 0.0
H886 H 0.90252 0.5674 0.11917 0.0
H887 H 0.90794 0.58097 0.21396 0.0
C888 C 0.31241 0.87236 0.65203 0.0
C889 C 0.32735 0.87327 0.63428 0.0
C890 C 0.31109 0.87791 0.70763 0.0
C891 C 0.33735 0.90572 0.82565 0.0
H892 H 0.29985 0.87887 0.92745 0.0
C893 C 0.34204 0.90805 0.07358 0.0
C894 C 0.32875 0.9065 0.10761 0.0
C895 C 0.34079 0.90702 0.01291 0.0
C896 C 0.31022 0.8867 0.89907 0.0
H897 H 0.35235 0.87998 0.6612 0.0
H898 H 0.35 0.88942 0.75826 0.0
H899 H 0.29934 0.87024 0.82602 0.0
H900 H 0.30391 0.90321 0.10514 0.0
H901 H 0.3016 0.90112 -0.00195 0.0
H902 H 0.34852 0.9218 0.89914 0.0
C903 C 0.33943 0.8848 0.72895 0.0
C904 C 0.30995 0.88173 0.84113 0.0
C905 C 0.3407 0.8792 0.6737 0.0
C906 C 0.31437 0.90454 0.07974 0.0
C907 C 0.31301 0.90324 0.0187 0.0
C908 C 0.33762 0.91066 0.88339 0.0
C909 C 0.32472 0.88448 0.74617 0.0
C910 C 0.32378 0.89089 0.80455 0.0
C911 C 0.32614 0.90422 0.98488 0.0
C912 C 0.32432 0.9009 0.92122 0.0
H913 H 0.30176 0.86738 0.6231 0.0
H914 H 0.29955 0.87737 0.72001 0.0
H915 H 0.34801 0.91323 0.79796 0.0
H916 H 0.35328 0.9096 0.094 0.0
H917 H 0.35104 0.9076 0.98811 0.0
C918 C 0.43461 0.34208 0.57859 0.0
C919 C 0.42367 0.32892 0.61489 0.0
C920 C 0.43352 0.34027 0.51809 0.0
C921 C 0.42291 0.30919 0.40674 0.0
H922 H 0.42971 0.34531 0.30373 0.0
C923 C 0.45519 0.32153 0.18206 0.0
C924 C 0.4495 0.32765 0.13684 0.0
C925 C 0.4481 0.31886 0.23781 0.0
C926 C 0.42752 0.33495 0.33157 0.0
H927 H 0.40271 0.3037 0.61685 0.0
H928 H 0.401 0.3004 0.51 0.0
H929 H 0.42334 0.3462 0.40647 0.0
H930 H 0.43224 0.33625 0.11516 0.0
H931 H 0.41956 0.33105 0.21125 0.0
H932 H 0.42766 0.29821 0.33204 0.0
C933 C 0.4103 0.31214 0.52877 0.0
C934 C 0.42397 0.33553 0.39044 0.0
C935 C 0.41122 0.31406 0.58963 0.0
C936 C 0.43651 0.33091 0.14822 0.0
C937 C 0.4294 0.3282 0.2037 0.0
C938 C 0.42654 0.30863 0.34773 0.0
C939 C 0.42161 0.32518 0.49263 0.0
C940 C 0.42212 0.32291 0.42887 0.0
C941 C 0.43531 0.32243 0.24937 0.0
C942 C 0.42931 0.32173 0.30993 0.0
H943 H 0.4443 0.35367 0.59704 0.0
H944 H 0.44252 0.35045 0.4913 0.0
H945 H 0.42164 0.29936 0.43564 0.0
H946 H 0.4653 0.31908 0.17453 0.0
H947 H 0.45312 0.31467 0.2724 0.0
C948 C 0.55841 0.88722 0.41343 0.0
C949 C 0.56998 0.90189 0.38463 0.0
C950 C 0.56068 0.88462 0.47174 0.0
C951 C 0.57727 0.90664 0.60587 0.0
H952 H 0.56643 0.86286 0.66241 0.0
C953 C 0.56366 0.89004 0.84842 0.0
C954 C 0.54895 0.87488 0.85904 0.0
C955 C 0.57101 0.89361 0.79317 0.0
C956 C 0.56954 0.87516 0.64733 0.0
H957 H 0.59308 0.92535 0.39436 0.0
H958 H 0.59677 0.92096 0.49799 0.0
H959 H 0.57112 0.86912 0.55806 0.0
H960 H 0.53046 0.85156 0.8204 0.0
H961 H 0.54299 0.85795 0.72327 0.0
H962 H 0.57464 0.9124 0.69421 0.0
C963 C 0.58609 0.91142 0.47454 0.0
C964 C 0.5723 0.87876 0.58778 0.0
C965 C 0.58396 0.91393 0.4155 0.0
C966 C 0.54188 0.86327 0.81352 0.0
C967 C 0.54917 0.86688 0.7581 0.0
C968 C 0.57442 0.90301 0.6654 0.0
C969 C 0.57445 0.89671 0.503 0.0
C970 C 0.57553 0.8943 0.56633 0.0
C971 C 0.56365 0.88224 0.74706 0.0
C972 C 0.56987 0.88702 0.6864 0.0
H973 H 0.5475 0.87767 0.39107 0.0
H974 H 0.55132 0.87333 0.49294 0.0
H975 H 0.57961 0.91866 0.59034 0.0
H976 H 0.56911 0.89957 0.88165 0.0
H977 H 0.58217 0.90553 0.7861 0.0
C978 C 0.6869 0.55594 0.3421 0.0
C979 C 0.67305 0.54076 0.35929 0.0
C980 C 0.68884 0.5611 0.28373 0.0
C981 C 0.67455 0.54536 0.13427 0.0
H982 H 0.68233 0.58979 0.10146 0.0
C983 C 0.65442 0.55956 0.91953 0.0
C984 C 0.66667 0.57286 0.88674 0.0
C985 C 0.65707 0.5578 0.97827 0.0
C986 C 0.68038 0.57745 0.1101 0.0
H987 H 0.65084 0.51871 0.32854 0.0
H988 H 0.65422 0.52761 0.22715 0.0
H989 H 0.68452 0.58196 0.20222 0.0
H990 H 0.69074 0.59548 0.89062 0.0
H991 H 0.69532 0.59241 0.99466 0.0
H992 H 0.66983 0.54061 0.04285 0.0
C993 C 0.66361 0.53557 0.2585 0.0
C994 C 0.68168 0.57297 0.16752 0.0
C995 C 0.66165 0.53047 0.31665 0.0
C996 C 0.68109 0.58513 0.915 0.0
C997 C 0.68374 0.58335 0.97427 0.0
C998 C 0.67317 0.54978 0.07727 0.0
C999 C 0.67708 0.55104 0.24153 0.0
C1000 C 0.67828 0.55671 0.18027 0.0
C1001 C 0.67201 0.5693 0.00554 0.0
C1002 C 0.67557 0.56567 0.06496 0.0
H1003 H 0.69628 0.56381 0.37341 0.0
H1004 H 0.6995 0.57294 0.27159 0.0
H1005 H 0.67224 0.53287 0.14259 0.0
H1006 H 0.64309 0.55004 0.89908 0.0
H1007 H 0.64768 0.54706 0.00192 0.0
C1008 C 0.08997 0.65371 0.41333 0.0
C1009 C 0.09181 0.66746 0.38136 0.0
C1010 C 0.09389 0.65526 0.47253 0.0
C1011 C 0.10186 0.67983 0.60553 0.0
H1012 H 0.13191 0.66307 0.6386 0.0
C1013 C 0.13047 0.68432 0.83508 0.0
C1014 C 0.12948 0.66949 0.8546 0.0
C1015 C 0.12698 0.68597 0.77676 0.0
C1016 C 0.12347 0.66773 0.6302 0.0
H1017 H 0.09794 0.69326 0.38702 0.0
H1018 H 0.10479 0.69595 0.49165 0.0
H1019 H 0.12197 0.66187 0.53929 0.0
H1020 H 0.1248 0.64506 0.82857 0.0
H1021 H 0.1187 0.64785 0.72708 0.0
H1022 H 0.10308 0.6853 0.69711 0.0
C1023 C 0.10033 0.68401 0.47043 0.0
C1024 C 0.11777 0.66704 0.5734 0.0
C1025 C 0.09636 0.68245 0.41078 0.0
C1026 C 0.12568 0.65664 0.81453 0.0
C1027 C 0.12221 0.65826 0.75641 0.0
C1028 C 0.10751 0.68044 0.66276 0.0
C1029 C 0.09978 0.6706 0.50102 0.0
C1030 C 0.10662 0.67271 0.56076 0.0
C1031 C 0.12262 0.67286 0.73701 0.0
C1032 C 0.11807 0.67403 0.67579 0.0
H1033 H 0.08628 0.64194 0.39189 0.0
H1034 H 0.09299 0.64461 0.49554 0.0
H1035 H 0.09331 0.68432 0.59671 0.0
H1036 H 0.13401 0.69467 0.86464 0.0
H1037 H 0.12772 0.69748 0.76274 0.0
C1038 C 0.43307 0.09041 0.91612 0.0
C1039 C 0.42224 0.09326 0.88156 0.0
C1040 C 0.43256 0.09116 0.9768 0.0
C1041 C 0.424 0.11275 0.09063 0.0
H1042 H 0.43199 0.0838 0.19139 0.0
C1043 C 0.44073 0.12594 0.33771 0.0
C1044 C 0.45409 0.12385 0.35523 0.0
C1045 C 0.43362 0.12067 0.28228 0.0
C1046 C 0.42975 0.09198 0.16381 0.0
H1047 H 0.40199 0.09859 0.88303 0.0
H1048 H 0.40128 0.1002 0.99017 0.0
H1049 H 0.42387 0.07588 0.08978 0.0
H1050 H 0.47092 0.11526 0.3284 0.0
H1051 H 0.45871 0.10626 0.23156 0.0
H1052 H 0.43058 0.12919 0.16417 0.0
C1053 C 0.41006 0.09726 0.96991 0.0
C1054 C 0.42503 0.08741 0.10583 0.0
C1055 C 0.41041 0.09625 0.90885 0.0
C1056 C 0.46059 0.11695 0.31595 0.0
C1057 C 0.45346 0.11161 0.26087 0.0
C1058 C 0.42873 0.11733 0.1488 0.0
C1059 C 0.42133 0.09497 0.00431 0.0
C1060 C 0.42271 0.09803 0.06813 0.0
C1061 C 0.43975 0.11319 0.24374 0.0
C1062 C 0.43224 0.10727 0.18524 0.0
H1063 H 0.44228 0.08803 0.89614 0.0
H1064 H 0.44154 0.08955 0.00207 0.0
H1065 H 0.42241 0.12123 0.06236 0.0
H1066 H 0.43581 0.13168 0.36666 0.0
H1067 H 0.42317 0.12218 0.26996 0.0
C1068 C 0.31189 0.44378 0.83322 0.0
C1069 C 0.32641 0.45791 0.85312 0.0
C1070 C 0.31066 0.43861 0.77506 0.0
C1071 C 0.32893 0.45392 0.62935 0.0
H1072 H 0.31428 0.4076 0.5947 0.0
C1073 C 0.34388 0.43629 0.41071 0.0
C1074 C 0.33044 0.42379 0.37925 0.0
C1075 C 0.34233 0.43841 0.47012 0.0
C1076 C 0.31823 0.42052 0.60383 0.0
H1077 H 0.35072 0.47809 0.82813 0.0
H1078 H 0.34863 0.46917 0.72681 0.0
H1079 H 0.31277 0.41594 0.69538 0.0
H1080 H 0.30527 0.40289 0.38573 0.0
H1081 H 0.30253 0.40666 0.49068 0.0
H1082 H 0.33468 0.45863 0.53852 0.0
C1083 C 0.33816 0.46205 0.75574 0.0
C1084 C 0.31732 0.42529 0.66122 0.0
C1085 C 0.33939 0.46716 0.8137 0.0
C1086 C 0.31584 0.41258 0.40919 0.0
C1087 C 0.31425 0.41477 0.46903 0.0
C1088 C 0.32989 0.44919 0.57239 0.0
C1089 C 0.32385 0.44765 0.73589 0.0
C1090 C 0.32303 0.44212 0.67463 0.0
C1091 C 0.32727 0.42815 0.49926 0.0
C1092 C 0.32493 0.43254 0.5593 0.0
H1093 H 0.30148 0.43679 0.86246 0.0
H1094 H 0.29937 0.42764 0.76064 0.0
H1095 H 0.33304 0.46689 0.6381 0.0
H1096 H 0.35535 0.44497 0.38875 0.0
H1097 H 0.35271 0.44856 0.49279 0.0
C1098 C 0.87187 0.31309 0.33684 0.0
C1099 C 0.87331 0.32826 0.3546 0.0
C1100 C 0.8774 0.31161 0.2814 0.0
C1101 C 0.90575 0.33737 0.16351 0.0
H1102 H 0.87738 0.30074 0.06072 0.0
C1103 C 0.90686 0.3432 0.91621 0.0
C1104 C 0.90465 0.32989 0.88082 0.0
C1105 C 0.90617 0.34168 0.97683 0.0
C1106 C 0.88563 0.31084 0.08935 0.0
H1107 H 0.88106 0.35356 0.32824 0.0
H1108 H 0.8905 0.35096 0.23147 0.0
H1109 H 0.86927 0.30023 0.16282 0.0
H1110 H 0.90051 0.30471 0.88072 0.0
H1111 H 0.89899 0.30192 0.9877 0.0
H1112 H 0.9217 0.34833 0.08955 0.0
C1113 C 0.88545 0.34031 0.26056 0.0
C1114 C 0.88096 0.31057 0.14769 0.0
C1115 C 0.87985 0.34174 0.3156 0.0
C1116 C 0.90235 0.31519 0.90718 0.0
C1117 C 0.90138 0.31356 0.96816 0.0
C1118 C 0.91038 0.33764 0.10537 0.0
C1119 C 0.88451 0.32532 0.24317 0.0
C1120 C 0.89067 0.32415 0.18462 0.0
C1121 C 0.90305 0.32673 0.00341 0.0
C1122 C 0.90006 0.32468 0.0672 0.0
H1123 H 0.86643 0.30238 0.36558 0.0
H1124 H 0.87638 0.29987 0.26884 0.0
H1125 H 0.91366 0.34781 0.19146 0.0
H1126 H 0.90869 0.35469 0.89695 0.0
H1127 H 0.90728 0.35197 0.00281 0.0
C1128 C 0.15898 0.43044 0.26286 0.0
C1129 C 0.16031 0.44416 0.29367 0.0
C1130 C 0.17322 0.4295 0.24986 0.0
C1131 C 0.21588 0.44444 0.29917 0.0
H1132 H 0.22378 0.43459 0.14147 0.0
C1133 C 0.27933 0.45311 0.23 0.0
C1134 C 0.27955 0.44171 0.19033 0.0
C1135 C 0.26443 0.45272 0.24275 0.0
C1136 C 0.22165 0.43708 0.18597 0.0
H1137 H 0.17748 0.46789 0.33331 0.0
H1138 H 0.20234 0.46604 0.31208 0.0
H1139 H 0.1982 0.43494 0.16363 0.0
H1140 H 0.26474 0.42105 0.13251 0.0
H1141 H 0.23842 0.41993 0.15592 0.0
H1142 H 0.2391 0.44633 0.32209 0.0
C1143 C 0.1903 0.45596 0.29848 0.0
C1144 C 0.20703 0.43733 0.19852 0.0
C1145 C 0.1761 0.45699 0.31078 0.0
C1146 C 0.26473 0.42992 0.16338 0.0
C1147 C 0.24975 0.42939 0.17653 0.0
C1148 C 0.23039 0.444 0.28685 0.0
C1149 C 0.18899 0.4422 0.26797 0.0
C1150 C 0.20411 0.4412 0.25508 0.0
C1151 C 0.24942 0.44082 0.21634 0.0
C1152 C 0.23357 0.44051 0.22992 0.0
H1153 H 0.14691 0.42038 0.24934 0.0
H1154 H 0.17188 0.41873 0.22652 0.0
H1155 H 0.21379 0.44721 0.34337 0.0
H1156 H 0.29075 0.46244 0.25057 0.0
H1157 H 0.26474 0.46194 0.27259 0.0
C1158 C 0.82289 0.28218 0.72772 0.0
C1159 C 0.83486 0.28195 0.69099 0.0
C1160 C 0.80832 0.2674 0.74132 0.0
C1161 C 0.78195 0.22354 0.69315 0.0
H1162 H 0.76423 0.21783 0.85051 0.0
C1163 C 0.72793 0.16107 0.7793 0.0
C1164 C 0.71518 0.16208 0.80869 0.0
C1165 C 0.74276 0.17554 0.76498 0.0
C1166 C 0.76899 0.21931 0.80632 0.0
H1167 H 0.8412 0.2665 0.63867 0.0
H1168 H 0.81588 0.24042 0.66353 0.0
H1169 H 0.78977 0.24334 0.82499 0.0
H1170 H 0.70764 0.17889 0.84498 0.0
H1171 H 0.73377 0.20421 0.82139 0.0
H1172 H 0.76122 0.1993 0.67509 0.0
C1173 C 0.81752 0.25199 0.68122 0.0
C1174 C 0.78358 0.23394 0.79155 0.0
C1175 C 0.83204 0.26683 0.66722 0.0
C1176 C 0.71747 0.17778 0.8236 0.0
C1177 C 0.73237 0.19224 0.80991 0.0
C1178 C 0.76744 0.20882 0.70815 0.0
C1179 C 0.80552 0.25208 0.71873 0.0
C1180 C 0.79018 0.23631 0.73464 0.0
C1181 C 0.74512 0.19126 0.78024 0.0
C1182 C 0.76076 0.20663 0.76476 0.0
H1183 H 0.82482 0.29382 0.74584 0.0
H1184 H 0.7992 0.26801 0.76924 0.0
H1185 H 0.78653 0.22502 0.64872 0.0
H1186 H 0.72641 0.14907 0.76741 0.0
H1187 H 0.75245 0.17443 0.74248 0.0
C1188 C 0.56114 0.83078 0.15239 0.0
C1189 C 0.55062 0.83471 0.18406 0.0
C1190 C 0.56177 0.81638 0.16569 0.0
C1191 C 0.55053 0.78479 0.28373 0.0
H1192 H 0.5567 0.75943 0.16126 0.0
C1193 C 0.53869 0.71795 0.31506 0.0
C1194 C 0.55155 0.71517 0.2968 0.0
C1195 C 0.53924 0.73292 0.30174 0.0
C1196 C 0.55509 0.76649 0.19585 0.0
H1197 H 0.53209 0.82669 0.25249 0.0
H1198 H 0.53259 0.80121 0.27444 0.0
H1199 H 0.55599 0.78466 0.13609 0.0
H1200 H 0.57492 0.72563 0.24966 0.0
H1201 H 0.57563 0.7517 0.2247 0.0
H1202 H 0.54904 0.7662 0.34302 0.0
C1203 C 0.54086 0.80942 0.24087 0.0
C1204 C 0.55476 0.78098 0.18159 0.0
C1205 C 0.54044 0.82392 0.22811 0.0
C1206 C 0.56484 0.7275 0.26413 0.0
C1207 C 0.56525 0.74235 0.2499 0.0
C1208 C 0.5506 0.77018 0.29777 0.0
C1209 C 0.55167 0.80554 0.21033 0.0
C1210 C 0.5524 0.79029 0.22534 0.0
C1211 C 0.55248 0.7452 0.26883 0.0
C1212 C 0.55284 0.76089 0.25396 0.0
H1213 H 0.56909 0.83903 0.11823 0.0
H1214 H 0.57039 0.81394 0.14171 0.0
H1215 H 0.5491 0.79182 0.31883 0.0
H1216 H 0.52808 0.70846 0.33891 0.0
H1217 H 0.52914 0.73475 0.31612 0.0
C1218 C 0.83483 0.56853 0.82925 0.0
C1219 C 0.834 0.55307 0.83376 0.0
C1220 C 0.82042 0.56933 0.81817 0.0
C1221 C 0.77408 0.54349 0.8158 0.0
H1222 H 0.77781 0.57754 0.70808 0.0
C1223 C 0.71755 0.54068 0.69956 0.0
C1224 C 0.71654 0.55526 0.70145 0.0
C1225 C 0.73199 0.5409 0.71829 0.0
C1226 C 0.77663 0.56806 0.7386 0.0
H1227 H 0.81784 0.52635 0.83054 0.0
H1228 H 0.79267 0.5276 0.80955 0.0
H1229 H 0.8028 0.577 0.73767 0.0
H1230 H 0.7295 0.58144 0.72394 0.0
H1231 H 0.75505 0.58195 0.75573 0.0
H1232 H 0.74778 0.53427 0.81484 0.0
C1233 C 0.80424 0.53916 0.81613 0.0
C1234 C 0.79094 0.56778 0.75587 0.0
C1235 C 0.81862 0.53839 0.82788 0.0
C1236 C 0.73016 0.57011 0.72179 0.0
C1237 C 0.7447 0.57038 0.73982 0.0
C1238 C 0.75976 0.54366 0.79791 0.0
C1239 C 0.80498 0.55464 0.81053 0.0
C1240 C 0.78984 0.55543 0.79445 0.0
C1241 C 0.74568 0.55574 0.73869 0.0
C1242 C 0.7609 0.55588 0.7589 0.0
H1243 H 0.84666 0.57997 0.83361 0.0
H1244 H 0.82143 0.58146 0.81518 0.0
H1245 H 0.77277 0.534 0.84643 0.0
H1246 H 0.70707 0.52908 0.68456 0.0
H1247 H 0.73249 0.52948 0.71659 0.0
C1248 C 0.27913 0.82513 0.26094 0.0
C1249 C 0.27939 0.83685 0.30018 0.0
C1250 C 0.2642 0.8106 0.24849 0.0
C1251 C 0.2212 0.78372 0.3041 0.0
H1252 H 0.21364 0.76602 0.1463 0.0
C1253 C 0.15846 0.72833 0.22375 0.0
C1254 C 0.15977 0.71586 0.19346 0.0
C1255 C 0.17274 0.7434 0.23753 0.0
C1256 C 0.21564 0.7708 0.19059 0.0
H1257 H 0.26465 0.84282 0.35792 0.0
H1258 H 0.23829 0.81759 0.33501 0.0
H1259 H 0.23905 0.792 0.16859 0.0
H1260 H 0.17693 0.70903 0.15557 0.0
H1261 H 0.20188 0.73557 0.178 0.0
H1262 H 0.19753 0.76254 0.32544 0.0
C1263 C 0.2496 0.81939 0.31447 0.0
C1264 C 0.23022 0.78564 0.20352 0.0
C1265 C 0.26461 0.83386 0.32736 0.0
C1266 C 0.17557 0.71862 0.17762 0.0
C1267 C 0.18982 0.73375 0.19064 0.0
C1268 C 0.2065 0.76896 0.29093 0.0
C1269 C 0.24921 0.80759 0.27473 0.0
C1270 C 0.2333 0.79218 0.26061 0.0
C1271 C 0.18853 0.74628 0.22066 0.0
C1272 C 0.2037 0.76229 0.23422 0.0
H1273 H 0.29052 0.82718 0.24022 0.0
H1274 H 0.26448 0.80164 0.21877 0.0
H1275 H 0.22324 0.78825 0.34869 0.0
H1276 H 0.14637 0.72647 0.23634 0.0
H1277 H 0.17143 0.75291 0.26049 0.0
C1278 C 0.45998 0.28143 0.81041 0.0
C1279 C 0.44514 0.28197 0.81217 0.0
C1280 C 0.45967 0.26668 0.79541 0.0
C1281 C 0.43341 0.22158 0.79271 0.0
H1282 H 0.46276 0.22316 0.66884 0.0
C1283 C 0.42963 0.16172 0.70213 0.0
C1284 C 0.44461 0.16252 0.68641 0.0
C1285 C 0.42935 0.17626 0.71604 0.0
C1286 C 0.45466 0.22251 0.70412 0.0
H1287 H 0.41843 0.26787 0.80031 0.0
H1288 H 0.41779 0.24178 0.77541 0.0
H1289 H 0.46317 0.24863 0.69844 0.0
H1290 H 0.47108 0.17875 0.67386 0.0
H1291 H 0.47084 0.20416 0.69995 0.0
H1292 H 0.42523 0.19563 0.8 0.0
C1293 C 0.42962 0.25274 0.7855 0.0
C1294 C 0.45486 0.23709 0.72082 0.0
C1295 C 0.42997 0.26758 0.7996 0.0
C1296 C 0.45935 0.17797 0.68504 0.0
C1297 C 0.45915 0.19249 0.69973 0.0
C1298 C 0.43338 0.20702 0.77667 0.0
C1299 C 0.44449 0.25223 0.78266 0.0
C1300 C 0.44424 0.23675 0.76522 0.0
C1301 C 0.44414 0.19183 0.71549 0.0
C1302 C 0.444 0.20729 0.73212 0.0
H1303 H 0.47181 0.29251 0.81945 0.0
H1304 H 0.47128 0.26655 0.79378 0.0
H1305 H 0.4252 0.22105 0.82742 0.0
H1306 H 0.41814 0.14985 0.70352 0.0
H1307 H 0.41753 0.17527 0.72697 0.0
loop_
_geom_bond_atom_site_label_1
_geom_bond_atom_site_label_2
_geom_bond_distance
_geom_bond_site_symmetry_2
_ccdc_geom_bond_type
Co0 O3 1.970 . S
Co0 N17 1.989 . S
Co0 O25 1.967 . S
Co0 O32 1.920 . S
Co1 O4 1.966 . S
Co1 N10 2.022 . S
Co1 N18 1.993 . S
Co1 O26 1.941 . S
C2 O3 1.258 . S
C2 O4 1.263 . S
O3 Co0 1.970 . S
O3 C2 1.258 . S
O4 Co1 1.966 . S
O4 C2 1.263 . S
C5 O6 1.235 . S
C5 O32 1.289 . S
O6 C5 1.235 . S
C7 C9 1.400 . S
C7 N10 1.351 . S
C7 C12 1.501 . S
C8 C9 1.387 . S
C8 N11 1.341 . S
C9 C7 1.400 . S
C9 C8 1.387 . S
N10 Co1 2.022 . S
N10 C7 1.351 . S
N10 N11 1.365 . S
N11 C8 1.341 . S
N11 N10 1.365 . S
N11 H31 0.862 . S
C12 C7 1.501 . S
C12 H13 0.961 . S
C12 H14 0.961 . S
C12 H15 0.960 . S
H13 C12 0.961 . S
H14 C12 0.961 . S
H15 C12 0.960 . S
C16 N17 1.342 . S
C16 C20 1.401 . S
C16 C21 1.499 . S
N17 Co0 1.989 . S
N17 C16 1.342 . S
N17 N18 1.388 . S
N18 Co1 1.993 . S
N18 N17 1.388 . S
N18 C19 1.346 . S
C19 N18 1.346 . S
C19 C20 1.396 . S
C19 C29 1.510 . S
C20 C16 1.401 . S
C20 C19 1.396 . S
C21 C16 1.499 . S
C21 H22 0.959 . S
C21 H23 0.960 . S
C21 H24 0.961 . S
H22 C21 0.959 . S
H23 C21 0.960 . S
H24 C21 0.961 . S
O25 Co0 1.967 . S
O25 C33 1.258 . S
O26 Co1 1.941 . S
O26 C33 1.266 . S
H27 C29 0.959 . S
H28 C29 0.961 . S
C29 C19 1.510 . S
C29 H27 0.959 . S
C29 H28 0.961 . S
C29 H30 0.960 . S
H30 C29 0.960 . S
H31 N11 0.862 . S
O32 Co0 1.920 . S
O32 C5 1.289 . S
C33 O25 1.258 . S
C33 O26 1.266 . S
Co34 O37 1.970 . S
Co34 N51 1.989 . S
Co34 O59 1.967 . S
Co34 O66 1.920 . S
Co35 O38 1.966 . S
Co35 N44 2.022 1_556 S
Co35 N52 1.993 . S
Co35 O60 1.941 . S
C36 O37 1.258 . S
C36 O38 1.263 . S
O37 Co34 1.970 . S
O37 C36 1.258 . S
O38 Co35 1.966 . S
O38 C36 1.263 . S
C39 O40 1.235 . S
C39 O66 1.289 . S
O40 C39 1.235 . S
C41 C43 1.400 . S
C41 N44 1.351 . S
C41 C46 1.501 . S
C42 C43 1.387 . S
C42 N45 1.341 . S
C43 C41 1.400 . S
C43 C42 1.387 . S
N44 Co35 2.022 1_554 S
N44 C41 1.351 . S
N44 N45 1.365 . S
N45 C42 1.341 . S
N45 N44 1.365 . S
N45 H65 0.862 . S
C46 C41 1.501 . S
C46 H47 0.961 . S
C46 H48 0.961 . S
C46 H49 0.960 . S
H47 C46 0.961 . S
H48 C46 0.961 . S
H49 C46 0.960 . S
C50 N51 1.342 . S
C50 C54 1.401 . S
C50 C55 1.499 . S
N51 Co34 1.989 . S
N51 C50 1.342 . S
N51 N52 1.388 . S
N52 Co35 1.993 . S
N52 N51 1.388 . S
N52 C53 1.346 . S
C53 N52 1.346 . S
C53 C54 1.396 . S
C53 C63 1.510 . S
C54 C50 1.401 . S
C54 C53 1.396 . S
C55 C50 1.499 . S
C55 H56 0.959 . S
C55 H57 0.960 . S
C55 H58 0.961 . S
H56 C55 0.959 . S
H57 C55 0.960 . S
H58 C55 0.961 . S
O59 Co34 1.967 . S
O59 C67 1.258 . S
O60 Co35 1.941 . S
O60 C67 1.266 . S
H61 C63 0.959 . S
H62 C63 0.961 . S
C63 C53 1.510 . S
C63 H61 0.959 . S
C63 H62 0.961 . S
C63 H64 0.960 . S
H64 C63 0.960 . S
H65 N45 0.862 . S
O66 Co34 1.920 . S
O66 C39 1.289 . S
C67 O59 1.258 . S
C67 O60 1.266 . S
Co68 O71 1.970 . S
Co68 N85 1.989 . S
Co68 O93 1.967 . S
Co68 O100 1.920 . S
Co69 O72 1.966 . S
Co69 N78 2.022 . S
Co69 N86 1.993 . S
Co69 O94 1.941 . S
C70 O71 1.258 . S
C70 O72 1.263 . S
O71 Co68 1.970 . S
O71 C70 1.258 . S
O72 Co69 1.966 . S
O72 C70 1.263 . S
C73 O74 1.235 . S
C73 O100 1.289 . S
O74 C73 1.235 . S
C75 C77 1.400 . S
C75 N78 1.351 . S
C75 C80 1.501 . S
C76 C77 1.387 . S
C76 N79 1.341 . S
C77 C75 1.400 . S
C77 C76 1.387 . S
N78 Co69 2.022 . S
N78 C75 1.351 . S
N78 N79 1.365 . S
N79 C76 1.341 . S
N79 N78 1.365 . S
N79 H99 0.862 . S
C80 C75 1.501 . S
C80 H81 0.961 . S
C80 H82 0.961 . S
C80 H83 0.960 . S
H81 C80 0.961 . S
H82 C80 0.961 . S
H83 C80 0.960 . S
C84 N85 1.342 . S
C84 C88 1.401 . S
C84 C89 1.499 . S
N85 Co68 1.989 . S
N85 C84 1.342 . S
N85 N86 1.388 . S
N86 Co69 1.993 . S
N86 N85 1.388 . S
N86 C87 1.346 . S
C87 N86 1.346 . S
C87 C88 1.396 . S
C87 C97 1.510 . S
C88 C84 1.401 . S
C88 C87 1.396 . S
C89 C84 1.499 . S
C89 H90 0.959 . S
C89 H91 0.960 . S
C89 H92 0.961 . S
H90 C89 0.959 . S
H91 C89 0.960 . S
H92 C89 0.961 . S
O93 Co68 1.967 . S
O93 C101 1.258 . S
O94 Co69 1.941 . S
O94 C101 1.266 . S
H95 C97 0.959 . S
H96 C97 0.961 . S
C97 C87 1.510 . S
C97 H95 0.959 . S
C97 H96 0.961 . S
C97 H98 0.960 . S
H98 C97 0.960 . S
H99 N79 0.862 . S
O100 Co68 1.920 . S
O100 C73 1.289 . S
C101 O93 1.258 . S
C101 O94 1.266 . S
Co102 O105 1.970 . S
Co102 N119 1.989 . S
Co102 O127 1.967 . S
Co102 O134 1.920 . S
Co103 O106 1.966 . S
Co103 N112 2.022 1_556 S
Co103 N120 1.993 . S
Co103 O128 1.941 . S
C104 O105 1.258 . S
C104 O106 1.263 . S
O105 Co102 1.970 . S
O105 C104 1.258 . S
O106 Co103 1.966 . S
O106 C104 1.263 . S
C107 O108 1.235 . S
C107 O134 1.289 . S
O108 C107 1.235 . S
C109 C111 1.400 . S
C109 N112 1.351 . S
C109 C114 1.501 . S
C110 C111 1.387 . S
C110 N113 1.341 . S
C111 C109 1.400 . S
C111 C110 1.387 . S
N112 Co103 2.022 1_554 S
N112 C109 1.351 . S
N112 N113 1.365 . S
N113 C110 1.341 . S
N113 N112 1.365 . S
N113 H133 0.862 . S
C114 C109 1.501 . S
C114 H115 0.961 . S
C114 H116 0.961 . S
C114 H117 0.960 . S
H115 C114 0.961 . S
H116 C114 0.961 . S
H117 C114 0.960 . S
C118 N119 1.342 . S
C118 C122 1.401 . S
C118 C123 1.499 . S
N119 Co102 1.989 . S
N119 C118 1.342 . S
N119 N120 1.388 . S
N120 Co103 1.993 . S
N120 N119 1.388 . S
N120 C121 1.346 . S
C121 N120 1.346 . S
C121 C122 1.396 . S
C121 C131 1.510 . S
C122 C118 1.401 . S
C122 C121 1.396 . S
C123 C118 1.499 . S
C123 H124 0.959 . S
C123 H125 0.960 . S
C123 H126 0.961 . S
H124 C123 0.959 . S
H125 C123 0.960 . S
H126 C123 0.961 . S
O127 Co102 1.967 . S
O127 C135 1.258 . S
O128 Co103 1.941 . S
O128 C135 1.266 . S
H129 C131 0.959 . S
H130 C131 0.961 . S
C131 C121 1.510 . S
C131 H129 0.959 . S
C131 H130 0.961 . S
C131 H132 0.960 . S
H132 C131 0.960 . S
H133 N113 0.862 . S
O134 Co102 1.920 . S
O134 C107 1.289 . S
C135 O127 1.258 . S
C135 O128 1.266 . S
Co136 O139 1.970 . S
Co136 N153 1.989 . S
Co136 O161 1.967 . S
Co136 O168 1.920 . S
Co137 O140 1.966 . S
Co137 N146 2.022 . S
Co137 N154 1.993 . S
Co137 O162 1.941 . S
C138 O139 1.258 . S
C138 O140 1.263 . S
O139 Co136 1.970 . S
O139 C138 1.258 . S
O140 Co137 1.966 . S
O140 C138 1.263 . S
C141 O142 1.235 . S
C141 O168 1.289 . S
O142 C141 1.235 . S
C143 C145 1.400 . S
C143 N146 1.351 . S
C143 C148 1.501 . S
C144 C145 1.387 . S
C144 N147 1.341 . S
C145 C143 1.400 . S
C145 C144 1.387 . S
N146 Co137 2.022 . S
N146 C143 1.351 . S
N146 N147 1.365 . S
N147 C144 1.341 . S
N147 N146 1.365 . S
N147 H167 0.862 . S
C148 C143 1.501 . S
C148 H149 0.961 . S
C148 H150 0.961 . S
C148 H151 0.960 . S
H149 C148 0.961 . S
H150 C148 0.961 . S
H151 C148 0.960 . S
C152 N153 1.342 . S
C152 C156 1.401 . S
C152 C157 1.499 . S
N153 Co136 1.989 . S
N153 C152 1.342 . S
N153 N154 1.388 . S
N154 Co137 1.993 . S
N154 N153 1.388 . S
N154 C155 1.346 . S
C155 N154 1.346 . S
C155 C156 1.396 . S
C155 C165 1.510 . S
C156 C152 1.401 . S
C156 C155 1.396 . S
C157 C152 1.499 . S
C157 H158 0.959 . S
C157 H159 0.960 . S
C157 H160 0.961 . S
H158 C157 0.959 . S
H159 C157 0.960 . S
H160 C157 0.961 . S
O161 Co136 1.967 . S
O161 C169 1.258 . S
O162 Co137 1.941 . S
O162 C169 1.266 . S
H163 C165 0.959 . S
H164 C165 0.961 . S
C165 C155 1.510 . S
C165 H163 0.959 . S
C165 H164 0.961 . S
C165 H166 0.960 . S
H166 C165 0.960 . S
H167 N147 0.862 . S
O168 Co136 1.920 . S
O168 C141 1.289 . S
C169 O161 1.258 . S
C169 O162 1.266 . S
Co170 O173 1.970 . S
Co170 N187 1.989 . S
Co170 O195 1.967 . S
Co170 O202 1.920 . S
Co171 O174 1.966 . S
Co171 N180 2.022 1_556 S
Co171 N188 1.993 . S
Co171 O196 1.941 . S
C172 O173 1.258 . S
C172 O174 1.263 . S
O173 Co170 1.970 . S
O173 C172 1.258 . S
O174 Co171 1.966 . S
O174 C172 1.263 . S
C175 O176 1.235 . S
C175 O202 1.289 . S
O176 C175 1.235 . S
C177 C179 1.400 . S
C177 N180 1.351 . S
C177 C182 1.501 . S
C178 C179 1.387 . S
C178 N181 1.341 . S
C179 C177 1.400 . S
C179 C178 1.387 . S
N180 Co171 2.022 1_554 S
N180 C177 1.351 . S
N180 N181 1.365 . S
N181 C178 1.341 . S
N181 N180 1.365 . S
N181 H201 0.862 . S
C182 C177 1.501 . S
C182 H183 0.961 . S
C182 H184 0.961 . S
C182 H185 0.960 . S
H183 C182 0.961 . S
H184 C182 0.961 . S
H185 C182 0.960 . S
C186 N187 1.342 . S
C186 C190 1.401 . S
C186 C191 1.499 . S
N187 Co170 1.989 . S
N187 C186 1.342 . S
N187 N188 1.388 . S
N188 Co171 1.993 . S
N188 N187 1.388 . S
N188 C189 1.346 . S
C189 N188 1.346 . S
C189 C190 1.396 . S
C189 C199 1.510 . S
C190 C186 1.401 . S
C190 C189 1.396 . S
C191 C186 1.499 . S
C191 H192 0.959 . S
C191 H193 0.960 . S
C191 H194 0.961 . S
H192 C191 0.959 . S
H193 C191 0.960 . S
H194 C191 0.961 . S
O195 Co170 1.967 . S
O195 C203 1.258 . S
O196 Co171 1.941 . S
O196 C203 1.266 . S
H197 C199 0.959 . S
H198 C199 0.961 . S
C199 C189 1.510 . S
C199 H197 0.959 . S
C199 H198 0.961 . S
C199 H200 0.960 . S
H200 C199 0.960 . S
H201 N181 0.862 . S
O202 Co170 1.920 . S
O202 C175 1.289 . S
C203 O195 1.258 . S
C203 O196 1.266 . S
Co204 O207 1.970 . S
Co204 N221 1.989 . S
Co204 O229 1.967 . S
Co204 O236 1.920 . S
Co205 O208 1.966 . S
Co205 N214 2.022 1_554 S
Co205 N222 1.993 . S
Co205 O230 1.941 . S
C206 O207 1.258 . S
C206 O208 1.263 . S
O207 Co204 1.970 . S
O207 C206 1.258 . S
O208 Co205 1.966 . S
O208 C206 1.263 . S
C209 O210 1.235 . S
C209 O236 1.289 . S
O210 C209 1.235 . S
C211 C213 1.400 . S
C211 N214 1.351 . S
C211 C216 1.501 . S
C212 C213 1.387 . S
C212 N215 1.341 . S
C213 C211 1.400 . S
C213 C212 1.387 . S
N214 Co205 2.022 1_556 S
N214 C211 1.351 . S
N214 N215 1.365 . S
N215 C212 1.341 . S
N215 N214 1.365 . S
N215 H235 0.862 . S
C216 C211 1.501 . S
C216 H217 0.961 . S
C216 H218 0.961 . S
C216 H219 0.960 . S
H217 C216 0.961 . S
H218 C216 0.961 . S
H219 C216 0.960 . S
C220 N221 1.342 . S
C220 C224 1.401 . S
C220 C225 1.499 . S
N221 Co204 1.989 . S
N221 C220 1.342 . S
N221 N222 1.388 . S
N222 Co205 1.993 . S
N222 N221 1.388 . S
N222 C223 1.346 . S
C223 N222 1.346 . S
C223 C224 1.396 . S
C223 C233 1.510 . S
C224 C220 1.401 . S
C224 C223 1.396 . S
C225 C220 1.499 . S
C225 H226 0.959 . S
C225 H227 0.960 . S
C225 H228 0.961 . S
H226 C225 0.959 . S
H227 C225 0.960 . S
H228 C225 0.961 . S
O229 Co204 1.967 . S
O229 C237 1.258 . S
O230 Co205 1.941 . S
O230 C237 1.266 . S
H231 C233 0.959 . S
H232 C233 0.961 . S
C233 C223 1.510 . S
C233 H231 0.959 . S
C233 H232 0.961 . S
C233 H234 0.960 . S
H234 C233 0.960 . S
H235 N215 0.862 . S
O236 Co204 1.920 . S
O236 C209 1.289 . S
C237 O229 1.258 . S
C237 O230 1.266 . S
Co238 O241 1.970 . S
Co238 N255 1.989 . S
Co238 O263 1.967 . S
Co238 O270 1.920 . S
Co239 O242 1.966 . S
Co239 N248 2.022 . S
Co239 N256 1.993 . S
Co239 O264 1.941 . S
C240 O241 1.258 . S
C240 O242 1.263 . S
O241 Co238 1.970 . S
O241 C240 1.258 . S
O242 Co239 1.966 . S
O242 C240 1.263 . S
C243 O244 1.235 . S
C243 O270 1.289 . S
O244 C243 1.235 . S
C245 C247 1.400 . S
C245 N248 1.351 . S
C245 C250 1.501 . S
C246 C247 1.387 . S
C246 N249 1.341 . S
C247 C245 1.400 . S
C247 C246 1.387 . S
N248 Co239 2.022 . S
N248 C245 1.351 . S
N248 N249 1.365 . S
N249 C246 1.341 . S
N249 N248 1.365 . S
N249 H269 0.862 . S
C250 C245 1.501 . S
C250 H251 0.961 . S
C250 H252 0.961 . S
C250 H253 0.960 . S
H251 C250 0.961 . S
H252 C250 0.961 . S
H253 C250 0.960 . S
C254 N255 1.342 . S
C254 C258 1.401 . S
C254 C259 1.499 . S
N255 Co238 1.989 . S
N255 C254 1.342 . S
N255 N256 1.388 . S
N256 Co239 1.993 . S
N256 N255 1.388 . S
N256 C257 1.346 . S
C257 N256 1.346 . S
C257 C258 1.396 . S
C257 C267 1.510 . S
C258 C254 1.401 . S
C258 C257 1.396 . S
C259 C254 1.499 . S
C259 H260 0.959 . S
C259 H261 0.960 . S
C259 H262 0.961 . S
H260 C259 0.959 . S
H261 C259 0.960 . S
H262 C259 0.961 . S
O263 Co238 1.967 . S
O263 C271 1.258 . S
O264 Co239 1.941 . S
O264 C271 1.266 . S
H265 C267 0.959 . S
H266 C267 0.961 . S
C267 C257 1.510 . S
C267 H265 0.959 . S
C267 H266 0.961 . S
C267 H268 0.960 . S
H268 C267 0.960 . S
H269 N249 0.862 . S
O270 Co238 1.920 . S
O270 C243 1.289 . S
C271 O263 1.258 . S
C271 O264 1.266 . S
Co272 O275 1.970 . S
Co272 N289 1.989 . S
Co272 O297 1.967 . S
Co272 O304 1.920 . S
Co273 O276 1.966 . S
Co273 N282 2.022 1_554 S
Co273 N290 1.993 . S
Co273 O298 1.941 . S
C274 O275 1.258 . S
C274 O276 1.263 . S
O275 Co272 1.970 . S
O275 C274 1.258 . S
O276 Co273 1.966 . S
O276 C274 1.263 . S
C277 O278 1.235 . S
C277 O304 1.289 . S
O278 C277 1.235 . S
C279 C281 1.400 . S
C279 N282 1.351 . S
C279 C284 1.501 . S
C280 C281 1.387 . S
C280 N283 1.341 . S
C281 C279 1.400 . S
C281 C280 1.387 . S
N282 Co273 2.022 1_556 S
N282 C279 1.351 . S
N282 N283 1.365 . S
N283 C280 1.341 . S
N283 N282 1.365 . S
N283 H303 0.862 . S
C284 C279 1.501 . S
C284 H285 0.961 . S
C284 H286 0.961 . S
C284 H287 0.960 . S
H285 C284 0.961 . S
H286 C284 0.961 . S
H287 C284 0.960 . S
C288 N289 1.342 . S
C288 C292 1.401 . S
C288 C293 1.499 . S
N289 Co272 1.989 . S
N289 C288 1.342 . S
N289 N290 1.388 . S
N290 Co273 1.993 . S
N290 N289 1.388 . S
N290 C291 1.346 . S
C291 N290 1.346 . S
C291 C292 1.396 . S
C291 C301 1.510 . S
C292 C288 1.401 . S
C292 C291 1.396 . S
C293 C288 1.499 . S
C293 H294 0.959 . S
C293 H295 0.960 . S
C293 H296 0.961 . S
H294 C293 0.959 . S
H295 C293 0.960 . S
H296 C293 0.961 . S
O297 Co272 1.967 . S
O297 C305 1.258 . S
O298 Co273 1.941 . S
O298 C305 1.266 . S
H299 C301 0.959 . S
H300 C301 0.961 . S
C301 C291 1.510 . S
C301 H299 0.959 . S
C301 H300 0.961 . S
C301 H302 0.960 . S
H302 C301 0.960 . S
H303 N283 0.862 . S
O304 Co272 1.920 . S
O304 C277 1.289 . S
C305 O297 1.258 . S
C305 O298 1.266 . S
Co306 O309 1.970 . S
Co306 N323 1.989 . S
Co306 O331 1.967 . S
Co306 O338 1.920 . S
Co307 O310 1.966 . S
Co307 N316 2.022 . S
Co307 N324 1.993 . S
Co307 O332 1.941 . S
C308 O309 1.258 . S
C308 O310 1.263 . S
O309 Co306 1.970 . S
O309 C308 1.258 . S
O310 Co307 1.966 . S
O310 C308 1.263 . S
C311 O312 1.235 . S
C311 O338 1.289 . S
O312 C311 1.235 . S
C313 C315 1.400 . S
C313 N316 1.351 . S
C313 C318 1.501 . S
C314 C315 1.387 . S
C314 N317 1.341 . S
C315 C313 1.400 . S
C315 C314 1.387 . S
N316 Co307 2.022 . S
N316 C313 1.351 . S
N316 N317 1.365 . S
N317 C314 1.341 . S
N317 N316 1.365 . S
N317 H337 0.862 . S
C318 C313 1.501 . S
C318 H319 0.961 . S
C318 H320 0.961 . S
C318 H321 0.960 . S
H319 C318 0.961 . S
H320 C318 0.961 . S
H321 C318 0.960 . S
C322 N323 1.342 . S
C322 C326 1.401 . S
C322 C327 1.499 . S
N323 Co306 1.989 . S
N323 C322 1.342 . S
N323 N324 1.388 . S
N324 Co307 1.993 . S
N324 N323 1.388 . S
N324 C325 1.346 . S
C325 N324 1.346 . S
C325 C326 1.396 . S
C325 C335 1.510 . S
C326 C322 1.401 . S
C326 C325 1.396 . S
C327 C322 1.499 . S
C327 H328 0.959 . S
C327 H329 0.960 . S
C327 H330 0.961 . S
H328 C327 0.959 . S
H329 C327 0.960 . S
H330 C327 0.961 . S
O331 Co306 1.967 . S
O331 C339 1.258 . S
O332 Co307 1.941 . S
O332 C339 1.266 . S
H333 C335 0.959 . S
H334 C335 0.961 . S
C335 C325 1.510 . S
C335 H333 0.959 . S
C335 H334 0.961 . S
C335 H336 0.960 . S
H336 C335 0.960 . S
H337 N317 0.862 . S
O338 Co306 1.920 . S
O338 C311 1.289 . S
C339 O331 1.258 . S
C339 O332 1.266 . S
Co340 O343 1.970 . S
Co340 N357 1.989 . S
Co340 O365 1.967 . S
Co340 O372 1.920 . S
Co341 O344 1.966 . S
Co341 N350 2.022 1_554 S
Co341 N358 1.993 . S
Co341 O366 1.941 . S
C342 O343 1.258 . S
C342 O344 1.263 . S
O343 Co340 1.970 . S
O343 C342 1.258 . S
O344 Co341 1.966 . S
O344 C342 1.263 . S
C345 O346 1.235 . S
C345 O372 1.289 . S
O346 C345 1.235 . S
C347 C349 1.400 . S
C347 N350 1.351 . S
C347 C352 1.501 . S
C348 C349 1.387 . S
C348 N351 1.341 . S
C349 C347 1.400 . S
C349 C348 1.387 . S
N350 Co341 2.022 1_556 S
N350 C347 1.351 . S
N350 N351 1.365 . S
N351 C348 1.341 . S
N351 N350 1.365 . S
N351 H371 0.862 . S
C352 C347 1.501 . S
C352 H353 0.961 . S
C352 H354 0.961 . S
C352 H355 0.960 . S
H353 C352 0.961 . S
H354 C352 0.961 . S
H355 C352 0.960 . S
C356 N357 1.342 . S
C356 C360 1.401 . S
C356 C361 1.499 . S
N357 Co340 1.989 . S
N357 C356 1.342 . S
N357 N358 1.388 . S
N358 Co341 1.993 . S
N358 N357 1.388 . S
N358 C359 1.346 . S
C359 N358 1.346 . S
C359 C360 1.396 . S
C359 C369 1.510 . S
C360 C356 1.401 . S
C360 C359 1.396 . S
C361 C356 1.499 . S
C361 H362 0.959 . S
C361 H363 0.960 . S
C361 H364 0.961 . S
H362 C361 0.959 . S
H363 C361 0.960 . S
H364 C361 0.961 . S
O365 Co340 1.967 . S
O365 C373 1.258 . S
O366 Co341 1.941 . S
O366 C373 1.266 . S
H367 C369 0.959 . S
H368 C369 0.961 . S
C369 C359 1.510 . S
C369 H367 0.959 . S
C369 H368 0.961 . S
C369 H370 0.960 . S
H370 C369 0.960 . S
H371 N351 0.862 . S
O372 Co340 1.920 . S
O372 C345 1.289 . S
C373 O365 1.258 . S
C373 O366 1.266 . S
Co374 O377 1.970 . S
Co374 N391 1.989 . S
Co374 O399 1.967 . S
Co374 O406 1.920 . S
Co375 O378 1.966 . S
Co375 N384 2.022 . S
Co375 N392 1.993 . S
Co375 O400 1.941 . S
C376 O377 1.258 . S
C376 O378 1.263 . S
O377 Co374 1.970 . S
O377 C376 1.258 . S
O378 Co375 1.966 . S
O378 C376 1.263 . S
C379 O380 1.235 . S
C379 O406 1.289 . S
O380 C379 1.235 . S
C381 C383 1.400 . S
C381 N384 1.351 . S
C381 C386 1.501 . S
C382 C383 1.387 . S
C382 N385 1.341 . S
C383 C381 1.400 . S
C383 C382 1.387 . S
N384 Co375 2.022 . S
N384 C381 1.351 . S
N384 N385 1.365 . S
N385 C382 1.341 . S
N385 N384 1.365 . S
N385 H405 0.862 . S
C386 C381 1.501 . S
C386 H387 0.961 . S
C386 H388 0.961 . S
C386 H389 0.960 . S
H387 C386 0.961 . S
H388 C386 0.961 . S
H389 C386 0.960 . S
C390 N391 1.342 . S
C390 C394 1.401 . S
C390 C395 1.499 . S
N391 Co374 1.989 . S
N391 C390 1.342 . S
N391 N392 1.388 . S
N392 Co375 1.993 . S
N392 N391 1.388 . S
N392 C393 1.346 . S
C393 N392 1.346 . S
C393 C394 1.396 . S
C393 C403 1.510 . S
C394 C390 1.401 . S
C394 C393 1.396 . S
C395 C390 1.499 . S
C395 H396 0.959 . S
C395 H397 0.960 . S
C395 H398 0.961 . S
H396 C395 0.959 . S
H397 C395 0.960 . S
H398 C395 0.961 . S
O399 Co374 1.967 . S
O399 C407 1.258 . S
O400 Co375 1.941 . S
O400 C407 1.266 . S
H401 C403 0.959 . S
H402 C403 0.961 . S
C403 C393 1.510 . S
C403 H401 0.959 . S
C403 H402 0.961 . S
C403 H404 0.960 . S
H404 C403 0.960 . S
H405 N385 0.862 . S
O406 Co374 1.920 . S
O406 C379 1.289 . S
C407 O399 1.258 . S
C407 O400 1.266 . S
C408 C409 1.349 . S
C408 C410 1.327 . S
C408 H433 0.950 . S
C409 C408 1.349 . S
C409 C425 1.349 . S
C410 C408 1.327 . S
C410 C429 1.429 . S
C410 H434 0.950 . S
C411 C428 1.574 1_455 S
C411 C430 1.368 . S
C411 H435 0.949 . S
H412 C416 0.949 . S
C413 C414 1.349 . S
C413 C415 1.327 . S
C413 H436 0.950 . S
C414 C413 1.349 . S
C414 C426 1.349 . S
C415 C413 1.327 . S
C415 C431 1.429 . S
C415 H437 0.950 . S
C416 H412 0.949 . S
C416 C424 1.574 1_655 S
C416 C432 1.368 . S
H417 C425 0.950 . S
H418 C423 0.950 . S
H419 C424 0.949 . S
H420 C426 0.950 . S
H421 C427 0.950 . S
H422 C428 0.949 . S
C423 H418 0.950 . S
C423 C425 1.327 . S
C423 C429 1.429 . S
C424 C416 1.574 1_455 S
C424 H419 0.949 . S
C424 C430 1.368 . S
C425 C409 1.349 . S
C425 H417 0.950 . S
C425 C423 1.327 . S
C426 C414 1.349 . S
C426 H420 0.950 . S
C426 C427 1.327 . S
C427 H421 0.950 . S
C427 C426 1.327 . S
C427 C431 1.429 . S
C428 C411 1.574 1_655 S
C428 H422 0.949 . S
C428 C432 1.368 . S
C429 C410 1.429 . S
C429 C423 1.429 . S
C429 C430 1.523 . S
C430 C411 1.368 . S
C430 C424 1.368 . S
C430 C429 1.523 . S
C431 C415 1.429 . S
C431 C427 1.429 . S
C431 C432 1.523 . S
C432 C416 1.368 . S
C432 C428 1.368 . S
C432 C431 1.523 . S
H433 C408 0.950 . S
H434 C410 0.950 . S
H435 C411 0.949 . S
H436 C413 0.950 . S
H437 C415 0.950 . S
C438 C439 1.349 . S
C438 C440 1.327 . S
C438 H463 0.950 . S
C439 C438 1.349 . S
C439 C455 1.349 . S
C440 C438 1.327 . S
C440 C459 1.429 . S
C440 H464 0.950 . S
C441 C458 1.574 1_545 S
C441 C460 1.368 1_554 S
C441 H465 0.949 . S
H442 C446 0.949 . S
C443 C444 1.349 . S
C443 C445 1.327 . S
C443 H466 0.950 . S
C444 C443 1.349 . S
C444 C456 1.349 . S
C445 C443 1.327 . S
C445 C461 1.429 . S
C445 H467 0.950 . S
C446 H442 0.949 . S
C446 C454 1.574 1_565 S
C446 C462 1.368 1_556 S
H447 C455 0.950 . S
H448 C453 0.939 1_554 S
H449 C454 0.949 . S
H450 C456 0.950 . S
H451 C457 0.939 1_556 S
H452 C458 0.949 . S
C453 H448 0.939 1_556 S
C453 C455 1.327 . S
C453 C459 1.429 . S
C454 C446 1.574 1_545 S
C454 H449 0.949 . S
C454 C460 1.368 . S
C455 C439 1.349 . S
C455 H447 0.950 . S
C455 C453 1.327 . S
C456 C444 1.349 . S
C456 H450 0.950 . S
C456 C457 1.327 . S
C457 H451 0.939 1_554 S
C457 C456 1.327 . S
C457 C461 1.429 . S
C458 C441 1.574 1_565 S
C458 H452 0.949 . S
C458 C462 1.368 . S
C459 C440 1.429 . S
C459 C453 1.429 . S
C459 C460 1.523 . S
C460 C441 1.368 1_556 S
C460 C454 1.368 . S
C460 C459 1.523 . S
C461 C445 1.429 . S
C461 C457 1.429 . S
C461 C462 1.523 . S
C462 C446 1.368 1_554 S
C462 C458 1.368 . S
C462 C461 1.523 . S
H463 C438 0.950 . S
H464 C440 0.950 . S
H465 C441 0.949 . S
H466 C443 0.950 . S
H467 C445 0.950 . S
C468 C469 1.349 . S
C468 C470 1.327 . S
C468 H493 0.950 . S
C469 C468 1.349 . S
C469 C485 1.349 . S
C470 C468 1.327 . S
C470 C489 1.429 . S
C470 H494 0.950 . S
C471 C488 1.574 . S
C471 C490 1.368 . S
C471 H495 0.949 . S
H472 C476 0.949 . S
C473 C474 1.349 . S
C473 C475 1.327 . S
C473 H496 0.950 . S
C474 C473 1.349 . S
C474 C486 1.349 . S
C475 C473 1.327 . S
C475 C491 1.429 . S
C475 H497 0.950 . S
C476 H472 0.949 . S
C476 C484 1.574 . S
C476 C492 1.368 . S
H477 C485 0.950 . S
H478 C483 0.950 . S
H479 C484 0.949 . S
H480 C486 0.950 . S
H481 C487 0.950 . S
H482 C488 0.949 . S
C483 H478 0.950 . S
C483 C485 1.327 . S
C483 C489 1.429 . S
C484 C476 1.574 . S
C484 H479 0.949 . S
C484 C490 1.368 . S
C485 C469 1.349 . S
C485 H477 0.950 . S
C485 C483 1.327 . S
C486 C474 1.349 . S
C486 H480 0.950 . S
C486 C487 1.327 . S
C487 H481 0.950 . S
C487 C486 1.327 . S
C487 C491 1.429 . S
C488 C471 1.574 . S
C488 H482 0.949 . S
C488 C492 1.368 . S
C489 C470 1.429 . S
C489 C483 1.429 . S
C489 C490 1.523 . S
C490 C471 1.368 . S
C490 C484 1.368 . S
C490 C489 1.523 . S
C491 C475 1.429 . S
C491 C487 1.429 . S
C491 C492 1.523 . S
C492 C476 1.368 . S
C492 C488 1.368 . S
C492 C491 1.523 . S
H493 C468 0.950 . S
H494 C470 0.950 . S
H495 C471 0.949 . S
H496 C473 0.950 . S
H497 C475 0.950 . S
C498 C499 1.349 . S
C498 C500 1.327 . S
C498 H523 0.950 . S
C499 C498 1.349 . S
C499 C515 1.349 . S
C500 C498 1.327 . S
C500 C519 1.429 . S
C500 H524 0.950 . S
C501 C518 1.574 1_455 S
C501 C520 1.368 1_556 S
C501 H525 0.949 . S
H502 C506 0.949 . S
C503 C504 1.349 . S
C503 C505 1.327 . S
C503 H526 0.950 . S
C504 C503 1.349 . S
C504 C516 1.349 . S
C505 C503 1.327 . S
C505 C521 1.429 . S
C505 H527 0.950 . S
C506 H502 0.949 . S
C506 C514 1.574 1_655 S
C506 C522 1.368 1_554 S
H507 C515 0.950 . S
H508 C513 0.950 1_556 S
H509 C514 0.949 . S
H510 C516 0.950 . S
H511 C517 0.950 1_554 S
H512 C518 0.949 . S
C513 H508 0.950 1_554 S
C513 C515 1.327 . S
C513 C519 1.429 . S
C514 C506 1.574 1_455 S
C514 H509 0.949 . S
C514 C520 1.368 . S
C515 C499 1.349 . S
C515 H507 0.950 . S
C515 C513 1.327 . S
C516 C504 1.349 . S
C516 H510 0.950 . S
C516 C517 1.327 . S
C517 H511 0.950 1_556 S
C517 C516 1.327 . S
C517 C521 1.429 . S
C518 C501 1.574 1_655 S
C518 H512 0.949 . S
C518 C522 1.368 . S
C519 C500 1.429 . S
C519 C513 1.429 . S
C519 C520 1.523 . S
C520 C501 1.368 1_554 S
C520 C514 1.368 . S
C520 C519 1.523 . S
C521 C505 1.429 . S
C521 C517 1.429 . S
C521 C522 1.523 . S
C522 C506 1.368 1_556 S
C522 C518 1.368 . S
C522 C521 1.523 . S
H523 C498 0.950 . S
H524 C500 0.950 . S
H525 C501 0.949 . S
H526 C503 0.950 . S
H527 C505 0.950 . S
C528 C529 1.349 . S
C528 C530 1.327 . S
C528 H553 0.950 . S
C529 C528 1.349 . S
C529 C545 1.349 . S
C530 C528 1.327 . S
C530 C549 1.429 . S
C530 H554 0.950 . S
C531 C548 1.574 1_545 S
C531 C550 1.368 . S
C531 H555 0.949 . S
H532 C536 0.949 . S
C533 C534 1.349 . S
C533 C535 1.327 . S
C533 H556 0.950 . S
C534 C533 1.349 . S
C534 C546 1.349 . S
C535 C533 1.327 . S
C535 C551 1.429 . S
C535 H557 0.950 . S
C536 H532 0.949 . S
C536 C544 1.574 1_565 S
C536 C552 1.368 . S
H537 C545 0.950 . S
H538 C543 0.950 . S
H539 C544 0.949 . S
H540 C546 0.950 . S
H541 C547 0.950 . S
H542 C548 0.949 . S
C543 H538 0.950 . S
C543 C545 1.327 . S
C543 C549 1.429 . S
C544 C536 1.574 1_545 S
C544 H539 0.949 . S
C544 C550 1.368 . S
C545 C529 1.349 . S
C545 H537 0.950 . S
C545 C543 1.327 . S
C546 C534 1.349 . S
C546 H540 0.950 . S
C546 C547 1.327 . S
C547 H541 0.950 . S
C547 C546 1.327 . S
C547 C551 1.429 . S
C548 C531 1.574 1_565 S
C548 H542 0.949 . S
C548 C552 1.368 . S
C549 C530 1.429 . S
C549 C543 1.429 . S
C549 C550 1.523 . S
C550 C531 1.368 . S
C550 C544 1.368 . S
C550 C549 1.523 . S
C551 C535 1.429 . S
C551 C547 1.429 . S
C551 C552 1.523 . S
C552 C536 1.368 . S
C552 C548 1.368 . S
C552 C551 1.523 . S
H553 C528 0.950 . S
H554 C530 0.950 . S
H555 C531 0.949 . S
H556 C533 0.950 . S
H557 C535 0.950 . S
C558 C559 1.349 . S
C558 C560 1.327 . S
C558 H583 0.950 . S
C559 C558 1.349 . S
C559 C575 1.349 . S
C560 C558 1.327 . S
C560 C579 1.429 . S
C560 H584 0.950 . S
C561 C578 1.574 1_556 S
C561 C580 1.368 . S
C561 H585 0.949 . S
H562 C566 0.949 . S
C563 C564 1.349 . S
C563 C565 1.327 . S
C563 H586 0.950 . S
C564 C563 1.349 . S
C564 C576 1.349 . S
C565 C563 1.327 . S
C565 C581 1.429 . S
C565 H587 0.950 . S
C566 H562 0.949 . S
C566 C574 1.574 1_554 S
C566 C582 1.368 . S
H567 C575 0.950 . S
H568 C573 0.950 . S
H569 C574 0.949 . S
H570 C576 0.950 . S
H571 C577 0.950 . S
H572 C578 0.949 . S
C573 H568 0.950 . S
C573 C575 1.327 . S
C573 C579 1.429 . S
C574 C566 1.574 1_556 S
C574 H569 0.949 . S
C574 C580 1.368 . S
C575 C559 1.349 . S
C575 H567 0.950 . S
C575 C573 1.327 . S
C576 C564 1.349 . S
C576 H570 0.950 . S
C576 C577 1.327 . S
C577 H571 0.950 . S
C577 C576 1.327 . S
C577 C581 1.429 . S
C578 C561 1.574 1_554 S
C578 H572 0.949 . S
C578 C582 1.368 . S
C579 C560 1.429 . S
C579 C573 1.429 . S
C579 C580 1.523 . S
C580 C561 1.368 . S
C580 C574 1.368 . S
C580 C579 1.523 . S
C581 C565 1.429 . S
C581 C577 1.429 . S
C581 C582 1.523 . S
C582 C566 1.368 . S
C582 C578 1.368 . S
C582 C581 1.523 . S
H583 C558 0.950 . S
H584 C560 0.950 . S
H585 C561 0.949 . S
H586 C563 0.950 . S
H587 C565 0.950 . S
C588 C589 1.349 . S
C588 C590 1.327 . S
C588 H613 0.950 . S
C589 C588 1.349 . S
C589 C605 1.349 . S
C590 C588 1.327 . S
C590 C609 1.429 . S
C590 H614 0.950 . S
C591 C608 1.574 . S
C591 C610 1.368 . S
C591 H615 0.949 . S
H592 C596 0.949 . S
C593 C594 1.349 . S
C593 C595 1.327 . S
C593 H616 0.950 . S
C594 C593 1.349 . S
C594 C606 1.349 . S
C595 C593 1.327 . S
C595 C611 1.429 . S
C595 H617 0.950 . S
C596 H592 0.949 . S
C596 C604 1.574 . S
C596 C612 1.368 . S
H597 C605 0.950 . S
H598 C603 0.950 . S
H599 C604 0.949 . S
H600 C606 0.950 . S
H601 C607 0.950 . S
H602 C608 0.949 . S
C603 H598 0.950 . S
C603 C605 1.327 . S
C603 C609 1.429 . S
C604 C596 1.574 . S
C604 H599 0.949 . S
C604 C610 1.368 . S
C605 C589 1.349 . S
C605 H597 0.950 . S
C605 C603 1.327 . S
C606 C594 1.349 . S
C606 H600 0.950 . S
C606 C607 1.327 . S
C607 H601 0.950 . S
C607 C606 1.327 . S
C607 C611 1.429 . S
C608 C591 1.574 . S
C608 H602 0.949 . S
C608 C612 1.368 . S
C609 C590 1.429 . S
C609 C603 1.429 . S
C609 C610 1.523 . S
C610 C591 1.368 . S
C610 C604 1.368 . S
C610 C609 1.523 . S
C611 C595 1.429 . S
C611 C607 1.429 . S
C611 C612 1.523 . S
C612 C596 1.368 . S
C612 C608 1.368 . S
C612 C611 1.523 . S
H613 C588 0.950 . S
H614 C590 0.950 . S
H615 C591 0.949 . S
H616 C593 0.950 . S
H617 C595 0.950 . S
C618 C619 1.349 . S
C618 C620 1.327 . S
C618 H643 0.950 . S
C619 C618 1.349 . S
C619 C635 1.349 . S
C620 C618 1.327 . S
C620 C639 1.429 . S
C620 H644 0.950 . S
C621 C638 1.574 . S
C621 C640 1.368 . S
C621 H645 0.949 . S
H622 C626 0.949 . S
C623 C624 1.349 . S
C623 C625 1.327 . S
C623 H646 0.950 . S
C624 C623 1.349 . S
C624 C636 1.349 . S
C625 C623 1.327 . S
C625 C641 1.429 . S
C625 H647 0.950 . S
C626 H622 0.949 . S
C626 C634 1.574 . S
C626 C642 1.368 . S
H627 C635 0.950 . S
H628 C633 0.950 . S
H629 C634 0.949 . S
H630 C636 0.950 . S
H631 C637 0.950 . S
H632 C638 0.949 . S
C633 H628 0.950 . S
C633 C635 1.327 . S
C633 C639 1.429 . S
C634 C626 1.574 . S
C634 H629 0.949 . S
C634 C640 1.368 . S
C635 C619 1.349 . S
C635 H627 0.950 . S
C635 C633 1.327 . S
C636 C624 1.349 . S
C636 H630 0.950 . S
C636 C637 1.327 . S
C637 H631 0.950 . S
C637 C636 1.327 . S
C637 C641 1.429 . S
C638 C621 1.574 . S
C638 H632 0.949 . S
C638 C642 1.368 . S
C639 C620 1.429 . S
C639 C633 1.429 . S
C639 C640 1.523 . S
C640 C621 1.368 . S
C640 C634 1.368 . S
C640 C639 1.523 . S
C641 C625 1.429 . S
C641 C637 1.429 . S
C641 C642 1.523 . S
C642 C626 1.368 . S
C642 C638 1.368 . S
C642 C641 1.523 . S
H643 C618 0.950 . S
H644 C620 0.950 . S
H645 C621 0.949 . S
H646 C623 0.950 . S
H647 C625 0.950 . S
C648 C649 1.349 . S
C648 C650 1.327 . S
C648 H673 0.950 . S
C649 C648 1.349 . S
C649 C665 1.349 . S
C650 C648 1.327 . S
C650 C669 1.429 . S
C650 H674 0.950 . S
C651 C668 1.574 . S
C651 C670 1.368 . S
C651 H675 0.949 . S
H652 C656 0.949 . S
C653 C654 1.349 . S
C653 C655 1.327 . S
C653 H676 0.950 . S
C654 C653 1.349 . S
C654 C666 1.349 . S
C655 C653 1.327 . S
C655 C671 1.429 . S
C655 H677 0.950 . S
C656 H652 0.949 . S
C656 C664 1.574 . S
C656 C672 1.368 . S
H657 C665 0.950 . S
H658 C663 0.950 . S
H659 C664 0.949 . S
H660 C666 0.950 . S
H661 C667 0.950 . S
H662 C668 0.949 . S
C663 H658 0.950 . S
C663 C665 1.327 . S
C663 C669 1.429 . S
C664 C656 1.574 . S
C664 H659 0.949 . S
C664 C670 1.368 . S
C665 C649 1.349 . S
C665 H657 0.950 . S
C665 C663 1.327 . S
C666 C654 1.349 . S
C666 H660 0.950 . S
C666 C667 1.327 . S
C667 H661 0.950 . S
C667 C666 1.327 . S
C667 C671 1.429 . S
C668 C651 1.574 . S
C668 H662 0.949 . S
C668 C672 1.368 . S
C669 C650 1.429 . S
C669 C663 1.429 . S
C669 C670 1.523 . S
C670 C651 1.368 . S
C670 C664 1.368 . S
C670 C669 1.523 . S
C671 C655 1.429 . S
C671 C667 1.429 . S
C671 C672 1.523 . S
C672 C656 1.368 . S
C672 C668 1.368 . S
C672 C671 1.523 . S
H673 C648 0.950 . S
H674 C650 0.950 . S
H675 C651 0.949 . S
H676 C653 0.950 . S
H677 C655 0.950 . S
C678 C679 1.349 . S
C678 C680 1.327 . S
C678 H703 0.950 . S
C679 C678 1.349 . S
C679 C695 1.349 . S
C680 C678 1.327 . S
C680 C699 1.429 . S
C680 H704 0.950 . S
C681 C698 1.574 . S
C681 C700 1.368 . S
C681 H705 0.949 . S
H682 C686 0.949 . S
C683 C684 1.349 . S
C683 C685 1.327 . S
C683 H706 0.950 . S
C684 C683 1.349 . S
C684 C696 1.349 . S
C685 C683 1.327 . S
C685 C701 1.429 . S
C685 H707 0.950 . S
C686 H682 0.949 . S
C686 C694 1.574 . S
C686 C702 1.368 . S
H687 C695 0.950 . S
H688 C693 0.950 . S
H689 C694 0.949 . S
H690 C696 0.950 . S
H691 C697 0.950 . S
H692 C698 0.949 . S
C693 H688 0.950 . S
C693 C695 1.327 . S
C693 C699 1.429 . S
C694 C686 1.574 . S
C694 H689 0.949 . S
C694 C700 1.368 . S
C695 C679 1.349 . S
C695 H687 0.950 . S
C695 C693 1.327 . S
C696 C684 1.349 . S
C696 H690 0.950 . S
C696 C697 1.327 . S
C697 H691 0.950 . S
C697 C696 1.327 . S
C697 C701 1.429 . S
C698 C681 1.574 . S
C698 H692 0.949 . S
C698 C702 1.368 . S
C699 C680 1.429 . S
C699 C693 1.429 . S
C699 C700 1.523 . S
C700 C681 1.368 . S
C700 C694 1.368 . S
C700 C699 1.523 . S
C701 C685 1.429 . S
C701 C697 1.429 . S
C701 C702 1.523 . S
C702 C686 1.368 . S
C702 C698 1.368 . S
C702 C701 1.523 . S
H703 C678 0.950 . S
H704 C680 0.950 . S
H705 C681 0.949 . S
H706 C683 0.950 . S
H707 C685 0.950 . S
C708 C709 1.349 . S
C708 C710 1.327 . S
C708 H733 0.950 . S
C709 C708 1.349 . S
C709 C725 1.349 . S
C710 C708 1.327 . S
C710 C729 1.429 . S
C710 H734 0.950 . S
C711 C728 1.574 . S
C711 C730 1.368 . S
C711 H735 0.949 . S
H712 C716 0.949 . S
C713 C714 1.349 . S
C713 C715 1.327 . S
C713 H736 0.950 . S
C714 C713 1.349 . S
C714 C726 1.349 . S
C715 C713 1.327 . S
C715 C731 1.429 . S
C715 H737 0.950 . S
C716 H712 0.949 . S
C716 C724 1.574 . S
C716 C732 1.368 . S
H717 C725 0.950 . S
H718 C723 0.950 . S
H719 C724 0.949 . S
H720 C726 0.950 . S
H721 C727 0.950 . S
H722 C728 0.949 . S
C723 H718 0.950 . S
C723 C725 1.327 . S
C723 C729 1.429 . S
C724 C716 1.574 . S
C724 H719 0.949 . S
C724 C730 1.368 . S
C725 C709 1.349 . S
C725 H717 0.950 . S
C725 C723 1.327 . S
C726 C714 1.349 . S
C726 H720 0.950 . S
C726 C727 1.327 . S
C727 H721 0.950 . S
C727 C726 1.327 . S
C727 C731 1.429 . S
C728 C711 1.574 . S
C728 H722 0.949 . S
C728 C732 1.368 . S
C729 C710 1.429 . S
C729 C723 1.429 . S
C729 C730 1.523 . S
C730 C711 1.368 . S
C730 C724 1.368 . S
C730 C729 1.523 . S
C731 C715 1.429 . S
C731 C727 1.429 . S
C731 C732 1.523 . S
C732 C716 1.368 . S
C732 C728 1.368 . S
C732 C731 1.523 . S
H733 C708 0.950 . S
H734 C710 0.950 . S
H735 C711 0.949 . S
H736 C713 0.950 . S
H737 C715 0.950 . S
C738 C739 1.349 . S
C738 C740 1.327 . S
C738 H763 0.950 . S
C739 C738 1.349 . S
C739 C755 1.349 . S
C740 C738 1.327 . S
C740 C759 1.429 . S
C740 H764 0.950 . S
C741 C758 1.574 . S
C741 C760 1.368 . S
C741 H765 0.949 . S
H742 C746 0.949 . S
C743 C744 1.349 . S
C743 C745 1.327 . S
C743 H766 0.950 . S
C744 C743 1.349 . S
C744 C756 1.349 . S
C745 C743 1.327 . S
C745 C761 1.429 . S
C745 H767 0.950 . S
C746 H742 0.949 . S
C746 C754 1.574 . S
C746 C762 1.368 . S
H747 C755 0.950 . S
H748 C753 0.950 . S
H749 C754 0.949 . S
H750 C756 0.950 . S
H751 C757 0.950 . S
H752 C758 0.949 . S
C753 H748 0.950 . S
C753 C755 1.327 . S
C753 C759 1.429 . S
C754 C746 1.574 . S
C754 H749 0.949 . S
C754 C760 1.368 . S
C755 C739 1.349 . S
C755 H747 0.950 . S
C755 C753 1.327 . S
C756 C744 1.349 . S
C756 H750 0.950 . S
C756 C757 1.327 . S
C757 H751 0.950 . S
C757 C756 1.327 . S
C757 C761 1.429 . S
C758 C741 1.574 . S
C758 H752 0.949 . S
C758 C762 1.368 . S
C759 C740 1.429 . S
C759 C753 1.429 . S
C759 C760 1.523 . S
C760 C741 1.368 . S
C760 C754 1.368 . S
C760 C759 1.523 . S
C761 C745 1.429 . S
C761 C757 1.429 . S
C761 C762 1.523 . S
C762 C746 1.368 . S
C762 C758 1.368 . S
C762 C761 1.523 . S
H763 C738 0.950 . S
H764 C740 0.950 . S
H765 C741 0.949 . S
H766 C743 0.950 . S
H767 C745 0.950 . S
C768 C769 1.349 . S
C768 C770 1.327 . S
C768 H793 0.950 . S
C769 C768 1.349 . S
C769 C785 1.349 . S
C770 C768 1.327 . S
C770 C789 1.429 . S
C770 H794 0.950 . S
C771 C788 1.574 . S
C771 C790 1.368 . S
C771 H795 0.949 . S
H772 C776 0.949 . S
C773 C774 1.349 . S
C773 C775 1.327 . S
C773 H796 0.950 . S
C774 C773 1.349 . S
C774 C786 1.349 . S
C775 C773 1.327 . S
C775 C791 1.429 . S
C775 H797 0.950 . S
C776 H772 0.949 . S
C776 C784 1.574 . S
C776 C792 1.368 . S
H777 C785 0.950 . S
H778 C783 0.950 . S
H779 C784 0.949 . S
H780 C786 0.950 . S
H781 C787 0.950 . S
H782 C788 0.949 . S
C783 H778 0.950 . S
C783 C785 1.327 . S
C783 C789 1.429 . S
C784 C776 1.574 . S
C784 H779 0.949 . S
C784 C790 1.368 . S
C785 C769 1.349 . S
C785 H777 0.950 . S
C785 C783 1.327 . S
C786 C774 1.349 . S
C786 H780 0.950 . S
C786 C787 1.327 . S
C787 H781 0.950 . S
C787 C786 1.327 . S
C787 C791 1.429 . S
C788 C771 1.574 . S
C788 H782 0.949 . S
C788 C792 1.368 . S
C789 C770 1.429 . S
C789 C783 1.429 . S
C789 C790 1.523 . S
C790 C771 1.368 . S
C790 C784 1.368 . S
C790 C789 1.523 . S
C791 C775 1.429 . S
C791 C787 1.429 . S
C791 C792 1.523 1_554 S
C792 C776 1.368 . S
C792 C788 1.368 . S
C792 C791 1.523 1_556 S
H793 C768 0.950 . S
H794 C770 0.950 . S
H795 C771 0.949 . S
H796 C773 0.950 . S
H797 C775 0.950 . S
C798 C799 1.349 . S
C798 C800 1.327 . S
C798 H823 0.950 . S
C799 C798 1.349 . S
C799 C815 1.349 . S
C800 C798 1.327 . S
C800 C819 1.429 . S
C800 H824 0.950 . S
C801 C818 1.574 . S
C801 C820 1.368 . S
C801 H825 0.949 . S
H802 C806 0.949 . S
C803 C804 1.349 . S
C803 C805 1.327 . S
C803 H826 0.950 . S
C804 C803 1.349 . S
C804 C816 1.349 . S
C805 C803 1.327 . S
C805 C821 1.429 . S
C805 H827 0.950 . S
C806 H802 0.949 . S
C806 C814 1.574 . S
C806 C822 1.368 . S
H807 C815 0.950 . S
H808 C813 0.950 . S
H809 C814 0.949 . S
H810 C816 0.950 . S
H811 C817 0.950 . S
H812 C818 0.949 . S
C813 H808 0.950 . S
C813 C815 1.327 . S
C813 C819 1.429 . S
C814 C806 1.574 . S
C814 H809 0.949 . S
C814 C820 1.368 . S
C815 C799 1.349 . S
C815 H807 0.950 . S
C815 C813 1.327 . S
C816 C804 1.349 . S
C816 H810 0.950 . S
C816 C817 1.327 . S
C817 H811 0.950 . S
C817 C816 1.327 . S
C817 C821 1.429 . S
C818 C801 1.574 . S
C818 H812 0.949 . S
C818 C822 1.368 . S
C819 C800 1.429 . S
C819 C813 1.429 . S
C819 C820 1.523 . S
C820 C801 1.368 . S
C820 C814 1.368 . S
C820 C819 1.523 . S
C821 C805 1.429 . S
C821 C817 1.429 . S
C821 C822 1.523 . S
C822 C806 1.368 . S
C822 C818 1.368 . S
C822 C821 1.523 . S
H823 C798 0.950 . S
H824 C800 0.950 . S
H825 C801 0.949 . S
H826 C803 0.950 . S
H827 C805 0.950 . S
C828 C829 1.349 . S
C828 C830 1.327 . S
C828 H853 0.950 . S
C829 C828 1.349 . S
C829 C845 1.349 . S
C830 C828 1.327 . S
C830 C849 1.429 . S
C830 H854 0.950 . S
C831 C848 1.574 . S
C831 C850 1.368 . S
C831 H855 0.949 . S
H832 C836 0.949 . S
C833 C834 1.349 . S
C833 C835 1.327 . S
C833 H856 0.950 . S
C834 C833 1.349 . S
C834 C846 1.349 . S
C835 C833 1.327 . S
C835 C851 1.429 . S
C835 H857 0.950 . S
C836 H832 0.949 . S
C836 C844 1.574 . S
C836 C852 1.368 . S
H837 C845 0.950 . S
H838 C843 0.950 . S
H839 C844 0.949 . S
H840 C846 0.950 . S
H841 C847 0.950 . S
H842 C848 0.949 . S
C843 H838 0.950 . S
C843 C845 1.327 . S
C843 C849 1.429 . S
C844 C836 1.574 . S
C844 H839 0.949 . S
C844 C850 1.368 . S
C845 C829 1.349 . S
C845 H837 0.950 . S
C845 C843 1.327 . S
C846 C834 1.349 . S
C846 H840 0.950 . S
C846 C847 1.327 . S
C847 H841 0.950 . S
C847 C846 1.327 . S
C847 C851 1.429 . S
C848 C831 1.574 . S
C848 H842 0.949 . S
C848 C852 1.368 . S
C849 C830 1.429 . S
C849 C843 1.429 . S
C849 C850 1.523 . S
C850 C831 1.368 . S
C850 C844 1.368 . S
C850 C849 1.523 . S
C851 C835 1.429 . S
C851 C847 1.429 . S
C851 C852 1.523 1_554 S
C852 C836 1.368 . S
C852 C848 1.368 . S
C852 C851 1.523 1_556 S
H853 C828 0.950 . S
H854 C830 0.950 . S
H855 C831 0.949 . S
H856 C833 0.950 . S
H857 C835 0.950 . S
C858 C859 1.349 . S
C858 C860 1.327 . S
C858 H883 0.950 . S
C859 C858 1.349 . S
C859 C875 1.349 . S
C860 C858 1.327 . S
C860 C879 1.429 . S
C860 H884 0.950 . S
C861 C878 1.574 . S
C861 C880 1.368 . S
C861 H885 0.949 . S
H862 C866 0.949 . S
C863 C864 1.349 . S
C863 C865 1.327 . S
C863 H886 0.950 . S
C864 C863 1.349 . S
C864 C876 1.349 . S
C865 C863 1.327 . S
C865 C881 1.429 . S
C865 H887 0.950 . S
C866 H862 0.949 . S
C866 C874 1.574 . S
C866 C882 1.368 . S
H867 C875 0.950 . S
H868 C873 0.950 . S
H869 C874 0.949 . S
H870 C876 0.950 . S
H871 C877 0.950 . S
H872 C878 0.949 . S
C873 H868 0.950 . S
C873 C875 1.327 . S
C873 C879 1.429 . S
C874 C866 1.574 . S
C874 H869 0.949 . S
C874 C880 1.368 . S
C875 C859 1.349 . S
C875 H867 0.950 . S
C875 C873 1.327 . S
C876 C864 1.349 . S
C876 H870 0.950 . S
C876 C877 1.327 . S
C877 H871 0.950 . S
C877 C876 1.327 . S
C877 C881 1.429 . S
C878 C861 1.574 . S
C878 H872 0.949 . S
C878 C882 1.368 . S
C879 C860 1.429 . S
C879 C873 1.429 . S
C879 C880 1.523 . S
C880 C861 1.368 . S
C880 C874 1.368 . S
C880 C879 1.523 . S
C881 C865 1.429 . S
C881 C877 1.429 . S
C881 C882 1.523 . S
C882 C866 1.368 . S
C882 C878 1.368 . S
C882 C881 1.523 . S
H883 C858 0.950 . S
H884 C860 0.950 . S
H885 C861 0.949 . S
H886 C863 0.950 . S
H887 C865 0.950 . S
C888 C889 1.349 . S
C888 C890 1.327 . S
C888 H913 0.950 . S
C889 C888 1.349 . S
C889 C905 1.349 . S
C890 C888 1.327 . S
C890 C909 1.429 . S
C890 H914 0.950 . S
C891 C908 1.574 . S
C891 C910 1.368 . S
C891 H915 0.949 . S
H892 C896 0.949 . S
C893 C894 1.349 . S
C893 C895 1.327 . S
C893 H916 0.950 . S
C894 C893 1.349 . S
C894 C906 1.349 . S
C895 C893 1.327 . S
C895 C911 1.429 . S
C895 H917 0.950 . S
C896 H892 0.949 . S
C896 C904 1.574 . S
C896 C912 1.368 . S
H897 C905 0.950 . S
H898 C903 0.950 . S
H899 C904 0.949 . S
H900 C906 0.950 . S
H901 C907 0.950 . S
H902 C908 0.949 . S
C903 H898 0.950 . S
C903 C905 1.327 . S
C903 C909 1.429 . S
C904 C896 1.574 . S
C904 H899 0.949 . S
C904 C910 1.368 . S
C905 C889 1.349 . S
C905 H897 0.950 . S
C905 C903 1.327 . S
C906 C894 1.349 . S
C906 H900 0.950 . S
C906 C907 1.327 . S
C907 H901 0.950 . S
C907 C906 1.327 . S
C907 C911 1.429 . S
C908 C891 1.574 . S
C908 H902 0.949 . S
C908 C912 1.368 . S
C909 C890 1.429 . S
C909 C903 1.429 . S
C909 C910 1.523 . S
C910 C891 1.368 . S
C910 C904 1.368 . S
C910 C909 1.523 . S
C911 C895 1.429 . S
C911 C907 1.429 . S
C911 C912 1.523 1_554 S
C912 C896 1.368 . S
C912 C908 1.368 . S
C912 C911 1.523 1_556 S
H913 C888 0.950 . S
H914 C890 0.950 . S
H915 C891 0.949 . S
H916 C893 0.950 . S
H917 C895 0.950 . S
C918 C919 1.349 . S
C918 C920 1.327 . S
C918 H943 0.950 . S
C919 C918 1.349 . S
C919 C935 1.349 . S
C920 C918 1.327 . S
C920 C939 1.429 . S
C920 H944 0.950 . S
C921 C938 1.574 . S
C921 C940 1.368 . S
C921 H945 0.949 . S
H922 C926 0.949 . S
C923 C924 1.349 . S
C923 C925 1.327 . S
C923 H946 0.950 . S
C924 C923 1.349 . S
C924 C936 1.349 . S
C925 C923 1.327 . S
C925 C941 1.429 . S
C925 H947 0.950 . S
C926 H922 0.949 . S
C926 C934 1.574 . S
C926 C942 1.368 . S
H927 C935 0.950 . S
H928 C933 0.950 . S
H929 C934 0.949 . S
H930 C936 0.950 . S
H931 C937 0.950 . S
H932 C938 0.949 . S
C933 H928 0.950 . S
C933 C935 1.327 . S
C933 C939 1.429 . S
C934 C926 1.574 . S
C934 H929 0.949 . S
C934 C940 1.368 . S
C935 C919 1.349 . S
C935 H927 0.950 . S
C935 C933 1.327 . S
C936 C924 1.349 . S
C936 H930 0.950 . S
C936 C937 1.327 . S
C937 H931 0.950 . S
C937 C936 1.327 . S
C937 C941 1.429 . S
C938 C921 1.574 . S
C938 H932 0.949 . S
C938 C942 1.368 . S
C939 C920 1.429 . S
C939 C933 1.429 . S
C939 C940 1.523 . S
C940 C921 1.368 . S
C940 C934 1.368 . S
C940 C939 1.523 . S
C941 C925 1.429 . S
C941 C937 1.429 . S
C941 C942 1.523 . S
C942 C926 1.368 . S
C942 C938 1.368 . S
C942 C941 1.523 . S
H943 C918 0.950 . S
H944 C920 0.950 . S
H945 C921 0.949 . S
H946 C923 0.950 . S
H947 C925 0.950 . S
C948 C949 1.349 . S
C948 C950 1.327 . S
C948 H973 0.950 . S
C949 C948 1.349 . S
C949 C965 1.349 . S
C950 C948 1.327 . S
C950 C969 1.429 . S
C950 H974 0.950 . S
C951 C968 1.574 . S
C951 C970 1.368 . S
C951 H975 0.949 . S
H952 C956 0.949 . S
C953 C954 1.349 . S
C953 C955 1.327 . S
C953 H976 0.950 . S
C954 C953 1.349 . S
C954 C966 1.349 . S
C955 C953 1.327 . S
C955 C971 1.429 . S
C955 H977 0.950 . S
C956 H952 0.949 . S
C956 C964 1.574 . S
C956 C972 1.368 . S
H957 C965 0.950 . S
H958 C963 0.950 . S
H959 C964 0.949 . S
H960 C966 0.950 . S
H961 C967 0.950 . S
H962 C968 0.949 . S
C963 H958 0.950 . S
C963 C965 1.327 . S
C963 C969 1.429 . S
C964 C956 1.574 . S
C964 H959 0.949 . S
C964 C970 1.368 . S
C965 C949 1.349 . S
C965 H957 0.950 . S
C965 C963 1.327 . S
C966 C954 1.349 . S
C966 H960 0.950 . S
C966 C967 1.327 . S
C967 H961 0.950 . S
C967 C966 1.327 . S
C967 C971 1.429 . S
C968 C951 1.574 . S
C968 H962 0.949 . S
C968 C972 1.368 . S
C969 C950 1.429 . S
C969 C963 1.429 . S
C969 C970 1.523 . S
C970 C951 1.368 . S
C970 C964 1.368 . S
C970 C969 1.523 . S
C971 C955 1.429 . S
C971 C967 1.429 . S
C971 C972 1.523 . S
C972 C956 1.368 . S
C972 C968 1.368 . S
C972 C971 1.523 . S
H973 C948 0.950 . S
H974 C950 0.950 . S
H975 C951 0.949 . S
H976 C953 0.950 . S
H977 C955 0.950 . S
C978 C979 1.349 . S
C978 C980 1.327 . S
C978 H1003 0.950 . S
C979 C978 1.349 . S
C979 C995 1.349 . S
C980 C978 1.327 . S
C980 C999 1.429 . S
C980 H1004 0.950 . S
C981 C998 1.574 . S
C981 C1000 1.368 . S
C981 H1005 0.949 . S
H982 C986 0.949 . S
C983 C984 1.349 . S
C983 C985 1.327 . S
C983 H1006 0.950 . S
C984 C983 1.349 . S
C984 C996 1.349 . S
C985 C983 1.327 . S
C985 C1001 1.429 . S
C985 H1007 0.950 . S
C986 H982 0.949 . S
C986 C994 1.574 . S
C986 C1002 1.368 . S
H987 C995 0.950 . S
H988 C993 0.950 . S
H989 C994 0.949 . S
H990 C996 0.950 . S
H991 C997 0.950 . S
H992 C998 0.949 . S
C993 H988 0.950 . S
C993 C995 1.327 . S
C993 C999 1.429 . S
C994 C986 1.574 . S
C994 H989 0.949 . S
C994 C1000 1.368 . S
C995 C979 1.349 . S
C995 H987 0.950 . S
C995 C993 1.327 . S
C996 C984 1.349 . S
C996 H990 0.950 . S
C996 C997 1.327 . S
C997 H991 0.950 . S
C997 C996 1.327 . S
C997 C1001 1.429 . S
C998 C981 1.574 . S
C998 H992 0.949 . S
C998 C1002 1.368 . S
C999 C980 1.429 . S
C999 C993 1.429 . S
C999 C1000 1.523 . S
C1000 C981 1.368 . S
C1000 C994 1.368 . S
C1000 C999 1.523 . S
C1001 C985 1.429 . S
C1001 C997 1.429 . S
C1001 C1002 1.523 1_556 S
C1002 C986 1.368 . S
C1002 C998 1.368 . S
C1002 C1001 1.523 1_554 S
H1003 C978 0.950 . S
H1004 C980 0.950 . S
H1005 C981 0.949 . S
H1006 C983 0.950 . S
H1007 C985 0.950 . S
C1008 C1009 1.349 . S
C1008 C1010 1.327 . S
C1008 H1033 0.950 . S
C1009 C1008 1.349 . S
C1009 C1025 1.349 . S
C1010 C1008 1.327 . S
C1010 C1029 1.429 . S
C1010 H1034 0.950 . S
C1011 C1028 1.574 . S
C1011 C1030 1.368 . S
C1011 H1035 0.949 . S
H1012 C1016 0.949 . S
C1013 C1014 1.349 . S
C1013 C1015 1.327 . S
C1013 H1036 0.950 . S
C1014 C1013 1.349 . S
C1014 C1026 1.349 . S
C1015 C1013 1.327 . S
C1015 C1031 1.429 . S
C1015 H1037 0.950 . S
C1016 H1012 0.949 . S
C1016 C1024 1.574 . S
C1016 C1032 1.368 . S
H1017 C1025 0.950 . S
H1018 C1023 0.950 . S
H1019 C1024 0.949 . S
H1020 C1026 0.950 . S
H1021 C1027 0.950 . S
H1022 C1028 0.949 . S
C1023 H1018 0.950 . S
C1023 C1025 1.327 . S
C1023 C1029 1.429 . S
C1024 C1016 1.574 . S
C1024 H1019 0.949 . S
C1024 C1030 1.368 . S
C1025 C1009 1.349 . S
C1025 H1017 0.950 . S
C1025 C1023 1.327 . S
C1026 C1014 1.349 . S
C1026 H1020 0.950 . S
C1026 C1027 1.327 . S
C1027 H1021 0.950 . S
C1027 C1026 1.327 . S
C1027 C1031 1.429 . S
C1028 C1011 1.574 . S
C1028 H1022 0.949 . S
C1028 C1032 1.368 . S
C1029 C1010 1.429 . S
C1029 C1023 1.429 . S
C1029 C1030 1.523 . S
C1030 C1011 1.368 . S
C1030 C1024 1.368 . S
C1030 C1029 1.523 . S
C1031 C1015 1.429 . S
C1031 C1027 1.429 . S
C1031 C1032 1.523 . S
C1032 C1016 1.368 . S
C1032 C1028 1.368 . S
C1032 C1031 1.523 . S
H1033 C1008 0.950 . S
H1034 C1010 0.950 . S
H1035 C1011 0.949 . S
H1036 C1013 0.950 . S
H1037 C1015 0.950 . S
C1038 C1039 1.349 . S
C1038 C1040 1.327 . S
C1038 H1063 0.950 . S
C1039 C1038 1.349 . S
C1039 C1055 1.349 . S
C1040 C1038 1.327 . S
C1040 C1059 1.429 . S
C1040 H1064 0.950 . S
C1041 C1058 1.574 . S
C1041 C1060 1.368 . S
C1041 H1065 0.949 . S
H1042 C1046 0.949 . S
C1043 C1044 1.349 . S
C1043 C1045 1.327 . S
C1043 H1066 0.950 . S
C1044 C1043 1.349 . S
C1044 C1056 1.349 . S
C1045 C1043 1.327 . S
C1045 C1061 1.429 . S
C1045 H1067 0.950 . S
C1046 H1042 0.949 . S
C1046 C1054 1.574 . S
C1046 C1062 1.368 . S
H1047 C1055 0.950 . S
H1048 C1053 0.950 . S
H1049 C1054 0.949 . S
H1050 C1056 0.950 . S
H1051 C1057 0.950 . S
H1052 C1058 0.949 . S
C1053 H1048 0.950 . S
C1053 C1055 1.327 . S
C1053 C1059 1.429 . S
C1054 C1046 1.574 . S
C1054 H1049 0.949 . S
C1054 C1060 1.368 . S
C1055 C1039 1.349 . S
C1055 H1047 0.950 . S
C1055 C1053 1.327 . S
C1056 C1044 1.349 . S
C1056 H1050 0.950 . S
C1056 C1057 1.327 . S
C1057 H1051 0.950 . S
C1057 C1056 1.327 . S
C1057 C1061 1.429 . S
C1058 C1041 1.574 . S
C1058 H1052 0.949 . S
C1058 C1062 1.368 . S
C1059 C1040 1.429 . S
C1059 C1053 1.429 . S
C1059 C1060 1.523 1_556 S
C1060 C1041 1.368 . S
C1060 C1054 1.368 . S
C1060 C1059 1.523 1_554 S
C1061 C1045 1.429 . S
C1061 C1057 1.429 . S
C1061 C1062 1.523 . S
C1062 C1046 1.368 . S
C1062 C1058 1.368 . S
C1062 C1061 1.523 . S
H1063 C1038 0.950 . S
H1064 C1040 0.950 . S
H1065 C1041 0.949 . S
H1066 C1043 0.950 . S
H1067 C1045 0.950 . S
C1068 C1069 1.349 . S
C1068 C1070 1.327 . S
C1068 H1093 0.950 . S
C1069 C1068 1.349 . S
C1069 C1085 1.349 . S
C1070 C1068 1.327 . S
C1070 C1089 1.429 . S
C1070 H1094 0.950 . S
C1071 C1088 1.574 . S
C1071 C1090 1.368 . S
C1071 H1095 0.949 . S
H1072 C1076 0.949 . S
C1073 C1074 1.349 . S
C1073 C1075 1.327 . S
C1073 H1096 0.950 . S
C1074 C1073 1.349 . S
C1074 C1086 1.349 . S
C1075 C1073 1.327 . S
C1075 C1091 1.429 . S
C1075 H1097 0.950 . S
C1076 H1072 0.949 . S
C1076 C1084 1.574 . S
C1076 C1092 1.368 . S
H1077 C1085 0.950 . S
H1078 C1083 0.950 . S
H1079 C1084 0.949 . S
H1080 C1086 0.950 . S
H1081 C1087 0.950 . S
H1082 C1088 0.949 . S
C1083 H1078 0.950 . S
C1083 C1085 1.327 . S
C1083 C1089 1.429 . S
C1084 C1076 1.574 . S
C1084 H1079 0.949 . S
C1084 C1090 1.368 . S
C1085 C1069 1.349 . S
C1085 H1077 0.950 . S
C1085 C1083 1.327 . S
C1086 C1074 1.349 . S
C1086 H1080 0.950 . S
C1086 C1087 1.327 . S
C1087 H1081 0.950 . S
C1087 C1086 1.327 . S
C1087 C1091 1.429 . S
C1088 C1071 1.574 . S
C1088 H1082 0.949 . S
C1088 C1092 1.368 . S
C1089 C1070 1.429 . S
C1089 C1083 1.429 . S
C1089 C1090 1.523 . S
C1090 C1071 1.368 . S
C1090 C1084 1.368 . S
C1090 C1089 1.523 . S
C1091 C1075 1.429 . S
C1091 C1087 1.429 . S
C1091 C1092 1.523 . S
C1092 C1076 1.368 . S
C1092 C1088 1.368 . S
C1092 C1091 1.523 . S
H1093 C1068 0.950 . S
H1094 C1070 0.950 . S
H1095 C1071 0.949 . S
H1096 C1073 0.950 . S
H1097 C1075 0.950 . S
C1098 C1099 1.349 . S
C1098 C1100 1.327 . S
C1098 H1123 0.950 . S
C1099 C1098 1.349 . S
C1099 C1115 1.349 . S
C1100 C1098 1.327 . S
C1100 C1119 1.429 . S
C1100 H1124 0.950 . S
C1101 C1118 1.574 . S
C1101 C1120 1.368 . S
C1101 H1125 0.949 . S
H1102 C1106 0.949 . S
C1103 C1104 1.349 . S
C1103 C1105 1.327 . S
C1103 H1126 0.950 . S
C1104 C1103 1.349 . S
C1104 C1116 1.349 . S
C1105 C1103 1.327 . S
C1105 C1121 1.429 . S
C1105 H1127 0.950 . S
C1106 H1102 0.949 . S
C1106 C1114 1.574 . S
C1106 C1122 1.368 . S
H1107 C1115 0.950 . S
H1108 C1113 0.950 . S
H1109 C1114 0.949 . S
H1110 C1116 0.950 . S
H1111 C1117 0.950 . S
H1112 C1118 0.949 . S
C1113 H1108 0.950 . S
C1113 C1115 1.327 . S
C1113 C1119 1.429 . S
C1114 C1106 1.574 . S
C1114 H1109 0.949 . S
C1114 C1120 1.368 . S
C1115 C1099 1.349 . S
C1115 H1107 0.950 . S
C1115 C1113 1.327 . S
C1116 C1104 1.349 . S
C1116 H1110 0.950 . S
C1116 C1117 1.327 . S
C1117 H1111 0.950 . S
C1117 C1116 1.327 . S
C1117 C1121 1.429 . S
C1118 C1101 1.574 . S
C1118 H1112 0.949 . S
C1118 C1122 1.368 . S
C1119 C1100 1.429 . S
C1119 C1113 1.429 . S
C1119 C1120 1.523 . S
C1120 C1101 1.368 . S
C1120 C1114 1.368 . S
C1120 C1119 1.523 . S
C1121 C1105 1.429 . S
C1121 C1117 1.429 . S
C1121 C1122 1.523 1_556 S
C1122 C1106 1.368 . S
C1122 C1118 1.368 . S
C1122 C1121 1.523 1_554 S
H1123 C1098 0.950 . S
H1124 C1100 0.950 . S
H1125 C1101 0.949 . S
H1126 C1103 0.950 . S
H1127 C1105 0.950 . S
C1128 C1129 1.349 . S
C1128 C1130 1.327 . S
C1128 H1153 0.950 . S
C1129 C1128 1.349 . S
C1129 C1145 1.349 . S
C1130 C1128 1.327 . S
C1130 C1149 1.429 . S
C1130 H1154 0.950 . S
C1131 C1148 1.574 . S
C1131 C1150 1.368 . S
C1131 H1155 0.949 . S
H1132 C1136 0.949 . S
C1133 C1134 1.349 . S
C1133 C1135 1.327 . S
C1133 H1156 0.950 . S
C1134 C1133 1.349 . S
C1134 C1146 1.349 . S
C1135 C1133 1.327 . S
C1135 C1151 1.429 . S
C1135 H1157 0.950 . S
C1136 H1132 0.949 . S
C1136 C1144 1.574 . S
C1136 C1152 1.368 . S
H1137 C1145 0.950 . S
H1138 C1143 0.950 . S
H1139 C1144 0.949 . S
H1140 C1146 0.950 . S
H1141 C1147 0.950 . S
H1142 C1148 0.949 . S
C1143 H1138 0.950 . S
C1143 C1145 1.327 . S
C1143 C1149 1.429 . S
C1144 C1136 1.574 . S
C1144 H1139 0.949 . S
C1144 C1150 1.368 . S
C1145 C1129 1.349 . S
C1145 H1137 0.950 . S
C1145 C1143 1.327 . S
C1146 C1134 1.349 . S
C1146 H1140 0.950 . S
C1146 C1147 1.327 . S
C1147 H1141 0.950 . S
C1147 C1146 1.327 . S
C1147 C1151 1.429 . S
C1148 C1131 1.574 . S
C1148 H1142 0.949 . S
C1148 C1152 1.368 . S
C1149 C1130 1.429 . S
C1149 C1143 1.429 . S
C1149 C1150 1.523 . S
C1150 C1131 1.368 . S
C1150 C1144 1.368 . S
C1150 C1149 1.523 . S
C1151 C1135 1.429 . S
C1151 C1147 1.429 . S
C1151 C1152 1.523 . S
C1152 C1136 1.368 . S
C1152 C1148 1.368 . S
C1152 C1151 1.523 . S
H1153 C1128 0.950 . S
H1154 C1130 0.950 . S
H1155 C1131 0.949 . S
H1156 C1133 0.950 . S
H1157 C1135 0.950 . S
C1158 C1159 1.349 . S
C1158 C1160 1.327 . S
C1158 H1183 0.950 . S
C1159 C1158 1.349 . S
C1159 C1175 1.349 . S
C1160 C1158 1.327 . S
C1160 C1179 1.429 . S
C1160 H1184 0.950 . S
C1161 C1178 1.574 . S
C1161 C1180 1.368 . S
C1161 H1185 0.949 . S
H1162 C1166 0.949 . S
C1163 C1164 1.349 . S
C1163 C1165 1.327 . S
C1163 H1186 0.950 . S
C1164 C1163 1.349 . S
C1164 C1176 1.349 . S
C1165 C1163 1.327 . S
C1165 C1181 1.429 . S
C1165 H1187 0.950 . S
C1166 H1162 0.949 . S
C1166 C1174 1.574 . S
C1166 C1182 1.368 . S
H1167 C1175 0.950 . S
H1168 C1173 0.950 . S
H1169 C1174 0.949 . S
H1170 C1176 0.950 . S
H1171 C1177 0.950 . S
H1172 C1178 0.949 . S
C1173 H1168 0.950 . S
C1173 C1175 1.327 . S
C1173 C1179 1.429 . S
C1174 C1166 1.574 . S
C1174 H1169 0.949 . S
C1174 C1180 1.368 . S
C1175 C1159 1.349 . S
C1175 H1167 0.950 . S
C1175 C1173 1.327 . S
C1176 C1164 1.349 . S
C1176 H1170 0.950 . S
C1176 C1177 1.327 . S
C1177 H1171 0.950 . S
C1177 C1176 1.327 . S
C1177 C1181 1.429 . S
C1178 C1161 1.574 . S
C1178 H1172 0.949 . S
C1178 C1182 1.368 . S
C1179 C1160 1.429 . S
C1179 C1173 1.429 . S
C1179 C1180 1.523 . S
C1180 C1161 1.368 . S
C1180 C1174 1.368 . S
C1180 C1179 1.523 . S
C1181 C1165 1.429 . S
C1181 C1177 1.429 . S
C1181 C1182 1.523 . S
C1182 C1166 1.368 . S
C1182 C1178 1.368 . S
C1182 C1181 1.523 . S
H1183 C1158 0.950 . S
H1184 C1160 0.950 . S
H1185 C1161 0.949 . S
H1186 C1163 0.950 . S
H1187 C1165 0.950 . S
C1188 C1189 1.349 . S
C1188 C1190 1.327 . S
C1188 H1213 0.950 . S
C1189 C1188 1.349 . S
C1189 C1205 1.349 . S
C1190 C1188 1.327 . S
C1190 C1209 1.429 . S
C1190 H1214 0.950 . S
C1191 C1208 1.574 . S
C1191 C1210 1.368 . S
C1191 H1215 0.949 . S
H1192 C1196 0.949 . S
C1193 C1194 1.349 . S
C1193 C1195 1.327 . S
C1193 H1216 0.950 . S
C1194 C1193 1.349 . S
C1194 C1206 1.349 . S
C1195 C1193 1.327 . S
C1195 C1211 1.429 . S
C1195 H1217 0.950 . S
C1196 H1192 0.949 . S
C1196 C1204 1.574 . S
C1196 C1212 1.368 . S
H1197 C1205 0.950 . S
H1198 C1203 0.950 . S
H1199 C1204 0.949 . S
H1200 C1206 0.950 . S
H1201 C1207 0.950 . S
H1202 C1208 0.949 . S
C1203 H1198 0.950 . S
C1203 C1205 1.327 . S
C1203 C1209 1.429 . S
C1204 C1196 1.574 . S
C1204 H1199 0.949 . S
C1204 C1210 1.368 . S
C1205 C1189 1.349 . S
C1205 H1197 0.950 . S
C1205 C1203 1.327 . S
C1206 C1194 1.349 . S
C1206 H1200 0.950 . S
C1206 C1207 1.327 . S
C1207 H1201 0.950 . S
C1207 C1206 1.327 . S
C1207 C1211 1.429 . S
C1208 C1191 1.574 . S
C1208 H1202 0.949 . S
C1208 C1212 1.368 . S
C1209 C1190 1.429 . S
C1209 C1203 1.429 . S
C1209 C1210 1.523 . S
C1210 C1191 1.368 . S
C1210 C1204 1.368 . S
C1210 C1209 1.523 . S
C1211 C1195 1.429 . S
C1211 C1207 1.429 . S
C1211 C1212 1.523 . S
C1212 C1196 1.368 . S
C1212 C1208 1.368 . S
C1212 C1211 1.523 . S
H1213 C1188 0.950 . S
H1214 C1190 0.950 . S
H1215 C1191 0.949 . S
H1216 C1193 0.950 . S
H1217 C1195 0.950 . S
C1218 C1219 1.349 . S
C1218 C1220 1.327 . S
C1218 H1243 0.950 . S
C1219 C1218 1.349 . S
C1219 C1235 1.349 . S
C1220 C1218 1.327 . S
C1220 C1239 1.429 . S
C1220 H1244 0.950 . S
C1221 C1238 1.574 . S
C1221 C1240 1.368 . S
C1221 H1245 0.949 . S
H1222 C1226 0.949 . S
C1223 C1224 1.349 . S
C1223 C1225 1.327 . S
C1223 H1246 0.950 . S
C1224 C1223 1.349 . S
C1224 C1236 1.349 . S
C1225 C1223 1.327 . S
C1225 C1241 1.429 . S
C1225 H1247 0.950 . S
C1226 H1222 0.949 . S
C1226 C1234 1.574 . S
C1226 C1242 1.368 . S
H1227 C1235 0.950 . S
H1228 C1233 0.950 . S
H1229 C1234 0.949 . S
H1230 C1236 0.950 . S
H1231 C1237 0.950 . S
H1232 C1238 0.949 . S
C1233 H1228 0.950 . S
C1233 C1235 1.327 . S
C1233 C1239 1.429 . S
C1234 C1226 1.574 . S
C1234 H1229 0.949 . S
C1234 C1240 1.368 . S
C1235 C1219 1.349 . S
C1235 H1227 0.950 . S
C1235 C1233 1.327 . S
C1236 C1224 1.349 . S
C1236 H1230 0.950 . S
C1236 C1237 1.327 . S
C1237 H1231 0.950 . S
C1237 C1236 1.327 . S
C1237 C1241 1.429 . S
C1238 C1221 1.574 . S
C1238 H1232 0.949 . S
C1238 C1242 1.368 . S
C1239 C1220 1.429 . S
C1239 C1233 1.429 . S
C1239 C1240 1.523 . S
C1240 C1221 1.368 . S
C1240 C1234 1.368 . S
C1240 C1239 1.523 . S
C1241 C1225 1.429 . S
C1241 C1237 1.429 . S
C1241 C1242 1.523 . S
C1242 C1226 1.368 . S
C1242 C1238 1.368 . S
C1242 C1241 1.523 . S
H1243 C1218 0.950 . S
H1244 C1220 0.950 . S
H1245 C1221 0.949 . S
H1246 C1223 0.950 . S
H1247 C1225 0.950 . S
C1248 C1249 1.349 . S
C1248 C1250 1.327 . S
C1248 H1273 0.950 . S
C1249 C1248 1.349 . S
C1249 C1265 1.349 . S
C1250 C1248 1.327 . S
C1250 C1269 1.429 . S
C1250 H1274 0.950 . S
C1251 C1268 1.574 . S
C1251 C1270 1.368 . S
C1251 H1275 0.949 . S
H1252 C1256 0.949 . S
C1253 C1254 1.349 . S
C1253 C1255 1.327 . S
C1253 H1276 0.950 . S
C1254 C1253 1.349 . S
C1254 C1266 1.349 . S
C1255 C1253 1.327 . S
C1255 C1271 1.429 . S
C1255 H1277 0.950 . S
C1256 H1252 0.949 . S
C1256 C1264 1.574 . S
C1256 C1272 1.368 . S
H1257 C1265 0.950 . S
H1258 C1263 0.950 . S
H1259 C1264 0.949 . S
H1260 C1266 0.950 . S
H1261 C1267 0.950 . S
H1262 C1268 0.949 . S
C1263 H1258 0.950 . S
C1263 C1265 1.327 . S
C1263 C1269 1.429 . S
C1264 C1256 1.574 . S
C1264 H1259 0.949 . S
C1264 C1270 1.368 . S
C1265 C1249 1.349 . S
C1265 H1257 0.950 . S
C1265 C1263 1.327 . S
C1266 C1254 1.349 . S
C1266 H1260 0.950 . S
C1266 C1267 1.327 . S
C1267 H1261 0.950 . S
C1267 C1266 1.327 . S
C1267 C1271 1.429 . S
C1268 C1251 1.574 . S
C1268 H1262 0.949 . S
C1268 C1272 1.368 . S
C1269 C1250 1.429 . S
C1269 C1263 1.429 . S
C1269 C1270 1.523 . S
C1270 C1251 1.368 . S
C1270 C1264 1.368 . S
C1270 C1269 1.523 . S
C1271 C1255 1.429 . S
C1271 C1267 1.429 . S
C1271 C1272 1.523 . S
C1272 C1256 1.368 . S
C1272 C1268 1.368 . S
C1272 C1271 1.523 . S
H1273 C1248 0.950 . S
H1274 C1250 0.950 . S
H1275 C1251 0.949 . S
H1276 C1253 0.950 . S
H1277 C1255 0.950 . S
C1278 C1279 1.349 . S
C1278 C1280 1.327 . S
C1278 H1303 0.950 . S
C1279 C1278 1.349 . S
C1279 C1295 1.349 . S
C1280 C1278 1.327 . S
C1280 C1299 1.429 . S
C1280 H1304 0.950 . S
C1281 C1298 1.574 . S
C1281 C1300 1.368 . S
C1281 H1305 0.949 . S
H1282 C1286 0.949 . S
C1283 C1284 1.349 . S
C1283 C1285 1.327 . S
C1283 H1306 0.950 . S
C1284 C1283 1.349 . S
C1284 C1296 1.349 . S
C1285 C1283 1.327 . S
C1285 C1301 1.429 . S
C1285 H1307 0.950 . S
C1286 H1282 0.949 . S
C1286 C1294 1.574 . S
C1286 C1302 1.368 . S
H1287 C1295 0.950 . S
H1288 C1293 0.950 . S
H1289 C1294 0.949 . S
H1290 C1296 0.950 . S
H1291 C1297 0.950 . S
H1292 C1298 0.949 . S
C1293 H1288 0.950 . S
C1293 C1295 1.327 . S
C1293 C1299 1.429 . S
C1294 C1286 1.574 . S
C1294 H1289 0.949 . S
C1294 C1300 1.368 . S
C1295 C1279 1.349 . S
C1295 H1287 0.950 . S
C1295 C1293 1.327 . S
C1296 C1284 1.349 . S
C1296 H1290 0.950 . S
C1296 C1297 1.327 . S
C1297 H1291 0.950 . S
C1297 C1296 1.327 . S
C1297 C1301 1.429 . S
C1298 C1281 1.574 . S
C1298 H1292 0.949 . S
C1298 C1302 1.368 . S
C1299 C1280 1.429 . S
C1299 C1293 1.429 . S
C1299 C1300 1.523 . S
C1300 C1281 1.368 . S
C1300 C1294 1.368 . S
C1300 C1299 1.523 . S
C1301 C1285 1.429 . S
C1301 C1297 1.429 . S
C1301 C1302 1.523 . S
C1302 C1286 1.368 . S
C1302 C1298 1.368 . S
C1302 C1301 1.523 . S
H1303 C1278 0.950 . S
H1304 C1280 0.950 . S
H1305 C1281 0.949 . S
H1306 C1283 0.950 . S
H1307 C1285 0.950 . S
C409 C2 1.553 . S
C414 C376 1.553 . S
C439 C36 1.553 . S
C444 C206 1.553 . S
C469 C240 1.553 . S
C474 C70 1.553 . S
C499 C274 1.553 . S
C504 C104 1.553 . S
C529 C308 1.553 . S
C534 C138 1.553 . S
C559 C172 1.553 . S
C564 C342 1.553 . S
C589 C305 1.615 . S
C594 C33 1.615 . S
C619 C339 1.615 . S
C624 C67 1.615 . S
C649 C101 1.615 . S
C654 C373 1.615 . S
C679 C135 1.615 . S
C684 C407 1.615 . S
C709 C237 1.615 . S
C714 C169 1.615 . S
C739 C203 1.615 . S
C744 C271 1.615 . S
C769 C9 0.991 . S
C774 C5 1.014 . S
C799 C39 1.014 . S
C804 C43 0.991 . S
C829 C77 0.991 . S
C834 C73 1.014 . S
C859 C107 1.014 . S
C864 C111 0.991 . S
C889 C145 0.991 . S
C894 C141 1.014 . S
C919 C175 1.014 . S
C924 C179 0.991 . S
C949 C209 1.014 . S
C954 C213 0.991 . S
C979 C247 0.991 . S
C984 C243 1.014 . S
C1009 C277 1.014 . S
C1014 C281 0.991 . S
C1039 C311 1.014 . S
C1044 C315 0.991 . S
C1069 C349 0.991 . S
C1074 C345 1.014 . S
C1099 C383 0.991 . S
C1104 C379 1.014 . S
C1129 C20 1.563 . S
C1134 C360 1.563 . S
C1159 C394 1.562 . S
C1164 C54 1.562 . S
C1189 C224 1.563 . S
C1194 C88 1.563 . S
C1219 C122 1.563 . S
C1224 C258 1.563 . S
C1249 C156 1.562 . S
C1254 C292 1.562 . S
C1279 C190 1.563 . S
C1284 C326 1.563 . S
