# Generated by pormake.
# Topology rac, (4)-cn, num edge types: 1
# Building blocks:
#     Node 0, Type 0, BuildingBlock: GALJAG_clean_sbu_0, # of connection points: 4
#     Node 1, Type 0, BuildingBlock: GALJAG_clean_sbu_0, # of connection points: 4
#     Node 2, Type 0, BuildingBlock: GALJAG_clean_sbu_0, # of connection points: 4
#     Node 3, Type 0, BuildingBlock: GALJAG_clean_sbu_0, # of connection points: 4
#     Node 4, Type 0, BuildingBlock: GALJAG_clean_sbu_0, # of connection points: 4
#     Node 5, Type 0, BuildingBlock: GALJAG_clean_sbu_0, # of connection points: 4
#     Node 6, Type 0, BuildingBlock: GALJAG_clean_sbu_0, # of connection points: 4
#     Node 7, Type 0, BuildingBlock: GALJAG_clean_sbu_0, # of connection points: 4
#     Edge 8, Type (0, 0), BuildingBlock: UVAHIK_clean_linker_0, # of connection points: 2
#     Edge 9, Type (0, 0), BuildingBlock: UVAHIK_clean_linker_0, # of connection points: 2
#     Edge 10, Type (0, 0), BuildingBlock: UVAHIK_clean_linker_0, # of connection points: 2
#     Edge 11, Type (0, 0), BuildingBlock: UVAHIK_clean_linker_0, # of connection points: 2
#     Edge 12, Type (0, 0), BuildingBlock: UVAHIK_clean_linker_0, # of connection points: 2
#     Edge 13, Type (0, 0), BuildingBlock: UVAHIK_clean_linker_0, # of connection points: 2
#     Edge 14, Type (0, 0), BuildingBlock: UVAHIK_clean_linker_0, # of connection points: 2
#     Edge 15, Type (0, 0), BuildingBlock: UVAHIK_clean_linker_0, # of connection points: 2
#     Edge 16, Type (0, 0), BuildingBlock: UVAHIK_clean_linker_0, # of connection points: 2
#     Edge 17, Type (0, 0), BuildingBlock: UVAHIK_clean_linker_0, # of connection points: 2
#     Edge 18, Type (0, 0), BuildingBlock: UVAHIK_clean_linker_0, # of connection points: 2
#     Edge 19, Type (0, 0), BuildingBlock: UVAHIK_clean_linker_0, # of connection points: 2
#     Edge 20, Type (0, 0), BuildingBlock: UVAHIK_clean_linker_0, # of connection points: 2
#     Edge 21, Type (0, 0), BuildingBlock: UVAHIK_clean_linker_0, # of connection points: 2
#     Edge 22, Type (0, 0), BuildingBlock: UVAHIK_clean_linker_0, # of connection points: 2
#     Edge 23, Type (0, 0), BuildingBlock: UVAHIK_clean_linker_0, # of connection points: 2
# Relax obj value: 0.254
# Max RMSD: 0.115
# Mean RMSD: 0.115
data_MOF--net-rac--node1-GALJAG_clean_sbu_0--edge1-UVAHIK_clean_linker_0
_symmetry_space_group_name_H-M    P1
_symmetry_Int_Tables_number       1
_symmetry_cell_setting            triclinic
loop_
_symmetry_equiv_pos_as_xyz
'x, y, z'
_cell_length_a     46.339614
_cell_length_b     29.738849
_cell_length_c     50.62001
_cell_angle_alpha  89.993616
_cell_angle_beta   89.973076
_cell_angle_gamma 90.00456
loop_
_atom_site_label
_atom_site_type_symbol
_atom_site_fract_x
_atom_site_fract_y
_atom_site_fract_z
_atom_type_partial_charge
In0 In 0.38375 0.25901 0.05777 0.0
O1 O 0.38373 0.28825 0.09874 0.0
O2 O 0.40135 0.22235 0.09434 0.0
C3 C 0.35094 0.32975 0.04536 0.0
C4 C 0.34887 0.18723 0.04834 0.0
C5 C 0.43191 0.29181 0.03376 0.0
O6 O 0.35808 0.32067 0.06882 0.0
O7 O 0.35982 0.3024 0.02813 0.0
O8 O 0.41033 0.27805 0.02092 0.0
O9 O 0.43076 0.28276 0.05802 0.0
C10 C 0.39549 0.25481 0.10967 0.0
O11 O 0.37575 0.18526 0.04374 0.0
O12 O 0.34051 0.22426 0.05755 0.0
In13 In 0.11437 0.74673 0.0549 0.0
O14 O 0.11733 0.82152 0.04065 0.0
O15 O 0.15556 0.78607 0.05035 0.0
C16 C 0.06757 0.70671 0.03245 0.0
C17 C 0.10265 0.75259 0.10676 0.0
C18 C 0.15323 0.68306 0.04394 0.0
O19 O 0.08767 0.7236 0.01885 0.0
O20 O 0.06946 0.71501 0.05676 0.0
O21 O 0.14859 0.69684 0.06715 0.0
O22 O 0.13788 0.70099 0.02626 0.0
C23 C 0.14462 0.82232 0.04256 0.0
O24 O 0.11436 0.71867 0.09628 0.0
O25 O 0.09668 0.78432 0.09097 0.0
In26 In 0.38716 0.24694 0.44417 0.0
O27 O 0.38488 0.32213 0.4578 0.0
O28 O 0.34624 0.28667 0.44955 0.0
C29 C 0.43405 0.20617 0.46599 0.0
C30 C 0.39824 0.25241 0.39216 0.0
C31 C 0.34805 0.18405 0.45594 0.0
O32 O 0.41487 0.22486 0.4799 0.0
O33 O 0.43122 0.2129 0.4416 0.0
O34 O 0.35212 0.19795 0.43266 0.0
O35 O 0.36409 0.20144 0.47329 0.0
C36 C 0.35753 0.32307 0.45664 0.0
O37 O 0.38606 0.21901 0.40277 0.0
O38 O 0.40495 0.28387 0.40788 0.0
In39 In 0.11875 0.76042 0.44107 0.0
O40 O 0.12703 0.68682 0.45521 0.0
O41 O 0.16193 0.7255 0.44041 0.0
C42 C 0.07046 0.79247 0.46521 0.0
C43 C 0.1071 0.75677 0.38916 0.0
C44 C 0.15124 0.83121 0.45408 0.0
O45 O 0.0924 0.77985 0.47793 0.0
O46 O 0.07136 0.78263 0.44104 0.0
O47 O 0.14351 0.82333 0.43062 0.0
O48 O 0.14314 0.80265 0.47095 0.0
C49 C 0.15378 0.68862 0.44999 0.0
O50 O 0.1191 0.78996 0.40015 0.0
O51 O 0.10096 0.72435 0.40443 0.0
In52 In 0.61202 0.75302 0.94556 0.0
O53 O 0.61265 0.72263 0.90463 0.0
O54 O 0.59791 0.79024 0.90788 0.0
C55 C 0.6529 0.6902 0.95072 0.0
C56 C 0.63852 0.82972 0.96254 0.0
C57 C 0.56495 0.71289 0.96779 0.0
O58 O 0.65122 0.71539 0.93071 0.0
O59 O 0.63402 0.69695 0.96823 0.0
O60 O 0.58517 0.72918 0.98143 0.0
O61 O 0.56677 0.72208 0.94361 0.0
C62 C 0.60314 0.75704 0.89296 0.0
O63 O 0.61334 0.83041 0.95291 0.0
O64 O 0.64895 0.79098 0.96482 0.0
In65 In 0.88675 0.25352 0.93918 0.0
O66 O 0.87698 0.18206 0.95635 0.0
O67 O 0.84616 0.21389 0.93174 0.0
C68 C 0.93073 0.28795 0.96848 0.0
C69 C 0.90645 0.25169 0.88926 0.0
C70 C 0.84936 0.32129 0.94483 0.0
O71 O 0.90587 0.28124 0.97774 0.0
O72 O 0.93445 0.27133 0.94584 0.0
O73 O 0.86123 0.31199 0.92309 0.0
O74 O 0.85617 0.29603 0.96385 0.0
C75 C 0.85226 0.18023 0.94565 0.0
O76 O 0.89529 0.28593 0.89985 0.0
O77 O 0.908 0.2173 0.90402 0.0
In78 In 0.61485 0.74636 0.55644 0.0
O79 O 0.61618 0.6684 0.55225 0.0
O80 O 0.64855 0.70672 0.53345 0.0
C81 C 0.56739 0.7862 0.53474 0.0
C82 C 0.60709 0.74617 0.60926 0.0
C83 C 0.65708 0.80693 0.55067 0.0
O84 O 0.58747 0.77001 0.52089 0.0
O85 O 0.56958 0.77715 0.55891 0.0
O86 O 0.65657 0.77917 0.56954 0.0
O87 O 0.63628 0.80401 0.53471 0.0
C88 C 0.6394 0.66821 0.53915 0.0
O89 O 0.61758 0.77897 0.59672 0.0
O90 O 0.60043 0.71258 0.59514 0.0
In91 In 0.88932 0.24617 0.55944 0.0
O92 O 0.89607 0.21845 0.60025 0.0
O93 O 0.91206 0.28461 0.59291 0.0
C94 C 0.85277 0.17707 0.5549 0.0
C95 C 0.85442 0.3189 0.55278 0.0
C96 C 0.9329 0.21026 0.53015 0.0
O97 O 0.86631 0.18549 0.57592 0.0
O98 O 0.85741 0.20395 0.53609 0.0
O99 O 0.90824 0.21817 0.52077 0.0
O100 O 0.9367 0.22633 0.5529 0.0
C101 C 0.90877 0.25269 0.60926 0.0
O102 O 0.87891 0.31693 0.54163 0.0
O103 O 0.84865 0.28551 0.56705 0.0
C104 C 0.33694 0.10589 0.03819 0.0
C105 C 0.32803 0.15006 0.0437 0.0
C106 C 0.31646 0.07131 0.03531 0.0
C107 C 0.23993 0.04413 0.05223 0.0
H108 H 0.25005 0.94708 0.00204 0.0
C109 C 0.15257 0.90609 0.03734 0.0
C110 C 0.16327 0.8619 0.0372 0.0
C111 C 0.17162 0.94279 0.03532 0.0
C112 C 0.24693 0.9739 0.01622 0.0
H113 H 0.29058 0.19276 0.04951 0.0
H114 H 0.2553 0.13341 0.04392 0.0
H115 H 0.28601 0.00695 0.00449 0.0
H116 H 0.2021 0.82157 0.03366 0.0
H117 H 0.23488 0.88485 0.03003 0.0
H118 H 0.20096 0.01097 0.06405 0.0
C119 C 0.27795 0.1248 0.04255 0.0
C120 C 0.26766 0.00815 0.01772 0.0
C121 C 0.29829 0.15903 0.04558 0.0
C122 C 0.19311 0.8552 0.03391 0.0
C123 C 0.21198 0.89157 0.03164 0.0
C124 C 0.21917 0.01003 0.05064 0.0
C125 C 0.28665 0.08028 0.03775 0.0
C126 C 0.26455 0.04367 0.03585 0.0
C127 C 0.20164 0.9359 0.03278 0.0
C128 C 0.22248 0.97424 0.03278 0.0
H129 H 0.35968 0.09791 0.03667 0.0
H130 H 0.32403 0.03739 0.03181 0.0
H131 H 0.23695 0.07037 0.0668 0.0
H132 H 0.12972 0.9123 0.03993 0.0
H133 H 0.16291 0.97655 0.03605 0.0
C134 C 0.20438 0.66019 0.45153 0.0
C135 C 0.1747 0.65149 0.45444 0.0
C136 C 0.22474 0.626 0.45456 0.0
C137 C 0.23563 0.51074 0.48132 0.0
H138 H 0.30091 0.51068 0.43328 0.0
C139 C 0.30946 0.35663 0.46622 0.0
C140 C 0.33919 0.363 0.46195 0.0
C141 C 0.29073 0.39321 0.46832 0.0
C142 C 0.28312 0.51057 0.44716 0.0
H143 H 0.14321 0.59987 0.46324 0.0
H144 H 0.1789 0.53941 0.46811 0.0
H145 H 0.26491 0.57005 0.43029 0.0
H146 H 0.3727 0.41306 0.4573 0.0
H147 H 0.33976 0.47765 0.46089 0.0
H148 H 0.25365 0.45052 0.49774 0.0
C149 C 0.18641 0.5731 0.4638 0.0
C150 C 0.26235 0.54464 0.44543 0.0
C151 C 0.1659 0.60764 0.46091 0.0
C152 C 0.34994 0.4071 0.46067 0.0
C153 C 0.33102 0.44399 0.46251 0.0
C154 C 0.25637 0.47651 0.48296 0.0
C155 C 0.21614 0.58179 0.4604 0.0
C156 C 0.23823 0.5452 0.46242 0.0
C157 C 0.30109 0.43739 0.46602 0.0
C158 C 0.28031 0.47581 0.46579 0.0
H159 H 0.21202 0.69368 0.44683 0.0
H160 H 0.24736 0.63442 0.45241 0.0
H161 H 0.21769 0.51035 0.49503 0.0
H162 H 0.30043 0.32308 0.46735 0.0
H163 H 0.26788 0.38668 0.47069 0.0
C164 C 0.68311 0.86565 0.98049 0.0
C165 C 0.65659 0.87018 0.96722 0.0
C166 C 0.70307 0.90093 0.98093 0.0
C167 C 0.72446 0.99893 0.94126 0.0
H168 H 0.77427 0.02641 0.00068 0.0
C169 C 0.8035 0.14761 0.93773 0.0
C170 C 0.83091 0.14343 0.94942 0.0
C171 C 0.78243 0.11464 0.94123 0.0
C172 C 0.76081 0.01875 0.98379 0.0
H173 H 0.62967 0.9162 0.94509 0.0
H174 H 0.6645 0.97822 0.94598 0.0
H175 H 0.73571 0.97089 0.00569 0.0
H176 H 0.85757 0.10097 0.97413 0.0
H177 H 0.82068 0.04234 0.97993 0.0
H178 H 0.74966 0.04591 0.91917 0.0
C179 C 0.66995 0.94704 0.95584 0.0
C180 C 0.73857 0.98707 0.9867 0.0
C181 C 0.64984 0.91172 0.95556 0.0
C182 C 0.83671 0.10513 0.9648 0.0
C183 C 0.81548 0.07174 0.96825 0.0
C184 C 0.74671 0.03034 0.93832 0.0
C185 C 0.69715 0.94166 0.96795 0.0
C186 C 0.72003 0.97686 0.96548 0.0
C187 C 0.78805 0.07606 0.95639 0.0
C188 C 0.76513 0.04096 0.95955 0.0
H189 H 0.68902 0.83404 0.98965 0.0
H190 H 0.72377 0.89536 0.9903 0.0
H191 H 0.71112 0.99118 0.9243 0.0
H192 H 0.79806 0.17681 0.92595 0.0
H193 H 0.76148 0.11987 0.93227 0.0
C194 C 0.65218 0.58741 0.54833 0.0
C195 C 0.65742 0.62762 0.53458 0.0
C196 C 0.67253 0.55245 0.54788 0.0
C197 C 0.73871 0.51011 0.51364 0.0
H198 H 0.75508 0.45735 0.58199 0.0
C199 C 0.83811 0.39306 0.53291 0.0
C200 C 0.83306 0.35581 0.54938 0.0
C201 C 0.81687 0.42655 0.52986 0.0
C202 C 0.75065 0.47128 0.56265 0.0
H203 H 0.68735 0.66158 0.50835 0.0
H204 H 0.72257 0.60089 0.50749 0.0
H205 H 0.71626 0.51179 0.57775 0.0
H206 H 0.8016 0.32448 0.57532 0.0
H207 H 0.76503 0.38171 0.56981 0.0
H208 H 0.77328 0.46942 0.4986 0.0
C209 C 0.70283 0.59608 0.5186 0.0
C210 C 0.72823 0.50249 0.56021 0.0
C211 C 0.6826 0.63101 0.51914 0.0
C212 C 0.80643 0.35283 0.56262 0.0
C213 C 0.78539 0.38594 0.55959 0.0
C214 C 0.76116 0.47868 0.51607 0.0
C215 C 0.69851 0.55685 0.53357 0.0
C216 C 0.72182 0.52225 0.53567 0.0
C217 C 0.79023 0.42343 0.54329 0.0
C218 C 0.76733 0.45862 0.54061 0.0
H219 H 0.63307 0.58379 0.56046 0.0
H220 H 0.66823 0.52238 0.55928 0.0
H221 H 0.73433 0.52447 0.49439 0.0
H222 H 0.85835 0.39628 0.52238 0.0
H223 H 0.82144 0.4551 0.51726 0.0
C224 C 0.40257 0.2956 0.15202 0.0
C225 C 0.40166 0.25465 0.13826 0.0
C226 C 0.40656 0.29634 0.1793 0.0
C227 C 0.42773 0.22578 0.23702 0.0
H228 H 0.38275 0.31424 0.27549 0.0
C229 C 0.40165 0.21443 0.34841 0.0
C230 C 0.4038 0.25399 0.36346 0.0
C231 C 0.40534 0.21559 0.32106 0.0
C232 C 0.39576 0.28978 0.26501 0.0
H233 H 0.40486 0.18233 0.14205 0.0
H234 H 0.41075 0.18328 0.19008 0.0
H235 H 0.3812 0.31324 0.22751 0.0
H236 H 0.41206 0.32564 0.36185 0.0
H237 H 0.41796 0.32786 0.31371 0.0
H238 H 0.44117 0.20125 0.27493 0.0
C239 C 0.40907 0.21502 0.17971 0.0
C240 C 0.39497 0.2892 0.23745 0.0
C241 C 0.40554 0.21435 0.15222 0.0
C242 C 0.41027 0.29468 0.3507 0.0
C243 C 0.41355 0.29596 0.32322 0.0
C244 C 0.42821 0.22603 0.26466 0.0
C245 C 0.40921 0.25607 0.19365 0.0
C246 C 0.41087 0.25712 0.22305 0.0
C247 C 0.41089 0.25644 0.30814 0.0
C248 C 0.41213 0.25793 0.2789 0.0
H249 H 0.40004 0.32727 0.14168 0.0
H250 H 0.40736 0.32863 0.18915 0.0
H251 H 0.44061 0.20107 0.22665 0.0
H252 H 0.3968 0.18252 0.35773 0.0
H253 H 0.4029 0.18473 0.30992 0.0
C254 C 0.09625 0.71661 0.34669 0.0
C255 C 0.10094 0.75679 0.36057 0.0
C256 C 0.09253 0.71729 0.31923 0.0
C257 C 0.10741 0.79044 0.26121 0.0
H258 H 0.05915 0.70439 0.22439 0.0
C259 C 0.09135 0.79567 0.14809 0.0
C260 C 0.09699 0.75459 0.13543 0.0
C261 C 0.08821 0.79733 0.17558 0.0
C262 C 0.07268 0.72864 0.23447 0.0
H263 H 0.10389 0.82929 0.35699 0.0
H264 H 0.09628 0.83073 0.30955 0.0
H265 H 0.0602 0.70456 0.27265 0.0
H266 H 0.10261 0.68287 0.14135 0.0
H267 H 0.09673 0.68575 0.18918 0.0
H268 H 0.11971 0.8146 0.22299 0.0
C269 C 0.09655 0.79847 0.31946 0.0
C270 C 0.07344 0.72858 0.2621 0.0
C271 C 0.10072 0.79769 0.34673 0.0
C272 C 0.09839 0.71506 0.15059 0.0
C273 C 0.09483 0.71663 0.17795 0.0
C274 C 0.10634 0.79085 0.23366 0.0
C275 C 0.09302 0.75826 0.30522 0.0
C276 C 0.09106 0.75922 0.27584 0.0
C277 C 0.09018 0.75783 0.19077 0.0
C278 C 0.08923 0.75966 0.22001 0.0
H279 H 0.09638 0.68461 0.35692 0.0
H280 H 0.09017 0.6856 0.30894 0.0
H281 H 0.12173 0.81392 0.27097 0.0
H282 H 0.09016 0.82662 0.13685 0.0
H283 H 0.08448 0.82951 0.185 0.0
C284 C 0.59606 0.79856 0.85026 0.0
C285 C 0.59916 0.75784 0.86402 0.0
C286 C 0.59424 0.79871 0.82263 0.0
C287 C 0.57695 0.72782 0.76516 0.0
H288 H 0.62939 0.80603 0.72712 0.0
C289 C 0.59784 0.70855 0.65287 0.0
C290 C 0.60318 0.74773 0.63821 0.0
C291 C 0.59548 0.71056 0.68044 0.0
C292 C 0.6142 0.7845 0.73732 0.0
H293 H 0.60188 0.68536 0.85983 0.0
H294 H 0.59826 0.68567 0.8118 0.0
H295 H 0.62734 0.80957 0.77512 0.0
H296 H 0.60926 0.8199 0.64071 0.0
H297 H 0.60416 0.82371 0.6884 0.0
H298 H 0.56353 0.70298 0.72745 0.0
C299 C 0.59733 0.71742 0.82226 0.0
C300 C 0.6131 0.78654 0.76488 0.0
C301 C 0.59957 0.7173 0.84975 0.0
C302 C 0.60543 0.78902 0.65151 0.0
C303 C 0.60271 0.79115 0.67893 0.0
C304 C 0.57778 0.72613 0.73755 0.0
C305 C 0.59501 0.75811 0.80838 0.0
C306 C 0.59466 0.75797 0.77909 0.0
C307 C 0.59808 0.75191 0.69385 0.0
C308 C 0.59658 0.75424 0.72325 0.0
H309 H 0.59573 0.83028 0.86077 0.0
H310 H 0.59232 0.83056 0.81239 0.0
H311 H 0.56237 0.70563 0.77564 0.0
H312 H 0.59611 0.67625 0.64312 0.0
H313 H 0.59228 0.67954 0.69125 0.0
C314 C 0.91787 0.21542 0.65245 0.0
C315 C 0.91767 0.25493 0.63723 0.0
C316 C 0.92324 0.21713 0.67953 0.0
C317 C 0.91444 0.2925 0.73544 0.0
H318 H 0.95795 0.20155 0.77329 0.0
C319 C 0.91912 0.29389 0.84848 0.0
C320 C 0.91561 0.2524 0.86133 0.0
C321 C 0.92467 0.29567 0.82144 0.0
C322 C 0.94556 0.227 0.76303 0.0
H323 H 0.92399 0.32708 0.63817 0.0
H324 H 0.93319 0.33022 0.68586 0.0
H325 H 0.95889 0.20292 0.72502 0.0
H326 H 0.9162 0.18013 0.85624 0.0
H327 H 0.92517 0.18307 0.80861 0.0
H328 H 0.90012 0.31562 0.77314 0.0
C329 C 0.92912 0.29791 0.67671 0.0
C330 C 0.94622 0.22792 0.7354 0.0
C331 C 0.92401 0.29613 0.64945 0.0
C332 C 0.91889 0.21255 0.8468 0.0
C333 C 0.92415 0.21432 0.81955 0.0
C334 C 0.91363 0.29143 0.763 0.0
C335 C 0.92832 0.25846 0.69208 0.0
C336 C 0.93037 0.26035 0.72132 0.0
C337 C 0.92647 0.256 0.80646 0.0
C338 C 0.92893 0.2584 0.77716 0.0
H339 H 0.91314 0.18312 0.64355 0.0
H340 H 0.92214 0.18623 0.69082 0.0
H341 H 0.90156 0.31737 0.72517 0.0
H342 H 0.91705 0.3252 0.85926 0.0
H343 H 0.92706 0.3283 0.81218 0.0
C344 C 0.47206 0.34713 0.04033 0.0
C345 C 0.45162 0.32718 0.02346 0.0
C346 C 0.48522 0.38799 0.03363 0.0
C347 C 0.47117 0.48908 0.99279 0.0
H348 H 0.54909 0.52177 0.01287 0.0
C349 C 0.52613 0.65566 0.96021 0.0
C350 C 0.54591 0.67617 0.9775 0.0
C351 C 0.51327 0.61445 0.96665 0.0
C352 C 0.52711 0.51346 0.00747 0.0
H353 H 0.43058 0.33315 0.98539 0.0
H354 H 0.45408 0.40374 0.97336 0.0
H355 H 0.53207 0.44525 0.02035 0.0
H356 H 0.5663 0.67057 0.01588 0.0
H357 H 0.54342 0.59916 0.02737 0.0
H358 H 0.46624 0.55729 0.97989 0.0
C359 C 0.45944 0.38836 0.99212 0.0
C360 C 0.51738 0.46939 0.01166 0.0
C361 C 0.44628 0.34744 0.99883 0.0
C362 C 0.55107 0.65586 0.00214 0.0
C363 C 0.53827 0.61453 0.00856 0.0
C364 C 0.48092 0.53313 0.98858 0.0
C365 C 0.47831 0.41002 0.00984 0.0
C366 C 0.48926 0.45652 0.00439 0.0
C367 C 0.51989 0.59255 0.99055 0.0
C368 C 0.50903 0.546 0.99588 0.0
H369 H 0.47656 0.33266 0.05953 0.0
H370 H 0.49952 0.40355 0.04785 0.0
H371 H 0.44918 0.48084 0.98744 0.0
H372 H 0.5218 0.67017 0.94099 0.0
H373 H 0.49936 0.59861 0.95221 0.0
C374 C 0.02716 0.65192 0.03909 0.0
C375 C 0.04835 0.67053 0.02245 0.0
C376 C 0.01378 0.61112 0.03269 0.0
C377 C 0.02818 0.50708 0.99533 0.0
H378 H 0.94786 0.48059 0.00991 0.0
C379 C 0.97298 0.34004 0.96385 0.0
C380 C 0.95004 0.32345 0.97923 0.0
C381 C 0.98636 0.38089 0.97022 0.0
C382 C 0.97048 0.48707 0.00614 0.0
H383 H 0.0709 0.66192 0.98527 0.0
H384 H 0.04729 0.59097 0.97394 0.0
H385 H 0.96613 0.55652 0.01678 0.0
H386 H 0.92471 0.33522 0.01455 0.0
H387 H 0.94867 0.40549 0.02622 0.0
H388 H 0.03267 0.43759 0.98496 0.0
C389 C 0.0413 0.60769 0.99214 0.0
C390 C 0.98091 0.53083 0.00992 0.0
C391 C 0.05454 0.64873 0.99845 0.0
C392 C 0.9423 0.34698 0.00226 0.0
C393 C 0.95577 0.38772 0.00872 0.0
C394 C 0.01779 0.46323 0.99167 0.0
C395 C 0.02138 0.58768 0.00957 0.0
C396 C 0.00989 0.54148 0.00455 0.0
C397 C 0.97726 0.40614 0.99225 0.0
C398 C 0.98878 0.45252 0.99703 0.0
H399 H 0.02203 0.66766 0.05781 0.0
H400 H 0.99864 0.59674 0.04664 0.0
H401 H 0.05076 0.51379 0.99147 0.0
H402 H 0.97935 0.32302 0.94585 0.0
H403 H 0.00269 0.39385 0.95695 0.0
C404 C 0.5525 0.84237 0.50028 0.0
C405 C 0.54803 0.8226 0.52518 0.0
C406 C 0.53934 0.88339 0.49379 0.0
C407 C 0.50917 0.98471 0.52655 0.0
H408 H 0.48401 0.01564 0.45588 0.0
C409 C 0.44842 0.15071 0.50108 0.0
C410 C 0.45324 0.17001 0.4761 0.0
C411 C 0.46141 0.1097 0.50793 0.0
C412 C 0.49133 0.00785 0.47567 0.0
H413 H 0.52468 0.82907 0.56211 0.0
H414 H 0.50121 0.89977 0.55057 0.0
H415 H 0.50106 0.93975 0.46507 0.0
H416 H 0.47713 0.16291 0.43951 0.0
H417 H 0.50029 0.09233 0.45167 0.0
H418 H 0.4994 0.05285 0.53712 0.0
C419 C 0.51545 0.88426 0.53626 0.0
C420 C 0.50103 0.96414 0.48096 0.0
C421 C 0.52861 0.84332 0.54274 0.0
C422 C 0.47289 0.14897 0.4589 0.0
C423 C 0.48588 0.1081 0.46575 0.0
C424 C 0.49944 0.02843 0.52125 0.0
C425 C 0.52136 0.90564 0.51204 0.0
C426 C 0.51012 0.9519 0.50647 0.0
C427 C 0.47955 0.08706 0.48997 0.0
C428 C 0.49046 0.0407 0.49571 0.0
H429 H 0.56754 0.82759 0.48639 0.0
H430 H 0.54455 0.89879 0.475 0.0
H431 H 0.51651 0.9769 0.54633 0.0
H432 H 0.43319 0.16577 0.51469 0.0
H433 H 0.45593 0.09456 0.52673 0.0
C434 C 0.94349 0.15028 0.4966 0.0
C435 C 0.95184 0.17437 0.51927 0.0
C436 C 0.95685 0.10943 0.49011 0.0
C437 C 0.99513 0.01566 0.52267 0.0
H438 H 0.01067 0.9758 0.45121 0.0
C439 C 0.05688 0.85047 0.49896 0.0
C440 C 0.05049 0.8276 0.47536 0.0
C441 C 0.04319 0.89121 0.50508 0.0
C442 C 0.00601 0.986 0.4713 0.0
H443 H 0.98217 0.17572 0.55185 0.0
H444 H 0.00572 0.105 0.54032 0.0
H445 H 0.99269 0.05174 0.45884 0.0
H446 H 0.02309 0.82803 0.44069 0.0
H447 H 0.99848 0.89802 0.4518 0.0
H448 H 0.00815 0.94991 0.53517 0.0
C449 C 0.98846 0.11723 0.52782 0.0
C450 C 0.99584 0.02978 0.47566 0.0
C451 C 0.9752 0.15815 0.53423 0.0
C452 C 0.02854 0.84473 0.45904 0.0
C453 C 0.01474 0.88532 0.46523 0.0
C454 C 0.00516 0.97181 0.51831 0.0
C455 C 0.97882 0.09157 0.5062 0.0
C456 C 0.99036 0.04529 0.50142 0.0
C457 C 0.02262 0.91004 0.48783 0.0
C458 C 0.0108 0.95628 0.49255 0.0
H459 H 0.92544 0.16157 0.48474 0.0
H460 H 0.94881 0.09063 0.47334 0.0
H461 H 0.9906 0.02606 0.54275 0.0
H462 H 0.07389 0.83856 0.51186 0.0
H463 H 0.05002 0.90916 0.52261 0.0
C464 C 0.19522 0.63697 0.05769 0.0
C465 C 0.17599 0.65042 0.03783 0.0
C466 C 0.21749 0.60723 0.05192 0.0
C467 C 0.23699 0.51604 0.00865 0.0
H468 H 0.31234 0.53428 0.04029 0.0
C469 C 0.32421 0.37704 0.01278 0.0
C470 C 0.33418 0.36998 0.03866 0.0
C471 C 0.30821 0.41545 0.0067 0.0
C472 C 0.29149 0.52896 0.03113 0.0
H473 H 0.16469 0.64344 0.99644 0.0
H474 H 0.20367 0.59042 0.98644 0.0
H475 H 0.2773 0.59552 0.04032 0.0
H476 H 0.33581 0.39743 0.07833 0.0
H477 H 0.30788 0.4642 0.06777 0.0
H478 H 0.2507 0.44864 0.00072 0.0
C479 C 0.20149 0.60329 0.00636 0.0
C480 C 0.27151 0.56386 0.03116 0.0
C481 C 0.17927 0.63346 0.0121 0.0
C482 C 0.32833 0.40204 0.05823 0.0
C483 C 0.31262 0.44045 0.05213 0.0
C484 C 0.25703 0.48102 0.00863 0.0
C485 C 0.22085 0.59021 0.02623 0.0
C486 C 0.2437 0.557 0.02097 0.0
C487 C 0.30235 0.44743 0.02636 0.0
C488 C 0.28393 0.4867 0.02092 0.0
H489 H 0.19317 0.64957 0.07768 0.0
H490 H 0.2318 0.5969 0.06772 0.0
H491 H 0.21563 0.50999 0.00073 0.0
H492 H 0.32855 0.35276 0.99733 0.0
H493 H 0.30042 0.42017 0.98672 0.0
C494 C 0.32268 0.13424 0.48814 0.0
C495 C 0.32517 0.15184 0.46248 0.0
C496 C 0.30047 0.10424 0.49425 0.0
C497 C 0.22951 0.06581 0.47104 0.0
H498 H 0.25154 0.94928 0.49892 0.0
C499 C 0.17277 0.90482 0.44221 0.0
C500 C 0.16777 0.87146 0.46123 0.0
C501 C 0.1883 0.94322 0.44876 0.0
C502 C 0.24487 0.982 0.49176 0.0
H503 H 0.30652 0.1525 0.42319 0.0
H504 H 0.26791 0.10017 0.4338 0.0
H505 H 0.28643 0.01084 0.49909 0.0
H506 H 0.17468 0.85192 0.50203 0.0
H507 H 0.20249 0.91928 0.5134 0.0
H508 H 0.1885 0.03638 0.46241 0.0
C509 C 0.28284 0.10983 0.44926 0.0
C510 C 0.26481 0.01715 0.49185 0.0
C511 C 0.3051 0.13936 0.44312 0.0
C512 C 0.17837 0.87721 0.48701 0.0
C513 C 0.19418 0.9156 0.49352 0.0
C514 C 0.20963 0.03077 0.47097 0.0
C515 C 0.28033 0.09202 0.47485 0.0
C516 C 0.25765 0.05865 0.48037 0.0
C517 C 0.19924 0.94887 0.47441 0.0
C518 C 0.21761 0.98806 0.48021 0.0
H519 H 0.33791 0.14348 0.50343 0.0
H520 H 0.29896 0.09075 0.51408 0.0
H521 H 0.22339 0.09786 0.46253 0.0
H522 H 0.16479 0.90125 0.42221 0.0
H523 H 0.19241 0.96798 0.43352 0.0
C524 C 0.69317 0.64568 0.93171 0.0
C525 C 0.67451 0.6544 0.95291 0.0
C526 C 0.71225 0.60964 0.93285 0.0
C527 C 0.74974 0.53266 0.97703 0.0
H528 H 0.74999 0.45457 0.91563 0.0
C529 C 0.81463 0.36653 0.97153 0.0
C530 C 0.82917 0.35894 0.9476 0.0
C531 C 0.79518 0.40214 0.97378 0.0
C532 C 0.75033 0.47628 0.93281 0.0
H533 H 0.66175 0.63368 0.99233 0.0
H534 H 0.6954 0.57039 0.99432 0.0
H535 H 0.71771 0.51907 0.91684 0.0
H536 H 0.83543 0.38278 0.9075 0.0
H537 H 0.8019 0.4452 0.91153 0.0
H538 H 0.78281 0.49014 0.99279 0.0
C539 C 0.69516 0.59151 0.97689 0.0
C540 C 0.73189 0.51309 0.93349 0.0
C541 C 0.6759 0.62749 0.97568 0.0
C542 C 0.82429 0.38768 0.92611 0.0
C543 C 0.805 0.42324 0.92837 0.0
C544 C 0.7684 0.49584 0.97628 0.0
C545 C 0.71305 0.58188 0.95526 0.0
C546 C 0.73174 0.54191 0.95541 0.0
C547 C 0.79007 0.43058 0.95212 0.0
C548 C 0.76913 0.46777 0.95397 0.0
H549 H 0.69262 0.66609 0.91398 0.0
H550 H 0.7262 0.60316 0.9161 0.0
H551 H 0.74997 0.5546 0.99411 0.0
H552 H 0.81809 0.34477 0.9884 0.0
H553 H 0.78379 0.40695 0.99225 0.0
C554 C 0.70012 0.84668 0.56825 0.0
C555 C 0.67942 0.8416 0.54827 0.0
C556 C 0.71984 0.8819 0.56717 0.0
C557 C 0.75424 0.96395 0.52371 0.0
H558 H 0.7601 0.03471 0.58787 0.0
C559 C 0.81665 0.13202 0.52975 0.0
C560 C 0.83324 0.1385 0.55262 0.0
C561 C 0.79792 0.09542 0.52794 0.0
C562 C 0.75895 0.01498 0.56991 0.0
H563 H 0.66371 0.86784 0.51095 0.0
H564 H 0.69843 0.92964 0.50907 0.0
H565 H 0.72821 0.96976 0.58671 0.0
H566 H 0.84392 0.11168 0.59126 0.0
H567 H 0.81167 0.0475 0.58794 0.0
H568 H 0.7853 0.00905 0.50701 0.0
C569 C 0.69932 0.90633 0.5255 0.0
C570 C 0.74072 0.9779 0.56926 0.0
C571 C 0.67944 0.8712 0.52666 0.0
C572 C 0.83115 0.10766 0.57349 0.0
C573 C 0.8126 0.07106 0.57164 0.0
C574 C 0.77269 1.00102 0.5244 0.0
C575 C 0.71926 0.91243 0.54603 0.0
C576 C 0.7384 0.95188 0.54626 0.0
C577 C 0.79563 0.06479 0.54897 0.0
C578 C 0.77538 0.02659 0.54762 0.0
H579 H 0.70064 0.82414 0.58506 0.0
H580 H 0.73532 0.88568 0.58305 0.0
H581 H 0.75279 0.9442 0.50578 0.0
H582 H 0.81792 0.15542 0.51338 0.0
H583 H 0.78489 0.09154 0.51033 0.0
loop_
_geom_bond_atom_site_label_1
_geom_bond_atom_site_label_2
_geom_bond_distance
_geom_bond_site_symmetry_2
_ccdc_geom_bond_type
In0 O1 2.294 . S
In0 O2 2.326 . S
In0 O6 2.266 . S
In0 O7 2.326 . S
In0 O8 2.266 . S
In0 O9 2.326 . S
In0 O11 2.294 . S
In0 O12 2.326 . S
O1 In0 2.294 . S
O1 C10 1.240 . S
O2 In0 2.326 . S
O2 C10 1.252 . S
C3 O6 1.252 . S
C3 O7 1.260 . S
C4 O11 1.240 . S
C4 O12 1.252 . S
C5 O8 1.252 . S
C5 O9 1.260 . S
O6 In0 2.266 . S
O6 C3 1.252 . S
O7 In0 2.326 . S
O7 C3 1.260 . S
O8 In0 2.266 . S
O8 C5 1.252 . S
O9 In0 2.326 . S
O9 C5 1.260 . S
C10 O1 1.240 . S
C10 O2 1.252 . S
O11 In0 2.294 . S
O11 C4 1.240 . S
O12 In0 2.326 . S
O12 C4 1.252 . S
In13 O14 2.294 . S
In13 O15 2.326 . S
In13 O19 2.266 . S
In13 O20 2.326 . S
In13 O21 2.266 . S
In13 O22 2.326 . S
In13 O24 2.294 . S
In13 O25 2.326 . S
O14 In13 2.294 . S
O14 C23 1.240 . S
O15 In13 2.326 . S
O15 C23 1.252 . S
C16 O19 1.252 . S
C16 O20 1.260 . S
C17 O24 1.240 . S
C17 O25 1.252 . S
C18 O21 1.252 . S
C18 O22 1.260 . S
O19 In13 2.266 . S
O19 C16 1.252 . S
O20 In13 2.326 . S
O20 C16 1.260 . S
O21 In13 2.266 . S
O21 C18 1.252 . S
O22 In13 2.326 . S
O22 C18 1.260 . S
C23 O14 1.240 . S
C23 O15 1.252 . S
O24 In13 2.294 . S
O24 C17 1.240 . S
O25 In13 2.326 . S
O25 C17 1.252 . S
In26 O27 2.294 . S
In26 O28 2.326 . S
In26 O32 2.266 . S
In26 O33 2.326 . S
In26 O34 2.266 . S
In26 O35 2.326 . S
In26 O37 2.294 . S
In26 O38 2.326 . S
O27 In26 2.294 . S
O27 C36 1.240 . S
O28 In26 2.326 . S
O28 C36 1.252 . S
C29 O32 1.252 . S
C29 O33 1.260 . S
C30 O37 1.240 . S
C30 O38 1.252 . S
C31 O34 1.252 . S
C31 O35 1.260 . S
O32 In26 2.266 . S
O32 C29 1.252 . S
O33 In26 2.326 . S
O33 C29 1.260 . S
O34 In26 2.266 . S
O34 C31 1.252 . S
O35 In26 2.326 . S
O35 C31 1.260 . S
C36 O27 1.240 . S
C36 O28 1.252 . S
O37 In26 2.294 . S
O37 C30 1.240 . S
O38 In26 2.326 . S
O38 C30 1.252 . S
In39 O40 2.294 . S
In39 O41 2.326 . S
In39 O45 2.266 . S
In39 O46 2.326 . S
In39 O47 2.266 . S
In39 O48 2.326 . S
In39 O50 2.294 . S
In39 O51 2.326 . S
O40 In39 2.294 . S
O40 C49 1.240 . S
O41 In39 2.326 . S
O41 C49 1.252 . S
C42 O45 1.252 . S
C42 O46 1.260 . S
C43 O50 1.240 . S
C43 O51 1.252 . S
C44 O47 1.252 . S
C44 O48 1.260 . S
O45 In39 2.266 . S
O45 C42 1.252 . S
O46 In39 2.326 . S
O46 C42 1.260 . S
O47 In39 2.266 . S
O47 C44 1.252 . S
O48 In39 2.326 . S
O48 C44 1.260 . S
C49 O40 1.240 . S
C49 O41 1.252 . S
O50 In39 2.294 . S
O50 C43 1.240 . S
O51 In39 2.326 . S
O51 C43 1.252 . S
In52 O53 2.294 . S
In52 O54 2.326 . S
In52 O58 2.266 . S
In52 O59 2.326 . S
In52 O60 2.266 . S
In52 O61 2.326 . S
In52 O63 2.294 . S
In52 O64 2.326 . S
O53 In52 2.294 . S
O53 C62 1.240 . S
O54 In52 2.326 . S
O54 C62 1.252 . S
C55 O58 1.252 . S
C55 O59 1.260 . S
C56 O63 1.240 . S
C56 O64 1.252 . S
C57 O60 1.252 . S
C57 O61 1.260 . S
O58 In52 2.266 . S
O58 C55 1.252 . S
O59 In52 2.326 . S
O59 C55 1.260 . S
O60 In52 2.266 . S
O60 C57 1.252 . S
O61 In52 2.326 . S
O61 C57 1.260 . S
C62 O53 1.240 . S
C62 O54 1.252 . S
O63 In52 2.294 . S
O63 C56 1.240 . S
O64 In52 2.326 . S
O64 C56 1.252 . S
In65 O66 2.294 . S
In65 O67 2.326 . S
In65 O71 2.266 . S
In65 O72 2.326 . S
In65 O73 2.266 . S
In65 O74 2.326 . S
In65 O76 2.294 . S
In65 O77 2.326 . S
O66 In65 2.294 . S
O66 C75 1.240 . S
O67 In65 2.326 . S
O67 C75 1.252 . S
C68 O71 1.252 . S
C68 O72 1.260 . S
C69 O76 1.240 . S
C69 O77 1.252 . S
C70 O73 1.252 . S
C70 O74 1.260 . S
O71 In65 2.266 . S
O71 C68 1.252 . S
O72 In65 2.326 . S
O72 C68 1.260 . S
O73 In65 2.266 . S
O73 C70 1.252 . S
O74 In65 2.326 . S
O74 C70 1.260 . S
C75 O66 1.240 . S
C75 O67 1.252 . S
O76 In65 2.294 . S
O76 C69 1.240 . S
O77 In65 2.326 . S
O77 C69 1.252 . S
In78 O79 2.294 . S
In78 O80 2.326 . S
In78 O84 2.266 . S
In78 O85 2.326 . S
In78 O86 2.266 . S
In78 O87 2.326 . S
In78 O89 2.294 . S
In78 O90 2.326 . S
O79 In78 2.294 . S
O79 C88 1.240 . S
O80 In78 2.326 . S
O80 C88 1.252 . S
C81 O84 1.252 . S
C81 O85 1.260 . S
C82 O89 1.240 . S
C82 O90 1.252 . S
C83 O86 1.252 . S
C83 O87 1.260 . S
O84 In78 2.266 . S
O84 C81 1.252 . S
O85 In78 2.326 . S
O85 C81 1.260 . S
O86 In78 2.266 . S
O86 C83 1.252 . S
O87 In78 2.326 . S
O87 C83 1.260 . S
C88 O79 1.240 . S
C88 O80 1.252 . S
O89 In78 2.294 . S
O89 C82 1.240 . S
O90 In78 2.326 . S
O90 C82 1.252 . S
In91 O92 2.294 . S
In91 O93 2.326 . S
In91 O97 2.266 . S
In91 O98 2.326 . S
In91 O99 2.266 . S
In91 O100 2.326 . S
In91 O102 2.294 . S
In91 O103 2.326 . S
O92 In91 2.294 . S
O92 C101 1.240 . S
O93 In91 2.326 . S
O93 C101 1.252 . S
C94 O97 1.252 . S
C94 O98 1.260 . S
C95 O102 1.240 . S
C95 O103 1.252 . S
C96 O99 1.252 . S
C96 O100 1.260 . S
O97 In91 2.266 . S
O97 C94 1.252 . S
O98 In91 2.326 . S
O98 C94 1.260 . S
O99 In91 2.266 . S
O99 C96 1.252 . S
O100 In91 2.326 . S
O100 C96 1.260 . S
C101 O92 1.240 . S
C101 O93 1.252 . S
O102 In91 2.294 . S
O102 C95 1.240 . S
O103 In91 2.326 . S
O103 C95 1.252 . S
C104 C105 1.349 . S
C104 C106 1.327 . S
C104 H129 0.950 . S
C105 C104 1.349 . S
C105 C121 1.349 . S
C106 C104 1.327 . S
C106 C125 1.429 . S
C106 H130 0.950 . S
C107 C124 1.574 1_545 S
C107 C126 1.368 . S
C107 H131 0.949 . S
H108 C112 0.949 . S
C109 C110 1.349 . S
C109 C111 1.327 . S
C109 H132 0.950 . S
C110 C109 1.349 . S
C110 C122 1.349 . S
C111 C109 1.327 . S
C111 C127 1.429 . S
C111 H133 0.950 . S
C112 H108 0.949 . S
C112 C120 1.574 1_565 S
C112 C128 1.368 . S
H113 C121 0.950 . S
H114 C119 0.950 . S
H115 C120 0.949 . S
H116 C122 0.950 . S
H117 C123 0.950 . S
H118 C124 0.949 . S
C119 H114 0.950 . S
C119 C121 1.327 . S
C119 C125 1.429 . S
C120 C112 1.574 1_545 S
C120 H115 0.949 . S
C120 C126 1.368 . S
C121 C105 1.349 . S
C121 H113 0.950 . S
C121 C119 1.327 . S
C122 C110 1.349 . S
C122 H116 0.950 . S
C122 C123 1.327 . S
C123 H117 0.950 . S
C123 C122 1.327 . S
C123 C127 1.429 . S
C124 C107 1.574 1_565 S
C124 H118 0.949 . S
C124 C128 1.368 . S
C125 C106 1.429 . S
C125 C119 1.429 . S
C125 C126 1.523 . S
C126 C107 1.368 . S
C126 C120 1.368 . S
C126 C125 1.523 . S
C127 C111 1.429 . S
C127 C123 1.429 . S
C127 C128 1.523 . S
C128 C112 1.368 . S
C128 C124 1.368 . S
C128 C127 1.523 . S
H129 C104 0.950 . S
H130 C106 0.950 . S
H131 C107 0.949 . S
H132 C109 0.950 . S
H133 C111 0.950 . S
C134 C135 1.349 . S
C134 C136 1.327 . S
C134 H159 0.950 . S
C135 C134 1.349 . S
C135 C151 1.349 . S
C136 C134 1.327 . S
C136 C155 1.429 . S
C136 H160 0.950 . S
C137 C154 1.574 . S
C137 C156 1.368 . S
C137 H161 0.949 . S
H138 C142 0.949 . S
C139 C140 1.349 . S
C139 C141 1.327 . S
C139 H162 0.950 . S
C140 C139 1.349 . S
C140 C152 1.349 . S
C141 C139 1.327 . S
C141 C157 1.429 . S
C141 H163 0.950 . S
C142 H138 0.949 . S
C142 C150 1.574 . S
C142 C158 1.368 . S
H143 C151 0.950 . S
H144 C149 0.950 . S
H145 C150 0.949 . S
H146 C152 0.950 . S
H147 C153 0.950 . S
H148 C154 0.949 . S
C149 H144 0.950 . S
C149 C151 1.327 . S
C149 C155 1.429 . S
C150 C142 1.574 . S
C150 H145 0.949 . S
C150 C156 1.368 . S
C151 C135 1.349 . S
C151 H143 0.950 . S
C151 C149 1.327 . S
C152 C140 1.349 . S
C152 H146 0.950 . S
C152 C153 1.327 . S
C153 H147 0.950 . S
C153 C152 1.327 . S
C153 C157 1.429 . S
C154 C137 1.574 . S
C154 H148 0.949 . S
C154 C158 1.368 . S
C155 C136 1.429 . S
C155 C149 1.429 . S
C155 C156 1.523 . S
C156 C137 1.368 . S
C156 C150 1.368 . S
C156 C155 1.523 . S
C157 C141 1.429 . S
C157 C153 1.429 . S
C157 C158 1.523 . S
C158 C142 1.368 . S
C158 C154 1.368 . S
C158 C157 1.523 . S
H159 C134 0.950 . S
H160 C136 0.950 . S
H161 C137 0.949 . S
H162 C139 0.950 . S
H163 C141 0.950 . S
C164 C165 1.349 . S
C164 C166 1.327 . S
C164 H189 0.950 . S
C165 C164 1.349 . S
C165 C181 1.349 . S
C166 C164 1.327 . S
C166 C185 1.429 . S
C166 H190 0.950 . S
C167 C184 1.574 1_565 S
C167 C186 1.368 . S
C167 H191 0.949 . S
H168 C172 0.949 . S
C169 C170 1.349 . S
C169 C171 1.327 . S
C169 H192 0.950 . S
C170 C169 1.349 . S
C170 C182 1.349 . S
C171 C169 1.327 . S
C171 C187 1.429 . S
C171 H193 0.950 . S
C172 H168 0.949 . S
C172 C180 1.574 1_545 S
C172 C188 1.368 . S
H173 C181 0.950 . S
H174 C179 0.950 . S
H175 C180 0.949 . S
H176 C182 0.950 . S
H177 C183 0.950 . S
H178 C184 0.949 . S
C179 H174 0.950 . S
C179 C181 1.327 . S
C179 C185 1.429 . S
C180 C172 1.574 1_565 S
C180 H175 0.949 . S
C180 C186 1.368 . S
C181 C165 1.349 . S
C181 H173 0.950 . S
C181 C179 1.327 . S
C182 C170 1.349 . S
C182 H176 0.950 . S
C182 C183 1.327 . S
C183 H177 0.950 . S
C183 C182 1.327 . S
C183 C187 1.429 . S
C184 C167 1.574 1_545 S
C184 H178 0.949 . S
C184 C188 1.368 . S
C185 C166 1.429 . S
C185 C179 1.429 . S
C185 C186 1.523 . S
C186 C167 1.368 . S
C186 C180 1.368 . S
C186 C185 1.523 . S
C187 C171 1.429 . S
C187 C183 1.429 . S
C187 C188 1.523 . S
C188 C172 1.368 . S
C188 C184 1.368 . S
C188 C187 1.523 . S
H189 C164 0.950 . S
H190 C166 0.950 . S
H191 C167 0.949 . S
H192 C169 0.950 . S
H193 C171 0.950 . S
C194 C195 1.349 . S
C194 C196 1.327 . S
C194 H219 0.950 . S
C195 C194 1.349 . S
C195 C211 1.349 . S
C196 C194 1.327 . S
C196 C215 1.429 . S
C196 H220 0.950 . S
C197 C214 1.574 . S
C197 C216 1.368 . S
C197 H221 0.949 . S
H198 C202 0.949 . S
C199 C200 1.349 . S
C199 C201 1.327 . S
C199 H222 0.950 . S
C200 C199 1.349 . S
C200 C212 1.349 . S
C201 C199 1.327 . S
C201 C217 1.429 . S
C201 H223 0.950 . S
C202 H198 0.949 . S
C202 C210 1.574 . S
C202 C218 1.368 . S
H203 C211 0.950 . S
H204 C209 0.950 . S
H205 C210 0.949 . S
H206 C212 0.950 . S
H207 C213 0.950 . S
H208 C214 0.949 . S
C209 H204 0.950 . S
C209 C211 1.327 . S
C209 C215 1.429 . S
C210 C202 1.574 . S
C210 H205 0.949 . S
C210 C216 1.368 . S
C211 C195 1.349 . S
C211 H203 0.950 . S
C211 C209 1.327 . S
C212 C200 1.349 . S
C212 H206 0.950 . S
C212 C213 1.327 . S
C213 H207 0.950 . S
C213 C212 1.327 . S
C213 C217 1.429 . S
C214 C197 1.574 . S
C214 H208 0.949 . S
C214 C218 1.368 . S
C215 C196 1.429 . S
C215 C209 1.429 . S
C215 C216 1.523 . S
C216 C197 1.368 . S
C216 C210 1.368 . S
C216 C215 1.523 . S
C217 C201 1.429 . S
C217 C213 1.429 . S
C217 C218 1.523 . S
C218 C202 1.368 . S
C218 C214 1.368 . S
C218 C217 1.523 . S
H219 C194 0.950 . S
H220 C196 0.950 . S
H221 C197 0.949 . S
H222 C199 0.950 . S
H223 C201 0.950 . S
C224 C225 1.349 . S
C224 C226 1.327 . S
C224 H249 0.950 . S
C225 C224 1.349 . S
C225 C241 1.349 . S
C226 C224 1.327 . S
C226 C245 1.429 . S
C226 H250 0.950 . S
C227 C244 1.574 . S
C227 C246 1.368 . S
C227 H251 0.949 . S
H228 C232 0.949 . S
C229 C230 1.349 . S
C229 C231 1.327 . S
C229 H252 0.950 . S
C230 C229 1.349 . S
C230 C242 1.349 . S
C231 C229 1.327 . S
C231 C247 1.429 . S
C231 H253 0.950 . S
C232 H228 0.949 . S
C232 C240 1.574 . S
C232 C248 1.368 . S
H233 C241 0.950 . S
H234 C239 0.950 . S
H235 C240 0.949 . S
H236 C242 0.950 . S
H237 C243 0.950 . S
H238 C244 0.949 . S
C239 H234 0.950 . S
C239 C241 1.327 . S
C239 C245 1.429 . S
C240 C232 1.574 . S
C240 H235 0.949 . S
C240 C246 1.368 . S
C241 C225 1.349 . S
C241 H233 0.950 . S
C241 C239 1.327 . S
C242 C230 1.349 . S
C242 H236 0.950 . S
C242 C243 1.327 . S
C243 H237 0.950 . S
C243 C242 1.327 . S
C243 C247 1.429 . S
C244 C227 1.574 . S
C244 H238 0.949 . S
C244 C248 1.368 . S
C245 C226 1.429 . S
C245 C239 1.429 . S
C245 C246 1.523 . S
C246 C227 1.368 . S
C246 C240 1.368 . S
C246 C245 1.523 . S
C247 C231 1.429 . S
C247 C243 1.429 . S
C247 C248 1.523 . S
C248 C232 1.368 . S
C248 C244 1.368 . S
C248 C247 1.523 . S
H249 C224 0.950 . S
H250 C226 0.950 . S
H251 C227 0.949 . S
H252 C229 0.950 . S
H253 C231 0.950 . S
C254 C255 1.349 . S
C254 C256 1.327 . S
C254 H279 0.950 . S
C255 C254 1.349 . S
C255 C271 1.349 . S
C256 C254 1.327 . S
C256 C275 1.429 . S
C256 H280 0.950 . S
C257 C274 1.574 . S
C257 C276 1.368 . S
C257 H281 0.949 . S
H258 C262 0.949 . S
C259 C260 1.349 . S
C259 C261 1.327 . S
C259 H282 0.950 . S
C260 C259 1.349 . S
C260 C272 1.349 . S
C261 C259 1.327 . S
C261 C277 1.429 . S
C261 H283 0.950 . S
C262 H258 0.949 . S
C262 C270 1.574 . S
C262 C278 1.368 . S
H263 C271 0.950 . S
H264 C269 0.950 . S
H265 C270 0.949 . S
H266 C272 0.950 . S
H267 C273 0.950 . S
H268 C274 0.949 . S
C269 H264 0.950 . S
C269 C271 1.327 . S
C269 C275 1.429 . S
C270 C262 1.574 . S
C270 H265 0.949 . S
C270 C276 1.368 . S
C271 C255 1.349 . S
C271 H263 0.950 . S
C271 C269 1.327 . S
C272 C260 1.349 . S
C272 H266 0.950 . S
C272 C273 1.327 . S
C273 H267 0.950 . S
C273 C272 1.327 . S
C273 C277 1.429 . S
C274 C257 1.574 . S
C274 H268 0.949 . S
C274 C278 1.368 . S
C275 C256 1.429 . S
C275 C269 1.429 . S
C275 C276 1.523 . S
C276 C257 1.368 . S
C276 C270 1.368 . S
C276 C275 1.523 . S
C277 C261 1.429 . S
C277 C273 1.429 . S
C277 C278 1.523 . S
C278 C262 1.368 . S
C278 C274 1.368 . S
C278 C277 1.523 . S
H279 C254 0.950 . S
H280 C256 0.950 . S
H281 C257 0.949 . S
H282 C259 0.950 . S
H283 C261 0.950 . S
C284 C285 1.349 . S
C284 C286 1.327 . S
C284 H309 0.950 . S
C285 C284 1.349 . S
C285 C301 1.349 . S
C286 C284 1.327 . S
C286 C305 1.429 . S
C286 H310 0.950 . S
C287 C304 1.574 . S
C287 C306 1.368 . S
C287 H311 0.949 . S
H288 C292 0.949 . S
C289 C290 1.349 . S
C289 C291 1.327 . S
C289 H312 0.950 . S
C290 C289 1.349 . S
C290 C302 1.349 . S
C291 C289 1.327 . S
C291 C307 1.429 . S
C291 H313 0.950 . S
C292 H288 0.949 . S
C292 C300 1.574 . S
C292 C308 1.368 . S
H293 C301 0.950 . S
H294 C299 0.950 . S
H295 C300 0.949 . S
H296 C302 0.950 . S
H297 C303 0.950 . S
H298 C304 0.949 . S
C299 H294 0.950 . S
C299 C301 1.327 . S
C299 C305 1.429 . S
C300 C292 1.574 . S
C300 H295 0.949 . S
C300 C306 1.368 . S
C301 C285 1.349 . S
C301 H293 0.950 . S
C301 C299 1.327 . S
C302 C290 1.349 . S
C302 H296 0.950 . S
C302 C303 1.327 . S
C303 H297 0.950 . S
C303 C302 1.327 . S
C303 C307 1.429 . S
C304 C287 1.574 . S
C304 H298 0.949 . S
C304 C308 1.368 . S
C305 C286 1.429 . S
C305 C299 1.429 . S
C305 C306 1.523 . S
C306 C287 1.368 . S
C306 C300 1.368 . S
C306 C305 1.523 . S
C307 C291 1.429 . S
C307 C303 1.429 . S
C307 C308 1.523 . S
C308 C292 1.368 . S
C308 C304 1.368 . S
C308 C307 1.523 . S
H309 C284 0.950 . S
H310 C286 0.950 . S
H311 C287 0.949 . S
H312 C289 0.950 . S
H313 C291 0.950 . S
C314 C315 1.349 . S
C314 C316 1.327 . S
C314 H339 0.950 . S
C315 C314 1.349 . S
C315 C331 1.349 . S
C316 C314 1.327 . S
C316 C335 1.429 . S
C316 H340 0.950 . S
C317 C334 1.574 . S
C317 C336 1.368 . S
C317 H341 0.949 . S
H318 C322 0.949 . S
C319 C320 1.349 . S
C319 C321 1.327 . S
C319 H342 0.950 . S
C320 C319 1.349 . S
C320 C332 1.349 . S
C321 C319 1.327 . S
C321 C337 1.429 . S
C321 H343 0.950 . S
C322 H318 0.949 . S
C322 C330 1.574 . S
C322 C338 1.368 . S
H323 C331 0.950 . S
H324 C329 0.950 . S
H325 C330 0.949 . S
H326 C332 0.950 . S
H327 C333 0.950 . S
H328 C334 0.949 . S
C329 H324 0.950 . S
C329 C331 1.327 . S
C329 C335 1.429 . S
C330 C322 1.574 . S
C330 H325 0.949 . S
C330 C336 1.368 . S
C331 C315 1.349 . S
C331 H323 0.950 . S
C331 C329 1.327 . S
C332 C320 1.349 . S
C332 H326 0.950 . S
C332 C333 1.327 . S
C333 H327 0.950 . S
C333 C332 1.327 . S
C333 C337 1.429 . S
C334 C317 1.574 . S
C334 H328 0.949 . S
C334 C338 1.368 . S
C335 C316 1.429 . S
C335 C329 1.429 . S
C335 C336 1.523 . S
C336 C317 1.368 . S
C336 C330 1.368 . S
C336 C335 1.523 . S
C337 C321 1.429 . S
C337 C333 1.429 . S
C337 C338 1.523 . S
C338 C322 1.368 . S
C338 C334 1.368 . S
C338 C337 1.523 . S
H339 C314 0.950 . S
H340 C316 0.950 . S
H341 C317 0.949 . S
H342 C319 0.950 . S
H343 C321 0.950 . S
C344 C345 1.349 . S
C344 C346 1.327 . S
C344 H369 0.950 . S
C345 C344 1.349 . S
C345 C361 1.349 . S
C346 C344 1.327 . S
C346 C365 1.429 . S
C346 H370 0.950 . S
C347 C364 1.574 . S
C347 C366 1.368 1_556 S
C347 H371 0.949 . S
H348 C352 0.949 . S
C349 C350 1.349 . S
C349 C351 1.327 . S
C349 H372 0.950 . S
C350 C349 1.349 . S
C350 C362 1.349 . S
C351 C349 1.327 . S
C351 C367 1.429 . S
C351 H373 0.950 . S
C352 H348 0.949 . S
C352 C360 1.574 . S
C352 C368 1.368 1_554 S
H353 C361 0.950 1_556 S
H354 C359 0.974 . S
H355 C360 0.949 . S
H356 C362 0.950 1_554 S
H357 C363 0.974 . S
H358 C364 0.949 . S
C359 H354 0.974 . S
C359 C361 1.319 1_556 S
C359 C365 1.413 1_556 S
C360 C352 1.574 . S
C360 H355 0.949 . S
C360 C366 1.368 . S
C361 C345 1.349 . S
C361 H353 0.950 1_554 S
C361 C359 1.319 1_554 S
C362 C350 1.349 . S
C362 H356 0.950 1_556 S
C362 C363 1.319 1_556 S
C363 H357 0.974 . S
C363 C362 1.319 1_554 S
C363 C367 1.413 1_554 S
C364 C347 1.574 . S
C364 H358 0.949 . S
C364 C368 1.368 . S
C365 C346 1.429 . S
C365 C359 1.413 1_554 S
C365 C366 1.523 . S
C366 C347 1.368 1_554 S
C366 C360 1.368 . S
C366 C365 1.523 . S
C367 C351 1.429 . S
C367 C363 1.413 1_556 S
C367 C368 1.523 . S
C368 C352 1.368 1_556 S
C368 C364 1.368 . S
C368 C367 1.523 . S
H369 C344 0.950 . S
H370 C346 0.950 . S
H371 C347 0.949 . S
H372 C349 0.950 . S
H373 C351 0.950 . S
C374 C375 1.349 . S
C374 C376 1.327 . S
C374 H399 0.950 . S
C375 C374 1.349 . S
C375 C391 1.349 . S
C376 C374 1.327 . S
C376 C395 1.429 . S
C376 H400 0.950 . S
C377 C394 1.574 . S
C377 C396 1.368 1_556 S
C377 H401 0.949 . S
H378 C382 0.949 . S
C379 C380 1.349 . S
C379 C381 1.327 . S
C379 H402 0.950 . S
C380 C379 1.349 . S
C380 C392 1.349 . S
C381 C379 1.327 . S
C381 C397 1.429 . S
C381 H403 0.950 . S
C382 H378 0.949 . S
C382 C390 1.574 . S
C382 C398 1.368 1_554 S
H383 C391 0.950 1_556 S
H384 C389 0.950 . S
H385 C390 0.949 . S
H386 C392 0.950 1_554 S
H387 C393 0.950 . S
H388 C394 0.949 . S
C389 H384 0.950 . S
C389 C391 1.327 1_556 S
C389 C395 1.429 1_556 S
C390 C382 1.574 . S
C390 H385 0.949 . S
C390 C396 1.368 1_655 S
C391 C375 1.349 . S
C391 H383 0.950 1_554 S
C391 C389 1.327 1_554 S
C392 C380 1.349 . S
C392 H386 0.950 1_556 S
C392 C393 1.327 1_556 S
C393 H387 0.950 . S
C393 C392 1.327 1_554 S
C393 C397 1.429 1_554 S
C394 C377 1.574 . S
C394 H388 0.949 . S
C394 C398 1.368 1_455 S
C395 C376 1.429 . S
C395 C389 1.429 1_554 S
C395 C396 1.523 . S
C396 C377 1.368 1_554 S
C396 C390 1.368 1_455 S
C396 C395 1.523 . S
C397 C381 1.429 . S
C397 C393 1.429 1_556 S
C397 C398 1.523 . S
C398 C382 1.368 1_556 S
C398 C394 1.368 1_655 S
C398 C397 1.523 . S
H399 C374 0.950 . S
H400 C376 0.950 . S
H401 C377 0.949 . S
H402 C379 0.950 . S
H403 C381 0.950 . S
C404 C405 1.349 . S
C404 C406 1.327 . S
C404 H429 0.950 . S
C405 C404 1.349 . S
C405 C421 1.349 . S
C406 C404 1.327 . S
C406 C425 1.429 . S
C406 H430 0.950 . S
C407 C424 1.574 1_565 S
C407 C426 1.368 . S
C407 H431 0.949 . S
H408 C412 0.949 . S
C409 C410 1.349 . S
C409 C411 1.327 . S
C409 H432 0.950 . S
C410 C409 1.349 . S
C410 C422 1.349 . S
C411 C409 1.327 . S
C411 C427 1.429 . S
C411 H433 0.950 . S
C412 H408 0.949 . S
C412 C420 1.574 1_545 S
C412 C428 1.368 . S
H413 C421 0.950 . S
H414 C419 0.950 . S
H415 C420 0.949 . S
H416 C422 0.950 . S
H417 C423 0.950 . S
H418 C424 0.949 . S
C419 H414 0.950 . S
C419 C421 1.327 . S
C419 C425 1.429 . S
C420 C412 1.574 1_565 S
C420 H415 0.949 . S
C420 C426 1.368 . S
C421 C405 1.349 . S
C421 H413 0.950 . S
C421 C419 1.327 . S
C422 C410 1.349 . S
C422 H416 0.950 . S
C422 C423 1.327 . S
C423 H417 0.950 . S
C423 C422 1.327 . S
C423 C427 1.429 . S
C424 C407 1.574 1_545 S
C424 H418 0.949 . S
C424 C428 1.368 . S
C425 C406 1.429 . S
C425 C419 1.429 . S
C425 C426 1.523 . S
C426 C407 1.368 . S
C426 C420 1.368 . S
C426 C425 1.523 . S
C427 C411 1.429 . S
C427 C423 1.429 . S
C427 C428 1.523 . S
C428 C412 1.368 . S
C428 C424 1.368 . S
C428 C427 1.523 . S
H429 C404 0.950 . S
H430 C406 0.950 . S
H431 C407 0.949 . S
H432 C409 0.950 . S
H433 C411 0.950 . S
C434 C435 1.349 . S
C434 C436 1.327 . S
C434 H459 0.950 . S
C435 C434 1.349 . S
C435 C451 1.349 . S
C436 C434 1.327 . S
C436 C455 1.429 . S
C436 H460 0.950 . S
C437 C454 1.574 1_645 S
C437 C456 1.368 . S
C437 H461 0.949 . S
H438 C442 0.949 . S
C439 C440 1.349 . S
C439 C441 1.327 . S
C439 H462 0.950 . S
C440 C439 1.349 . S
C440 C452 1.349 . S
C441 C439 1.327 . S
C441 C457 1.429 . S
C441 H463 0.950 . S
C442 H438 0.949 . S
C442 C450 1.574 1_465 S
C442 C458 1.368 . S
H443 C451 0.950 . S
H444 C449 0.950 . S
H445 C450 0.949 . S
H446 C452 0.950 . S
H447 C453 0.950 . S
H448 C454 0.949 . S
C449 H444 0.950 . S
C449 C451 1.327 . S
C449 C455 1.429 . S
C450 C442 1.574 1_645 S
C450 H445 0.949 . S
C450 C456 1.368 . S
C451 C435 1.349 . S
C451 H443 0.950 . S
C451 C449 1.327 . S
C452 C440 1.349 . S
C452 H446 0.950 . S
C452 C453 1.327 . S
C453 H447 0.950 . S
C453 C452 1.327 . S
C453 C457 1.429 . S
C454 C437 1.574 1_465 S
C454 H448 0.949 . S
C454 C458 1.368 . S
C455 C436 1.429 . S
C455 C449 1.429 . S
C455 C456 1.523 . S
C456 C437 1.368 . S
C456 C450 1.368 . S
C456 C455 1.523 . S
C457 C441 1.429 . S
C457 C453 1.429 . S
C457 C458 1.523 . S
C458 C442 1.368 . S
C458 C454 1.368 . S
C458 C457 1.523 . S
H459 C434 0.950 . S
H460 C436 0.950 . S
H461 C437 0.949 . S
H462 C439 0.950 . S
H463 C441 0.950 . S
C464 C465 1.349 . S
C464 C466 1.327 . S
C464 H489 0.950 . S
C465 C464 1.349 . S
C465 C481 1.349 . S
C466 C464 1.327 . S
C466 C485 1.429 . S
C466 H490 0.950 . S
C467 C484 1.574 . S
C467 C486 1.368 . S
C467 H491 0.976 . S
H468 C472 0.949 . S
C469 C470 1.349 . S
C469 C471 1.327 . S
C469 H492 0.950 . S
C470 C469 1.349 . S
C470 C482 1.349 . S
C471 C469 1.327 . S
C471 C487 1.429 . S
C471 H493 0.950 . S
C472 H468 0.949 . S
C472 C480 1.574 . S
C472 C488 1.368 . S
H473 C481 0.950 . S
H474 C479 0.950 . S
H475 C480 0.949 . S
H476 C482 0.950 . S
H477 C483 0.950 . S
H478 C484 0.976 . S
C479 H474 0.950 . S
C479 C481 1.327 . S
C479 C485 1.429 . S
C480 C472 1.574 . S
C480 H475 0.949 . S
C480 C486 1.368 . S
C481 C465 1.349 . S
C481 H473 0.950 . S
C481 C479 1.327 . S
C482 C470 1.349 . S
C482 H476 0.950 . S
C482 C483 1.327 . S
C483 H477 0.950 . S
C483 C482 1.327 . S
C483 C487 1.429 . S
C484 C467 1.574 . S
C484 H478 0.976 . S
C484 C488 1.368 . S
C485 C466 1.429 . S
C485 C479 1.429 . S
C485 C486 1.523 . S
C486 C467 1.368 . S
C486 C480 1.368 . S
C486 C485 1.523 . S
C487 C471 1.429 . S
C487 C483 1.429 . S
C487 C488 1.523 . S
C488 C472 1.368 . S
C488 C484 1.368 . S
C488 C487 1.523 . S
H489 C464 0.950 . S
H490 C466 0.950 . S
H491 C467 0.976 . S
H492 C469 0.950 . S
H493 C471 0.950 . S
C494 C495 1.349 . S
C494 C496 1.327 . S
C494 H519 0.950 . S
C495 C494 1.349 . S
C495 C511 1.349 . S
C496 C494 1.327 . S
C496 C515 1.429 . S
C496 H520 0.950 . S
C497 C514 1.574 1_545 S
C497 C516 1.368 . S
C497 H521 0.949 . S
H498 C502 0.949 . S
C499 C500 1.349 . S
C499 C501 1.327 . S
C499 H522 0.950 . S
C500 C499 1.349 . S
C500 C512 1.349 . S
C501 C499 1.327 . S
C501 C517 1.429 . S
C501 H523 0.950 . S
C502 H498 0.949 . S
C502 C510 1.574 1_565 S
C502 C518 1.368 . S
H503 C511 0.950 . S
H504 C509 0.950 . S
H505 C510 0.949 . S
H506 C512 0.950 . S
H507 C513 0.950 . S
H508 C514 0.949 . S
C509 H504 0.950 . S
C509 C511 1.327 . S
C509 C515 1.429 . S
C510 C502 1.574 1_545 S
C510 H505 0.949 . S
C510 C516 1.368 . S
C511 C495 1.349 . S
C511 H503 0.950 . S
C511 C509 1.327 . S
C512 C500 1.349 . S
C512 H506 0.950 . S
C512 C513 1.327 . S
C513 H507 0.950 . S
C513 C512 1.327 . S
C513 C517 1.429 . S
C514 C497 1.574 1_565 S
C514 H508 0.949 . S
C514 C518 1.368 . S
C515 C496 1.429 . S
C515 C509 1.429 . S
C515 C516 1.523 . S
C516 C497 1.368 . S
C516 C510 1.368 . S
C516 C515 1.523 . S
C517 C501 1.429 . S
C517 C513 1.429 . S
C517 C518 1.523 . S
C518 C502 1.368 . S
C518 C514 1.368 . S
C518 C517 1.523 . S
H519 C494 0.950 . S
H520 C496 0.950 . S
H521 C497 0.949 . S
H522 C499 0.950 . S
H523 C501 0.950 . S
C524 C525 1.349 . S
C524 C526 1.327 . S
C524 H549 0.950 . S
C525 C524 1.349 . S
C525 C541 1.349 . S
C526 C524 1.327 . S
C526 C545 1.429 . S
C526 H550 0.950 . S
C527 C544 1.574 . S
C527 C546 1.368 . S
C527 H551 0.977 . S
H528 C532 0.949 . S
C529 C530 1.349 . S
C529 C531 1.327 . S
C529 H552 0.950 . S
C530 C529 1.349 . S
C530 C542 1.349 . S
C531 C529 1.327 . S
C531 C547 1.429 . S
C531 H553 0.950 . S
C532 H528 0.949 . S
C532 C540 1.574 . S
C532 C548 1.368 . S
H533 C541 0.950 . S
H534 C539 0.950 . S
H535 C540 0.949 . S
H536 C542 0.950 . S
H537 C543 0.950 . S
H538 C544 0.976 . S
C539 H534 0.950 . S
C539 C541 1.327 . S
C539 C545 1.429 . S
C540 C532 1.574 . S
C540 H535 0.949 . S
C540 C546 1.368 . S
C541 C525 1.349 . S
C541 H533 0.950 . S
C541 C539 1.327 . S
C542 C530 1.349 . S
C542 H536 0.950 . S
C542 C543 1.327 . S
C543 H537 0.950 . S
C543 C542 1.327 . S
C543 C547 1.429 . S
C544 C527 1.574 . S
C544 H538 0.976 . S
C544 C548 1.368 . S
C545 C526 1.429 . S
C545 C539 1.429 . S
C545 C546 1.523 . S
C546 C527 1.368 . S
C546 C540 1.368 . S
C546 C545 1.523 . S
C547 C531 1.429 . S
C547 C543 1.429 . S
C547 C548 1.523 . S
C548 C532 1.368 . S
C548 C544 1.368 . S
C548 C547 1.523 . S
H549 C524 0.950 . S
H550 C526 0.950 . S
H551 C527 0.977 . S
H552 C529 0.950 . S
H553 C531 0.950 . S
C554 C555 1.349 . S
C554 C556 1.327 . S
C554 H579 0.950 . S
C555 C554 1.349 . S
C555 C571 1.349 . S
C556 C554 1.327 . S
C556 C575 1.429 . S
C556 H580 0.950 . S
C557 C574 1.574 1_565 S
C557 C576 1.368 . S
C557 H581 0.949 . S
H558 C562 0.949 . S
C559 C560 1.349 . S
C559 C561 1.327 . S
C559 H582 0.950 . S
C560 C559 1.349 . S
C560 C572 1.349 . S
C561 C559 1.327 . S
C561 C577 1.429 . S
C561 H583 0.950 . S
C562 H558 0.949 . S
C562 C570 1.574 1_545 S
C562 C578 1.368 . S
H563 C571 0.950 . S
H564 C569 0.950 . S
H565 C570 0.949 . S
H566 C572 0.950 . S
H567 C573 0.950 . S
H568 C574 0.949 . S
C569 H564 0.950 . S
C569 C571 1.327 . S
C569 C575 1.429 . S
C570 C562 1.574 1_565 S
C570 H565 0.949 . S
C570 C576 1.368 . S
C571 C555 1.349 . S
C571 H563 0.950 . S
C571 C569 1.327 . S
C572 C560 1.349 . S
C572 H566 0.950 . S
C572 C573 1.327 . S
C573 H567 0.950 . S
C573 C572 1.327 . S
C573 C577 1.429 . S
C574 C557 1.574 1_545 S
C574 H568 0.949 . S
C574 C578 1.368 . S
C575 C556 1.429 . S
C575 C569 1.429 . S
C575 C576 1.523 . S
C576 C557 1.368 . S
C576 C570 1.368 . S
C576 C575 1.523 . S
C577 C561 1.429 . S
C577 C573 1.429 . S
C577 C578 1.523 . S
C578 C562 1.368 . S
C578 C574 1.368 . S
C578 C577 1.523 . S
H579 C554 0.950 . S
H580 C556 0.950 . S
H581 C557 0.949 . S
H582 C559 0.950 . S
H583 C561 0.950 . S
C105 C4 1.843 . S
C110 C23 1.843 . S
C135 C49 1.843 . S
C140 C36 1.843 . S
C165 C56 1.843 . S
C170 C75 1.843 . S
C195 C88 1.843 . S
C200 C95 1.843 . S
C225 C10 1.721 . S
C230 C30 1.721 . S
C255 C43 1.721 . S
C260 C17 1.721 . S
C285 C62 1.721 . S
C290 C82 1.721 . S
C315 C101 1.721 . S
C320 C69 1.721 . S
C345 C5 1.296 . S
C350 C57 1.296 . S
C375 C16 1.296 . S
C380 C68 1.296 . S
C405 C81 1.296 . S
C410 C29 1.296 . S
C435 C96 1.296 . S
C440 C42 1.296 . S
C465 C18 0.704 . S
C470 C3 0.704 . S
C495 C31 0.704 . S
C500 C44 0.704 . S
C525 C55 0.704 . S
C530 C70 0.704 . S
C555 C83 0.704 . S
C560 C94 0.704 . S
