# Generated by pormake.
# Topology whk, (6)-cn, num edge types: 1
# Building blocks:
#     Node 0, Type 0, BuildingBlock: UKALOJ_clean_sbu_0, # of connection points: 6
#     Node 1, Type 0, BuildingBlock: UKALOJ_clean_sbu_0, # of connection points: 6
#     Node 2, Type 0, BuildingBlock: UKALOJ_clean_sbu_0, # of connection points: 6
#     Node 3, Type 0, BuildingBlock: UKALOJ_clean_sbu_0, # of connection points: 6
#     Node 4, Type 0, BuildingBlock: UKALOJ_clean_sbu_0, # of connection points: 6
#     Node 5, Type 0, BuildingBlock: UKALOJ_clean_sbu_0, # of connection points: 6
#     Node 6, Type 0, BuildingBlock: UKALOJ_clean_sbu_0, # of connection points: 6
#     Node 7, Type 0, BuildingBlock: UKALOJ_clean_sbu_0, # of connection points: 6
#     Node 8, Type 0, BuildingBlock: UKALOJ_clean_sbu_0, # of connection points: 6
#     Node 9, Type 0, BuildingBlock: UKALOJ_clean_sbu_0, # of connection points: 6
#     Node 10, Type 0, BuildingBlock: UKALOJ_clean_sbu_0, # of connection points: 6
#     Node 11, Type 0, BuildingBlock: UKALOJ_clean_sbu_0, # of connection points: 6
#     Node 12, Type 0, BuildingBlock: UKALOJ_clean_sbu_0, # of connection points: 6
#     Node 13, Type 0, BuildingBlock: UKALOJ_clean_sbu_0, # of connection points: 6
#     Node 14, Type 0, BuildingBlock: UKALOJ_clean_sbu_0, # of connection points: 6
#     Node 15, Type 0, BuildingBlock: UKALOJ_clean_sbu_0, # of connection points: 6
#     Edge 16, Type (0, 0), BuildingBlock: XUDNAN_clean_linker_2, # of connection points: 2
#     Edge 17, Type (0, 0), BuildingBlock: XUDNAN_clean_linker_2, # of connection points: 2
#     Edge 18, Type (0, 0), BuildingBlock: XUDNAN_clean_linker_2, # of connection points: 2
#     Edge 19, Type (0, 0), BuildingBlock: XUDNAN_clean_linker_2, # of connection points: 2
#     Edge 20, Type (0, 0), BuildingBlock: XUDNAN_clean_linker_2, # of connection points: 2
#     Edge 21, Type (0, 0), BuildingBlock: XUDNAN_clean_linker_2, # of connection points: 2
#     Edge 22, Type (0, 0), BuildingBlock: XUDNAN_clean_linker_2, # of connection points: 2
#     Edge 23, Type (0, 0), BuildingBlock: XUDNAN_clean_linker_2, # of connection points: 2
#     Edge 24, Type (0, 0), BuildingBlock: XUDNAN_clean_linker_2, # of connection points: 2
#     Edge 25, Type (0, 0), BuildingBlock: XUDNAN_clean_linker_2, # of connection points: 2
#     Edge 26, Type (0, 0), BuildingBlock: XUDNAN_clean_linker_2, # of connection points: 2
#     Edge 27, Type (0, 0), BuildingBlock: XUDNAN_clean_linker_2, # of connection points: 2
#     Edge 28, Type (0, 0), BuildingBlock: XUDNAN_clean_linker_2, # of connection points: 2
#     Edge 29, Type (0, 0), BuildingBlock: XUDNAN_clean_linker_2, # of connection points: 2
#     Edge 30, Type (0, 0), BuildingBlock: XUDNAN_clean_linker_2, # of connection points: 2
#     Edge 31, Type (0, 0), BuildingBlock: XUDNAN_clean_linker_2, # of connection points: 2
#     Edge 32, Type (0, 0), BuildingBlock: XUDNAN_clean_linker_2, # of connection points: 2
#     Edge 33, Type (0, 0), BuildingBlock: XUDNAN_clean_linker_2, # of connection points: 2
#     Edge 34, Type (0, 0), BuildingBlock: XUDNAN_clean_linker_2, # of connection points: 2
#     Edge 35, Type (0, 0), BuildingBlock: XUDNAN_clean_linker_2, # of connection points: 2
#     Edge 36, Type (0, 0), BuildingBlock: XUDNAN_clean_linker_2, # of connection points: 2
#     Edge 37, Type (0, 0), BuildingBlock: XUDNAN_clean_linker_2, # of connection points: 2
#     Edge 38, Type (0, 0), BuildingBlock: XUDNAN_clean_linker_2, # of connection points: 2
#     Edge 39, Type (0, 0), BuildingBlock: XUDNAN_clean_linker_2, # of connection points: 2
#     Edge 40, Type (0, 0), BuildingBlock: XUDNAN_clean_linker_2, # of connection points: 2
#     Edge 41, Type (0, 0), BuildingBlock: XUDNAN_clean_linker_2, # of connection points: 2
#     Edge 42, Type (0, 0), BuildingBlock: XUDNAN_clean_linker_2, # of connection points: 2
#     Edge 43, Type (0, 0), BuildingBlock: XUDNAN_clean_linker_2, # of connection points: 2
#     Edge 44, Type (0, 0), BuildingBlock: XUDNAN_clean_linker_2, # of connection points: 2
#     Edge 45, Type (0, 0), BuildingBlock: XUDNAN_clean_linker_2, # of connection points: 2
#     Edge 46, Type (0, 0), BuildingBlock: XUDNAN_clean_linker_2, # of connection points: 2
#     Edge 47, Type (0, 0), BuildingBlock: XUDNAN_clean_linker_2, # of connection points: 2
#     Edge 48, Type (0, 0), BuildingBlock: XUDNAN_clean_linker_2, # of connection points: 2
#     Edge 49, Type (0, 0), BuildingBlock: XUDNAN_clean_linker_2, # of connection points: 2
#     Edge 50, Type (0, 0), BuildingBlock: XUDNAN_clean_linker_2, # of connection points: 2
#     Edge 51, Type (0, 0), BuildingBlock: XUDNAN_clean_linker_2, # of connection points: 2
#     Edge 52, Type (0, 0), BuildingBlock: XUDNAN_clean_linker_2, # of connection points: 2
#     Edge 53, Type (0, 0), BuildingBlock: XUDNAN_clean_linker_2, # of connection points: 2
#     Edge 54, Type (0, 0), BuildingBlock: XUDNAN_clean_linker_2, # of connection points: 2
#     Edge 55, Type (0, 0), BuildingBlock: XUDNAN_clean_linker_2, # of connection points: 2
#     Edge 56, Type (0, 0), BuildingBlock: XUDNAN_clean_linker_2, # of connection points: 2
#     Edge 57, Type (0, 0), BuildingBlock: XUDNAN_clean_linker_2, # of connection points: 2
#     Edge 58, Type (0, 0), BuildingBlock: XUDNAN_clean_linker_2, # of connection points: 2
#     Edge 59, Type (0, 0), BuildingBlock: XUDNAN_clean_linker_2, # of connection points: 2
#     Edge 60, Type (0, 0), BuildingBlock: XUDNAN_clean_linker_2, # of connection points: 2
#     Edge 61, Type (0, 0), BuildingBlock: XUDNAN_clean_linker_2, # of connection points: 2
#     Edge 62, Type (0, 0), BuildingBlock: XUDNAN_clean_linker_2, # of connection points: 2
#     Edge 63, Type (0, 0), BuildingBlock: XUDNAN_clean_linker_2, # of connection points: 2
# Relax obj value: 0.436
# Max RMSD: 0.275
# Mean RMSD: 0.275
data_MOF--net-whk--node1-UKALOJ_clean_sbu_0--edge1-XUDNAN_clean_linker_2
_symmetry_space_group_name_H-M    P1
_symmetry_Int_Tables_number       1
_symmetry_cell_setting            triclinic
loop_
_symmetry_equiv_pos_as_xyz
'x, y, z'
_cell_length_a     38.076175
_cell_length_b     38.040136
_cell_length_c     52.995559
_cell_angle_alpha  90.014865
_cell_angle_beta   90.006017
_cell_angle_gamma 89.896832
loop_
_atom_site_label
_atom_site_type_symbol
_atom_site_fract_x
_atom_site_fract_y
_atom_site_fract_z
_atom_type_partial_charge
Zn0 Zn 0.54558 0.19814 0.38031 0.0
O1 O 0.56054 0.17282 0.34598 0.0
C2 C 0.49711 0.13947 0.39275 0.0
Zn3 Zn 0.5726 0.15607 0.40258 0.0
C4 C 0.57638 0.14332 0.34689 0.0
O5 O 0.58393 0.13 0.36826 0.0
C6 C 0.54323 0.21108 0.43622 0.0
O7 O 0.61968 0.18339 0.39996 0.0
O8 O 0.59354 0.22711 0.38046 0.0
N9 N 0.59643 0.11686 0.42314 0.0
C10 C 0.63038 0.10746 0.42634 0.0
C11 C 0.59997 0.07666 0.45177 0.0
N12 N 0.57764 0.09747 0.43888 0.0
N13 N 0.63327 0.08251 0.44434 0.0
C14 C 0.49664 0.26156 0.36689 0.0
C15 C 0.518 0.27901 0.33195 0.0
N16 N 0.52242 0.23878 0.36058 0.0
N17 N 0.53553 0.24966 0.33877 0.0
N18 N 0.49373 0.28721 0.34947 0.0
H19 H 0.47193 0.23039 0.3959 0.0
H20 H 0.44632 0.26738 0.38478 0.0
H21 H 0.48352 0.27494 0.40469 0.0
C22 C 0.4732 0.25804 0.38939 0.0
C23 C 0.66043 0.12106 0.41092 0.0
H24 H 0.65182 0.12611 0.39125 0.0
H25 H 0.68245 0.10191 0.4107 0.0
H26 H 0.67009 0.14598 0.41927 0.0
O27 O 0.56155 0.18314 0.4368 0.0
O28 O 0.53205 0.22242 0.41515 0.0
C29 C 0.62109 0.2134 0.38976 0.0
O30 O 0.49811 0.16808 0.38028 0.0
O31 O 0.52422 0.12922 0.40469 0.0
Zn32 Zn 0.34696 0.57963 0.38798 0.0
O33 O 0.316 0.62632 0.38725 0.0
C34 C 0.30323 0.55421 0.43133 0.0
Zn35 Zn 0.298 0.5525 0.37535 0.0
C36 C 0.28373 0.62753 0.3813 0.0
O37 O 0.26804 0.59931 0.37523 0.0
C38 C 0.36135 0.5046 0.37956 0.0
O39 O 0.31268 0.56141 0.33768 0.0
O40 O 0.36086 0.58861 0.34958 0.0
N41 N 0.25628 0.52255 0.36375 0.0
C42 C 0.22473 0.51681 0.37452 0.0
C43 C 0.2318 0.47758 0.34627 0.0
N44 N 0.26042 0.49837 0.346 0.0
N45 N 0.20912 0.48833 0.3642 0.0
C46 C 0.38948 0.63729 0.41626 0.0
C47 C 0.4415 0.63007 0.40246 0.0
N48 N 0.38875 0.60974 0.4001 0.0
N49 N 0.4211 0.60544 0.39149 0.0
N50 N 0.42228 0.65077 0.41789 0.0
H51 H 0.33722 0.63061 0.43225 0.0
H52 H 0.3474 0.67387 0.42196 0.0
H53 H 0.36643 0.6571 0.45069 0.0
C54 C 0.35842 0.65013 0.43119 0.0
C55 C 0.20849 0.54005 0.39422 0.0
H56 H 0.21676 0.53129 0.41318 0.0
H57 H 0.1794 0.53879 0.39323 0.0
H58 H 0.21691 0.56762 0.3918 0.0
O59 O 0.32877 0.50677 0.37469 0.0
O60 O 0.37775 0.53179 0.38721 0.0
C61 C 0.34108 0.5771 0.33206 0.0
O62 O 0.33201 0.56952 0.42623 0.0
O63 O 0.28404 0.54351 0.41334 0.0
Zn64 Zn 0.93866 0.29997 0.38453 0.0
O65 O 0.92751 0.32595 0.34992 0.0
C66 C 0.99724 0.35186 0.39436 0.0
Zn67 Zn 0.9229 0.34738 0.40668 0.0
C68 C 0.91501 0.35701 0.35024 0.0
O69 O 0.91019 0.37231 0.37141 0.0
C70 C 0.94551 0.2898 0.44069 0.0
O71 O 0.87318 0.32548 0.4084 0.0
O72 O 0.88592 0.27923 0.38536 0.0
N73 N 0.906 0.3898 0.4272 0.0
C74 C 0.87408 0.40479 0.42996 0.0
C75 C 0.90729 0.42627 0.45834 0.0
N76 N 0.92665 0.40349 0.44472 0.0
N77 N 0.87412 0.42748 0.44956 0.0
C78 C 0.98306 0.23362 0.37223 0.0
C79 C 0.96402 0.21765 0.3362 0.0
N80 N 0.95728 0.25632 0.36571 0.0
N81 N 0.94551 0.24634 0.34329 0.0
N82 N 0.98747 0.20906 0.3542 0.0
H83 H 0.03201 0.22526 0.39201 0.0
H84 H 0.99314 0.22125 0.41091 0.0
H85 H 0.00843 0.2641 0.40151 0.0
C86 C 0.00551 0.23645 0.39543 0.0
C87 C 0.84364 0.3992 0.41251 0.0
H88 H 0.8525 0.38891 0.39402 0.0
H89 H 0.82928 0.42432 0.40973 0.0
H90 H 0.82505 0.38029 0.42093 0.0
O91 O 0.93589 0.32177 0.44127 0.0
O92 O 0.94833 0.27448 0.41952 0.0
C93 C 0.86367 0.29697 0.39808 0.0
O94 O 0.99078 0.32246 0.38387 0.0
O95 O 0.97289 0.36852 0.40543 0.0
Zn96 Zn 0.14552 0.93179 0.3935 0.0
O97 O 0.16783 0.88142 0.39356 0.0
C98 C 0.19988 0.95423 0.42972 0.0
Zn99 Zn 0.19471 0.9463 0.37302 0.0
C100 C 0.19715 0.87166 0.38458 0.0
O101 O 0.21724 0.89438 0.37448 0.0
C102 C 0.13989 0.00514 0.38036 0.0
O103 O 0.17293 0.93434 0.33728 0.0
O104 O 0.12411 0.92064 0.35711 0.0
N105 N 0.23851 0.96863 0.35698 0.0
C106 C 0.27232 0.96716 0.36452 0.0
C107 C 0.26637 0.01365 0.34261 0.0
N108 N 0.23505 0.9973 0.34306 0.0
N109 N 0.29028 0.99568 0.35628 0.0
C110 C 0.09851 0.89076 0.43129 0.0
C111 C 0.04839 0.89186 0.41341 0.0
N112 N 0.10163 0.91097 0.41047 0.0
N113 N 0.07039 0.91172 0.39946 0.0
N114 N 0.06536 0.87876 0.43364 0.0
H115 H 0.1243 0.85381 0.45623 0.0
H116 H 0.12931 0.89933 0.46441 0.0
H117 H 0.15384 0.88116 0.43858 0.0
C118 C 0.12829 0.88055 0.44841 0.0
C119 C 0.28818 0.93597 0.37762 0.0
H120 H 0.2787 0.93448 0.39732 0.0
H121 H 0.31728 0.9369 0.37736 0.0
H122 H 0.27997 0.91158 0.36785 0.0
O123 O 0.16986 0.9972 0.37129 0.0
O124 O 0.12265 0.98201 0.39236 0.0
C125 C 0.14129 0.92366 0.33658 0.0
O126 O 0.16823 0.94371 0.42929 0.0
O127 O 0.21626 0.95786 0.40902 0.0
Zn128 Zn 0.05108 0.79784 0.1262 0.0
O129 O 0.05829 0.81788 0.16223 0.0
C130 C 0.00645 0.85926 0.11553 0.0
Zn131 Zn 0.08259 0.84121 0.10904 0.0
C132 C 0.07736 0.84477 0.16599 0.0
O133 O 0.09233 0.85979 0.1473 0.0
C134 C 0.054 0.79292 0.07001 0.0
O135 O 0.1287 0.81192 0.11028 0.0
O136 O 0.09977 0.76994 0.12945 0.0
N137 N 0.10989 0.88273 0.09392 0.0
C138 C 0.13466 0.88408 0.07567 0.0
C139 C 0.12283 0.93685 0.08617 0.0
N140 N 0.10281 0.91556 0.10051 0.0
N141 N 0.14331 0.9178 0.07053 0.0
C142 C 0.99236 0.74311 0.14122 0.0
C143 C 0.0245 0.69787 0.14653 0.0
N144 N 0.02615 0.7537 0.13973 0.0
N145 N 0.0459 0.7255 0.14337 0.0
N146 N 0.99061 0.70787 0.14497 0.0
H147 H 0.96828 0.79148 0.15258 0.0
H148 H 0.93822 0.75546 0.15002 0.0
H149 H 0.95554 0.77596 0.12175 0.0
C150 C 0.96167 0.76779 0.14137 0.0
C151 C 0.14904 0.85261 0.06195 0.0
H152 H 0.17569 0.84663 0.06926 0.0
H153 H 0.15115 0.85812 0.04145 0.0
H154 H 0.13284 0.82895 0.06468 0.0
O155 O 0.07135 0.82133 0.07183 0.0
O156 O 0.0432 0.77793 0.08989 0.0
C157 C 0.12834 0.78205 0.12074 0.0
O158 O 0.00416 0.82769 0.12328 0.0
O159 O 0.03602 0.87097 0.10829 0.0
Zn160 Zn 0.70471 0.04281 0.14044 0.0
O161 O 0.68047 0.04859 0.17571 0.0
C162 C 0.64905 0.99255 0.12778 0.0
Zn163 Zn 0.65882 0.07038 0.12308 0.0
C164 C 0.65179 0.06515 0.17889 0.0
O165 O 0.6361 0.07842 0.15988 0.0
C166 C 0.7134 0.0477 0.08513 0.0
O167 O 0.68448 0.11888 0.12666 0.0
O168 O 0.72889 0.09207 0.14471 0.0
N169 N 0.61701 0.09499 0.10575 0.0
C170 C 0.6159 0.11992 0.08756 0.0
C171 C 0.56326 0.10384 0.09455 0.0
N172 N 0.58422 0.08529 0.11017 0.0
N173 N 0.5824 0.12599 0.08023 0.0
C174 C 0.76924 0.99432 0.14921 0.0
C175 C 0.79328 0.01844 0.18103 0.0
N176 N 0.74736 0.01989 0.15723 0.0
N177 N 0.76213 0.03447 0.17728 0.0
N178 N 0.7982 0.99288 0.16379 0.0
H179 H 0.77153 0.94543 0.12911 0.0
H180 H 0.78306 0.98334 0.11102 0.0
H181 H 0.73741 0.97466 0.11831 0.0
C182 C 0.76461 0.97333 0.12552 0.0
C183 C 0.64761 0.13699 0.07599 0.0
H184 H 0.64993 0.1642 0.08332 0.0
H185 H 0.6448 0.13832 0.05517 0.0
H186 H 0.67219 0.12313 0.08062 0.0
O187 O 0.68317 0.06184 0.08655 0.0
O188 O 0.72848 0.03751 0.10515 0.0
C189 C 0.71446 0.12022 0.13704 0.0
O190 O 0.68017 0.99434 0.13622 0.0
O191 O 0.63309 0.02039 0.12085 0.0
Zn192 Zn 0.42708 0.65275 0.10699 0.0
O193 O 0.37772 0.67746 0.10792 0.0
C194 C 0.44933 0.71103 0.07448 0.0
Zn195 Zn 0.44822 0.69657 0.13032 0.0
C196 C 0.37193 0.70364 0.12206 0.0
O197 O 0.39692 0.71715 0.13448 0.0
C198 C 0.50313 0.64417 0.11625 0.0
O199 O 0.4408 0.66905 0.16433 0.0
O200 O 0.41605 0.62723 0.14174 0.0
N201 N 0.46719 0.74071 0.14788 0.0
C202 C 0.5002 0.75184 0.15251 0.0
C203 C 0.46721 0.79704 0.15207 0.0
N204 N 0.44676 0.76886 0.14801 0.0
N205 N 0.5011 0.78736 0.15457 0.0
C206 C 0.37191 0.60156 0.08499 0.0
C207 C 0.39688 0.58544 0.05098 0.0
N208 N 0.40538 0.61314 0.08588 0.0
N209 N 0.42094 0.60269 0.06486 0.0
N210 N 0.36558 0.5847 0.06293 0.0
H211 H 0.36031 0.60394 0.12477 0.0
H212 H 0.327 0.58302 0.10592 0.0
H213 H 0.33208 0.63009 0.10535 0.0
C214 C 0.34639 0.60475 0.10648 0.0
C215 C 0.53043 0.72761 0.15766 0.0
H216 H 0.52092 0.70329 0.16698 0.0
H217 H 0.55006 0.74049 0.17005 0.0
H218 H 0.54328 0.72023 0.13965 0.0
O219 O 0.4986 0.6742 0.12623 0.0
O220 O 0.47715 0.62802 0.10661 0.0
C221 C 0.42475 0.63975 0.16317 0.0
O222 O 0.43807 0.67975 0.07279 0.0
O223 O 0.45512 0.72406 0.09611 0.0
Zn224 Zn 0.80053 0.43834 0.13404 0.0
O225 O 0.81988 0.43766 0.17155 0.0
C226 C 0.85299 0.49506 0.12313 0.0
Zn227 Zn 0.85272 0.41793 0.12118 0.0
C228 C 0.85012 0.42548 0.1772 0.0
O229 O 0.8705 0.41444 0.15971 0.0
C230 C 0.80143 0.43124 0.07871 0.0
O231 O 0.8326 0.36786 0.12535 0.0
O232 O 0.7813 0.38601 0.13887 0.0
N233 N 0.89804 0.39568 0.10628 0.0
C234 C 0.90119 0.3698 0.08882 0.0
C235 C 0.95228 0.39071 0.0949 0.0
N236 N 0.92993 0.40844 0.1101 0.0
N237 N 0.93499 0.36606 0.08146 0.0
C238 C 0.74021 0.49003 0.14933 0.0
C239 C 0.69586 0.45808 0.141 0.0
N240 N 0.75222 0.45738 0.14429 0.0
N241 N 0.72453 0.43757 0.1394 0.0
N242 N 0.70474 0.49141 0.14686 0.0
H243 H 0.78575 0.50841 0.16931 0.0
H244 H 0.74803 0.53729 0.17108 0.0
H245 H 0.77344 0.53441 0.14238 0.0
C246 C 0.76311 0.51928 0.15864 0.0
C247 C 0.87105 0.34962 0.07753 0.0
H248 H 0.87053 0.32288 0.08585 0.0
H249 H 0.87445 0.34698 0.05682 0.0
H250 H 0.84529 0.36171 0.08107 0.0
O251 O 0.83301 0.42234 0.08311 0.0
O252 O 0.78165 0.439 0.09705 0.0
C253 C 0.80223 0.36105 0.13361 0.0
O254 O 0.82105 0.48963 0.12888 0.0
O255 O 0.87335 0.46922 0.11877 0.0
Zn256 Zn 0.44088 0.80292 0.61487 0.0
O257 O 0.43345 0.81911 0.65213 0.0
C258 C 0.49796 0.85709 0.61018 0.0
Zn259 Zn 0.42189 0.85478 0.60062 0.0
C260 C 0.42113 0.84935 0.6573 0.0
O261 O 0.41302 0.87034 0.63942 0.0
C262 C 0.44378 0.80615 0.559 0.0
O263 O 0.3718 0.83389 0.60017 0.0
O264 O 0.38841 0.78238 0.61417 0.0
N265 N 0.40012 0.90101 0.58748 0.0
C266 C 0.37925 0.90621 0.56718 0.0
C267 C 0.37768 0.95322 0.58901 0.0
N268 N 0.39915 0.93033 0.60098 0.0
N269 N 0.36524 0.93878 0.5676 0.0
C270 C 0.48811 0.74237 0.63616 0.0
C271 C 0.45943 0.69801 0.62295 0.0
N272 N 0.45826 0.75446 0.62558 0.0
N273 N 0.44039 0.72681 0.61763 0.0
N274 N 0.48977 0.70683 0.6344 0.0
H275 H 0.50035 0.78835 0.65802 0.0
H276 H 0.52782 0.75056 0.66459 0.0
H277 H 0.53356 0.77538 0.63582 0.0
C278 C 0.51398 0.7654 0.64954 0.0
C279 C 0.37016 0.87866 0.54789 0.0
H280 H 0.3444 0.88402 0.5389 0.0
H281 H 0.3905 0.87874 0.5329 0.0
H282 H 0.36916 0.85213 0.55626 0.0
O283 O 0.43196 0.83713 0.56218 0.0
O284 O 0.44915 0.7868 0.578 0.0
C285 C 0.36414 0.8031 0.60718 0.0
O286 O 0.49241 0.82494 0.61557 0.0
O287 O 0.47267 0.87638 0.6027 0.0
Zn288 Zn 0.65464 0.42612 0.61904 0.0
O289 O 0.68108 0.37714 0.62035 0.0
C290 C 0.70732 0.4528 0.58303 0.0
Zn291 Zn 0.70004 0.45013 0.63952 0.0
C292 C 0.71151 0.37449 0.62996 0.0
O293 O 0.72604 0.40146 0.63942 0.0
C294 C 0.64314 0.50195 0.6292 0.0
O295 O 0.67772 0.43854 0.67549 0.0
O296 O 0.63271 0.41613 0.65509 0.0
N297 N 0.74345 0.47294 0.65555 0.0
C298 C 0.75968 0.5035 0.65002 0.0
C299 C 0.79349 0.47501 0.67475 0.0
N300 N 0.76447 0.45535 0.671 0.0
N301 N 0.79093 0.50544 0.6619 0.0
C302 C 0.61095 0.3806 0.58161 0.0
C303 C 0.55964 0.38233 0.59767 0.0
N304 N 0.61256 0.40158 0.60216 0.0
N305 N 0.58067 0.40252 0.61211 0.0
N306 N 0.57805 0.36798 0.57854 0.0
H307 H 0.66558 0.37063 0.57353 0.0
H308 H 0.6362 0.35444 0.54957 0.0
H309 H 0.64384 0.40033 0.55227 0.0
C310 C 0.64073 0.37578 0.56331 0.0
C311 C 0.74671 0.53033 0.63139 0.0
H312 H 0.73617 0.55326 0.64188 0.0
H313 H 0.7687 0.53972 0.61942 0.0
H314 H 0.7258 0.52023 0.61904 0.0
O315 O 0.6731 0.49824 0.63937 0.0
O316 O 0.62833 0.47577 0.61866 0.0
C317 C 0.64761 0.424 0.67585 0.0
O318 O 0.67789 0.43719 0.58326 0.0
O319 O 0.72176 0.46097 0.60375 0.0
Zn320 Zn 0.07019 0.65656 0.60566 0.0
O321 O 0.11922 0.68447 0.60564 0.0
C322 C 0.04464 0.71371 0.57213 0.0
Zn323 Zn 0.04944 0.70199 0.62772 0.0
C324 C 0.12334 0.71326 0.6175 0.0
O325 O 0.09766 0.72656 0.62938 0.0
C326 C 0.99539 0.64653 0.61703 0.0
O327 O 0.06089 0.67507 0.66203 0.0
O328 O 0.08383 0.63183 0.63995 0.0
N329 N 0.02696 0.74285 0.64711 0.0
C330 C 0.00093 0.76495 0.64021 0.0
C331 C 0.01794 0.78074 0.67681 0.0
N332 N 0.03744 0.75264 0.66991 0.0
N333 N 0.9951 0.78898 0.65835 0.0
C334 C 0.1263 0.60522 0.58391 0.0
C335 C 0.10267 0.59041 0.54913 0.0
N336 N 0.093 0.61753 0.58419 0.0
N337 N 0.07828 0.60785 0.56267 0.0
N338 N 0.13332 0.58871 0.56183 0.0
H339 H 0.13667 0.60258 0.62376 0.0
H340 H 0.17206 0.58711 0.60431 0.0
H341 H 0.16311 0.63349 0.60689 0.0
C342 C 0.15098 0.60717 0.60593 0.0
C343 C 0.97992 0.76228 0.61631 0.0
H344 H 0.95296 0.77267 0.61916 0.0
H345 H 0.99271 0.77832 0.60145 0.0
H346 H 0.97813 0.73474 0.60974 0.0
O347 O 0.0009 0.67686 0.62616 0.0
O348 O 0.02058 0.62983 0.60663 0.0
C349 C 0.07651 0.64545 0.66125 0.0
O350 O 0.05586 0.68228 0.57143 0.0
O351 O 0.04006 0.72844 0.59333 0.0
Zn352 Zn 0.85083 0.07265 0.6158 0.0
O353 O 0.83089 0.12325 0.61584 0.0
C354 C 0.80202 0.05207 0.57445 0.0
Zn355 Zn 0.79821 0.056 0.63047 0.0
C356 C 0.80007 0.13231 0.62191 0.0
O357 O 0.77816 0.10888 0.62845 0.0
C358 C 0.8518 0.99727 0.62638 0.0
O359 O 0.81413 0.06474 0.66777 0.0
O360 O 0.86678 0.08074 0.6547 0.0
N361 N 0.74891 0.03901 0.64067 0.0
C362 C 0.73585 0.00734 0.64726 0.0
C363 C 0.6927 0.03915 0.63579 0.0
N364 N 0.7219 0.05876 0.63384 0.0
N365 N 0.70055 0.00645 0.64385 0.0
C366 C 0.90174 0.11409 0.58122 0.0
C367 C 0.95057 0.11255 0.60079 0.0
N368 N 0.89707 0.09358 0.60182 0.0
N369 N 0.92753 0.09266 0.61392 0.0
N370 N 0.93507 0.12585 0.58002 0.0
H371 H 0.84715 0.12584 0.57212 0.0
H372 H 0.8785 0.15161 0.5553 0.0
H373 H 0.87245 0.10622 0.54722 0.0
C374 C 0.87325 0.12512 0.56316 0.0
C375 C 0.75737 0.97881 0.65906 0.0
H376 H 0.77874 0.99057 0.67051 0.0
H377 H 0.74091 0.96198 0.67139 0.0
H378 H 0.76925 0.9623 0.64406 0.0
O379 O 0.82038 0.00472 0.63274 0.0
O380 O 0.87141 0.0211 0.61715 0.0
C381 C 0.84521 0.07497 0.67272 0.0
O382 O 0.8329 0.06366 0.5778 0.0
O383 O 0.78251 0.04647 0.59333 0.0
Zn384 Zn 0.95127 0.20513 0.87322 0.0
O385 O 0.94042 0.17731 0.83974 0.0
C386 C 0.00206 0.1496 0.88806 0.0
Zn387 Zn 0.92607 0.16527 0.89821 0.0
C388 C 0.92238 0.14937 0.84162 0.0
O389 O 0.91312 0.13876 0.86346 0.0
C390 C 0.95361 0.22256 0.92959 0.0
O391 O 0.878 0.19236 0.89625 0.0
O392 O 0.90136 0.23014 0.86985 0.0
N393 N 0.90194 0.12564 0.91805 0.0
C394 C 0.87735 0.1255 0.93647 0.0
C395 C 0.88881 0.07218 0.92742 0.0
N396 N 0.90884 0.09247 0.91244 0.0
N397 N 0.8685 0.09206 0.94267 0.0
C398 C 0.00026 0.26699 0.85844 0.0
C399 C 0.97205 0.28993 0.82797 0.0
N400 N 0.97333 0.24528 0.85297 0.0
N401 N 0.95622 0.25932 0.8337 0.0
N402 N -6e-05 0.29534 0.84315 0.0
H403 H 0.05265 0.26252 0.87251 0.0
H404 H 0.02303 0.28475 0.89312 0.0
H405 H 0.02119 0.23727 0.89011 0.0
C406 C 0.02541 0.26225 0.87994 0.0
C407 C 0.86295 0.15809 0.94866 0.0
H408 H 0.83685 0.16414 0.94041 0.0
H409 H 0.85995 0.15418 0.96929 0.0
H410 H 0.87991 0.18109 0.94533 0.0
O411 O 0.93921 0.19265 0.93207 0.0
O412 O 0.961 0.23346 0.90753 0.0
C413 C 0.87485 0.21888 0.88194 0.0
O414 O 8e-05 0.17823 0.87574 0.0
O415 O 0.97506 0.13815 0.8996 0.0
Zn416 Zn 0.33911 0.91856 0.88578 0.0
O417 O 0.30952 0.87303 0.88375 0.0
C418 C 0.28761 0.94645 0.92081 0.0
Zn419 Zn 0.29868 0.94795 0.86372 0.0
C420 C 0.28172 0.87182 0.87067 0.0
O421 O 0.27056 0.89935 0.85958 0.0
C422 C 0.35913 0.99317 0.87762 0.0
O423 O 0.32226 0.93875 0.82814 0.0
O424 O 0.36065 0.90724 0.84945 0.0
N425 N 0.2571 0.97532 0.84834 0.0
C426 C 0.24183 0.00513 0.85684 0.0
C427 C 0.20576 0.98116 0.83158 0.0
N428 N 0.23471 0.96064 0.8324 0.0
N429 N 0.20962 0.00941 0.84667 0.0
C430 C 0.38038 0.86717 0.92107 0.0
C431 C 0.43334 0.87922 0.91139 0.0
N432 N 0.37943 0.89151 0.90253 0.0
N433 N 0.41236 0.89871 0.89645 0.0
N434 N 0.41399 0.85899 0.92694 0.0
H435 H 0.34349 0.82574 0.92724 0.0
H436 H 0.35323 0.85133 0.95488 0.0
H437 H 0.32486 0.86859 0.93056 0.0
C438 C 0.3486 0.85274 0.93423 0.0
C439 C 0.25864 0.03084 0.87467 0.0
H440 H 0.27891 0.04582 0.86419 0.0
H441 H 0.23929 0.04992 0.88226 0.0
H442 H 0.27194 0.01748 0.89048 0.0
O443 O 0.32908 0.99506 0.86718 0.0
O444 O 0.36906 0.96427 0.88723 0.0
C445 C 0.34922 0.9189 0.82842 0.0
O446 O 0.31683 0.9304 0.92145 0.0
O447 O 0.27508 0.95571 0.89964 0.0
Zn448 Zn 0.57199 0.33304 0.89794 0.0
O449 O 0.62103 0.30822 0.89448 0.0
C450 C 0.55218 0.27096 0.92965 0.0
Zn451 Zn 0.54935 0.28963 0.87517 0.0
C452 C 0.62614 0.28244 0.87981 0.0
O453 O 0.60041 0.26909 0.868 0.0
C454 C 0.49483 0.34099 0.8923 0.0
O455 O 0.5535 0.32069 0.84293 0.0
O456 O 0.58153 0.36231 0.86358 0.0
N457 N 0.52801 0.24977 0.85437 0.0
C458 C 0.50164 0.22726 0.85949 0.0
C459 C 0.52766 0.20822 0.82669 0.0
N460 N 0.54383 0.23814 0.83373 0.0
N461 N 0.50078 0.20108 0.84238 0.0
C462 C 0.62862 0.38113 0.9219 0.0
C463 C 0.60329 0.39698 0.95584 0.0
N464 N 0.59481 0.37061 0.9204 0.0
N465 N 0.57909 0.38082 0.94142 0.0
N466 N 0.63488 0.39719 0.94428 0.0
H467 H 0.64092 0.37791 0.88226 0.0
H468 H 0.6738 0.39955 0.90129 0.0
H469 H 0.66904 0.3525 0.90234 0.0
C470 C 0.65455 0.3777 0.90071 0.0
C471 C 0.47857 0.22854 0.88243 0.0
H472 H 0.45068 0.22931 0.87638 0.0
H473 H 0.48218 0.2041 0.89356 0.0
H474 H 0.48386 0.25155 0.8945 0.0
O475 O 0.49928 0.31134 0.88172 0.0
O476 O 0.52132 0.3575 0.90096 0.0
C477 C 0.56927 0.35007 0.84298 0.0
O478 O 0.56263 0.30259 0.93155 0.0
O479 O 0.54561 0.25856 0.90794 0.0
Zn480 Zn 0.19843 0.54951 0.87279 0.0
O481 O 0.18017 0.55382 0.83559 0.0
C482 C 0.13422 0.50691 0.88302 0.0
Zn483 Zn 0.15376 0.58212 0.88668 0.0
C484 C 0.15424 0.57367 0.83038 0.0
O485 O 0.1385 0.59004 0.84809 0.0
C486 C 0.19883 0.55785 0.92881 0.0
O487 O 0.18519 0.62644 0.88462 0.0
O488 O 0.22842 0.59669 0.86742 0.0
N489 N 0.11304 0.61323 0.89915 0.0
C490 C 0.11227 0.63957 0.9163 0.0
C491 C 0.05977 0.63139 0.9038 0.0
N492 N 0.08041 0.60843 0.89129 0.0
N493 N 0.07906 0.65151 0.91951 0.0
C494 C 0.25505 0.49031 0.87094 0.0
C495 C 0.29144 0.51074 0.84416 0.0
N496 N 0.24101 0.5202 0.86154 0.0
N497 N 0.26363 0.53271 0.84482 0.0
N498 N 0.28668 0.48387 0.86034 0.0
H499 H 0.22691 0.445 0.88342 0.0
H500 H 0.25981 0.46007 0.90515 0.0
H501 H 0.21865 0.48328 0.90213 0.0
C502 C 0.23917 0.46877 0.89173 0.0
C503 C 0.14374 0.65259 0.93065 0.0
H504 H 0.15204 0.67825 0.92272 0.0
H505 H 0.13712 0.65634 0.95087 0.0
H506 H 0.16643 0.63475 0.92929 0.0
O507 O 0.16973 0.57302 0.9245 0.0
O508 O 0.21662 0.54618 0.91039 0.0
C509 C 0.21552 0.6257 0.87493 0.0
O510 O 0.16648 0.50351 0.87708 0.0
O511 O 0.12218 0.53729 0.88811 0.0
H512 H 0.56869 0.16547 0.29751 0.0
H513 H 0.60742 0.07883 0.34317 0.0
H514 H 0.62643 0.04797 0.30472 0.0
H515 H 0.53759 0.11174 0.24433 0.0
H516 H 0.55128 0.14323 0.22092 0.0
H517 H 0.53841 0.15794 0.25192 0.0
H518 H 0.59819 0.1895 0.25716 0.0
H519 H 0.61121 0.17497 0.2262 0.0
H520 H 0.6383 0.16485 0.25314 0.0
H521 H 0.64492 0.02814 0.26231 0.0
H522 H 0.66228 0.02038 0.2179 0.0
H523 H 0.61103 0.11876 0.19856 0.0
C524 C 0.58081 0.13983 0.29939 0.0
C525 C 0.58646 0.12457 0.32343 0.0
C526 C 0.60272 0.09111 0.32505 0.0
C527 C 0.61355 0.07327 0.30328 0.0
C528 C 0.60784 0.08909 0.27995 0.0
C529 C 0.59182 0.12156 0.27777 0.0
C530 C 0.59034 0.1332 0.25037 0.0
C531 C 0.55213 0.13673 0.24136 0.0
C532 C 0.61073 0.16767 0.2465 0.0
C533 C 0.60864 0.10248 0.23761 0.0
C534 C 0.61829 0.07731 0.25512 0.0
C535 C 0.63718 0.04743 0.24837 0.0
C536 C 0.64699 0.04332 0.2231 0.0
C537 C 0.6378 0.06884 0.20478 0.0
C538 C 0.61784 0.09854 0.21209 0.0
H539 H 0.43797 0.65926 0.21223 0.0
H540 H 0.38479 0.58034 0.167 0.0
H541 H 0.35955 0.55464 0.20557 0.0
H542 H 0.45745 0.60113 0.2663 0.0
H543 H 0.45008 0.63561 0.28904 0.0
H544 H 0.46621 0.64622 0.25799 0.0
H545 H 0.41424 0.68943 0.25179 0.0
H546 H 0.39773 0.6787 0.28266 0.0
H547 H 0.36988 0.6737 0.25539 0.0
H548 H 0.3354 0.54118 0.24812 0.0
H549 H 0.31774 0.53741 0.29279 0.0
H550 H 0.38807 0.62348 0.31102 0.0
C551 C 0.42154 0.63618 0.21046 0.0
C552 C 0.41334 0.62186 0.18655 0.0
C553 C 0.39152 0.59179 0.18507 0.0
C554 C 0.377 0.57699 0.20688 0.0
C555 C 0.38486 0.5923 0.23006 0.0
C556 C 0.40701 0.62089 0.23208 0.0
C557 C 0.41031 0.63288 0.25927 0.0
C558 C 0.44827 0.6287 0.2687 0.0
C559 C 0.39726 0.67093 0.26245 0.0
C560 C 0.38593 0.60702 0.2721 0.0
C561 C 0.37152 0.58391 0.25485 0.0
C562 C 0.34685 0.5588 0.26187 0.0
C563 C 0.33682 0.55704 0.28725 0.0
C564 C 0.35162 0.5801 0.30535 0.0
C565 C 0.37661 0.6053 0.29763 0.0
H566 H 0.92903 0.33554 0.30153 0.0
H567 H 0.87816 0.41841 0.34451 0.0
H568 H 0.85907 0.4465 0.30482 0.0
H569 H 0.95952 0.39172 0.24984 0.0
H570 H 0.95179 0.35871 0.22608 0.0
H571 H 0.96276 0.34576 0.25783 0.0
H572 H 0.90627 0.30806 0.26007 0.0
H573 H 0.89514 0.32087 0.22835 0.0
H574 H 0.86434 0.32827 0.25364 0.0
H575 H 0.84165 0.46321 0.26074 0.0
H576 H 0.82902 0.46869 0.21521 0.0
H577 H 0.89333 0.37679 0.20022 0.0
C578 C 0.91413 0.35976 0.30261 0.0
C579 C 0.90512 0.37475 0.32624 0.0
C580 C 0.88554 0.40646 0.32673 0.0
C581 C 0.87454 0.42262 0.30425 0.0
C582 C 0.88362 0.40704 0.28134 0.0
C583 C 0.90321 0.37647 0.28032 0.0
C584 C 0.90883 0.36482 0.25318 0.0
C585 C 0.94806 0.36529 0.24634 0.0
C586 C 0.89268 0.32835 0.24855 0.0
C587 C 0.88883 0.39329 0.23913 0.0
C588 C 0.87446 0.41733 0.25578 0.0
C589 C 0.85316 0.44483 0.24751 0.0
C590 C 0.84608 0.44769 0.22161 0.0
C591 C 0.86051 0.42344 0.20414 0.0
C592 C 0.88255 0.39615 0.21306 0.0
H593 H 0.17031 0.92548 0.28878 0.0
H594 H 0.07484 0.89879 0.32935 0.0
H595 H 0.04771 0.87923 0.28961 0.0
H596 H 0.12679 0.95699 0.2311 0.0
H597 H 0.15983 0.93881 0.2105 0.0
H598 H 0.17149 0.95271 0.24192 0.0
H599 H 0.19677 0.89081 0.25127 0.0
H600 H 0.18516 0.87671 0.21993 0.0
H601 H 0.16928 0.85274 0.24695 0.0
H602 H 0.0322 0.8587 0.24682 0.0
H603 H 0.02826 0.83953 0.20258 0.0
H604 H 0.13266 0.88062 0.18826 0.0
C605 C 0.14356 0.91588 0.28926 0.0
C606 C 0.12471 0.91372 0.31227 0.0
C607 C 0.08985 0.90079 0.31204 0.0
C608 C 0.07415 0.88963 0.28954 0.0
C609 C 0.09351 0.89175 0.26731 0.0
C610 C 0.12735 0.90471 0.26686 0.0
C611 C 0.14257 0.90305 0.24036 0.0
C612 C 0.15064 0.9401 0.23039 0.0
C613 C 0.17538 0.87942 0.2396 0.0
C614 C 0.11217 0.88653 0.22614 0.0
C615 C 0.08419 0.88035 0.24216 0.0
C616 C 0.05375 0.86372 0.23401 0.0
C617 C 0.05185 0.8528 0.20886 0.0
C618 C 0.08009 0.8587 0.19198 0.0
C619 C 0.1105 0.87624 0.20067 0.0
H620 H 0.33073 0.93547 0.7793 0.0
H621 H 0.4075 0.87767 0.82366 0.0
H622 H 0.43557 0.85682 0.78464 0.0
H623 H 0.32044 0.87131 0.73127 0.0
H624 H 0.31656 0.90232 0.70571 0.0
H625 H 0.30334 0.9148 0.73708 0.0
H626 H 0.34542 0.96817 0.73548 0.0
H627 H 0.35875 0.95588 0.70405 0.0
H628 H 0.39125 0.96124 0.72848 0.0
H629 H 0.45292 0.83858 0.74166 0.0
H630 H 0.45989 0.82525 0.69649 0.0
H631 H 0.37365 0.89582 0.67871 0.0
C632 C 0.35369 0.91877 0.78079 0.0
C633 C 0.36687 0.90826 0.80464 0.0
C634 C 0.39684 0.88615 0.80571 0.0
C635 C 0.41306 0.87416 0.78362 0.0
C636 C 0.39923 0.88463 0.7605 0.0
C637 C 0.37039 0.90658 0.75883 0.0
C638 C 0.36034 0.91283 0.73143 0.0
C639 C 0.32295 0.89951 0.72607 0.0
C640 C 0.36418 0.95186 0.72445 0.0
C641 C 0.38771 0.89047 0.71808 0.0
C642 C 0.40983 0.87452 0.73533 0.0
C643 C 0.43605 0.85119 0.72793 0.0
C644 C 0.4397 0.84369 0.70223 0.0
C645 C 0.41744 0.85962 0.6841 0.0
C646 C 0.39136 0.88368 0.69213 0.0
H647 H 0.62811 0.3824 0.8236 0.0
H648 H 0.5194 0.35738 0.80732 0.0
H649 H 0.52682 0.37878 0.76376 0.0
H650 H 0.6346 0.46165 0.78132 0.0
H651 H 0.6786 0.45056 0.77156 0.0
H652 H 0.66352 0.43871 0.80266 0.0
H653 H 0.67977 0.37374 0.79379 0.0
H654 H 0.69448 0.38527 0.7626 0.0
H655 H 0.66133 0.35197 0.76664 0.0
H656 H 0.547 0.39529 0.72132 0.0
H657 H 0.57842 0.40862 0.68195 0.0
H658 H 0.67509 0.42293 0.72423 0.0
C659 C 0.60567 0.38274 0.81104 0.0
C660 C 0.573 0.36883 0.8188 0.0
C661 C 0.54448 0.36829 0.80171 0.0
C662 C 0.54845 0.38039 0.77696 0.0
C663 C 0.5812 0.39281 0.76952 0.0
C664 C 0.60934 0.39438 0.786 0.0
C665 C 0.64243 0.40592 0.77229 0.0
C666 C 0.65556 0.44132 0.78257 0.0
C667 C 0.67119 0.37753 0.77393 0.0
C668 C 0.6286 0.40964 0.74553 0.0
C669 C 0.59313 0.40219 0.74453 0.0
C670 C 0.57467 0.40171 0.72187 0.0
C671 C 0.59285 0.40911 0.69956 0.0
C672 C 0.62921 0.41693 0.69996 0.0
C673 C 0.64722 0.41745 0.72335 0.0
H674 H 0.06838 0.6682 0.71034 0.0
H675 H 0.10992 0.5821 0.66541 0.0
H676 H 0.13185 0.55357 0.704 0.0
H677 H 0.13878 0.67266 0.75384 0.0
H678 H 0.11172 0.68197 0.78095 0.0
H679 H 0.09731 0.69498 0.74997 0.0
H680 H 0.03944 0.6603 0.75613 0.0
H681 H 0.05363 0.64727 0.7872 0.0
H682 H 0.04131 0.61436 0.76439 0.0
H683 H 0.15283 0.53624 0.74664 0.0
H684 H 0.16971 0.52986 0.79128 0.0
H685 H 0.11345 0.62602 0.80937 0.0
C686 C 0.08173 0.64315 0.70864 0.0
C687 C 0.08746 0.62746 0.68477 0.0
C688 C 0.10523 0.59474 0.6834 0.0
C689 C 0.11777 0.57825 0.70525 0.0
C690 C 0.11213 0.59463 0.72839 0.0
C691 C 0.09433 0.62619 0.73032 0.0
C692 C 0.09269 0.63852 0.75753 0.0
C693 C 0.11124 0.67414 0.76075 0.0
C694 C 0.05449 0.6402 0.76686 0.0
C695 C 0.11287 0.60922 0.77048 0.0
C696 C 0.12379 0.5842 0.75326 0.0
C697 C 0.14414 0.55544 0.76036 0.0
C698 C 0.1537 0.55214 0.78576 0.0
C699 C 0.14278 0.57735 0.80383 0.0
C700 C 0.12183 0.60611 0.79605 0.0
H701 H 0.89511 0.11956 0.69301 0.0
H702 H 0.81852 0.03992 0.71295 0.0
H703 H 0.83312 0.04748 0.75793 0.0
H704 H 0.95972 0.09879 0.74241 0.0
H705 H 0.97019 0.14425 0.74827 0.0
H706 H 0.95614 0.13058 0.71731 0.0
H707 H 0.90605 0.17674 0.71846 0.0
H708 H 0.91996 0.19053 0.74938 0.0
H709 H 0.87532 0.17646 0.74435 0.0
H710 H 0.85405 0.06479 0.80076 0.0
H711 H 0.87777 0.09316 0.83896 0.0
H712 H 0.93933 0.16351 0.79204 0.0
C713 C 0.88187 0.10338 0.70686 0.0
C714 C 0.85582 0.07899 0.69947 0.0
C715 C 0.83852 0.0588 0.71817 0.0
C716 C 0.84674 0.06277 0.74378 0.0
C717 C 0.87216 0.08729 0.75052 0.0
C718 C 0.88938 0.10743 0.73268 0.0
C719 C 0.91388 0.13355 0.74527 0.0
C720 C 0.95226 0.12635 0.73787 0.0
C721 C 0.90315 0.17157 0.73899 0.0
C722 C 0.90742 0.12511 0.77289 0.0
C723 C 0.88358 0.09803 0.77543 0.0
C724 C 0.87287 0.08594 0.79903 0.0
C725 C 0.88654 0.10222 0.82065 0.0
C726 C 0.91045 0.13057 0.8186 0.0
C727 C 0.9212 0.14184 0.79431 0.0
H728 H 0.44961 0.13093 0.35426 0.0
H729 H 0.47477 0.09573 0.42999 0.0
H730 H 0.42532 0.05381 0.42846 0.0
H731 H 0.35477 0.12355 0.35889 0.0
H732 H 0.34972 0.10729 0.32715 0.0
H733 H 0.38584 0.13588 0.33481 0.0
H734 H 0.42945 0.08931 0.31762 0.0
H735 H 0.39348 0.0604 0.31019 0.0
H736 H 0.42863 0.04533 0.33026 0.0
H737 H 0.37232 0.01739 0.41927 0.0
H738 H 0.31981 0.98771 0.40294 0.0
H739 H 0.33259 0.04104 0.33119 0.0
C740 C 0.44427 0.11478 0.37064 0.0
C741 C 0.46564 0.11682 0.39239 0.0
C742 C 0.45852 0.09467 0.41323 0.0
C743 C 0.43056 0.07077 0.41251 0.0
C744 C 0.41037 0.0689 0.39063 0.0
C745 C 0.4169 0.09017 0.37002 0.0
C746 C 0.39195 0.08187 0.34852 0.0
C747 C 0.36922 0.11406 0.34197 0.0
C748 C 0.41209 0.06843 0.32528 0.0
C749 C 0.3702 0.05287 0.36038 0.0
C750 C 0.38119 0.04599 0.38471 0.0
C751 C 0.36396 0.02183 0.40002 0.0
C752 C 0.33448 0.00445 0.39032 0.0
C753 C 0.32301 0.01038 0.36519 0.0
C754 C 0.34133 0.03504 0.35015 0.0
H755 H 0.41379 0.46643 0.4042 0.0
H756 H 0.35033 0.47008 0.33623 0.0
H757 H 0.37822 0.41572 0.32099 0.0
H758 H 0.49308 0.4301 0.37541 0.0
H759 H 0.503 0.40151 0.40159 0.0
H760 H 0.47963 0.44208 0.40688 0.0
H761 H 0.42933 0.40763 0.4285 0.0
H762 H 0.45249 0.36696 0.42316 0.0
H763 H 0.4082 0.37224 0.41173 0.0
H764 H 0.41284 0.36181 0.31241 0.0
H765 H 0.45034 0.30846 0.31254 0.0
H766 H 0.48907 0.33604 0.38675 0.0
C767 C 0.40614 0.45581 0.38606 0.0
C768 C 0.37998 0.47245 0.37134 0.0
C769 C 0.3702 0.45761 0.34784 0.0
C770 C 0.38596 0.42681 0.33895 0.0
C771 C 0.41126 0.41069 0.35391 0.0
C772 C 0.42119 0.42434 0.37705 0.0
C773 C 0.44794 0.40045 0.38971 0.0
C774 C 0.48299 0.41969 0.39362 0.0
C775 C 0.43362 0.38597 0.41476 0.0
C776 C 0.45134 0.37155 0.37003 0.0
C777 C 0.43019 0.37829 0.34943 0.0
C778 C 0.42934 0.35604 0.32851 0.0
C779 C 0.45061 0.32592 0.32869 0.0
C780 C 0.47186 0.31804 0.34977 0.0
C781 C 0.47232 0.34121 0.37067 0.0
H782 H 0.039 0.36735 0.3538 0.0
H783 H 0.03344 0.37232 0.4354 0.0
H784 H 0.08915 0.4055 0.43649 0.0
H785 H 0.13617 0.3621 0.34812 0.0
H786 H 0.13708 0.39041 0.32086 0.0
H787 H 0.09947 0.36286 0.32663 0.0
H788 H 0.05913 0.41772 0.32503 0.0
H789 H 0.09661 0.44549 0.31961 0.0
H790 H 0.06777 0.45418 0.34586 0.0
H791 H 0.14318 0.44002 0.4289 0.0
H792 H 0.1925 0.47526 0.4131 0.0
H793 H 0.16113 0.45322 0.33606 0.0
C794 C 0.05027 0.37455 0.37184 0.0
C795 C 0.03268 0.36682 0.39459 0.0
C796 C 0.04709 0.3777 0.41788 0.0
C797 C 0.07859 0.39652 0.41866 0.0
C798 C 0.09499 0.40462 0.39592 0.0
C799 C 0.08145 0.39407 0.37291 0.0
C800 C 0.10282 0.40897 0.35126 0.0
C801 C 0.1199 0.37931 0.33581 0.0
C802 C 0.08022 0.43302 0.33446 0.0
C803 C 0.1301 0.42984 0.36573 0.0
C804 C 0.12522 0.42657 0.39145 0.0
C805 C 0.14702 0.44319 0.40879 0.0
C806 C 0.1746 0.46378 0.39962 0.0
C807 C 0.17967 0.46836 0.37334 0.0
C808 C 0.15735 0.45071 0.35623 0.0
H809 H 0.08375 0.03691 0.4039 0.0
H810 H 0.15862 0.05073 0.34295 0.0
H811 H 0.12729 0.10436 0.32943 0.0
H812 H 0.00803 0.06445 0.37108 0.0
H813 H 0.98865 0.08773 0.39725 0.0
H814 H 0.01767 0.05117 0.40299 0.0
H815 H 0.05731 0.09059 0.43087 0.0
H816 H 0.02812 0.12715 0.42547 0.0
H817 H 0.07418 0.13116 0.41819 0.0
H818 H 0.08471 0.15347 0.32017 0.0
H819 H 0.03819 0.19934 0.31952 0.0
H820 H 0.99336 0.15591 0.3877 0.0
C821 C 0.09383 0.0515 0.38793 0.0
C822 C 0.12363 0.03959 0.37446 0.0
C823 C 0.136 0.05945 0.35367 0.0
C824 C 0.11826 0.08985 0.34574 0.0
C825 C 0.08851 0.10042 0.35905 0.0
C826 C 0.0768 0.08229 0.38003 0.0
C827 C 0.04429 0.09946 0.39111 0.0
C828 C 0.01281 0.07419 0.39056 0.0
C829 C 0.05142 0.11289 0.418 0.0
C830 C 0.03923 0.12965 0.37281 0.0
C831 C 0.06483 0.12955 0.35431 0.0
C832 C 0.0648 0.15407 0.33473 0.0
C833 C 0.03829 0.17978 0.33436 0.0
C834 C 0.01264 0.18095 0.35359 0.0
C835 C 0.01301 0.15548 0.37293 0.0
H836 H 0.93937 0.84506 0.13236 0.0
H837 H 0.00582 0.92921 0.10436 0.0
H838 H 0.95928 0.97212 0.11377 0.0
H839 H 0.85591 0.88225 0.10862 0.0
H840 H 0.83153 0.86763 0.13581 0.0
H841 H 0.86919 0.843 0.12516 0.0
H842 H 0.89671 0.84824 0.16969 0.0
H843 H 0.85945 0.87337 0.18039 0.0
H844 H 0.9031 0.89116 0.18337 0.0
H845 H 0.90859 0.00661 0.12967 0.0
H846 H 0.85273 0.03007 0.14673 0.0
H847 H 0.81784 0.92437 0.16331 0.0
C848 C 0.9439 0.87239 0.12777 0.0
C849 C 0.97636 0.88371 0.11769 0.0
C850 C 0.98122 0.91981 0.11206 0.0
C851 C 0.95498 0.94447 0.11741 0.0
C852 C 0.92384 0.93263 0.12813 0.0
C853 C 0.91782 0.89743 0.13283 0.0
C854 C 0.88208 0.89194 0.14483 0.0
C855 C 0.85827 0.8699 0.12757 0.0
C856 C 0.88557 0.87519 0.17113 0.0
C857 C 0.86937 0.92964 0.14657 0.0
C858 C 0.89402 0.95264 0.13691 0.0
C859 C 0.88894 0.9889 0.13709 0.0
C860 C 0.85747 0.002 0.14698 0.0
C861 C 0.83156 0.97891 0.15636 0.0
C862 C 0.83755 0.94233 0.15627 0.0
H863 H 0.50135 0.85597 0.1679 0.0
H864 H 0.56541 0.77528 0.13258 0.0
H865 H 0.61078 0.81873 0.12358 0.0
H866 H 0.51787 0.91851 0.12064 0.0
H867 H 0.51803 0.95602 0.14143 0.0
H868 H 0.49266 0.91771 0.14943 0.0
H869 H 0.52495 0.91276 0.19234 0.0
H870 H 0.54996 0.95148 0.18469 0.0
H871 H 0.57228 0.91126 0.19293 0.0
H872 H 0.64882 0.87138 0.11685 0.0
H873 H 0.67569 0.93021 0.11199 0.0
H874 H 0.58362 0.9781 0.14577 0.0
C875 C 0.52535 0.84723 0.1589 0.0
C876 C 0.5302 0.8115 0.15228 0.0
C877 C 0.56151 0.80158 0.13956 0.0
C878 C 0.58739 0.82643 0.13381 0.0
C879 C 0.5813 0.86136 0.14018 0.0
C880 C 0.55097 0.87187 0.15231 0.0
C881 C 0.5494 0.91152 0.15493 0.0
C882 C 0.5176 0.92682 0.14076 0.0
C883 C 0.54915 0.92238 0.18288 0.0
C884 C 0.58355 0.92159 0.14224 0.0
C885 C 0.60177 0.89219 0.13419 0.0
C886 C 0.63469 0.89463 0.12285 0.0
C887 C 0.64964 0.92802 0.12006 0.0
C888 C 0.63125 0.9584 0.12799 0.0
C889 C 0.59766 0.9552 0.13892 0.0
H890 H 0.51618 0.57612 0.12889 0.0
H891 H 0.56749 0.67415 0.10975 0.0
H892 H 0.62555 0.64647 0.11719 0.0
H893 H 0.57418 0.5547 0.17998 0.0
H894 H 0.57338 0.50805 0.17403 0.0
H895 H 0.53609 0.53485 0.16569 0.0
H896 H 0.5396 0.51268 0.11949 0.0
H897 H 0.57656 0.48545 0.12778 0.0
H898 H 0.58034 0.51673 0.10239 0.0
H899 H 0.67775 0.60669 0.12454 0.0
H900 H 0.71991 0.55942 0.13277 0.0
H901 H 0.63435 0.48968 0.15303 0.0
C902 C 0.53972 0.59149 0.12585 0.0
C903 C 0.53765 0.62699 0.11834 0.0
C904 C 0.56878 0.64678 0.1153 0.0
C905 C 0.60175 0.63132 0.11953 0.0
C906 C 0.60294 0.59633 0.12735 0.0
C907 C 0.57273 0.57676 0.13067 0.0
C908 C 0.58111 0.54019 0.14022 0.0
C909 C 0.56525 0.53411 0.16654 0.0
C910 C 0.56867 0.51211 0.12134 0.0
C911 C 0.62079 0.54204 0.14136 0.0
C912 C 0.63289 0.57452 0.1337 0.0
C913 C 0.66861 0.58149 0.13133 0.0
C914 C 0.6926 0.55442 0.1366 0.0
C915 C 0.6809 0.52093 0.14488 0.0
C916 C 0.64435 0.51514 0.14746 0.0
H917 H 0.98767 0.64285 0.1649 0.0
H918 H 0.93025 0.71533 0.11699 0.0
H919 H 0.88555 0.67009 0.10933 0.0
H920 H 0.97871 0.57286 0.12314 0.0
H921 H 0.9759 0.53931 0.14706 0.0
H922 H 0.99941 0.57934 0.15338 0.0
H923 H 0.96071 0.59082 0.19279 0.0
H924 H 0.93737 0.5505 0.18681 0.0
H925 H 0.91357 0.59132 0.18961 0.0
H926 H 0.84795 0.61517 0.10542 0.0
H927 H 0.8244 0.55444 0.10261 0.0
H928 H 0.9122 0.51629 0.14687 0.0
C929 C 0.96514 0.64958 0.1534 0.0
C930 C 0.9617 0.68351 0.1428 0.0
C931 C 0.93255 0.69064 0.12689 0.0
C932 C 0.9072 0.66474 0.122 0.0
C933 C 0.91187 0.63147 0.13249 0.0
C934 C 0.94041 0.62376 0.14761 0.0
C935 C 0.94206 0.585 0.15391 0.0
C936 C 0.97603 0.56815 0.14376 0.0
C937 C 0.93819 0.57907 0.18247 0.0
C938 C 0.9102 0.57199 0.13973 0.0
C939 C 0.89258 0.59925 0.12798 0.0
C940 C 0.86172 0.59361 0.11437 0.0
C941 C 0.84861 0.55918 0.11279 0.0
C942 C 0.86704 0.53095 0.12404 0.0
C943 C 0.89817 0.53747 0.13761 0.0
H944 H 0.63009 0.00969 0.64901 0.0
H945 H 0.71535 0.93738 0.63275 0.0
H946 H 0.67285 0.89016 0.62542 0.0
H947 H 0.56798 0.9467 0.67702 0.0
H948 H 0.5308 0.96662 0.66152 0.0
H949 H 0.56824 0.99305 0.66995 0.0
H950 H 0.5737 0.0135 0.62346 0.0
H951 H 0.53667 0.98676 0.61481 0.0
H952 H 0.57807 0.98111 0.59881 0.0
H953 H 0.62024 0.85099 0.61744 0.0
H954 H 0.56223 0.8247 0.60781 0.0
H955 H 0.51196 0.92458 0.624 0.0
C956 C 0.63989 0.98367 0.6446 0.0
C957 C 0.6764 0.97718 0.64278 0.0
C958 C 0.68795 0.94296 0.63595 0.0
C959 C 0.6638 0.91589 0.63125 0.0
C960 C 0.62808 0.9235 0.63283 0.0
C961 C 0.61617 0.95666 0.6392 0.0
C962 C 0.57659 0.95913 0.63708 0.0
C963 C 0.55992 0.96682 0.66293 0.0
C964 C 0.56563 0.98676 0.61737 0.0
C965 C 0.56812 0.92229 0.62822 0.0
C966 C 0.59807 0.90191 0.62628 0.0
C967 C 0.59663 0.86676 0.61882 0.0
C968 C 0.56366 0.85207 0.61335 0.0
C969 C 0.5328 0.87277 0.61482 0.0
C970 C 0.53522 0.90832 0.62226 0.0
H971 H 0.57299 0.51616 0.63477 0.0
H972 H 0.67482 0.56567 0.62644 0.0
H973 H 0.64715 0.62418 0.63011 0.0
H974 H 0.52286 0.57935 0.60021 0.0
H975 H 0.48555 0.57768 0.62111 0.0
H976 H 0.5136 0.53984 0.61776 0.0
H977 H 0.52354 0.53914 0.66615 0.0
H978 H 0.49584 0.5773 0.6696 0.0
H979 H 0.54012 0.57793 0.68161 0.0
H980 H 0.60796 0.67694 0.63126 0.0
H981 H 0.56033 0.72034 0.63078 0.0
H982 H 0.48442 0.63728 0.64349 0.0
C983 C 0.58932 0.53939 0.63355 0.0
C984 C 0.62595 0.5366 0.63016 0.0
C985 C 0.6467 0.5674 0.62908 0.0
C986 C 0.63124 0.60069 0.63118 0.0
C987 C 0.5951 0.60264 0.63484 0.0
C988 C 0.57439 0.57286 0.6362 0.0
C989 C 0.53622 0.58236 0.64043 0.0
C990 C 0.51321 0.56903 0.61857 0.0
C991 C 0.52317 0.56835 0.66597 0.0
C992 C 0.53864 0.62211 0.64056 0.0
C993 C 0.57281 0.63325 0.63731 0.0
C994 C 0.58119 0.66866 0.63463 0.0
C995 C 0.55382 0.69336 0.63486 0.0
C996 C 0.5185 0.68264 0.63831 0.0
C997 C 0.51117 0.64646 0.64154 0.0
H998 H 0.97734 0.57617 0.61691 0.0
H999 H 0.93467 0.68123 0.6269 0.0
H1000 H 0.87824 0.65607 0.64026 0.0
H1001 H 0.89512 0.53593 0.59358 0.0
H1002 H 0.90307 0.49511 0.60989 0.0
H1003 H 0.93951 0.52137 0.59927 0.0
H1004 H 0.96414 0.52217 0.64485 0.0
H1005 H 0.92741 0.49653 0.65571 0.0
H1006 H 0.93696 0.5383 0.6702 0.0
H1007 H 0.82817 0.62054 0.65559 0.0
H1008 H 0.78448 0.57549 0.66762 0.0
H1009 H 0.85804 0.4932 0.64748 0.0
C1010 C 0.95583 0.59379 0.62132 0.0
C1011 C 0.9604 0.63065 0.62084 0.0
C1012 C 0.93181 0.65289 0.62717 0.0
C1013 C 0.89964 0.63889 0.63485 0.0
C1014 C 0.89634 0.60255 0.63606 0.0
C1015 C 0.92335 0.5802 0.62913 0.0
C1016 C 0.91279 0.54209 0.63273 0.0
C1017 C 0.9126 0.52247 0.60736 0.0
C1018 C 0.93676 0.5237 0.65202 0.0
C1019 C 0.87588 0.5467 0.643 0.0
C1020 C 0.86704 0.58184 0.64481 0.0
C1021 C 0.83457 0.5929 0.65399 0.0
C1022 C 0.81 0.56728 0.66079 0.0
C1023 C 0.81796 0.53117 0.65821 0.0
C1024 C 0.85156 0.52075 0.64972 0.0
H1025 H 0.9086 0.96392 0.60485 0.0
H1026 H 0.8296 0.95284 0.6633 0.0
H1027 H 0.85774 0.89819 0.67773 0.0
H1028 H 0.91614 0.86928 0.59094 0.0
H1029 H 0.9628 0.8717 0.58548 0.0
H1030 H 0.93532 0.90921 0.57892 0.0
H1031 H 0.97412 0.94735 0.60831 0.0
H1032 H 0.0014 0.90983 0.61518 0.0
H1033 H 0.98088 0.93383 0.64056 0.0
H1034 H 0.89732 0.84772 0.68842 0.0
H1035 H 0.94213 0.80029 0.69094 0.0
H1036 H 0.99363 0.842 0.62466 0.0
C1037 C 0.89696 0.94965 0.62042 0.0
C1038 C 0.86665 0.96247 0.63278 0.0
C1039 C 0.8523 0.94321 0.65319 0.0
C1040 C 0.86832 0.91226 0.66171 0.0
C1041 C 0.89847 0.90064 0.64944 0.0
C1042 C 0.91233 0.91831 0.62893 0.0
C1043 C 0.945 0.90004 0.61914 0.0
C1044 C 0.93947 0.88676 0.59201 0.0
C1045 C 0.97725 0.92421 0.62092 0.0
C1046 C 0.94759 0.86978 0.63763 0.0
C1047 C 0.92066 0.87078 0.65509 0.0
C1048 C 0.91829 0.84637 0.67467 0.0
C1049 C 0.9438 0.81979 0.67611 0.0
C1050 C 0.97079 0.81774 0.65792 0.0
C1051 C 0.97285 0.84312 0.63859 0.0
H1052 H 0.05222 0.14752 0.85098 0.0
H1053 H 0.02478 0.10303 0.9237 0.0
H1054 H 0.07714 0.06459 0.92175 0.0
H1055 H 0.07871 0.06693 0.8234 0.0
H1056 H 0.114 0.08547 0.80508 0.0
H1057 H 0.07657 0.11213 0.81326 0.0
H1058 H 0.11757 0.15809 0.83399 0.0
H1059 H 0.15519 0.13165 0.82577 0.0
H1060 H 0.14796 0.14431 0.85814 0.0
H1061 H 0.13117 0.02991 0.91147 0.0
H1062 H 0.1819 0.99889 0.89243 0.0
H1063 H 0.17265 0.0628 0.82521 0.0
C1064 C 0.05766 0.13016 0.86671 0.0
C1065 C 0.03475 0.12854 0.88769 0.0
C1066 C 0.04214 0.10481 0.90756 0.0
C1067 C 0.07183 0.08296 0.90663 0.0
C1068 C 0.09362 0.08483 0.88553 0.0
C1069 C 0.08683 0.10765 0.86584 0.0
C1070 C 0.11304 0.10262 0.84455 0.0
C1071 C 0.09446 0.0911 0.82013 0.0
C1072 C 0.13473 0.13617 0.84038 0.0
C1073 C 0.13549 0.07323 0.85527 0.0
C1074 C 0.12404 0.06374 0.8791 0.0
C1075 C 0.14039 0.03718 0.89288 0.0
C1076 C 0.16908 0.01976 0.882 0.0
C1077 C 0.18095 0.02873 0.85755 0.0
C1078 C 0.16394 0.05572 0.84398 0.0
H1079 H 0.34735 0.06188 0.86252 0.0
H1080 H 0.42884 0.99018 0.88825 0.0
H1081 H 0.47344 0.03536 0.88051 0.0
H1082 H 0.39585 0.10228 0.81339 0.0
H1083 H 0.37957 0.14613 0.81892 0.0
H1084 H 0.35298 0.10871 0.8271 0.0
H1085 H 0.34788 0.1311 0.87313 0.0
H1086 H 0.37399 0.1689 0.865 0.0
H1087 H 0.38725 0.14081 0.89068 0.0
H1088 H 0.50987 0.08553 0.86716 0.0
H1089 H 0.53565 0.14259 0.8547 0.0
H1090 H 0.43172 0.18405 0.83993 0.0
C1091 C 0.37451 0.05592 0.86683 0.0
C1092 C 0.38453 0.02241 0.87591 0.0
C1093 C 0.42038 0.01563 0.88136 0.0
C1094 C 0.44604 0.04106 0.87689 0.0
C1095 C 0.43548 0.07339 0.86733 0.0
C1096 C 0.40059 0.08133 0.86287 0.0
C1097 C 0.39664 0.11861 0.85308 0.0
C1098 C 0.38029 0.11893 0.82654 0.0
C1099 C 0.37517 0.14119 0.87158 0.0
C1100 C 0.4348 0.12998 0.85239 0.0
C1101 C 0.45669 0.10322 0.86043 0.0
C1102 C 0.49306 0.10681 0.86098 0.0
C1103 C 0.50747 0.13901 0.85367 0.0
C1104 C 0.48556 0.16714 0.84623 0.0
C1105 C 0.44881 0.16259 0.84541 0.0
H1106 H 0.47729 0.41108 0.89259 0.0
H1107 H 0.43237 0.30639 0.89064 0.0
H1108 H 0.37335 0.33197 0.88464 0.0
H1109 H 0.40223 0.45558 0.92409 0.0
H1110 H 0.40691 0.49464 0.90516 0.0
H1111 H 0.44492 0.4683 0.9126 0.0
H1112 H 0.45887 0.46264 0.86491 0.0
H1113 H 0.42072 0.48855 0.8573 0.0
H1114 H 0.42594 0.44531 0.84387 0.0
H1115 H 0.31997 0.36844 0.87539 0.0
H1116 H 0.27591 0.41371 0.86399 0.0
H1117 H 0.35532 0.49452 0.87068 0.0
C1118 C 0.45488 0.39364 0.89164 0.0
C1119 C 0.45931 0.35677 0.89239 0.0
C1120 C 0.4295 0.33472 0.89028 0.0
C1121 C 0.39588 0.349 0.88688 0.0
C1122 C 0.39246 0.3854 0.88548 0.0
C1123 C 0.4211 0.40748 0.8879 0.0
C1124 C 0.41058 0.44551 0.88378 0.0
C1125 C 0.41651 0.46729 0.90784 0.0
C1126 C 0.43019 0.46142 0.86112 0.0
C1127 C 0.37177 0.44125 0.87822 0.0
C1128 C 0.36176 0.40641 0.87959 0.0
C1129 C 0.32739 0.39586 0.87461 0.0
C1130 C 0.30253 0.42166 0.86824 0.0
C1131 C 0.31222 0.45747 0.86683 0.0
C1132 C 0.34733 0.46726 0.87172 0.0
H1133 H 0.14858 0.43815 0.86941 0.0
H1134 H 0.06394 0.50794 0.89247 0.0
H1135 H 0.02112 0.46102 0.88458 0.0
H1136 H 0.10362 0.39665 0.81957 0.0
H1137 H 0.12092 0.35323 0.82526 0.0
H1138 H 0.14602 0.39132 0.83425 0.0
H1139 H 0.14968 0.36861 0.88025 0.0
H1140 H 0.12502 0.33016 0.87134 0.0
H1141 H 0.10984 0.35762 0.89684 0.0
H1142 H 0.98685 0.40942 0.87091 0.0
H1143 H 0.96324 0.35229 0.85669 0.0
H1144 H 0.06891 0.31408 0.8437 0.0
C1145 C 0.12111 0.44333 0.87323 0.0
C1146 C 0.10968 0.47684 0.8815 0.0
C1147 C 0.07345 0.48258 0.88614 0.0
C1148 C 0.04882 0.4561 0.88165 0.0
C1149 C 0.06077 0.42383 0.87279 0.0
C1150 C 0.09603 0.41698 0.86903 0.0
C1151 C 0.1015 0.3799 0.85914 0.0
C1152 C 0.11905 0.38033 0.833 0.0
C1153 C 0.12277 0.35776 0.87802 0.0
C1154 C 0.06375 0.36739 0.8575 0.0
C1155 C 0.04078 0.39334 0.86537 0.0
C1156 C 0.00454 0.38875 0.8649 0.0
C1157 C 0.99136 0.35648 0.8566 0.0
C1158 C 0.01432 0.32918 0.84906 0.0
C1159 C 0.05097 0.3347 0.84941 0.0
H1160 H 0.68303 0.1975 0.36668 0.0
H1161 H 0.63289 0.2718 0.41721 0.0
H1162 H 0.69049 0.29945 0.42578 0.0
H1163 H 0.76193 0.18555 0.40055 0.0
H1164 H 0.79039 0.18446 0.37338 0.0
H1165 H 0.7453 0.17075 0.37053 0.0
H1166 H 0.73518 0.21598 0.3347 0.0
H1167 H 0.78041 0.22939 0.3371 0.0
H1168 H 0.74582 0.26155 0.33998 0.0
H1169 H 0.75303 0.31354 0.43281 0.0
H1170 H 0.81657 0.32313 0.43154 0.0
H1171 H 0.82684 0.24537 0.37196 0.0
C1172 C 0.68432 0.22012 0.37907 0.0
C1173 C 0.65392 0.23304 0.39117 0.0
C1174 C 0.65609 0.2622 0.40755 0.0
C1175 C 0.68861 0.27773 0.41266 0.0
C1176 C 0.71833 0.26405 0.40082 0.0
C1177 C 0.71648 0.2366 0.38381 0.0
C1178 C 0.75247 0.22779 0.37319 0.0
C1179 C 0.76314 0.18988 0.37982 0.0
C1180 C 0.75352 0.23406 0.34454 0.0
C1181 C 0.77489 0.25429 0.38721 0.0
C1182 C 0.75454 0.27433 0.40337 0.0
C1183 C 0.76909 0.29895 0.41959 0.0
C1184 C 0.80527 0.30441 0.41852 0.0
C1185 C 0.82652 0.28629 0.40077 0.0
C1186 C 0.81121 0.26015 0.38534 0.0
H1187 H 0.31194 0.69407 0.3819 0.0
H1188 H 0.21277 0.63782 0.38137 0.0
H1189 H 0.18089 0.6943 0.38257 0.0
H1190 H 0.28535 0.76424 0.42372 0.0
H1191 H 0.30935 0.79774 0.40701 0.0
H1192 H 0.32468 0.75291 0.40661 0.0
H1193 H 0.32382 0.75336 0.35774 0.0
H1194 H 0.30843 0.79817 0.35797 0.0
H1195 H 0.28389 0.7649 0.3414 0.0
H1196 H 0.15979 0.75556 0.38503 0.0
H1197 H 0.14957 0.81922 0.38584 0.0
H1198 H 0.26205 0.83775 0.38254 0.0
C1199 C 0.28351 0.69366 0.38213 0.0
C1200 C 0.26477 0.6615 0.38166 0.0
C1201 C 0.22762 0.66208 0.38168 0.0
C1202 C 0.2093 0.69402 0.38244 0.0
C1203 C 0.22851 0.72516 0.38293 0.0
C1204 C 0.26475 0.72539 0.38257 0.0
C1205 C 0.27881 0.76278 0.38259 0.0
C1206 C 0.30084 0.76982 0.4064 0.0
C1207 C 0.29999 0.77023 0.35849 0.0
C1208 C 0.24469 0.78353 0.38298 0.0
C1209 C 0.21615 0.76107 0.38345 0.0
C1210 C 0.18186 0.77343 0.38453 0.0
C1211 C 0.1764 0.80973 0.38506 0.0
C1212 C 0.20502 0.83353 0.38419 0.0
C1213 C 0.2397 0.8202 0.38302 0.0
H1214 H 0.32463 0.72738 0.08739 0.0
H1215 H 0.33821 0.70376 0.16678 0.0
H1216 H 0.27522 0.71631 0.17436 0.0
H1217 H 0.26674 0.80149 0.09767 0.0
H1218 H 0.2407 0.79296 0.06994 0.0
H1219 H 0.2862 0.78006 0.07072 0.0
H1220 H 0.26831 0.71606 0.05992 0.0
H1221 H 0.22267 0.72866 0.05951 0.0
H1222 H 0.23724 0.6935 0.07979 0.0
H1223 H 0.21056 0.72854 0.17275 0.0
H1224 H 0.15069 0.75094 0.16391 0.0
H1225 H 0.18093 0.77293 0.08666 0.0
C1226 C 0.31419 0.72515 0.10634 0.0
C1227 C 0.33575 0.71476 0.12659 0.0
C1228 C 0.32175 0.71208 0.1512 0.0
C1229 C 0.2861 0.71878 0.15559 0.0
C1230 C 0.26524 0.72869 0.13519 0.0
C1231 C 0.2789 0.73278 0.11118 0.0
C1232 C 0.25139 0.74629 0.09298 0.0
C1233 C 0.26189 0.78234 0.0822 0.0
C1234 C 0.2445 0.71952 0.0718 0.0
C1235 C 0.22019 0.74924 0.11055 0.0
C1236 C 0.22849 0.73804 0.13464 0.0
C1237 C 0.20376 0.73761 0.15402 0.0
C1238 C 0.16986 0.75007 0.14882 0.0
C1239 C 0.16159 0.76349 0.12468 0.0
C1240 C 0.18686 0.76269 0.10526 0.0
H1241 H 0.73842 0.32831 0.1274 0.0
H1242 H 0.84654 0.31101 0.15024 0.0
H1243 H 0.8345 0.248 0.15611 0.0
H1244 H 0.69798 0.26226 0.16917 0.0
H1245 H 0.66669 0.24842 0.14567 0.0
H1246 H 0.68253 0.29304 0.14578 0.0
H1247 H 0.70246 0.28605 0.09928 0.0
H1248 H 0.68689 0.24139 0.09909 0.0
H1249 H 0.73188 0.25071 0.09095 0.0
H1250 H 0.81245 0.18733 0.15759 0.0
H1251 H 0.78155 0.13083 0.15331 0.0
H1252 H 0.68814 0.18608 0.12763 0.0
C1253 C 0.75921 0.31123 0.1341 0.0
C1254 C 0.79327 0.32426 0.13856 0.0
C1255 C 0.82025 0.30129 0.14673 0.0
C1256 C 0.81367 0.26556 0.15022 0.0
C1257 C 0.78006 0.25325 0.14523 0.0
C1258 C 0.75324 0.27518 0.13726 0.0
C1259 C 0.7203 0.25443 0.13143 0.0
C1260 C 0.69009 0.26518 0.14907 0.0
C1261 C 0.70978 0.25838 0.10353 0.0
C1262 C 0.73309 0.21755 0.13712 0.0
C1263 C 0.7675 0.21761 0.14533 0.0
C1264 C 0.78541 0.18681 0.15132 0.0
C1265 C 0.76766 0.15489 0.14879 0.0
C1266 C 0.7325 0.1541 0.14013 0.0
C1267 C 0.71502 0.18589 0.1343 0.0
H1268 H 0.18813 0.68847 0.60197 0.0
H1269 H 0.13523 0.78042 0.63254 0.0
H1270 H 0.19123 0.81236 0.6329 0.0
H1271 H 0.26692 0.69783 0.63927 0.0
H1272 H 0.29595 0.68325 0.61451 0.0
H1273 H 0.25142 0.66739 0.61569 0.0
H1274 H 0.24106 0.6891 0.57004 0.0
H1275 H 0.28552 0.7051 0.56863 0.0
H1276 H 0.24939 0.73448 0.56229 0.0
H1277 H 0.25095 0.83508 0.62898 0.0
H1278 H 0.31383 0.8471 0.6233 0.0
H1279 H 0.3307 0.73973 0.59817 0.0
C1280 C 0.18834 0.71523 0.60881 0.0
C1281 C 0.15728 0.73187 0.61732 0.0
C1282 C 0.15868 0.76704 0.62603 0.0
C1283 C 0.19034 0.78547 0.62627 0.0
C1284 C 0.22043 0.76826 0.61798 0.0
C1285 C 0.21995 0.73392 0.60959 0.0
C1286 C 0.25654 0.72162 0.60232 0.0
C1287 C 0.2684 0.69069 0.61895 0.0
C1288 C 0.25821 0.71202 0.57415 0.0
C1289 C 0.27751 0.75459 0.60794 0.0
C1290 C 0.25584 0.78115 0.61668 0.0
C1291 C 0.2683 0.81452 0.62232 0.0
C1292 C 0.30399 0.82108 0.61894 0.0
C1293 C 0.32691 0.79428 0.61038 0.0
C1294 C 0.31364 0.76047 0.60499 0.0
H1295 H 0.73525 0.16553 0.61929 0.0
H1296 H 0.84713 0.1846 0.62776 0.0
H1297 H 0.83608 0.24795 0.63097 0.0
H1298 H 0.71889 0.24267 0.58031 0.0
H1299 H 0.67655 0.25185 0.59403 0.0
H1300 H 0.69267 0.20732 0.59282 0.0
H1301 H 0.68457 0.20173 0.64121 0.0
H1302 H 0.66849 0.24626 0.64256 0.0
H1303 H 0.70534 0.23322 0.66178 0.0
H1304 H 0.81404 0.30827 0.63489 0.0
H1305 H 0.78164 0.3643 0.63621 0.0
H1306 H 0.68398 0.30842 0.62281 0.0
C1307 C 0.75728 0.18314 0.62186 0.0
C1308 C 0.792 0.17016 0.62334 0.0
C1309 C 0.82029 0.19395 0.62645 0.0
C1310 C 0.81435 0.23002 0.62839 0.0
C1311 C 0.77999 0.24205 0.62686 0.0
C1312 C 0.75188 0.2196 0.62337 0.0
C1313 C 0.71772 0.24007 0.62166 0.0
C1314 C 0.70045 0.23519 0.59566 0.0
C1315 C 0.69255 0.2297 0.64308 0.0
C1316 C 0.73122 0.27729 0.62505 0.0
C1317 C 0.76721 0.27762 0.62819 0.0
C1318 C 0.78585 0.30852 0.6323 0.0
C1319 C 0.76721 0.34017 0.6331 0.0
C1320 C 0.73038 0.34067 0.62955 0.0
C1321 C 0.71219 0.30879 0.62542 0.0
H1322 H 0.82333 0.23345 0.91627 0.0
H1323 H 0.8471 0.2349 0.83629 0.0
H1324 H 0.78512 0.24962 0.82686 0.0
H1325 H 0.73912 0.19666 0.91327 0.0
H1326 H 0.71986 0.22416 0.93729 0.0
H1327 H 0.76621 0.21472 0.93796 0.0
H1328 H 0.78027 0.28141 0.9379 0.0
H1329 H 0.73392 0.29105 0.93769 0.0
H1330 H 0.76198 0.30906 0.91358 0.0
H1331 H 0.71945 0.25732 0.82613 0.0
H1332 H 0.65652 0.26958 0.83436 0.0
H1333 H 0.67696 0.26988 0.91482 0.0
C1334 C 0.81548 0.23755 0.89684 0.0
C1335 C 0.83968 0.23317 0.87694 0.0
C1336 C 0.82881 0.2386 0.85173 0.0
C1337 C 0.79369 0.24664 0.84622 0.0
C1338 C 0.77017 0.25 0.86622 0.0
C1339 C 0.7808 0.24675 0.89107 0.0
C1340 C 0.75049 0.25289 0.90906 0.0
C1341 C 0.74352 0.22015 0.92535 0.0
C1342 C 0.75706 0.28555 0.92552 0.0
C1343 C 0.72101 0.25916 0.89042 0.0
C1344 C 0.73279 0.25679 0.8658 0.0
C1345 C 0.71 0.25978 0.84531 0.0
C1346 C 0.67436 0.26636 0.85012 0.0
C1347 C 0.66224 0.27056 0.87515 0.0
C1348 C 0.6858 0.26679 0.89551 0.0
H1349 H 0.26218 0.82399 0.90585 0.0
H1350 H 0.26897 0.84162 0.82524 0.0
H1351 H 0.25699 0.77846 0.81757 0.0
H1352 H 0.30235 0.7418 0.90823 0.0
H1353 H 0.27344 0.72307 0.93153 0.0
H1354 H 0.28066 0.76983 0.93083 0.0
H1355 H 0.21371 0.7812 0.92668 0.0
H1356 H 0.2062 0.73453 0.92822 0.0
H1357 H 0.18937 0.75955 0.90199 0.0
H1358 H 0.25109 0.71228 0.81929 0.0
H1359 H 0.23721 0.65023 0.8295 0.0
H1360 H 0.22915 0.67736 0.90868 0.0
C1361 C 0.26003 0.81462 0.8866 0.0
C1362 C 0.26601 0.83734 0.86606 0.0
C1363 C 0.26367 0.82446 0.84111 0.0
C1364 C 0.2574 0.78866 0.83664 0.0
C1365 C 0.25288 0.76655 0.85737 0.0
C1366 C 0.25283 0.77926 0.88182 0.0
C1367 C 0.24627 0.75025 0.90075 0.0
C1368 C 0.27755 0.746 0.9189 0.0
C1369 C 0.21184 0.75677 0.91525 0.0
C1370 C 0.24322 0.7191 0.88316 0.0
C1371 C 0.24785 0.72888 0.85826 0.0
C1372 C 0.24709 0.70436 0.83868 0.0
C1373 C 0.23974 0.6692 0.84465 0.0
C1374 C 0.23269 0.65932 0.86984 0.0
C1375 C 0.23501 0.68441 0.88933 0.0
H1376 H 0.68885 0.12006 0.4613 0.0
H1377 H 0.64524 0.01527 0.45742 0.0
H1378 H 0.693 0.99329 0.48491 0.0
H1379 H 0.78501 0.09314 0.46608 0.0
H1380 H 0.79389 0.12805 0.48817 0.0
H1381 H 0.76103 0.13394 0.46401 0.0
H1382 H 0.71499 0.1494 0.49826 0.0
H1383 H 0.74753 0.14349 0.52243 0.0
H1384 H 0.70716 0.11887 0.52365 0.0
H1385 H 0.73735 0.98526 0.51845 0.0
H1386 H 0.77511 0.9917 0.55607 0.0
H1387 H 0.79231 0.10119 0.53777 0.0
C1388 C 0.69049 0.09221 0.46524 0.0
C1389 C 0.66408 0.06902 0.4567 0.0
C1390 C 0.6657 0.03313 0.46345 0.0
C1391 C 0.69277 0.02049 0.47893 0.0
C1392 C 0.71806 0.04413 0.4875 0.0
C1393 C 0.71733 0.07925 0.48078 0.0
C1394 C 0.74472 0.10005 0.49524 0.0
C1395 C 0.77284 0.11465 0.4773 0.0
C1396 C 0.72756 0.12967 0.51082 0.0
C1397 C 0.75975 0.0715 0.51206 0.0
C1398 C 0.74438 0.03932 0.50695 0.0
C1399 C 0.75045 0.00997 0.52209 0.0
C1400 C 0.77192 0.0138 0.54337 0.0
C1401 C 0.78734 0.04658 0.54915 0.0
C1402 C 0.782 0.07552 0.53296 0.0
H1403 H 0.40235 0.80554 0.51637 0.0
H1404 H 0.50256 0.77122 0.54635 0.0
H1405 H 0.51211 0.73424 0.50883 0.0
H1406 H 0.37607 0.72557 0.49581 0.0
H1407 H 0.35458 0.73921 0.46712 0.0
H1408 H 0.35861 0.7695 0.49299 0.0
H1409 H 0.38997 0.81434 0.46399 0.0
H1410 H 0.38544 0.78429 0.43787 0.0
H1411 H 0.42817 0.80087 0.44634 0.0
H1412 H 0.50593 0.69269 0.47348 0.0
H1413 H 0.48504 0.65069 0.44136 0.0
H1414 H 0.39058 0.71309 0.43153 0.0
C1415 C 0.42698 0.79155 0.51429 0.0
C1416 C 0.45208 0.79163 0.53391 0.0
C1417 C 0.48333 0.77179 0.53128 0.0
C1418 C 0.48899 0.75074 0.51003 0.0
C1419 C 0.46316 0.74982 0.49148 0.0
C1420 C 0.43294 0.77004 0.4931 0.0
C1421 C 0.40756 0.7607 0.47202 0.0
C1422 C 0.37213 0.74799 0.48264 0.0
C1423 C 0.4025 0.79191 0.45398 0.0
C1424 C 0.42747 0.73093 0.45931 0.0
C1425 C 0.45965 0.72545 0.47065 0.0
C1426 C 0.48113 0.6972 0.46404 0.0
C1427 C 0.46906 0.67344 0.44578 0.0
C1428 C 0.43573 0.67786 0.43438 0.0
C1429 C 0.41551 0.70798 0.44051 0.0
H1430 H 0.81423 0.39421 0.46313 0.0
H1431 H 0.8704 0.4926 0.4691 0.0
H1432 H 0.82639 0.51413 0.49985 0.0
H1433 H 0.72221 0.43156 0.47257 0.0
H1434 H 0.70939 0.39367 0.49077 0.0
H1435 H 0.74085 0.38907 0.46554 0.0
H1436 H 0.78492 0.36081 0.49669 0.0
H1437 H 0.75399 0.36565 0.52205 0.0
H1438 H 0.79726 0.38439 0.52484 0.0
H1439 H 0.78416 0.52003 0.53521 0.0
H1440 H 0.74501 0.5111 0.57176 0.0
H1441 H 0.71385 0.40979 0.54192 0.0
C1442 C 0.81602 0.42104 0.46972 0.0
C1443 C 0.84495 0.44235 0.46309 0.0
C1444 C 0.84791 0.47637 0.47358 0.0
C1445 C 0.82305 0.48873 0.49098 0.0
C1446 C 0.79529 0.46672 0.49764 0.0
C1447 C 0.79135 0.43371 0.4871 0.0
C1448 C 0.76181 0.41358 0.49973 0.0
C1449 C 0.73178 0.40657 0.48104 0.0
C1450 C 0.77533 0.3791 0.51152 0.0
C1451 C 0.75083 0.43977 0.5198 0.0
C1452 C 0.77026 0.4704 0.51806 0.0
C1453 C 0.76804 0.49669 0.53631 0.0
C1454 C 0.74586 0.49135 0.55704 0.0
C1455 C 0.72597 0.46013 0.55927 0.0
C1456 C 0.72786 0.43442 0.54012 0.0
H1457 H 0.05063 0.78455 0.56605 0.0
H1458 H 0.02876 0.68832 0.52512 0.0
H1459 H 0.02445 0.72226 0.48536 0.0
H1460 H 0.99619 0.84489 0.52802 0.0
H1461 H 0.0283 0.87958 0.52958 0.0
H1462 H 0.02449 0.84858 0.55515 0.0
H1463 H 0.09061 0.83331 0.55084 0.0
H1464 H 0.09462 0.86418 0.52531 0.0
H1465 H 0.10745 0.819 0.52074 0.0
H1466 H 0.02616 0.76619 0.44981 0.0
H1467 H 0.03961 0.8155 0.42078 0.0
H1468 H 0.0643 0.88196 0.48457 0.0
C1469 C 0.04408 0.77076 0.5488 0.0
C1470 C 0.03945 0.73392 0.54864 0.0
C1471 C 0.03208 0.71659 0.52562 0.0
C1472 C 0.02944 0.73567 0.50301 0.0
C1473 C 0.03462 0.77196 0.50376 0.0
C1474 C 0.04212 0.78927 0.52605 0.0
C1475 C 0.05045 0.82766 0.52143 0.0
C1476 C 0.02323 0.85159 0.53431 0.0
C1477 C 0.08801 0.83653 0.53009 0.0
C1478 C 0.04714 0.82915 0.49298 0.0
C1479 C 0.03723 0.79694 0.48319 0.0
C1480 C 0.03364 0.79157 0.45729 0.0
C1481 C 0.04115 0.81962 0.44097 0.0
C1482 C 0.05274 0.85224 0.45061 0.0
C1483 C 0.05519 0.85721 0.47692 0.0
H1484 H 0.29259 0.91158 0.96611 0.0
H1485 H 0.23449 0.99366 0.92734 0.0
H1486 H 0.19494 0.99932 0.96391 0.0
H1487 H 0.21933 0.86959 0.99116 0.0
H1488 H 0.23915 0.85787 0.02088 0.0
H1489 H 0.26621 0.86348 0.99334 0.0
H1490 H 0.30374 0.90976 0.01692 0.0
H1491 H 0.27693 0.90408 0.04465 0.0
H1492 H 0.28255 0.94723 0.0312 0.0
H1493 H 0.15832 0.99235 1.0025 0.0
H1494 H 0.12616 0.97193 0.04022 0.0
H1495 H 0.20784 0.895 0.05466 0.0
C1496 C 0.27216 0.93142 0.96565 0.0
C1497 C 0.26686 0.95247 0.944 0.0
C1498 C 0.23919 0.97742 0.94378 0.0
C1499 C 0.21663 0.98091 0.9645 0.0
C1500 C 0.22202 0.95924 0.98532 0.0
C1501 C 0.24912 0.93502 0.98613 0.0
C1502 C 0.24716 0.91284 0.00988 0.0
C1503 C 0.24269 0.87364 0.00341 0.0
C1504 C 0.27952 0.91885 0.02666 0.0
C1505 C 0.21424 0.92781 0.0219 0.0
C1506 C 0.20042 0.95481 0.00756 0.0
C1507 C 0.1691 0.9715 0.01405 0.0
C1508 C 0.15106 0.95981 0.0355 0.0
C1509 C 0.16415 0.93151 0.05009 0.0
C1510 C 0.1967 0.91606 0.04354 0.0
H1511 H 0.60147 0.19229 0.06521 0.0
H1512 H 0.53407 0.10424 0.04671 0.0
H1513 H 0.51528 0.13452 0.00777 0.0
H1514 H 0.5452 0.26191 0.03914 0.0
H1515 H 0.58173 0.28679 0.02699 0.0
H1516 H 0.58724 0.25995 0.05475 0.0
H1517 H 0.63893 0.22718 0.03333 0.0
H1518 H 0.63362 0.25389 0.00554 0.0
H1519 H 0.63224 0.20665 1.00304 0.0
H1520 H 0.50844 0.17084 0.96916 0.0
H1521 H 0.51217 0.21213 0.93355 0.0
H1522 H 0.58435 0.27734 0.97617 0.0
C1523 C 0.58291 0.17933 0.05291 0.0
C1524 C 0.56966 0.14555 0.05876 0.0
C1525 C 0.54448 0.13006 0.04258 0.0
C1526 C 0.53375 0.14703 0.02041 0.0
C1527 C 0.54819 0.17971 0.01477 0.0
C1528 C 0.57204 0.19589 0.03058 0.0
C1529 C 0.5848 0.23032 0.01936 0.0
C1530 C 0.57409 0.26159 0.03606 0.0
C1531 C 0.62476 0.22944 0.01506 0.0
C1532 C 0.5649 0.23054 0.99453 0.0
C1533 C 0.54383 0.20112 0.99242 0.0
C1534 C 0.52445 0.19422 0.97072 0.0
C1535 C 0.52682 0.21781 0.95054 0.0
C1536 C 0.54829 0.24811 0.95211 0.0
C1537 C 0.56723 0.25474 0.97458 0.0
H1538 H 0.25811 0.52349 0.9447 0.0
H1539 H 0.17393 0.59146 0.97084 0.0
H1540 H 0.20403 0.59804 0.01175 0.0
H1541 H 0.27773 0.48178 0.00799 0.0
H1542 H 0.32418 0.48103 1.00144 0.0
H1543 H 0.29303 0.47642 0.97603 0.0
H1544 H 0.32179 0.52894 0.95291 0.0
H1545 H 0.35279 0.53392 0.97821 0.0
H1546 H 0.32563 0.57058 0.96895 0.0
H1547 H 0.24842 0.60764 0.04513 0.0
H1548 H 0.30144 0.61626 0.07005 0.0
H1549 H 0.3558 0.53779 0.02525 0.0
C1550 C 0.24547 0.53889 0.95931 0.0
C1551 C 0.21364 0.55693 0.95459 0.0
C1552 C 0.19817 0.5772 0.97406 0.0
C1553 C 0.21506 0.58105 0.99739 0.0
C1554 C 0.24705 0.56394 1.00112 0.0
C1555 C 0.26184 0.54275 0.98278 0.0
C1556 C 0.29797 0.53 0.99064 0.0
C1557 C 0.29823 0.48992 0.99425 0.0
C1558 C 0.32618 0.54158 0.97155 0.0
C1559 C 0.30197 0.54891 0.01565 0.0
C1560 C 0.27213 0.56802 0.02143 0.0
C1561 C 0.27129 0.59144 0.04158 0.0
C1562 C 0.30173 0.59575 0.05605 0.0
C1563 C 0.33265 0.57614 0.05081 0.0
C1564 C 0.33228 0.55209 0.03044 0.0
H1565 H 0.9215 0.29761 0.06877 0.0
H1566 H 0.97887 0.3904 0.04558 0.0
H1567 H 0.99506 0.3609 0.00565 0.0
H1568 H 0.9784 0.23122 0.03794 0.0
H1569 H 0.94163 0.20436 0.02867 0.0
H1570 H 0.93914 0.23058 0.05696 0.0
H1571 H 0.88249 0.26033 0.04025 0.0
H1572 H 0.88486 0.23435 0.01191 0.0
H1573 H 0.8831 0.28163 0.00987 0.0
H1574 H 0.99843 0.32476 0.96627 0.0
H1575 H 0.9909 0.28381 0.93076 0.0
H1576 H 0.9298 0.21437 0.97854 0.0
C1577 C 0.9376 0.31163 0.05535 0.0
C1578 C 0.94849 0.34658 0.06011 0.0
C1579 C 0.97036 0.36363 0.04234 0.0
C1580 C 0.97953 0.34712 0.01958 0.0
C1581 C 0.96687 0.31335 0.01492 0.0
C1582 C 0.94661 0.29563 0.03238 0.0
C1583 C 0.93414 0.26063 0.02191 0.0
C1584 C 0.94924 0.22988 0.03729 0.0
C1585 C 0.89376 0.25917 0.02092 0.0
C1586 C 0.94988 0.26181 0.99561 0.0
C1587 C 0.9689 0.29234 0.9921 0.0
C1588 C 0.98412 0.30049 0.96895 0.0
C1589 C 0.97966 0.27699 0.94882 0.0
C1590 C 0.96017 0.24555 0.95181 0.0
C1591 C 0.9454 0.23781 0.9757 0.0
H1592 H 0.36843 0.95172 0.51771 0.0
H1593 H 0.29894 0.95239 0.58218 0.0
H1594 H 0.24795 0.96266 0.55393 0.0
H1595 H 0.31931 0.01968 0.48026 0.0
H1596 H 0.32766 0.99751 0.45084 0.0
H1597 H 0.35934 0.99494 0.47606 0.0
H1598 H 0.35713 0.92706 0.47477 0.0
H1599 H 0.32598 0.92902 0.44931 0.0
H1600 H 0.31542 0.90507 0.47766 0.0
H1601 H 0.20414 0.96274 0.51788 0.0
H1602 H 0.17175 0.95835 0.47748 0.0
H1603 H 0.2706 0.96142 0.43684 0.0
C1604 C 0.34256 0.9554 0.52578 0.0
C1605 C 0.33733 0.95185 0.55197 0.0
C1606 C 0.30323 0.95578 0.56213 0.0
C1607 C 0.27424 0.96138 0.54622 0.0
C1608 C 0.28004 0.96357 0.52027 0.0
C1609 C 0.3135 0.96143 0.51017 0.0
C1610 C 0.31254 0.96246 0.48163 0.0
C1611 C 0.33082 0.99563 0.47162 0.0
C1612 C 0.32871 0.92891 0.47018 0.0
C1613 C 0.27331 0.96407 0.4772 0.0
C1614 C 0.25492 0.96478 0.49966 0.0
C1615 C 0.2183 0.96306 0.50017 0.0
C1616 C 0.20011 0.96046 0.47715 0.0
C1617 C 0.21856 0.95982 0.45394 0.0
C1618 C 0.25559 0.96228 0.45415 0.0
H1619 H 0.60499 0.30551 0.56265 0.0
H1620 H 0.51914 0.37868 0.55154 0.0
H1621 H 0.49637 0.34165 0.51673 0.0
H1622 H 0.62187 0.29223 0.49786 0.0
H1623 H 0.63346 0.24647 0.50099 0.0
H1624 H 0.63996 0.27603 0.52708 0.0
H1625 H 0.60218 0.23568 0.55553 0.0
H1626 H 0.59532 0.20607 0.52944 0.0
H1627 H 0.55817 0.22446 0.54592 0.0
H1628 H 0.48611 0.29976 0.48102 0.0
H1629 H 0.49002 0.25739 0.4459 0.0
H1630 H 0.58472 0.21317 0.4785 0.0
C1631 C 0.58153 0.31374 0.55273 0.0
C1632 C 0.56418 0.34533 0.55922 0.0
C1633 C 0.53284 0.35469 0.54658 0.0
C1634 C 0.51977 0.33381 0.52688 0.0
C1635 C 0.53826 0.3035 0.52026 0.0
C1636 C 0.5685 0.29348 0.53278 0.0
C1637 C 0.58499 0.26134 0.52065 0.0
C1638 C 0.62226 0.26952 0.51107 0.0
C1639 C 0.58516 0.23003 0.53899 0.0
C1640 C 0.55971 0.2553 0.49899 0.0
C1641 C 0.53267 0.27962 0.49936 0.0
C1642 C 0.50706 0.2805 0.4806 0.0
C1643 C 0.50965 0.25653 0.4606 0.0
C1644 C 0.53779 0.23224 0.45933 0.0
C1645 C 0.56262 0.23111 0.47915 0.0
H1646 H 0.24716 0.51686 0.4495 0.0
H1647 H 0.3272 0.59154 0.47205 0.0
H1648 H 0.29603 0.60129 0.51224 0.0
H1649 H 0.17765 0.56502 0.46877 0.0
H1650 H 0.1508 0.52932 0.48002 0.0
H1651 H 0.18297 0.52145 0.45589 0.0
H1652 H 0.21211 0.47308 0.48295 0.0
H1653 H 0.17965 0.4801 0.50721 0.0
H1654 H 0.22573 0.48284 0.51477 0.0
H1655 H 0.25032 0.61279 0.54484 0.0
H1656 H 0.19599 0.62217 0.5687 0.0
H1657 H 0.14539 0.53878 0.52653 0.0
C1658 C 0.25858 0.53463 0.46313 0.0
C1659 C 0.28944 0.55368 0.45749 0.0
C1660 C 0.3037 0.57649 0.47595 0.0
C1661 C 0.28612 0.58223 0.49886 0.0
C1662 C 0.25463 0.56456 0.5032 0.0
C1663 C 0.24127 0.54073 0.48603 0.0
C1664 C 0.20511 0.52814 0.49386 0.0
C1665 C 0.17753 0.53651 0.47343 0.0
C1666 C 0.2057 0.48869 0.50007 0.0
C1667 C 0.19941 0.55003 0.51741 0.0
C1668 C 0.22851 0.57044 0.52268 0.0
C1669 C 0.22797 0.59582 0.54162 0.0
C1670 C 0.19691 0.60066 0.5554 0.0
C1671 C 0.16674 0.57991 0.55051 0.0
C1672 C 0.16838 0.55408 0.53135 0.0
H1673 H 0.93829 0.1213 0.52927 0.0
H1674 H 0.9601 0.18969 0.59251 0.0
H1675 H 0.97108 0.23915 0.56306 0.0
H1676 H 0.00285 0.16214 0.48395 0.0
H1677 H 0.97335 0.15622 0.4577 0.0
H1678 H 0.97304 0.12538 0.48352 0.0
H1679 H 0.90634 0.13623 0.48951 0.0
H1680 H 0.90648 0.1674 0.46401 0.0
H1681 H 0.89063 0.18038 0.49468 0.0
H1682 H 0.96947 0.28289 0.52718 0.0
H1683 H 0.96149 0.31623 0.48746 0.0
H1684 H 0.94283 0.21861 0.44738 0.0
C1685 C 0.94668 0.14643 0.53671 0.0
C1686 C 0.94877 0.15188 0.56301 0.0
C1687 C 0.95902 0.18511 0.57236 0.0
C1688 C 0.96505 0.21328 0.55578 0.0
C1689 C 0.96128 0.20749 0.5299 0.0
C1690 C 0.95305 0.17466 0.52038 0.0
C1691 C 0.948 0.17589 0.49202 0.0
C1692 C 0.97598 0.15359 0.47851 0.0
C1693 C 0.91065 0.1643 0.48464 0.0
C1694 C 0.95349 0.21472 0.48717 0.0
C1695 C 0.96119 0.23255 0.50922 0.0
C1696 C 0.96428 0.26909 0.50972 0.0
C1697 C 0.95952 0.28784 0.48712 0.0
C1698 C 0.95199 0.26999 0.4643 0.0
C1699 C 0.94933 0.23293 0.46441 0.0
H1700 H 0.80648 0.12057 0.96114 0.0
H1701 H 0.87713 0.03129 0.96788 0.0
H1702 H 0.83963 0.00673 1.00127 0.0
H1703 H 0.7943 0.13116 0.02737 0.0
H1704 H 0.74898 0.14452 0.0249 0.0
H1705 H 0.77884 0.15304 0.9993 0.0
H1706 H 0.73731 0.12 0.96877 0.0
H1707 H 0.70753 0.11095 0.99439 0.0
H1708 H 0.72482 0.07532 0.97568 0.0
H1709 H 0.7978 0.99351 0.03551 0.0
H1710 H 0.75642 0.99454 0.07118 0.0
H1711 H 0.71457 0.09424 0.04519 0.0
C1712 C 0.81469 0.09631 0.96987 0.0
C1713 C 0.84554 0.07836 0.96209 0.0
C1714 C 0.8538 0.04562 0.97344 0.0
C1715 C 0.83261 0.0314 0.99242 0.0
C1716 C 0.80303 0.05014 1.0 0.0
C1717 C 0.79412 0.082 0.98929 0.0
C1718 C 0.76241 0.098 1.00245 0.0
C1719 C 0.7717 0.13379 0.01421 0.0
C1720 C 0.73117 0.10125 0.98423 0.0
C1721 C 0.7555 0.07044 0.02258 0.0
C1722 C 0.77894 0.04279 0.0204 0.0
C1723 C 0.77921 0.0149 0.03737 0.0
C1724 C 0.75573 0.01579 0.05764 0.0
C1725 C 0.73247 0.04446 0.06098 0.0
C1726 C 0.73165 0.07168 0.04281 0.0
H1727 H 0.3924 0.79408 0.94268 0.0
H1728 H 0.46637 0.87787 0.95809 0.0
H1729 H 0.48765 0.84576 0.99561 0.0
H1730 H 0.36787 0.77951 0.00609 0.0
H1731 H 0.36375 0.73251 1.00306 0.0
H1732 H 0.35688 0.76029 0.97601 0.0
H1733 H 0.40436 0.72552 0.95138 0.0
H1734 H 0.41149 0.69767 0.97842 0.0
H1735 H 0.44781 0.72104 0.96453 0.0
H1736 H 0.49639 0.80831 0.03352 0.0
H1737 H 0.49331 0.76676 0.06919 0.0
H1738 H 0.4141 0.7064 0.02942 0.0
C1739 C 0.41295 0.80568 0.95401 0.0
C1740 C 0.42741 0.83874 0.94776 0.0
C1741 C 0.45503 0.85256 0.96261 0.0
C1742 C 0.46722 0.83455 0.98393 0.0
C1743 C 0.45179 0.80249 0.98998 0.0
C1744 C 0.42541 0.788 0.97541 0.0
C1745 C 0.41214 0.75399 0.98686 0.0
C1746 C 0.37284 0.75676 0.99339 0.0
C1747 C 0.4194 0.72271 0.96924 0.0
C1748 C 0.43463 0.75211 0.01043 0.0
C1749 C 0.45743 0.7803 0.01175 0.0
C1750 C 0.47911 0.7858 0.03254 0.0
C1751 C 0.47712 0.76212 0.05271 0.0
C1752 C 0.45381 0.73319 0.05187 0.0
C1753 C 0.43275 0.72783 0.03026 0.0
H1754 H 0.74132 0.46268 0.06205 0.0
H1755 H 0.82712 0.3957 0.03757 0.0
H1756 H 0.79675 0.38589 0.99693 0.0
H1757 H 0.67432 0.41304 0.03884 0.0
H1758 H 0.64674 0.44903 0.02889 0.0
H1759 H 0.67761 0.45525 0.05414 0.0
H1760 H 0.70576 0.50736 0.03011 0.0
H1761 H 0.67477 0.50146 0.00474 0.0
H1762 H 0.72124 0.50105 0.99828 0.0
H1763 H 0.75189 0.37422 0.96328 0.0
H1764 H 0.6991 0.36527 0.9379 0.0
H1765 H 0.64422 0.44442 0.98172 0.0
C1766 C 0.75419 0.44671 0.04787 0.0
C1767 C 0.78658 0.42993 0.05294 0.0
C1768 C 0.80246 0.40901 0.03401 0.0
C1769 C 0.78537 0.40329 0.01087 0.0
C1770 C 0.75286 0.41934 0.0068 0.0
C1771 C 0.73776 0.44118 0.02461 0.0
C1772 C 0.70154 0.4532 0.01647 0.0
C1773 C 0.67342 0.44194 0.03572 0.0
C1774 C 0.7008 0.49315 0.01214 0.0
C1775 C 0.69786 0.43338 0.99184 0.0
C1776 C 0.72782 0.41419 0.98651 0.0
C1777 C 0.72892 0.39038 0.96657 0.0
C1778 C 0.69864 0.38587 0.95185 0.0
C1779 C 0.66766 0.40559 0.9567 0.0
C1780 C 0.66776 0.42992 0.97688 0.0
H1781 H 0.09358 0.79643 0.0265 0.0
H1782 H -0.00018 0.74969 0.05861 0.0
H1783 H 0.99197 0.71405 0.02027 0.0
H1784 H 0.06335 0.7952 0.95866 0.0
H1785 H 0.10656 0.78375 0.9474 0.0
H1786 H 0.10171 0.81018 0.97544 0.0
H1787 H 0.13953 0.76541 1.00035 0.0
H1788 H 0.14418 0.73876 0.9725 0.0
H1789 H 0.12662 0.71983 1.001 0.0
H1790 H 0.99842 0.6777 0.98194 0.0
H1791 H 0.01919 0.64266 0.94574 0.0
H1792 H 0.10722 0.71373 0.93653 0.0
C1793 C 0.07079 0.77956 0.02501 0.0
C1794 C 0.04712 0.77601 0.0454 0.0
C1795 C 0.01819 0.75287 0.04317 0.0
C1796 C 0.01341 0.73261 0.02142 0.0
C1797 C 0.03773 0.73578 1.00197 0.0
C1798 C 0.06576 0.75882 0.00338 0.0
C1799 C 0.08993 0.75439 0.98081 0.0
C1800 C 0.0904 0.78788 0.96461 0.0
C1801 C 0.12726 0.74397 0.98918 0.0
C1802 C 0.0718 0.7244 0.96715 0.0
C1803 C 0.04152 0.71444 0.97955 0.0
C1804 C 0.02177 0.68561 0.97179 0.0
C1805 C 0.03373 0.66588 0.95119 0.0
C1806 C 0.06528 0.67483 0.93862 0.0
C1807 C 0.0837 0.70537 0.94618 0.0
loop_
_geom_bond_atom_site_label_1
_geom_bond_atom_site_label_2
_geom_bond_distance
_geom_bond_site_symmetry_2
_ccdc_geom_bond_type
Zn0 O1 2.055 . S
Zn0 O8 2.046 . S
Zn0 N16 2.036 . S
Zn0 O28 2.053 . S
Zn0 O30 2.066 . S
O1 Zn0 2.055 . S
O1 C4 1.259 . S
C2 O30 1.256 . S
C2 O31 1.244 . S
Zn3 O5 2.046 . S
Zn3 O7 2.055 . S
Zn3 N9 2.036 . S
Zn3 O27 2.066 . S
Zn3 O31 2.053 . S
C4 O1 1.259 . S
C4 O5 1.254 . S
O5 Zn3 2.046 . S
O5 C4 1.254 . S
C6 O27 1.256 . S
C6 O28 1.244 . S
O7 Zn3 2.055 . S
O7 C29 1.259 . S
O8 Zn0 2.046 . S
O8 C29 1.254 . S
N9 Zn3 2.036 . S
N9 C10 1.298 . S
N9 N12 1.398 . S
C10 N9 1.298 . S
C10 N13 1.367 . S
C10 C23 1.481 . S
C11 N12 1.299 . S
C11 N13 1.379 . S
N12 N9 1.398 . S
N12 C11 1.299 . S
N13 C10 1.367 . S
N13 C11 1.379 . S
C14 N16 1.298 . S
C14 N18 1.367 . S
C14 C22 1.481 . S
C15 N17 1.299 . S
C15 N18 1.379 . S
N16 Zn0 2.036 . S
N16 C14 1.298 . S
N16 N17 1.398 . S
N17 C15 1.299 . S
N17 N16 1.398 . S
N18 C14 1.367 . S
N18 C15 1.379 . S
H19 C22 0.980 . S
H20 C22 0.981 . S
H21 C22 0.981 . S
C22 C14 1.481 . S
C22 H19 0.980 . S
C22 H20 0.981 . S
C22 H21 0.981 . S
C23 C10 1.481 . S
C23 H24 0.980 . S
C23 H25 0.981 . S
C23 H26 0.981 . S
H24 C23 0.980 . S
H25 C23 0.981 . S
H26 C23 0.981 . S
O27 Zn3 2.066 . S
O27 C6 1.256 . S
O28 Zn0 2.053 . S
O28 C6 1.244 . S
C29 O7 1.259 . S
C29 O8 1.254 . S
O30 Zn0 2.066 . S
O30 C2 1.256 . S
O31 C2 1.244 . S
O31 Zn3 2.053 . S
Zn32 O33 2.055 . S
Zn32 O40 2.046 . S
Zn32 N48 2.036 . S
Zn32 O60 2.053 . S
Zn32 O62 2.066 . S
O33 Zn32 2.055 . S
O33 C36 1.259 . S
C34 O62 1.256 . S
C34 O63 1.244 . S
Zn35 O37 2.046 . S
Zn35 O39 2.055 . S
Zn35 N41 2.036 . S
Zn35 O59 2.066 . S
Zn35 O63 2.053 . S
C36 O33 1.259 . S
C36 O37 1.254 . S
O37 Zn35 2.046 . S
O37 C36 1.254 . S
C38 O59 1.256 . S
C38 O60 1.244 . S
O39 Zn35 2.055 . S
O39 C61 1.259 . S
O40 Zn32 2.046 . S
O40 C61 1.254 . S
N41 Zn35 2.036 . S
N41 C42 1.298 . S
N41 N44 1.398 . S
C42 N41 1.298 . S
C42 N45 1.367 . S
C42 C55 1.481 . S
C43 N44 1.299 . S
C43 N45 1.379 . S
N44 N41 1.398 . S
N44 C43 1.299 . S
N45 C42 1.367 . S
N45 C43 1.379 . S
C46 N48 1.298 . S
C46 N50 1.367 . S
C46 C54 1.481 . S
C47 N49 1.299 . S
C47 N50 1.379 . S
N48 Zn32 2.036 . S
N48 C46 1.298 . S
N48 N49 1.398 . S
N49 C47 1.299 . S
N49 N48 1.398 . S
N50 C46 1.367 . S
N50 C47 1.379 . S
H51 C54 0.980 . S
H52 C54 0.981 . S
H53 C54 0.981 . S
C54 C46 1.481 . S
C54 H51 0.980 . S
C54 H52 0.981 . S
C54 H53 0.981 . S
C55 C42 1.481 . S
C55 H56 0.980 . S
C55 H57 0.981 . S
C55 H58 0.981 . S
H56 C55 0.980 . S
H57 C55 0.981 . S
H58 C55 0.981 . S
O59 Zn35 2.066 . S
O59 C38 1.256 . S
O60 Zn32 2.053 . S
O60 C38 1.244 . S
C61 O39 1.259 . S
C61 O40 1.254 . S
O62 Zn32 2.066 . S
O62 C34 1.256 . S
O63 C34 1.244 . S
O63 Zn35 2.053 . S
Zn64 O65 2.055 . S
Zn64 O72 2.046 . S
Zn64 N80 2.036 . S
Zn64 O92 2.053 . S
Zn64 O94 2.066 . S
O65 Zn64 2.055 . S
O65 C68 1.259 . S
C66 O94 1.256 . S
C66 O95 1.244 . S
Zn67 O69 2.046 . S
Zn67 O71 2.055 . S
Zn67 N73 2.036 . S
Zn67 O91 2.066 . S
Zn67 O95 2.053 . S
C68 O65 1.259 . S
C68 O69 1.254 . S
O69 Zn67 2.046 . S
O69 C68 1.254 . S
C70 O91 1.256 . S
C70 O92 1.244 . S
O71 Zn67 2.055 . S
O71 C93 1.259 . S
O72 Zn64 2.046 . S
O72 C93 1.254 . S
N73 Zn67 2.036 . S
N73 C74 1.298 . S
N73 N76 1.398 . S
C74 N73 1.298 . S
C74 N77 1.367 . S
C74 C87 1.481 . S
C75 N76 1.299 . S
C75 N77 1.379 . S
N76 N73 1.398 . S
N76 C75 1.299 . S
N77 C74 1.367 . S
N77 C75 1.379 . S
C78 N80 1.298 . S
C78 N82 1.367 1_655 S
C78 C86 1.477 1_655 S
C79 N81 1.299 . S
C79 N82 1.379 1_655 S
N80 Zn64 2.036 . S
N80 C78 1.298 . S
N80 N81 1.398 . S
N81 C79 1.299 . S
N81 N80 1.398 . S
N82 C78 1.367 1_455 S
N82 C79 1.379 1_455 S
H83 C86 0.963 1_655 S
H84 C86 0.984 . S
H85 C86 0.999 . S
C86 C78 1.477 1_455 S
C86 H83 0.963 1_455 S
C86 H84 0.984 . S
C86 H85 0.999 . S
C87 C74 1.481 . S
C87 H88 0.980 . S
C87 H89 0.981 . S
C87 H90 0.981 . S
H88 C87 0.980 . S
H89 C87 0.981 . S
H90 C87 0.981 . S
O91 Zn67 2.066 . S
O91 C70 1.256 . S
O92 Zn64 2.053 . S
O92 C70 1.244 . S
C93 O71 1.259 . S
C93 O72 1.254 . S
O94 Zn64 2.066 . S
O94 C66 1.256 . S
O95 C66 1.244 . S
O95 Zn67 2.053 . S
Zn96 O97 2.055 . S
Zn96 O104 2.046 . S
Zn96 N112 2.036 . S
Zn96 O124 2.053 . S
Zn96 O126 2.066 . S
O97 Zn96 2.055 . S
O97 C100 1.259 . S
C98 O126 1.256 . S
C98 O127 1.244 . S
Zn99 O101 2.046 . S
Zn99 O103 2.055 . S
Zn99 N105 2.036 . S
Zn99 O123 2.066 . S
Zn99 O127 2.053 . S
C100 O97 1.259 . S
C100 O101 1.254 . S
O101 Zn99 2.046 . S
O101 C100 1.254 . S
C102 O123 1.256 . S
C102 O124 1.244 . S
O103 Zn99 2.055 . S
O103 C125 1.259 . S
O104 Zn96 2.046 . S
O104 C125 1.254 . S
N105 Zn99 2.036 . S
N105 C106 1.298 . S
N105 N108 1.398 . S
C106 N105 1.298 . S
C106 N109 1.367 1_565 S
C106 C119 1.477 1_565 S
C107 N108 1.299 . S
C107 N109 1.379 1_565 S
N108 N105 1.398 . S
N108 C107 1.299 . S
N109 C106 1.367 1_545 S
N109 C107 1.379 1_545 S
C110 N112 1.298 . S
C110 N114 1.367 . S
C110 C118 1.481 . S
C111 N113 1.299 . S
C111 N114 1.379 . S
N112 Zn96 2.036 . S
N112 C110 1.298 . S
N112 N113 1.398 . S
N113 C111 1.299 . S
N113 N112 1.398 . S
N114 C110 1.367 . S
N114 C111 1.379 . S
H115 C118 0.980 . S
H116 C118 0.981 . S
H117 C118 0.981 . S
C118 C110 1.481 . S
C118 H115 0.980 . S
C118 H116 0.981 . S
C118 H117 0.981 . S
C119 C106 1.477 1_545 S
C119 H120 0.963 1_545 S
C119 H121 0.984 . S
C119 H122 0.999 . S
H120 C119 0.963 1_565 S
H121 C119 0.984 . S
H122 C119 0.999 . S
O123 Zn99 2.066 . S
O123 C102 1.256 . S
O124 Zn96 2.053 . S
O124 C102 1.244 . S
C125 O103 1.259 . S
C125 O104 1.254 . S
O126 Zn96 2.066 . S
O126 C98 1.256 . S
O127 C98 1.244 . S
O127 Zn99 2.053 . S
Zn128 O129 2.055 . S
Zn128 O136 2.046 . S
Zn128 N144 2.036 . S
Zn128 O156 2.053 . S
Zn128 O158 2.066 . S
O129 Zn128 2.055 . S
O129 C132 1.259 . S
C130 O158 1.256 . S
C130 O159 1.244 . S
Zn131 O133 2.046 . S
Zn131 O135 2.055 . S
Zn131 N137 2.036 . S
Zn131 O155 2.066 . S
Zn131 O159 2.053 . S
C132 O129 1.259 . S
C132 O133 1.254 . S
O133 Zn131 2.046 . S
O133 C132 1.254 . S
C134 O155 1.256 . S
C134 O156 1.244 . S
O135 Zn131 2.055 . S
O135 C157 1.259 . S
O136 Zn128 2.046 . S
O136 C157 1.254 . S
N137 Zn131 2.036 . S
N137 C138 1.298 . S
N137 N140 1.398 . S
C138 N137 1.298 . S
C138 N141 1.367 . S
C138 C151 1.481 . S
C139 N140 1.299 . S
C139 N141 1.379 . S
N140 N137 1.398 . S
N140 C139 1.299 . S
N141 C138 1.367 . S
N141 C139 1.379 . S
C142 N144 1.298 . S
C142 N146 1.367 1_455 S
C142 C150 1.477 1_455 S
C143 N145 1.299 . S
C143 N146 1.379 1_455 S
N144 Zn128 2.036 . S
N144 C142 1.298 . S
N144 N145 1.398 . S
N145 C143 1.299 . S
N145 N144 1.398 . S
N146 C142 1.367 1_655 S
N146 C143 1.379 1_655 S
H147 C150 0.963 1_455 S
H148 C150 0.984 . S
H149 C150 0.999 . S
C150 C142 1.477 1_655 S
C150 H147 0.963 1_655 S
C150 H148 0.984 . S
C150 H149 0.999 . S
C151 C138 1.481 . S
C151 H152 0.980 . S
C151 H153 0.981 . S
C151 H154 0.981 . S
H152 C151 0.980 . S
H153 C151 0.981 . S
H154 C151 0.981 . S
O155 Zn131 2.066 . S
O155 C134 1.256 . S
O156 Zn128 2.053 . S
O156 C134 1.244 . S
C157 O135 1.259 . S
C157 O136 1.254 . S
O158 Zn128 2.066 . S
O158 C130 1.256 . S
O159 C130 1.244 . S
O159 Zn131 2.053 . S
Zn160 O161 2.055 . S
Zn160 O168 2.046 . S
Zn160 N176 2.036 . S
Zn160 O188 2.053 . S
Zn160 O190 2.066 . S
O161 Zn160 2.055 . S
O161 C164 1.259 . S
C162 O190 1.256 . S
C162 O191 1.244 . S
Zn163 O165 2.046 . S
Zn163 O167 2.055 . S
Zn163 N169 2.036 . S
Zn163 O187 2.066 . S
Zn163 O191 2.053 . S
C164 O161 1.259 . S
C164 O165 1.254 . S
O165 Zn163 2.046 . S
O165 C164 1.254 . S
C166 O187 1.256 . S
C166 O188 1.244 . S
O167 Zn163 2.055 . S
O167 C189 1.259 . S
O168 Zn160 2.046 . S
O168 C189 1.254 . S
N169 Zn163 2.036 . S
N169 C170 1.298 . S
N169 N172 1.398 . S
C170 N169 1.298 . S
C170 N173 1.367 . S
C170 C183 1.481 . S
C171 N172 1.299 . S
C171 N173 1.379 . S
N172 N169 1.398 . S
N172 C171 1.299 . S
N173 C170 1.367 . S
N173 C171 1.379 . S
C174 N176 1.298 . S
C174 N178 1.367 1_545 S
C174 C182 1.477 1_545 S
C175 N177 1.299 . S
C175 N178 1.379 1_545 S
N176 Zn160 2.036 . S
N176 C174 1.298 . S
N176 N177 1.398 . S
N177 C175 1.299 . S
N177 N176 1.398 . S
N178 C174 1.367 1_565 S
N178 C175 1.379 1_565 S
H179 C182 0.963 1_545 S
H180 C182 0.984 . S
H181 C182 0.999 . S
C182 C174 1.477 1_565 S
C182 H179 0.963 1_565 S
C182 H180 0.984 . S
C182 H181 0.999 . S
C183 C170 1.481 . S
C183 H184 0.980 . S
C183 H185 0.981 . S
C183 H186 0.981 . S
H184 C183 0.980 . S
H185 C183 0.981 . S
H186 C183 0.981 . S
O187 Zn163 2.066 . S
O187 C166 1.256 . S
O188 Zn160 2.053 . S
O188 C166 1.244 . S
C189 O167 1.259 . S
C189 O168 1.254 . S
O190 Zn160 2.066 . S
O190 C162 1.256 . S
O191 C162 1.244 . S
O191 Zn163 2.053 . S
Zn192 O193 2.055 . S
Zn192 O200 2.046 . S
Zn192 N208 2.036 . S
Zn192 O220 2.053 . S
Zn192 O222 2.066 . S
O193 Zn192 2.055 . S
O193 C196 1.259 . S
C194 O222 1.256 . S
C194 O223 1.244 . S
Zn195 O197 2.046 . S
Zn195 O199 2.055 . S
Zn195 N201 2.036 . S
Zn195 O219 2.066 . S
Zn195 O223 2.053 . S
C196 O193 1.259 . S
C196 O197 1.254 . S
O197 Zn195 2.046 . S
O197 C196 1.254 . S
C198 O219 1.256 . S
C198 O220 1.244 . S
O199 Zn195 2.055 . S
O199 C221 1.259 . S
O200 Zn192 2.046 . S
O200 C221 1.254 . S
N201 Zn195 2.036 . S
N201 C202 1.298 . S
N201 N204 1.398 . S
C202 N201 1.298 . S
C202 N205 1.367 . S
C202 C215 1.481 . S
C203 N204 1.299 . S
C203 N205 1.379 . S
N204 N201 1.398 . S
N204 C203 1.299 . S
N205 C202 1.367 . S
N205 C203 1.379 . S
C206 N208 1.298 . S
C206 N210 1.367 . S
C206 C214 1.481 . S
C207 N209 1.299 . S
C207 N210 1.379 . S
N208 Zn192 2.036 . S
N208 C206 1.298 . S
N208 N209 1.398 . S
N209 C207 1.299 . S
N209 N208 1.398 . S
N210 C206 1.367 . S
N210 C207 1.379 . S
H211 C214 0.980 . S
H212 C214 0.981 . S
H213 C214 0.981 . S
C214 C206 1.481 . S
C214 H211 0.980 . S
C214 H212 0.981 . S
C214 H213 0.981 . S
C215 C202 1.481 . S
C215 H216 0.980 . S
C215 H217 0.981 . S
C215 H218 0.981 . S
H216 C215 0.980 . S
H217 C215 0.981 . S
H218 C215 0.981 . S
O219 Zn195 2.066 . S
O219 C198 1.256 . S
O220 Zn192 2.053 . S
O220 C198 1.244 . S
C221 O199 1.259 . S
C221 O200 1.254 . S
O222 Zn192 2.066 . S
O222 C194 1.256 . S
O223 C194 1.244 . S
O223 Zn195 2.053 . S
Zn224 O225 2.055 . S
Zn224 O232 2.046 . S
Zn224 N240 2.036 . S
Zn224 O252 2.053 . S
Zn224 O254 2.066 . S
O225 Zn224 2.055 . S
O225 C228 1.259 . S
C226 O254 1.256 . S
C226 O255 1.244 . S
Zn227 O229 2.046 . S
Zn227 O231 2.055 . S
Zn227 N233 2.036 . S
Zn227 O251 2.066 . S
Zn227 O255 2.053 . S
C228 O225 1.259 . S
C228 O229 1.254 . S
O229 Zn227 2.046 . S
O229 C228 1.254 . S
C230 O251 1.256 . S
C230 O252 1.244 . S
O231 Zn227 2.055 . S
O231 C253 1.259 . S
O232 Zn224 2.046 . S
O232 C253 1.254 . S
N233 Zn227 2.036 . S
N233 C234 1.298 . S
N233 N236 1.398 . S
C234 N233 1.298 . S
C234 N237 1.367 . S
C234 C247 1.481 . S
C235 N236 1.299 . S
C235 N237 1.379 . S
N236 N233 1.398 . S
N236 C235 1.299 . S
N237 C234 1.367 . S
N237 C235 1.379 . S
C238 N240 1.298 . S
C238 N242 1.367 . S
C238 C246 1.481 . S
C239 N241 1.299 . S
C239 N242 1.379 . S
N240 Zn224 2.036 . S
N240 C238 1.298 . S
N240 N241 1.398 . S
N241 C239 1.299 . S
N241 N240 1.398 . S
N242 C238 1.367 . S
N242 C239 1.379 . S
H243 C246 0.980 . S
H244 C246 0.981 . S
H245 C246 0.981 . S
C246 C238 1.481 . S
C246 H243 0.980 . S
C246 H244 0.981 . S
C246 H245 0.981 . S
C247 C234 1.481 . S
C247 H248 0.980 . S
C247 H249 0.981 . S
C247 H250 0.981 . S
H248 C247 0.980 . S
H249 C247 0.981 . S
H250 C247 0.981 . S
O251 Zn227 2.066 . S
O251 C230 1.256 . S
O252 Zn224 2.053 . S
O252 C230 1.244 . S
C253 O231 1.259 . S
C253 O232 1.254 . S
O254 Zn224 2.066 . S
O254 C226 1.256 . S
O255 C226 1.244 . S
O255 Zn227 2.053 . S
Zn256 O257 2.055 . S
Zn256 O264 2.046 . S
Zn256 N272 2.036 . S
Zn256 O284 2.053 . S
Zn256 O286 2.066 . S
O257 Zn256 2.055 . S
O257 C260 1.259 . S
C258 O286 1.256 . S
C258 O287 1.244 . S
Zn259 O261 2.046 . S
Zn259 O263 2.055 . S
Zn259 N265 2.036 . S
Zn259 O283 2.066 . S
Zn259 O287 2.053 . S
C260 O257 1.259 . S
C260 O261 1.254 . S
O261 Zn259 2.046 . S
O261 C260 1.254 . S
C262 O283 1.256 . S
C262 O284 1.244 . S
O263 Zn259 2.055 . S
O263 C285 1.259 . S
O264 Zn256 2.046 . S
O264 C285 1.254 . S
N265 Zn259 2.036 . S
N265 C266 1.298 . S
N265 N268 1.398 . S
C266 N265 1.298 . S
C266 N269 1.367 . S
C266 C279 1.481 . S
C267 N268 1.299 . S
C267 N269 1.379 . S
N268 N265 1.398 . S
N268 C267 1.299 . S
N269 C266 1.367 . S
N269 C267 1.379 . S
C270 N272 1.298 . S
C270 N274 1.367 . S
C270 C278 1.481 . S
C271 N273 1.299 . S
C271 N274 1.379 . S
N272 Zn256 2.036 . S
N272 C270 1.298 . S
N272 N273 1.398 . S
N273 C271 1.299 . S
N273 N272 1.398 . S
N274 C270 1.367 . S
N274 C271 1.379 . S
H275 C278 0.980 . S
H276 C278 0.981 . S
H277 C278 0.981 . S
C278 C270 1.481 . S
C278 H275 0.980 . S
C278 H276 0.981 . S
C278 H277 0.981 . S
C279 C266 1.481 . S
C279 H280 0.980 . S
C279 H281 0.981 . S
C279 H282 0.981 . S
H280 C279 0.980 . S
H281 C279 0.981 . S
H282 C279 0.981 . S
O283 Zn259 2.066 . S
O283 C262 1.256 . S
O284 Zn256 2.053 . S
O284 C262 1.244 . S
C285 O263 1.259 . S
C285 O264 1.254 . S
O286 Zn256 2.066 . S
O286 C258 1.256 . S
O287 C258 1.244 . S
O287 Zn259 2.053 . S
Zn288 O289 2.055 . S
Zn288 O296 2.046 . S
Zn288 N304 2.036 . S
Zn288 O316 2.053 . S
Zn288 O318 2.066 . S
O289 Zn288 2.055 . S
O289 C292 1.259 . S
C290 O318 1.256 . S
C290 O319 1.244 . S
Zn291 O293 2.046 . S
Zn291 O295 2.055 . S
Zn291 N297 2.036 . S
Zn291 O315 2.066 . S
Zn291 O319 2.053 . S
C292 O289 1.259 . S
C292 O293 1.254 . S
O293 Zn291 2.046 . S
O293 C292 1.254 . S
C294 O315 1.256 . S
C294 O316 1.244 . S
O295 Zn291 2.055 . S
O295 C317 1.259 . S
O296 Zn288 2.046 . S
O296 C317 1.254 . S
N297 Zn291 2.036 . S
N297 C298 1.298 . S
N297 N300 1.398 . S
C298 N297 1.298 . S
C298 N301 1.367 . S
C298 C311 1.481 . S
C299 N300 1.299 . S
C299 N301 1.379 . S
N300 N297 1.398 . S
N300 C299 1.299 . S
N301 C298 1.367 . S
N301 C299 1.379 . S
C302 N304 1.298 . S
C302 N306 1.367 . S
C302 C310 1.481 . S
C303 N305 1.299 . S
C303 N306 1.379 . S
N304 Zn288 2.036 . S
N304 C302 1.298 . S
N304 N305 1.398 . S
N305 C303 1.299 . S
N305 N304 1.398 . S
N306 C302 1.367 . S
N306 C303 1.379 . S
H307 C310 0.980 . S
H308 C310 0.981 . S
H309 C310 0.981 . S
C310 C302 1.481 . S
C310 H307 0.980 . S
C310 H308 0.981 . S
C310 H309 0.981 . S
C311 C298 1.481 . S
C311 H312 0.980 . S
C311 H313 0.981 . S
C311 H314 0.981 . S
H312 C311 0.980 . S
H313 C311 0.981 . S
H314 C311 0.981 . S
O315 Zn291 2.066 . S
O315 C294 1.256 . S
O316 Zn288 2.053 . S
O316 C294 1.244 . S
C317 O295 1.259 . S
C317 O296 1.254 . S
O318 Zn288 2.066 . S
O318 C290 1.256 . S
O319 C290 1.244 . S
O319 Zn291 2.053 . S
Zn320 O321 2.055 . S
Zn320 O328 2.046 . S
Zn320 N336 2.036 . S
Zn320 O348 2.053 . S
Zn320 O350 2.066 . S
O321 Zn320 2.055 . S
O321 C324 1.259 . S
C322 O350 1.256 . S
C322 O351 1.244 . S
Zn323 O325 2.046 . S
Zn323 O327 2.055 . S
Zn323 N329 2.036 . S
Zn323 O347 2.066 . S
Zn323 O351 2.053 . S
C324 O321 1.259 . S
C324 O325 1.254 . S
O325 Zn323 2.046 . S
O325 C324 1.254 . S
C326 O347 1.256 . S
C326 O348 1.244 . S
O327 Zn323 2.055 . S
O327 C349 1.259 . S
O328 Zn320 2.046 . S
O328 C349 1.254 . S
N329 Zn323 2.036 . S
N329 C330 1.298 . S
N329 N332 1.398 . S
C330 N329 1.298 . S
C330 N333 1.367 1_455 S
C330 C343 1.477 1_455 S
C331 N332 1.299 . S
C331 N333 1.379 1_455 S
N332 N329 1.398 . S
N332 C331 1.299 . S
N333 C330 1.367 1_655 S
N333 C331 1.379 1_655 S
C334 N336 1.298 . S
C334 N338 1.367 . S
C334 C342 1.481 . S
C335 N337 1.299 . S
C335 N338 1.379 . S
N336 Zn320 2.036 . S
N336 C334 1.298 . S
N336 N337 1.398 . S
N337 C335 1.299 . S
N337 N336 1.398 . S
N338 C334 1.367 . S
N338 C335 1.379 . S
H339 C342 0.980 . S
H340 C342 0.981 . S
H341 C342 0.981 . S
C342 C334 1.481 . S
C342 H339 0.980 . S
C342 H340 0.981 . S
C342 H341 0.981 . S
C343 C330 1.477 1_655 S
C343 H344 0.963 1_655 S
C343 H345 0.984 . S
C343 H346 0.999 . S
H344 C343 0.963 1_455 S
H345 C343 0.984 . S
H346 C343 0.999 . S
O347 Zn323 2.066 . S
O347 C326 1.256 . S
O348 Zn320 2.053 . S
O348 C326 1.244 . S
C349 O327 1.259 . S
C349 O328 1.254 . S
O350 Zn320 2.066 . S
O350 C322 1.256 . S
O351 C322 1.244 . S
O351 Zn323 2.053 . S
Zn352 O353 2.055 . S
Zn352 O360 2.046 . S
Zn352 N368 2.036 . S
Zn352 O380 2.053 . S
Zn352 O382 2.066 . S
O353 Zn352 2.055 . S
O353 C356 1.259 . S
C354 O382 1.256 . S
C354 O383 1.244 . S
Zn355 O357 2.046 . S
Zn355 O359 2.055 . S
Zn355 N361 2.036 . S
Zn355 O379 2.066 . S
Zn355 O383 2.053 . S
C356 O353 1.259 . S
C356 O357 1.254 . S
O357 Zn355 2.046 . S
O357 C356 1.254 . S
C358 O379 1.256 . S
C358 O380 1.244 . S
O359 Zn355 2.055 . S
O359 C381 1.259 . S
O360 Zn352 2.046 . S
O360 C381 1.254 . S
N361 Zn355 2.036 . S
N361 C362 1.298 . S
N361 N364 1.398 . S
C362 N361 1.298 . S
C362 N365 1.367 1_545 S
C362 C375 1.477 1_545 S
C363 N364 1.299 . S
C363 N365 1.379 1_545 S
N364 N361 1.398 . S
N364 C363 1.299 . S
N365 C362 1.367 1_565 S
N365 C363 1.379 1_565 S
C366 N368 1.298 . S
C366 N370 1.367 . S
C366 C374 1.481 . S
C367 N369 1.299 . S
C367 N370 1.379 . S
N368 Zn352 2.036 . S
N368 C366 1.298 . S
N368 N369 1.398 . S
N369 C367 1.299 . S
N369 N368 1.398 . S
N370 C366 1.367 . S
N370 C367 1.379 . S
H371 C374 0.980 . S
H372 C374 0.981 . S
H373 C374 0.981 . S
C374 C366 1.481 . S
C374 H371 0.980 . S
C374 H372 0.981 . S
C374 H373 0.981 . S
C375 C362 1.477 1_565 S
C375 H376 0.963 1_565 S
C375 H377 0.984 . S
C375 H378 0.999 . S
H376 C375 0.963 1_545 S
H377 C375 0.984 . S
H378 C375 0.999 . S
O379 Zn355 2.066 . S
O379 C358 1.256 . S
O380 Zn352 2.053 . S
O380 C358 1.244 . S
C381 O359 1.259 . S
C381 O360 1.254 . S
O382 Zn352 2.066 . S
O382 C354 1.256 . S
O383 C354 1.244 . S
O383 Zn355 2.053 . S
Zn384 O385 2.055 . S
Zn384 O392 2.046 . S
Zn384 N400 2.036 . S
Zn384 O412 2.053 . S
Zn384 O414 2.066 . S
O385 Zn384 2.055 . S
O385 C388 1.259 . S
C386 O414 1.256 . S
C386 O415 1.244 . S
Zn387 O389 2.046 . S
Zn387 O391 2.055 . S
Zn387 N393 2.036 . S
Zn387 O411 2.066 . S
Zn387 O415 2.053 . S
C388 O385 1.259 . S
C388 O389 1.254 . S
O389 Zn387 2.046 . S
O389 C388 1.254 . S
C390 O411 1.256 . S
C390 O412 1.244 . S
O391 Zn387 2.055 . S
O391 C413 1.259 . S
O392 Zn384 2.046 . S
O392 C413 1.254 . S
N393 Zn387 2.036 . S
N393 C394 1.298 . S
N393 N396 1.398 . S
C394 N393 1.298 . S
C394 N397 1.367 . S
C394 C407 1.481 . S
C395 N396 1.299 . S
C395 N397 1.379 . S
N396 N393 1.398 . S
N396 C395 1.299 . S
N397 C394 1.367 . S
N397 C395 1.379 . S
C398 N400 1.298 . S
C398 N402 1.367 1_655 S
C398 C406 1.477 1_655 S
C399 N401 1.299 . S
C399 N402 1.379 1_655 S
N400 Zn384 2.036 . S
N400 C398 1.298 . S
N400 N401 1.398 . S
N401 C399 1.299 . S
N401 N400 1.398 . S
N402 C398 1.367 1_455 S
N402 C399 1.379 1_455 S
H403 C406 0.963 1_655 S
H404 C406 0.984 . S
H405 C406 0.999 . S
C406 C398 1.477 1_455 S
C406 H403 0.963 1_455 S
C406 H404 0.984 . S
C406 H405 0.999 . S
C407 C394 1.481 . S
C407 H408 0.980 . S
C407 H409 0.981 . S
C407 H410 0.981 . S
H408 C407 0.980 . S
H409 C407 0.981 . S
H410 C407 0.981 . S
O411 Zn387 2.066 . S
O411 C390 1.256 . S
O412 Zn384 2.053 . S
O412 C390 1.244 . S
C413 O391 1.259 . S
C413 O392 1.254 . S
O414 Zn384 2.066 . S
O414 C386 1.256 . S
O415 C386 1.244 . S
O415 Zn387 2.053 . S
Zn416 O417 2.055 . S
Zn416 O424 2.046 . S
Zn416 N432 2.036 . S
Zn416 O444 2.053 . S
Zn416 O446 2.066 . S
O417 Zn416 2.055 . S
O417 C420 1.259 . S
C418 O446 1.256 . S
C418 O447 1.244 . S
Zn419 O421 2.046 . S
Zn419 O423 2.055 . S
Zn419 N425 2.036 . S
Zn419 O443 2.066 . S
Zn419 O447 2.053 . S
C420 O417 1.259 . S
C420 O421 1.254 . S
O421 Zn419 2.046 . S
O421 C420 1.254 . S
C422 O443 1.256 . S
C422 O444 1.244 . S
O423 Zn419 2.055 . S
O423 C445 1.259 . S
O424 Zn416 2.046 . S
O424 C445 1.254 . S
N425 Zn419 2.036 . S
N425 C426 1.298 . S
N425 N428 1.398 . S
C426 N425 1.298 . S
C426 N429 1.367 1_565 S
C426 C439 1.477 1_565 S
C427 N428 1.299 . S
C427 N429 1.379 1_565 S
N428 N425 1.398 . S
N428 C427 1.299 . S
N429 C426 1.367 1_545 S
N429 C427 1.379 1_545 S
C430 N432 1.298 . S
C430 N434 1.367 . S
C430 C438 1.481 . S
C431 N433 1.299 . S
C431 N434 1.379 . S
N432 Zn416 2.036 . S
N432 C430 1.298 . S
N432 N433 1.398 . S
N433 C431 1.299 . S
N433 N432 1.398 . S
N434 C430 1.367 . S
N434 C431 1.379 . S
H435 C438 0.980 . S
H436 C438 0.981 . S
H437 C438 0.981 . S
C438 C430 1.481 . S
C438 H435 0.980 . S
C438 H436 0.981 . S
C438 H437 0.981 . S
C439 C426 1.477 1_545 S
C439 H440 0.963 1_545 S
C439 H441 0.984 . S
C439 H442 0.999 . S
H440 C439 0.963 1_565 S
H441 C439 0.984 . S
H442 C439 0.999 . S
O443 Zn419 2.066 . S
O443 C422 1.256 . S
O444 Zn416 2.053 . S
O444 C422 1.244 . S
C445 O423 1.259 . S
C445 O424 1.254 . S
O446 Zn416 2.066 . S
O446 C418 1.256 . S
O447 C418 1.244 . S
O447 Zn419 2.053 . S
Zn448 O449 2.055 . S
Zn448 O456 2.046 . S
Zn448 N464 2.036 . S
Zn448 O476 2.053 . S
Zn448 O478 2.066 . S
O449 Zn448 2.055 . S
O449 C452 1.259 . S
C450 O478 1.256 . S
C450 O479 1.244 . S
Zn451 O453 2.046 . S
Zn451 O455 2.055 . S
Zn451 N457 2.036 . S
Zn451 O475 2.066 . S
Zn451 O479 2.053 . S
C452 O449 1.259 . S
C452 O453 1.254 . S
O453 Zn451 2.046 . S
O453 C452 1.254 . S
C454 O475 1.256 . S
C454 O476 1.244 . S
O455 Zn451 2.055 . S
O455 C477 1.259 . S
O456 Zn448 2.046 . S
O456 C477 1.254 . S
N457 Zn451 2.036 . S
N457 C458 1.298 . S
N457 N460 1.398 . S
C458 N457 1.298 . S
C458 N461 1.367 . S
C458 C471 1.481 . S
C459 N460 1.299 . S
C459 N461 1.379 . S
N460 N457 1.398 . S
N460 C459 1.299 . S
N461 C458 1.367 . S
N461 C459 1.379 . S
C462 N464 1.298 . S
C462 N466 1.367 . S
C462 C470 1.481 . S
C463 N465 1.299 . S
C463 N466 1.379 . S
N464 Zn448 2.036 . S
N464 C462 1.298 . S
N464 N465 1.398 . S
N465 C463 1.299 . S
N465 N464 1.398 . S
N466 C462 1.367 . S
N466 C463 1.379 . S
H467 C470 0.980 . S
H468 C470 0.981 . S
H469 C470 0.981 . S
C470 C462 1.481 . S
C470 H467 0.980 . S
C470 H468 0.981 . S
C470 H469 0.981 . S
C471 C458 1.481 . S
C471 H472 0.980 . S
C471 H473 0.981 . S
C471 H474 0.981 . S
H472 C471 0.980 . S
H473 C471 0.981 . S
H474 C471 0.981 . S
O475 Zn451 2.066 . S
O475 C454 1.256 . S
O476 Zn448 2.053 . S
O476 C454 1.244 . S
C477 O455 1.259 . S
C477 O456 1.254 . S
O478 Zn448 2.066 . S
O478 C450 1.256 . S
O479 C450 1.244 . S
O479 Zn451 2.053 . S
Zn480 O481 2.055 . S
Zn480 O488 2.046 . S
Zn480 N496 2.036 . S
Zn480 O508 2.053 . S
Zn480 O510 2.066 . S
O481 Zn480 2.055 . S
O481 C484 1.259 . S
C482 O510 1.256 . S
C482 O511 1.244 . S
Zn483 O485 2.046 . S
Zn483 O487 2.055 . S
Zn483 N489 2.036 . S
Zn483 O507 2.066 . S
Zn483 O511 2.053 . S
C484 O481 1.259 . S
C484 O485 1.254 . S
O485 Zn483 2.046 . S
O485 C484 1.254 . S
C486 O507 1.256 . S
C486 O508 1.244 . S
O487 Zn483 2.055 . S
O487 C509 1.259 . S
O488 Zn480 2.046 . S
O488 C509 1.254 . S
N489 Zn483 2.036 . S
N489 C490 1.298 . S
N489 N492 1.398 . S
C490 N489 1.298 . S
C490 N493 1.367 . S
C490 C503 1.481 . S
C491 N492 1.299 . S
C491 N493 1.379 . S
N492 N489 1.398 . S
N492 C491 1.299 . S
N493 C490 1.367 . S
N493 C491 1.379 . S
C494 N496 1.298 . S
C494 N498 1.367 . S
C494 C502 1.481 . S
C495 N497 1.299 . S
C495 N498 1.379 . S
N496 Zn480 2.036 . S
N496 C494 1.298 . S
N496 N497 1.398 . S
N497 C495 1.299 . S
N497 N496 1.398 . S
N498 C494 1.367 . S
N498 C495 1.379 . S
H499 C502 0.980 . S
H500 C502 0.981 . S
H501 C502 0.981 . S
C502 C494 1.481 . S
C502 H499 0.980 . S
C502 H500 0.981 . S
C502 H501 0.981 . S
C503 C490 1.481 . S
C503 H504 0.980 . S
C503 H505 0.981 . S
C503 H506 0.981 . S
H504 C503 0.980 . S
H505 C503 0.981 . S
H506 C503 0.981 . S
O507 Zn483 2.066 . S
O507 C486 1.256 . S
O508 Zn480 2.053 . S
O508 C486 1.244 . S
C509 O487 1.259 . S
C509 O488 1.254 . S
O510 Zn480 2.066 . S
O510 C482 1.256 . S
O511 C482 1.244 . S
O511 Zn483 2.053 . S
H512 C524 0.930 . S
H513 C526 0.930 . S
H514 C527 0.930 . S
H515 C531 0.959 . S
H516 C531 0.959 . S
H517 C531 0.961 . S
H518 C532 0.960 . S
H519 C532 0.961 . S
H520 C532 0.959 . S
H521 C535 0.929 . S
H522 C536 0.931 . S
H523 C538 0.930 . S
C524 H512 0.930 . S
C524 C525 1.399 . S
C524 C529 1.399 . S
C525 C524 1.399 . S
C525 C526 1.376 . S
C526 H513 0.930 . S
C526 C525 1.376 . S
C526 C527 1.388 . S
C527 H514 0.930 . S
C527 C526 1.388 . S
C527 C528 1.390 . S
C528 C527 1.390 . S
C528 C529 1.394 . S
C528 C534 1.465 . S
C529 C524 1.399 . S
C529 C528 1.394 . S
C529 C530 1.516 . S
C530 C529 1.516 . S
C530 C531 1.502 . S
C530 C532 1.561 . S
C530 C533 1.526 . S
C531 H515 0.959 . S
C531 H516 0.959 . S
C531 H517 0.961 . S
C531 C530 1.502 . S
C532 H518 0.960 . S
C532 H519 0.961 . S
C532 H520 0.959 . S
C532 C530 1.561 . S
C533 C530 1.526 . S
C533 C534 1.396 . S
C533 C538 1.390 . S
C534 C528 1.465 . S
C534 C533 1.396 . S
C534 C535 1.399 . S
C535 H521 0.929 . S
C535 C534 1.399 . S
C535 C536 1.385 . S
C536 H522 0.931 . S
C536 C535 1.385 . S
C536 C537 1.389 . S
C537 C536 1.389 . S
C537 C538 1.387 . S
C538 H523 0.930 . S
C538 C533 1.390 . S
C538 C537 1.387 . S
H539 C551 0.930 . S
H540 C553 0.930 . S
H541 C554 0.930 . S
H542 C558 0.959 . S
H543 C558 0.959 . S
H544 C558 0.961 . S
H545 C559 0.960 . S
H546 C559 0.961 . S
H547 C559 0.959 . S
H548 C562 0.929 . S
H549 C563 0.931 . S
H550 C565 0.930 . S
C551 H539 0.930 . S
C551 C552 1.399 . S
C551 C556 1.399 . S
C552 C551 1.399 . S
C552 C553 1.376 . S
C553 H540 0.930 . S
C553 C552 1.376 . S
C553 C554 1.388 . S
C554 H541 0.930 . S
C554 C553 1.388 . S
C554 C555 1.390 . S
C555 C554 1.390 . S
C555 C556 1.394 . S
C555 C561 1.465 . S
C556 C551 1.399 . S
C556 C555 1.394 . S
C556 C557 1.516 . S
C557 C556 1.516 . S
C557 C558 1.502 . S
C557 C559 1.561 . S
C557 C560 1.526 . S
C558 H542 0.959 . S
C558 H543 0.959 . S
C558 H544 0.961 . S
C558 C557 1.502 . S
C559 H545 0.960 . S
C559 H546 0.961 . S
C559 H547 0.959 . S
C559 C557 1.561 . S
C560 C557 1.526 . S
C560 C561 1.396 . S
C560 C565 1.390 . S
C561 C555 1.465 . S
C561 C560 1.396 . S
C561 C562 1.399 . S
C562 H548 0.929 . S
C562 C561 1.399 . S
C562 C563 1.385 . S
C563 H549 0.931 . S
C563 C562 1.385 . S
C563 C564 1.389 . S
C564 C563 1.389 . S
C564 C565 1.387 . S
C565 H550 0.930 . S
C565 C560 1.390 . S
C565 C564 1.387 . S
H566 C578 0.930 . S
H567 C580 0.930 . S
H568 C581 0.930 . S
H569 C585 0.959 . S
H570 C585 0.959 . S
H571 C585 0.961 . S
H572 C586 0.960 . S
H573 C586 0.961 . S
H574 C586 0.959 . S
H575 C589 0.929 . S
H576 C590 0.931 . S
H577 C592 0.930 . S
C578 H566 0.930 . S
C578 C579 1.399 . S
C578 C583 1.399 . S
C579 C578 1.399 . S
C579 C580 1.376 . S
C580 H567 0.930 . S
C580 C579 1.376 . S
C580 C581 1.388 . S
C581 H568 0.930 . S
C581 C580 1.388 . S
C581 C582 1.390 . S
C582 C581 1.390 . S
C582 C583 1.394 . S
C582 C588 1.465 . S
C583 C578 1.399 . S
C583 C582 1.394 . S
C583 C584 1.516 . S
C584 C583 1.516 . S
C584 C585 1.502 . S
C584 C586 1.561 . S
C584 C587 1.526 . S
C585 H569 0.959 . S
C585 H570 0.959 . S
C585 H571 0.961 . S
C585 C584 1.502 . S
C586 H572 0.960 . S
C586 H573 0.961 . S
C586 H574 0.959 . S
C586 C584 1.561 . S
C587 C584 1.526 . S
C587 C588 1.396 . S
C587 C592 1.390 . S
C588 C582 1.465 . S
C588 C587 1.396 . S
C588 C589 1.399 . S
C589 H575 0.929 . S
C589 C588 1.399 . S
C589 C590 1.385 . S
C590 H576 0.931 . S
C590 C589 1.385 . S
C590 C591 1.389 . S
C591 C590 1.389 . S
C591 C592 1.387 . S
C592 H577 0.930 . S
C592 C587 1.390 . S
C592 C591 1.387 . S
H593 C605 0.930 . S
H594 C607 0.930 . S
H595 C608 0.930 . S
H596 C612 0.959 . S
H597 C612 0.959 . S
H598 C612 0.961 . S
H599 C613 0.960 . S
H600 C613 0.961 . S
H601 C613 0.959 . S
H602 C616 0.929 . S
H603 C617 0.931 . S
H604 C619 0.930 . S
C605 H593 0.930 . S
C605 C606 1.399 . S
C605 C610 1.399 . S
C606 C605 1.399 . S
C606 C607 1.376 . S
C607 H594 0.930 . S
C607 C606 1.376 . S
C607 C608 1.388 . S
C608 H595 0.930 . S
C608 C607 1.388 . S
C608 C609 1.390 . S
C609 C608 1.390 . S
C609 C610 1.394 . S
C609 C615 1.465 . S
C610 C605 1.399 . S
C610 C609 1.394 . S
C610 C611 1.516 . S
C611 C610 1.516 . S
C611 C612 1.502 . S
C611 C613 1.561 . S
C611 C614 1.526 . S
C612 H596 0.959 . S
C612 H597 0.959 . S
C612 H598 0.961 . S
C612 C611 1.502 . S
C613 H599 0.960 . S
C613 H600 0.961 . S
C613 H601 0.959 . S
C613 C611 1.561 . S
C614 C611 1.526 . S
C614 C615 1.396 . S
C614 C619 1.390 . S
C615 C609 1.465 . S
C615 C614 1.396 . S
C615 C616 1.399 . S
C616 H602 0.929 . S
C616 C615 1.399 . S
C616 C617 1.385 . S
C617 H603 0.931 . S
C617 C616 1.385 . S
C617 C618 1.389 . S
C618 C617 1.389 . S
C618 C619 1.387 . S
C619 H604 0.930 . S
C619 C614 1.390 . S
C619 C618 1.387 . S
H620 C632 0.930 . S
H621 C634 0.930 . S
H622 C635 0.930 . S
H623 C639 0.959 . S
H624 C639 0.959 . S
H625 C639 0.961 . S
H626 C640 0.960 . S
H627 C640 0.961 . S
H628 C640 0.959 . S
H629 C643 0.929 . S
H630 C644 0.931 . S
H631 C646 0.930 . S
C632 H620 0.930 . S
C632 C633 1.399 . S
C632 C637 1.399 . S
C633 C632 1.399 . S
C633 C634 1.376 . S
C634 H621 0.930 . S
C634 C633 1.376 . S
C634 C635 1.388 . S
C635 H622 0.930 . S
C635 C634 1.388 . S
C635 C636 1.390 . S
C636 C635 1.390 . S
C636 C637 1.394 . S
C636 C642 1.465 . S
C637 C632 1.399 . S
C637 C636 1.394 . S
C637 C638 1.516 . S
C638 C637 1.516 . S
C638 C639 1.502 . S
C638 C640 1.561 . S
C638 C641 1.526 . S
C639 H623 0.959 . S
C639 H624 0.959 . S
C639 H625 0.961 . S
C639 C638 1.502 . S
C640 H626 0.960 . S
C640 H627 0.961 . S
C640 H628 0.959 . S
C640 C638 1.561 . S
C641 C638 1.526 . S
C641 C642 1.396 . S
C641 C646 1.390 . S
C642 C636 1.465 . S
C642 C641 1.396 . S
C642 C643 1.399 . S
C643 H629 0.929 . S
C643 C642 1.399 . S
C643 C644 1.385 . S
C644 H630 0.931 . S
C644 C643 1.385 . S
C644 C645 1.389 . S
C645 C644 1.389 . S
C645 C646 1.387 . S
C646 H631 0.930 . S
C646 C641 1.390 . S
C646 C645 1.387 . S
H647 C659 0.930 . S
H648 C661 0.930 . S
H649 C662 0.930 . S
H650 C666 0.959 . S
H651 C666 0.959 . S
H652 C666 0.961 . S
H653 C667 0.960 . S
H654 C667 0.961 . S
H655 C667 0.959 . S
H656 C670 0.929 . S
H657 C671 0.931 . S
H658 C673 0.930 . S
C659 H647 0.930 . S
C659 C660 1.399 . S
C659 C664 1.399 . S
C660 C659 1.399 . S
C660 C661 1.376 . S
C661 H648 0.930 . S
C661 C660 1.376 . S
C661 C662 1.388 . S
C662 H649 0.930 . S
C662 C661 1.388 . S
C662 C663 1.390 . S
C663 C662 1.390 . S
C663 C664 1.394 . S
C663 C669 1.465 . S
C664 C659 1.399 . S
C664 C663 1.394 . S
C664 C665 1.516 . S
C665 C664 1.516 . S
C665 C666 1.502 . S
C665 C667 1.561 . S
C665 C668 1.526 . S
C666 H650 0.959 . S
C666 H651 0.959 . S
C666 H652 0.961 . S
C666 C665 1.502 . S
C667 H653 0.960 . S
C667 H654 0.961 . S
C667 H655 0.959 . S
C667 C665 1.561 . S
C668 C665 1.526 . S
C668 C669 1.396 . S
C668 C673 1.390 . S
C669 C663 1.465 . S
C669 C668 1.396 . S
C669 C670 1.399 . S
C670 H656 0.929 . S
C670 C669 1.399 . S
C670 C671 1.385 . S
C671 H657 0.931 . S
C671 C670 1.385 . S
C671 C672 1.389 . S
C672 C671 1.389 . S
C672 C673 1.387 . S
C673 H658 0.930 . S
C673 C668 1.390 . S
C673 C672 1.387 . S
H674 C686 0.930 . S
H675 C688 0.930 . S
H676 C689 0.930 . S
H677 C693 0.959 . S
H678 C693 0.959 . S
H679 C693 0.961 . S
H680 C694 0.960 . S
H681 C694 0.961 . S
H682 C694 0.959 . S
H683 C697 0.929 . S
H684 C698 0.931 . S
H685 C700 0.930 . S
C686 H674 0.930 . S
C686 C687 1.399 . S
C686 C691 1.399 . S
C687 C686 1.399 . S
C687 C688 1.376 . S
C688 H675 0.930 . S
C688 C687 1.376 . S
C688 C689 1.388 . S
C689 H676 0.930 . S
C689 C688 1.388 . S
C689 C690 1.390 . S
C690 C689 1.390 . S
C690 C691 1.394 . S
C690 C696 1.465 . S
C691 C686 1.399 . S
C691 C690 1.394 . S
C691 C692 1.516 . S
C692 C691 1.516 . S
C692 C693 1.502 . S
C692 C694 1.561 . S
C692 C695 1.526 . S
C693 H677 0.959 . S
C693 H678 0.959 . S
C693 H679 0.961 . S
C693 C692 1.502 . S
C694 H680 0.960 . S
C694 H681 0.961 . S
C694 H682 0.959 . S
C694 C692 1.561 . S
C695 C692 1.526 . S
C695 C696 1.396 . S
C695 C700 1.390 . S
C696 C690 1.465 . S
C696 C695 1.396 . S
C696 C697 1.399 . S
C697 H683 0.929 . S
C697 C696 1.399 . S
C697 C698 1.385 . S
C698 H684 0.931 . S
C698 C697 1.385 . S
C698 C699 1.389 . S
C699 C698 1.389 . S
C699 C700 1.387 . S
C700 H685 0.930 . S
C700 C695 1.390 . S
C700 C699 1.387 . S
H701 C713 0.930 . S
H702 C715 0.930 . S
H703 C716 0.930 . S
H704 C720 0.959 . S
H705 C720 0.959 . S
H706 C720 0.961 . S
H707 C721 0.960 . S
H708 C721 0.961 . S
H709 C721 0.959 . S
H710 C724 0.929 . S
H711 C725 0.931 . S
H712 C727 0.930 . S
C713 H701 0.930 . S
C713 C714 1.399 . S
C713 C718 1.399 . S
C714 C713 1.399 . S
C714 C715 1.376 . S
C715 H702 0.930 . S
C715 C714 1.376 . S
C715 C716 1.388 . S
C716 H703 0.930 . S
C716 C715 1.388 . S
C716 C717 1.390 . S
C717 C716 1.390 . S
C717 C718 1.394 . S
C717 C723 1.465 . S
C718 C713 1.399 . S
C718 C717 1.394 . S
C718 C719 1.516 . S
C719 C718 1.516 . S
C719 C720 1.502 . S
C719 C721 1.561 . S
C719 C722 1.526 . S
C720 H704 0.959 . S
C720 H705 0.959 . S
C720 H706 0.961 . S
C720 C719 1.502 . S
C721 H707 0.960 . S
C721 H708 0.961 . S
C721 H709 0.959 . S
C721 C719 1.561 . S
C722 C719 1.526 . S
C722 C723 1.396 . S
C722 C727 1.390 . S
C723 C717 1.465 . S
C723 C722 1.396 . S
C723 C724 1.399 . S
C724 H710 0.929 . S
C724 C723 1.399 . S
C724 C725 1.385 . S
C725 H711 0.931 . S
C725 C724 1.385 . S
C725 C726 1.389 . S
C726 C725 1.389 . S
C726 C727 1.387 . S
C727 H712 0.930 . S
C727 C722 1.390 . S
C727 C726 1.387 . S
H728 C740 0.930 . S
H729 C742 0.930 . S
H730 C743 0.930 . S
H731 C747 0.959 . S
H732 C747 0.959 . S
H733 C747 0.961 . S
H734 C748 0.960 . S
H735 C748 0.961 . S
H736 C748 0.959 . S
H737 C751 0.929 . S
H738 C752 0.956 . S
H739 C754 0.930 . S
C740 H728 0.930 . S
C740 C741 1.399 . S
C740 C745 1.399 . S
C741 C740 1.399 . S
C741 C742 1.376 . S
C742 H729 0.930 . S
C742 C741 1.376 . S
C742 C743 1.388 . S
C743 H730 0.930 . S
C743 C742 1.388 . S
C743 C744 1.390 . S
C744 C743 1.390 . S
C744 C745 1.394 . S
C744 C750 1.465 . S
C745 C740 1.399 . S
C745 C744 1.394 . S
C745 C746 1.516 . S
C746 C745 1.516 . S
C746 C747 1.502 . S
C746 C748 1.561 . S
C746 C749 1.526 . S
C747 H731 0.959 . S
C747 H732 0.959 . S
C747 H733 0.961 . S
C747 C746 1.502 . S
C748 H734 0.960 . S
C748 H735 0.961 . S
C748 H736 0.959 . S
C748 C746 1.561 . S
C749 C746 1.526 . S
C749 C750 1.396 . S
C749 C754 1.390 . S
C750 C744 1.465 . S
C750 C749 1.396 . S
C750 C751 1.399 . S
C751 H737 0.929 . S
C751 C750 1.399 . S
C751 C752 1.385 . S
C752 H738 0.956 . S
C752 C751 1.385 . S
C752 C753 1.389 . S
C753 C752 1.389 . S
C753 C754 1.387 . S
C754 H739 0.930 . S
C754 C749 1.390 . S
C754 C753 1.387 . S
H755 C767 0.930 . S
H756 C769 0.930 . S
H757 C770 0.930 . S
H758 C774 0.959 . S
H759 C774 0.959 . S
H760 C774 0.961 . S
H761 C775 0.960 . S
H762 C775 0.961 . S
H763 C775 0.959 . S
H764 C778 0.929 . S
H765 C779 0.931 . S
H766 C781 0.930 . S
C767 H755 0.930 . S
C767 C768 1.399 . S
C767 C772 1.399 . S
C768 C767 1.399 . S
C768 C769 1.376 . S
C769 H756 0.930 . S
C769 C768 1.376 . S
C769 C770 1.388 . S
C770 H757 0.930 . S
C770 C769 1.388 . S
C770 C771 1.390 . S
C771 C770 1.390 . S
C771 C772 1.394 . S
C771 C777 1.465 . S
C772 C767 1.399 . S
C772 C771 1.394 . S
C772 C773 1.516 . S
C773 C772 1.516 . S
C773 C774 1.502 . S
C773 C775 1.561 . S
C773 C776 1.526 . S
C774 H758 0.959 . S
C774 H759 0.959 . S
C774 H760 0.961 . S
C774 C773 1.502 . S
C775 H761 0.960 . S
C775 H762 0.961 . S
C775 H763 0.959 . S
C775 C773 1.561 . S
C776 C773 1.526 . S
C776 C777 1.396 . S
C776 C781 1.390 . S
C777 C771 1.465 . S
C777 C776 1.396 . S
C777 C778 1.399 . S
C778 H764 0.929 . S
C778 C777 1.399 . S
C778 C779 1.385 . S
C779 H765 0.931 . S
C779 C778 1.385 . S
C779 C780 1.389 . S
C780 C779 1.389 . S
C780 C781 1.387 . S
C781 H766 0.930 . S
C781 C776 1.390 . S
C781 C780 1.387 . S
H782 C794 0.930 . S
H783 C796 0.930 1_655 S
H784 C797 0.930 . S
H785 C801 0.959 . S
H786 C801 0.959 . S
H787 C801 0.961 . S
H788 C802 0.960 . S
H789 C802 0.961 . S
H790 C802 0.959 . S
H791 C805 0.929 . S
H792 C806 0.931 . S
H793 C808 0.930 . S
C794 H782 0.930 . S
C794 C795 1.399 . S
C794 C799 1.399 . S
C795 C794 1.399 . S
C795 C796 1.376 . S
C796 H783 0.930 1_455 S
C796 C795 1.376 . S
C796 C797 1.388 . S
C797 H784 0.930 . S
C797 C796 1.388 . S
C797 C798 1.390 . S
C798 C797 1.390 . S
C798 C799 1.394 . S
C798 C804 1.465 . S
C799 C794 1.399 . S
C799 C798 1.394 . S
C799 C800 1.516 . S
C800 C799 1.516 . S
C800 C801 1.502 . S
C800 C802 1.561 . S
C800 C803 1.526 . S
C801 H785 0.959 . S
C801 H786 0.959 . S
C801 H787 0.961 . S
C801 C800 1.502 . S
C802 H788 0.960 . S
C802 H789 0.961 . S
C802 H790 0.959 . S
C802 C800 1.561 . S
C803 C800 1.526 . S
C803 C804 1.396 . S
C803 C808 1.390 . S
C804 C798 1.465 . S
C804 C803 1.396 . S
C804 C805 1.399 . S
C805 H791 0.929 . S
C805 C804 1.399 . S
C805 C806 1.385 . S
C806 H792 0.931 . S
C806 C805 1.385 . S
C806 C807 1.389 . S
C807 C806 1.389 . S
C807 C808 1.387 . S
C808 H793 0.930 . S
C808 C803 1.390 . S
C808 C807 1.387 . S
H809 C821 0.930 . S
H810 C823 0.930 . S
H811 C824 0.930 . S
H812 C828 0.959 . S
H813 C828 0.959 . S
H814 C828 0.961 . S
H815 C829 0.960 . S
H816 C829 0.961 . S
H817 C829 0.959 . S
H818 C832 0.929 . S
H819 C833 0.931 . S
H820 C835 0.930 . S
C821 H809 0.930 . S
C821 C822 1.399 . S
C821 C826 1.399 . S
C822 C821 1.399 . S
C822 C823 1.376 . S
C823 H810 0.930 . S
C823 C822 1.376 . S
C823 C824 1.388 . S
C824 H811 0.930 . S
C824 C823 1.388 . S
C824 C825 1.390 . S
C825 C824 1.390 . S
C825 C826 1.394 . S
C825 C831 1.465 . S
C826 C821 1.399 . S
C826 C825 1.394 . S
C826 C827 1.516 . S
C827 C826 1.516 . S
C827 C828 1.502 . S
C827 C829 1.561 . S
C827 C830 1.526 . S
C828 H812 0.959 . S
C828 H813 0.959 . S
C828 H814 0.961 . S
C828 C827 1.502 . S
C829 H815 0.960 . S
C829 H816 0.961 . S
C829 H817 0.959 . S
C829 C827 1.561 . S
C830 C827 1.526 . S
C830 C831 1.396 . S
C830 C835 1.390 . S
C831 C825 1.465 . S
C831 C830 1.396 . S
C831 C832 1.399 . S
C832 H818 0.929 . S
C832 C831 1.399 . S
C832 C833 1.385 . S
C833 H819 0.931 . S
C833 C832 1.385 . S
C833 C834 1.389 . S
C834 C833 1.389 . S
C834 C835 1.387 . S
C835 H820 0.930 . S
C835 C830 1.390 . S
C835 C834 1.387 . S
H836 C848 0.930 . S
H837 C850 0.930 . S
H838 C851 0.930 . S
H839 C855 0.959 . S
H840 C855 0.959 . S
H841 C855 0.961 . S
H842 C856 0.960 . S
H843 C856 0.961 . S
H844 C856 0.959 . S
H845 C859 0.929 . S
H846 C860 0.931 . S
H847 C862 0.930 . S
C848 H836 0.930 . S
C848 C849 1.399 . S
C848 C853 1.399 . S
C849 C848 1.399 . S
C849 C850 1.376 . S
C850 H837 0.930 . S
C850 C849 1.376 . S
C850 C851 1.388 . S
C851 H838 0.930 . S
C851 C850 1.388 . S
C851 C852 1.390 . S
C852 C851 1.390 . S
C852 C853 1.394 . S
C852 C858 1.465 . S
C853 C848 1.399 . S
C853 C852 1.394 . S
C853 C854 1.516 . S
C854 C853 1.516 . S
C854 C855 1.502 . S
C854 C856 1.561 . S
C854 C857 1.526 . S
C855 H839 0.959 . S
C855 H840 0.959 . S
C855 H841 0.961 . S
C855 C854 1.502 . S
C856 H842 0.960 . S
C856 H843 0.961 . S
C856 H844 0.959 . S
C856 C854 1.561 . S
C857 C854 1.526 . S
C857 C858 1.396 . S
C857 C862 1.390 . S
C858 C852 1.465 . S
C858 C857 1.396 . S
C858 C859 1.399 . S
C859 H845 0.929 . S
C859 C858 1.399 . S
C859 C860 1.385 . S
C860 H846 0.931 . S
C860 C859 1.385 . S
C860 C861 1.389 . S
C861 C860 1.389 . S
C861 C862 1.387 . S
C862 H847 0.930 . S
C862 C857 1.390 . S
C862 C861 1.387 . S
H863 C875 0.930 . S
H864 C877 0.930 . S
H865 C878 0.930 . S
H866 C882 0.959 . S
H867 C882 0.959 . S
H868 C882 0.961 . S
H869 C883 0.960 . S
H870 C883 0.961 . S
H871 C883 0.959 . S
H872 C886 0.929 . S
H873 C887 0.931 . S
H874 C889 0.930 . S
C875 H863 0.930 . S
C875 C876 1.399 . S
C875 C880 1.399 . S
C876 C875 1.399 . S
C876 C877 1.376 . S
C877 H864 0.930 . S
C877 C876 1.376 . S
C877 C878 1.388 . S
C878 H865 0.930 . S
C878 C877 1.388 . S
C878 C879 1.390 . S
C879 C878 1.390 . S
C879 C880 1.394 . S
C879 C885 1.465 . S
C880 C875 1.399 . S
C880 C879 1.394 . S
C880 C881 1.516 . S
C881 C880 1.516 . S
C881 C882 1.502 . S
C881 C883 1.561 . S
C881 C884 1.526 . S
C882 H866 0.959 . S
C882 H867 0.959 . S
C882 H868 0.961 . S
C882 C881 1.502 . S
C883 H869 0.960 . S
C883 H870 0.961 . S
C883 H871 0.959 . S
C883 C881 1.561 . S
C884 C881 1.526 . S
C884 C885 1.396 . S
C884 C889 1.390 . S
C885 C879 1.465 . S
C885 C884 1.396 . S
C885 C886 1.399 . S
C886 H872 0.929 . S
C886 C885 1.399 . S
C886 C887 1.385 . S
C887 H873 0.931 . S
C887 C886 1.385 . S
C887 C888 1.389 . S
C888 C887 1.389 . S
C888 C889 1.387 . S
C889 H874 0.930 . S
C889 C884 1.390 . S
C889 C888 1.387 . S
H890 C902 0.930 . S
H891 C904 0.930 . S
H892 C905 0.930 . S
H893 C909 0.959 . S
H894 C909 0.959 . S
H895 C909 0.961 . S
H896 C910 0.960 . S
H897 C910 0.961 . S
H898 C910 0.959 . S
H899 C913 0.929 . S
H900 C914 0.931 . S
H901 C916 0.930 . S
C902 H890 0.930 . S
C902 C903 1.399 . S
C902 C907 1.399 . S
C903 C902 1.399 . S
C903 C904 1.376 . S
C904 H891 0.930 . S
C904 C903 1.376 . S
C904 C905 1.388 . S
C905 H892 0.930 . S
C905 C904 1.388 . S
C905 C906 1.390 . S
C906 C905 1.390 . S
C906 C907 1.394 . S
C906 C912 1.465 . S
C907 C902 1.399 . S
C907 C906 1.394 . S
C907 C908 1.516 . S
C908 C907 1.516 . S
C908 C909 1.502 . S
C908 C910 1.561 . S
C908 C911 1.526 . S
C909 H893 0.959 . S
C909 H894 0.959 . S
C909 H895 0.961 . S
C909 C908 1.502 . S
C910 H896 0.960 . S
C910 H897 0.961 . S
C910 H898 0.959 . S
C910 C908 1.561 . S
C911 C908 1.526 . S
C911 C912 1.396 . S
C911 C916 1.390 . S
C912 C906 1.465 . S
C912 C911 1.396 . S
C912 C913 1.399 . S
C913 H899 0.929 . S
C913 C912 1.399 . S
C913 C914 1.385 . S
C914 H900 0.931 . S
C914 C913 1.385 . S
C914 C915 1.389 . S
C915 C914 1.389 . S
C915 C916 1.387 . S
C916 H901 0.930 . S
C916 C911 1.390 . S
C916 C915 1.387 . S
H917 C929 0.930 . S
H918 C931 0.930 . S
H919 C932 0.930 . S
H920 C936 0.959 . S
H921 C936 0.959 . S
H922 C936 0.961 . S
H923 C937 0.960 . S
H924 C937 0.961 . S
H925 C937 0.959 . S
H926 C940 0.929 . S
H927 C941 0.931 . S
H928 C943 0.930 . S
C929 H917 0.930 . S
C929 C930 1.399 . S
C929 C934 1.399 . S
C930 C929 1.399 . S
C930 C931 1.376 . S
C931 H918 0.930 . S
C931 C930 1.376 . S
C931 C932 1.388 . S
C932 H919 0.930 . S
C932 C931 1.388 . S
C932 C933 1.390 . S
C933 C932 1.390 . S
C933 C934 1.394 . S
C933 C939 1.465 . S
C934 C929 1.399 . S
C934 C933 1.394 . S
C934 C935 1.516 . S
C935 C934 1.516 . S
C935 C936 1.502 . S
C935 C937 1.561 . S
C935 C938 1.526 . S
C936 H920 0.959 . S
C936 H921 0.959 . S
C936 H922 0.961 . S
C936 C935 1.502 . S
C937 H923 0.960 . S
C937 H924 0.961 . S
C937 H925 0.959 . S
C937 C935 1.561 . S
C938 C935 1.526 . S
C938 C939 1.396 . S
C938 C943 1.390 . S
C939 C933 1.465 . S
C939 C938 1.396 . S
C939 C940 1.399 . S
C940 H926 0.929 . S
C940 C939 1.399 . S
C940 C941 1.385 . S
C941 H927 0.931 . S
C941 C940 1.385 . S
C941 C942 1.389 . S
C942 C941 1.389 . S
C942 C943 1.387 . S
C943 H928 0.930 . S
C943 C938 1.390 . S
C943 C942 1.387 . S
H944 C956 0.930 . S
H945 C958 0.930 . S
H946 C959 0.930 . S
H947 C963 0.959 . S
H948 C963 0.959 . S
H949 C963 0.961 . S
H950 C964 0.960 . S
H951 C964 0.961 . S
H952 C964 0.959 . S
H953 C967 0.929 . S
H954 C968 0.931 . S
H955 C970 0.930 . S
C956 H944 0.930 . S
C956 C957 1.399 . S
C956 C961 1.399 . S
C957 C956 1.399 . S
C957 C958 1.376 . S
C958 H945 0.930 . S
C958 C957 1.376 . S
C958 C959 1.388 . S
C959 H946 0.930 . S
C959 C958 1.388 . S
C959 C960 1.390 . S
C960 C959 1.390 . S
C960 C961 1.394 . S
C960 C966 1.465 . S
C961 C956 1.399 . S
C961 C960 1.394 . S
C961 C962 1.516 . S
C962 C961 1.516 . S
C962 C963 1.502 . S
C962 C964 1.561 . S
C962 C965 1.526 . S
C963 H947 0.959 . S
C963 H948 0.959 . S
C963 H949 0.961 . S
C963 C962 1.502 . S
C964 H950 0.960 . S
C964 H951 0.961 . S
C964 H952 0.959 . S
C964 C962 1.561 . S
C965 C962 1.526 . S
C965 C966 1.396 . S
C965 C970 1.390 . S
C966 C960 1.465 . S
C966 C965 1.396 . S
C966 C967 1.399 . S
C967 H953 0.929 . S
C967 C966 1.399 . S
C967 C968 1.385 . S
C968 H954 0.931 . S
C968 C967 1.385 . S
C968 C969 1.389 . S
C969 C968 1.389 . S
C969 C970 1.387 . S
C970 H955 0.930 . S
C970 C965 1.390 . S
C970 C969 1.387 . S
H971 C983 0.930 . S
H972 C985 0.930 . S
H973 C986 0.930 . S
H974 C990 0.959 . S
H975 C990 0.959 . S
H976 C990 0.961 . S
H977 C991 0.960 . S
H978 C991 0.961 . S
H979 C991 0.959 . S
H980 C994 0.929 . S
H981 C995 0.931 . S
H982 C997 0.930 . S
C983 H971 0.930 . S
C983 C984 1.399 . S
C983 C988 1.399 . S
C984 C983 1.399 . S
C984 C985 1.376 . S
C985 H972 0.930 . S
C985 C984 1.376 . S
C985 C986 1.388 . S
C986 H973 0.930 . S
C986 C985 1.388 . S
C986 C987 1.390 . S
C987 C986 1.390 . S
C987 C988 1.394 . S
C987 C993 1.465 . S
C988 C983 1.399 . S
C988 C987 1.394 . S
C988 C989 1.516 . S
C989 C988 1.516 . S
C989 C990 1.502 . S
C989 C991 1.561 . S
C989 C992 1.526 . S
C990 H974 0.959 . S
C990 H975 0.959 . S
C990 H976 0.961 . S
C990 C989 1.502 . S
C991 H977 0.960 . S
C991 H978 0.961 . S
C991 H979 0.959 . S
C991 C989 1.561 . S
C992 C989 1.526 . S
C992 C993 1.396 . S
C992 C997 1.390 . S
C993 C987 1.465 . S
C993 C992 1.396 . S
C993 C994 1.399 . S
C994 H980 0.929 . S
C994 C993 1.399 . S
C994 C995 1.385 . S
C995 H981 0.931 . S
C995 C994 1.385 . S
C995 C996 1.389 . S
C996 C995 1.389 . S
C996 C997 1.387 . S
C997 H982 0.930 . S
C997 C992 1.390 . S
C997 C996 1.387 . S
H998 C1010 0.930 . S
H999 C1012 0.930 . S
H1000 C1013 0.930 . S
H1001 C1017 0.959 . S
H1002 C1017 0.959 . S
H1003 C1017 0.961 . S
H1004 C1018 0.960 . S
H1005 C1018 0.961 . S
H1006 C1018 0.959 . S
H1007 C1021 0.929 . S
H1008 C1022 0.931 . S
H1009 C1024 0.930 . S
C1010 H998 0.930 . S
C1010 C1011 1.399 . S
C1010 C1015 1.399 . S
C1011 C1010 1.399 . S
C1011 C1012 1.376 . S
C1012 H999 0.930 . S
C1012 C1011 1.376 . S
C1012 C1013 1.388 . S
C1013 H1000 0.930 . S
C1013 C1012 1.388 . S
C1013 C1014 1.390 . S
C1014 C1013 1.390 . S
C1014 C1015 1.394 . S
C1014 C1020 1.465 . S
C1015 C1010 1.399 . S
C1015 C1014 1.394 . S
C1015 C1016 1.516 . S
C1016 C1015 1.516 . S
C1016 C1017 1.502 . S
C1016 C1018 1.561 . S
C1016 C1019 1.526 . S
C1017 H1001 0.959 . S
C1017 H1002 0.959 . S
C1017 H1003 0.961 . S
C1017 C1016 1.502 . S
C1018 H1004 0.960 . S
C1018 H1005 0.961 . S
C1018 H1006 0.959 . S
C1018 C1016 1.561 . S
C1019 C1016 1.526 . S
C1019 C1020 1.396 . S
C1019 C1024 1.390 . S
C1020 C1014 1.465 . S
C1020 C1019 1.396 . S
C1020 C1021 1.399 . S
C1021 H1007 0.929 . S
C1021 C1020 1.399 . S
C1021 C1022 1.385 . S
C1022 H1008 0.931 . S
C1022 C1021 1.385 . S
C1022 C1023 1.389 . S
C1023 C1022 1.389 . S
C1023 C1024 1.387 . S
C1024 H1009 0.930 . S
C1024 C1019 1.390 . S
C1024 C1023 1.387 . S
H1025 C1037 0.930 . S
H1026 C1039 0.930 . S
H1027 C1040 0.930 . S
H1028 C1044 0.959 . S
H1029 C1044 0.959 . S
H1030 C1044 0.961 . S
H1031 C1045 0.960 . S
H1032 C1045 0.961 . S
H1033 C1045 0.959 . S
H1034 C1048 0.929 . S
H1035 C1049 0.931 . S
H1036 C1051 0.930 . S
C1037 H1025 0.930 . S
C1037 C1038 1.399 . S
C1037 C1042 1.399 . S
C1038 C1037 1.399 . S
C1038 C1039 1.376 . S
C1039 H1026 0.930 . S
C1039 C1038 1.376 . S
C1039 C1040 1.388 . S
C1040 H1027 0.930 . S
C1040 C1039 1.388 . S
C1040 C1041 1.390 . S
C1041 C1040 1.390 . S
C1041 C1042 1.394 . S
C1041 C1047 1.465 . S
C1042 C1037 1.399 . S
C1042 C1041 1.394 . S
C1042 C1043 1.516 . S
C1043 C1042 1.516 . S
C1043 C1044 1.502 . S
C1043 C1045 1.561 . S
C1043 C1046 1.526 . S
C1044 H1028 0.959 . S
C1044 H1029 0.959 . S
C1044 H1030 0.961 . S
C1044 C1043 1.502 . S
C1045 H1031 0.960 . S
C1045 H1032 0.961 . S
C1045 H1033 0.959 . S
C1045 C1043 1.561 . S
C1046 C1043 1.526 . S
C1046 C1047 1.396 . S
C1046 C1051 1.390 . S
C1047 C1041 1.465 . S
C1047 C1046 1.396 . S
C1047 C1048 1.399 . S
C1048 H1034 0.929 . S
C1048 C1047 1.399 . S
C1048 C1049 1.385 . S
C1049 H1035 0.931 . S
C1049 C1048 1.385 . S
C1049 C1050 1.389 . S
C1050 C1049 1.389 . S
C1050 C1051 1.387 . S
C1051 H1036 0.930 . S
C1051 C1046 1.390 . S
C1051 C1050 1.387 . S
H1052 C1064 0.930 . S
H1053 C1066 0.930 . S
H1054 C1067 0.930 . S
H1055 C1071 0.959 . S
H1056 C1071 0.959 . S
H1057 C1071 0.961 . S
H1058 C1072 0.960 . S
H1059 C1072 0.961 . S
H1060 C1072 0.959 . S
H1061 C1075 0.929 . S
H1062 C1076 0.931 . S
H1063 C1078 0.930 . S
C1064 H1052 0.930 . S
C1064 C1065 1.399 . S
C1064 C1069 1.399 . S
C1065 C1064 1.399 . S
C1065 C1066 1.376 . S
C1066 H1053 0.930 . S
C1066 C1065 1.376 . S
C1066 C1067 1.388 . S
C1067 H1054 0.930 . S
C1067 C1066 1.388 . S
C1067 C1068 1.390 . S
C1068 C1067 1.390 . S
C1068 C1069 1.394 . S
C1068 C1074 1.465 . S
C1069 C1064 1.399 . S
C1069 C1068 1.394 . S
C1069 C1070 1.516 . S
C1070 C1069 1.516 . S
C1070 C1071 1.502 . S
C1070 C1072 1.561 . S
C1070 C1073 1.526 . S
C1071 H1055 0.959 . S
C1071 H1056 0.959 . S
C1071 H1057 0.961 . S
C1071 C1070 1.502 . S
C1072 H1058 0.960 . S
C1072 H1059 0.961 . S
C1072 H1060 0.959 . S
C1072 C1070 1.561 . S
C1073 C1070 1.526 . S
C1073 C1074 1.396 . S
C1073 C1078 1.390 . S
C1074 C1068 1.465 . S
C1074 C1073 1.396 . S
C1074 C1075 1.399 . S
C1075 H1061 0.929 . S
C1075 C1074 1.399 . S
C1075 C1076 1.385 . S
C1076 H1062 0.931 . S
C1076 C1075 1.385 . S
C1076 C1077 1.389 . S
C1077 C1076 1.389 . S
C1077 C1078 1.387 . S
C1078 H1063 0.930 . S
C1078 C1073 1.390 . S
C1078 C1077 1.387 . S
H1079 C1091 0.930 . S
H1080 C1093 0.930 . S
H1081 C1094 0.930 . S
H1082 C1098 0.959 . S
H1083 C1098 0.959 . S
H1084 C1098 0.961 . S
H1085 C1099 0.960 . S
H1086 C1099 0.961 . S
H1087 C1099 0.959 . S
H1088 C1102 0.929 . S
H1089 C1103 0.931 . S
H1090 C1105 0.930 . S
C1091 H1079 0.930 . S
C1091 C1092 1.399 . S
C1091 C1096 1.399 . S
C1092 C1091 1.399 . S
C1092 C1093 1.376 . S
C1093 H1080 0.930 . S
C1093 C1092 1.376 . S
C1093 C1094 1.388 . S
C1094 H1081 0.930 . S
C1094 C1093 1.388 . S
C1094 C1095 1.390 . S
C1095 C1094 1.390 . S
C1095 C1096 1.394 . S
C1095 C1101 1.465 . S
C1096 C1091 1.399 . S
C1096 C1095 1.394 . S
C1096 C1097 1.516 . S
C1097 C1096 1.516 . S
C1097 C1098 1.502 . S
C1097 C1099 1.561 . S
C1097 C1100 1.526 . S
C1098 H1082 0.959 . S
C1098 H1083 0.959 . S
C1098 H1084 0.961 . S
C1098 C1097 1.502 . S
C1099 H1085 0.960 . S
C1099 H1086 0.961 . S
C1099 H1087 0.959 . S
C1099 C1097 1.561 . S
C1100 C1097 1.526 . S
C1100 C1101 1.396 . S
C1100 C1105 1.390 . S
C1101 C1095 1.465 . S
C1101 C1100 1.396 . S
C1101 C1102 1.399 . S
C1102 H1088 0.929 . S
C1102 C1101 1.399 . S
C1102 C1103 1.385 . S
C1103 H1089 0.931 . S
C1103 C1102 1.385 . S
C1103 C1104 1.389 . S
C1104 C1103 1.389 . S
C1104 C1105 1.387 . S
C1105 H1090 0.930 . S
C1105 C1100 1.390 . S
C1105 C1104 1.387 . S
H1106 C1118 0.930 . S
H1107 C1120 0.930 . S
H1108 C1121 0.930 . S
H1109 C1125 0.959 . S
H1110 C1125 0.959 . S
H1111 C1125 0.961 . S
H1112 C1126 0.960 . S
H1113 C1126 0.961 . S
H1114 C1126 0.959 . S
H1115 C1129 0.929 . S
H1116 C1130 0.931 . S
H1117 C1132 0.930 . S
C1118 H1106 0.930 . S
C1118 C1119 1.399 . S
C1118 C1123 1.399 . S
C1119 C1118 1.399 . S
C1119 C1120 1.376 . S
C1120 H1107 0.930 . S
C1120 C1119 1.376 . S
C1120 C1121 1.388 . S
C1121 H1108 0.930 . S
C1121 C1120 1.388 . S
C1121 C1122 1.390 . S
C1122 C1121 1.390 . S
C1122 C1123 1.394 . S
C1122 C1128 1.465 . S
C1123 C1118 1.399 . S
C1123 C1122 1.394 . S
C1123 C1124 1.516 . S
C1124 C1123 1.516 . S
C1124 C1125 1.502 . S
C1124 C1126 1.561 . S
C1124 C1127 1.526 . S
C1125 H1109 0.959 . S
C1125 H1110 0.959 . S
C1125 H1111 0.961 . S
C1125 C1124 1.502 . S
C1126 H1112 0.960 . S
C1126 H1113 0.961 . S
C1126 H1114 0.959 . S
C1126 C1124 1.561 . S
C1127 C1124 1.526 . S
C1127 C1128 1.396 . S
C1127 C1132 1.390 . S
C1128 C1122 1.465 . S
C1128 C1127 1.396 . S
C1128 C1129 1.399 . S
C1129 H1115 0.929 . S
C1129 C1128 1.399 . S
C1129 C1130 1.385 . S
C1130 H1116 0.931 . S
C1130 C1129 1.385 . S
C1130 C1131 1.389 . S
C1131 C1130 1.389 . S
C1131 C1132 1.387 . S
C1132 H1117 0.930 . S
C1132 C1127 1.390 . S
C1132 C1131 1.387 . S
H1133 C1145 0.930 . S
H1134 C1147 0.930 . S
H1135 C1148 0.930 . S
H1136 C1152 0.959 . S
H1137 C1152 0.959 . S
H1138 C1152 0.961 . S
H1139 C1153 0.960 . S
H1140 C1153 0.961 . S
H1141 C1153 0.959 . S
H1142 C1156 0.929 . S
H1143 C1157 0.931 . S
H1144 C1159 0.930 . S
C1145 H1133 0.930 . S
C1145 C1146 1.399 . S
C1145 C1150 1.399 . S
C1146 C1145 1.399 . S
C1146 C1147 1.376 . S
C1147 H1134 0.930 . S
C1147 C1146 1.376 . S
C1147 C1148 1.388 . S
C1148 H1135 0.930 . S
C1148 C1147 1.388 . S
C1148 C1149 1.390 . S
C1149 C1148 1.390 . S
C1149 C1150 1.394 . S
C1149 C1155 1.465 . S
C1150 C1145 1.399 . S
C1150 C1149 1.394 . S
C1150 C1151 1.516 . S
C1151 C1150 1.516 . S
C1151 C1152 1.502 . S
C1151 C1153 1.561 . S
C1151 C1154 1.526 . S
C1152 H1136 0.959 . S
C1152 H1137 0.959 . S
C1152 H1138 0.961 . S
C1152 C1151 1.502 . S
C1153 H1139 0.960 . S
C1153 H1140 0.961 . S
C1153 H1141 0.959 . S
C1153 C1151 1.561 . S
C1154 C1151 1.526 . S
C1154 C1155 1.396 . S
C1154 C1159 1.390 . S
C1155 C1149 1.465 . S
C1155 C1154 1.396 . S
C1155 C1156 1.399 . S
C1156 H1142 0.929 . S
C1156 C1155 1.399 . S
C1156 C1157 1.385 . S
C1157 H1143 0.931 . S
C1157 C1156 1.385 . S
C1157 C1158 1.389 . S
C1158 C1157 1.389 . S
C1158 C1159 1.387 . S
C1159 H1144 0.930 . S
C1159 C1154 1.390 . S
C1159 C1158 1.387 . S
H1160 C1172 0.930 . S
H1161 C1174 0.930 . S
H1162 C1175 0.930 . S
H1163 C1179 0.959 . S
H1164 C1179 0.959 . S
H1165 C1179 0.961 . S
H1166 C1180 0.960 . S
H1167 C1180 0.961 . S
H1168 C1180 0.959 . S
H1169 C1183 0.929 . S
H1170 C1184 0.931 . S
H1171 C1186 0.930 . S
C1172 H1160 0.930 . S
C1172 C1173 1.399 . S
C1172 C1177 1.399 . S
C1173 C1172 1.399 . S
C1173 C1174 1.376 . S
C1174 H1161 0.930 . S
C1174 C1173 1.376 . S
C1174 C1175 1.388 . S
C1175 H1162 0.930 . S
C1175 C1174 1.388 . S
C1175 C1176 1.390 . S
C1176 C1175 1.390 . S
C1176 C1177 1.394 . S
C1176 C1182 1.465 . S
C1177 C1172 1.399 . S
C1177 C1176 1.394 . S
C1177 C1178 1.516 . S
C1178 C1177 1.516 . S
C1178 C1179 1.502 . S
C1178 C1180 1.561 . S
C1178 C1181 1.526 . S
C1179 H1163 0.959 . S
C1179 H1164 0.959 . S
C1179 H1165 0.961 . S
C1179 C1178 1.502 . S
C1180 H1166 0.960 . S
C1180 H1167 0.961 . S
C1180 H1168 0.959 . S
C1180 C1178 1.561 . S
C1181 C1178 1.526 . S
C1181 C1182 1.396 . S
C1181 C1186 1.390 . S
C1182 C1176 1.465 . S
C1182 C1181 1.396 . S
C1182 C1183 1.399 . S
C1183 H1169 0.929 . S
C1183 C1182 1.399 . S
C1183 C1184 1.385 . S
C1184 H1170 0.931 . S
C1184 C1183 1.385 . S
C1184 C1185 1.389 . S
C1185 C1184 1.389 . S
C1185 C1186 1.387 . S
C1186 H1171 0.930 . S
C1186 C1181 1.390 . S
C1186 C1185 1.387 . S
H1187 C1199 0.930 . S
H1188 C1201 0.930 . S
H1189 C1202 0.930 . S
H1190 C1206 0.959 . S
H1191 C1206 0.959 . S
H1192 C1206 0.961 . S
H1193 C1207 0.960 . S
H1194 C1207 0.961 . S
H1195 C1207 0.959 . S
H1196 C1210 0.929 . S
H1197 C1211 0.931 . S
H1198 C1213 0.930 . S
C1199 H1187 0.930 . S
C1199 C1200 1.399 . S
C1199 C1204 1.399 . S
C1200 C1199 1.399 . S
C1200 C1201 1.376 . S
C1201 H1188 0.930 . S
C1201 C1200 1.376 . S
C1201 C1202 1.388 . S
C1202 H1189 0.930 . S
C1202 C1201 1.388 . S
C1202 C1203 1.390 . S
C1203 C1202 1.390 . S
C1203 C1204 1.394 . S
C1203 C1209 1.465 . S
C1204 C1199 1.399 . S
C1204 C1203 1.394 . S
C1204 C1205 1.516 . S
C1205 C1204 1.516 . S
C1205 C1206 1.502 . S
C1205 C1207 1.561 . S
C1205 C1208 1.526 . S
C1206 H1190 0.959 . S
C1206 H1191 0.959 . S
C1206 H1192 0.961 . S
C1206 C1205 1.502 . S
C1207 H1193 0.960 . S
C1207 H1194 0.961 . S
C1207 H1195 0.959 . S
C1207 C1205 1.561 . S
C1208 C1205 1.526 . S
C1208 C1209 1.396 . S
C1208 C1213 1.390 . S
C1209 C1203 1.465 . S
C1209 C1208 1.396 . S
C1209 C1210 1.399 . S
C1210 H1196 0.929 . S
C1210 C1209 1.399 . S
C1210 C1211 1.385 . S
C1211 H1197 0.931 . S
C1211 C1210 1.385 . S
C1211 C1212 1.389 . S
C1212 C1211 1.389 . S
C1212 C1213 1.387 . S
C1213 H1198 0.930 . S
C1213 C1208 1.390 . S
C1213 C1212 1.387 . S
H1214 C1226 0.930 . S
H1215 C1228 0.930 . S
H1216 C1229 0.930 . S
H1217 C1233 0.959 . S
H1218 C1233 0.959 . S
H1219 C1233 0.961 . S
H1220 C1234 0.960 . S
H1221 C1234 0.961 . S
H1222 C1234 0.959 . S
H1223 C1237 0.929 . S
H1224 C1238 0.931 . S
H1225 C1240 0.930 . S
C1226 H1214 0.930 . S
C1226 C1227 1.399 . S
C1226 C1231 1.399 . S
C1227 C1226 1.399 . S
C1227 C1228 1.376 . S
C1228 H1215 0.930 . S
C1228 C1227 1.376 . S
C1228 C1229 1.388 . S
C1229 H1216 0.930 . S
C1229 C1228 1.388 . S
C1229 C1230 1.390 . S
C1230 C1229 1.390 . S
C1230 C1231 1.394 . S
C1230 C1236 1.465 . S
C1231 C1226 1.399 . S
C1231 C1230 1.394 . S
C1231 C1232 1.516 . S
C1232 C1231 1.516 . S
C1232 C1233 1.502 . S
C1232 C1234 1.561 . S
C1232 C1235 1.526 . S
C1233 H1217 0.959 . S
C1233 H1218 0.959 . S
C1233 H1219 0.961 . S
C1233 C1232 1.502 . S
C1234 H1220 0.960 . S
C1234 H1221 0.961 . S
C1234 H1222 0.959 . S
C1234 C1232 1.561 . S
C1235 C1232 1.526 . S
C1235 C1236 1.396 . S
C1235 C1240 1.390 . S
C1236 C1230 1.465 . S
C1236 C1235 1.396 . S
C1236 C1237 1.399 . S
C1237 H1223 0.929 . S
C1237 C1236 1.399 . S
C1237 C1238 1.385 . S
C1238 H1224 0.931 . S
C1238 C1237 1.385 . S
C1238 C1239 1.389 . S
C1239 C1238 1.389 . S
C1239 C1240 1.387 . S
C1240 H1225 0.930 . S
C1240 C1235 1.390 . S
C1240 C1239 1.387 . S
H1241 C1253 0.930 . S
H1242 C1255 0.930 . S
H1243 C1256 0.930 . S
H1244 C1260 0.959 . S
H1245 C1260 0.959 . S
H1246 C1260 0.961 . S
H1247 C1261 0.960 . S
H1248 C1261 0.961 . S
H1249 C1261 0.959 . S
H1250 C1264 0.929 . S
H1251 C1265 0.931 . S
H1252 C1267 0.930 . S
C1253 H1241 0.930 . S
C1253 C1254 1.399 . S
C1253 C1258 1.399 . S
C1254 C1253 1.399 . S
C1254 C1255 1.376 . S
C1255 H1242 0.930 . S
C1255 C1254 1.376 . S
C1255 C1256 1.388 . S
C1256 H1243 0.930 . S
C1256 C1255 1.388 . S
C1256 C1257 1.390 . S
C1257 C1256 1.390 . S
C1257 C1258 1.394 . S
C1257 C1263 1.465 . S
C1258 C1253 1.399 . S
C1258 C1257 1.394 . S
C1258 C1259 1.516 . S
C1259 C1258 1.516 . S
C1259 C1260 1.502 . S
C1259 C1261 1.561 . S
C1259 C1262 1.526 . S
C1260 H1244 0.959 . S
C1260 H1245 0.959 . S
C1260 H1246 0.961 . S
C1260 C1259 1.502 . S
C1261 H1247 0.960 . S
C1261 H1248 0.961 . S
C1261 H1249 0.959 . S
C1261 C1259 1.561 . S
C1262 C1259 1.526 . S
C1262 C1263 1.396 . S
C1262 C1267 1.390 . S
C1263 C1257 1.465 . S
C1263 C1262 1.396 . S
C1263 C1264 1.399 . S
C1264 H1250 0.929 . S
C1264 C1263 1.399 . S
C1264 C1265 1.385 . S
C1265 H1251 0.931 . S
C1265 C1264 1.385 . S
C1265 C1266 1.389 . S
C1266 C1265 1.389 . S
C1266 C1267 1.387 . S
C1267 H1252 0.930 . S
C1267 C1262 1.390 . S
C1267 C1266 1.387 . S
H1268 C1280 0.930 . S
H1269 C1282 0.930 . S
H1270 C1283 0.930 . S
H1271 C1287 0.959 . S
H1272 C1287 0.959 . S
H1273 C1287 0.961 . S
H1274 C1288 0.960 . S
H1275 C1288 0.961 . S
H1276 C1288 0.959 . S
H1277 C1291 0.929 . S
H1278 C1292 0.931 . S
H1279 C1294 0.930 . S
C1280 H1268 0.930 . S
C1280 C1281 1.399 . S
C1280 C1285 1.399 . S
C1281 C1280 1.399 . S
C1281 C1282 1.376 . S
C1282 H1269 0.930 . S
C1282 C1281 1.376 . S
C1282 C1283 1.388 . S
C1283 H1270 0.930 . S
C1283 C1282 1.388 . S
C1283 C1284 1.390 . S
C1284 C1283 1.390 . S
C1284 C1285 1.394 . S
C1284 C1290 1.465 . S
C1285 C1280 1.399 . S
C1285 C1284 1.394 . S
C1285 C1286 1.516 . S
C1286 C1285 1.516 . S
C1286 C1287 1.502 . S
C1286 C1288 1.561 . S
C1286 C1289 1.526 . S
C1287 H1271 0.959 . S
C1287 H1272 0.959 . S
C1287 H1273 0.961 . S
C1287 C1286 1.502 . S
C1288 H1274 0.960 . S
C1288 H1275 0.961 . S
C1288 H1276 0.959 . S
C1288 C1286 1.561 . S
C1289 C1286 1.526 . S
C1289 C1290 1.396 . S
C1289 C1294 1.390 . S
C1290 C1284 1.465 . S
C1290 C1289 1.396 . S
C1290 C1291 1.399 . S
C1291 H1277 0.929 . S
C1291 C1290 1.399 . S
C1291 C1292 1.385 . S
C1292 H1278 0.931 . S
C1292 C1291 1.385 . S
C1292 C1293 1.389 . S
C1293 C1292 1.389 . S
C1293 C1294 1.387 . S
C1294 H1279 0.930 . S
C1294 C1289 1.390 . S
C1294 C1293 1.387 . S
H1295 C1307 0.930 . S
H1296 C1309 0.930 . S
H1297 C1310 0.930 . S
H1298 C1314 0.959 . S
H1299 C1314 0.959 . S
H1300 C1314 0.961 . S
H1301 C1315 0.960 . S
H1302 C1315 0.961 . S
H1303 C1315 0.959 . S
H1304 C1318 0.929 . S
H1305 C1319 0.931 . S
H1306 C1321 0.930 . S
C1307 H1295 0.930 . S
C1307 C1308 1.399 . S
C1307 C1312 1.399 . S
C1308 C1307 1.399 . S
C1308 C1309 1.376 . S
C1309 H1296 0.930 . S
C1309 C1308 1.376 . S
C1309 C1310 1.388 . S
C1310 H1297 0.930 . S
C1310 C1309 1.388 . S
C1310 C1311 1.390 . S
C1311 C1310 1.390 . S
C1311 C1312 1.394 . S
C1311 C1317 1.465 . S
C1312 C1307 1.399 . S
C1312 C1311 1.394 . S
C1312 C1313 1.516 . S
C1313 C1312 1.516 . S
C1313 C1314 1.502 . S
C1313 C1315 1.561 . S
C1313 C1316 1.526 . S
C1314 H1298 0.959 . S
C1314 H1299 0.959 . S
C1314 H1300 0.961 . S
C1314 C1313 1.502 . S
C1315 H1301 0.960 . S
C1315 H1302 0.961 . S
C1315 H1303 0.959 . S
C1315 C1313 1.561 . S
C1316 C1313 1.526 . S
C1316 C1317 1.396 . S
C1316 C1321 1.390 . S
C1317 C1311 1.465 . S
C1317 C1316 1.396 . S
C1317 C1318 1.399 . S
C1318 H1304 0.929 . S
C1318 C1317 1.399 . S
C1318 C1319 1.385 . S
C1319 H1305 0.931 . S
C1319 C1318 1.385 . S
C1319 C1320 1.389 . S
C1320 C1319 1.389 . S
C1320 C1321 1.387 . S
C1321 H1306 0.930 . S
C1321 C1316 1.390 . S
C1321 C1320 1.387 . S
H1322 C1334 0.930 . S
H1323 C1336 0.930 . S
H1324 C1337 0.930 . S
H1325 C1341 0.959 . S
H1326 C1341 0.959 . S
H1327 C1341 0.961 . S
H1328 C1342 0.960 . S
H1329 C1342 0.961 . S
H1330 C1342 0.959 . S
H1331 C1345 0.929 . S
H1332 C1346 0.931 . S
H1333 C1348 0.930 . S
C1334 H1322 0.930 . S
C1334 C1335 1.399 . S
C1334 C1339 1.399 . S
C1335 C1334 1.399 . S
C1335 C1336 1.376 . S
C1336 H1323 0.930 . S
C1336 C1335 1.376 . S
C1336 C1337 1.388 . S
C1337 H1324 0.930 . S
C1337 C1336 1.388 . S
C1337 C1338 1.390 . S
C1338 C1337 1.390 . S
C1338 C1339 1.394 . S
C1338 C1344 1.465 . S
C1339 C1334 1.399 . S
C1339 C1338 1.394 . S
C1339 C1340 1.516 . S
C1340 C1339 1.516 . S
C1340 C1341 1.502 . S
C1340 C1342 1.561 . S
C1340 C1343 1.526 . S
C1341 H1325 0.959 . S
C1341 H1326 0.959 . S
C1341 H1327 0.961 . S
C1341 C1340 1.502 . S
C1342 H1328 0.960 . S
C1342 H1329 0.961 . S
C1342 H1330 0.959 . S
C1342 C1340 1.561 . S
C1343 C1340 1.526 . S
C1343 C1344 1.396 . S
C1343 C1348 1.390 . S
C1344 C1338 1.465 . S
C1344 C1343 1.396 . S
C1344 C1345 1.399 . S
C1345 H1331 0.929 . S
C1345 C1344 1.399 . S
C1345 C1346 1.385 . S
C1346 H1332 0.931 . S
C1346 C1345 1.385 . S
C1346 C1347 1.389 . S
C1347 C1346 1.389 . S
C1347 C1348 1.387 . S
C1348 H1333 0.930 . S
C1348 C1343 1.390 . S
C1348 C1347 1.387 . S
H1349 C1361 0.930 . S
H1350 C1363 0.930 . S
H1351 C1364 0.930 . S
H1352 C1368 0.959 . S
H1353 C1368 0.959 . S
H1354 C1368 0.961 . S
H1355 C1369 0.960 . S
H1356 C1369 0.961 . S
H1357 C1369 0.959 . S
H1358 C1372 0.929 . S
H1359 C1373 0.931 . S
H1360 C1375 0.930 . S
C1361 H1349 0.930 . S
C1361 C1362 1.399 . S
C1361 C1366 1.399 . S
C1362 C1361 1.399 . S
C1362 C1363 1.376 . S
C1363 H1350 0.930 . S
C1363 C1362 1.376 . S
C1363 C1364 1.388 . S
C1364 H1351 0.930 . S
C1364 C1363 1.388 . S
C1364 C1365 1.390 . S
C1365 C1364 1.390 . S
C1365 C1366 1.394 . S
C1365 C1371 1.465 . S
C1366 C1361 1.399 . S
C1366 C1365 1.394 . S
C1366 C1367 1.516 . S
C1367 C1366 1.516 . S
C1367 C1368 1.502 . S
C1367 C1369 1.561 . S
C1367 C1370 1.526 . S
C1368 H1352 0.959 . S
C1368 H1353 0.959 . S
C1368 H1354 0.961 . S
C1368 C1367 1.502 . S
C1369 H1355 0.960 . S
C1369 H1356 0.961 . S
C1369 H1357 0.959 . S
C1369 C1367 1.561 . S
C1370 C1367 1.526 . S
C1370 C1371 1.396 . S
C1370 C1375 1.390 . S
C1371 C1365 1.465 . S
C1371 C1370 1.396 . S
C1371 C1372 1.399 . S
C1372 H1358 0.929 . S
C1372 C1371 1.399 . S
C1372 C1373 1.385 . S
C1373 H1359 0.931 . S
C1373 C1372 1.385 . S
C1373 C1374 1.389 . S
C1374 C1373 1.389 . S
C1374 C1375 1.387 . S
C1375 H1360 0.930 . S
C1375 C1370 1.390 . S
C1375 C1374 1.387 . S
H1376 C1388 0.930 . S
H1377 C1390 0.930 . S
H1378 C1391 0.930 . S
H1379 C1395 0.959 . S
H1380 C1395 0.959 . S
H1381 C1395 0.961 . S
H1382 C1396 0.960 . S
H1383 C1396 0.961 . S
H1384 C1396 0.959 . S
H1385 C1399 0.929 . S
H1386 C1400 0.931 . S
H1387 C1402 0.930 . S
C1388 H1376 0.930 . S
C1388 C1389 1.399 . S
C1388 C1393 1.399 . S
C1389 C1388 1.399 . S
C1389 C1390 1.376 . S
C1390 H1377 0.930 . S
C1390 C1389 1.376 . S
C1390 C1391 1.388 . S
C1391 H1378 0.930 . S
C1391 C1390 1.388 . S
C1391 C1392 1.390 . S
C1392 C1391 1.390 . S
C1392 C1393 1.394 . S
C1392 C1398 1.465 . S
C1393 C1388 1.399 . S
C1393 C1392 1.394 . S
C1393 C1394 1.516 . S
C1394 C1393 1.516 . S
C1394 C1395 1.502 . S
C1394 C1396 1.561 . S
C1394 C1397 1.526 . S
C1395 H1379 0.959 . S
C1395 H1380 0.959 . S
C1395 H1381 0.961 . S
C1395 C1394 1.502 . S
C1396 H1382 0.960 . S
C1396 H1383 0.961 . S
C1396 H1384 0.959 . S
C1396 C1394 1.561 . S
C1397 C1394 1.526 . S
C1397 C1398 1.396 . S
C1397 C1402 1.390 . S
C1398 C1392 1.465 . S
C1398 C1397 1.396 . S
C1398 C1399 1.399 . S
C1399 H1385 0.929 . S
C1399 C1398 1.399 . S
C1399 C1400 1.385 . S
C1400 H1386 0.931 . S
C1400 C1399 1.385 . S
C1400 C1401 1.389 . S
C1401 C1400 1.389 . S
C1401 C1402 1.387 . S
C1402 H1387 0.930 . S
C1402 C1397 1.390 . S
C1402 C1401 1.387 . S
H1403 C1415 0.930 . S
H1404 C1417 0.930 . S
H1405 C1418 0.930 . S
H1406 C1422 0.959 . S
H1407 C1422 0.959 . S
H1408 C1422 0.961 . S
H1409 C1423 0.960 . S
H1410 C1423 0.961 . S
H1411 C1423 0.959 . S
H1412 C1426 0.929 . S
H1413 C1427 0.931 . S
H1414 C1429 0.930 . S
C1415 H1403 0.930 . S
C1415 C1416 1.399 . S
C1415 C1420 1.399 . S
C1416 C1415 1.399 . S
C1416 C1417 1.376 . S
C1417 H1404 0.930 . S
C1417 C1416 1.376 . S
C1417 C1418 1.388 . S
C1418 H1405 0.930 . S
C1418 C1417 1.388 . S
C1418 C1419 1.390 . S
C1419 C1418 1.390 . S
C1419 C1420 1.394 . S
C1419 C1425 1.465 . S
C1420 C1415 1.399 . S
C1420 C1419 1.394 . S
C1420 C1421 1.516 . S
C1421 C1420 1.516 . S
C1421 C1422 1.502 . S
C1421 C1423 1.561 . S
C1421 C1424 1.526 . S
C1422 H1406 0.959 . S
C1422 H1407 0.959 . S
C1422 H1408 0.961 . S
C1422 C1421 1.502 . S
C1423 H1409 0.960 . S
C1423 H1410 0.961 . S
C1423 H1411 0.959 . S
C1423 C1421 1.561 . S
C1424 C1421 1.526 . S
C1424 C1425 1.396 . S
C1424 C1429 1.390 . S
C1425 C1419 1.465 . S
C1425 C1424 1.396 . S
C1425 C1426 1.399 . S
C1426 H1412 0.929 . S
C1426 C1425 1.399 . S
C1426 C1427 1.385 . S
C1427 H1413 0.931 . S
C1427 C1426 1.385 . S
C1427 C1428 1.389 . S
C1428 C1427 1.389 . S
C1428 C1429 1.387 . S
C1429 H1414 0.930 . S
C1429 C1424 1.390 . S
C1429 C1428 1.387 . S
H1430 C1442 0.930 . S
H1431 C1444 0.930 . S
H1432 C1445 0.930 . S
H1433 C1449 0.959 . S
H1434 C1449 0.959 . S
H1435 C1449 0.961 . S
H1436 C1450 0.960 . S
H1437 C1450 0.961 . S
H1438 C1450 0.959 . S
H1439 C1453 0.929 . S
H1440 C1454 0.931 . S
H1441 C1456 0.930 . S
C1442 H1430 0.930 . S
C1442 C1443 1.399 . S
C1442 C1447 1.399 . S
C1443 C1442 1.399 . S
C1443 C1444 1.376 . S
C1444 H1431 0.930 . S
C1444 C1443 1.376 . S
C1444 C1445 1.388 . S
C1445 H1432 0.930 . S
C1445 C1444 1.388 . S
C1445 C1446 1.390 . S
C1446 C1445 1.390 . S
C1446 C1447 1.394 . S
C1446 C1452 1.465 . S
C1447 C1442 1.399 . S
C1447 C1446 1.394 . S
C1447 C1448 1.516 . S
C1448 C1447 1.516 . S
C1448 C1449 1.502 . S
C1448 C1450 1.561 . S
C1448 C1451 1.526 . S
C1449 H1433 0.959 . S
C1449 H1434 0.959 . S
C1449 H1435 0.961 . S
C1449 C1448 1.502 . S
C1450 H1436 0.960 . S
C1450 H1437 0.961 . S
C1450 H1438 0.959 . S
C1450 C1448 1.561 . S
C1451 C1448 1.526 . S
C1451 C1452 1.396 . S
C1451 C1456 1.390 . S
C1452 C1446 1.465 . S
C1452 C1451 1.396 . S
C1452 C1453 1.399 . S
C1453 H1439 0.929 . S
C1453 C1452 1.399 . S
C1453 C1454 1.385 . S
C1454 H1440 0.931 . S
C1454 C1453 1.385 . S
C1454 C1455 1.389 . S
C1455 C1454 1.389 . S
C1455 C1456 1.387 . S
C1456 H1441 0.930 . S
C1456 C1451 1.390 . S
C1456 C1455 1.387 . S
H1457 C1469 0.930 . S
H1458 C1471 0.930 . S
H1459 C1472 0.930 . S
H1460 C1476 0.959 . S
H1461 C1476 0.959 . S
H1462 C1476 0.961 . S
H1463 C1477 0.960 . S
H1464 C1477 0.961 . S
H1465 C1477 0.959 . S
H1466 C1480 0.929 . S
H1467 C1481 0.931 . S
H1468 C1483 0.930 . S
C1469 H1457 0.930 . S
C1469 C1470 1.399 . S
C1469 C1474 1.399 . S
C1470 C1469 1.399 . S
C1470 C1471 1.376 . S
C1471 H1458 0.930 . S
C1471 C1470 1.376 . S
C1471 C1472 1.388 . S
C1472 H1459 0.930 . S
C1472 C1471 1.388 . S
C1472 C1473 1.390 . S
C1473 C1472 1.390 . S
C1473 C1474 1.394 . S
C1473 C1479 1.465 . S
C1474 C1469 1.399 . S
C1474 C1473 1.394 . S
C1474 C1475 1.516 . S
C1475 C1474 1.516 . S
C1475 C1476 1.502 . S
C1475 C1477 1.561 . S
C1475 C1478 1.526 . S
C1476 H1460 0.959 . S
C1476 H1461 0.959 . S
C1476 H1462 0.961 . S
C1476 C1475 1.502 . S
C1477 H1463 0.960 . S
C1477 H1464 0.961 . S
C1477 H1465 0.959 . S
C1477 C1475 1.561 . S
C1478 C1475 1.526 . S
C1478 C1479 1.396 . S
C1478 C1483 1.390 . S
C1479 C1473 1.465 . S
C1479 C1478 1.396 . S
C1479 C1480 1.399 . S
C1480 H1466 0.929 . S
C1480 C1479 1.399 . S
C1480 C1481 1.385 . S
C1481 H1467 0.931 . S
C1481 C1480 1.385 . S
C1481 C1482 1.389 . S
C1482 C1481 1.389 . S
C1482 C1483 1.387 . S
C1483 H1468 0.930 . S
C1483 C1478 1.390 . S
C1483 C1482 1.387 . S
H1484 C1496 0.930 . S
H1485 C1498 0.930 . S
H1486 C1499 0.930 . S
H1487 C1503 0.959 . S
H1488 C1503 0.959 . S
H1489 C1503 0.961 . S
H1490 C1504 0.960 1_545 S
H1491 C1504 0.961 1_544 S
H1492 C1504 0.959 . S
H1493 C1507 0.929 . S
H1494 C1508 0.931 . S
H1495 C1510 0.930 . S
C1496 H1484 0.930 . S
C1496 C1497 1.399 . S
C1496 C1501 1.399 . S
C1497 C1496 1.399 . S
C1497 C1498 1.376 . S
C1498 H1485 0.930 . S
C1498 C1497 1.376 . S
C1498 C1499 1.388 . S
C1499 H1486 0.930 . S
C1499 C1498 1.388 . S
C1499 C1500 1.390 . S
C1500 C1499 1.390 . S
C1500 C1501 1.394 . S
C1500 C1506 1.465 1_556 S
C1501 C1496 1.399 . S
C1501 C1500 1.394 . S
C1501 C1502 1.516 . S
C1502 C1501 1.516 . S
C1502 C1503 1.502 1_556 S
C1502 C1504 1.561 . S
C1502 C1505 1.526 1_556 S
C1503 H1487 0.959 . S
C1503 H1488 0.959 . S
C1503 H1489 0.961 . S
C1503 C1502 1.502 1_554 S
C1504 H1490 0.960 1_565 S
C1504 H1491 0.961 1_566 S
C1504 H1492 0.959 . S
C1504 C1502 1.561 . S
C1505 C1502 1.526 1_554 S
C1505 C1506 1.396 . S
C1505 C1510 1.390 . S
C1506 C1500 1.465 1_554 S
C1506 C1505 1.396 . S
C1506 C1507 1.399 . S
C1507 H1493 0.929 . S
C1507 C1506 1.399 . S
C1507 C1508 1.385 . S
C1508 H1494 0.931 . S
C1508 C1507 1.385 . S
C1508 C1509 1.389 . S
C1509 C1508 1.389 . S
C1509 C1510 1.387 . S
C1510 H1495 0.930 . S
C1510 C1505 1.390 . S
C1510 C1509 1.387 . S
H1511 C1523 0.930 . S
H1512 C1525 0.930 . S
H1513 C1526 0.930 . S
H1514 C1530 0.959 . S
H1515 C1530 0.959 . S
H1516 C1530 0.961 1_554 S
H1517 C1531 0.960 . S
H1518 C1531 0.961 . S
H1519 C1531 0.959 . S
H1520 C1534 0.929 . S
H1521 C1535 0.931 . S
H1522 C1537 0.930 . S
C1523 H1511 0.930 . S
C1523 C1524 1.399 . S
C1523 C1528 1.399 . S
C1524 C1523 1.399 . S
C1524 C1525 1.376 . S
C1525 H1512 0.930 . S
C1525 C1524 1.376 . S
C1525 C1526 1.388 . S
C1526 H1513 0.930 . S
C1526 C1525 1.388 . S
C1526 C1527 1.390 . S
C1527 C1526 1.390 . S
C1527 C1528 1.394 . S
C1527 C1533 1.465 1_554 S
C1528 C1523 1.399 . S
C1528 C1527 1.394 . S
C1528 C1529 1.516 . S
C1529 C1528 1.516 . S
C1529 C1530 1.502 1_554 S
C1529 C1531 1.561 . S
C1529 C1532 1.526 1_554 S
C1530 H1514 0.959 . S
C1530 H1515 0.959 . S
C1530 H1516 0.961 1_556 S
C1530 C1529 1.502 1_556 S
C1531 H1517 0.960 . S
C1531 H1518 0.961 . S
C1531 H1519 0.959 . S
C1531 C1529 1.561 . S
C1532 C1529 1.526 1_556 S
C1532 C1533 1.396 . S
C1532 C1537 1.390 . S
C1533 C1527 1.465 1_556 S
C1533 C1532 1.396 . S
C1533 C1534 1.399 . S
C1534 H1520 0.929 . S
C1534 C1533 1.399 . S
C1534 C1535 1.385 . S
C1535 H1521 0.931 . S
C1535 C1534 1.385 . S
C1535 C1536 1.389 . S
C1536 C1535 1.389 . S
C1536 C1537 1.387 . S
C1537 H1522 0.930 . S
C1537 C1532 1.390 . S
C1537 C1536 1.387 . S
H1538 C1550 0.930 . S
H1539 C1552 0.930 . S
H1540 C1553 0.930 . S
H1541 C1557 0.959 . S
H1542 C1557 0.959 . S
H1543 C1557 0.961 1_556 S
H1544 C1558 0.960 . S
H1545 C1558 0.961 . S
H1546 C1558 0.959 . S
H1547 C1561 0.929 . S
H1548 C1562 0.931 . S
H1549 C1564 0.930 . S
C1550 H1538 0.930 . S
C1550 C1551 1.399 . S
C1550 C1555 1.399 . S
C1551 C1550 1.399 . S
C1551 C1552 1.376 . S
C1552 H1539 0.930 . S
C1552 C1551 1.376 . S
C1552 C1553 1.388 . S
C1553 H1540 0.930 . S
C1553 C1552 1.388 . S
C1553 C1554 1.390 . S
C1554 C1553 1.390 . S
C1554 C1555 1.394 . S
C1554 C1560 1.465 1_556 S
C1555 C1550 1.399 . S
C1555 C1554 1.394 . S
C1555 C1556 1.516 . S
C1556 C1555 1.516 . S
C1556 C1557 1.502 1_556 S
C1556 C1558 1.561 . S
C1556 C1559 1.526 1_556 S
C1557 H1541 0.959 . S
C1557 H1542 0.959 . S
C1557 H1543 0.961 1_554 S
C1557 C1556 1.502 1_554 S
C1558 H1544 0.960 . S
C1558 H1545 0.961 . S
C1558 H1546 0.959 . S
C1558 C1556 1.561 . S
C1559 C1556 1.526 1_554 S
C1559 C1560 1.396 . S
C1559 C1564 1.390 . S
C1560 C1554 1.465 1_554 S
C1560 C1559 1.396 . S
C1560 C1561 1.399 . S
C1561 H1547 0.929 . S
C1561 C1560 1.399 . S
C1561 C1562 1.385 . S
C1562 H1548 0.931 . S
C1562 C1561 1.385 . S
C1562 C1563 1.389 . S
C1563 C1562 1.389 . S
C1563 C1564 1.387 . S
C1564 H1549 0.930 . S
C1564 C1559 1.390 . S
C1564 C1563 1.387 . S
H1565 C1577 0.930 . S
H1566 C1579 0.930 . S
H1567 C1580 0.930 1_556 S
H1568 C1584 0.959 1_556 S
H1569 C1584 0.971 . S
H1570 C1584 0.961 . S
H1571 C1585 0.960 . S
H1572 C1585 0.961 . S
H1573 C1585 0.959 . S
H1574 C1588 0.929 . S
H1575 C1589 0.931 . S
H1576 C1591 0.930 . S
C1577 H1565 0.930 . S
C1577 C1578 1.399 . S
C1577 C1582 1.399 . S
C1578 C1577 1.399 . S
C1578 C1579 1.376 . S
C1579 H1566 0.930 . S
C1579 C1578 1.376 . S
C1579 C1580 1.388 . S
C1580 H1567 0.930 1_554 S
C1580 C1579 1.388 . S
C1580 C1581 1.390 . S
C1581 C1580 1.390 . S
C1581 C1582 1.394 . S
C1581 C1587 1.465 1_554 S
C1582 C1577 1.399 . S
C1582 C1581 1.394 . S
C1582 C1583 1.516 . S
C1583 C1582 1.516 . S
C1583 C1584 1.502 . S
C1583 C1585 1.561 . S
C1583 C1586 1.526 1_554 S
C1584 H1568 0.959 1_554 S
C1584 H1569 0.971 . S
C1584 H1570 0.961 . S
C1584 C1583 1.502 . S
C1585 H1571 0.960 . S
C1585 H1572 0.961 . S
C1585 H1573 0.959 . S
C1585 C1583 1.561 . S
C1586 C1583 1.526 1_556 S
C1586 C1587 1.396 . S
C1586 C1591 1.390 . S
C1587 C1581 1.465 1_556 S
C1587 C1586 1.396 . S
C1587 C1588 1.399 . S
C1588 H1574 0.929 . S
C1588 C1587 1.399 . S
C1588 C1589 1.385 . S
C1589 H1575 0.931 . S
C1589 C1588 1.385 . S
C1589 C1590 1.389 . S
C1590 C1589 1.389 . S
C1590 C1591 1.387 . S
C1591 H1576 0.930 . S
C1591 C1586 1.390 . S
C1591 C1590 1.387 . S
H1592 C1604 0.930 . S
H1593 C1606 0.930 . S
H1594 C1607 0.930 . S
H1595 C1611 0.959 . S
H1596 C1611 0.959 . S
H1597 C1611 0.961 . S
H1598 C1612 0.960 . S
H1599 C1612 0.961 . S
H1600 C1612 0.959 . S
H1601 C1615 0.929 . S
H1602 C1616 0.931 . S
H1603 C1618 0.930 . S
C1604 H1592 0.930 . S
C1604 C1605 1.399 . S
C1604 C1609 1.399 . S
C1605 C1604 1.399 . S
C1605 C1606 1.376 . S
C1606 H1593 0.930 . S
C1606 C1605 1.376 . S
C1606 C1607 1.388 . S
C1607 H1594 0.930 . S
C1607 C1606 1.388 . S
C1607 C1608 1.390 . S
C1608 C1607 1.390 . S
C1608 C1609 1.394 . S
C1608 C1614 1.465 . S
C1609 C1604 1.399 . S
C1609 C1608 1.394 . S
C1609 C1610 1.516 . S
C1610 C1609 1.516 . S
C1610 C1611 1.502 . S
C1610 C1612 1.561 . S
C1610 C1613 1.526 . S
C1611 H1595 0.959 . S
C1611 H1596 0.959 . S
C1611 H1597 0.961 . S
C1611 C1610 1.502 . S
C1612 H1598 0.960 . S
C1612 H1599 0.961 . S
C1612 H1600 0.959 . S
C1612 C1610 1.561 . S
C1613 C1610 1.526 . S
C1613 C1614 1.396 . S
C1613 C1618 1.390 . S
C1614 C1608 1.465 . S
C1614 C1613 1.396 . S
C1614 C1615 1.399 . S
C1615 H1601 0.929 . S
C1615 C1614 1.399 . S
C1615 C1616 1.385 . S
C1616 H1602 0.931 . S
C1616 C1615 1.385 . S
C1616 C1617 1.389 . S
C1617 C1616 1.389 . S
C1617 C1618 1.387 . S
C1618 H1603 0.930 . S
C1618 C1613 1.390 . S
C1618 C1617 1.387 . S
H1619 C1631 0.930 . S
H1620 C1633 0.930 . S
H1621 C1634 0.930 . S
H1622 C1638 0.959 . S
H1623 C1638 0.959 . S
H1624 C1638 0.961 . S
H1625 C1639 0.960 . S
H1626 C1639 0.961 . S
H1627 C1639 0.959 . S
H1628 C1642 0.929 . S
H1629 C1643 0.931 . S
H1630 C1645 0.930 . S
C1631 H1619 0.930 . S
C1631 C1632 1.399 . S
C1631 C1636 1.399 . S
C1632 C1631 1.399 . S
C1632 C1633 1.376 . S
C1633 H1620 0.930 . S
C1633 C1632 1.376 . S
C1633 C1634 1.388 . S
C1634 H1621 0.930 . S
C1634 C1633 1.388 . S
C1634 C1635 1.390 . S
C1635 C1634 1.390 . S
C1635 C1636 1.394 . S
C1635 C1641 1.465 . S
C1636 C1631 1.399 . S
C1636 C1635 1.394 . S
C1636 C1637 1.516 . S
C1637 C1636 1.516 . S
C1637 C1638 1.502 . S
C1637 C1639 1.561 . S
C1637 C1640 1.526 . S
C1638 H1622 0.959 . S
C1638 H1623 0.959 . S
C1638 H1624 0.961 . S
C1638 C1637 1.502 . S
C1639 H1625 0.960 . S
C1639 H1626 0.961 . S
C1639 H1627 0.959 . S
C1639 C1637 1.561 . S
C1640 C1637 1.526 . S
C1640 C1641 1.396 . S
C1640 C1645 1.390 . S
C1641 C1635 1.465 . S
C1641 C1640 1.396 . S
C1641 C1642 1.399 . S
C1642 H1628 0.929 . S
C1642 C1641 1.399 . S
C1642 C1643 1.385 . S
C1643 H1629 0.931 . S
C1643 C1642 1.385 . S
C1643 C1644 1.389 . S
C1644 C1643 1.389 . S
C1644 C1645 1.387 . S
C1645 H1630 0.930 . S
C1645 C1640 1.390 . S
C1645 C1644 1.387 . S
H1646 C1658 0.930 . S
H1647 C1660 0.930 . S
H1648 C1661 0.930 . S
H1649 C1665 0.959 . S
H1650 C1665 0.959 . S
H1651 C1665 0.961 . S
H1652 C1666 0.960 . S
H1653 C1666 0.961 . S
H1654 C1666 0.959 . S
H1655 C1669 0.929 . S
H1656 C1670 0.931 . S
H1657 C1672 0.930 . S
C1658 H1646 0.930 . S
C1658 C1659 1.399 . S
C1658 C1663 1.399 . S
C1659 C1658 1.399 . S
C1659 C1660 1.376 . S
C1660 H1647 0.930 . S
C1660 C1659 1.376 . S
C1660 C1661 1.388 . S
C1661 H1648 0.930 . S
C1661 C1660 1.388 . S
C1661 C1662 1.390 . S
C1662 C1661 1.390 . S
C1662 C1663 1.394 . S
C1662 C1668 1.465 . S
C1663 C1658 1.399 . S
C1663 C1662 1.394 . S
C1663 C1664 1.516 . S
C1664 C1663 1.516 . S
C1664 C1665 1.502 . S
C1664 C1666 1.561 . S
C1664 C1667 1.526 . S
C1665 H1649 0.959 . S
C1665 H1650 0.959 . S
C1665 H1651 0.961 . S
C1665 C1664 1.502 . S
C1666 H1652 0.960 . S
C1666 H1653 0.961 . S
C1666 H1654 0.959 . S
C1666 C1664 1.561 . S
C1667 C1664 1.526 . S
C1667 C1668 1.396 . S
C1667 C1672 1.390 . S
C1668 C1662 1.465 . S
C1668 C1667 1.396 . S
C1668 C1669 1.399 . S
C1669 H1655 0.929 . S
C1669 C1668 1.399 . S
C1669 C1670 1.385 . S
C1670 H1656 0.931 . S
C1670 C1669 1.385 . S
C1670 C1671 1.389 . S
C1671 C1670 1.389 . S
C1671 C1672 1.387 . S
C1672 H1657 0.930 . S
C1672 C1667 1.390 . S
C1672 C1671 1.387 . S
H1673 C1685 0.930 . S
H1674 C1687 0.930 . S
H1675 C1688 0.930 . S
H1676 C1692 0.959 . S
H1677 C1692 0.959 . S
H1678 C1692 0.961 . S
H1679 C1693 0.960 . S
H1680 C1693 0.961 . S
H1681 C1693 0.959 . S
H1682 C1696 0.929 . S
H1683 C1697 0.931 . S
H1684 C1699 0.930 . S
C1685 H1673 0.930 . S
C1685 C1686 1.399 . S
C1685 C1690 1.399 . S
C1686 C1685 1.399 . S
C1686 C1687 1.376 . S
C1687 H1674 0.930 . S
C1687 C1686 1.376 . S
C1687 C1688 1.388 . S
C1688 H1675 0.930 . S
C1688 C1687 1.388 . S
C1688 C1689 1.390 . S
C1689 C1688 1.390 . S
C1689 C1690 1.394 . S
C1689 C1695 1.465 . S
C1690 C1685 1.399 . S
C1690 C1689 1.394 . S
C1690 C1691 1.516 . S
C1691 C1690 1.516 . S
C1691 C1692 1.502 . S
C1691 C1693 1.561 . S
C1691 C1694 1.526 . S
C1692 H1676 0.959 . S
C1692 H1677 0.959 . S
C1692 H1678 0.961 . S
C1692 C1691 1.502 . S
C1693 H1679 0.960 . S
C1693 H1680 0.961 . S
C1693 H1681 0.959 . S
C1693 C1691 1.561 . S
C1694 C1691 1.526 . S
C1694 C1695 1.396 . S
C1694 C1699 1.390 . S
C1695 C1689 1.465 . S
C1695 C1694 1.396 . S
C1695 C1696 1.399 . S
C1696 H1682 0.929 . S
C1696 C1695 1.399 . S
C1696 C1697 1.385 . S
C1697 H1683 0.931 . S
C1697 C1696 1.385 . S
C1697 C1698 1.389 . S
C1698 C1697 1.389 . S
C1698 C1699 1.387 . S
C1699 H1684 0.930 . S
C1699 C1694 1.390 . S
C1699 C1698 1.387 . S
H1700 C1712 0.930 . S
H1701 C1714 0.930 . S
H1702 C1715 0.930 . S
H1703 C1719 0.959 . S
H1704 C1719 0.959 . S
H1705 C1719 0.961 . S
H1706 C1720 0.960 1_566 S
H1707 C1720 0.961 1_565 S
H1708 C1720 0.959 . S
H1709 C1723 0.929 . S
H1710 C1724 0.931 . S
H1711 C1726 0.930 . S
C1712 H1700 0.930 . S
C1712 C1713 1.399 . S
C1712 C1717 1.399 . S
C1713 C1712 1.399 . S
C1713 C1714 1.376 . S
C1714 H1701 0.930 . S
C1714 C1713 1.376 . S
C1714 C1715 1.388 . S
C1715 H1702 0.930 . S
C1715 C1714 1.388 . S
C1715 C1716 1.390 . S
C1716 C1715 1.390 . S
C1716 C1717 1.394 . S
C1716 C1722 1.465 1_556 S
C1717 C1712 1.399 . S
C1717 C1716 1.394 . S
C1717 C1718 1.507 1_556 S
C1718 C1717 1.507 1_554 S
C1718 C1719 1.494 1_554 S
C1718 C1720 1.567 . S
C1718 C1721 1.539 . S
C1719 H1703 0.959 . S
C1719 H1704 0.959 . S
C1719 H1705 0.961 . S
C1719 C1718 1.494 1_556 S
C1720 H1706 0.960 1_544 S
C1720 H1707 0.961 1_545 S
C1720 H1708 0.959 . S
C1720 C1718 1.567 . S
C1721 C1718 1.539 . S
C1721 C1722 1.396 . S
C1721 C1726 1.390 . S
C1722 C1716 1.465 1_554 S
C1722 C1721 1.396 . S
C1722 C1723 1.399 . S
C1723 H1709 0.929 . S
C1723 C1722 1.399 . S
C1723 C1724 1.385 . S
C1724 H1710 0.931 . S
C1724 C1723 1.385 . S
C1724 C1725 1.389 . S
C1725 C1724 1.389 . S
C1725 C1726 1.387 . S
C1726 H1711 0.930 . S
C1726 C1721 1.390 . S
C1726 C1725 1.387 . S
H1727 C1739 0.930 . S
H1728 C1741 0.930 . S
H1729 C1742 0.930 1_554 S
H1730 C1746 0.959 . S
H1731 C1746 0.959 . S
H1732 C1746 0.961 . S
H1733 C1747 0.960 . S
H1734 C1747 0.961 . S
H1735 C1747 0.959 . S
H1736 C1750 0.929 . S
H1737 C1751 0.931 . S
H1738 C1753 0.930 . S
C1739 H1727 0.930 . S
C1739 C1740 1.399 . S
C1739 C1744 1.399 . S
C1740 C1739 1.399 . S
C1740 C1741 1.376 . S
C1741 H1728 0.930 . S
C1741 C1740 1.376 . S
C1741 C1742 1.388 . S
C1742 H1729 0.930 1_556 S
C1742 C1741 1.388 . S
C1742 C1743 1.393 . S
C1743 C1742 1.393 . S
C1743 C1744 1.407 . S
C1743 C1749 1.449 1_556 S
C1744 C1739 1.399 . S
C1744 C1743 1.407 . S
C1744 C1745 1.516 . S
C1745 C1744 1.516 . S
C1745 C1746 1.502 . S
C1745 C1747 1.561 . S
C1745 C1748 1.526 1_556 S
C1746 H1730 0.959 . S
C1746 H1731 0.959 . S
C1746 H1732 0.961 . S
C1746 C1745 1.502 . S
C1747 H1733 0.960 . S
C1747 H1734 0.961 . S
C1747 H1735 0.959 . S
C1747 C1745 1.561 . S
C1748 C1745 1.526 1_554 S
C1748 C1749 1.396 . S
C1748 C1753 1.390 . S
C1749 C1743 1.449 1_554 S
C1749 C1748 1.396 . S
C1749 C1750 1.399 . S
C1750 H1736 0.929 . S
C1750 C1749 1.399 . S
C1750 C1751 1.385 . S
C1751 H1737 0.931 . S
C1751 C1750 1.385 . S
C1751 C1752 1.389 . S
C1752 C1751 1.389 . S
C1752 C1753 1.387 . S
C1753 H1738 0.930 . S
C1753 C1748 1.390 . S
C1753 C1752 1.387 . S
H1754 C1766 0.930 . S
H1755 C1768 0.930 . S
H1756 C1769 0.930 . S
H1757 C1773 0.959 . S
H1758 C1773 0.959 . S
H1759 C1773 0.961 . S
H1760 C1774 0.960 1_554 S
H1761 C1774 0.961 . S
H1762 C1774 0.959 . S
H1763 C1777 0.929 . S
H1764 C1778 0.931 . S
H1765 C1780 0.930 . S
C1766 H1754 0.930 . S
C1766 C1767 1.399 . S
C1766 C1771 1.399 . S
C1767 C1766 1.399 . S
C1767 C1768 1.376 . S
C1768 H1755 0.930 . S
C1768 C1767 1.376 . S
C1768 C1769 1.388 . S
C1769 H1756 0.930 . S
C1769 C1768 1.388 . S
C1769 C1770 1.390 . S
C1770 C1769 1.390 . S
C1770 C1771 1.394 . S
C1770 C1776 1.465 1_554 S
C1771 C1766 1.399 . S
C1771 C1770 1.394 . S
C1771 C1772 1.516 . S
C1772 C1771 1.516 . S
C1772 C1773 1.502 . S
C1772 C1774 1.561 1_554 S
C1772 C1775 1.526 1_554 S
C1773 H1757 0.959 . S
C1773 H1758 0.959 . S
C1773 H1759 0.961 . S
C1773 C1772 1.502 . S
C1774 H1760 0.960 1_556 S
C1774 H1761 0.961 . S
C1774 H1762 0.959 . S
C1774 C1772 1.561 1_556 S
C1775 C1772 1.526 1_556 S
C1775 C1776 1.396 . S
C1775 C1780 1.390 . S
C1776 C1770 1.465 1_556 S
C1776 C1775 1.396 . S
C1776 C1777 1.399 . S
C1777 H1763 0.929 . S
C1777 C1776 1.399 . S
C1777 C1778 1.385 . S
C1778 H1764 0.931 . S
C1778 C1777 1.385 . S
C1778 C1779 1.389 . S
C1779 C1778 1.389 . S
C1779 C1780 1.387 . S
C1780 H1765 0.930 . S
C1780 C1775 1.390 . S
C1780 C1779 1.387 . S
H1781 C1793 0.930 . S
H1782 C1795 0.930 . S
H1783 C1796 0.930 . S
H1784 C1800 0.959 . S
H1785 C1800 0.959 . S
H1786 C1800 0.961 . S
H1787 C1801 0.960 . S
H1788 C1801 0.961 . S
H1789 C1801 0.959 . S
H1790 C1804 0.929 1_554 S
H1791 C1805 0.931 . S
H1792 C1807 0.930 . S
C1793 H1781 0.930 . S
C1793 C1794 1.399 . S
C1793 C1798 1.399 . S
C1794 C1793 1.399 . S
C1794 C1795 1.376 . S
C1795 H1782 0.930 . S
C1795 C1794 1.376 . S
C1795 C1796 1.388 . S
C1796 H1783 0.930 . S
C1796 C1795 1.388 . S
C1796 C1797 1.390 . S
C1797 C1796 1.390 . S
C1797 C1798 1.394 . S
C1797 C1803 1.456 1_554 S
C1798 C1793 1.399 . S
C1798 C1797 1.394 . S
C1798 C1799 1.516 1_554 S
C1799 C1798 1.516 1_556 S
C1799 C1800 1.502 . S
C1799 C1801 1.561 . S
C1799 C1802 1.526 . S
C1800 H1784 0.959 . S
C1800 H1785 0.959 . S
C1800 H1786 0.961 . S
C1800 C1799 1.502 . S
C1801 H1787 0.960 . S
C1801 H1788 0.961 . S
C1801 H1789 0.959 . S
C1801 C1799 1.561 . S
C1802 C1799 1.526 . S
C1802 C1803 1.404 . S
C1802 C1807 1.390 . S
C1803 C1797 1.456 1_556 S
C1803 C1802 1.404 . S
C1803 C1804 1.401 . S
C1804 H1790 0.929 1_556 S
C1804 C1803 1.401 . S
C1804 C1805 1.385 . S
C1805 H1791 0.931 . S
C1805 C1804 1.385 . S
C1805 C1806 1.389 . S
C1806 C1805 1.389 . S
C1806 C1807 1.387 . S
C1807 H1792 0.930 . S
C1807 C1802 1.390 . S
C1807 C1806 1.387 . S
C525 C4 1.616 . S
C537 C164 1.627 . S
C552 C221 1.598 . S
C564 C61 1.623 . S
C579 C68 1.607 . S
C591 C228 1.626 . S
C606 C125 1.563 . S
C618 C132 1.563 . S
C633 C445 1.587 . S
C645 C260 1.598 . S
C660 C477 1.622 . S
C672 C317 1.615 . S
C687 C349 1.627 . S
C699 C484 1.627 . S
C714 C381 1.599 . S
C726 C388 1.589 . S
C741 C2 1.955 . S
C753 N109 1.664 . S
C768 C38 1.930 . S
C780 N18 1.760 . S
C795 C66 1.946 1_455 S
C807 N45 1.677 . S
C822 C102 1.937 1_545 S
C834 N82 1.772 . S
C849 C130 1.957 1_655 S
C861 N178 1.662 . S
C876 N205 1.721 . S
C888 C162 1.966 1_565 S
C903 C198 1.970 . S
C915 N242 1.692 . S
C930 N146 1.750 . S
C942 C226 1.957 . S
C957 N365 1.758 . S
C969 C258 1.942 . S
C984 C294 1.951 . S
C996 N274 1.734 . S
C1011 C326 1.931 1_655 S
C1023 N301 1.772 . S
C1038 C358 1.929 1_565 S
C1050 N333 1.765 . S
C1065 C386 1.959 1_455 S
C1077 N429 1.713 . S
C1092 C422 1.968 1_545 S
C1104 N461 1.679 . S
C1119 C454 1.929 . S
C1131 N498 1.764 . S
C1146 C482 1.969 . S
C1158 N402 1.661 . S
C1173 C29 1.045 . S
C1185 C93 1.033 . S
C1200 C36 1.060 . S
C1212 C100 1.014 . S
C1227 C196 0.987 . S
C1239 C157 1.047 . S
C1254 C253 1.065 . S
C1266 C189 1.008 . S
C1281 C324 1.036 . S
C1293 C285 1.025 . S
C1308 C356 0.978 . S
C1320 C292 1.073 . S
C1335 C413 1.049 . S
C1347 C452 1.011 . S
C1362 C420 1.060 . S
C1374 C509 0.999 . S
C1389 N13 1.250 . S
C1401 C354 1.259 . S
C1416 C262 1.259 . S
C1428 N50 1.238 . S
C1443 N77 1.249 . S
C1455 C290 1.259 . S
C1470 C322 1.261 . S
C1482 N114 1.267 . S
C1497 C418 1.262 . S
C1509 N141 1.216 . S
C1524 N173 1.221 . S
C1536 C450 1.262 . S
C1551 C486 1.262 . S
C1563 N210 1.219 . S
C1578 N237 1.216 . S
C1590 C390 1.262 . S
C1605 N269 1.271 . S
C1617 C98 1.259 . S
C1632 N306 1.240 . S
C1644 C6 1.260 . S
C1659 C34 1.262 . S
C1671 N338 1.231 . S
C1686 N370 1.261 . S
C1698 C70 1.260 . S
C1713 N397 1.215 . S
C1725 C166 1.262 . S
C1740 N434 1.243 . S
C1752 C194 1.260 . S
C1767 C230 1.262 . S
C1779 N466 1.231 . S
C1794 C134 1.261 . S
C1806 N493 1.219 . S
