# Generated by pormake.
# Topology zfc, (5)-cn, num edge types: 1
# Building blocks:
#     Node 0, Type 0, BuildingBlock: XOMCOT_clean_sbu_0, # of connection points: 5
#     Node 1, Type 0, BuildingBlock: XOMCOT_clean_sbu_0, # of connection points: 5
#     Node 2, Type 0, BuildingBlock: XOMCOT_clean_sbu_0, # of connection points: 5
#     Node 3, Type 0, BuildingBlock: XOMCOT_clean_sbu_0, # of connection points: 5
#     Node 4, Type 0, BuildingBlock: XOMCOT_clean_sbu_0, # of connection points: 5
#     Node 5, Type 0, BuildingBlock: XOMCOT_clean_sbu_0, # of connection points: 5
#     Node 6, Type 0, BuildingBlock: XOMCOT_clean_sbu_0, # of connection points: 5
#     Node 7, Type 0, BuildingBlock: XOMCOT_clean_sbu_0, # of connection points: 5
#     Node 8, Type 0, BuildingBlock: XOMCOT_clean_sbu_0, # of connection points: 5
#     Node 9, Type 0, BuildingBlock: XOMCOT_clean_sbu_0, # of connection points: 5
#     Node 10, Type 0, BuildingBlock: XOMCOT_clean_sbu_0, # of connection points: 5
#     Node 11, Type 0, BuildingBlock: XOMCOT_clean_sbu_0, # of connection points: 5
#     Node 12, Type 0, BuildingBlock: XOMCOT_clean_sbu_0, # of connection points: 5
#     Node 13, Type 0, BuildingBlock: XOMCOT_clean_sbu_0, # of connection points: 5
#     Node 14, Type 0, BuildingBlock: XOMCOT_clean_sbu_0, # of connection points: 5
#     Node 15, Type 0, BuildingBlock: XOMCOT_clean_sbu_0, # of connection points: 5
#     Edge 16, Type (0, 0), BuildingBlock: ZUJKAS_clean_linker_0, # of connection points: 2
#     Edge 17, Type (0, 0), BuildingBlock: ZUJKAS_clean_linker_0, # of connection points: 2
#     Edge 18, Type (0, 0), BuildingBlock: ZUJKAS_clean_linker_0, # of connection points: 2
#     Edge 19, Type (0, 0), BuildingBlock: ZUJKAS_clean_linker_0, # of connection points: 2
#     Edge 20, Type (0, 0), BuildingBlock: ZUJKAS_clean_linker_0, # of connection points: 2
#     Edge 21, Type (0, 0), BuildingBlock: ZUJKAS_clean_linker_0, # of connection points: 2
#     Edge 22, Type (0, 0), BuildingBlock: ZUJKAS_clean_linker_0, # of connection points: 2
#     Edge 23, Type (0, 0), BuildingBlock: ZUJKAS_clean_linker_0, # of connection points: 2
#     Edge 24, Type (0, 0), BuildingBlock: ZUJKAS_clean_linker_0, # of connection points: 2
#     Edge 25, Type (0, 0), BuildingBlock: ZUJKAS_clean_linker_0, # of connection points: 2
#     Edge 26, Type (0, 0), BuildingBlock: ZUJKAS_clean_linker_0, # of connection points: 2
#     Edge 27, Type (0, 0), BuildingBlock: ZUJKAS_clean_linker_0, # of connection points: 2
#     Edge 28, Type (0, 0), BuildingBlock: ZUJKAS_clean_linker_0, # of connection points: 2
#     Edge 29, Type (0, 0), BuildingBlock: ZUJKAS_clean_linker_0, # of connection points: 2
#     Edge 30, Type (0, 0), BuildingBlock: ZUJKAS_clean_linker_0, # of connection points: 2
#     Edge 31, Type (0, 0), BuildingBlock: ZUJKAS_clean_linker_0, # of connection points: 2
#     Edge 32, Type (0, 0), BuildingBlock: ZUJKAS_clean_linker_0, # of connection points: 2
#     Edge 33, Type (0, 0), BuildingBlock: ZUJKAS_clean_linker_0, # of connection points: 2
#     Edge 34, Type (0, 0), BuildingBlock: ZUJKAS_clean_linker_0, # of connection points: 2
#     Edge 35, Type (0, 0), BuildingBlock: ZUJKAS_clean_linker_0, # of connection points: 2
#     Edge 36, Type (0, 0), BuildingBlock: ZUJKAS_clean_linker_0, # of connection points: 2
#     Edge 37, Type (0, 0), BuildingBlock: ZUJKAS_clean_linker_0, # of connection points: 2
#     Edge 38, Type (0, 0), BuildingBlock: ZUJKAS_clean_linker_0, # of connection points: 2
#     Edge 39, Type (0, 0), BuildingBlock: ZUJKAS_clean_linker_0, # of connection points: 2
#     Edge 40, Type (0, 0), BuildingBlock: ZUJKAS_clean_linker_0, # of connection points: 2
#     Edge 41, Type (0, 0), BuildingBlock: ZUJKAS_clean_linker_0, # of connection points: 2
#     Edge 42, Type (0, 0), BuildingBlock: ZUJKAS_clean_linker_0, # of connection points: 2
#     Edge 43, Type (0, 0), BuildingBlock: ZUJKAS_clean_linker_0, # of connection points: 2
#     Edge 44, Type (0, 0), BuildingBlock: ZUJKAS_clean_linker_0, # of connection points: 2
#     Edge 45, Type (0, 0), BuildingBlock: ZUJKAS_clean_linker_0, # of connection points: 2
#     Edge 46, Type (0, 0), BuildingBlock: ZUJKAS_clean_linker_0, # of connection points: 2
#     Edge 47, Type (0, 0), BuildingBlock: ZUJKAS_clean_linker_0, # of connection points: 2
#     Edge 48, Type (0, 0), BuildingBlock: ZUJKAS_clean_linker_0, # of connection points: 2
#     Edge 49, Type (0, 0), BuildingBlock: ZUJKAS_clean_linker_0, # of connection points: 2
#     Edge 50, Type (0, 0), BuildingBlock: ZUJKAS_clean_linker_0, # of connection points: 2
#     Edge 51, Type (0, 0), BuildingBlock: ZUJKAS_clean_linker_0, # of connection points: 2
#     Edge 52, Type (0, 0), BuildingBlock: ZUJKAS_clean_linker_0, # of connection points: 2
#     Edge 53, Type (0, 0), BuildingBlock: ZUJKAS_clean_linker_0, # of connection points: 2
#     Edge 54, Type (0, 0), BuildingBlock: ZUJKAS_clean_linker_0, # of connection points: 2
#     Edge 55, Type (0, 0), BuildingBlock: ZUJKAS_clean_linker_0, # of connection points: 2
# Relax obj value: 0.131
# Max RMSD: 0.150
# Mean RMSD: 0.150
data_MOF--net-zfc--node1-XOMCOT_clean_sbu_0--edge1-ZUJKAS_clean_linker_0
_symmetry_space_group_name_H-M    P1
_symmetry_Int_Tables_number       1
_symmetry_cell_setting            triclinic
loop_
_symmetry_equiv_pos_as_xyz
'x, y, z'
_cell_length_a     95.661566
_cell_length_b     95.669253
_cell_length_c     22.05965
_cell_angle_alpha  89.996917
_cell_angle_beta   90.008106
_cell_angle_gamma 89.995563
loop_
_atom_site_label
_atom_site_type_symbol
_atom_site_fract_x
_atom_site_fract_y
_atom_site_fract_z
_atom_type_partial_charge
Co0 Co 0.26536 0.09169 0.08807 0.0
C1 C 0.26798 0.09384 0.9548 0.0
C2 C 0.28715 0.09917 0.99989 0.0
C3 C 0.28929 0.09982 0.93821 0.0
N4 N 0.2738 0.09546 0.01013 0.0
N5 N 0.27725 0.09642 0.9098 0.0
H6 H 0.25732 0.09042 0.94787 0.0
H7 H 0.29488 0.101 0.03476 0.0
C8 C 0.27398 0.11612 0.16278 0.0
O9 O 0.26092 0.11716 0.18084 0.0
N10 N 0.25722 0.08741 0.16736 0.0
C11 C 0.2451 0.08074 0.17966 0.0
C12 C 0.24394 0.07885 0.24131 0.0
C13 C 0.26358 0.08866 0.22197 0.0
N14 N 0.25553 0.08394 0.26801 0.0
C15 C 0.23727 0.10139 0.06632 0.0
C16 C 0.24451 0.12874 0.04108 0.0
C17 C 0.23035 0.12513 0.04407 0.0
C18 C 0.22677 0.11116 0.05501 0.0
C19 C 0.25465 0.11861 0.05226 0.0
N20 N 0.25095 0.10536 0.06904 0.0
H21 H 0.23437 0.09063 0.07172 0.0
H22 H 0.26552 0.1215 0.0481 0.0
H23 H 0.23781 0.07678 0.14663 0.0
H24 H 0.27409 0.09256 0.22792 0.0
O25 O 0.25663 0.07537 0.05448 0.0
O26 O 0.2776 0.07586 0.09783 0.0
O27 O 0.27759 0.10647 0.12591 0.0
C28 C 0.2679 0.0687 0.07034 0.0
H29 H 0.29902 0.10254 0.91616 0.0
H30 H 0.23522 0.07401 0.26448 0.0
H31 H 0.24772 0.13929 0.02996 0.0
H32 H 0.21595 0.10783 0.05577 0.0
Co33 Co 0.90092 0.2653 0.09595 0.0
C34 C 0.89994 0.26846 0.96019 0.0
C35 C 0.90113 0.28799 0.00731 0.0
C36 C 0.90117 0.29065 0.94607 0.0
N37 N 0.90013 0.27409 0.01641 0.0
N38 N 0.90042 0.27834 0.91642 0.0
H39 H 0.89997 0.25744 0.95077 0.0
H40 H 0.90181 0.2957 0.04305 0.0
C41 C 0.87536 0.28284 0.09647 0.0
O42 O 0.87285 0.27845 0.0411 0.0
N43 N 0.9021 0.25695 0.17527 0.0
C44 C 0.90436 0.24337 0.1879 0.0
C45 C 0.90439 0.2417 0.24988 0.0
C46 C 0.90091 0.2634 0.22933 0.0
N47 N 0.90222 0.2543 0.27585 0.0
C48 C 0.8912 0.2405 0.03584 0.0
C49 C 0.86544 0.23938 0.09216 0.0
C50 C 0.86893 0.22903 0.04995 0.0
C51 C 0.88208 0.22957 0.02218 0.0
C52 C 0.87489 0.25009 0.10458 0.0
N53 N 0.8873 0.25102 0.07414 0.0
H54 H 0.90156 0.24028 0.0166 0.0
H55 H 0.87235 0.25727 0.1406 0.0
H56 H 0.9059 0.23527 0.15439 0.0
H57 H 0.89899 0.27449 0.23437 0.0
O58 O 0.91773 0.25573 0.07237 0.0
O59 O 0.91691 0.27682 0.11424 0.0
O60 O 0.88594 0.27835 0.12597 0.0
C61 C 0.92437 0.26676 0.09118 0.0
H62 H 0.90166 0.30087 0.92518 0.0
H63 H 0.90611 0.23199 0.27392 0.0
H64 H 0.85568 0.23896 0.11697 0.0
H65 H 0.88535 0.22158 0.99043 0.0
Co66 Co 0.7289 0.90099 0.08111 0.0
C67 C 0.72611 0.8992 0.9479 0.0
C68 C 0.70711 0.89333 0.99303 0.0
C69 C 0.70495 0.89273 0.93135 0.0
N70 N 0.72038 0.89734 1.00323 0.0
N71 N 0.71689 0.89647 0.90289 0.0
H72 H 0.73669 0.90286 0.94102 0.0
H73 H 0.69947 0.89122 0.02794 0.0
C74 C 0.72069 0.87619 0.15497 0.0
O75 O 0.73375 0.8752 0.17314 0.0
N76 N 0.73716 0.90509 0.1603 0.0
C77 C 0.74947 0.91142 0.17239 0.0
C78 C 0.75086 0.91302 0.23405 0.0
C79 C 0.73092 0.90376 0.21516 0.0
N80 N 0.73924 0.90809 0.26107 0.0
C81 C 0.75706 0.89231 0.05483 0.0
C82 C 0.75077 0.86463 0.03185 0.0
C83 C 0.76481 0.86882 0.03231 0.0
C84 C 0.76786 0.88297 0.0421 0.0
C85 C 0.74032 0.87436 0.04444 0.0
N86 N 0.7436 0.88777 0.0603 0.0
H87 H 0.75954 0.90322 0.05874 0.0
H88 H 0.72955 0.87102 0.042 0.0
H89 H 0.75674 0.91536 0.13929 0.0
H90 H 0.72048 0.89969 0.22145 0.0
O91 O 0.73713 0.91768 0.04853 0.0
O92 O 0.71629 0.91645 0.0928 0.0
O93 O 0.71704 0.88586 0.11825 0.0
C94 C 0.72573 0.92398 0.06552 0.0
H95 H 0.69528 0.88977 0.90936 0.0
H96 H 0.75961 0.91785 0.25702 0.0
H97 H 0.74785 0.85389 0.02305 0.0
H98 H 0.77847 0.88684 0.03932 0.0
Co99 Co 0.0916 0.72895 0.09592 0.0
C100 C 0.09358 0.72634 0.96033 0.0
C101 C 0.0955 0.70676 0.00655 0.0
C102 C 0.09584 0.70426 0.94524 0.0
N103 N 0.09442 0.72064 0.0163 0.0
N104 N 0.0946 0.71659 0.91622 0.0
H105 H 0.09182 0.73724 0.95134 0.0
H106 H 0.09563 0.69891 0.04184 0.0
C107 C 0.1181 0.71316 0.10596 0.0
O108 O 0.12174 0.71906 0.0545 0.0
N109 N 0.08841 0.73678 0.17517 0.0
C110 C 0.08484 0.75007 0.1876 0.0
C111 C 0.08387 0.75158 0.24947 0.0
C112 C 0.08952 0.73032 0.22924 0.0
N113 N 0.08682 0.73915 0.27567 0.0
C114 C 0.10234 0.75396 0.04028 0.0
C115 C 0.12607 0.75595 0.11113 0.0
C116 C 0.1239 0.76581 0.06521 0.0
C117 C 0.11169 0.76492 0.03037 0.0
C118 C 0.11642 0.74523 0.11958 0.0
N119 N 0.1052 0.74375 0.08169 0.0
H120 H 0.09259 0.754 0.01592 0.0
H121 H 0.11788 0.73827 0.15757 0.0
H122 H 0.08325 0.75815 0.154 0.0
H123 H 0.09217 0.71939 0.2343 0.0
O124 O 0.07515 0.73828 0.06657 0.0
O125 O 0.07561 0.7169 0.10591 0.0
O126 O 0.10633 0.71612 0.13028 0.0
C127 C 0.06841 0.72698 0.08137 0.0
H128 H 0.09636 0.6941 0.92374 0.0
H129 H 0.0815 0.76118 0.27323 0.0
H130 H 0.13499 0.75669 0.1412 0.0
H131 H 0.10937 0.7726 0.99574 0.0
Co132 Co 0.26733 0.90005 0.92217 0.0
C133 C 0.27041 0.89873 0.05786 0.0
C134 C 0.28998 0.90028 0.01119 0.0
C135 C 0.29258 0.90012 0.07251 0.0
N136 N 0.27609 0.89917 1.00177 0.0
N137 N 0.28026 0.89917 0.10175 0.0
H138 H 0.2594 0.89818 0.06723 0.0
H139 H 0.29771 0.90125 0.97565 0.0
C140 C 0.28498 0.87457 0.92089 0.0
O141 O 0.2806 0.872 0.97621 0.0
N142 N 0.25901 0.90133 0.84287 0.0
C143 C 0.24544 0.90366 0.8303 0.0
C144 C 0.2438 0.90396 0.76835 0.0
C145 C 0.26547 0.90033 0.78879 0.0
N146 N 0.2564 0.90189 0.74222 0.0
C147 C 0.24252 0.8901 0.98147 0.0
C148 C 0.24153 0.86449 0.92393 0.0
C149 C 0.23109 0.86787 0.96586 0.0
C150 C 0.23157 0.88095 0.99431 0.0
C151 C 0.25225 0.87397 0.91233 0.0
N152 N 0.25311 0.88632 0.94333 0.0
H153 H 0.24226 0.90041 1.00123 0.0
H154 H 0.25948 0.87153 0.87639 0.0
H155 H 0.23731 0.90501 0.86385 0.0
H156 H 0.27661 0.89872 0.78385 0.0
O157 O 0.25766 0.91677 0.94626 0.0
O158 O 0.27876 0.91614 0.90441 0.0
O159 O 0.28047 0.88519 0.8917 0.0
C160 C 0.26864 0.92352 0.92749 0.0
H161 H 0.30273 0.901 0.09389 0.0
H162 H 0.23402 0.90543 0.74455 0.0
H163 H 0.24116 0.85479 0.8986 0.0
H164 H 0.22351 0.88413 0.0259 0.0
Co165 Co 0.09161 0.26496 0.91716 0.0
C166 C 0.09321 0.26785 0.05032 0.0
C167 C 0.09844 0.28704 1.00521 0.0
C168 C 0.09896 0.28921 0.06691 0.0
N169 N 0.09487 0.27365 0.99501 0.0
N170 N 0.09563 0.27715 0.09535 0.0
H171 H 0.08992 0.25714 0.05718 0.0
H172 H 0.10034 0.29474 0.97031 0.0
C173 C 0.11637 0.27393 0.84489 0.0
O174 O 0.11797 0.26085 0.82796 0.0
N175 N 0.08789 0.25653 0.83795 0.0
C176 C 0.08164 0.24417 0.82589 0.0
C177 C 0.08019 0.24269 0.76419 0.0
C178 C 0.08931 0.2627 0.783 0.0
N179 N 0.08511 0.25431 0.73713 0.0
C180 C 0.1013 0.23713 0.94289 0.0
C181 C 0.12851 0.24448 0.97013 0.0
C182 C 0.12486 0.23029 0.96915 0.0
C183 C 0.11094 0.22671 0.95702 0.0
C184 C 0.1185 0.25456 0.95606 0.0
N185 N 0.10533 0.25076 0.93841 0.0
H186 H 0.09054 0.23422 0.93732 0.0
H187 H 0.1214 0.26545 0.95887 0.0
H188 H 0.07761 0.23695 0.85902 0.0
H189 H 0.09326 0.27317 0.77657 0.0
O190 O 0.07526 0.2561 0.94965 0.0
O191 O 0.07564 0.27696 0.90527 0.0
O192 O 0.10634 0.27735 0.88015 0.0
C193 C 0.06851 0.26724 0.93275 0.0
H194 H 0.10161 0.29896 0.08893 0.0
H195 H 0.07541 0.23391 0.74122 0.0
H196 H 0.13906 0.24779 0.98063 0.0
H197 H 0.10745 0.21595 0.95922 0.0
Co198 Co 0.72653 0.09298 0.93123 0.0
C199 C 0.72363 0.09476 0.06679 0.0
C200 C 0.70396 0.094 0.02052 0.0
C201 C 0.70143 0.09433 0.08188 0.0
N202 N 0.71788 0.09453 0.01083 0.0
N203 N 0.71382 0.09477 0.11087 0.0
H204 H 0.73467 0.09476 0.07592 0.0
H205 H 0.69616 0.09325 0.98516 0.0
C206 C 0.70947 0.11884 0.92743 0.0
O207 O 0.71406 0.12172 0.98215 0.0
N208 N 0.73475 0.09105 0.85197 0.0
C209 C 0.74821 0.08816 0.83955 0.0
C210 C 0.74985 0.08769 0.77762 0.0
C211 C 0.72833 0.09224 0.79783 0.0
N212 N 0.73734 0.09024 0.75137 0.0
C213 C 0.7516 0.10281 0.98913 0.0
C214 C 0.75306 0.12795 0.92793 0.0
C215 C 0.76344 0.12471 0.97035 0.0
C216 C 0.76274 0.11186 1.00063 0.0
C217 C 0.74216 0.1186 0.91777 0.0
N218 N 0.74107 0.10651 0.95055 0.0
H219 H 0.75171 0.09262 0.01009 0.0
H220 H 0.73496 0.1209 0.88151 0.0
H221 H 0.75628 0.08658 0.87321 0.0
H222 H 0.71728 0.09434 0.79277 0.0
O223 O 0.73581 0.07616 0.95703 0.0
O224 O 0.7147 0.07712 0.91534 0.0
O225 O 0.71369 0.10794 0.8994 0.0
C226 C 0.72463 0.06961 0.93908 0.0
H227 H 0.69129 0.09385 0.10346 0.0
H228 H 0.75957 0.08582 0.75392 0.0
H229 H 0.7536 0.13743 0.90115 0.0
H230 H 0.77076 0.10876 0.03258 0.0
Co231 Co 0.90071 0.72587 0.91577 0.0
C232 C 0.89977 0.72272 0.05159 0.0
C233 C 0.90098 0.70319 1.00445 0.0
C234 C 0.90108 0.70053 0.06568 0.0
N235 N 0.89992 0.71709 0.99536 0.0
N236 N 0.90031 0.71283 0.09535 0.0
H237 H 0.89982 0.73373 0.06106 0.0
H238 H 0.9017 0.69549 0.9687 0.0
C239 C 0.87537 0.70808 0.91447 0.0
O240 O 0.87272 0.71257 0.96956 0.0
N241 N 0.90191 0.73422 0.83643 0.0
C242 C 0.90405 0.74783 0.82413 0.0
C243 C 0.90406 0.74959 0.76223 0.0
C244 C 0.90079 0.72783 0.7822 0.0
N245 N 0.90202 0.73702 0.73593 0.0
C246 C 0.89023 0.75043 0.97558 0.0
C247 C 0.86508 0.75151 0.9142 0.0
C248 C 0.86818 0.76194 0.95654 0.0
C249 C 0.88095 0.76135 0.9874 0.0
C250 C 0.8746 0.74074 0.90412 0.0
N251 N 0.88676 0.7399 0.93661 0.0
H252 H 0.90047 0.75081 0.99597 0.0
H253 H 0.87239 0.73348 0.86801 0.0
H254 H 0.90549 0.75591 0.85786 0.0
H255 H 0.89896 0.71673 0.77682 0.0
O256 O 0.91729 0.73581 0.93978 0.0
O257 O 0.91696 0.71465 0.89829 0.0
O258 O 0.88601 0.71254 0.88534 0.0
C259 C 0.92419 0.72491 0.92109 0.0
H260 H 0.90164 0.69031 0.08656 0.0
H261 H 0.90568 0.75936 0.73845 0.0
H262 H 0.85547 0.75176 0.88828 0.0
H263 H 0.884 0.76956 0.01852 0.0
Co264 Co 0.76521 0.59249 0.5738 0.0
C265 C 0.76801 0.59449 0.44065 0.0
C266 C 0.78676 0.60108 0.48591 0.0
C267 C 0.78887 0.60187 0.42421 0.0
N268 N 0.77367 0.5965 0.49603 0.0
N269 N 0.77708 0.59768 0.39565 0.0
H270 H 0.75757 0.59044 0.43374 0.0
H271 H 0.79431 0.6035 0.52085 0.0
C272 C 0.77285 0.61798 0.64474 0.0
O273 O 0.7596 0.61965 0.6587 0.0
N274 N 0.75706 0.58802 0.65298 0.0
C275 C 0.74581 0.57991 0.66469 0.0
C276 C 0.74431 0.57843 0.72639 0.0
C277 C 0.76268 0.59056 0.7083 0.0
N278 N 0.7549 0.5852 0.75387 0.0
C279 C 0.73671 0.60083 0.55431 0.0
C280 C 0.74246 0.628 0.51999 0.0
C281 C 0.7285 0.62378 0.52597 0.0
C282 C 0.7257 0.6099 0.54182 0.0
C283 C 0.75317 0.61856 0.53307 0.0
N284 N 0.7502 0.60541 0.5537 0.0
H285 H 0.73433 0.59007 0.56319 0.0
H286 H 0.76388 0.62193 0.52784 0.0
H287 H 0.7395 0.57465 0.63122 0.0
H288 H 0.77246 0.59595 0.71536 0.0
O289 O 0.7573 0.57583 0.53975 0.0
O290 O 0.77808 0.57719 0.58487 0.0
O291 O 0.77679 0.60772 0.61184 0.0
C292 C 0.76879 0.56968 0.55649 0.0
H293 H 0.79839 0.60529 0.40233 0.0
H294 H 0.73634 0.57234 0.74911 0.0
H295 H 0.74511 0.63857 0.50672 0.0
H296 H 0.71507 0.60603 0.54396 0.0
Co297 Co 0.40164 0.76482 0.58398 0.0
C298 C 0.40009 0.7678 0.45087 0.0
C299 C 0.39424 0.78678 0.49618 0.0
C300 C 0.39355 0.78894 0.43449 0.0
N301 N 0.39829 0.77352 0.50624 0.0
N302 N 0.39726 0.777 0.40591 0.0
H303 H 0.40366 0.75719 0.44396 0.0
H304 H 0.39204 0.79439 0.53118 0.0
C305 C 0.37612 0.77264 0.65389 0.0
O306 O 0.37445 0.7594 0.66797 0.0
N307 N 0.40542 0.75639 0.66316 0.0
C308 C 0.41262 0.74457 0.67528 0.0
C309 C 0.41396 0.74308 0.73704 0.0
C310 C 0.40328 0.7623 0.71822 0.0
N311 N 0.40802 0.75421 0.76411 0.0
C312 C 0.39291 0.73657 0.55927 0.0
C313 C 0.36574 0.7431 0.52757 0.0
C314 C 0.36968 0.72901 0.53107 0.0
C315 C 0.3836 0.72583 0.54532 0.0
C316 C 0.37543 0.7535 0.54154 0.0
N317 N 0.38854 0.75013 0.56143 0.0
H318 H 0.40367 0.73395 0.56697 0.0
H319 H 0.37227 0.7643 0.53762 0.0
H320 H 0.41741 0.73782 0.64215 0.0
H321 H 0.39859 0.77245 0.72473 0.0
O322 O 0.41848 0.75672 0.55218 0.0
O323 O 0.41701 0.77743 0.59746 0.0
O324 O 0.38637 0.77655 0.62084 0.0
C325 C 0.42468 0.76809 0.57027 0.0
H326 H 0.39046 0.79858 0.4126 0.0
H327 H 0.41944 0.73472 0.76006 0.0
H328 H 0.35518 0.74611 0.5156 0.0
H329 H 0.38731 0.71514 0.54525 0.0
Co330 Co 0.22735 0.4008 0.59129 0.0
C331 C 0.22451 0.3989 0.45562 0.0
C332 C 0.20492 0.39774 0.5023 0.0
C333 C 0.20235 0.39733 0.44101 0.0
N334 N 0.21884 0.39843 0.51174 0.0
N335 N 0.21469 0.39809 0.41172 0.0
H336 H 0.23547 0.40009 0.4463 0.0
H337 H 0.19712 0.39781 0.5378 0.0
C338 C 0.21161 0.37421 0.59844 0.0
O339 O 0.21714 0.37098 0.54571 0.0
N340 N 0.23539 0.40353 0.67052 0.0
C341 C 0.2487 0.40707 0.68274 0.0
C342 C 0.25033 0.4078 0.74463 0.0
C343 C 0.22904 0.40221 0.72476 0.0
N344 N 0.23796 0.40475 0.77108 0.0
C345 C 0.25253 0.39113 0.53389 0.0
C346 C 0.25514 0.36683 0.60053 0.0
C347 C 0.26514 0.36984 0.55604 0.0
C348 C 0.26384 0.38227 0.52301 0.0
C349 C 0.24401 0.37598 0.6098 0.0
N350 N 0.24232 0.38757 0.57425 0.0
H351 H 0.25233 0.40112 0.51136 0.0
H352 H 0.23698 0.37387 0.64693 0.0
H353 H 0.25671 0.40884 0.64897 0.0
H354 H 0.21811 0.39958 0.73001 0.0
O355 O 0.23628 0.41762 0.56355 0.0
O356 O 0.2151 0.41652 0.60447 0.0
O357 O 0.21485 0.38569 0.62451 0.0
C358 C 0.22495 0.42407 0.58021 0.0
H359 H 0.19217 0.39701 0.4197 0.0
H360 H 0.25997 0.41012 0.76818 0.0
H361 H 0.25591 0.35751 0.6282 0.0
H362 H 0.27171 0.38534 0.49036 0.0
Co363 Co 0.59203 0.22648 0.58009 0.0
C364 C 0.59368 0.22356 0.44701 0.0
C365 C 0.59934 0.20448 0.4921 0.0
C366 C 0.60012 0.20239 0.43035 0.0
N367 N 0.59538 0.21777 0.50233 0.0
N368 N 0.59654 0.21438 0.40204 0.0
H369 H 0.59049 0.23429 0.44002 0.0
H370 H 0.60133 0.1968 0.52701 0.0
C371 C 0.61713 0.21834 0.65144 0.0
O372 O 0.61881 0.23159 0.66543 0.0
N373 N 0.58819 0.23492 0.65923 0.0
C374 C 0.58113 0.24682 0.67131 0.0
C375 C 0.57957 0.24819 0.73303 0.0
C376 C 0.59004 0.22887 0.71421 0.0
N377 N 0.58524 0.23691 0.76015 0.0
C378 C 0.60174 0.25458 0.55754 0.0
C379 C 0.62871 0.2471 0.52653 0.0
C380 C 0.62535 0.26129 0.53162 0.0
C381 C 0.61154 0.26501 0.5453 0.0
C382 C 0.61856 0.23705 0.53874 0.0
N383 N 0.60555 0.24085 0.55846 0.0
H384 H 0.5911 0.2576 0.5655 0.0
H385 H 0.6213 0.22615 0.53388 0.0
H386 H 0.57663 0.25375 0.63811 0.0
H387 H 0.59425 0.2185 0.72049 0.0
O388 O 0.57546 0.23499 0.54744 0.0
O389 O 0.57635 0.21422 0.59257 0.0
O390 O 0.60697 0.21445 0.61778 0.0
C391 C 0.56897 0.22373 0.56502 0.0
H392 H 0.60279 0.19267 0.40809 0.0
H393 H 0.57446 0.25679 0.75589 0.0
H394 H 0.63912 0.24379 0.5135 0.0
H395 H 0.60839 0.27587 0.54783 0.0
Co396 Co 0.76669 0.39948 0.44123 0.0
C397 C 0.76963 0.39783 0.57421 0.0
C398 C 0.78865 0.392 0.52914 0.0
C399 C 0.79076 0.39126 0.59089 0.0
N400 N 0.77539 0.39606 0.5189 0.0
N401 N 0.77879 0.39496 0.6192 0.0
H402 H 0.75892 0.40112 0.58115 0.0
H403 H 0.79632 0.38994 0.49423 0.0
C404 C 0.7746 0.37441 0.36893 0.0
O405 O 0.76136 0.37289 0.35446 0.0
N406 N 0.75827 0.40331 0.36211 0.0
C407 C 0.7461 0.40983 0.34951 0.0
C408 C 0.74484 0.41139 0.28771 0.0
C409 C 0.76454 0.40176 0.30746 0.0
N410 N 0.75643 0.40622 0.26115 0.0
C411 C 0.73859 0.39075 0.46768 0.0
C412 C 0.74498 0.36323 0.49346 0.0
C413 C 0.73091 0.36731 0.49131 0.0
C414 C 0.72782 0.3814 0.48044 0.0
C415 C 0.75542 0.37299 0.48092 0.0
N416 N 0.75209 0.38628 0.46339 0.0
H417 H 0.73605 0.40162 0.46249 0.0
H418 H 0.76622 0.36973 0.48389 0.0
H419 H 0.73883 0.41392 0.38231 0.0
H420 H 0.77507 0.39788 0.30175 0.0
O421 O 0.75846 0.41617 0.47368 0.0
O422 O 0.77916 0.415 0.42789 0.0
O423 O 0.77851 0.38437 0.40361 0.0
C424 C 0.76973 0.4225 0.45536 0.0
H425 H 0.80047 0.38856 0.61314 0.0
H426 H 0.73606 0.41608 0.26441 0.0
H427 H 0.74794 0.35253 0.5031 0.0
H428 H 0.71716 0.38521 0.482 0.0
Co429 Co 0.59307 0.76754 0.42087 0.0
C430 C 0.59535 0.76993 0.55632 0.0
C431 C 0.59811 0.78947 0.5106 0.0
C432 C 0.59868 0.79185 0.572 0.0
N433 N 0.59637 0.77567 0.50049 0.0
N434 N 0.59692 0.77955 0.60068 0.0
H435 H 0.5931 0.75911 0.56506 0.0
H436 H 0.59855 0.79736 0.47553 0.0
C437 C 0.62016 0.78225 0.40984 0.0
O438 O 0.62368 0.77621 0.46115 0.0
N439 N 0.58942 0.75989 0.34165 0.0
C440 C 0.58517 0.74679 0.3293 0.0
C441 C 0.58407 0.74533 0.26744 0.0
C442 C 0.59081 0.76627 0.28754 0.0
N443 N 0.58763 0.75758 0.24118 0.0
C444 C 0.60302 0.74208 0.47581 0.0
C445 C 0.62651 0.73937 0.40398 0.0
C446 C 0.62415 0.72959 0.45001 0.0
C447 C 0.61204 0.73083 0.48528 0.0
C448 C 0.61718 0.75037 0.39592 0.0
N449 N 0.60612 0.75222 0.43438 0.0
H450 H 0.59332 0.74235 0.50051 0.0
H451 H 0.61876 0.75727 0.35782 0.0
H452 H 0.58321 0.7388 0.36294 0.0
H453 H 0.59401 0.77705 0.28238 0.0
O454 O 0.57633 0.75887 0.45084 0.0
O455 O 0.57753 0.7802 0.41134 0.0
O456 O 0.60821 0.7798 0.38609 0.0
C457 C 0.56999 0.7704 0.43604 0.0
H458 H 0.59975 0.80193 0.5938 0.0
H459 H 0.5812 0.73586 0.24372 0.0
H460 H 0.63535 0.73836 0.37356 0.0
H461 H 0.60956 0.72319 0.51989 0.0
Co462 Co 0.22687 0.59244 0.42351 0.0
C463 C 0.22438 0.59447 0.55662 0.0
C464 C 0.2051 0.59972 0.5122 0.0
C465 C 0.20311 0.6005 0.57397 0.0
N466 N 0.21844 0.59601 0.50154 0.0
N467 N 0.21523 0.59717 0.60188 0.0
H468 H 0.23516 0.5914 0.56323 0.0
H469 H 0.19728 0.60143 0.4776 0.0
C470 C 0.21793 0.61681 0.34868 0.0
O471 O 0.23091 0.6179 0.32956 0.0
N472 N 0.23504 0.58842 0.34418 0.0
C473 C 0.24756 0.58263 0.33135 0.0
C474 C 0.2487 0.58083 0.26967 0.0
C475 C 0.22847 0.58926 0.28992 0.0
N476 N 0.23671 0.58511 0.24349 0.0
C477 C 0.25483 0.60187 0.44916 0.0
C478 C 0.24792 0.62948 0.47017 0.0
C479 C 0.26203 0.62558 0.47011 0.0
C480 C 0.26542 0.61149 0.46131 0.0
C481 C 0.23769 0.61947 0.45826 0.0
N482 N 0.24128 0.60607 0.44331 0.0
H483 H 0.25757 0.591 0.44581 0.0
H484 H 0.22685 0.62256 0.46089 0.0
H485 H 0.25525 0.57929 0.36392 0.0
H486 H 0.21775 0.5926 0.28458 0.0
O487 O 0.2356 0.57601 0.45621 0.0
O488 O 0.21464 0.57663 0.41287 0.0
O489 O 0.21456 0.60723 0.38634 0.0
C490 C 0.22434 0.56938 0.43989 0.0
H491 H 0.19335 0.60291 0.59651 0.0
H492 H 0.25772 0.57669 0.24612 0.0
H493 H 0.24481 0.64014 0.47978 0.0
H494 H 0.27616 0.60794 0.46296 0.0
Co495 Co 0.40031 0.227 0.42281 0.0
C496 C 0.39866 0.22427 0.55831 0.0
C497 C 0.39522 0.20492 0.512 0.0
C498 C 0.395 0.20239 0.57333 0.0
N499 N 0.39717 0.21871 0.50232 0.0
N500 N 0.39717 0.21458 0.60247 0.0
H501 H 0.40164 0.23491 0.56718 0.0
H502 H 0.39435 0.19713 0.47667 0.0
C503 C 0.37315 0.21234 0.41189 0.0
O504 O 0.3696 0.21834 0.46325 0.0
N505 N 0.40378 0.23481 0.34368 0.0
C506 C 0.40795 0.24796 0.33165 0.0
C507 C 0.40868 0.24962 0.26977 0.0
C508 C 0.40213 0.22859 0.28931 0.0
N509 N 0.405 0.23745 0.2432 0.0
C510 C 0.39055 0.25227 0.47979 0.0
C511 C 0.3672 0.25563 0.40756 0.0
C512 C 0.36975 0.26531 0.45384 0.0
C513 C 0.38172 0.26365 0.48968 0.0
C514 C 0.37629 0.24441 0.3994 0.0
N515 N 0.38735 0.24233 0.43766 0.0
H516 H 0.40026 0.25184 0.50432 0.0
H517 H 0.37454 0.23756 0.36131 0.0
H518 H 0.41014 0.25582 0.36556 0.0
H519 H 0.3986 0.21793 0.28367 0.0
O520 O 0.41717 0.23553 0.45236 0.0
O521 O 0.41574 0.2143 0.41197 0.0
O522 O 0.38508 0.21485 0.38815 0.0
C523 C 0.4234 0.22399 0.43674 0.0
H524 H 0.3935 0.19231 0.59463 0.0
H525 H 0.41177 0.25906 0.24624 0.0
H526 H 0.35826 0.25668 0.37779 0.0
H527 H 0.38447 0.27131 0.52384 0.0
H528 H 0.29684 0.09145 0.82327 0.0
H529 H 0.29318 0.08958 0.71415 0.0
H530 H 0.24896 0.09597 0.73946 0.0
H531 H 0.25258 0.09833 0.84882 0.0
H532 H 0.27721 0.07064 0.65027 0.0
H533 H 0.25864 0.12479 0.60926 0.0
H534 H 0.26705 0.11961 0.67899 0.0
H535 H 0.24895 0.11548 0.66615 0.0
C536 C 0.28635 0.09267 0.80581 0.0
C537 C 0.27503 0.09517 0.84514 0.0
C538 C 0.28426 0.09148 0.74328 0.0
C539 C 0.27083 0.09282 0.71844 0.0
C540 C 0.25946 0.09515 0.75745 0.0
H541 H 0.24517 0.06711 0.35655 0.0
H542 H 0.24908 0.06916 0.46561 0.0
C543 C 0.26153 0.09635 0.82012 0.0
C544 C 0.26877 0.0915 0.65184 0.0
H545 H 0.25714 0.10901 0.52654 0.0
C546 C 0.27283 0.07903 0.62319 0.0
C547 C 0.26324 0.10253 0.61639 0.0
C548 C 0.25933 0.11641 0.64403 0.0
C549 C 0.27135 0.07722 0.56028 0.0
C550 C 0.26545 0.0881 0.52509 0.0
C551 C 0.26156 0.10064 0.55359 0.0
C552 C 0.26326 0.0867 0.45861 0.0
C553 C 0.27635 0.06377 0.53191 0.0
C554 C 0.26972 0.09603 0.41827 0.0
C555 C 0.26741 0.09497 0.35576 0.0
C556 C 0.25848 0.0846 0.33225 0.0
C557 C 0.25204 0.07526 0.3729 0.0
C558 C 0.25438 0.07633 0.43535 0.0
H559 H 0.28389 0.0582 0.56165 0.0
H560 H 0.26727 0.05677 0.52437 0.0
H561 H 0.28141 0.06575 0.48742 0.0
H562 H 0.27655 0.10418 0.43521 0.0
H563 H 0.27236 0.10249 0.32604 0.0
H564 H 0.91065 0.29583 0.82999 0.0
H565 H 0.91017 0.29236 0.7204 0.0
H566 H 0.89032 0.25231 0.74545 0.0
H567 H 0.8902 0.25594 0.85496 0.0
H568 H 0.92238 0.27179 0.65252 0.0
H569 H 0.86485 0.27065 0.62177 0.0
H570 H 0.87298 0.27661 0.69094 0.0
H571 H 0.87107 0.25821 0.67635 0.0
C572 C 0.90598 0.28637 0.81234 0.0
C573 C 0.90038 0.27621 0.85159 0.0
C574 C 0.90581 0.28436 0.74958 0.0
C575 C 0.9 0.27219 0.72466 0.0
C576 C 0.89458 0.26193 0.76359 0.0
H577 H 0.89388 0.23681 0.36535 0.0
H578 H 0.89351 0.24162 0.47422 0.0
C579 C 0.8947 0.26394 0.82636 0.0
C580 C 0.89997 0.27007 0.65802 0.0
H581 H 0.87862 0.26379 0.53688 0.0
C582 C 0.91281 0.27015 0.62715 0.0
C583 C 0.88746 0.26795 0.62501 0.0
C584 C 0.8733 0.26848 0.65505 0.0
C585 C 0.9135 0.26783 0.56437 0.0
C586 C 0.90101 0.26553 0.5316 0.0
C587 C 0.88817 0.26553 0.56229 0.0
C588 C 0.9011 0.26281 0.46551 0.0
C589 C 0.9276 0.26752 0.53375 0.0
C590 C 0.9053 0.27322 0.42455 0.0
C591 C 0.90554 0.2705 0.36225 0.0
C592 C 0.9016 0.2573 0.33986 0.0
C593 C 0.89719 0.24699 0.38113 0.0
C594 C 0.89689 0.24975 0.44331 0.0
H595 H 0.93629 0.26666 0.56698 0.0
H596 H 0.92827 0.25862 0.50157 0.0
H597 H 0.92906 0.27732 0.50756 0.0
H598 H 0.90842 0.28344 0.44082 0.0
H599 H 0.90906 0.27863 0.33177 0.0
H600 H 0.75847 0.90637 0.35106 0.0
H601 H 0.75411 0.90451 0.45973 0.0
H602 H 0.7097 0.90592 0.42711 0.0
H603 H 0.71397 0.90777 0.318 0.0
H604 H 0.74072 0.92243 0.53707 0.0
H605 H 0.7134 0.87125 0.53219 0.0
H606 H 0.72299 0.87794 0.46797 0.0
H607 H 0.70569 0.88429 0.48415 0.0
C608 C 0.74776 0.9064 0.36683 0.0
C609 C 0.73657 0.90722 0.3255 0.0
C610 C 0.74529 0.90526 0.4291 0.0
C611 C 0.73158 0.90486 0.45165 0.0
C612 C 0.72037 0.90587 0.41073 0.0
H613 H 0.69712 0.90025 0.8157 0.0
H614 H 0.70083 0.9024 0.70668 0.0
C615 C 0.72283 0.90695 0.34827 0.0
C616 C 0.72913 0.90363 0.51806 0.0
H617 H 0.71381 0.88318 0.62641 0.0
C618 C 0.73487 0.91382 0.5566 0.0
C619 C 0.72151 0.89239 0.54359 0.0
C620 C 0.71564 0.88076 0.50498 0.0
C621 C 0.73304 0.91318 0.61977 0.0
C622 C 0.72544 0.90194 0.64524 0.0
C623 C 0.71964 0.89179 0.60677 0.0
C624 C 0.72332 0.90057 0.71172 0.0
C625 C 0.73905 0.92468 0.65868 0.0
C626 C 0.73473 0.89864 0.75088 0.0
C627 C 0.73265 0.89729 0.81346 0.0
C628 C 0.71909 0.89779 0.83822 0.0
C629 C 0.70769 0.89963 0.79856 0.0
C630 C 0.70978 0.90094 0.73606 0.0
H631 H 0.74163 0.93413 0.63163 0.0
H632 H 0.73164 0.92766 0.69517 0.0
H633 H 0.74882 0.9209 0.68034 0.0
H634 H 0.74525 0.89804 0.73296 0.0
H635 H 0.74166 0.89566 0.84223 0.0
H636 H 0.07333 0.75299 0.36572 0.0
H637 H 0.07505 0.74866 0.47443 0.0
H638 H 0.10264 0.71388 0.44067 0.0
H639 H 0.10144 0.71848 0.33184 0.0
H640 H 0.06801 0.72524 0.54034 0.0
H641 H 0.12465 0.73683 0.56345 0.0
H642 H 0.11479 0.74134 0.4965 0.0
H643 H 0.12063 0.72368 0.50806 0.0
C644 C 0.07991 0.74453 0.38126 0.0
C645 C 0.08736 0.73618 0.3398 0.0
C646 C 0.08079 0.742 0.44349 0.0
C647 C 0.08915 0.73111 0.4657 0.0
C648 C 0.09635 0.72253 0.42457 0.0
H649 H 0.10658 0.7007 0.829 0.0
H650 H 0.1049 0.70398 0.71923 0.0
C651 C 0.09551 0.72508 0.36223 0.0
C652 C 0.09017 0.72868 0.53194 0.0
H653 H 0.11319 0.72779 0.65027 0.0
C654 C 0.07788 0.72583 0.56443 0.0
C655 C 0.10307 0.72947 0.56323 0.0
C656 C 0.11653 0.73312 0.53123 0.0
C657 C 0.07815 0.72359 0.6273 0.0
C658 C 0.09103 0.72441 0.65852 0.0
C659 C 0.10334 0.72717 0.62607 0.0
C660 C 0.09196 0.72247 0.725 0.0
C661 C 0.06469 0.72015 0.6597 0.0
C662 C 0.08538 0.73189 0.76453 0.0
C663 C 0.08629 0.73002 0.82726 0.0
C664 C 0.09383 0.71871 0.85159 0.0
C665 C 0.10053 0.70939 0.81172 0.0
C666 C 0.09965 0.71129 0.74904 0.0
H667 H 0.05643 0.71665 0.62771 0.0
H668 H 0.06637 0.71185 0.69414 0.0
H669 H 0.06084 0.72963 0.68342 0.0
H670 H 0.07956 0.7407 0.74683 0.0
H671 H 0.08091 0.73732 0.85656 0.0
H672 H 0.29787 0.88909 0.18741 0.0
H673 H 0.29415 0.88883 0.29717 0.0
H674 H 0.2541 0.90875 0.27265 0.0
H675 H 0.25773 0.90899 0.16301 0.0
H676 H 0.29014 0.91065 0.37571 0.0
H677 H 0.24401 0.87557 0.3784 0.0
H678 H 0.25494 0.87767 0.31232 0.0
H679 H 0.2418 0.89049 0.33005 0.0
C680 C 0.28829 0.89344 0.20541 0.0
C681 C 0.27805 0.89898 0.16641 0.0
C682 C 0.28615 0.89323 0.2681 0.0
C683 C 0.27374 0.89853 0.29303 0.0
C684 C 0.26359 0.90425 0.25432 0.0
H685 H 0.24132 0.91368 0.65132 0.0
H686 H 0.24613 0.91252 0.54284 0.0
C687 C 0.26568 0.90439 0.19162 0.0
C688 C 0.27158 0.89845 0.35964 0.0
H689 H 0.24923 0.88748 0.47058 0.0
C690 C 0.28126 0.90548 0.39654 0.0
C691 C 0.26001 0.89167 0.38671 0.0
C692 C 0.24967 0.88331 0.34992 0.0
C693 C 0.27946 0.90625 0.45964 0.0
C694 C 0.26776 0.8997 0.48647 0.0
C695 C 0.25817 0.89253 0.44973 0.0
C696 C 0.26508 0.90041 0.55251 0.0
C697 C 0.28988 0.91438 0.49701 0.0
C698 C 0.27411 0.89389 0.59389 0.0
C699 C 0.27133 0.89442 0.65613 0.0
C700 C 0.25944 0.90147 0.67811 0.0
C701 C 0.25045 0.90799 0.63623 0.0
C702 C 0.25322 0.90741 0.57412 0.0
H703 H 0.29669 0.92108 0.46841 0.0
H704 H 0.28443 0.92107 0.53067 0.0
H705 H 0.29664 0.90696 0.52224 0.0
H706 H 0.2832 0.88823 0.57797 0.0
H707 H 0.27836 0.88909 0.68681 0.0
H708 H 0.08724 0.2351 0.64734 0.0
H709 H 0.08897 0.23946 0.53858 0.0
H710 H 0.08659 0.28384 0.57099 0.0
H711 H 0.08489 0.27955 0.68013 0.0
H712 H 0.07077 0.25235 0.46136 0.0
H713 H 0.1212 0.281 0.46546 0.0
H714 H 0.11479 0.27131 0.52989 0.0
H715 H 0.10802 0.28844 0.51356 0.0
C716 C 0.08699 0.24579 0.63146 0.0
C717 C 0.08594 0.25697 0.67271 0.0
C718 C 0.08805 0.24827 0.56917 0.0
C719 C 0.08814 0.26198 0.54655 0.0
C720 C 0.0869 0.27318 0.58742 0.0
H721 H 0.09126 0.29673 0.18279 0.0
H722 H 0.08934 0.29289 0.29182 0.0
C723 C 0.0859 0.27071 0.64988 0.0
C724 C 0.08925 0.26445 0.48011 0.0
H725 H 0.10913 0.28041 0.3715 0.0
C726 C 0.07919 0.25845 0.44171 0.0
C727 C 0.10025 0.2724 0.45442 0.0
C728 C 0.11176 0.27856 0.49283 0.0
C729 C 0.07971 0.26032 0.37855 0.0
C730 C 0.09069 0.26827 0.35295 0.0
C731 C 0.10072 0.27433 0.39126 0.0
C732 C 0.09192 0.27047 0.28648 0.0
C733 C 0.06835 0.254 0.33979 0.0
C734 C 0.09419 0.25916 0.24718 0.0
C735 C 0.09541 0.26132 0.18461 0.0
C736 C 0.09443 0.27487 0.16001 0.0
C737 C 0.09225 0.28618 0.19981 0.0
C738 C 0.09107 0.284 0.26231 0.0
H739 H 0.05902 0.2511 0.36701 0.0
H740 H 0.06508 0.26136 0.30355 0.0
H741 H 0.0724 0.24439 0.3178 0.0
H742 H 0.09515 0.24865 0.26498 0.0
H743 H 0.09732 0.25239 0.15573 0.0
H744 H 0.71602 0.10402 0.69574 0.0
H745 H 0.71132 0.10517 0.58684 0.0
H746 H 0.74728 0.07923 0.55209 0.0
H747 H 0.75193 0.07779 0.66066 0.0
H748 H 0.74542 0.10441 0.48013 0.0
H749 H 0.69642 0.0731 0.47655 0.0
H750 H 0.69706 0.08716 0.53059 0.0
H751 H 0.7086 0.0725 0.53907 0.0
C752 C 0.72282 0.09839 0.66513 0.0
C753 C 0.73436 0.0908 0.68723 0.0
C754 C 0.72013 0.09908 0.60286 0.0
C755 C 0.72889 0.09218 0.56157 0.0
C756 C 0.7404 0.08463 0.5833 0.0
H757 H 0.73591 0.08385 0.17166 0.0
H758 H 0.73958 0.08376 0.28129 0.0
C759 C 0.74308 0.08389 0.64545 0.0
C760 C 0.72631 0.09308 0.49549 0.0
H761 H 0.70348 0.08339 0.38423 0.0
C762 C 0.73626 0.09982 0.45905 0.0
C763 C 0.71432 0.08713 0.46837 0.0
C764 C 0.70351 0.07946 0.5054 0.0
C765 C 0.73449 0.10087 0.39604 0.0
C766 C 0.72261 0.09471 0.36867 0.0
C767 C 0.71259 0.08808 0.40528 0.0
C768 C 0.72046 0.09486 0.30207 0.0
C769 C 0.74524 0.10878 0.35958 0.0
C770 C 0.70831 0.1008 0.27737 0.0
C771 C 0.70615 0.10078 0.21469 0.0
C772 C 0.71609 0.09482 0.17549 0.0
C773 C 0.7282 0.08879 0.20045 0.0
C774 C 0.73031 0.08874 0.26314 0.0
H775 H 0.75127 0.11617 0.38834 0.0
H776 H 0.75275 0.10125 0.33948 0.0
H777 H 0.74027 0.11474 0.32216 0.0
H778 H 0.70054 0.10553 0.3066 0.0
H779 H 0.69677 0.1056 0.19686 0.0
H780 H 0.90927 0.71294 0.67896 0.0
H781 H 0.90902 0.7085 0.56957 0.0
H782 H 0.89295 0.75 0.53842 0.0
H783 H 0.89324 0.75452 0.64736 0.0
H784 H 0.88741 0.70892 0.48696 0.0
H785 H 0.92685 0.74915 0.42798 0.0
H786 H 0.92384 0.74352 0.50495 0.0
H787 H 0.91231 0.75599 0.46989 0.0
C788 C 0.90561 0.72108 0.64882 0.0
C789 C 0.90142 0.73414 0.67182 0.0
C790 C 0.90553 0.71855 0.58633 0.0
C791 C 0.90125 0.72902 0.54576 0.0
C792 C 0.89667 0.74191 0.56873 0.0
H793 H 0.89008 0.73519 0.15708 0.0
H794 H 0.89031 0.73879 0.26676 0.0
C795 C 0.89683 0.74447 0.63105 0.0
C796 C 0.90141 0.72645 0.47943 0.0
H797 H 0.91449 0.73885 0.34571 0.0
C798 C 0.8934 0.71539 0.4561 0.0
C799 C 0.90926 0.73491 0.43924 0.0
C800 C 0.91866 0.74647 0.46175 0.0
C801 C 0.89277 0.71277 0.3935 0.0
C802 C 0.90047 0.72135 0.35338 0.0
C803 C 0.90854 0.73235 0.37666 0.0
C804 C 0.90032 0.71907 0.28698 0.0
C805 C 0.88364 0.70105 0.37058 0.0
C806 C 0.90605 0.70687 0.26204 0.0
C807 C 0.90606 0.70483 0.1993 0.0
C808 C 0.90037 0.71497 0.16018 0.0
C809 C 0.89471 0.72724 0.18554 0.0
C810 C 0.89475 0.72928 0.2483 0.0
H811 H 0.87611 0.69745 0.40557 0.0
H812 H 0.87773 0.70437 0.32971 0.0
H813 H 0.89033 0.69205 0.35772 0.0
H814 H 0.91065 0.69899 0.29111 0.0
H815 H 0.91073 0.69538 0.18153 0.0
H816 H 0.75222 0.59697 0.33544 0.0
H817 H 0.74863 0.59439 0.22633 0.0
H818 H 0.79323 0.59364 0.19875 0.0
H819 H 0.79694 0.59559 0.30763 0.0
H820 H 0.7567 0.61136 0.133 0.0
H821 H 0.78119 0.5592 0.10635 0.0
H822 H 0.77682 0.56639 0.17954 0.0
H823 H 0.79252 0.57179 0.14123 0.0
C824 C 0.76129 0.59605 0.30645 0.0
C825 C 0.77488 0.59641 0.33092 0.0
C826 C 0.75921 0.59467 0.24387 0.0
C827 C 0.77065 0.59357 0.20431 0.0
C828 C 0.78422 0.59415 0.22837 0.0
H829 H 0.77982 0.58871 0.81167 0.0
H830 H 0.78362 0.59113 0.92101 0.0
C831 C 0.78632 0.59546 0.29087 0.0
C832 C 0.76842 0.59217 0.13779 0.0
H833 H 0.77579 0.57147 0.01548 0.0
C834 C 0.76081 0.60259 0.1074 0.0
C835 C 0.77379 0.58073 0.10427 0.0
C836 C 0.78142 0.56882 0.13454 0.0
C837 C 0.75863 0.60202 0.04441 0.0
C838 C 0.76408 0.59064 0.01095 0.0
C839 C 0.77169 0.58022 0.04121 0.0
C840 C 0.76176 0.58924 0.94463 0.0
C841 C 0.75073 0.61371 0.01392 0.0
C842 C 0.74823 0.58722 0.92169 0.0
C843 C 0.74602 0.58583 0.8593 0.0
C844 C 0.7573 0.58642 0.81838 0.0
C845 C 0.77087 0.58837 0.84164 0.0
C846 C 0.77308 0.58968 0.90418 0.0
H847 H 0.75007 0.62315 0.04313 0.0
H848 H 0.75575 0.61663 0.97034 0.0
H849 H 0.73992 0.61017 1.00395 0.0
H850 H 0.73936 0.58666 0.95213 0.0
H851 H 0.73544 0.58449 0.84306 0.0
H852 H 0.4002 0.79668 0.31768 0.0
H853 H 0.40148 0.79284 0.20857 0.0
H854 H 0.39861 0.74835 0.23689 0.0
H855 H 0.39671 0.7521 0.34605 0.0
H856 H 0.42077 0.77865 0.1422 0.0
H857 H 0.36856 0.75454 0.11065 0.0
H858 H 0.37349 0.76339 0.17965 0.0
H859 H 0.37913 0.74573 0.16594 0.0
C860 C 0.39961 0.78607 0.30095 0.0
C861 C 0.39822 0.77471 0.34116 0.0
C862 C 0.40046 0.7839 0.23835 0.0
C863 C 0.39991 0.77033 0.21431 0.0
C864 C 0.39875 0.75894 0.25419 0.0
H865 H 0.40746 0.73494 0.85412 0.0
H866 H 0.40578 0.73925 0.96307 0.0
C867 C 0.39784 0.76111 0.31685 0.0
C868 C 0.40091 0.76813 0.14765 0.0
H869 H 0.38401 0.75367 0.0263 0.0
C870 C 0.41269 0.77326 0.11681 0.0
C871 C 0.39035 0.76111 0.11444 0.0
C872 C 0.3771 0.75599 0.14419 0.0
C873 C 0.41434 0.77133 0.05404 0.0
C874 C 0.40385 0.76421 0.02104 0.0
C875 C 0.39205 0.75911 0.05174 0.0
C876 C 0.40502 0.76175 0.95473 0.0
C877 C 0.42743 0.77664 0.0237 0.0
C878 C 0.40502 0.77298 0.91371 0.0
C879 C 0.40602 0.77055 0.85122 0.0
C880 C 0.40704 0.75684 0.82852 0.0
C881 C 0.40694 0.74563 0.86992 0.0
C882 C 0.40587 0.74807 0.93226 0.0
H883 H 0.43578 0.7791 0.0571 0.0
H884 H 0.43152 0.76884 0.9909 0.0
H885 H 0.42496 0.78635 0.99831 0.0
H886 H 0.40417 0.78362 0.93001 0.0
H887 H 0.40614 0.77943 0.82086 0.0
H888 H 0.2358 0.41087 0.35093 0.0
H889 H 0.23915 0.41175 0.2411 0.0
H890 H 0.20185 0.38714 0.21566 0.0
H891 H 0.19842 0.38623 0.32543 0.0
H892 H 0.24276 0.39016 0.15948 0.0
H893 H 0.19485 0.42035 0.1044 0.0
H894 H 0.20148 0.41878 0.1807 0.0
H895 H 0.19165 0.40473 0.14729 0.0
C896 C 0.22835 0.40557 0.32205 0.0
C897 C 0.2168 0.39852 0.347 0.0
C898 C 0.23024 0.40614 0.25925 0.0
C899 C 0.22062 0.39972 0.22015 0.0
C900 C 0.20921 0.39248 0.24489 0.0
H901 H 0.21733 0.39008 0.82742 0.0
H902 H 0.21296 0.38864 0.93657 0.0
C903 C 0.20728 0.39195 0.30765 0.0
C904 C 0.22272 0.40032 0.15357 0.0
H905 H 0.20765 0.41119 0.02123 0.0
C906 C 0.23511 0.3948 0.12927 0.0
C907 C 0.2127 0.40636 0.11423 0.0
C908 C 0.19948 0.41301 0.13789 0.0
C909 C 0.23769 0.39503 0.06664 0.0
C910 C 0.22769 0.40109 0.0274 0.0
C911 C 0.21526 0.40651 0.05153 0.0
C912 C 0.23014 0.40219 0.96127 0.0
C913 C 0.25101 0.38861 0.04283 0.0
C914 C 0.24106 0.4105 0.93905 0.0
C915 C 0.24352 0.41145 0.87678 0.0
C916 C 0.23508 0.4041 0.8353 0.0
C917 C 0.22397 0.39597 0.85781 0.0
C918 C 0.22149 0.39507 0.92022 0.0
H919 H 0.2559 0.38148 0.0765 0.0
H920 H 0.24902 0.38268 1.00042 0.0
H921 H 0.2586 0.39705 0.03241 0.0
H922 H 0.24767 0.41632 0.96996 0.0
H923 H 0.25198 0.41804 0.86123 0.0
H924 H 0.57968 0.23281 0.34331 0.0
H925 H 0.57771 0.23625 0.2337 0.0
H926 H 0.6093 0.20482 0.20429 0.0
H927 H 0.61127 0.20129 0.31368 0.0
H928 H 0.59716 0.24447 0.15007 0.0
H929 H 0.57825 0.19121 0.09437 0.0
H930 H 0.57881 0.19776 0.17103 0.0
H931 H 0.59445 0.1913 0.13542 0.0
C932 C 0.58626 0.22668 0.31358 0.0
C933 C 0.59557 0.21669 0.33741 0.0
C934 C 0.58508 0.22861 0.25086 0.0
C935 C 0.59315 0.2206 0.21058 0.0
C936 C 0.60267 0.21085 0.23427 0.0
H937 H 0.60357 0.21975 0.81823 0.0
H938 H 0.60542 0.21574 0.92748 0.0
C939 C 0.6038 0.20886 0.29693 0.0
C940 C 0.59182 0.22266 0.14392 0.0
H941 H 0.58454 0.20569 0.01113 0.0
C942 C 0.59433 0.23601 0.11976 0.0
C943 C 0.58814 0.2116 0.10427 0.0
C944 C 0.58462 0.19719 0.12754 0.0
C945 C 0.59347 0.23855 0.0571 0.0
C946 C 0.58985 0.22749 0.01752 0.0
C947 C 0.58737 0.21414 0.04155 0.0
C948 C 0.58843 0.22964 0.95106 0.0
C949 C 0.5967 0.25301 0.03359 0.0
C950 C 0.57808 0.23854 0.92791 0.0
C951 C 0.5769 0.24077 0.86543 0.0
C952 C 0.58605 0.23411 0.82456 0.0
C953 C 0.59624 0.22495 0.848 0.0
C954 C 0.59738 0.22271 0.91057 0.0
H955 H 0.60247 0.25937 0.06751 0.0
H956 H 0.603 0.25246 0.99136 0.0
H957 H 0.58677 0.25847 0.02296 0.0
H958 H 0.57087 0.24377 0.95825 0.0
H959 H 0.56875 0.24766 0.84931 0.0
H960 H 0.74522 0.42215 0.17116 0.0
H961 H 0.74923 0.41988 0.06236 0.0
H962 H 0.77875 0.3867 0.09542 0.0
H963 H 0.77439 0.38849 0.20424 0.0
H964 H 0.77308 0.4229 0.9951 0.0
H965 H 0.7528 0.36882 0.97245 0.0
H966 H 0.75008 0.37919 0.03973 0.0
H967 H 0.76654 0.37057 0.02733 0.0
C968 C 0.75246 0.41426 0.1555 0.0
C969 C 0.75938 0.40543 0.19687 0.0
C970 C 0.75481 0.41304 0.09312 0.0
C971 C 0.7641 0.40295 0.0705 0.0
C972 C 0.7713 0.39436 0.11161 0.0
H973 H 0.79206 0.3805 0.70807 0.0
H974 H 0.78864 0.38277 0.81754 0.0
C975 C 0.76893 0.39553 0.17405 0.0
C976 C 0.76629 0.40154 1.00397 0.0
H977 H 0.76382 0.37854 0.88581 0.0
C978 C 0.771 0.41322 0.97118 0.0
C979 C 0.76357 0.3889 0.97268 0.0
C980 C 0.75784 0.37619 1.00466 0.0
C981 C 0.77327 0.41254 0.90827 0.0
C982 C 0.77057 0.3999 0.87709 0.0
C983 C 0.7659 0.38821 0.90982 0.0
C984 C 0.77256 0.39858 0.8105 0.0
C985 C 0.77879 0.42528 0.87584 0.0
C986 C 0.76452 0.40657 0.77007 0.0
C987 C 0.76647 0.40532 0.70739 0.0
C988 C 0.7765 0.39603 0.68382 0.0
C989 C 0.7844 0.38791 0.72456 0.0
C990 C 0.7824 0.38913 0.78719 0.0
H991 H 0.78346 0.43293 0.90785 0.0
H992 H 0.78679 0.42232 0.84171 0.0
H993 H 0.77006 0.43053 0.85177 0.0
H994 H 0.75671 0.41377 0.78701 0.0
H995 H 0.76028 0.41181 0.67751 0.0
H996 H 0.60359 0.77718 0.18476 0.0
H997 H 0.60516 0.78151 0.07572 0.0
H998 H 0.57508 0.74885 0.04259 0.0
H999 H 0.57326 0.74457 0.1514 0.0
H1000 H 0.59987 0.74724 0.97081 0.0
H1001 H 0.57572 0.80008 0.96398 0.0
H1002 H 0.58967 0.7979 0.01775 0.0
H1003 H 0.57365 0.7884 0.02769 0.0
C1004 C 0.59713 0.77106 0.15447 0.0
C1005 C 0.58828 0.76051 0.17705 0.0
C1006 C 0.59807 0.77354 0.09211 0.0
C1007 C 0.59014 0.76558 0.05122 0.0
C1008 C 0.58128 0.75511 0.07348 0.0
H1009 H 0.58217 0.75955 0.66012 0.0
H1010 H 0.58087 0.756 0.76969 0.0
C1011 C 0.58031 0.75263 0.13573 0.0
C1012 C 0.5914 0.76783 0.98502 0.0
H1013 H 0.5855 0.79162 0.87259 0.0
C1014 C 0.59671 0.75692 0.94922 0.0
C1015 C 0.58731 0.78049 0.9572 0.0
C1016 C 0.58116 0.79238 0.9934 0.0
C1017 C 0.59819 0.7584 0.88624 0.0
C1018 C 0.59396 0.77102 0.85826 0.0
C1019 C 0.58873 0.78196 0.89416 0.0
C1020 C 0.59481 0.77308 0.79174 0.0
C1021 C 0.60453 0.74654 0.85047 0.0
C1022 C 0.60281 0.78406 0.7678 0.0
C1023 C 0.60352 0.78615 0.70517 0.0
C1024 C 0.59622 0.77731 0.66525 0.0
C1025 C 0.58814 0.76637 0.68946 0.0
C1026 C 0.58739 0.76432 0.75212 0.0
H1027 H 0.61069 0.73941 0.8799 0.0
H1028 H 0.59604 0.74034 0.82922 0.0
H1029 H 0.61143 0.75054 0.81391 0.0
H1030 H 0.60858 0.79097 0.7976 0.0
H1031 H 0.60992 0.79459 0.68797 0.0
H1032 H 0.24848 0.56956 0.15382 0.0
H1033 H 0.24462 0.57186 0.04487 0.0
H1034 H 0.21388 0.60393 0.07766 0.0
H1035 H 0.21807 0.60211 0.18665 0.0
H1036 H 0.22099 0.5683 0.97589 0.0
H1037 H 0.2399 0.62298 0.95784 0.0
H1038 H 0.24272 0.61244 0.02457 0.0
H1039 H 0.22606 0.62065 0.01182 0.0
C1040 C 0.24098 0.5772 0.13803 0.0
C1041 C 0.23369 0.58573 0.17931 0.0
C1042 C 0.23872 0.57844 0.07561 0.0
C1043 C 0.22916 0.58825 0.05295 0.0
C1044 C 0.22154 0.59649 0.09398 0.0
H1045 H 0.20165 0.61117 0.6911 0.0
H1046 H 0.20499 0.60866 0.80048 0.0
C1047 C 0.22381 0.5953 0.15646 0.0
C1048 C 0.22717 0.5898 0.98642 0.0
H1049 H 0.22948 0.61324 0.86987 0.0
C1050 C 0.22289 0.57811 0.95267 0.0
C1051 C 0.2297 0.60261 0.95611 0.0
C1052 C 0.23498 0.61536 0.98926 0.0
C1053 C 0.22084 0.57894 0.88968 0.0
C1054 C 0.22332 0.59175 0.85947 0.0
C1055 C 0.22758 0.60344 0.89316 0.0
C1056 C 0.22145 0.59326 0.79295 0.0
C1057 C 0.21576 0.56616 0.85613 0.0
C1058 C 0.22974 0.58559 0.75232 0.0
C1059 C 0.22783 0.58698 0.68968 0.0
C1060 C 0.21759 0.59608 0.66641 0.0
C1061 C 0.20947 0.60391 0.70737 0.0
C1062 C 0.21142 0.60255 0.76994 0.0
H1063 H 0.21119 0.55828 0.88736 0.0
H1064 H 0.20778 0.56903 0.82172 0.0
H1065 H 0.2247 0.56124 0.83224 0.0
H1066 H 0.23771 0.57853 0.76907 0.0
H1067 H 0.2342 0.58072 0.6596 0.0
H1068 H 0.39959 0.25618 0.15411 0.0
H1069 H 0.39826 0.25164 0.04535 0.0
H1070 H 0.40692 0.20802 0.07728 0.0
H1071 H 0.40824 0.21249 0.1864 0.0
H1072 H 0.41853 0.24129 0.9694 0.0
H1073 H 0.37225 0.20627 0.97075 0.0
H1074 H 0.3771 0.21678 0.03534 0.0
H1075 H 0.38617 0.20072 0.01975 0.0
C1076 C 0.40127 0.24563 0.13809 0.0
C1077 C 0.40402 0.2347 0.17905 0.0
C1078 C 0.40044 0.24304 0.07588 0.0
C1079 C 0.4023 0.22947 0.05323 0.0
C1080 C 0.40512 0.21852 0.09386 0.0
H1081 H 0.40426 0.19539 0.68805 0.0
H1082 H 0.40574 0.19904 0.79746 0.0
C1083 C 0.40589 0.2211 0.15622 0.0
C1084 C 0.40168 0.22692 0.98693 0.0
H1085 H 0.3843 0.20864 0.87732 0.0
C1086 C 0.41101 0.23419 0.94924 0.0
C1087 C 0.39188 0.21763 0.96074 0.0
C1088 C 0.38119 0.20999 0.99859 0.0
C1089 C 0.41091 0.23231 0.88613 0.0
C1090 C 0.40109 0.22306 0.85998 0.0
C1091 C 0.39182 0.21571 0.8976 0.0
C1092 C 0.4002 0.22094 0.79355 0.0
C1093 C 0.42145 0.24008 0.84799 0.0
C1094 C 0.39644 0.23201 0.75517 0.0
C1095 C 0.39549 0.22994 0.69256 0.0
C1096 C 0.39824 0.21674 0.6671 0.0
C1097 C 0.40192 0.20565 0.70594 0.0
C1098 C 0.40284 0.20773 0.76854 0.0
H1099 H 0.43031 0.24405 0.87566 0.0
H1100 H 0.42567 0.23326 0.81158 0.0
H1101 H 0.41628 0.24917 0.82624 0.0
H1102 H 0.39409 0.24222 0.77373 0.0
H1103 H 0.39238 0.23864 0.66428 0.0
H1104 H 0.27081 0.13571 0.25163 0.0
H1105 H 0.28819 0.15244 0.2878 0.0
H1106 H 0.31816 0.13625 0.15969 0.0
H1107 H 0.30091 0.11929 0.12386 0.0
H1108 H 0.329 0.13943 0.27441 0.0
H1109 H 0.30153 0.18768 0.20232 0.0
H1110 H 0.29096 0.17648 0.24877 0.0
H1111 H 0.29662 0.17055 0.17536 0.0
C1112 C 0.28107 0.13574 0.2309 0.0
C1113 C 0.28447 0.12623 0.18468 0.0
C1114 C 0.29096 0.14536 0.25139 0.0
C1115 C 0.30435 0.14575 0.22554 0.0
C1116 C 0.30783 0.13617 0.17985 0.0
H1117 H 0.37745 0.19707 0.30867 0.0
H1118 H 0.3611 0.18088 0.25998 0.0
C1119 C 0.29797 0.12649 0.15951 0.0
C1120 C 0.31486 0.15583 0.24774 0.0
H1121 H 0.32072 0.19062 0.27045 0.0
C1122 C 0.32728 0.15063 0.27299 0.0
C1123 C 0.31256 0.17043 0.24555 0.0
C1124 C 0.29976 0.17664 0.216 0.0
C1125 C 0.33728 0.15965 0.29807 0.0
C1126 C 0.3348 0.1742 0.29725 0.0
C1127 C 0.32251 0.17943 0.27105 0.0
C1128 C 0.3446 0.18414 0.32548 0.0
C1129 C 0.35022 0.15356 0.32695 0.0
C1130 C 0.34057 0.19146 0.37763 0.0
C1131 C 0.34984 0.20068 0.40555 0.0
C1132 C 0.36328 0.2028 0.38144 0.0
C1133 C 0.3672 0.19562 0.32847 0.0
C1134 C 0.35791 0.18634 0.30071 0.0
H1135 H 0.34941 0.14206 0.33309 0.0
H1136 H 0.35939 0.15574 0.29766 0.0
H1137 H 0.35217 0.15847 0.37178 0.0
H1138 H 0.33029 0.1899 0.39714 0.0
H1139 H 0.34648 0.20609 0.44613 0.0
H1140 H 0.80148 0.38065 0.3402 0.0
H1141 H 0.81869 0.36533 0.29227 0.0
H1142 H 0.78884 0.33147 0.29434 0.0
H1143 H 0.77134 0.34705 0.33878 0.0
H1144 H 0.83109 0.34301 0.32677 0.0
H1145 H 0.80036 0.3296 0.12259 0.0
H1146 H 0.79486 0.34294 0.17502 0.0
H1147 H 0.79123 0.32478 0.19032 0.0
C1148 C 0.79861 0.36994 0.33012 0.0
C1149 C 0.7851 0.36501 0.34258 0.0
C1150 C 0.80843 0.3612 0.30278 0.0
C1151 C 0.80498 0.34732 0.28843 0.0
C1152 C 0.7916 0.34227 0.30291 0.0
H1153 H 0.86832 0.28409 0.21584 0.0
H1154 H 0.85127 0.29973 0.26314 0.0
C1155 C 0.78165 0.35112 0.32877 0.0
C1156 C 0.8155 0.33811 0.25948 0.0
H1157 H 0.82052 0.31558 0.14172 0.0
C1158 C 0.82881 0.3371 0.28597 0.0
C1159 C 0.81264 0.3306 0.20559 0.0
C1160 C 0.79905 0.33215 0.1714 0.0
C1161 C 0.8393 0.32873 0.26046 0.0
C1162 C 0.83617 0.32058 0.20862 0.0
C1163 C 0.82289 0.32168 0.18187 0.0
C1164 C 0.84652 0.31104 0.18049 0.0
C1165 C 0.8537 0.32907 0.28848 0.0
C1166 C 0.84909 0.31175 0.11786 0.0
C1167 C 0.85842 0.30249 0.09051 0.0
C1168 C 0.86554 0.29255 0.12552 0.0
C1169 C 0.86308 0.29184 0.18814 0.0
C1170 C 0.85344 0.30085 0.21523 0.0
H1171 H 0.85555 0.33904 0.31308 0.0
H1172 H 0.85464 0.32045 0.32188 0.0
H1173 H 0.86199 0.32782 0.25372 0.0
H1174 H 0.84387 0.31949 0.09003 0.0
H1175 H 0.86021 0.30324 0.04211 0.0
H1176 H 0.616 0.79782 0.30728 0.0
H1177 H 0.63286 0.81329 0.25723 0.0
H1178 H 0.66383 0.80286 0.39186 0.0
H1179 H 0.64715 0.78744 0.44221 0.0
H1180 H 0.64742 0.83671 0.3162 0.0
H1181 H 0.68334 0.79626 0.22437 0.0
H1182 H 0.66552 0.79247 0.24608 0.0
H1183 H 0.67881 0.79433 0.30303 0.0
C1184 C 0.62642 0.79878 0.32608 0.0
C1185 C 0.63026 0.79142 0.37871 0.0
C1186 C 0.63601 0.8076 0.29744 0.0
C1187 C 0.64958 0.80904 0.32061 0.0
C1188 C 0.65344 0.80169 0.37292 0.0
H1189 H 0.72379 0.85655 0.24387 0.0
H1190 H 0.70606 0.84038 0.28211 0.0
C1191 C 0.64387 0.79295 0.40176 0.0
C1192 C 0.6596 0.81867 0.29179 0.0
H1193 H 0.69123 0.81978 0.22073 0.0
C1194 C 0.65695 0.83306 0.29474 0.0
C1195 C 0.67201 0.81377 0.26434 0.0
C1196 C 0.6751 0.79836 0.25867 0.0
C1197 C 0.66663 0.84277 0.27244 0.0
C1198 C 0.67911 0.83788 0.24535 0.0
C1199 C 0.68166 0.82347 0.24164 0.0
C1200 C 0.68979 0.84758 0.22149 0.0
C1201 C 0.66364 0.85817 0.27998 0.0
C1202 C 0.68653 0.85682 0.17422 0.0
C1203 C 0.69659 0.86611 0.15254 0.0
C1204 C 0.71014 0.86621 0.17733 0.0
C1205 C 0.71345 0.85674 0.22387 0.0
C1206 C 0.70335 0.8475 0.24575 0.0
H1207 H 0.65552 0.8601 0.31502 0.0
H1208 H 0.67326 0.86397 0.2927 0.0
H1209 H 0.65975 0.86246 0.23639 0.0
H1210 H 0.67621 0.85682 0.15401 0.0
H1211 H 0.69375 0.87319 0.11624 0.0
H1212 H 0.22051 0.63637 0.25931 0.0
H1213 H 0.20285 0.65304 0.22501 0.0
H1214 H 0.17371 0.63677 0.35644 0.0
H1215 H 0.19122 0.61988 0.39039 0.0
H1216 H 0.1621 0.63997 0.2433 0.0
H1217 H 0.18996 0.68823 0.3121 0.0
H1218 H 0.20027 0.67708 0.2644 0.0
H1219 H 0.19507 0.67111 0.33839 0.0
C1220 C 0.21037 0.63638 0.28114 0.0
C1221 C 0.20728 0.62686 0.32777 0.0
C1222 C 0.20033 0.64596 0.26172 0.0
C1223 C 0.18709 0.64631 0.28906 0.0
C1224 C 0.18391 0.63672 0.33513 0.0
H1225 H 0.1138 0.69819 0.21021 0.0
H1226 H 0.13006 0.68187 0.25891 0.0
C1227 C 0.19393 0.62708 0.35439 0.0
C1228 C 0.17641 0.65638 0.26815 0.0
H1229 H 0.17044 0.69116 0.24562 0.0
C1230 C 0.16384 0.65117 0.24442 0.0
C1231 C 0.17871 0.67098 0.27004 0.0
C1232 C 0.19168 0.6772 0.29816 0.0
C1233 C 0.1537 0.66018 0.22031 0.0
C1234 C 0.15621 0.67473 0.22053 0.0
C1235 C 0.16863 0.67997 0.24547 0.0
C1236 C 0.14639 0.68465 0.19218 0.0
C1237 C 0.14059 0.65409 0.19287 0.0
C1238 C 0.15034 0.6917 0.13926 0.0
C1239 C 0.14113 0.70097 0.11135 0.0
C1240 C 0.12782 0.70343 0.13621 0.0
C1241 C 0.12396 0.69647 0.18983 0.0
C1242 C 0.13319 0.68713 0.2176 0.0
H1243 H 0.14125 0.64256 0.18781 0.0
H1244 H 0.13154 0.65656 0.22247 0.0
H1245 H 0.13856 0.6588 0.1477 0.0
H1246 H 0.16053 0.68991 0.1192 0.0
H1247 H 0.14446 0.70619 0.07025 0.0
H1248 H 0.38223 0.79949 0.68342 0.0
H1249 H 0.36661 0.81681 0.72866 0.0
H1250 H 0.33264 0.78712 0.72169 0.0
H1251 H 0.34851 0.7695 0.67994 0.0
H1252 H 0.34458 0.82929 0.69074 0.0
H1253 H 0.32957 0.79862 0.89318 0.0
H1254 H 0.34324 0.79305 0.84253 0.0
H1255 H 0.32518 0.78963 0.82453 0.0
C1256 C 0.37143 0.79667 0.69186 0.0
C1257 C 0.36655 0.78317 0.67886 0.0
C1258 C 0.36251 0.80656 0.71763 0.0
C1259 C 0.34851 0.80319 0.72983 0.0
C1260 C 0.34351 0.78982 0.71475 0.0
H1261 H 0.28617 0.86785 0.80107 0.0
H1262 H 0.3014 0.85052 0.75318 0.0
C1263 C 0.35253 0.7798 0.69048 0.0
C1264 C 0.33915 0.81377 0.75753 0.0
H1265 H 0.31623 0.81912 0.87358 0.0
C1266 C 0.33845 0.8271 0.73101 0.0
C1267 C 0.33133 0.811 0.81066 0.0
C1268 C 0.33248 0.79735 0.84473 0.0
C1269 C 0.33017 0.83773 0.75604 0.0
C1270 C 0.32182 0.83473 0.8074 0.0
C1271 C 0.32252 0.8214 0.83387 0.0
C1272 C 0.31256 0.84531 0.83572 0.0
C1273 C 0.33086 0.85212 0.72817 0.0
C1274 C 0.31335 0.84778 0.89841 0.0
C1275 C 0.30433 0.85728 0.92606 0.0
C1276 C 0.29455 0.8647 0.89133 0.0
C1277 C 0.2938 0.86238 0.82859 0.0
C1278 C 0.30257 0.85256 0.80117 0.0
H1279 H 0.34087 0.85376 0.70359 0.0
H1280 H 0.32226 0.8533 0.69481 0.0
H1281 H 0.32981 0.86042 0.76304 0.0
H1282 H 0.32095 0.84231 0.92607 0.0
H1283 H 0.30511 0.85895 0.97453 0.0
H1284 H 0.14027 0.27012 0.77913 0.0
H1285 H 0.15653 0.28809 0.74376 0.0
H1286 H 0.13109 0.32001 0.82666 0.0
H1287 H 0.11475 0.30215 0.86234 0.0
H1288 H 0.13909 0.32466 0.70076 0.0
H1289 H 0.18393 0.31176 0.85112 0.0
H1290 H 0.17631 0.29722 0.81143 0.0
H1291 H 0.16623 0.30636 0.86749 0.0
C1292 C 0.13814 0.28095 0.79002 0.0
C1293 C 0.12623 0.28472 0.8236 0.0
C1294 C 0.14748 0.29118 0.77007 0.0
C1295 C 0.14505 0.3053 0.78333 0.0
C1296 C 0.13315 0.30912 0.81642 0.0
H1297 H 0.20146 0.37523 0.71437 0.0
H1298 H 0.18492 0.35899 0.76184 0.0
C1299 C 0.12384 0.29891 0.83671 0.0
C1300 C 0.15468 0.31613 0.76069 0.0
H1301 H 0.18828 0.32786 0.77114 0.0
C1302 C 0.14982 0.32545 0.71636 0.0
C1303 C 0.1686 0.31715 0.78175 0.0
C1304 C 0.1741 0.30768 0.83094 0.0
C1305 C 0.1587 0.33553 0.69106 0.0
C1306 C 0.17274 0.33621 0.71056 0.0
C1307 C 0.1775 0.32719 0.75621 0.0
C1308 C 0.18278 0.34593 0.68239 0.0
C1309 C 0.15305 0.34534 0.64345 0.0
C1310 C 0.1871 0.34376 0.62246 0.0
C1311 C 0.19656 0.35292 0.59537 0.0
C1312 C 0.20181 0.36442 0.6278 0.0
C1313 C 0.19753 0.3665 0.68814 0.0
C1314 C 0.18813 0.35725 0.71535 0.0
H1315 H 0.14143 0.3454 0.64259 0.0
H1316 H 0.15683 0.35617 0.65147 0.0
H1317 H 0.15684 0.34199 0.59819 0.0
H1318 H 0.18316 0.33496 0.59669 0.0
H1319 H 0.19965 0.35104 0.54885 0.0
H1320 H 0.68941 0.13458 0.98081 0.0
H1321 H 0.67308 0.15062 0.93155 0.0
H1322 H 0.69213 0.14168 0.75831 0.0
H1323 H 0.70783 0.12491 0.80712 0.0
H1324 H 0.677 0.17349 0.87629 0.0
H1325 H 0.65261 0.13738 0.71162 0.0
H1326 H 0.66401 0.1313 0.77104 0.0
H1327 H 0.67117 0.13813 0.70144 0.0
C1328 C 0.68998 0.13597 0.93212 0.0
C1329 C 0.69975 0.1285 0.89755 0.0
C1330 C 0.68067 0.14513 0.904 0.0
C1331 C 0.68117 0.14719 0.84098 0.0
C1332 C 0.69118 0.13992 0.8066 0.0
H1333 H 0.6447 0.2215 0.67708 0.0
H1334 H 0.66049 0.20412 0.72103 0.0
C1335 C 0.70023 0.13045 0.83453 0.0
C1336 C 0.6716 0.15739 0.81203 0.0
H1337 H 0.64862 0.16175 0.69527 0.0
C1338 C 0.6707 0.17086 0.83702 0.0
C1339 C 0.6632 0.15393 0.76134 0.0
C1340 C 0.66267 0.13935 0.73528 0.0
C1341 C 0.6617 0.18097 0.81278 0.0
C1342 C 0.65391 0.17777 0.76001 0.0
C1343 C 0.65474 0.16427 0.7352 0.0
C1344 C 0.64459 0.18813 0.73063 0.0
C1345 C 0.66037 0.1948 0.84531 0.0
C1346 C 0.6306 0.18468 0.71832 0.0
C1347 C 0.62172 0.19443 0.69124 0.0
C1348 C 0.62664 0.20785 0.67706 0.0
C1349 C 0.64065 0.21126 0.68855 0.0
C1350 C 0.64963 0.20138 0.7141 0.0
H1351 H 0.66317 0.19382 0.89401 0.0
H1352 H 0.66766 0.20246 0.82466 0.0
H1353 H 0.64957 0.199 0.8422 0.0
H1354 H 0.62649 0.1745 0.73039 0.0
H1355 H 0.61093 0.19159 0.68287 0.0
H1356 H 0.7996 0.61154 0.67477 0.0
H1357 H 0.81699 0.62684 0.72129 0.0
H1358 H 0.78761 0.66109 0.7159 0.0
H1359 H 0.76989 0.64552 0.6728 0.0
H1360 H 0.82967 0.64879 0.68425 0.0
H1361 H 0.79923 0.66371 0.88743 0.0
H1362 H 0.79349 0.6502 0.83627 0.0
H1363 H 0.79025 0.66834 0.81904 0.0
C1364 C 0.79685 0.62233 0.68384 0.0
C1365 C 0.78341 0.62737 0.67078 0.0
C1366 C 0.80679 0.63106 0.71036 0.0
C1367 C 0.80354 0.64506 0.72329 0.0
C1368 C 0.79022 0.65022 0.70836 0.0
H1369 H 0.86859 0.70685 0.79475 0.0
H1370 H 0.85118 0.69167 0.74711 0.0
C1371 C 0.78015 0.64137 0.6833 0.0
C1372 C 0.81422 0.65425 0.75132 0.0
H1373 H 0.81984 0.67694 0.86802 0.0
C1374 C 0.82755 0.65486 0.72474 0.0
C1375 C 0.81155 0.662 0.80474 0.0
C1376 C 0.79791 0.66092 0.83887 0.0
C1377 C 0.83826 0.66301 0.74991 0.0
C1378 C 0.83536 0.67133 0.8015 0.0
C1379 C 0.82204 0.67069 0.82812 0.0
C1380 C 0.84601 0.68052 0.8297 0.0
C1381 C 0.85264 0.66223 0.72191 0.0
C1382 C 0.84853 0.67972 0.89235 0.0
C1383 C 0.85809 0.68871 0.91986 0.0
C1384 C 0.8655 0.69848 0.88503 0.0
C1385 C 0.86313 0.69923 0.82233 0.0
C1386 C 0.85327 0.69049 0.79506 0.0
H1387 H 0.8542 0.65222 0.6973 0.0
H1388 H 0.85385 0.67082 0.68855 0.0
H1389 H 0.86097 0.66323 0.7567 0.0
H1390 H 0.84306 0.67214 0.92008 0.0
H1391 H 0.85979 0.68794 0.96832 0.0
H1392 H 0.24962 0.05195 0.01038 0.0
H1393 H 0.25257 0.02735 0.98414 0.0
H1394 H 0.29313 0.02718 0.06954 0.0
H1395 H 0.29024 0.05189 0.09651 0.0
H1396 H 0.27487 0.015 0.91385 0.0
H1397 H 0.27112 0.99433 0.14946 0.0
H1398 H 0.26531 0.01168 0.12946 0.0
H1399 H 0.28364 0.00802 0.13607 0.0
C1400 C 0.25916 0.04669 0.02383 0.0
C1401 C 0.26968 0.0538 0.05577 0.0
C1402 C 0.26084 0.03266 0.00857 0.0
C1403 C 0.27302 0.0255 0.02522 0.0
C1404 C 0.28359 0.03255 0.0569 0.0
H1405 H 0.29076 0.94031 0.89834 0.0
H1406 H 0.29321 0.96535 0.91967 0.0
C1407 C 0.28193 0.04663 0.07217 0.0
C1408 C 0.27443 0.0106 0.00955 0.0
H1409 H 0.27379 0.97791 0.07098 0.0
C1410 C 0.27479 0.00686 0.94807 0.0
C1411 C 0.27423 0.0001 0.05456 0.0
C1412 C 0.27346 0.00364 0.12115 0.0
C1413 C 0.27462 0.99279 0.93027 0.0
C1414 C 0.27418 0.98231 0.97529 0.0
C1415 C 0.27418 0.98605 0.03677 0.0
C1416 C 0.27267 0.96742 0.95972 0.0
C1417 C 0.27434 0.98923 0.86366 0.0
C1418 C 0.26033 0.9604 0.97527 0.0
C1419 C 0.2589 0.94618 0.96325 0.0
C1420 C 0.26984 0.93873 0.93574 0.0
C1421 C 0.28214 0.94582 0.91934 0.0
C1422 C 0.28355 0.96009 0.93137 0.0
H1423 H 0.27254 -0.0014 0.8349 0.0
H1424 H 0.28449 0.98452 0.85051 0.0
H1425 H 0.26601 0.98144 0.85412 0.0
H1426 H 0.25183 0.96593 0.99718 0.0
H1427 H 0.24931 0.941 0.97648 0.0
H1428 H 0.0521 0.2493 0.99615 0.0
H1429 H 0.0276 0.25229 0.02382 0.0
H1430 H 0.02664 0.29193 0.93088 0.0
H1431 H 0.0513 0.28904 0.90267 0.0
H1432 H 0.01578 0.27622 0.091 0.0
H1433 H 0.99333 0.26786 0.86054 0.0
H1434 H 0.0107 0.26205 0.88043 0.0
H1435 H 0.00736 0.28029 0.86839 0.0
C1436 C 0.04669 0.25863 0.98126 0.0
C1437 C 0.05358 0.26893 0.94707 0.0
C1438 C 0.03273 0.26034 0.99735 0.0
C1439 C 0.0254 0.2723 0.97923 0.0
C1440 C 0.03217 0.28259 0.94486 0.0
H1441 H 0.94067 0.28967 0.11329 0.0
H1442 H 0.96546 0.29257 0.0882 0.0
C1443 C 0.04621 0.28092 0.92885 0.0
C1444 C 0.01062 0.27378 0.99661 0.0
H1445 H 0.97752 0.27093 0.94091 0.0
C1446 C 0.00736 0.27526 0.05828 0.0
C1447 C -0.00021 0.27241 0.95353 0.0
C1448 C 0.00286 0.27049 0.88696 0.0
C1449 C 0.99347 0.27499 0.07836 0.0
C1450 C 0.98265 0.2733 0.03539 0.0
C1451 C 0.9859 0.27225 0.97354 0.0
C1452 C 0.96796 0.27153 0.05384 0.0
C1453 C 0.99046 0.2759 0.14539 0.0
C1454 C 0.96127 0.25875 0.04286 0.0
C1455 C 0.94718 0.25708 0.05695 0.0
C1456 C 0.93954 0.26819 0.08206 0.0
C1457 C 0.94634 0.28091 0.0943 0.0
C1458 C 0.96047 0.28258 0.08008 0.0
H1459 H 0.00011 0.2749 0.17313 0.0
H1460 H 0.98559 0.28616 0.15561 0.0
H1461 H 0.98299 0.26761 0.15918 0.0
H1462 H 0.96693 0.25011 0.02269 0.0
H1463 H 0.94222 0.24716 0.047 0.0
H1464 H 0.70342 0.94025 0.09765 0.0
H1465 H 0.69975 0.96499 0.07317 0.0
H1466 H 0.73934 0.96597 0.9797 0.0
H1467 H 0.74306 0.94135 1.00351 0.0
H1468 H 0.71742 0.98773 0.10459 0.0
H1469 H 0.71148 0.98243 0.85572 0.0
H1470 H 0.70965 0.96783 0.90709 0.0
H1471 H 0.72673 0.97378 0.88483 0.0
C1472 C 0.71131 0.94575 0.07175 0.0
C1473 C 0.72351 0.93889 0.05233 0.0
C1474 C 0.70919 0.95983 0.05777 0.0
C1475 C 0.71916 0.96716 0.02373 0.0
C1476 C 0.73139 0.96037 1.00488 0.0
H1477 H 0.74307 0.05192 0.99322 0.0
H1478 H 0.73988 0.02706 0.01415 0.0
C1479 C 0.73354 0.94634 0.01895 0.0
C1480 C 0.71724 0.98211 0.01005 0.0
H1481 H 0.71686 0.00539 0.893 0.0
C1482 C 0.71708 0.99161 0.0584 0.0
C1483 C 0.7166 0.98707 0.94975 0.0
C1484 C 0.71598 0.97724 0.89634 0.0
C1485 C 0.71708 0.00605 0.04787 0.0
C1486 C 0.71742 0.011 0.98752 0.0
C1487 C 0.71678 0.00151 0.93921 0.0
C1488 C 0.71929 0.02595 0.97376 0.0
C1489 C 0.71696 0.01589 0.10133 0.0
C1490 C 0.70893 0.03338 0.94243 0.0
C1491 C 0.71075 0.04758 0.93013 0.0
C1492 C 0.723 0.05448 0.9486 0.0
C1493 C 0.7335 0.0469 0.97862 0.0
C1494 C 0.73165 0.03273 0.991 0.0
H1495 H 0.71281 0.01073 0.14271 0.0
H1496 H 0.72782 0.01933 0.111 0.0
H1497 H 0.71057 0.02531 0.09158 0.0
H1498 H 0.69938 0.02823 0.92833 0.0
H1499 H 0.7025 0.05318 0.90681 0.0
H1500 H 0.94205 0.746 0.94961 0.0
H1501 H 0.96708 0.74417 0.97094 0.0
H1502 H 0.96571 0.69995 0.93366 0.0
H1503 H 0.94062 0.70169 0.9115 0.0
H1504 H 0.97785 0.71215 0.05807 0.0
H1505 H 7e-05 0.7326 0.84227 0.0
H1506 H 0.98497 0.74133 0.87313 0.0
H1507 H 0.98337 0.72378 0.84559 0.0
C1508 C 0.9471 0.73591 0.94529 0.0
C1509 C 0.93942 0.72398 0.92895 0.0
C1510 C 0.96136 0.7349 0.95738 0.0
C1511 C 0.96812 0.72194 0.95364 0.0
C1512 C 0.96058 0.71003 0.93645 0.0
H1513 H 0.0528 0.70308 0.08211 0.0
H1514 H 0.02834 0.70057 0.05098 0.0
C1515 C 0.94631 0.71106 0.9237 0.0
C1516 C 0.98292 0.72086 0.97092 0.0
H1517 H 0.01566 0.72982 0.92458 0.0
C1518 C 0.98619 0.71582 0.02884 0.0
C1519 C 0.99361 0.72578 0.93249 0.0
C1520 C 0.99043 0.73113 0.86966 0.0
C1521 C -2e-05 0.7161 0.05048 0.0
C1522 C 0.0107 0.72125 0.01237 0.0
C1523 C 0.0074 0.7259 0.95368 0.0
C1524 C 0.0253 0.72262 0.03329 0.0
C1525 C 0.00282 0.71147 0.11473 0.0
C1526 C 0.0317 0.73581 0.03286 0.0
C1527 C 0.04566 0.73723 0.04977 0.0
C1528 C 0.05344 0.7255 0.06767 0.0
C1529 C 0.04698 0.71232 0.06909 0.0
C1530 C 0.03302 0.71087 0.05153 0.0
H1531 H 0.99311 0.71111 0.1423 0.0
H1532 H 0.0074 0.70082 0.11413 0.0
H1533 H 0.01038 0.71858 0.13725 0.0
H1534 H 0.02591 0.745 0.01894 0.0
H1535 H 0.05038 0.74752 0.0483 0.0
H1536 H 0.75759 0.43821 0.54277 0.0
H1537 H 0.75971 0.4634 0.55774 0.0
H1538 H 0.78782 0.46596 0.40511 0.0
H1539 H 0.78622 0.44054 0.39169 0.0
H1540 H 0.79623 0.48271 0.49515 0.0
H1541 H 0.73986 0.49118 0.45299 0.0
H1542 H 0.74264 0.47936 0.51484 0.0
H1543 H 0.74822 0.47458 0.43959 0.0
C1544 C 0.76425 0.44415 0.51253 0.0
C1545 C 0.7716 0.43754 0.46559 0.0
C1546 C 0.7654 0.45853 0.52093 0.0
C1547 C 0.7736 0.46658 0.48144 0.0
C1548 C 0.78135 0.45992 0.43574 0.0
H1549 H 0.75891 0.5556 0.45953 0.0
H1550 H 0.7619 0.53084 0.4363 0.0
C1551 C 0.78041 0.44546 0.42807 0.0
C1552 C 0.77379 0.48197 0.48727 0.0
H1553 H 0.75232 0.51027 0.49674 0.0
C1554 C 0.78666 0.48879 0.49492 0.0
C1555 C 0.76131 0.48988 0.4856 0.0
C1556 C 0.74726 0.48339 0.47212 0.0
C1557 C 0.78734 0.50334 0.5026 0.0
C1558 C 0.77477 0.51113 0.5047 0.0
C1559 C 0.76195 0.50429 0.49575 0.0
C1560 C 0.77447 0.52639 0.51573 0.0
C1561 C 0.80151 0.51018 0.50726 0.0
C1562 C 0.78071 0.53219 0.56765 0.0
C1563 C 0.77928 0.54644 0.58017 0.0
C1564 C 0.77121 0.55494 0.54197 0.0
C1565 C 0.76507 0.54918 0.48994 0.0
C1566 C 0.7668 0.53507 0.47662 0.0
H1567 H 0.8097 0.50377 0.48485 0.0
H1568 H 0.8015 0.52074 0.48642 0.0
H1569 H 0.8044 0.51122 0.55576 0.0
H1570 H 0.78632 0.52564 0.59945 0.0
H1571 H 0.78401 0.55069 0.62081 0.0
H1572 H 0.44261 0.75064 0.5119 0.0
H1573 H 0.46731 0.75456 0.49011 0.0
H1574 H 0.46529 0.79468 0.57886 0.0
H1575 H 0.44048 0.79081 0.60138 0.0
H1576 H 0.47925 0.77767 0.42355 0.0
H1577 H 0.49844 0.77363 0.66148 0.0
H1578 H 0.48148 0.76721 0.63876 0.0
H1579 H 0.48435 0.78564 0.64696 0.0
C1580 C 0.44741 0.76028 0.52705 0.0
C1581 C 0.43965 0.7704 0.55856 0.0
C1582 C 0.4615 0.76252 0.51436 0.0
C1583 C 0.46807 0.77486 0.53318 0.0
C1584 C 0.46038 0.78502 0.56457 0.0
H1585 H 0.55383 0.79333 0.41166 0.0
H1586 H 0.52895 0.79644 0.43517 0.0
C1587 C 0.44624 0.7828 0.57727 0.0
C1588 C 0.48302 0.77691 0.51969 0.0
H1589 H 0.5153 0.77681 0.58522 0.0
C1590 C 0.48716 0.77767 0.45879 0.0
C1591 C 0.49321 0.77684 0.56603 0.0
C1592 C 0.48924 0.77571 0.63205 0.0
C1593 C 0.50133 0.7779 0.44278 0.0
C1594 C 0.51153 0.77749 0.48906 0.0
C1595 C 0.50738 0.77719 0.55003 0.0
C1596 C 0.52651 0.77593 0.47508 0.0
C1597 C 0.50532 0.77791 0.37659 0.0
C1598 C 0.5333 0.76344 0.49038 0.0
C1599 C 0.54741 0.76164 0.47714 0.0
C1600 C 0.555 0.77234 0.44856 0.0
C1601 C 0.5482 0.78489 0.43343 0.0
C1602 C 0.53402 0.78668 0.4467 0.0
H1603 H 0.49616 0.77614 0.34656 0.0
H1604 H 0.51002 0.78815 0.36471 0.0
H1605 H 0.51324 0.76969 0.36739 0.0
H1606 H 0.52762 0.75503 0.51228 0.0
H1607 H 0.55238 0.75187 0.48951 0.0
H1608 H 0.24362 0.44175 0.52793 0.0
H1609 H 0.24052 0.46654 0.50582 0.0
H1610 H 0.19924 0.4653 0.5843 0.0
H1611 H 0.20228 0.44038 0.60709 0.0
H1612 H 0.21848 0.47852 0.43295 0.0
H1613 H 0.21959 0.49851 0.67017 0.0
H1614 H 0.22617 0.48143 0.65008 0.0
H1615 H 0.20768 0.48444 0.65377 0.0
C1616 C 0.23391 0.44674 0.54088 0.0
C1617 C 0.2232 0.43915 0.5694 0.0
C1618 C 0.23215 0.46089 0.52804 0.0
C1619 C 0.21969 0.46769 0.54372 0.0
C1620 C 0.20898 0.4602 0.57249 0.0
H1621 H 0.20208 0.55264 0.4118 0.0
H1622 H 0.19919 0.52782 0.43678 0.0
C1623 C 0.21073 0.446 0.58534 0.0
C1624 C 0.21801 0.48262 0.52887 0.0
H1625 H 0.21727 0.51512 0.59216 0.0
C1626 C 0.21805 0.48655 0.46761 0.0
C1627 C 0.21754 0.49297 0.57447 0.0
C1628 C 0.21782 0.48922 0.6409 0.0
C1629 C 0.21801 0.50066 0.45062 0.0
C1630 C 0.21778 0.51102 0.49624 0.0
C1631 C 0.21737 0.50709 0.55748 0.0
C1632 C 0.21923 0.52598 0.4815 0.0
C1633 C 0.21883 0.50441 0.38426 0.0
C1634 C 0.23138 0.53309 0.49905 0.0
C1635 C 0.23306 0.54718 0.48495 0.0
C1636 C 0.22257 0.55441 0.45329 0.0
C1637 C 0.21036 0.54729 0.43597 0.0
C1638 C 0.20869 0.53314 0.45008 0.0
H1639 H 0.22119 0.49518 0.35544 0.0
H1640 H 0.20867 0.50884 0.36945 0.0
H1641 H 0.22699 0.51246 0.37654 0.0
H1642 H 0.23962 0.52769 0.52332 0.0
H1643 H 0.24256 0.5524 0.49909 0.0
H1644 H 0.5525 0.20169 0.59815 0.0
H1645 H 0.52771 0.19822 0.57429 0.0
H1646 H 0.52699 0.23769 0.4798 0.0
H1647 H 0.55169 0.2412 0.50297 0.0
H1648 H 0.50515 0.21592 0.60564 0.0
H1649 H 0.51019 0.2099 0.35669 0.0
H1650 H 0.52485 0.2081 0.40776 0.0
H1651 H 0.51885 0.22517 0.38555 0.0
C1652 C 0.54705 0.2096 0.57218 0.0
C1653 C 0.55401 0.2217 0.55226 0.0
C1654 C 0.53293 0.20759 0.55855 0.0
C1655 C 0.52565 0.21758 0.5244 0.0
C1656 C 0.53254 0.22972 0.50508 0.0
H1657 H 0.44113 0.24188 0.49376 0.0
H1658 H 0.46586 0.23828 0.51612 0.0
C1659 C 0.54661 0.23176 0.51878 0.0
C1660 C 0.51067 0.21573 0.51099 0.0
H1661 H 0.48726 0.21521 0.39444 0.0
C1662 C 0.50122 0.21554 0.55954 0.0
C1663 C 0.50564 0.21503 0.45081 0.0
C1664 C 0.51542 0.21441 0.39719 0.0
C1665 C 0.48677 0.21548 0.54931 0.0
C1666 C 0.48175 0.21577 0.48906 0.0
C1667 C 0.49119 0.21514 0.44056 0.0
C1668 C 0.46678 0.21771 0.47556 0.0
C1669 C 0.47699 0.21537 0.60297 0.0
C1670 C 0.45927 0.20746 0.44392 0.0
C1671 C 0.44513 0.2095 0.43083 0.0
C1672 C 0.43839 0.22188 0.44874 0.0
C1673 C 0.44603 0.23221 0.47955 0.0
C1674 C 0.46012 0.23014 0.49274 0.0
H1675 H 0.48219 0.21118 0.64419 0.0
H1676 H 0.4736 0.22622 0.61282 0.0
H1677 H 0.46753 0.20901 0.59338 0.0
H1678 H 0.46433 0.19786 0.42986 0.0
H1679 H 0.43948 0.20138 0.40691 0.0
H1680 H 0.22965 0.15109 0.09446 0.0
H1681 H 0.21135 0.16878 0.08434 0.0
H1682 H 0.18814 0.14128 0.96642 0.0
H1683 H 0.20638 0.12348 0.97674 0.0
H1684 H 0.20177 0.18194 0.98206 0.0
H1685 H 0.15904 0.15207 0.09245 0.0
H1686 H 0.17714 0.14687 0.09744 0.0
H1687 H 0.16713 0.143 0.03049 0.0
C1688 C 0.22068 0.14885 0.06614 0.0
C1689 C 0.2194 0.13591 0.03652 0.0
C1690 C 0.21022 0.15892 0.06065 0.0
C1691 C 0.1983 0.15623 0.02552 0.0
C1692 C 0.1971 0.14341 0.99501 0.0
H1693 H 0.12751 0.20525 0.91096 0.0
H1694 H 0.14534 0.18733 0.92702 0.0
C1695 C 0.20753 0.13329 1.00078 0.0
C1696 C 0.18732 0.167 0.01963 0.0
H1697 H 0.15259 0.17318 0.0427 0.0
C1698 C 0.19103 0.18007 0.99567 0.0
C1699 C 0.17335 0.1645 0.03761 0.0
C1700 C 0.16892 0.1509 0.06648 0.0
C1701 C 0.18105 0.19065 0.98804 0.0
C1702 C 0.16707 0.18807 1.00532 0.0
C1703 C 0.16335 0.17505 0.02949 0.0
C1704 C 0.15611 0.19874 0.99756 0.0
C1705 C 0.18543 0.2044 0.96045 0.0
C1706 C 0.1562 0.21093 0.03276 0.0
C1707 C 0.14596 0.22114 0.02419 0.0
C1708 C 0.13547 0.21929 0.98023 0.0
C1709 C 0.13533 0.20692 0.94572 0.0
C1710 C 0.14554 0.19671 0.95453 0.0
H1711 H 0.19599 0.20382 0.93964 0.0
H1712 H 0.17781 0.20775 0.92533 0.0
H1713 H 0.18563 0.21254 0.99627 0.0
H1714 H 0.16421 0.21254 0.0668 0.0
H1715 H 0.14622 0.23043 0.05221 0.0
H1716 H 0.87477 0.20112 0.03964 0.0
H1717 H 0.8582 0.18205 0.02109 0.0
H1718 H 0.82432 0.21177 0.01482 0.0
H1719 H 0.84081 0.23088 0.03188 0.0
H1720 H 0.83481 0.17507 0.09425 0.0
H1721 H 0.8191 0.18853 0.85937 0.0
H1722 H 0.8347 0.19544 0.89449 0.0
H1723 H 0.8179 0.20292 0.91142 0.0
C1724 C 0.86382 0.2036 0.0333 0.0
C1725 C 0.85908 0.21749 0.03696 0.0
C1726 C 0.85438 0.19271 0.0231 0.0
C1727 C 0.84011 0.19556 0.01584 0.0
C1728 C 0.83535 0.2094 0.01931 0.0
H1729 H 0.76218 0.15304 0.98183 0.0
H1730 H 0.78165 0.16936 0.99332 0.0
C1731 C 0.84475 0.22028 0.02964 0.0
C1732 C 0.83001 0.18407 0.00724 0.0
H1733 H 0.80455 0.17228 0.91194 0.0
C1734 C 0.82829 0.17431 0.05413 0.0
C1735 C 0.8216 0.18316 0.95474 0.0
C1736 C 0.82348 0.19299 0.90184 0.0
C1737 C 0.81791 0.16399 0.05101 0.0
C1738 C 0.80921 0.16336 0.99929 0.0
C1739 C 0.81121 0.17287 0.95167 0.0
C1740 C 0.79757 0.1533 0.99456 0.0
C1741 C 0.81595 0.15419 0.10394 0.0
C1742 C 0.80013 0.13889 0.9915 0.0
C1743 C 0.78902 0.12953 0.98479 0.0
C1744 C 0.77521 0.13448 0.98064 0.0
C1745 C 0.77271 0.14893 0.98425 0.0
C1746 C 0.7838 0.15826 0.991 0.0
H1747 H 0.82161 0.15783 0.14498 0.0
H1748 H 0.80469 0.15306 0.11515 0.0
H1749 H 0.82003 0.1437 0.09169 0.0
H1750 H 0.81072 0.13491 0.99312 0.0
H1751 H 0.79128 0.11847 0.98118 0.0
H1752 H 0.85457 0.77718 0.87036 0.0
H1753 H 0.83794 0.79627 0.88616 0.0
H1754 H 0.84327 0.79254 0.07961 0.0
H1755 H 0.85984 0.77328 0.06421 0.0
H1756 H 0.8145 0.79288 0.03463 0.0
H1757 H 0.84689 0.83675 0.94745 0.0
H1758 H 0.84598 0.8216 0.89932 0.0
H1759 H 0.85433 0.82033 0.97201 0.0
C1760 C 0.85217 0.78041 0.91627 0.0
C1761 C 0.85844 0.77373 0.96613 0.0
C1762 C 0.84279 0.79138 0.92515 0.0
C1763 C 0.83954 0.79585 0.98396 0.0
C1764 C 0.84577 0.78925 0.03388 0.0
H1765 H 0.78995 0.86768 0.09094 0.0
H1766 H 0.80835 0.85014 0.07943 0.0
C1767 C 0.85524 0.77832 0.02503 0.0
C1768 C 0.82916 0.80703 0.9932 0.0
H1769 H 0.82289 0.84158 0.96602 0.0
C1770 C 0.81634 0.80355 0.02001 0.0
C1771 C 0.83169 0.82091 0.9743 0.0
C1772 C 0.8455 0.82522 0.94708 0.0
C1773 C 0.80579 0.81358 0.02714 0.0
C1774 C 0.80817 0.82736 0.00658 0.0
C1775 C 0.82111 0.83094 0.98114 0.0
C1776 C 0.7973 0.83822 0.01138 0.0
C1777 C 0.79219 0.80942 0.0567 0.0
C1778 C 0.78517 0.83739 0.97594 0.0
C1779 C 0.7747 0.84746 0.98182 0.0
C1780 C 0.7762 0.85851 0.02339 0.0
C1781 C 0.78853 0.85941 0.05798 0.0
C1782 C 0.79902 0.84937 0.05179 0.0
H1783 H 0.79302 0.7992 0.08041 0.0
H1784 H 0.78881 0.81749 0.08979 0.0
H1785 H 0.78396 0.80854 0.02147 0.0
H1786 H 0.7838 0.82892 0.94386 0.0
H1787 H 0.76546 0.8466 0.95372 0.0
H1788 H 0.15224 0.76338 0.06189 0.0
H1789 H 0.16944 0.78189 0.0451 0.0
H1790 H 0.13619 0.81203 0.02645 0.0
H1791 H 0.11889 0.7936 0.04442 0.0
H1792 H 0.17092 0.79998 0.93984 0.0
H1793 H 0.16314 0.82895 0.15615 0.0
H1794 H 0.15748 0.81109 0.14607 0.0
H1795 H 0.1477 0.82513 0.11263 0.0
C1796 C 0.1486 0.77397 0.05485 0.0
C1797 C 0.13423 0.77706 0.05468 0.0
C1798 C 0.15841 0.7845 0.04496 0.0
C1799 C 0.15404 0.7983 0.0352 0.0
C1800 C 0.13973 0.80145 0.03467 0.0
H1801 H 0.20318 0.8738 0.97544 0.0
H1802 H 0.18399 0.85724 0.99099 0.0
C1803 C 0.12988 0.7909 0.04435 0.0
C1804 C 0.16455 0.80929 0.02425 0.0
H1805 H 0.17933 0.83838 0.08658 0.0
C1806 C 0.17276 0.8084 0.97177 0.0
C1807 C 0.1668 0.82027 0.06597 0.0
C1808 C 0.15841 0.82145 0.12366 0.0
C1809 C 0.18327 0.81822 0.95991 0.0
C1810 C 0.18578 0.829 1.0024 0.0
C1811 C 0.17737 0.83006 0.05429 0.0
C1812 C 0.19737 0.83903 0.99453 0.0
C1813 C 0.19151 0.81703 0.90179 0.0
C1814 C 0.21122 0.83425 0.99275 0.0
C1815 C 0.22218 0.84366 0.98405 0.0
C1816 C 0.21947 0.85802 0.97754 0.0
C1817 C 0.20559 0.86281 0.98086 0.0
C1818 C 0.19463 0.85337 0.98941 0.0
H1819 H 0.18582 0.81082 0.86712 0.0
H1820 H 0.19386 0.82751 0.88269 0.0
H1821 H 0.20157 0.81168 0.91121 0.0
H1822 H 0.21356 0.82324 0.9981 0.0
H1823 H 0.23279 0.8397 0.98272 0.0
H1824 H 0.6184 0.70189 0.46866 0.0
H1825 H 0.63525 0.68288 0.48417 0.0
H1826 H 0.66925 0.71224 0.46818 0.0
H1827 H 0.65253 0.73129 0.45351 0.0
H1828 H 0.65799 0.67512 0.40167 0.0
H1829 H 0.67616 0.69089 0.63102 0.0
H1830 H 0.65986 0.69691 0.59892 0.0
H1831 H 0.67609 0.7046 0.57528 0.0
C1832 C 0.62947 0.70429 0.46912 0.0
C1833 C 0.63418 0.71806 0.46006 0.0
C1834 C 0.63905 0.69345 0.47761 0.0
C1835 C 0.65343 0.69625 0.47784 0.0
C1836 C 0.65816 0.70995 0.46878 0.0
H1837 H 0.72575 0.64341 0.43636 0.0
H1838 H 0.70681 0.66043 0.42404 0.0
C1839 C 0.64862 0.72077 0.45997 0.0
C1840 C 0.66359 0.68483 0.48633 0.0
H1841 H 0.68933 0.6733 0.58082 0.0
C1842 C 0.6648 0.67463 0.44096 0.0
C1843 C 0.67231 0.68423 0.53794 0.0
C1844 C 0.67101 0.69466 0.58893 0.0
C1845 C 0.67484 0.664 0.44515 0.0
C1846 C 0.6839 0.6637 0.49573 0.0
C1847 C 0.68242 0.67367 0.54187 0.0
C1848 C 0.69506 0.65315 0.50168 0.0
C1849 C 0.67566 0.65314 0.39568 0.0
C1850 C 0.69475 0.64362 0.54988 0.0
C1851 C 0.70555 0.63398 0.55723 0.0
C1852 C 0.7169 0.63379 0.51672 0.0
C1853 C 0.71718 0.64338 0.46844 0.0
C1854 C 0.70632 0.65299 0.461 0.0
H1855 H 0.66601 0.65293 0.36767 0.0
H1856 H 0.6846 0.6556 0.36547 0.0
H1857 H 0.67741 0.64257 0.41511 0.0
H1858 H 0.68618 0.64369 0.58198 0.0
H1859 H 0.70517 0.62686 0.59536 0.0
H1860 H 0.36721 0.70451 0.59362 0.0
H1861 H 0.34961 0.68628 0.58054 0.0
H1862 H 0.33058 0.71002 0.43623 0.0
H1863 H 0.34852 0.72803 0.44709 0.0
H1864 H 0.32138 0.68912 0.5946 0.0
H1865 H 0.33374 0.6714 0.36123 0.0
H1866 H 0.34555 0.68209 0.40512 0.0
H1867 H 0.33087 0.68989 0.36695 0.0
C1868 C 0.35948 0.70572 0.55816 0.0
C1869 C 0.35931 0.71771 0.5212 0.0
C1870 C 0.34936 0.69534 0.55111 0.0
C1871 C 0.33891 0.69673 0.50696 0.0
C1872 C 0.33872 0.70863 0.46981 0.0
H1873 H 0.26376 0.65127 0.41742 0.0
H1874 H 0.28246 0.66855 0.42854 0.0
C1875 C 0.34888 0.719 0.47662 0.0
C1876 C 0.32781 0.68604 0.50196 0.0
H1877 H 0.31233 0.66327 0.40362 0.0
C1878 C 0.31945 0.68339 0.553 0.0
C1879 C 0.32536 0.6786 0.44758 0.0
C1880 C 0.33443 0.68052 0.39226 0.0
C1881 C 0.30851 0.67366 0.55077 0.0
C1882 C 0.30597 0.66637 0.49623 0.0
C1883 C 0.31433 0.66896 0.44526 0.0
C1884 C 0.29459 0.65605 0.49106 0.0
C1885 C 0.29956 0.67144 0.60624 0.0
C1886 C 0.29531 0.64334 0.52254 0.0
C1887 C 0.28466 0.63346 0.51635 0.0
C1888 C 0.27313 0.63618 0.47862 0.0
C1889 C 0.27243 0.64898 0.44742 0.0
C1890 C 0.28312 0.6588 0.45338 0.0
H1891 H 0.30121 0.67972 0.64081 0.0
H1892 H 0.28831 0.6712 0.59375 0.0
H1893 H 0.30221 0.66121 0.62702 0.0
H1894 H 0.30417 0.64102 0.5514 0.0
H1895 H 0.28542 0.62373 0.5412 0.0
H1896 H 0.36038 0.27564 0.56188 0.0
H1897 H 0.34351 0.29454 0.57792 0.0
H1898 H 0.3405 0.30069 0.38469 0.0
H1899 H 0.35741 0.2819 0.36821 0.0
H1900 H 0.34429 0.3231 0.53952 0.0
H1901 H 0.29979 0.29373 0.43925 0.0
H1902 H 0.31592 0.28538 0.46139 0.0
H1903 H 0.31498 0.29504 0.39167 0.0
C1904 C 0.35623 0.28112 0.52286 0.0
C1905 C 0.3601 0.2772 0.46377 0.0
C1906 C 0.34658 0.29186 0.53209 0.0
C1907 C 0.34063 0.2988 0.48242 0.0
C1908 C 0.34478 0.29522 0.4235 0.0
H1909 H 0.27606 0.36183 0.44714 0.0
H1910 H 0.29524 0.34541 0.42907 0.0
C1911 C 0.35441 0.28449 0.4142 0.0
C1912 C 0.3299 0.30966 0.49221 0.0
H1913 H 0.29562 0.31732 0.46569 0.0
C1914 C 0.33364 0.32186 0.52353 0.0
C1915 C 0.31605 0.30794 0.47122 0.0
C1916 C 0.31136 0.29478 0.43945 0.0
C1917 C 0.32386 0.33254 0.53373 0.0
C1918 C 0.31 0.3308 0.51283 0.0
C1919 C 0.3063 0.31861 0.48137 0.0
C1920 C 0.29904 0.34135 0.52413 0.0
C1921 C 0.32849 0.34566 0.56591 0.0
C1922 C 0.29486 0.34443 0.58355 0.0
C1923 C 0.28397 0.35383 0.59402 0.0
C1924 C 0.27702 0.36023 0.54516 0.0
C1925 C 0.28132 0.35718 0.48568 0.0
C1926 C 0.29221 0.34777 0.47527 0.0
H1927 H 0.34004 0.3469 0.5648 0.0
H1928 H 0.32362 0.35506 0.54529 0.0
H1929 H 0.3252 0.34512 0.61408 0.0
H1930 H 0.29985 0.33938 0.62179 0.0
H1931 H 0.28099 0.35608 0.64036 0.0
H1932 H 0.70623 0.36604 0.42936 0.0
H1933 H 0.68788 0.34841 0.43799 0.0
H1934 H 0.71159 0.3271 0.57612 0.0
H1935 H 0.72989 0.34492 0.56925 0.0
H1936 H 0.70142 0.3104 0.47001 0.0
H1937 H 0.66024 0.34185 0.58486 0.0
H1938 H 0.66881 0.34979 0.52093 0.0
H1939 H 0.67857 0.34632 0.58871 0.0
C1940 C 0.70744 0.35778 0.46254 0.0
C1941 C 0.71952 0.35692 0.49877 0.0
C1942 C 0.69697 0.3477 0.46715 0.0
C1943 C 0.69839 0.33658 0.50795 0.0
C1944 C 0.71035 0.33567 0.54445 0.0
H1945 H 0.65152 0.26118 0.57969 0.0
H1946 H 0.66935 0.27936 0.57175 0.0
C1947 C 0.72081 0.34581 0.54017 0.0
C1948 C 0.68766 0.32555 0.51044 0.0
H1949 H 0.65389 0.31926 0.55146 0.0
C1950 C 0.69103 0.31227 0.48801 0.0
C1951 C 0.67413 0.32818 0.53336 0.0
C1952 C 0.67016 0.34227 0.55877 0.0
C1953 C 0.68112 0.30149 0.48728 0.0
C1954 C 0.66762 0.30403 0.51106 0.0
C1955 C 0.66425 0.31736 0.53326 0.0
C1956 C 0.65693 0.29291 0.51456 0.0
C1957 C 0.6851 0.28759 0.45987 0.0
C1958 C 0.64391 0.29467 0.48621 0.0
C1959 C 0.63365 0.28435 0.49108 0.0
C1960 C 0.63627 0.2721 0.52438 0.0
C1961 C 0.64932 0.27039 0.55272 0.0
C1962 C 0.65952 0.28074 0.54817 0.0
H1963 H 0.69406 0.28864 0.42813 0.0
H1964 H 0.68828 0.28033 0.49657 0.0
H1965 H 0.67618 0.28286 0.4351 0.0
H1966 H 0.6417 0.30404 0.4603 0.0
H1967 H 0.62371 0.2859 0.46857 0.0
loop_
_geom_bond_atom_site_label_1
_geom_bond_atom_site_label_2
_geom_bond_distance
_geom_bond_site_symmetry_2
_ccdc_geom_bond_type
Co0 N4 2.148 1_554 S
Co0 N10 2.128 . S
Co0 N20 2.194 . S
Co0 O25 2.351 . S
Co0 O26 2.155 . S
Co0 O27 2.096 . S
C1 N4 1.301 . S
C1 N5 1.328 . S
C1 H6 0.930 . S
C2 C3 1.333 . S
C2 N4 1.317 . S
C2 H7 0.923 1_556 S
C3 C2 1.333 . S
C3 N5 1.350 . S
C3 H29 0.931 . S
N4 Co0 2.148 1_556 S
N4 C1 1.301 . S
N4 C2 1.317 . S
N5 C1 1.328 . S
N5 C3 1.350 . S
H6 C1 0.930 . S
H7 C2 0.923 1_554 S
C8 O9 1.224 . S
C8 O27 1.247 . S
O9 C8 1.224 . S
N10 Co0 2.128 . S
N10 C11 1.355 . S
N10 C13 1.311 . S
C11 N10 1.355 . S
C11 C12 1.363 . S
C11 H23 0.929 . S
C12 C11 1.363 . S
C12 N14 1.375 . S
C12 H30 0.931 . S
C13 N10 1.311 . S
C13 N14 1.347 . S
C13 H24 0.929 . S
N14 C12 1.375 . S
N14 C13 1.347 . S
C15 C18 1.365 . S
C15 N20 1.328 . S
C15 H21 0.929 . S
C16 C17 1.362 . S
C16 C19 1.378 . S
C16 H31 0.929 . S
C17 C16 1.362 . S
C17 C18 1.366 . S
C18 C15 1.365 . S
C18 C17 1.366 . S
C18 H32 0.930 . S
C19 C16 1.378 . S
C19 N20 1.315 . S
C19 H22 0.930 . S
N20 Co0 2.194 . S
N20 C15 1.328 . S
N20 C19 1.315 . S
H21 C15 0.929 . S
H22 C19 0.930 . S
H23 C11 0.929 . S
H24 C13 0.929 . S
O25 Co0 2.351 . S
O25 C28 1.244 . S
O26 Co0 2.155 . S
O26 C28 1.240 . S
O27 Co0 2.096 . S
O27 C8 1.247 . S
C28 O25 1.244 . S
C28 O26 1.240 . S
H29 C3 0.931 . S
H30 C12 0.931 . S
H31 C16 0.929 . S
H32 C18 0.930 . S
Co33 N37 2.148 1_554 S
Co33 N43 2.128 . S
Co33 N53 2.194 . S
Co33 O58 2.351 . S
Co33 O59 2.155 . S
Co33 O60 2.096 . S
C34 N37 1.301 . S
C34 N38 1.328 . S
C34 H39 0.930 . S
C35 C36 1.333 . S
C35 N37 1.317 . S
C35 H40 0.923 1_556 S
C36 C35 1.333 . S
C36 N38 1.350 . S
C36 H62 0.931 . S
N37 Co33 2.148 1_556 S
N37 C34 1.301 . S
N37 C35 1.317 . S
N38 C34 1.328 . S
N38 C36 1.350 . S
H39 C34 0.930 . S
H40 C35 0.923 1_554 S
C41 O42 1.224 . S
C41 O60 1.247 . S
O42 C41 1.224 . S
N43 Co33 2.128 . S
N43 C44 1.355 . S
N43 C46 1.311 . S
C44 N43 1.355 . S
C44 C45 1.363 . S
C44 H56 0.929 . S
C45 C44 1.363 . S
C45 N47 1.375 . S
C45 H63 0.931 . S
C46 N43 1.311 . S
C46 N47 1.347 . S
C46 H57 0.929 . S
N47 C45 1.375 . S
N47 C46 1.347 . S
C48 C51 1.365 . S
C48 N53 1.328 . S
C48 H54 0.929 . S
C49 C50 1.362 . S
C49 C52 1.378 . S
C49 H64 0.929 . S
C50 C49 1.362 . S
C50 C51 1.366 . S
C51 C48 1.365 . S
C51 C50 1.366 . S
C51 H65 0.930 . S
C52 C49 1.378 . S
C52 N53 1.315 . S
C52 H55 0.930 . S
N53 Co33 2.194 . S
N53 C48 1.328 . S
N53 C52 1.315 . S
H54 C48 0.929 . S
H55 C52 0.930 . S
H56 C44 0.929 . S
H57 C46 0.929 . S
O58 Co33 2.351 . S
O58 C61 1.244 . S
O59 Co33 2.155 . S
O59 C61 1.240 . S
O60 Co33 2.096 . S
O60 C41 1.247 . S
C61 O58 1.244 . S
C61 O59 1.240 . S
H62 C36 0.931 . S
H63 C45 0.931 . S
H64 C49 0.929 . S
H65 C51 0.930 . S
Co66 N70 2.148 1_554 S
Co66 N76 2.128 . S
Co66 N86 2.194 . S
Co66 O91 2.351 . S
Co66 O92 2.155 . S
Co66 O93 2.096 . S
C67 N70 1.301 . S
C67 N71 1.328 . S
C67 H72 0.930 . S
C68 C69 1.333 . S
C68 N70 1.317 . S
C68 H73 0.923 1_556 S
C69 C68 1.333 . S
C69 N71 1.350 . S
C69 H95 0.931 . S
N70 Co66 2.148 1_556 S
N70 C67 1.301 . S
N70 C68 1.317 . S
N71 C67 1.328 . S
N71 C69 1.350 . S
H72 C67 0.930 . S
H73 C68 0.923 1_554 S
C74 O75 1.224 . S
C74 O93 1.247 . S
O75 C74 1.224 . S
N76 Co66 2.128 . S
N76 C77 1.355 . S
N76 C79 1.311 . S
C77 N76 1.355 . S
C77 C78 1.363 . S
C77 H89 0.929 . S
C78 C77 1.363 . S
C78 N80 1.375 . S
C78 H96 0.931 . S
C79 N76 1.311 . S
C79 N80 1.347 . S
C79 H90 0.929 . S
N80 C78 1.375 . S
N80 C79 1.347 . S
C81 C84 1.365 . S
C81 N86 1.328 . S
C81 H87 0.929 . S
C82 C83 1.362 . S
C82 C85 1.378 . S
C82 H97 0.929 . S
C83 C82 1.362 . S
C83 C84 1.366 . S
C84 C81 1.365 . S
C84 C83 1.366 . S
C84 H98 0.930 . S
C85 C82 1.378 . S
C85 N86 1.315 . S
C85 H88 0.930 . S
N86 Co66 2.194 . S
N86 C81 1.328 . S
N86 C85 1.315 . S
H87 C81 0.929 . S
H88 C85 0.930 . S
H89 C77 0.929 . S
H90 C79 0.929 . S
O91 Co66 2.351 . S
O91 C94 1.244 . S
O92 Co66 2.155 . S
O92 C94 1.240 . S
O93 Co66 2.096 . S
O93 C74 1.247 . S
C94 O91 1.244 . S
C94 O92 1.240 . S
H95 C69 0.931 . S
H96 C78 0.931 . S
H97 C82 0.929 . S
H98 C84 0.930 . S
Co99 N103 2.148 1_554 S
Co99 N109 2.128 . S
Co99 N119 2.194 . S
Co99 O124 2.351 . S
Co99 O125 2.155 . S
Co99 O126 2.096 . S
C100 N103 1.301 . S
C100 N104 1.328 . S
C100 H105 0.930 . S
C101 C102 1.333 . S
C101 N103 1.317 . S
C101 H106 0.923 1_556 S
C102 C101 1.333 . S
C102 N104 1.350 . S
C102 H128 0.931 . S
N103 Co99 2.148 1_556 S
N103 C100 1.301 . S
N103 C101 1.317 . S
N104 C100 1.328 . S
N104 C102 1.350 . S
H105 C100 0.930 . S
H106 C101 0.923 1_554 S
C107 O108 1.224 . S
C107 O126 1.247 . S
O108 C107 1.224 . S
N109 Co99 2.128 . S
N109 C110 1.355 . S
N109 C112 1.311 . S
C110 N109 1.355 . S
C110 C111 1.363 . S
C110 H122 0.929 . S
C111 C110 1.363 . S
C111 N113 1.375 . S
C111 H129 0.931 . S
C112 N109 1.311 . S
C112 N113 1.347 . S
C112 H123 0.929 . S
N113 C111 1.375 . S
N113 C112 1.347 . S
C114 C117 1.365 . S
C114 N119 1.328 . S
C114 H120 0.929 . S
C115 C116 1.362 . S
C115 C118 1.378 . S
C115 H130 0.929 . S
C116 C115 1.362 . S
C116 C117 1.366 . S
C117 C114 1.365 . S
C117 C116 1.366 . S
C117 H131 0.930 . S
C118 C115 1.378 . S
C118 N119 1.315 . S
C118 H121 0.930 . S
N119 Co99 2.194 . S
N119 C114 1.328 . S
N119 C118 1.315 . S
H120 C114 0.929 . S
H121 C118 0.930 . S
H122 C110 0.929 . S
H123 C112 0.929 . S
O124 Co99 2.351 . S
O124 C127 1.244 . S
O125 Co99 2.155 . S
O125 C127 1.240 . S
O126 Co99 2.096 . S
O126 C107 1.247 . S
C127 O124 1.244 . S
C127 O125 1.240 . S
H128 C102 0.931 . S
H129 C111 0.931 . S
H130 C115 0.929 . S
H131 C117 0.930 . S
Co132 N136 2.148 1_556 S
Co132 N142 2.128 . S
Co132 N152 2.194 . S
Co132 O157 2.351 . S
Co132 O158 2.155 . S
Co132 O159 2.096 . S
C133 N136 1.301 . S
C133 N137 1.328 . S
C133 H138 0.930 . S
C134 C135 1.333 . S
C134 N136 1.317 . S
C134 H139 0.923 1_554 S
C135 C134 1.333 . S
C135 N137 1.350 . S
C135 H161 0.931 . S
N136 Co132 2.148 1_554 S
N136 C133 1.301 . S
N136 C134 1.317 . S
N137 C133 1.328 . S
N137 C135 1.350 . S
H138 C133 0.930 . S
H139 C134 0.923 1_556 S
C140 O141 1.224 . S
C140 O159 1.247 . S
O141 C140 1.224 . S
N142 Co132 2.128 . S
N142 C143 1.355 . S
N142 C145 1.311 . S
C143 N142 1.355 . S
C143 C144 1.363 . S
C143 H155 0.929 . S
C144 C143 1.363 . S
C144 N146 1.375 . S
C144 H162 0.931 . S
C145 N142 1.311 . S
C145 N146 1.347 . S
C145 H156 0.929 . S
N146 C144 1.375 . S
N146 C145 1.347 . S
C147 C150 1.365 . S
C147 N152 1.328 . S
C147 H153 0.929 . S
C148 C149 1.362 . S
C148 C151 1.378 . S
C148 H163 0.929 . S
C149 C148 1.362 . S
C149 C150 1.366 . S
C150 C147 1.365 . S
C150 C149 1.366 . S
C150 H164 0.930 . S
C151 C148 1.378 . S
C151 N152 1.315 . S
C151 H154 0.930 . S
N152 Co132 2.194 . S
N152 C147 1.328 . S
N152 C151 1.315 . S
H153 C147 0.929 . S
H154 C151 0.930 . S
H155 C143 0.929 . S
H156 C145 0.929 . S
O157 Co132 2.351 . S
O157 C160 1.244 . S
O158 Co132 2.155 . S
O158 C160 1.240 . S
O159 Co132 2.096 . S
O159 C140 1.247 . S
C160 O157 1.244 . S
C160 O158 1.240 . S
H161 C135 0.931 . S
H162 C144 0.931 . S
H163 C148 0.929 . S
H164 C150 0.930 . S
Co165 N169 2.148 1_556 S
Co165 N175 2.128 . S
Co165 N185 2.194 . S
Co165 O190 2.351 . S
Co165 O191 2.155 . S
Co165 O192 2.096 . S
C166 N169 1.301 . S
C166 N170 1.328 . S
C166 H171 0.930 . S
C167 C168 1.333 . S
C167 N169 1.317 . S
C167 H172 0.923 1_554 S
C168 C167 1.333 . S
C168 N170 1.350 . S
C168 H194 0.931 . S
N169 Co165 2.148 1_554 S
N169 C166 1.301 . S
N169 C167 1.317 . S
N170 C166 1.328 . S
N170 C168 1.350 . S
H171 C166 0.930 . S
H172 C167 0.923 1_556 S
C173 O174 1.224 . S
C173 O192 1.247 . S
O174 C173 1.224 . S
N175 Co165 2.128 . S
N175 C176 1.355 . S
N175 C178 1.311 . S
C176 N175 1.355 . S
C176 C177 1.363 . S
C176 H188 0.929 . S
C177 C176 1.363 . S
C177 N179 1.375 . S
C177 H195 0.931 . S
C178 N175 1.311 . S
C178 N179 1.347 . S
C178 H189 0.929 . S
N179 C177 1.375 . S
N179 C178 1.347 . S
C180 C183 1.365 . S
C180 N185 1.328 . S
C180 H186 0.929 . S
C181 C182 1.362 . S
C181 C184 1.378 . S
C181 H196 0.929 . S
C182 C181 1.362 . S
C182 C183 1.366 . S
C183 C180 1.365 . S
C183 C182 1.366 . S
C183 H197 0.930 . S
C184 C181 1.378 . S
C184 N185 1.315 . S
C184 H187 0.930 . S
N185 Co165 2.194 . S
N185 C180 1.328 . S
N185 C184 1.315 . S
H186 C180 0.929 . S
H187 C184 0.930 . S
H188 C176 0.929 . S
H189 C178 0.929 . S
O190 Co165 2.351 . S
O190 C193 1.244 . S
O191 Co165 2.155 . S
O191 C193 1.240 . S
O192 Co165 2.096 . S
O192 C173 1.247 . S
C193 O190 1.244 . S
C193 O191 1.240 . S
H194 C168 0.931 . S
H195 C177 0.931 . S
H196 C181 0.929 . S
H197 C183 0.930 . S
Co198 N202 2.148 1_556 S
Co198 N208 2.128 . S
Co198 N218 2.194 . S
Co198 O223 2.351 . S
Co198 O224 2.155 . S
Co198 O225 2.096 . S
C199 N202 1.301 . S
C199 N203 1.328 . S
C199 H204 0.930 . S
C200 C201 1.333 . S
C200 N202 1.317 . S
C200 H205 0.923 1_554 S
C201 C200 1.333 . S
C201 N203 1.350 . S
C201 H227 0.931 . S
N202 Co198 2.148 1_554 S
N202 C199 1.301 . S
N202 C200 1.317 . S
N203 C199 1.328 . S
N203 C201 1.350 . S
H204 C199 0.930 . S
H205 C200 0.923 1_556 S
C206 O207 1.224 . S
C206 O225 1.247 . S
O207 C206 1.224 . S
N208 Co198 2.128 . S
N208 C209 1.355 . S
N208 C211 1.311 . S
C209 N208 1.355 . S
C209 C210 1.363 . S
C209 H221 0.929 . S
C210 C209 1.363 . S
C210 N212 1.375 . S
C210 H228 0.931 . S
C211 N208 1.311 . S
C211 N212 1.347 . S
C211 H222 0.929 . S
N212 C210 1.375 . S
N212 C211 1.347 . S
C213 C216 1.365 . S
C213 N218 1.328 . S
C213 H219 0.929 . S
C214 C215 1.362 . S
C214 C217 1.378 . S
C214 H229 0.929 . S
C215 C214 1.362 . S
C215 C216 1.366 . S
C216 C213 1.365 . S
C216 C215 1.366 . S
C216 H230 0.930 . S
C217 C214 1.378 . S
C217 N218 1.315 . S
C217 H220 0.930 . S
N218 Co198 2.194 . S
N218 C213 1.328 . S
N218 C217 1.315 . S
H219 C213 0.929 . S
H220 C217 0.930 . S
H221 C209 0.929 . S
H222 C211 0.929 . S
O223 Co198 2.351 . S
O223 C226 1.244 . S
O224 Co198 2.155 . S
O224 C226 1.240 . S
O225 Co198 2.096 . S
O225 C206 1.247 . S
C226 O223 1.244 . S
C226 O224 1.240 . S
H227 C201 0.931 . S
H228 C210 0.931 . S
H229 C214 0.929 . S
H230 C216 0.930 . S
Co231 N235 2.148 1_556 S
Co231 N241 2.128 . S
Co231 N251 2.194 . S
Co231 O256 2.351 . S
Co231 O257 2.155 . S
Co231 O258 2.096 . S
C232 N235 1.301 . S
C232 N236 1.328 . S
C232 H237 0.930 . S
C233 C234 1.333 . S
C233 N235 1.317 . S
C233 H238 0.923 1_554 S
C234 C233 1.333 . S
C234 N236 1.350 . S
C234 H260 0.931 . S
N235 Co231 2.148 1_554 S
N235 C232 1.301 . S
N235 C233 1.317 . S
N236 C232 1.328 . S
N236 C234 1.350 . S
H237 C232 0.930 . S
H238 C233 0.923 1_556 S
C239 O240 1.224 . S
C239 O258 1.247 . S
O240 C239 1.224 . S
N241 Co231 2.128 . S
N241 C242 1.355 . S
N241 C244 1.311 . S
C242 N241 1.355 . S
C242 C243 1.363 . S
C242 H254 0.929 . S
C243 C242 1.363 . S
C243 N245 1.375 . S
C243 H261 0.931 . S
C244 N241 1.311 . S
C244 N245 1.347 . S
C244 H255 0.929 . S
N245 C243 1.375 . S
N245 C244 1.347 . S
C246 C249 1.365 . S
C246 N251 1.328 . S
C246 H252 0.929 . S
C247 C248 1.362 . S
C247 C250 1.378 . S
C247 H262 0.929 . S
C248 C247 1.362 . S
C248 C249 1.366 . S
C249 C246 1.365 . S
C249 C248 1.366 . S
C249 H263 0.930 . S
C250 C247 1.378 . S
C250 N251 1.315 . S
C250 H253 0.930 . S
N251 Co231 2.194 . S
N251 C246 1.328 . S
N251 C250 1.315 . S
H252 C246 0.929 . S
H253 C250 0.930 . S
H254 C242 0.929 . S
H255 C244 0.929 . S
O256 Co231 2.351 . S
O256 C259 1.244 . S
O257 Co231 2.155 . S
O257 C259 1.240 . S
O258 Co231 2.096 . S
O258 C239 1.247 . S
C259 O256 1.244 . S
C259 O257 1.240 . S
H260 C234 0.931 . S
H261 C243 0.931 . S
H262 C247 0.929 . S
H263 C249 0.930 . S
Co264 N268 2.148 . S
Co264 N274 2.128 . S
Co264 N284 2.194 . S
Co264 O289 2.351 . S
Co264 O290 2.155 . S
Co264 O291 2.096 . S
C265 N268 1.301 . S
C265 N269 1.328 . S
C265 H270 0.930 . S
C266 C267 1.333 . S
C266 N268 1.317 . S
C266 H271 0.930 . S
C267 C266 1.333 . S
C267 N269 1.350 . S
C267 H293 0.931 . S
N268 Co264 2.148 . S
N268 C265 1.301 . S
N268 C266 1.317 . S
N269 C265 1.328 . S
N269 C267 1.350 . S
H270 C265 0.930 . S
H271 C266 0.930 . S
C272 O273 1.224 . S
C272 O291 1.247 . S
O273 C272 1.224 . S
N274 Co264 2.128 . S
N274 C275 1.355 . S
N274 C277 1.311 . S
C275 N274 1.355 . S
C275 C276 1.363 . S
C275 H287 0.929 . S
C276 C275 1.363 . S
C276 N278 1.375 . S
C276 H294 0.931 . S
C277 N274 1.311 . S
C277 N278 1.347 . S
C277 H288 0.929 . S
N278 C276 1.375 . S
N278 C277 1.347 . S
C279 C282 1.365 . S
C279 N284 1.328 . S
C279 H285 0.929 . S
C280 C281 1.362 . S
C280 C283 1.378 . S
C280 H295 0.929 . S
C281 C280 1.362 . S
C281 C282 1.366 . S
C282 C279 1.365 . S
C282 C281 1.366 . S
C282 H296 0.930 . S
C283 C280 1.378 . S
C283 N284 1.315 . S
C283 H286 0.930 . S
N284 Co264 2.194 . S
N284 C279 1.328 . S
N284 C283 1.315 . S
H285 C279 0.929 . S
H286 C283 0.930 . S
H287 C275 0.929 . S
H288 C277 0.929 . S
O289 Co264 2.351 . S
O289 C292 1.244 . S
O290 Co264 2.155 . S
O290 C292 1.240 . S
O291 Co264 2.096 . S
O291 C272 1.247 . S
C292 O289 1.244 . S
C292 O290 1.240 . S
H293 C267 0.931 . S
H294 C276 0.931 . S
H295 C280 0.929 . S
H296 C282 0.930 . S
Co297 N301 2.148 . S
Co297 N307 2.128 . S
Co297 N317 2.194 . S
Co297 O322 2.351 . S
Co297 O323 2.155 . S
Co297 O324 2.096 . S
C298 N301 1.301 . S
C298 N302 1.328 . S
C298 H303 0.930 . S
C299 C300 1.333 . S
C299 N301 1.317 . S
C299 H304 0.930 . S
C300 C299 1.333 . S
C300 N302 1.350 . S
C300 H326 0.931 . S
N301 Co297 2.148 . S
N301 C298 1.301 . S
N301 C299 1.317 . S
N302 C298 1.328 . S
N302 C300 1.350 . S
H303 C298 0.930 . S
H304 C299 0.930 . S
C305 O306 1.224 . S
C305 O324 1.247 . S
O306 C305 1.224 . S
N307 Co297 2.128 . S
N307 C308 1.355 . S
N307 C310 1.311 . S
C308 N307 1.355 . S
C308 C309 1.363 . S
C308 H320 0.929 . S
C309 C308 1.363 . S
C309 N311 1.375 . S
C309 H327 0.931 . S
C310 N307 1.311 . S
C310 N311 1.347 . S
C310 H321 0.929 . S
N311 C309 1.375 . S
N311 C310 1.347 . S
C312 C315 1.365 . S
C312 N317 1.328 . S
C312 H318 0.929 . S
C313 C314 1.362 . S
C313 C316 1.378 . S
C313 H328 0.929 . S
C314 C313 1.362 . S
C314 C315 1.366 . S
C315 C312 1.365 . S
C315 C314 1.366 . S
C315 H329 0.930 . S
C316 C313 1.378 . S
C316 N317 1.315 . S
C316 H319 0.930 . S
N317 Co297 2.194 . S
N317 C312 1.328 . S
N317 C316 1.315 . S
H318 C312 0.929 . S
H319 C316 0.930 . S
H320 C308 0.929 . S
H321 C310 0.929 . S
O322 Co297 2.351 . S
O322 C325 1.244 . S
O323 Co297 2.155 . S
O323 C325 1.240 . S
O324 Co297 2.096 . S
O324 C305 1.247 . S
C325 O322 1.244 . S
C325 O323 1.240 . S
H326 C300 0.931 . S
H327 C309 0.931 . S
H328 C313 0.929 . S
H329 C315 0.930 . S
Co330 N334 2.148 . S
Co330 N340 2.128 . S
Co330 N350 2.194 . S
Co330 O355 2.351 . S
Co330 O356 2.155 . S
Co330 O357 2.096 . S
C331 N334 1.301 . S
C331 N335 1.328 . S
C331 H336 0.930 . S
C332 C333 1.333 . S
C332 N334 1.317 . S
C332 H337 0.930 . S
C333 C332 1.333 . S
C333 N335 1.350 . S
C333 H359 0.931 . S
N334 Co330 2.148 . S
N334 C331 1.301 . S
N334 C332 1.317 . S
N335 C331 1.328 . S
N335 C333 1.350 . S
H336 C331 0.930 . S
H337 C332 0.930 . S
C338 O339 1.224 . S
C338 O357 1.247 . S
O339 C338 1.224 . S
N340 Co330 2.128 . S
N340 C341 1.355 . S
N340 C343 1.311 . S
C341 N340 1.355 . S
C341 C342 1.363 . S
C341 H353 0.929 . S
C342 C341 1.363 . S
C342 N344 1.375 . S
C342 H360 0.931 . S
C343 N340 1.311 . S
C343 N344 1.347 . S
C343 H354 0.929 . S
N344 C342 1.375 . S
N344 C343 1.347 . S
C345 C348 1.365 . S
C345 N350 1.328 . S
C345 H351 0.929 . S
C346 C347 1.362 . S
C346 C349 1.378 . S
C346 H361 0.929 . S
C347 C346 1.362 . S
C347 C348 1.366 . S
C348 C345 1.365 . S
C348 C347 1.366 . S
C348 H362 0.930 . S
C349 C346 1.378 . S
C349 N350 1.315 . S
C349 H352 0.930 . S
N350 Co330 2.194 . S
N350 C345 1.328 . S
N350 C349 1.315 . S
H351 C345 0.929 . S
H352 C349 0.930 . S
H353 C341 0.929 . S
H354 C343 0.929 . S
O355 Co330 2.351 . S
O355 C358 1.244 . S
O356 Co330 2.155 . S
O356 C358 1.240 . S
O357 Co330 2.096 . S
O357 C338 1.247 . S
C358 O355 1.244 . S
C358 O356 1.240 . S
H359 C333 0.931 . S
H360 C342 0.931 . S
H361 C346 0.929 . S
H362 C348 0.930 . S
Co363 N367 2.148 . S
Co363 N373 2.128 . S
Co363 N383 2.194 . S
Co363 O388 2.351 . S
Co363 O389 2.155 . S
Co363 O390 2.096 . S
C364 N367 1.301 . S
C364 N368 1.328 . S
C364 H369 0.930 . S
C365 C366 1.333 . S
C365 N367 1.317 . S
C365 H370 0.930 . S
C366 C365 1.333 . S
C366 N368 1.350 . S
C366 H392 0.931 . S
N367 Co363 2.148 . S
N367 C364 1.301 . S
N367 C365 1.317 . S
N368 C364 1.328 . S
N368 C366 1.350 . S
H369 C364 0.930 . S
H370 C365 0.930 . S
C371 O372 1.224 . S
C371 O390 1.247 . S
O372 C371 1.224 . S
N373 Co363 2.128 . S
N373 C374 1.355 . S
N373 C376 1.311 . S
C374 N373 1.355 . S
C374 C375 1.363 . S
C374 H386 0.929 . S
C375 C374 1.363 . S
C375 N377 1.375 . S
C375 H393 0.931 . S
C376 N373 1.311 . S
C376 N377 1.347 . S
C376 H387 0.929 . S
N377 C375 1.375 . S
N377 C376 1.347 . S
C378 C381 1.365 . S
C378 N383 1.328 . S
C378 H384 0.929 . S
C379 C380 1.362 . S
C379 C382 1.378 . S
C379 H394 0.929 . S
C380 C379 1.362 . S
C380 C381 1.366 . S
C381 C378 1.365 . S
C381 C380 1.366 . S
C381 H395 0.930 . S
C382 C379 1.378 . S
C382 N383 1.315 . S
C382 H385 0.930 . S
N383 Co363 2.194 . S
N383 C378 1.328 . S
N383 C382 1.315 . S
H384 C378 0.929 . S
H385 C382 0.930 . S
H386 C374 0.929 . S
H387 C376 0.929 . S
O388 Co363 2.351 . S
O388 C391 1.244 . S
O389 Co363 2.155 . S
O389 C391 1.240 . S
O390 Co363 2.096 . S
O390 C371 1.247 . S
C391 O388 1.244 . S
C391 O389 1.240 . S
H392 C366 0.931 . S
H393 C375 0.931 . S
H394 C379 0.929 . S
H395 C381 0.930 . S
Co396 N400 2.148 . S
Co396 N406 2.128 . S
Co396 N416 2.194 . S
Co396 O421 2.351 . S
Co396 O422 2.155 . S
Co396 O423 2.096 . S
C397 N400 1.301 . S
C397 N401 1.328 . S
C397 H402 0.930 . S
C398 C399 1.333 . S
C398 N400 1.317 . S
C398 H403 0.930 . S
C399 C398 1.333 . S
C399 N401 1.350 . S
C399 H425 0.931 . S
N400 Co396 2.148 . S
N400 C397 1.301 . S
N400 C398 1.317 . S
N401 C397 1.328 . S
N401 C399 1.350 . S
H402 C397 0.930 . S
H403 C398 0.930 . S
C404 O405 1.224 . S
C404 O423 1.247 . S
O405 C404 1.224 . S
N406 Co396 2.128 . S
N406 C407 1.355 . S
N406 C409 1.311 . S
C407 N406 1.355 . S
C407 C408 1.363 . S
C407 H419 0.929 . S
C408 C407 1.363 . S
C408 N410 1.375 . S
C408 H426 0.931 . S
C409 N406 1.311 . S
C409 N410 1.347 . S
C409 H420 0.929 . S
N410 C408 1.375 . S
N410 C409 1.347 . S
C411 C414 1.365 . S
C411 N416 1.328 . S
C411 H417 0.929 . S
C412 C413 1.362 . S
C412 C415 1.378 . S
C412 H427 0.929 . S
C413 C412 1.362 . S
C413 C414 1.366 . S
C414 C411 1.365 . S
C414 C413 1.366 . S
C414 H428 0.930 . S
C415 C412 1.378 . S
C415 N416 1.315 . S
C415 H418 0.930 . S
N416 Co396 2.194 . S
N416 C411 1.328 . S
N416 C415 1.315 . S
H417 C411 0.929 . S
H418 C415 0.930 . S
H419 C407 0.929 . S
H420 C409 0.929 . S
O421 Co396 2.351 . S
O421 C424 1.244 . S
O422 Co396 2.155 . S
O422 C424 1.240 . S
O423 Co396 2.096 . S
O423 C404 1.247 . S
C424 O421 1.244 . S
C424 O422 1.240 . S
H425 C399 0.931 . S
H426 C408 0.931 . S
H427 C412 0.929 . S
H428 C414 0.930 . S
Co429 N433 2.148 . S
Co429 N439 2.128 . S
Co429 N449 2.194 . S
Co429 O454 2.351 . S
Co429 O455 2.155 . S
Co429 O456 2.096 . S
C430 N433 1.301 . S
C430 N434 1.328 . S
C430 H435 0.930 . S
C431 C432 1.333 . S
C431 N433 1.317 . S
C431 H436 0.930 . S
C432 C431 1.333 . S
C432 N434 1.350 . S
C432 H458 0.931 . S
N433 Co429 2.148 . S
N433 C430 1.301 . S
N433 C431 1.317 . S
N434 C430 1.328 . S
N434 C432 1.350 . S
H435 C430 0.930 . S
H436 C431 0.930 . S
C437 O438 1.224 . S
C437 O456 1.247 . S
O438 C437 1.224 . S
N439 Co429 2.128 . S
N439 C440 1.355 . S
N439 C442 1.311 . S
C440 N439 1.355 . S
C440 C441 1.363 . S
C440 H452 0.929 . S
C441 C440 1.363 . S
C441 N443 1.375 . S
C441 H459 0.931 . S
C442 N439 1.311 . S
C442 N443 1.347 . S
C442 H453 0.929 . S
N443 C441 1.375 . S
N443 C442 1.347 . S
C444 C447 1.365 . S
C444 N449 1.328 . S
C444 H450 0.929 . S
C445 C446 1.362 . S
C445 C448 1.378 . S
C445 H460 0.929 . S
C446 C445 1.362 . S
C446 C447 1.366 . S
C447 C444 1.365 . S
C447 C446 1.366 . S
C447 H461 0.930 . S
C448 C445 1.378 . S
C448 N449 1.315 . S
C448 H451 0.930 . S
N449 Co429 2.194 . S
N449 C444 1.328 . S
N449 C448 1.315 . S
H450 C444 0.929 . S
H451 C448 0.930 . S
H452 C440 0.929 . S
H453 C442 0.929 . S
O454 Co429 2.351 . S
O454 C457 1.244 . S
O455 Co429 2.155 . S
O455 C457 1.240 . S
O456 Co429 2.096 . S
O456 C437 1.247 . S
C457 O454 1.244 . S
C457 O455 1.240 . S
H458 C432 0.931 . S
H459 C441 0.931 . S
H460 C445 0.929 . S
H461 C447 0.930 . S
Co462 N466 2.148 . S
Co462 N472 2.128 . S
Co462 N482 2.194 . S
Co462 O487 2.351 . S
Co462 O488 2.155 . S
Co462 O489 2.096 . S
C463 N466 1.301 . S
C463 N467 1.328 . S
C463 H468 0.930 . S
C464 C465 1.333 . S
C464 N466 1.317 . S
C464 H469 0.930 . S
C465 C464 1.333 . S
C465 N467 1.350 . S
C465 H491 0.931 . S
N466 Co462 2.148 . S
N466 C463 1.301 . S
N466 C464 1.317 . S
N467 C463 1.328 . S
N467 C465 1.350 . S
H468 C463 0.930 . S
H469 C464 0.930 . S
C470 O471 1.224 . S
C470 O489 1.247 . S
O471 C470 1.224 . S
N472 Co462 2.128 . S
N472 C473 1.355 . S
N472 C475 1.311 . S
C473 N472 1.355 . S
C473 C474 1.363 . S
C473 H485 0.929 . S
C474 C473 1.363 . S
C474 N476 1.375 . S
C474 H492 0.931 . S
C475 N472 1.311 . S
C475 N476 1.347 . S
C475 H486 0.929 . S
N476 C474 1.375 . S
N476 C475 1.347 . S
C477 C480 1.365 . S
C477 N482 1.328 . S
C477 H483 0.929 . S
C478 C479 1.362 . S
C478 C481 1.378 . S
C478 H493 0.929 . S
C479 C478 1.362 . S
C479 C480 1.366 . S
C480 C477 1.365 . S
C480 C479 1.366 . S
C480 H494 0.930 . S
C481 C478 1.378 . S
C481 N482 1.315 . S
C481 H484 0.930 . S
N482 Co462 2.194 . S
N482 C477 1.328 . S
N482 C481 1.315 . S
H483 C477 0.929 . S
H484 C481 0.930 . S
H485 C473 0.929 . S
H486 C475 0.929 . S
O487 Co462 2.351 . S
O487 C490 1.244 . S
O488 Co462 2.155 . S
O488 C490 1.240 . S
O489 Co462 2.096 . S
O489 C470 1.247 . S
C490 O487 1.244 . S
C490 O488 1.240 . S
H491 C465 0.931 . S
H492 C474 0.931 . S
H493 C478 0.929 . S
H494 C480 0.930 . S
Co495 N499 2.148 . S
Co495 N505 2.128 . S
Co495 N515 2.194 . S
Co495 O520 2.351 . S
Co495 O521 2.155 . S
Co495 O522 2.096 . S
C496 N499 1.301 . S
C496 N500 1.328 . S
C496 H501 0.930 . S
C497 C498 1.333 . S
C497 N499 1.317 . S
C497 H502 0.930 . S
C498 C497 1.333 . S
C498 N500 1.350 . S
C498 H524 0.931 . S
N499 Co495 2.148 . S
N499 C496 1.301 . S
N499 C497 1.317 . S
N500 C496 1.328 . S
N500 C498 1.350 . S
H501 C496 0.930 . S
H502 C497 0.930 . S
C503 O504 1.224 . S
C503 O522 1.247 . S
O504 C503 1.224 . S
N505 Co495 2.128 . S
N505 C506 1.355 . S
N505 C508 1.311 . S
C506 N505 1.355 . S
C506 C507 1.363 . S
C506 H518 0.929 . S
C507 C506 1.363 . S
C507 N509 1.375 . S
C507 H525 0.931 . S
C508 N505 1.311 . S
C508 N509 1.347 . S
C508 H519 0.929 . S
N509 C507 1.375 . S
N509 C508 1.347 . S
C510 C513 1.365 . S
C510 N515 1.328 . S
C510 H516 0.929 . S
C511 C512 1.362 . S
C511 C514 1.378 . S
C511 H526 0.929 . S
C512 C511 1.362 . S
C512 C513 1.366 . S
C513 C510 1.365 . S
C513 C512 1.366 . S
C513 H527 0.930 . S
C514 C511 1.378 . S
C514 N515 1.315 . S
C514 H517 0.930 . S
N515 Co495 2.194 . S
N515 C510 1.328 . S
N515 C514 1.315 . S
H516 C510 0.929 . S
H517 C514 0.930 . S
H518 C506 0.929 . S
H519 C508 0.929 . S
O520 Co495 2.351 . S
O520 C523 1.244 . S
O521 Co495 2.155 . S
O521 C523 1.240 . S
O522 Co495 2.096 . S
O522 C503 1.247 . S
C523 O520 1.244 . S
C523 O521 1.240 . S
H524 C498 0.931 . S
H525 C507 0.931 . S
H526 C511 0.929 . S
H527 C513 0.930 . S
H528 C536 0.929 . S
H529 C538 0.930 . S
H530 C540 0.930 . S
H531 C543 0.929 . S
H532 C546 0.930 . S
H533 C548 0.960 . S
H534 C548 0.960 . S
H535 C548 0.960 . S
C536 H528 0.929 . S
C536 C537 1.377 . S
C536 C538 1.384 . S
C537 C536 1.377 . S
C537 C543 1.390 . S
C538 H529 0.930 . S
C538 C536 1.384 . S
C538 C539 1.372 . S
C539 C538 1.372 . S
C539 C540 1.400 . S
C539 C544 1.490 . S
C540 H530 0.930 . S
C540 C539 1.400 . S
C540 C543 1.386 . S
H541 C557 0.930 . S
H542 C558 0.931 . S
C543 H531 0.929 . S
C543 C537 1.390 . S
C543 C540 1.386 . S
C544 C539 1.490 . S
C544 C546 1.395 . S
C544 C547 1.403 . S
H545 C551 0.930 . S
C546 H532 0.930 . S
C546 C544 1.395 . S
C546 C549 1.403 . S
C547 C544 1.403 . S
C547 C548 1.524 . S
C547 C551 1.400 . S
C548 H533 0.960 . S
C548 H534 0.960 . S
C548 H535 0.960 . S
C548 C547 1.524 . S
C549 C546 1.403 . S
C549 C550 1.392 . S
C549 C553 1.495 . S
C550 C549 1.392 . S
C550 C551 1.385 . S
C550 C552 1.478 . S
C551 H545 0.930 . S
C551 C547 1.400 . S
C551 C550 1.385 . S
C552 C550 1.478 . S
C552 C554 1.381 . S
C552 C558 1.383 . S
C553 C549 1.495 . S
C553 H559 0.959 . S
C553 H560 0.961 . S
C553 H561 0.960 . S
C554 C552 1.381 . S
C554 C555 1.394 . S
C554 H562 0.930 . S
C555 C554 1.394 . S
C555 C556 1.383 . S
C555 H563 0.929 . S
C556 C555 1.383 . S
C556 C557 1.377 . S
C557 H541 0.930 . S
C557 C556 1.377 . S
C557 C558 1.379 . S
C558 H542 0.931 . S
C558 C552 1.383 . S
C558 C557 1.379 . S
H559 C553 0.959 . S
H560 C553 0.961 . S
H561 C553 0.960 . S
H562 C554 0.930 . S
H563 C555 0.929 . S
H564 C572 0.929 . S
H565 C574 0.930 . S
H566 C576 0.930 . S
H567 C579 0.929 . S
H568 C582 0.930 . S
H569 C584 0.960 . S
H570 C584 0.960 . S
H571 C584 0.960 . S
C572 H564 0.929 . S
C572 C573 1.377 . S
C572 C574 1.384 . S
C573 C572 1.377 . S
C573 C579 1.390 . S
C574 H565 0.930 . S
C574 C572 1.384 . S
C574 C575 1.372 . S
C575 C574 1.372 . S
C575 C576 1.400 . S
C575 C580 1.490 . S
C576 H566 0.930 . S
C576 C575 1.400 . S
C576 C579 1.386 . S
H577 C593 0.930 . S
H578 C594 0.931 . S
C579 H567 0.929 . S
C579 C573 1.390 . S
C579 C576 1.386 . S
C580 C575 1.490 . S
C580 C582 1.395 . S
C580 C583 1.403 . S
H581 C587 0.930 . S
C582 H568 0.930 . S
C582 C580 1.395 . S
C582 C585 1.403 . S
C583 C580 1.403 . S
C583 C584 1.524 . S
C583 C587 1.400 . S
C584 H569 0.960 . S
C584 H570 0.960 . S
C584 H571 0.960 . S
C584 C583 1.524 . S
C585 C582 1.403 . S
C585 C586 1.392 . S
C585 C589 1.495 . S
C586 C585 1.392 . S
C586 C587 1.385 . S
C586 C588 1.478 . S
C587 H581 0.930 . S
C587 C583 1.400 . S
C587 C586 1.385 . S
C588 C586 1.478 . S
C588 C590 1.381 . S
C588 C594 1.383 . S
C589 C585 1.495 . S
C589 H595 0.959 . S
C589 H596 0.961 . S
C589 H597 0.960 . S
C590 C588 1.381 . S
C590 C591 1.394 . S
C590 H598 0.930 . S
C591 C590 1.394 . S
C591 C592 1.383 . S
C591 H599 0.929 . S
C592 C591 1.383 . S
C592 C593 1.377 . S
C593 H577 0.930 . S
C593 C592 1.377 . S
C593 C594 1.379 . S
C594 H578 0.931 . S
C594 C588 1.383 . S
C594 C593 1.379 . S
H595 C589 0.959 . S
H596 C589 0.961 . S
H597 C589 0.960 . S
H598 C590 0.930 . S
H599 C591 0.929 . S
H600 C608 0.929 . S
H601 C610 0.930 . S
H602 C612 0.930 . S
H603 C615 0.929 . S
H604 C618 0.930 . S
H605 C620 0.960 . S
H606 C620 0.960 . S
H607 C620 0.960 . S
C608 H600 0.929 . S
C608 C609 1.377 . S
C608 C610 1.384 . S
C609 C608 1.377 . S
C609 C615 1.390 . S
C610 H601 0.930 . S
C610 C608 1.384 . S
C610 C611 1.372 . S
C611 C610 1.372 . S
C611 C612 1.400 . S
C611 C616 1.490 . S
C612 H602 0.930 . S
C612 C611 1.400 . S
C612 C615 1.386 . S
H613 C629 0.930 . S
H614 C630 0.931 . S
C615 H603 0.929 . S
C615 C609 1.390 . S
C615 C612 1.386 . S
C616 C611 1.490 . S
C616 C618 1.395 . S
C616 C619 1.403 . S
H617 C623 0.930 . S
C618 H604 0.930 . S
C618 C616 1.395 . S
C618 C621 1.403 . S
C619 C616 1.403 . S
C619 C620 1.524 . S
C619 C623 1.400 . S
C620 H605 0.960 . S
C620 H606 0.960 . S
C620 H607 0.960 . S
C620 C619 1.524 . S
C621 C618 1.403 . S
C621 C622 1.392 . S
C621 C625 1.495 . S
C622 C621 1.392 . S
C622 C623 1.385 . S
C622 C624 1.478 . S
C623 H617 0.930 . S
C623 C619 1.400 . S
C623 C622 1.385 . S
C624 C622 1.478 . S
C624 C626 1.381 . S
C624 C630 1.383 . S
C625 C621 1.495 . S
C625 H631 0.959 . S
C625 H632 0.961 . S
C625 H633 0.960 . S
C626 C624 1.381 . S
C626 C627 1.394 . S
C626 H634 0.930 . S
C627 C626 1.394 . S
C627 C628 1.383 . S
C627 H635 0.929 . S
C628 C627 1.383 . S
C628 C629 1.377 . S
C629 H613 0.930 . S
C629 C628 1.377 . S
C629 C630 1.379 . S
C630 H614 0.931 . S
C630 C624 1.383 . S
C630 C629 1.379 . S
H631 C625 0.959 . S
H632 C625 0.961 . S
H633 C625 0.960 . S
H634 C626 0.930 . S
H635 C627 0.929 . S
H636 C644 0.929 . S
H637 C646 0.930 . S
H638 C648 0.930 . S
H639 C651 0.929 . S
H640 C654 0.930 . S
H641 C656 0.960 . S
H642 C656 0.960 . S
H643 C656 0.960 . S
C644 H636 0.929 . S
C644 C645 1.377 . S
C644 C646 1.384 . S
C645 C644 1.377 . S
C645 C651 1.390 . S
C646 H637 0.930 . S
C646 C644 1.384 . S
C646 C647 1.372 . S
C647 C646 1.372 . S
C647 C648 1.400 . S
C647 C652 1.490 . S
C648 H638 0.930 . S
C648 C647 1.400 . S
C648 C651 1.386 . S
H649 C665 0.930 . S
H650 C666 0.931 . S
C651 H639 0.929 . S
C651 C645 1.390 . S
C651 C648 1.386 . S
C652 C647 1.490 . S
C652 C654 1.395 . S
C652 C655 1.403 . S
H653 C659 0.930 . S
C654 H640 0.930 . S
C654 C652 1.395 . S
C654 C657 1.403 . S
C655 C652 1.403 . S
C655 C656 1.524 . S
C655 C659 1.400 . S
C656 H641 0.960 . S
C656 H642 0.960 . S
C656 H643 0.960 . S
C656 C655 1.524 . S
C657 C654 1.403 . S
C657 C658 1.392 . S
C657 C661 1.495 . S
C658 C657 1.392 . S
C658 C659 1.385 . S
C658 C660 1.478 . S
C659 H653 0.930 . S
C659 C655 1.400 . S
C659 C658 1.385 . S
C660 C658 1.478 . S
C660 C662 1.381 . S
C660 C666 1.383 . S
C661 C657 1.495 . S
C661 H667 0.959 . S
C661 H668 0.961 . S
C661 H669 0.960 . S
C662 C660 1.381 . S
C662 C663 1.394 . S
C662 H670 0.930 . S
C663 C662 1.394 . S
C663 C664 1.383 . S
C663 H671 0.929 . S
C664 C663 1.383 . S
C664 C665 1.377 . S
C665 H649 0.930 . S
C665 C664 1.377 . S
C665 C666 1.379 . S
C666 H650 0.931 . S
C666 C660 1.383 . S
C666 C665 1.379 . S
H667 C661 0.959 . S
H668 C661 0.961 . S
H669 C661 0.960 . S
H670 C662 0.930 . S
H671 C663 0.929 . S
H672 C680 0.929 . S
H673 C682 0.930 . S
H674 C684 0.930 . S
H675 C687 0.929 . S
H676 C690 0.930 . S
H677 C692 0.960 . S
H678 C692 0.960 . S
H679 C692 0.960 . S
C680 H672 0.929 . S
C680 C681 1.377 . S
C680 C682 1.384 . S
C681 C680 1.377 . S
C681 C687 1.390 . S
C682 H673 0.930 . S
C682 C680 1.384 . S
C682 C683 1.372 . S
C683 C682 1.372 . S
C683 C684 1.400 . S
C683 C688 1.490 . S
C684 H674 0.930 . S
C684 C683 1.400 . S
C684 C687 1.386 . S
H685 C701 0.930 . S
H686 C702 0.931 . S
C687 H675 0.929 . S
C687 C681 1.390 . S
C687 C684 1.386 . S
C688 C683 1.490 . S
C688 C690 1.395 . S
C688 C691 1.403 . S
H689 C695 0.930 . S
C690 H676 0.930 . S
C690 C688 1.395 . S
C690 C693 1.403 . S
C691 C688 1.403 . S
C691 C692 1.524 . S
C691 C695 1.400 . S
C692 H677 0.960 . S
C692 H678 0.960 . S
C692 H679 0.960 . S
C692 C691 1.524 . S
C693 C690 1.403 . S
C693 C694 1.392 . S
C693 C697 1.495 . S
C694 C693 1.392 . S
C694 C695 1.385 . S
C694 C696 1.478 . S
C695 H689 0.930 . S
C695 C691 1.400 . S
C695 C694 1.385 . S
C696 C694 1.478 . S
C696 C698 1.381 . S
C696 C702 1.383 . S
C697 C693 1.495 . S
C697 H703 0.959 . S
C697 H704 0.961 . S
C697 H705 0.960 . S
C698 C696 1.381 . S
C698 C699 1.394 . S
C698 H706 0.930 . S
C699 C698 1.394 . S
C699 C700 1.383 . S
C699 H707 0.929 . S
C700 C699 1.383 . S
C700 C701 1.377 . S
C701 H685 0.930 . S
C701 C700 1.377 . S
C701 C702 1.379 . S
C702 H686 0.931 . S
C702 C696 1.383 . S
C702 C701 1.379 . S
H703 C697 0.959 . S
H704 C697 0.961 . S
H705 C697 0.960 . S
H706 C698 0.930 . S
H707 C699 0.929 . S
H708 C716 0.929 . S
H709 C718 0.930 . S
H710 C720 0.930 . S
H711 C723 0.929 . S
H712 C726 0.930 . S
H713 C728 0.960 . S
H714 C728 0.960 . S
H715 C728 0.960 . S
C716 H708 0.929 . S
C716 C717 1.377 . S
C716 C718 1.384 . S
C717 C716 1.377 . S
C717 C723 1.390 . S
C718 H709 0.930 . S
C718 C716 1.384 . S
C718 C719 1.372 . S
C719 C718 1.372 . S
C719 C720 1.400 . S
C719 C724 1.490 . S
C720 H710 0.930 . S
C720 C719 1.400 . S
C720 C723 1.386 . S
H721 C737 0.930 . S
H722 C738 0.931 . S
C723 H711 0.929 . S
C723 C717 1.390 . S
C723 C720 1.386 . S
C724 C719 1.490 . S
C724 C726 1.395 . S
C724 C727 1.403 . S
H725 C731 0.930 . S
C726 H712 0.930 . S
C726 C724 1.395 . S
C726 C729 1.403 . S
C727 C724 1.403 . S
C727 C728 1.524 . S
C727 C731 1.400 . S
C728 H713 0.960 . S
C728 H714 0.960 . S
C728 H715 0.960 . S
C728 C727 1.524 . S
C729 C726 1.403 . S
C729 C730 1.392 . S
C729 C733 1.495 . S
C730 C729 1.392 . S
C730 C731 1.385 . S
C730 C732 1.478 . S
C731 H725 0.930 . S
C731 C727 1.400 . S
C731 C730 1.385 . S
C732 C730 1.478 . S
C732 C734 1.381 . S
C732 C738 1.383 . S
C733 C729 1.495 . S
C733 H739 0.959 . S
C733 H740 0.961 . S
C733 H741 0.960 . S
C734 C732 1.381 . S
C734 C735 1.394 . S
C734 H742 0.930 . S
C735 C734 1.394 . S
C735 C736 1.383 . S
C735 H743 0.929 . S
C736 C735 1.383 . S
C736 C737 1.377 . S
C737 H721 0.930 . S
C737 C736 1.377 . S
C737 C738 1.379 . S
C738 H722 0.931 . S
C738 C732 1.383 . S
C738 C737 1.379 . S
H739 C733 0.959 . S
H740 C733 0.961 . S
H741 C733 0.960 . S
H742 C734 0.930 . S
H743 C735 0.929 . S
H744 C752 0.929 . S
H745 C754 0.930 . S
H746 C756 0.930 . S
H747 C759 0.929 . S
H748 C762 0.930 . S
H749 C764 0.960 . S
H750 C764 0.960 . S
H751 C764 0.960 . S
C752 H744 0.929 . S
C752 C753 1.377 . S
C752 C754 1.384 . S
C753 C752 1.377 . S
C753 C759 1.390 . S
C754 H745 0.930 . S
C754 C752 1.384 . S
C754 C755 1.372 . S
C755 C754 1.372 . S
C755 C756 1.400 . S
C755 C760 1.490 . S
C756 H746 0.930 . S
C756 C755 1.400 . S
C756 C759 1.386 . S
H757 C773 0.930 . S
H758 C774 0.931 . S
C759 H747 0.929 . S
C759 C753 1.390 . S
C759 C756 1.386 . S
C760 C755 1.490 . S
C760 C762 1.395 . S
C760 C763 1.403 . S
H761 C767 0.930 . S
C762 H748 0.930 . S
C762 C760 1.395 . S
C762 C765 1.403 . S
C763 C760 1.403 . S
C763 C764 1.524 . S
C763 C767 1.400 . S
C764 H749 0.960 . S
C764 H750 0.960 . S
C764 H751 0.960 . S
C764 C763 1.524 . S
C765 C762 1.403 . S
C765 C766 1.392 . S
C765 C769 1.495 . S
C766 C765 1.392 . S
C766 C767 1.385 . S
C766 C768 1.478 . S
C767 H761 0.930 . S
C767 C763 1.400 . S
C767 C766 1.385 . S
C768 C766 1.478 . S
C768 C770 1.381 . S
C768 C774 1.383 . S
C769 C765 1.495 . S
C769 H775 0.959 . S
C769 H776 0.961 . S
C769 H777 0.960 . S
C770 C768 1.381 . S
C770 C771 1.394 . S
C770 H778 0.930 . S
C771 C770 1.394 . S
C771 C772 1.383 . S
C771 H779 0.929 . S
C772 C771 1.383 . S
C772 C773 1.377 . S
C773 H757 0.930 . S
C773 C772 1.377 . S
C773 C774 1.379 . S
C774 H758 0.931 . S
C774 C768 1.383 . S
C774 C773 1.379 . S
H775 C769 0.959 . S
H776 C769 0.961 . S
H777 C769 0.960 . S
H778 C770 0.930 . S
H779 C771 0.929 . S
H780 C788 0.929 . S
H781 C790 0.930 . S
H782 C792 0.930 . S
H783 C795 0.929 . S
H784 C798 0.930 . S
H785 C800 0.960 . S
H786 C800 0.960 . S
H787 C800 0.960 . S
C788 H780 0.929 . S
C788 C789 1.377 . S
C788 C790 1.384 . S
C789 C788 1.377 . S
C789 C795 1.390 . S
C790 H781 0.930 . S
C790 C788 1.384 . S
C790 C791 1.372 . S
C791 C790 1.372 . S
C791 C792 1.400 . S
C791 C796 1.490 . S
C792 H782 0.930 . S
C792 C791 1.400 . S
C792 C795 1.386 . S
H793 C809 0.930 . S
H794 C810 0.931 . S
C795 H783 0.929 . S
C795 C789 1.390 . S
C795 C792 1.386 . S
C796 C791 1.490 . S
C796 C798 1.395 . S
C796 C799 1.403 . S
H797 C803 0.930 . S
C798 H784 0.930 . S
C798 C796 1.395 . S
C798 C801 1.403 . S
C799 C796 1.403 . S
C799 C800 1.524 . S
C799 C803 1.400 . S
C800 H785 0.960 . S
C800 H786 0.960 . S
C800 H787 0.960 . S
C800 C799 1.524 . S
C801 C798 1.403 . S
C801 C802 1.392 . S
C801 C805 1.495 . S
C802 C801 1.392 . S
C802 C803 1.385 . S
C802 C804 1.478 . S
C803 H797 0.930 . S
C803 C799 1.400 . S
C803 C802 1.385 . S
C804 C802 1.478 . S
C804 C806 1.381 . S
C804 C810 1.383 . S
C805 C801 1.495 . S
C805 H811 0.959 . S
C805 H812 0.961 . S
C805 H813 0.960 . S
C806 C804 1.381 . S
C806 C807 1.394 . S
C806 H814 0.930 . S
C807 C806 1.394 . S
C807 C808 1.383 . S
C807 H815 0.929 . S
C808 C807 1.383 . S
C808 C809 1.377 . S
C809 H793 0.930 . S
C809 C808 1.377 . S
C809 C810 1.379 . S
C810 H794 0.931 . S
C810 C804 1.383 . S
C810 C809 1.379 . S
H811 C805 0.959 . S
H812 C805 0.961 . S
H813 C805 0.960 . S
H814 C806 0.930 . S
H815 C807 0.929 . S
H816 C824 0.929 . S
H817 C826 0.930 . S
H818 C828 0.930 . S
H819 C831 0.929 . S
H820 C834 0.930 . S
H821 C836 0.960 . S
H822 C836 0.960 . S
H823 C836 0.960 . S
C824 H816 0.929 . S
C824 C825 1.377 . S
C824 C826 1.384 . S
C825 C824 1.377 . S
C825 C831 1.390 . S
C826 H817 0.930 . S
C826 C824 1.384 . S
C826 C827 1.372 . S
C827 C826 1.372 . S
C827 C828 1.400 . S
C827 C832 1.490 . S
C828 H818 0.930 . S
C828 C827 1.400 . S
C828 C831 1.386 . S
H829 C845 0.930 . S
H830 C846 0.931 . S
C831 H819 0.929 . S
C831 C825 1.390 . S
C831 C828 1.386 . S
C832 C827 1.490 . S
C832 C834 1.395 . S
C832 C835 1.403 . S
H833 C839 0.930 . S
C834 H820 0.930 . S
C834 C832 1.395 . S
C834 C837 1.403 . S
C835 C832 1.403 . S
C835 C836 1.524 . S
C835 C839 1.400 . S
C836 H821 0.960 . S
C836 H822 0.960 . S
C836 H823 0.960 . S
C836 C835 1.524 . S
C837 C834 1.403 . S
C837 C838 1.392 . S
C837 C841 1.495 . S
C838 C837 1.392 . S
C838 C839 1.385 . S
C838 C840 1.478 1_554 S
C839 H833 0.930 . S
C839 C835 1.400 . S
C839 C838 1.385 . S
C840 C838 1.478 1_556 S
C840 C842 1.381 . S
C840 C846 1.383 . S
C841 C837 1.495 . S
C841 H847 0.959 . S
C841 H848 0.961 . S
C841 H849 0.960 . S
C842 C840 1.381 . S
C842 C843 1.394 . S
C842 H850 0.930 . S
C843 C842 1.394 . S
C843 C844 1.383 . S
C843 H851 0.929 . S
C844 C843 1.383 . S
C844 C845 1.377 . S
C845 H829 0.930 . S
C845 C844 1.377 . S
C845 C846 1.379 . S
C846 H830 0.931 . S
C846 C840 1.383 . S
C846 C845 1.379 . S
H847 C841 0.959 . S
H848 C841 0.961 . S
H849 C841 0.960 . S
H850 C842 0.930 . S
H851 C843 0.929 . S
H852 C860 0.929 . S
H853 C862 0.930 . S
H854 C864 0.930 . S
H855 C867 0.929 . S
H856 C870 0.930 . S
H857 C872 0.960 . S
H858 C872 0.960 . S
H859 C872 0.960 . S
C860 H852 0.929 . S
C860 C861 1.377 . S
C860 C862 1.384 . S
C861 C860 1.377 . S
C861 C867 1.390 . S
C862 H853 0.930 . S
C862 C860 1.384 . S
C862 C863 1.372 . S
C863 C862 1.372 . S
C863 C864 1.400 . S
C863 C868 1.490 . S
C864 H854 0.930 . S
C864 C863 1.400 . S
C864 C867 1.386 . S
H865 C881 0.930 . S
H866 C882 0.931 . S
C867 H855 0.929 . S
C867 C861 1.390 . S
C867 C864 1.386 . S
C868 C863 1.490 . S
C868 C870 1.395 . S
C868 C871 1.403 . S
H869 C875 0.930 . S
C870 H856 0.930 . S
C870 C868 1.395 . S
C870 C873 1.403 . S
C871 C868 1.403 . S
C871 C872 1.524 . S
C871 C875 1.400 . S
C872 H857 0.960 . S
C872 H858 0.960 . S
C872 H859 0.960 . S
C872 C871 1.524 . S
C873 C870 1.403 . S
C873 C874 1.392 . S
C873 C877 1.495 . S
C874 C873 1.392 . S
C874 C875 1.385 . S
C874 C876 1.478 1_554 S
C875 H869 0.930 . S
C875 C871 1.400 . S
C875 C874 1.385 . S
C876 C874 1.478 1_556 S
C876 C878 1.381 . S
C876 C882 1.383 . S
C877 C873 1.495 . S
C877 H883 0.959 . S
C877 H884 0.961 . S
C877 H885 0.960 1_554 S
C878 C876 1.381 . S
C878 C879 1.394 . S
C878 H886 0.930 . S
C879 C878 1.394 . S
C879 C880 1.383 . S
C879 H887 0.929 . S
C880 C879 1.383 . S
C880 C881 1.377 . S
C881 H865 0.930 . S
C881 C880 1.377 . S
C881 C882 1.379 . S
C882 H866 0.931 . S
C882 C876 1.383 . S
C882 C881 1.379 . S
H883 C877 0.959 . S
H884 C877 0.961 . S
H885 C877 0.960 1_556 S
H886 C878 0.930 . S
H887 C879 0.929 . S
H888 C896 0.929 . S
H889 C898 0.930 . S
H890 C900 0.930 . S
H891 C903 0.929 . S
H892 C906 0.930 . S
H893 C908 0.960 . S
H894 C908 0.960 . S
H895 C908 0.960 . S
C896 H888 0.929 . S
C896 C897 1.377 . S
C896 C898 1.384 . S
C897 C896 1.377 . S
C897 C903 1.390 . S
C898 H889 0.930 . S
C898 C896 1.384 . S
C898 C899 1.372 . S
C899 C898 1.372 . S
C899 C900 1.400 . S
C899 C904 1.490 . S
C900 H890 0.930 . S
C900 C899 1.400 . S
C900 C903 1.386 . S
H901 C917 0.930 . S
H902 C918 0.931 . S
C903 H891 0.929 . S
C903 C897 1.390 . S
C903 C900 1.386 . S
C904 C899 1.490 . S
C904 C906 1.395 . S
C904 C907 1.403 . S
H905 C911 0.930 . S
C906 H892 0.930 . S
C906 C904 1.395 . S
C906 C909 1.403 . S
C907 C904 1.403 . S
C907 C908 1.524 . S
C907 C911 1.400 . S
C908 H893 0.960 . S
C908 H894 0.960 . S
C908 H895 0.960 . S
C908 C907 1.524 . S
C909 C906 1.403 . S
C909 C910 1.392 . S
C909 C913 1.495 . S
C910 C909 1.392 . S
C910 C911 1.385 . S
C910 C912 1.478 1_554 S
C911 H905 0.930 . S
C911 C907 1.400 . S
C911 C910 1.385 . S
C912 C910 1.478 1_556 S
C912 C914 1.381 . S
C912 C918 1.383 . S
C913 C909 1.495 . S
C913 H919 0.959 . S
C913 H920 0.961 . S
C913 H921 0.960 . S
C914 C912 1.381 . S
C914 C915 1.394 . S
C914 H922 0.930 . S
C915 C914 1.394 . S
C915 C916 1.383 . S
C915 H923 0.929 . S
C916 C915 1.383 . S
C916 C917 1.377 . S
C917 H901 0.930 . S
C917 C916 1.377 . S
C917 C918 1.379 . S
C918 H902 0.931 . S
C918 C912 1.383 . S
C918 C917 1.379 . S
H919 C913 0.959 . S
H920 C913 0.961 . S
H921 C913 0.960 . S
H922 C914 0.930 . S
H923 C915 0.929 . S
H924 C932 0.929 . S
H925 C934 0.930 . S
H926 C936 0.930 . S
H927 C939 0.929 . S
H928 C942 0.930 . S
H929 C944 0.960 . S
H930 C944 0.960 . S
H931 C944 0.960 . S
C932 H924 0.929 . S
C932 C933 1.377 . S
C932 C934 1.384 . S
C933 C932 1.377 . S
C933 C939 1.390 . S
C934 H925 0.930 . S
C934 C932 1.384 . S
C934 C935 1.372 . S
C935 C934 1.372 . S
C935 C936 1.400 . S
C935 C940 1.490 . S
C936 H926 0.930 . S
C936 C935 1.400 . S
C936 C939 1.386 . S
H937 C953 0.930 . S
H938 C954 0.931 . S
C939 H927 0.929 . S
C939 C933 1.390 . S
C939 C936 1.386 . S
C940 C935 1.490 . S
C940 C942 1.395 . S
C940 C943 1.403 . S
H941 C947 0.930 . S
C942 H928 0.930 . S
C942 C940 1.395 . S
C942 C945 1.403 . S
C943 C940 1.403 . S
C943 C944 1.524 . S
C943 C947 1.400 . S
C944 H929 0.960 . S
C944 H930 0.960 . S
C944 H931 0.960 . S
C944 C943 1.524 . S
C945 C942 1.403 . S
C945 C946 1.392 . S
C945 C949 1.495 . S
C946 C945 1.392 . S
C946 C947 1.385 . S
C946 C948 1.478 1_554 S
C947 H941 0.930 . S
C947 C943 1.400 . S
C947 C946 1.385 . S
C948 C946 1.478 1_556 S
C948 C950 1.381 . S
C948 C954 1.383 . S
C949 C945 1.495 . S
C949 H955 0.959 . S
C949 H956 0.961 . S
C949 H957 0.960 . S
C950 C948 1.381 . S
C950 C951 1.394 . S
C950 H958 0.930 . S
C951 C950 1.394 . S
C951 C952 1.383 . S
C951 H959 0.929 . S
C952 C951 1.383 . S
C952 C953 1.377 . S
C953 H937 0.930 . S
C953 C952 1.377 . S
C953 C954 1.379 . S
C954 H938 0.931 . S
C954 C948 1.383 . S
C954 C953 1.379 . S
H955 C949 0.959 . S
H956 C949 0.961 . S
H957 C949 0.960 . S
H958 C950 0.930 . S
H959 C951 0.929 . S
H960 C968 0.929 . S
H961 C970 0.930 . S
H962 C972 0.930 . S
H963 C975 0.929 . S
H964 C978 0.930 . S
H965 C980 0.960 . S
H966 C980 0.960 . S
H967 C980 0.960 . S
C968 H960 0.929 . S
C968 C969 1.377 . S
C968 C970 1.384 . S
C969 C968 1.377 . S
C969 C975 1.390 . S
C970 H961 0.930 . S
C970 C968 1.384 . S
C970 C971 1.372 . S
C971 C970 1.372 . S
C971 C972 1.400 . S
C971 C976 1.490 1_554 S
C972 H962 0.930 . S
C972 C971 1.400 . S
C972 C975 1.386 . S
H973 C989 0.930 . S
H974 C990 0.931 . S
C975 H963 0.929 . S
C975 C969 1.390 . S
C975 C972 1.386 . S
C976 C971 1.490 1_556 S
C976 C978 1.395 . S
C976 C979 1.403 . S
H977 C983 0.930 . S
C978 H964 0.930 . S
C978 C976 1.395 . S
C978 C981 1.403 . S
C979 C976 1.403 . S
C979 C980 1.524 . S
C979 C983 1.400 . S
C980 H965 0.960 . S
C980 H966 0.960 . S
C980 H967 0.960 . S
C980 C979 1.524 . S
C981 C978 1.403 . S
C981 C982 1.392 . S
C981 C985 1.495 . S
C982 C981 1.392 . S
C982 C983 1.385 . S
C982 C984 1.478 . S
C983 H977 0.930 . S
C983 C979 1.400 . S
C983 C982 1.385 . S
C984 C982 1.478 . S
C984 C986 1.381 . S
C984 C990 1.383 . S
C985 C981 1.495 . S
C985 H991 0.959 . S
C985 H992 0.961 . S
C985 H993 0.960 . S
C986 C984 1.381 . S
C986 C987 1.394 . S
C986 H994 0.930 . S
C987 C986 1.394 . S
C987 C988 1.383 . S
C987 H995 0.929 . S
C988 C987 1.383 . S
C988 C989 1.377 . S
C989 H973 0.930 . S
C989 C988 1.377 . S
C989 C990 1.379 . S
C990 H974 0.931 . S
C990 C984 1.383 . S
C990 C989 1.379 . S
H991 C985 0.959 . S
H992 C985 0.961 . S
H993 C985 0.960 . S
H994 C986 0.930 . S
H995 C987 0.929 . S
H996 C1004 0.929 . S
H997 C1006 0.930 . S
H998 C1008 0.930 . S
H999 C1011 0.929 . S
H1000 C1014 0.930 . S
H1001 C1016 0.960 . S
H1002 C1016 0.954 1_554 S
H1003 C1016 0.960 1_554 S
C1004 H996 0.929 . S
C1004 C1005 1.377 . S
C1004 C1006 1.384 . S
C1005 C1004 1.377 . S
C1005 C1011 1.390 . S
C1006 H997 0.930 . S
C1006 C1004 1.384 . S
C1006 C1007 1.372 . S
C1007 C1006 1.372 . S
C1007 C1008 1.400 . S
C1007 C1012 1.490 1_554 S
C1008 H998 0.930 . S
C1008 C1007 1.400 . S
C1008 C1011 1.386 . S
H1009 C1025 0.930 . S
H1010 C1026 0.931 . S
C1011 H999 0.929 . S
C1011 C1005 1.390 . S
C1011 C1008 1.386 . S
C1012 C1007 1.490 1_556 S
C1012 C1014 1.395 . S
C1012 C1015 1.403 . S
H1013 C1019 0.930 . S
C1014 H1000 0.930 . S
C1014 C1012 1.395 . S
C1014 C1017 1.403 . S
C1015 C1012 1.403 . S
C1015 C1016 1.524 . S
C1015 C1019 1.400 . S
C1016 H1001 0.960 . S
C1016 H1002 0.954 1_556 S
C1016 H1003 0.960 1_556 S
C1016 C1015 1.524 . S
C1017 C1014 1.403 . S
C1017 C1018 1.392 . S
C1017 C1021 1.495 . S
C1018 C1017 1.392 . S
C1018 C1019 1.385 . S
C1018 C1020 1.478 . S
C1019 H1013 0.930 . S
C1019 C1015 1.400 . S
C1019 C1018 1.385 . S
C1020 C1018 1.478 . S
C1020 C1022 1.381 . S
C1020 C1026 1.383 . S
C1021 C1017 1.495 . S
C1021 H1027 0.959 . S
C1021 H1028 0.961 . S
C1021 H1029 0.960 . S
C1022 C1020 1.381 . S
C1022 C1023 1.394 . S
C1022 H1030 0.930 . S
C1023 C1022 1.394 . S
C1023 C1024 1.383 . S
C1023 H1031 0.929 . S
C1024 C1023 1.383 . S
C1024 C1025 1.377 . S
C1025 H1009 0.930 . S
C1025 C1024 1.377 . S
C1025 C1026 1.379 . S
C1026 H1010 0.931 . S
C1026 C1020 1.383 . S
C1026 C1025 1.379 . S
H1027 C1021 0.959 . S
H1028 C1021 0.961 . S
H1029 C1021 0.960 . S
H1030 C1022 0.930 . S
H1031 C1023 0.929 . S
H1032 C1040 0.929 . S
H1033 C1042 0.930 . S
H1034 C1044 0.930 . S
H1035 C1047 0.929 . S
H1036 C1050 0.930 . S
H1037 C1052 0.960 . S
H1038 C1052 0.960 . S
H1039 C1052 0.960 . S
C1040 H1032 0.929 . S
C1040 C1041 1.377 . S
C1040 C1042 1.384 . S
C1041 C1040 1.377 . S
C1041 C1047 1.390 . S
C1042 H1033 0.930 . S
C1042 C1040 1.384 . S
C1042 C1043 1.372 . S
C1043 C1042 1.372 . S
C1043 C1044 1.400 . S
C1043 C1048 1.490 1_554 S
C1044 H1034 0.930 . S
C1044 C1043 1.400 . S
C1044 C1047 1.386 . S
H1045 C1061 0.930 . S
H1046 C1062 0.931 . S
C1047 H1035 0.929 . S
C1047 C1041 1.390 . S
C1047 C1044 1.386 . S
C1048 C1043 1.490 1_556 S
C1048 C1050 1.395 . S
C1048 C1051 1.403 . S
H1049 C1055 0.930 . S
C1050 H1036 0.930 . S
C1050 C1048 1.395 . S
C1050 C1053 1.403 . S
C1051 C1048 1.403 . S
C1051 C1052 1.524 . S
C1051 C1055 1.400 . S
C1052 H1037 0.960 . S
C1052 H1038 0.960 . S
C1052 H1039 0.960 . S
C1052 C1051 1.524 . S
C1053 C1050 1.403 . S
C1053 C1054 1.392 . S
C1053 C1057 1.495 . S
C1054 C1053 1.392 . S
C1054 C1055 1.385 . S
C1054 C1056 1.478 . S
C1055 H1049 0.930 . S
C1055 C1051 1.400 . S
C1055 C1054 1.385 . S
C1056 C1054 1.478 . S
C1056 C1058 1.381 . S
C1056 C1062 1.383 . S
C1057 C1053 1.495 . S
C1057 H1063 0.959 . S
C1057 H1064 0.961 . S
C1057 H1065 0.960 . S
C1058 C1056 1.381 . S
C1058 C1059 1.394 . S
C1058 H1066 0.930 . S
C1059 C1058 1.394 . S
C1059 C1060 1.383 . S
C1059 H1067 0.929 . S
C1060 C1059 1.383 . S
C1060 C1061 1.377 . S
C1061 H1045 0.930 . S
C1061 C1060 1.377 . S
C1061 C1062 1.379 . S
C1062 H1046 0.931 . S
C1062 C1056 1.383 . S
C1062 C1061 1.379 . S
H1063 C1057 0.959 . S
H1064 C1057 0.961 . S
H1065 C1057 0.960 . S
H1066 C1058 0.930 . S
H1067 C1059 0.929 . S
H1068 C1076 0.929 . S
H1069 C1078 0.930 . S
H1070 C1080 0.930 . S
H1071 C1083 0.929 . S
H1072 C1086 0.930 . S
H1073 C1088 0.960 . S
H1074 C1088 0.960 . S
H1075 C1088 0.960 1_554 S
C1076 H1068 0.929 . S
C1076 C1077 1.377 . S
C1076 C1078 1.384 . S
C1077 C1076 1.377 . S
C1077 C1083 1.390 . S
C1078 H1069 0.930 . S
C1078 C1076 1.384 . S
C1078 C1079 1.372 . S
C1079 C1078 1.372 . S
C1079 C1080 1.400 . S
C1079 C1084 1.490 1_554 S
C1080 H1070 0.930 . S
C1080 C1079 1.400 . S
C1080 C1083 1.386 . S
H1081 C1097 0.930 . S
H1082 C1098 0.931 . S
C1083 H1071 0.929 . S
C1083 C1077 1.390 . S
C1083 C1080 1.386 . S
C1084 C1079 1.490 1_556 S
C1084 C1086 1.395 . S
C1084 C1087 1.403 . S
H1085 C1091 0.930 . S
C1086 H1072 0.930 . S
C1086 C1084 1.395 . S
C1086 C1089 1.403 . S
C1087 C1084 1.403 . S
C1087 C1088 1.524 . S
C1087 C1091 1.400 . S
C1088 H1073 0.960 . S
C1088 H1074 0.960 . S
C1088 H1075 0.960 1_556 S
C1088 C1087 1.524 . S
C1089 C1086 1.403 . S
C1089 C1090 1.392 . S
C1089 C1093 1.495 . S
C1090 C1089 1.392 . S
C1090 C1091 1.385 . S
C1090 C1092 1.478 . S
C1091 H1085 0.930 . S
C1091 C1087 1.400 . S
C1091 C1090 1.385 . S
C1092 C1090 1.478 . S
C1092 C1094 1.381 . S
C1092 C1098 1.383 . S
C1093 C1089 1.495 . S
C1093 H1099 0.959 . S
C1093 H1100 0.961 . S
C1093 H1101 0.960 . S
C1094 C1092 1.381 . S
C1094 C1095 1.394 . S
C1094 H1102 0.930 . S
C1095 C1094 1.394 . S
C1095 C1096 1.383 . S
C1095 H1103 0.929 . S
C1096 C1095 1.383 . S
C1096 C1097 1.377 . S
C1097 H1081 0.930 . S
C1097 C1096 1.377 . S
C1097 C1098 1.379 . S
C1098 H1082 0.931 . S
C1098 C1092 1.383 . S
C1098 C1097 1.379 . S
H1099 C1093 0.959 . S
H1100 C1093 0.961 . S
H1101 C1093 0.960 . S
H1102 C1094 0.930 . S
H1103 C1095 0.929 . S
H1104 C1112 0.929 . S
H1105 C1114 0.930 . S
H1106 C1116 0.930 . S
H1107 C1119 0.929 . S
H1108 C1122 0.930 . S
H1109 C1124 0.960 . S
H1110 C1124 0.960 . S
H1111 C1124 0.960 . S
C1112 H1104 0.929 . S
C1112 C1113 1.377 . S
C1112 C1114 1.384 . S
C1113 C1112 1.377 . S
C1113 C1119 1.390 . S
C1114 H1105 0.930 . S
C1114 C1112 1.384 . S
C1114 C1115 1.372 . S
C1115 C1114 1.372 . S
C1115 C1116 1.400 . S
C1115 C1120 1.490 . S
C1116 H1106 0.930 . S
C1116 C1115 1.400 . S
C1116 C1119 1.386 . S
H1117 C1133 0.930 . S
H1118 C1134 0.931 . S
C1119 H1107 0.929 . S
C1119 C1113 1.390 . S
C1119 C1116 1.386 . S
C1120 C1115 1.490 . S
C1120 C1122 1.395 . S
C1120 C1123 1.403 . S
H1121 C1127 0.930 . S
C1122 H1108 0.930 . S
C1122 C1120 1.395 . S
C1122 C1125 1.403 . S
C1123 C1120 1.403 . S
C1123 C1124 1.524 . S
C1123 C1127 1.400 . S
C1124 H1109 0.960 . S
C1124 H1110 0.960 . S
C1124 H1111 0.960 . S
C1124 C1123 1.524 . S
C1125 C1122 1.403 . S
C1125 C1126 1.392 . S
C1125 C1129 1.495 . S
C1126 C1125 1.392 . S
C1126 C1127 1.385 . S
C1126 C1128 1.478 . S
C1127 H1121 0.930 . S
C1127 C1123 1.400 . S
C1127 C1126 1.385 . S
C1128 C1126 1.478 . S
C1128 C1130 1.381 . S
C1128 C1134 1.383 . S
C1129 C1125 1.495 . S
C1129 H1135 0.959 . S
C1129 H1136 0.961 . S
C1129 H1137 0.960 . S
C1130 C1128 1.381 . S
C1130 C1131 1.394 . S
C1130 H1138 0.930 . S
C1131 C1130 1.394 . S
C1131 C1132 1.383 . S
C1131 H1139 0.929 . S
C1132 C1131 1.383 . S
C1132 C1133 1.377 . S
C1133 H1117 0.930 . S
C1133 C1132 1.377 . S
C1133 C1134 1.379 . S
C1134 H1118 0.931 . S
C1134 C1128 1.383 . S
C1134 C1133 1.379 . S
H1135 C1129 0.959 . S
H1136 C1129 0.961 . S
H1137 C1129 0.960 . S
H1138 C1130 0.930 . S
H1139 C1131 0.929 . S
H1140 C1148 0.929 . S
H1141 C1150 0.930 . S
H1142 C1152 0.930 . S
H1143 C1155 0.929 . S
H1144 C1158 0.930 . S
H1145 C1160 0.960 . S
H1146 C1160 0.960 . S
H1147 C1160 0.960 . S
C1148 H1140 0.929 . S
C1148 C1149 1.377 . S
C1148 C1150 1.384 . S
C1149 C1148 1.377 . S
C1149 C1155 1.390 . S
C1150 H1141 0.930 . S
C1150 C1148 1.384 . S
C1150 C1151 1.372 . S
C1151 C1150 1.372 . S
C1151 C1152 1.400 . S
C1151 C1156 1.490 . S
C1152 H1142 0.930 . S
C1152 C1151 1.400 . S
C1152 C1155 1.386 . S
H1153 C1169 0.930 . S
H1154 C1170 0.931 . S
C1155 H1143 0.929 . S
C1155 C1149 1.390 . S
C1155 C1152 1.386 . S
C1156 C1151 1.490 . S
C1156 C1158 1.395 . S
C1156 C1159 1.403 . S
H1157 C1163 0.930 . S
C1158 H1144 0.930 . S
C1158 C1156 1.395 . S
C1158 C1161 1.403 . S
C1159 C1156 1.403 . S
C1159 C1160 1.524 . S
C1159 C1163 1.400 . S
C1160 H1145 0.960 . S
C1160 H1146 0.960 . S
C1160 H1147 0.960 . S
C1160 C1159 1.524 . S
C1161 C1158 1.403 . S
C1161 C1162 1.392 . S
C1161 C1165 1.495 . S
C1162 C1161 1.392 . S
C1162 C1163 1.385 . S
C1162 C1164 1.478 . S
C1163 H1157 0.930 . S
C1163 C1159 1.400 . S
C1163 C1162 1.385 . S
C1164 C1162 1.478 . S
C1164 C1166 1.381 . S
C1164 C1170 1.383 . S
C1165 C1161 1.495 . S
C1165 H1171 0.959 . S
C1165 H1172 0.961 . S
C1165 H1173 0.960 . S
C1166 C1164 1.381 . S
C1166 C1167 1.394 . S
C1166 H1174 0.930 . S
C1167 C1166 1.394 . S
C1167 C1168 1.383 . S
C1167 H1175 0.929 . S
C1168 C1167 1.383 . S
C1168 C1169 1.377 . S
C1169 H1153 0.930 . S
C1169 C1168 1.377 . S
C1169 C1170 1.379 . S
C1170 H1154 0.931 . S
C1170 C1164 1.383 . S
C1170 C1169 1.379 . S
H1171 C1165 0.959 . S
H1172 C1165 0.961 . S
H1173 C1165 0.960 . S
H1174 C1166 0.930 . S
H1175 C1167 0.929 . S
H1176 C1184 0.929 . S
H1177 C1186 0.930 . S
H1178 C1188 0.930 . S
H1179 C1191 0.929 . S
H1180 C1194 0.930 . S
H1181 C1196 0.960 . S
H1182 C1196 0.960 . S
H1183 C1196 0.960 . S
C1184 H1176 0.929 . S
C1184 C1185 1.377 . S
C1184 C1186 1.384 . S
C1185 C1184 1.377 . S
C1185 C1191 1.390 . S
C1186 H1177 0.930 . S
C1186 C1184 1.384 . S
C1186 C1187 1.372 . S
C1187 C1186 1.372 . S
C1187 C1188 1.400 . S
C1187 C1192 1.490 . S
C1188 H1178 0.930 . S
C1188 C1187 1.400 . S
C1188 C1191 1.386 . S
H1189 C1205 0.930 . S
H1190 C1206 0.931 . S
C1191 H1179 0.929 . S
C1191 C1185 1.390 . S
C1191 C1188 1.386 . S
C1192 C1187 1.490 . S
C1192 C1194 1.395 . S
C1192 C1195 1.403 . S
H1193 C1199 0.930 . S
C1194 H1180 0.930 . S
C1194 C1192 1.395 . S
C1194 C1197 1.403 . S
C1195 C1192 1.403 . S
C1195 C1196 1.524 . S
C1195 C1199 1.400 . S
C1196 H1181 0.960 . S
C1196 H1182 0.960 . S
C1196 H1183 0.960 . S
C1196 C1195 1.524 . S
C1197 C1194 1.403 . S
C1197 C1198 1.392 . S
C1197 C1201 1.495 . S
C1198 C1197 1.392 . S
C1198 C1199 1.385 . S
C1198 C1200 1.478 . S
C1199 H1193 0.930 . S
C1199 C1195 1.400 . S
C1199 C1198 1.385 . S
C1200 C1198 1.478 . S
C1200 C1202 1.381 . S
C1200 C1206 1.383 . S
C1201 C1197 1.495 . S
C1201 H1207 0.959 . S
C1201 H1208 0.961 . S
C1201 H1209 0.960 . S
C1202 C1200 1.381 . S
C1202 C1203 1.394 . S
C1202 H1210 0.930 . S
C1203 C1202 1.394 . S
C1203 C1204 1.383 . S
C1203 H1211 0.929 . S
C1204 C1203 1.383 . S
C1204 C1205 1.377 . S
C1205 H1189 0.930 . S
C1205 C1204 1.377 . S
C1205 C1206 1.379 . S
C1206 H1190 0.931 . S
C1206 C1200 1.383 . S
C1206 C1205 1.379 . S
H1207 C1201 0.959 . S
H1208 C1201 0.961 . S
H1209 C1201 0.960 . S
H1210 C1202 0.930 . S
H1211 C1203 0.929 . S
H1212 C1220 0.929 . S
H1213 C1222 0.930 . S
H1214 C1224 0.930 . S
H1215 C1227 0.929 . S
H1216 C1230 0.930 . S
H1217 C1232 0.960 . S
H1218 C1232 0.960 . S
H1219 C1232 0.960 . S
C1220 H1212 0.929 . S
C1220 C1221 1.377 . S
C1220 C1222 1.384 . S
C1221 C1220 1.377 . S
C1221 C1227 1.390 . S
C1222 H1213 0.930 . S
C1222 C1220 1.384 . S
C1222 C1223 1.372 . S
C1223 C1222 1.372 . S
C1223 C1224 1.400 . S
C1223 C1228 1.490 . S
C1224 H1214 0.930 . S
C1224 C1223 1.400 . S
C1224 C1227 1.386 . S
H1225 C1241 0.930 . S
H1226 C1242 0.931 . S
C1227 H1215 0.929 . S
C1227 C1221 1.390 . S
C1227 C1224 1.386 . S
C1228 C1223 1.490 . S
C1228 C1230 1.395 . S
C1228 C1231 1.403 . S
H1229 C1235 0.930 . S
C1230 H1216 0.930 . S
C1230 C1228 1.395 . S
C1230 C1233 1.403 . S
C1231 C1228 1.403 . S
C1231 C1232 1.524 . S
C1231 C1235 1.400 . S
C1232 H1217 0.960 . S
C1232 H1218 0.960 . S
C1232 H1219 0.960 . S
C1232 C1231 1.524 . S
C1233 C1230 1.403 . S
C1233 C1234 1.392 . S
C1233 C1237 1.495 . S
C1234 C1233 1.392 . S
C1234 C1235 1.385 . S
C1234 C1236 1.478 . S
C1235 H1229 0.930 . S
C1235 C1231 1.400 . S
C1235 C1234 1.385 . S
C1236 C1234 1.478 . S
C1236 C1238 1.381 . S
C1236 C1242 1.383 . S
C1237 C1233 1.495 . S
C1237 H1243 0.959 . S
C1237 H1244 0.961 . S
C1237 H1245 0.960 . S
C1238 C1236 1.381 . S
C1238 C1239 1.394 . S
C1238 H1246 0.930 . S
C1239 C1238 1.394 . S
C1239 C1240 1.383 . S
C1239 H1247 0.929 . S
C1240 C1239 1.383 . S
C1240 C1241 1.377 . S
C1241 H1225 0.930 . S
C1241 C1240 1.377 . S
C1241 C1242 1.379 . S
C1242 H1226 0.931 . S
C1242 C1236 1.383 . S
C1242 C1241 1.379 . S
H1243 C1237 0.959 . S
H1244 C1237 0.961 . S
H1245 C1237 0.960 . S
H1246 C1238 0.930 . S
H1247 C1239 0.929 . S
H1248 C1256 0.929 . S
H1249 C1258 0.930 . S
H1250 C1260 0.930 . S
H1251 C1263 0.929 . S
H1252 C1266 0.930 . S
H1253 C1268 0.960 . S
H1254 C1268 0.960 . S
H1255 C1268 0.960 . S
C1256 H1248 0.929 . S
C1256 C1257 1.377 . S
C1256 C1258 1.384 . S
C1257 C1256 1.377 . S
C1257 C1263 1.390 . S
C1258 H1249 0.930 . S
C1258 C1256 1.384 . S
C1258 C1259 1.372 . S
C1259 C1258 1.372 . S
C1259 C1260 1.400 . S
C1259 C1264 1.490 . S
C1260 H1250 0.930 . S
C1260 C1259 1.400 . S
C1260 C1263 1.386 . S
H1261 C1277 0.930 . S
H1262 C1278 0.931 . S
C1263 H1251 0.929 . S
C1263 C1257 1.390 . S
C1263 C1260 1.386 . S
C1264 C1259 1.490 . S
C1264 C1266 1.395 . S
C1264 C1267 1.403 . S
H1265 C1271 0.930 . S
C1266 H1252 0.930 . S
C1266 C1264 1.395 . S
C1266 C1269 1.403 . S
C1267 C1264 1.403 . S
C1267 C1268 1.524 . S
C1267 C1271 1.400 . S
C1268 H1253 0.960 . S
C1268 H1254 0.960 . S
C1268 H1255 0.960 . S
C1268 C1267 1.524 . S
C1269 C1266 1.403 . S
C1269 C1270 1.392 . S
C1269 C1273 1.495 . S
C1270 C1269 1.392 . S
C1270 C1271 1.385 . S
C1270 C1272 1.478 . S
C1271 H1265 0.930 . S
C1271 C1267 1.400 . S
C1271 C1270 1.385 . S
C1272 C1270 1.478 . S
C1272 C1274 1.381 . S
C1272 C1278 1.383 . S
C1273 C1269 1.495 . S
C1273 H1279 0.959 . S
C1273 H1280 0.961 . S
C1273 H1281 0.960 . S
C1274 C1272 1.381 . S
C1274 C1275 1.394 . S
C1274 H1282 0.930 . S
C1275 C1274 1.394 . S
C1275 C1276 1.383 . S
C1275 H1283 0.929 . S
C1276 C1275 1.383 . S
C1276 C1277 1.377 . S
C1277 H1261 0.930 . S
C1277 C1276 1.377 . S
C1277 C1278 1.379 . S
C1278 H1262 0.931 . S
C1278 C1272 1.383 . S
C1278 C1277 1.379 . S
H1279 C1273 0.959 . S
H1280 C1273 0.961 . S
H1281 C1273 0.960 . S
H1282 C1274 0.930 . S
H1283 C1275 0.929 . S
H1284 C1292 0.929 . S
H1285 C1294 0.930 . S
H1286 C1296 0.930 . S
H1287 C1299 0.929 . S
H1288 C1302 0.930 . S
H1289 C1304 0.960 . S
H1290 C1304 0.960 . S
H1291 C1304 0.960 . S
C1292 H1284 0.929 . S
C1292 C1293 1.377 . S
C1292 C1294 1.384 . S
C1293 C1292 1.377 . S
C1293 C1299 1.390 . S
C1294 H1285 0.930 . S
C1294 C1292 1.384 . S
C1294 C1295 1.372 . S
C1295 C1294 1.372 . S
C1295 C1296 1.400 . S
C1295 C1300 1.490 . S
C1296 H1286 0.930 . S
C1296 C1295 1.400 . S
C1296 C1299 1.386 . S
H1297 C1313 0.930 . S
H1298 C1314 0.931 . S
C1299 H1287 0.929 . S
C1299 C1293 1.390 . S
C1299 C1296 1.386 . S
C1300 C1295 1.490 . S
C1300 C1302 1.395 . S
C1300 C1303 1.403 . S
H1301 C1307 0.930 . S
C1302 H1288 0.930 . S
C1302 C1300 1.395 . S
C1302 C1305 1.403 . S
C1303 C1300 1.403 . S
C1303 C1304 1.524 . S
C1303 C1307 1.400 . S
C1304 H1289 0.960 . S
C1304 H1290 0.960 . S
C1304 H1291 0.960 . S
C1304 C1303 1.524 . S
C1305 C1302 1.403 . S
C1305 C1306 1.392 . S
C1305 C1309 1.495 . S
C1306 C1305 1.392 . S
C1306 C1307 1.385 . S
C1306 C1308 1.478 . S
C1307 H1301 0.930 . S
C1307 C1303 1.400 . S
C1307 C1306 1.385 . S
C1308 C1306 1.478 . S
C1308 C1310 1.381 . S
C1308 C1314 1.383 . S
C1309 C1305 1.495 . S
C1309 H1315 0.959 . S
C1309 H1316 0.961 . S
C1309 H1317 0.960 . S
C1310 C1308 1.381 . S
C1310 C1311 1.394 . S
C1310 H1318 0.930 . S
C1311 C1310 1.394 . S
C1311 C1312 1.383 . S
C1311 H1319 0.929 . S
C1312 C1311 1.383 . S
C1312 C1313 1.377 . S
C1313 H1297 0.930 . S
C1313 C1312 1.377 . S
C1313 C1314 1.379 . S
C1314 H1298 0.931 . S
C1314 C1308 1.383 . S
C1314 C1313 1.379 . S
H1315 C1309 0.959 . S
H1316 C1309 0.961 . S
H1317 C1309 0.960 . S
H1318 C1310 0.930 . S
H1319 C1311 0.929 . S
H1320 C1328 0.929 . S
H1321 C1330 0.930 . S
H1322 C1332 0.930 . S
H1323 C1335 0.929 . S
H1324 C1338 0.930 . S
H1325 C1340 0.960 . S
H1326 C1340 0.960 . S
H1327 C1340 0.960 . S
C1328 H1320 0.929 . S
C1328 C1329 1.377 . S
C1328 C1330 1.384 . S
C1329 C1328 1.377 . S
C1329 C1335 1.390 . S
C1330 H1321 0.930 . S
C1330 C1328 1.384 . S
C1330 C1331 1.372 . S
C1331 C1330 1.372 . S
C1331 C1332 1.400 . S
C1331 C1336 1.490 . S
C1332 H1322 0.930 . S
C1332 C1331 1.400 . S
C1332 C1335 1.386 . S
H1333 C1349 0.930 . S
H1334 C1350 0.931 . S
C1335 H1323 0.929 . S
C1335 C1329 1.390 . S
C1335 C1332 1.386 . S
C1336 C1331 1.490 . S
C1336 C1338 1.395 . S
C1336 C1339 1.403 . S
H1337 C1343 0.930 . S
C1338 H1324 0.930 . S
C1338 C1336 1.395 . S
C1338 C1341 1.403 . S
C1339 C1336 1.403 . S
C1339 C1340 1.524 . S
C1339 C1343 1.400 . S
C1340 H1325 0.960 . S
C1340 H1326 0.960 . S
C1340 H1327 0.960 . S
C1340 C1339 1.524 . S
C1341 C1338 1.403 . S
C1341 C1342 1.392 . S
C1341 C1345 1.495 . S
C1342 C1341 1.392 . S
C1342 C1343 1.385 . S
C1342 C1344 1.478 . S
C1343 H1337 0.930 . S
C1343 C1339 1.400 . S
C1343 C1342 1.385 . S
C1344 C1342 1.478 . S
C1344 C1346 1.381 . S
C1344 C1350 1.383 . S
C1345 C1341 1.495 . S
C1345 H1351 0.959 . S
C1345 H1352 0.961 . S
C1345 H1353 0.960 . S
C1346 C1344 1.381 . S
C1346 C1347 1.394 . S
C1346 H1354 0.930 . S
C1347 C1346 1.394 . S
C1347 C1348 1.383 . S
C1347 H1355 0.929 . S
C1348 C1347 1.383 . S
C1348 C1349 1.377 . S
C1349 H1333 0.930 . S
C1349 C1348 1.377 . S
C1349 C1350 1.379 . S
C1350 H1334 0.931 . S
C1350 C1344 1.383 . S
C1350 C1349 1.379 . S
H1351 C1345 0.959 . S
H1352 C1345 0.961 . S
H1353 C1345 0.960 . S
H1354 C1346 0.930 . S
H1355 C1347 0.929 . S
H1356 C1364 0.929 . S
H1357 C1366 0.930 . S
H1358 C1368 0.930 . S
H1359 C1371 0.929 . S
H1360 C1374 0.930 . S
H1361 C1376 0.960 . S
H1362 C1376 0.960 . S
H1363 C1376 0.960 . S
C1364 H1356 0.929 . S
C1364 C1365 1.377 . S
C1364 C1366 1.384 . S
C1365 C1364 1.377 . S
C1365 C1371 1.390 . S
C1366 H1357 0.930 . S
C1366 C1364 1.384 . S
C1366 C1367 1.372 . S
C1367 C1366 1.372 . S
C1367 C1368 1.400 . S
C1367 C1372 1.490 . S
C1368 H1358 0.930 . S
C1368 C1367 1.400 . S
C1368 C1371 1.386 . S
H1369 C1385 0.930 . S
H1370 C1386 0.931 . S
C1371 H1359 0.929 . S
C1371 C1365 1.390 . S
C1371 C1368 1.386 . S
C1372 C1367 1.490 . S
C1372 C1374 1.395 . S
C1372 C1375 1.403 . S
H1373 C1379 0.930 . S
C1374 H1360 0.930 . S
C1374 C1372 1.395 . S
C1374 C1377 1.403 . S
C1375 C1372 1.403 . S
C1375 C1376 1.524 . S
C1375 C1379 1.400 . S
C1376 H1361 0.960 . S
C1376 H1362 0.960 . S
C1376 H1363 0.960 . S
C1376 C1375 1.524 . S
C1377 C1374 1.403 . S
C1377 C1378 1.392 . S
C1377 C1381 1.495 . S
C1378 C1377 1.392 . S
C1378 C1379 1.385 . S
C1378 C1380 1.478 . S
C1379 H1373 0.930 . S
C1379 C1375 1.400 . S
C1379 C1378 1.385 . S
C1380 C1378 1.478 . S
C1380 C1382 1.381 . S
C1380 C1386 1.383 . S
C1381 C1377 1.495 . S
C1381 H1387 0.959 . S
C1381 H1388 0.961 . S
C1381 H1389 0.960 . S
C1382 C1380 1.381 . S
C1382 C1383 1.394 . S
C1382 H1390 0.930 . S
C1383 C1382 1.394 . S
C1383 C1384 1.383 . S
C1383 H1391 0.929 . S
C1384 C1383 1.383 . S
C1384 C1385 1.377 . S
C1385 H1369 0.930 . S
C1385 C1384 1.377 . S
C1385 C1386 1.379 . S
C1386 H1370 0.931 . S
C1386 C1380 1.383 . S
C1386 C1385 1.379 . S
H1387 C1381 0.959 . S
H1388 C1381 0.961 . S
H1389 C1381 0.960 . S
H1390 C1382 0.930 . S
H1391 C1383 0.929 . S
H1392 C1400 0.929 1_556 S
H1393 C1402 0.919 1_556 S
H1394 C1404 0.930 . S
H1395 C1407 0.929 . S
H1396 C1410 0.930 . S
H1397 C1412 0.960 1_565 S
H1398 C1412 0.960 . S
H1399 C1412 0.960 . S
C1400 H1392 0.929 1_554 S
C1400 C1401 1.377 . S
C1400 C1402 1.388 . S
C1401 C1400 1.377 . S
C1401 C1407 1.390 . S
C1402 H1393 0.919 1_554 S
C1402 C1400 1.388 . S
C1402 C1403 1.379 . S
C1403 C1402 1.379 . S
C1403 C1404 1.400 . S
C1403 C1408 1.490 . S
C1404 H1394 0.930 . S
C1404 C1403 1.400 . S
C1404 C1407 1.386 . S
H1405 C1421 0.930 . S
H1406 C1422 0.931 1_554 S
C1407 H1395 0.929 . S
C1407 C1401 1.390 . S
C1407 C1404 1.386 . S
C1408 C1403 1.490 . S
C1408 C1410 1.395 1_554 S
C1408 C1411 1.403 . S
H1409 C1415 0.930 . S
C1410 H1396 0.930 . S
C1410 C1408 1.395 1_556 S
C1410 C1413 1.403 1_545 S
C1411 C1408 1.403 . S
C1411 C1412 1.524 . S
C1411 C1415 1.400 1_545 S
C1412 H1397 0.960 1_545 S
C1412 H1398 0.960 . S
C1412 H1399 0.960 . S
C1412 C1411 1.524 . S
C1413 C1410 1.403 1_565 S
C1413 C1414 1.392 . S
C1413 C1417 1.495 . S
C1414 C1413 1.392 . S
C1414 C1415 1.385 1_556 S
C1414 C1416 1.478 . S
C1415 H1409 0.930 . S
C1415 C1411 1.400 1_565 S
C1415 C1414 1.385 1_554 S
C1416 C1414 1.478 . S
C1416 C1418 1.381 . S
C1416 C1422 1.383 . S
C1417 C1413 1.495 . S
C1417 H1423 0.959 1_565 S
C1417 H1424 0.961 . S
C1417 H1425 0.960 . S
C1418 C1416 1.381 . S
C1418 C1419 1.394 . S
C1418 H1426 0.930 . S
C1419 C1418 1.394 . S
C1419 C1420 1.383 . S
C1419 H1427 0.929 . S
C1420 C1419 1.383 . S
C1420 C1421 1.377 . S
C1421 H1405 0.930 . S
C1421 C1420 1.377 . S
C1421 C1422 1.379 . S
C1422 H1406 0.931 1_556 S
C1422 C1416 1.383 . S
C1422 C1421 1.379 . S
H1423 C1417 0.959 1_545 S
H1424 C1417 0.961 . S
H1425 C1417 0.960 . S
H1426 C1418 0.930 . S
H1427 C1419 0.929 . S
H1428 C1436 0.929 1_554 S
H1429 C1438 0.930 . S
H1430 C1440 0.930 . S
H1431 C1443 0.929 . S
H1432 C1446 0.930 . S
H1433 C1448 0.960 1_655 S
H1434 C1448 0.960 . S
H1435 C1448 0.960 . S
C1436 H1428 0.929 1_556 S
C1436 C1437 1.377 . S
C1436 C1438 1.384 1_556 S
C1437 C1436 1.377 . S
C1437 C1443 1.390 . S
C1438 H1429 0.930 . S
C1438 C1436 1.384 1_554 S
C1438 C1439 1.372 1_554 S
C1439 C1438 1.372 1_556 S
C1439 C1440 1.400 . S
C1439 C1444 1.490 . S
C1440 H1430 0.930 . S
C1440 C1439 1.400 . S
C1440 C1443 1.386 . S
H1441 C1457 0.930 1_556 S
H1442 C1458 0.931 1_556 S
C1443 H1431 0.929 . S
C1443 C1437 1.390 . S
C1443 C1440 1.386 . S
C1444 C1439 1.490 . S
C1444 C1446 1.395 1_556 S
C1444 C1447 1.403 . S
H1445 C1451 0.930 . S
C1446 H1432 0.930 . S
C1446 C1444 1.395 1_554 S
C1446 C1449 1.403 1_455 S
C1447 C1444 1.403 . S
C1447 C1448 1.524 . S
C1447 C1451 1.400 1_455 S
C1448 H1433 0.960 1_455 S
C1448 H1434 0.960 . S
C1448 H1435 0.960 . S
C1448 C1447 1.524 . S
C1449 C1446 1.403 1_655 S
C1449 C1450 1.392 . S
C1449 C1453 1.495 . S
C1450 C1449 1.392 . S
C1450 C1451 1.385 1_554 S
C1450 C1452 1.478 . S
C1451 H1445 0.930 . S
C1451 C1447 1.400 1_655 S
C1451 C1450 1.385 1_556 S
C1452 C1450 1.478 . S
C1452 C1454 1.381 . S
C1452 C1458 1.383 . S
C1453 C1449 1.495 . S
C1453 H1459 0.959 1_655 S
C1453 H1460 0.961 . S
C1453 H1461 0.960 . S
C1454 C1452 1.381 . S
C1454 C1455 1.394 . S
C1454 H1462 0.930 . S
C1455 C1454 1.394 . S
C1455 C1456 1.383 . S
C1455 H1463 0.929 . S
C1456 C1455 1.383 . S
C1456 C1457 1.377 . S
C1457 H1441 0.930 1_554 S
C1457 C1456 1.377 . S
C1457 C1458 1.379 . S
C1458 H1442 0.931 1_554 S
C1458 C1452 1.383 . S
C1458 C1457 1.379 . S
H1459 C1453 0.959 1_455 S
H1460 C1453 0.961 . S
H1461 C1453 0.960 . S
H1462 C1454 0.930 . S
H1463 C1455 0.929 . S
H1464 C1472 0.929 . S
H1465 C1474 0.930 . S
H1466 C1476 0.930 1_556 S
H1467 C1479 0.929 . S
H1468 C1482 0.930 . S
H1469 C1484 0.960 . S
H1470 C1484 0.960 . S
H1471 C1484 0.960 . S
C1472 H1464 0.929 . S
C1472 C1473 1.377 . S
C1472 C1474 1.384 . S
C1473 C1472 1.377 . S
C1473 C1479 1.390 . S
C1474 H1465 0.930 . S
C1474 C1472 1.384 . S
C1474 C1475 1.372 . S
C1475 C1474 1.372 . S
C1475 C1476 1.400 . S
C1475 C1480 1.490 . S
C1476 H1466 0.930 1_554 S
C1476 C1475 1.400 . S
C1476 C1479 1.386 . S
H1477 C1493 0.930 . S
H1478 C1494 0.931 . S
C1479 H1467 0.929 . S
C1479 C1473 1.390 . S
C1479 C1476 1.386 . S
C1480 C1475 1.490 . S
C1480 C1482 1.395 . S
C1480 C1483 1.403 1_554 S
H1481 C1487 0.930 . S
C1482 H1468 0.930 . S
C1482 C1480 1.395 . S
C1482 C1485 1.403 1_565 S
C1483 C1480 1.403 1_556 S
C1483 C1484 1.524 . S
C1483 C1487 1.400 1_565 S
C1484 H1469 0.960 . S
C1484 H1470 0.960 . S
C1484 H1471 0.960 . S
C1484 C1483 1.524 . S
C1485 C1482 1.403 1_545 S
C1485 C1486 1.392 1_554 S
C1485 C1489 1.495 . S
C1486 C1485 1.392 1_556 S
C1486 C1487 1.385 . S
C1486 C1488 1.478 . S
C1487 H1481 0.930 . S
C1487 C1483 1.400 1_545 S
C1487 C1486 1.385 . S
C1488 C1486 1.478 . S
C1488 C1490 1.381 . S
C1488 C1494 1.383 . S
C1489 C1485 1.495 . S
C1489 H1495 0.959 . S
C1489 H1496 0.961 . S
C1489 H1497 0.960 . S
C1490 C1488 1.381 . S
C1490 C1491 1.394 . S
C1490 H1498 0.930 1_556 S
C1491 C1490 1.394 . S
C1491 C1492 1.383 . S
C1491 H1499 0.929 . S
C1492 C1491 1.383 . S
C1492 C1493 1.377 . S
C1493 H1477 0.930 . S
C1493 C1492 1.377 . S
C1493 C1494 1.379 . S
C1494 H1478 0.931 . S
C1494 C1488 1.383 . S
C1494 C1493 1.379 . S
H1495 C1489 0.959 . S
H1496 C1489 0.961 . S
H1497 C1489 0.960 . S
H1498 C1490 0.930 1_554 S
H1499 C1491 0.929 . S
H1500 C1508 0.929 1_554 S
H1501 C1510 0.930 . S
H1502 C1512 0.930 . S
H1503 C1515 0.929 . S
H1504 C1518 0.930 . S
H1505 C1520 0.966 1_455 S
H1506 C1520 0.960 . S
H1507 C1520 0.960 . S
C1508 H1500 0.929 1_556 S
C1508 C1509 1.378 . S
C1508 C1510 1.384 1_556 S
C1509 C1508 1.378 . S
C1509 C1515 1.390 . S
C1510 H1501 0.930 . S
C1510 C1508 1.384 1_554 S
C1510 C1511 1.372 1_554 S
C1511 C1510 1.372 1_556 S
C1511 C1512 1.400 . S
C1511 C1516 1.490 . S
C1512 H1502 0.930 . S
C1512 C1511 1.400 . S
C1512 C1515 1.386 . S
H1513 C1529 0.930 1_556 S
H1514 C1530 0.931 . S
C1515 H1503 0.929 . S
C1515 C1509 1.390 . S
C1515 C1512 1.386 . S
C1516 C1511 1.490 . S
C1516 C1518 1.395 1_556 S
C1516 C1519 1.403 . S
H1517 C1523 0.930 . S
C1518 H1504 0.930 . S
C1518 C1516 1.395 1_554 S
C1518 C1521 1.403 1_655 S
C1519 C1516 1.403 . S
C1519 C1520 1.524 . S
C1519 C1523 1.400 1_655 S
C1520 H1505 0.966 1_655 S
C1520 H1506 0.960 . S
C1520 H1507 0.960 . S
C1520 C1519 1.524 . S
C1521 C1518 1.403 1_455 S
C1521 C1522 1.392 . S
C1521 C1525 1.495 . S
C1522 C1521 1.392 . S
C1522 C1523 1.385 1_554 S
C1522 C1524 1.478 . S
C1523 H1517 0.930 . S
C1523 C1519 1.400 1_455 S
C1523 C1522 1.385 1_556 S
C1524 C1522 1.478 . S
C1524 C1526 1.381 . S
C1524 C1530 1.383 1_554 S
C1525 C1521 1.495 . S
C1525 H1531 0.950 1_455 S
C1525 H1532 0.961 . S
C1525 H1533 0.960 . S
C1526 C1524 1.381 . S
C1526 C1527 1.394 . S
C1526 H1534 0.930 . S
C1527 C1526 1.394 . S
C1527 C1528 1.383 . S
C1527 H1535 0.929 . S
C1528 C1527 1.383 . S
C1528 C1529 1.377 . S
C1529 H1513 0.930 1_554 S
C1529 C1528 1.377 . S
C1529 C1530 1.379 1_554 S
C1530 H1514 0.931 . S
C1530 C1524 1.383 1_556 S
C1530 C1529 1.379 1_556 S
H1531 C1525 0.950 1_655 S
H1532 C1525 0.961 . S
H1533 C1525 0.960 . S
H1534 C1526 0.930 . S
H1535 C1527 0.929 . S
H1536 C1544 0.929 . S
H1537 C1546 0.930 . S
H1538 C1548 0.930 . S
H1539 C1551 0.929 . S
H1540 C1554 0.930 . S
H1541 C1556 0.960 . S
H1542 C1556 0.960 . S
H1543 C1556 0.960 . S
C1544 H1536 0.929 . S
C1544 C1545 1.377 . S
C1544 C1546 1.384 . S
C1545 C1544 1.377 . S
C1545 C1551 1.390 . S
C1546 H1537 0.930 . S
C1546 C1544 1.384 . S
C1546 C1547 1.372 . S
C1547 C1546 1.372 . S
C1547 C1548 1.400 . S
C1547 C1552 1.490 . S
C1548 H1538 0.930 . S
C1548 C1547 1.400 . S
C1548 C1551 1.386 . S
H1549 C1565 0.930 . S
H1550 C1566 0.931 . S
C1551 H1539 0.929 . S
C1551 C1545 1.390 . S
C1551 C1548 1.386 . S
C1552 C1547 1.490 . S
C1552 C1554 1.395 . S
C1552 C1555 1.403 . S
H1553 C1559 0.930 . S
C1554 H1540 0.930 . S
C1554 C1552 1.395 . S
C1554 C1557 1.403 . S
C1555 C1552 1.403 . S
C1555 C1556 1.524 . S
C1555 C1559 1.400 . S
C1556 H1541 0.960 . S
C1556 H1542 0.960 . S
C1556 H1543 0.960 . S
C1556 C1555 1.524 . S
C1557 C1554 1.403 . S
C1557 C1558 1.392 . S
C1557 C1561 1.495 . S
C1558 C1557 1.392 . S
C1558 C1559 1.385 . S
C1558 C1560 1.478 . S
C1559 H1553 0.930 . S
C1559 C1555 1.400 . S
C1559 C1558 1.385 . S
C1560 C1558 1.478 . S
C1560 C1562 1.381 . S
C1560 C1566 1.383 . S
C1561 C1557 1.495 . S
C1561 H1567 0.959 . S
C1561 H1568 0.961 . S
C1561 H1569 0.960 . S
C1562 C1560 1.381 . S
C1562 C1563 1.394 . S
C1562 H1570 0.930 . S
C1563 C1562 1.394 . S
C1563 C1564 1.383 . S
C1563 H1571 0.929 . S
C1564 C1563 1.383 . S
C1564 C1565 1.377 . S
C1565 H1549 0.930 . S
C1565 C1564 1.377 . S
C1565 C1566 1.379 . S
C1566 H1550 0.931 . S
C1566 C1560 1.383 . S
C1566 C1565 1.379 . S
H1567 C1561 0.959 . S
H1568 C1561 0.961 . S
H1569 C1561 0.960 . S
H1570 C1562 0.930 . S
H1571 C1563 0.929 . S
H1572 C1580 0.929 . S
H1573 C1582 0.930 . S
H1574 C1584 0.930 . S
H1575 C1587 0.929 . S
H1576 C1590 0.930 . S
H1577 C1592 0.960 . S
H1578 C1592 0.960 . S
H1579 C1592 0.960 . S
C1580 H1572 0.929 . S
C1580 C1581 1.377 . S
C1580 C1582 1.384 . S
C1581 C1580 1.377 . S
C1581 C1587 1.390 . S
C1582 H1573 0.930 . S
C1582 C1580 1.384 . S
C1582 C1583 1.372 . S
C1583 C1582 1.372 . S
C1583 C1584 1.400 . S
C1583 C1588 1.490 . S
C1584 H1574 0.930 . S
C1584 C1583 1.400 . S
C1584 C1587 1.386 . S
H1585 C1601 0.930 . S
H1586 C1602 0.931 . S
C1587 H1575 0.929 . S
C1587 C1581 1.390 . S
C1587 C1584 1.386 . S
C1588 C1583 1.490 . S
C1588 C1590 1.395 . S
C1588 C1591 1.403 . S
H1589 C1595 0.930 . S
C1590 H1576 0.930 . S
C1590 C1588 1.395 . S
C1590 C1593 1.403 . S
C1591 C1588 1.403 . S
C1591 C1592 1.524 . S
C1591 C1595 1.400 . S
C1592 H1577 0.960 . S
C1592 H1578 0.960 . S
C1592 H1579 0.960 . S
C1592 C1591 1.524 . S
C1593 C1590 1.403 . S
C1593 C1594 1.392 . S
C1593 C1597 1.495 . S
C1594 C1593 1.392 . S
C1594 C1595 1.385 . S
C1594 C1596 1.478 . S
C1595 H1589 0.930 . S
C1595 C1591 1.400 . S
C1595 C1594 1.385 . S
C1596 C1594 1.478 . S
C1596 C1598 1.381 . S
C1596 C1602 1.383 . S
C1597 C1593 1.495 . S
C1597 H1603 0.959 . S
C1597 H1604 0.961 . S
C1597 H1605 0.960 . S
C1598 C1596 1.381 . S
C1598 C1599 1.394 . S
C1598 H1606 0.930 . S
C1599 C1598 1.394 . S
C1599 C1600 1.383 . S
C1599 H1607 0.929 . S
C1600 C1599 1.383 . S
C1600 C1601 1.377 . S
C1601 H1585 0.930 . S
C1601 C1600 1.377 . S
C1601 C1602 1.379 . S
C1602 H1586 0.931 . S
C1602 C1596 1.383 . S
C1602 C1601 1.379 . S
H1603 C1597 0.959 . S
H1604 C1597 0.961 . S
H1605 C1597 0.960 . S
H1606 C1598 0.930 . S
H1607 C1599 0.929 . S
H1608 C1616 0.929 . S
H1609 C1618 0.930 . S
H1610 C1620 0.930 . S
H1611 C1623 0.929 . S
H1612 C1626 0.930 . S
H1613 C1628 0.960 . S
H1614 C1628 0.960 . S
H1615 C1628 0.960 . S
C1616 H1608 0.929 . S
C1616 C1617 1.377 . S
C1616 C1618 1.384 . S
C1617 C1616 1.377 . S
C1617 C1623 1.390 . S
C1618 H1609 0.930 . S
C1618 C1616 1.384 . S
C1618 C1619 1.372 . S
C1619 C1618 1.372 . S
C1619 C1620 1.400 . S
C1619 C1624 1.490 . S
C1620 H1610 0.930 . S
C1620 C1619 1.400 . S
C1620 C1623 1.386 . S
H1621 C1637 0.930 . S
H1622 C1638 0.931 . S
C1623 H1611 0.929 . S
C1623 C1617 1.390 . S
C1623 C1620 1.386 . S
C1624 C1619 1.490 . S
C1624 C1626 1.395 . S
C1624 C1627 1.403 . S
H1625 C1631 0.930 . S
C1626 H1612 0.930 . S
C1626 C1624 1.395 . S
C1626 C1629 1.403 . S
C1627 C1624 1.403 . S
C1627 C1628 1.524 . S
C1627 C1631 1.400 . S
C1628 H1613 0.960 . S
C1628 H1614 0.960 . S
C1628 H1615 0.960 . S
C1628 C1627 1.524 . S
C1629 C1626 1.403 . S
C1629 C1630 1.392 . S
C1629 C1633 1.495 . S
C1630 C1629 1.392 . S
C1630 C1631 1.385 . S
C1630 C1632 1.478 . S
C1631 H1625 0.930 . S
C1631 C1627 1.400 . S
C1631 C1630 1.385 . S
C1632 C1630 1.478 . S
C1632 C1634 1.381 . S
C1632 C1638 1.383 . S
C1633 C1629 1.495 . S
C1633 H1639 0.959 . S
C1633 H1640 0.961 . S
C1633 H1641 0.960 . S
C1634 C1632 1.381 . S
C1634 C1635 1.394 . S
C1634 H1642 0.930 . S
C1635 C1634 1.394 . S
C1635 C1636 1.383 . S
C1635 H1643 0.929 . S
C1636 C1635 1.383 . S
C1636 C1637 1.377 . S
C1637 H1621 0.930 . S
C1637 C1636 1.377 . S
C1637 C1638 1.379 . S
C1638 H1622 0.931 . S
C1638 C1632 1.383 . S
C1638 C1637 1.379 . S
H1639 C1633 0.959 . S
H1640 C1633 0.961 . S
H1641 C1633 0.960 . S
H1642 C1634 0.930 . S
H1643 C1635 0.929 . S
H1644 C1652 0.929 . S
H1645 C1654 0.930 . S
H1646 C1656 0.930 . S
H1647 C1659 0.929 . S
H1648 C1662 0.930 . S
H1649 C1664 0.960 . S
H1650 C1664 0.960 . S
H1651 C1664 0.960 . S
C1652 H1644 0.929 . S
C1652 C1653 1.377 . S
C1652 C1654 1.384 . S
C1653 C1652 1.377 . S
C1653 C1659 1.390 . S
C1654 H1645 0.930 . S
C1654 C1652 1.384 . S
C1654 C1655 1.372 . S
C1655 C1654 1.372 . S
C1655 C1656 1.400 . S
C1655 C1660 1.490 . S
C1656 H1646 0.930 . S
C1656 C1655 1.400 . S
C1656 C1659 1.386 . S
H1657 C1673 0.930 . S
H1658 C1674 0.931 . S
C1659 H1647 0.929 . S
C1659 C1653 1.390 . S
C1659 C1656 1.386 . S
C1660 C1655 1.490 . S
C1660 C1662 1.395 . S
C1660 C1663 1.403 . S
H1661 C1667 0.930 . S
C1662 H1648 0.930 . S
C1662 C1660 1.395 . S
C1662 C1665 1.403 . S
C1663 C1660 1.403 . S
C1663 C1664 1.524 . S
C1663 C1667 1.400 . S
C1664 H1649 0.960 . S
C1664 H1650 0.960 . S
C1664 H1651 0.960 . S
C1664 C1663 1.524 . S
C1665 C1662 1.403 . S
C1665 C1666 1.392 . S
C1665 C1669 1.495 . S
C1666 C1665 1.392 . S
C1666 C1667 1.385 . S
C1666 C1668 1.478 . S
C1667 H1661 0.930 . S
C1667 C1663 1.400 . S
C1667 C1666 1.385 . S
C1668 C1666 1.478 . S
C1668 C1670 1.381 . S
C1668 C1674 1.383 . S
C1669 C1665 1.495 . S
C1669 H1675 0.959 . S
C1669 H1676 0.961 . S
C1669 H1677 0.960 . S
C1670 C1668 1.381 . S
C1670 C1671 1.394 . S
C1670 H1678 0.930 . S
C1671 C1670 1.394 . S
C1671 C1672 1.383 . S
C1671 H1679 0.929 . S
C1672 C1671 1.383 . S
C1672 C1673 1.377 . S
C1673 H1657 0.930 . S
C1673 C1672 1.377 . S
C1673 C1674 1.379 . S
C1674 H1658 0.931 . S
C1674 C1668 1.383 . S
C1674 C1673 1.379 . S
H1675 C1669 0.959 . S
H1676 C1669 0.961 . S
H1677 C1669 0.960 . S
H1678 C1670 0.930 . S
H1679 C1671 0.929 . S
H1680 C1688 0.929 . S
H1681 C1690 0.930 . S
H1682 C1692 0.930 1_556 S
H1683 C1695 0.929 . S
H1684 C1698 0.930 . S
H1685 C1700 0.960 . S
H1686 C1700 0.960 . S
H1687 C1700 0.960 . S
C1688 H1680 0.929 . S
C1688 C1689 1.377 . S
C1688 C1690 1.384 . S
C1689 C1688 1.377 . S
C1689 C1695 1.390 . S
C1690 H1681 0.930 . S
C1690 C1688 1.384 . S
C1690 C1691 1.372 . S
C1691 C1690 1.372 . S
C1691 C1692 1.400 . S
C1691 C1696 1.490 . S
C1692 H1682 0.930 1_554 S
C1692 C1691 1.400 . S
C1692 C1695 1.386 . S
H1693 C1709 0.930 . S
H1694 C1710 0.931 . S
C1695 H1683 0.929 . S
C1695 C1689 1.390 . S
C1695 C1692 1.386 . S
C1696 C1691 1.490 . S
C1696 C1698 1.395 1_554 S
C1696 C1699 1.403 . S
H1697 C1703 0.930 . S
C1698 H1684 0.930 . S
C1698 C1696 1.395 1_556 S
C1698 C1701 1.403 . S
C1699 C1696 1.403 . S
C1699 C1700 1.524 . S
C1699 C1703 1.400 . S
C1700 H1685 0.960 . S
C1700 H1686 0.960 . S
C1700 H1687 0.960 . S
C1700 C1699 1.524 . S
C1701 C1698 1.403 . S
C1701 C1702 1.392 . S
C1701 C1705 1.495 . S
C1702 C1701 1.392 . S
C1702 C1703 1.385 1_556 S
C1702 C1704 1.478 . S
C1703 H1697 0.930 . S
C1703 C1699 1.400 . S
C1703 C1702 1.385 1_554 S
C1704 C1702 1.478 . S
C1704 C1706 1.381 . S
C1704 C1710 1.383 . S
C1705 C1701 1.495 . S
C1705 H1711 0.959 . S
C1705 H1712 0.961 . S
C1705 H1713 0.960 . S
C1706 C1704 1.381 . S
C1706 C1707 1.394 . S
C1706 H1714 0.930 1_556 S
C1707 C1706 1.394 . S
C1707 C1708 1.383 . S
C1707 H1715 0.931 . S
C1708 C1707 1.383 . S
C1708 C1709 1.377 . S
C1709 H1693 0.930 . S
C1709 C1708 1.377 . S
C1709 C1710 1.379 . S
C1710 H1694 0.931 . S
C1710 C1704 1.383 . S
C1710 C1709 1.379 . S
H1711 C1705 0.959 . S
H1712 C1705 0.961 . S
H1713 C1705 0.960 . S
H1714 C1706 0.930 1_554 S
H1715 C1707 0.931 . S
H1716 C1724 0.929 . S
H1717 C1726 0.930 . S
H1718 C1728 0.930 . S
H1719 C1731 0.929 . S
H1720 C1734 0.930 . S
H1721 C1736 0.960 . S
H1722 C1736 0.960 . S
H1723 C1736 0.960 . S
C1724 H1716 0.929 . S
C1724 C1725 1.377 . S
C1724 C1726 1.384 . S
C1725 C1724 1.377 . S
C1725 C1731 1.390 . S
C1726 H1717 0.930 . S
C1726 C1724 1.384 . S
C1726 C1727 1.372 . S
C1727 C1726 1.372 . S
C1727 C1728 1.400 . S
C1727 C1732 1.490 . S
C1728 H1718 0.930 . S
C1728 C1727 1.400 . S
C1728 C1731 1.386 . S
H1729 C1745 0.930 . S
H1730 C1746 0.931 . S
C1731 H1719 0.929 . S
C1731 C1725 1.390 . S
C1731 C1728 1.386 . S
C1732 C1727 1.490 . S
C1732 C1734 1.395 . S
C1732 C1735 1.403 1_554 S
H1733 C1739 0.930 . S
C1734 H1720 0.930 . S
C1734 C1732 1.395 . S
C1734 C1737 1.403 . S
C1735 C1732 1.403 1_556 S
C1735 C1736 1.524 . S
C1735 C1739 1.400 . S
C1736 H1721 0.960 . S
C1736 H1722 0.960 . S
C1736 H1723 0.960 . S
C1736 C1735 1.524 . S
C1737 C1734 1.403 . S
C1737 C1738 1.392 1_554 S
C1737 C1741 1.495 . S
C1738 C1737 1.392 1_556 S
C1738 C1739 1.385 . S
C1738 C1740 1.478 . S
C1739 H1733 0.930 . S
C1739 C1735 1.400 . S
C1739 C1738 1.385 . S
C1740 C1738 1.478 . S
C1740 C1742 1.381 . S
C1740 C1746 1.383 . S
C1741 C1737 1.495 . S
C1741 H1747 0.959 . S
C1741 H1748 0.961 . S
C1741 H1749 0.960 . S
C1742 C1740 1.381 . S
C1742 C1743 1.394 . S
C1742 H1750 0.930 . S
C1743 C1742 1.394 . S
C1743 C1744 1.383 . S
C1743 H1751 0.929 . S
C1744 C1743 1.383 . S
C1744 C1745 1.377 . S
C1745 H1729 0.930 . S
C1745 C1744 1.377 . S
C1745 C1746 1.379 . S
C1746 H1730 0.931 . S
C1746 C1740 1.383 . S
C1746 C1745 1.379 . S
H1747 C1741 0.959 . S
H1748 C1741 0.961 . S
H1749 C1741 0.960 . S
H1750 C1742 0.930 . S
H1751 C1743 0.929 . S
H1752 C1760 0.929 . S
H1753 C1762 0.930 . S
H1754 C1764 0.930 1_554 S
H1755 C1767 0.929 1_554 S
H1756 C1770 0.930 . S
H1757 C1772 0.960 . S
H1758 C1772 0.960 . S
H1759 C1772 0.960 . S
C1760 H1752 0.929 . S
C1760 C1761 1.377 . S
C1760 C1762 1.384 . S
C1761 C1760 1.377 . S
C1761 C1767 1.390 . S
C1762 H1753 0.930 . S
C1762 C1760 1.384 . S
C1762 C1763 1.372 . S
C1763 C1762 1.372 . S
C1763 C1764 1.400 . S
C1763 C1768 1.490 . S
C1764 H1754 0.930 1_556 S
C1764 C1763 1.400 . S
C1764 C1767 1.386 . S
H1765 C1781 0.930 . S
H1766 C1782 0.931 . S
C1767 H1755 0.929 1_556 S
C1767 C1761 1.390 . S
C1767 C1764 1.386 . S
C1768 C1763 1.490 . S
C1768 C1770 1.395 1_556 S
C1768 C1771 1.403 . S
H1769 C1775 0.930 . S
C1770 H1756 0.930 . S
C1770 C1768 1.395 1_554 S
C1770 C1773 1.403 . S
C1771 C1768 1.403 . S
C1771 C1772 1.524 . S
C1771 C1775 1.400 . S
C1772 H1757 0.960 . S
C1772 H1758 0.960 . S
C1772 H1759 0.960 . S
C1772 C1771 1.524 . S
C1773 C1770 1.403 . S
C1773 C1774 1.392 . S
C1773 C1777 1.495 . S
C1774 C1773 1.392 . S
C1774 C1775 1.385 1_554 S
C1774 C1776 1.478 . S
C1775 H1769 0.930 . S
C1775 C1771 1.400 . S
C1775 C1774 1.385 1_556 S
C1776 C1774 1.478 . S
C1776 C1778 1.390 . S
C1776 C1782 1.383 . S
C1777 C1773 1.495 . S
C1777 H1783 0.959 . S
C1777 H1784 0.961 . S
C1777 H1785 0.960 . S
C1778 C1776 1.390 . S
C1778 C1779 1.398 . S
C1778 H1786 0.917 1_554 S
C1779 C1778 1.398 . S
C1779 C1780 1.383 . S
C1779 H1787 0.929 1_554 S
C1780 C1779 1.383 . S
C1780 C1781 1.377 . S
C1781 H1765 0.930 . S
C1781 C1780 1.377 . S
C1781 C1782 1.379 . S
C1782 H1766 0.931 . S
C1782 C1776 1.383 . S
C1782 C1781 1.379 . S
H1783 C1777 0.959 . S
H1784 C1777 0.961 . S
H1785 C1777 0.960 . S
H1786 C1778 0.917 1_556 S
H1787 C1779 0.929 1_556 S
H1788 C1796 0.929 . S
H1789 C1798 0.930 . S
H1790 C1800 0.930 . S
H1791 C1803 0.929 . S
H1792 C1806 0.930 . S
H1793 C1808 0.960 . S
H1794 C1808 0.960 . S
H1795 C1808 0.960 . S
C1796 H1788 0.929 . S
C1796 C1797 1.377 . S
C1796 C1798 1.384 . S
C1797 C1796 1.377 . S
C1797 C1803 1.390 . S
C1798 H1789 0.930 . S
C1798 C1796 1.384 . S
C1798 C1799 1.372 . S
C1799 C1798 1.372 . S
C1799 C1800 1.400 . S
C1799 C1804 1.490 . S
C1800 H1790 0.930 . S
C1800 C1799 1.400 . S
C1800 C1803 1.386 . S
H1801 C1817 0.930 . S
H1802 C1818 0.931 . S
C1803 H1791 0.929 . S
C1803 C1797 1.390 . S
C1803 C1800 1.386 . S
C1804 C1799 1.490 . S
C1804 C1806 1.395 1_554 S
C1804 C1807 1.403 . S
H1805 C1811 0.930 . S
C1806 H1792 0.930 . S
C1806 C1804 1.395 1_556 S
C1806 C1809 1.403 . S
C1807 C1804 1.403 . S
C1807 C1808 1.524 . S
C1807 C1811 1.400 . S
C1808 H1793 0.960 . S
C1808 H1794 0.960 . S
C1808 H1795 0.960 . S
C1808 C1807 1.524 . S
C1809 C1806 1.403 . S
C1809 C1810 1.392 . S
C1809 C1813 1.495 . S
C1810 C1809 1.392 . S
C1810 C1811 1.385 1_556 S
C1810 C1812 1.478 . S
C1811 H1805 0.930 . S
C1811 C1807 1.400 . S
C1811 C1810 1.385 1_554 S
C1812 C1810 1.478 . S
C1812 C1814 1.381 . S
C1812 C1818 1.383 . S
C1813 C1809 1.495 . S
C1813 H1819 0.959 . S
C1813 H1820 0.961 . S
C1813 H1821 0.960 . S
C1814 C1812 1.381 . S
C1814 C1815 1.394 . S
C1814 H1822 0.930 . S
C1815 C1814 1.394 . S
C1815 C1816 1.383 . S
C1815 H1823 0.929 . S
C1816 C1815 1.383 . S
C1816 C1817 1.377 . S
C1817 H1801 0.930 . S
C1817 C1816 1.377 . S
C1817 C1818 1.379 . S
C1818 H1802 0.931 . S
C1818 C1812 1.383 . S
C1818 C1817 1.379 . S
H1819 C1813 0.959 . S
H1820 C1813 0.961 . S
H1821 C1813 0.960 . S
H1822 C1814 0.930 . S
H1823 C1815 0.929 . S
H1824 C1832 0.929 . S
H1825 C1834 0.930 . S
H1826 C1836 0.930 . S
H1827 C1839 0.929 . S
H1828 C1842 0.930 . S
H1829 C1844 0.960 . S
H1830 C1844 0.960 . S
H1831 C1844 0.960 . S
C1832 H1824 0.929 . S
C1832 C1833 1.377 . S
C1832 C1834 1.384 . S
C1833 C1832 1.377 . S
C1833 C1839 1.390 . S
C1834 H1825 0.930 . S
C1834 C1832 1.384 . S
C1834 C1835 1.372 . S
C1835 C1834 1.372 . S
C1835 C1836 1.400 . S
C1835 C1840 1.490 . S
C1836 H1826 0.930 . S
C1836 C1835 1.400 . S
C1836 C1839 1.386 . S
H1837 C1853 0.930 . S
H1838 C1854 0.931 . S
C1839 H1827 0.929 . S
C1839 C1833 1.390 . S
C1839 C1836 1.386 . S
C1840 C1835 1.490 . S
C1840 C1842 1.395 . S
C1840 C1843 1.403 . S
H1841 C1847 0.930 . S
C1842 H1828 0.930 . S
C1842 C1840 1.395 . S
C1842 C1845 1.403 . S
C1843 C1840 1.403 . S
C1843 C1844 1.524 . S
C1843 C1847 1.400 . S
C1844 H1829 0.960 . S
C1844 H1830 0.960 . S
C1844 H1831 0.960 . S
C1844 C1843 1.524 . S
C1845 C1842 1.403 . S
C1845 C1846 1.392 . S
C1845 C1849 1.495 . S
C1846 C1845 1.392 . S
C1846 C1847 1.385 . S
C1846 C1848 1.478 . S
C1847 H1841 0.930 . S
C1847 C1843 1.400 . S
C1847 C1846 1.385 . S
C1848 C1846 1.478 . S
C1848 C1850 1.381 . S
C1848 C1854 1.383 . S
C1849 C1845 1.495 . S
C1849 H1855 0.959 . S
C1849 H1856 0.961 . S
C1849 H1857 0.960 . S
C1850 C1848 1.381 . S
C1850 C1851 1.394 . S
C1850 H1858 0.930 . S
C1851 C1850 1.394 . S
C1851 C1852 1.383 . S
C1851 H1859 0.929 . S
C1852 C1851 1.383 . S
C1852 C1853 1.377 . S
C1853 H1837 0.930 . S
C1853 C1852 1.377 . S
C1853 C1854 1.379 . S
C1854 H1838 0.931 . S
C1854 C1848 1.383 . S
C1854 C1853 1.379 . S
H1855 C1849 0.959 . S
H1856 C1849 0.961 . S
H1857 C1849 0.960 . S
H1858 C1850 0.930 . S
H1859 C1851 0.929 . S
H1860 C1868 0.929 . S
H1861 C1870 0.930 . S
H1862 C1872 0.930 . S
H1863 C1875 0.929 . S
H1864 C1878 0.930 . S
H1865 C1880 0.960 . S
H1866 C1880 0.960 . S
H1867 C1880 0.960 . S
C1868 H1860 0.929 . S
C1868 C1869 1.377 . S
C1868 C1870 1.384 . S
C1869 C1868 1.377 . S
C1869 C1875 1.390 . S
C1870 H1861 0.930 . S
C1870 C1868 1.384 . S
C1870 C1871 1.372 . S
C1871 C1870 1.372 . S
C1871 C1872 1.400 . S
C1871 C1876 1.490 . S
C1872 H1862 0.930 . S
C1872 C1871 1.400 . S
C1872 C1875 1.386 . S
H1873 C1889 0.930 . S
H1874 C1890 0.931 . S
C1875 H1863 0.929 . S
C1875 C1869 1.390 . S
C1875 C1872 1.386 . S
C1876 C1871 1.490 . S
C1876 C1878 1.395 . S
C1876 C1879 1.403 . S
H1877 C1883 0.930 . S
C1878 H1864 0.930 . S
C1878 C1876 1.395 . S
C1878 C1881 1.403 . S
C1879 C1876 1.403 . S
C1879 C1880 1.524 . S
C1879 C1883 1.400 . S
C1880 H1865 0.960 . S
C1880 H1866 0.960 . S
C1880 H1867 0.960 . S
C1880 C1879 1.524 . S
C1881 C1878 1.403 . S
C1881 C1882 1.392 . S
C1881 C1885 1.495 . S
C1882 C1881 1.392 . S
C1882 C1883 1.385 . S
C1882 C1884 1.478 . S
C1883 H1877 0.930 . S
C1883 C1879 1.400 . S
C1883 C1882 1.385 . S
C1884 C1882 1.478 . S
C1884 C1886 1.381 . S
C1884 C1890 1.383 . S
C1885 C1881 1.495 . S
C1885 H1891 0.959 . S
C1885 H1892 0.961 . S
C1885 H1893 0.960 . S
C1886 C1884 1.381 . S
C1886 C1887 1.394 . S
C1886 H1894 0.930 . S
C1887 C1886 1.394 . S
C1887 C1888 1.383 . S
C1887 H1895 0.929 . S
C1888 C1887 1.383 . S
C1888 C1889 1.377 . S
C1889 H1873 0.930 . S
C1889 C1888 1.377 . S
C1889 C1890 1.379 . S
C1890 H1874 0.931 . S
C1890 C1884 1.383 . S
C1890 C1889 1.379 . S
H1891 C1885 0.959 . S
H1892 C1885 0.961 . S
H1893 C1885 0.960 . S
H1894 C1886 0.930 . S
H1895 C1887 0.929 . S
H1896 C1904 0.929 . S
H1897 C1906 0.930 . S
H1898 C1908 0.930 . S
H1899 C1911 0.929 . S
H1900 C1914 0.930 . S
H1901 C1916 0.960 . S
H1902 C1916 0.960 . S
H1903 C1916 0.960 . S
C1904 H1896 0.929 . S
C1904 C1905 1.377 . S
C1904 C1906 1.384 . S
C1905 C1904 1.377 . S
C1905 C1911 1.390 . S
C1906 H1897 0.930 . S
C1906 C1904 1.384 . S
C1906 C1907 1.372 . S
C1907 C1906 1.372 . S
C1907 C1908 1.400 . S
C1907 C1912 1.490 . S
C1908 H1898 0.930 . S
C1908 C1907 1.400 . S
C1908 C1911 1.386 . S
H1909 C1925 0.930 . S
H1910 C1926 0.931 . S
C1911 H1899 0.929 . S
C1911 C1905 1.390 . S
C1911 C1908 1.386 . S
C1912 C1907 1.490 . S
C1912 C1914 1.395 . S
C1912 C1915 1.403 . S
H1913 C1919 0.930 . S
C1914 H1900 0.930 . S
C1914 C1912 1.395 . S
C1914 C1917 1.403 . S
C1915 C1912 1.403 . S
C1915 C1916 1.524 . S
C1915 C1919 1.400 . S
C1916 H1901 0.960 . S
C1916 H1902 0.960 . S
C1916 H1903 0.960 . S
C1916 C1915 1.524 . S
C1917 C1914 1.403 . S
C1917 C1918 1.392 . S
C1917 C1921 1.495 . S
C1918 C1917 1.392 . S
C1918 C1919 1.385 . S
C1918 C1920 1.478 . S
C1919 H1913 0.930 . S
C1919 C1915 1.400 . S
C1919 C1918 1.385 . S
C1920 C1918 1.478 . S
C1920 C1922 1.381 . S
C1920 C1926 1.383 . S
C1921 C1917 1.495 . S
C1921 H1927 0.959 . S
C1921 H1928 0.961 . S
C1921 H1929 0.960 . S
C1922 C1920 1.381 . S
C1922 C1923 1.394 . S
C1922 H1930 0.930 . S
C1923 C1922 1.394 . S
C1923 C1924 1.383 . S
C1923 H1931 0.929 . S
C1924 C1923 1.383 . S
C1924 C1925 1.377 . S
C1925 H1909 0.930 . S
C1925 C1924 1.377 . S
C1925 C1926 1.379 . S
C1926 H1910 0.931 . S
C1926 C1920 1.383 . S
C1926 C1925 1.379 . S
H1927 C1921 0.959 . S
H1928 C1921 0.961 . S
H1929 C1921 0.960 . S
H1930 C1922 0.930 . S
H1931 C1923 0.929 . S
H1932 C1940 0.929 . S
H1933 C1942 0.930 . S
H1934 C1944 0.930 . S
H1935 C1947 0.929 . S
H1936 C1950 0.930 . S
H1937 C1952 0.960 . S
H1938 C1952 0.960 . S
H1939 C1952 0.960 . S
C1940 H1932 0.929 . S
C1940 C1941 1.377 . S
C1940 C1942 1.384 . S
C1941 C1940 1.377 . S
C1941 C1947 1.390 . S
C1942 H1933 0.930 . S
C1942 C1940 1.384 . S
C1942 C1943 1.372 . S
C1943 C1942 1.372 . S
C1943 C1944 1.400 . S
C1943 C1948 1.490 . S
C1944 H1934 0.930 . S
C1944 C1943 1.400 . S
C1944 C1947 1.386 . S
H1945 C1961 0.930 . S
H1946 C1962 0.931 . S
C1947 H1935 0.929 . S
C1947 C1941 1.390 . S
C1947 C1944 1.386 . S
C1948 C1943 1.490 . S
C1948 C1950 1.395 . S
C1948 C1951 1.403 . S
H1949 C1955 0.930 . S
C1950 H1936 0.930 . S
C1950 C1948 1.395 . S
C1950 C1953 1.403 . S
C1951 C1948 1.403 . S
C1951 C1952 1.524 . S
C1951 C1955 1.400 . S
C1952 H1937 0.960 . S
C1952 H1938 0.960 . S
C1952 H1939 0.960 . S
C1952 C1951 1.524 . S
C1953 C1950 1.403 . S
C1953 C1954 1.392 . S
C1953 C1957 1.495 . S
C1954 C1953 1.392 . S
C1954 C1955 1.385 . S
C1954 C1956 1.478 . S
C1955 H1949 0.930 . S
C1955 C1951 1.400 . S
C1955 C1954 1.385 . S
C1956 C1954 1.478 . S
C1956 C1958 1.381 . S
C1956 C1962 1.383 . S
C1957 C1953 1.495 . S
C1957 H1963 0.959 . S
C1957 H1964 0.961 . S
C1957 H1965 0.960 . S
C1958 C1956 1.381 . S
C1958 C1959 1.394 . S
C1958 H1966 0.930 . S
C1959 C1958 1.394 . S
C1959 C1960 1.383 . S
C1959 H1967 0.929 . S
C1960 C1959 1.383 . S
C1960 C1961 1.377 . S
C1961 H1945 0.930 . S
C1961 C1960 1.377 . S
C1961 C1962 1.379 . S
C1962 H1946 0.931 . S
C1962 C1956 1.383 . S
C1962 C1961 1.379 . S
H1963 C1957 0.959 . S
H1964 C1957 0.961 . S
H1965 C1957 0.960 . S
H1966 C1958 0.930 . S
H1967 C1959 0.929 . S
C537 N5 1.304 . S
C556 N14 1.299 . S
C573 N38 1.305 . S
C592 N47 1.287 . S
C609 N80 1.307 . S
C628 N71 1.319 . S
C645 N113 1.304 . S
C664 N104 1.315 . S
C681 N137 1.305 . S
C700 N146 1.307 . S
C717 N179 1.308 . S
C736 N170 1.318 . S
C753 N212 1.309 . S
C772 N203 1.309 . S
C789 N245 1.302 . S
C808 N236 1.295 . S
C825 N269 1.310 . S
C844 N278 1.309 . S
C861 N302 1.304 . S
C880 N311 1.296 . S
C897 N335 1.310 . S
C916 N344 1.303 . S
C933 N368 1.307 . S
C952 N377 1.287 . S
C969 N410 1.304 . S
C988 N401 1.316 . S
C1005 N443 1.309 . S
C1024 N434 1.308 . S
C1041 N476 1.305 . S
C1060 N467 1.317 . S
C1077 N509 1.308 . S
C1096 N500 1.318 . S
C1113 C8 1.259 . S
C1132 C503 1.277 . S
C1149 C404 1.261 . S
C1168 C41 1.271 . S
C1185 C437 1.258 . S
C1204 C74 1.279 . S
C1221 C470 1.259 . S
C1240 C107 1.276 . S
C1257 C305 1.261 . S
C1276 C140 1.269 . S
C1293 C173 1.259 . S
C1312 C338 1.278 . S
C1329 C206 1.266 . S
C1348 C371 1.246 . S
C1365 C272 1.261 . S
C1384 C239 1.270 . S
C1401 C28 0.969 . S
C1420 C160 0.965 . S
C1437 C193 0.969 . S
C1456 C61 0.964 . S
C1473 C94 0.967 . S
C1492 C226 0.968 . S
C1509 C259 0.969 . S
C1528 C127 0.963 . S
C1545 C424 0.969 . S
C1564 C292 0.962 . S
C1581 C325 0.969 . S
C1600 C457 0.963 . S
C1617 C358 0.969 . S
C1636 C490 0.964 . S
C1653 C391 0.967 . S
C1672 C523 0.969 . S
C1689 C17 1.504 . S
C1708 C182 1.496 . S
C1725 C50 1.502 . S
C1744 C215 1.495 . S
C1761 C248 1.504 . S
C1780 C83 1.494 . S
C1797 C116 1.503 . S
C1816 C149 1.501 . S
C1833 C446 1.500 . S
C1852 C281 1.501 . S
C1869 C314 1.505 . S
C1888 C479 1.484 . S
C1905 C512 1.499 . S
C1924 C347 1.508 . S
C1941 C413 1.505 . S
C1960 C380 1.485 . S
