# Generated by pormake.
# Topology zfe, (5)-cn, num edge types: 1
# Building blocks:
#     Node 0, Type 0, BuildingBlock: BEQFEK_clean_sbu_0, # of connection points: 5
#     Node 1, Type 0, BuildingBlock: BEQFEK_clean_sbu_0, # of connection points: 5
#     Node 2, Type 0, BuildingBlock: BEQFEK_clean_sbu_0, # of connection points: 5
#     Node 3, Type 0, BuildingBlock: BEQFEK_clean_sbu_0, # of connection points: 5
#     Node 4, Type 0, BuildingBlock: BEQFEK_clean_sbu_0, # of connection points: 5
#     Node 5, Type 0, BuildingBlock: BEQFEK_clean_sbu_0, # of connection points: 5
#     Node 6, Type 0, BuildingBlock: BEQFEK_clean_sbu_0, # of connection points: 5
#     Node 7, Type 0, BuildingBlock: BEQFEK_clean_sbu_0, # of connection points: 5
#     Node 8, Type 0, BuildingBlock: BEQFEK_clean_sbu_0, # of connection points: 5
#     Node 9, Type 0, BuildingBlock: BEQFEK_clean_sbu_0, # of connection points: 5
#     Node 10, Type 0, BuildingBlock: BEQFEK_clean_sbu_0, # of connection points: 5
#     Node 11, Type 0, BuildingBlock: BEQFEK_clean_sbu_0, # of connection points: 5
#     Node 12, Type 0, BuildingBlock: BEQFEK_clean_sbu_0, # of connection points: 5
#     Node 13, Type 0, BuildingBlock: BEQFEK_clean_sbu_0, # of connection points: 5
#     Node 14, Type 0, BuildingBlock: BEQFEK_clean_sbu_0, # of connection points: 5
#     Node 15, Type 0, BuildingBlock: BEQFEK_clean_sbu_0, # of connection points: 5
#     Edge 16, Type (0, 0), None
#     Edge 17, Type (0, 0), None
#     Edge 18, Type (0, 0), None
#     Edge 19, Type (0, 0), None
#     Edge 20, Type (0, 0), None
#     Edge 21, Type (0, 0), None
#     Edge 22, Type (0, 0), None
#     Edge 23, Type (0, 0), None
#     Edge 24, Type (0, 0), None
#     Edge 25, Type (0, 0), None
#     Edge 26, Type (0, 0), None
#     Edge 27, Type (0, 0), None
#     Edge 28, Type (0, 0), None
#     Edge 29, Type (0, 0), None
#     Edge 30, Type (0, 0), None
#     Edge 31, Type (0, 0), None
#     Edge 32, Type (0, 0), None
#     Edge 33, Type (0, 0), None
#     Edge 34, Type (0, 0), None
#     Edge 35, Type (0, 0), None
#     Edge 36, Type (0, 0), None
#     Edge 37, Type (0, 0), None
#     Edge 38, Type (0, 0), None
#     Edge 39, Type (0, 0), None
#     Edge 40, Type (0, 0), None
#     Edge 41, Type (0, 0), None
#     Edge 42, Type (0, 0), None
#     Edge 43, Type (0, 0), None
#     Edge 44, Type (0, 0), None
#     Edge 45, Type (0, 0), None
#     Edge 46, Type (0, 0), None
#     Edge 47, Type (0, 0), None
#     Edge 48, Type (0, 0), None
#     Edge 49, Type (0, 0), None
#     Edge 50, Type (0, 0), None
#     Edge 51, Type (0, 0), None
#     Edge 52, Type (0, 0), None
#     Edge 53, Type (0, 0), None
#     Edge 54, Type (0, 0), None
#     Edge 55, Type (0, 0), None
# Relax obj value: 0.096
# Max RMSD: 0.103
# Mean RMSD: 0.103
data_MOF--net-zfe--node1-BEQFEK_clean_sbu_0--edge1-none
_symmetry_space_group_name_H-M    P1
_symmetry_Int_Tables_number       1
_symmetry_cell_setting            triclinic
loop_
_symmetry_equiv_pos_as_xyz
'x, y, z'
_cell_length_a     31.261335
_cell_length_b     31.261338
_cell_length_c     14.511067
_cell_angle_alpha  89.999491
_cell_angle_beta   90.000173
_cell_angle_gamma 90.000006
loop_
_atom_site_label
_atom_site_type_symbol
_atom_site_fract_x
_atom_site_fract_y
_atom_site_fract_z
_atom_type_partial_charge
Co0 Co 0.98837 0.14326 0.08893 0.0
Co1 Co 0.05867 0.21489 0.09569 0.0
C2 C -0.00105 0.20377 0.25263 0.0
O3 O 0.98264 0.17267 0.20834 0.0
O4 O 0.03027 0.22528 0.21967 0.0
C5 C 0.90169 0.11244 0.09744 0.0
O6 O 0.89201 0.15176 0.12149 0.0
C7 C 0.11943 0.2896 0.09692 0.0
C8 C 0.1583 0.2717 0.97557 0.0
C9 C 0.15317 0.30297 0.04164 0.0
N10 N 0.10419 0.25266 0.06261 0.0
N11 N 0.12797 0.24211 0.9907 0.0
C12 C 0.10318 0.31056 0.18253 0.0
H13 H 0.068 0.3064 0.18767 0.0
H14 H 0.11156 0.34508 0.18343 0.0
H15 H 0.11803 0.29488 0.24323 0.0
C16 C 0.97478 0.17971 0.90599 0.0
N17 N 0.99114 0.1823 0.99138 0.0
N18 N 0.01869 0.21411 0.9952 0.0
C19 C 0.01922 0.23379 0.91218 0.0
C20 C 0.99256 0.2119 0.85274 0.0
C21 C 0.9474 0.14346 0.87328 0.0
H22 H 0.96384 0.11268 0.88741 0.0
H23 H 0.91694 0.14352 0.91238 0.0
H24 H 0.94006 0.146 0.79865 0.0
O25 O 0.04032 0.10827 0.08816 0.0
O26 O 0.08952 0.15898 0.1019 0.0
H27 H 0.07657 0.2589 0.85289 0.0
H28 H 0.03038 0.2911 0.83427 0.0
C29 C 0.04692 0.27084 0.88594 0.0
H30 H 0.05463 0.29068 0.94694 0.0
H31 H 0.12359 0.21428 0.95208 0.0
O32 O 0.94005 0.10288 0.07751 0.0
C33 C 0.0791 0.11977 0.09554 0.0
Co34 Co 0.84528 0.98837 0.08894 0.0
Co35 Co 0.77364 0.05867 0.09569 0.0
C36 C 0.78477 -0.00105 0.25263 0.0
O37 O 0.81587 0.98264 0.20834 0.0
O38 O 0.76325 0.03027 0.21967 0.0
C39 C 0.8761 0.90168 0.09745 0.0
O40 O 0.83677 0.89201 0.1215 0.0
C41 C 0.69894 0.11943 0.09692 0.0
C42 C 0.71684 0.1583 0.97558 0.0
C43 C 0.68557 0.15317 0.04164 0.0
N44 N 0.73587 0.10419 0.06261 0.0
N45 N 0.74643 0.12797 0.9907 0.0
C46 C 0.67798 0.10318 0.18254 0.0
H47 H 0.68214 0.068 0.18767 0.0
H48 H 0.64346 0.11156 0.18345 0.0
H49 H 0.69366 0.11803 0.24324 0.0
C50 C 0.80882 0.97478 0.90599 0.0
N51 N 0.80623 0.99114 0.99139 0.0
N52 N 0.77443 0.01869 0.9952 0.0
C53 C 0.75475 0.01922 0.91219 0.0
C54 C 0.77664 0.99256 0.85274 0.0
C55 C 0.84508 0.9474 0.87328 0.0
H56 H 0.87586 0.96384 0.88741 0.0
H57 H 0.84502 0.91694 0.91238 0.0
H58 H 0.84254 0.94006 0.79866 0.0
O59 O 0.88027 0.04032 0.08816 0.0
O60 O 0.82956 0.08952 0.1019 0.0
H61 H 0.72964 0.07656 0.8529 0.0
H62 H 0.69743 0.03038 0.83428 0.0
C63 C 0.71769 0.04692 0.88595 0.0
H64 H 0.69786 0.05463 0.94695 0.0
H65 H 0.77425 0.12359 0.95208 0.0
O66 O 0.88566 0.94005 0.07752 0.0
C67 C 0.86876 0.0791 0.09553 0.0
Co68 Co 0.00017 0.84528 0.08895 0.0
Co69 Co 0.92987 0.77364 0.0957 0.0
C70 C 0.98958 0.78477 0.25264 0.0
O71 O 0.0059 0.81587 0.20836 0.0
O72 O 0.95826 0.76325 0.21969 0.0
C73 C 0.08685 0.8761 0.09746 0.0
O74 O 0.09653 0.83677 0.12151 0.0
C75 C 0.86911 0.69894 0.09693 0.0
C76 C 0.83024 0.71684 0.97558 0.0
C77 C 0.83537 0.68557 0.04164 0.0
N78 N 0.88434 0.73587 0.06262 0.0
N79 N 0.86057 0.74643 0.99071 0.0
C80 C 0.88535 0.67798 0.18255 0.0
H81 H 0.92053 0.68214 0.18769 0.0
H82 H 0.87698 0.64346 0.18345 0.0
H83 H 0.8705 0.69365 0.24324 0.0
C84 C 0.01376 0.80882 0.906 0.0
N85 N -0.0026 0.80624 0.9914 0.0
N86 N 0.96985 0.77443 0.99521 0.0
C87 C 0.96932 0.75475 0.9122 0.0
C88 C -0.00402 0.77664 0.85275 0.0
C89 C 0.04114 0.84508 0.8733 0.0
H90 H 0.0247 0.87586 0.88742 0.0
H91 H 0.0716 0.84502 0.91239 0.0
H92 H 0.04847 0.84254 0.79867 0.0
O93 O 0.94822 0.88027 0.08817 0.0
O94 O 0.89902 0.82956 0.1019 0.0
H95 H 0.91198 0.72964 0.85291 0.0
H96 H 0.95816 0.69743 0.8343 0.0
C97 C 0.94162 0.71769 0.88596 0.0
H98 H 0.93391 0.69786 0.94696 0.0
H99 H 0.86495 0.77425 0.95208 0.0
O100 O 0.04849 0.88566 0.07753 0.0
C101 C 0.90943 0.86876 0.09554 0.0
Co102 Co 0.14326 0.00017 0.08894 0.0
Co103 Co 0.21489 0.92987 0.0957 0.0
C104 C 0.20377 0.98958 0.25264 0.0
O105 O 0.17267 0.0059 0.20835 0.0
O106 O 0.22528 0.95826 0.21968 0.0
C107 C 0.11244 0.08685 0.09745 0.0
O108 O 0.15176 0.09653 0.1215 0.0
C109 C 0.2896 0.86911 0.09692 0.0
C110 C 0.2717 0.83024 0.97558 0.0
C111 C 0.30297 0.83536 0.04164 0.0
N112 N 0.25266 0.88434 0.06262 0.0
N113 N 0.24211 0.86057 0.99071 0.0
C114 C 0.31056 0.88535 0.18254 0.0
H115 H 0.3064 0.92053 0.18769 0.0
H116 H 0.34508 0.87698 0.18343 0.0
H117 H 0.29489 0.87049 0.24324 0.0
C118 C 0.17971 0.01376 0.906 0.0
N119 N 0.1823 -0.0026 0.99139 0.0
N120 N 0.21411 0.96985 0.99521 0.0
C121 C 0.23379 0.96932 0.91219 0.0
C122 C 0.2119 -0.00402 0.85275 0.0
C123 C 0.14346 0.04114 0.87329 0.0
H124 H 0.11268 0.0247 0.88742 0.0
H125 H 0.14352 0.0716 0.91239 0.0
H126 H 0.146 0.04847 0.79867 0.0
O127 O 0.10827 0.94822 0.08817 0.0
O128 O 0.15898 0.89902 0.10191 0.0
H129 H 0.2589 0.91197 0.85291 0.0
H130 H 0.2911 0.95816 0.83429 0.0
C131 C 0.27084 0.94162 0.88596 0.0
H132 H 0.29068 0.93391 0.94695 0.0
H133 H 0.21428 0.86495 0.95209 0.0
O134 O 0.10288 0.04849 0.07752 0.0
C135 C 0.11977 0.90943 0.09555 0.0
Co136 Co 0.98836 0.84526 0.51552 0.0
Co137 Co 0.05867 0.77363 0.50856 0.0
C138 C -0.00112 0.78475 0.35179 0.0
O139 O 0.98259 0.81585 0.39611 0.0
O140 O 0.03024 0.76324 0.38464 0.0
C141 C 0.90168 0.8761 0.50693 0.0
O142 O 0.89201 0.8368 0.4827 0.0
C143 C 0.11943 0.69893 0.50723 0.0
C144 C 0.15836 0.71684 0.62847 0.0
C145 C 0.1532 0.68556 0.56245 0.0
N146 N 0.10422 0.73587 0.54154 0.0
N147 N 0.12803 0.74644 0.61338 0.0
C148 C 0.10313 0.67794 0.42169 0.0
H149 H 0.06795 0.68211 0.41663 0.0
H150 H 0.11149 0.64342 0.42083 0.0
H151 H 0.11796 0.69359 0.36093 0.0
C152 C 0.97496 0.80885 0.69858 0.0
N153 N 0.9912 0.80622 0.61307 0.0
N154 N 0.01873 0.77439 0.60912 0.0
C155 C 0.01936 0.75472 0.69215 0.0
C156 C 0.99286 0.7767 0.75175 0.0
C157 C 0.94763 0.84511 0.7314 0.0
H158 H 0.96413 0.87587 0.71745 0.0
H159 H 0.91719 0.84515 0.69224 0.0
H160 H 0.94027 0.84251 0.806 0.0
O161 O 0.04031 0.88027 0.51624 0.0
O162 O 0.0895 0.82956 0.50237 0.0
H163 H 0.07671 0.72952 0.75123 0.0
H164 H 0.0305 0.69736 0.7699 0.0
C165 C 0.04704 0.71762 0.71823 0.0
H166 H 0.05468 0.6978 0.65717 0.0
H167 H 0.12367 0.77427 0.652 0.0
O168 O 0.94003 0.88564 0.52702 0.0
C169 C 0.07909 0.86876 0.50881 0.0
Co170 Co 0.14328 0.98836 0.51552 0.0
Co171 Co 0.21491 0.05867 0.50855 0.0
C172 C 0.20379 -0.00112 0.35179 0.0
O173 O 0.17269 0.98259 0.3961 0.0
O174 O 0.22529 0.03024 0.38463 0.0
C175 C 0.11244 0.90168 0.50692 0.0
O176 O 0.15174 0.89201 0.4827 0.0
C177 C 0.28961 0.11943 0.50723 0.0
C178 C 0.27169 0.15836 0.62847 0.0
C179 C 0.30297 0.1532 0.56245 0.0
N180 N 0.25267 0.10422 0.54154 0.0
N181 N 0.2421 0.12803 0.61338 0.0
C182 C 0.3106 0.10313 0.42169 0.0
H183 H 0.30642 0.06796 0.41662 0.0
H184 H 0.34512 0.11149 0.42084 0.0
H185 H 0.29496 0.11797 0.36093 0.0
C186 C 0.17969 0.97496 0.69857 0.0
N187 N 0.18232 0.9912 0.61307 0.0
N188 N 0.21415 0.01873 0.60912 0.0
C189 C 0.23381 0.01936 0.69215 0.0
C190 C 0.21183 0.99286 0.75174 0.0
C191 C 0.14343 0.94763 0.7314 0.0
H192 H 0.11266 0.96413 0.71745 0.0
H193 H 0.14338 0.91719 0.69223 0.0
H194 H 0.14603 0.94027 0.806 0.0
O195 O 0.10827 0.04031 0.51623 0.0
O196 O 0.15898 0.0895 0.50236 0.0
H197 H 0.25902 0.07671 0.75122 0.0
H198 H 0.29118 0.0305 0.76989 0.0
C199 C 0.27091 0.04703 0.71822 0.0
H200 H 0.29074 0.05468 0.65716 0.0
H201 H 0.21427 0.12367 0.65199 0.0
O202 O 0.10289 0.94003 0.52701 0.0
C203 C 0.11977 0.07909 0.5088 0.0
Co204 Co 0.00018 0.14328 0.51551 0.0
Co205 Co 0.92987 0.21491 0.50855 0.0
C206 C 0.98965 0.20379 0.35178 0.0
O207 O 0.00595 0.17269 0.39609 0.0
O208 O 0.9583 0.22529 0.38462 0.0
C209 C 0.08686 0.11244 0.50692 0.0
O210 O 0.09653 0.15174 0.48269 0.0
C211 C 0.8691 0.28961 0.50722 0.0
C212 C 0.83018 0.27169 0.62847 0.0
C213 C 0.83534 0.30297 0.56245 0.0
N214 N 0.88432 0.25267 0.54153 0.0
N215 N 0.86051 0.2421 0.61337 0.0
C216 C 0.8854 0.3106 0.42168 0.0
H217 H 0.92058 0.30642 0.4166 0.0
H218 H 0.87705 0.34512 0.42083 0.0
H219 H 0.87056 0.29496 0.36092 0.0
C220 C 0.01358 0.17969 0.69856 0.0
N221 N -0.00266 0.18232 0.61306 0.0
N222 N 0.96981 0.21415 0.60911 0.0
C223 C 0.96918 0.23381 0.69213 0.0
C224 C -0.00432 0.21183 0.75173 0.0
C225 C 0.0409 0.14342 0.73139 0.0
H226 H 0.0244 0.11266 0.71744 0.0
H227 H 0.07135 0.14338 0.69222 0.0
H228 H 0.04827 0.14603 0.80599 0.0
O229 O 0.94823 0.10827 0.51623 0.0
O230 O 0.89903 0.15898 0.50236 0.0
H231 H 0.91183 0.25902 0.75121 0.0
H232 H 0.95805 0.29118 0.76988 0.0
C233 C 0.9415 0.27092 0.71821 0.0
H234 H 0.93386 0.29074 0.65715 0.0
H235 H 0.86487 0.21427 0.65199 0.0
O236 O 0.0485 0.10289 0.527 0.0
C237 C 0.90944 0.11977 0.5088 0.0
Co238 Co 0.84526 0.00018 0.51551 0.0
Co239 Co 0.77363 0.92987 0.50855 0.0
C240 C 0.78475 0.98965 0.35178 0.0
O241 O 0.81585 0.00595 0.3961 0.0
O242 O 0.76324 0.9583 0.38463 0.0
C243 C 0.8761 0.08686 0.50692 0.0
O244 O 0.8368 0.09652 0.48269 0.0
C245 C 0.69893 0.8691 0.50722 0.0
C246 C 0.71684 0.83018 0.62847 0.0
C247 C 0.68556 0.83534 0.56245 0.0
N248 N 0.73587 0.88432 0.54153 0.0
N249 N 0.74644 0.86051 0.61338 0.0
C250 C 0.67794 0.8854 0.42168 0.0
H251 H 0.68212 0.92058 0.41661 0.0
H252 H 0.64342 0.87704 0.42082 0.0
H253 H 0.69359 0.87057 0.36092 0.0
C254 C 0.80885 0.01358 0.69857 0.0
N255 N 0.80622 -0.00266 0.61306 0.0
N256 N 0.77439 0.96981 0.60911 0.0
C257 C 0.75472 0.96918 0.69214 0.0
C258 C 0.7767 -0.00432 0.75174 0.0
C259 C 0.84511 0.0409 0.73139 0.0
H260 H 0.87588 0.0244 0.71744 0.0
H261 H 0.84515 0.07135 0.69222 0.0
H262 H 0.84251 0.04827 0.80599 0.0
O263 O 0.88027 0.94823 0.51624 0.0
O264 O 0.82956 0.89903 0.50237 0.0
H265 H 0.72951 0.91183 0.75122 0.0
H266 H 0.69736 0.95805 0.76988 0.0
C267 C 0.71762 0.9415 0.71821 0.0
H268 H 0.6978 0.93386 0.65715 0.0
H269 H 0.77427 0.86487 0.652 0.0
O270 O 0.88564 0.0485 0.52701 0.0
C271 C 0.86876 0.90944 0.50881 0.0
Co272 Co 0.48837 0.64326 0.58886 0.0
Co273 Co 0.55867 0.71489 0.59568 0.0
C274 C 0.49895 0.70373 0.75261 0.0
O275 O 0.48264 0.67264 0.70831 0.0
O276 O 0.53027 0.72525 0.71966 0.0
C277 C 0.40169 0.61244 0.59734 0.0
O278 O 0.39201 0.65176 0.62141 0.0
C279 C 0.61943 0.78957 0.59724 0.0
C280 C 0.65836 0.77177 0.47587 0.0
C281 C 0.65325 0.80293 0.54217 0.0
N282 N 0.60419 0.75267 0.56271 0.0
N283 N 0.62799 0.74218 0.4908 0.0
C284 C 0.60313 0.81047 0.68287 0.0
H285 H 0.56793 0.8064 0.68777 0.0
H286 H 0.61159 0.84497 0.68401 0.0
H287 H 0.61786 0.79468 0.74357 0.0
C288 C 0.47477 0.67976 0.40596 0.0
N289 N 0.49113 0.68233 0.49135 0.0
N290 N 0.51869 0.71413 0.49518 0.0
C291 C 0.51922 0.73382 0.41218 0.0
C292 C 0.49255 0.71194 0.35272 0.0
C293 C 0.44739 0.64351 0.37323 0.0
H294 H 0.46382 0.61273 0.38733 0.0
H295 H 0.41692 0.64357 0.41233 0.0
H296 H 0.44005 0.64606 0.29861 0.0
O297 O 0.54032 0.60827 0.58806 0.0
O298 O 0.58952 0.65898 0.60183 0.0
H299 H 0.57658 0.75891 0.3529 0.0
H300 H 0.5304 0.79114 0.33431 0.0
C301 C 0.54694 0.77087 0.38596 0.0
H302 H 0.55466 0.79069 0.44697 0.0
H303 H 0.62361 0.7144 0.45203 0.0
O304 O 0.44005 0.60288 0.57741 0.0
C305 C 0.57911 0.61977 0.59544 0.0
Co306 Co 0.34528 0.48837 0.58887 0.0
Co307 Co 0.27365 0.55867 0.59568 0.0
C308 C 0.28481 0.49895 0.75262 0.0
O309 O 0.3159 0.48264 0.70832 0.0
O310 O 0.26329 0.53027 0.71967 0.0
C311 C 0.3761 0.40169 0.59734 0.0
O312 O 0.33678 0.39201 0.62142 0.0
C313 C 0.19897 0.61943 0.59724 0.0
C314 C 0.21677 0.65836 0.47587 0.0
C315 C 0.18561 0.65325 0.54217 0.0
N316 N 0.23586 0.60419 0.56272 0.0
N317 N 0.24636 0.62799 0.4908 0.0
C318 C 0.17807 0.60313 0.68287 0.0
H319 H 0.18214 0.56793 0.68778 0.0
H320 H 0.14357 0.61159 0.68402 0.0
H321 H 0.19385 0.61786 0.74357 0.0
C322 C 0.30878 0.47477 0.40596 0.0
N323 N 0.30621 0.49113 0.49136 0.0
N324 N 0.27441 0.51869 0.49519 0.0
C325 C 0.25472 0.51922 0.41218 0.0
C326 C 0.27659 0.49255 0.35273 0.0
C327 C 0.34502 0.44739 0.37323 0.0
H328 H 0.37581 0.46382 0.38733 0.0
H329 H 0.34497 0.41692 0.41234 0.0
H330 H 0.34247 0.44005 0.29861 0.0
O331 O 0.38027 0.54032 0.58806 0.0
O332 O 0.32956 0.58952 0.60183 0.0
H333 H 0.22962 0.57658 0.35291 0.0
H334 H 0.19739 0.5304 0.33432 0.0
C335 C 0.21767 0.54694 0.38597 0.0
H336 H 0.19784 0.55466 0.44698 0.0
H337 H 0.27414 0.62361 0.45203 0.0
O338 O 0.38566 0.44005 0.57741 0.0
C339 C 0.36877 0.5791 0.59544 0.0
Co340 Co 0.50017 0.34528 0.58888 0.0
Co341 Co 0.42987 0.27365 0.5957 0.0
C342 C 0.48958 0.28481 0.75263 0.0
O343 O 0.5059 0.3159 0.70833 0.0
O344 O 0.45827 0.26329 0.71968 0.0
C345 C 0.58685 0.3761 0.59735 0.0
O346 O 0.59653 0.33678 0.62143 0.0
C347 C 0.3691 0.19897 0.59725 0.0
C348 C 0.33018 0.21677 0.47588 0.0
C349 C 0.33529 0.18561 0.54217 0.0
N350 N 0.38434 0.23586 0.56272 0.0
N351 N 0.36054 0.24636 0.49081 0.0
C352 C 0.3854 0.17807 0.68288 0.0
H353 H 0.4206 0.18215 0.6878 0.0
H354 H 0.37695 0.14357 0.68402 0.0
H355 H 0.37067 0.19385 0.74358 0.0
C356 C 0.51377 0.30878 0.40598 0.0
N357 N 0.49741 0.30621 0.49137 0.0
N358 N 0.46985 0.27441 0.4952 0.0
C359 C 0.46932 0.25472 0.4122 0.0
C360 C 0.49599 0.27659 0.35274 0.0
C361 C 0.54115 0.34502 0.37324 0.0
H362 H 0.52472 0.37581 0.38735 0.0
H363 H 0.57162 0.34497 0.41235 0.0
H364 H 0.54849 0.34247 0.29862 0.0
O365 O 0.44822 0.38027 0.58807 0.0
O366 O 0.39902 0.32956 0.60184 0.0
H367 H 0.41196 0.22962 0.35292 0.0
H368 H 0.45814 0.19739 0.33434 0.0
C369 C 0.4416 0.21767 0.38598 0.0
H370 H 0.43388 0.19784 0.44699 0.0
H371 H 0.36493 0.27414 0.45203 0.0
O372 O 0.54849 0.38566 0.57742 0.0
C373 C 0.40943 0.36877 0.59544 0.0
Co374 Co 0.64326 0.50017 0.58887 0.0
Co375 Co 0.71489 0.42987 0.59569 0.0
C376 C 0.70373 0.48958 0.75263 0.0
O377 O 0.67264 0.5059 0.70832 0.0
O378 O 0.72525 0.45827 0.71968 0.0
C379 C 0.61244 0.58685 0.59735 0.0
O380 O 0.65176 0.59653 0.62142 0.0
C381 C 0.78957 0.3691 0.59724 0.0
C382 C 0.77176 0.33018 0.47587 0.0
C383 C 0.80293 0.33529 0.54217 0.0
N384 N 0.75267 0.38434 0.56272 0.0
N385 N 0.74218 0.36054 0.49081 0.0
C386 C 0.81047 0.3854 0.68288 0.0
H387 H 0.80639 0.4206 0.68779 0.0
H388 H 0.84497 0.37695 0.68401 0.0
H389 H 0.79469 0.37067 0.74358 0.0
C390 C 0.67976 0.51377 0.40597 0.0
N391 N 0.68233 0.49741 0.49136 0.0
N392 N 0.71413 0.46985 0.49519 0.0
C393 C 0.73382 0.46932 0.41219 0.0
C394 C 0.71194 0.49599 0.35274 0.0
C395 C 0.64351 0.54115 0.37324 0.0
H396 H 0.61273 0.52472 0.38734 0.0
H397 H 0.64357 0.57162 0.41234 0.0
H398 H 0.64606 0.54849 0.29862 0.0
O399 O 0.60827 0.44822 0.58807 0.0
O400 O 0.65898 0.39902 0.60184 0.0
H401 H 0.75892 0.41196 0.35291 0.0
H402 H 0.79114 0.45814 0.33433 0.0
C403 C 0.77087 0.4416 0.38598 0.0
H404 H 0.79069 0.43388 0.44699 0.0
H405 H 0.7144 0.36493 0.45204 0.0
O406 O 0.60288 0.54849 0.57742 0.0
C407 C 0.61977 0.40943 0.59545 0.0
Co408 Co 0.48836 0.34526 0.01557 0.0
Co409 Co 0.55867 0.27363 0.00855 0.0
C410 C 0.49889 0.28479 0.85178 0.0
O411 O 0.48259 0.31588 0.89611 0.0
O412 O 0.53024 0.26328 0.88462 0.0
C413 C 0.40168 0.3761 0.00701 0.0
O414 O 0.39202 0.3368 0.98276 0.0
C415 C 0.61944 0.19896 0.00691 0.0
C416 C 0.65842 0.21679 0.12816 0.0
C417 C 0.65328 0.18561 0.06192 0.0
N418 N 0.60422 0.23586 0.04142 0.0
N419 N 0.62806 0.24637 0.11326 0.0
C420 C 0.60308 0.17802 0.92136 0.0
H421 H 0.56789 0.18213 0.91652 0.0
H422 H 0.61151 0.14352 0.92029 0.0
H423 H 0.6178 0.19376 0.86059 0.0
C424 C 0.47495 0.3088 0.19858 0.0
N425 N 0.49119 0.30619 0.11308 0.0
N426 N 0.51873 0.27437 0.10912 0.0
C427 C 0.51937 0.25469 0.19213 0.0
C428 C 0.49286 0.27666 0.25174 0.0
C429 C 0.44762 0.34506 0.23143 0.0
H430 H 0.46411 0.37583 0.21751 0.0
H431 H 0.41717 0.3451 0.19226 0.0
H432 H 0.44025 0.34244 0.30603 0.0
O433 O 0.54031 0.38027 0.01632 0.0
O434 O 0.58951 0.32956 1.00242 0.0
H435 H 0.57673 0.22951 0.2512 0.0
H436 H 0.53053 0.19733 0.26985 0.0
C437 C 0.54706 0.2176 0.21819 0.0
H438 H 0.55472 0.19779 0.15712 0.0
H439 H 0.62369 0.27416 0.15202 0.0
O440 O 0.44003 0.38564 0.0271 0.0
C441 C 0.57909 0.36877 0.00888 0.0
Co442 Co 0.64328 0.48836 0.01557 0.0
Co443 Co 0.7149 0.55867 0.00854 0.0
C444 C 0.70375 0.49889 0.85178 0.0
O445 O 0.67266 0.48259 0.89611 0.0
O446 O 0.72526 0.53024 0.88461 0.0
C447 C 0.61244 0.40168 0.00701 0.0
O448 O 0.65174 0.39202 0.98276 0.0
C449 C 0.78958 0.61944 0.00691 0.0
C450 C 0.77175 0.65842 0.12816 0.0
C451 C 0.80293 0.65328 0.06192 0.0
N452 N 0.75267 0.60422 0.04141 0.0
N453 N 0.74216 0.62806 0.11326 0.0
C454 C 0.81052 0.60308 0.92136 0.0
H455 H 0.80641 0.56789 0.91651 0.0
H456 H 0.84502 0.61151 0.9203 0.0
H457 H 0.79478 0.61781 0.86059 0.0
C458 C 0.67974 0.47495 0.19858 0.0
N459 N 0.68235 0.49119 0.11308 0.0
N460 N 0.71417 0.51873 0.10911 0.0
C461 C 0.73384 0.51937 0.19213 0.0
C462 C 0.71188 0.49285 0.25173 0.0
C463 C 0.64348 0.44762 0.23143 0.0
H464 H 0.61271 0.46411 0.21751 0.0
H465 H 0.64344 0.41717 0.19226 0.0
H466 H 0.6461 0.44025 0.30603 0.0
O467 O 0.60827 0.54031 0.01631 0.0
O468 O 0.65898 0.58951 1.00241 0.0
H469 H 0.75903 0.57673 0.25119 0.0
H470 H 0.79121 0.53053 0.26984 0.0
C471 C 0.77094 0.54706 0.21818 0.0
H472 H 0.79074 0.55471 0.15711 0.0
H473 H 0.71437 0.62369 0.15201 0.0
O474 O 0.6029 0.44004 0.0271 0.0
C475 C 0.61977 0.5791 0.00887 0.0
Co476 Co 0.50017 0.64328 0.01555 0.0
Co477 Co 0.42987 0.7149 0.00853 0.0
C478 C 0.48965 0.70375 0.85176 0.0
O479 O 0.50595 0.67266 0.8961 0.0
O480 O 0.4583 0.72526 0.8846 0.0
C481 C 0.58685 0.61244 0.00699 0.0
O482 O 0.59652 0.65174 0.98275 0.0
C483 C 0.3691 0.78958 0.0069 0.0
C484 C 0.33011 0.77174 0.12815 0.0
C485 C 0.33526 0.80293 0.06191 0.0
N486 N 0.38431 0.75267 0.0414 0.0
N487 N 0.36048 0.74216 0.11325 0.0
C488 C 0.38545 0.81052 0.92135 0.0
H489 H 0.42064 0.8064 0.91649 0.0
H490 H 0.37703 0.84502 0.9203 0.0
H491 H 0.37072 0.79479 0.86058 0.0
C492 C 0.51359 0.67974 0.19857 0.0
N493 N 0.49734 0.68235 0.11307 0.0
N494 N 0.4698 0.71417 0.1091 0.0
C495 C 0.46917 0.73384 0.19211 0.0
C496 C 0.49568 0.71188 0.25172 0.0
C497 C 0.54092 0.64348 0.23141 0.0
H498 H 0.52442 0.61271 0.21749 0.0
H499 H 0.57137 0.64344 0.19224 0.0
H500 H 0.54829 0.6461 0.30601 0.0
O501 O 0.44823 0.60827 0.01631 0.0
O502 O 0.39903 0.65898 1.0024 0.0
H503 H 0.41181 0.75903 0.25118 0.0
H504 H 0.45801 0.79121 0.26983 0.0
C505 C 0.44148 0.77094 0.21817 0.0
H506 H 0.43382 0.79075 0.1571 0.0
H507 H 0.36485 0.71437 0.15201 0.0
O508 O 0.5485 0.6029 0.02709 0.0
C509 C 0.40944 0.61977 0.00887 0.0
Co510 Co 0.34526 0.50017 0.01556 0.0
Co511 Co 0.27363 0.42987 0.00854 0.0
C512 C 0.28479 0.48965 0.85177 0.0
O513 O 0.31588 0.50595 0.8961 0.0
O514 O 0.26328 0.4583 0.88461 0.0
C515 C 0.3761 0.58685 0.007 0.0
O516 O 0.3368 0.59652 0.98275 0.0
C517 C 0.19896 0.3691 0.0069 0.0
C518 C 0.21679 0.33012 0.12816 0.0
C519 C 0.18561 0.33526 0.06192 0.0
N520 N 0.23586 0.38432 0.04141 0.0
N521 N 0.24637 0.36048 0.11326 0.0
C522 C 0.17802 0.38545 0.92135 0.0
H523 H 0.18213 0.42065 0.9165 0.0
H524 H 0.14352 0.37702 0.92028 0.0
H525 H 0.19376 0.37073 0.86058 0.0
C526 C 0.3088 0.51359 0.19857 0.0
N527 N 0.30619 0.49734 0.11307 0.0
N528 N 0.27437 0.4698 0.10911 0.0
C529 C 0.25469 0.46917 0.19212 0.0
C530 C 0.27666 0.49568 0.25173 0.0
C531 C 0.34506 0.54092 0.23142 0.0
H532 H 0.37583 0.52442 0.2175 0.0
H533 H 0.3451 0.57137 0.19225 0.0
H534 H 0.34244 0.54829 0.30602 0.0
O535 O 0.38027 0.44823 0.01632 0.0
O536 O 0.32956 0.39903 1.00241 0.0
H537 H 0.2295 0.41181 0.25119 0.0
H538 H 0.19733 0.45801 0.26983 0.0
C539 C 0.2176 0.44148 0.21817 0.0
H540 H 0.19779 0.43383 0.1571 0.0
H541 H 0.27416 0.36485 0.15202 0.0
O542 O 0.38564 0.5485 0.02709 0.0
C543 C 0.36877 0.40944 0.00888 0.0
loop_
_geom_bond_atom_site_label_1
_geom_bond_atom_site_label_2
_geom_bond_distance
_geom_bond_site_symmetry_2
_ccdc_geom_bond_type
Co0 O3 1.970 . S
Co0 N17 1.989 1_554 S
Co0 O25 1.967 1_655 S
Co0 O32 1.920 . S
Co1 O4 1.966 . S
Co1 N10 2.022 . S
Co1 N18 1.993 1_554 S
Co1 O26 1.941 . S
C2 O3 1.258 1_455 S
C2 O4 1.263 . S
O3 Co0 1.970 . S
O3 C2 1.258 1_655 S
O4 Co1 1.966 . S
O4 C2 1.263 . S
C5 O6 1.235 . S
C5 O32 1.289 . S
O6 C5 1.235 . S
C7 C9 1.400 . S
C7 N10 1.351 . S
C7 C12 1.501 . S
C8 C9 1.387 1_556 S
C8 N11 1.341 1_556 S
C9 C7 1.400 . S
C9 C8 1.387 1_554 S
N10 Co1 2.022 . S
N10 C7 1.351 . S
N10 N11 1.365 . S
N11 C8 1.341 1_554 S
N11 N10 1.365 . S
N11 H31 0.862 1_554 S
C12 C7 1.501 . S
C12 H13 0.961 . S
C12 H14 0.961 . S
C12 H15 0.960 . S
H13 C12 0.961 . S
H14 C12 0.961 . S
H15 C12 0.960 . S
C16 N17 1.342 . S
C16 C20 1.401 . S
C16 C21 1.499 . S
N17 Co0 1.989 1_556 S
N17 C16 1.342 . S
N17 N18 1.388 1_655 S
N18 Co1 1.993 1_556 S
N18 N17 1.388 1_455 S
N18 C19 1.346 . S
C19 N18 1.346 . S
C19 C20 1.396 1_455 S
C19 C29 1.510 . S
C20 C16 1.401 . S
C20 C19 1.396 1_655 S
C21 C16 1.499 . S
C21 H22 0.959 . S
C21 H23 0.960 . S
C21 H24 0.961 . S
H22 C21 0.959 . S
H23 C21 0.960 . S
H24 C21 0.961 . S
O25 Co0 1.967 1_455 S
O25 C33 1.258 . S
O26 Co1 1.941 . S
O26 C33 1.266 . S
H27 C29 0.959 . S
H28 C29 0.961 . S
C29 C19 1.510 . S
C29 H27 0.959 . S
C29 H28 0.961 . S
C29 H30 0.960 . S
H30 C29 0.960 . S
H31 N11 0.862 1_556 S
O32 Co0 1.920 . S
O32 C5 1.289 . S
C33 O25 1.258 . S
C33 O26 1.266 . S
Co34 O37 1.970 . S
Co34 N51 1.989 1_554 S
Co34 O59 1.967 1_565 S
Co34 O66 1.920 . S
Co35 O38 1.966 . S
Co35 N44 2.022 . S
Co35 N52 1.993 1_554 S
Co35 O60 1.941 . S
C36 O37 1.258 1_545 S
C36 O38 1.263 . S
O37 Co34 1.970 . S
O37 C36 1.258 1_565 S
O38 Co35 1.966 . S
O38 C36 1.263 . S
C39 O40 1.235 . S
C39 O66 1.289 . S
O40 C39 1.235 . S
C41 C43 1.400 . S
C41 N44 1.351 . S
C41 C46 1.501 . S
C42 C43 1.387 1_556 S
C42 N45 1.341 1_556 S
C43 C41 1.400 . S
C43 C42 1.387 1_554 S
N44 Co35 2.022 . S
N44 C41 1.351 . S
N44 N45 1.365 . S
N45 C42 1.341 1_554 S
N45 N44 1.365 . S
N45 H65 0.862 1_554 S
C46 C41 1.501 . S
C46 H47 0.961 . S
C46 H48 0.961 . S
C46 H49 0.960 . S
H47 C46 0.961 . S
H48 C46 0.961 . S
H49 C46 0.960 . S
C50 N51 1.342 . S
C50 C54 1.401 . S
C50 C55 1.499 . S
N51 Co34 1.989 1_556 S
N51 C50 1.342 . S
N51 N52 1.388 1_565 S
N52 Co35 1.993 1_556 S
N52 N51 1.388 1_545 S
N52 C53 1.346 . S
C53 N52 1.346 . S
C53 C54 1.396 1_545 S
C53 C63 1.510 . S
C54 C50 1.401 . S
C54 C53 1.396 1_565 S
C55 C50 1.499 . S
C55 H56 0.959 . S
C55 H57 0.960 . S
C55 H58 0.961 . S
H56 C55 0.959 . S
H57 C55 0.960 . S
H58 C55 0.961 . S
O59 Co34 1.967 1_545 S
O59 C67 1.258 . S
O60 Co35 1.941 . S
O60 C67 1.266 . S
H61 C63 0.959 . S
H62 C63 0.961 . S
C63 C53 1.510 . S
C63 H61 0.959 . S
C63 H62 0.961 . S
C63 H64 0.960 . S
H64 C63 0.960 . S
H65 N45 0.862 1_556 S
O66 Co34 1.920 . S
O66 C39 1.289 . S
C67 O59 1.258 . S
C67 O60 1.266 . S
Co68 O71 1.970 . S
Co68 N85 1.989 1_554 S
Co68 O93 1.967 1_455 S
Co68 O100 1.920 . S
Co69 O72 1.966 . S
Co69 N78 2.022 . S
Co69 N86 1.993 1_554 S
Co69 O94 1.941 . S
C70 O71 1.258 1_655 S
C70 O72 1.263 . S
O71 Co68 1.970 . S
O71 C70 1.258 1_455 S
O72 Co69 1.966 . S
O72 C70 1.263 . S
C73 O74 1.235 . S
C73 O100 1.289 . S
O74 C73 1.235 . S
C75 C77 1.400 . S
C75 N78 1.351 . S
C75 C80 1.501 . S
C76 C77 1.387 1_556 S
C76 N79 1.341 1_556 S
C77 C75 1.400 . S
C77 C76 1.387 1_554 S
N78 Co69 2.022 . S
N78 C75 1.351 . S
N78 N79 1.365 . S
N79 C76 1.341 1_554 S
N79 N78 1.365 . S
N79 H99 0.862 1_554 S
C80 C75 1.501 . S
C80 H81 0.961 . S
C80 H82 0.961 . S
C80 H83 0.960 . S
H81 C80 0.961 . S
H82 C80 0.961 . S
H83 C80 0.960 . S
C84 N85 1.342 . S
C84 C88 1.401 . S
C84 C89 1.499 . S
N85 Co68 1.989 1_556 S
N85 C84 1.342 . S
N85 N86 1.388 1_455 S
N86 Co69 1.993 1_556 S
N86 N85 1.388 1_655 S
N86 C87 1.346 . S
C87 N86 1.346 . S
C87 C88 1.396 1_655 S
C87 C97 1.510 . S
C88 C84 1.401 . S
C88 C87 1.396 1_455 S
C89 C84 1.499 . S
C89 H90 0.959 . S
C89 H91 0.960 . S
C89 H92 0.961 . S
H90 C89 0.959 . S
H91 C89 0.960 . S
H92 C89 0.961 . S
O93 Co68 1.967 1_655 S
O93 C101 1.258 . S
O94 Co69 1.941 . S
O94 C101 1.266 . S
H95 C97 0.959 . S
H96 C97 0.961 . S
C97 C87 1.510 . S
C97 H95 0.959 . S
C97 H96 0.961 . S
C97 H98 0.960 . S
H98 C97 0.960 . S
H99 N79 0.862 1_556 S
O100 Co68 1.920 . S
O100 C73 1.289 . S
C101 O93 1.258 . S
C101 O94 1.266 . S
Co102 O105 1.970 . S
Co102 N119 1.989 1_554 S
Co102 O127 1.967 1_545 S
Co102 O134 1.920 . S
Co103 O106 1.966 . S
Co103 N112 2.022 . S
Co103 N120 1.993 1_554 S
Co103 O128 1.941 . S
C104 O105 1.258 1_565 S
C104 O106 1.263 . S
O105 Co102 1.970 . S
O105 C104 1.258 1_545 S
O106 Co103 1.966 . S
O106 C104 1.263 . S
C107 O108 1.235 . S
C107 O134 1.289 . S
O108 C107 1.235 . S
C109 C111 1.400 . S
C109 N112 1.351 . S
C109 C114 1.501 . S
C110 C111 1.387 1_556 S
C110 N113 1.341 1_556 S
C111 C109 1.400 . S
C111 C110 1.387 1_554 S
N112 Co103 2.022 . S
N112 C109 1.351 . S
N112 N113 1.365 . S
N113 C110 1.341 1_554 S
N113 N112 1.365 . S
N113 H133 0.862 1_554 S
C114 C109 1.501 . S
C114 H115 0.961 . S
C114 H116 0.961 . S
C114 H117 0.960 . S
H115 C114 0.961 . S
H116 C114 0.961 . S
H117 C114 0.960 . S
C118 N119 1.342 . S
C118 C122 1.401 . S
C118 C123 1.499 . S
N119 Co102 1.989 1_556 S
N119 C118 1.342 . S
N119 N120 1.388 1_545 S
N120 Co103 1.993 1_556 S
N120 N119 1.388 1_565 S
N120 C121 1.346 . S
C121 N120 1.346 . S
C121 C122 1.396 1_565 S
C121 C131 1.510 . S
C122 C118 1.401 . S
C122 C121 1.396 1_545 S
C123 C118 1.499 . S
C123 H124 0.959 . S
C123 H125 0.960 . S
C123 H126 0.961 . S
H124 C123 0.959 . S
H125 C123 0.960 . S
H126 C123 0.961 . S
O127 Co102 1.967 1_565 S
O127 C135 1.258 . S
O128 Co103 1.941 . S
O128 C135 1.266 . S
H129 C131 0.959 . S
H130 C131 0.961 . S
C131 C121 1.510 . S
C131 H129 0.959 . S
C131 H130 0.961 . S
C131 H132 0.960 . S
H132 C131 0.960 . S
H133 N113 0.862 1_556 S
O134 Co102 1.920 . S
O134 C107 1.289 . S
C135 O127 1.258 . S
C135 O128 1.266 . S
Co136 O139 1.970 . S
Co136 N153 1.989 . S
Co136 O161 1.967 1_655 S
Co136 O168 1.920 . S
Co137 O140 1.966 . S
Co137 N146 2.022 . S
Co137 N154 1.993 . S
Co137 O162 1.941 . S
C138 O139 1.258 1_455 S
C138 O140 1.263 . S
O139 Co136 1.970 . S
O139 C138 1.258 1_655 S
O140 Co137 1.966 . S
O140 C138 1.263 . S
C141 O142 1.235 . S
C141 O168 1.289 . S
O142 C141 1.235 . S
C143 C145 1.400 . S
C143 N146 1.351 . S
C143 C148 1.501 . S
C144 C145 1.387 . S
C144 N147 1.341 . S
C145 C143 1.400 . S
C145 C144 1.387 . S
N146 Co137 2.022 . S
N146 C143 1.351 . S
N146 N147 1.365 . S
N147 C144 1.341 . S
N147 N146 1.365 . S
N147 H167 0.862 . S
C148 C143 1.501 . S
C148 H149 0.961 . S
C148 H150 0.961 . S
C148 H151 0.960 . S
H149 C148 0.961 . S
H150 C148 0.961 . S
H151 C148 0.960 . S
C152 N153 1.342 . S
C152 C156 1.401 . S
C152 C157 1.499 . S
N153 Co136 1.989 . S
N153 C152 1.342 . S
N153 N154 1.388 1_655 S
N154 Co137 1.993 . S
N154 N153 1.388 1_455 S
N154 C155 1.346 . S
C155 N154 1.346 . S
C155 C156 1.396 1_455 S
C155 C165 1.510 . S
C156 C152 1.401 . S
C156 C155 1.396 1_655 S
C157 C152 1.499 . S
C157 H158 0.959 . S
C157 H159 0.960 . S
C157 H160 0.961 . S
H158 C157 0.959 . S
H159 C157 0.960 . S
H160 C157 0.961 . S
O161 Co136 1.967 1_455 S
O161 C169 1.258 . S
O162 Co137 1.941 . S
O162 C169 1.266 . S
H163 C165 0.959 . S
H164 C165 0.961 . S
C165 C155 1.510 . S
C165 H163 0.959 . S
C165 H164 0.961 . S
C165 H166 0.960 . S
H166 C165 0.960 . S
H167 N147 0.862 . S
O168 Co136 1.920 . S
O168 C141 1.289 . S
C169 O161 1.258 . S
C169 O162 1.266 . S
Co170 O173 1.970 . S
Co170 N187 1.989 . S
Co170 O195 1.967 1_565 S
Co170 O202 1.920 . S
Co171 O174 1.966 . S
Co171 N180 2.022 . S
Co171 N188 1.993 . S
Co171 O196 1.941 . S
C172 O173 1.258 1_545 S
C172 O174 1.263 . S
O173 Co170 1.970 . S
O173 C172 1.258 1_565 S
O174 Co171 1.966 . S
O174 C172 1.263 . S
C175 O176 1.235 . S
C175 O202 1.289 . S
O176 C175 1.235 . S
C177 C179 1.400 . S
C177 N180 1.351 . S
C177 C182 1.501 . S
C178 C179 1.387 . S
C178 N181 1.341 . S
C179 C177 1.400 . S
C179 C178 1.387 . S
N180 Co171 2.022 . S
N180 C177 1.351 . S
N180 N181 1.365 . S
N181 C178 1.341 . S
N181 N180 1.365 . S
N181 H201 0.862 . S
C182 C177 1.501 . S
C182 H183 0.961 . S
C182 H184 0.961 . S
C182 H185 0.960 . S
H183 C182 0.961 . S
H184 C182 0.961 . S
H185 C182 0.960 . S
C186 N187 1.342 . S
C186 C190 1.401 . S
C186 C191 1.499 . S
N187 Co170 1.989 . S
N187 C186 1.342 . S
N187 N188 1.388 1_565 S
N188 Co171 1.993 . S
N188 N187 1.388 1_545 S
N188 C189 1.346 . S
C189 N188 1.346 . S
C189 C190 1.396 1_545 S
C189 C199 1.510 . S
C190 C186 1.401 . S
C190 C189 1.396 1_565 S
C191 C186 1.499 . S
C191 H192 0.959 . S
C191 H193 0.960 . S
C191 H194 0.961 . S
H192 C191 0.959 . S
H193 C191 0.960 . S
H194 C191 0.961 . S
O195 Co170 1.967 1_545 S
O195 C203 1.258 . S
O196 Co171 1.941 . S
O196 C203 1.266 . S
H197 C199 0.959 . S
H198 C199 0.961 . S
C199 C189 1.510 . S
C199 H197 0.959 . S
C199 H198 0.961 . S
C199 H200 0.960 . S
H200 C199 0.960 . S
H201 N181 0.862 . S
O202 Co170 1.920 . S
O202 C175 1.289 . S
C203 O195 1.258 . S
C203 O196 1.266 . S
Co204 O207 1.970 . S
Co204 N221 1.989 . S
Co204 O229 1.967 1_455 S
Co204 O236 1.920 . S
Co205 O208 1.966 . S
Co205 N214 2.022 . S
Co205 N222 1.993 . S
Co205 O230 1.941 . S
C206 O207 1.258 1_655 S
C206 O208 1.263 . S
O207 Co204 1.970 . S
O207 C206 1.258 1_455 S
O208 Co205 1.966 . S
O208 C206 1.263 . S
C209 O210 1.235 . S
C209 O236 1.289 . S
O210 C209 1.235 . S
C211 C213 1.400 . S
C211 N214 1.351 . S
C211 C216 1.501 . S
C212 C213 1.387 . S
C212 N215 1.341 . S
C213 C211 1.400 . S
C213 C212 1.387 . S
N214 Co205 2.022 . S
N214 C211 1.351 . S
N214 N215 1.365 . S
N215 C212 1.341 . S
N215 N214 1.365 . S
N215 H235 0.862 . S
C216 C211 1.501 . S
C216 H217 0.961 . S
C216 H218 0.961 . S
C216 H219 0.960 . S
H217 C216 0.961 . S
H218 C216 0.961 . S
H219 C216 0.960 . S
C220 N221 1.342 . S
C220 C224 1.401 . S
C220 C225 1.499 . S
N221 Co204 1.989 . S
N221 C220 1.342 . S
N221 N222 1.388 1_455 S
N222 Co205 1.993 . S
N222 N221 1.388 1_655 S
N222 C223 1.346 . S
C223 N222 1.346 . S
C223 C224 1.396 1_655 S
C223 C233 1.510 . S
C224 C220 1.401 . S
C224 C223 1.396 1_455 S
C225 C220 1.499 . S
C225 H226 0.959 . S
C225 H227 0.960 . S
C225 H228 0.961 . S
H226 C225 0.959 . S
H227 C225 0.960 . S
H228 C225 0.961 . S
O229 Co204 1.967 1_655 S
O229 C237 1.258 . S
O230 Co205 1.941 . S
O230 C237 1.266 . S
H231 C233 0.959 . S
H232 C233 0.961 . S
C233 C223 1.510 . S
C233 H231 0.959 . S
C233 H232 0.961 . S
C233 H234 0.960 . S
H234 C233 0.960 . S
H235 N215 0.862 . S
O236 Co204 1.920 . S
O236 C209 1.289 . S
C237 O229 1.258 . S
C237 O230 1.266 . S
Co238 O241 1.970 . S
Co238 N255 1.989 . S
Co238 O263 1.967 1_545 S
Co238 O270 1.920 . S
Co239 O242 1.966 . S
Co239 N248 2.022 . S
Co239 N256 1.993 . S
Co239 O264 1.941 . S
C240 O241 1.258 1_565 S
C240 O242 1.263 . S
O241 Co238 1.970 . S
O241 C240 1.258 1_545 S
O242 Co239 1.966 . S
O242 C240 1.263 . S
C243 O244 1.235 . S
C243 O270 1.289 . S
O244 C243 1.235 . S
C245 C247 1.400 . S
C245 N248 1.351 . S
C245 C250 1.501 . S
C246 C247 1.387 . S
C246 N249 1.341 . S
C247 C245 1.400 . S
C247 C246 1.387 . S
N248 Co239 2.022 . S
N248 C245 1.351 . S
N248 N249 1.365 . S
N249 C246 1.341 . S
N249 N248 1.365 . S
N249 H269 0.862 . S
C250 C245 1.501 . S
C250 H251 0.961 . S
C250 H252 0.961 . S
C250 H253 0.960 . S
H251 C250 0.961 . S
H252 C250 0.961 . S
H253 C250 0.960 . S
C254 N255 1.342 . S
C254 C258 1.401 . S
C254 C259 1.499 . S
N255 Co238 1.989 . S
N255 C254 1.342 . S
N255 N256 1.388 1_545 S
N256 Co239 1.993 . S
N256 N255 1.388 1_565 S
N256 C257 1.346 . S
C257 N256 1.346 . S
C257 C258 1.396 1_565 S
C257 C267 1.510 . S
C258 C254 1.401 . S
C258 C257 1.396 1_545 S
C259 C254 1.499 . S
C259 H260 0.959 . S
C259 H261 0.960 . S
C259 H262 0.961 . S
H260 C259 0.959 . S
H261 C259 0.960 . S
H262 C259 0.961 . S
O263 Co238 1.967 1_565 S
O263 C271 1.258 . S
O264 Co239 1.941 . S
O264 C271 1.266 . S
H265 C267 0.959 . S
H266 C267 0.961 . S
C267 C257 1.510 . S
C267 H265 0.959 . S
C267 H266 0.961 . S
C267 H268 0.960 . S
H268 C267 0.960 . S
H269 N249 0.862 . S
O270 Co238 1.920 . S
O270 C243 1.289 . S
C271 O263 1.258 . S
C271 O264 1.266 . S
Co272 O275 1.970 . S
Co272 N289 1.989 . S
Co272 O297 1.967 . S
Co272 O304 1.920 . S
Co273 O276 1.966 . S
Co273 N282 2.022 . S
Co273 N290 1.993 . S
Co273 O298 1.941 . S
C274 O275 1.258 . S
C274 O276 1.263 . S
O275 Co272 1.970 . S
O275 C274 1.258 . S
O276 Co273 1.966 . S
O276 C274 1.263 . S
C277 O278 1.235 . S
C277 O304 1.289 . S
O278 C277 1.235 . S
C279 C281 1.400 . S
C279 N282 1.351 . S
C279 C284 1.501 . S
C280 C281 1.387 . S
C280 N283 1.341 . S
C281 C279 1.400 . S
C281 C280 1.387 . S
N282 Co273 2.022 . S
N282 C279 1.351 . S
N282 N283 1.365 . S
N283 C280 1.341 . S
N283 N282 1.365 . S
N283 H303 0.862 . S
C284 C279 1.501 . S
C284 H285 0.961 . S
C284 H286 0.961 . S
C284 H287 0.960 . S
H285 C284 0.961 . S
H286 C284 0.961 . S
H287 C284 0.960 . S
C288 N289 1.342 . S
C288 C292 1.401 . S
C288 C293 1.499 . S
N289 Co272 1.989 . S
N289 C288 1.342 . S
N289 N290 1.388 . S
N290 Co273 1.993 . S
N290 N289 1.388 . S
N290 C291 1.346 . S
C291 N290 1.346 . S
C291 C292 1.396 . S
C291 C301 1.510 . S
C292 C288 1.401 . S
C292 C291 1.396 . S
C293 C288 1.499 . S
C293 H294 0.959 . S
C293 H295 0.960 . S
C293 H296 0.961 . S
H294 C293 0.959 . S
H295 C293 0.960 . S
H296 C293 0.961 . S
O297 Co272 1.967 . S
O297 C305 1.258 . S
O298 Co273 1.941 . S
O298 C305 1.266 . S
H299 C301 0.959 . S
H300 C301 0.961 . S
C301 C291 1.510 . S
C301 H299 0.959 . S
C301 H300 0.961 . S
C301 H302 0.960 . S
H302 C301 0.960 . S
H303 N283 0.862 . S
O304 Co272 1.920 . S
O304 C277 1.289 . S
C305 O297 1.258 . S
C305 O298 1.266 . S
Co306 O309 1.970 . S
Co306 N323 1.989 . S
Co306 O331 1.967 . S
Co306 O338 1.920 . S
Co307 O310 1.966 . S
Co307 N316 2.022 . S
Co307 N324 1.993 . S
Co307 O332 1.941 . S
C308 O309 1.258 . S
C308 O310 1.263 . S
O309 Co306 1.970 . S
O309 C308 1.258 . S
O310 Co307 1.966 . S
O310 C308 1.263 . S
C311 O312 1.235 . S
C311 O338 1.289 . S
O312 C311 1.235 . S
C313 C315 1.400 . S
C313 N316 1.351 . S
C313 C318 1.501 . S
C314 C315 1.387 . S
C314 N317 1.341 . S
C315 C313 1.400 . S
C315 C314 1.387 . S
N316 Co307 2.022 . S
N316 C313 1.351 . S
N316 N317 1.365 . S
N317 C314 1.341 . S
N317 N316 1.365 . S
N317 H337 0.862 . S
C318 C313 1.501 . S
C318 H319 0.961 . S
C318 H320 0.961 . S
C318 H321 0.960 . S
H319 C318 0.961 . S
H320 C318 0.961 . S
H321 C318 0.960 . S
C322 N323 1.342 . S
C322 C326 1.401 . S
C322 C327 1.499 . S
N323 Co306 1.989 . S
N323 C322 1.342 . S
N323 N324 1.388 . S
N324 Co307 1.993 . S
N324 N323 1.388 . S
N324 C325 1.346 . S
C325 N324 1.346 . S
C325 C326 1.396 . S
C325 C335 1.510 . S
C326 C322 1.401 . S
C326 C325 1.396 . S
C327 C322 1.499 . S
C327 H328 0.959 . S
C327 H329 0.960 . S
C327 H330 0.961 . S
H328 C327 0.959 . S
H329 C327 0.960 . S
H330 C327 0.961 . S
O331 Co306 1.967 . S
O331 C339 1.258 . S
O332 Co307 1.941 . S
O332 C339 1.266 . S
H333 C335 0.959 . S
H334 C335 0.961 . S
C335 C325 1.510 . S
C335 H333 0.959 . S
C335 H334 0.961 . S
C335 H336 0.960 . S
H336 C335 0.960 . S
H337 N317 0.862 . S
O338 Co306 1.920 . S
O338 C311 1.289 . S
C339 O331 1.258 . S
C339 O332 1.266 . S
Co340 O343 1.970 . S
Co340 N357 1.989 . S
Co340 O365 1.967 . S
Co340 O372 1.920 . S
Co341 O344 1.966 . S
Co341 N350 2.022 . S
Co341 N358 1.993 . S
Co341 O366 1.941 . S
C342 O343 1.258 . S
C342 O344 1.263 . S
O343 Co340 1.970 . S
O343 C342 1.258 . S
O344 Co341 1.966 . S
O344 C342 1.263 . S
C345 O346 1.235 . S
C345 O372 1.289 . S
O346 C345 1.235 . S
C347 C349 1.400 . S
C347 N350 1.351 . S
C347 C352 1.501 . S
C348 C349 1.387 . S
C348 N351 1.341 . S
C349 C347 1.400 . S
C349 C348 1.387 . S
N350 Co341 2.022 . S
N350 C347 1.351 . S
N350 N351 1.365 . S
N351 C348 1.341 . S
N351 N350 1.365 . S
N351 H371 0.862 . S
C352 C347 1.501 . S
C352 H353 0.961 . S
C352 H354 0.961 . S
C352 H355 0.960 . S
H353 C352 0.961 . S
H354 C352 0.961 . S
H355 C352 0.960 . S
C356 N357 1.342 . S
C356 C360 1.401 . S
C356 C361 1.499 . S
N357 Co340 1.989 . S
N357 C356 1.342 . S
N357 N358 1.388 . S
N358 Co341 1.993 . S
N358 N357 1.388 . S
N358 C359 1.346 . S
C359 N358 1.346 . S
C359 C360 1.396 . S
C359 C369 1.510 . S
C360 C356 1.401 . S
C360 C359 1.396 . S
C361 C356 1.499 . S
C361 H362 0.959 . S
C361 H363 0.960 . S
C361 H364 0.961 . S
H362 C361 0.959 . S
H363 C361 0.960 . S
H364 C361 0.961 . S
O365 Co340 1.967 . S
O365 C373 1.258 . S
O366 Co341 1.941 . S
O366 C373 1.266 . S
H367 C369 0.959 . S
H368 C369 0.961 . S
C369 C359 1.510 . S
C369 H367 0.959 . S
C369 H368 0.961 . S
C369 H370 0.960 . S
H370 C369 0.960 . S
H371 N351 0.862 . S
O372 Co340 1.920 . S
O372 C345 1.289 . S
C373 O365 1.258 . S
C373 O366 1.266 . S
Co374 O377 1.970 . S
Co374 N391 1.989 . S
Co374 O399 1.967 . S
Co374 O406 1.920 . S
Co375 O378 1.966 . S
Co375 N384 2.022 . S
Co375 N392 1.993 . S
Co375 O400 1.941 . S
C376 O377 1.258 . S
C376 O378 1.263 . S
O377 Co374 1.970 . S
O377 C376 1.258 . S
O378 Co375 1.966 . S
O378 C376 1.263 . S
C379 O380 1.235 . S
C379 O406 1.289 . S
O380 C379 1.235 . S
C381 C383 1.400 . S
C381 N384 1.351 . S
C381 C386 1.501 . S
C382 C383 1.387 . S
C382 N385 1.341 . S
C383 C381 1.400 . S
C383 C382 1.387 . S
N384 Co375 2.022 . S
N384 C381 1.351 . S
N384 N385 1.365 . S
N385 C382 1.341 . S
N385 N384 1.365 . S
N385 H405 0.862 . S
C386 C381 1.501 . S
C386 H387 0.961 . S
C386 H388 0.961 . S
C386 H389 0.960 . S
H387 C386 0.961 . S
H388 C386 0.961 . S
H389 C386 0.960 . S
C390 N391 1.342 . S
C390 C394 1.401 . S
C390 C395 1.499 . S
N391 Co374 1.989 . S
N391 C390 1.342 . S
N391 N392 1.388 . S
N392 Co375 1.993 . S
N392 N391 1.388 . S
N392 C393 1.346 . S
C393 N392 1.346 . S
C393 C394 1.396 . S
C393 C403 1.510 . S
C394 C390 1.401 . S
C394 C393 1.396 . S
C395 C390 1.499 . S
C395 H396 0.959 . S
C395 H397 0.960 . S
C395 H398 0.961 . S
H396 C395 0.959 . S
H397 C395 0.960 . S
H398 C395 0.961 . S
O399 Co374 1.967 . S
O399 C407 1.258 . S
O400 Co375 1.941 . S
O400 C407 1.266 . S
H401 C403 0.959 . S
H402 C403 0.961 . S
C403 C393 1.510 . S
C403 H401 0.959 . S
C403 H402 0.961 . S
C403 H404 0.960 . S
H404 C403 0.960 . S
H405 N385 0.862 . S
O406 Co374 1.920 . S
O406 C379 1.289 . S
C407 O399 1.258 . S
C407 O400 1.266 . S
Co408 O411 1.970 . S
Co408 N425 1.989 1_556 S
Co408 O433 1.967 . S
Co408 O440 1.920 1_556 S
Co409 O412 1.966 1_554 S
Co409 N418 2.022 . S
Co409 N426 1.993 . S
Co409 O434 1.941 1_554 S
C410 O411 1.258 . S
C410 O412 1.263 . S
O411 Co408 1.970 . S
O411 C410 1.258 . S
O412 Co409 1.966 1_556 S
O412 C410 1.263 . S
C413 O414 1.235 1_554 S
C413 O440 1.289 . S
O414 C413 1.235 1_556 S
C415 C417 1.400 1_556 S
C415 N418 1.351 1_556 S
C415 C420 1.501 . S
C416 C417 1.387 . S
C416 N419 1.341 . S
C417 C415 1.400 1_554 S
C417 C416 1.387 . S
N418 Co409 2.022 . S
N418 C415 1.351 1_554 S
N418 N419 1.365 . S
N419 C416 1.341 . S
N419 N418 1.365 . S
N419 H439 0.862 . S
C420 C415 1.501 . S
C420 H421 0.961 . S
C420 H422 0.961 . S
C420 H423 0.960 . S
H421 C420 0.961 . S
H422 C420 0.961 . S
H423 C420 0.960 . S
C424 N425 1.342 . S
C424 C428 1.401 . S
C424 C429 1.499 . S
N425 Co408 1.989 1_554 S
N425 C424 1.342 . S
N425 N426 1.388 . S
N426 Co409 1.993 . S
N426 N425 1.388 . S
N426 C427 1.346 . S
C427 N426 1.346 . S
C427 C428 1.396 . S
C427 C437 1.510 . S
C428 C424 1.401 . S
C428 C427 1.396 . S
C429 C424 1.499 . S
C429 H430 0.959 . S
C429 H431 0.960 . S
C429 H432 0.961 . S
H430 C429 0.959 . S
H431 C429 0.960 . S
H432 C429 0.961 . S
O433 Co408 1.967 . S
O433 C441 1.258 . S
O434 Co409 1.941 1_556 S
O434 C441 1.266 . S
H435 C437 0.959 . S
H436 C437 0.961 . S
C437 C427 1.510 . S
C437 H435 0.959 . S
C437 H436 0.961 . S
C437 H438 0.960 . S
H438 C437 0.960 . S
H439 N419 0.862 . S
O440 Co408 1.920 1_554 S
O440 C413 1.289 . S
C441 O433 1.258 . S
C441 O434 1.266 . S
Co442 O445 1.970 . S
Co442 N459 1.989 1_556 S
Co442 O467 1.967 . S
Co442 O474 1.920 1_556 S
Co443 O446 1.966 1_554 S
Co443 N452 2.022 . S
Co443 N460 1.993 . S
Co443 O468 1.941 1_554 S
C444 O445 1.258 . S
C444 O446 1.263 . S
O445 Co442 1.970 . S
O445 C444 1.258 . S
O446 Co443 1.966 1_556 S
O446 C444 1.263 . S
C447 O448 1.235 1_554 S
C447 O474 1.289 . S
O448 C447 1.235 1_556 S
C449 C451 1.400 1_556 S
C449 N452 1.351 1_556 S
C449 C454 1.501 . S
C450 C451 1.387 . S
C450 N453 1.341 . S
C451 C449 1.400 1_554 S
C451 C450 1.387 . S
N452 Co443 2.022 . S
N452 C449 1.351 1_554 S
N452 N453 1.365 . S
N453 C450 1.341 . S
N453 N452 1.365 . S
N453 H473 0.862 . S
C454 C449 1.501 . S
C454 H455 0.961 . S
C454 H456 0.961 . S
C454 H457 0.960 . S
H455 C454 0.961 . S
H456 C454 0.961 . S
H457 C454 0.960 . S
C458 N459 1.342 . S
C458 C462 1.401 . S
C458 C463 1.499 . S
N459 Co442 1.989 1_554 S
N459 C458 1.342 . S
N459 N460 1.388 . S
N460 Co443 1.993 . S
N460 N459 1.388 . S
N460 C461 1.346 . S
C461 N460 1.346 . S
C461 C462 1.396 . S
C461 C471 1.510 . S
C462 C458 1.401 . S
C462 C461 1.396 . S
C463 C458 1.499 . S
C463 H464 0.959 . S
C463 H465 0.960 . S
C463 H466 0.961 . S
H464 C463 0.959 . S
H465 C463 0.960 . S
H466 C463 0.961 . S
O467 Co442 1.967 . S
O467 C475 1.258 . S
O468 Co443 1.941 1_556 S
O468 C475 1.266 . S
H469 C471 0.959 . S
H470 C471 0.961 . S
C471 C461 1.510 . S
C471 H469 0.959 . S
C471 H470 0.961 . S
C471 H472 0.960 . S
H472 C471 0.960 . S
H473 N453 0.862 . S
O474 Co442 1.920 1_554 S
O474 C447 1.289 . S
C475 O467 1.258 . S
C475 O468 1.266 . S
Co476 O479 1.970 . S
Co476 N493 1.989 1_556 S
Co476 O501 1.967 . S
Co476 O508 1.920 1_556 S
Co477 O480 1.966 1_554 S
Co477 N486 2.022 . S
Co477 N494 1.993 . S
Co477 O502 1.941 1_554 S
C478 O479 1.258 . S
C478 O480 1.263 . S
O479 Co476 1.970 . S
O479 C478 1.258 . S
O480 Co477 1.966 1_556 S
O480 C478 1.263 . S
C481 O482 1.235 1_554 S
C481 O508 1.289 . S
O482 C481 1.235 1_556 S
C483 C485 1.400 1_556 S
C483 N486 1.351 1_556 S
C483 C488 1.501 . S
C484 C485 1.387 . S
C484 N487 1.341 . S
C485 C483 1.400 1_554 S
C485 C484 1.387 . S
N486 Co477 2.022 . S
N486 C483 1.351 1_554 S
N486 N487 1.365 . S
N487 C484 1.341 . S
N487 N486 1.365 . S
N487 H507 0.862 . S
C488 C483 1.501 . S
C488 H489 0.961 . S
C488 H490 0.961 . S
C488 H491 0.960 . S
H489 C488 0.961 . S
H490 C488 0.961 . S
H491 C488 0.960 . S
C492 N493 1.342 . S
C492 C496 1.401 . S
C492 C497 1.499 . S
N493 Co476 1.989 1_554 S
N493 C492 1.342 . S
N493 N494 1.388 . S
N494 Co477 1.993 . S
N494 N493 1.388 . S
N494 C495 1.346 . S
C495 N494 1.346 . S
C495 C496 1.396 . S
C495 C505 1.510 . S
C496 C492 1.401 . S
C496 C495 1.396 . S
C497 C492 1.499 . S
C497 H498 0.959 . S
C497 H499 0.960 . S
C497 H500 0.961 . S
H498 C497 0.959 . S
H499 C497 0.960 . S
H500 C497 0.961 . S
O501 Co476 1.967 . S
O501 C509 1.258 . S
O502 Co477 1.941 1_556 S
O502 C509 1.266 . S
H503 C505 0.959 . S
H504 C505 0.961 . S
C505 C495 1.510 . S
C505 H503 0.959 . S
C505 H504 0.961 . S
C505 H506 0.960 . S
H506 C505 0.960 . S
H507 N487 0.862 . S
O508 Co476 1.920 1_554 S
O508 C481 1.289 . S
C509 O501 1.258 . S
C509 O502 1.266 . S
Co510 O513 1.970 . S
Co510 N527 1.989 1_556 S
Co510 O535 1.967 . S
Co510 O542 1.920 1_556 S
Co511 O514 1.966 1_554 S
Co511 N520 2.022 . S
Co511 N528 1.993 . S
Co511 O536 1.941 1_554 S
C512 O513 1.258 . S
C512 O514 1.263 . S
O513 Co510 1.970 . S
O513 C512 1.258 . S
O514 Co511 1.966 1_556 S
O514 C512 1.263 . S
C515 O516 1.235 1_554 S
C515 O542 1.289 . S
O516 C515 1.235 1_556 S
C517 C519 1.400 1_556 S
C517 N520 1.351 1_556 S
C517 C522 1.501 . S
C518 C519 1.387 . S
C518 N521 1.341 . S
C519 C517 1.400 1_554 S
C519 C518 1.387 . S
N520 Co511 2.022 . S
N520 C517 1.351 1_554 S
N520 N521 1.365 . S
N521 C518 1.341 . S
N521 N520 1.365 . S
N521 H541 0.862 . S
C522 C517 1.501 . S
C522 H523 0.961 . S
C522 H524 0.961 . S
C522 H525 0.960 . S
H523 C522 0.961 . S
H524 C522 0.961 . S
H525 C522 0.960 . S
C526 N527 1.342 . S
C526 C530 1.401 . S
C526 C531 1.499 . S
N527 Co510 1.989 1_554 S
N527 C526 1.342 . S
N527 N528 1.388 . S
N528 Co511 1.993 . S
N528 N527 1.388 . S
N528 C529 1.346 . S
C529 N528 1.346 . S
C529 C530 1.396 . S
C529 C539 1.510 . S
C530 C526 1.401 . S
C530 C529 1.396 . S
C531 C526 1.499 . S
C531 H532 0.959 . S
C531 H533 0.960 . S
C531 H534 0.961 . S
H532 C531 0.959 . S
H533 C531 0.960 . S
H534 C531 0.961 . S
O535 Co510 1.967 . S
O535 C543 1.258 . S
O536 Co511 1.941 1_556 S
O536 C543 1.266 . S
H537 C539 0.959 . S
H538 C539 0.961 . S
C539 C529 1.510 . S
C539 H537 0.959 . S
C539 H538 0.961 . S
C539 H540 0.960 . S
H540 C539 0.960 . S
H541 N521 0.862 . S
O542 Co510 1.920 1_554 S
O542 C515 1.289 . S
C543 O535 1.258 . S
C543 O536 1.266 . S
C9 C519 1.267 . S
C43 C417 1.267 . S
C451 C77 1.267 . S
C111 C485 1.267 . S
C145 C315 1.267 . S
C349 C179 1.267 . S
C383 C213 1.267 . S
C281 C247 1.267 . S
C107 C33 1.664 . S
C5 C67 1.664 . S
C101 C39 1.664 . S
C135 C73 1.664 . S
C175 C169 1.664 . S
C209 C203 1.664 . S
C243 C237 1.664 . S
C141 C271 1.664 . S
C379 C305 1.664 . S
C339 C277 1.664 . S
C311 C373 1.664 . S
C345 C407 1.664 . S
C447 C441 1.664 1_554 S
C481 C475 1.664 1_554 S
C515 C509 1.664 1_554 S
C413 C543 1.664 1_554 S
C206 C2 1.418 1_655 S
C240 C36 1.417 1_565 S
C70 C138 1.417 1_655 S
C172 C104 1.417 1_545 S
C88 C156 1.712 1_455 S
C190 C122 1.712 1_565 S
C20 C224 1.712 1_655 S
C258 C54 1.712 1_545 S
C478 C274 1.418 . S
C512 C308 1.418 . S
C410 C342 1.418 . S
C376 C444 1.418 . S
C428 C360 1.712 . S
C394 C462 1.712 . S
C292 C496 1.712 . S
C530 C326 1.712 . S
