# Generated by pormake.
# Topology umx, (4)-cn, num edge types: 1
# Building blocks:
#     Node 0, Type 0, BuildingBlock: TATPOV_clean_sbu_0, # of connection points: 4
#     Node 1, Type 0, BuildingBlock: TATPOV_clean_sbu_0, # of connection points: 4
#     Node 2, Type 0, BuildingBlock: TATPOV_clean_sbu_0, # of connection points: 4
#     Node 3, Type 0, BuildingBlock: TATPOV_clean_sbu_0, # of connection points: 4
#     Node 4, Type 0, BuildingBlock: TATPOV_clean_sbu_0, # of connection points: 4
#     Node 5, Type 0, BuildingBlock: TATPOV_clean_sbu_0, # of connection points: 4
#     Node 6, Type 0, BuildingBlock: TATPOV_clean_sbu_0, # of connection points: 4
#     Node 7, Type 0, BuildingBlock: TATPOV_clean_sbu_0, # of connection points: 4
#     Edge 8, Type (0, 0), BuildingBlock: ZUJKAS_clean_linker_0, # of connection points: 2
#     Edge 9, Type (0, 0), BuildingBlock: ZUJKAS_clean_linker_0, # of connection points: 2
#     Edge 10, Type (0, 0), BuildingBlock: ZUJKAS_clean_linker_0, # of connection points: 2
#     Edge 11, Type (0, 0), BuildingBlock: ZUJKAS_clean_linker_0, # of connection points: 2
#     Edge 12, Type (0, 0), BuildingBlock: ZUJKAS_clean_linker_0, # of connection points: 2
#     Edge 13, Type (0, 0), BuildingBlock: ZUJKAS_clean_linker_0, # of connection points: 2
#     Edge 14, Type (0, 0), BuildingBlock: ZUJKAS_clean_linker_0, # of connection points: 2
#     Edge 15, Type (0, 0), BuildingBlock: ZUJKAS_clean_linker_0, # of connection points: 2
#     Edge 16, Type (0, 0), BuildingBlock: ZUJKAS_clean_linker_0, # of connection points: 2
#     Edge 17, Type (0, 0), BuildingBlock: ZUJKAS_clean_linker_0, # of connection points: 2
#     Edge 18, Type (0, 0), BuildingBlock: ZUJKAS_clean_linker_0, # of connection points: 2
#     Edge 19, Type (0, 0), BuildingBlock: ZUJKAS_clean_linker_0, # of connection points: 2
#     Edge 20, Type (0, 0), BuildingBlock: ZUJKAS_clean_linker_0, # of connection points: 2
#     Edge 21, Type (0, 0), BuildingBlock: ZUJKAS_clean_linker_0, # of connection points: 2
#     Edge 22, Type (0, 0), BuildingBlock: ZUJKAS_clean_linker_0, # of connection points: 2
#     Edge 23, Type (0, 0), BuildingBlock: ZUJKAS_clean_linker_0, # of connection points: 2
# Relax obj value: 0.240
# Max RMSD: 0.305
# Mean RMSD: 0.304
data_MOF--net-umx--node1-TATPOV_clean_sbu_0--edge1-ZUJKAS_clean_linker_0
_symmetry_space_group_name_H-M    P1
_symmetry_Int_Tables_number       1
_symmetry_cell_setting            triclinic
loop_
_symmetry_equiv_pos_as_xyz
'x, y, z'
_cell_length_a     49.160386
_cell_length_b     49.11859
_cell_length_c     35.820618
_cell_angle_alpha  90.102079
_cell_angle_beta   90.011603
_cell_angle_gamma 90.060667
loop_
_atom_site_label
_atom_site_type_symbol
_atom_site_fract_x
_atom_site_fract_y
_atom_site_fract_z
_atom_type_partial_charge
Zn0 Zn 0.19262 0.52609 0.01294 0.0
Zn1 Zn 0.19749 0.47095 0.01303 0.0
O2 O 0.22274 0.48382 0.97124 0.0
O3 O 0.2237 0.52849 0.97611 0.0
O4 O 0.20504 0.43054 0.01626 0.0
O5 O 0.20026 0.52689 0.06846 0.0
O6 O 0.20926 0.48301 0.06489 0.0
C7 C 0.23217 0.50678 0.961 0.0
C8 C 0.14281 0.49701 -0.00533 0.0
O9 O 0.15645 0.47579 0.00304 0.0
O10 O 0.15403 0.52025 -0.0055 0.0
C11 C 0.21284 0.41603 -0.01115 0.0
O12 O 0.2135 0.42681 0.95533 0.0
C13 C 0.20847 0.50507 0.08345 0.0
Zn14 Zn 0.48721 0.19289 0.49778 0.0
Zn15 Zn 0.54174 0.20001 0.5104 0.0
O16 O 0.53375 0.22243 0.46379 0.0
O17 O 0.4894 0.2203 0.45581 0.0
O18 O 0.58127 0.20885 0.52077 0.0
O19 O 0.47954 0.20562 0.55063 0.0
O20 O 0.52319 0.21519 0.55666 0.0
C21 C 0.51243 0.22947 0.44614 0.0
C22 C 0.51916 0.14317 0.49363 0.0
O23 O 0.53889 0.15823 0.50423 0.0
O24 O 0.49591 0.15333 0.48744 0.0
C25 C 0.59825 0.21361 0.4948 0.0
O26 O 0.59068 0.21015 0.45993 0.0
C27 C 0.49903 0.21557 0.56932 0.0
Zn28 Zn 0.80155 0.48411 0.00848 0.0
Zn29 Zn 0.79692 0.53907 0.01239 0.0
O30 O 0.77215 0.52797 0.96897 0.0
O31 O 0.77111 0.48319 0.97064 0.0
O32 O 0.78978 0.5794 0.01823 0.0
O33 O 0.79305 0.48123 0.06358 0.0
O34 O 0.78445 0.52524 0.06312 0.0
C35 C 0.76287 0.50541 0.95683 0.0
C36 C 0.85173 0.51337 -0.00649 0.0
O37 O 0.83806 0.53435 0.00297 0.0
O38 O 0.84043 0.49021 -0.00847 0.0
C39 C 0.78306 0.59501 -0.00851 0.0
O40 O 0.78312 0.58542 0.95723 0.0
C41 C 0.78483 0.50251 0.08002 0.0
Zn42 Zn 0.53247 0.79664 0.49315 0.0
Zn43 Zn 0.47706 0.79753 0.50433 0.0
O44 O 0.48255 0.77513 0.45675 0.0
O45 O 0.52688 0.7708 0.45008 0.0
O46 O 0.43684 0.79301 0.51476 0.0
O47 O 0.53798 0.78079 0.54456 0.0
O48 O 0.49346 0.78087 0.55107 0.0
C49 C 0.50293 0.76534 0.43944 0.0
C50 C 0.50699 0.85083 0.49092 0.0
O51 O 0.48503 0.83837 0.49919 0.0
O52 O 0.5289 0.8377 0.48581 0.0
C53 C 0.41931 0.78917 0.48915 0.0
O54 O 0.42688 0.79122 0.45409 0.0
C55 C 0.51702 0.77545 0.56373 0.0
Zn56 Zn 0.20514 0.4783 0.55118 0.0
Zn57 Zn 0.20999 0.53338 0.54077 0.0
O58 O 0.2348 0.52435 0.58465 0.0
O59 O 0.23425 0.47983 0.59114 0.0
O60 O 0.21744 0.57348 0.53339 0.0
O61 O 0.2151 0.47306 0.49659 0.0
O62 O 0.22238 0.51723 0.49151 0.0
C63 C 0.24321 0.50295 0.60091 0.0
C64 C 0.15468 0.50855 0.56028 0.0
O65 O 0.16877 0.52899 0.54978 0.0
O66 O 0.16575 0.4855 0.56487 0.0
C67 C 0.22037 0.58964 0.5609 0.0
O68 O 0.21578 0.58057 0.59481 0.0
C69 C 0.22267 0.49341 0.47756 0.0
Zn70 Zn 0.52843 0.20558 0.01948 0.0
Zn71 Zn 0.47325 0.20963 0.02221 0.0
O72 O 0.48643 0.23215 0.06677 0.0
O73 O 0.53109 0.23257 0.06194 0.0
O74 O 0.43285 0.21702 0.02083 0.0
O75 O 0.52866 0.21882 0.96635 0.0
O76 O 0.48437 0.22455 0.97126 0.0
C77 C 0.50958 0.24023 0.0783 0.0
C78 C 0.50001 0.15399 0.03129 0.0
O79 O 0.47838 0.16817 0.02808 0.0
O80 O 0.52314 0.16537 0.02976 0.0
C81 C 0.41795 0.2207 0.0494 0.0
O82 O 0.42845 0.21719 0.08278 0.0
C83 C 0.50627 0.22657 0.95256 0.0
Zn84 Zn 0.81245 0.52933 0.54202 0.0
Zn85 Zn 0.80704 0.47386 0.53525 0.0
O86 O 0.78256 0.48457 0.5788 0.0
O87 O 0.78406 0.52928 0.58294 0.0
O88 O 0.7992 0.43361 0.53003 0.0
O89 O 0.80125 0.5328 0.48761 0.0
O90 O 0.79375 0.48853 0.48562 0.0
C91 C 0.77474 0.50664 0.59401 0.0
C92 C 0.86268 0.49897 0.55263 0.0
O93 O 0.84841 0.47821 0.54376 0.0
O94 O 0.85184 0.52229 0.55532 0.0
C95 C 0.79549 0.41837 0.55825 0.0
O96 O 0.79957 0.42841 0.59181 0.0
C97 C 0.7931 0.51183 0.47026 0.0
Zn98 Zn 0.47498 0.80798 0.00908 0.0
Zn99 Zn 0.53113 0.8075 0.01817 0.0
O100 O 0.51639 0.7829 0.05891 0.0
O101 O 0.47169 0.78308 0.05405 0.0
O102 O 0.57185 0.80248 0.02159 0.0
O103 O 0.48009 0.79119 0.95761 0.0
O104 O 0.52435 0.79246 0.96656 0.0
C105 C 0.49316 0.77484 0.06998 0.0
C106 C 0.50044 0.86142 0.02266 0.0
O107 O 0.52275 0.84822 0.02439 0.0
O108 O 0.47823 0.84901 0.01643 0.0
C109 C 0.58439 0.796 0.05133 0.0
O110 O 0.57102 0.79557 0.08308 0.0
C111 C 0.50403 0.78655 0.94619 0.0
H112 H 0.24978 0.47702 0.11578 0.0
H113 H 0.26068 0.47458 0.1824 0.0
H114 H 0.19334 0.52819 0.20668 0.0
H115 H 0.18388 0.5323 0.13997 0.0
H116 H 0.23268 0.54081 0.24887 0.0
H117 H 0.22242 0.42849 0.25504 0.0
H118 H 0.24909 0.43914 0.22429 0.0
H119 H 0.21426 0.44758 0.21368 0.0
C120 C 0.23754 0.48843 0.13549 0.0
C121 C 0.21595 0.50474 0.12307 0.0
C122 C 0.24357 0.48681 0.1735 0.0
C123 C 0.22734 0.50052 0.19972 0.0
C124 C 0.20612 0.51732 0.18706 0.0
H125 H 0.19642 0.46172 0.42726 0.0
H126 H 0.20161 0.46276 0.35948 0.0
C127 C 0.20069 0.51967 0.149 0.0
C128 C 0.23203 0.4974 0.24037 0.0
H129 H 0.23677 0.45052 0.31026 0.0
C130 C 0.23353 0.52105 0.26231 0.0
C131 C 0.23293 0.47159 0.25792 0.0
C132 C 0.22931 0.44529 0.23657 0.0
C133 C 0.23476 0.51972 0.30133 0.0
C134 C 0.2363 0.49392 0.31885 0.0
C135 C 0.23586 0.47027 0.2968 0.0
C136 C 0.23563 0.49093 0.36001 0.0
C137 C 0.23275 0.54601 0.32314 0.0
C138 C 0.25366 0.50551 0.38299 0.0
C139 C 0.25005 0.50566 0.42164 0.0
C140 C 0.2292 0.49017 0.43788 0.0
C141 C 0.21271 0.47372 0.41524 0.0
C142 C 0.21569 0.47434 0.37655 0.0
H143 H 0.22392 0.56267 0.30606 0.0
H144 H 0.21998 0.54348 0.34845 0.0
H145 H 0.25341 0.55253 0.33187 0.0
H146 H 0.2699 0.51755 0.37101 0.0
H147 H 0.26318 0.51824 0.43879 0.0
H148 H 0.46986 0.19289 0.62527 0.0
H149 H 0.467 0.20872 0.68971 0.0
H150 H 0.51288 0.28073 0.66059 0.0
H151 H 0.51777 0.26347 0.59678 0.0
H152 H 0.53335 0.26304 0.71755 0.0
H153 H 0.42417 0.26033 0.7472 0.0
H154 H 0.43297 0.22734 0.72991 0.0
H155 H 0.43683 0.25682 0.70018 0.0
C156 C 0.47889 0.2123 0.63265 0.0
C157 C 0.49406 0.22701 0.60647 0.0
C158 C 0.47696 0.22158 0.66938 0.0
C159 C 0.48915 0.24633 0.68008 0.0
C160 C 0.50323 0.26164 0.65316 0.0
H161 H 0.47047 0.26279 0.9224 0.0
H162 H 0.46718 0.27659 0.85684 0.0
C163 C 0.50602 0.25183 0.61677 0.0
C164 C 0.49032 0.25411 0.72012 0.0
H165 H 0.45405 0.2494 0.80084 0.0
C166 C 0.51576 0.26081 0.73555 0.0
C167 C 0.4674 0.25234 0.74392 0.0
C168 C 0.43881 0.24916 0.72919 0.0
C169 C 0.51932 0.2632 0.77418 0.0
C170 C 0.49725 0.25719 0.79812 0.0
C171 C 0.47128 0.25315 0.78267 0.0
C172 C 0.50118 0.25191 0.8385 0.0
C173 C 0.5469 0.27162 0.78873 0.0
C174 C 0.52145 0.23363 0.85012 0.0
C175 C 0.52381 0.22638 0.88754 0.0
C176 C 0.50528 0.23645 0.91389 0.0
C177 C 0.48499 0.25475 0.90249 0.0
C178 C 0.48311 0.26262 0.86511 0.0
H179 H 0.55655 0.28659 0.76964 0.0
H180 H 0.54561 0.28079 0.81703 0.0
H181 H 0.56041 0.25355 0.78978 0.0
H182 H 0.53491 0.2241 0.83007 0.0
H183 H 0.53935 0.2119 0.89554 0.0
H184 H 0.81496 0.54265 0.41518 0.0
H185 H 0.80284 0.54197 0.34912 0.0
H186 H 0.73694 0.48631 0.37268 0.0
H187 H 0.75059 0.48533 0.43837 0.0
H188 H 0.76119 0.46832 0.31757 0.0
H189 H 0.74744 0.57705 0.28789 0.0
H190 H 0.7806 0.57276 0.30753 0.0
H191 H 0.75085 0.56469 0.33502 0.0
C192 C 0.79764 0.53064 0.40621 0.0
C193 C 0.78367 0.51405 0.43156 0.0
C194 C 0.79049 0.53047 0.36852 0.0
C195 C 0.76851 0.51459 0.35586 0.0
C196 C 0.75391 0.49879 0.38167 0.0
H197 H 0.74525 0.53176 0.11466 0.0
H198 H 0.73444 0.53223 0.18138 0.0
C199 C 0.76166 0.49825 0.41914 0.0
C200 C 0.76278 0.51224 0.3153 0.0
H201 H 0.76198 0.54909 0.23487 0.0
C202 C 0.7607 0.48607 0.29962 0.0
C203 C 0.76125 0.53524 0.29166 0.0
C204 C 0.75982 0.56396 0.30659 0.0
C205 C 0.75901 0.48227 0.26093 0.0
C206 C 0.761 0.50517 0.23716 0.0
C207 C 0.76114 0.53139 0.2529 0.0
C208 C 0.76505 0.50244 0.1963 0.0
C209 C 0.75522 0.45371 0.2462 0.0
C210 C 0.78561 0.48535 0.18233 0.0
C211 C 0.79114 0.48442 0.14418 0.0
C212 C 0.77697 0.5014 0.11952 0.0
C213 C 0.75643 0.5185 0.13329 0.0
C214 C 0.7503 0.51879 0.17134 0.0
H215 H 0.74284 0.44134 0.26584 0.0
H216 H 0.74509 0.45355 0.2185 0.0
H217 H 0.77536 0.44369 0.24371 0.0
H218 H 0.79809 0.47338 0.201 0.0
H219 H 0.80738 0.47141 0.13421 0.0
H220 H 0.46639 0.7756 0.89188 0.0
H221 H 0.47522 0.75971 0.82839 0.0
H222 H 0.56093 0.75416 0.85302 0.0
H223 H 0.55242 0.77037 0.91635 0.0
H224 H 0.54962 0.78608 0.79313 0.0
H225 H 0.49591 0.68767 0.77904 0.0
H226 H 0.47468 0.71355 0.79907 0.0
H227 H 0.50449 0.70235 0.82385 0.0
C228 C 0.48705 0.77057 0.88399 0.0
C229 C 0.50873 0.77455 0.90897 0.0
C230 C 0.49203 0.76118 0.84785 0.0
C231 C 0.51868 0.75537 0.83629 0.0
C232 C 0.5402 0.7583 0.8616 0.0
H233 H 0.56352 0.75848 0.5989 0.0
H234 H 0.56838 0.74605 0.66475 0.0
C235 C 0.53528 0.76775 0.89767 0.0
C236 C 0.52437 0.75034 0.79646 0.0
H237 H 0.50378 0.71262 0.72165 0.0
C238 C 0.54022 0.76963 0.77753 0.0
C239 C 0.51208 0.72882 0.77642 0.0
C240 C 0.49606 0.70676 0.79574 0.0
C241 C 0.5423 0.7693 0.73859 0.0
C242 C 0.52861 0.74871 0.71826 0.0
C243 C 0.51424 0.72835 0.7374 0.0
C244 C 0.52558 0.75059 0.67741 0.0
C245 C 0.55736 0.79221 0.7195 0.0
C246 C 0.49973 0.75573 0.66252 0.0
C247 C 0.49684 0.76257 0.62504 0.0
C248 C 0.51981 0.76453 0.60186 0.0
C249 C 0.5455 0.75757 0.61625 0.0
C250 C 0.54833 0.75047 0.65379 0.0
H251 H 0.56292 0.80882 0.73918 0.0
H252 H 0.5764 0.7842 0.70702 0.0
H253 H 0.54485 0.80101 0.69672 0.0
H254 H 0.48193 0.75587 0.68036 0.0
H255 H 0.47673 0.76753 0.61475 0.0
H256 H 0.76582 0.54647 0.64564 0.0
H257 H 0.74274 0.54154 0.70548 0.0
H258 H 0.71814 0.46007 0.6754 0.0
H259 H 0.74222 0.46442 0.6159 0.0
H260 H 0.69189 0.5277 0.73468 0.0
H261 H 0.76948 0.44722 0.76186 0.0
H262 H 0.77099 0.46856 0.72111 0.0
H263 H 0.74658 0.44135 0.72367 0.0
C264 C 0.75508 0.52767 0.65142 0.0
C265 C 0.75642 0.50557 0.62657 0.0
C266 C 0.74172 0.52495 0.68554 0.0
C267 C 0.72927 0.50022 0.69516 0.0
C268 C 0.72819 0.47909 0.6688 0.0
H269 H 0.73329 0.46245 0.93017 0.0
H270 H 0.71214 0.45885 0.86867 0.0
C271 C 0.74197 0.48161 0.63489 0.0
C272 C 0.72167 0.49552 0.73454 0.0
H273 H 0.74524 0.4636 0.81235 0.0
C274 C 0.70305 0.51325 0.75167 0.0
C275 C 0.73613 0.47652 0.75658 0.0
C276 C 0.75704 0.45741 0.74008 0.0
C277 C 0.69992 0.51374 0.79063 0.0
C278 C 0.71608 0.4963 0.81277 0.0
C279 C 0.73283 0.47697 0.79534 0.0
C280 C 0.72017 0.50068 0.85328 0.0
C281 C 0.68017 0.53364 0.8077 0.0
C282 C 0.73053 0.52575 0.86577 0.0
C283 C 0.74251 0.52791 0.90097 0.0
C284 C 0.74476 0.50488 0.92395 0.0
C285 C 0.73222 0.48045 0.9128 0.0
C286 C 0.71994 0.4784 0.87777 0.0
H287 H 0.6623 0.53664 0.78916 0.0
H288 H 0.67296 0.5267 0.83548 0.0
H289 H 0.69033 0.55368 0.81103 0.0
H290 H 0.73157 0.54307 0.84716 0.0
H291 H 0.75187 0.54705 0.90882 0.0
H292 H 0.53254 0.74157 0.0974 0.0
H293 H 0.53291 0.71905 0.15809 0.0
H294 H 0.45098 0.74682 0.1785 0.0
H295 H 0.45012 0.76845 0.11727 0.0
H296 H 0.53042 0.75137 0.21592 0.0
H297 H 0.44899 0.67494 0.23166 0.0
H298 H 0.4607 0.68634 0.18648 0.0
H299 H 0.43586 0.70581 0.21211 0.0
C300 C 0.51431 0.74214 0.11439 0.0
C301 C 0.49146 0.75714 0.10303 0.0
C302 C 0.51448 0.72908 0.14889 0.0
C303 C 0.49195 0.73111 0.17278 0.0
C304 C 0.46836 0.74437 0.16024 0.0
H305 H 0.45878 0.7659 0.39343 0.0
H306 H 0.45665 0.74801 0.32984 0.0
C307 C 0.46801 0.75705 0.1254 0.0
C308 C 0.49525 0.72525 0.21299 0.0
H309 H 0.46282 0.69861 0.28885 0.0
C310 C 0.51613 0.73913 0.23176 0.0
C311 C 0.47642 0.70953 0.2336 0.0
C312 C 0.45441 0.69311 0.21478 0.0
C313 C 0.51757 0.73945 0.27068 0.0
C314 C 0.49792 0.72485 0.29147 0.0
C315 C 0.47788 0.70968 0.27276 0.0
C316 C 0.49603 0.72843 0.33229 0.0
C317 C 0.53889 0.75718 0.28909 0.0
C318 C 0.51818 0.72197 0.35528 0.0
C319 C 0.51978 0.73276 0.39125 0.0
C320 C 0.49888 0.74953 0.40494 0.0
C321 C 0.47529 0.75326 0.38342 0.0
C322 C 0.47397 0.7429 0.34718 0.0
H323 H 0.54912 0.77094 0.26889 0.0
H324 H 0.5297 0.76986 0.31147 0.0
H325 H 0.5547 0.74408 0.30189 0.0
H326 H 0.53515 0.71035 0.34441 0.0
H327 H 0.53793 0.7291 0.40762 0.0
H328 H 0.26394 0.5499 0.94012 0.0
H329 H 0.28846 0.55507 0.88107 0.0
H330 H 0.26685 0.47284 0.85057 0.0
H331 H 0.24331 0.46716 0.90989 0.0
H332 H 0.31755 0.48884 0.82182 0.0
H333 H 0.23668 0.56601 0.79428 0.0
H334 H 0.25928 0.57255 0.83262 0.0
H335 H 0.23579 0.54452 0.83492 0.0
C336 C 0.26497 0.53273 0.92116 0.0
C337 C 0.25112 0.50835 0.92914 0.0
C338 C 0.27901 0.53571 0.88751 0.0
C339 C 0.27882 0.51459 0.86112 0.0
C340 C 0.26714 0.48945 0.87053 0.0
H341 H 0.25679 0.46337 0.6509 0.0
H342 H 0.27767 0.47 0.71171 0.0
C343 C 0.25351 0.48629 0.90437 0.0
C344 C 0.28633 0.51962 0.82178 0.0
H345 H 0.2608 0.54966 0.74372 0.0
C346 C 0.30567 0.50264 0.80473 0.0
C347 C 0.27097 0.53782 0.79961 0.0
C348 C 0.2494 0.55619 0.81607 0.0
C349 C 0.30853 0.50189 0.76575 0.0
C350 C 0.29132 0.51824 0.74351 0.0
C351 C 0.27397 0.53709 0.76079 0.0
C352 C 0.28668 0.51276 0.70335 0.0
C353 C 0.32907 0.48276 0.74879 0.0
C354 C 0.28524 0.53442 0.6779 0.0
C355 C 0.27263 0.53081 0.64331 0.0
C356 C 0.26136 0.50544 0.6336 0.0
C357 C 0.26514 0.48319 0.65762 0.0
C358 C 0.27748 0.48689 0.69233 0.0
H359 H 0.34737 0.48116 0.76685 0.0
H360 H 0.32001 0.46212 0.7466 0.0
H361 H 0.33543 0.48949 0.72052 0.0
H362 H 0.29209 0.55458 0.68588 0.0
H363 H 0.27034 0.54828 0.62516 0.0
H364 H 0.55797 0.25497 0.41948 0.0
H365 H 0.56307 0.27772 0.35927 0.0
H366 H 0.47766 0.2655 0.33701 0.0
H367 H 0.47224 0.24343 0.39725 0.0
H368 H 0.55518 0.24903 0.29828 0.0
H369 H 0.48852 0.33869 0.28979 0.0
H370 H 0.49848 0.32392 0.3339 0.0
H371 H 0.46988 0.31041 0.30829 0.0
C372 C 0.54013 0.25778 0.40217 0.0
C373 C 0.51478 0.24699 0.41283 0.0
C374 C 0.54305 0.27097 0.36791 0.0
C375 C 0.52071 0.27361 0.34379 0.0
C376 C 0.49506 0.26441 0.3555 0.0
H377 H 0.47046 0.24767 0.13129 0.0
H378 H 0.47708 0.26551 0.19421 0.0
C379 C 0.49207 0.2514 0.38981 0.0
C380 C 0.52493 0.28042 0.304 0.0
H381 H 0.49476 0.31316 0.23104 0.0
C382 C 0.54267 0.26372 0.28362 0.0
C383 C 0.5086 0.29959 0.28499 0.0
C384 C 0.49053 0.31934 0.30556 0.0
C385 C 0.5425 0.26361 0.24458 0.0
C386 C 0.5245 0.28122 0.22544 0.0
C387 C 0.50844 0.29961 0.24581 0.0
C388 C 0.519 0.27738 0.18524 0.0
C389 C 0.55978 0.24283 0.22438 0.0
C390 C 0.53993 0.27952 0.15882 0.0
C391 C 0.53638 0.26879 0.12302 0.0
C392 C 0.51166 0.2563 0.11302 0.0
C393 C 0.48983 0.2569 0.13829 0.0
C394 C 0.49353 0.26724 0.17422 0.0
H395 H 0.56926 0.22798 0.24378 0.0
H396 H 0.5474 0.23136 0.20372 0.0
H397 H 0.57635 0.25339 0.20916 0.0
H398 H 0.55953 0.28784 0.16662 0.0
H399 H 0.5534 0.26911 0.10382 0.0
H400 H 0.88125 0.48745 0.94021 0.0
H401 H 0.9308 0.4856 0.93464 0.0
H402 H 0.93843 0.53927 0.02967 0.0
H403 H 0.88878 0.54271 0.0334 0.0
H404 H 0.97588 0.55098 0.98377 0.0
H405 H 0.97678 0.43888 -0.00273 0.0
H406 H 0.95826 0.44923 0.95668 0.0
H407 H 0.9461 0.45849 0.00249 0.0
C408 C 0.89359 0.49917 0.95948 0.0
C409 C 0.88132 0.51512 -0.01267 0.0
C410 C 0.9219 0.49781 0.95664 0.0
C411 C 0.93848 0.51141 0.98263 0.0
C412 C 0.92615 0.52833 0.00947 0.0
H413 H 0.10556 0.46612 0.03175 0.0
H414 H 0.05594 0.46964 0.02765 0.0
C415 C 0.8978 0.53038 0.01157 0.0
C416 C 0.96857 0.50775 0.98227 0.0
H417 H 0.01874 0.45966 0.98051 0.0
C418 C 0.98522 0.53098 0.98328 0.0
C419 C 0.98092 0.48166 0.98242 0.0
C420 C 0.96457 0.45569 0.98509 0.0
C421 C 0.0137 0.52893 0.98437 0.0
C422 C 0.02606 0.50288 0.98236 0.0
C423 C 0.0094 0.47965 0.98144 0.0
C424 C 0.05614 0.4992 0.98276 0.0
C425 C 0.03003 0.55476 -0.01083 0.0
C426 C 0.07287 0.51376 0.95802 0.0
C427 C 0.10116 0.51232 0.9611 0.0
C428 C 0.11328 0.49538 -0.01212 0.0
C429 C 0.09666 0.47922 0.01074 0.0
C430 C 0.06832 0.48131 0.00844 0.0
H431 H 0.01775 0.5711 0.00247 0.0
H432 H 0.04841 0.5513 0.00654 0.0
H433 H 0.03651 0.56227 0.96136 0.0
H434 H 0.06408 0.52677 0.93686 0.0
H435 H 0.1136 0.52477 0.9429 0.0
H436 H 0.47605 0.88735 0.5297 0.0
H437 H 0.4798 0.93703 0.52892 0.0
H438 H 0.54222 0.9316 0.44449 0.0
H439 H 0.53971 0.88195 0.44704 0.0
H440 H 0.55704 0.96685 0.49246 0.0
H441 H 0.45004 0.99012 0.45774 0.0
H442 H 0.45224 0.97097 0.50012 0.0
H443 H 0.46315 0.9559 0.45668 0.0
C444 C 0.49035 0.89683 0.51073 0.0
C445 C 0.50749 0.88084 0.48829 0.0
C446 C 0.49238 0.92525 0.51011 0.0
C447 C 0.5109 0.93825 0.48605 0.0
C448 C 0.52775 0.92218 0.46327 0.0
H449 H 0.49766 0.11102 0.43972 0.0
H450 H 0.49863 0.06139 0.43601 0.0
C451 C 0.52624 0.89379 0.46463 0.0
C452 C 0.51351 0.96847 0.48549 0.0
H453 H 0.47704 0.02734 0.4793 0.0
C454 C 0.53955 0.98007 0.48919 0.0
C455 C 0.49082 0.98585 0.48067 0.0
C456 C 0.46257 0.97505 0.47316 0.0
C457 C 0.5435 0.00841 0.48845 0.0
C458 C 0.52063 0.02579 0.48565 0.0
C459 C 0.49463 0.01416 0.48178 0.0
C460 C 0.52293 0.05606 0.48595 0.0
C461 C 0.57224 0.01921 0.48957 0.0
C462 C 0.53681 0.06985 0.51472 0.0
C463 C 0.53703 0.09836 0.51609 0.0
C464 C 0.52256 0.1135 0.48948 0.0
C465 C 0.50897 0.09977 0.46057 0.0
C466 C 0.50942 0.0714 0.45857 0.0
H467 H 0.58696 0.00395 0.47879 0.0
H468 H 0.57437 0.03811 0.47288 0.0
H469 H 0.57789 0.02374 0.51893 0.0
H470 H 0.54668 0.05863 0.53688 0.0
H471 H 0.54726 0.10851 0.53901 0.0
H472 H 0.12265 0.48259 0.61079 0.0
H473 H 0.07294 0.48155 0.61282 0.0
H474 H 0.06984 0.53625 0.51873 0.0
H475 H 0.11961 0.53876 0.51838 0.0
H476 H 0.03133 0.54855 0.56296 0.0
H477 H 0.02758 0.43678 0.54603 0.0
H478 H 0.04536 0.44596 0.58783 0.0
H479 H 0.05895 0.45562 0.54298 0.0
C480 C 0.11128 0.49468 0.59091 0.0
C481 C 0.12489 0.51066 0.56432 0.0
C482 C 0.08288 0.49378 0.59174 0.0
C483 C 0.06753 0.50797 0.56503 0.0
C484 C 0.08116 0.52487 0.53942 0.0
H485 H 0.89862 0.46801 0.51291 0.0
H486 H 0.94842 0.47021 0.51584 0.0
C487 C 0.10959 0.52639 0.53929 0.0
C488 C 0.03738 0.50513 0.56361 0.0
H489 H 0.98582 0.45839 0.56249 0.0
C490 C 0.02142 0.52881 0.5626 0.0
C491 C 0.02429 0.47939 0.56222 0.0
C492 C 0.03996 0.45304 0.55938 0.0
C493 C 0.99292 0.52753 0.56074 0.0
C494 C 0.9798 0.50181 0.56185 0.0
C495 C 0.99575 0.47812 0.56232 0.0
C496 C 0.94962 0.49903 0.56172 0.0
C497 C 0.97738 0.55383 0.55633 0.0
C498 C 0.93364 0.51362 0.58736 0.0
C499 C 0.9053 0.51291 0.58503 0.0
C500 C 0.89233 0.49671 0.55801 0.0
C501 C 0.90817 0.48057 0.53408 0.0
C502 C 0.93661 0.4819 0.5357 0.0
H503 H 0.99018 0.56987 0.54328 0.0
H504 H 0.9589 0.551 0.53893 0.0
H505 H 0.97116 0.56137 0.58427 0.0
H506 H 0.94307 0.52604 0.60875 0.0
H507 H 0.89348 0.52529 0.60411 0.0
H508 H 0.54378 0.89573 0.03446 0.0
H509 H 0.54282 0.94543 0.04037 0.0
H510 H 0.4557 0.94471 0.02658 0.0
H511 H 0.45634 0.89523 0.0211 0.0
H512 H 0.52381 0.98238 -0.01279 0.0
H513 H 0.4657 0.9923 0.11933 0.0
H514 H 0.48117 0.96069 0.10474 0.0
H515 H 0.44941 0.97141 0.08471 0.0
C516 C 0.52439 0.90611 0.03301 0.0
C517 C 0.50014 0.89144 0.02738 0.0
C518 C 0.52388 0.93451 0.03639 0.0
C519 C 0.49914 0.94871 0.0345 0.0
C520 C 0.47494 0.93413 0.02897 0.0
H521 H 0.4551 0.12062 0.02664 0.0
H522 H 0.45438 0.07064 0.02827 0.0
C523 C 0.47541 0.90581 0.02557 0.0
C524 C 0.49872 0.97887 0.0362 0.0
H525 H 0.47257 0.03293 0.08445 0.0
C526 C 0.51277 0.99344 0.00861 0.0
C527 C 0.48409 0.99323 0.06399 0.0
C528 C 0.46942 0.97865 0.09509 0.0
C529 C 0.5123 0.02199 0.00771 0.0
C530 C 0.49777 0.03636 0.03556 0.0
C531 C 0.48362 0.02183 0.06311 0.0
C532 C 0.49773 0.06652 0.03695 0.0
C533 C 0.52695 0.03652 0.97652 0.0
C534 C 0.52219 0.08066 0.04236 0.0
C535 C 0.52268 0.10904 0.04138 0.0
C536 C 0.49867 0.12396 0.03522 0.0
C537 C 0.47395 0.10976 0.03129 0.0
C538 C 0.4735 0.08123 0.03221 0.0
H539 H 0.53088 0.0228 0.95244 0.0
H540 H 0.51506 0.05431 0.96662 0.0
H541 H 0.54686 0.04402 0.98694 0.0
H542 H 0.54101 0.06969 0.04687 0.0
H543 H 0.54205 0.11925 0.04494 0.0
H544 H 0.23766 0.38237 0.93828 0.0
H545 H 0.26521 0.34221 0.95166 0.0
H546 H 0.24485 0.34869 0.06841 0.0
H547 H 0.21749 0.3891 0.05541 0.0
H548 H 0.29975 0.34781 0.05554 0.0
H549 H 0.25042 0.26306 0.97896 0.0
H550 H 0.25617 0.29256 0.95051 0.0
H551 H 0.23306 0.29458 -0.01065 0.0
C552 C 0.23849 0.37491 0.96669 0.0
C553 C 0.2255 0.3891 -0.0042 0.0
C554 C 0.25415 0.3518 0.97426 0.0
C555 C 0.25692 0.34228 0.011 0.0
C556 C 0.2429 0.35562 0.03984 0.0
H557 H 0.38105 0.2333 0.10418 0.0
H558 H 0.33904 0.25956 0.09733 0.0
C559 C 0.22726 0.37873 0.03232 0.0
C560 C 0.27706 0.32074 0.01989 0.0
H561 H 0.29676 0.256 -0.00221 0.0
C562 C 0.29886 0.32757 0.04342 0.0
C563 C 0.27597 0.29443 0.00382 0.0
C564 C 0.2525 0.28558 0.97953 0.0
C565 C 0.32019 0.30927 0.05011 0.0
C566 C 0.31942 0.28311 0.03347 0.0
C567 C 0.29728 0.27601 0.01063 0.0
C568 C 0.34242 0.26377 0.03737 0.0
C569 C 0.34401 0.31863 0.0735 0.0
C570 C 0.35743 0.25614 0.00575 0.0
C571 C 0.38127 0.24091 0.00951 0.0
C572 C 0.3906 0.23302 0.04503 0.0
C573 C 0.37461 0.23928 0.07646 0.0
C574 C 0.35066 0.25441 0.07263 0.0
H575 H 0.3443 0.3411 0.07709 0.0
H576 H 0.3426 0.30931 0.10163 0.0
H577 H 0.36357 0.31223 0.06072 0.0
H578 H 0.35137 0.26301 0.97826 0.0
H579 H 0.39296 0.23632 0.98466 0.0
H580 H 0.78056 0.39315 0.49309 0.0
H581 H 0.75283 0.35207 0.48626 0.0
H582 H 0.75307 0.3412 0.60565 0.0
H583 H 0.78057 0.38242 0.61289 0.0
H584 H 0.7587 0.29613 0.51092 0.0
H585 H 0.67176 0.34993 0.57765 0.0
H586 H 0.70159 0.36765 0.56119 0.0
H587 H 0.70273 0.34904 0.60427 0.0
C588 C 0.77509 0.38183 0.51791 0.0
C589 C 0.7825 0.3913 0.5536 0.0
C590 C 0.75927 0.35831 0.51391 0.0
C591 C 0.75053 0.34389 0.54548 0.0
C592 C 0.75926 0.35232 0.58097 0.0
H593 H 0.62022 0.22408 0.56365 0.0
H594 H 0.66021 0.25189 0.57778 0.0
C595 C 0.77507 0.37583 0.58502 0.0
C596 C 0.73062 0.32139 0.54135 0.0
H597 H 0.66445 0.3047 0.55894 0.0
C598 C 0.73813 0.29786 0.52159 0.0
C599 C 0.7038 0.32376 0.55528 0.0
C600 C 0.69429 0.349 0.57554 0.0
C601 C 0.71946 0.27661 0.51537 0.0
C602 C 0.69246 0.27927 0.52861 0.0
C603 C 0.68518 0.3026 0.54896 0.0
C604 C 0.67083 0.25905 0.51999 0.0
C605 C 0.7289 0.25148 0.49489 0.0
C606 C 0.66374 0.25339 0.48281 0.0
C607 C 0.64096 0.23737 0.47463 0.0
C608 C 0.62458 0.22698 0.50349 0.0
C609 C 0.63234 0.23179 0.54074 0.0
C610 C 0.6552 0.24771 0.54888 0.0
H611 H 0.75124 0.24868 0.49754 0.0
H612 H 0.71854 0.23293 0.50549 0.0
H613 H 0.7241 0.25363 0.46477 0.0
H614 H 0.67505 0.2624 0.46002 0.0
H615 H 0.63552 0.2342 0.44564 0.0
H616 H 0.77813 0.62019 0.05943 0.0
H617 H 0.75175 0.66104 0.07397 0.0
H618 H 0.7336 0.67155 0.95715 0.0
H619 H 0.76018 0.63089 0.94219 0.0
H620 H 0.74448 0.72172 -0.00191 0.0
H621 H 0.66778 0.65509 0.06673 0.0
H622 H 0.70204 0.65206 0.08372 0.0
H623 H 0.69413 0.64175 0.03682 0.0
C624 C 0.76893 0.63142 0.03671 0.0
C625 C 0.77096 0.62202 -0.00034 0.0
C626 C 0.7538 0.65472 0.04512 0.0
C627 C 0.74034 0.66899 0.01671 0.0
C628 C 0.74376 0.66073 0.97949 0.0
H629 H 0.61499 0.78754 -0.01143 0.0
H630 H 0.6562 0.76028 0.9832 0.0
C631 C 0.75893 0.63744 0.97102 0.0
C632 C 0.7208 0.69097 0.02594 0.0
H633 H 0.65889 0.70196 0.06625 0.0
C634 C 0.72584 0.71752 0.01322 0.0
C635 C 0.69651 0.68538 0.04568 0.0
C636 C 0.68955 0.65702 0.05884 0.0
C637 C 0.7071 0.73864 0.01962 0.0
C638 C 0.68249 0.73287 0.03856 0.0
C639 C 0.67782 0.70644 0.05195 0.0
C640 C 0.66027 0.75315 0.04256 0.0
C641 C 0.71389 0.76692 0.00615 0.0
C642 C 0.6488 0.75843 0.07775 0.0
C643 C 0.62497 0.7738 0.08091 0.0
C644 C 0.61204 0.78408 0.04886 0.0
C645 C 0.6244 0.78001 0.01386 0.0
C646 C 0.64816 0.76455 0.01074 0.0
H647 H 0.73624 0.76994 0.004 0.0
H648 H 0.7051 0.76987 0.97791 0.0
H649 H 0.70538 0.78271 0.02503 0.0
H650 H 0.65773 0.74974 0.10269 0.0
H651 H 0.61604 0.77656 0.10829 0.0
H652 H 0.38071 0.76935 0.44124 0.0
H653 H 0.34033 0.74296 0.45724 0.0
H654 H 0.35624 0.75604 0.57432 0.0
H655 H 0.39711 0.78199 0.55858 0.0
H656 H 0.35094 0.70313 0.55812 0.0
H657 H 0.26466 0.7585 0.49472 0.0
H658 H 0.29142 0.75227 0.46178 0.0
H659 H 0.29764 0.77399 0.50144 0.0
C660 C 0.37531 0.7672 0.4704 0.0
C661 C 0.39229 0.77764 0.49863 0.0
C662 C 0.35204 0.75222 0.47951 0.0
C663 C 0.34504 0.7477 0.517 0.0
C664 C 0.36118 0.75933 0.5452 0.0
H665 H 0.23423 0.62722 0.61416 0.0
H666 H 0.2615 0.66844 0.60564 0.0
C667 C 0.38454 0.77418 0.53613 0.0
C668 C 0.32316 0.72805 0.52669 0.0
H669 H 0.25681 0.71126 0.50949 0.0
C670 C 0.33023 0.70518 0.54805 0.0
C671 C 0.29618 0.73061 0.51333 0.0
C672 C 0.28694 0.75532 0.49186 0.0
C673 C 0.31144 0.68432 0.55517 0.0
C674 C 0.28468 0.68653 0.54099 0.0
C675 C 0.27735 0.70965 0.52032 0.0
C676 C 0.26471 0.66417 0.54569 0.0
C677 C 0.32072 0.65952 0.5765 0.0
C678 C 0.25646 0.64884 0.51462 0.0
C679 C 0.24081 0.6253 0.51934 0.0
C680 C 0.23308 0.61672 0.55528 0.0
C681 C 0.23998 0.63311 0.58613 0.0
C682 C 0.25564 0.65664 0.58135 0.0
H683 H 0.34323 0.65863 0.57913 0.0
H684 H 0.31195 0.66006 0.60503 0.0
H685 H 0.31357 0.64059 0.56262 0.0
H686 H 0.26319 0.65438 0.48684 0.0
H687 H 0.23573 0.61326 0.49495 0.0
loop_
_geom_bond_atom_site_label_1
_geom_bond_atom_site_label_2
_geom_bond_distance
_geom_bond_site_symmetry_2
_ccdc_geom_bond_type
Zn0 O3 2.031 1_554 S
Zn0 O5 2.049 . S
Zn0 O10 2.067 . S
Zn1 O2 1.962 1_554 S
Zn1 O4 1.986 . S
Zn1 O6 1.996 . S
Zn1 O9 1.943 . S
O2 Zn1 1.962 1_556 S
O2 C7 1.254 . S
O3 Zn0 2.031 1_556 S
O3 C7 1.269 . S
O4 Zn1 1.986 . S
O4 C11 1.262 . S
O5 Zn0 2.049 . S
O5 C13 1.260 . S
O6 Zn1 1.996 . S
O6 C13 1.257 . S
C7 O2 1.254 . S
C7 O3 1.269 . S
C8 O9 1.249 . S
C8 O10 1.270 . S
O9 Zn1 1.943 . S
O9 C8 1.249 . S
O10 Zn0 2.067 . S
O10 C8 1.270 . S
C11 O4 1.262 . S
C11 O12 1.232 1_554 S
O12 C11 1.232 1_556 S
C13 O5 1.260 . S
C13 O6 1.257 . S
Zn14 O17 2.031 . S
Zn14 O19 2.049 . S
Zn14 O24 2.067 . S
Zn15 O16 1.962 . S
Zn15 O18 1.986 . S
Zn15 O20 1.996 . S
Zn15 O23 1.943 . S
O16 Zn15 1.962 . S
O16 C21 1.254 . S
O17 Zn14 2.031 . S
O17 C21 1.269 . S
O18 Zn15 1.986 . S
O18 C25 1.262 . S
O19 Zn14 2.049 . S
O19 C27 1.260 . S
O20 Zn15 1.996 . S
O20 C27 1.257 . S
C21 O16 1.254 . S
C21 O17 1.269 . S
C22 O23 1.249 . S
C22 O24 1.270 . S
O23 Zn15 1.943 . S
O23 C22 1.249 . S
O24 Zn14 2.067 . S
O24 C22 1.270 . S
C25 O18 1.262 . S
C25 O26 1.232 . S
O26 C25 1.232 . S
C27 O19 1.260 . S
C27 O20 1.257 . S
Zn28 O31 2.031 1_554 S
Zn28 O33 2.049 . S
Zn28 O38 2.067 . S
Zn29 O30 1.962 1_554 S
Zn29 O32 1.986 . S
Zn29 O34 1.996 . S
Zn29 O37 1.943 . S
O30 Zn29 1.962 1_556 S
O30 C35 1.254 . S
O31 Zn28 2.031 1_556 S
O31 C35 1.269 . S
O32 Zn29 1.986 . S
O32 C39 1.262 . S
O33 Zn28 2.049 . S
O33 C41 1.260 . S
O34 Zn29 1.996 . S
O34 C41 1.257 . S
C35 O30 1.254 . S
C35 O31 1.269 . S
C36 O37 1.249 . S
C36 O38 1.270 . S
O37 Zn29 1.943 . S
O37 C36 1.249 . S
O38 Zn28 2.067 . S
O38 C36 1.270 . S
C39 O32 1.262 . S
C39 O40 1.232 1_554 S
O40 C39 1.232 1_556 S
C41 O33 1.260 . S
C41 O34 1.257 . S
Zn42 O45 2.031 . S
Zn42 O47 2.049 . S
Zn42 O52 2.067 . S
Zn43 O44 1.962 . S
Zn43 O46 1.986 . S
Zn43 O48 1.996 . S
Zn43 O51 1.943 . S
O44 Zn43 1.962 . S
O44 C49 1.254 . S
O45 Zn42 2.031 . S
O45 C49 1.269 . S
O46 Zn43 1.986 . S
O46 C53 1.262 . S
O47 Zn42 2.049 . S
O47 C55 1.260 . S
O48 Zn43 1.996 . S
O48 C55 1.257 . S
C49 O44 1.254 . S
C49 O45 1.269 . S
C50 O51 1.249 . S
C50 O52 1.270 . S
O51 Zn43 1.943 . S
O51 C50 1.249 . S
O52 Zn42 2.067 . S
O52 C50 1.270 . S
C53 O46 1.262 . S
C53 O54 1.232 . S
O54 C53 1.232 . S
C55 O47 1.260 . S
C55 O48 1.257 . S
Zn56 O59 2.031 . S
Zn56 O61 2.049 . S
Zn56 O66 2.067 . S
Zn57 O58 1.962 . S
Zn57 O60 1.986 . S
Zn57 O62 1.996 . S
Zn57 O65 1.943 . S
O58 Zn57 1.962 . S
O58 C63 1.254 . S
O59 Zn56 2.031 . S
O59 C63 1.269 . S
O60 Zn57 1.986 . S
O60 C67 1.262 . S
O61 Zn56 2.049 . S
O61 C69 1.260 . S
O62 Zn57 1.996 . S
O62 C69 1.257 . S
C63 O58 1.254 . S
C63 O59 1.269 . S
C64 O65 1.249 . S
C64 O66 1.270 . S
O65 Zn57 1.943 . S
O65 C64 1.249 . S
O66 Zn56 2.067 . S
O66 C64 1.270 . S
C67 O60 1.262 . S
C67 O68 1.232 . S
O68 C67 1.232 . S
C69 O61 1.260 . S
C69 O62 1.257 . S
Zn70 O73 2.031 . S
Zn70 O75 2.049 1_554 S
Zn70 O80 2.067 . S
Zn71 O72 1.962 . S
Zn71 O74 1.986 . S
Zn71 O76 1.998 . S
Zn71 O79 1.943 . S
O72 Zn71 1.962 . S
O72 C77 1.254 . S
O73 Zn70 2.031 . S
O73 C77 1.269 . S
O74 Zn71 1.986 . S
O74 C81 1.262 . S
O75 Zn70 2.049 1_556 S
O75 C83 1.260 . S
O76 Zn71 1.998 . S
O76 C83 1.255 1_554 S
C77 O72 1.254 . S
C77 O73 1.269 . S
C78 O79 1.249 . S
C78 O80 1.270 . S
O79 Zn71 1.943 . S
O79 C78 1.249 . S
O80 Zn70 2.067 . S
O80 C78 1.270 . S
C81 O74 1.262 . S
C81 O82 1.232 . S
O82 C81 1.232 . S
C83 O75 1.260 . S
C83 O76 1.255 1_556 S
Zn84 O87 2.031 . S
Zn84 O89 2.049 . S
Zn84 O94 2.067 . S
Zn85 O86 1.962 . S
Zn85 O88 1.986 . S
Zn85 O90 1.996 . S
Zn85 O93 1.943 . S
O86 Zn85 1.962 . S
O86 C91 1.254 . S
O87 Zn84 2.031 . S
O87 C91 1.269 . S
O88 Zn85 1.986 . S
O88 C95 1.262 . S
O89 Zn84 2.049 . S
O89 C97 1.260 . S
O90 Zn85 1.996 . S
O90 C97 1.257 . S
C91 O86 1.254 . S
C91 O87 1.269 . S
C92 O93 1.249 . S
C92 O94 1.270 . S
O93 Zn85 1.943 . S
O93 C92 1.249 . S
O94 Zn84 2.067 . S
O94 C92 1.270 . S
C95 O88 1.262 . S
C95 O96 1.232 . S
O96 C95 1.232 . S
C97 O89 1.260 . S
C97 O90 1.257 . S
Zn98 O101 2.031 . S
Zn98 O103 2.049 1_554 S
Zn98 O108 2.067 . S
Zn99 O100 1.962 . S
Zn99 O102 1.986 . S
Zn99 O104 1.998 . S
Zn99 O107 1.943 . S
O100 Zn99 1.962 . S
O100 C105 1.254 . S
O101 Zn98 2.031 . S
O101 C105 1.269 . S
O102 Zn99 1.986 . S
O102 C109 1.262 . S
O103 Zn98 2.049 1_556 S
O103 C111 1.260 . S
O104 Zn99 1.998 . S
O104 C111 1.255 1_554 S
C105 O100 1.254 . S
C105 O101 1.269 . S
C106 O107 1.249 . S
C106 O108 1.270 . S
O107 Zn99 1.943 . S
O107 C106 1.249 . S
O108 Zn98 2.067 . S
O108 C106 1.270 . S
C109 O102 1.262 . S
C109 O110 1.232 . S
O110 C109 1.232 . S
C111 O103 1.260 . S
C111 O104 1.255 1_556 S
H112 C120 0.929 . S
H113 C122 0.930 . S
H114 C124 0.930 . S
H115 C127 0.929 . S
H116 C130 0.930 . S
H117 C132 0.960 . S
H118 C132 0.960 . S
H119 C132 0.960 . S
C120 H112 0.929 . S
C120 C121 1.377 . S
C120 C122 1.384 . S
C121 C120 1.377 . S
C121 C127 1.390 . S
C122 H113 0.930 . S
C122 C120 1.384 . S
C122 C123 1.372 . S
C123 C122 1.372 . S
C123 C124 1.400 . S
C123 C128 1.490 . S
C124 H114 0.930 . S
C124 C123 1.400 . S
C124 C127 1.386 . S
H125 C141 0.930 . S
H126 C142 0.931 . S
C127 H115 0.929 . S
C127 C121 1.390 . S
C127 C124 1.386 . S
C128 C123 1.490 . S
C128 C130 1.395 . S
C128 C131 1.403 . S
H129 C135 0.930 . S
C130 H116 0.930 . S
C130 C128 1.395 . S
C130 C133 1.403 . S
C131 C128 1.403 . S
C131 C132 1.524 . S
C131 C135 1.400 . S
C132 H117 0.960 . S
C132 H118 0.960 . S
C132 H119 0.960 . S
C132 C131 1.524 . S
C133 C130 1.403 . S
C133 C134 1.392 . S
C133 C137 1.495 . S
C134 C133 1.392 . S
C134 C135 1.385 . S
C134 C136 1.478 . S
C135 H129 0.930 . S
C135 C131 1.400 . S
C135 C134 1.385 . S
C136 C134 1.478 . S
C136 C138 1.381 . S
C136 C142 1.383 . S
C137 C133 1.495 . S
C137 H143 0.959 . S
C137 H144 0.961 . S
C137 H145 0.960 . S
C138 C136 1.381 . S
C138 C139 1.394 . S
C138 H146 0.930 . S
C139 C138 1.394 . S
C139 C140 1.383 . S
C139 H147 0.929 . S
C140 C139 1.383 . S
C140 C141 1.377 . S
C141 H125 0.930 . S
C141 C140 1.377 . S
C141 C142 1.379 . S
C142 H126 0.931 . S
C142 C136 1.383 . S
C142 C141 1.379 . S
H143 C137 0.959 . S
H144 C137 0.961 . S
H145 C137 0.960 . S
H146 C138 0.930 . S
H147 C139 0.929 . S
H148 C156 0.929 . S
H149 C158 0.930 . S
H150 C160 0.930 . S
H151 C163 0.929 . S
H152 C166 0.930 . S
H153 C168 0.960 . S
H154 C168 0.960 . S
H155 C168 0.960 . S
C156 H148 0.929 . S
C156 C157 1.377 . S
C156 C158 1.384 . S
C157 C156 1.377 . S
C157 C163 1.390 . S
C158 H149 0.930 . S
C158 C156 1.384 . S
C158 C159 1.372 . S
C159 C158 1.372 . S
C159 C160 1.400 . S
C159 C164 1.490 . S
C160 H150 0.930 . S
C160 C159 1.400 . S
C160 C163 1.386 . S
H161 C177 0.930 . S
H162 C178 0.931 . S
C163 H151 0.929 . S
C163 C157 1.390 . S
C163 C160 1.386 . S
C164 C159 1.490 . S
C164 C166 1.395 . S
C164 C167 1.403 . S
H165 C171 0.930 . S
C166 H152 0.930 . S
C166 C164 1.395 . S
C166 C169 1.403 . S
C167 C164 1.403 . S
C167 C168 1.524 . S
C167 C171 1.400 . S
C168 H153 0.960 . S
C168 H154 0.960 . S
C168 H155 0.960 . S
C168 C167 1.524 . S
C169 C166 1.403 . S
C169 C170 1.392 . S
C169 C173 1.495 . S
C170 C169 1.392 . S
C170 C171 1.385 . S
C170 C172 1.478 . S
C171 H165 0.930 . S
C171 C167 1.400 . S
C171 C170 1.385 . S
C172 C170 1.478 . S
C172 C174 1.381 . S
C172 C178 1.383 . S
C173 C169 1.495 . S
C173 H179 0.959 . S
C173 H180 0.961 . S
C173 H181 0.960 . S
C174 C172 1.381 . S
C174 C175 1.394 . S
C174 H182 0.930 . S
C175 C174 1.394 . S
C175 C176 1.383 . S
C175 H183 0.929 . S
C176 C175 1.383 . S
C176 C177 1.377 . S
C177 H161 0.930 . S
C177 C176 1.377 . S
C177 C178 1.379 . S
C178 H162 0.931 . S
C178 C172 1.383 . S
C178 C177 1.379 . S
H179 C173 0.959 . S
H180 C173 0.961 . S
H181 C173 0.960 . S
H182 C174 0.930 . S
H183 C175 0.929 . S
H184 C192 0.929 . S
H185 C194 0.930 . S
H186 C196 0.930 . S
H187 C199 0.929 . S
H188 C202 0.930 . S
H189 C204 0.960 . S
H190 C204 0.960 . S
H191 C204 0.960 . S
C192 H184 0.929 . S
C192 C193 1.377 . S
C192 C194 1.384 . S
C193 C192 1.377 . S
C193 C199 1.390 . S
C194 H185 0.930 . S
C194 C192 1.384 . S
C194 C195 1.372 . S
C195 C194 1.372 . S
C195 C196 1.400 . S
C195 C200 1.490 . S
C196 H186 0.930 . S
C196 C195 1.400 . S
C196 C199 1.386 . S
H197 C213 0.930 . S
H198 C214 0.931 . S
C199 H187 0.929 . S
C199 C193 1.390 . S
C199 C196 1.386 . S
C200 C195 1.490 . S
C200 C202 1.395 . S
C200 C203 1.403 . S
H201 C207 0.930 . S
C202 H188 0.930 . S
C202 C200 1.395 . S
C202 C205 1.403 . S
C203 C200 1.403 . S
C203 C204 1.524 . S
C203 C207 1.400 . S
C204 H189 0.960 . S
C204 H190 0.960 . S
C204 H191 0.960 . S
C204 C203 1.524 . S
C205 C202 1.403 . S
C205 C206 1.392 . S
C205 C209 1.495 . S
C206 C205 1.392 . S
C206 C207 1.385 . S
C206 C208 1.478 . S
C207 H201 0.930 . S
C207 C203 1.400 . S
C207 C206 1.385 . S
C208 C206 1.478 . S
C208 C210 1.381 . S
C208 C214 1.383 . S
C209 C205 1.495 . S
C209 H215 0.959 . S
C209 H216 0.961 . S
C209 H217 0.960 . S
C210 C208 1.381 . S
C210 C211 1.394 . S
C210 H218 0.930 . S
C211 C210 1.394 . S
C211 C212 1.383 . S
C211 H219 0.929 . S
C212 C211 1.383 . S
C212 C213 1.377 . S
C213 H197 0.930 . S
C213 C212 1.377 . S
C213 C214 1.379 . S
C214 H198 0.931 . S
C214 C208 1.383 . S
C214 C213 1.379 . S
H215 C209 0.959 . S
H216 C209 0.961 . S
H217 C209 0.960 . S
H218 C210 0.930 . S
H219 C211 0.929 . S
H220 C228 0.929 . S
H221 C230 0.930 . S
H222 C232 0.930 . S
H223 C235 0.929 . S
H224 C238 0.930 . S
H225 C240 0.960 . S
H226 C240 0.960 . S
H227 C240 0.960 . S
C228 H220 0.929 . S
C228 C229 1.377 . S
C228 C230 1.384 . S
C229 C228 1.377 . S
C229 C235 1.390 . S
C230 H221 0.930 . S
C230 C228 1.384 . S
C230 C231 1.372 . S
C231 C230 1.372 . S
C231 C232 1.400 . S
C231 C236 1.490 . S
C232 H222 0.930 . S
C232 C231 1.400 . S
C232 C235 1.386 . S
H233 C249 0.930 . S
H234 C250 0.931 . S
C235 H223 0.929 . S
C235 C229 1.390 . S
C235 C232 1.386 . S
C236 C231 1.490 . S
C236 C238 1.395 . S
C236 C239 1.403 . S
H237 C243 0.930 . S
C238 H224 0.930 . S
C238 C236 1.395 . S
C238 C241 1.403 . S
C239 C236 1.403 . S
C239 C240 1.524 . S
C239 C243 1.400 . S
C240 H225 0.960 . S
C240 H226 0.960 . S
C240 H227 0.960 . S
C240 C239 1.524 . S
C241 C238 1.403 . S
C241 C242 1.392 . S
C241 C245 1.495 . S
C242 C241 1.392 . S
C242 C243 1.385 . S
C242 C244 1.478 . S
C243 H237 0.930 . S
C243 C239 1.400 . S
C243 C242 1.385 . S
C244 C242 1.478 . S
C244 C246 1.381 . S
C244 C250 1.383 . S
C245 C241 1.495 . S
C245 H251 0.959 . S
C245 H252 0.961 . S
C245 H253 0.960 . S
C246 C244 1.381 . S
C246 C247 1.394 . S
C246 H254 0.930 . S
C247 C246 1.394 . S
C247 C248 1.383 . S
C247 H255 0.929 . S
C248 C247 1.383 . S
C248 C249 1.377 . S
C249 H233 0.930 . S
C249 C248 1.377 . S
C249 C250 1.379 . S
C250 H234 0.931 . S
C250 C244 1.383 . S
C250 C249 1.379 . S
H251 C245 0.959 . S
H252 C245 0.961 . S
H253 C245 0.960 . S
H254 C246 0.930 . S
H255 C247 0.929 . S
H256 C264 0.929 . S
H257 C266 0.930 . S
H258 C268 0.930 . S
H259 C271 0.929 . S
H260 C274 0.930 . S
H261 C276 0.960 . S
H262 C276 0.960 . S
H263 C276 0.960 . S
C264 H256 0.929 . S
C264 C265 1.377 . S
C264 C266 1.384 . S
C265 C264 1.377 . S
C265 C271 1.390 . S
C266 H257 0.930 . S
C266 C264 1.384 . S
C266 C267 1.372 . S
C267 C266 1.372 . S
C267 C268 1.400 . S
C267 C272 1.490 . S
C268 H258 0.930 . S
C268 C267 1.400 . S
C268 C271 1.386 . S
H269 C285 0.930 . S
H270 C286 0.931 . S
C271 H259 0.929 . S
C271 C265 1.390 . S
C271 C268 1.386 . S
C272 C267 1.490 . S
C272 C274 1.395 . S
C272 C275 1.403 . S
H273 C279 0.930 . S
C274 H260 0.930 . S
C274 C272 1.395 . S
C274 C277 1.403 . S
C275 C272 1.403 . S
C275 C276 1.524 . S
C275 C279 1.400 . S
C276 H261 0.960 . S
C276 H262 0.960 . S
C276 H263 0.960 . S
C276 C275 1.524 . S
C277 C274 1.403 . S
C277 C278 1.392 . S
C277 C281 1.495 . S
C278 C277 1.392 . S
C278 C279 1.385 . S
C278 C280 1.478 . S
C279 H273 0.930 . S
C279 C275 1.400 . S
C279 C278 1.385 . S
C280 C278 1.478 . S
C280 C282 1.381 . S
C280 C286 1.383 . S
C281 C277 1.495 . S
C281 H287 0.959 . S
C281 H288 0.961 . S
C281 H289 0.960 . S
C282 C280 1.381 . S
C282 C283 1.394 . S
C282 H290 0.930 . S
C283 C282 1.394 . S
C283 C284 1.383 . S
C283 H291 0.929 . S
C284 C283 1.383 . S
C284 C285 1.377 . S
C285 H269 0.930 . S
C285 C284 1.377 . S
C285 C286 1.379 . S
C286 H270 0.931 . S
C286 C280 1.383 . S
C286 C285 1.379 . S
H287 C281 0.959 . S
H288 C281 0.961 . S
H289 C281 0.960 . S
H290 C282 0.930 . S
H291 C283 0.929 . S
H292 C300 0.929 . S
H293 C302 0.930 . S
H294 C304 0.930 . S
H295 C307 0.929 . S
H296 C310 0.930 . S
H297 C312 0.960 . S
H298 C312 0.960 . S
H299 C312 0.960 . S
C300 H292 0.929 . S
C300 C301 1.377 . S
C300 C302 1.384 . S
C301 C300 1.377 . S
C301 C307 1.390 . S
C302 H293 0.930 . S
C302 C300 1.384 . S
C302 C303 1.372 . S
C303 C302 1.372 . S
C303 C304 1.400 . S
C303 C308 1.490 . S
C304 H294 0.930 . S
C304 C303 1.400 . S
C304 C307 1.386 . S
H305 C321 0.930 . S
H306 C322 0.931 . S
C307 H295 0.929 . S
C307 C301 1.390 . S
C307 C304 1.386 . S
C308 C303 1.490 . S
C308 C310 1.395 . S
C308 C311 1.403 . S
H309 C315 0.930 . S
C310 H296 0.930 . S
C310 C308 1.395 . S
C310 C313 1.403 . S
C311 C308 1.403 . S
C311 C312 1.524 . S
C311 C315 1.400 . S
C312 H297 0.960 . S
C312 H298 0.960 . S
C312 H299 0.960 . S
C312 C311 1.524 . S
C313 C310 1.403 . S
C313 C314 1.392 . S
C313 C317 1.495 . S
C314 C313 1.392 . S
C314 C315 1.385 . S
C314 C316 1.478 . S
C315 H309 0.930 . S
C315 C311 1.400 . S
C315 C314 1.385 . S
C316 C314 1.478 . S
C316 C318 1.381 . S
C316 C322 1.383 . S
C317 C313 1.495 . S
C317 H323 0.959 . S
C317 H324 0.961 . S
C317 H325 0.960 . S
C318 C316 1.381 . S
C318 C319 1.394 . S
C318 H326 0.930 . S
C319 C318 1.394 . S
C319 C320 1.383 . S
C319 H327 0.929 . S
C320 C319 1.383 . S
C320 C321 1.377 . S
C321 H305 0.930 . S
C321 C320 1.377 . S
C321 C322 1.379 . S
C322 H306 0.931 . S
C322 C316 1.383 . S
C322 C321 1.379 . S
H323 C317 0.959 . S
H324 C317 0.961 . S
H325 C317 0.960 . S
H326 C318 0.930 . S
H327 C319 0.929 . S
H328 C336 0.929 . S
H329 C338 0.930 . S
H330 C340 0.930 . S
H331 C343 0.929 . S
H332 C346 0.930 . S
H333 C348 0.960 . S
H334 C348 0.960 . S
H335 C348 0.960 . S
C336 H328 0.929 . S
C336 C337 1.377 . S
C336 C338 1.384 . S
C337 C336 1.377 . S
C337 C343 1.390 . S
C338 H329 0.930 . S
C338 C336 1.384 . S
C338 C339 1.372 . S
C339 C338 1.372 . S
C339 C340 1.400 . S
C339 C344 1.490 . S
C340 H330 0.930 . S
C340 C339 1.400 . S
C340 C343 1.386 . S
H341 C357 0.930 . S
H342 C358 0.931 . S
C343 H331 0.929 . S
C343 C337 1.390 . S
C343 C340 1.386 . S
C344 C339 1.490 . S
C344 C346 1.395 . S
C344 C347 1.403 . S
H345 C351 0.930 . S
C346 H332 0.930 . S
C346 C344 1.395 . S
C346 C349 1.403 . S
C347 C344 1.403 . S
C347 C348 1.524 . S
C347 C351 1.400 . S
C348 H333 0.960 . S
C348 H334 0.960 . S
C348 H335 0.960 . S
C348 C347 1.524 . S
C349 C346 1.403 . S
C349 C350 1.392 . S
C349 C353 1.495 . S
C350 C349 1.392 . S
C350 C351 1.385 . S
C350 C352 1.478 . S
C351 H345 0.930 . S
C351 C347 1.400 . S
C351 C350 1.385 . S
C352 C350 1.478 . S
C352 C354 1.381 . S
C352 C358 1.383 . S
C353 C349 1.495 . S
C353 H359 0.959 . S
C353 H360 0.961 . S
C353 H361 0.960 . S
C354 C352 1.381 . S
C354 C355 1.394 . S
C354 H362 0.930 . S
C355 C354 1.394 . S
C355 C356 1.383 . S
C355 H363 0.929 . S
C356 C355 1.383 . S
C356 C357 1.377 . S
C357 H341 0.930 . S
C357 C356 1.377 . S
C357 C358 1.379 . S
C358 H342 0.931 . S
C358 C352 1.383 . S
C358 C357 1.379 . S
H359 C353 0.959 . S
H360 C353 0.961 . S
H361 C353 0.960 . S
H362 C354 0.930 . S
H363 C355 0.929 . S
H364 C372 0.929 . S
H365 C374 0.930 . S
H366 C376 0.930 . S
H367 C379 0.929 . S
H368 C382 0.930 . S
H369 C384 0.960 . S
H370 C384 0.960 . S
H371 C384 0.960 . S
C372 H364 0.929 . S
C372 C373 1.377 . S
C372 C374 1.384 . S
C373 C372 1.377 . S
C373 C379 1.390 . S
C374 H365 0.930 . S
C374 C372 1.384 . S
C374 C375 1.372 . S
C375 C374 1.372 . S
C375 C376 1.400 . S
C375 C380 1.490 . S
C376 H366 0.930 . S
C376 C375 1.400 . S
C376 C379 1.386 . S
H377 C393 0.930 . S
H378 C394 0.931 . S
C379 H367 0.929 . S
C379 C373 1.390 . S
C379 C376 1.386 . S
C380 C375 1.490 . S
C380 C382 1.395 . S
C380 C383 1.403 . S
H381 C387 0.930 . S
C382 H368 0.930 . S
C382 C380 1.395 . S
C382 C385 1.403 . S
C383 C380 1.403 . S
C383 C384 1.524 . S
C383 C387 1.400 . S
C384 H369 0.960 . S
C384 H370 0.960 . S
C384 H371 0.960 . S
C384 C383 1.524 . S
C385 C382 1.403 . S
C385 C386 1.392 . S
C385 C389 1.495 . S
C386 C385 1.392 . S
C386 C387 1.385 . S
C386 C388 1.478 . S
C387 H381 0.930 . S
C387 C383 1.400 . S
C387 C386 1.385 . S
C388 C386 1.478 . S
C388 C390 1.381 . S
C388 C394 1.383 . S
C389 C385 1.495 . S
C389 H395 0.959 . S
C389 H396 0.961 . S
C389 H397 0.960 . S
C390 C388 1.381 . S
C390 C391 1.394 . S
C390 H398 0.930 . S
C391 C390 1.394 . S
C391 C392 1.383 . S
C391 H399 0.929 . S
C392 C391 1.383 . S
C392 C393 1.377 . S
C393 H377 0.930 . S
C393 C392 1.377 . S
C393 C394 1.379 . S
C394 H378 0.931 . S
C394 C388 1.383 . S
C394 C393 1.379 . S
H395 C389 0.959 . S
H396 C389 0.961 . S
H397 C389 0.960 . S
H398 C390 0.930 . S
H399 C391 0.929 . S
H400 C408 0.929 . S
H401 C410 0.930 . S
H402 C412 0.930 . S
H403 C415 0.929 . S
H404 C418 0.932 1_556 S
H405 C420 0.960 . S
H406 C420 0.960 . S
H407 C420 0.960 . S
C408 H400 0.929 . S
C408 C409 1.377 1_556 S
C408 C410 1.384 . S
C409 C408 1.377 1_554 S
C409 C415 1.390 . S
C410 H401 0.930 . S
C410 C408 1.384 . S
C410 C411 1.372 1_556 S
C411 C410 1.372 1_554 S
C411 C412 1.400 . S
C411 C416 1.490 . S
C412 H402 0.930 . S
C412 C411 1.400 . S
C412 C415 1.386 . S
H413 C429 0.930 . S
H414 C430 0.931 . S
C415 H403 0.929 . S
C415 C409 1.390 . S
C415 C412 1.386 . S
C416 C411 1.490 . S
C416 C418 1.411 . S
C416 C419 1.403 . S
H417 C423 0.930 . S
C418 H404 0.932 1_554 S
C418 C416 1.411 . S
C418 C421 1.385 1_655 S
C419 C416 1.403 . S
C419 C420 1.524 . S
C419 C423 1.400 1_655 S
C420 H405 0.960 . S
C420 H406 0.960 . S
C420 H407 0.960 . S
C420 C419 1.524 . S
C421 C418 1.385 1_455 S
C421 C422 1.392 . S
C421 C425 1.495 1_554 S
C422 C421 1.392 . S
C422 C423 1.385 . S
C422 C424 1.478 . S
C423 H417 0.930 . S
C423 C419 1.400 1_455 S
C423 C422 1.385 . S
C424 C422 1.478 . S
C424 C426 1.381 1_554 S
C424 C430 1.383 . S
C425 C421 1.495 1_556 S
C425 H431 0.959 . S
C425 H432 0.961 1_556 S
C425 H433 0.960 . S
C426 C424 1.381 1_556 S
C426 C427 1.394 . S
C426 H434 0.930 . S
C427 C426 1.394 . S
C427 C428 1.383 1_556 S
C427 H435 0.929 . S
C428 C427 1.383 1_554 S
C428 C429 1.377 . S
C429 H413 0.930 . S
C429 C428 1.377 . S
C429 C430 1.379 . S
C430 H414 0.931 . S
C430 C424 1.383 . S
C430 C429 1.379 . S
H431 C425 0.959 . S
H432 C425 0.961 1_554 S
H433 C425 0.960 . S
H434 C426 0.930 . S
H435 C427 0.929 . S
H436 C444 0.929 . S
H437 C446 0.930 . S
H438 C448 0.930 . S
H439 C451 0.929 . S
H440 C454 0.930 . S
H441 C456 0.960 . S
H442 C456 0.960 1_565 S
H443 C456 0.960 1_565 S
C444 H436 0.929 . S
C444 C445 1.377 . S
C444 C446 1.384 . S
C445 C444 1.377 . S
C445 C451 1.390 . S
C446 H437 0.930 . S
C446 C444 1.384 . S
C446 C447 1.372 . S
C447 C446 1.372 . S
C447 C448 1.400 . S
C447 C452 1.490 . S
C448 H438 0.930 . S
C448 C447 1.400 . S
C448 C451 1.386 . S
H449 C465 0.930 . S
H450 C466 0.931 . S
C451 H439 0.929 . S
C451 C445 1.390 . S
C451 C448 1.386 . S
C452 C447 1.490 . S
C452 C454 1.395 . S
C452 C455 1.372 1_565 S
H453 C459 0.930 . S
C454 H440 0.930 . S
C454 C452 1.395 . S
C454 C457 1.403 . S
C455 C452 1.372 1_545 S
C455 C456 1.528 . S
C455 C459 1.427 . S
C456 H441 0.960 . S
C456 H442 0.960 1_545 S
C456 H443 0.960 1_545 S
C456 C455 1.528 . S
C457 C454 1.403 . S
C457 C458 1.392 1_565 S
C457 C461 1.495 . S
C458 C457 1.392 1_545 S
C458 C459 1.385 . S
C458 C460 1.478 . S
C459 H453 0.930 . S
C459 C455 1.427 . S
C459 C458 1.385 . S
C460 C458 1.478 . S
C460 C462 1.381 . S
C460 C466 1.383 . S
C461 C457 1.495 . S
C461 H467 0.959 . S
C461 H468 0.964 . S
C461 H469 0.960 1_565 S
C462 C460 1.381 . S
C462 C463 1.394 . S
C462 H470 0.930 . S
C463 C462 1.394 . S
C463 C464 1.383 . S
C463 H471 0.929 . S
C464 C463 1.383 . S
C464 C465 1.377 . S
C465 H449 0.930 . S
C465 C464 1.377 . S
C465 C466 1.379 . S
C466 H450 0.931 . S
C466 C460 1.383 . S
C466 C465 1.379 . S
H467 C461 0.959 . S
H468 C461 0.964 . S
H469 C461 0.960 1_545 S
H470 C462 0.930 . S
H471 C463 0.929 . S
H472 C480 0.929 . S
H473 C482 0.930 . S
H474 C484 0.930 . S
H475 C487 0.929 . S
H476 C490 0.930 . S
H477 C492 0.960 . S
H478 C492 0.960 . S
H479 C492 0.960 . S
C480 H472 0.929 . S
C480 C481 1.377 . S
C480 C482 1.384 . S
C481 C480 1.377 . S
C481 C487 1.390 . S
C482 H473 0.930 . S
C482 C480 1.384 . S
C482 C483 1.372 . S
C483 C482 1.372 . S
C483 C484 1.400 . S
C483 C488 1.490 . S
C484 H474 0.930 . S
C484 C483 1.400 . S
C484 C487 1.386 . S
H485 C501 0.930 . S
H486 C502 0.931 . S
C487 H475 0.929 . S
C487 C481 1.390 . S
C487 C484 1.386 . S
C488 C483 1.490 . S
C488 C490 1.395 . S
C488 C491 1.403 . S
H489 C495 0.930 . S
C490 H476 0.930 . S
C490 C488 1.395 . S
C490 C493 1.403 1_455 S
C491 C488 1.403 . S
C491 C492 1.524 . S
C491 C495 1.400 1_455 S
C492 H477 0.960 . S
C492 H478 0.960 . S
C492 H479 0.960 . S
C492 C491 1.524 . S
C493 C490 1.403 1_655 S
C493 C494 1.392 . S
C493 C497 1.495 . S
C494 C493 1.392 . S
C494 C495 1.385 . S
C494 C496 1.478 . S
C495 H489 0.930 . S
C495 C491 1.400 1_655 S
C495 C494 1.385 . S
C496 C494 1.478 . S
C496 C498 1.381 . S
C496 C502 1.383 . S
C497 C493 1.495 . S
C497 H503 0.959 . S
C497 H504 0.961 . S
C497 H505 0.960 . S
C498 C496 1.381 . S
C498 C499 1.394 . S
C498 H506 0.930 . S
C499 C498 1.394 . S
C499 C500 1.383 . S
C499 H507 0.929 . S
C500 C499 1.383 . S
C500 C501 1.377 . S
C501 H485 0.930 . S
C501 C500 1.377 . S
C501 C502 1.379 . S
C502 H486 0.931 . S
C502 C496 1.383 . S
C502 C501 1.379 . S
H503 C497 0.959 . S
H504 C497 0.961 . S
H505 C497 0.960 . S
H506 C498 0.930 . S
H507 C499 0.929 . S
H508 C516 0.929 . S
H509 C518 0.930 . S
H510 C520 0.930 1_556 S
H511 C523 0.929 1_556 S
H512 C526 0.932 . S
H513 C528 0.960 . S
H514 C528 0.960 . S
H515 C528 0.960 1_556 S
C516 H508 0.929 . S
C516 C517 1.377 . S
C516 C518 1.384 . S
C517 C516 1.377 . S
C517 C523 1.390 . S
C518 H509 0.930 . S
C518 C516 1.384 . S
C518 C519 1.372 . S
C519 C518 1.372 . S
C519 C520 1.400 . S
C519 C524 1.490 . S
C520 H510 0.930 1_554 S
C520 C519 1.400 . S
C520 C523 1.386 . S
H521 C537 0.930 1_556 S
H522 C538 0.931 1_556 S
C523 H511 0.929 1_554 S
C523 C517 1.390 . S
C523 C520 1.386 . S
C524 C519 1.490 . S
C524 C526 1.410 . S
C524 C527 1.403 . S
H525 C531 0.930 . S
C526 H512 0.932 . S
C526 C524 1.410 . S
C526 C529 1.387 1_565 S
C527 C524 1.403 . S
C527 C528 1.524 . S
C527 C531 1.400 1_565 S
C528 H513 0.960 . S
C528 H514 0.960 . S
C528 H515 0.960 1_554 S
C528 C527 1.524 . S
C529 C526 1.387 1_545 S
C529 C530 1.392 . S
C529 C533 1.495 . S
C530 C529 1.392 . S
C530 C531 1.385 . S
C530 C532 1.478 . S
C531 H525 0.930 . S
C531 C527 1.400 1_545 S
C531 C530 1.385 . S
C532 C530 1.478 . S
C532 C534 1.381 . S
C532 C538 1.383 . S
C533 C529 1.495 . S
C533 H539 0.959 . S
C533 H540 0.961 . S
C533 H541 0.960 . S
C534 C532 1.381 . S
C534 C535 1.394 . S
C534 H542 0.930 . S
C535 C534 1.394 . S
C535 C536 1.383 . S
C535 H543 0.929 . S
C536 C535 1.383 . S
C536 C537 1.377 . S
C537 H521 0.930 1_554 S
C537 C536 1.377 . S
C537 C538 1.379 . S
C538 H522 0.931 1_554 S
C538 C532 1.383 . S
C538 C537 1.379 . S
H539 C533 0.959 . S
H540 C533 0.961 . S
H541 C533 0.960 . S
H542 C534 0.930 . S
H543 C535 0.929 . S
H544 C552 0.929 1_556 S
H545 C554 0.930 1_556 S
H546 C556 0.930 . S
H547 C559 0.929 . S
H548 C562 0.930 . S
H549 C564 0.960 1_556 S
H550 C564 0.960 1_556 S
H551 C564 0.960 . S
C552 H544 0.929 1_554 S
C552 C553 1.377 . S
C552 C554 1.384 . S
C553 C552 1.377 . S
C553 C559 1.390 . S
C554 H545 0.930 1_554 S
C554 C552 1.384 . S
C554 C555 1.372 . S
C555 C554 1.372 . S
C555 C556 1.400 . S
C555 C560 1.490 . S
C556 H546 0.930 . S
C556 C555 1.400 . S
C556 C559 1.386 . S
H557 C573 0.930 . S
H558 C574 0.931 . S
C559 H547 0.929 . S
C559 C553 1.390 . S
C559 C556 1.386 . S
C560 C555 1.490 . S
C560 C562 1.395 . S
C560 C563 1.403 . S
H561 C567 0.930 . S
C562 H548 0.930 . S
C562 C560 1.395 . S
C562 C565 1.403 . S
C563 C560 1.403 . S
C563 C564 1.524 . S
C563 C567 1.400 . S
C564 H549 0.960 1_554 S
C564 H550 0.960 1_554 S
C564 H551 0.960 . S
C564 C563 1.524 . S
C565 C562 1.403 . S
C565 C566 1.392 . S
C565 C569 1.495 . S
C566 C565 1.392 . S
C566 C567 1.385 . S
C566 C568 1.478 . S
C567 H561 0.930 . S
C567 C563 1.400 . S
C567 C566 1.385 . S
C568 C566 1.478 . S
C568 C570 1.381 . S
C568 C574 1.383 . S
C569 C565 1.495 . S
C569 H575 0.959 . S
C569 H576 0.961 . S
C569 H577 0.960 . S
C570 C568 1.381 . S
C570 C571 1.394 . S
C570 H578 0.930 1_554 S
C571 C570 1.394 . S
C571 C572 1.383 . S
C571 H579 0.929 1_554 S
C572 C571 1.383 . S
C572 C573 1.377 . S
C573 H557 0.930 . S
C573 C572 1.377 . S
C573 C574 1.379 . S
C574 H558 0.931 . S
C574 C568 1.383 . S
C574 C573 1.379 . S
H575 C569 0.959 . S
H576 C569 0.961 . S
H577 C569 0.960 . S
H578 C570 0.930 1_556 S
H579 C571 0.929 1_556 S
H580 C588 0.929 . S
H581 C590 0.930 . S
H582 C592 0.930 . S
H583 C595 0.929 . S
H584 C598 0.930 . S
H585 C600 0.960 . S
H586 C600 0.960 . S
H587 C600 0.960 . S
C588 H580 0.929 . S
C588 C589 1.377 . S
C588 C590 1.384 . S
C589 C588 1.377 . S
C589 C595 1.390 . S
C590 H581 0.930 . S
C590 C588 1.384 . S
C590 C591 1.372 . S
C591 C590 1.372 . S
C591 C592 1.400 . S
C591 C596 1.490 . S
C592 H582 0.930 . S
C592 C591 1.400 . S
C592 C595 1.386 . S
H593 C609 0.930 . S
H594 C610 0.931 . S
C595 H583 0.929 . S
C595 C589 1.390 . S
C595 C592 1.386 . S
C596 C591 1.490 . S
C596 C598 1.395 . S
C596 C599 1.403 . S
H597 C603 0.930 . S
C598 H584 0.930 . S
C598 C596 1.395 . S
C598 C601 1.403 . S
C599 C596 1.403 . S
C599 C600 1.524 . S
C599 C603 1.400 . S
C600 H585 0.960 . S
C600 H586 0.960 . S
C600 H587 0.960 . S
C600 C599 1.524 . S
C601 C598 1.403 . S
C601 C602 1.392 . S
C601 C605 1.495 . S
C602 C601 1.392 . S
C602 C603 1.385 . S
C602 C604 1.478 . S
C603 H597 0.930 . S
C603 C599 1.400 . S
C603 C602 1.385 . S
C604 C602 1.478 . S
C604 C606 1.381 . S
C604 C610 1.383 . S
C605 C601 1.495 . S
C605 H611 0.959 . S
C605 H612 0.961 . S
C605 H613 0.960 . S
C606 C604 1.381 . S
C606 C607 1.394 . S
C606 H614 0.930 . S
C607 C606 1.394 . S
C607 C608 1.383 . S
C607 H615 0.929 . S
C608 C607 1.383 . S
C608 C609 1.377 . S
C609 H593 0.930 . S
C609 C608 1.377 . S
C609 C610 1.379 . S
C610 H594 0.931 . S
C610 C604 1.383 . S
C610 C609 1.379 . S
H611 C605 0.959 . S
H612 C605 0.961 . S
H613 C605 0.960 . S
H614 C606 0.930 . S
H615 C607 0.929 . S
H616 C624 0.929 . S
H617 C626 0.930 . S
H618 C628 0.930 1_556 S
H619 C631 0.929 1_556 S
H620 C634 0.930 . S
H621 C636 0.960 . S
H622 C636 0.960 . S
H623 C636 0.960 . S
C624 H616 0.929 . S
C624 C625 1.377 . S
C624 C626 1.384 . S
C625 C624 1.377 . S
C625 C631 1.390 . S
C626 H617 0.930 . S
C626 C624 1.384 . S
C626 C627 1.372 . S
C627 C626 1.372 . S
C627 C628 1.400 . S
C627 C632 1.490 . S
C628 H618 0.930 1_554 S
C628 C627 1.400 . S
C628 C631 1.386 . S
H629 C645 0.930 1_556 S
H630 C646 0.931 1_556 S
C631 H619 0.929 1_554 S
C631 C625 1.390 . S
C631 C628 1.386 . S
C632 C627 1.490 . S
C632 C634 1.395 . S
C632 C635 1.403 . S
H633 C639 0.930 . S
C634 H620 0.930 . S
C634 C632 1.395 . S
C634 C637 1.403 . S
C635 C632 1.403 . S
C635 C636 1.524 . S
C635 C639 1.400 . S
C636 H621 0.960 . S
C636 H622 0.960 . S
C636 H623 0.960 . S
C636 C635 1.524 . S
C637 C634 1.403 . S
C637 C638 1.392 . S
C637 C641 1.495 . S
C638 C637 1.392 . S
C638 C639 1.385 . S
C638 C640 1.478 . S
C639 H633 0.930 . S
C639 C635 1.400 . S
C639 C638 1.385 . S
C640 C638 1.478 . S
C640 C642 1.381 . S
C640 C646 1.383 . S
C641 C637 1.495 . S
C641 H647 0.959 . S
C641 H648 0.961 . S
C641 H649 0.960 . S
C642 C640 1.381 . S
C642 C643 1.394 . S
C642 H650 0.930 . S
C643 C642 1.394 . S
C643 C644 1.383 . S
C643 H651 0.929 . S
C644 C643 1.383 . S
C644 C645 1.377 . S
C645 H629 0.930 1_554 S
C645 C644 1.377 . S
C645 C646 1.379 . S
C646 H630 0.931 1_554 S
C646 C640 1.383 . S
C646 C645 1.379 . S
H647 C641 0.959 . S
H648 C641 0.961 . S
H649 C641 0.960 . S
H650 C642 0.930 . S
H651 C643 0.929 . S
H652 C660 0.929 . S
H653 C662 0.930 . S
H654 C664 0.930 . S
H655 C667 0.929 . S
H656 C670 0.930 . S
H657 C672 0.960 . S
H658 C672 0.960 . S
H659 C672 0.960 . S
C660 H652 0.929 . S
C660 C661 1.377 . S
C660 C662 1.384 . S
C661 C660 1.377 . S
C661 C667 1.390 . S
C662 H653 0.930 . S
C662 C660 1.384 . S
C662 C663 1.372 . S
C663 C662 1.372 . S
C663 C664 1.400 . S
C663 C668 1.490 . S
C664 H654 0.930 . S
C664 C663 1.400 . S
C664 C667 1.386 . S
H665 C681 0.930 . S
H666 C682 0.931 . S
C667 H655 0.929 . S
C667 C661 1.390 . S
C667 C664 1.386 . S
C668 C663 1.490 . S
C668 C670 1.395 . S
C668 C671 1.403 . S
H669 C675 0.930 . S
C670 H656 0.930 . S
C670 C668 1.395 . S
C670 C673 1.403 . S
C671 C668 1.403 . S
C671 C672 1.524 . S
C671 C675 1.400 . S
C672 H657 0.960 . S
C672 H658 0.960 . S
C672 H659 0.960 . S
C672 C671 1.524 . S
C673 C670 1.403 . S
C673 C674 1.392 . S
C673 C677 1.495 . S
C674 C673 1.392 . S
C674 C675 1.385 . S
C674 C676 1.478 . S
C675 H669 0.930 . S
C675 C671 1.400 . S
C675 C674 1.385 . S
C676 C674 1.478 . S
C676 C678 1.381 . S
C676 C682 1.383 . S
C677 C673 1.495 . S
C677 H683 0.959 . S
C677 H684 0.961 . S
C677 H685 0.960 . S
C678 C676 1.381 . S
C678 C679 1.394 . S
C678 H686 0.930 . S
C679 C678 1.394 . S
C679 C680 1.383 . S
C679 H687 0.929 . S
C680 C679 1.383 . S
C680 C681 1.377 . S
C681 H665 0.930 . S
C681 C680 1.377 . S
C681 C682 1.379 . S
C682 H666 0.931 . S
C682 C676 1.383 . S
C682 C681 1.379 . S
H683 C677 0.959 . S
H684 C677 0.961 . S
H685 C677 0.960 . S
H686 C678 0.930 . S
H687 C679 0.929 . S
C121 C13 1.077 . S
C140 C69 1.104 . S
C157 C27 1.062 . S
C176 C83 1.058 . S
C193 C97 1.063 . S
C212 C41 1.027 . S
C229 C111 1.063 . S
C248 C55 1.028 . S
C265 C91 0.932 . S
C284 C35 0.938 . S
C301 C105 0.936 . S
C320 C49 0.921 . S
C337 C7 0.936 . S
C356 C63 0.953 . S
C373 C21 0.936 . S
C392 C77 0.918 . S
C409 C36 0.970 . S
C428 C8 0.926 . S
C445 C50 0.979 . S
C464 C22 1.029 . S
C481 C64 0.965 . S
C500 C92 0.927 . S
C517 C106 0.970 . S
C536 C78 0.925 . S
C553 C11 1.089 . S
C572 C81 1.064 . S
C589 C95 1.094 . S
C608 C25 1.116 . S
C625 C39 1.092 . S
C644 C109 1.114 . S
C661 C53 1.092 . S
C680 C67 1.066 . S
