# Generated by pormake.
# Topology umc, (4)-cn, num edge types: 1
# Building blocks:
#     Node 0, Type 0, BuildingBlock: ICAMEG_clean_sbu_1, # of connection points: 4
#     Node 1, Type 0, BuildingBlock: ICAMEG_clean_sbu_1, # of connection points: 4
#     Node 2, Type 0, BuildingBlock: ICAMEG_clean_sbu_1, # of connection points: 4
#     Node 3, Type 0, BuildingBlock: ICAMEG_clean_sbu_1, # of connection points: 4
#     Node 4, Type 0, BuildingBlock: ICAMEG_clean_sbu_1, # of connection points: 4
#     Node 5, Type 0, BuildingBlock: ICAMEG_clean_sbu_1, # of connection points: 4
#     Node 6, Type 0, BuildingBlock: ICAMEG_clean_sbu_1, # of connection points: 4
#     Node 7, Type 0, BuildingBlock: ICAMEG_clean_sbu_1, # of connection points: 4
#     Node 8, Type 0, BuildingBlock: ICAMEG_clean_sbu_1, # of connection points: 4
#     Node 9, Type 0, BuildingBlock: ICAMEG_clean_sbu_1, # of connection points: 4
#     Node 10, Type 0, BuildingBlock: ICAMEG_clean_sbu_1, # of connection points: 4
#     Node 11, Type 0, BuildingBlock: ICAMEG_clean_sbu_1, # of connection points: 4
#     Node 12, Type 0, BuildingBlock: ICAMEG_clean_sbu_1, # of connection points: 4
#     Node 13, Type 0, BuildingBlock: ICAMEG_clean_sbu_1, # of connection points: 4
#     Node 14, Type 0, BuildingBlock: ICAMEG_clean_sbu_1, # of connection points: 4
#     Node 15, Type 0, BuildingBlock: ICAMEG_clean_sbu_1, # of connection points: 4
#     Edge 16, Type (0, 0), BuildingBlock: CIFDUS_clean_linker_0, # of connection points: 2
#     Edge 17, Type (0, 0), BuildingBlock: CIFDUS_clean_linker_0, # of connection points: 2
#     Edge 18, Type (0, 0), BuildingBlock: CIFDUS_clean_linker_0, # of connection points: 2
#     Edge 19, Type (0, 0), BuildingBlock: CIFDUS_clean_linker_0, # of connection points: 2
#     Edge 20, Type (0, 0), BuildingBlock: CIFDUS_clean_linker_0, # of connection points: 2
#     Edge 21, Type (0, 0), BuildingBlock: CIFDUS_clean_linker_0, # of connection points: 2
#     Edge 22, Type (0, 0), BuildingBlock: CIFDUS_clean_linker_0, # of connection points: 2
#     Edge 23, Type (0, 0), BuildingBlock: CIFDUS_clean_linker_0, # of connection points: 2
#     Edge 24, Type (0, 0), BuildingBlock: CIFDUS_clean_linker_0, # of connection points: 2
#     Edge 25, Type (0, 0), BuildingBlock: CIFDUS_clean_linker_0, # of connection points: 2
#     Edge 26, Type (0, 0), BuildingBlock: CIFDUS_clean_linker_0, # of connection points: 2
#     Edge 27, Type (0, 0), BuildingBlock: CIFDUS_clean_linker_0, # of connection points: 2
#     Edge 28, Type (0, 0), BuildingBlock: CIFDUS_clean_linker_0, # of connection points: 2
#     Edge 29, Type (0, 0), BuildingBlock: CIFDUS_clean_linker_0, # of connection points: 2
#     Edge 30, Type (0, 0), BuildingBlock: CIFDUS_clean_linker_0, # of connection points: 2
#     Edge 31, Type (0, 0), BuildingBlock: CIFDUS_clean_linker_0, # of connection points: 2
#     Edge 32, Type (0, 0), BuildingBlock: CIFDUS_clean_linker_0, # of connection points: 2
#     Edge 33, Type (0, 0), BuildingBlock: CIFDUS_clean_linker_0, # of connection points: 2
#     Edge 34, Type (0, 0), BuildingBlock: CIFDUS_clean_linker_0, # of connection points: 2
#     Edge 35, Type (0, 0), BuildingBlock: CIFDUS_clean_linker_0, # of connection points: 2
#     Edge 36, Type (0, 0), BuildingBlock: CIFDUS_clean_linker_0, # of connection points: 2
#     Edge 37, Type (0, 0), BuildingBlock: CIFDUS_clean_linker_0, # of connection points: 2
#     Edge 38, Type (0, 0), BuildingBlock: CIFDUS_clean_linker_0, # of connection points: 2
#     Edge 39, Type (0, 0), BuildingBlock: CIFDUS_clean_linker_0, # of connection points: 2
#     Edge 40, Type (0, 0), BuildingBlock: CIFDUS_clean_linker_0, # of connection points: 2
#     Edge 41, Type (0, 0), BuildingBlock: CIFDUS_clean_linker_0, # of connection points: 2
#     Edge 42, Type (0, 0), BuildingBlock: CIFDUS_clean_linker_0, # of connection points: 2
#     Edge 43, Type (0, 0), BuildingBlock: CIFDUS_clean_linker_0, # of connection points: 2
#     Edge 44, Type (0, 0), BuildingBlock: CIFDUS_clean_linker_0, # of connection points: 2
#     Edge 45, Type (0, 0), BuildingBlock: CIFDUS_clean_linker_0, # of connection points: 2
#     Edge 46, Type (0, 0), BuildingBlock: CIFDUS_clean_linker_0, # of connection points: 2
#     Edge 47, Type (0, 0), BuildingBlock: CIFDUS_clean_linker_0, # of connection points: 2
# Relax obj value: 0.054
# Max RMSD: 0.128
# Mean RMSD: 0.128
data_MOF--net-umc--node1-ICAMEG_clean_sbu_1--edge1-CIFDUS_clean_linker_0
_symmetry_space_group_name_H-M    P1
_symmetry_Int_Tables_number       1
_symmetry_cell_setting            triclinic
loop_
_symmetry_equiv_pos_as_xyz
'x, y, z'
_cell_length_a     44.302608
_cell_length_b     30.062947
_cell_length_c     53.513793
_cell_angle_alpha  89.987076
_cell_angle_beta   89.965544
_cell_angle_gamma 90.122488
loop_
_atom_site_label
_atom_site_type_symbol
_atom_site_fract_x
_atom_site_fract_y
_atom_site_fract_z
_atom_type_partial_charge
Co0 Co 0.35281 0.03099 0.38177 0.0
Co1 Co 0.37917 0.12741 0.35383 0.0
O2 O 0.35429 0.09575 0.37821 0.0
C3 C 0.37014 0.06258 0.43212 0.0
O4 O 0.3902 0.08775 0.42083 0.0
C5 C 0.3174 0.16191 0.34426 0.0
O6 O 0.30762 0.12064 0.34412 0.0
O7 O 0.36455 0.0881 0.32622 0.0
O8 O 0.35302 0.02294 0.34462 0.0
H9 H 0.45228 0.13908 0.28234 0.0
H10 H 0.30788 0.08691 0.40811 0.0
O11 O 0.35281 0.03761 0.41922 0.0
H12 H 0.24851 0.98986 0.35234 0.0
H13 H 0.31675 0.88826 0.42102 0.0
H14 H 0.38319 0.95484 0.35716 0.0
H15 H 0.30399 0.98362 0.35406 0.0
H16 H 0.31887 0.96967 0.4154 0.0
O17 O 0.34534 0.17002 0.34744 0.0
H18 H 0.4213 0.09989 0.31375 0.0
H19 H 0.38892 0.22329 0.34146 0.0
H20 H 0.38164 0.87328 0.36201 0.0
H21 H 0.25243 0.09407 0.40709 0.0
H22 H 0.34822 0.83948 0.39414 0.0
H23 H 0.22238 0.0454 0.37899 0.0
O24 O 0.39769 0.02676 0.38196 0.0
H25 H 0.36684 0.22222 0.43047 0.0
H26 H 0.43948 0.16174 0.36956 0.0
H27 H 0.458 0.20793 0.40446 0.0
H28 H 0.42152 0.23853 0.43522 0.0
H29 H 0.3494 0.17544 0.39546 0.0
H30 H 0.41934 0.26379 0.31021 0.0
H31 H 0.45141 0.22163 0.28044 0.0
O32 O 0.41385 0.08645 0.36024 0.0
C33 C 0.35678 0.04716 0.32525 0.0
C34 C 0.43847 0.15783 0.29526 0.0
C35 C 0.41994 0.22782 0.31088 0.0
N36 N 0.40351 0.15928 0.32954 0.0
C37 C 0.42096 0.13583 0.31314 0.0
C38 C 0.4027 0.2047 0.32849 0.0
C39 C 0.43795 0.20414 0.29419 0.0
C40 C 0.29493 0.06532 0.39602 0.0
N41 N 0.30912 0.03472 0.38128 0.0
C42 C 0.26355 0.06965 0.39545 0.0
C43 C 0.24671 0.04237 0.37965 0.0
C44 C 0.26136 0.01122 0.36468 0.0
C45 C 0.29277 0.00789 0.3657 0.0
C46 C 0.33135 0.90258 0.40693 0.0
C47 C 0.36847 0.94036 0.37107 0.0
C48 C 0.33269 0.94865 0.40369 0.0
N49 N 0.35097 0.96694 0.38583 0.0
C50 C 0.36775 0.89417 0.37378 0.0
C51 C 0.34901 0.87523 0.39183 0.0
C52 C 0.4185 0.04998 0.37183 0.0
C53 C 0.38296 0.20904 0.41721 0.0
C54 C 0.42355 0.17459 0.38301 0.0
C55 C 0.43413 0.20093 0.40265 0.0
C56 C 0.41365 0.21814 0.41988 0.0
N57 N 0.39345 0.1656 0.38059 0.0
C58 C 0.37321 0.18262 0.39731 0.0
Co59 Co 0.64423 0.9575 0.3821 0.0
Co60 Co 0.62392 0.86248 0.34978 0.0
O61 O 0.64597 0.89359 0.37607 0.0
C62 C 0.62547 0.91788 0.43008 0.0
O63 O 0.60759 0.89186 0.41707 0.0
C64 C 0.68784 0.84027 0.34078 0.0
O65 O 0.69341 0.88307 0.34245 0.0
O66 O 0.63676 0.90712 0.3242 0.0
O67 O 0.64584 0.97019 0.34552 0.0
H68 H 0.55405 0.85011 0.27619 0.0
H69 H 0.6901 0.90292 0.40818 0.0
O70 O 0.64224 0.94614 0.41897 0.0
H71 H 0.74795 0.01258 0.35899 0.0
H72 H 0.6708 0.09806 0.42829 0.0
H73 H 0.61157 0.03333 0.35925 0.0
H74 H 0.69227 0.01308 0.35851 0.0
H75 H 0.67312 0.01762 0.4194 0.0
O76 O 0.66083 0.82603 0.34265 0.0
H77 H 0.58141 0.88929 0.3098 0.0
H78 H 0.62089 0.76776 0.33344 0.0
H79 H 0.60873 0.11397 0.36737 0.0
H80 H 0.74576 0.90139 0.40933 0.0
H81 H 0.63851 0.14684 0.40211 0.0
H82 H 0.77505 0.95643 0.38454 0.0
O83 O 0.5994 0.95705 0.38049 0.0
H84 H 0.63973 0.758 0.4219 0.0
H85 H 0.56511 0.82034 0.36331 0.0
H86 H 0.54843 0.7671 0.39558 0.0
H87 H 0.58589 0.73551 0.42515 0.0
H88 H 0.65536 0.8117 0.38951 0.0
H89 H 0.59415 0.7273 0.29997 0.0
H90 H 0.56035 0.76852 0.27113 0.0
O91 O 0.58663 0.89808 0.35677 0.0
C92 C 0.64326 0.94851 0.32515 0.0
C93 C 0.56863 0.83176 0.28869 0.0
C94 C 0.59117 0.76284 0.30202 0.0
N95 N 0.60251 0.83077 0.32367 0.0
C96 C 0.5841 0.85374 0.3078 0.0
C97 C 0.60631 0.78593 0.32089 0.0
C98 C 0.5722 0.78599 0.28585 0.0
C99 C 0.7027 0.92726 0.39755 0.0
N100 N 0.68797 0.95821 0.38342 0.0
C101 C 0.73421 0.92611 0.39819 0.0
C102 C 0.75063 0.95696 0.38425 0.0
C103 C 0.73544 0.98846 0.36989 0.0
C104 C 0.70391 0.98854 0.36966 0.0
C105 C 0.65779 0.08416 0.41306 0.0
C106 C 0.62475 0.04744 0.37429 0.0
C107 C 0.65897 0.03863 0.40796 0.0
N108 N 0.6427 0.02089 0.38868 0.0
C109 C 0.62298 0.0931 0.37885 0.0
C110 C 0.63967 0.11151 0.39836 0.0
C111 C 0.57995 0.933 0.36919 0.0
C112 C 0.6232 0.77149 0.4091 0.0
C113 C 0.5815 0.80693 0.37619 0.0
C114 C 0.57195 0.77667 0.39437 0.0
C115 C 0.59299 0.75893 0.41094 0.0
N116 N 0.61116 0.81913 0.37452 0.0
C117 C 0.63193 0.80178 0.39066 0.0
Co118 Co 0.34243 0.99135 0.12597 0.0
Co119 Co 0.3735 0.89521 0.15063 0.0
O120 O 0.34662 0.92653 0.12752 0.0
C121 C 0.35771 0.96565 0.07376 0.0
O122 O 0.37607 0.93552 0.08281 0.0
C123 C 0.31361 0.85424 0.16071 0.0
O124 O 0.30231 0.89452 0.1621 0.0
O125 O 0.35839 0.93056 0.17975 0.0
O126 O 0.34328 0.9955 0.16323 0.0
H127 H 0.44938 0.88414 0.22009 0.0
H128 H 0.29931 0.93427 0.09838 0.0
O129 O 0.34199 0.98975 0.08839 0.0
H130 H 0.23737 0.01906 0.15826 0.0
H131 H 0.2997 0.13455 0.09255 0.0
H132 H 0.37061 0.06734 0.1526 0.0
H133 H 0.29244 0.03084 0.156 0.0
H134 H 0.30507 0.05304 0.09526 0.0
O135 O 0.34167 0.84892 0.15657 0.0
H136 H 0.41572 0.92308 0.19065 0.0
H137 H 0.38767 0.79953 0.15984 0.0
H138 H 0.36578 0.14898 0.15066 0.0
H139 H 0.24429 0.92163 0.09989 0.0
H140 H 0.33011 0.1831 0.12046 0.0
H141 H 0.21296 0.96413 0.13005 0.0
O142 O 0.38696 0.9997 0.1251 0.0
H143 H 0.36254 0.80338 0.07269 0.0
H144 H 0.43466 0.87015 0.13199 0.0
H145 H 0.45384 0.82816 0.09575 0.0
H146 H 0.41764 0.79432 0.06581 0.0
H147 H 0.34439 0.84621 0.10899 0.0
H148 H 0.42083 0.75925 0.18909 0.0
H149 H 0.45207 0.80163 0.21942 0.0
O150 O 0.40612 0.94013 0.14493 0.0
C151 C 0.34899 0.97053 0.18191 0.0
C152 C 0.43594 0.86531 0.20691 0.0
C153 C 0.41988 0.79521 0.18953 0.0
N154 N 0.39991 0.86363 0.17343 0.0
C155 C 0.41691 0.88718 0.19015 0.0
C156 C 0.40108 0.8182 0.17307 0.0
C157 C 0.43742 0.81901 0.20654 0.0
C158 C 0.28576 0.95318 0.11137 0.0
N159 N 0.29901 0.98343 0.12696 0.0
C160 C 0.25465 0.94576 0.11222 0.0
C161 C 0.23709 0.96957 0.12918 0.0
C162 C 0.25078 1.00038 0.14502 0.0
C163 C 0.28197 0.00685 0.14368 0.0
C164 C 0.31526 0.12008 0.10583 0.0
C165 C 0.3549 0.08193 0.13953 0.0
C166 C 0.31844 0.07395 0.10742 0.0
N167 N 0.33796 0.05545 0.12422 0.0
C168 C 0.35232 0.12818 0.13847 0.0
C169 C 0.33233 0.1473 0.1215 0.0
C170 C 0.40896 0.978 0.13439 0.0
C171 C 0.37854 0.81794 0.0856 0.0
C172 C 0.41881 0.85595 0.11892 0.0
C173 C 0.42978 0.83197 0.0985 0.0
C174 C 0.40946 0.81294 0.08173 0.0
N175 N 0.38846 0.86084 0.12255 0.0
C176 C 0.3684 0.8421 0.10625 0.0
Co177 Co 0.64844 0.03923 0.12971 0.0
Co178 Co 0.61853 0.12901 0.16158 0.0
O179 O 0.64385 0.10278 0.13575 0.0
C180 C 0.62582 0.07515 0.08212 0.0
O181 O 0.60603 0.09705 0.09557 0.0
C182 C 0.67987 0.16242 0.17165 0.0
O183 O 0.68867 0.12083 0.17028 0.0
O184 O 0.634 0.08662 0.18727 0.0
O185 O 0.65113 0.02691 0.16632 0.0
H186 H 0.54562 0.12681 0.23351 0.0
H187 H 0.68836 0.10359 0.1037 0.0
O188 O 0.64521 0.0503 0.09281 0.0
H189 H 0.7564 0.00859 0.15325 0.0
H190 H 0.68898 0.90656 0.08333 0.0
H191 H 0.62399 0.95674 0.1526 0.0
H192 H 0.70145 0.99505 0.15331 0.0
H193 H 0.68292 0.98656 0.09224 0.0
O194 O 0.65196 0.17187 0.16958 0.0
H195 H 0.57713 0.09372 0.20036 0.0
H196 H 0.60723 0.22209 0.17834 0.0
H197 H 0.62957 0.87642 0.14449 0.0
H198 H 0.74317 0.1182 0.10302 0.0
H199 H 0.66228 0.85087 0.10963 0.0
H200 H 0.77757 0.07062 0.12801 0.0
O201 O 0.60406 0.0296 0.13138 0.0
H202 H 0.62778 0.23682 0.09016 0.0
H203 H 0.55718 0.16016 0.14703 0.0
H204 H 0.53718 0.21036 0.11459 0.0
H205 H 0.57261 0.24915 0.08589 0.0
H206 H 0.64677 0.18594 0.12268 0.0
H207 H 0.57622 0.25658 0.21136 0.0
H208 H 0.54504 0.20881 0.23916 0.0
O209 O 0.58488 0.08682 0.15348 0.0
C210 C 0.64502 0.0474 0.18658 0.0
C211 C 0.55903 0.14798 0.22146 0.0
C212 C 0.57624 0.22081 0.20905 0.0
N213 N 0.59378 0.15598 0.18732 0.0
C214 C 0.57683 0.12945 0.20261 0.0
C215 C 0.5938 0.2011 0.19043 0.0
C216 C 0.55874 0.19399 0.22464 0.0
C217 C 0.70323 0.08243 0.11439 0.0
N218 N 0.69176 0.04835 0.1284 0.0
C219 C 0.73423 0.09098 0.11402 0.0
C220 C 0.75351 0.06431 0.12808 0.0
C221 C 0.74165 0.02952 0.14226 0.0
C222 C 0.71052 0.02203 0.14223 0.0
C223 C 0.67472 0.91727 0.09861 0.0
C224 C 0.6384 0.94586 0.1375 0.0
C225 C 0.67116 0.96251 0.10371 0.0
N226 N 0.65332 0.97626 0.12306 0.0
C227 C 0.64141 0.90035 0.13295 0.0
C228 C 0.65974 0.88604 0.11337 0.0
C229 C 0.58213 0.05013 0.14164 0.0
C230 C 0.61212 0.22016 0.10258 0.0
C231 C 0.57271 0.17673 0.13453 0.0
C232 C 0.56127 0.20524 0.11625 0.0
C233 C 0.58116 0.22702 0.10017 0.0
N234 N 0.6031 0.17012 0.13675 0.0
C235 C 0.62275 0.19144 0.12109 0.0
Co236 Co 0.65406 0.97999 0.6279 0.0
Co237 Co 0.63118 0.88171 0.65571 0.0
O238 O 0.6548 0.91546 0.63148 0.0
C239 C 0.63701 0.94592 0.57825 0.0
O240 O 0.61818 0.91935 0.58995 0.0
C241 C 0.69431 0.85733 0.66604 0.0
O242 O 0.70036 0.9001 0.6661 0.0
O243 O 0.64304 0.92285 0.68326 0.0
O244 O 0.65441 0.98812 0.66492 0.0
H245 H 0.55754 0.86194 0.7263 0.0
H246 H 0.70026 0.92718 0.60099 0.0
O247 O 0.6534 0.97293 0.59065 0.0
H248 H 0.75748 0.02883 0.6557 0.0
H249 H 0.68422 0.1249 0.58781 0.0
H250 H 0.62187 0.05398 0.65302 0.0
H251 H 0.70184 0.03111 0.65472 0.0
H252 H 0.68497 0.04347 0.59356 0.0
O253 O 0.66734 0.84389 0.66269 0.0
H254 H 0.58688 0.90452 0.69519 0.0
H255 H 0.62658 0.7853 0.66829 0.0
H256 H 0.62056 0.13551 0.64804 0.0
H257 H 0.75589 0.92395 0.60127 0.0
H258 H 0.65192 0.1715 0.61523 0.0
H259 H 0.78487 0.97494 0.62883 0.0
O260 O 0.60917 0.98083 0.62846 0.0
H261 H 0.64988 0.78622 0.58022 0.0
H262 H 0.57284 0.8424 0.6387 0.0
H263 H 0.5574 0.79377 0.60384 0.0
H264 H 0.59608 0.76533 0.5743 0.0
H265 H 0.66425 0.83529 0.61519 0.0
H266 H 0.59786 0.74146 0.69923 0.0
H267 H 0.56295 0.7798 0.72844 0.0
O268 O 0.5947 0.91881 0.64889 0.0
C269 C 0.65035 0.96393 0.68423 0.0
C270 C 0.5726 0.84484 0.71361 0.0
C271 C 0.59526 0.77722 0.69844 0.0
N272 N 0.60821 0.84737 0.67982 0.0
C273 C 0.5892 0.86875 0.69592 0.0
C274 C 0.61151 0.80222 0.681 0.0
C275 C 0.57567 0.79876 0.71482 0.0
C276 C 0.71273 0.9498 0.61283 0.0
N277 N 0.69784 0.97948 0.62769 0.0
C278 C 0.74422 0.94768 0.61299 0.0
C279 C 0.76046 0.97626 0.62849 0.0
C280 C 0.74511 0.00649 0.64358 0.0
C281 C 0.7136 0.00759 0.64297 0.0
C282 C 0.6705 0.10962 0.6022 0.0
C283 C 0.63569 0.06942 0.6388 0.0
C284 C 0.67079 0.06354 0.60551 0.0
N285 N 0.65364 0.04406 0.62373 0.0
C286 C 0.6348 0.11559 0.63602 0.0
C287 C 0.65238 0.13575 0.6176 0.0
C288 C 0.589 0.95567 0.63804 0.0
C289 C 0.63282 0.79836 0.59298 0.0
C290 C 0.58975 0.83034 0.62586 0.0
C291 C 0.5809 0.80268 0.6062 0.0
C292 C 0.60262 0.7867 0.58965 0.0
N293 N 0.61939 0.84171 0.62897 0.0
C294 C 0.64083 0.82603 0.61288 0.0
Co295 Co 0.36324 0.05407 0.63042 0.0
Co296 Co 0.38795 0.15268 0.65684 0.0
O297 O 0.36394 0.11882 0.63295 0.0
C298 C 0.38364 0.08534 0.58098 0.0
O299 O 0.40226 0.11101 0.59348 0.0
C300 C 0.32529 0.18081 0.66629 0.0
O301 O 0.31806 0.13845 0.66661 0.0
O302 O 0.37471 0.11347 0.68485 0.0
O303 O 0.36098 0.04803 0.66779 0.0
H304 H 0.4611 0.17213 0.72772 0.0
H305 H 0.31968 0.1079 0.60126 0.0
O306 O 0.36583 0.05936 0.59283 0.0
H307 H 0.25749 0.0125 0.65589 0.0
H308 H 0.33131 0.90889 0.5917 0.0
H309 H 0.3922 0.97976 0.6578 0.0
H310 H 0.31304 0.00709 0.65661 0.0
H311 H 0.33245 0.9906 0.59609 0.0
O312 O 0.35262 0.19257 0.66298 0.0
H313 H 0.43118 0.12959 0.69701 0.0
H314 H 0.39452 0.24941 0.66806 0.0
H315 H 0.39154 0.89796 0.65422 0.0
H316 H 0.26419 0.11422 0.59983 0.0
H317 H 0.36092 0.86201 0.62097 0.0
H318 H 0.23272 0.0664 0.62735 0.0
O319 O 0.40804 0.05062 0.63223 0.0
H320 H 0.37227 0.24486 0.5796 0.0
H321 H 0.44724 0.18917 0.63996 0.0
H322 H 0.46414 0.2353 0.60447 0.0
H323 H 0.4265 0.26349 0.57398 0.0
H324 H 0.35644 0.19822 0.61522 0.0
H325 H 0.42385 0.29323 0.69858 0.0
H326 H 0.45753 0.25456 0.72862 0.0
O327 O 0.42371 0.11372 0.65084 0.0
C328 C 0.36556 0.07327 0.68667 0.0
C329 C 0.44658 0.18937 0.71467 0.0
C330 C 0.42564 0.25734 0.69834 0.0
N331 N 0.41134 0.18702 0.68064 0.0
C332 C 0.42967 0.16547 0.6972 0.0
C333 C 0.40904 0.23234 0.68114 0.0
C334 C 0.44454 0.23562 0.71518 0.0
C335 C 0.30611 0.08665 0.6131 0.0
N336 N 0.31956 0.05698 0.62888 0.0
C337 C 0.27472 0.09051 0.61229 0.0
C338 C 0.25707 0.06371 0.62776 0.0
C339 C 0.27096 0.03348 0.64379 0.0
C340 C 0.30242 0.0306 0.64414 0.0
C341 C 0.34468 0.92416 0.60629 0.0
C342 C 0.37867 0.96433 0.64339 0.0
C343 C 0.34546 0.97039 0.60883 0.0
N344 N 0.36218 0.98985 0.6273 0.0
C345 C 0.37846 0.91802 0.64141 0.0
C346 C 0.3613 0.89787 0.62273 0.0
C347 C 0.42869 0.07568 0.6411 0.0
C348 C 0.38889 0.23279 0.59277 0.0
C349 C 0.43079 0.20107 0.62669 0.0
C350 C 0.44046 0.22734 0.60669 0.0
C351 C 0.41932 0.24319 0.58961 0.0
N352 N 0.40092 0.19089 0.62962 0.0
C353 C 0.38005 0.2065 0.61302 0.0
Co354 Co 0.65323 0.02429 0.88317 0.0
Co355 Co 0.62143 0.1173 0.85605 0.0
O356 O 0.64781 0.08844 0.88022 0.0
C357 C 0.63439 0.05279 0.93349 0.0
O358 O 0.61269 0.07507 0.92248 0.0
C359 C 0.68145 0.15816 0.84717 0.0
O360 O 0.69234 0.1176 0.84654 0.0
O361 O 0.63837 0.08107 0.82817 0.0
O362 O 0.65347 0.01723 0.8461 0.0
H363 H 0.5484 0.12242 0.78433 0.0
H364 H 0.69466 0.08556 0.90992 0.0
O365 O 0.65288 0.03011 0.92048 0.0
H366 H 0.75953 0.99851 0.85328 0.0
H367 H 0.69772 0.88621 0.92138 0.0
H368 H 0.62756 0.94486 0.85798 0.0
H369 H 0.70469 0.98448 0.85511 0.0
H370 H 0.69072 0.96711 0.91634 0.0
O371 O 0.65321 0.16417 0.85035 0.0
H372 H 0.58131 0.08603 0.81534 0.0
H373 H 0.60648 0.21189 0.84484 0.0
H374 H 0.63403 0.86374 0.86225 0.0
H375 H 0.74941 0.10051 0.90878 0.0
H376 H 0.66932 0.83393 0.89415 0.0
H377 H 0.78222 0.05692 0.88024 0.0
O378 O 0.6088 0.01398 0.88324 0.0
H379 H 0.62732 0.21221 0.93319 0.0
H380 H 0.55909 0.14049 0.87254 0.0
H381 H 0.53758 0.18281 0.90775 0.0
H382 H 0.57181 0.21906 0.93838 0.0
H383 H 0.64784 0.16919 0.89782 0.0
H384 H 0.57402 0.24968 0.81401 0.0
H385 H 0.5446 0.20484 0.78354 0.0
O386 O 0.58918 0.07118 0.86153 0.0
C387 C 0.64835 0.0413 0.82693 0.0
C388 C 0.56102 0.14232 0.79756 0.0
C389 C 0.57544 0.21375 0.8142 0.0
N390 N 0.59559 0.1468 0.83199 0.0
C391 C 0.57963 0.1219 0.81521 0.0
C392 C 0.59383 0.19218 0.83157 0.0
C393 C 0.55893 0.18857 0.79711 0.0
C394 C 0.70884 0.06612 0.89765 0.0
N395 N 0.69652 0.03401 0.88271 0.0
C396 C 0.7398 0.07487 0.89701 0.0
C397 C 0.75819 0.05045 0.88096 0.0
C398 C 0.74547 0.01769 0.86581 0.0
C399 C 0.7144 0.00994 0.86691 0.0
C400 C 0.68232 0.89879 0.90738 0.0
C401 C 0.64311 0.93214 0.87178 0.0
C402 C 0.67823 0.94455 0.90447 0.0
N403 N 0.65893 0.96067 0.88674 0.0
C404 C 0.64661 0.88618 0.87417 0.0
C405 C 0.66639 0.86948 0.89209 0.0
C406 C 0.58669 0.03379 0.87277 0.0
C407 C 0.61217 0.19663 0.91994 0.0
C408 C 0.5741 0.15598 0.88584 0.0
C409 C 0.56181 0.18004 0.9057 0.0
C410 C 0.58102 0.2004 0.92287 0.0
N411 N 0.60467 0.15237 0.88312 0.0
C412 C 0.62366 0.17237 0.89982 0.0
Co413 Co 0.34814 0.95949 0.87149 0.0
Co414 Co 0.38151 0.8648 0.84776 0.0
O415 O 0.35426 0.89557 0.87024 0.0
C416 C 0.36238 0.97834 0.92462 0.0
O417 O 0.37808 0.01275 0.91679 0.0
C418 C 0.32108 0.8272 0.8372 0.0
O419 O 0.31182 0.86849 0.83523 0.0
O420 O 0.36735 0.90047 0.81861 0.0
O421 O 0.34896 0.96456 0.83406 0.0
H422 H 0.45932 0.8535 0.77976 0.0
H423 H 0.3066 0.89941 0.89911 0.0
O424 O 0.34822 0.95384 0.90905 0.0
H425 H 0.24249 0.97927 0.83871 0.0
H426 H 0.29885 0.09875 0.9042 0.0
H427 H 0.37432 0.03793 0.84577 0.0
H428 H 0.29701 0.99535 0.84137 0.0
H429 H 0.30753 0.01781 0.90159 0.0
O430 O 0.34894 0.81922 0.84131 0.0
H431 H 0.42528 0.89263 0.80887 0.0
H432 H 0.39482 0.76916 0.83819 0.0
H433 H 0.36641 0.11905 0.84774 0.0
H434 H 0.25217 0.88253 0.89716 0.0
H435 H 0.32843 0.14995 0.87714 0.0
H436 H 0.21974 0.92245 0.86672 0.0
O437 O 0.39252 0.97017 0.87205 0.0
H438 H 0.36867 0.77306 0.92561 0.0
H439 H 0.44211 0.83947 0.86715 0.0
H440 H 0.46047 0.79695 0.9035 0.0
H441 H 0.42361 0.76329 0.933 0.0
H442 H 0.35133 0.81614 0.88912 0.0
H443 H 0.42834 0.72865 0.80927 0.0
H444 H 0.46097 0.77092 0.77985 0.0
O445 O 0.41412 0.90994 0.85441 0.0
C446 C 0.3565 0.93948 0.8158 0.0
C447 C 0.44529 0.83472 0.79255 0.0
C448 C 0.42786 0.76465 0.80909 0.0
N449 N 0.4083 0.8332 0.82533 0.0
C450 C 0.42605 0.8567 0.80912 0.0
C451 C 0.40889 0.78775 0.82538 0.0
C452 C 0.44618 0.78838 0.79259 0.0
C453 C 0.29259 0.91738 0.88604 0.0
N454 N 0.30495 0.94859 0.87052 0.0
C455 C 0.2618 0.90749 0.88493 0.0
C456 C 0.24363 0.92984 0.86781 0.0
C457 C 0.25638 0.9617 0.85208 0.0
C458 C 0.28728 0.97063 0.85366 0.0
C459 C 0.31545 0.0857 0.89131 0.0
C460 C 0.35777 0.05114 0.85859 0.0
C461 C 0.32044 0.03993 0.88974 0.0
N462 N 0.34142 0.02321 0.87353 0.0
C463 C 0.35338 0.09709 0.85963 0.0
C464 C 0.33206 0.1144 0.87613 0.0
C465 C 0.41552 0.94876 0.8642 0.0
C466 C 0.38495 0.78749 0.91286 0.0
C467 C 0.42595 0.82512 0.87998 0.0
C468 C 0.43647 0.80096 0.90048 0.0
C469 C 0.41578 0.78207 0.91702 0.0
N470 N 0.39569 0.8302 0.876 0.0
C471 C 0.37526 0.81183 0.89214 0.0
Co472 Co 0.85048 0.51922 0.37799 0.0
Co473 Co 0.86917 0.61793 0.34872 0.0
O474 O 0.84669 0.58334 0.37343 0.0
C475 C 0.86347 0.55543 0.42815 0.0
O476 O 0.88194 0.58358 0.41721 0.0
C477 C 0.80513 0.63866 0.33849 0.0
O478 O 0.79996 0.59564 0.33863 0.0
O479 O 0.85853 0.57504 0.32156 0.0
O480 O 0.85245 0.50954 0.34117 0.0
H481 H 0.94182 0.64033 0.27769 0.0
H482 H 0.80033 0.56757 0.40254 0.0
O483 O 0.84871 0.52741 0.41511 0.0
H484 H 0.75141 0.45751 0.34744 0.0
H485 H 0.82583 0.37266 0.4188 0.0
H486 H 0.88803 0.44842 0.3552 0.0
H487 H 0.80692 0.46173 0.35027 0.0
H488 H 0.821 0.45348 0.4119 0.0
O489 O 0.83188 0.65329 0.34153 0.0
H490 H 0.91396 0.59686 0.30932 0.0
H491 H 0.87078 0.71417 0.33519 0.0
H492 H 0.89346 0.36753 0.36137 0.0
H493 H 0.74475 0.56431 0.4004 0.0
H494 H 0.8622 0.32911 0.39336 0.0
H495 H 0.71994 0.50905 0.37264 0.0
O496 O 0.89528 0.52364 0.37905 0.0
H497 H 0.84769 0.71461 0.42322 0.0
H498 H 0.92626 0.6619 0.36514 0.0
H499 H 0.94021 0.71289 0.39935 0.0
H500 H 0.90074 0.73964 0.42868 0.0
H501 H 0.83482 0.66322 0.38892 0.0
H502 H 0.898 0.75886 0.30371 0.0
H503 H 0.93391 0.72193 0.27475 0.0
O504 O 0.90693 0.5837 0.35582 0.0
C505 C 0.85451 0.53295 0.32136 0.0
C506 C 0.92631 0.65682 0.29026 0.0
C507 C 0.90168 0.72334 0.30484 0.0
N508 N 0.89096 0.65301 0.3242 0.0
C509 C 0.91054 0.63241 0.30825 0.0
C510 C 0.88628 0.69785 0.32258 0.0
C511 C 0.92184 0.7026 0.2886 0.0
C512 C 0.78969 0.54314 0.39061 0.0
N513 N 0.80683 0.51472 0.37666 0.0
C514 C 0.75821 0.54157 0.3894 0.0
C515 C 0.74431 0.51061 0.37378 0.0
C516 C 0.76196 0.48169 0.35963 0.0
C517 C 0.79337 0.48429 0.36128 0.0
C518 C 0.83953 0.38901 0.40477 0.0
C519 C 0.87422 0.43189 0.36906 0.0
C520 C 0.83693 0.43476 0.40081 0.0
N521 N 0.85405 0.45557 0.38303 0.0
C522 C 0.87745 0.38611 0.37251 0.0
C523 C 0.85994 0.36459 0.39048 0.0
C524 C 0.91434 0.54927 0.36837 0.0
C525 C 0.86508 0.70323 0.41055 0.0
C526 C 0.90902 0.67317 0.37791 0.0
C527 C 0.91702 0.70218 0.39719 0.0
C528 C 0.89486 0.71721 0.41362 0.0
N529 N 0.87978 0.65955 0.37503 0.0
C530 C 0.85791 0.67424 0.39103 0.0
Co531 Co 0.14475 0.46588 0.3811 0.0
Co532 Co 0.12007 0.37069 0.35099 0.0
O533 O 0.1445 0.40139 0.37607 0.0
C534 C 0.12928 0.43077 0.43118 0.0
O535 O 0.10919 0.40532 0.42014 0.0
C536 C 0.18248 0.33845 0.34143 0.0
O537 O 0.19198 0.37978 0.34275 0.0
O538 O 0.13399 0.41256 0.32424 0.0
O539 O 0.14356 0.47669 0.34432 0.0
H540 H 0.04696 0.36196 0.27945 0.0
H541 H 0.19143 0.41035 0.40549 0.0
O542 O 0.14581 0.45673 0.41821 0.0
H543 H 0.24748 0.51406 0.35108 0.0
H544 H 0.17875 0.60736 0.42291 0.0
H545 H 0.11209 0.54222 0.3588 0.0
H546 H 0.19195 0.51749 0.35374 0.0
H547 H 0.17825 0.52638 0.41548 0.0
O548 O 0.15448 0.32969 0.34359 0.0
H549 H 0.07743 0.39977 0.31169 0.0
H550 H 0.11172 0.27551 0.33642 0.0
H551 H 0.112 0.62339 0.36548 0.0
H552 H 0.24698 0.40596 0.40352 0.0
H553 H 0.14553 0.65647 0.39773 0.0
H554 H 0.27536 0.458 0.3761 0.0
O555 O 0.09981 0.46783 0.38211 0.0
H556 H 0.13401 0.27069 0.42534 0.0
H557 H 0.06034 0.33309 0.36596 0.0
H558 H 0.04264 0.28356 0.3997 0.0
H559 H 0.07963 0.25196 0.42969 0.0
H560 H 0.15064 0.32078 0.3915 0.0
H561 H 0.08184 0.2364 0.30432 0.0
H562 H 0.04906 0.27968 0.27562 0.0
O563 O 0.08476 0.40983 0.3585 0.0
C564 C 0.14047 0.45401 0.32435 0.0
C565 C 0.06108 0.34272 0.29189 0.0
C566 C 0.0807 0.27225 0.30583 0.0
N567 N 0.09616 0.33986 0.32602 0.0
C568 C 0.07831 0.36393 0.31023 0.0
C569 C 0.09764 0.2946 0.32392 0.0
C570 C 0.0623 0.29656 0.28974 0.0
C571 C 0.20366 0.4334 0.39371 0.0
N572 N 0.18849 0.46428 0.37985 0.0
C573 C 0.23509 0.43063 0.39259 0.0
C574 C 0.251 0.45979 0.37717 0.0
C575 C 0.23537 0.49124 0.36311 0.0
C576 C 0.20392 0.49296 0.36466 0.0
C577 C 0.16408 0.59336 0.40877 0.0
C578 C 0.12684 0.5564 0.37278 0.0
C579 C 0.16366 0.54753 0.40451 0.0
N580 N 0.14531 0.52965 0.3866 0.0
C581 C 0.12665 0.60237 0.37652 0.0
C582 C 0.14544 0.6209 0.39463 0.0
C583 C 0.07943 0.44467 0.37138 0.0
C584 C 0.11767 0.28428 0.41241 0.0
C585 C 0.07651 0.31979 0.37907 0.0
C586 C 0.06638 0.29158 0.39806 0.0
C587 C 0.08715 0.27382 0.41485 0.0
N588 N 0.10645 0.33007 0.37686 0.0
C589 C 0.12696 0.31257 0.39317 0.0
Co590 Co 0.86004 0.45027 0.12462 0.0
Co591 Co 0.88426 0.35591 0.15567 0.0
O592 O 0.86048 0.38603 0.13008 0.0
C593 C 0.87933 0.41376 0.07601 0.0
O594 O 0.89827 0.38879 0.08858 0.0
C595 C 0.82142 0.32718 0.16588 0.0
O596 O 0.81337 0.3691 0.16437 0.0
O597 O 0.87066 0.39887 0.18182 0.0
O598 O 0.85856 0.46165 0.16133 0.0
H599 H 0.95652 0.34765 0.22782 0.0
H600 H 0.81565 0.39288 0.09851 0.0
O601 O 0.86179 0.44025 0.0876 0.0
H602 H 0.75499 0.4962 0.1494 0.0
H603 H 0.828 0.58993 0.08013 0.0
H604 H 0.89019 0.52794 0.14808 0.0
H605 H 0.81057 0.50119 0.14927 0.0
H606 H 0.82867 0.50912 0.08816 0.0
O607 O 0.84903 0.31637 0.16332 0.0
H608 H 0.9269 0.38523 0.19502 0.0
H609 H 0.89104 0.26113 0.17126 0.0
H610 H 0.89005 0.60896 0.14082 0.0
H611 H 0.76011 0.38689 0.09797 0.0
H612 H 0.85877 0.64045 0.10663 0.0
H613 H 0.7294 0.43872 0.12361 0.0
O614 O 0.90493 0.45348 0.12572 0.0
H615 H 0.86964 0.2527 0.08281 0.0
H616 H 0.9438 0.31768 0.14101 0.0
H617 H 0.96117 0.26659 0.10797 0.0
H618 H 0.92393 0.23367 0.07859 0.0
H619 H 0.85334 0.30436 0.11595 0.0
H620 H 0.92007 0.22224 0.20393 0.0
H621 H 0.9532 0.26557 0.23243 0.0
O622 O 0.92008 0.39424 0.14816 0.0
C623 C 0.86248 0.43959 0.18143 0.0
C624 C 0.94224 0.32839 0.21547 0.0
C625 C 0.92175 0.25801 0.20208 0.0
N626 N 0.90747 0.32536 0.18113 0.0
C627 C 0.9255 0.34947 0.19682 0.0
C628 C 0.90531 0.28022 0.18366 0.0
C629 C 0.94034 0.28234 0.21806 0.0
C630 C 0.80242 0.41583 0.10952 0.0
N631 N 0.81632 0.4475 0.12379 0.0
C632 C 0.77099 0.41216 0.10922 0.0
C633 C 0.75378 0.44121 0.12364 0.0
C634 C 0.76812 0.47346 0.13813 0.0
C635 C 0.7996 0.47608 0.13801 0.0
C636 C 0.84167 0.57662 0.09511 0.0
C637 C 0.8764 0.54142 0.13326 0.0
C638 C 0.84219 0.5309 0.09971 0.0
N639 N 0.85929 0.51389 0.11868 0.0
C640 C 0.87647 0.58731 0.12919 0.0
C641 C 0.85894 0.60495 0.10999 0.0
C642 C 0.92537 0.43012 0.13617 0.0
C643 C 0.88608 0.26682 0.0955 0.0
C644 C 0.92753 0.30377 0.12818 0.0
C645 C 0.93746 0.27469 0.10958 0.0
C646 C 0.91655 0.2562 0.09312 0.0
N647 N 0.89763 0.31413 0.13036 0.0
C648 C 0.87698 0.29598 0.11435 0.0
Co649 Co 0.15098 0.53457 0.12768 0.0
Co650 Co 0.12398 0.62964 0.15637 0.0
O651 O 0.14944 0.59918 0.1319 0.0
C652 C 0.13537 0.56628 0.07696 0.0
O653 O 0.11456 0.59108 0.08745 0.0
C654 C 0.18561 0.66608 0.16566 0.0
O655 O 0.19641 0.62551 0.16433 0.0
O656 O 0.13824 0.58956 0.18383 0.0
O657 O 0.14938 0.52528 0.16454 0.0
H658 H 0.04975 0.63761 0.22721 0.0
H659 H 0.197 0.59109 0.1029 0.0
O660 O 0.15244 0.54213 0.09045 0.0
H661 H 0.25409 0.4923 0.15915 0.0
H662 H 0.18803 0.39297 0.088 0.0
H663 H 0.11951 0.45769 0.15081 0.0
H664 H 0.19867 0.48638 0.15617 0.0
H665 H 0.18603 0.47418 0.09436 0.0
O666 O 0.15737 0.67275 0.16361 0.0
H667 H 0.08139 0.60004 0.19571 0.0
H668 H 0.11338 0.72494 0.16954 0.0
H669 H 0.12092 0.37631 0.14518 0.0
H670 H 0.25244 0.59794 0.10517 0.0
H671 H 0.15538 0.34344 0.11358 0.0
H672 H 0.28134 0.54839 0.13352 0.0
O673 O 0.10612 0.53043 0.12631 0.0
H674 H 0.13726 0.7268 0.08071 0.0
H675 H 0.06386 0.66412 0.14042 0.0
H676 H 0.04578 0.7112 0.1058 0.0
H677 H 0.08264 0.74296 0.07565 0.0
H678 H 0.15425 0.67906 0.11542 0.0
H679 H 0.0823 0.76382 0.20089 0.0
H680 H 0.05009 0.72009 0.22994 0.0
O681 O 0.08961 0.58838 0.14915 0.0
C682 C 0.14541 0.54839 0.18424 0.0
C683 C 0.06362 0.65704 0.21461 0.0
C684 C 0.08193 0.72787 0.19987 0.0
N685 N 0.09906 0.66026 0.1807 0.0
C686 C 0.08151 0.63596 0.19669 0.0
C687 C 0.09956 0.70566 0.1822 0.0
C688 C 0.06385 0.70331 0.21615 0.0
C689 C 0.20946 0.56912 0.11508 0.0
N690 N 0.19465 0.53824 0.12928 0.0
C691 C 0.24083 0.57328 0.11637 0.0
C692 C 0.25703 0.54551 0.13231 0.0
C693 C 0.24175 0.51406 0.14672 0.0
C694 C 0.21036 0.51092 0.14499 0.0
C695 C 0.17296 0.40689 0.10185 0.0
C696 C 0.13466 0.44363 0.13711 0.0
C697 C 0.17168 0.45285 0.10551 0.0
N698 N 0.15279 0.47063 0.12305 0.0
C699 C 0.13532 0.39752 0.13396 0.0
C700 C 0.15464 0.37911 0.11622 0.0
C701 C 0.08511 0.55277 0.13669 0.0
C702 C 0.12097 0.7131 0.0937 0.0
C703 C 0.07995 0.67737 0.12721 0.0
C704 C 0.06963 0.70425 0.10774 0.0
C705 C 0.09032 0.72211 0.09086 0.0
N706 N 0.11001 0.66847 0.12982 0.0
C707 C 0.13046 0.68611 0.11343 0.0
Co708 Co 0.13977 0.45505 0.62751 0.0
Co709 Co 0.11621 0.36218 0.66041 0.0
O710 O 0.13913 0.39117 0.63386 0.0
C711 C 0.11845 0.41566 0.58019 0.0
O712 O 0.09989 0.39182 0.59387 0.0
C713 C 0.17927 0.33562 0.6691 0.0
O714 O 0.18636 0.37788 0.667 0.0
O715 O 0.13067 0.40628 0.68561 0.0
O716 O 0.14273 0.46811 0.66408 0.0
H717 H 0.04628 0.35655 0.73428 0.0
H718 H 0.18277 0.39603 0.60106 0.0
O719 O 0.13647 0.44306 0.59066 0.0
H720 H 0.24602 0.50095 0.64886 0.0
H721 H 0.17092 0.5922 0.58002 0.0
H722 H 0.11096 0.53404 0.65053 0.0
H723 H 0.19049 0.50665 0.65001 0.0
H724 H 0.17006 0.51181 0.58932 0.0
O725 O 0.1518 0.3234 0.66765 0.0
H726 H 0.07476 0.39291 0.70027 0.0
H727 H 0.1102 0.26815 0.67755 0.0
H728 H 0.11132 0.61468 0.64203 0.0
H729 H 0.23821 0.38926 0.59928 0.0
H730 H 0.14147 0.64425 0.60654 0.0
H731 H 0.27022 0.44188 0.62338 0.0
O732 O 0.09503 0.45866 0.62985 0.0
H733 H 0.12821 0.25586 0.58864 0.0
H734 H 0.05619 0.32313 0.64778 0.0
H735 H 0.03761 0.27059 0.61588 0.0
H736 H 0.07377 0.23653 0.58603 0.0
H737 H 0.14573 0.30895 0.62066 0.0
H738 H 0.0823 0.23047 0.71142 0.0
H739 H 0.04996 0.27475 0.74001 0.0
O740 O 0.08025 0.40013 0.6532 0.0
C741 C 0.13923 0.44684 0.68454 0.0
C742 C 0.06021 0.33688 0.72189 0.0
C743 C 0.08047 0.26612 0.70909 0.0
N744 N 0.0939 0.33263 0.68683 0.0
C745 C 0.07631 0.35726 0.70256 0.0
C746 C 0.09626 0.28765 0.68998 0.0
C747 C 0.06231 0.29098 0.72511 0.0
C748 C 0.19656 0.41935 0.61138 0.0
N749 N 0.18343 0.45185 0.6255 0.0
C750 C 0.22793 0.41523 0.61039 0.0
C751 C 0.24588 0.44472 0.62395 0.0
C752 C 0.23231 0.47786 0.63826 0.0
C753 C 0.20086 0.4809 0.63886 0.0
C754 C 0.15775 0.57974 0.59557 0.0
C755 C 0.12429 0.5467 0.63517 0.0
C756 C 0.15714 0.53426 0.6009 0.0
N757 N 0.14068 0.51834 0.62058 0.0
C758 C 0.12433 0.59237 0.63039 0.0
C759 C 0.14123 0.60893 0.61046 0.0
C760 C 0.07484 0.43576 0.64102 0.0
C761 C 0.11224 0.27047 0.60154 0.0
C762 C 0.072 0.3087 0.63474 0.0
C763 C 0.06138 0.27882 0.61679 0.0
C764 C 0.08168 0.25968 0.60007 0.0
N765 N 0.10198 0.31922 0.63603 0.0
C766 C 0.12204 0.30044 0.61977 0.0
Co767 Co 0.85029 0.53339 0.62443 0.0
Co768 Co 0.8718 0.62855 0.65613 0.0
O769 O 0.84961 0.59748 0.62998 0.0
C770 C 0.8716 0.57237 0.57708 0.0
O771 O 0.88934 0.59741 0.5908 0.0
C772 C 0.80811 0.65205 0.6647 0.0
O773 O 0.80206 0.6094 0.66296 0.0
O774 O 0.85833 0.58467 0.68178 0.0
O775 O 0.84702 0.52157 0.66113 0.0
H776 H 0.94126 0.64053 0.73001 0.0
H777 H 0.80663 0.58956 0.59679 0.0
O778 O 0.85403 0.54428 0.58752 0.0
H779 H 0.74462 0.48363 0.64509 0.0
H780 H 0.82264 0.39344 0.57812 0.0
H781 H 0.88001 0.45636 0.64874 0.0
H782 H 0.80022 0.48057 0.64704 0.0
H783 H 0.82184 0.47414 0.58652 0.0
O784 O 0.83526 0.66571 0.66296 0.0
H785 H 0.91376 0.60144 0.69644 0.0
H786 H 0.87564 0.72345 0.67204 0.0
H787 H 0.88129 0.37547 0.64115 0.0
H788 H 0.75111 0.59364 0.59418 0.0
H789 H 0.85244 0.34351 0.60561 0.0
H790 H 0.71973 0.54049 0.61851 0.0
O791 O 0.89501 0.53164 0.62729 0.0
H792 H 0.85748 0.73203 0.58335 0.0
H793 H 0.93105 0.66937 0.64274 0.0
H794 H 0.94848 0.72164 0.61023 0.0
H795 H 0.91155 0.75337 0.58025 0.0
H796 H 0.84111 0.67929 0.61599 0.0
H797 H 0.90253 0.76383 0.70546 0.0
H798 H 0.93572 0.72232 0.73466 0.0
O799 O 0.90865 0.5921 0.64948 0.0
C800 C 0.85033 0.54384 0.68126 0.0
C801 C 0.92695 0.65901 0.71734 0.0
C802 C 0.90518 0.7282 0.70359 0.0
N803 N 0.89334 0.6602 0.68219 0.0
C804 C 0.9114 0.63708 0.69826 0.0
C805 C 0.88996 0.70515 0.68474 0.0
C806 C 0.9238 0.70489 0.71996 0.0
C807 C 0.79312 0.56603 0.60723 0.0
N808 N 0.80663 0.5347 0.62193 0.0
C809 C 0.7617 0.56862 0.60576 0.0
C810 C 0.7441 0.53883 0.61945 0.0
C811 C 0.75806 0.50694 0.63438 0.0
C812 C 0.78954 0.5054 0.63543 0.0
C813 C 0.83524 0.40695 0.5937 0.0
C814 C 0.86725 0.44266 0.63335 0.0
C815 C 0.83492 0.45261 0.59852 0.0
N816 N 0.85067 0.46985 0.61823 0.0
C817 C 0.86813 0.39685 0.6291 0.0
C818 C 0.85197 0.37895 0.60914 0.0
C819 C 0.91474 0.55591 0.63808 0.0
C820 C 0.87378 0.71847 0.59632 0.0
C821 C 0.9149 0.68286 0.62968 0.0
C822 C 0.92487 0.71256 0.61137 0.0
C823 C 0.90413 0.73038 0.59457 0.0
N824 N 0.88511 0.67127 0.63125 0.0
C825 C 0.86463 0.68872 0.6149 0.0
Co826 Co 0.14726 0.53301 0.88061 0.0
Co827 Co 0.11914 0.62365 0.8485 0.0
O828 O 0.14335 0.59666 0.87473 0.0
C829 C 0.12351 0.56941 0.92776 0.0
O830 O 0.10378 0.59043 0.91382 0.0
C831 C 0.18119 0.65767 0.84021 0.0
O832 O 0.19022 0.61624 0.84205 0.0
O833 O 0.13563 0.58197 0.82298 0.0
O834 O 0.15092 0.52109 0.8439 0.0
H835 H 0.04943 0.62384 0.7745 0.0
H836 H 0.18693 0.59634 0.9077 0.0
O837 O 0.14306 0.54412 0.91755 0.0
H838 H 0.25565 0.50043 0.85932 0.0
H839 H 0.1851 0.39938 0.92769 0.0
H840 H 0.12346 0.45102 0.85673 0.0
H841 H 0.20059 0.48826 0.85789 0.0
H842 H 0.17986 0.47955 0.91884 0.0
O843 O 0.1531 0.66673 0.84166 0.0
H844 H 0.07948 0.58963 0.80819 0.0
H845 H 0.10855 0.71723 0.8324 0.0
H846 H 0.12825 0.37056 0.86476 0.0
H847 H 0.24184 0.60952 0.90978 0.0
H848 H 0.15925 0.34427 0.90047 0.0
H849 H 0.2766 0.56147 0.88539 0.0
O850 O 0.10289 0.52391 0.87795 0.0
H851 H 0.12556 0.72943 0.92103 0.0
H852 H 0.0572 0.654 0.8619 0.0
H853 H 0.03592 0.70311 0.89433 0.0
H854 H 0.07022 0.74124 0.92418 0.0
H855 H 0.14584 0.6797 0.88847 0.0
H856 H 0.07899 0.75284 0.79886 0.0
H857 H 0.04906 0.70603 0.76969 0.0
O858 O 0.08492 0.58111 0.85519 0.0
C859 C 0.14597 0.54236 0.82363 0.0
C860 C 0.06229 0.6446 0.78715 0.0
C861 C 0.07891 0.717 0.8008 0.0
N862 N 0.09552 0.65145 0.82235 0.0
C863 C 0.07926 0.62543 0.8063 0.0
C864 C 0.09565 0.69666 0.81972 0.0
C865 C 0.06212 0.69072 0.78444 0.0
C866 C 0.20193 0.57498 0.89726 0.0
N867 N 0.19059 0.5414 0.88282 0.0
C868 C 0.23299 0.58273 0.89842 0.0
C869 C 0.25248 0.55579 0.8847 0.0
C870 C 0.24074 0.52156 0.87005 0.0
C871 C 0.20955 0.51485 0.8693 0.0
C872 C 0.17156 0.41042 0.91205 0.0
C873 C 0.13712 0.43983 0.87221 0.0
C874 C 0.16846 0.45576 0.90698 0.0
N875 N 0.15152 0.46991 0.88719 0.0
C876 C 0.13969 0.39423 0.87671 0.0
C877 C 0.15706 0.37951 0.89677 0.0
C878 C 0.08149 0.54426 0.86684 0.0
C879 C 0.11039 0.71308 0.9081 0.0
C880 C 0.07224 0.67036 0.87487 0.0
C881 C 0.06008 0.69823 0.89315 0.0
C882 C 0.07933 0.71964 0.90988 0.0
N883 N 0.10272 0.66406 0.87326 0.0
C884 C 0.12175 0.68503 0.88955 0.0
Co885 Co 0.8426 0.47416 0.8788 0.0
Co886 Co 0.87359 0.38149 0.85056 0.0
O887 O 0.84795 0.4101 0.87537 0.0
C888 C 0.86393 0.44449 0.92819 0.0
O889 O 0.88488 0.42232 0.91616 0.0
C890 C 0.813 0.34154 0.84301 0.0
O891 O 0.8022 0.38218 0.84312 0.0
O892 O 0.85638 0.41875 0.82319 0.0
O893 O 0.84065 0.48167 0.84177 0.0
H894 H 0.94505 0.37711 0.77769 0.0
H895 H 0.80258 0.4124 0.90671 0.0
O896 O 0.84483 0.46769 0.91608 0.0
H897 H 0.73493 0.49986 0.85261 0.0
H898 H 0.79974 0.61146 0.91912 0.0
H899 H 0.86661 0.55407 0.85292 0.0
H900 H 0.78979 0.51407 0.85264 0.0
H901 H 0.80679 0.53067 0.91358 0.0
O902 O 0.84136 0.33527 0.84504 0.0
H903 H 0.91313 0.41319 0.80955 0.0
H904 H 0.88752 0.28695 0.83832 0.0
H905 H 0.86004 0.63508 0.85767 0.0
H906 H 0.74784 0.39726 0.90736 0.0
H907 H 0.82639 0.66426 0.89098 0.0
H908 H 0.71363 0.44105 0.88011 0.0
O909 O 0.88697 0.48472 0.87744 0.0
H910 H 0.86852 0.28533 0.92729 0.0
H911 H 0.93602 0.35622 0.8657 0.0
H912 H 0.95793 0.31288 0.90035 0.0
H913 H 0.92406 0.27706 0.93146 0.0
H914 H 0.84762 0.32936 0.8925 0.0
H915 H 0.91898 0.24947 0.80666 0.0
H916 H 0.94813 0.29466 0.77613 0.0
O917 O 0.90631 0.42689 0.85603 0.0
C918 C 0.84584 0.45824 0.82236 0.0
C919 C 0.93255 0.35706 0.79095 0.0
C920 C 0.91788 0.28542 0.80719 0.0
N921 N 0.89869 0.35221 0.82588 0.0
C922 C 0.91451 0.37731 0.80907 0.0
C923 C 0.90005 0.30682 0.82503 0.0
C924 C 0.93423 0.3108 0.79007 0.0
C925 C 0.7878 0.43193 0.895 0.0
N926 N 0.79934 0.46426 0.87977 0.0
C927 C 0.75684 0.42307 0.89537 0.0
C928 C 0.73766 0.44761 0.88004 0.0
C929 C 0.7496 0.48059 0.86459 0.0
C930 C 0.78068 0.48845 0.86467 0.0
C931 C 0.81442 0.59916 0.90452 0.0
C932 C 0.85181 0.56651 0.86737 0.0
C933 C 0.81855 0.55346 0.90133 0.0
N934 N 0.83694 0.5377 0.88284 0.0
C935 C 0.84823 0.61242 0.87001 0.0
C936 C 0.82937 0.62876 0.88871 0.0
C937 C 0.90893 0.46451 0.86699 0.0
C938 C 0.88351 0.30073 0.91384 0.0
C939 C 0.92117 0.34094 0.87923 0.0
C940 C 0.93369 0.31629 0.89876 0.0
C941 C 0.91467 0.29616 0.91619 0.0
N942 N 0.89059 0.3454 0.8771 0.0
C943 C 0.8718 0.32557 0.89405 0.0
H944 H 0.40182 0.1138 0.4649 0.0
H945 H 0.33392 0.01077 0.4618 0.0
H946 H 0.33171 0.00893 0.50742 0.0
H947 H 0.34976 0.03569 0.5484 0.0
H948 H 0.41768 0.13887 0.551 0.0
H949 H 0.41908 0.14137 0.50554 0.0
C950 C 0.3865 0.09093 0.47415 0.0
C951 C 0.36817 0.06237 0.45984 0.0
C952 C 0.38536 0.08996 0.50041 0.0
C953 C 0.34834 0.03314 0.47227 0.0
C954 C 0.34707 0.03201 0.4984 0.0
C955 C 0.36484 0.05876 0.53903 0.0
C956 C 0.38368 0.08685 0.55322 0.0
C957 C 0.36559 0.06012 0.5127 0.0
C958 C 0.403 0.11664 0.54067 0.0
C959 C 0.40383 0.11818 0.5146 0.0
H960 H 0.60741 0.89058 0.5462 0.0
H961 H 0.67135 0.99919 0.54818 0.0
H962 H 0.67399 0.99913 0.50267 0.0
H963 H 0.65738 0.96964 0.46232 0.0
H964 H 0.59327 0.86131 0.46005 0.0
H965 H 0.5916 0.85988 0.50568 0.0
C966 C 0.62195 0.91424 0.53669 0.0
C967 C 0.63903 0.94498 0.55063 0.0
C968 C 0.62334 0.91413 0.51046 0.0
C969 C 0.65788 0.97521 0.53797 0.0
C970 C 0.65942 0.97524 0.51191 0.0
C971 C 0.6431 0.94557 0.47176 0.0
C972 C 0.62538 0.91576 0.45774 0.0
C973 C 0.64213 0.94503 0.49797 0.0
C974 C 0.60707 0.88477 0.47035 0.0
C975 C 0.60608 0.88393 0.49646 0.0
H976 H 0.36283 0.9059 0.03567 0.0
H977 H 0.35094 0.04558 0.05102 0.0
H978 H 0.35215 0.06208 0.00631 0.0
H979 H 0.35738 0.03703 0.96272 0.0
H980 H 0.36395 0.89689 0.94682 0.0
H981 H 0.36394 0.88017 0.99168 0.0
C982 C 0.36044 0.93988 0.02913 0.0
C983 C 0.35703 0.97453 0.04657 0.0
C984 C 0.36023 0.949 1.0033 0.0
C985 C 0.35353 0.01836 0.03793 0.0
C986 C 0.35431 0.02784 0.01238 0.0
C987 C 0.35878 0.00287 0.96915 0.0
C988 C 0.36096 0.96825 0.95162 0.0
C989 C 0.35779 0.99348 0.99489 0.0
C990 C 0.36224 0.92404 0.96006 0.0
C991 C 0.36232 0.91451 0.98568 0.0
H992 H 0.60139 0.10106 0.96677 0.0
H993 H 0.67428 0.00623 0.9622 0.0
H994 H 0.67863 0.00586 0.00762 0.0
H995 H 0.66102 0.03087 0.0487 0.0
H996 H 0.58807 0.12556 0.05341 0.0
H997 H 0.58462 0.12759 0.00791 0.0
C998 C 0.61824 0.08031 0.97569 0.0
C999 C 0.63733 0.05353 0.96106 0.0
C1000 C 0.62064 0.08018 1.00188 0.0
C1001 C 0.65919 0.0271 0.97297 0.0
C1002 C 0.66172 0.02683 0.99897 0.0
C1003 C 0.64443 0.05211 0.0398 0.0
C1004 C 0.62474 0.07783 0.0545 0.0
C1005 C 0.64246 0.05302 0.01362 0.0
C1006 C 0.60344 0.10523 0.0426 0.0
C1007 C 0.60142 0.10642 0.01655 0.0
H1008 H 0.84002 0.5235 0.54314 0.0
H1009 H 0.90505 0.63018 0.54895 0.0
H1010 H 0.90767 0.63525 0.50348 0.0
H1011 H 0.89247 0.60819 0.46199 0.0
H1012 H 0.82765 0.50114 0.45639 0.0
H1013 H 0.82396 0.49769 0.50178 0.0
C1014 C 0.85472 0.54796 0.53449 0.0
C1015 C 0.87242 0.57623 0.54949 0.0
C1016 C 0.8562 0.55066 0.50832 0.0
C1017 C 0.89127 0.60781 0.5379 0.0
C1018 C 0.89278 0.61078 0.51187 0.0
C1019 C 0.87746 0.58419 0.47068 0.0
C1020 C 0.86049 0.55487 0.45573 0.0
C1021 C 0.87551 0.58217 0.49688 0.0
C1022 C 0.84108 0.52407 0.46737 0.0
C1023 C 0.83894 0.52201 0.49337 0.0
H1024 H 0.15278 0.4608 0.54636 0.0
H1025 H 0.08286 0.36099 0.55188 0.0
H1026 H 0.08061 0.35587 0.50639 0.0
H1027 H 0.09749 0.38117 0.46493 0.0
H1028 H 0.16733 0.48118 0.45965 0.0
H1029 H 0.17061 0.4845 0.50506 0.0
C1030 C 0.13709 0.43781 0.53765 0.0
C1031 C 0.11792 0.41153 0.55258 0.0
C1032 C 0.13584 0.43505 0.51145 0.0
C1033 C 0.09782 0.38181 0.54089 0.0
C1034 C 0.0965 0.37882 0.51484 0.0
C1035 C 0.1135 0.40359 0.47369 0.0
C1036 C 0.13201 0.431 0.45881 0.0
C1037 C 0.11524 0.40552 0.49992 0.0
C1038 C 0.15272 0.45974 0.47056 0.0
C1039 C 0.15462 0.46173 0.49658 0.0
H1040 H 0.89728 0.39271 0.95947 0.0
H1041 H 0.82712 0.49224 0.95907 0.0
H1042 H 0.82522 0.4906 0.00462 0.0
H1043 H 0.8441 0.46223 0.04457 0.0
H1044 H 0.91418 0.36262 0.04516 0.0
H1045 H 0.91534 0.36296 0.99954 0.0
C1046 C 0.88158 0.41409 0.96933 0.0
C1047 C 0.86251 0.44274 0.95583 0.0
C1048 C 0.88055 0.41298 0.99557 0.0
C1049 C 0.84212 0.46992 0.96894 0.0
C1050 C 0.84101 0.46904 0.99502 0.0
C1051 C 0.85959 0.44046 0.03476 0.0
C1052 C 0.87912 0.4126 0.04833 0.0
C1053 C 0.86021 0.44088 0.00853 0.0
C1054 C 0.89895 0.38453 0.03524 0.0
C1055 C 0.89966 0.38471 0.00912 0.0
H1056 H 0.10153 0.61004 0.04222 0.0
H1057 H 0.17552 0.51767 0.04952 0.0
H1058 H 0.17875 0.51111 0.0042 0.0
H1059 H 0.15975 0.52985 0.9624 0.0
H1060 H 0.08563 0.62197 0.95506 0.0
H1061 H 0.08337 0.63025 1.00036 0.0
C1062 C 0.11845 0.58861 0.03392 0.0
C1063 C 0.13815 0.56429 0.04935 0.0
C1064 C 0.12013 0.58474 0.00776 0.0
C1065 C 0.15998 0.53675 0.03818 0.0
C1066 C 0.16185 0.5329 0.01221 0.0
C1067 C 0.14313 0.55181 0.97069 0.0
C1068 C 0.12279 0.57501 0.95529 0.0
C1069 C 0.14189 0.55644 0.99681 0.0
C1070 C 0.10149 0.60347 0.96641 0.0
C1071 C 0.10017 0.60829 0.99236 0.0
H1072 H 0.55843 0.0158 0.37825 0.0
H1073 H 0.52946 0.88177 0.36197 0.0
H1074 H 0.47676 0.90553 0.36294 0.0
H1075 H 0.43884 0.96515 0.36727 0.0
H1076 H 0.46863 0.09973 0.38037 0.0
H1077 H 0.521 0.07508 0.38184 0.0
C1078 C 0.54062 0.99167 0.37506 0.0
C1079 C 0.54794 0.94701 0.37019 0.0
C1080 C 0.51046 0.00576 0.375 0.0
C1081 C 0.52452 0.91635 0.36576 0.0
C1082 C 0.49434 0.92991 0.36633 0.0
C1083 C 0.45684 0.98891 0.37061 0.0
C1084 C 0.44993 0.0342 0.37367 0.0
C1085 C 0.48704 0.9746 0.37079 0.0
C1086 C 0.47342 0.06481 0.3777 0.0
C1087 C 0.50337 0.0507 0.37863 0.0
H1088 H 0.46301 0.93591 0.13756 0.0
H1089 H 0.42333 0.06621 0.13009 0.0
H1090 H 0.4734 0.10022 0.13214 0.0
H1091 H 0.52846 0.09287 0.13704 0.0
H1092 H 0.56802 0.96216 0.1416 0.0
H1093 H 0.51792 0.92827 0.13963 0.0
C1094 C 0.46525 0.97171 0.13624 0.0
C1095 C 0.43939 0.99841 0.13382 0.0
C1096 C 0.49409 0.99096 0.13701 0.0
C1097 C 0.44283 0.0448 0.13192 0.0
C1098 C 0.47146 0.06432 0.13319 0.0
C1099 C 0.52605 0.05701 0.13766 0.0
C1100 C 0.55181 0.03005 0.13973 0.0
C1101 C 0.49723 0.03772 0.13593 0.0
C1102 C 0.54849 0.98358 0.14002 0.0
C1103 C 0.51987 0.96419 0.13894 0.0
H1104 H 0.56881 0.04058 0.63614 0.0
H1105 H 0.53799 0.90442 0.6386 0.0
H1106 H 0.48558 0.92951 0.63874 0.0
H1107 H 0.44855 0.9903 0.6392 0.0
H1108 H 0.47982 0.12635 0.63997 0.0
H1109 H 0.532 0.10115 0.63759 0.0
C1110 C 0.55064 0.01638 0.63652 0.0
C1111 C 0.55729 0.97071 0.6372 0.0
C1112 C 0.52063 0.03105 0.6373 0.0
C1113 C 0.53348 0.93977 0.63807 0.0
C1114 C 0.5035 0.95409 0.63815 0.0
C1115 C 0.46679 0.01441 0.63873 0.0
C1116 C 0.46027 0.06015 0.63965 0.0
C1117 C 0.49682 0.99966 0.63793 0.0
C1118 C 0.48417 0.09098 0.63936 0.0
C1119 C 0.51404 0.0766 0.63794 0.0
H1120 H 0.53136 0.0716 0.86607 0.0
H1121 H 0.57457 0.94541 0.87975 0.0
H1122 H 0.52576 0.90777 0.87774 0.0
H1123 H 0.47063 0.91045 0.87141 0.0
H1124 H 0.4273 0.03743 0.86095 0.0
H1125 H 0.47619 0.07487 0.8624 0.0
C1126 C 0.53014 0.03591 0.86872 0.0
C1127 C 0.55673 0.01147 0.87292 0.0
C1128 C 0.5019 0.01451 0.86804 0.0
C1129 C 0.55456 0.96519 0.87651 0.0
C1130 C 0.52661 0.94354 0.87529 0.0
C1131 C 0.47193 0.94628 0.86943 0.0
C1132 C 0.44535 0.97102 0.86586 0.0
C1133 C 0.50013 0.96781 0.87092 0.0
C1134 C 0.44737 0.01756 0.86372 0.0
C1135 C 0.47535 0.03903 0.86451 0.0
H1136 H 0.93878 0.46899 0.37978 0.0
H1137 H 0.963 0.60371 0.36016 0.0
H1138 H 0.0164 0.58409 0.3613 0.0
H1139 H 0.05634 0.52763 0.36607 0.0
H1140 H 0.0315 0.39209 0.3825 0.0
H1141 H 0.97834 0.41295 0.38445 0.0
C1142 C 0.9557 0.4942 0.37594 0.0
C1143 C 0.9468 0.53783 0.37003 0.0
C1144 C 0.98634 0.48243 0.37593 0.0
C1145 C 0.96912 0.56988 0.36481 0.0
C1146 C -0.00028 0.5587 0.36544 0.0
C1147 C 0.03923 0.50289 0.37029 0.0
C1148 C 0.04769 0.45839 0.37403 0.0
C1149 C 0.00859 0.51497 0.37075 0.0
C1150 C 0.02542 0.42641 0.37922 0.0
C1151 C 0.99504 0.43836 0.38044 0.0
H1152 H 0.06577 0.46699 0.1346 0.0
H1153 H 0.03387 0.60239 0.13416 0.0
H1154 H 0.9818 0.57643 0.13241 0.0
H1155 H 0.94512 0.51528 0.13258 0.0
H1156 H 0.97663 0.37983 0.13658 0.0
H1157 H 0.02891 0.4056 0.13531 0.0
C1158 C 0.04741 0.49074 0.13393 0.0
C1159 C 0.05371 0.53657 0.13448 0.0
C1160 C 0.0174 0.47552 0.13366 0.0
C1161 C 0.02967 0.56699 0.13391 0.0
C1162 C -0.00016 0.55215 0.13286 0.0
C1163 C 0.96343 0.4914 0.13299 0.0
C1164 C 0.95698 0.44571 0.1346 0.0
C1165 C 0.99342 0.50651 0.13297 0.0
C1166 C 0.98096 0.41519 0.13545 0.0
C1167 C 0.01088 0.4299 0.13468 0.0
H1168 H 0.93477 0.47099 0.6371 0.0
H1169 H 0.96572 0.6071 0.63848 0.0
H1170 H 0.01814 0.5819 0.63838 0.0
H1171 H 0.05513 0.52098 0.63864 0.0
H1172 H 0.02382 0.38507 0.6406 0.0
H1173 H 0.97156 0.41031 0.63866 0.0
C1174 C 0.95299 0.49513 0.63724 0.0
C1175 C 0.94641 0.54082 0.63765 0.0
C1176 C 0.98298 0.4804 0.63785 0.0
C1177 C 0.97023 0.57174 0.63822 0.0
C1178 C 0.00019 0.55735 0.63812 0.0
C1179 C 0.03684 0.49694 0.63853 0.0
C1180 C 0.0433 0.45123 0.63967 0.0
C1181 C 0.00682 0.51175 0.63804 0.0
C1182 C 0.01942 0.42042 0.63986 0.0
C1183 C 0.98953 0.43483 0.63868 0.0
H1184 H 0.02639 0.58488 0.86641 0.0
H1185 H 0.0687 0.45581 0.86803 0.0
H1186 H 0.01933 0.41978 0.86755 0.0
H1187 H 0.96405 0.42471 0.86654 0.0
H1188 H 0.92137 0.55346 0.86839 0.0
H1189 H 0.97078 0.58975 0.8677 0.0
C1190 C 0.02476 0.5489 0.86661 0.0
C1191 C 0.05123 0.52312 0.86708 0.0
C1192 C 0.99619 0.52829 0.86699 0.0
C1193 C 0.04873 0.47649 0.86771 0.0
C1194 C 0.02048 0.4558 0.86738 0.0
C1195 C 0.96554 0.46068 0.86677 0.0
C1196 C 0.93901 0.48625 0.86734 0.0
C1197 C 0.99405 0.48134 0.867 0.0
C1198 C 0.94141 0.53291 0.86799 0.0
C1199 C 0.96968 0.55373 0.86753 0.0
H1200 H 0.24413 0.34221 0.34199 0.0
H1201 H 0.16949 0.25007 0.33676 0.0
H1202 H 0.20441 0.18765 0.33641 0.0
H1203 H 0.25608 0.1586 0.33922 0.0
H1204 H 0.33076 0.25063 0.34466 0.0
H1205 H 0.29597 0.31322 0.34322 0.0
C1206 C 0.2355 0.30852 0.34055 0.0
C1207 C 0.20418 0.30104 0.33945 0.0
C1208 C 0.25575 0.27249 0.3405 0.0
C1209 C 0.19346 0.25701 0.33768 0.0
C1210 C 0.21343 0.22113 0.33751 0.0
C1211 C 0.26478 0.19233 0.33993 0.0
C1212 C 0.29603 0.19969 0.3421 0.0
C1213 C 0.24461 0.2284 0.33917 0.0
C1214 C 0.30683 0.24377 0.34302 0.0
C1215 C 0.28693 0.27973 0.34221 0.0
H1216 H 0.68431 0.74994 0.3372 0.0
H1217 H 0.74825 0.85852 0.33941 0.0
H1218 H 0.79 0.80578 0.33786 0.0
H1219 H 0.80842 0.729 0.33745 0.0
H1220 H 0.74468 0.62016 0.33583 0.0
H1221 H 0.70283 0.67297 0.33545 0.0
C1222 C 0.70737 0.76214 0.33719 0.0
C1223 C 0.71308 0.80821 0.33844 0.0
C1224 C 0.73133 0.73159 0.33645 0.0
C1225 C 0.74313 0.82332 0.33842 0.0
C1226 C 0.76706 0.79315 0.33759 0.0
C1227 C 0.78539 0.71672 0.33686 0.0
C1228 C 0.77976 0.67059 0.33669 0.0
C1229 C 0.76143 0.74724 0.33682 0.0
C1230 C 0.74973 0.65543 0.33592 0.0
C1231 C 0.72575 0.68563 0.33577 0.0
H1232 H 0.24725 0.66764 0.16266 0.0
H1233 H 0.1698 0.75286 0.17245 0.0
H1234 H 0.20237 0.81817 0.17243 0.0
H1235 H 0.25265 0.85181 0.16808 0.0
H1236 H 0.33017 0.76687 0.15797 0.0
H1237 H 0.29785 0.70124 0.15975 0.0
C1238 C 0.23752 0.70045 0.16504 0.0
C1239 C 0.20607 0.70513 0.16751 0.0
C1240 C 0.25641 0.73819 0.16483 0.0
C1241 C 0.1939 0.74806 0.17043 0.0
C1242 C 0.21252 0.7856 0.17041 0.0
C1243 C 0.26252 0.81896 0.1664 0.0
C1244 C 0.29382 0.81449 0.16284 0.0
C1245 C 0.24378 0.78114 0.16735 0.0
C1246 C 0.30615 0.77151 0.16069 0.0
C1247 C 0.28767 0.73381 0.1617 0.0
H1248 H 0.74094 0.15427 0.17292 0.0
H1249 H 0.66978 0.25218 0.17314 0.0
H1250 H 0.70722 0.3119 0.17224 0.0
H1251 H 0.76022 0.33635 0.16956 0.0
H1252 H 0.83105 0.23781 0.16909 0.0
H1253 H 0.79366 0.17858 0.17197 0.0
C1254 C 0.73356 0.18865 0.17301 0.0
C1255 C 0.70256 0.19862 0.17308 0.0
C1256 C 0.75518 0.22286 0.17232 0.0
C1257 C 0.69349 0.24346 0.1731 0.0
C1258 C 0.7149 0.27769 0.17253 0.0
C1259 C 0.7675 0.30195 0.17027 0.0
C1260 C 0.79845 0.29169 0.16904 0.0
C1261 C 0.74582 0.26779 0.17186 0.0
C1262 C 0.80741 0.24683 0.16996 0.0
C1263 C 0.78603 0.21281 0.1716 0.0
H1264 H 0.68933 0.76719 0.66676 0.0
H1265 H 0.75488 0.87363 0.66963 0.0
H1266 H 0.79578 0.81934 0.67052 0.0
H1267 H 0.81297 0.74193 0.6688 0.0
H1268 H 0.74742 0.63556 0.66525 0.0
H1269 H 0.70648 0.68974 0.66642 0.0
C1270 C 0.71255 0.77859 0.66773 0.0
C1271 C 0.719 0.82446 0.66809 0.0
C1272 C 0.73597 0.74724 0.66805 0.0
C1273 C 0.74924 0.83855 0.66937 0.0
C1274 C 0.77266 0.80753 0.66982 0.0
C1275 C 0.78974 0.73051 0.66843 0.0
C1276 C 0.78331 0.68471 0.6669 0.0
C1277 C 0.76629 0.76182 0.66892 0.0
C1278 C 0.75305 0.67058 0.66646 0.0
C1279 C 0.7296 0.70155 0.66707 0.0
H1280 H 0.24006 0.34863 0.66808 0.0
H1281 H 0.17221 0.24583 0.67419 0.0
H1282 H 0.2114 0.18902 0.67465 0.0
H1283 H 0.26478 0.16821 0.67172 0.0
H1284 H 0.33261 0.271 0.66532 0.0
H1285 H 0.29354 0.32795 0.66665 0.0
C1286 C 0.23383 0.31384 0.66973 0.0
C1287 C 0.20323 0.30159 0.67107 0.0
C1288 C 0.25647 0.28123 0.66984 0.0
C1289 C 0.19559 0.25628 0.67311 0.0
C1290 C 0.21799 0.22369 0.67334 0.0
C1291 C 0.27106 0.20306 0.67078 0.0
C1292 C 0.30159 0.21522 0.66837 0.0
C1293 C 0.24848 0.23574 0.67146 0.0
C1294 C 0.30928 0.26061 0.66715 0.0
C1295 C 0.28696 0.29328 0.66789 0.0
H1296 H 0.74289 0.15792 0.84335 0.0
H1297 H 0.66635 0.24634 0.84698 0.0
H1298 H 0.70006 0.31059 0.8453 0.0
H1299 H 0.75135 0.34196 0.8438 0.0
H1300 H 0.82789 0.25345 0.84055 0.0
H1301 H 0.7941 0.18926 0.841 0.0
C1302 C 0.73353 0.19122 0.84364 0.0
C1303 C 0.70205 0.19712 0.84527 0.0
C1304 C 0.75307 0.22817 0.84276 0.0
C1305 C 0.69043 0.24065 0.84572 0.0
C1306 C 0.70972 0.27751 0.84477 0.0
C1307 C 0.76068 0.30866 0.84301 0.0
C1308 C 0.79219 0.30271 0.8421 0.0
C1309 C 0.74109 0.27171 0.84341 0.0
C1310 C 0.80377 0.25918 0.84124 0.0
C1311 C 0.78444 0.22235 0.84152 0.0
H1312 H 0.24266 0.65098 0.84044 0.0
H1313 H 0.17046 0.74677 0.83502 0.0
H1314 H 0.20726 0.80719 0.83288 0.0
H1315 H 0.25984 0.83323 0.83361 0.0
H1316 H 0.33211 0.73769 0.83949 0.0
H1317 H 0.29537 0.67698 0.84028 0.0
C1318 C 0.23492 0.68503 0.83862 0.0
C1319 C 0.20374 0.69415 0.83786 0.0
C1320 C 0.25625 0.71979 0.83751 0.0
C1321 C 0.19425 0.73861 0.83563 0.0
C1322 C 0.21531 0.77328 0.83442 0.0
C1323 C 0.26763 0.79913 0.83487 0.0
C1324 C 0.29879 0.79017 0.83643 0.0
C1325 C 0.24636 0.76431 0.83548 0.0
C1326 C 0.30833 0.74568 0.83823 0.0
C1327 C 0.28731 0.71088 0.83871 0.0
H1328 H 0.34738 0.08751 0.28017 0.0
H1329 H 0.35807 0.95837 0.31426 0.0
H1330 H 0.35572 0.92304 0.27331 0.0
H1331 H 0.35288 0.92883 0.22743 0.0
H1332 H 0.3397 0.05791 0.19371 0.0
H1333 H 0.34058 0.09272 0.2347 0.0
C1334 C 0.34907 0.05162 0.27867 0.0
C1335 C 0.35318 0.02582 0.30035 0.0
C1336 C 0.34729 0.03128 0.25501 0.0
C1337 C 0.35494 0.97924 0.29798 0.0
C1338 C 0.35366 0.95889 0.2745 0.0
C1339 C 0.34994 0.96453 0.22903 0.0
C1340 C 0.34652 0.99053 0.20731 0.0
C1341 C 0.35016 0.9846 0.25283 0.0
C1342 C 0.34251 0.0368 0.20992 0.0
C1343 C 0.34308 0.05693 0.23344 0.0
H1344 H 0.64424 0.08145 0.23384 0.0
H1345 H 0.65512 0.9584 0.19321 0.0
H1346 H 0.6564 0.91708 0.23235 0.0
H1347 H 0.65145 0.91515 0.27812 0.0
H1348 H 0.64262 0.03862 0.3187 0.0
H1349 H 0.64368 0.08013 0.27967 0.0
C1350 C 0.64714 0.04563 0.23351 0.0
C1351 C 0.64921 0.02318 0.21051 0.0
C1352 C 0.64808 0.02193 0.25614 0.0
C1353 C 0.65332 0.97673 0.21055 0.0
C1354 C 0.65397 0.95293 0.23297 0.0
C1355 C 0.64994 0.95115 0.27845 0.0
C1356 C 0.6466 0.97353 0.30138 0.0
C1357 C 0.65087 0.97508 0.25587 0.0
C1358 C 0.64507 0.02031 0.3014 0.0
C1359 C 0.64562 0.04422 0.27904 0.0
H1360 H 0.64967 0.08268 0.7815 0.0
H1361 H 0.65643 0.9533 0.81618 0.0
H1362 H 0.65854 0.91817 0.77526 0.0
H1363 H 0.65578 0.92351 0.72959 0.0
H1364 H 0.65097 0.05291 0.69479 0.0
H1365 H 0.651 0.08839 0.73571 0.0
C1366 C 0.65182 0.04682 0.78013 0.0
C1367 C 0.65255 0.02078 0.80198 0.0
C1368 C 0.65327 0.02666 0.75647 0.0
C1369 C 0.65569 0.97434 0.79977 0.0
C1370 C 0.65683 0.95408 0.77633 0.0
C1371 C 0.6549 0.95949 0.73093 0.0
C1372 C 0.65303 0.98536 0.70909 0.0
C1373 C 0.6552 0.97983 0.75455 0.0
C1374 C 0.65231 0.03202 0.71123 0.0
C1375 C 0.65226 0.05244 0.73467 0.0
H1376 H 0.35248 0.02635 0.8014 0.0
H1377 H 0.35625 0.89286 0.77189 0.0
H1378 H 0.35743 0.92229 0.72935 0.0
H1379 H 0.36039 0.98598 0.70054 0.0
H1380 H 0.35963 0.11941 0.7304 0.0
H1381 H 0.35426 0.08988 0.77262 0.0
C1382 C 0.3532 0.00361 0.78569 0.0
C1383 C 0.35427 0.95739 0.78995 0.0
C1384 C 0.35466 0.02077 0.76124 0.0
C1385 C 0.35548 0.92857 0.76925 0.0
C1386 C 0.35621 0.94537 0.74487 0.0
C1387 C 0.3588 0.00866 0.71624 0.0
C1388 C 0.36052 0.05492 0.71217 0.0
C1389 C 0.35629 0.99144 0.74064 0.0
C1390 C 0.35857 0.08367 0.73287 0.0
C1391 C 0.35545 0.06682 0.75708 0.0
H1392 H 0.85959 0.40389 0.22829 0.0
H1393 H 0.85603 0.52913 0.18885 0.0
H1394 H 0.85252 0.56896 0.22837 0.0
H1395 H 0.85243 0.56873 0.27433 0.0
H1396 H 0.85444 0.44312 0.31355 0.0
H1397 H 0.85643 0.4034 0.27402 0.0
C1398 C 0.85792 0.43988 0.22829 0.0
C1399 C 0.85833 0.46331 0.20553 0.0
C1400 C 0.85567 0.46275 0.25113 0.0
C1401 C 0.85585 0.51002 0.206 0.0
C1402 C 0.85389 0.53297 0.22865 0.0
C1403 C 0.85313 0.53267 0.27426 0.0
C1404 C 0.85351 0.50919 0.29702 0.0
C1405 C 0.85408 0.50973 0.25136 0.0
C1406 C 0.8542 0.46234 0.29644 0.0
C1407 C 0.85539 0.43942 0.27378 0.0
H1408 H 0.14646 0.41879 0.27744 0.0
H1409 H 0.14104 0.54393 0.31677 0.0
H1410 H 0.14277 0.58414 0.27733 0.0
H1411 H 0.14397 0.58415 0.23137 0.0
H1412 H 0.15155 0.45903 0.1922 0.0
H1413 H 0.15099 0.41904 0.23167 0.0
C1414 C 0.14577 0.45485 0.27742 0.0
C1415 C 0.14337 0.47805 0.30016 0.0
C1416 C 0.14713 0.47806 0.25458 0.0
C1417 C 0.14282 0.52492 0.29966 0.0
C1418 C 0.14376 0.54812 0.27704 0.0
C1419 C 0.14571 0.54817 0.23144 0.0
C1420 C 0.14755 0.52489 0.20867 0.0
C1421 C 0.14565 0.52507 0.25435 0.0
C1422 C 0.14999 0.47814 0.20929 0.0
C1423 C 0.14962 0.45503 0.23193 0.0
H1424 H 0.14614 0.57759 0.77662 0.0
H1425 H 0.15468 0.45312 0.81629 0.0
H1426 H 0.15436 0.4127 0.77682 0.0
H1427 H 0.14807 0.41211 0.73113 0.0
H1428 H 0.14137 0.53682 0.69148 0.0
H1429 H 0.14468 0.57741 0.73079 0.0
C1430 C 0.14825 0.54165 0.77668 0.0
C1431 C 0.15004 0.51855 0.79953 0.0
C1432 C 0.14816 0.51847 0.75386 0.0
C1433 C 0.15312 0.47195 0.7991 0.0
C1434 C 0.15282 0.44867 0.77648 0.0
C1435 C 0.14753 0.44818 0.73106 0.0
C1436 C 0.14408 0.47124 0.70833 0.0
C1437 C 0.14975 0.47151 0.75377 0.0
C1438 C 0.14387 0.51805 0.70862 0.0
C1439 C 0.14571 0.5414 0.73114 0.0
H1440 H 0.83955 0.58071 0.72683 0.0
H1441 H 0.85143 0.4542 0.69001 0.0
H1442 H 0.84956 0.41613 0.73025 0.0
H1443 H 0.84795 0.41921 0.77619 0.0
H1444 H 0.8341 0.54577 0.81265 0.0
H1445 H 0.8331 0.58298 0.77231 0.0
C1446 C 0.84153 0.54477 0.72757 0.0
C1447 C 0.84602 0.52049 0.70542 0.0
C1448 C 0.84017 0.52296 0.75077 0.0
C1449 C 0.84807 0.47384 0.70673 0.0
C1450 C 0.84708 0.45198 0.72978 0.0
C1451 C 0.8444 0.45487 0.77534 0.0
C1452 C 0.84151 0.47955 0.79757 0.0
C1453 C 0.84365 0.47627 0.75197 0.0
C1454 C 0.8366 0.52574 0.79597 0.0
C1455 C 0.83609 0.54722 0.77285 0.0
loop_
_geom_bond_atom_site_label_1
_geom_bond_atom_site_label_2
_geom_bond_distance
_geom_bond_site_symmetry_2
_ccdc_geom_bond_type
Co0 O2 2.143 1_565 S
Co0 O8 2.074 . S
Co0 O11 2.093 . S
Co0 O24 2.097 1_565 S
Co0 N41 2.151 . S
Co0 N49 2.214 . S
Co1 O2 2.160 . S
Co1 O7 2.058 . S
Co1 O17 2.057 . S
Co1 O32 2.037 . S
Co1 N36 2.145 . S
Co1 N57 2.257 . S
O2 Co0 2.143 1_545 S
O2 Co1 2.160 . S
C3 O4 1.278 . S
C3 O11 1.224 1_545 S
O4 C3 1.278 . S
C5 O6 1.245 . S
C5 O17 1.232 . S
O6 C5 1.245 . S
O7 Co1 2.058 . S
O7 C33 1.269 . S
O8 Co0 2.074 . S
O8 C33 1.257 1_565 S
H9 C34 0.930 . S
H10 C40 0.930 1_545 S
O11 Co0 2.093 . S
O11 C3 1.224 1_565 S
H12 C44 0.929 . S
H13 C46 0.930 . S
H14 C47 0.930 . S
H15 C45 0.929 . S
H16 C48 0.928 . S
O17 Co1 2.057 . S
O17 C5 1.232 . S
H18 C37 0.929 . S
H19 C38 0.929 . S
H20 C50 0.931 . S
H21 C42 0.929 . S
H22 C51 0.930 . S
H23 C43 0.931 . S
O24 Co0 2.097 1_545 S
O24 C52 1.214 . S
H25 C53 0.929 . S
H26 C54 0.929 . S
H27 C55 0.930 . S
H28 C56 0.929 . S
H29 C58 0.930 . S
H30 C35 0.930 . S
H31 C39 0.930 . S
O32 Co1 2.037 . S
O32 C52 1.234 . S
C33 O7 1.269 . S
C33 O8 1.257 1_545 S
C34 H9 0.930 . S
C34 C37 1.388 . S
C34 C39 1.418 . S
C35 H30 0.930 . S
C35 C38 1.404 . S
C35 C39 1.353 . S
N36 Co1 2.145 . S
N36 C37 1.397 . S
N36 C38 1.334 . S
C37 H18 0.929 . S
C37 C34 1.388 . S
C37 N36 1.397 . S
C38 H19 0.929 . S
C38 C35 1.404 . S
C38 N36 1.334 . S
C39 H31 0.930 . S
C39 C34 1.418 . S
C39 C35 1.353 . S
C40 H10 0.930 1_565 S
C40 N41 1.330 . S
C40 C42 1.446 . S
N41 Co0 2.151 . S
N41 C40 1.330 . S
N41 C45 1.418 . S
C42 H21 0.929 . S
C42 C40 1.446 . S
C42 C43 1.332 . S
C43 H23 0.931 . S
C43 C42 1.332 . S
C43 C44 1.267 . S
C44 H12 0.929 . S
C44 C43 1.267 . S
C44 C45 1.251 . S
C45 H15 0.929 . S
C45 N41 1.418 . S
C45 C44 1.251 . S
C46 H13 0.930 . S
C46 C48 1.406 . S
C46 C51 1.261 . S
C47 H14 0.930 . S
C47 N49 1.325 . S
C47 C50 1.357 . S
C48 H16 0.928 . S
C48 C46 1.406 . S
C48 N49 1.261 . S
N49 Co0 2.214 . S
N49 C47 1.325 . S
N49 C48 1.261 . S
C50 H20 0.931 . S
C50 C47 1.357 . S
C50 C51 1.312 . S
C51 H22 0.930 . S
C51 C46 1.261 . S
C51 C50 1.312 . S
C52 O24 1.214 . S
C52 O32 1.234 . S
C53 H25 0.929 . S
C53 C56 1.391 . S
C53 C58 1.391 . S
C54 H26 0.929 . S
C54 C55 1.390 . S
C54 N57 1.391 . S
C55 H27 0.930 . S
C55 C54 1.390 . S
C55 C56 1.392 . S
C56 H28 0.929 . S
C56 C53 1.391 . S
C56 C55 1.392 . S
N57 Co1 2.257 . S
N57 C54 1.391 . S
N57 C58 1.388 . S
C58 H29 0.930 . S
C58 C53 1.391 . S
C58 N57 1.388 . S
Co59 O61 2.143 1_545 S
Co59 O67 2.074 . S
Co59 O70 2.093 . S
Co59 O83 2.097 1_545 S
Co59 N100 2.151 . S
Co59 N108 2.214 . S
Co60 O61 2.160 . S
Co60 O66 2.058 . S
Co60 O76 2.057 . S
Co60 O91 2.037 . S
Co60 N95 2.145 . S
Co60 N116 2.257 . S
O61 Co59 2.143 1_565 S
O61 Co60 2.160 . S
C62 O63 1.278 . S
C62 O70 1.224 1_565 S
O63 C62 1.278 . S
C64 O65 1.245 . S
C64 O76 1.232 . S
O65 C64 1.245 . S
O66 Co60 2.058 . S
O66 C92 1.269 . S
O67 Co59 2.074 . S
O67 C92 1.257 1_545 S
H68 C93 0.930 . S
H69 C99 0.930 1_565 S
O70 Co59 2.093 . S
O70 C62 1.224 1_545 S
H71 C103 0.929 . S
H72 C105 0.930 . S
H73 C106 0.930 . S
H74 C104 0.929 . S
H75 C107 0.928 . S
O76 Co60 2.057 . S
O76 C64 1.232 . S
H77 C96 0.929 . S
H78 C97 0.929 . S
H79 C109 0.931 . S
H80 C101 0.929 . S
H81 C110 0.930 . S
H82 C102 0.931 . S
O83 Co59 2.097 1_565 S
O83 C111 1.214 . S
H84 C112 0.929 . S
H85 C113 0.929 . S
H86 C114 0.930 . S
H87 C115 0.929 . S
H88 C117 0.930 . S
H89 C94 0.930 . S
H90 C98 0.930 . S
O91 Co60 2.037 . S
O91 C111 1.234 . S
C92 O66 1.269 . S
C92 O67 1.257 1_565 S
C93 H68 0.930 . S
C93 C96 1.388 . S
C93 C98 1.418 . S
C94 H89 0.930 . S
C94 C97 1.404 . S
C94 C98 1.353 . S
N95 Co60 2.145 . S
N95 C96 1.397 . S
N95 C97 1.334 . S
C96 H77 0.929 . S
C96 C93 1.388 . S
C96 N95 1.397 . S
C97 H78 0.929 . S
C97 C94 1.404 . S
C97 N95 1.334 . S
C98 H90 0.930 . S
C98 C93 1.418 . S
C98 C94 1.353 . S
C99 H69 0.930 1_545 S
C99 N100 1.330 . S
C99 C101 1.446 . S
N100 Co59 2.151 . S
N100 C99 1.330 . S
N100 C104 1.418 . S
C101 H80 0.929 . S
C101 C99 1.446 . S
C101 C102 1.332 . S
C102 H82 0.931 . S
C102 C101 1.332 . S
C102 C103 1.267 . S
C103 H71 0.929 . S
C103 C102 1.267 . S
C103 C104 1.251 . S
C104 H74 0.929 . S
C104 N100 1.418 . S
C104 C103 1.251 . S
C105 H72 0.930 . S
C105 C107 1.406 . S
C105 C110 1.261 . S
C106 H73 0.930 . S
C106 N108 1.325 . S
C106 C109 1.357 . S
C107 H75 0.928 . S
C107 C105 1.406 . S
C107 N108 1.261 . S
N108 Co59 2.214 . S
N108 C106 1.325 . S
N108 C107 1.261 . S
C109 H79 0.931 . S
C109 C106 1.357 . S
C109 C110 1.312 . S
C110 H81 0.930 . S
C110 C105 1.261 . S
C110 C109 1.312 . S
C111 O83 1.214 . S
C111 O91 1.234 . S
C112 H84 0.929 . S
C112 C115 1.391 . S
C112 C117 1.391 . S
C113 H85 0.929 . S
C113 C114 1.390 . S
C113 N116 1.391 . S
C114 H86 0.930 . S
C114 C113 1.390 . S
C114 C115 1.392 . S
C115 H87 0.929 . S
C115 C112 1.391 . S
C115 C114 1.392 . S
N116 Co60 2.257 . S
N116 C113 1.391 . S
N116 C117 1.388 . S
C117 H88 0.930 . S
C117 C112 1.391 . S
C117 N116 1.388 . S
Co118 O120 2.143 1_545 S
Co118 O126 2.074 . S
Co118 O129 2.093 . S
Co118 O142 2.097 1_545 S
Co118 N159 2.151 . S
Co118 N167 2.214 . S
Co119 O120 2.160 . S
Co119 O125 2.058 . S
Co119 O135 2.057 . S
Co119 O150 2.037 . S
Co119 N154 2.145 . S
Co119 N175 2.257 . S
O120 Co118 2.143 1_565 S
O120 Co119 2.160 . S
C121 O122 1.278 . S
C121 O129 1.224 1_565 S
O122 C121 1.278 . S
C123 O124 1.245 . S
C123 O135 1.232 . S
O124 C123 1.245 . S
O125 Co119 2.058 . S
O125 C151 1.269 . S
O126 Co118 2.074 . S
O126 C151 1.257 1_545 S
H127 C152 0.930 . S
H128 C158 0.930 1_565 S
O129 Co118 2.093 . S
O129 C121 1.224 1_545 S
H130 C162 0.929 . S
H131 C164 0.930 . S
H132 C165 0.930 . S
H133 C163 0.929 . S
H134 C166 0.928 . S
O135 Co119 2.057 . S
O135 C123 1.232 . S
H136 C155 0.929 . S
H137 C156 0.929 . S
H138 C168 0.931 . S
H139 C160 0.929 . S
H140 C169 0.930 . S
H141 C161 0.931 . S
O142 Co118 2.097 1_565 S
O142 C170 1.214 . S
H143 C171 0.929 . S
H144 C172 0.929 . S
H145 C173 0.930 . S
H146 C174 0.929 . S
H147 C176 0.930 . S
H148 C153 0.930 . S
H149 C157 0.930 . S
O150 Co119 2.037 . S
O150 C170 1.234 . S
C151 O125 1.269 . S
C151 O126 1.257 1_565 S
C152 H127 0.930 . S
C152 C155 1.388 . S
C152 C157 1.418 . S
C153 H148 0.930 . S
C153 C156 1.404 . S
C153 C157 1.353 . S
N154 Co119 2.145 . S
N154 C155 1.397 . S
N154 C156 1.334 . S
C155 H136 0.929 . S
C155 C152 1.388 . S
C155 N154 1.397 . S
C156 H137 0.929 . S
C156 C153 1.404 . S
C156 N154 1.334 . S
C157 H149 0.930 . S
C157 C152 1.418 . S
C157 C153 1.353 . S
C158 H128 0.930 1_545 S
C158 N159 1.330 . S
C158 C160 1.446 . S
N159 Co118 2.151 . S
N159 C158 1.330 . S
N159 C163 1.418 . S
C160 H139 0.929 . S
C160 C158 1.446 . S
C160 C161 1.332 . S
C161 H141 0.931 . S
C161 C160 1.332 . S
C161 C162 1.267 . S
C162 H130 0.929 . S
C162 C161 1.267 . S
C162 C163 1.251 . S
C163 H133 0.929 . S
C163 N159 1.418 . S
C163 C162 1.251 . S
C164 H131 0.930 . S
C164 C166 1.406 . S
C164 C169 1.261 . S
C165 H132 0.930 . S
C165 N167 1.325 . S
C165 C168 1.357 . S
C166 H134 0.928 . S
C166 C164 1.406 . S
C166 N167 1.261 . S
N167 Co118 2.214 . S
N167 C165 1.325 . S
N167 C166 1.261 . S
C168 H138 0.931 . S
C168 C165 1.357 . S
C168 C169 1.312 . S
C169 H140 0.930 . S
C169 C164 1.261 . S
C169 C168 1.312 . S
C170 O142 1.214 . S
C170 O150 1.234 . S
C171 H143 0.929 . S
C171 C174 1.391 . S
C171 C176 1.391 . S
C172 H144 0.929 . S
C172 C173 1.390 . S
C172 N175 1.391 . S
C173 H145 0.930 . S
C173 C172 1.390 . S
C173 C174 1.392 . S
C174 H146 0.929 . S
C174 C171 1.391 . S
C174 C173 1.392 . S
N175 Co119 2.257 . S
N175 C172 1.391 . S
N175 C176 1.388 . S
C176 H147 0.930 . S
C176 C171 1.391 . S
C176 N175 1.388 . S
Co177 O179 2.143 1_565 S
Co177 O185 2.074 . S
Co177 O188 2.093 . S
Co177 O201 2.097 1_565 S
Co177 N218 2.151 . S
Co177 N226 2.214 . S
Co178 O179 2.160 . S
Co178 O184 2.058 . S
Co178 O194 2.057 . S
Co178 O209 2.037 . S
Co178 N213 2.145 . S
Co178 N234 2.257 . S
O179 Co177 2.143 1_545 S
O179 Co178 2.160 . S
C180 O181 1.278 . S
C180 O188 1.224 1_545 S
O181 C180 1.278 . S
C182 O183 1.245 . S
C182 O194 1.232 . S
O183 C182 1.245 . S
O184 Co178 2.058 . S
O184 C210 1.269 . S
O185 Co177 2.074 . S
O185 C210 1.257 1_565 S
H186 C211 0.930 . S
H187 C217 0.930 1_545 S
O188 Co177 2.093 . S
O188 C180 1.224 1_565 S
H189 C221 0.929 . S
H190 C223 0.930 . S
H191 C224 0.930 . S
H192 C222 0.929 . S
H193 C225 0.928 . S
O194 Co178 2.057 . S
O194 C182 1.232 . S
H195 C214 0.929 . S
H196 C215 0.929 . S
H197 C227 0.931 . S
H198 C219 0.929 . S
H199 C228 0.930 . S
H200 C220 0.931 . S
O201 Co177 2.097 1_545 S
O201 C229 1.214 . S
H202 C230 0.929 . S
H203 C231 0.929 . S
H204 C232 0.930 . S
H205 C233 0.929 . S
H206 C235 0.930 . S
H207 C212 0.930 . S
H208 C216 0.930 . S
O209 Co178 2.037 . S
O209 C229 1.234 . S
C210 O184 1.269 . S
C210 O185 1.257 1_545 S
C211 H186 0.930 . S
C211 C214 1.388 . S
C211 C216 1.418 . S
C212 H207 0.930 . S
C212 C215 1.404 . S
C212 C216 1.353 . S
N213 Co178 2.145 . S
N213 C214 1.397 . S
N213 C215 1.334 . S
C214 H195 0.929 . S
C214 C211 1.388 . S
C214 N213 1.397 . S
C215 H196 0.929 . S
C215 C212 1.404 . S
C215 N213 1.334 . S
C216 H208 0.930 . S
C216 C211 1.418 . S
C216 C212 1.353 . S
C217 H187 0.930 1_565 S
C217 N218 1.330 . S
C217 C219 1.446 . S
N218 Co177 2.151 . S
N218 C217 1.330 . S
N218 C222 1.418 . S
C219 H198 0.929 . S
C219 C217 1.446 . S
C219 C220 1.332 . S
C220 H200 0.931 . S
C220 C219 1.332 . S
C220 C221 1.267 . S
C221 H189 0.929 . S
C221 C220 1.267 . S
C221 C222 1.251 . S
C222 H192 0.929 . S
C222 N218 1.418 . S
C222 C221 1.251 . S
C223 H190 0.930 . S
C223 C225 1.406 . S
C223 C228 1.261 . S
C224 H191 0.930 . S
C224 N226 1.325 . S
C224 C227 1.357 . S
C225 H193 0.928 . S
C225 C223 1.406 . S
C225 N226 1.261 . S
N226 Co177 2.214 . S
N226 C224 1.325 . S
N226 C225 1.261 . S
C227 H197 0.931 . S
C227 C224 1.357 . S
C227 C228 1.312 . S
C228 H199 0.930 . S
C228 C223 1.261 . S
C228 C227 1.312 . S
C229 O201 1.214 . S
C229 O209 1.234 . S
C230 H202 0.929 . S
C230 C233 1.391 . S
C230 C235 1.391 . S
C231 H203 0.929 . S
C231 C232 1.390 . S
C231 N234 1.391 . S
C232 H204 0.930 . S
C232 C231 1.390 . S
C232 C233 1.392 . S
C233 H205 0.929 . S
C233 C230 1.391 . S
C233 C232 1.392 . S
N234 Co178 2.257 . S
N234 C231 1.391 . S
N234 C235 1.388 . S
C235 H206 0.930 . S
C235 C230 1.391 . S
C235 N234 1.388 . S
Co236 O238 2.143 1_545 S
Co236 O244 2.074 . S
Co236 O247 2.093 . S
Co236 O260 2.097 1_545 S
Co236 N277 2.151 . S
Co236 N285 2.214 . S
Co237 O238 2.160 . S
Co237 O243 2.058 . S
Co237 O253 2.057 . S
Co237 O268 2.037 . S
Co237 N272 2.145 . S
Co237 N293 2.257 . S
O238 Co236 2.143 1_565 S
O238 Co237 2.160 . S
C239 O240 1.278 . S
C239 O247 1.224 1_565 S
O240 C239 1.278 . S
C241 O242 1.245 . S
C241 O253 1.232 . S
O242 C241 1.245 . S
O243 Co237 2.058 . S
O243 C269 1.269 . S
O244 Co236 2.074 . S
O244 C269 1.257 1_545 S
H245 C270 0.930 . S
H246 C276 0.930 1_565 S
O247 Co236 2.093 . S
O247 C239 1.224 1_545 S
H248 C280 0.929 . S
H249 C282 0.930 . S
H250 C283 0.930 . S
H251 C281 0.929 . S
H252 C284 0.928 . S
O253 Co237 2.057 . S
O253 C241 1.232 . S
H254 C273 0.929 . S
H255 C274 0.929 . S
H256 C286 0.931 . S
H257 C278 0.929 . S
H258 C287 0.930 . S
H259 C279 0.931 . S
O260 Co236 2.097 1_565 S
O260 C288 1.214 . S
H261 C289 0.929 . S
H262 C290 0.929 . S
H263 C291 0.930 . S
H264 C292 0.929 . S
H265 C294 0.930 . S
H266 C271 0.930 . S
H267 C275 0.930 . S
O268 Co237 2.037 . S
O268 C288 1.234 . S
C269 O243 1.269 . S
C269 O244 1.257 1_565 S
C270 H245 0.930 . S
C270 C273 1.388 . S
C270 C275 1.418 . S
C271 H266 0.930 . S
C271 C274 1.404 . S
C271 C275 1.353 . S
N272 Co237 2.145 . S
N272 C273 1.397 . S
N272 C274 1.334 . S
C273 H254 0.929 . S
C273 C270 1.388 . S
C273 N272 1.397 . S
C274 H255 0.929 . S
C274 C271 1.404 . S
C274 N272 1.334 . S
C275 H267 0.930 . S
C275 C270 1.418 . S
C275 C271 1.353 . S
C276 H246 0.930 1_545 S
C276 N277 1.330 . S
C276 C278 1.446 . S
N277 Co236 2.151 . S
N277 C276 1.330 . S
N277 C281 1.418 . S
C278 H257 0.929 . S
C278 C276 1.446 . S
C278 C279 1.332 . S
C279 H259 0.931 . S
C279 C278 1.332 . S
C279 C280 1.267 . S
C280 H248 0.929 . S
C280 C279 1.267 . S
C280 C281 1.251 . S
C281 H251 0.929 . S
C281 N277 1.418 . S
C281 C280 1.251 . S
C282 H249 0.930 . S
C282 C284 1.406 . S
C282 C287 1.261 . S
C283 H250 0.930 . S
C283 N285 1.325 . S
C283 C286 1.357 . S
C284 H252 0.928 . S
C284 C282 1.406 . S
C284 N285 1.261 . S
N285 Co236 2.214 . S
N285 C283 1.325 . S
N285 C284 1.261 . S
C286 H256 0.931 . S
C286 C283 1.357 . S
C286 C287 1.312 . S
C287 H258 0.930 . S
C287 C282 1.261 . S
C287 C286 1.312 . S
C288 O260 1.214 . S
C288 O268 1.234 . S
C289 H261 0.929 . S
C289 C292 1.391 . S
C289 C294 1.391 . S
C290 H262 0.929 . S
C290 C291 1.390 . S
C290 N293 1.391 . S
C291 H263 0.930 . S
C291 C290 1.390 . S
C291 C292 1.392 . S
C292 H264 0.929 . S
C292 C289 1.391 . S
C292 C291 1.392 . S
N293 Co237 2.257 . S
N293 C290 1.391 . S
N293 C294 1.388 . S
C294 H265 0.930 . S
C294 C289 1.391 . S
C294 N293 1.388 . S
Co295 O297 2.143 1_565 S
Co295 O303 2.074 . S
Co295 O306 2.093 . S
Co295 O319 2.097 1_565 S
Co295 N336 2.151 . S
Co295 N344 2.214 . S
Co296 O297 2.160 . S
Co296 O302 2.058 . S
Co296 O312 2.057 . S
Co296 O327 2.037 . S
Co296 N331 2.145 . S
Co296 N352 2.257 . S
O297 Co295 2.143 1_545 S
O297 Co296 2.160 . S
C298 O299 1.278 . S
C298 O306 1.224 1_545 S
O299 C298 1.278 . S
C300 O301 1.245 . S
C300 O312 1.232 . S
O301 C300 1.245 . S
O302 Co296 2.058 . S
O302 C328 1.269 . S
O303 Co295 2.074 . S
O303 C328 1.257 1_565 S
H304 C329 0.930 . S
H305 C335 0.930 1_545 S
O306 Co295 2.093 . S
O306 C298 1.224 1_565 S
H307 C339 0.929 . S
H308 C341 0.930 . S
H309 C342 0.930 . S
H310 C340 0.929 . S
H311 C343 0.928 . S
O312 Co296 2.057 . S
O312 C300 1.232 . S
H313 C332 0.929 . S
H314 C333 0.929 . S
H315 C345 0.931 . S
H316 C337 0.929 . S
H317 C346 0.930 . S
H318 C338 0.931 . S
O319 Co295 2.097 1_545 S
O319 C347 1.214 . S
H320 C348 0.929 . S
H321 C349 0.929 . S
H322 C350 0.930 . S
H323 C351 0.929 . S
H324 C353 0.930 . S
H325 C330 0.930 . S
H326 C334 0.930 . S
O327 Co296 2.037 . S
O327 C347 1.234 . S
C328 O302 1.269 . S
C328 O303 1.257 1_545 S
C329 H304 0.930 . S
C329 C332 1.388 . S
C329 C334 1.418 . S
C330 H325 0.930 . S
C330 C333 1.404 . S
C330 C334 1.353 . S
N331 Co296 2.145 . S
N331 C332 1.397 . S
N331 C333 1.334 . S
C332 H313 0.929 . S
C332 C329 1.388 . S
C332 N331 1.397 . S
C333 H314 0.929 . S
C333 C330 1.404 . S
C333 N331 1.334 . S
C334 H326 0.930 . S
C334 C329 1.418 . S
C334 C330 1.353 . S
C335 H305 0.930 1_565 S
C335 N336 1.330 . S
C335 C337 1.446 . S
N336 Co295 2.151 . S
N336 C335 1.330 . S
N336 C340 1.418 . S
C337 H316 0.929 . S
C337 C335 1.446 . S
C337 C338 1.332 . S
C338 H318 0.931 . S
C338 C337 1.332 . S
C338 C339 1.267 . S
C339 H307 0.929 . S
C339 C338 1.267 . S
C339 C340 1.251 . S
C340 H310 0.929 . S
C340 N336 1.418 . S
C340 C339 1.251 . S
C341 H308 0.930 . S
C341 C343 1.406 . S
C341 C346 1.261 . S
C342 H309 0.930 . S
C342 N344 1.325 . S
C342 C345 1.357 . S
C343 H311 0.928 . S
C343 C341 1.406 . S
C343 N344 1.261 . S
N344 Co295 2.214 . S
N344 C342 1.325 . S
N344 C343 1.261 . S
C345 H315 0.931 . S
C345 C342 1.357 . S
C345 C346 1.312 . S
C346 H317 0.930 . S
C346 C341 1.261 . S
C346 C345 1.312 . S
C347 O319 1.214 . S
C347 O327 1.234 . S
C348 H320 0.929 . S
C348 C351 1.391 . S
C348 C353 1.391 . S
C349 H321 0.929 . S
C349 C350 1.390 . S
C349 N352 1.391 . S
C350 H322 0.930 . S
C350 C349 1.390 . S
C350 C351 1.392 . S
C351 H323 0.929 . S
C351 C348 1.391 . S
C351 C350 1.392 . S
N352 Co296 2.257 . S
N352 C349 1.391 . S
N352 C353 1.388 . S
C353 H324 0.930 . S
C353 C348 1.391 . S
C353 N352 1.388 . S
Co354 O356 2.143 1_565 S
Co354 O362 2.074 . S
Co354 O365 2.093 . S
Co354 O378 2.097 1_565 S
Co354 N395 2.151 . S
Co354 N403 2.214 . S
Co355 O356 2.160 . S
Co355 O361 2.058 . S
Co355 O371 2.057 . S
Co355 O386 2.037 . S
Co355 N390 2.145 . S
Co355 N411 2.257 . S
O356 Co354 2.143 1_545 S
O356 Co355 2.160 . S
C357 O358 1.278 . S
C357 O365 1.224 1_545 S
O358 C357 1.278 . S
C359 O360 1.245 . S
C359 O371 1.232 . S
O360 C359 1.245 . S
O361 Co355 2.058 . S
O361 C387 1.269 . S
O362 Co354 2.074 . S
O362 C387 1.257 1_565 S
H363 C388 0.930 . S
H364 C394 0.930 1_545 S
O365 Co354 2.093 . S
O365 C357 1.224 1_565 S
H366 C398 0.929 . S
H367 C400 0.930 . S
H368 C401 0.930 . S
H369 C399 0.929 . S
H370 C402 0.928 . S
O371 Co355 2.057 . S
O371 C359 1.232 . S
H372 C391 0.929 . S
H373 C392 0.929 . S
H374 C404 0.931 . S
H375 C396 0.929 . S
H376 C405 0.930 . S
H377 C397 0.931 . S
O378 Co354 2.097 1_545 S
O378 C406 1.214 . S
H379 C407 0.929 . S
H380 C408 0.929 . S
H381 C409 0.930 . S
H382 C410 0.929 . S
H383 C412 0.930 . S
H384 C389 0.930 . S
H385 C393 0.930 . S
O386 Co355 2.037 . S
O386 C406 1.234 . S
C387 O361 1.269 . S
C387 O362 1.257 1_545 S
C388 H363 0.930 . S
C388 C391 1.388 . S
C388 C393 1.418 . S
C389 H384 0.930 . S
C389 C392 1.404 . S
C389 C393 1.353 . S
N390 Co355 2.145 . S
N390 C391 1.397 . S
N390 C392 1.334 . S
C391 H372 0.929 . S
C391 C388 1.388 . S
C391 N390 1.397 . S
C392 H373 0.929 . S
C392 C389 1.404 . S
C392 N390 1.334 . S
C393 H385 0.930 . S
C393 C388 1.418 . S
C393 C389 1.353 . S
C394 H364 0.930 1_565 S
C394 N395 1.330 . S
C394 C396 1.446 . S
N395 Co354 2.151 . S
N395 C394 1.330 . S
N395 C399 1.418 . S
C396 H375 0.929 . S
C396 C394 1.446 . S
C396 C397 1.332 . S
C397 H377 0.931 . S
C397 C396 1.332 . S
C397 C398 1.267 . S
C398 H366 0.929 . S
C398 C397 1.267 . S
C398 C399 1.251 . S
C399 H369 0.929 . S
C399 N395 1.418 . S
C399 C398 1.251 . S
C400 H367 0.930 . S
C400 C402 1.406 . S
C400 C405 1.261 . S
C401 H368 0.930 . S
C401 N403 1.325 . S
C401 C404 1.357 . S
C402 H370 0.928 . S
C402 C400 1.406 . S
C402 N403 1.261 . S
N403 Co354 2.214 . S
N403 C401 1.325 . S
N403 C402 1.261 . S
C404 H374 0.931 . S
C404 C401 1.357 . S
C404 C405 1.312 . S
C405 H376 0.930 . S
C405 C400 1.261 . S
C405 C404 1.312 . S
C406 O378 1.214 . S
C406 O386 1.234 . S
C407 H379 0.929 . S
C407 C410 1.391 . S
C407 C412 1.391 . S
C408 H380 0.929 . S
C408 C409 1.390 . S
C408 N411 1.391 . S
C409 H381 0.930 . S
C409 C408 1.390 . S
C409 C410 1.392 . S
C410 H382 0.929 . S
C410 C407 1.391 . S
C410 C409 1.392 . S
N411 Co355 2.257 . S
N411 C408 1.391 . S
N411 C412 1.388 . S
C412 H383 0.930 . S
C412 C407 1.391 . S
C412 N411 1.388 . S
Co413 O415 2.143 1_545 S
Co413 O421 2.074 . S
Co413 O424 2.093 . S
Co413 O437 2.097 1_545 S
Co413 N454 2.151 . S
Co413 N462 2.214 . S
Co414 O415 2.160 . S
Co414 O420 2.058 . S
Co414 O430 2.057 . S
Co414 O445 2.037 . S
Co414 N449 2.145 . S
Co414 N470 2.257 . S
O415 Co413 2.143 1_565 S
O415 Co414 2.160 . S
C416 O417 1.278 . S
C416 O424 1.224 1_565 S
O417 C416 1.278 . S
C418 O419 1.245 . S
C418 O430 1.232 . S
O419 C418 1.245 . S
O420 Co414 2.058 . S
O420 C446 1.269 . S
O421 Co413 2.074 . S
O421 C446 1.257 1_545 S
H422 C447 0.930 . S
H423 C453 0.930 1_565 S
O424 Co413 2.093 . S
O424 C416 1.224 1_545 S
H425 C457 0.929 . S
H426 C459 0.930 . S
H427 C460 0.930 . S
H428 C458 0.929 . S
H429 C461 0.928 . S
O430 Co414 2.057 . S
O430 C418 1.232 . S
H431 C450 0.929 . S
H432 C451 0.929 . S
H433 C463 0.931 . S
H434 C455 0.929 . S
H435 C464 0.930 . S
H436 C456 0.931 . S
O437 Co413 2.097 1_565 S
O437 C465 1.214 . S
H438 C466 0.929 . S
H439 C467 0.929 . S
H440 C468 0.930 . S
H441 C469 0.929 . S
H442 C471 0.930 . S
H443 C448 0.930 . S
H444 C452 0.930 . S
O445 Co414 2.037 . S
O445 C465 1.234 . S
C446 O420 1.269 . S
C446 O421 1.257 1_565 S
C447 H422 0.930 . S
C447 C450 1.388 . S
C447 C452 1.418 . S
C448 H443 0.930 . S
C448 C451 1.404 . S
C448 C452 1.353 . S
N449 Co414 2.145 . S
N449 C450 1.397 . S
N449 C451 1.334 . S
C450 H431 0.929 . S
C450 C447 1.388 . S
C450 N449 1.397 . S
C451 H432 0.929 . S
C451 C448 1.404 . S
C451 N449 1.334 . S
C452 H444 0.930 . S
C452 C447 1.418 . S
C452 C448 1.353 . S
C453 H423 0.930 1_545 S
C453 N454 1.330 . S
C453 C455 1.446 . S
N454 Co413 2.151 . S
N454 C453 1.330 . S
N454 C458 1.418 . S
C455 H434 0.929 . S
C455 C453 1.446 . S
C455 C456 1.332 . S
C456 H436 0.931 . S
C456 C455 1.332 . S
C456 C457 1.267 . S
C457 H425 0.929 . S
C457 C456 1.267 . S
C457 C458 1.251 . S
C458 H428 0.929 . S
C458 N454 1.418 . S
C458 C457 1.251 . S
C459 H426 0.930 . S
C459 C461 1.406 . S
C459 C464 1.261 . S
C460 H427 0.930 . S
C460 N462 1.325 . S
C460 C463 1.357 . S
C461 H429 0.928 . S
C461 C459 1.406 . S
C461 N462 1.261 . S
N462 Co413 2.214 . S
N462 C460 1.325 . S
N462 C461 1.261 . S
C463 H433 0.931 . S
C463 C460 1.357 . S
C463 C464 1.312 . S
C464 H435 0.930 . S
C464 C459 1.261 . S
C464 C463 1.312 . S
C465 O437 1.214 . S
C465 O445 1.234 . S
C466 H438 0.929 . S
C466 C469 1.391 . S
C466 C471 1.391 . S
C467 H439 0.929 . S
C467 C468 1.390 . S
C467 N470 1.391 . S
C468 H440 0.930 . S
C468 C467 1.390 . S
C468 C469 1.392 . S
C469 H441 0.929 . S
C469 C466 1.391 . S
C469 C468 1.392 . S
N470 Co414 2.257 . S
N470 C467 1.391 . S
N470 C471 1.388 . S
C471 H442 0.930 . S
C471 C466 1.391 . S
C471 N470 1.388 . S
Co472 O474 2.143 . S
Co472 O480 2.074 . S
Co472 O483 2.093 . S
Co472 O496 2.097 . S
Co472 N513 2.151 . S
Co472 N521 2.214 . S
Co473 O474 2.160 . S
Co473 O479 2.058 . S
Co473 O489 2.057 . S
Co473 O504 2.037 . S
Co473 N508 2.145 . S
Co473 N529 2.257 . S
O474 Co472 2.143 . S
O474 Co473 2.160 . S
C475 O476 1.278 . S
C475 O483 1.224 . S
O476 C475 1.278 . S
C477 O478 1.245 . S
C477 O489 1.232 . S
O478 C477 1.245 . S
O479 Co473 2.058 . S
O479 C505 1.269 . S
O480 Co472 2.074 . S
O480 C505 1.257 . S
H481 C506 0.930 . S
H482 C512 0.930 . S
O483 Co472 2.093 . S
O483 C475 1.224 . S
H484 C516 0.929 . S
H485 C518 0.930 . S
H486 C519 0.930 . S
H487 C517 0.929 . S
H488 C520 0.928 . S
O489 Co473 2.057 . S
O489 C477 1.232 . S
H490 C509 0.929 . S
H491 C510 0.929 . S
H492 C522 0.931 . S
H493 C514 0.929 . S
H494 C523 0.930 . S
H495 C515 0.931 . S
O496 Co472 2.097 . S
O496 C524 1.214 . S
H497 C525 0.929 . S
H498 C526 0.929 . S
H499 C527 0.930 . S
H500 C528 0.929 . S
H501 C530 0.930 . S
H502 C507 0.930 . S
H503 C511 0.930 . S
O504 Co473 2.037 . S
O504 C524 1.234 . S
C505 O479 1.269 . S
C505 O480 1.257 . S
C506 H481 0.930 . S
C506 C509 1.388 . S
C506 C511 1.418 . S
C507 H502 0.930 . S
C507 C510 1.404 . S
C507 C511 1.353 . S
N508 Co473 2.145 . S
N508 C509 1.397 . S
N508 C510 1.334 . S
C509 H490 0.929 . S
C509 C506 1.388 . S
C509 N508 1.397 . S
C510 H491 0.929 . S
C510 C507 1.404 . S
C510 N508 1.334 . S
C511 H503 0.930 . S
C511 C506 1.418 . S
C511 C507 1.353 . S
C512 H482 0.930 . S
C512 N513 1.330 . S
C512 C514 1.446 . S
N513 Co472 2.151 . S
N513 C512 1.330 . S
N513 C517 1.418 . S
C514 H493 0.929 . S
C514 C512 1.446 . S
C514 C515 1.332 . S
C515 H495 0.931 . S
C515 C514 1.332 . S
C515 C516 1.267 . S
C516 H484 0.929 . S
C516 C515 1.267 . S
C516 C517 1.251 . S
C517 H487 0.929 . S
C517 N513 1.418 . S
C517 C516 1.251 . S
C518 H485 0.930 . S
C518 C520 1.406 . S
C518 C523 1.261 . S
C519 H486 0.930 . S
C519 N521 1.325 . S
C519 C522 1.357 . S
C520 H488 0.928 . S
C520 C518 1.406 . S
C520 N521 1.261 . S
N521 Co472 2.214 . S
N521 C519 1.325 . S
N521 C520 1.261 . S
C522 H492 0.931 . S
C522 C519 1.357 . S
C522 C523 1.312 . S
C523 H494 0.930 . S
C523 C518 1.261 . S
C523 C522 1.312 . S
C524 O496 1.214 . S
C524 O504 1.234 . S
C525 H497 0.929 . S
C525 C528 1.391 . S
C525 C530 1.391 . S
C526 H498 0.929 . S
C526 C527 1.390 . S
C526 N529 1.391 . S
C527 H499 0.930 . S
C527 C526 1.390 . S
C527 C528 1.392 . S
C528 H500 0.929 . S
C528 C525 1.391 . S
C528 C527 1.392 . S
N529 Co473 2.257 . S
N529 C526 1.391 . S
N529 C530 1.388 . S
C530 H501 0.930 . S
C530 C525 1.391 . S
C530 N529 1.388 . S
Co531 O533 2.143 . S
Co531 O539 2.074 . S
Co531 O542 2.093 . S
Co531 O555 2.097 . S
Co531 N572 2.151 . S
Co531 N580 2.214 . S
Co532 O533 2.160 . S
Co532 O538 2.058 . S
Co532 O548 2.057 . S
Co532 O563 2.037 . S
Co532 N567 2.145 . S
Co532 N588 2.257 . S
O533 Co531 2.143 . S
O533 Co532 2.160 . S
C534 O535 1.278 . S
C534 O542 1.224 . S
O535 C534 1.278 . S
C536 O537 1.245 . S
C536 O548 1.232 . S
O537 C536 1.245 . S
O538 Co532 2.058 . S
O538 C564 1.269 . S
O539 Co531 2.074 . S
O539 C564 1.257 . S
H540 C565 0.930 . S
H541 C571 0.930 . S
O542 Co531 2.093 . S
O542 C534 1.224 . S
H543 C575 0.929 . S
H544 C577 0.930 . S
H545 C578 0.930 . S
H546 C576 0.929 . S
H547 C579 0.928 . S
O548 Co532 2.057 . S
O548 C536 1.232 . S
H549 C568 0.929 . S
H550 C569 0.929 . S
H551 C581 0.931 . S
H552 C573 0.929 . S
H553 C582 0.930 . S
H554 C574 0.931 . S
O555 Co531 2.097 . S
O555 C583 1.214 . S
H556 C584 0.929 . S
H557 C585 0.929 . S
H558 C586 0.930 . S
H559 C587 0.929 . S
H560 C589 0.930 . S
H561 C566 0.930 . S
H562 C570 0.930 . S
O563 Co532 2.037 . S
O563 C583 1.234 . S
C564 O538 1.269 . S
C564 O539 1.257 . S
C565 H540 0.930 . S
C565 C568 1.388 . S
C565 C570 1.418 . S
C566 H561 0.930 . S
C566 C569 1.404 . S
C566 C570 1.353 . S
N567 Co532 2.145 . S
N567 C568 1.397 . S
N567 C569 1.334 . S
C568 H549 0.929 . S
C568 C565 1.388 . S
C568 N567 1.397 . S
C569 H550 0.929 . S
C569 C566 1.404 . S
C569 N567 1.334 . S
C570 H562 0.930 . S
C570 C565 1.418 . S
C570 C566 1.353 . S
C571 H541 0.930 . S
C571 N572 1.330 . S
C571 C573 1.446 . S
N572 Co531 2.151 . S
N572 C571 1.330 . S
N572 C576 1.418 . S
C573 H552 0.929 . S
C573 C571 1.446 . S
C573 C574 1.332 . S
C574 H554 0.931 . S
C574 C573 1.332 . S
C574 C575 1.267 . S
C575 H543 0.929 . S
C575 C574 1.267 . S
C575 C576 1.251 . S
C576 H546 0.929 . S
C576 N572 1.418 . S
C576 C575 1.251 . S
C577 H544 0.930 . S
C577 C579 1.406 . S
C577 C582 1.261 . S
C578 H545 0.930 . S
C578 N580 1.325 . S
C578 C581 1.357 . S
C579 H547 0.928 . S
C579 C577 1.406 . S
C579 N580 1.261 . S
N580 Co531 2.214 . S
N580 C578 1.325 . S
N580 C579 1.261 . S
C581 H551 0.931 . S
C581 C578 1.357 . S
C581 C582 1.312 . S
C582 H553 0.930 . S
C582 C577 1.261 . S
C582 C581 1.312 . S
C583 O555 1.214 . S
C583 O563 1.234 . S
C584 H556 0.929 . S
C584 C587 1.391 . S
C584 C589 1.391 . S
C585 H557 0.929 . S
C585 C586 1.390 . S
C585 N588 1.391 . S
C586 H558 0.930 . S
C586 C585 1.390 . S
C586 C587 1.392 . S
C587 H559 0.929 . S
C587 C584 1.391 . S
C587 C586 1.392 . S
N588 Co532 2.257 . S
N588 C585 1.391 . S
N588 C589 1.388 . S
C589 H560 0.930 . S
C589 C584 1.391 . S
C589 N588 1.388 . S
Co590 O592 2.143 . S
Co590 O598 2.074 . S
Co590 O601 2.093 . S
Co590 O614 2.097 . S
Co590 N631 2.151 . S
Co590 N639 2.214 . S
Co591 O592 2.160 . S
Co591 O597 2.058 . S
Co591 O607 2.057 . S
Co591 O622 2.037 . S
Co591 N626 2.145 . S
Co591 N647 2.257 . S
O592 Co590 2.143 . S
O592 Co591 2.160 . S
C593 O594 1.278 . S
C593 O601 1.224 . S
O594 C593 1.278 . S
C595 O596 1.245 . S
C595 O607 1.232 . S
O596 C595 1.245 . S
O597 Co591 2.058 . S
O597 C623 1.269 . S
O598 Co590 2.074 . S
O598 C623 1.257 . S
H599 C624 0.930 . S
H600 C630 0.930 . S
O601 Co590 2.093 . S
O601 C593 1.224 . S
H602 C634 0.929 . S
H603 C636 0.930 . S
H604 C637 0.930 . S
H605 C635 0.929 . S
H606 C638 0.928 . S
O607 Co591 2.057 . S
O607 C595 1.232 . S
H608 C627 0.929 . S
H609 C628 0.929 . S
H610 C640 0.931 . S
H611 C632 0.929 . S
H612 C641 0.930 . S
H613 C633 0.931 . S
O614 Co590 2.097 . S
O614 C642 1.214 . S
H615 C643 0.929 . S
H616 C644 0.929 . S
H617 C645 0.930 . S
H618 C646 0.929 . S
H619 C648 0.930 . S
H620 C625 0.930 . S
H621 C629 0.930 . S
O622 Co591 2.037 . S
O622 C642 1.234 . S
C623 O597 1.269 . S
C623 O598 1.257 . S
C624 H599 0.930 . S
C624 C627 1.388 . S
C624 C629 1.418 . S
C625 H620 0.930 . S
C625 C628 1.404 . S
C625 C629 1.353 . S
N626 Co591 2.145 . S
N626 C627 1.397 . S
N626 C628 1.334 . S
C627 H608 0.929 . S
C627 C624 1.388 . S
C627 N626 1.397 . S
C628 H609 0.929 . S
C628 C625 1.404 . S
C628 N626 1.334 . S
C629 H621 0.930 . S
C629 C624 1.418 . S
C629 C625 1.353 . S
C630 H600 0.930 . S
C630 N631 1.330 . S
C630 C632 1.446 . S
N631 Co590 2.151 . S
N631 C630 1.330 . S
N631 C635 1.418 . S
C632 H611 0.929 . S
C632 C630 1.446 . S
C632 C633 1.332 . S
C633 H613 0.931 . S
C633 C632 1.332 . S
C633 C634 1.267 . S
C634 H602 0.929 . S
C634 C633 1.267 . S
C634 C635 1.251 . S
C635 H605 0.929 . S
C635 N631 1.418 . S
C635 C634 1.251 . S
C636 H603 0.930 . S
C636 C638 1.406 . S
C636 C641 1.261 . S
C637 H604 0.930 . S
C637 N639 1.325 . S
C637 C640 1.357 . S
C638 H606 0.928 . S
C638 C636 1.406 . S
C638 N639 1.261 . S
N639 Co590 2.214 . S
N639 C637 1.325 . S
N639 C638 1.261 . S
C640 H610 0.931 . S
C640 C637 1.357 . S
C640 C641 1.312 . S
C641 H612 0.930 . S
C641 C636 1.261 . S
C641 C640 1.312 . S
C642 O614 1.214 . S
C642 O622 1.234 . S
C643 H615 0.929 . S
C643 C646 1.391 . S
C643 C648 1.391 . S
C644 H616 0.929 . S
C644 C645 1.390 . S
C644 N647 1.391 . S
C645 H617 0.930 . S
C645 C644 1.390 . S
C645 C646 1.392 . S
C646 H618 0.929 . S
C646 C643 1.391 . S
C646 C645 1.392 . S
N647 Co591 2.257 . S
N647 C644 1.391 . S
N647 C648 1.388 . S
C648 H619 0.930 . S
C648 C643 1.391 . S
C648 N647 1.388 . S
Co649 O651 2.143 . S
Co649 O657 2.074 . S
Co649 O660 2.093 . S
Co649 O673 2.097 . S
Co649 N690 2.151 . S
Co649 N698 2.214 . S
Co650 O651 2.160 . S
Co650 O656 2.058 . S
Co650 O666 2.057 . S
Co650 O681 2.037 . S
Co650 N685 2.145 . S
Co650 N706 2.257 . S
O651 Co649 2.143 . S
O651 Co650 2.160 . S
C652 O653 1.278 . S
C652 O660 1.224 . S
O653 C652 1.278 . S
C654 O655 1.245 . S
C654 O666 1.232 . S
O655 C654 1.245 . S
O656 Co650 2.058 . S
O656 C682 1.269 . S
O657 Co649 2.074 . S
O657 C682 1.257 . S
H658 C683 0.930 . S
H659 C689 0.930 . S
O660 Co649 2.093 . S
O660 C652 1.224 . S
H661 C693 0.929 . S
H662 C695 0.930 . S
H663 C696 0.930 . S
H664 C694 0.929 . S
H665 C697 0.928 . S
O666 Co650 2.057 . S
O666 C654 1.232 . S
H667 C686 0.929 . S
H668 C687 0.929 . S
H669 C699 0.931 . S
H670 C691 0.929 . S
H671 C700 0.930 . S
H672 C692 0.931 . S
O673 Co649 2.097 . S
O673 C701 1.214 . S
H674 C702 0.929 . S
H675 C703 0.929 . S
H676 C704 0.930 . S
H677 C705 0.929 . S
H678 C707 0.930 . S
H679 C684 0.930 . S
H680 C688 0.930 . S
O681 Co650 2.037 . S
O681 C701 1.234 . S
C682 O656 1.269 . S
C682 O657 1.257 . S
C683 H658 0.930 . S
C683 C686 1.388 . S
C683 C688 1.418 . S
C684 H679 0.930 . S
C684 C687 1.404 . S
C684 C688 1.353 . S
N685 Co650 2.145 . S
N685 C686 1.397 . S
N685 C687 1.334 . S
C686 H667 0.929 . S
C686 C683 1.388 . S
C686 N685 1.397 . S
C687 H668 0.929 . S
C687 C684 1.404 . S
C687 N685 1.334 . S
C688 H680 0.930 . S
C688 C683 1.418 . S
C688 C684 1.353 . S
C689 H659 0.930 . S
C689 N690 1.330 . S
C689 C691 1.446 . S
N690 Co649 2.151 . S
N690 C689 1.330 . S
N690 C694 1.418 . S
C691 H670 0.929 . S
C691 C689 1.446 . S
C691 C692 1.332 . S
C692 H672 0.931 . S
C692 C691 1.332 . S
C692 C693 1.267 . S
C693 H661 0.929 . S
C693 C692 1.267 . S
C693 C694 1.251 . S
C694 H664 0.929 . S
C694 N690 1.418 . S
C694 C693 1.251 . S
C695 H662 0.930 . S
C695 C697 1.406 . S
C695 C700 1.261 . S
C696 H663 0.930 . S
C696 N698 1.325 . S
C696 C699 1.357 . S
C697 H665 0.928 . S
C697 C695 1.406 . S
C697 N698 1.261 . S
N698 Co649 2.214 . S
N698 C696 1.325 . S
N698 C697 1.261 . S
C699 H669 0.931 . S
C699 C696 1.357 . S
C699 C700 1.312 . S
C700 H671 0.930 . S
C700 C695 1.261 . S
C700 C699 1.312 . S
C701 O673 1.214 . S
C701 O681 1.234 . S
C702 H674 0.929 . S
C702 C705 1.391 . S
C702 C707 1.391 . S
C703 H675 0.929 . S
C703 C704 1.390 . S
C703 N706 1.391 . S
C704 H676 0.930 . S
C704 C703 1.390 . S
C704 C705 1.392 . S
C705 H677 0.929 . S
C705 C702 1.391 . S
C705 C704 1.392 . S
N706 Co650 2.257 . S
N706 C703 1.391 . S
N706 C707 1.388 . S
C707 H678 0.930 . S
C707 C702 1.391 . S
C707 N706 1.388 . S
Co708 O710 2.143 . S
Co708 O716 2.074 . S
Co708 O719 2.093 . S
Co708 O732 2.097 . S
Co708 N749 2.151 . S
Co708 N757 2.214 . S
Co709 O710 2.160 . S
Co709 O715 2.058 . S
Co709 O725 2.057 . S
Co709 O740 2.037 . S
Co709 N744 2.145 . S
Co709 N765 2.257 . S
O710 Co708 2.143 . S
O710 Co709 2.160 . S
C711 O712 1.278 . S
C711 O719 1.224 . S
O712 C711 1.278 . S
C713 O714 1.245 . S
C713 O725 1.232 . S
O714 C713 1.245 . S
O715 Co709 2.058 . S
O715 C741 1.269 . S
O716 Co708 2.074 . S
O716 C741 1.257 . S
H717 C742 0.930 . S
H718 C748 0.930 . S
O719 Co708 2.093 . S
O719 C711 1.224 . S
H720 C752 0.929 . S
H721 C754 0.930 . S
H722 C755 0.930 . S
H723 C753 0.929 . S
H724 C756 0.928 . S
O725 Co709 2.057 . S
O725 C713 1.232 . S
H726 C745 0.929 . S
H727 C746 0.929 . S
H728 C758 0.931 . S
H729 C750 0.929 . S
H730 C759 0.930 . S
H731 C751 0.931 . S
O732 Co708 2.097 . S
O732 C760 1.214 . S
H733 C761 0.929 . S
H734 C762 0.929 . S
H735 C763 0.930 . S
H736 C764 0.929 . S
H737 C766 0.930 . S
H738 C743 0.930 . S
H739 C747 0.930 . S
O740 Co709 2.037 . S
O740 C760 1.234 . S
C741 O715 1.269 . S
C741 O716 1.257 . S
C742 H717 0.930 . S
C742 C745 1.388 . S
C742 C747 1.418 . S
C743 H738 0.930 . S
C743 C746 1.404 . S
C743 C747 1.353 . S
N744 Co709 2.145 . S
N744 C745 1.397 . S
N744 C746 1.334 . S
C745 H726 0.929 . S
C745 C742 1.388 . S
C745 N744 1.397 . S
C746 H727 0.929 . S
C746 C743 1.404 . S
C746 N744 1.334 . S
C747 H739 0.930 . S
C747 C742 1.418 . S
C747 C743 1.353 . S
C748 H718 0.930 . S
C748 N749 1.330 . S
C748 C750 1.446 . S
N749 Co708 2.151 . S
N749 C748 1.330 . S
N749 C753 1.418 . S
C750 H729 0.929 . S
C750 C748 1.446 . S
C750 C751 1.332 . S
C751 H731 0.931 . S
C751 C750 1.332 . S
C751 C752 1.267 . S
C752 H720 0.929 . S
C752 C751 1.267 . S
C752 C753 1.251 . S
C753 H723 0.929 . S
C753 N749 1.418 . S
C753 C752 1.251 . S
C754 H721 0.930 . S
C754 C756 1.406 . S
C754 C759 1.261 . S
C755 H722 0.930 . S
C755 N757 1.325 . S
C755 C758 1.357 . S
C756 H724 0.928 . S
C756 C754 1.406 . S
C756 N757 1.261 . S
N757 Co708 2.214 . S
N757 C755 1.325 . S
N757 C756 1.261 . S
C758 H728 0.931 . S
C758 C755 1.357 . S
C758 C759 1.312 . S
C759 H730 0.930 . S
C759 C754 1.261 . S
C759 C758 1.312 . S
C760 O732 1.214 . S
C760 O740 1.234 . S
C761 H733 0.929 . S
C761 C764 1.391 . S
C761 C766 1.391 . S
C762 H734 0.929 . S
C762 C763 1.390 . S
C762 N765 1.391 . S
C763 H735 0.930 . S
C763 C762 1.390 . S
C763 C764 1.392 . S
C764 H736 0.929 . S
C764 C761 1.391 . S
C764 C763 1.392 . S
N765 Co709 2.257 . S
N765 C762 1.391 . S
N765 C766 1.388 . S
C766 H737 0.930 . S
C766 C761 1.391 . S
C766 N765 1.388 . S
Co767 O769 2.143 . S
Co767 O775 2.074 . S
Co767 O778 2.093 . S
Co767 O791 2.097 . S
Co767 N808 2.151 . S
Co767 N816 2.214 . S
Co768 O769 2.160 . S
Co768 O774 2.058 . S
Co768 O784 2.057 . S
Co768 O799 2.037 . S
Co768 N803 2.145 . S
Co768 N824 2.257 . S
O769 Co767 2.143 . S
O769 Co768 2.160 . S
C770 O771 1.278 . S
C770 O778 1.224 . S
O771 C770 1.278 . S
C772 O773 1.245 . S
C772 O784 1.232 . S
O773 C772 1.245 . S
O774 Co768 2.058 . S
O774 C800 1.269 . S
O775 Co767 2.074 . S
O775 C800 1.257 . S
H776 C801 0.930 . S
H777 C807 0.930 . S
O778 Co767 2.093 . S
O778 C770 1.224 . S
H779 C811 0.929 . S
H780 C813 0.930 . S
H781 C814 0.930 . S
H782 C812 0.929 . S
H783 C815 0.928 . S
O784 Co768 2.057 . S
O784 C772 1.232 . S
H785 C804 0.929 . S
H786 C805 0.929 . S
H787 C817 0.931 . S
H788 C809 0.929 . S
H789 C818 0.930 . S
H790 C810 0.931 . S
O791 Co767 2.097 . S
O791 C819 1.214 . S
H792 C820 0.929 . S
H793 C821 0.929 . S
H794 C822 0.930 . S
H795 C823 0.929 . S
H796 C825 0.930 . S
H797 C802 0.930 . S
H798 C806 0.930 . S
O799 Co768 2.037 . S
O799 C819 1.234 . S
C800 O774 1.269 . S
C800 O775 1.257 . S
C801 H776 0.930 . S
C801 C804 1.388 . S
C801 C806 1.418 . S
C802 H797 0.930 . S
C802 C805 1.404 . S
C802 C806 1.353 . S
N803 Co768 2.145 . S
N803 C804 1.397 . S
N803 C805 1.334 . S
C804 H785 0.929 . S
C804 C801 1.388 . S
C804 N803 1.397 . S
C805 H786 0.929 . S
C805 C802 1.404 . S
C805 N803 1.334 . S
C806 H798 0.930 . S
C806 C801 1.418 . S
C806 C802 1.353 . S
C807 H777 0.930 . S
C807 N808 1.330 . S
C807 C809 1.446 . S
N808 Co767 2.151 . S
N808 C807 1.330 . S
N808 C812 1.418 . S
C809 H788 0.929 . S
C809 C807 1.446 . S
C809 C810 1.332 . S
C810 H790 0.931 . S
C810 C809 1.332 . S
C810 C811 1.267 . S
C811 H779 0.929 . S
C811 C810 1.267 . S
C811 C812 1.251 . S
C812 H782 0.929 . S
C812 N808 1.418 . S
C812 C811 1.251 . S
C813 H780 0.930 . S
C813 C815 1.406 . S
C813 C818 1.261 . S
C814 H781 0.930 . S
C814 N816 1.325 . S
C814 C817 1.357 . S
C815 H783 0.928 . S
C815 C813 1.406 . S
C815 N816 1.261 . S
N816 Co767 2.214 . S
N816 C814 1.325 . S
N816 C815 1.261 . S
C817 H787 0.931 . S
C817 C814 1.357 . S
C817 C818 1.312 . S
C818 H789 0.930 . S
C818 C813 1.261 . S
C818 C817 1.312 . S
C819 O791 1.214 . S
C819 O799 1.234 . S
C820 H792 0.929 . S
C820 C823 1.391 . S
C820 C825 1.391 . S
C821 H793 0.929 . S
C821 C822 1.390 . S
C821 N824 1.391 . S
C822 H794 0.930 . S
C822 C821 1.390 . S
C822 C823 1.392 . S
C823 H795 0.929 . S
C823 C820 1.391 . S
C823 C822 1.392 . S
N824 Co768 2.257 . S
N824 C821 1.391 . S
N824 C825 1.388 . S
C825 H796 0.930 . S
C825 C820 1.391 . S
C825 N824 1.388 . S
Co826 O828 2.143 . S
Co826 O834 2.074 . S
Co826 O837 2.093 . S
Co826 O850 2.097 . S
Co826 N867 2.151 . S
Co826 N875 2.214 . S
Co827 O828 2.160 . S
Co827 O833 2.058 . S
Co827 O843 2.057 . S
Co827 O858 2.037 . S
Co827 N862 2.145 . S
Co827 N883 2.257 . S
O828 Co826 2.143 . S
O828 Co827 2.160 . S
C829 O830 1.278 . S
C829 O837 1.224 . S
O830 C829 1.278 . S
C831 O832 1.245 . S
C831 O843 1.232 . S
O832 C831 1.245 . S
O833 Co827 2.058 . S
O833 C859 1.269 . S
O834 Co826 2.074 . S
O834 C859 1.257 . S
H835 C860 0.930 . S
H836 C866 0.930 . S
O837 Co826 2.093 . S
O837 C829 1.224 . S
H838 C870 0.929 . S
H839 C872 0.930 . S
H840 C873 0.930 . S
H841 C871 0.929 . S
H842 C874 0.928 . S
O843 Co827 2.057 . S
O843 C831 1.232 . S
H844 C863 0.929 . S
H845 C864 0.929 . S
H846 C876 0.931 . S
H847 C868 0.929 . S
H848 C877 0.930 . S
H849 C869 0.931 . S
O850 Co826 2.097 . S
O850 C878 1.214 . S
H851 C879 0.929 . S
H852 C880 0.929 . S
H853 C881 0.930 . S
H854 C882 0.929 . S
H855 C884 0.930 . S
H856 C861 0.930 . S
H857 C865 0.930 . S
O858 Co827 2.037 . S
O858 C878 1.234 . S
C859 O833 1.269 . S
C859 O834 1.257 . S
C860 H835 0.930 . S
C860 C863 1.388 . S
C860 C865 1.418 . S
C861 H856 0.930 . S
C861 C864 1.404 . S
C861 C865 1.353 . S
N862 Co827 2.145 . S
N862 C863 1.397 . S
N862 C864 1.334 . S
C863 H844 0.929 . S
C863 C860 1.388 . S
C863 N862 1.397 . S
C864 H845 0.929 . S
C864 C861 1.404 . S
C864 N862 1.334 . S
C865 H857 0.930 . S
C865 C860 1.418 . S
C865 C861 1.353 . S
C866 H836 0.930 . S
C866 N867 1.330 . S
C866 C868 1.446 . S
N867 Co826 2.151 . S
N867 C866 1.330 . S
N867 C871 1.418 . S
C868 H847 0.929 . S
C868 C866 1.446 . S
C868 C869 1.332 . S
C869 H849 0.931 . S
C869 C868 1.332 . S
C869 C870 1.267 . S
C870 H838 0.929 . S
C870 C869 1.267 . S
C870 C871 1.251 . S
C871 H841 0.929 . S
C871 N867 1.418 . S
C871 C870 1.251 . S
C872 H839 0.930 . S
C872 C874 1.406 . S
C872 C877 1.261 . S
C873 H840 0.930 . S
C873 N875 1.325 . S
C873 C876 1.357 . S
C874 H842 0.928 . S
C874 C872 1.406 . S
C874 N875 1.261 . S
N875 Co826 2.214 . S
N875 C873 1.325 . S
N875 C874 1.261 . S
C876 H846 0.931 . S
C876 C873 1.357 . S
C876 C877 1.312 . S
C877 H848 0.930 . S
C877 C872 1.261 . S
C877 C876 1.312 . S
C878 O850 1.214 . S
C878 O858 1.234 . S
C879 H851 0.929 . S
C879 C882 1.391 . S
C879 C884 1.391 . S
C880 H852 0.929 . S
C880 C881 1.390 . S
C880 N883 1.391 . S
C881 H853 0.930 . S
C881 C880 1.390 . S
C881 C882 1.392 . S
C882 H854 0.929 . S
C882 C879 1.391 . S
C882 C881 1.392 . S
N883 Co827 2.257 . S
N883 C880 1.391 . S
N883 C884 1.388 . S
C884 H855 0.930 . S
C884 C879 1.391 . S
C884 N883 1.388 . S
Co885 O887 2.143 . S
Co885 O893 2.074 . S
Co885 O896 2.093 . S
Co885 O909 2.097 . S
Co885 N926 2.151 . S
Co885 N934 2.214 . S
Co886 O887 2.160 . S
Co886 O892 2.058 . S
Co886 O902 2.057 . S
Co886 O917 2.037 . S
Co886 N921 2.145 . S
Co886 N942 2.257 . S
O887 Co885 2.143 . S
O887 Co886 2.160 . S
C888 O889 1.278 . S
C888 O896 1.224 . S
O889 C888 1.278 . S
C890 O891 1.245 . S
C890 O902 1.232 . S
O891 C890 1.245 . S
O892 Co886 2.058 . S
O892 C918 1.269 . S
O893 Co885 2.074 . S
O893 C918 1.257 . S
H894 C919 0.930 . S
H895 C925 0.930 . S
O896 Co885 2.093 . S
O896 C888 1.224 . S
H897 C929 0.929 . S
H898 C931 0.930 . S
H899 C932 0.930 . S
H900 C930 0.929 . S
H901 C933 0.928 . S
O902 Co886 2.057 . S
O902 C890 1.232 . S
H903 C922 0.929 . S
H904 C923 0.929 . S
H905 C935 0.931 . S
H906 C927 0.929 . S
H907 C936 0.930 . S
H908 C928 0.931 . S
O909 Co885 2.097 . S
O909 C937 1.214 . S
H910 C938 0.929 . S
H911 C939 0.929 . S
H912 C940 0.930 . S
H913 C941 0.929 . S
H914 C943 0.930 . S
H915 C920 0.930 . S
H916 C924 0.930 . S
O917 Co886 2.037 . S
O917 C937 1.234 . S
C918 O892 1.269 . S
C918 O893 1.257 . S
C919 H894 0.930 . S
C919 C922 1.388 . S
C919 C924 1.418 . S
C920 H915 0.930 . S
C920 C923 1.404 . S
C920 C924 1.353 . S
N921 Co886 2.145 . S
N921 C922 1.397 . S
N921 C923 1.334 . S
C922 H903 0.929 . S
C922 C919 1.388 . S
C922 N921 1.397 . S
C923 H904 0.929 . S
C923 C920 1.404 . S
C923 N921 1.334 . S
C924 H916 0.930 . S
C924 C919 1.418 . S
C924 C920 1.353 . S
C925 H895 0.930 . S
C925 N926 1.330 . S
C925 C927 1.446 . S
N926 Co885 2.151 . S
N926 C925 1.330 . S
N926 C930 1.418 . S
C927 H906 0.929 . S
C927 C925 1.446 . S
C927 C928 1.332 . S
C928 H908 0.931 . S
C928 C927 1.332 . S
C928 C929 1.267 . S
C929 H897 0.929 . S
C929 C928 1.267 . S
C929 C930 1.251 . S
C930 H900 0.929 . S
C930 N926 1.418 . S
C930 C929 1.251 . S
C931 H898 0.930 . S
C931 C933 1.406 . S
C931 C936 1.261 . S
C932 H899 0.930 . S
C932 N934 1.325 . S
C932 C935 1.357 . S
C933 H901 0.928 . S
C933 C931 1.406 . S
C933 N934 1.261 . S
N934 Co885 2.214 . S
N934 C932 1.325 . S
N934 C933 1.261 . S
C935 H905 0.931 . S
C935 C932 1.357 . S
C935 C936 1.312 . S
C936 H907 0.930 . S
C936 C931 1.261 . S
C936 C935 1.312 . S
C937 O909 1.214 . S
C937 O917 1.234 . S
C938 H910 0.929 . S
C938 C941 1.391 . S
C938 C943 1.391 . S
C939 H911 0.929 . S
C939 C940 1.390 . S
C939 N942 1.391 . S
C940 H912 0.930 . S
C940 C939 1.390 . S
C940 C941 1.392 . S
C941 H913 0.929 . S
C941 C938 1.391 . S
C941 C940 1.392 . S
N942 Co886 2.257 . S
N942 C939 1.391 . S
N942 C943 1.388 . S
C943 H914 0.930 . S
C943 C938 1.391 . S
C943 N942 1.388 . S
H944 C950 0.930 . S
H945 C953 0.930 . S
H946 C954 0.930 . S
H947 C955 0.930 . S
H948 C958 0.930 . S
H949 C959 0.930 . S
C950 H944 0.930 . S
C950 C951 1.355 . S
C950 C952 1.415 . S
C951 C950 1.355 . S
C951 C953 1.419 1_545 S
C952 C950 1.415 . S
C952 C957 1.425 . S
C952 C959 1.409 . S
C953 H945 0.930 . S
C953 C951 1.419 1_565 S
C953 C954 1.362 . S
C954 H946 0.930 . S
C954 C953 1.362 . S
C954 C957 1.409 1_565 S
C955 H947 0.930 . S
C955 C956 1.355 1_565 S
C955 C957 1.415 1_565 S
C956 C955 1.355 1_545 S
C956 C958 1.419 . S
C957 C952 1.425 . S
C957 C954 1.409 1_545 S
C957 C955 1.415 1_545 S
C958 H948 0.930 . S
C958 C956 1.419 . S
C958 C959 1.362 . S
C959 H949 0.930 . S
C959 C952 1.409 . S
C959 C958 1.362 . S
H960 C966 0.930 . S
H961 C969 0.930 . S
H962 C970 0.930 . S
H963 C971 0.930 1_545 S
H964 C974 0.930 . S
H965 C975 0.930 . S
C966 H960 0.930 . S
C966 C967 1.355 . S
C966 C968 1.415 . S
C967 C966 1.355 . S
C967 C969 1.419 1_565 S
C968 C966 1.415 . S
C968 C973 1.425 . S
C968 C975 1.409 . S
C969 H961 0.930 . S
C969 C967 1.419 1_545 S
C969 C970 1.362 . S
C970 H962 0.930 . S
C970 C969 1.362 . S
C970 C973 1.409 1_545 S
C971 H963 0.930 1_565 S
C971 C972 1.355 . S
C971 C973 1.415 . S
C972 C971 1.355 . S
C972 C974 1.419 . S
C973 C968 1.425 . S
C973 C970 1.409 1_565 S
C973 C971 1.415 . S
C974 H964 0.930 . S
C974 C972 1.419 . S
C974 C975 1.362 . S
C975 H965 0.930 . S
C975 C968 1.409 . S
C975 C974 1.362 . S
H976 C982 0.930 . S
H977 C985 0.931 . S
H978 C986 0.930 1_545 S
H979 C987 0.930 . S
H980 C990 0.930 . S
H981 C991 0.930 . S
C982 H976 0.930 . S
C982 C983 1.355 . S
C982 C984 1.415 . S
C983 C982 1.355 . S
C983 C985 1.419 . S
C984 C982 1.415 . S
C984 C989 1.425 1_554 S
C984 C991 1.409 1_554 S
C985 H977 0.931 . S
C985 C983 1.419 . S
C985 C986 1.362 . S
C986 H978 0.930 1_565 S
C986 C985 1.362 . S
C986 C989 1.409 1_554 S
C987 H979 0.930 . S
C987 C988 1.355 . S
C987 C989 1.415 . S
C988 C987 1.355 . S
C988 C990 1.419 . S
C989 C984 1.425 1_556 S
C989 C986 1.409 1_556 S
C989 C987 1.415 . S
C990 H980 0.930 . S
C990 C988 1.419 . S
C990 C991 1.362 . S
C991 H981 0.930 . S
C991 C984 1.409 1_556 S
C991 C990 1.362 . S
H992 C998 0.930 . S
H993 C1001 0.930 . S
H994 C1002 0.930 . S
H995 C1003 0.930 . S
H996 C1006 0.930 . S
H997 C1007 0.930 . S
C998 H992 0.930 . S
C998 C999 1.355 . S
C998 C1000 1.415 . S
C999 C998 1.355 . S
C999 C1001 1.419 1_545 S
C1000 C998 1.415 . S
C1000 C1005 1.425 1_556 S
C1000 C1007 1.409 1_556 S
C1001 H993 0.930 . S
C1001 C999 1.419 1_565 S
C1001 C1002 1.362 . S
C1002 H994 0.930 . S
C1002 C1001 1.362 . S
C1002 C1005 1.409 1_566 S
C1003 H995 0.930 . S
C1003 C1004 1.355 1_565 S
C1003 C1005 1.415 1_565 S
C1004 C1003 1.355 1_545 S
C1004 C1006 1.419 . S
C1005 C1000 1.425 1_554 S
C1005 C1002 1.409 1_544 S
C1005 C1003 1.415 1_545 S
C1006 H996 0.930 . S
C1006 C1004 1.419 . S
C1006 C1007 1.362 . S
C1007 H997 0.930 . S
C1007 C1000 1.409 1_554 S
C1007 C1006 1.362 . S
H1008 C1014 0.930 . S
H1009 C1017 0.930 . S
H1010 C1018 0.930 . S
H1011 C1019 0.930 . S
H1012 C1022 0.930 . S
H1013 C1023 0.930 . S
C1014 H1008 0.930 . S
C1014 C1015 1.355 . S
C1014 C1016 1.415 . S
C1015 C1014 1.355 . S
C1015 C1017 1.419 . S
C1016 C1014 1.415 . S
C1016 C1021 1.425 . S
C1016 C1023 1.409 . S
C1017 H1009 0.930 . S
C1017 C1015 1.419 . S
C1017 C1018 1.362 . S
C1018 H1010 0.930 . S
C1018 C1017 1.362 . S
C1018 C1021 1.409 . S
C1019 H1011 0.930 . S
C1019 C1020 1.355 . S
C1019 C1021 1.415 . S
C1020 C1019 1.355 . S
C1020 C1022 1.419 . S
C1021 C1016 1.425 . S
C1021 C1018 1.409 . S
C1021 C1019 1.415 . S
C1022 H1012 0.930 . S
C1022 C1020 1.419 . S
C1022 C1023 1.362 . S
C1023 H1013 0.930 . S
C1023 C1016 1.409 . S
C1023 C1022 1.362 . S
H1024 C1030 0.930 . S
H1025 C1033 0.930 . S
H1026 C1034 0.930 . S
H1027 C1035 0.930 . S
H1028 C1038 0.930 . S
H1029 C1039 0.930 . S
C1030 H1024 0.930 . S
C1030 C1031 1.355 . S
C1030 C1032 1.415 . S
C1031 C1030 1.355 . S
C1031 C1033 1.419 . S
C1032 C1030 1.415 . S
C1032 C1037 1.425 . S
C1032 C1039 1.409 . S
C1033 H1025 0.930 . S
C1033 C1031 1.419 . S
C1033 C1034 1.362 . S
C1034 H1026 0.930 . S
C1034 C1033 1.362 . S
C1034 C1037 1.409 . S
C1035 H1027 0.930 . S
C1035 C1036 1.355 . S
C1035 C1037 1.415 . S
C1036 C1035 1.355 . S
C1036 C1038 1.419 . S
C1037 C1032 1.425 . S
C1037 C1034 1.409 . S
C1037 C1035 1.415 . S
C1038 H1028 0.930 . S
C1038 C1036 1.419 . S
C1038 C1039 1.362 . S
C1039 H1029 0.930 . S
C1039 C1032 1.409 . S
C1039 C1038 1.362 . S
H1040 C1046 0.930 . S
H1041 C1049 0.930 . S
H1042 C1050 0.930 . S
H1043 C1051 0.930 . S
H1044 C1054 0.930 . S
H1045 C1055 0.930 . S
C1046 H1040 0.930 . S
C1046 C1047 1.355 . S
C1046 C1048 1.415 . S
C1047 C1046 1.355 . S
C1047 C1049 1.419 . S
C1048 C1046 1.415 . S
C1048 C1053 1.425 1_556 S
C1048 C1055 1.409 1_556 S
C1049 H1041 0.930 . S
C1049 C1047 1.419 . S
C1049 C1050 1.362 . S
C1050 H1042 0.930 . S
C1050 C1049 1.362 . S
C1050 C1053 1.409 1_556 S
C1051 H1043 0.930 . S
C1051 C1052 1.355 . S
C1051 C1053 1.415 . S
C1052 C1051 1.355 . S
C1052 C1054 1.419 . S
C1053 C1048 1.425 1_554 S
C1053 C1050 1.409 1_554 S
C1053 C1051 1.415 . S
C1054 H1044 0.930 . S
C1054 C1052 1.419 . S
C1054 C1055 1.362 . S
C1055 H1045 0.930 . S
C1055 C1048 1.409 1_554 S
C1055 C1054 1.362 . S
H1056 C1062 0.930 . S
H1057 C1065 0.930 . S
H1058 C1066 0.930 . S
H1059 C1067 0.930 . S
H1060 C1070 0.930 . S
H1061 C1071 0.930 . S
C1062 H1056 0.930 . S
C1062 C1063 1.355 . S
C1062 C1064 1.415 . S
C1063 C1062 1.355 . S
C1063 C1065 1.419 . S
C1064 C1062 1.415 . S
C1064 C1069 1.425 1_554 S
C1064 C1071 1.409 1_554 S
C1065 H1057 0.930 . S
C1065 C1063 1.419 . S
C1065 C1066 1.362 . S
C1066 H1058 0.930 . S
C1066 C1065 1.362 . S
C1066 C1069 1.409 1_554 S
C1067 H1059 0.930 . S
C1067 C1068 1.355 . S
C1067 C1069 1.415 . S
C1068 C1067 1.355 . S
C1068 C1070 1.419 . S
C1069 C1064 1.425 1_556 S
C1069 C1066 1.409 1_556 S
C1069 C1067 1.415 . S
C1070 H1060 0.930 . S
C1070 C1068 1.419 . S
C1070 C1071 1.362 . S
C1071 H1061 0.930 . S
C1071 C1064 1.409 1_556 S
C1071 C1070 1.362 . S
H1072 C1078 0.930 . S
H1073 C1081 0.930 . S
H1074 C1082 0.930 . S
H1075 C1083 0.930 . S
H1076 C1086 0.930 . S
H1077 C1087 0.930 . S
C1078 H1072 0.930 . S
C1078 C1079 1.355 1_545 S
C1078 C1080 1.415 . S
C1079 C1078 1.355 1_565 S
C1079 C1081 1.419 . S
C1080 C1078 1.415 . S
C1080 C1085 1.425 1_545 S
C1080 C1087 1.409 . S
C1081 H1073 0.930 . S
C1081 C1079 1.419 . S
C1081 C1082 1.362 . S
C1082 H1074 0.930 . S
C1082 C1081 1.362 . S
C1082 C1085 1.409 . S
C1083 H1075 0.930 . S
C1083 C1084 1.355 1_565 S
C1083 C1085 1.415 . S
C1084 C1083 1.355 1_545 S
C1084 C1086 1.419 . S
C1085 C1080 1.425 1_565 S
C1085 C1082 1.409 . S
C1085 C1083 1.415 . S
C1086 H1076 0.930 . S
C1086 C1084 1.419 . S
C1086 C1087 1.362 . S
C1087 H1077 0.930 . S
C1087 C1080 1.409 . S
C1087 C1086 1.362 . S
H1088 C1094 0.930 . S
H1089 C1097 0.930 . S
H1090 C1098 0.930 . S
H1091 C1099 0.930 . S
H1092 C1102 0.930 . S
H1093 C1103 0.930 . S
C1094 H1088 0.930 . S
C1094 C1095 1.355 . S
C1094 C1096 1.415 . S
C1095 C1094 1.355 . S
C1095 C1097 1.419 1_565 S
C1096 C1094 1.415 . S
C1096 C1101 1.425 1_565 S
C1096 C1103 1.409 . S
C1097 H1089 0.930 . S
C1097 C1095 1.419 1_545 S
C1097 C1098 1.362 . S
C1098 H1090 0.930 . S
C1098 C1097 1.362 . S
C1098 C1101 1.409 . S
C1099 H1091 0.930 . S
C1099 C1100 1.355 . S
C1099 C1101 1.415 . S
C1100 C1099 1.355 . S
C1100 C1102 1.419 1_545 S
C1101 C1096 1.425 1_545 S
C1101 C1098 1.409 . S
C1101 C1099 1.415 . S
C1102 H1092 0.930 . S
C1102 C1100 1.419 1_565 S
C1102 C1103 1.362 . S
C1103 H1093 0.930 . S
C1103 C1096 1.409 . S
C1103 C1102 1.362 . S
H1104 C1110 0.930 . S
H1105 C1113 0.930 . S
H1106 C1114 0.930 . S
H1107 C1115 0.930 . S
H1108 C1118 0.930 . S
H1109 C1119 0.930 . S
C1110 H1104 0.930 . S
C1110 C1111 1.355 1_545 S
C1110 C1112 1.415 . S
C1111 C1110 1.355 1_565 S
C1111 C1113 1.419 . S
C1112 C1110 1.415 . S
C1112 C1117 1.425 1_545 S
C1112 C1119 1.409 . S
C1113 H1105 0.930 . S
C1113 C1111 1.419 . S
C1113 C1114 1.362 . S
C1114 H1106 0.930 . S
C1114 C1113 1.362 . S
C1114 C1117 1.409 . S
C1115 H1107 0.930 . S
C1115 C1116 1.355 1_565 S
C1115 C1117 1.415 . S
C1116 C1115 1.355 1_545 S
C1116 C1118 1.419 . S
C1117 C1112 1.425 1_565 S
C1117 C1114 1.409 . S
C1117 C1115 1.415 . S
C1118 H1108 0.930 . S
C1118 C1116 1.419 . S
C1118 C1119 1.362 . S
C1119 H1109 0.930 . S
C1119 C1112 1.409 . S
C1119 C1118 1.362 . S
H1120 C1126 0.930 1_565 S
H1121 C1129 0.930 . S
H1122 C1130 0.930 . S
H1123 C1131 0.930 1_545 S
H1124 C1134 0.930 . S
H1125 C1135 0.930 . S
C1126 H1120 0.930 1_545 S
C1126 C1127 1.355 . S
C1126 C1128 1.415 1_545 S
C1127 C1126 1.355 . S
C1127 C1129 1.419 . S
C1128 C1126 1.415 1_565 S
C1128 C1133 1.425 1_565 S
C1128 C1135 1.409 . S
C1129 H1121 0.930 . S
C1129 C1127 1.419 . S
C1129 C1130 1.362 . S
C1130 H1122 0.930 . S
C1130 C1129 1.362 . S
C1130 C1133 1.409 . S
C1131 H1123 0.930 1_565 S
C1131 C1132 1.355 . S
C1131 C1133 1.415 1_565 S
C1132 C1131 1.355 . S
C1132 C1134 1.419 . S
C1133 C1128 1.425 1_545 S
C1133 C1130 1.409 . S
C1133 C1131 1.415 1_545 S
C1134 H1124 0.930 . S
C1134 C1132 1.419 . S
C1134 C1135 1.362 . S
C1135 H1125 0.930 . S
C1135 C1128 1.409 . S
C1135 C1134 1.362 . S
H1136 C1142 0.930 . S
H1137 C1145 0.930 . S
H1138 C1146 0.930 1_455 S
H1139 C1147 0.930 . S
H1140 C1150 0.930 . S
H1141 C1151 0.930 1_655 S
C1142 H1136 0.930 . S
C1142 C1143 1.355 . S
C1142 C1144 1.415 . S
C1143 C1142 1.355 . S
C1143 C1145 1.419 . S
C1144 C1142 1.415 . S
C1144 C1149 1.425 1_655 S
C1144 C1151 1.409 1_655 S
C1145 H1137 0.930 . S
C1145 C1143 1.419 . S
C1145 C1146 1.362 . S
C1146 H1138 0.930 1_655 S
C1146 C1145 1.362 . S
C1146 C1149 1.409 1_655 S
C1147 H1139 0.930 . S
C1147 C1148 1.355 . S
C1147 C1149 1.415 . S
C1148 C1147 1.355 . S
C1148 C1150 1.419 . S
C1149 C1144 1.425 1_455 S
C1149 C1146 1.409 1_455 S
C1149 C1147 1.415 . S
C1150 H1140 0.930 . S
C1150 C1148 1.419 . S
C1150 C1151 1.362 . S
C1151 H1141 0.930 1_455 S
C1151 C1144 1.409 1_455 S
C1151 C1150 1.362 . S
H1152 C1158 0.930 . S
H1153 C1161 0.930 . S
H1154 C1162 0.930 1_655 S
H1155 C1163 0.930 . S
H1156 C1166 0.930 . S
H1157 C1167 0.930 1_455 S
C1158 H1152 0.930 . S
C1158 C1159 1.355 . S
C1158 C1160 1.415 . S
C1159 C1158 1.355 . S
C1159 C1161 1.419 . S
C1160 C1158 1.415 . S
C1160 C1165 1.425 1_455 S
C1160 C1167 1.409 1_455 S
C1161 H1153 0.930 . S
C1161 C1159 1.419 . S
C1161 C1162 1.362 . S
C1162 H1154 0.930 1_455 S
C1162 C1161 1.362 . S
C1162 C1165 1.409 1_455 S
C1163 H1155 0.930 . S
C1163 C1164 1.355 . S
C1163 C1165 1.415 . S
C1164 C1163 1.355 . S
C1164 C1166 1.419 . S
C1165 C1160 1.425 1_655 S
C1165 C1162 1.409 1_655 S
C1165 C1163 1.415 . S
C1166 H1156 0.930 . S
C1166 C1164 1.419 . S
C1166 C1167 1.362 . S
C1167 H1157 0.930 1_655 S
C1167 C1160 1.409 1_655 S
C1167 C1166 1.362 . S
H1168 C1174 0.930 . S
H1169 C1177 0.930 . S
H1170 C1178 0.930 1_455 S
H1171 C1179 0.930 . S
H1172 C1182 0.930 . S
H1173 C1183 0.930 1_655 S
C1174 H1168 0.930 . S
C1174 C1175 1.355 . S
C1174 C1176 1.415 . S
C1175 C1174 1.355 . S
C1175 C1177 1.419 . S
C1176 C1174 1.415 . S
C1176 C1181 1.425 1_655 S
C1176 C1183 1.409 1_655 S
C1177 H1169 0.930 . S
C1177 C1175 1.419 . S
C1177 C1178 1.362 . S
C1178 H1170 0.930 1_655 S
C1178 C1177 1.362 . S
C1178 C1181 1.409 1_655 S
C1179 H1171 0.930 . S
C1179 C1180 1.355 . S
C1179 C1181 1.415 . S
C1180 C1179 1.355 . S
C1180 C1182 1.419 . S
C1181 C1176 1.425 1_455 S
C1181 C1178 1.409 1_455 S
C1181 C1179 1.415 . S
C1182 H1172 0.930 . S
C1182 C1180 1.419 . S
C1182 C1183 1.362 . S
C1183 H1173 0.930 1_455 S
C1183 C1176 1.409 1_455 S
C1183 C1182 1.362 . S
H1184 C1190 0.930 . S
H1185 C1193 0.930 . S
H1186 C1194 0.930 . S
H1187 C1195 0.930 . S
H1188 C1198 0.930 . S
H1189 C1199 0.930 . S
C1190 H1184 0.930 . S
C1190 C1191 1.355 . S
C1190 C1192 1.415 . S
C1191 C1190 1.355 . S
C1191 C1193 1.419 . S
C1192 C1190 1.415 . S
C1192 C1197 1.425 1_455 S
C1192 C1199 1.409 1_455 S
C1193 H1185 0.930 . S
C1193 C1191 1.419 . S
C1193 C1194 1.362 . S
C1194 H1186 0.930 . S
C1194 C1193 1.362 . S
C1194 C1197 1.409 1_455 S
C1195 H1187 0.930 . S
C1195 C1196 1.355 . S
C1195 C1197 1.415 . S
C1196 C1195 1.355 . S
C1196 C1198 1.419 . S
C1197 C1192 1.425 1_655 S
C1197 C1194 1.409 1_655 S
C1197 C1195 1.415 . S
C1198 H1188 0.930 . S
C1198 C1196 1.419 . S
C1198 C1199 1.362 . S
C1199 H1189 0.930 . S
C1199 C1192 1.409 1_655 S
C1199 C1198 1.362 . S
H1200 C1206 0.930 . S
H1201 C1209 0.930 . S
H1202 C1210 0.930 . S
H1203 C1211 0.930 . S
H1204 C1214 0.930 . S
H1205 C1215 0.930 . S
C1206 H1200 0.930 . S
C1206 C1207 1.355 . S
C1206 C1208 1.415 . S
C1207 C1206 1.355 . S
C1207 C1209 1.419 . S
C1208 C1206 1.415 . S
C1208 C1213 1.425 . S
C1208 C1215 1.409 . S
C1209 H1201 0.930 . S
C1209 C1207 1.419 . S
C1209 C1210 1.362 . S
C1210 H1202 0.930 . S
C1210 C1209 1.362 . S
C1210 C1213 1.409 . S
C1211 H1203 0.930 . S
C1211 C1212 1.355 . S
C1211 C1213 1.415 . S
C1212 C1211 1.355 . S
C1212 C1214 1.419 . S
C1213 C1208 1.425 . S
C1213 C1210 1.409 . S
C1213 C1211 1.415 . S
C1214 H1204 0.930 . S
C1214 C1212 1.419 . S
C1214 C1215 1.362 . S
C1215 H1205 0.930 . S
C1215 C1208 1.409 . S
C1215 C1214 1.362 . S
H1216 C1222 0.930 . S
H1217 C1225 0.930 . S
H1218 C1226 0.930 . S
H1219 C1227 0.930 . S
H1220 C1230 0.930 . S
H1221 C1231 0.930 . S
C1222 H1216 0.930 . S
C1222 C1223 1.355 . S
C1222 C1224 1.415 . S
C1223 C1222 1.355 . S
C1223 C1225 1.419 . S
C1224 C1222 1.415 . S
C1224 C1229 1.425 . S
C1224 C1231 1.409 . S
C1225 H1217 0.930 . S
C1225 C1223 1.419 . S
C1225 C1226 1.362 . S
C1226 H1218 0.930 . S
C1226 C1225 1.362 . S
C1226 C1229 1.409 . S
C1227 H1219 0.930 . S
C1227 C1228 1.355 . S
C1227 C1229 1.415 . S
C1228 C1227 1.355 . S
C1228 C1230 1.419 . S
C1229 C1224 1.425 . S
C1229 C1226 1.409 . S
C1229 C1227 1.415 . S
C1230 H1220 0.930 . S
C1230 C1228 1.419 . S
C1230 C1231 1.362 . S
C1231 H1221 0.930 . S
C1231 C1224 1.409 . S
C1231 C1230 1.362 . S
H1232 C1238 0.930 . S
H1233 C1241 0.930 . S
H1234 C1242 0.930 . S
H1235 C1243 0.930 . S
H1236 C1246 0.930 . S
H1237 C1247 0.930 . S
C1238 H1232 0.930 . S
C1238 C1239 1.355 . S
C1238 C1240 1.415 . S
C1239 C1238 1.355 . S
C1239 C1241 1.419 . S
C1240 C1238 1.415 . S
C1240 C1245 1.425 . S
C1240 C1247 1.409 . S
C1241 H1233 0.930 . S
C1241 C1239 1.419 . S
C1241 C1242 1.362 . S
C1242 H1234 0.930 . S
C1242 C1241 1.362 . S
C1242 C1245 1.409 . S
C1243 H1235 0.930 . S
C1243 C1244 1.355 . S
C1243 C1245 1.415 . S
C1244 C1243 1.355 . S
C1244 C1246 1.419 . S
C1245 C1240 1.425 . S
C1245 C1242 1.409 . S
C1245 C1243 1.415 . S
C1246 H1236 0.930 . S
C1246 C1244 1.419 . S
C1246 C1247 1.362 . S
C1247 H1237 0.930 . S
C1247 C1240 1.409 . S
C1247 C1246 1.362 . S
H1248 C1254 0.930 . S
H1249 C1257 0.930 . S
H1250 C1258 0.930 . S
H1251 C1259 0.930 . S
H1252 C1262 0.930 . S
H1253 C1263 0.930 . S
C1254 H1248 0.930 . S
C1254 C1255 1.355 . S
C1254 C1256 1.415 . S
C1255 C1254 1.355 . S
C1255 C1257 1.419 . S
C1256 C1254 1.415 . S
C1256 C1261 1.425 . S
C1256 C1263 1.409 . S
C1257 H1249 0.930 . S
C1257 C1255 1.419 . S
C1257 C1258 1.362 . S
C1258 H1250 0.930 . S
C1258 C1257 1.362 . S
C1258 C1261 1.409 . S
C1259 H1251 0.930 . S
C1259 C1260 1.355 . S
C1259 C1261 1.415 . S
C1260 C1259 1.355 . S
C1260 C1262 1.419 . S
C1261 C1256 1.425 . S
C1261 C1258 1.409 . S
C1261 C1259 1.415 . S
C1262 H1252 0.930 . S
C1262 C1260 1.419 . S
C1262 C1263 1.362 . S
C1263 H1253 0.930 . S
C1263 C1256 1.409 . S
C1263 C1262 1.362 . S
H1264 C1270 0.930 . S
H1265 C1273 0.930 . S
H1266 C1274 0.930 . S
H1267 C1275 0.930 . S
H1268 C1278 0.930 . S
H1269 C1279 0.930 . S
C1270 H1264 0.930 . S
C1270 C1271 1.355 . S
C1270 C1272 1.415 . S
C1271 C1270 1.355 . S
C1271 C1273 1.419 . S
C1272 C1270 1.415 . S
C1272 C1277 1.425 . S
C1272 C1279 1.409 . S
C1273 H1265 0.930 . S
C1273 C1271 1.419 . S
C1273 C1274 1.362 . S
C1274 H1266 0.930 . S
C1274 C1273 1.362 . S
C1274 C1277 1.409 . S
C1275 H1267 0.930 . S
C1275 C1276 1.355 . S
C1275 C1277 1.415 . S
C1276 C1275 1.355 . S
C1276 C1278 1.419 . S
C1277 C1272 1.425 . S
C1277 C1274 1.409 . S
C1277 C1275 1.415 . S
C1278 H1268 0.930 . S
C1278 C1276 1.419 . S
C1278 C1279 1.362 . S
C1279 H1269 0.930 . S
C1279 C1272 1.409 . S
C1279 C1278 1.362 . S
H1280 C1286 0.930 . S
H1281 C1289 0.930 . S
H1282 C1290 0.930 . S
H1283 C1291 0.930 . S
H1284 C1294 0.930 . S
H1285 C1295 0.930 . S
C1286 H1280 0.930 . S
C1286 C1287 1.355 . S
C1286 C1288 1.415 . S
C1287 C1286 1.355 . S
C1287 C1289 1.419 . S
C1288 C1286 1.415 . S
C1288 C1293 1.425 . S
C1288 C1295 1.409 . S
C1289 H1281 0.930 . S
C1289 C1287 1.419 . S
C1289 C1290 1.362 . S
C1290 H1282 0.930 . S
C1290 C1289 1.362 . S
C1290 C1293 1.409 . S
C1291 H1283 0.930 . S
C1291 C1292 1.355 . S
C1291 C1293 1.415 . S
C1292 C1291 1.355 . S
C1292 C1294 1.419 . S
C1293 C1288 1.425 . S
C1293 C1290 1.409 . S
C1293 C1291 1.415 . S
C1294 H1284 0.930 . S
C1294 C1292 1.419 . S
C1294 C1295 1.362 . S
C1295 H1285 0.930 . S
C1295 C1288 1.409 . S
C1295 C1294 1.362 . S
H1296 C1302 0.930 . S
H1297 C1305 0.930 . S
H1298 C1306 0.930 . S
H1299 C1307 0.930 . S
H1300 C1310 0.930 . S
H1301 C1311 0.930 . S
C1302 H1296 0.930 . S
C1302 C1303 1.355 . S
C1302 C1304 1.415 . S
C1303 C1302 1.355 . S
C1303 C1305 1.419 . S
C1304 C1302 1.415 . S
C1304 C1309 1.425 . S
C1304 C1311 1.409 . S
C1305 H1297 0.930 . S
C1305 C1303 1.419 . S
C1305 C1306 1.362 . S
C1306 H1298 0.930 . S
C1306 C1305 1.362 . S
C1306 C1309 1.409 . S
C1307 H1299 0.930 . S
C1307 C1308 1.355 . S
C1307 C1309 1.415 . S
C1308 C1307 1.355 . S
C1308 C1310 1.419 . S
C1309 C1304 1.425 . S
C1309 C1306 1.409 . S
C1309 C1307 1.415 . S
C1310 H1300 0.930 . S
C1310 C1308 1.419 . S
C1310 C1311 1.362 . S
C1311 H1301 0.930 . S
C1311 C1304 1.409 . S
C1311 C1310 1.362 . S
H1312 C1318 0.930 . S
H1313 C1321 0.930 . S
H1314 C1322 0.930 . S
H1315 C1323 0.930 . S
H1316 C1326 0.930 . S
H1317 C1327 0.930 . S
C1318 H1312 0.930 . S
C1318 C1319 1.355 . S
C1318 C1320 1.415 . S
C1319 C1318 1.355 . S
C1319 C1321 1.419 . S
C1320 C1318 1.415 . S
C1320 C1325 1.425 . S
C1320 C1327 1.409 . S
C1321 H1313 0.930 . S
C1321 C1319 1.419 . S
C1321 C1322 1.362 . S
C1322 H1314 0.930 . S
C1322 C1321 1.362 . S
C1322 C1325 1.409 . S
C1323 H1315 0.930 . S
C1323 C1324 1.355 . S
C1323 C1325 1.415 . S
C1324 C1323 1.355 . S
C1324 C1326 1.419 . S
C1325 C1320 1.425 . S
C1325 C1322 1.409 . S
C1325 C1323 1.415 . S
C1326 H1316 0.930 . S
C1326 C1324 1.419 . S
C1326 C1327 1.362 . S
C1327 H1317 0.930 . S
C1327 C1320 1.409 . S
C1327 C1326 1.362 . S
H1328 C1334 0.930 . S
H1329 C1337 0.930 . S
H1330 C1338 0.930 . S
H1331 C1339 0.930 . S
H1332 C1342 0.930 . S
H1333 C1343 0.930 . S
C1334 H1328 0.930 . S
C1334 C1335 1.367 . S
C1334 C1336 1.415 . S
C1335 C1334 1.367 . S
C1335 C1337 1.403 1_545 S
C1336 C1334 1.415 . S
C1336 C1341 1.425 1_545 S
C1336 C1343 1.409 . S
C1337 H1329 0.930 . S
C1337 C1335 1.403 1_565 S
C1337 C1338 1.362 . S
C1338 H1330 0.930 . S
C1338 C1337 1.362 . S
C1338 C1341 1.409 . S
C1339 H1331 0.930 . S
C1339 C1340 1.367 . S
C1339 C1341 1.415 . S
C1340 C1339 1.367 . S
C1340 C1342 1.403 1_565 S
C1341 C1336 1.425 1_565 S
C1341 C1338 1.409 . S
C1341 C1339 1.415 . S
C1342 H1332 0.930 . S
C1342 C1340 1.403 1_545 S
C1342 C1343 1.362 . S
C1343 H1333 0.930 . S
C1343 C1336 1.409 . S
C1343 C1342 1.362 . S
H1344 C1350 0.930 . S
H1345 C1353 0.930 . S
H1346 C1354 0.930 . S
H1347 C1355 0.930 . S
H1348 C1358 0.930 . S
H1349 C1359 0.930 . S
C1350 H1344 0.930 . S
C1350 C1351 1.355 . S
C1350 C1352 1.415 . S
C1351 C1350 1.355 . S
C1351 C1353 1.419 1_545 S
C1352 C1350 1.415 . S
C1352 C1357 1.425 1_545 S
C1352 C1359 1.409 . S
C1353 H1345 0.930 . S
C1353 C1351 1.419 1_565 S
C1353 C1354 1.362 . S
C1354 H1346 0.930 . S
C1354 C1353 1.362 . S
C1354 C1357 1.409 . S
C1355 H1347 0.930 . S
C1355 C1356 1.355 . S
C1355 C1357 1.415 . S
C1356 C1355 1.355 . S
C1356 C1358 1.419 1_565 S
C1357 C1352 1.425 1_565 S
C1357 C1354 1.409 . S
C1357 C1355 1.415 . S
C1358 H1348 0.930 . S
C1358 C1356 1.419 1_545 S
C1358 C1359 1.362 . S
C1359 H1349 0.930 . S
C1359 C1352 1.409 . S
C1359 C1358 1.362 . S
H1360 C1366 0.930 . S
H1361 C1369 0.930 . S
H1362 C1370 0.930 . S
H1363 C1371 0.930 . S
H1364 C1374 0.930 . S
H1365 C1375 0.930 . S
C1366 H1360 0.930 . S
C1366 C1367 1.355 . S
C1366 C1368 1.415 . S
C1367 C1366 1.355 . S
C1367 C1369 1.419 1_545 S
C1368 C1366 1.415 . S
C1368 C1373 1.425 1_545 S
C1368 C1375 1.409 . S
C1369 H1361 0.930 . S
C1369 C1367 1.419 1_565 S
C1369 C1370 1.362 . S
C1370 H1362 0.930 . S
C1370 C1369 1.362 . S
C1370 C1373 1.409 . S
C1371 H1363 0.930 . S
C1371 C1372 1.355 . S
C1371 C1373 1.415 . S
C1372 C1371 1.355 . S
C1372 C1374 1.419 1_565 S
C1373 C1368 1.425 1_565 S
C1373 C1370 1.409 . S
C1373 C1371 1.415 . S
C1374 H1364 0.930 . S
C1374 C1372 1.419 1_545 S
C1374 C1375 1.362 . S
C1375 H1365 0.930 . S
C1375 C1368 1.409 . S
C1375 C1374 1.362 . S
H1376 C1382 0.930 . S
H1377 C1385 0.930 . S
H1378 C1386 0.930 . S
H1379 C1387 0.930 . S
H1380 C1390 0.930 . S
H1381 C1391 0.930 . S
C1382 H1376 0.930 . S
C1382 C1383 1.355 1_545 S
C1382 C1384 1.415 . S
C1383 C1382 1.355 1_565 S
C1383 C1385 1.419 . S
C1384 C1382 1.415 . S
C1384 C1389 1.425 1_545 S
C1384 C1391 1.409 . S
C1385 H1377 0.930 . S
C1385 C1383 1.419 . S
C1385 C1386 1.362 . S
C1386 H1378 0.930 . S
C1386 C1385 1.362 . S
C1386 C1389 1.409 . S
C1387 H1379 0.930 . S
C1387 C1388 1.355 1_565 S
C1387 C1389 1.415 . S
C1388 C1387 1.355 1_545 S
C1388 C1390 1.419 . S
C1389 C1384 1.425 1_565 S
C1389 C1386 1.409 . S
C1389 C1387 1.415 . S
C1390 H1380 0.930 . S
C1390 C1388 1.419 . S
C1390 C1391 1.362 . S
C1391 H1381 0.930 . S
C1391 C1384 1.409 . S
C1391 C1390 1.362 . S
H1392 C1398 0.930 . S
H1393 C1401 0.930 . S
H1394 C1402 0.930 . S
H1395 C1403 0.930 . S
H1396 C1406 0.930 . S
H1397 C1407 0.930 . S
C1398 H1392 0.930 . S
C1398 C1399 1.355 . S
C1398 C1400 1.415 . S
C1399 C1398 1.355 . S
C1399 C1401 1.419 . S
C1400 C1398 1.415 . S
C1400 C1405 1.425 . S
C1400 C1407 1.409 . S
C1401 H1393 0.930 . S
C1401 C1399 1.419 . S
C1401 C1402 1.362 . S
C1402 H1394 0.930 . S
C1402 C1401 1.362 . S
C1402 C1405 1.409 . S
C1403 H1395 0.930 . S
C1403 C1404 1.355 . S
C1403 C1405 1.415 . S
C1404 C1403 1.355 . S
C1404 C1406 1.419 . S
C1405 C1400 1.425 . S
C1405 C1402 1.409 . S
C1405 C1403 1.415 . S
C1406 H1396 0.930 . S
C1406 C1404 1.419 . S
C1406 C1407 1.362 . S
C1407 H1397 0.930 . S
C1407 C1400 1.409 . S
C1407 C1406 1.362 . S
H1408 C1414 0.930 . S
H1409 C1417 0.930 . S
H1410 C1418 0.930 . S
H1411 C1419 0.930 . S
H1412 C1422 0.930 . S
H1413 C1423 0.930 . S
C1414 H1408 0.930 . S
C1414 C1415 1.355 . S
C1414 C1416 1.415 . S
C1415 C1414 1.355 . S
C1415 C1417 1.419 . S
C1416 C1414 1.415 . S
C1416 C1421 1.425 . S
C1416 C1423 1.409 . S
C1417 H1409 0.930 . S
C1417 C1415 1.419 . S
C1417 C1418 1.362 . S
C1418 H1410 0.930 . S
C1418 C1417 1.362 . S
C1418 C1421 1.409 . S
C1419 H1411 0.930 . S
C1419 C1420 1.355 . S
C1419 C1421 1.415 . S
C1420 C1419 1.355 . S
C1420 C1422 1.419 . S
C1421 C1416 1.425 . S
C1421 C1418 1.409 . S
C1421 C1419 1.415 . S
C1422 H1412 0.930 . S
C1422 C1420 1.419 . S
C1422 C1423 1.362 . S
C1423 H1413 0.930 . S
C1423 C1416 1.409 . S
C1423 C1422 1.362 . S
H1424 C1430 0.930 . S
H1425 C1433 0.930 . S
H1426 C1434 0.930 . S
H1427 C1435 0.930 . S
H1428 C1438 0.930 . S
H1429 C1439 0.930 . S
C1430 H1424 0.930 . S
C1430 C1431 1.355 . S
C1430 C1432 1.415 . S
C1431 C1430 1.355 . S
C1431 C1433 1.419 . S
C1432 C1430 1.415 . S
C1432 C1437 1.425 . S
C1432 C1439 1.409 . S
C1433 H1425 0.930 . S
C1433 C1431 1.419 . S
C1433 C1434 1.362 . S
C1434 H1426 0.930 . S
C1434 C1433 1.362 . S
C1434 C1437 1.409 . S
C1435 H1427 0.930 . S
C1435 C1436 1.355 . S
C1435 C1437 1.415 . S
C1436 C1435 1.355 . S
C1436 C1438 1.419 . S
C1437 C1432 1.425 . S
C1437 C1434 1.409 . S
C1437 C1435 1.415 . S
C1438 H1428 0.930 . S
C1438 C1436 1.419 . S
C1438 C1439 1.362 . S
C1439 H1429 0.930 . S
C1439 C1432 1.409 . S
C1439 C1438 1.362 . S
H1440 C1446 0.930 . S
H1441 C1449 0.930 . S
H1442 C1450 0.930 . S
H1443 C1451 0.930 . S
H1444 C1454 0.930 . S
H1445 C1455 0.930 . S
C1446 H1440 0.930 . S
C1446 C1447 1.355 . S
C1446 C1448 1.415 . S
C1447 C1446 1.355 . S
C1447 C1449 1.419 . S
C1448 C1446 1.415 . S
C1448 C1453 1.425 . S
C1448 C1455 1.409 . S
C1449 H1441 0.930 . S
C1449 C1447 1.419 . S
C1449 C1450 1.362 . S
C1450 H1442 0.930 . S
C1450 C1449 1.362 . S
C1450 C1453 1.409 . S
C1451 H1443 0.930 . S
C1451 C1452 1.355 . S
C1451 C1453 1.415 . S
C1452 C1451 1.355 . S
C1452 C1454 1.419 . S
C1453 C1448 1.425 . S
C1453 C1450 1.409 . S
C1453 C1451 1.415 . S
C1454 H1444 0.930 . S
C1454 C1452 1.419 . S
C1454 C1455 1.362 . S
C1455 H1445 0.930 . S
C1455 C1448 1.409 . S
C1455 C1454 1.362 . S
C951 C3 1.392 . S
C956 C298 1.417 . S
C967 C239 1.401 . S
C972 C62 1.409 . S
C983 C121 1.382 . S
C988 C416 1.427 . S
C999 C357 1.412 . S
C1004 C180 1.398 . S
C1015 C770 1.381 . S
C1020 C475 1.428 . S
C1031 C711 1.381 . S
C1036 C534 1.428 . S
C1047 C888 1.400 . S
C1052 C593 1.410 . S
C1063 C652 1.390 . S
C1068 C829 1.419 . S
C1079 C111 1.483 . S
C1084 C52 1.503 . S
C1095 C170 1.499 . S
C1100 C229 1.489 . S
C1111 C288 1.500 . S
C1116 C347 1.485 . S
C1127 C406 1.485 . S
C1132 C465 1.500 . S
C1143 C524 1.492 . S
C1148 C583 1.492 . S
C1159 C701 1.488 . S
C1164 C642 1.497 . S
C1175 C819 1.495 . S
C1180 C760 1.489 . S
C1191 C878 1.483 . S
C1196 C937 1.504 . S
C1207 C536 1.503 . S
C1212 C5 1.499 . S
C1223 C64 1.495 . S
C1228 C477 1.497 . S
C1239 C654 1.500 . S
C1244 C123 1.503 . S
C1255 C182 1.503 . S
C1260 C595 1.497 . S
C1271 C241 1.494 . S
C1276 C772 1.499 . S
C1287 C713 1.501 . S
C1292 C300 1.502 . S
C1303 C359 1.497 . S
C1308 C890 1.503 . S
C1319 C831 1.495 . S
C1324 C418 1.502 . S
C1335 C33 1.348 . S
C1340 C151 1.340 . S
C1351 C210 1.327 . S
C1356 C92 1.299 . S
C1367 C387 1.292 . S
C1372 C269 1.319 . S
C1383 C446 1.277 . S
C1388 C328 1.280 . S
C1399 C623 1.342 . S
C1404 C505 1.331 . S
C1415 C564 1.342 . S
C1420 C682 1.332 . S
C1431 C859 1.294 . S
C1436 C741 1.322 . S
C1447 C800 1.337 . S
C1452 C918 1.313 . S
