# Generated by pormake.
# Topology yfj, (5)-cn, num edge types: 1
# Building blocks:
#     Node 0, Type 0, BuildingBlock: XOMCOT_clean_sbu_0, # of connection points: 5
#     Node 1, Type 0, BuildingBlock: XOMCOT_clean_sbu_0, # of connection points: 5
#     Node 2, Type 0, BuildingBlock: XOMCOT_clean_sbu_0, # of connection points: 5
#     Node 3, Type 0, BuildingBlock: XOMCOT_clean_sbu_0, # of connection points: 5
#     Node 4, Type 0, BuildingBlock: XOMCOT_clean_sbu_0, # of connection points: 5
#     Node 5, Type 0, BuildingBlock: XOMCOT_clean_sbu_0, # of connection points: 5
#     Node 6, Type 0, BuildingBlock: XOMCOT_clean_sbu_0, # of connection points: 5
#     Node 7, Type 0, BuildingBlock: XOMCOT_clean_sbu_0, # of connection points: 5
#     Node 8, Type 0, BuildingBlock: XOMCOT_clean_sbu_0, # of connection points: 5
#     Node 9, Type 0, BuildingBlock: XOMCOT_clean_sbu_0, # of connection points: 5
#     Node 10, Type 0, BuildingBlock: XOMCOT_clean_sbu_0, # of connection points: 5
#     Node 11, Type 0, BuildingBlock: XOMCOT_clean_sbu_0, # of connection points: 5
#     Node 12, Type 0, BuildingBlock: XOMCOT_clean_sbu_0, # of connection points: 5
#     Node 13, Type 0, BuildingBlock: XOMCOT_clean_sbu_0, # of connection points: 5
#     Node 14, Type 0, BuildingBlock: XOMCOT_clean_sbu_0, # of connection points: 5
#     Node 15, Type 0, BuildingBlock: XOMCOT_clean_sbu_0, # of connection points: 5
#     Edge 16, Type (0, 0), BuildingBlock: OJICUG_clean_linker_0, # of connection points: 2
#     Edge 17, Type (0, 0), BuildingBlock: OJICUG_clean_linker_0, # of connection points: 2
#     Edge 18, Type (0, 0), BuildingBlock: OJICUG_clean_linker_0, # of connection points: 2
#     Edge 19, Type (0, 0), BuildingBlock: OJICUG_clean_linker_0, # of connection points: 2
#     Edge 20, Type (0, 0), BuildingBlock: OJICUG_clean_linker_0, # of connection points: 2
#     Edge 21, Type (0, 0), BuildingBlock: OJICUG_clean_linker_0, # of connection points: 2
#     Edge 22, Type (0, 0), BuildingBlock: OJICUG_clean_linker_0, # of connection points: 2
#     Edge 23, Type (0, 0), BuildingBlock: OJICUG_clean_linker_0, # of connection points: 2
#     Edge 24, Type (0, 0), BuildingBlock: OJICUG_clean_linker_0, # of connection points: 2
#     Edge 25, Type (0, 0), BuildingBlock: OJICUG_clean_linker_0, # of connection points: 2
#     Edge 26, Type (0, 0), BuildingBlock: OJICUG_clean_linker_0, # of connection points: 2
#     Edge 27, Type (0, 0), BuildingBlock: OJICUG_clean_linker_0, # of connection points: 2
#     Edge 28, Type (0, 0), BuildingBlock: OJICUG_clean_linker_0, # of connection points: 2
#     Edge 29, Type (0, 0), BuildingBlock: OJICUG_clean_linker_0, # of connection points: 2
#     Edge 30, Type (0, 0), BuildingBlock: OJICUG_clean_linker_0, # of connection points: 2
#     Edge 31, Type (0, 0), BuildingBlock: OJICUG_clean_linker_0, # of connection points: 2
#     Edge 32, Type (0, 0), BuildingBlock: OJICUG_clean_linker_0, # of connection points: 2
#     Edge 33, Type (0, 0), BuildingBlock: OJICUG_clean_linker_0, # of connection points: 2
#     Edge 34, Type (0, 0), BuildingBlock: OJICUG_clean_linker_0, # of connection points: 2
#     Edge 35, Type (0, 0), BuildingBlock: OJICUG_clean_linker_0, # of connection points: 2
#     Edge 36, Type (0, 0), BuildingBlock: OJICUG_clean_linker_0, # of connection points: 2
#     Edge 37, Type (0, 0), BuildingBlock: OJICUG_clean_linker_0, # of connection points: 2
#     Edge 38, Type (0, 0), BuildingBlock: OJICUG_clean_linker_0, # of connection points: 2
#     Edge 39, Type (0, 0), BuildingBlock: OJICUG_clean_linker_0, # of connection points: 2
#     Edge 40, Type (0, 0), BuildingBlock: OJICUG_clean_linker_0, # of connection points: 2
#     Edge 41, Type (0, 0), BuildingBlock: OJICUG_clean_linker_0, # of connection points: 2
#     Edge 42, Type (0, 0), BuildingBlock: OJICUG_clean_linker_0, # of connection points: 2
#     Edge 43, Type (0, 0), BuildingBlock: OJICUG_clean_linker_0, # of connection points: 2
#     Edge 44, Type (0, 0), BuildingBlock: OJICUG_clean_linker_0, # of connection points: 2
#     Edge 45, Type (0, 0), BuildingBlock: OJICUG_clean_linker_0, # of connection points: 2
#     Edge 46, Type (0, 0), BuildingBlock: OJICUG_clean_linker_0, # of connection points: 2
#     Edge 47, Type (0, 0), BuildingBlock: OJICUG_clean_linker_0, # of connection points: 2
#     Edge 48, Type (0, 0), BuildingBlock: OJICUG_clean_linker_0, # of connection points: 2
#     Edge 49, Type (0, 0), BuildingBlock: OJICUG_clean_linker_0, # of connection points: 2
#     Edge 50, Type (0, 0), BuildingBlock: OJICUG_clean_linker_0, # of connection points: 2
#     Edge 51, Type (0, 0), BuildingBlock: OJICUG_clean_linker_0, # of connection points: 2
#     Edge 52, Type (0, 0), BuildingBlock: OJICUG_clean_linker_0, # of connection points: 2
#     Edge 53, Type (0, 0), BuildingBlock: OJICUG_clean_linker_0, # of connection points: 2
#     Edge 54, Type (0, 0), BuildingBlock: OJICUG_clean_linker_0, # of connection points: 2
#     Edge 55, Type (0, 0), BuildingBlock: OJICUG_clean_linker_0, # of connection points: 2
# Relax obj value: 0.398
# Max RMSD: 0.243
# Mean RMSD: 0.243
data_MOF--net-yfj--node1-XOMCOT_clean_sbu_0--edge1-OJICUG_clean_linker_0
_symmetry_space_group_name_H-M    P1
_symmetry_Int_Tables_number       1
_symmetry_cell_setting            triclinic
loop_
_symmetry_equiv_pos_as_xyz
'x, y, z'
_cell_length_a     36.995644
_cell_length_b     36.9935
_cell_length_c     36.063102
_cell_angle_alpha  90.036673
_cell_angle_beta   90.03819
_cell_angle_gamma 89.9748
loop_
_atom_site_label
_atom_site_type_symbol
_atom_site_fract_x
_atom_site_fract_y
_atom_site_fract_z
_atom_type_partial_charge
Co0 Co 0.11842 0.15907 0.34857 0.0
C1 C 0.15948 0.15056 0.27859 0.0
C2 C 0.13247 0.20186 0.28115 0.0
C3 C 0.15123 0.19965 0.24808 0.0
N4 N 0.13779 0.17111 0.30024 0.0
N5 N 0.16821 0.16731 0.24642 0.0
H6 H 0.16921 0.12412 0.28656 0.0
H7 H 0.11616 0.2243 0.29065 0.0
C8 C 0.11195 0.23194 0.38444 0.0
O9 O 0.07714 0.22617 0.38037 0.0
N10 N 0.09878 0.14673 0.39687 0.0
C11 C 0.0634 0.14434 0.40561 0.0
C12 C 0.06017 0.13488 0.44241 0.0
C13 C 0.11654 0.13944 0.4288 0.0
N14 N 0.09362 0.13205 0.45682 0.0
C15 C 0.10842 0.0853 0.32371 0.0
C16 C 0.03553 0.09363 0.30887 0.0
C17 C 0.05047 0.05863 0.30806 0.0
C18 C 0.08786 0.05516 0.3139 0.0
C19 C 0.05739 0.1233 0.31775 0.0
N20 N 0.09278 0.11858 0.32689 0.0
H21 H 0.13667 0.08128 0.32965 0.0
H22 H 0.0455 0.14996 0.31965 0.0
H23 H 0.04131 0.14963 0.38681 0.0
H24 H 0.14556 0.13911 0.43188 0.0
O25 O 0.16343 0.13061 0.36006 0.0
O26 O 0.15964 0.18655 0.37129 0.0
O27 O 0.13474 0.2082 0.37156 0.0
C28 C 0.17965 0.15818 0.37216 0.0
H29 H 0.15194 0.22023 0.22679 0.0
H30 H 0.03524 0.13113 0.45763 0.0
H31 H 0.00692 0.09806 0.30464 0.0
H32 H 0.10117 0.02916 0.31207 0.0
Co33 Co 0.83983 0.6187 0.59802 0.0
C34 C 0.84839 0.65851 0.5274 0.0
C35 C 0.7959 0.63414 0.53161 0.0
C36 C 0.79801 0.65277 0.49847 0.0
N37 N 0.82743 0.63793 0.54973 0.0
N38 N 0.83107 0.66817 0.49577 0.0
H39 H 0.87553 0.66684 0.53461 0.0
H40 H 0.77293 0.6191 0.54189 0.0
C41 C 0.76757 0.61249 0.6345 0.0
O42 O 0.77358 0.5777 0.6305 0.0
N43 N 0.85267 0.59918 0.64619 0.0
C44 C 0.85882 0.56404 0.6538 0.0
C45 C 0.86836 0.56074 0.6906 0.0
C46 C 0.85789 0.6167 0.6787 0.0
N47 N 0.86761 0.59387 0.70612 0.0
C48 C 0.9145 0.60371 0.58037 0.0
C49 C 0.90016 0.53615 0.55073 0.0
C50 C 0.9362 0.54657 0.55647 0.0
C51 C 0.94322 0.58127 0.57029 0.0
C52 C 0.87217 0.55979 0.5604 0.0
N53 N 0.8796 0.59242 0.57615 0.0
H54 H 0.92063 0.62927 0.59325 0.0
H55 H 0.84436 0.55119 0.55756 0.0
H56 H 0.85661 0.54222 0.634 0.0
H57 H 0.85536 0.64553 0.68247 0.0
O58 O 0.8687 0.66364 0.60875 0.0
O59 O 0.81285 0.66011 0.62076 0.0
O60 O 0.79107 0.63536 0.6214 0.0
C61 C 0.8413 0.67999 0.62119 0.0
H62 H 0.77678 0.6546 0.47791 0.0
H63 H 0.87502 0.53591 0.70492 0.0
H64 H 0.8937 0.50953 0.54012 0.0
H65 H 0.97067 0.59011 0.57555 0.0
Co66 Co 0.38049 0.33937 0.84723 0.0
C67 C 0.3404 0.34909 0.7769 0.0
C68 C 0.36784 0.298 0.77846 0.0
C69 C 0.34988 0.3011 0.74498 0.0
N70 N 0.3617 0.32803 0.79844 0.0
N71 N 0.33251 0.3333 0.74389 0.0
H72 H 0.33066 0.37532 0.78554 0.0
H73 H 0.38429 0.27551 0.78755 0.0
C74 C 0.38474 0.26677 0.8837 0.0
O75 O 0.41968 0.27155 0.87945 0.0
N76 N 0.39966 0.35123 0.89578 0.0
C77 C 0.43486 0.35649 0.90383 0.0
C78 C 0.43797 0.36627 0.94056 0.0
C79 C 0.38188 0.35718 0.92797 0.0
N80 N 0.40466 0.36655 0.95559 0.0
C81 C 0.39648 0.41392 0.82995 0.0
C82 C 0.4644 0.39907 0.80157 0.0
C83 C 0.45398 0.43521 0.80676 0.0
C84 C 0.41914 0.44246 0.82 0.0
C85 C 0.44054 0.37125 0.81111 0.0
N86 N 0.4077 0.37894 0.82622 0.0
H87 H 0.37071 0.42032 0.84221 0.0
H88 H 0.44905 0.34338 0.80855 0.0
H89 H 0.45684 0.35364 0.88432 0.0
H90 H 0.35293 0.35553 0.9313 0.0
O91 O 0.33609 0.36906 0.858 0.0
O92 O 0.33814 0.31278 0.86846 0.0
O93 O 0.36259 0.29077 0.87014 0.0
C94 C 0.31883 0.34165 0.86891 0.0
H95 H 0.35007 0.28112 0.72307 0.0
H96 H 0.46278 0.37247 0.95517 0.0
H97 H 0.49113 0.39242 0.79139 0.0
H98 H 0.41027 0.46998 0.82482 0.0
Co99 Co 0.65902 0.87997 0.09749 0.0
C100 C 0.65048 0.83809 1.02798 0.0
C101 C 0.69972 0.86869 1.02819 0.0
C102 C 0.69683 0.85065 0.99473 0.0
N103 N 0.6707 0.86067 0.049 0.0
N104 N 0.66574 0.83138 0.9945 0.0
H105 H 0.62512 0.82673 0.03718 0.0
H106 H 0.72121 0.88676 0.03656 0.0
C107 C 0.73223 0.88632 0.13259 0.0
O108 O 0.72666 0.92112 0.12816 0.0
N109 N 0.64697 0.89967 0.14585 0.0
C110 C 0.64601 0.93505 0.15492 0.0
C111 C 0.63611 0.9384 0.1916 0.0
C112 C 0.63828 0.88199 0.17743 0.0
N113 N 0.63149 0.905 0.20558 0.0
C114 C 0.58538 0.88999 0.07225 0.0
C115 C 0.59346 0.96314 0.05876 0.0
C116 C 0.55856 0.94805 0.05726 0.0
C117 C 0.55522 0.91056 0.06247 0.0
C118 C 0.62313 0.9413 0.06762 0.0
N119 N 0.61851 0.90575 0.07608 0.0
H120 H 0.58152 0.8616 0.0776 0.0
H121 H 0.64972 0.95325 0.06992 0.0
H122 H 0.65258 0.95702 0.13642 0.0
H123 H 0.63653 0.853 0.18016 0.0
O124 O 0.63055 0.83504 0.10914 0.0
O125 O 0.68655 0.83871 0.1201 0.0
O126 O 0.70826 0.86355 0.12013 0.0
C127 C 0.65814 0.81879 0.12118 0.0
H128 H 0.71595 0.85229 0.97211 0.0
H129 H 0.63331 0.96335 0.20705 0.0
H130 H 0.5978 0.99183 0.05504 0.0
H131 H 0.52931 0.89717 0.06012 0.0
Co132 Co 0.11911 0.34096 0.96267 0.0
C133 C 0.16077 0.34937 0.03227 0.0
C134 C 0.13014 0.30014 0.03196 0.0
C135 C 0.1482 0.30295 0.06542 0.0
N136 N 0.13818 0.32921 1.01122 0.0
N137 N 0.16749 0.33402 0.0657 0.0
H138 H 0.17217 0.37473 1.02311 0.0
H139 H 0.11209 0.27866 1.02351 0.0
C140 C 0.11241 0.26786 0.9276 0.0
O141 O 0.07764 0.27375 0.93184 0.0
N142 N 0.09966 0.35311 0.91421 0.0
C143 C 0.06431 0.35493 0.90517 0.0
C144 C 0.06118 0.36475 0.86844 0.0
C145 C 0.11752 0.36115 0.88256 0.0
N146 N 0.09467 0.36841 0.8544 0.0
C147 C 0.10921 0.41474 0.98751 0.0
C148 C 0.03622 0.40657 1.00182 0.0
C149 C 0.05127 0.44149 1.00305 0.0
C150 C 0.08869 0.44489 0.99742 0.0
C151 C 0.05801 0.37691 0.99282 0.0
N152 N 0.09346 0.38157 0.98399 0.0
H153 H 0.13753 0.41863 0.98184 0.0
H154 H 0.04608 0.35029 0.9907 0.0
H155 H 0.04219 0.34908 0.92373 0.0
H156 H 0.14655 0.36215 0.87979 0.0
O157 O 0.16423 0.36918 0.95116 0.0
O158 O 0.16029 0.31318 0.94028 0.0
O159 O 0.13532 0.29164 0.94015 0.0
C160 C 0.18038 0.34146 0.93925 0.0
H161 H 0.14659 0.28376 0.08797 0.0
H162 H 0.03629 0.36819 0.85302 0.0
H163 H 0.00757 0.4022 1.00585 0.0
H164 H 0.10205 0.47084 0.99953 0.0
Co165 Co 0.65934 0.61861 0.21316 0.0
C166 C 0.64959 0.65879 0.28336 0.0
C167 C 0.70056 0.63112 0.28203 0.0
C168 C 0.69743 0.64916 0.31546 0.0
N169 N 0.67061 0.63736 0.26195 0.0
N170 N 0.66531 0.66668 0.31638 0.0
H171 H 0.62344 0.66866 0.2746 0.0
H172 H 0.723 0.61455 0.27304 0.0
C173 C 0.73203 0.61438 0.17688 0.0
O174 O 0.72726 0.57943 0.18106 0.0
N175 N 0.64753 0.59948 0.1646 0.0
C176 C 0.64207 0.56431 0.15655 0.0
C177 C 0.63228 0.56126 0.11981 0.0
C178 C 0.64171 0.6173 0.13242 0.0
N179 N 0.63221 0.59459 0.1048 0.0
C180 C 0.58475 0.60262 0.23026 0.0
C181 C 0.5996 0.53482 0.25896 0.0
C182 C 0.56347 0.54521 0.25368 0.0
C183 C 0.55621 0.57999 0.24027 0.0
C184 C 0.62742 0.55866 0.24936 0.0
N185 N 0.61973 0.59144 0.2341 0.0
H186 H 0.57837 0.62834 0.21787 0.0
H187 H 0.65529 0.55017 0.252 0.0
H188 H 0.64475 0.54232 0.17606 0.0
H189 H 0.64351 0.64625 0.12909 0.0
O190 O 0.6297 0.66307 0.20234 0.0
O191 O 0.68599 0.66096 0.19201 0.0
O192 O 0.70798 0.6365 0.19037 0.0
C193 C 0.65716 0.68031 0.19152 0.0
H194 H 0.71734 0.64896 0.33743 0.0
H195 H 0.6259 0.53651 0.10519 0.0
H196 H 0.60625 0.50814 0.26926 0.0
H197 H 0.52869 0.58882 0.23538 0.0
Co198 Co 0.38002 0.15939 0.46354 0.0
C199 C 0.34078 0.15032 0.53445 0.0
C200 C 0.36568 0.20259 0.53067 0.0
C201 C 0.34725 0.20031 0.56391 0.0
N202 N 0.36144 0.17131 0.51223 0.0
N203 N 0.33149 0.1674 0.56633 0.0
H204 H 0.33207 0.12338 0.52696 0.0
H205 H 0.38085 0.22553 0.52052 0.0
C206 C 0.38447 0.23168 0.42664 0.0
O207 O 0.41939 0.22677 0.431 0.0
N208 N 0.39892 0.14706 0.41502 0.0
C209 C 0.43414 0.14242 0.40673 0.0
C210 C 0.43713 0.13284 0.36994 0.0
C211 C 0.381 0.1409 0.38293 0.0
N212 N 0.40371 0.13204 0.35509 0.0
C213 C 0.3959 0.08495 0.4816 0.0
C214 C 0.46421 0.09988 0.50899 0.0
C215 C 0.45367 0.06373 0.50428 0.0
C216 C 0.41864 0.05644 0.49157 0.0
C217 C 0.44028 0.12767 0.49945 0.0
N218 N 0.40724 0.11993 0.48481 0.0
H219 H 0.36996 0.07852 0.46972 0.0
H220 H 0.44889 0.15554 0.50159 0.0
H221 H 0.45621 0.14573 0.42606 0.0
H222 H 0.35199 0.14218 0.37979 0.0
O223 O 0.33545 0.12981 0.45326 0.0
O224 O 0.33774 0.18599 0.44219 0.0
O225 O 0.36223 0.20786 0.44027 0.0
C226 C 0.31829 0.15723 0.44213 0.0
H227 H 0.34575 0.22136 0.5847 0.0
H228 H 0.46196 0.12725 0.35513 0.0
H229 H 0.49108 0.10656 0.51875 0.0
H230 H 0.40967 0.02889 0.48714 0.0
Co231 Co 0.8402 0.88048 0.71242 0.0
C232 C 0.84909 0.84135 0.78336 0.0
C233 C 0.79669 0.86599 0.77921 0.0
C234 C 0.79885 0.84748 0.81242 0.0
N235 N 0.82813 0.86195 0.76103 0.0
N236 N 0.83184 0.8319 0.81505 0.0
H237 H 0.87611 0.83275 0.77605 0.0
H238 H 0.77371 0.88102 0.76888 0.0
C239 C 0.76791 0.88497 0.67546 0.0
O240 O 0.77283 0.9199 0.67973 0.0
N241 N 0.85264 0.89934 0.66396 0.0
C242 C 0.85813 0.93447 0.65581 0.0
C243 C 0.86763 0.93737 0.61901 0.0
C244 C 0.85821 0.8814 0.63178 0.0
N245 N 0.86753 0.90399 0.60403 0.0
C246 C 0.91467 0.89636 0.73002 0.0
C247 C 0.89979 0.96404 0.75904 0.0
C248 C 0.93593 0.95365 0.75384 0.0
C249 C 0.9432 0.91892 0.74026 0.0
C250 C 0.87198 0.94027 0.74919 0.0
N251 N 0.87969 0.90754 0.73382 0.0
H252 H 0.92107 0.87071 0.71746 0.0
H253 H 0.84411 0.94877 0.75174 0.0
H254 H 0.85549 0.95653 0.67527 0.0
H255 H 0.8562 0.85245 0.62853 0.0
O256 O 0.86977 0.83584 0.70227 0.0
O257 O 0.81365 0.8382 0.69097 0.0
O258 O 0.79177 0.86273 0.68906 0.0
C259 C 0.8424 0.81872 0.69101 0.0
H260 H 0.77767 0.84576 0.83301 0.0
H261 H 0.87383 0.96209 0.60429 0.0
H262 H 0.89314 0.99069 0.76946 0.0
H263 H 0.97072 0.9101 0.73538 0.0
Co264 Co 0.61878 0.65885 0.84812 0.0
C265 C 0.66073 0.65022 0.77874 0.0
C266 C 0.62963 0.69918 0.77853 0.0
C267 C 0.64783 0.69629 0.74518 0.0
N268 N 0.63787 0.67033 0.79953 0.0
N269 N 0.66741 0.66539 0.74523 0.0
H270 H 0.67236 0.62504 0.78814 0.0
H271 H 0.61137 0.72058 0.78674 0.0
C272 C 0.61256 0.73213 0.88296 0.0
O273 O 0.57776 0.72661 0.87848 0.0
N274 N 0.59935 0.64705 0.89663 0.0
C275 C 0.56406 0.64669 0.90602 0.0
C276 C 0.56095 0.63722 0.94284 0.0
C277 C 0.61722 0.63841 0.92814 0.0
N278 N 0.59442 0.63227 0.95659 0.0
C279 C 0.6087 0.58524 0.82286 0.0
C280 C 0.53544 0.59328 0.80988 0.0
C281 C 0.55061 0.55843 0.808 0.0
C282 C 0.58814 0.5551 0.81301 0.0
C283 C 0.55725 0.62293 0.81882 0.0
N284 N 0.59288 0.61833 0.82697 0.0
H285 H 0.63714 0.58141 0.82798 0.0
H286 H 0.54526 0.64949 0.82132 0.0
H287 H 0.542 0.65343 0.88766 0.0
H288 H 0.64621 0.63625 0.93061 0.0
O289 O 0.66374 0.63036 0.85976 0.0
O290 O 0.66014 0.68643 0.87042 0.0
O291 O 0.63531 0.70815 0.87051 0.0
C292 C 0.68005 0.65801 0.87158 0.0
H293 H 0.64612 0.7153 0.72247 0.0
H294 H 0.53611 0.63497 0.95853 0.0
H295 H 0.50671 0.5976 0.80634 0.0
H296 H 0.60156 0.52923 0.8104 0.0
Co297 Co 0.33967 0.11843 0.09779 0.0
C298 C 0.34881 0.15773 1.02691 0.0
C299 C 0.29644 0.13304 0.03072 0.0
C300 C 0.29872 0.15162 0.99755 0.0
N301 N 0.32779 0.13706 0.0491 0.0
N302 N 0.33169 0.16723 0.99513 0.0
H303 H 0.37579 0.16632 0.03439 0.0
H304 H 0.27344 0.11798 0.04088 0.0
C305 C 0.26736 0.11413 0.13473 0.0
O306 O 0.27221 0.07919 0.13046 0.0
N307 N 0.35195 0.09952 0.14631 0.0
C308 C 0.35679 0.06432 0.15458 0.0
C309 C 0.36626 0.06135 0.1914 0.0
C310 C 0.35789 0.11745 0.17845 0.0
N311 N 0.3668 0.09476 0.20629 0.0
C312 C 0.41411 0.10247 0.07987 0.0
C313 C 0.39916 0.03433 0.05204 0.0
C314 C 0.43532 0.04483 0.05682 0.0
C315 C 0.44261 0.07978 0.06978 0.0
C316 C 0.37138 0.05822 0.0617 0.0
N317 N 0.37913 0.09118 0.07653 0.0
H318 H 0.42055 0.12834 0.09191 0.0
H319 H 0.34351 0.04965 0.05947 0.0
H320 H 0.35368 0.04225 0.13521 0.0
H321 H 0.35642 0.14644 0.18161 0.0
O322 O 0.36931 0.16296 0.10809 0.0
O323 O 0.31313 0.16076 0.11911 0.0
O324 O 0.29122 0.13631 0.12104 0.0
C325 C 0.34191 0.18016 0.11919 0.0
H326 H 0.27762 0.15333 0.97684 0.0
H327 H 0.37196 0.03654 0.2062 0.0
H328 H 0.39248 0.00753 0.04207 0.0
H329 H 0.47016 0.08872 0.07429 0.0
Co330 Co 0.88013 0.8393 0.34693 0.0
C331 C 0.84004 0.84898 0.27655 0.0
C332 C 0.86785 0.79809 0.27803 0.0
C333 C 0.84988 0.80111 0.24455 0.0
N334 N 0.86149 0.82805 0.29806 0.0
N335 N 0.83227 0.83319 0.24352 0.0
H336 H 0.83007 0.87512 0.28523 0.0
H337 H 0.88445 0.77569 0.2871 0.0
C338 C 0.88412 0.76663 0.38335 0.0
O339 O 0.91907 0.77119 0.37895 0.0
N340 N 0.89916 0.85097 0.39556 0.0
C341 C 0.93446 0.85457 0.40405 0.0
C342 C 0.93757 0.86407 0.44086 0.0
C343 C 0.88128 0.8577 0.42752 0.0
N344 N 0.90412 0.86588 0.45548 0.0
C345 C 0.89586 0.91377 0.32873 0.0
C346 C 0.96475 0.8991 0.30285 0.0
C347 C 0.95386 0.93522 0.30703 0.0
C348 C 0.91855 0.94236 0.31898 0.0
C349 C 0.94087 0.87122 0.31216 0.0
N350 N 0.90753 0.87884 0.32609 0.0
H351 H 0.86961 0.92014 0.33988 0.0
H352 H 0.94971 0.84339 0.31037 0.0
H353 H 0.95651 0.85058 0.38485 0.0
H354 H 0.85224 0.85732 0.43048 0.0
O355 O 0.83574 0.86905 0.35763 0.0
O356 O 0.83767 0.81274 0.36794 0.0
O357 O 0.86207 0.7907 0.36975 0.0
C358 C 0.81841 0.84163 0.36839 0.0
H359 H 0.85021 0.78117 0.22261 0.0
H360 H 0.96248 0.86892 0.45582 0.0
H361 H 0.99182 0.89251 0.29363 0.0
H362 H 0.90927 0.96988 0.32294 0.0
Co363 Co 0.15952 0.38092 0.59793 0.0
C364 C 0.15054 0.33891 0.52858 0.0
C365 C 0.19977 0.36954 0.52831 0.0
C366 C 0.19668 0.35131 0.49497 0.0
N367 N 0.17088 0.36162 0.54934 0.0
N368 N 0.16561 0.33202 0.49504 0.0
H369 H 0.12526 0.32756 0.538 0.0
H370 H 0.22132 0.38762 0.53648 0.0
C371 C 0.23283 0.387 0.63288 0.0
O372 O 0.22729 0.42183 0.62861 0.0
N373 N 0.14775 0.40054 0.64642 0.0
C374 C 0.14671 0.4359 0.65556 0.0
C375 C 0.13694 0.43915 0.69229 0.0
C376 C 0.13928 0.38278 0.67802 0.0
N377 N 0.13252 0.40571 0.70624 0.0
C378 C 0.08583 0.3913 0.57295 0.0
C379 C 0.09424 0.46441 0.55941 0.0
C380 C 0.05927 0.44949 0.55786 0.0
C381 C 0.05577 0.41201 0.56311 0.0
C382 C 0.12381 0.44244 0.56829 0.0
N383 N 0.11904 0.40691 0.57675 0.0
H384 H 0.08186 0.36294 0.57831 0.0
H385 H 0.15046 0.45426 0.57056 0.0
H386 H 0.15309 0.45793 0.63707 0.0
H387 H 0.13761 0.35377 0.6807 0.0
O388 O 0.13097 0.33606 0.60965 0.0
O389 O 0.18706 0.33954 0.62027 0.0
O390 O 0.20882 0.36431 0.62034 0.0
C391 C 0.15861 0.31969 0.62144 0.0
H392 H 0.21569 0.35281 0.47224 0.0
H393 H 0.13408 0.46407 0.70778 0.0
H394 H 0.09874 0.49307 0.55569 0.0
H395 H 0.02982 0.39871 0.56071 0.0
Co396 Co 0.61857 0.84036 0.46192 0.0
C397 C 0.65967 0.84868 0.53187 0.0
C398 C 0.63253 0.79747 0.52933 0.0
C399 C 0.6513 0.79965 0.56242 0.0
N400 N 0.63794 0.82818 0.51022 0.0
N401 N 0.66836 0.83194 0.56406 0.0
H402 H 0.66946 0.87508 0.52388 0.0
H403 H 0.61615 0.77509 0.51984 0.0
C404 C 0.61187 0.76735 0.42644 0.0
O405 O 0.57708 0.77313 0.43068 0.0
N406 N 0.5989 0.85287 0.41366 0.0
C407 C 0.56352 0.85504 0.40483 0.0
C408 C 0.56028 0.86491 0.36812 0.0
C409 C 0.61666 0.86074 0.3819 0.0
N410 N 0.59373 0.86824 0.35389 0.0
C411 C 0.60864 0.91409 0.48696 0.0
C412 C 0.53579 0.90571 0.50185 0.0
C413 C 0.55072 0.94069 0.50288 0.0
C414 C 0.5881 0.94418 0.49698 0.0
C415 C 0.55762 0.87609 0.49277 0.0
N416 N 0.593 0.88084 0.48366 0.0
H417 H 0.63687 0.9181 0.48098 0.0
H418 H 0.54575 0.84944 0.49073 0.0
H419 H 0.54145 0.84936 0.42351 0.0
H420 H 0.64568 0.86141 0.37895 0.0
O421 O 0.66366 0.86867 0.45052 0.0
O422 O 0.65966 0.81278 0.43908 0.0
O423 O 0.63473 0.7912 0.43897 0.0
C424 C 0.67976 0.84106 0.43828 0.0
H425 H 0.65197 0.77909 0.58374 0.0
H426 H 0.53535 0.86857 0.35285 0.0
H427 H 0.50718 0.90126 0.50607 0.0
H428 H 0.6014 0.97016 0.49895 0.0
Co429 Co 0.15897 0.11948 0.71363 0.0
C430 C 0.15006 0.16096 0.78337 0.0
C431 C 0.19904 0.1299 0.78352 0.0
C432 C 0.19609 0.14793 0.81698 0.0
N433 N 0.17022 0.13821 0.76249 0.0
N434 N 0.16517 0.16749 0.81697 0.0
H435 H 0.12491 0.17267 0.77396 0.0
H436 H 0.22049 0.11173 0.77525 0.0
C437 C 0.23213 0.11463 0.67804 0.0
O438 O 0.22751 0.07972 0.68271 0.0
N439 N 0.14739 0.10038 0.66491 0.0
C440 C 0.14707 0.06513 0.65532 0.0
C441 C 0.13717 0.06212 0.61861 0.0
C442 C 0.1384 0.11837 0.63359 0.0
N443 N 0.13194 0.09563 0.60511 0.0
C444 C 0.08559 0.10867 0.73906 0.0
C445 C 0.09393 0.03528 0.75096 0.0
C446 C 0.05905 0.05034 0.75324 0.0
C447 C 0.0556 0.08791 0.74881 0.0
C448 C 0.12346 0.05729 0.74215 0.0
N449 N 0.11869 0.093 0.73446 0.0
H450 H 0.08163 0.13716 0.73446 0.0
H451 H 0.15005 0.04542 0.73942 0.0
H452 H 0.15403 0.04301 0.67349 0.0
H453 H 0.13618 0.14739 0.63133 0.0
O454 O 0.12985 0.16411 0.70227 0.0
O455 O 0.18617 0.16155 0.69244 0.0
O456 O 0.20795 0.13686 0.69112 0.0
C457 C 0.15749 0.1811 0.69158 0.0
H458 H 0.21508 0.14616 0.83973 0.0
H459 H 0.13476 0.03734 0.60282 0.0
H460 H 0.09834 0.00653 0.7541 0.0
H461 H 0.02971 0.10125 0.75181 0.0
Co462 Co 0.88037 0.65983 0.96311 0.0
C463 C 0.84114 0.65068 0.03396 0.0
C464 C 0.86566 0.70313 1.03012 0.0
C465 C 0.84711 0.7008 0.0633 0.0
N466 N 0.86172 0.67176 1.01175 0.0
N467 N 0.83161 0.66777 0.06574 0.0
H468 H 0.83263 0.62367 1.02649 0.0
H469 H 0.88065 0.72617 1.01994 0.0
C470 C 0.88459 0.7323 0.92651 0.0
O471 O 0.91952 0.72766 0.93113 0.0
N472 N 0.89931 0.64748 0.91463 0.0
C473 C 0.93457 0.64348 0.90619 0.0
C474 C 0.93757 0.63352 0.8695 0.0
C475 C 0.88135 0.6405 0.88274 0.0
N476 N 0.90409 0.63179 0.85488 0.0
C477 C 0.89637 0.58552 0.98156 0.0
C478 C 0.96483 0.60069 1.00843 0.0
C479 C 0.95428 0.5645 1.00407 0.0
C480 C 0.91918 0.5571 0.99161 0.0
C481 C 0.94084 0.62839 0.99881 0.0
N482 N 0.90772 0.62052 0.98444 0.0
H483 H 0.87035 0.579 0.96993 0.0
H484 H 0.94944 0.65628 1.00069 0.0
H485 H 0.95666 0.64749 0.92537 0.0
H486 H 0.85231 0.6411 0.87977 0.0
O487 O 0.83588 0.63011 0.95287 0.0
O488 O 0.83802 0.68627 0.94166 0.0
O489 O 0.86244 0.70823 0.93982 0.0
C490 C 0.81865 0.65746 0.94166 0.0
H491 H 0.84534 0.7219 0.084 0.0
H492 H 0.96243 0.62834 0.8546 0.0
H493 H 0.99175 0.60746 1.01801 0.0
H494 H 0.91019 0.52952 0.98746 0.0
Co495 Co 0.34021 0.38015 0.21234 0.0
C496 C 0.34853 0.3393 0.28248 0.0
C497 C 0.29742 0.36665 0.27987 0.0
C498 C 0.29953 0.34799 0.31301 0.0
N499 N 0.3281 0.36105 0.26077 0.0
N500 N 0.33175 0.33079 0.3147 0.0
H501 H 0.37488 0.32934 0.27452 0.0
H502 H 0.27508 0.38308 0.27034 0.0
C503 C 0.26726 0.38668 0.17696 0.0
O504 O 0.27292 0.42145 0.18149 0.0
N505 N 0.35259 0.39951 0.16394 0.0
C506 C 0.3536 0.43481 0.15466 0.0
C507 C 0.36317 0.43786 0.11786 0.0
C508 C 0.36094 0.38157 0.13238 0.0
N509 N 0.36754 0.40435 0.104 0.0
C510 C 0.4138 0.39024 0.23771 0.0
C511 C 0.40551 0.46337 0.25129 0.0
C512 C 0.44043 0.44833 0.25287 0.0
C513 C 0.44388 0.41085 0.24761 0.0
C514 C 0.3759 0.44149 0.24234 0.0
N515 N 0.38062 0.40594 0.23389 0.0
H516 H 0.41776 0.36188 0.23225 0.0
H517 H 0.3493 0.45341 0.23993 0.0
H518 H 0.3472 0.45693 0.17307 0.0
H519 H 0.36254 0.35255 0.12982 0.0
O520 O 0.36863 0.33506 0.20115 0.0
O521 O 0.31271 0.3389 0.18975 0.0
O522 O 0.29109 0.36381 0.18947 0.0
C523 C 0.34105 0.31886 0.18901 0.0
H524 H 0.27897 0.34749 0.33433 0.0
H525 H 0.36587 0.46271 0.10226 0.0
H526 H 0.40109 0.49206 0.255 0.0
H527 H 0.46981 0.3975 0.24999 0.0
C528 C 0.1303 0.14241 0.51296 0.0
C529 C 0.10303 0.12316 0.4944 0.0
H530 H 0.1604 0.14902 0.56346 0.0
C531 C 0.08522 0.09494 0.51289 0.0
H532 H 0.14423 0.16439 0.49924 0.0
C533 C 0.09499 0.08567 0.54914 0.0
C534 C 0.122 0.10514 0.56784 0.0
H535 H 0.06425 0.07966 0.49898 0.0
H536 H 0.08116 0.0636 0.5628 0.0
C537 C 0.13937 0.1338 0.54958 0.0
C538 C 0.91398 0.59504 0.79864 0.0
C539 C 0.8946 0.62207 0.81744 0.0
H540 H 0.92017 0.56455 0.74844 0.0
C541 C 0.86592 0.63949 0.79914 0.0
H542 H 0.93601 0.58103 0.81222 0.0
C543 C 0.85718 0.6304 0.76253 0.0
C544 C 0.87644 0.60318 0.74383 0.0
H545 H 0.8507 0.66055 0.81297 0.0
H546 H 0.83511 0.64433 0.74893 0.0
C547 C 0.90475 0.58543 0.76234 0.0
C548 C 0.35977 0.36555 0.04883 0.0
C549 C 0.37685 0.39477 0.06654 0.0
H550 H 0.35495 0.33403 0.99904 0.0
C551 C 0.40316 0.41453 0.04718 0.0
H552 H 0.33923 0.35009 0.06315 0.0
C553 C 0.4126 0.40495 1.01094 0.0
C554 C 0.39525 0.37601 0.99306 0.0
H555 H 0.41679 0.43702 0.06036 0.0
H556 H 0.43306 0.42049 0.99661 0.0
C557 C 0.36856 0.35654 1.01223 0.0
C558 C 0.63077 0.85861 0.29793 0.0
C559 C 0.60315 0.87744 0.3164 0.0
H560 H 0.66099 0.85238 0.24752 0.0
C561 C 0.58498 0.90544 0.29787 0.0
H562 H 0.64499 0.8368 0.31167 0.0
C563 C 0.59463 0.91483 0.26164 0.0
C564 C 0.62192 0.8957 0.243 0.0
H565 H 0.56374 0.9204 0.31172 0.0
H566 H 0.58045 0.93666 0.2479 0.0
C567 C 0.63974 0.86734 0.26134 0.0
C568 C 0.14098 0.36807 0.76199 0.0
C569 C 0.12298 0.39631 0.74364 0.0
H570 H 0.14634 0.33749 0.81229 0.0
C571 C 0.09551 0.41521 0.76225 0.0
H572 H 0.16236 0.35328 0.74818 0.0
C573 C 0.08584 0.40569 0.79845 0.0
C574 C 0.10418 0.37779 0.81698 0.0
H575 H 0.08119 0.43695 0.74852 0.0
H576 H 0.06445 0.42045 0.81226 0.0
C577 C 0.13199 0.35921 0.79854 0.0
C578 C 0.63344 0.63953 1.01163 0.0
C579 C 0.60397 0.62282 0.99401 0.0
H580 H 0.66518 0.64391 0.06131 0.0
C581 C 0.58397 0.59671 1.01339 0.0
H582 H 0.6491 0.6599 0.99727 0.0
C583 C 0.59357 0.5871 0.04958 0.0
C584 C 0.62277 0.6041 0.06736 0.0
H585 H 0.56127 0.58337 1.00026 0.0
H586 H 0.57784 0.5668 0.06394 0.0
C587 C 0.64248 0.63058 0.04818 0.0
C588 C 0.36627 0.14102 0.29902 0.0
C589 C 0.39425 0.12272 0.31755 0.0
H590 H 0.33592 0.14669 0.24856 0.0
C591 C 0.41295 0.09511 0.2989 0.0
H592 H 0.35161 0.16254 0.31275 0.0
C593 C 0.40365 0.08572 0.26257 0.0
C594 C 0.37597 0.10425 0.24386 0.0
H595 H 0.43443 0.08044 0.31267 0.0
H596 H 0.41845 0.0643 0.24885 0.0
C597 C 0.35749 0.13215 0.26234 0.0
C598 C 0.91399 0.9026 0.51169 0.0
C599 C 0.89474 0.87545 0.49295 0.0
H600 H 0.92 0.93328 0.56177 0.0
C601 C 0.86625 0.85785 0.5113 0.0
H602 H 0.93588 0.91673 0.49804 0.0
C603 C 0.85752 0.86694 0.54791 0.0
C604 C 0.87657 0.89437 0.56649 0.0
H605 H 0.85114 0.83669 0.49748 0.0
H606 H 0.83556 0.85292 0.56156 0.0
C607 C 0.90475 0.91224 0.54795 0.0
C608 C 0.23305 0.16498 0.16553 0.0
C609 C 0.23932 0.12772 0.16115 0.0
H610 H 0.20616 0.2068 0.19595 0.0
C611 C 0.2205 0.10365 0.18441 0.0
H612 H 0.24676 0.18431 0.14809 0.0
C613 C 0.197 0.11654 0.21197 0.0
C614 C 0.19144 0.15389 0.217 0.0
H615 H 0.22456 0.07475 0.18198 0.0
H616 H 0.18323 0.09713 0.22938 0.0
C617 C 0.20946 0.17789 0.19299 0.0
C618 C 0.82035 0.71001 0.44279 0.0
C619 C 0.84442 0.69116 0.46611 0.0
H620 H 0.81379 0.74779 0.39835 0.0
C621 C 0.88177 0.69575 0.46018 0.0
H622 H 0.79144 0.70754 0.44643 0.0
C623 C 0.8946 0.7191 0.43245 0.0
C624 C 0.87048 0.73872 0.40989 0.0
H625 H 0.90123 0.68137 0.47704 0.0
H626 H 0.92352 0.7224 0.42935 0.0
C627 C 0.83319 0.73341 0.41517 0.0
C628 C 0.29632 0.32456 0.68604 0.0
C629 C 0.30964 0.34737 0.71431 0.0
H630 H 0.26316 0.31948 0.63742 0.0
C631 C 0.29955 0.38413 0.71332 0.0
H632 H 0.30326 0.29618 0.68536 0.0
C633 C 0.2759 0.39724 0.686 0.0
C634 C 0.26157 0.37406 0.65877 0.0
H635 H 0.30958 0.40295 0.73382 0.0
H636 H 0.26796 0.42541 0.68698 0.0
C637 C 0.27282 0.33779 0.65862 0.0
C638 C 0.61521 0.79808 0.964 0.0
C639 C 0.65186 0.80846 0.96493 0.0
H640 H 0.5741 0.76643 0.93747 0.0
C641 C 0.6747 0.79558 0.93652 0.0
H642 H 0.59641 0.80783 0.98465 0.0
C643 C 0.66158 0.7722 0.90894 0.0
C644 C 0.62539 0.76071 0.90906 0.0
H645 H 0.70301 0.8028 0.93591 0.0
H646 H 0.6799 0.76282 0.88762 0.0
C647 C 0.60219 0.77459 0.93649 0.0
C648 C 0.2035 0.32482 0.12349 0.0
C649 C 0.19053 0.34778 0.09523 0.0
H650 H 0.23646 0.31941 0.17221 0.0
C651 C 0.20098 0.38441 0.09622 0.0
H652 H 0.19623 0.29652 0.12404 0.0
C653 C 0.22462 0.3973 0.12365 0.0
C654 C 0.23859 0.37399 0.15092 0.0
H655 H 0.19115 0.40329 0.07568 0.0
H656 H 0.23282 0.42539 0.12273 0.0
C657 C 0.22703 0.33781 0.151 0.0
C658 C 0.66094 0.72701 0.40111 0.0
C659 C 0.6247 0.73836 0.40083 0.0
H660 H 0.70247 0.69625 0.37466 0.0
C661 C 0.60148 0.72385 0.37375 0.0
H662 H 0.67928 0.73682 0.42222 0.0
C663 C 0.61454 0.69993 0.34666 0.0
C664 C 0.65128 0.68976 0.34578 0.0
H665 H 0.57333 0.73186 0.3727 0.0
H666 H 0.5957 0.68976 0.32625 0.0
C667 C 0.67411 0.70325 0.37393 0.0
C668 C 0.26648 0.1653 0.64712 0.0
C669 C 0.26036 0.12807 0.65175 0.0
H670 H 0.29314 0.20702 0.61653 0.0
C671 C 0.27947 0.10391 0.62878 0.0
H672 H 0.2526 0.18471 0.66437 0.0
C673 C 0.30305 0.11669 0.60122 0.0
C674 C 0.30838 0.15403 0.59589 0.0
H675 H 0.27554 0.07501 0.63138 0.0
H676 H 0.31698 0.0972 0.58401 0.0
C677 C 0.29008 0.17811 0.61967 0.0
C678 C 0.83381 0.76613 0.89513 0.0
C679 C 0.87107 0.7605 0.90025 0.0
H680 H 0.79211 0.79254 0.86419 0.0
C681 C 0.89525 0.78016 0.87786 0.0
H682 H 0.81438 0.75175 0.91187 0.0
C683 C 0.88248 0.80384 0.85038 0.0
C684 C 0.84514 0.80871 0.84457 0.0
H685 H 0.92416 0.77663 0.88088 0.0
H686 H 0.90197 0.81824 0.83361 0.0
C687 C 0.82102 0.78984 0.86776 0.0
C688 C 0.70137 0.61503 0.71522 0.0
C689 C 0.69065 0.6516 0.7159 0.0
H690 H 0.73348 0.57405 0.68908 0.0
C691 C 0.70352 0.67444 0.68753 0.0
H692 H 0.69164 0.59622 0.73586 0.0
C693 C 0.72717 0.6614 0.66017 0.0
C694 C 0.73894 0.62528 0.66051 0.0
H695 H 0.69604 0.70269 0.68675 0.0
H696 H 0.73648 0.67971 0.63884 0.0
C697 C 0.72512 0.60209 0.68794 0.0
C698 C 0.38244 0.19553 0.9602 0.0
C699 C 0.34508 0.19045 0.96567 0.0
H700 H 0.42419 0.22286 0.92999 0.0
C701 C 0.32104 0.2091 0.94214 0.0
H702 H 0.40189 0.18133 0.97722 0.0
C703 C 0.3339 0.23277 0.91477 0.0
C704 C 0.37116 0.23859 0.90998 0.0
H705 H 0.29212 0.20624 0.94542 0.0
H706 H 0.31451 0.24694 0.89774 0.0
C707 C 0.39527 0.21917 0.93273 0.0
C708 C 0.79918 0.88385 0.21285 0.0
C709 C 0.80929 0.8471 0.21398 0.0
H710 H 0.76748 0.92499 0.18641 0.0
C711 C 0.79588 0.82415 0.18588 0.0
H712 H 0.80927 0.90275 0.23324 0.0
C713 C 0.77228 0.83724 0.15848 0.0
C714 C 0.76102 0.87351 0.15848 0.0
H715 H 0.80283 0.79577 0.18533 0.0
H716 H 0.76254 0.81881 0.13741 0.0
C717 C 0.77543 0.89682 0.18555 0.0
C718 C 0.10186 0.27457 0.43791 0.0
C719 C 0.12489 0.26062 0.41038 0.0
H720 H 0.0963 0.30809 0.4859 0.0
C721 C 0.16104 0.27226 0.4099 0.0
H722 H 0.0738 0.26631 0.43916 0.0
C723 C 0.17428 0.29586 0.43723 0.0
C724 C 0.1516 0.30884 0.46573 0.0
H725 H 0.17924 0.26284 0.3885 0.0
H726 H 0.20255 0.3032 0.43634 0.0
C727 C 0.11499 0.29828 0.46516 0.0
C728 C 0.70964 0.82131 0.61751 0.0
C729 C 0.69163 0.84533 0.59347 0.0
H730 H 0.74704 0.81486 0.66236 0.0
C731 C 0.69729 0.88267 0.59841 0.0
H732 H 0.70624 0.79241 0.61462 0.0
C733 C 0.72091 0.89554 0.62589 0.0
C734 C 0.73974 0.87145 0.64915 0.0
H735 H 0.68353 0.90209 0.58097 0.0
H736 H 0.72507 0.92443 0.62824 0.0
C737 C 0.73333 0.8342 0.64489 0.0
C738 C 0.10186 0.22506 0.87438 0.0
C739 C 0.12511 0.23903 0.90173 0.0
H740 H 0.09595 0.19145 0.82649 0.0
C741 C 0.16125 0.22733 0.90204 0.0
H742 H 0.0738 0.23337 0.87328 0.0
C743 C 0.17427 0.20364 0.87469 0.0
C744 C 0.15138 0.19067 0.84635 0.0
H745 H 0.17961 0.23679 0.92329 0.0
H746 H 0.20254 0.19626 0.8754 0.0
C747 C 0.11478 0.20127 0.84711 0.0
C748 C 0.80348 0.61692 0.10063 0.0
C749 C 0.80844 0.6543 0.09519 0.0
H750 H 0.77621 0.57507 0.13075 0.0
C751 C 0.78968 0.67828 0.11869 0.0
H752 H 0.81777 0.59752 0.08363 0.0
C753 C 0.766 0.66533 0.14599 0.0
C754 C 0.76027 0.62804 0.15073 0.0
H755 H 0.79245 0.70721 0.11543 0.0
H756 H 0.75173 0.68467 0.16298 0.0
C757 C 0.77982 0.604 0.12803 0.0
C758 C 0.38238 0.30188 0.34924 0.0
C759 C 0.34505 0.30759 0.3442 0.0
H760 H 0.42403 0.27419 0.3793 0.0
C761 C 0.32097 0.28973 0.36825 0.0
H762 H 0.40184 0.31551 0.33179 0.0
C763 C 0.33377 0.26615 0.39576 0.0
C764 C 0.371 0.25972 0.40016 0.0
H765 H 0.29207 0.29317 0.36528 0.0
H766 H 0.31438 0.25257 0.41324 0.0
C767 C 0.39515 0.27838 0.37687 0.0
C768 C 0.03609 0.9937 0.32317 0.0
C769 C 0.02709 0.02582 0.30424 0.0
H770 H 0.02033 0.94005 0.33832 0.0
C771 C 0.99461 0.02668 0.28381 0.0
H772 H 0.06021 0.99194 0.34006 0.0
C773 C 0.97124 0.99688 0.28362 0.0
C774 C 0.98013 0.96529 0.30323 0.0
H775 H 0.9869 0.05052 0.26831 0.0
H776 H 0.94597 0.99866 0.26854 0.0
C777 C 0.0131 0.96379 0.32236 0.0
C778 C 0.994 0.4637 0.57176 0.0
C779 C 0.02653 0.47298 0.55377 0.0
H780 H 0.94008 0.47938 0.58609 0.0
C781 C 0.02787 0.50586 0.53407 0.0
H782 H 0.99182 0.43926 0.58805 0.0
C783 C 0.99816 0.52937 0.53382 0.0
C784 C 0.96617 0.52021 0.55254 0.0
H785 H 0.052 0.5138 0.51923 0.0
H786 H 0.00032 0.55497 0.51942 0.0
C787 C 0.96417 0.48683 0.57083 0.0
C788 C 0.51372 0.46324 0.82104 0.0
C789 C 0.48035 0.46512 0.80268 0.0
H790 H 0.5612 0.49108 0.83826 0.0
C791 C 0.47112 0.49702 0.78379 0.0
H792 H 0.52122 0.43922 0.83641 0.0
C793 C 0.4945 0.52679 0.78403 0.0
C794 C 0.52734 0.52559 0.80385 0.0
H795 H 0.44554 0.49908 0.7693 0.0
H796 H 0.4865 0.55089 0.76914 0.0
C797 C 0.53675 0.49313 0.82191 0.0
C798 C 0.46352 0.98516 0.07109 0.0
C799 C 0.46525 0.01845 0.05261 0.0
H800 H 0.49149 0.93771 0.08819 0.0
C801 C 0.49699 0.02758 0.03342 0.0
H802 H 0.43964 0.97774 0.08669 0.0
C803 C 0.52676 0.00415 0.03346 0.0
C804 C 0.52572 0.97138 0.05336 0.0
H805 H 0.49894 0.05309 1.01884 0.0
H806 H 0.55074 0.01207 1.01834 0.0
C807 C 0.49341 0.9621 0.07175 0.0
C808 C 0.03692 0.50651 0.98839 0.0
C809 C 0.02792 0.47429 1.00709 0.0
H810 H 0.02099 0.56017 0.97335 0.0
C811 C 0.99541 0.47327 1.0274 0.0
H812 H 0.0611 0.5084 0.97164 0.0
C813 C 0.97192 0.50299 1.02758 0.0
C814 C 0.98075 0.53464 1.0081 0.0
H815 H 0.98773 0.44935 0.04275 0.0
H816 H 0.94659 0.50107 0.0425 0.0
C817 C 0.01381 0.53635 0.98919 0.0
C818 C 0.47203 0.50453 0.27672 0.0
C819 C 0.47322 0.47171 0.25687 0.0
H820 H 0.49971 0.55355 0.29137 0.0
C821 C 0.50562 0.46241 0.23862 0.0
H822 H 0.44799 0.51247 0.29174 0.0
C823 C 0.53546 0.48549 0.2394 0.0
C824 C 0.53359 0.51883 0.25782 0.0
H825 H 0.50765 0.43799 0.22222 0.0
H826 H 0.55943 0.47805 0.22392 0.0
C827 C 0.50176 0.52798 0.27685 0.0
C828 C 0.53625 0.00574 0.4883 0.0
C829 C 0.52731 0.97347 0.50696 0.0
H830 H 0.5203 0.05944 0.47344 0.0
C831 C 0.4948 0.9724 0.5273 0.0
H832 H 0.56039 0.00768 0.4715 0.0
C833 C 0.47131 0.00212 0.52757 0.0
C834 C 0.48012 0.03383 0.50818 0.0
H835 H 0.48715 0.94846 0.54262 0.0
H836 H 0.44599 0.00016 0.5425 0.0
C837 C 0.51314 0.03557 0.48921 0.0
C838 C 0.02761 0.99397 0.77666 0.0
C839 C 0.02629 0.02698 0.75723 0.0
H840 H -1e-05 0.94488 0.79099 0.0
C841 C 0.99373 0.03655 0.7394 0.0
H842 H 0.05181 0.98583 0.79135 0.0
C843 C 0.96386 0.01353 0.74015 0.0
C844 C 0.96584 0.98 0.75815 0.0
H845 H 0.9916 0.06116 0.72334 0.0
H846 H 0.93977 0.02117 0.72495 0.0
C847 C 0.99784 0.97059 0.77679 0.0
C848 C 0.26183 0.18816 0.42471 0.0
C849 C 0.282 0.15621 0.42633 0.0
H850 H 0.21364 0.21367 0.40607 0.0
C851 C 0.26821 0.12437 0.41065 0.0
H852 H 0.27166 0.21278 0.43742 0.0
C853 C 0.23484 0.12489 0.39253 0.0
C854 C 0.21506 0.15721 0.39023 0.0
H855 H 0.28358 0.09945 0.41155 0.0
H856 H 0.22464 0.10018 0.38025 0.0
C857 C 0.22865 0.18866 0.40678 0.0
C858 C 0.87476 0.73521 0.64141 0.0
C859 C 0.84244 0.71546 0.63913 0.0
H860 H 0.9002 0.78397 0.66041 0.0
C861 C 0.81101 0.72911 0.65569 0.0
H862 H 0.89944 0.72496 0.62914 0.0
C863 C 0.81153 0.76229 0.6736 0.0
C864 C 0.84346 0.78243 0.6752 0.0
H865 H 0.78599 0.71415 0.65499 0.0
H866 H 0.78692 0.77213 0.68631 0.0
C867 C 0.87529 0.76861 0.65951 0.0
C868 C 0.22907 0.31073 0.90438 0.0
C869 C 0.21579 0.3422 0.92118 0.0
H870 H 0.27176 0.28644 0.87343 0.0
C871 C 0.23583 0.37434 0.91905 0.0
H872 H 0.21384 0.28586 0.90492 0.0
C873 C 0.26915 0.37467 0.90086 0.0
C874 C 0.28264 0.34282 0.88492 0.0
H875 H 0.22588 0.39907 0.93151 0.0
H876 H 0.2847 0.39947 0.90008 0.0
C877 C 0.26221 0.31104 0.88637 0.0
C878 C 0.68842 0.77015 0.15657 0.0
C879 C 0.65716 0.78343 0.13937 0.0
H880 H 0.71237 0.72743 0.18777 0.0
C881 C 0.62499 0.7634 0.14115 0.0
H882 H 0.71329 0.78539 0.15635 0.0
C883 C 0.62444 0.73007 0.15932 0.0
C884 C 0.65612 0.71656 0.17561 0.0
H885 H 0.60041 0.77336 0.12839 0.0
H886 H 0.59964 0.71452 0.1598 0.0
C887 C 0.68791 0.737 0.17455 0.0
C888 C 0.73539 0.62488 0.89188 0.0
C889 C 0.71545 0.65711 0.88969 0.0
H890 H 0.78425 0.59962 0.91082 0.0
C891 C 0.72885 0.68855 0.90644 0.0
H892 H 0.72533 0.60018 0.87946 0.0
C893 C 0.76201 0.68814 0.9244 0.0
C894 C 0.78236 0.6563 0.92587 0.0
H895 H 0.7137 0.71347 0.90586 0.0
H896 H 0.77168 0.71275 0.93727 0.0
C897 C 0.76875 0.62446 0.91003 0.0
C898 C 0.31107 0.23671 0.13643 0.0
C899 C 0.34297 0.21646 0.13496 0.0
H900 H 0.28562 0.28498 0.15492 0.0
C901 C 0.37478 0.23017 0.15076 0.0
H902 H 0.28648 0.22694 0.12362 0.0
C903 C 0.37428 0.26355 0.16886 0.0
C904 C 0.34201 0.28342 0.17102 0.0
H905 H 0.39967 0.21473 0.14997 0.0
H906 H 0.39897 0.2737 0.18123 0.0
C907 C 0.31059 0.26991 0.15433 0.0
C908 C 0.76869 0.87448 0.40046 0.0
C909 C 0.78213 0.84276 0.38419 0.0
H910 H 0.72541 0.89864 0.43129 0.0
C911 C 0.76159 0.81105 0.38516 0.0
H912 H 0.78434 0.89922 0.40006 0.0
C913 C 0.72838 0.81064 0.40302 0.0
C914 C 0.71516 0.84194 0.4202 0.0
H915 H 0.77112 0.78655 0.37196 0.0
H916 H 0.71305 0.78583 0.40317 0.0
C917 C 0.73531 0.87405 0.41853 0.0
C918 C 0.18854 0.23755 0.67415 0.0
C919 C 0.15668 0.21726 0.67544 0.0
H920 H 0.21396 0.28589 0.65589 0.0
C921 C 0.12493 0.23094 0.65942 0.0
H922 H 0.21304 0.22787 0.6872 0.0
C923 C 0.12546 0.26431 0.64136 0.0
C924 C 0.15768 0.28423 0.63941 0.0
H925 H 0.10006 0.21552 0.6601 0.0
H926 H 0.10082 0.27441 0.62885 0.0
C927 C 0.18904 0.27075 0.65626 0.0
loop_
_geom_bond_atom_site_label_1
_geom_bond_atom_site_label_2
_geom_bond_distance
_geom_bond_site_symmetry_2
_ccdc_geom_bond_type
Co0 N4 2.148 . S
Co0 N10 2.128 . S
Co0 N20 2.194 . S
Co0 O25 2.351 . S
Co0 O26 2.155 . S
Co0 O27 2.096 . S
C1 N4 1.301 . S
C1 N5 1.328 . S
C1 H6 0.930 . S
C2 C3 1.333 . S
C2 N4 1.317 . S
C2 H7 0.930 . S
C3 C2 1.333 . S
C3 N5 1.350 . S
C3 H29 0.931 . S
N4 Co0 2.148 . S
N4 C1 1.301 . S
N4 C2 1.317 . S
N5 C1 1.328 . S
N5 C3 1.350 . S
H6 C1 0.930 . S
H7 C2 0.930 . S
C8 O9 1.224 . S
C8 O27 1.247 . S
O9 C8 1.224 . S
N10 Co0 2.128 . S
N10 C11 1.355 . S
N10 C13 1.311 . S
C11 N10 1.355 . S
C11 C12 1.363 . S
C11 H23 0.929 . S
C12 C11 1.363 . S
C12 N14 1.375 . S
C12 H30 0.931 . S
C13 N10 1.311 . S
C13 N14 1.347 . S
C13 H24 0.929 . S
N14 C12 1.375 . S
N14 C13 1.347 . S
C15 C18 1.365 . S
C15 N20 1.328 . S
C15 H21 0.929 . S
C16 C17 1.362 . S
C16 C19 1.378 . S
C16 H31 0.929 . S
C17 C16 1.362 . S
C17 C18 1.366 . S
C18 C15 1.365 . S
C18 C17 1.366 . S
C18 H32 0.930 . S
C19 C16 1.378 . S
C19 N20 1.315 . S
C19 H22 0.930 . S
N20 Co0 2.194 . S
N20 C15 1.328 . S
N20 C19 1.315 . S
H21 C15 0.929 . S
H22 C19 0.930 . S
H23 C11 0.929 . S
H24 C13 0.929 . S
O25 Co0 2.351 . S
O25 C28 1.244 . S
O26 Co0 2.155 . S
O26 C28 1.240 . S
O27 Co0 2.096 . S
O27 C8 1.247 . S
C28 O25 1.244 . S
C28 O26 1.240 . S
H29 C3 0.931 . S
H30 C12 0.931 . S
H31 C16 0.929 . S
H32 C18 0.930 . S
Co33 N37 2.148 . S
Co33 N43 2.128 . S
Co33 N53 2.194 . S
Co33 O58 2.351 . S
Co33 O59 2.155 . S
Co33 O60 2.096 . S
C34 N37 1.301 . S
C34 N38 1.328 . S
C34 H39 0.930 . S
C35 C36 1.333 . S
C35 N37 1.317 . S
C35 H40 0.930 . S
C36 C35 1.333 . S
C36 N38 1.350 . S
C36 H62 0.931 . S
N37 Co33 2.148 . S
N37 C34 1.301 . S
N37 C35 1.317 . S
N38 C34 1.328 . S
N38 C36 1.350 . S
H39 C34 0.930 . S
H40 C35 0.930 . S
C41 O42 1.224 . S
C41 O60 1.247 . S
O42 C41 1.224 . S
N43 Co33 2.128 . S
N43 C44 1.355 . S
N43 C46 1.311 . S
C44 N43 1.355 . S
C44 C45 1.363 . S
C44 H56 0.929 . S
C45 C44 1.363 . S
C45 N47 1.375 . S
C45 H63 0.931 . S
C46 N43 1.311 . S
C46 N47 1.347 . S
C46 H57 0.929 . S
N47 C45 1.375 . S
N47 C46 1.347 . S
C48 C51 1.365 . S
C48 N53 1.328 . S
C48 H54 0.929 . S
C49 C50 1.362 . S
C49 C52 1.378 . S
C49 H64 0.929 . S
C50 C49 1.362 . S
C50 C51 1.366 . S
C51 C48 1.365 . S
C51 C50 1.366 . S
C51 H65 0.930 . S
C52 C49 1.378 . S
C52 N53 1.315 . S
C52 H55 0.930 . S
N53 Co33 2.194 . S
N53 C48 1.328 . S
N53 C52 1.315 . S
H54 C48 0.929 . S
H55 C52 0.930 . S
H56 C44 0.929 . S
H57 C46 0.929 . S
O58 Co33 2.351 . S
O58 C61 1.244 . S
O59 Co33 2.155 . S
O59 C61 1.240 . S
O60 Co33 2.096 . S
O60 C41 1.247 . S
C61 O58 1.244 . S
C61 O59 1.240 . S
H62 C36 0.931 . S
H63 C45 0.931 . S
H64 C49 0.929 . S
H65 C51 0.930 . S
Co66 N70 2.148 . S
Co66 N76 2.128 . S
Co66 N86 2.194 . S
Co66 O91 2.351 . S
Co66 O92 2.155 . S
Co66 O93 2.096 . S
C67 N70 1.301 . S
C67 N71 1.328 . S
C67 H72 0.930 . S
C68 C69 1.333 . S
C68 N70 1.317 . S
C68 H73 0.930 . S
C69 C68 1.333 . S
C69 N71 1.350 . S
C69 H95 0.931 . S
N70 Co66 2.148 . S
N70 C67 1.301 . S
N70 C68 1.317 . S
N71 C67 1.328 . S
N71 C69 1.350 . S
H72 C67 0.930 . S
H73 C68 0.930 . S
C74 O75 1.224 . S
C74 O93 1.247 . S
O75 C74 1.224 . S
N76 Co66 2.128 . S
N76 C77 1.355 . S
N76 C79 1.311 . S
C77 N76 1.355 . S
C77 C78 1.363 . S
C77 H89 0.929 . S
C78 C77 1.363 . S
C78 N80 1.375 . S
C78 H96 0.931 . S
C79 N76 1.311 . S
C79 N80 1.347 . S
C79 H90 0.929 . S
N80 C78 1.375 . S
N80 C79 1.347 . S
C81 C84 1.365 . S
C81 N86 1.328 . S
C81 H87 0.929 . S
C82 C83 1.362 . S
C82 C85 1.378 . S
C82 H97 0.929 . S
C83 C82 1.362 . S
C83 C84 1.366 . S
C84 C81 1.365 . S
C84 C83 1.366 . S
C84 H98 0.930 . S
C85 C82 1.378 . S
C85 N86 1.315 . S
C85 H88 0.930 . S
N86 Co66 2.194 . S
N86 C81 1.328 . S
N86 C85 1.315 . S
H87 C81 0.929 . S
H88 C85 0.930 . S
H89 C77 0.929 . S
H90 C79 0.929 . S
O91 Co66 2.351 . S
O91 C94 1.244 . S
O92 Co66 2.155 . S
O92 C94 1.240 . S
O93 Co66 2.096 . S
O93 C74 1.247 . S
C94 O91 1.244 . S
C94 O92 1.240 . S
H95 C69 0.931 . S
H96 C78 0.931 . S
H97 C82 0.929 . S
H98 C84 0.930 . S
Co99 N103 2.148 . S
Co99 N109 2.128 . S
Co99 N119 2.194 . S
Co99 O124 2.351 . S
Co99 O125 2.155 . S
Co99 O126 2.096 . S
C100 N103 1.301 . S
C100 N104 1.328 1_554 S
C100 H105 0.930 . S
C101 C102 1.333 1_554 S
C101 N103 1.317 . S
C101 H106 0.930 . S
C102 C101 1.333 1_556 S
C102 N104 1.350 . S
C102 H128 0.931 . S
N103 Co99 2.148 . S
N103 C100 1.301 . S
N103 C101 1.317 . S
N104 C100 1.328 1_556 S
N104 C102 1.350 . S
H105 C100 0.930 . S
H106 C101 0.930 . S
C107 O108 1.224 . S
C107 O126 1.247 . S
O108 C107 1.224 . S
N109 Co99 2.128 . S
N109 C110 1.355 . S
N109 C112 1.311 . S
C110 N109 1.355 . S
C110 C111 1.363 . S
C110 H122 0.929 . S
C111 C110 1.363 . S
C111 N113 1.375 . S
C111 H129 0.931 . S
C112 N109 1.311 . S
C112 N113 1.347 . S
C112 H123 0.929 . S
N113 C111 1.375 . S
N113 C112 1.347 . S
C114 C117 1.365 . S
C114 N119 1.328 . S
C114 H120 0.929 . S
C115 C116 1.362 . S
C115 C118 1.378 . S
C115 H130 0.929 . S
C116 C115 1.362 . S
C116 C117 1.366 . S
C117 C114 1.365 . S
C117 C116 1.366 . S
C117 H131 0.930 . S
C118 C115 1.378 . S
C118 N119 1.315 . S
C118 H121 0.930 . S
N119 Co99 2.194 . S
N119 C114 1.328 . S
N119 C118 1.315 . S
H120 C114 0.929 . S
H121 C118 0.930 . S
H122 C110 0.929 . S
H123 C112 0.929 . S
O124 Co99 2.351 . S
O124 C127 1.244 . S
O125 Co99 2.155 . S
O125 C127 1.240 . S
O126 Co99 2.096 . S
O126 C107 1.247 . S
C127 O124 1.244 . S
C127 O125 1.240 . S
H128 C102 0.931 . S
H129 C111 0.931 . S
H130 C115 0.929 . S
H131 C117 0.930 . S
Co132 N136 2.148 . S
Co132 N142 2.128 . S
Co132 N152 2.194 . S
Co132 O157 2.351 . S
Co132 O158 2.155 . S
Co132 O159 2.096 . S
C133 N136 1.301 . S
C133 N137 1.328 1_556 S
C133 H138 0.930 . S
C134 C135 1.333 1_556 S
C134 N136 1.317 . S
C134 H139 0.930 . S
C135 C134 1.333 1_554 S
C135 N137 1.350 . S
C135 H161 0.931 . S
N136 Co132 2.148 . S
N136 C133 1.301 . S
N136 C134 1.317 . S
N137 C133 1.328 1_554 S
N137 C135 1.350 . S
H138 C133 0.930 . S
H139 C134 0.930 . S
C140 O141 1.224 . S
C140 O159 1.247 . S
O141 C140 1.224 . S
N142 Co132 2.128 . S
N142 C143 1.355 . S
N142 C145 1.311 . S
C143 N142 1.355 . S
C143 C144 1.363 . S
C143 H155 0.929 . S
C144 C143 1.363 . S
C144 N146 1.375 . S
C144 H162 0.931 . S
C145 N142 1.311 . S
C145 N146 1.347 . S
C145 H156 0.929 . S
N146 C144 1.375 . S
N146 C145 1.347 . S
C147 C150 1.365 . S
C147 N152 1.328 . S
C147 H153 0.929 . S
C148 C149 1.362 . S
C148 C151 1.378 . S
C148 H163 0.929 . S
C149 C148 1.362 . S
C149 C150 1.366 . S
C150 C147 1.365 . S
C150 C149 1.366 . S
C150 H164 0.930 . S
C151 C148 1.378 . S
C151 N152 1.315 . S
C151 H154 0.930 . S
N152 Co132 2.194 . S
N152 C147 1.328 . S
N152 C151 1.315 . S
H153 C147 0.929 . S
H154 C151 0.930 . S
H155 C143 0.929 . S
H156 C145 0.929 . S
O157 Co132 2.351 . S
O157 C160 1.244 . S
O158 Co132 2.155 . S
O158 C160 1.240 . S
O159 Co132 2.096 . S
O159 C140 1.247 . S
C160 O157 1.244 . S
C160 O158 1.240 . S
H161 C135 0.931 . S
H162 C144 0.931 . S
H163 C148 0.929 . S
H164 C150 0.930 . S
Co165 N169 2.148 . S
Co165 N175 2.128 . S
Co165 N185 2.194 . S
Co165 O190 2.351 . S
Co165 O191 2.155 . S
Co165 O192 2.096 . S
C166 N169 1.301 . S
C166 N170 1.328 . S
C166 H171 0.930 . S
C167 C168 1.333 . S
C167 N169 1.317 . S
C167 H172 0.930 . S
C168 C167 1.333 . S
C168 N170 1.350 . S
C168 H194 0.931 . S
N169 Co165 2.148 . S
N169 C166 1.301 . S
N169 C167 1.317 . S
N170 C166 1.328 . S
N170 C168 1.350 . S
H171 C166 0.930 . S
H172 C167 0.930 . S
C173 O174 1.224 . S
C173 O192 1.247 . S
O174 C173 1.224 . S
N175 Co165 2.128 . S
N175 C176 1.355 . S
N175 C178 1.311 . S
C176 N175 1.355 . S
C176 C177 1.363 . S
C176 H188 0.929 . S
C177 C176 1.363 . S
C177 N179 1.375 . S
C177 H195 0.931 . S
C178 N175 1.311 . S
C178 N179 1.347 . S
C178 H189 0.929 . S
N179 C177 1.375 . S
N179 C178 1.347 . S
C180 C183 1.365 . S
C180 N185 1.328 . S
C180 H186 0.929 . S
C181 C182 1.362 . S
C181 C184 1.378 . S
C181 H196 0.929 . S
C182 C181 1.362 . S
C182 C183 1.366 . S
C183 C180 1.365 . S
C183 C182 1.366 . S
C183 H197 0.930 . S
C184 C181 1.378 . S
C184 N185 1.315 . S
C184 H187 0.930 . S
N185 Co165 2.194 . S
N185 C180 1.328 . S
N185 C184 1.315 . S
H186 C180 0.929 . S
H187 C184 0.930 . S
H188 C176 0.929 . S
H189 C178 0.929 . S
O190 Co165 2.351 . S
O190 C193 1.244 . S
O191 Co165 2.155 . S
O191 C193 1.240 . S
O192 Co165 2.096 . S
O192 C173 1.247 . S
C193 O190 1.244 . S
C193 O191 1.240 . S
H194 C168 0.931 . S
H195 C177 0.931 . S
H196 C181 0.929 . S
H197 C183 0.930 . S
Co198 N202 2.148 . S
Co198 N208 2.128 . S
Co198 N218 2.194 . S
Co198 O223 2.351 . S
Co198 O224 2.155 . S
Co198 O225 2.096 . S
C199 N202 1.301 . S
C199 N203 1.328 . S
C199 H204 0.930 . S
C200 C201 1.333 . S
C200 N202 1.317 . S
C200 H205 0.930 . S
C201 C200 1.333 . S
C201 N203 1.350 . S
C201 H227 0.931 . S
N202 Co198 2.148 . S
N202 C199 1.301 . S
N202 C200 1.317 . S
N203 C199 1.328 . S
N203 C201 1.350 . S
H204 C199 0.930 . S
H205 C200 0.930 . S
C206 O207 1.224 . S
C206 O225 1.247 . S
O207 C206 1.224 . S
N208 Co198 2.128 . S
N208 C209 1.355 . S
N208 C211 1.311 . S
C209 N208 1.355 . S
C209 C210 1.363 . S
C209 H221 0.929 . S
C210 C209 1.363 . S
C210 N212 1.375 . S
C210 H228 0.931 . S
C211 N208 1.311 . S
C211 N212 1.347 . S
C211 H222 0.929 . S
N212 C210 1.375 . S
N212 C211 1.347 . S
C213 C216 1.365 . S
C213 N218 1.328 . S
C213 H219 0.929 . S
C214 C215 1.362 . S
C214 C217 1.378 . S
C214 H229 0.929 . S
C215 C214 1.362 . S
C215 C216 1.366 . S
C216 C213 1.365 . S
C216 C215 1.366 . S
C216 H230 0.930 . S
C217 C214 1.378 . S
C217 N218 1.315 . S
C217 H220 0.930 . S
N218 Co198 2.194 . S
N218 C213 1.328 . S
N218 C217 1.315 . S
H219 C213 0.929 . S
H220 C217 0.930 . S
H221 C209 0.929 . S
H222 C211 0.929 . S
O223 Co198 2.351 . S
O223 C226 1.244 . S
O224 Co198 2.155 . S
O224 C226 1.240 . S
O225 Co198 2.096 . S
O225 C206 1.247 . S
C226 O223 1.244 . S
C226 O224 1.240 . S
H227 C201 0.931 . S
H228 C210 0.931 . S
H229 C214 0.929 . S
H230 C216 0.930 . S
Co231 N235 2.148 . S
Co231 N241 2.128 . S
Co231 N251 2.194 . S
Co231 O256 2.351 . S
Co231 O257 2.155 . S
Co231 O258 2.096 . S
C232 N235 1.301 . S
C232 N236 1.328 . S
C232 H237 0.930 . S
C233 C234 1.333 . S
C233 N235 1.317 . S
C233 H238 0.930 . S
C234 C233 1.333 . S
C234 N236 1.350 . S
C234 H260 0.931 . S
N235 Co231 2.148 . S
N235 C232 1.301 . S
N235 C233 1.317 . S
N236 C232 1.328 . S
N236 C234 1.350 . S
H237 C232 0.930 . S
H238 C233 0.930 . S
C239 O240 1.224 . S
C239 O258 1.247 . S
O240 C239 1.224 . S
N241 Co231 2.128 . S
N241 C242 1.355 . S
N241 C244 1.311 . S
C242 N241 1.355 . S
C242 C243 1.363 . S
C242 H254 0.929 . S
C243 C242 1.363 . S
C243 N245 1.375 . S
C243 H261 0.931 . S
C244 N241 1.311 . S
C244 N245 1.347 . S
C244 H255 0.929 . S
N245 C243 1.375 . S
N245 C244 1.347 . S
C246 C249 1.365 . S
C246 N251 1.328 . S
C246 H252 0.929 . S
C247 C248 1.362 . S
C247 C250 1.378 . S
C247 H262 0.929 . S
C248 C247 1.362 . S
C248 C249 1.366 . S
C249 C246 1.365 . S
C249 C248 1.366 . S
C249 H263 0.930 . S
C250 C247 1.378 . S
C250 N251 1.315 . S
C250 H253 0.930 . S
N251 Co231 2.194 . S
N251 C246 1.328 . S
N251 C250 1.315 . S
H252 C246 0.929 . S
H253 C250 0.930 . S
H254 C242 0.929 . S
H255 C244 0.929 . S
O256 Co231 2.351 . S
O256 C259 1.244 . S
O257 Co231 2.155 . S
O257 C259 1.240 . S
O258 Co231 2.096 . S
O258 C239 1.247 . S
C259 O256 1.244 . S
C259 O257 1.240 . S
H260 C234 0.931 . S
H261 C243 0.931 . S
H262 C247 0.929 . S
H263 C249 0.930 . S
Co264 N268 2.148 . S
Co264 N274 2.128 . S
Co264 N284 2.194 . S
Co264 O289 2.351 . S
Co264 O290 2.155 . S
Co264 O291 2.096 . S
C265 N268 1.301 . S
C265 N269 1.328 . S
C265 H270 0.930 . S
C266 C267 1.333 . S
C266 N268 1.317 . S
C266 H271 0.930 . S
C267 C266 1.333 . S
C267 N269 1.350 . S
C267 H293 0.931 . S
N268 Co264 2.148 . S
N268 C265 1.301 . S
N268 C266 1.317 . S
N269 C265 1.328 . S
N269 C267 1.350 . S
H270 C265 0.930 . S
H271 C266 0.930 . S
C272 O273 1.224 . S
C272 O291 1.247 . S
O273 C272 1.224 . S
N274 Co264 2.128 . S
N274 C275 1.355 . S
N274 C277 1.311 . S
C275 N274 1.355 . S
C275 C276 1.363 . S
C275 H287 0.929 . S
C276 C275 1.363 . S
C276 N278 1.375 . S
C276 H294 0.931 . S
C277 N274 1.311 . S
C277 N278 1.347 . S
C277 H288 0.929 . S
N278 C276 1.375 . S
N278 C277 1.347 . S
C279 C282 1.365 . S
C279 N284 1.328 . S
C279 H285 0.929 . S
C280 C281 1.362 . S
C280 C283 1.378 . S
C280 H295 0.929 . S
C281 C280 1.362 . S
C281 C282 1.366 . S
C282 C279 1.365 . S
C282 C281 1.366 . S
C282 H296 0.930 . S
C283 C280 1.378 . S
C283 N284 1.315 . S
C283 H286 0.930 . S
N284 Co264 2.194 . S
N284 C279 1.328 . S
N284 C283 1.315 . S
H285 C279 0.929 . S
H286 C283 0.930 . S
H287 C275 0.929 . S
H288 C277 0.929 . S
O289 Co264 2.351 . S
O289 C292 1.244 . S
O290 Co264 2.155 . S
O290 C292 1.240 . S
O291 Co264 2.096 . S
O291 C272 1.247 . S
C292 O289 1.244 . S
C292 O290 1.240 . S
H293 C267 0.931 . S
H294 C276 0.931 . S
H295 C280 0.929 . S
H296 C282 0.930 . S
Co297 N301 2.148 . S
Co297 N307 2.128 . S
Co297 N317 2.194 . S
Co297 O322 2.351 . S
Co297 O323 2.155 . S
Co297 O324 2.096 . S
C298 N301 1.301 . S
C298 N302 1.328 1_554 S
C298 H303 0.930 . S
C299 C300 1.333 1_554 S
C299 N301 1.317 . S
C299 H304 0.930 . S
C300 C299 1.333 1_556 S
C300 N302 1.350 . S
C300 H326 0.931 . S
N301 Co297 2.148 . S
N301 C298 1.301 . S
N301 C299 1.317 . S
N302 C298 1.328 1_556 S
N302 C300 1.350 . S
H303 C298 0.930 . S
H304 C299 0.930 . S
C305 O306 1.224 . S
C305 O324 1.247 . S
O306 C305 1.224 . S
N307 Co297 2.128 . S
N307 C308 1.355 . S
N307 C310 1.311 . S
C308 N307 1.355 . S
C308 C309 1.363 . S
C308 H320 0.929 . S
C309 C308 1.363 . S
C309 N311 1.375 . S
C309 H327 0.931 . S
C310 N307 1.311 . S
C310 N311 1.347 . S
C310 H321 0.929 . S
N311 C309 1.375 . S
N311 C310 1.347 . S
C312 C315 1.365 . S
C312 N317 1.328 . S
C312 H318 0.929 . S
C313 C314 1.362 . S
C313 C316 1.378 . S
C313 H328 0.929 . S
C314 C313 1.362 . S
C314 C315 1.366 . S
C315 C312 1.365 . S
C315 C314 1.366 . S
C315 H329 0.930 . S
C316 C313 1.378 . S
C316 N317 1.315 . S
C316 H319 0.930 . S
N317 Co297 2.194 . S
N317 C312 1.328 . S
N317 C316 1.315 . S
H318 C312 0.929 . S
H319 C316 0.930 . S
H320 C308 0.929 . S
H321 C310 0.929 . S
O322 Co297 2.351 . S
O322 C325 1.244 . S
O323 Co297 2.155 . S
O323 C325 1.240 . S
O324 Co297 2.096 . S
O324 C305 1.247 . S
C325 O322 1.244 . S
C325 O323 1.240 . S
H326 C300 0.931 . S
H327 C309 0.931 . S
H328 C313 0.929 . S
H329 C315 0.930 . S
Co330 N334 2.148 . S
Co330 N340 2.128 . S
Co330 N350 2.194 . S
Co330 O355 2.351 . S
Co330 O356 2.155 . S
Co330 O357 2.096 . S
C331 N334 1.301 . S
C331 N335 1.328 . S
C331 H336 0.930 . S
C332 C333 1.333 . S
C332 N334 1.317 . S
C332 H337 0.930 . S
C333 C332 1.333 . S
C333 N335 1.350 . S
C333 H359 0.931 . S
N334 Co330 2.148 . S
N334 C331 1.301 . S
N334 C332 1.317 . S
N335 C331 1.328 . S
N335 C333 1.350 . S
H336 C331 0.930 . S
H337 C332 0.930 . S
C338 O339 1.224 . S
C338 O357 1.247 . S
O339 C338 1.224 . S
N340 Co330 2.128 . S
N340 C341 1.355 . S
N340 C343 1.311 . S
C341 N340 1.355 . S
C341 C342 1.363 . S
C341 H353 0.929 . S
C342 C341 1.363 . S
C342 N344 1.375 . S
C342 H360 0.931 . S
C343 N340 1.311 . S
C343 N344 1.347 . S
C343 H354 0.929 . S
N344 C342 1.375 . S
N344 C343 1.347 . S
C345 C348 1.365 . S
C345 N350 1.328 . S
C345 H351 0.929 . S
C346 C347 1.362 . S
C346 C349 1.378 . S
C346 H361 0.929 . S
C347 C346 1.362 . S
C347 C348 1.366 . S
C348 C345 1.365 . S
C348 C347 1.366 . S
C348 H362 0.930 . S
C349 C346 1.378 . S
C349 N350 1.315 . S
C349 H352 0.930 . S
N350 Co330 2.194 . S
N350 C345 1.328 . S
N350 C349 1.315 . S
H351 C345 0.929 . S
H352 C349 0.930 . S
H353 C341 0.929 . S
H354 C343 0.929 . S
O355 Co330 2.351 . S
O355 C358 1.244 . S
O356 Co330 2.155 . S
O356 C358 1.240 . S
O357 Co330 2.096 . S
O357 C338 1.247 . S
C358 O355 1.244 . S
C358 O356 1.240 . S
H359 C333 0.931 . S
H360 C342 0.931 . S
H361 C346 0.929 . S
H362 C348 0.930 . S
Co363 N367 2.148 . S
Co363 N373 2.128 . S
Co363 N383 2.194 . S
Co363 O388 2.351 . S
Co363 O389 2.155 . S
Co363 O390 2.096 . S
C364 N367 1.301 . S
C364 N368 1.328 . S
C364 H369 0.930 . S
C365 C366 1.333 . S
C365 N367 1.317 . S
C365 H370 0.930 . S
C366 C365 1.333 . S
C366 N368 1.350 . S
C366 H392 0.931 . S
N367 Co363 2.148 . S
N367 C364 1.301 . S
N367 C365 1.317 . S
N368 C364 1.328 . S
N368 C366 1.350 . S
H369 C364 0.930 . S
H370 C365 0.930 . S
C371 O372 1.224 . S
C371 O390 1.247 . S
O372 C371 1.224 . S
N373 Co363 2.128 . S
N373 C374 1.355 . S
N373 C376 1.311 . S
C374 N373 1.355 . S
C374 C375 1.363 . S
C374 H386 0.929 . S
C375 C374 1.363 . S
C375 N377 1.375 . S
C375 H393 0.931 . S
C376 N373 1.311 . S
C376 N377 1.347 . S
C376 H387 0.929 . S
N377 C375 1.375 . S
N377 C376 1.347 . S
C378 C381 1.365 . S
C378 N383 1.328 . S
C378 H384 0.929 . S
C379 C380 1.362 . S
C379 C382 1.378 . S
C379 H394 0.929 . S
C380 C379 1.362 . S
C380 C381 1.366 . S
C381 C378 1.365 . S
C381 C380 1.366 . S
C381 H395 0.930 . S
C382 C379 1.378 . S
C382 N383 1.315 . S
C382 H385 0.930 . S
N383 Co363 2.194 . S
N383 C378 1.328 . S
N383 C382 1.315 . S
H384 C378 0.929 . S
H385 C382 0.930 . S
H386 C374 0.929 . S
H387 C376 0.929 . S
O388 Co363 2.351 . S
O388 C391 1.244 . S
O389 Co363 2.155 . S
O389 C391 1.240 . S
O390 Co363 2.096 . S
O390 C371 1.247 . S
C391 O388 1.244 . S
C391 O389 1.240 . S
H392 C366 0.931 . S
H393 C375 0.931 . S
H394 C379 0.929 . S
H395 C381 0.930 . S
Co396 N400 2.148 . S
Co396 N406 2.128 . S
Co396 N416 2.194 . S
Co396 O421 2.351 . S
Co396 O422 2.155 . S
Co396 O423 2.096 . S
C397 N400 1.301 . S
C397 N401 1.328 . S
C397 H402 0.930 . S
C398 C399 1.333 . S
C398 N400 1.317 . S
C398 H403 0.930 . S
C399 C398 1.333 . S
C399 N401 1.350 . S
C399 H425 0.931 . S
N400 Co396 2.148 . S
N400 C397 1.301 . S
N400 C398 1.317 . S
N401 C397 1.328 . S
N401 C399 1.350 . S
H402 C397 0.930 . S
H403 C398 0.930 . S
C404 O405 1.224 . S
C404 O423 1.247 . S
O405 C404 1.224 . S
N406 Co396 2.128 . S
N406 C407 1.355 . S
N406 C409 1.311 . S
C407 N406 1.355 . S
C407 C408 1.363 . S
C407 H419 0.929 . S
C408 C407 1.363 . S
C408 N410 1.375 . S
C408 H426 0.931 . S
C409 N406 1.311 . S
C409 N410 1.347 . S
C409 H420 0.929 . S
N410 C408 1.375 . S
N410 C409 1.347 . S
C411 C414 1.365 . S
C411 N416 1.328 . S
C411 H417 0.929 . S
C412 C413 1.362 . S
C412 C415 1.378 . S
C412 H427 0.929 . S
C413 C412 1.362 . S
C413 C414 1.366 . S
C414 C411 1.365 . S
C414 C413 1.366 . S
C414 H428 0.930 . S
C415 C412 1.378 . S
C415 N416 1.315 . S
C415 H418 0.930 . S
N416 Co396 2.194 . S
N416 C411 1.328 . S
N416 C415 1.315 . S
H417 C411 0.929 . S
H418 C415 0.930 . S
H419 C407 0.929 . S
H420 C409 0.929 . S
O421 Co396 2.351 . S
O421 C424 1.244 . S
O422 Co396 2.155 . S
O422 C424 1.240 . S
O423 Co396 2.096 . S
O423 C404 1.247 . S
C424 O421 1.244 . S
C424 O422 1.240 . S
H425 C399 0.931 . S
H426 C408 0.931 . S
H427 C412 0.929 . S
H428 C414 0.930 . S
Co429 N433 2.148 . S
Co429 N439 2.128 . S
Co429 N449 2.194 . S
Co429 O454 2.351 . S
Co429 O455 2.155 . S
Co429 O456 2.096 . S
C430 N433 1.301 . S
C430 N434 1.328 . S
C430 H435 0.930 . S
C431 C432 1.333 . S
C431 N433 1.317 . S
C431 H436 0.930 . S
C432 C431 1.333 . S
C432 N434 1.350 . S
C432 H458 0.931 . S
N433 Co429 2.148 . S
N433 C430 1.301 . S
N433 C431 1.317 . S
N434 C430 1.328 . S
N434 C432 1.350 . S
H435 C430 0.930 . S
H436 C431 0.930 . S
C437 O438 1.224 . S
C437 O456 1.247 . S
O438 C437 1.224 . S
N439 Co429 2.128 . S
N439 C440 1.355 . S
N439 C442 1.311 . S
C440 N439 1.355 . S
C440 C441 1.363 . S
C440 H452 0.929 . S
C441 C440 1.363 . S
C441 N443 1.375 . S
C441 H459 0.931 . S
C442 N439 1.311 . S
C442 N443 1.347 . S
C442 H453 0.929 . S
N443 C441 1.375 . S
N443 C442 1.347 . S
C444 C447 1.365 . S
C444 N449 1.328 . S
C444 H450 0.929 . S
C445 C446 1.362 . S
C445 C448 1.378 . S
C445 H460 0.929 . S
C446 C445 1.362 . S
C446 C447 1.366 . S
C447 C444 1.365 . S
C447 C446 1.366 . S
C447 H461 0.930 . S
C448 C445 1.378 . S
C448 N449 1.315 . S
C448 H451 0.930 . S
N449 Co429 2.194 . S
N449 C444 1.328 . S
N449 C448 1.315 . S
H450 C444 0.929 . S
H451 C448 0.930 . S
H452 C440 0.929 . S
H453 C442 0.929 . S
O454 Co429 2.351 . S
O454 C457 1.244 . S
O455 Co429 2.155 . S
O455 C457 1.240 . S
O456 Co429 2.096 . S
O456 C437 1.247 . S
C457 O454 1.244 . S
C457 O455 1.240 . S
H458 C432 0.931 . S
H459 C441 0.931 . S
H460 C445 0.929 . S
H461 C447 0.930 . S
Co462 N466 2.148 . S
Co462 N472 2.128 . S
Co462 N482 2.194 . S
Co462 O487 2.351 . S
Co462 O488 2.155 . S
Co462 O489 2.096 . S
C463 N466 1.301 . S
C463 N467 1.328 1_556 S
C463 H468 0.930 . S
C464 C465 1.333 1_556 S
C464 N466 1.317 . S
C464 H469 0.930 . S
C465 C464 1.333 1_554 S
C465 N467 1.350 . S
C465 H491 0.931 . S
N466 Co462 2.148 . S
N466 C463 1.301 . S
N466 C464 1.317 . S
N467 C463 1.328 1_554 S
N467 C465 1.350 . S
H468 C463 0.930 . S
H469 C464 0.930 . S
C470 O471 1.224 . S
C470 O489 1.247 . S
O471 C470 1.224 . S
N472 Co462 2.128 . S
N472 C473 1.355 . S
N472 C475 1.311 . S
C473 N472 1.355 . S
C473 C474 1.363 . S
C473 H485 0.929 . S
C474 C473 1.363 . S
C474 N476 1.375 . S
C474 H492 0.931 . S
C475 N472 1.311 . S
C475 N476 1.347 . S
C475 H486 0.929 . S
N476 C474 1.375 . S
N476 C475 1.347 . S
C477 C480 1.365 . S
C477 N482 1.328 . S
C477 H483 0.929 . S
C478 C479 1.362 . S
C478 C481 1.378 . S
C478 H493 0.929 . S
C479 C478 1.362 . S
C479 C480 1.366 . S
C480 C477 1.365 . S
C480 C479 1.366 . S
C480 H494 0.930 . S
C481 C478 1.378 . S
C481 N482 1.315 . S
C481 H484 0.930 . S
N482 Co462 2.194 . S
N482 C477 1.328 . S
N482 C481 1.315 . S
H483 C477 0.929 . S
H484 C481 0.930 . S
H485 C473 0.929 . S
H486 C475 0.929 . S
O487 Co462 2.351 . S
O487 C490 1.244 . S
O488 Co462 2.155 . S
O488 C490 1.240 . S
O489 Co462 2.096 . S
O489 C470 1.247 . S
C490 O487 1.244 . S
C490 O488 1.240 . S
H491 C465 0.931 . S
H492 C474 0.931 . S
H493 C478 0.929 . S
H494 C480 0.930 . S
Co495 N499 2.148 . S
Co495 N505 2.128 . S
Co495 N515 2.194 . S
Co495 O520 2.351 . S
Co495 O521 2.155 . S
Co495 O522 2.096 . S
C496 N499 1.301 . S
C496 N500 1.328 . S
C496 H501 0.930 . S
C497 C498 1.333 . S
C497 N499 1.317 . S
C497 H502 0.930 . S
C498 C497 1.333 . S
C498 N500 1.350 . S
C498 H524 0.931 . S
N499 Co495 2.148 . S
N499 C496 1.301 . S
N499 C497 1.317 . S
N500 C496 1.328 . S
N500 C498 1.350 . S
H501 C496 0.930 . S
H502 C497 0.930 . S
C503 O504 1.224 . S
C503 O522 1.247 . S
O504 C503 1.224 . S
N505 Co495 2.128 . S
N505 C506 1.355 . S
N505 C508 1.311 . S
C506 N505 1.355 . S
C506 C507 1.363 . S
C506 H518 0.929 . S
C507 C506 1.363 . S
C507 N509 1.375 . S
C507 H525 0.931 . S
C508 N505 1.311 . S
C508 N509 1.347 . S
C508 H519 0.929 . S
N509 C507 1.375 . S
N509 C508 1.347 . S
C510 C513 1.365 . S
C510 N515 1.328 . S
C510 H516 0.929 . S
C511 C512 1.362 . S
C511 C514 1.378 . S
C511 H526 0.929 . S
C512 C511 1.362 . S
C512 C513 1.366 . S
C513 C510 1.365 . S
C513 C512 1.366 . S
C513 H527 0.930 . S
C514 C511 1.378 . S
C514 N515 1.315 . S
C514 H517 0.930 . S
N515 Co495 2.194 . S
N515 C510 1.328 . S
N515 C514 1.315 . S
H516 C510 0.929 . S
H517 C514 0.930 . S
H518 C506 0.929 . S
H519 C508 0.929 . S
O520 Co495 2.351 . S
O520 C523 1.244 . S
O521 Co495 2.155 . S
O521 C523 1.240 . S
O522 Co495 2.096 . S
O522 C503 1.247 . S
C523 O520 1.244 . S
C523 O521 1.240 . S
H524 C498 0.931 . S
H525 C507 0.931 . S
H526 C511 0.929 . S
H527 C513 0.930 . S
C528 C529 1.387 . S
C528 H532 0.950 . S
C528 C537 1.390 . S
C529 C528 1.387 . S
C529 C531 1.387 . S
H530 C537 0.950 . S
C531 C529 1.387 . S
C531 C533 1.390 . S
C531 H535 0.950 . S
H532 C528 0.950 . S
C533 C531 1.390 . S
C533 C534 1.387 . S
C533 H536 0.950 . S
C534 C533 1.387 . S
C534 C537 1.387 . S
H535 C531 0.950 . S
H536 C533 0.950 . S
C537 C528 1.390 . S
C537 H530 0.950 . S
C537 C534 1.387 . S
C538 C539 1.387 . S
C538 H542 0.950 . S
C538 C547 1.390 . S
C539 C538 1.387 . S
C539 C541 1.387 . S
H540 C547 0.950 . S
C541 C539 1.387 . S
C541 C543 1.390 . S
C541 H545 0.950 . S
H542 C538 0.950 . S
C543 C541 1.390 . S
C543 C544 1.387 . S
C543 H546 0.950 . S
C544 C543 1.387 . S
C544 C547 1.387 . S
H545 C541 0.950 . S
H546 C543 0.950 . S
C547 C538 1.390 . S
C547 H540 0.950 . S
C547 C544 1.387 . S
C548 C549 1.387 . S
C548 H552 0.950 . S
C548 C557 1.390 1_554 S
C549 C548 1.387 . S
C549 C551 1.387 . S
H550 C557 0.950 . S
C551 C549 1.387 . S
C551 C553 1.390 1_554 S
C551 H555 0.950 . S
H552 C548 0.950 . S
C553 C551 1.390 1_556 S
C553 C554 1.387 . S
C553 H556 0.950 . S
C554 C553 1.387 . S
C554 C557 1.387 . S
H555 C551 0.950 . S
H556 C553 0.950 . S
C557 C548 1.390 1_556 S
C557 H550 0.950 . S
C557 C554 1.387 . S
C558 C559 1.387 . S
C558 H562 0.950 . S
C558 C567 1.390 . S
C559 C558 1.387 . S
C559 C561 1.387 . S
H560 C567 0.950 . S
C561 C559 1.387 . S
C561 C563 1.390 . S
C561 H565 0.950 . S
H562 C558 0.950 . S
C563 C561 1.390 . S
C563 C564 1.387 . S
C563 H566 0.950 . S
C564 C563 1.387 . S
C564 C567 1.387 . S
H565 C561 0.950 . S
H566 C563 0.950 . S
C567 C558 1.390 . S
C567 H560 0.950 . S
C567 C564 1.387 . S
C568 C569 1.387 . S
C568 H572 0.950 . S
C568 C577 1.390 . S
C569 C568 1.387 . S
C569 C571 1.387 . S
H570 C577 0.950 . S
C571 C569 1.387 . S
C571 C573 1.390 . S
C571 H575 0.950 . S
H572 C568 0.950 . S
C573 C571 1.390 . S
C573 C574 1.387 . S
C573 H576 0.950 . S
C574 C573 1.387 . S
C574 C577 1.387 . S
H575 C571 0.950 . S
H576 C573 0.950 . S
C577 C568 1.390 . S
C577 H570 0.950 . S
C577 C574 1.387 . S
C578 C579 1.387 . S
C578 H582 0.950 . S
C578 C587 1.390 1_556 S
C579 C578 1.387 . S
C579 C581 1.387 . S
H580 C587 0.950 . S
C581 C579 1.387 . S
C581 C583 1.390 1_556 S
C581 H585 0.950 . S
H582 C578 0.950 . S
C583 C581 1.390 1_554 S
C583 C584 1.387 . S
C583 H586 0.950 . S
C584 C583 1.387 . S
C584 C587 1.387 . S
H585 C581 0.950 . S
H586 C583 0.950 . S
C587 C578 1.390 1_554 S
C587 H580 0.950 . S
C587 C584 1.387 . S
C588 C589 1.387 . S
C588 H592 0.950 . S
C588 C597 1.390 . S
C589 C588 1.387 . S
C589 C591 1.387 . S
H590 C597 0.950 . S
C591 C589 1.387 . S
C591 C593 1.390 . S
C591 H595 0.950 . S
H592 C588 0.950 . S
C593 C591 1.390 . S
C593 C594 1.387 . S
C593 H596 0.950 . S
C594 C593 1.387 . S
C594 C597 1.387 . S
H595 C591 0.950 . S
H596 C593 0.950 . S
C597 C588 1.390 . S
C597 H590 0.950 . S
C597 C594 1.387 . S
C598 C599 1.387 . S
C598 H602 0.950 . S
C598 C607 1.390 . S
C599 C598 1.387 . S
C599 C601 1.387 . S
H600 C607 0.950 . S
C601 C599 1.387 . S
C601 C603 1.390 . S
C601 H605 0.950 . S
H602 C598 0.950 . S
C603 C601 1.390 . S
C603 C604 1.387 . S
C603 H606 0.950 . S
C604 C603 1.387 . S
C604 C607 1.387 . S
H605 C601 0.950 . S
H606 C603 0.950 . S
C607 C598 1.390 . S
C607 H600 0.950 . S
C607 C604 1.387 . S
C608 C609 1.387 . S
C608 H612 0.950 . S
C608 C617 1.390 . S
C609 C608 1.387 . S
C609 C611 1.387 . S
H610 C617 0.950 . S
C611 C609 1.387 . S
C611 C613 1.390 . S
C611 H615 0.950 . S
H612 C608 0.950 . S
C613 C611 1.390 . S
C613 C614 1.387 . S
C613 H616 0.950 . S
C614 C613 1.387 . S
C614 C617 1.387 . S
H615 C611 0.950 . S
H616 C613 0.950 . S
C617 C608 1.390 . S
C617 H610 0.950 . S
C617 C614 1.387 . S
C618 C619 1.387 . S
C618 H622 0.950 . S
C618 C627 1.390 . S
C619 C618 1.387 . S
C619 C621 1.387 . S
H620 C627 0.950 . S
C621 C619 1.387 . S
C621 C623 1.390 . S
C621 H625 0.950 . S
H622 C618 0.950 . S
C623 C621 1.390 . S
C623 C624 1.387 . S
C623 H626 0.950 . S
C624 C623 1.387 . S
C624 C627 1.387 . S
H625 C621 0.950 . S
H626 C623 0.950 . S
C627 C618 1.390 . S
C627 H620 0.950 . S
C627 C624 1.387 . S
C628 C629 1.387 . S
C628 H632 0.950 . S
C628 C637 1.390 . S
C629 C628 1.387 . S
C629 C631 1.387 . S
H630 C637 0.950 . S
C631 C629 1.387 . S
C631 C633 1.390 . S
C631 H635 0.950 . S
H632 C628 0.950 . S
C633 C631 1.390 . S
C633 C634 1.387 . S
C633 H636 0.950 . S
C634 C633 1.387 . S
C634 C637 1.387 . S
H635 C631 0.950 . S
H636 C633 0.950 . S
C637 C628 1.390 . S
C637 H630 0.950 . S
C637 C634 1.387 . S
C638 C639 1.387 . S
C638 H642 0.950 . S
C638 C647 1.390 . S
C639 C638 1.387 . S
C639 C641 1.387 . S
H640 C647 0.950 . S
C641 C639 1.387 . S
C641 C643 1.390 . S
C641 H645 0.950 . S
H642 C638 0.950 . S
C643 C641 1.390 . S
C643 C644 1.387 . S
C643 H646 0.950 . S
C644 C643 1.387 . S
C644 C647 1.387 . S
H645 C641 0.950 . S
H646 C643 0.950 . S
C647 C638 1.390 . S
C647 H640 0.950 . S
C647 C644 1.387 . S
C648 C649 1.387 . S
C648 H652 0.950 . S
C648 C657 1.390 . S
C649 C648 1.387 . S
C649 C651 1.387 . S
H650 C657 0.950 . S
C651 C649 1.387 . S
C651 C653 1.390 . S
C651 H655 0.950 . S
H652 C648 0.950 . S
C653 C651 1.390 . S
C653 C654 1.387 . S
C653 H656 0.950 . S
C654 C653 1.387 . S
C654 C657 1.387 . S
H655 C651 0.950 . S
H656 C653 0.950 . S
C657 C648 1.390 . S
C657 H650 0.950 . S
C657 C654 1.387 . S
C658 C659 1.387 . S
C658 H662 0.950 . S
C658 C667 1.390 . S
C659 C658 1.387 . S
C659 C661 1.387 . S
H660 C667 0.950 . S
C661 C659 1.387 . S
C661 C663 1.390 . S
C661 H665 0.950 . S
H662 C658 0.950 . S
C663 C661 1.390 . S
C663 C664 1.387 . S
C663 H666 0.950 . S
C664 C663 1.387 . S
C664 C667 1.387 . S
H665 C661 0.950 . S
H666 C663 0.950 . S
C667 C658 1.390 . S
C667 H660 0.950 . S
C667 C664 1.387 . S
C668 C669 1.387 . S
C668 H672 0.950 . S
C668 C677 1.390 . S
C669 C668 1.387 . S
C669 C671 1.387 . S
H670 C677 0.950 . S
C671 C669 1.387 . S
C671 C673 1.390 . S
C671 H675 0.950 . S
H672 C668 0.950 . S
C673 C671 1.390 . S
C673 C674 1.387 . S
C673 H676 0.950 . S
C674 C673 1.387 . S
C674 C677 1.387 . S
H675 C671 0.950 . S
H676 C673 0.950 . S
C677 C668 1.390 . S
C677 H670 0.950 . S
C677 C674 1.387 . S
C678 C679 1.387 . S
C678 H682 0.950 . S
C678 C687 1.390 . S
C679 C678 1.387 . S
C679 C681 1.387 . S
H680 C687 0.950 . S
C681 C679 1.387 . S
C681 C683 1.390 . S
C681 H685 0.950 . S
H682 C678 0.950 . S
C683 C681 1.390 . S
C683 C684 1.387 . S
C683 H686 0.950 . S
C684 C683 1.387 . S
C684 C687 1.387 . S
H685 C681 0.950 . S
H686 C683 0.950 . S
C687 C678 1.390 . S
C687 H680 0.950 . S
C687 C684 1.387 . S
C688 C689 1.387 . S
C688 H692 0.950 . S
C688 C697 1.390 . S
C689 C688 1.387 . S
C689 C691 1.387 . S
H690 C697 0.950 . S
C691 C689 1.387 . S
C691 C693 1.390 . S
C691 H695 0.950 . S
H692 C688 0.950 . S
C693 C691 1.390 . S
C693 C694 1.387 . S
C693 H696 0.950 . S
C694 C693 1.387 . S
C694 C697 1.387 . S
H695 C691 0.950 . S
H696 C693 0.950 . S
C697 C688 1.390 . S
C697 H690 0.950 . S
C697 C694 1.387 . S
C698 C699 1.387 . S
C698 H702 0.950 . S
C698 C707 1.390 . S
C699 C698 1.387 . S
C699 C701 1.387 . S
H700 C707 0.950 . S
C701 C699 1.387 . S
C701 C703 1.390 . S
C701 H705 0.950 . S
H702 C698 0.950 . S
C703 C701 1.390 . S
C703 C704 1.387 . S
C703 H706 0.950 . S
C704 C703 1.387 . S
C704 C707 1.387 . S
H705 C701 0.950 . S
H706 C703 0.950 . S
C707 C698 1.390 . S
C707 H700 0.950 . S
C707 C704 1.387 . S
C708 C709 1.387 . S
C708 H712 0.950 . S
C708 C717 1.390 . S
C709 C708 1.387 . S
C709 C711 1.387 . S
H710 C717 0.950 . S
C711 C709 1.387 . S
C711 C713 1.390 . S
C711 H715 0.950 . S
H712 C708 0.950 . S
C713 C711 1.390 . S
C713 C714 1.387 . S
C713 H716 0.950 . S
C714 C713 1.387 . S
C714 C717 1.387 . S
H715 C711 0.950 . S
H716 C713 0.950 . S
C717 C708 1.390 . S
C717 H710 0.950 . S
C717 C714 1.387 . S
C718 C719 1.387 . S
C718 H722 0.950 . S
C718 C727 1.390 . S
C719 C718 1.387 . S
C719 C721 1.387 . S
H720 C727 0.950 . S
C721 C719 1.387 . S
C721 C723 1.390 . S
C721 H725 0.950 . S
H722 C718 0.950 . S
C723 C721 1.390 . S
C723 C724 1.387 . S
C723 H726 0.950 . S
C724 C723 1.387 . S
C724 C727 1.387 . S
H725 C721 0.950 . S
H726 C723 0.950 . S
C727 C718 1.390 . S
C727 H720 0.950 . S
C727 C724 1.387 . S
C728 C729 1.387 . S
C728 H732 0.950 . S
C728 C737 1.390 . S
C729 C728 1.387 . S
C729 C731 1.387 . S
H730 C737 0.950 . S
C731 C729 1.387 . S
C731 C733 1.390 . S
C731 H735 0.950 . S
H732 C728 0.950 . S
C733 C731 1.390 . S
C733 C734 1.387 . S
C733 H736 0.950 . S
C734 C733 1.387 . S
C734 C737 1.387 . S
H735 C731 0.950 . S
H736 C733 0.950 . S
C737 C728 1.390 . S
C737 H730 0.950 . S
C737 C734 1.387 . S
C738 C739 1.387 . S
C738 H742 0.950 . S
C738 C747 1.390 . S
C739 C738 1.387 . S
C739 C741 1.387 . S
H740 C747 0.950 . S
C741 C739 1.387 . S
C741 C743 1.390 . S
C741 H745 0.950 . S
H742 C738 0.950 . S
C743 C741 1.390 . S
C743 C744 1.387 . S
C743 H746 0.950 . S
C744 C743 1.387 . S
C744 C747 1.387 . S
H745 C741 0.950 . S
H746 C743 0.950 . S
C747 C738 1.390 . S
C747 H740 0.950 . S
C747 C744 1.387 . S
C748 C749 1.387 . S
C748 H752 0.950 . S
C748 C757 1.390 . S
C749 C748 1.387 . S
C749 C751 1.387 . S
H750 C757 0.950 . S
C751 C749 1.387 . S
C751 C753 1.390 . S
C751 H755 0.950 . S
H752 C748 0.950 . S
C753 C751 1.390 . S
C753 C754 1.387 . S
C753 H756 0.950 . S
C754 C753 1.387 . S
C754 C757 1.387 . S
H755 C751 0.950 . S
H756 C753 0.950 . S
C757 C748 1.390 . S
C757 H750 0.950 . S
C757 C754 1.387 . S
C758 C759 1.387 . S
C758 H762 0.950 . S
C758 C767 1.390 . S
C759 C758 1.387 . S
C759 C761 1.387 . S
H760 C767 0.950 . S
C761 C759 1.387 . S
C761 C763 1.390 . S
C761 H765 0.950 . S
H762 C758 0.950 . S
C763 C761 1.390 . S
C763 C764 1.387 . S
C763 H766 0.950 . S
C764 C763 1.387 . S
C764 C767 1.387 . S
H765 C761 0.950 . S
H766 C763 0.950 . S
C767 C758 1.390 . S
C767 H760 0.950 . S
C767 C764 1.387 . S
C768 C769 1.387 . S
C768 H772 0.950 . S
C768 C777 1.390 1_445 S
C769 C768 1.387 . S
C769 C771 1.387 . S
H770 C777 0.950 . S
C771 C769 1.387 . S
C771 C773 1.390 1_445 S
C771 H775 0.950 . S
H772 C768 0.950 . S
C773 C771 1.390 1_665 S
C773 C774 1.387 . S
C773 H776 0.950 . S
C774 C773 1.387 . S
C774 C777 1.387 . S
H775 C771 0.950 . S
H776 C773 0.950 . S
C777 C768 1.390 1_665 S
C777 H770 0.950 . S
C777 C774 1.387 . S
C778 C779 1.387 . S
C778 H782 0.950 . S
C778 C787 1.390 1_455 S
C779 C778 1.387 . S
C779 C781 1.387 . S
H780 C787 0.950 . S
C781 C779 1.387 . S
C781 C783 1.390 1_455 S
C781 H785 0.950 . S
H782 C778 0.950 . S
C783 C781 1.390 1_655 S
C783 C784 1.387 . S
C783 H786 0.950 . S
C784 C783 1.387 . S
C784 C787 1.387 . S
H785 C781 0.950 . S
H786 C783 0.950 . S
C787 C778 1.390 1_655 S
C787 H780 0.950 . S
C787 C784 1.387 . S
C788 C789 1.387 . S
C788 H792 0.950 . S
C788 C797 1.390 . S
C789 C788 1.387 . S
C789 C791 1.387 . S
H790 C797 0.950 . S
C791 C789 1.387 . S
C791 C793 1.390 . S
C791 H795 0.950 . S
H792 C788 0.950 . S
C793 C791 1.390 . S
C793 C794 1.387 . S
C793 H796 0.950 . S
C794 C793 1.387 . S
C794 C797 1.387 . S
H795 C791 0.950 . S
H796 C793 0.950 . S
C797 C788 1.390 . S
C797 H790 0.950 . S
C797 C794 1.387 . S
C798 C799 1.387 . S
C798 H802 0.950 . S
C798 C807 1.390 1_545 S
C799 C798 1.387 . S
C799 C801 1.387 . S
H800 C807 0.950 . S
C801 C799 1.387 . S
C801 C803 1.390 1_545 S
C801 H805 0.950 . S
H802 C798 0.950 . S
C803 C801 1.390 1_565 S
C803 C804 1.387 . S
C803 H806 0.950 . S
C804 C803 1.387 . S
C804 C807 1.387 . S
H805 C801 0.950 . S
H806 C803 0.950 . S
C807 C798 1.390 1_565 S
C807 H800 0.950 . S
C807 C804 1.387 . S
C808 C809 1.387 . S
C808 H812 0.950 . S
C808 C817 1.390 1_455 S
C809 C808 1.387 . S
C809 C811 1.387 . S
H810 C817 0.950 . S
C811 C809 1.387 . S
C811 C813 1.390 1_455 S
C811 H815 0.950 . S
H812 C808 0.950 . S
C813 C811 1.390 1_655 S
C813 C814 1.387 . S
C813 H816 0.950 . S
C814 C813 1.387 . S
C814 C817 1.387 . S
H815 C811 0.950 . S
H816 C813 0.950 . S
C817 C808 1.390 1_655 S
C817 H810 0.950 . S
C817 C814 1.387 . S
C818 C819 1.387 . S
C818 H822 0.950 . S
C818 C827 1.390 . S
C819 C818 1.387 . S
C819 C821 1.387 . S
H820 C827 0.950 . S
C821 C819 1.387 . S
C821 C823 1.390 . S
C821 H825 0.950 . S
H822 C818 0.950 . S
C823 C821 1.390 . S
C823 C824 1.387 . S
C823 H826 0.950 . S
C824 C823 1.387 . S
C824 C827 1.387 . S
H825 C821 0.950 . S
H826 C823 0.950 . S
C827 C818 1.390 . S
C827 H820 0.950 . S
C827 C824 1.387 . S
C828 C829 1.387 . S
C828 H832 0.950 . S
C828 C837 1.390 1_565 S
C829 C828 1.387 . S
C829 C831 1.387 . S
H830 C837 0.950 . S
C831 C829 1.387 . S
C831 C833 1.390 1_565 S
C831 H835 0.950 . S
H832 C828 0.950 . S
C833 C831 1.390 1_545 S
C833 C834 1.387 . S
C833 H836 0.950 . S
C834 C833 1.387 . S
C834 C837 1.387 . S
H835 C831 0.950 . S
H836 C833 0.950 . S
C837 C828 1.390 1_545 S
C837 H830 0.950 . S
C837 C834 1.387 . S
C838 C839 1.387 . S
C838 H842 0.950 . S
C838 C847 1.390 1_445 S
C839 C838 1.387 . S
C839 C841 1.387 . S
H840 C847 0.950 . S
C841 C839 1.387 . S
C841 C843 1.390 1_445 S
C841 H845 0.950 . S
H842 C838 0.950 . S
C843 C841 1.390 1_665 S
C843 C844 1.387 . S
C843 H846 0.950 . S
C844 C843 1.387 . S
C844 C847 1.387 . S
H845 C841 0.950 . S
H846 C843 0.950 . S
C847 C838 1.390 1_665 S
C847 H840 0.950 . S
C847 C844 1.387 . S
C848 C849 1.387 . S
C848 H852 0.950 . S
C848 C857 1.390 . S
C849 C848 1.387 . S
C849 C851 1.387 . S
H850 C857 0.950 . S
C851 C849 1.387 . S
C851 C853 1.390 . S
C851 H855 0.950 . S
H852 C848 0.950 . S
C853 C851 1.390 . S
C853 C854 1.387 . S
C853 H856 0.950 . S
C854 C853 1.387 . S
C854 C857 1.387 . S
H855 C851 0.950 . S
H856 C853 0.950 . S
C857 C848 1.390 . S
C857 H850 0.950 . S
C857 C854 1.387 . S
C858 C859 1.387 . S
C858 H862 0.950 . S
C858 C867 1.390 . S
C859 C858 1.387 . S
C859 C861 1.387 . S
H860 C867 0.950 . S
C861 C859 1.387 . S
C861 C863 1.390 . S
C861 H865 0.950 . S
H862 C858 0.950 . S
C863 C861 1.390 . S
C863 C864 1.387 . S
C863 H866 0.950 . S
C864 C863 1.387 . S
C864 C867 1.387 . S
H865 C861 0.950 . S
H866 C863 0.950 . S
C867 C858 1.390 . S
C867 H860 0.950 . S
C867 C864 1.387 . S
C868 C869 1.387 . S
C868 H872 0.950 . S
C868 C877 1.390 . S
C869 C868 1.387 . S
C869 C871 1.387 . S
H870 C877 0.950 . S
C871 C869 1.387 . S
C871 C873 1.390 . S
C871 H875 0.950 . S
H872 C868 0.950 . S
C873 C871 1.390 . S
C873 C874 1.387 . S
C873 H876 0.950 . S
C874 C873 1.387 . S
C874 C877 1.387 . S
H875 C871 0.950 . S
H876 C873 0.950 . S
C877 C868 1.390 . S
C877 H870 0.950 . S
C877 C874 1.387 . S
C878 C879 1.387 . S
C878 H882 0.950 . S
C878 C887 1.390 . S
C879 C878 1.387 . S
C879 C881 1.387 . S
H880 C887 0.950 . S
C881 C879 1.387 . S
C881 C883 1.390 . S
C881 H885 0.950 . S
H882 C878 0.950 . S
C883 C881 1.390 . S
C883 C884 1.387 . S
C883 H886 0.950 . S
C884 C883 1.387 . S
C884 C887 1.387 . S
H885 C881 0.950 . S
H886 C883 0.950 . S
C887 C878 1.390 . S
C887 H880 0.950 . S
C887 C884 1.387 . S
C888 C889 1.387 . S
C888 H892 0.950 . S
C888 C897 1.390 . S
C889 C888 1.387 . S
C889 C891 1.387 . S
H890 C897 0.950 . S
C891 C889 1.387 . S
C891 C893 1.390 . S
C891 H895 0.950 . S
H892 C888 0.950 . S
C893 C891 1.390 . S
C893 C894 1.387 . S
C893 H896 0.950 . S
C894 C893 1.387 . S
C894 C897 1.387 . S
H895 C891 0.950 . S
H896 C893 0.950 . S
C897 C888 1.390 . S
C897 H890 0.950 . S
C897 C894 1.387 . S
C898 C899 1.387 . S
C898 H902 0.950 . S
C898 C907 1.390 . S
C899 C898 1.387 . S
C899 C901 1.387 . S
H900 C907 0.950 . S
C901 C899 1.387 . S
C901 C903 1.390 . S
C901 H905 0.950 . S
H902 C898 0.950 . S
C903 C901 1.390 . S
C903 C904 1.387 . S
C903 H906 0.950 . S
C904 C903 1.387 . S
C904 C907 1.387 . S
H905 C901 0.950 . S
H906 C903 0.950 . S
C907 C898 1.390 . S
C907 H900 0.950 . S
C907 C904 1.387 . S
C908 C909 1.387 . S
C908 H912 0.950 . S
C908 C917 1.390 . S
C909 C908 1.387 . S
C909 C911 1.387 . S
H910 C917 0.950 . S
C911 C909 1.387 . S
C911 C913 1.390 . S
C911 H915 0.950 . S
H912 C908 0.950 . S
C913 C911 1.390 . S
C913 C914 1.387 . S
C913 H916 0.950 . S
C914 C913 1.387 . S
C914 C917 1.387 . S
H915 C911 0.950 . S
H916 C913 0.950 . S
C917 C908 1.390 . S
C917 H910 0.950 . S
C917 C914 1.387 . S
C918 C919 1.387 . S
C918 H922 0.950 . S
C918 C927 1.390 . S
C919 C918 1.387 . S
C919 C921 1.387 . S
H920 C927 0.950 . S
C921 C919 1.387 . S
C921 C923 1.390 . S
C921 H925 0.950 . S
H922 C918 0.950 . S
C923 C921 1.390 . S
C923 C924 1.387 . S
C923 H926 0.950 . S
C924 C923 1.387 . S
C924 C927 1.387 . S
H925 C921 0.950 . S
H926 C923 0.950 . S
C927 C918 1.390 . S
C927 H920 0.950 . S
C927 C924 1.387 . S
C529 N14 0.739 . S
C534 N443 0.739 . S
C539 N476 0.744 . S
C544 N47 0.744 . S
C549 N509 0.736 . S
C554 N80 0.736 . S
C559 N410 0.737 . S
C564 N113 0.737 . S
C569 N377 0.735 . S
C574 N146 0.735 . S
C579 N278 0.735 . S
C584 N179 0.735 . S
C589 N212 0.735 . S
C594 N311 0.735 . S
C599 N344 0.744 . S
C604 N245 0.744 . S
C609 C305 2.207 . S
C614 N5 2.333 . S
C619 N38 2.333 . S
C624 C338 2.207 . S
C629 N71 2.333 . S
C634 C371 2.205 . S
C639 N104 2.332 . S
C644 C272 2.208 . S
C649 N137 2.333 . S
C654 C503 2.205 . S
C659 C404 2.205 . S
C664 N170 2.333 . S
C669 C437 2.205 . S
C674 N203 2.333 . S
C679 C470 2.205 . S
C684 N236 2.333 . S
C689 N269 2.332 . S
C694 C41 2.208 . S
C699 N302 2.332 . S
C704 C74 2.208 . S
C709 N335 2.332 . S
C714 C107 2.208 . S
C719 C8 2.208 . S
C724 N368 2.332 . S
C729 N401 2.333 . S
C734 C239 2.205 . S
C739 C140 2.208 . S
C744 N434 2.333 . S
C749 N467 2.332 . S
C754 C173 2.207 . S
C759 N500 2.332 . S
C764 C206 2.206 . S
C769 C17 1.526 . S
C774 C347 1.526 . S
C779 C380 1.526 . S
C784 C50 1.526 . S
C789 C83 1.526 . S
C794 C281 1.526 . S
C799 C314 1.526 . S
C804 C116 1.526 . S
C809 C149 1.526 . S
C814 C479 1.526 . S
C819 C512 1.528 . S
C824 C182 1.528 . S
C829 C413 1.526 . S
C834 C215 1.526 . S
C839 C446 1.528 . S
C844 C248 1.528 . S
C849 C226 0.908 . S
C854 C28 0.908 . S
C859 C61 0.900 . S
C864 C259 0.900 . S
C869 C160 0.908 . S
C874 C94 0.908 . S
C879 C127 0.908 . S
C884 C193 0.908 . S
C889 C292 0.900 . S
C894 C490 0.900 . S
C899 C325 0.908 . S
C904 C523 0.908 . S
C909 C358 0.900 . S
C914 C424 0.900 . S
C919 C457 0.908 . S
C924 C391 0.908 . S
