# Generated by pormake.
# Topology snz, (6)-cn, num edge types: 1
# Building blocks:
#     Node 0, Type 0, BuildingBlock: CUKXOW_clean_sbu_0, # of connection points: 6
#     Node 1, Type 0, BuildingBlock: CUKXOW_clean_sbu_0, # of connection points: 6
#     Node 2, Type 0, BuildingBlock: CUKXOW_clean_sbu_0, # of connection points: 6
#     Node 3, Type 0, BuildingBlock: CUKXOW_clean_sbu_0, # of connection points: 6
#     Node 4, Type 0, BuildingBlock: CUKXOW_clean_sbu_0, # of connection points: 6
#     Node 5, Type 0, BuildingBlock: CUKXOW_clean_sbu_0, # of connection points: 6
#     Node 6, Type 0, BuildingBlock: CUKXOW_clean_sbu_0, # of connection points: 6
#     Node 7, Type 0, BuildingBlock: CUKXOW_clean_sbu_0, # of connection points: 6
#     Node 8, Type 0, BuildingBlock: CUKXOW_clean_sbu_0, # of connection points: 6
#     Edge 9, Type (0, 0), BuildingBlock: CIFDUS_clean_linker_0, # of connection points: 2
#     Edge 10, Type (0, 0), BuildingBlock: CIFDUS_clean_linker_0, # of connection points: 2
#     Edge 11, Type (0, 0), BuildingBlock: CIFDUS_clean_linker_0, # of connection points: 2
#     Edge 12, Type (0, 0), BuildingBlock: CIFDUS_clean_linker_0, # of connection points: 2
#     Edge 13, Type (0, 0), BuildingBlock: CIFDUS_clean_linker_0, # of connection points: 2
#     Edge 14, Type (0, 0), BuildingBlock: CIFDUS_clean_linker_0, # of connection points: 2
#     Edge 15, Type (0, 0), BuildingBlock: CIFDUS_clean_linker_0, # of connection points: 2
#     Edge 16, Type (0, 0), BuildingBlock: CIFDUS_clean_linker_0, # of connection points: 2
#     Edge 17, Type (0, 0), BuildingBlock: CIFDUS_clean_linker_0, # of connection points: 2
#     Edge 18, Type (0, 0), BuildingBlock: CIFDUS_clean_linker_0, # of connection points: 2
#     Edge 19, Type (0, 0), BuildingBlock: CIFDUS_clean_linker_0, # of connection points: 2
#     Edge 20, Type (0, 0), BuildingBlock: CIFDUS_clean_linker_0, # of connection points: 2
#     Edge 21, Type (0, 0), BuildingBlock: CIFDUS_clean_linker_0, # of connection points: 2
#     Edge 22, Type (0, 0), BuildingBlock: CIFDUS_clean_linker_0, # of connection points: 2
#     Edge 23, Type (0, 0), BuildingBlock: CIFDUS_clean_linker_0, # of connection points: 2
#     Edge 24, Type (0, 0), BuildingBlock: CIFDUS_clean_linker_0, # of connection points: 2
#     Edge 25, Type (0, 0), BuildingBlock: CIFDUS_clean_linker_0, # of connection points: 2
#     Edge 26, Type (0, 0), BuildingBlock: CIFDUS_clean_linker_0, # of connection points: 2
#     Edge 27, Type (0, 0), BuildingBlock: CIFDUS_clean_linker_0, # of connection points: 2
#     Edge 28, Type (0, 0), BuildingBlock: CIFDUS_clean_linker_0, # of connection points: 2
#     Edge 29, Type (0, 0), BuildingBlock: CIFDUS_clean_linker_0, # of connection points: 2
#     Edge 30, Type (0, 0), BuildingBlock: CIFDUS_clean_linker_0, # of connection points: 2
#     Edge 31, Type (0, 0), BuildingBlock: CIFDUS_clean_linker_0, # of connection points: 2
#     Edge 32, Type (0, 0), BuildingBlock: CIFDUS_clean_linker_0, # of connection points: 2
#     Edge 33, Type (0, 0), BuildingBlock: CIFDUS_clean_linker_0, # of connection points: 2
#     Edge 34, Type (0, 0), BuildingBlock: CIFDUS_clean_linker_0, # of connection points: 2
#     Edge 35, Type (0, 0), BuildingBlock: CIFDUS_clean_linker_0, # of connection points: 2
# Relax obj value: 0.109
# Max RMSD: 0.184
# Mean RMSD: 0.132
data_MOF--net-snz--node1-CUKXOW_clean_sbu_0--edge1-CIFDUS_clean_linker_0
_symmetry_space_group_name_H-M    P1
_symmetry_Int_Tables_number       1
_symmetry_cell_setting            triclinic
loop_
_symmetry_equiv_pos_as_xyz
'x, y, z'
_cell_length_a     43.366942
_cell_length_b     49.881687
_cell_length_c     12.820801
_cell_angle_alpha  92.59154
_cell_angle_beta   92.427753
_cell_angle_gamma 120.02835
loop_
_atom_site_label
_atom_site_type_symbol
_atom_site_fract_x
_atom_site_fract_y
_atom_site_fract_z
_atom_type_partial_charge
Tb0 Tb 0.04929 0.43577 0.9144 0.0
C1 C 0.09943 0.47965 0.75896 0.0
Tb2 Tb 0.10627 0.50579 0.98648 0.0
O3 O 1.01649 0.45002 0.8197 0.0
O4 O 0.05101 0.47862 0.94279 0.0
O5 O 0.08663 0.45185 0.79466 0.0
C6 C 0.13974 0.56556 0.05135 0.0
O7 O 0.10469 0.50424 0.81804 0.0
C8 C 0.13273 0.46862 0.01728 0.0
C9 C 0.06011 0.46061 0.14895 0.0
O10 O 0.14807 0.55369 0.9728 0.0
O11 O 0.11188 0.54395 0.09087 0.0
O12 O 0.15 0.49827 0.04189 0.0
O13 O 0.10259 0.46218 0.97791 0.0
O14 O 0.07506 0.48922 0.11893 0.0
O15 O 0.05052 0.43583 0.08384 0.0
C16 C 1.0151 0.37499 0.86377 0.0
O17 O 1.00507 0.3886 0.93225 0.0
O18 O 0.04418 0.3955 0.82577 0.0
C19 C 0.03146 0.47775 0.86635 0.0
Tb20 Tb 0.62775 0.50361 0.00113 0.0
C21 C 0.62269 0.46219 0.18285 0.0
Tb22 Tb 0.59829 0.43531 0.95184 0.0
O23 O 0.57589 0.49974 0.96566 0.0
O24 O 0.57837 0.46245 0.02411 0.0
O25 O 0.63897 0.49039 0.14955 0.0
C26 C 0.56927 0.37404 0.93343 0.0
O27 O 0.60272 0.43695 0.12014 0.0
C28 C 0.6629 0.47101 0.89089 0.0
C29 C 0.59661 0.47474 0.77745 0.0
O30 O 0.59933 0.39327 0.98524 0.0
O31 O 0.55506 0.38923 0.89353 0.0
O32 O 0.63964 0.44446 0.84471 0.0
O33 O 0.65065 0.47532 0.97344 0.0
O34 O 0.57791 0.44756 0.81694 0.0
O35 O 0.62212 0.49951 0.83299 0.0
C36 C 0.67074 0.56357 0.05861 0.0
O37 O 0.67438 0.54863 0.97906 0.0
O38 O 0.6423 0.54495 0.10396 0.0
C39 C 0.55738 0.47094 0.98733 0.0
Tb40 Tb 0.63041 0.99081 0.08295 0.0
C41 C 0.62846 0.9484 0.89736 0.0
Tb42 Tb 0.65723 0.94612 0.12349 0.0
O43 O 0.67053 0.01449 0.97474 0.0
O44 O 0.68194 0.99453 0.10015 0.0
O45 O 0.61096 0.96111 0.93949 0.0
C46 C 0.69151 0.91389 0.1379 0.0
O47 O 0.65079 0.94292 0.95368 0.0
C48 C 0.59154 0.92797 0.1756 0.0
C49 C 0.6572 0.9872 0.31011 0.0
O50 O 0.65823 0.90261 0.10566 0.0
O51 O 0.70569 0.94351 0.16081 0.0
O52 O 0.61263 0.92005 0.22209 0.0
O53 O 0.60645 0.94267 0.0985 0.0
O54 O 0.67454 0.97422 0.26947 0.0
O55 O 0.63582 0.99347 0.25269 0.0
C56 C 0.60216 0.02721 0.06209 0.0
O57 O 0.63539 0.03665 0.08853 0.0
O58 O 0.58444 0.99704 0.05115 0.0
C59 C 0.69327 0.00789 0.01683 0.0
Tb60 Tb 0.82628 0.79438 0.35867 0.0
C61 C 0.87009 0.82942 0.17488 0.0
Tb62 Tb 0.88595 0.86479 0.39275 0.0
O63 O 0.78274 0.80107 0.29296 0.0
O64 O 0.83212 0.83796 0.33773 0.0
O65 O 0.85571 0.80298 0.22047 0.0
C66 C 0.92346 0.92625 0.43089 0.0
O67 O 0.87956 0.85651 0.22501 0.0
C68 C 0.90726 0.82383 0.41402 0.0
C69 C 0.83692 0.83151 0.57098 0.0
O70 O 0.90923 0.91168 0.33989 0.0
O71 O 0.91665 0.90622 0.50029 0.0
O72 O 0.9277 0.85193 0.38774 0.0
O73 O 0.87811 0.82131 0.4371 0.0
O74 O 0.85329 0.85774 0.52396 0.0
O75 O 0.82812 0.80409 0.52447 0.0
C76 C 0.79113 0.73272 0.33794 0.0
O77 O 0.78204 0.74956 0.39453 0.0
O78 O 0.82053 0.75065 0.29523 0.0
C79 C 0.8017 0.83116 0.30014 0.0
Tb80 Tb 0.33451 0.85745 0.36672 0.0
C81 C 0.35044 0.82741 0.551 0.0
Tb82 Tb 0.32232 0.7906 0.33414 0.0
O83 O 0.28829 0.84005 0.46111 0.0
O84 O 0.28956 0.81115 0.34303 0.0
O85 O 0.36178 0.8536 0.50484 0.0
C86 C 0.29163 0.72986 0.29365 0.0
O87 O 0.33019 0.79952 0.50167 0.0
C88 C 0.3906 0.83232 0.32013 0.0
C89 C 0.31703 0.82502 0.14427 0.0
O90 O 0.31644 0.75063 0.2419 0.0
O91 O 0.28446 0.74329 0.37058 0.0
O92 O 0.37824 0.80262 0.31799 0.0
O93 O 0.36458 0.83632 0.33301 0.0
O94 O 0.30348 0.79809 0.18637 0.0
O95 O 0.33544 0.85212 0.19929 0.0
C96 C 0.3497 0.9161 0.38133 0.0
O97 O 0.32487 0.89426 0.31768 0.0
O98 O 0.36667 0.9051 0.43345 0.0
C99 C 0.2721 0.81201 0.41795 0.0
Tb100 Tb 0.28608 0.36016 0.17164 0.0
C101 C 0.29069 0.32143 0.98577 0.0
Tb102 Tb 0.31485 0.31702 0.21369 0.0
O103 O 0.33141 0.3887 0.07798 0.0
O104 O 0.33756 0.36506 0.19827 0.0
O105 O 0.27122 0.33245 0.02523 0.0
C106 C 0.34404 0.28146 0.23914 0.0
O107 O 0.31305 0.31666 0.04454 0.0
C108 C 0.25101 0.29789 0.27703 0.0
C109 C 0.31524 0.35903 0.3972 0.0
O110 O 0.31561 0.27398 0.17933 0.0
O111 O 0.35684 0.30956 0.2805 0.0
O112 O 0.27385 0.29128 0.3177 0.0
O113 O 0.2626 0.31179 0.19494 0.0
O114 O 0.33408 0.34776 0.35464 0.0
O115 O 0.29164 0.36294 0.34118 0.0
C116 C 0.24912 0.38998 0.15674 0.0
O117 O 0.28195 0.40201 0.1948 0.0
O118 O 0.23688 0.36095 0.1277 0.0
C119 C 0.35276 0.38089 0.12352 0.0
Tb120 Tb 0.41095 0.14282 0.66211 0.0
C121 C 0.48714 0.20002 0.70358 0.0
Tb122 Tb 0.46936 0.13315 0.7027 0.0
O123 O 0.3883 0.12331 0.80959 0.0
O124 O 0.44328 0.14895 0.80505 0.0
O125 O 0.45761 0.18748 0.6417 0.0
C126 C 0.5014 0.10654 0.80092 0.0
O127 O 0.4956 0.18211 0.75579 0.0
C128 C 0.46262 0.14181 0.49951 0.0
C129 C 0.39117 0.07498 0.64668 0.0
O130 O 0.51719 0.12924 0.7405 0.0
O131 O 0.46863 0.09959 0.80561 0.0
O132 O 0.49243 0.14903 0.55219 0.0
O133 O 0.43766 0.12727 0.55932 0.0
O134 O 0.42418 0.08582 0.68663 0.0
O135 O 0.37934 0.09351 0.61872 0.0
C136 C 0.37313 0.16802 0.58972 0.0
O137 O 0.38801 0.17284 0.68356 0.0
O138 O 0.37794 0.14763 0.53841 0.0
C139 C 0.41852 0.13295 0.86367 0.0
Tb140 Tb 0.93488 0.13595 0.65655 0.0
C141 C 0.97225 0.09597 0.62519 0.0
Tb142 Tb 1.00996 0.16701 0.63816 0.0
O143 O 0.92528 0.14891 0.502 0.0
O144 O 0.96632 0.13943 0.52462 0.0
O145 O 0.94512 0.09733 0.6626 0.0
C146 C 0.07462 0.20402 0.57016 0.0
O147 O 0.99994 0.12074 0.59314 0.0
C148 C 0.9931 0.15429 0.83641 0.0
C149 C 0.97266 0.20714 0.66829 0.0
O150 O 0.06859 0.19116 0.65843 0.0
O151 O 0.04435 0.19575 0.52006 0.0
O152 O 1.01942 0.15396 0.79281 0.0
O153 O 0.97856 0.16362 0.77004 0.0
O154 O 0.99991 0.20557 0.63294 0.0
O155 O 0.94454 0.18237 0.69892 0.0
C156 C 0.87004 0.09918 0.72377 0.0
O157 O 0.87628 0.11111 0.63392 0.0
O158 O 0.9002 0.10824 0.77592 0.0
C159 C 0.95159 0.14862 0.45831 0.0
Tb160 Tb 1.00557 0.67234 0.64422 0.0
C161 C 0.97982 0.60142 0.67401 0.0
Tb162 Tb 0.92368 0.62462 0.66167 0.0
O163 O 1.02125 0.68359 0.81441 0.0
O164 O 0.96985 0.65265 0.76478 0.0
O165 O 1.00583 0.62845 0.64572 0.0
C166 C 0.86085 0.59124 0.74427 0.0
O167 O 0.94741 0.59608 0.69284 0.0
C168 C 0.93839 0.63153 0.45798 0.0
C169 C 0.94711 0.69354 0.61779 0.0
O170 O 0.87262 0.58147 0.66852 0.0
O171 O 0.88453 0.61986 0.77371 0.0
O172 O 0.90722 0.61362 0.49223 0.0
O173 O 0.95938 0.6443 0.5404 0.0
O174 O 0.92286 0.66762 0.65616 0.0
O175 O 0.97955 0.6988 0.59756 0.0
C176 C 0.07107 0.7108 0.58319 0.0
O177 O 0.05301 0.71838 0.64399 0.0
O178 O 0.05186 0.68125 0.55444 0.0
C179 C 0.99022 0.66532 0.84804 0.0
H180 H 0.07146 0.4314 0.61246 0.0
H181 H 0.12731 0.53177 0.65277 0.0
H182 H 0.11644 0.53402 0.4663 0.0
H183 H 0.08893 0.50781 0.29779 0.0
H184 H 0.03419 0.40754 0.25312 0.0
H185 H 0.04535 0.40494 0.44008 0.0
C186 C 0.08185 0.45383 0.58042 0.0
C187 C 0.10001 0.48142 0.6459 0.0
C188 C 0.07466 0.45492 0.47443 0.0
C189 C 0.11321 0.51026 0.60347 0.0
C190 C 0.10668 0.51154 0.49747 0.0
C191 C 0.07904 0.48522 0.32823 0.0
C192 C 0.06067 0.45784 0.26187 0.0
C193 C 0.08674 0.48401 0.43329 0.0
C194 C 0.04819 0.42891 0.30314 0.0
C195 C 0.05495 0.42745 0.40935 0.0
H196 H 0.58273 0.42796 0.63812 0.0
H197 H 0.61059 0.52421 0.66813 0.0
H198 H 0.62448 0.52933 0.48492 0.0
H199 H 0.63189 0.50731 0.32288 0.0
H200 H 0.60437 0.41109 0.29092 0.0
H201 H 0.58845 0.40533 0.47269 0.0
C202 C 0.59085 0.44978 0.60355 0.0
C203 C 0.5955 0.47568 0.6648 0.0
C204 C 0.60014 0.45282 0.50055 0.0
C205 C 0.60671 0.50404 0.62089 0.0
C206 C 0.61508 0.50705 0.51725 0.0
C207 C 0.62305 0.48518 0.35595 0.0
C208 C 0.61968 0.45972 0.2949 0.0
C209 C 0.61285 0.48183 0.45775 0.0
C210 C 0.60748 0.43104 0.33775 0.0
C211 C 0.59798 0.42766 0.44065 0.0
H212 H 0.61246 0.98136 0.76785 0.0
H213 H 0.65195 0.91722 0.77528 0.0
H214 H 0.66857 0.92693 0.59543 0.0
H215 H 0.67313 0.95445 0.44045 0.0
H216 H 0.63324 0.0183 0.43173 0.0
H217 H 0.61687 0.00884 0.61209 0.0
C218 C 0.62395 0.96892 0.72954 0.0
C219 C 0.63072 0.94838 0.784 0.0
C220 C 0.63448 0.9754 0.62825 0.0
C221 C 0.64624 0.93292 0.73412 0.0
C222 C 0.65615 0.93877 0.63216 0.0
C223 C 0.66151 0.96684 0.47836 0.0
C224 C 0.65458 0.98721 0.42344 0.0
C225 C 0.65099 0.9604 0.57958 0.0
C226 C 0.63903 0.00268 0.47313 0.0
C227 C 0.62927 0.99698 0.5754 0.0
H228 H 0.83866 0.79132 0.69805 0.0
H229 H 0.83902 0.87809 0.69712 0.0
H230 H 0.85268 0.88645 0.8871 0.0
H231 H 0.8663 0.8696 0.04992 0.0
H232 H 0.86789 0.78362 0.04688 0.0
H233 H 0.85293 0.77498 0.85832 0.0
C234 C 0.84095 0.81179 0.73938 0.0
C235 C 0.83753 0.83396 0.68467 0.0
C236 C 0.85028 0.81701 0.84624 0.0
C237 C 0.84128 0.86064 0.73867 0.0
C238 C 0.8495 0.86557 0.84651 0.0
C239 C 0.86412 0.84931 0.00761 0.0
C240 C 0.86832 0.82732 0.06113 0.0
C241 C 0.85477 0.84419 0.9004 0.0
C242 C 0.86486 0.80086 0.00636 0.0
C243 C 0.85596 0.79576 0.89925 0.0
H244 H 0.30143 0.78835 0.66949 0.0
H245 H 0.40351 0.87306 0.68295 0.0
H246 H 0.40036 0.88168 0.87101 0.0
H247 H 0.36754 0.86518 0.02856 0.0
H248 H 0.26458 0.78117 0.01008 0.0
H249 H 0.26837 0.77272 0.82344 0.0
C250 C 0.32341 0.80831 0.71406 0.0
C251 C 0.35293 0.8298 0.66438 0.0
C252 C 0.3206 0.81372 0.81924 0.0
C253 C 0.38079 0.85608 0.72138 0.0
C254 C 0.37876 0.86119 0.82786 0.0
C255 C 0.34563 0.8455 0.98277 0.0
C256 C 0.31578 0.82388 0.03118 0.0
C257 C 0.34844 0.8404 0.87688 0.0
C258 C 0.28771 0.79807 0.97289 0.0
C259 C 0.29004 0.79306 0.86709 0.0
H260 H 0.33532 0.32886 0.52735 0.0
H261 H 0.2894 0.38829 0.51866 0.0
H262 H 0.27417 0.37877 0.69959 0.0
H263 H 0.27221 0.3524 0.85523 0.0
H264 H 0.31846 0.29326 0.86572 0.0
H265 H 0.33406 0.30291 0.68472 0.0
C266 C 0.32272 0.34034 0.56563 0.0
C267 C 0.31365 0.35941 0.51057 0.0
C268 C 0.31306 0.33397 0.66763 0.0
C269 C 0.29681 0.37368 0.56034 0.0
C270 C 0.28772 0.36795 0.66292 0.0
C271 C 0.28513 0.34111 0.81765 0.0
C272 C 0.29396 0.32194 0.87293 0.0
C273 C 0.29508 0.34763 0.71613 0.0
C274 C 0.31121 0.30792 0.82385 0.0
C275 C 0.32048 0.31372 0.72124 0.0
H276 H 0.4015 0.11618 0.35795 0.0
H277 H 0.51642 0.16947 0.36962 0.0
H278 H 0.51405 0.17169 0.17969 0.0
H279 H 0.47953 0.15864 0.00533 0.0
H280 H 0.36464 0.10499 -0.00656 0.0
H281 H 0.36699 0.1029 0.18343 0.0
C282 C 0.42607 0.12833 0.31922 0.0
C283 C 0.4592 0.14262 0.38061 0.0
C284 C 0.4246 0.1295 0.20756 0.0
C285 C 0.49047 0.15813 0.32657 0.0
C286 C 0.48916 0.15945 0.21681 0.0
C287 C 0.45496 0.14646 0.04403 0.0
C288 C 0.42184 0.13206 0.98256 0.0
C289 C 0.45643 0.14522 0.15565 0.0
C290 C 0.39058 0.11641 0.03652 0.0
C291 C 0.39187 0.11518 0.14633 0.0
H292 H 0.99797 0.13942 0.33318 0.0
H293 H 0.91519 0.16322 0.31506 0.0
H294 H 0.91949 0.16689 0.1265 0.0
H295 H 0.94669 0.16351 0.9615 0.0
H296 H 1.02944 0.13968 0.9797 0.0
H297 H 1.02513 0.13601 0.16823 0.0
C298 C 0.98087 0.14544 0.28825 0.0
C299 C 0.95615 0.15094 0.34084 0.0
C300 C 0.98342 0.14758 0.17735 0.0
C301 C 0.93445 0.15873 0.27891 0.0
C302 C 0.93688 0.16087 0.16987 0.0
C303 C 0.96379 0.15749 0.00645 0.0
C304 C 0.98852 0.15199 0.95387 0.0
C305 C 0.96122 0.15534 0.11735 0.0
C306 C 1.01019 0.14418 0.01582 0.0
C307 C 1.00776 0.14204 0.12484 0.0
H308 H 0.99947 0.67184 0.3528 0.0
H309 H 0.88976 0.59864 0.29609 0.0
H310 H 0.89408 0.6017 0.10795 0.0
H311 H 0.92888 0.62492 0.95306 0.0
H312 H 0.0385 0.69833 0.01009 0.0
H313 H 0.03411 0.69526 0.19804 0.0
C314 C 0.97654 0.65647 0.29955 0.0
C315 C 0.94429 0.63492 0.34142 0.0
C316 C 0.97902 0.65834 0.1884 0.0
C317 C 0.91508 0.61552 0.2686 0.0
C318 C 0.91744 0.61721 0.15955 0.0
C319 C 0.95176 0.64036 0.00628 0.0
C320 C 0.98403 0.66195 0.96448 0.0
C321 C 0.94923 0.63854 0.11747 0.0
C322 C 1.01317 0.68142 0.03743 0.0
C323 C 1.01079 0.67971 0.14641 0.0
H324 H 0.18193 0.36908 0.06401 0.0
H325 H 0.27372 0.4501 0.21911 0.0
H326 H 0.24498 0.48073 0.19159 0.0
H327 H 0.19529 0.4853 0.11941 0.0
H328 H 0.10263 0.40568 0.96297 0.0
H329 H 0.13002 0.37355 -0.0049 0.0
C330 C 0.19543 0.39339 0.09216 0.0
C331 C 0.22999 0.40736 0.14337 0.0
C332 C 0.17868 0.41107 0.0755 0.0
C333 C 0.24722 0.43884 0.17942 0.0
C334 C 0.23081 0.4564 0.16363 0.0
C335 C 0.18093 0.46085 0.09246 0.0
C336 C 0.14709 0.44786 0.03839 0.0
C337 C 0.19679 0.44285 0.11108 0.0
C338 C 0.12877 0.41617 0.00452 0.0
C339 C 0.14447 0.39788 0.02289 0.0
H340 H 0.6675 0.59509 0.2307 0.0
H341 H 0.73326 0.60291 0.97748 0.0
H342 H 0.77825 0.65528 0.04788 0.0
H343 H 0.79787 0.69932 0.17841 0.0
H344 H 0.7313 0.69217 0.42848 0.0
H345 H 0.68785 0.63871 0.36377 0.0
C346 C 0.69164 0.60837 0.19089 0.0
C347 C 0.69703 0.59547 0.09872 0.0
C348 C 0.71734 0.63834 0.23192 0.0
C349 C 0.72847 0.61262 0.04808 0.0
C350 C 0.75425 0.64244 0.08856 0.0
C351 C 0.7741 0.68585 0.21953 0.0
C352 C 0.7677 0.69943 0.30808 0.0
C353 C 0.74889 0.65555 0.18022 0.0
C354 C 0.73671 0.68201 0.36025 0.0
C355 C 0.71181 0.65158 0.32294 0.0
H356 H 0.55734 0.89727 0.34175 0.0
H357 H 0.541 0.93318 0.05817 0.0
H358 H 0.47756 0.91084 0.08646 0.0
H359 H 0.42523 0.87618 0.18289 0.0
H360 H 0.44176 0.83815 0.46051 0.0
H361 H 0.5063 0.86654 0.44531 0.0
C362 C 0.53992 0.90043 0.28674 0.0
C363 C 0.55381 0.91664 0.19761 0.0
C364 C 0.50337 0.8872 0.30296 0.0
C365 C 0.53098 0.92077 0.12738 0.0
C366 C 0.49464 0.90793 0.14345 0.0
C367 C 0.4432 0.87505 0.24168 0.0
C368 C 0.429 0.85561 0.32382 0.0
C369 C 0.48032 0.89055 0.22992 0.0
C370 C 0.45229 0.85339 0.39769 0.0
C371 C 0.48914 0.86937 0.38838 0.0
H372 H 0.53376 0.01051 0.00766 0.0
H373 H 0.64095 0.08895 0.03414 0.0
H374 H 0.61991 0.12081 0.95192 0.0
H375 H 0.57082 0.12564 0.86537 0.0
H376 H 0.46353 0.0473 0.8481 0.0
H377 H 0.48473 0.01614 0.93237 0.0
C378 C 0.55238 0.0347 -0.00341 0.0
C379 C 0.58872 0.0474 0.02659 0.0
C380 C 0.54013 0.0528 0.94945 0.0
C381 C 0.6127 0.07874 0.01199 0.0
C382 C 0.60076 0.0969 0.96429 0.0
C383 C 0.5523 0.10174 0.87998 0.0
C384 C 0.51584 0.08865 0.85001 0.0
C385 C 0.56456 0.08405 0.93118 0.0
C386 C 0.49182 0.05782 0.87054 0.0
C387 C 0.50385 0.03997 0.91885 0.0
H388 H 0.94601 0.2295 0.81662 0.0
H389 H 1.00767 0.254 0.54544 0.0
H390 H 1.02338 0.30795 0.5777 0.0
H391 H 1.02541 0.34889 0.69279 0.0
H392 H 0.96581 0.32648 0.96741 0.0
H393 H 0.94317 0.27091 0.92406 0.0
C394 C 0.9622 0.24661 0.76362 0.0
C395 C 0.97601 0.23799 0.67949 0.0
C396 C 0.97188 0.27793 0.78409 0.0
C397 C 0.99712 0.26027 0.61144 0.0
C398 C 1.00617 0.29111 0.62984 0.0
C399 C 1.00717 0.3318 0.74265 0.0
C400 C 0.9976 0.34153 0.8337 0.0
C401 C 0.9947 0.30032 0.71768 0.0
C402 C 0.97358 0.31932 0.897 0.0
C403 C 0.96077 0.28765 0.87235 0.0
H404 H 0.80587 0.53627 0.66343 0.0
H405 H 0.83709 0.60519 0.92185 0.0
H406 H 0.77868 0.57422 -0.00738 0.0
H407 H 0.71851 0.5266 0.98119 0.0
H408 H 0.6877 0.45988 0.71519 0.0
H409 H 0.74602 0.49061 0.64818 0.0
C410 C 0.79991 0.54448 0.73536 0.0
C411 C 0.82572 0.57282 0.78763 0.0
C412 C 0.76626 0.52682 0.7745 0.0
C413 C 0.81757 0.58335 0.88026 0.0
C414 C 0.7842 0.56564 0.92077 0.0
C415 C 0.72454 0.51905 0.90818 0.0
C416 C 0.69872 0.49098 0.85333 0.0
C417 C 0.75826 0.53724 0.86857 0.0
C418 C 0.70707 0.48131 0.75929 0.0
C419 C 0.74045 0.49889 0.72061 0.0
H420 H 0.03819 0.60421 0.77385 0.0
H421 H 0.93616 0.54057 0.61133 0.0
H422 H 0.9439 0.49663 0.65023 0.0
H423 H 0.97828 0.47588 0.73939 0.0
H424 H 0.07745 0.53919 0.91537 0.0
H425 H 0.07251 0.58342 0.86321 0.0
C426 C 1.01801 0.58074 0.74566 0.0
C427 C 0.98685 0.57562 0.68889 0.0
C428 C 1.02199 0.55543 0.77202 0.0
C429 C 0.96045 0.54505 0.65483 0.0
C430 C 0.96482 0.51991 0.67732 0.0
C431 C 0.99882 0.49939 0.76579 0.0
C432 C 1.0282 0.50428 0.83176 0.0
C433 C 0.99521 0.52474 0.73732 0.0
C434 C 0.05448 0.53483 0.86577 0.0
C435 C 0.0517 0.56016 0.83542 0.0
H436 H 0.53191 0.34028 0.75745 0.0
H437 H 0.58146 0.3353 0.04861 0.0
H438 H 0.56351 0.28104 -0.0008 0.0
H439 H 0.53136 0.23448 0.8747 0.0
H440 H 0.4848 0.24155 0.58012 0.0
H441 H 0.50488 0.29582 0.62789 0.0
C442 C 0.53847 0.32716 0.81027 0.0
C443 C 0.55712 0.3412 0.90716 0.0
C444 C 0.52918 0.2966 0.77988 0.0
C445 C 0.56655 0.32452 0.97406 0.0
C446 C 0.55653 0.29368 0.94558 0.0
C447 C 0.5264 0.24815 0.82019 0.0
C448 C 0.5064 0.234 0.72455 0.0
C449 C 0.53772 0.27943 0.8486 0.0
C450 C 0.49994 0.25188 0.65469 0.0
C451 C 0.51118 0.28288 0.68208 0.0
H452 H 0.85461 0.07455 0.91294 0.0
H453 H 0.8059 0.07816 0.61727 0.0
H454 H 0.74664 0.04676 0.6798 0.0
H455 H 0.70915 0.02196 0.82147 0.0
H456 H 0.75616 0.01886 0.12043 0.0
H457 H 0.81587 0.04584 0.05314 0.0
C458 C 0.83095 0.06827 0.86227 0.0
C459 C 0.83449 0.07889 0.76103 0.0
C460 C 0.79689 0.05034 0.89923 0.0
C461 C 0.80377 0.07047 0.69568 0.0
C462 C 0.76994 0.0525 0.73132 0.0
C463 C 0.73247 0.02694 0.87179 0.0
C464 C 0.72856 0.01892 0.97602 0.0
C465 C 0.76627 0.04285 0.83335 0.0
C466 C 0.7587 0.02491 0.03992 0.0
C467 C 0.79274 0.04053 0.00162 0.0
H468 H 0.75959 0.93377 0.22013 0.0
H469 H 0.66261 0.85208 0.09287 0.0
H470 H 0.68888 0.81986 0.12861 0.0
H471 H 0.73805 0.81429 0.20219 0.0
H472 H 0.83549 0.89491 0.33117 0.0
H473 H 0.81065 0.92824 0.28832 0.0
C474 C 0.7444 0.90895 0.19961 0.0
C475 C 0.70912 0.8953 0.15411 0.0
C476 C 0.75971 0.8904 0.22104 0.0
C477 C 0.68973 0.86314 0.128 0.0
C478 C 0.70472 0.84467 0.14856 0.0
C479 C 0.75397 0.8392 0.22051 0.0
C480 C 0.78849 0.85216 0.27004 0.0
C481 C 0.73947 0.85797 0.19603 0.0
C482 C 0.80886 0.88444 0.2929 0.0
C483 C 0.79458 0.90344 0.26862 0.0
H484 H 0.22363 0.69036 0.33539 0.0
H485 H 0.30925 0.69828 0.15542 0.0
H486 H 0.26878 0.64835 0.05945 0.0
H487 H 0.20864 0.60395 0.02117 0.0
H488 H 0.12268 0.59532 0.20071 0.0
H489 H 0.16349 0.64466 0.301 0.0
C490 C 0.23347 0.68072 0.27677 0.0
C491 C 0.26918 0.69757 0.25245 0.0
C492 C 0.20986 0.65249 0.22012 0.0
C493 C 0.28175 0.68538 0.17536 0.0
C494 C 0.25862 0.65708 0.11992 0.0
C495 C 0.19882 0.61311 0.08144 0.0
C496 C 0.16287 0.59655 0.10307 0.0
C497 C 0.2225 0.64082 0.14012 0.0
C498 C 0.15037 0.60811 0.18244 0.0
C499 C 0.17368 0.63606 0.24021 0.0
H500 H 0.51658 0.42281 0.10566 0.0
H501 H 0.51019 0.48254 0.88366 0.0
H502 H 0.44602 0.45888 0.90095 0.0
H503 H 0.39198 0.42301 0.98602 0.0
H504 H 0.39892 0.36557 0.21621 0.0
H505 H 0.46209 0.38623 0.18899 0.0
C506 C 0.501 0.43037 0.06041 0.0
C507 C 0.51809 0.4544 -0.00655 0.0
C508 C 0.46411 0.41715 0.07277 0.0
C509 C 0.49765 0.46415 0.93596 0.0
C510 C 0.46094 0.45065 0.9459 0.0
C511 C 0.40731 0.41492 0.02974 0.0
C512 C 0.39072 0.39273 0.10297 0.0
C513 C 0.44392 0.42744 0.01518 0.0
C514 C 0.41098 0.38255 0.1592 0.0
C515 C 0.44719 0.39442 0.1438 0.0
H516 H 0.98282 0.74591 0.50997 0.0
H517 H 0.88557 0.69239 0.66299 0.0
H518 H 0.8644 0.72695 0.61059 0.0
H519 H 0.87268 0.77215 0.52024 0.0
H520 H 0.96989 0.82685 0.3701 0.0
H521 H 0.99156 0.79207 0.4214 0.0
C522 C 0.95713 0.74192 0.53254 0.0
C523 C 0.93597 0.71639 0.59052 0.0
C524 C 0.94483 0.76201 0.50182 0.0
C525 C 0.9026 0.71167 0.61833 0.0
C526 C 0.8903 0.73144 0.5882 0.0
C527 C 0.89855 0.77638 0.49839 0.0
C528 C 0.91961 0.80198 0.44118 0.0
C529 C 0.91103 0.75656 0.52945 0.0
C530 C 0.95316 0.80725 0.41401 0.0
C531 C 0.9656 0.78741 0.44359 0.0
H532 H 0.36026 0.046 0.45659 0.0
H533 H 0.37985 0.03032 0.77423 0.0
H534 H 0.36734 0.97823 0.71819 0.0
H535 H 0.36021 0.94094 0.57654 0.0
H536 H 0.34016 0.95505 0.25755 0.0
H537 H 0.34405 0.00444 0.31547 0.0
C538 C 0.36014 0.03054 0.51365 0.0
C539 C 0.37062 0.04156 0.61922 0.0
C540 C 0.35433 1.00107 0.48002 0.0
C541 C 0.37139 0.0219 0.69277 0.0
C542 C 0.36483 0.9924 0.66055 0.0
C543 C 0.35672 0.9549 0.51982 0.0
C544 C 0.35112 0.94527 0.41305 0.0
C545 C 0.35806 0.98246 0.55395 0.0
C546 C 0.34529 0.96267 0.34012 0.0
C547 C 0.34727 0.99066 0.3733 0.0
H548 H 0.08962 0.22966 0.38231 0.0
H549 H 0.13896 0.22461 0.67462 0.0
H550 H 0.19804 0.25665 0.61193 0.0
H551 H 0.23523 0.28256 0.47116 0.0
H552 H 0.18777 0.28697 0.17491 0.0
H553 H 0.12812 0.25926 0.24261 0.0
C554 C 0.11338 0.23577 0.4322 0.0
C555 C 0.11006 0.22457 0.53258 0.0
C556 C 0.14737 0.25404 0.39507 0.0
C557 C 0.1409 0.23273 0.59689 0.0
C558 C 0.17464 0.25108 0.56117 0.0
C559 C 0.21183 0.27769 0.42145 0.0
C560 C 0.21561 0.28631 0.31788 0.0
C561 C 0.1781 0.26134 0.46 0.0
C562 C 0.18534 0.28045 0.25489 0.0
C563 C 0.15134 0.26442 0.29342 0.0
H564 H 0.35212 0.16622 0.3858 0.0
H565 H 0.37635 0.21921 0.68348 0.0
H566 H 0.37297 0.26052 0.59823 0.0
H567 H 0.3648 0.28219 0.43922 0.0
H568 H 0.33622 0.22834 0.14253 0.0
H569 H 0.34057 0.18692 0.22652 0.0
C570 C 0.35602 0.18659 0.43201 0.0
C571 C 0.36434 0.1897 0.54066 0.0
C572 C 0.35422 0.21035 0.38231 0.0
C573 C 0.3696 0.21623 0.59981 0.0
C574 C 0.36807 0.23999 0.55102 0.0
C575 C 0.36017 0.2616 0.39272 0.0
C576 C 0.35115 0.25846 0.28471 0.0
C577 C 0.36101 0.23751 0.44225 0.0
C578 C 0.34391 0.23132 0.22561 0.0
C579 C 0.34603 0.20761 0.27376 0.0
H580 H 0.93108 0.95633 0.61828 0.0
H581 H 0.95247 0.97124 0.29436 0.0
H582 H 0.97476 0.02686 0.32993 0.0
H583 H 0.98246 0.07018 0.45009 0.0
H584 H 0.95374 0.05337 0.76801 0.0
H585 H 0.94039 0.99966 0.73904 0.0
C586 C 0.94117 0.9719 0.55602 0.0
C587 C 0.94032 0.95997 0.4541 0.0
C588 C 0.95247 0.00345 0.57623 0.0
C589 C 0.95293 0.98011 0.37346 0.0
C590 C 0.9656 0.01182 0.39375 0.0
C591 C 0.97401 0.05481 0.51323 0.0
C592 C 0.96932 0.06544 0.61113 0.0
C593 C 0.96474 0.02363 0.49435 0.0
C594 C 0.95758 0.04543 0.6922 0.0
C595 C 0.94986 0.0148 0.67554 0.0
H596 H 0.11286 0.70111 0.44675 0.0
H597 H 0.11384 0.76917 0.66917 0.0
H598 H 0.17592 0.80539 0.64079 0.0
H599 H 0.23003 0.81832 0.5537 0.0
H600 H 0.23006 0.75284 0.3228 0.0
H601 H 0.16803 0.71503 0.35422 0.0
C602 C 0.12673 0.7239 0.4886 0.0
C603 C 0.10862 0.73237 0.56012 0.0
C604 C 0.16276 0.74505 0.47092 0.0
C605 C 0.12697 0.76202 0.61356 0.0
C606 C 0.16259 0.7828 0.59762 0.0
C607 C 0.21655 0.79575 0.51022 0.0
C608 C 0.23483 0.78833 0.43676 0.0
C609 C 0.18075 0.77461 0.5267 0.0
C610 C 0.21679 0.75903 0.38074 0.0
C611 C 0.18121 0.73748 0.39832 0.0
loop_
_geom_bond_atom_site_label_1
_geom_bond_atom_site_label_2
_geom_bond_distance
_geom_bond_site_symmetry_2
_ccdc_geom_bond_type
Tb0 O3 2.453 . S
Tb0 O4 2.596 1_655 S
Tb0 O5 2.374 1_654 S
Tb0 O13 2.343 1_655 S
Tb0 O15 2.353 1_655 S
Tb0 O17 2.427 . S
Tb0 O18 2.525 1_554 S
C1 O5 1.251 . S
C1 O7 1.263 . S
Tb2 O4 2.343 . S
Tb2 O7 2.353 1_554 S
Tb2 O10 2.427 . S
Tb2 O11 2.513 . S
Tb2 O12 2.453 . S
Tb2 O13 2.596 . S
Tb2 O14 2.374 . S
O3 Tb0 2.453 . S
O3 C19 1.245 1_655 S
O4 Tb0 2.596 1_455 S
O4 Tb2 2.343 . S
O4 C19 1.259 . S
O5 Tb0 2.374 1_456 S
O5 C1 1.251 . S
C6 O10 1.275 . S
C6 O11 1.246 . S
O7 C1 1.263 . S
O7 Tb2 2.353 1_556 S
C8 O12 1.245 . S
C8 O13 1.259 . S
C9 O14 1.250 . S
C9 O15 1.263 . S
O10 Tb2 2.427 . S
O10 C6 1.275 . S
O11 Tb2 2.513 . S
O11 C6 1.246 . S
O12 Tb2 2.453 . S
O12 C8 1.245 . S
O13 Tb0 2.343 1_455 S
O13 Tb2 2.596 . S
O13 C8 1.259 . S
O14 Tb2 2.374 . S
O14 C9 1.250 . S
O15 Tb0 2.353 1_455 S
O15 C9 1.263 . S
C16 O17 1.275 . S
C16 O18 1.248 1_554 S
O17 Tb0 2.427 . S
O17 C16 1.275 . S
O18 Tb0 2.525 1_556 S
O18 C16 1.248 1_556 S
C19 O3 1.245 1_455 S
C19 O4 1.259 . S
Tb20 O23 2.453 . S
Tb20 O24 2.596 . S
Tb20 O25 2.374 . S
Tb20 O33 2.343 . S
Tb20 O35 2.353 1_554 S
Tb20 O37 2.427 . S
Tb20 O38 2.513 . S
C21 O25 1.251 . S
C21 O27 1.263 . S
Tb22 O24 2.343 . S
Tb22 O27 2.353 . S
Tb22 O30 2.427 . S
Tb22 O31 2.513 1_554 S
Tb22 O32 2.453 . S
Tb22 O33 2.596 . S
Tb22 O34 2.374 1_554 S
O23 Tb20 2.453 . S
O23 C39 1.245 . S
O24 Tb20 2.596 . S
O24 Tb22 2.343 . S
O24 C39 1.259 . S
O25 Tb20 2.374 . S
O25 C21 1.251 . S
C26 O30 1.275 . S
C26 O31 1.246 1_554 S
O27 C21 1.263 . S
O27 Tb22 2.353 . S
C28 O32 1.245 . S
C28 O33 1.259 . S
C29 O34 1.250 . S
C29 O35 1.263 . S
O30 Tb22 2.427 . S
O30 C26 1.275 . S
O31 Tb22 2.513 1_556 S
O31 C26 1.246 1_556 S
O32 Tb22 2.453 . S
O32 C28 1.245 . S
O33 Tb20 2.343 . S
O33 Tb22 2.596 . S
O33 C28 1.259 . S
O34 Tb22 2.374 1_556 S
O34 C29 1.250 . S
O35 Tb20 2.353 1_556 S
O35 C29 1.263 . S
C36 O37 1.275 . S
C36 O38 1.246 . S
O37 Tb20 2.427 . S
O37 C36 1.275 . S
O38 Tb20 2.513 . S
O38 C36 1.246 . S
C39 O23 1.245 . S
C39 O24 1.259 . S
Tb40 O43 2.453 . S
Tb40 O44 2.596 . S
Tb40 O45 2.374 1_554 S
Tb40 O53 2.368 . S
Tb40 O55 2.353 . S
Tb40 O57 2.427 . S
Tb40 O58 2.513 . S
C41 O45 1.292 . S
C41 O47 1.225 1_545 S
Tb42 O44 2.343 1_565 S
Tb42 O47 2.353 1_554 S
Tb42 O50 2.427 . S
Tb42 O51 2.513 . S
Tb42 O52 2.453 . S
Tb42 O53 2.564 1_565 S
Tb42 O54 2.374 . S
O43 Tb40 2.453 . S
O43 C59 1.245 . S
O44 Tb40 2.596 . S
O44 Tb42 2.343 1_545 S
O44 C59 1.259 . S
O45 Tb40 2.374 1_556 S
O45 C41 1.292 . S
C46 O50 1.275 . S
C46 O51 1.246 . S
O47 C41 1.225 1_565 S
O47 Tb42 2.353 1_556 S
C48 O52 1.245 . S
C48 O53 1.243 1_565 S
C49 O54 1.250 1_545 S
C49 O55 1.263 . S
O50 Tb42 2.427 . S
O50 C46 1.275 . S
O51 Tb42 2.513 . S
O51 C46 1.246 . S
O52 Tb42 2.453 . S
O52 C48 1.245 . S
O53 Tb40 2.368 . S
O53 Tb42 2.564 1_545 S
O53 C48 1.243 1_545 S
O54 Tb42 2.374 . S
O54 C49 1.250 1_565 S
O55 Tb40 2.353 . S
O55 C49 1.263 . S
C56 O57 1.275 . S
C56 O58 1.246 . S
O57 Tb40 2.427 . S
O57 C56 1.275 . S
O58 Tb40 2.513 . S
O58 C56 1.246 . S
C59 O43 1.245 . S
C59 O44 1.259 . S
Tb60 O63 2.453 . S
Tb60 O64 2.596 . S
Tb60 O65 2.374 . S
Tb60 O73 2.343 . S
Tb60 O75 2.353 . S
Tb60 O77 2.427 . S
Tb60 O78 2.513 . S
C61 O65 1.251 . S
C61 O67 1.263 . S
Tb62 O64 2.343 . S
Tb62 O67 2.353 . S
Tb62 O70 2.427 . S
Tb62 O71 2.513 . S
Tb62 O72 2.453 . S
Tb62 O73 2.596 . S
Tb62 O74 2.374 . S
O63 Tb60 2.453 . S
O63 C79 1.245 . S
O64 Tb60 2.596 . S
O64 Tb62 2.343 . S
O64 C79 1.259 . S
O65 Tb60 2.374 . S
O65 C61 1.251 . S
C66 O70 1.275 . S
C66 O71 1.246 . S
O67 C61 1.263 . S
O67 Tb62 2.353 . S
C68 O72 1.245 . S
C68 O73 1.259 . S
C69 O74 1.250 . S
C69 O75 1.263 . S
O70 Tb62 2.427 . S
O70 C66 1.275 . S
O71 Tb62 2.513 . S
O71 C66 1.246 . S
O72 Tb62 2.453 . S
O72 C68 1.245 . S
O73 Tb60 2.343 . S
O73 Tb62 2.596 . S
O73 C68 1.259 . S
O74 Tb62 2.374 . S
O74 C69 1.250 . S
O75 Tb60 2.353 . S
O75 C69 1.263 . S
C76 O77 1.275 . S
C76 O78 1.246 . S
O77 Tb60 2.427 . S
O77 C76 1.275 . S
O78 Tb60 2.513 . S
O78 C76 1.246 . S
C79 O63 1.245 . S
C79 O64 1.259 . S
Tb80 O83 2.453 . S
Tb80 O84 2.596 . S
Tb80 O85 2.374 . S
Tb80 O93 2.343 . S
Tb80 O95 2.353 . S
Tb80 O97 2.427 . S
Tb80 O98 2.513 . S
C81 O85 1.251 . S
C81 O87 1.263 . S
Tb82 O84 2.343 . S
Tb82 O87 2.353 . S
Tb82 O90 2.427 . S
Tb82 O91 2.513 . S
Tb82 O92 2.453 . S
Tb82 O93 2.596 . S
Tb82 O94 2.374 . S
O83 Tb80 2.453 . S
O83 C99 1.245 . S
O84 Tb80 2.596 . S
O84 Tb82 2.343 . S
O84 C99 1.259 . S
O85 Tb80 2.374 . S
O85 C81 1.251 . S
C86 O90 1.275 . S
C86 O91 1.246 . S
O87 C81 1.263 . S
O87 Tb82 2.353 . S
C88 O92 1.245 . S
C88 O93 1.259 . S
C89 O94 1.250 . S
C89 O95 1.263 . S
O90 Tb82 2.427 . S
O90 C86 1.275 . S
O91 Tb82 2.513 . S
O91 C86 1.246 . S
O92 Tb82 2.453 . S
O92 C88 1.245 . S
O93 Tb80 2.343 . S
O93 Tb82 2.596 . S
O93 C88 1.259 . S
O94 Tb82 2.374 . S
O94 C89 1.250 . S
O95 Tb80 2.353 . S
O95 C89 1.263 . S
C96 O97 1.275 . S
C96 O98 1.246 . S
O97 Tb80 2.427 . S
O97 C96 1.275 . S
O98 Tb80 2.513 . S
O98 C96 1.246 . S
C99 O83 1.245 . S
C99 O84 1.259 . S
Tb100 O103 2.453 . S
Tb100 O104 2.596 . S
Tb100 O105 2.374 . S
Tb100 O113 2.343 . S
Tb100 O115 2.353 . S
Tb100 O117 2.427 . S
Tb100 O118 2.513 . S
C101 O105 1.251 1_556 S
C101 O107 1.263 1_556 S
Tb102 O104 2.343 . S
Tb102 O107 2.353 . S
Tb102 O110 2.427 . S
Tb102 O111 2.513 . S
Tb102 O112 2.453 . S
Tb102 O113 2.596 . S
Tb102 O114 2.374 . S
O103 Tb100 2.453 . S
O103 C119 1.245 . S
O104 Tb100 2.596 . S
O104 Tb102 2.343 . S
O104 C119 1.259 . S
O105 Tb100 2.374 . S
O105 C101 1.251 1_554 S
C106 O110 1.275 . S
C106 O111 1.246 . S
O107 C101 1.263 1_554 S
O107 Tb102 2.353 . S
C108 O112 1.245 . S
C108 O113 1.259 . S
C109 O114 1.250 . S
C109 O115 1.263 . S
O110 Tb102 2.427 . S
O110 C106 1.275 . S
O111 Tb102 2.513 . S
O111 C106 1.246 . S
O112 Tb102 2.453 . S
O112 C108 1.245 . S
O113 Tb100 2.343 . S
O113 Tb102 2.596 . S
O113 C108 1.259 . S
O114 Tb102 2.374 . S
O114 C109 1.250 . S
O115 Tb100 2.353 . S
O115 C109 1.263 . S
C116 O117 1.275 . S
C116 O118 1.246 . S
O117 Tb100 2.427 . S
O117 C116 1.275 . S
O118 Tb100 2.513 . S
O118 C116 1.246 . S
C119 O103 1.245 . S
C119 O104 1.259 . S
Tb120 O123 2.453 . S
Tb120 O124 2.596 . S
Tb120 O125 2.374 . S
Tb120 O133 2.343 . S
Tb120 O135 2.353 . S
Tb120 O137 2.427 . S
Tb120 O138 2.513 . S
C121 O125 1.251 . S
C121 O127 1.263 . S
Tb122 O124 2.343 . S
Tb122 O127 2.353 . S
Tb122 O130 2.427 . S
Tb122 O131 2.513 . S
Tb122 O132 2.453 . S
Tb122 O133 2.596 . S
Tb122 O134 2.374 . S
O123 Tb120 2.453 . S
O123 C139 1.245 . S
O124 Tb120 2.596 . S
O124 Tb122 2.343 . S
O124 C139 1.259 . S
O125 Tb120 2.374 . S
O125 C121 1.251 . S
C126 O130 1.275 . S
C126 O131 1.246 . S
O127 C121 1.263 . S
O127 Tb122 2.353 . S
C128 O132 1.245 . S
C128 O133 1.259 . S
C129 O134 1.250 . S
C129 O135 1.263 . S
O130 Tb122 2.427 . S
O130 C126 1.275 . S
O131 Tb122 2.513 . S
O131 C126 1.246 . S
O132 Tb122 2.453 . S
O132 C128 1.245 . S
O133 Tb120 2.343 . S
O133 Tb122 2.596 . S
O133 C128 1.259 . S
O134 Tb122 2.374 . S
O134 C129 1.250 . S
O135 Tb120 2.353 . S
O135 C129 1.263 . S
C136 O137 1.275 . S
C136 O138 1.246 . S
O137 Tb120 2.427 . S
O137 C136 1.275 . S
O138 Tb120 2.513 . S
O138 C136 1.246 . S
C139 O123 1.245 . S
C139 O124 1.259 . S
Tb140 O143 2.453 . S
Tb140 O144 2.596 . S
Tb140 O145 2.374 . S
Tb140 O153 2.343 . S
Tb140 O155 2.353 . S
Tb140 O157 2.427 . S
Tb140 O158 2.513 . S
C141 O145 1.251 . S
C141 O147 1.263 . S
Tb142 O144 2.343 . S
Tb142 O147 2.353 . S
Tb142 O150 2.427 1_655 S
Tb142 O151 2.513 1_655 S
Tb142 O152 2.453 . S
Tb142 O153 2.596 . S
Tb142 O154 2.374 . S
O143 Tb140 2.453 . S
O143 C159 1.245 . S
O144 Tb140 2.596 . S
O144 Tb142 2.343 . S
O144 C159 1.259 . S
O145 Tb140 2.374 . S
O145 C141 1.251 . S
C146 O150 1.275 . S
C146 O151 1.246 . S
O147 C141 1.263 . S
O147 Tb142 2.353 . S
C148 O152 1.245 . S
C148 O153 1.259 . S
C149 O154 1.250 . S
C149 O155 1.263 . S
O150 Tb142 2.427 1_455 S
O150 C146 1.275 . S
O151 Tb142 2.513 1_455 S
O151 C146 1.246 . S
O152 Tb142 2.453 . S
O152 C148 1.245 . S
O153 Tb140 2.343 . S
O153 Tb142 2.596 . S
O153 C148 1.259 . S
O154 Tb142 2.374 . S
O154 C149 1.250 . S
O155 Tb140 2.353 . S
O155 C149 1.263 . S
C156 O157 1.275 . S
C156 O158 1.246 . S
O157 Tb140 2.427 . S
O157 C156 1.275 . S
O158 Tb140 2.513 . S
O158 C156 1.246 . S
C159 O143 1.245 . S
C159 O144 1.259 . S
Tb160 O163 2.453 . S
Tb160 O164 2.596 . S
Tb160 O165 2.374 . S
Tb160 O173 2.343 . S
Tb160 O175 2.353 . S
Tb160 O177 2.427 1_655 S
Tb160 O178 2.513 1_655 S
C161 O165 1.251 . S
C161 O167 1.263 . S
Tb162 O164 2.343 . S
Tb162 O167 2.353 . S
Tb162 O170 2.427 . S
Tb162 O171 2.513 . S
Tb162 O172 2.453 . S
Tb162 O173 2.596 . S
Tb162 O174 2.374 . S
O163 Tb160 2.453 . S
O163 C179 1.245 . S
O164 Tb160 2.596 . S
O164 Tb162 2.343 . S
O164 C179 1.259 . S
O165 Tb160 2.374 . S
O165 C161 1.251 . S
C166 O170 1.275 . S
C166 O171 1.246 . S
O167 C161 1.263 . S
O167 Tb162 2.353 . S
C168 O172 1.245 . S
C168 O173 1.259 . S
C169 O174 1.250 . S
C169 O175 1.263 . S
O170 Tb162 2.427 . S
O170 C166 1.275 . S
O171 Tb162 2.513 . S
O171 C166 1.246 . S
O172 Tb162 2.453 . S
O172 C168 1.245 . S
O173 Tb160 2.343 . S
O173 Tb162 2.596 . S
O173 C168 1.259 . S
O174 Tb162 2.374 . S
O174 C169 1.250 . S
O175 Tb160 2.353 . S
O175 C169 1.263 . S
C176 O177 1.275 . S
C176 O178 1.246 . S
O177 Tb160 2.427 1_455 S
O177 C176 1.275 . S
O178 Tb160 2.513 1_455 S
O178 C176 1.246 . S
C179 O163 1.245 . S
C179 O164 1.259 . S
H180 C186 0.930 . S
H181 C189 0.930 . S
H182 C190 0.930 . S
H183 C191 0.930 . S
H184 C194 0.930 . S
H185 C195 0.930 . S
C186 H180 0.930 . S
C186 C187 1.355 . S
C186 C188 1.415 . S
C187 C186 1.355 . S
C187 C189 1.419 . S
C188 C186 1.415 . S
C188 C193 1.425 . S
C188 C195 1.409 . S
C189 H181 0.930 . S
C189 C187 1.419 . S
C189 C190 1.362 . S
C190 H182 0.930 . S
C190 C189 1.362 . S
C190 C193 1.409 . S
C191 H183 0.930 . S
C191 C192 1.355 . S
C191 C193 1.415 . S
C192 C191 1.355 . S
C192 C194 1.419 . S
C193 C188 1.425 . S
C193 C190 1.409 . S
C193 C191 1.415 . S
C194 H184 0.930 . S
C194 C192 1.419 . S
C194 C195 1.362 . S
C195 H185 0.930 . S
C195 C188 1.409 . S
C195 C194 1.362 . S
H196 C202 0.930 . S
H197 C205 0.930 . S
H198 C206 0.930 . S
H199 C207 0.930 . S
H200 C210 0.930 . S
H201 C211 0.930 . S
C202 H196 0.930 . S
C202 C203 1.355 . S
C202 C204 1.415 . S
C203 C202 1.355 . S
C203 C205 1.419 . S
C204 C202 1.415 . S
C204 C209 1.425 . S
C204 C211 1.409 . S
C205 H197 0.930 . S
C205 C203 1.419 . S
C205 C206 1.362 . S
C206 H198 0.930 . S
C206 C205 1.362 . S
C206 C209 1.409 . S
C207 H199 0.930 . S
C207 C208 1.355 . S
C207 C209 1.415 . S
C208 C207 1.355 . S
C208 C210 1.419 . S
C209 C204 1.425 . S
C209 C206 1.409 . S
C209 C207 1.415 . S
C210 H200 0.930 . S
C210 C208 1.419 . S
C210 C211 1.362 . S
C211 H201 0.930 . S
C211 C204 1.409 . S
C211 C210 1.362 . S
H212 C218 0.930 . S
H213 C221 0.930 . S
H214 C222 0.930 . S
H215 C223 0.930 . S
H216 C226 0.930 1_565 S
H217 C227 0.930 . S
C218 H212 0.930 . S
C218 C219 1.355 1_565 S
C218 C220 1.415 1_565 S
C219 C218 1.355 1_545 S
C219 C221 1.419 . S
C220 C218 1.415 1_545 S
C220 C225 1.425 . S
C220 C227 1.409 1_545 S
C221 H213 0.930 . S
C221 C219 1.419 . S
C221 C222 1.362 . S
C222 H214 0.930 . S
C222 C221 1.362 . S
C222 C225 1.409 . S
C223 H215 0.930 . S
C223 C224 1.355 . S
C223 C225 1.415 . S
C224 C223 1.355 . S
C224 C226 1.419 . S
C225 C220 1.425 . S
C225 C222 1.409 . S
C225 C223 1.415 . S
C226 H216 0.930 1_545 S
C226 C224 1.419 . S
C226 C227 1.362 1_545 S
C227 H217 0.930 . S
C227 C220 1.409 1_565 S
C227 C226 1.362 1_565 S
H228 C234 0.930 . S
H229 C237 0.930 . S
H230 C238 0.930 . S
H231 C239 0.930 . S
H232 C242 0.930 1_554 S
H233 C243 0.930 . S
C234 H228 0.930 . S
C234 C235 1.355 . S
C234 C236 1.415 . S
C235 C234 1.355 . S
C235 C237 1.419 . S
C236 C234 1.415 . S
C236 C241 1.425 . S
C236 C243 1.409 . S
C237 H229 0.930 . S
C237 C235 1.419 . S
C237 C238 1.362 . S
C238 H230 0.930 . S
C238 C237 1.362 . S
C238 C241 1.409 . S
C239 H231 0.930 . S
C239 C240 1.355 . S
C239 C241 1.415 . S
C240 C239 1.355 . S
C240 C242 1.419 . S
C241 C236 1.425 . S
C241 C238 1.409 . S
C241 C239 1.415 . S
C242 H232 0.930 1_556 S
C242 C240 1.419 . S
C242 C243 1.362 . S
C243 H233 0.930 . S
C243 C236 1.409 . S
C243 C242 1.362 . S
H244 C250 0.930 . S
H245 C253 0.930 . S
H246 C254 0.930 . S
H247 C255 0.930 . S
H248 C258 0.930 . S
H249 C259 0.930 . S
C250 H244 0.930 . S
C250 C251 1.355 . S
C250 C252 1.415 . S
C251 C250 1.355 . S
C251 C253 1.419 . S
C252 C250 1.415 . S
C252 C257 1.425 . S
C252 C259 1.409 . S
C253 H245 0.930 . S
C253 C251 1.419 . S
C253 C254 1.362 . S
C254 H246 0.930 . S
C254 C253 1.362 . S
C254 C257 1.409 . S
C255 H247 0.930 . S
C255 C256 1.355 . S
C255 C257 1.415 . S
C256 C255 1.355 . S
C256 C258 1.419 . S
C257 C252 1.425 . S
C257 C254 1.409 . S
C257 C255 1.415 . S
C258 H248 0.930 . S
C258 C256 1.419 . S
C258 C259 1.362 . S
C259 H249 0.930 . S
C259 C252 1.409 . S
C259 C258 1.362 . S
H260 C266 0.930 . S
H261 C269 0.930 . S
H262 C270 0.930 . S
H263 C271 0.930 . S
H264 C274 0.930 . S
H265 C275 0.930 . S
C266 H260 0.930 . S
C266 C267 1.355 . S
C266 C268 1.415 . S
C267 C266 1.355 . S
C267 C269 1.419 . S
C268 C266 1.415 . S
C268 C273 1.425 . S
C268 C275 1.409 . S
C269 H261 0.930 . S
C269 C267 1.419 . S
C269 C270 1.362 . S
C270 H262 0.930 . S
C270 C269 1.362 . S
C270 C273 1.409 . S
C271 H263 0.930 . S
C271 C272 1.355 . S
C271 C273 1.415 . S
C272 C271 1.355 . S
C272 C274 1.419 . S
C273 C268 1.425 . S
C273 C270 1.409 . S
C273 C271 1.415 . S
C274 H264 0.930 . S
C274 C272 1.419 . S
C274 C275 1.362 . S
C275 H265 0.930 . S
C275 C268 1.409 . S
C275 C274 1.362 . S
H276 C282 0.930 . S
H277 C285 0.930 . S
H278 C286 0.930 . S
H279 C287 0.930 . S
H280 C290 0.930 . S
H281 C291 0.930 . S
C282 H276 0.930 . S
C282 C283 1.355 . S
C282 C284 1.415 . S
C283 C282 1.355 . S
C283 C285 1.419 . S
C284 C282 1.415 . S
C284 C289 1.425 . S
C284 C291 1.409 . S
C285 H277 0.930 . S
C285 C283 1.419 . S
C285 C286 1.362 . S
C286 H278 0.930 . S
C286 C285 1.362 . S
C286 C289 1.409 . S
C287 H279 0.930 . S
C287 C288 1.355 1_554 S
C287 C289 1.415 . S
C288 C287 1.355 1_556 S
C288 C290 1.419 . S
C289 C284 1.425 . S
C289 C286 1.409 . S
C289 C287 1.415 . S
C290 H280 0.930 . S
C290 C288 1.419 . S
C290 C291 1.362 1_556 S
C291 H281 0.930 . S
C291 C284 1.409 . S
C291 C290 1.362 1_554 S
H292 C298 0.930 . S
H293 C301 0.930 . S
H294 C302 0.930 . S
H295 C303 0.930 1_556 S
H296 C306 0.930 1_556 S
H297 C307 0.930 . S
C298 H292 0.930 . S
C298 C299 1.355 . S
C298 C300 1.415 . S
C299 C298 1.355 . S
C299 C301 1.419 . S
C300 C298 1.415 . S
C300 C305 1.425 . S
C300 C307 1.409 . S
C301 H293 0.930 . S
C301 C299 1.419 . S
C301 C302 1.362 . S
C302 H294 0.930 . S
C302 C301 1.362 . S
C302 C305 1.409 . S
C303 H295 0.930 1_554 S
C303 C304 1.355 1_554 S
C303 C305 1.415 . S
C304 C303 1.355 1_556 S
C304 C306 1.419 1_556 S
C305 C300 1.425 . S
C305 C302 1.409 . S
C305 C303 1.415 . S
C306 H296 0.930 1_554 S
C306 C304 1.419 1_554 S
C306 C307 1.362 . S
C307 H297 0.930 . S
C307 C300 1.409 . S
C307 C306 1.362 . S
H308 C314 0.930 . S
H309 C317 0.930 . S
H310 C318 0.930 . S
H311 C319 0.930 1_556 S
H312 C322 0.930 1_556 S
H313 C323 0.930 . S
C314 H308 0.930 . S
C314 C315 1.355 . S
C314 C316 1.415 . S
C315 C314 1.355 . S
C315 C317 1.419 . S
C316 C314 1.415 . S
C316 C321 1.425 . S
C316 C323 1.409 . S
C317 H309 0.930 . S
C317 C315 1.419 . S
C317 C318 1.362 . S
C318 H310 0.930 . S
C318 C317 1.362 . S
C318 C321 1.409 . S
C319 H311 0.930 1_554 S
C319 C320 1.355 1_554 S
C319 C321 1.415 . S
C320 C319 1.355 1_556 S
C320 C322 1.419 1_556 S
C321 C316 1.425 . S
C321 C318 1.409 . S
C321 C319 1.415 . S
C322 H312 0.930 1_554 S
C322 C320 1.419 1_554 S
C322 C323 1.362 . S
C323 H313 0.930 . S
C323 C316 1.409 . S
C323 C322 1.362 . S
H324 C330 0.930 . S
H325 C333 0.930 . S
H326 C334 0.930 . S
H327 C335 0.930 . S
H328 C338 0.930 . S
H329 C339 0.930 . S
C330 H324 0.930 . S
C330 C331 1.355 . S
C330 C332 1.415 . S
C331 C330 1.355 . S
C331 C333 1.419 . S
C332 C330 1.415 . S
C332 C337 1.425 . S
C332 C339 1.409 . S
C333 H325 0.930 . S
C333 C331 1.419 . S
C333 C334 1.362 . S
C334 H326 0.930 . S
C334 C333 1.362 . S
C334 C337 1.409 . S
C335 H327 0.930 . S
C335 C336 1.355 . S
C335 C337 1.415 . S
C336 C335 1.355 . S
C336 C338 1.419 . S
C337 C332 1.425 . S
C337 C334 1.409 . S
C337 C335 1.415 . S
C338 H328 0.930 . S
C338 C336 1.419 . S
C338 C339 1.362 . S
C339 H329 0.930 . S
C339 C332 1.409 . S
C339 C338 1.362 . S
H340 C346 0.930 . S
H341 C349 0.930 . S
H342 C350 0.930 . S
H343 C351 0.930 . S
H344 C354 0.930 . S
H345 C355 0.930 . S
C346 H340 0.930 . S
C346 C347 1.355 . S
C346 C348 1.415 . S
C347 C346 1.355 . S
C347 C349 1.419 . S
C348 C346 1.415 . S
C348 C353 1.425 . S
C348 C355 1.409 . S
C349 H341 0.930 . S
C349 C347 1.419 . S
C349 C350 1.362 . S
C350 H342 0.930 . S
C350 C349 1.362 . S
C350 C353 1.409 . S
C351 H343 0.930 . S
C351 C352 1.355 . S
C351 C353 1.415 . S
C352 C351 1.355 . S
C352 C354 1.419 . S
C353 C348 1.425 . S
C353 C350 1.409 . S
C353 C351 1.415 . S
C354 H344 0.930 . S
C354 C352 1.419 . S
C354 C355 1.362 . S
C355 H345 0.930 . S
C355 C348 1.409 . S
C355 C354 1.362 . S
H356 C362 0.930 . S
H357 C365 0.930 . S
H358 C366 0.930 . S
H359 C367 0.930 . S
H360 C370 0.930 . S
H361 C371 0.930 . S
C362 H356 0.930 . S
C362 C363 1.355 . S
C362 C364 1.415 . S
C363 C362 1.355 . S
C363 C365 1.419 . S
C364 C362 1.415 . S
C364 C369 1.425 . S
C364 C371 1.409 . S
C365 H357 0.930 . S
C365 C363 1.419 . S
C365 C366 1.362 . S
C366 H358 0.930 . S
C366 C365 1.362 . S
C366 C369 1.409 . S
C367 H359 0.930 . S
C367 C368 1.355 . S
C367 C369 1.415 . S
C368 C367 1.355 . S
C368 C370 1.419 . S
C369 C364 1.425 . S
C369 C366 1.409 . S
C369 C367 1.415 . S
C370 H360 0.930 . S
C370 C368 1.419 . S
C370 C371 1.362 . S
C371 H361 0.930 . S
C371 C364 1.409 . S
C371 C370 1.362 . S
H372 C378 0.930 . S
H373 C381 0.930 . S
H374 C382 0.930 . S
H375 C383 0.930 . S
H376 C386 0.930 . S
H377 C387 0.930 . S
C378 H372 0.930 . S
C378 C379 1.355 . S
C378 C380 1.415 . S
C379 C378 1.355 . S
C379 C381 1.419 . S
C380 C378 1.415 . S
C380 C385 1.425 1_554 S
C380 C387 1.409 . S
C381 H373 0.930 . S
C381 C379 1.419 . S
C381 C382 1.362 1_554 S
C382 H374 0.930 . S
C382 C381 1.362 1_556 S
C382 C385 1.409 . S
C383 H375 0.930 . S
C383 C384 1.355 . S
C383 C385 1.415 . S
C384 C383 1.355 . S
C384 C386 1.419 . S
C385 C380 1.425 1_556 S
C385 C382 1.409 . S
C385 C383 1.415 . S
C386 H376 0.930 . S
C386 C384 1.419 . S
C386 C387 1.362 1_556 S
C387 H377 0.930 . S
C387 C380 1.409 . S
C387 C386 1.362 1_554 S
H388 C394 0.930 . S
H389 C397 0.930 . S
H390 C398 0.930 . S
H391 C399 0.930 . S
H392 C402 0.930 . S
H393 C403 0.930 . S
C394 H388 0.930 . S
C394 C395 1.355 . S
C394 C396 1.415 . S
C395 C394 1.355 . S
C395 C397 1.419 . S
C396 C394 1.415 . S
C396 C401 1.425 . S
C396 C403 1.409 1_656 S
C397 H389 0.930 . S
C397 C395 1.419 . S
C397 C398 1.362 . S
C398 H390 0.930 . S
C398 C397 1.362 . S
C398 C401 1.409 . S
C399 H391 0.930 . S
C399 C400 1.355 . S
C399 C401 1.415 . S
C400 C399 1.355 . S
C400 C402 1.419 1_656 S
C401 C396 1.425 . S
C401 C398 1.409 . S
C401 C399 1.415 . S
C402 H392 0.930 . S
C402 C400 1.419 1_454 S
C402 C403 1.362 . S
C403 H393 0.930 . S
C403 C396 1.409 1_454 S
C403 C402 1.362 . S
H404 C410 0.930 . S
H405 C413 0.930 . S
H406 C414 0.930 . S
H407 C415 0.930 . S
H408 C418 0.930 . S
H409 C419 0.930 . S
C410 H404 0.930 . S
C410 C411 1.355 . S
C410 C412 1.415 . S
C411 C410 1.355 . S
C411 C413 1.419 . S
C412 C410 1.415 . S
C412 C417 1.425 . S
C412 C419 1.409 1_556 S
C413 H405 0.930 . S
C413 C411 1.419 . S
C413 C414 1.362 . S
C414 H406 0.930 . S
C414 C413 1.362 . S
C414 C417 1.409 . S
C415 H407 0.930 . S
C415 C416 1.355 1_556 S
C415 C417 1.415 . S
C416 C415 1.355 1_554 S
C416 C418 1.419 . S
C417 C412 1.425 . S
C417 C414 1.409 . S
C417 C415 1.415 . S
C418 H408 0.930 . S
C418 C416 1.419 . S
C418 C419 1.362 . S
C419 H409 0.930 . S
C419 C412 1.409 1_554 S
C419 C418 1.362 . S
H420 C426 0.930 1_455 S
H421 C429 0.930 . S
H422 C430 0.930 . S
H423 C431 0.930 1_554 S
H424 C434 0.930 . S
H425 C435 0.930 . S
C426 H420 0.930 1_655 S
C426 C427 1.355 . S
C426 C428 1.415 . S
C427 C426 1.355 . S
C427 C429 1.419 . S
C428 C426 1.415 . S
C428 C433 1.425 . S
C428 C435 1.409 1_655 S
C429 H421 0.930 . S
C429 C427 1.419 . S
C429 C430 1.362 . S
C430 H422 0.930 . S
C430 C429 1.362 . S
C430 C433 1.409 . S
C431 H423 0.930 1_556 S
C431 C432 1.355 1_655 S
C431 C433 1.415 . S
C432 C431 1.355 1_455 S
C432 C434 1.419 . S
C433 C428 1.425 . S
C433 C430 1.409 . S
C433 C431 1.415 . S
C434 H424 0.930 . S
C434 C432 1.419 . S
C434 C435 1.362 . S
C435 H425 0.930 . S
C435 C428 1.409 1_455 S
C435 C434 1.362 . S
H436 C442 0.930 . S
H437 C445 0.930 . S
H438 C446 0.930 . S
H439 C447 0.930 . S
H440 C450 0.930 . S
H441 C451 0.930 1_554 S
C442 H436 0.930 . S
C442 C443 1.355 . S
C442 C444 1.415 1_554 S
C443 C442 1.355 . S
C443 C445 1.419 1_554 S
C444 C442 1.415 1_556 S
C444 C449 1.425 . S
C444 C451 1.409 . S
C445 H437 0.930 . S
C445 C443 1.419 1_556 S
C445 C446 1.362 . S
C446 H438 0.930 . S
C446 C445 1.362 . S
C446 C449 1.409 . S
C447 H439 0.930 . S
C447 C448 1.355 . S
C447 C449 1.415 . S
C448 C447 1.355 . S
C448 C450 1.419 . S
C449 C444 1.425 . S
C449 C446 1.409 . S
C449 C447 1.415 . S
C450 H440 0.930 . S
C450 C448 1.419 . S
C450 C451 1.362 . S
C451 H441 0.930 1_556 S
C451 C444 1.409 . S
C451 C450 1.362 . S
H452 C458 0.930 . S
H453 C461 0.930 . S
H454 C462 0.930 . S
H455 C463 0.930 . S
H456 C466 0.930 . S
H457 C467 0.930 . S
C458 H452 0.930 . S
C458 C459 1.355 . S
C458 C460 1.415 . S
C459 C458 1.355 . S
C459 C461 1.419 . S
C460 C458 1.415 . S
C460 C465 1.425 . S
C460 C467 1.409 1_556 S
C461 H453 0.930 . S
C461 C459 1.419 . S
C461 C462 1.362 . S
C462 H454 0.930 . S
C462 C461 1.362 . S
C462 C465 1.409 . S
C463 H455 0.930 . S
C463 C464 1.355 . S
C463 C465 1.415 1_554 S
C464 C463 1.355 . S
C464 C466 1.419 . S
C465 C460 1.425 . S
C465 C462 1.409 . S
C465 C463 1.415 1_556 S
C466 H456 0.930 . S
C466 C464 1.419 . S
C466 C467 1.362 . S
C467 H457 0.930 . S
C467 C460 1.409 1_554 S
C467 C466 1.362 . S
H468 C474 0.930 . S
H469 C477 0.930 . S
H470 C478 0.930 . S
H471 C479 0.930 . S
H472 C482 0.930 . S
H473 C483 0.930 . S
C474 H468 0.930 . S
C474 C475 1.355 . S
C474 C476 1.415 . S
C475 C474 1.355 . S
C475 C477 1.419 . S
C476 C474 1.415 . S
C476 C481 1.425 . S
C476 C483 1.409 . S
C477 H469 0.930 . S
C477 C475 1.419 . S
C477 C478 1.362 . S
C478 H470 0.930 . S
C478 C477 1.362 . S
C478 C481 1.409 . S
C479 H471 0.930 . S
C479 C480 1.355 . S
C479 C481 1.415 . S
C480 C479 1.355 . S
C480 C482 1.419 . S
C481 C476 1.425 . S
C481 C478 1.409 . S
C481 C479 1.415 . S
C482 H472 0.930 . S
C482 C480 1.419 . S
C482 C483 1.362 . S
C483 H473 0.930 . S
C483 C476 1.409 . S
C483 C482 1.362 . S
H484 C490 0.930 . S
H485 C493 0.930 . S
H486 C494 0.930 . S
H487 C495 0.930 . S
H488 C498 0.930 . S
H489 C499 0.930 . S
C490 H484 0.930 . S
C490 C491 1.355 . S
C490 C492 1.415 . S
C491 C490 1.355 . S
C491 C493 1.419 . S
C492 C490 1.415 . S
C492 C497 1.425 . S
C492 C499 1.409 . S
C493 H485 0.930 . S
C493 C491 1.419 . S
C493 C494 1.362 . S
C494 H486 0.930 . S
C494 C493 1.362 . S
C494 C497 1.409 . S
C495 H487 0.930 . S
C495 C496 1.355 . S
C495 C497 1.415 . S
C496 C495 1.355 . S
C496 C498 1.419 . S
C497 C492 1.425 . S
C497 C494 1.409 . S
C497 C495 1.415 . S
C498 H488 0.930 . S
C498 C496 1.419 . S
C498 C499 1.362 . S
C499 H489 0.930 . S
C499 C492 1.409 . S
C499 C498 1.362 . S
H500 C506 0.930 . S
H501 C509 0.930 . S
H502 C510 0.930 . S
H503 C511 0.930 . S
H504 C514 0.930 . S
H505 C515 0.930 . S
C506 H500 0.930 . S
C506 C507 1.355 . S
C506 C508 1.415 . S
C507 C506 1.355 . S
C507 C509 1.419 . S
C508 C506 1.415 . S
C508 C513 1.425 . S
C508 C515 1.409 . S
C509 H501 0.930 . S
C509 C507 1.419 . S
C509 C510 1.362 . S
C510 H502 0.930 . S
C510 C509 1.362 . S
C510 C513 1.409 . S
C511 H503 0.930 . S
C511 C512 1.355 . S
C511 C513 1.415 . S
C512 C511 1.355 . S
C512 C514 1.419 . S
C513 C508 1.425 . S
C513 C510 1.409 . S
C513 C511 1.415 . S
C514 H504 0.930 . S
C514 C512 1.419 . S
C514 C515 1.362 . S
C515 H505 0.930 . S
C515 C508 1.409 . S
C515 C514 1.362 . S
H516 C522 0.930 . S
H517 C525 0.930 . S
H518 C526 0.930 . S
H519 C527 0.930 . S
H520 C530 0.930 . S
H521 C531 0.930 . S
C522 H516 0.930 . S
C522 C523 1.355 . S
C522 C524 1.415 . S
C523 C522 1.355 . S
C523 C525 1.419 . S
C524 C522 1.415 . S
C524 C529 1.425 . S
C524 C531 1.409 . S
C525 H517 0.930 . S
C525 C523 1.419 . S
C525 C526 1.362 . S
C526 H518 0.930 . S
C526 C525 1.362 . S
C526 C529 1.409 . S
C527 H519 0.930 . S
C527 C528 1.355 . S
C527 C529 1.415 . S
C528 C527 1.355 . S
C528 C530 1.419 . S
C529 C524 1.425 . S
C529 C526 1.409 . S
C529 C527 1.415 . S
C530 H520 0.930 . S
C530 C528 1.419 . S
C530 C531 1.362 . S
C531 H521 0.930 . S
C531 C524 1.409 . S
C531 C530 1.362 . S
H532 C538 0.930 . S
H533 C541 0.930 . S
H534 C542 0.930 . S
H535 C543 0.930 . S
H536 C546 0.930 . S
H537 C547 0.930 . S
C538 H532 0.930 . S
C538 C539 1.355 . S
C538 C540 1.415 . S
C539 C538 1.355 . S
C539 C541 1.419 . S
C540 C538 1.415 . S
C540 C545 1.425 . S
C540 C547 1.409 1_545 S
C541 H533 0.930 . S
C541 C539 1.419 . S
C541 C542 1.362 . S
C542 H534 0.930 . S
C542 C541 1.362 . S
C542 C545 1.409 . S
C543 H535 0.930 . S
C543 C544 1.355 . S
C543 C545 1.415 1_565 S
C544 C543 1.355 . S
C544 C546 1.419 . S
C545 C540 1.425 . S
C545 C542 1.409 . S
C545 C543 1.415 1_545 S
C546 H536 0.930 . S
C546 C544 1.419 . S
C546 C547 1.362 . S
C547 H537 0.930 . S
C547 C540 1.409 1_565 S
C547 C546 1.362 . S
H548 C554 0.930 . S
H549 C557 0.930 . S
H550 C558 0.930 . S
H551 C559 0.930 . S
H552 C562 0.930 . S
H553 C563 0.930 . S
C554 H548 0.930 . S
C554 C555 1.355 . S
C554 C556 1.415 . S
C555 C554 1.355 . S
C555 C557 1.419 . S
C556 C554 1.415 . S
C556 C561 1.425 . S
C556 C563 1.409 . S
C557 H549 0.930 . S
C557 C555 1.419 . S
C557 C558 1.362 . S
C558 H550 0.930 . S
C558 C557 1.362 . S
C558 C561 1.409 . S
C559 H551 0.930 . S
C559 C560 1.355 . S
C559 C561 1.415 . S
C560 C559 1.355 . S
C560 C562 1.419 . S
C561 C556 1.425 . S
C561 C558 1.409 . S
C561 C559 1.415 . S
C562 H552 0.930 . S
C562 C560 1.419 . S
C562 C563 1.362 . S
C563 H553 0.930 . S
C563 C556 1.409 . S
C563 C562 1.362 . S
H564 C570 0.930 . S
H565 C573 0.930 . S
H566 C574 0.930 . S
H567 C575 0.930 . S
H568 C578 0.930 . S
H569 C579 0.930 . S
C570 H564 0.930 . S
C570 C571 1.355 . S
C570 C572 1.415 . S
C571 C570 1.355 . S
C571 C573 1.419 . S
C572 C570 1.415 . S
C572 C577 1.425 . S
C572 C579 1.409 . S
C573 H565 0.930 . S
C573 C571 1.419 . S
C573 C574 1.362 . S
C574 H566 0.930 . S
C574 C573 1.362 . S
C574 C577 1.409 . S
C575 H567 0.930 . S
C575 C576 1.355 . S
C575 C577 1.415 . S
C576 C575 1.355 . S
C576 C578 1.419 . S
C577 C572 1.425 . S
C577 C574 1.409 . S
C577 C575 1.415 . S
C578 H568 0.930 . S
C578 C576 1.419 . S
C578 C579 1.362 . S
C579 H569 0.930 . S
C579 C572 1.409 . S
C579 C578 1.362 . S
H580 C586 0.930 . S
H581 C589 0.930 . S
H582 C590 0.931 1_545 S
H583 C591 0.930 . S
H584 C594 0.930 . S
H585 C595 0.930 . S
C586 H580 0.930 . S
C586 C587 1.355 . S
C586 C588 1.415 1_565 S
C587 C586 1.355 . S
C587 C589 1.419 . S
C588 C586 1.415 1_545 S
C588 C593 1.425 . S
C588 C595 1.409 . S
C589 H581 0.930 . S
C589 C587 1.419 . S
C589 C590 1.370 . S
C590 H582 0.931 1_565 S
C590 C589 1.370 . S
C590 C593 1.400 1_565 S
C591 H583 0.930 . S
C591 C592 1.355 . S
C591 C593 1.415 . S
C592 C591 1.355 . S
C592 C594 1.419 . S
C593 C588 1.425 . S
C593 C590 1.400 1_545 S
C593 C591 1.415 . S
C594 H584 0.930 . S
C594 C592 1.419 . S
C594 C595 1.362 . S
C595 H585 0.930 . S
C595 C588 1.409 . S
C595 C594 1.362 . S
H596 C602 0.930 . S
H597 C605 0.930 . S
H598 C606 0.930 . S
H599 C607 0.930 . S
H600 C610 0.930 . S
H601 C611 0.930 . S
C602 H596 0.930 . S
C602 C603 1.355 . S
C602 C604 1.415 . S
C603 C602 1.355 . S
C603 C605 1.419 . S
C604 C602 1.415 . S
C604 C609 1.425 . S
C604 C611 1.409 . S
C605 H597 0.930 . S
C605 C603 1.419 . S
C605 C606 1.362 . S
C606 H598 0.930 . S
C606 C605 1.362 . S
C606 C609 1.409 . S
C607 H599 0.930 . S
C607 C608 1.355 . S
C607 C609 1.415 . S
C608 C607 1.355 . S
C608 C610 1.419 . S
C609 C604 1.425 . S
C609 C606 1.409 . S
C609 C607 1.415 . S
C610 H600 0.930 . S
C610 C608 1.419 . S
C610 C611 1.362 . S
C611 H601 0.930 . S
C611 C604 1.409 . S
C611 C610 1.362 . S
C187 C1 1.179 . S
C192 C9 1.179 . S
C203 C29 1.176 . S
C208 C21 1.176 . S
C219 C41 1.233 . S
C224 C49 1.233 . S
C235 C69 1.147 . S
C240 C61 1.147 1_556 S
C251 C81 1.169 . S
C256 C89 1.169 1_556 S
C267 C109 1.228 . S
C272 C101 1.228 . S
C283 C128 1.311 . S
C288 C139 1.311 . S
C299 C159 1.323 . S
C304 C148 1.323 . S
C315 C168 1.325 . S
C320 C179 1.325 . S
C331 C116 2.006 . S
C336 C8 2.010 . S
C347 C36 1.558 . S
C352 C76 1.583 . S
C363 C48 2.487 . S
C368 C88 2.429 . S
C379 C56 0.993 . S
C384 C126 1.142 . S
C395 C149 1.364 . S
C400 C16 1.347 1_556 S
C411 C166 1.613 . S
C416 C28 1.594 . S
C427 C161 1.773 . S
C432 C19 1.759 1_556 S
C443 C26 1.004 . S
C448 C121 1.113 . S
C459 C156 1.414 . S
C464 C59 1.394 . S
C475 C46 2.015 . S
C480 C79 1.997 . S
C491 C86 1.562 . S
C496 C6 1.582 . S
C507 C39 2.426 . S
C512 C119 2.491 . S
C523 C169 1.769 . S
C528 C68 1.722 . S
C539 C129 1.104 . S
C544 C96 1.030 . S
C555 C146 1.426 . S
C560 C108 1.394 . S
C571 C136 1.104 . S
C576 C106 1.112 . S
C587 C66 1.312 . S
C592 C141 1.363 . S
C603 C176 1.606 . S
C608 C99 1.627 . S
