# Generated by pormake.
# Topology acs-a, (4)-cn, num edge types: 1
# Building blocks:
#     Node 0, Type 0, BuildingBlock: UXUYUI_clean_sbu_0, # of connection points: 4
#     Node 1, Type 0, BuildingBlock: UXUYUI_clean_sbu_0, # of connection points: 4
#     Node 2, Type 0, BuildingBlock: UXUYUI_clean_sbu_0, # of connection points: 4
#     Node 3, Type 0, BuildingBlock: UXUYUI_clean_sbu_0, # of connection points: 4
#     Node 4, Type 0, BuildingBlock: UXUYUI_clean_sbu_0, # of connection points: 4
#     Node 5, Type 0, BuildingBlock: UXUYUI_clean_sbu_0, # of connection points: 4
#     Node 6, Type 0, BuildingBlock: UXUYUI_clean_sbu_0, # of connection points: 4
#     Node 7, Type 0, BuildingBlock: UXUYUI_clean_sbu_0, # of connection points: 4
#     Node 8, Type 0, BuildingBlock: UXUYUI_clean_sbu_0, # of connection points: 4
#     Node 9, Type 0, BuildingBlock: UXUYUI_clean_sbu_0, # of connection points: 4
#     Node 10, Type 0, BuildingBlock: UXUYUI_clean_sbu_0, # of connection points: 4
#     Node 11, Type 0, BuildingBlock: UXUYUI_clean_sbu_0, # of connection points: 4
#     Edge 12, Type (0, 0), BuildingBlock: KIFKEQ_clean_linker_1, # of connection points: 2
#     Edge 13, Type (0, 0), BuildingBlock: KIFKEQ_clean_linker_1, # of connection points: 2
#     Edge 14, Type (0, 0), BuildingBlock: KIFKEQ_clean_linker_1, # of connection points: 2
#     Edge 15, Type (0, 0), BuildingBlock: KIFKEQ_clean_linker_1, # of connection points: 2
#     Edge 16, Type (0, 0), BuildingBlock: KIFKEQ_clean_linker_1, # of connection points: 2
#     Edge 17, Type (0, 0), BuildingBlock: KIFKEQ_clean_linker_1, # of connection points: 2
#     Edge 18, Type (0, 0), BuildingBlock: KIFKEQ_clean_linker_1, # of connection points: 2
#     Edge 19, Type (0, 0), BuildingBlock: KIFKEQ_clean_linker_1, # of connection points: 2
#     Edge 20, Type (0, 0), BuildingBlock: KIFKEQ_clean_linker_1, # of connection points: 2
#     Edge 21, Type (0, 0), BuildingBlock: KIFKEQ_clean_linker_1, # of connection points: 2
#     Edge 22, Type (0, 0), BuildingBlock: KIFKEQ_clean_linker_1, # of connection points: 2
#     Edge 23, Type (0, 0), BuildingBlock: KIFKEQ_clean_linker_1, # of connection points: 2
#     Edge 24, Type (0, 0), BuildingBlock: KIFKEQ_clean_linker_1, # of connection points: 2
#     Edge 25, Type (0, 0), BuildingBlock: KIFKEQ_clean_linker_1, # of connection points: 2
#     Edge 26, Type (0, 0), BuildingBlock: KIFKEQ_clean_linker_1, # of connection points: 2
#     Edge 27, Type (0, 0), BuildingBlock: KIFKEQ_clean_linker_1, # of connection points: 2
#     Edge 28, Type (0, 0), BuildingBlock: KIFKEQ_clean_linker_1, # of connection points: 2
#     Edge 29, Type (0, 0), BuildingBlock: KIFKEQ_clean_linker_1, # of connection points: 2
#     Edge 30, Type (0, 0), BuildingBlock: KIFKEQ_clean_linker_1, # of connection points: 2
#     Edge 31, Type (0, 0), BuildingBlock: KIFKEQ_clean_linker_1, # of connection points: 2
#     Edge 32, Type (0, 0), BuildingBlock: KIFKEQ_clean_linker_1, # of connection points: 2
#     Edge 33, Type (0, 0), BuildingBlock: KIFKEQ_clean_linker_1, # of connection points: 2
#     Edge 34, Type (0, 0), BuildingBlock: KIFKEQ_clean_linker_1, # of connection points: 2
#     Edge 35, Type (0, 0), BuildingBlock: KIFKEQ_clean_linker_1, # of connection points: 2
# Relax obj value: 0.500
# Max RMSD: 0.243
# Mean RMSD: 0.227
data_MOF--net-acs-a--node1-UXUYUI_clean_sbu_0--edge1-KIFKEQ_clean_linker_1
_symmetry_space_group_name_H-M    P1
_symmetry_Int_Tables_number       1
_symmetry_cell_setting            triclinic
loop_
_symmetry_equiv_pos_as_xyz
'x, y, z'
_cell_length_a     57.222949
_cell_length_b     70.457009
_cell_length_c     69.114924
_cell_angle_alpha  90.019246
_cell_angle_beta   90.020967
_cell_angle_gamma 111.05691
loop_
_atom_site_label
_atom_site_type_symbol
_atom_site_fract_x
_atom_site_fract_y
_atom_site_fract_z
_atom_type_partial_charge
Li0 Li 0.57596 0.12886 0.09191 0.0
Li1 Li 0.61995 0.13279 0.09507 0.0
Li2 Li 0.58961 0.10187 0.0808 0.0
Li3 Li 0.58897 0.1085 0.11567 0.0
C4 C 0.60341 0.14551 0.05815 0.0
N5 N 0.60979 0.17687 0.03225 0.0
C6 C 0.61617 0.16565 0.06374 0.0
C7 C 0.59411 0.14131 0.03929 0.0
C8 C 0.61915 0.18129 0.05047 0.0
C9 C 0.59745 0.15738 0.02643 0.0
C10 C 0.60656 0.15676 0.1238 0.0
C11 C 0.62653 0.17779 0.15104 0.0
N12 N 0.6239 0.19413 0.14216 0.0
C13 C 0.60384 0.17374 0.11506 0.0
C14 C 0.61778 0.15876 0.14205 0.0
C15 C 0.61281 0.1925 0.12453 0.0
C16 C 0.54298 0.14789 0.10383 0.0
N17 N 0.55209 0.14162 0.08789 0.0
C18 C 0.5265 0.15329 0.06729 0.0
C19 C 0.54387 0.14379 0.06986 0.0
C20 C 0.51747 0.16066 0.08343 0.0
C21 C 0.52575 0.15764 0.10193 0.0
H22 H 0.54946 0.14561 0.11804 0.0
H23 H 0.55064 0.13807 0.05744 0.0
C24 C 0.66884 0.14111 0.08332 0.0
N25 N 0.6544 0.14965 0.09299 0.0
C26 C 0.69446 0.15173 0.08103 0.0
C27 C 0.68983 0.17996 0.09836 0.0
C28 C 0.66438 0.16868 0.10055 0.0
C29 C 0.70531 0.1715 0.08855 0.0
H30 H 0.66039 0.12593 0.07746 0.0
H31 H 0.65268 0.17531 0.10804 0.0
C32 C 0.53784 0.09112 0.08779 0.0
N33 N 0.49277 0.07507 0.06836 0.0
C34 C 0.51614 0.07962 0.09776 0.0
C35 C 0.53662 0.09448 0.06794 0.0
C36 C 0.49352 0.07163 0.08768 0.0
C37 C 0.51367 0.08623 0.05838 0.0
C38 C 0.63378 0.10163 0.11209 0.0
C39 C 0.64172 0.08521 0.1096 0.0
C40 C 0.64425 0.11575 0.12679 0.0
C41 C 0.66003 0.08317 0.12194 0.0
C42 C 0.66251 0.1132 0.13882 0.0
N43 N 0.66995 0.09709 0.13617 0.0
C44 C 0.59588 0.08888 0.04395 0.0
C45 C 0.56939 0.06278 0.0642 0.0
C46 C 0.58948 0.07602 0.02794 0.0
N47 N 0.58512 0.08227 0.06139 0.0
C48 C 0.56277 0.04929 0.04863 0.0
C49 C 0.57228 0.05615 0.03016 0.0
H50 H 0.60856 0.10442 0.04231 0.0
H51 H 0.56105 0.05808 0.07827 0.0
C52 C 0.57503 0.10765 0.15416 0.0
N53 N 0.58288 0.09721 0.14073 0.0
C54 C 0.57237 0.10144 0.17342 0.0
C55 C 0.58487 0.07326 0.16452 0.0
C56 C 0.58733 0.08007 0.14538 0.0
C57 C 0.57768 0.0842 0.17889 0.0
H58 H 0.5715 0.12116 0.14997 0.0
H59 H 0.59331 0.07196 0.13431 0.0
O60 O 0.60031 0.12992 0.07091 0.0
O61 O 0.59769 0.13817 0.11485 0.0
O62 O 0.56009 0.09905 0.09751 0.0
O63 O 0.61572 0.10371 0.10022 0.0
H64 H 0.62375 0.16919 0.07812 0.0
H65 H 0.58408 0.12583 0.03467 0.0
H66 H 0.62895 0.19695 0.05465 0.0
H67 H 0.5902 0.15434 0.01185 0.0
H68 H 0.63534 0.17955 0.16511 0.0
H69 H 0.59491 0.17252 0.1011 0.0
H70 H 0.61968 0.14577 0.14926 0.0
H71 H 0.61091 0.20577 0.11787 0.0
H72 H 0.52024 0.15485 0.05279 0.0
H73 H 0.51954 0.16323 0.1148 0.0
H74 H 0.70562 0.14446 0.07357 0.0
H75 H 0.69715 0.19531 0.10402 0.0
H76 H 0.51678 0.07691 0.11313 0.0
H77 H 0.55319 0.1034 0.06 0.0
H78 H 0.47657 0.0627 0.09521 0.0
H79 H 0.51247 0.08872 0.04303 0.0
H80 H 0.63376 0.07414 0.09828 0.0
H81 H 0.63841 0.12856 0.12881 0.0
H82 H 0.66633 0.07052 0.1202 0.0
H83 H 0.67078 0.12403 0.15025 0.0
H84 H 0.59722 0.08171 0.01389 0.0
H85 H 0.54925 0.03407 0.05077 0.0
H86 H 0.56716 0.11054 0.184 0.0
H87 H 0.58884 0.05976 0.16806 0.0
Li88 Li 0.51346 0.64878 0.5844 0.0
Li89 Li 0.50888 0.62627 0.61336 0.0
Li90 Li 0.50356 0.6122 0.57993 0.0
Li91 Li 0.47356 0.62461 0.59331 0.0
C92 C 0.55936 0.64092 0.59234 0.0
N93 N 0.61096 0.65875 0.59332 0.0
C94 C 0.57118 0.65389 0.60754 0.0
C95 C 0.5738 0.63674 0.5778 0.0
C96 C 0.59728 0.66285 0.60773 0.0
C97 C 0.59986 0.64598 0.57851 0.0
C98 C 0.47841 0.65515 0.61634 0.0
C99 C 0.44848 0.65463 0.64106 0.0
N100 N 0.44222 0.66865 0.63092 0.0
C101 C 0.47179 0.66963 0.60619 0.0
C102 C 0.46677 0.64763 0.63394 0.0
C103 C 0.45341 0.67624 0.6138 0.0
C104 C 0.51802 0.68261 0.56092 0.0
N105 N 0.52888 0.67629 0.57586 0.0
C106 C 0.55308 0.71078 0.58409 0.0
C107 C 0.5465 0.68989 0.58717 0.0
C108 C 0.54117 0.71767 0.56936 0.0
C109 C 0.52415 0.70326 0.55724 0.0
H110 H 0.503 0.67183 0.55281 0.0
H111 H 0.55403 0.68465 0.5995 0.0
C112 C 0.52049 0.60713 0.64615 0.0
N113 N 0.52001 0.62491 0.63888 0.0
C114 C 0.5267 0.60593 0.66556 0.0
C115 C 0.53242 0.64145 0.66933 0.0
C116 C 0.52599 0.64193 0.64993 0.0
C117 C 0.5325 0.6232 0.67747 0.0
H118 H 0.51552 0.59382 0.63699 0.0
H119 H 0.5252 0.6558 0.64375 0.0
C120 C 0.49528 0.63312 0.54808 0.0
N121 N 0.51038 0.63934 0.50989 0.0
C122 C 0.47768 0.63103 0.53343 0.0
C123 C 0.52056 0.63843 0.54331 0.0
C124 C 0.48568 0.63422 0.51421 0.0
C125 C 0.52782 0.6415 0.52392 0.0
C126 C 0.4643 0.58309 0.59886 0.0
C127 C 0.45006 0.58064 0.58197 0.0
C128 C 0.46046 0.56649 0.61114 0.0
C129 C 0.43222 0.56158 0.57762 0.0
C130 C 0.44242 0.54767 0.60629 0.0
N131 N 0.4288 0.54562 0.58977 0.0
C132 C 0.52287 0.58144 0.57083 0.0
C133 C 0.49411 0.58559 0.54801 0.0
C134 C 0.52462 0.56505 0.56028 0.0
N135 N 0.50777 0.5913 0.56453 0.0
C136 C 0.49574 0.56969 0.53685 0.0
C137 C 0.51099 0.55917 0.54303 0.0
H138 H 0.53315 0.58608 0.58422 0.0
H139 H 0.48137 0.59295 0.5437 0.0
C140 C 0.43027 0.63007 0.58004 0.0
N141 N 0.43906 0.62101 0.59417 0.0
C142 C 0.40522 0.6283 0.57996 0.0
C143 C 0.39873 0.60793 0.60902 0.0
C144 C 0.42395 0.61006 0.60851 0.0
C145 C 0.38907 0.6171 0.59458 0.0
H146 H 0.44286 0.63886 0.56895 0.0
H147 H 0.43155 0.60308 0.61958 0.0
O148 O 0.53384 0.63173 0.59201 0.0
O149 O 0.49583 0.64807 0.60887 0.0
O150 O 0.48758 0.62987 0.56694 0.0
O151 O 0.48209 0.60154 0.60339 0.0
H152 H 0.56033 0.65714 0.619 0.0
H153 H 0.56499 0.62639 0.56613 0.0
H154 H 0.60666 0.67304 0.61934 0.0
H155 H 0.61126 0.64294 0.56731 0.0
H156 H 0.43918 0.64885 0.65461 0.0
H157 H 0.48055 0.67552 0.5925 0.0
H158 H 0.47158 0.6363 0.64189 0.0
H159 H 0.44798 0.68735 0.60606 0.0
H160 H 0.56618 0.72139 0.59385 0.0
H161 H 0.51392 0.7078 0.5461 0.0
H162 H 0.52669 0.5916 0.67125 0.0
H163 H 0.53633 0.65503 0.67804 0.0
H164 H 0.45802 0.62688 0.53689 0.0
H165 H 0.53442 0.64033 0.55443 0.0
H166 H 0.47226 0.6326 0.50272 0.0
H167 H 0.54733 0.64564 0.52004 0.0
H168 H 0.45275 0.59328 0.57227 0.0
H169 H 0.47134 0.56814 0.62426 0.0
H170 H 0.42111 0.55947 0.56458 0.0
H171 H 0.43927 0.53468 0.61565 0.0
H172 H 0.53644 0.55709 0.56548 0.0
H173 H 0.48457 0.56523 0.52381 0.0
H174 H 0.39866 0.6359 0.56874 0.0
H175 H 0.38688 0.59904 0.62045 0.0
Li176 Li 0.86489 0.37346 0.08655 0.0
Li177 Li 0.90153 0.37511 0.10766 0.0
Li178 Li 0.90612 0.38873 0.07361 0.0
Li179 Li 0.89037 0.35339 0.07914 0.0
C180 C 0.8789 0.40912 0.10366 0.0
N181 N 0.85056 0.43074 0.11755 0.0
C182 C 0.87711 0.41185 0.12356 0.0
C183 C 0.86656 0.41768 0.09082 0.0
C184 C 0.86264 0.42277 0.1303 0.0
C185 C 0.85223 0.42846 0.09812 0.0
C186 C 0.85782 0.33258 0.10682 0.0
C187 C 0.85569 0.30149 0.1226 0.0
N188 N 0.83344 0.29156 0.11368 0.0
C189 C 0.83484 0.32213 0.09792 0.0
C190 C 0.8683 0.32225 0.11935 0.0
C191 C 0.82284 0.30136 0.10153 0.0
C192 C 0.81866 0.3723 0.07109 0.0
N193 N 0.83156 0.37302 0.08774 0.0
C194 C 0.79662 0.37301 0.10666 0.0
C195 C 0.82101 0.37313 0.10535 0.0
C196 C 0.78288 0.37248 0.08968 0.0
C197 C 0.79419 0.37205 0.07172 0.0
H198 H 0.82736 0.37188 0.05731 0.0
H199 H 0.83163 0.37336 0.11836 0.0
C200 C 0.93692 0.38812 0.13868 0.0
N201 N 0.91258 0.37836 0.13352 0.0
C202 C 0.94354 0.39091 0.15825 0.0
C203 C 0.89987 0.37389 0.16654 0.0
C204 C 0.8942 0.3711 0.14694 0.0
C205 C 0.92474 0.384 0.17234 0.0
H206 H 0.95108 0.39391 0.12762 0.0
H207 H 0.875 0.36358 0.14234 0.0
C208 C 0.88058 0.37442 0.04225 0.0
N209 N 0.8898 0.38759 0.00438 0.0
C210 C 0.89141 0.36467 0.02936 0.0
C211 C 0.87426 0.39077 0.03581 0.0
C212 C 0.89593 0.37156 0.01029 0.0
C213 C 0.87916 0.39725 0.01664 0.0
C214 C 0.93921 0.36159 0.08383 0.0
C215 C 0.94411 0.3566 0.06507 0.0
C216 C 0.9498 0.35523 0.09962 0.0
C217 C 0.95941 0.34519 0.06243 0.0
C218 C 0.96505 0.34389 0.09638 0.0
N219 N 0.96948 0.33913 0.078 0.0
C220 C 0.92493 0.42927 0.06186 0.0
C221 C 0.9395 0.40792 0.04269 0.0
C222 C 0.93677 0.44576 0.04983 0.0
N223 N 0.926 0.41073 0.05789 0.0
C224 C 0.95165 0.42403 0.03021 0.0
C225 C 0.94996 0.44316 0.03356 0.0
H226 H 0.91456 0.43125 0.07424 0.0
H227 H 0.94022 0.39308 0.03989 0.0
C228 C 0.86604 0.31863 0.05821 0.0
N229 N 0.88537 0.32633 0.07081 0.0
C230 C 0.85482 0.29771 0.05562 0.0
C231 C 0.88509 0.29299 0.07761 0.0
C232 C 0.89554 0.31407 0.08 0.0
C233 C 0.86353 0.28449 0.06613 0.0
H234 H 0.85764 0.32856 0.05166 0.0
H235 H 0.91014 0.32031 0.09059 0.0
O236 O 0.89263 0.39814 0.09679 0.0
O237 O 0.87017 0.35278 0.10308 0.0
O238 O 0.8763 0.36806 0.06107 0.0
O239 O 0.92449 0.37292 0.08673 0.0
H240 H 0.88681 0.40566 0.13373 0.0
H241 H 0.86774 0.41578 0.07538 0.0
H242 H 0.86101 0.4249 0.14567 0.0
H243 H 0.84239 0.43497 0.08833 0.0
H244 H 0.86366 0.29325 0.13214 0.0
H245 H 0.82654 0.32992 0.08813 0.0
H246 H 0.88615 0.33014 0.12627 0.0
H247 H 0.80517 0.29302 0.0946 0.0
H248 H 0.78848 0.37304 0.1208 0.0
H249 H 0.78432 0.37177 0.05828 0.0
H250 H 0.96291 0.39879 0.16234 0.0
H251 H 0.88496 0.36826 0.17709 0.0
H252 H 0.89649 0.35204 0.03406 0.0
H253 H 0.86594 0.39854 0.04556 0.0
H254 H 0.90441 0.36422 0.00019 0.0
H255 H 0.87455 0.40998 0.01152 0.0
H256 H 0.93597 0.36127 0.05271 0.0
H257 H 0.94612 0.35884 0.11424 0.0
H258 H 0.96324 0.34112 0.048 0.0
H259 H 0.9733 0.33881 0.10846 0.0
H260 H 0.93552 0.46038 0.0532 0.0
H261 H 0.96159 0.42138 0.01778 0.0
H262 H 0.83798 0.29208 0.04693 0.0
H263 H 0.89266 0.28346 0.08585 0.0
Li264 Li 0.40532 0.88759 0.5832 0.0
Li265 Li 0.39091 0.86576 0.61079 0.0
Li266 Li 0.415 0.85713 0.58465 0.0
Li267 Li 0.37143 0.85609 0.57944 0.0
C268 C 0.44978 0.89023 0.60788 0.0
N269 N 0.49894 0.91051 0.61878 0.0
C270 C 0.45535 0.89834 0.6265 0.0
C271 C 0.46922 0.89235 0.59483 0.0
C272 C 0.48033 0.90857 0.63173 0.0
C273 C 0.49395 0.90267 0.60061 0.0
C274 C 0.36975 0.8953 0.60593 0.0
C275 C 0.345 0.91439 0.61747 0.0
N276 N 0.36534 0.92715 0.62707 0.0
C277 C 0.39042 0.90864 0.6159 0.0
C278 C 0.34686 0.89821 0.60669 0.0
C279 C 0.3878 0.92463 0.6265 0.0
C280 C 0.4011 0.91962 0.56218 0.0
N281 N 0.41699 0.91474 0.5741 0.0
C282 C 0.44982 0.94627 0.56747 0.0
C283 C 0.44062 0.92794 0.57752 0.0
C284 C 0.43453 0.95077 0.55374 0.0
C285 C 0.40966 0.93758 0.55153 0.0
H286 H 0.38225 0.90891 0.56004 0.0
H287 H 0.45276 0.92391 0.58728 0.0
C288 C 0.4022 0.85549 0.64707 0.0
N289 N 0.3868 0.86342 0.63793 0.0
C290 C 0.4013 0.8533 0.66712 0.0
C291 C 0.3685 0.86738 0.66797 0.0
C292 C 0.36979 0.86899 0.64785 0.0
C293 C 0.38453 0.85956 0.67792 0.0
H294 H 0.41526 0.85091 0.6387 0.0
H295 H 0.35729 0.87479 0.64023 0.0
C296 C 0.40657 0.87809 0.54582 0.0
N297 N 0.41805 0.90197 0.51295 0.0
C298 C 0.38746 0.8789 0.53363 0.0
C299 C 0.43153 0.88917 0.54114 0.0
C300 C 0.39365 0.89111 0.5171 0.0
C301 C 0.43695 0.90126 0.52452 0.0
C302 C 0.36344 0.82473 0.60631 0.0
C303 C 0.36374 0.80524 0.60948 0.0
C304 C 0.34274 0.82938 0.61218 0.0
C305 C 0.34323 0.79065 0.61845 0.0
C306 C 0.3226 0.81438 0.6211 0.0
N307 N 0.32326 0.79548 0.62402 0.0
C308 C 0.44912 0.83893 0.59501 0.0
C309 C 0.44567 0.84281 0.56117 0.0
C310 C 0.46691 0.8299 0.59216 0.0
N311 N 0.43886 0.84502 0.57961 0.0
C312 C 0.4634 0.83384 0.55763 0.0
C313 C 0.47414 0.82711 0.57325 0.0
H314 H 0.44331 0.84098 0.60952 0.0
H315 H 0.43723 0.84792 0.54922 0.0
C316 C 0.32466 0.85239 0.56413 0.0
N317 N 0.34073 0.84239 0.56695 0.0
C318 C 0.30071 0.84206 0.5568 0.0
C319 C 0.31076 0.81156 0.55486 0.0
C320 C 0.33453 0.82251 0.56212 0.0
C321 C 0.2933 0.82124 0.55246 0.0
H322 H 0.33028 0.86828 0.56802 0.0
H323 H 0.34775 0.81499 0.56461 0.0
O324 O 0.42541 0.88001 0.60265 0.0
O325 O 0.37171 0.87949 0.5954 0.0
O326 O 0.40082 0.86654 0.56228 0.0
O327 O 0.38341 0.83913 0.59752 0.0
H328 H 0.44053 0.89679 0.6368 0.0
H329 H 0.46528 0.88618 0.58038 0.0
H330 H 0.48491 0.91496 0.64608 0.0
H331 H 0.50916 0.90446 0.59064 0.0
H332 H 0.32738 0.91679 0.61821 0.0
H333 H 0.40829 0.90671 0.6155 0.0
H334 H 0.33067 0.88802 0.59909 0.0
H335 H 0.40363 0.93504 0.63429 0.0
H336 H 0.46916 0.95613 0.56944 0.0
H337 H 0.39739 0.9407 0.54108 0.0
H338 H 0.41359 0.84673 0.67403 0.0
H339 H 0.35541 0.87256 0.67562 0.0
H340 H 0.36805 0.87036 0.53699 0.0
H341 H 0.44655 0.88866 0.55037 0.0
H342 H 0.37905 0.89201 0.5076 0.0
H343 H 0.45617 0.9101 0.52084 0.0
H344 H 0.37966 0.80143 0.60503 0.0
H345 H 0.34217 0.84438 0.60988 0.0
H346 H 0.34319 0.77549 0.62098 0.0
H347 H 0.30645 0.81775 0.62569 0.0
H348 H 0.47437 0.82465 0.6046 0.0
H349 H 0.46858 0.83213 0.54284 0.0
H350 H 0.28796 0.85016 0.55498 0.0
H351 H 0.30577 0.79547 0.55204 0.0
Li352 Li 0.48639 0.36603 0.11203 0.0
Li353 Li 0.48031 0.34147 0.08559 0.0
Li354 Li 0.52207 0.36593 0.0927 0.0
Li355 Li 0.49119 0.37737 0.07793 0.0
C356 C 0.51325 0.34103 0.12476 0.0
N357 N 0.54032 0.33471 0.15557 0.0
C358 C 0.51393 0.32169 0.12817 0.0
C359 C 0.52636 0.35717 0.13696 0.0
C360 C 0.52771 0.3188 0.14385 0.0
C361 C 0.53993 0.35366 0.15247 0.0
C362 C 0.43548 0.34938 0.09028 0.0
C363 C 0.39627 0.34131 0.07328 0.0
N364 N 0.38419 0.32954 0.08842 0.0
C365 C 0.42262 0.33749 0.1058 0.0
C366 C 0.42217 0.35156 0.07399 0.0
C367 C 0.39672 0.32746 0.10453 0.0
C368 C 0.47801 0.38866 0.14328 0.0
N369 N 0.47579 0.36974 0.13722 0.0
C370 C 0.46268 0.35602 0.16864 0.0
C371 C 0.46784 0.35347 0.14931 0.0
C372 C 0.46567 0.37552 0.17559 0.0
C373 C 0.47295 0.3919 0.16252 0.0
H374 H 0.48437 0.40129 0.13328 0.0
H375 H 0.46638 0.33862 0.14408 0.0
C376 C 0.472 0.30522 0.06429 0.0
N377 N 0.46408 0.31327 0.07972 0.0
C378 C 0.46567 0.28426 0.06265 0.0
C379 C 0.44241 0.28 0.09249 0.0
C380 C 0.44915 0.30111 0.09352 0.0
C381 C 0.45152 0.27139 0.07726 0.0
H382 H 0.485 0.31495 0.05405 0.0
H383 H 0.44413 0.30781 0.10615 0.0
C384 C 0.53169 0.4076 0.09473 0.0
N385 N 0.56798 0.44359 0.08286 0.0
C386 C 0.54515 0.40822 0.07771 0.0
C387 C 0.53673 0.42527 0.10572 0.0
C388 C 0.56341 0.42657 0.07195 0.0
C389 C 0.55514 0.44332 0.09948 0.0
C390 C 0.50107 0.35451 0.04783 0.0
C391 C 0.52042 0.35647 0.03476 0.0
C392 C 0.4765 0.34905 0.0411 0.0
C393 C 0.51484 0.35294 0.0151 0.0
C394 C 0.47167 0.34564 0.02134 0.0
N395 N 0.49078 0.34765 0.00886 0.0
C396 C 0.56288 0.35598 0.08158 0.0
C397 C 0.57306 0.38196 0.10537 0.0
C398 C 0.58758 0.35679 0.0812 0.0
N399 N 0.55618 0.3685 0.09347 0.0
C400 C 0.59799 0.38323 0.10551 0.0
C401 C 0.60552 0.37058 0.09324 0.0
H402 H 0.54893 0.34529 0.07245 0.0
H403 H 0.56716 0.39172 0.11472 0.0
C404 C 0.47243 0.40756 0.06686 0.0
N405 N 0.48703 0.39712 0.06092 0.0
C406 C 0.47059 0.42344 0.0556 0.0
C407 C 0.49829 0.41709 0.03216 0.0
C408 C 0.50001 0.40169 0.04402 0.0
C409 C 0.48365 0.42828 0.03802 0.0
H410 H 0.46269 0.40382 0.08055 0.0
H411 H 0.51236 0.39388 0.03995 0.0
O412 O 0.49995 0.3441 0.10942 0.0
O413 O 0.46081 0.35952 0.09133 0.0
O414 O 0.51357 0.38987 0.10064 0.0
O415 O 0.50633 0.35825 0.06707 0.0
H416 H 0.50389 0.30906 0.11881 0.0
H417 H 0.52614 0.37226 0.13445 0.0
H418 H 0.5284 0.30391 0.14669 0.0
H419 H 0.55018 0.36601 0.16203 0.0
H420 H 0.38576 0.34278 0.06072 0.0
H421 H 0.43254 0.33594 0.11865 0.0
H422 H 0.4317 0.36121 0.06208 0.0
H423 H 0.38656 0.31806 0.11637 0.0
H424 H 0.45753 0.343 0.17821 0.0
H425 H 0.47522 0.40714 0.16719 0.0
H426 H 0.47375 0.27845 0.05094 0.0
H427 H 0.43153 0.27065 0.10411 0.0
H428 H 0.54158 0.39472 0.06901 0.0
H429 H 0.52649 0.42504 0.11894 0.0
H430 H 0.57393 0.42726 0.0588 0.0
H431 H 0.55922 0.45712 0.10784 0.0
H432 H 0.53957 0.3608 0.03975 0.0
H433 H 0.46136 0.34728 0.05106 0.0
H434 H 0.52963 0.35444 0.00481 0.0
H435 H 0.45273 0.34137 0.01594 0.0
H436 H 0.59249 0.34654 0.07175 0.0
H437 H 0.61128 0.39417 0.11492 0.0
H438 H 0.45924 0.43189 0.06057 0.0
H439 H 0.50902 0.42073 0.01887 0.0
Li440 Li 0.09803 0.62212 0.60851 0.0
Li441 Li 0.13154 0.61768 0.58744 0.0
Li442 Li 0.10893 0.63917 0.57736 0.0
Li443 Li 0.08924 0.60365 0.5767 0.0
C444 C 0.14599 0.66178 0.6008 0.0
N445 N 0.17666 0.70227 0.59945 0.0
C446 C 0.16712 0.66802 0.58887 0.0
C447 C 0.14057 0.67607 0.61218 0.0
C448 C 0.18235 0.68858 0.58835 0.0
C449 C 0.1563 0.69649 0.61127 0.0
C450 C 0.11538 0.5852 0.60952 0.0
C451 C 0.13834 0.56246 0.60748 0.0
N452 N 0.14144 0.56356 0.62701 0.0
C453 C 0.11863 0.58596 0.62959 0.0
C454 C 0.12513 0.57321 0.59839 0.0
C455 C 0.13191 0.57495 0.63815 0.0
C456 C 0.06459 0.6139 0.64041 0.0
N457 N 0.08864 0.62333 0.63446 0.0
C458 C 0.10219 0.63302 0.66681 0.0
C459 C 0.1073 0.63295 0.64712 0.0
C460 C 0.0776 0.62322 0.67345 0.0
C461 C 0.05855 0.61384 0.66 0.0
H462 H 0.05023 0.60618 0.62996 0.0
H463 H 0.1263 0.64007 0.64196 0.0
C464 C 0.1751 0.61243 0.57264 0.0
N465 N 0.16373 0.61566 0.5889 0.0
C466 C 0.19891 0.61127 0.57371 0.0
C467 C 0.19898 0.61711 0.60818 0.0
C468 C 0.17518 0.61818 0.60644 0.0
C469 C 0.21117 0.61363 0.59166 0.0
H470 H 0.16585 0.61102 0.55881 0.0
H471 H 0.16578 0.62101 0.61908 0.0
C472 C 0.0618 0.63592 0.58392 0.0
N473 N 0.03549 0.6613 0.57677 0.0
C474 C 0.05631 0.63971 0.56492 0.0
C475 C 0.05381 0.64498 0.59929 0.0
C476 C 0.04305 0.65262 0.56161 0.0
C477 C 0.04054 0.65777 0.59538 0.0
C478 C 0.11262 0.61071 0.54397 0.0
C479 C 0.10134 0.61868 0.52976 0.0
C480 C 0.11665 0.5926 0.54036 0.0
C481 C 0.09415 0.60832 0.51224 0.0
C482 C 0.10911 0.58266 0.52269 0.0
N483 N 0.09811 0.59065 0.50911 0.0
C484 C 0.13154 0.66943 0.55018 0.0
C485 C 0.1086 0.67966 0.57392 0.0
C486 C 0.14252 0.68937 0.54362 0.0
N487 N 0.11543 0.66504 0.56539 0.0
C488 C 0.11903 0.69981 0.56775 0.0
C489 C 0.13707 0.705 0.55296 0.0
H490 H 0.13754 0.65777 0.54419 0.0
H491 H 0.09669 0.67608 0.58652 0.0
C492 C 0.06577 0.56204 0.56819 0.0
N493 N 0.06596 0.58089 0.56379 0.0
C494 C 0.05133 0.54524 0.55733 0.0
C495 C 0.03673 0.56746 0.53815 0.0
C496 C 0.05129 0.58379 0.54949 0.0
C497 C 0.03706 0.54797 0.5418 0.0
H498 H 0.07738 0.56011 0.57976 0.0
H499 H 0.05162 0.59888 0.54638 0.0
O500 O 0.13037 0.64185 0.601 0.0
O501 O 0.1028 0.59618 0.60082 0.0
O502 O 0.07459 0.6232 0.58751 0.0
O503 O 0.11934 0.62043 0.5614 0.0
H504 H 0.17146 0.65715 0.57987 0.0
H505 H 0.12417 0.67149 0.62138 0.0
H506 H 0.19862 0.69367 0.57905 0.0
H507 H 0.15223 0.70776 0.61986 0.0
H508 H 0.14618 0.55329 0.599 0.0
H509 H 0.11103 0.59494 0.63849 0.0
H510 H 0.12288 0.57245 0.58285 0.0
H511 H 0.13465 0.57548 0.65366 0.0
H512 H 0.11732 0.6405 0.67678 0.0
H513 H 0.03942 0.606 0.66467 0.0
H514 H 0.20782 0.60898 0.56055 0.0
H515 H 0.20766 0.61889 0.62233 0.0
H516 H 0.06262 0.63309 0.55284 0.0
H517 H 0.05795 0.64233 0.61408 0.0
H518 H 0.03884 0.65579 0.54697 0.0
H519 H 0.03431 0.66493 0.60713 0.0
H520 H 0.09784 0.63256 0.5323 0.0
H521 H 0.12516 0.5861 0.55119 0.0
H522 H 0.08528 0.61425 0.50118 0.0
H523 H 0.11192 0.56854 0.51979 0.0
H524 H 0.15675 0.69268 0.5325 0.0
H525 H 0.11433 0.71139 0.57536 0.0
H526 H 0.05213 0.53044 0.56055 0.0
H527 H 0.02568 0.57011 0.52645 0.0
Li528 Li 0.86277 0.36089 0.39957 0.0
Li529 Li 0.9046 0.37642 0.41297 0.0
Li530 Li 0.89858 0.36218 0.38046 0.0
Li531 Li 0.88794 0.34047 0.40902 0.0
C532 C 0.89874 0.39957 0.37634 0.0
N533 N 0.91776 0.42784 0.34726 0.0
C534 C 0.9212 0.41595 0.37912 0.0
C535 C 0.88594 0.3976 0.35878 0.0
C536 C 0.93048 0.43009 0.36425 0.0
C537 C 0.89588 0.41203 0.34424 0.0
C538 C 0.87536 0.36492 0.44341 0.0
C539 C 0.89309 0.3718 0.47546 0.0
N540 N 0.8789 0.38328 0.47916 0.0
C541 C 0.86084 0.37668 0.44756 0.0
C542 C 0.8915 0.36233 0.45749 0.0
C543 C 0.86293 0.38586 0.46572 0.0
C544 C 0.81172 0.34863 0.41012 0.0
N545 N 0.83014 0.36217 0.39941 0.0
C546 C 0.80227 0.37842 0.38883 0.0
C547 C 0.82594 0.37697 0.38898 0.0
C548 C 0.78283 0.36465 0.39972 0.0
C549 C 0.78777 0.3496 0.41049 0.0
H550 H 0.8157 0.33714 0.41844 0.0
H551 H 0.84102 0.38781 0.38095 0.0
C552 C 0.94587 0.39914 0.43668 0.0
N553 N 0.92375 0.39821 0.4288 0.0
C554 C 0.95899 0.41528 0.44885 0.0
C555 C 0.92624 0.42907 0.44438 0.0
C556 C 0.91389 0.41277 0.43226 0.0
C557 C 0.94912 0.43049 0.45285 0.0
H558 H 0.95327 0.38735 0.43356 0.0
H559 H 0.89623 0.41154 0.42572 0.0
C560 C 0.84387 0.32742 0.37999 0.0
N561 N 0.79427 0.30625 0.37081 0.0
C562 C 0.83011 0.30991 0.39031 0.0
C563 C 0.83242 0.33411 0.36494 0.0
C564 C 0.80507 0.29941 0.38544 0.0
C565 C 0.80731 0.32322 0.36055 0.0
C566 C 0.93619 0.34816 0.40283 0.0
C567 C 0.9444 0.34073 0.38646 0.0
C568 C 0.94262 0.34346 0.42125 0.0
C569 C 0.95874 0.32848 0.3888 0.0
C570 C 0.95695 0.33114 0.42298 0.0
N571 N 0.96463 0.32396 0.40686 0.0
C572 C 0.9323 0.3799 0.34939 0.0
C573 C 0.89597 0.35155 0.34156 0.0
C574 C 0.93846 0.38338 0.3298 0.0
N575 N 0.91082 0.36469 0.35473 0.0
C576 C 0.90144 0.35437 0.32193 0.0
C577 C 0.9224 0.3709 0.3158 0.0
H578 H 0.94397 0.38993 0.36025 0.0
H579 H 0.87938 0.33927 0.34624 0.0
C580 C 0.87246 0.30822 0.43557 0.0
N581 N 0.88482 0.31451 0.41863 0.0
C582 C 0.864 0.28769 0.44063 0.0
C583 C 0.8831 0.28089 0.41154 0.0
C584 C 0.89076 0.30148 0.40686 0.0
C585 C 0.86836 0.27356 0.42811 0.0
H586 H 0.86738 0.31882 0.44437 0.0
H587 H 0.89994 0.30678 0.39319 0.0
O588 O 0.88946 0.38544 0.39067 0.0
O589 O 0.87402 0.35619 0.42557 0.0
O590 O 0.86827 0.3382 0.38481 0.0
O591 O 0.92209 0.36012 0.40084 0.0
H592 H 0.9315 0.41765 0.39252 0.0
H593 H 0.86875 0.38485 0.35624 0.0
H594 H 0.94787 0.44281 0.36618 0.0
H595 H 0.88628 0.41058 0.33053 0.0
H596 H 0.90564 0.37006 0.48644 0.0
H597 H 0.84834 0.37891 0.43679 0.0
H598 H 0.90287 0.35329 0.45449 0.0
H599 H 0.85193 0.39511 0.46909 0.0
H600 H 0.79937 0.39047 0.3806 0.0
H601 H 0.77324 0.33863 0.419 0.0
H602 H 0.97673 0.41595 0.45489 0.0
H603 H 0.91776 0.44025 0.44729 0.0
H604 H 0.83856 0.30452 0.40204 0.0
H605 H 0.8427 0.34774 0.35691 0.0
H606 H 0.79418 0.28587 0.39335 0.0
H607 H 0.79818 0.32832 0.34904 0.0
H608 H 0.93964 0.34427 0.3721 0.0
H609 H 0.93641 0.34909 0.43406 0.0
H610 H 0.96514 0.32254 0.37627 0.0
H611 H 0.96193 0.32726 0.43715 0.0
H612 H 0.95482 0.39627 0.32566 0.0
H613 H 0.88895 0.34406 0.31161 0.0
H614 H 0.85237 0.28282 0.45336 0.0
H615 H 0.88723 0.27065 0.40159 0.0
Li616 Li 0.39624 0.86819 0.89075 0.0
Li617 Li 0.41167 0.89089 0.91658 0.0
Li618 Li 0.41035 0.85649 0.92026 0.0
Li619 Li 0.3706 0.86558 0.91965 0.0
C620 C 0.44829 0.88956 0.89002 0.0
N621 N 0.48501 0.91534 0.86645 0.0
C622 C 0.44391 0.90512 0.87992 0.0
C623 C 0.47136 0.88711 0.88817 0.0
C624 C 0.4627 0.918 0.86806 0.0
C625 C 0.48969 0.9003 0.87617 0.0
C626 C 0.37433 0.90381 0.89887 0.0
C627 C 0.35339 0.92532 0.91166 0.0
N628 N 0.35901 0.93663 0.89519 0.0
C629 C 0.37954 0.91545 0.88194 0.0
C630 C 0.36084 0.9086 0.91374 0.0
C631 C 0.37178 0.93206 0.88042 0.0
C632 C 0.37257 0.86527 0.855 0.0
N633 N 0.3937 0.8648 0.86358 0.0
C634 C 0.41019 0.85976 0.83312 0.0
C635 C 0.41224 0.86186 0.85317 0.0
C636 C 0.38862 0.86032 0.82374 0.0
C637 C 0.36953 0.8629 0.83502 0.0
H638 H 0.35801 0.86738 0.86375 0.0
H639 H 0.42868 0.86121 0.86042 0.0
C640 C 0.45554 0.91707 0.93095 0.0
N641 N 0.43366 0.91734 0.92359 0.0
C642 C 0.47353 0.93477 0.93797 0.0
C643 C 0.44686 0.95318 0.92867 0.0
C644 C 0.42913 0.93494 0.92206 0.0
C645 C 0.46927 0.95317 0.93708 0.0
H646 H 0.45868 0.90285 0.93186 0.0
H647 H 0.41178 0.93492 0.91599 0.0
C648 C 0.37186 0.82903 0.89166 0.0
N649 N 0.35982 0.80185 0.86119 0.0
C650 C 0.34791 0.82261 0.88354 0.0
C651 C 0.38967 0.82157 0.88437 0.0
C652 C 0.34219 0.80887 0.86812 0.0
C653 C 0.38322 0.80785 0.86893 0.0
C654 C 0.40769 0.88461 0.95467 0.0
C655 C 0.42799 0.88306 0.96491 0.0
C656 C 0.39747 0.89904 0.96027 0.0
C657 C 0.43811 0.89631 0.98032 0.0
C658 C 0.40813 0.91204 0.97574 0.0
N659 N 0.42809 0.91043 0.98534 0.0
C660 C 0.45179 0.84852 0.93353 0.0
C661 C 0.41435 0.81951 0.93275 0.0
C662 C 0.46555 0.83665 0.93916 0.0
N663 N 0.42679 0.83977 0.93026 0.0
C664 C 0.42741 0.80702 0.93826 0.0
C665 C 0.45345 0.81553 0.94125 0.0
H666 H 0.46111 0.86471 0.93138 0.0
H667 H 0.39447 0.81299 0.92984 0.0
C668 C 0.31927 0.85547 0.91531 0.0
N669 N 0.3375 0.85797 0.92869 0.0
C670 C 0.29415 0.84711 0.92065 0.0
C671 C 0.30713 0.84533 0.9537 0.0
C672 C 0.33205 0.85363 0.94768 0.0
C673 C 0.28778 0.84133 0.93998 0.0
H674 H 0.32431 0.85912 0.90031 0.0
H675 H 0.34705 0.85587 0.95798 0.0
O676 O 0.43024 0.87682 0.90181 0.0
O677 O 0.38156 0.88736 0.90048 0.0
O678 O 0.37812 0.84298 0.90634 0.0
O679 O 0.39793 0.87208 0.93923 0.0
H680 H 0.42625 0.90728 0.8813 0.0
H681 H 0.47504 0.87512 0.89591 0.0
H682 H 0.45955 0.93012 0.86017 0.0
H683 H 0.50763 0.89857 0.87459 0.0
H684 H 0.34307 0.92926 0.9231 0.0
H685 H 0.38937 0.91166 0.87006 0.0
H686 H 0.35606 0.89949 0.92671 0.0
H687 H 0.37582 0.94127 0.86745 0.0
H688 H 0.42556 0.85808 0.82509 0.0
H689 H 0.35235 0.863 0.82854 0.0
H690 H 0.49017 0.93381 0.94467 0.0
H691 H 0.44291 0.96704 0.92742 0.0
H692 H 0.33395 0.82829 0.88898 0.0
H693 H 0.40839 0.82659 0.89035 0.0
H694 H 0.32376 0.80383 0.86163 0.0
H695 H 0.39685 0.80205 0.86305 0.0
H696 H 0.43598 0.87185 0.96091 0.0
H697 H 0.38161 0.90031 0.95268 0.0
H698 H 0.45396 0.89539 0.98827 0.0
H699 H 0.40055 0.92341 0.9801 0.0
H700 H 0.48551 0.8439 0.94155 0.0
H701 H 0.41735 0.79079 0.93938 0.0
H702 H 0.27997 0.84406 0.9095 0.0
H703 H 0.30308 0.84134 0.96879 0.0
Li704 Li 0.49849 0.38652 0.41905 0.0
Li705 Li 0.48958 0.35143 0.41433 0.0
Li706 Li 0.5307 0.37577 0.40657 0.0
Li707 Li 0.49352 0.37195 0.38521 0.0
C708 C 0.5164 0.37604 0.45074 0.0
N709 N 0.51928 0.39001 0.48837 0.0
C710 C 0.49889 0.36499 0.46451 0.0
C711 C 0.53549 0.3941 0.45618 0.0
C712 C 0.50067 0.37232 0.48345 0.0
C713 C 0.53657 0.40095 0.47524 0.0
C714 C 0.44454 0.35298 0.40939 0.0
C715 C 0.40494 0.32992 0.39739 0.0
N716 N 0.39723 0.32469 0.4159 0.0
C717 C 0.43618 0.3475 0.42829 0.0
C718 C 0.42879 0.34422 0.3938 0.0
C719 C 0.41222 0.3331 0.43128 0.0
C720 C 0.50627 0.42681 0.42878 0.0
N721 N 0.49364 0.4073 0.43434 0.0
C722 C 0.47968 0.41863 0.46319 0.0
C723 C 0.47975 0.40296 0.45083 0.0
C724 C 0.49336 0.43886 0.45811 0.0
C725 C 0.50628 0.44293 0.44046 0.0
H726 H 0.51687 0.42989 0.41548 0.0
H727 H 0.46942 0.38735 0.45473 0.0
C728 C 0.48986 0.31905 0.43656 0.0
N729 N 0.47564 0.32392 0.42311 0.0
C730 C 0.48743 0.29888 0.43939 0.0
C731 C 0.45425 0.2888 0.41563 0.0
C732 C 0.45742 0.30926 0.41317 0.0
C733 C 0.47034 0.28351 0.42812 0.0
H734 H 0.505 0.33093 0.4436 0.0
H735 H 0.44709 0.31345 0.40194 0.0
C736 C 0.54173 0.41067 0.38855 0.0
N737 N 0.58695 0.43673 0.37421 0.0
C738 C 0.54593 0.41241 0.3686 0.0
C739 C 0.56042 0.4224 0.40119 0.0
C740 C 0.56894 0.42562 0.36163 0.0
C741 C 0.58319 0.43541 0.39367 0.0
C742 C 0.51023 0.33376 0.38754 0.0
C743 C 0.52704 0.3271 0.39762 0.0
C744 C 0.49337 0.32068 0.37449 0.0
C745 C 0.52661 0.30739 0.39452 0.0
C746 C 0.49358 0.30109 0.37176 0.0
N747 N 0.51006 0.29491 0.38175 0.0
C748 C 0.5774 0.37845 0.42215 0.0
C749 C 0.57594 0.37975 0.38792 0.0
C750 C 0.60177 0.37845 0.4215 0.0
N751 N 0.56505 0.37904 0.4055 0.0
C752 C 0.60033 0.3799 0.38659 0.0
C753 C 0.61348 0.37894 0.40353 0.0
H754 H 0.56801 0.37721 0.4359 0.0
H755 H 0.56541 0.37968 0.3749 0.0
C756 C 0.46736 0.38165 0.35372 0.0
N757 N 0.48424 0.37314 0.35914 0.0
C758 C 0.46261 0.38351 0.33408 0.0
C759 C 0.49254 0.36765 0.32621 0.0
C760 C 0.49661 0.36604 0.34589 0.0
C761 C 0.47562 0.37673 0.32006 0.0
H762 H 0.45798 0.38732 0.36463 0.0
H763 H 0.51016 0.35959 0.35064 0.0
O764 O 0.51487 0.36921 0.43206 0.0
O765 O 0.46787 0.36709 0.40615 0.0
O766 O 0.51945 0.39757 0.39568 0.0
O767 O 0.51013 0.35292 0.39055 0.0
H768 H 0.48386 0.35107 0.46058 0.0
H769 H 0.54922 0.40283 0.44576 0.0
H770 H 0.48715 0.36399 0.49421 0.0
H771 H 0.55113 0.41499 0.4796 0.0
H772 H 0.39258 0.32295 0.38547 0.0
H773 H 0.44814 0.35413 0.4405 0.0
H774 H 0.43498 0.34832 0.37908 0.0
H775 H 0.40555 0.32862 0.44583 0.0
H776 H 0.46927 0.41499 0.47662 0.0
H777 H 0.51704 0.45838 0.4361 0.0
H778 H 0.50067 0.29574 0.44887 0.0
H779 H 0.44073 0.27745 0.40671 0.0
H780 H 0.53163 0.40364 0.35857 0.0
H781 H 0.55745 0.42136 0.41665 0.0
H782 H 0.57247 0.42703 0.34623 0.0
H783 H 0.59788 0.44446 0.4033 0.0
H784 H 0.54005 0.33695 0.40791 0.0
H785 H 0.48008 0.32554 0.36671 0.0
H786 H 0.53938 0.30197 0.40232 0.0
H787 H 0.48056 0.29077 0.36178 0.0
H788 H 0.61094 0.37727 0.43492 0.0
H789 H 0.60867 0.38047 0.37244 0.0
H790 H 0.44954 0.39071 0.32991 0.0
H791 H 0.50269 0.36197 0.31589 0.0
Li792 Li 0.08836 0.61884 0.91348 0.0
Li793 Li 0.1296 0.63024 0.89989 0.0
Li794 Li 0.11224 0.65497 0.91052 0.0
Li795 Li 0.09594 0.63403 0.88077 0.0
C796 C 0.12507 0.62385 0.94113 0.0
N797 N 0.13395 0.60088 0.97066 0.0
C798 C 0.12687 0.60499 0.93713 0.0
C799 C 0.12779 0.63105 0.96015 0.0
C800 C 0.13138 0.59361 0.95224 0.0
C801 C 0.13226 0.6192 0.97489 0.0
C802 C 0.10239 0.59305 0.87995 0.0
C803 C 0.11007 0.57848 0.85011 0.0
N804 N 0.10778 0.56104 0.85967 0.0
C805 C 0.09984 0.57488 0.88943 0.0
C806 C 0.10731 0.5948 0.86008 0.0
C807 C 0.10275 0.55892 0.87895 0.0
C808 C 0.05089 0.58098 0.91852 0.0
N809 N 0.0649 0.5981 0.92816 0.0
C810 C 0.04827 0.58308 0.95845 0.0
C811 C 0.06343 0.59965 0.94768 0.0
C812 C 0.0345 0.56483 0.94898 0.0
C813 C 0.03552 0.56403 0.92871 0.0
H814 H 0.05224 0.58032 0.90295 0.0
H815 H 0.0746 0.6135 0.95497 0.0
C816 C 0.17765 0.63365 0.91315 0.0
N817 N 0.16098 0.62589 0.89855 0.0
C818 C 0.20081 0.63123 0.91308 0.0
C819 C 0.18972 0.61345 0.88262 0.0
C820 C 0.16677 0.61619 0.88331 0.0
C821 C 0.20706 0.62092 0.89769 0.0
H822 H 0.17307 0.64195 0.92479 0.0
H823 H 0.1539 0.61089 0.87146 0.0
C824 C 0.06004 0.6436 0.91527 0.0
N825 N 0.02674 0.6504 0.94079 0.0
C826 C 0.03653 0.6427 0.90882 0.0
C827 C 0.06664 0.64795 0.93469 0.0
C828 C 0.01995 0.6462 0.92195 0.0
C829 C 0.04953 0.65134 0.94736 0.0
C830 C 0.15308 0.66175 0.87847 0.0
C831 C 0.1727 0.67491 0.8895 0.0
C832 C 0.15806 0.65516 0.86039 0.0
C833 C 0.19711 0.68113 0.88231 0.0
C834 C 0.18273 0.66174 0.8537 0.0
N835 N 0.20158 0.67446 0.86471 0.0
C836 C 0.13748 0.68623 0.93591 0.0
C837 C 0.11148 0.69484 0.9135 0.0
C838 C 0.14702 0.70615 0.94274 0.0
N839 N 0.12046 0.68113 0.92132 0.0
C840 C 0.12059 0.71502 0.91986 0.0
C841 C 0.13909 0.72099 0.93434 0.0
H842 H 0.14459 0.67505 0.94154 0.0
H843 H 0.09803 0.69027 0.90181 0.0
C844 C 0.06368 0.61611 0.84995 0.0
N845 N 0.08248 0.63326 0.85581 0.0
C846 C 0.056 0.61389 0.83065 0.0
C847 C 0.08603 0.64758 0.8242 0.0
C848 C 0.09326 0.64908 0.84358 0.0
C849 C 0.06766 0.62957 0.81743 0.0
H850 H 0.05554 0.60379 0.86008 0.0
H851 H 0.10821 0.6625 0.84871 0.0
O852 O 0.12016 0.6351 0.92662 0.0
O853 O 0.099 0.60869 0.8899 0.0
O854 O 0.07638 0.6401 0.90257 0.0
O855 O 0.12919 0.65496 0.88555 0.0
H856 H 0.12491 0.59926 0.92251 0.0
H857 H 0.12619 0.64553 0.96354 0.0
H858 H 0.13283 0.57898 0.94933 0.0
H859 H 0.13432 0.62455 0.98969 0.0
H860 H 0.11411 0.57971 0.83477 0.0
H861 H 0.09549 0.57302 0.9047 0.0
H862 H 0.10952 0.60873 0.85248 0.0
H863 H 0.10091 0.54482 0.88613 0.0
H864 H 0.04814 0.58429 0.97407 0.0
H865 H 0.02486 0.55036 0.92085 0.0
H866 H 0.21385 0.63767 0.92478 0.0
H867 H 0.19374 0.60542 0.87045 0.0
H868 H 0.03115 0.63932 0.89383 0.0
H869 H 0.0847 0.64862 0.93997 0.0
H870 H 0.00168 0.64555 0.91717 0.0
H871 H 0.05438 0.65469 0.96244 0.0
H872 H 0.16914 0.68004 0.90357 0.0
H873 H 0.14308 0.64486 0.85174 0.0
H874 H 0.21252 0.6912 0.89074 0.0
H875 H 0.1869 0.65666 0.8398 0.0
H876 H 0.16163 0.71013 0.9536 0.0
H877 H 0.11395 0.72597 0.91305 0.0
H878 H 0.04166 0.59984 0.82599 0.0
H879 H 0.0957 0.65992 0.81442 0.0
Li880 Li 0.59606 0.13735 0.40659 0.0
Li881 Li 0.63257 0.12824 0.41235 0.0
Li882 Li 0.60403 0.11267 0.38565 0.0
Li883 Li 0.59132 0.10336 0.41894 0.0
C884 C 0.63032 0.15947 0.37922 0.0
N885 N 0.64052 0.19553 0.35923 0.0
C886 C 0.65172 0.17632 0.3836 0.0
C887 C 0.6143 0.16091 0.36449 0.0
C888 C 0.6565 0.19443 0.37339 0.0
C889 C 0.61972 0.17928 0.3546 0.0
C890 C 0.61841 0.14637 0.44391 0.0
C891 C 0.62817 0.16024 0.4761 0.0
N892 N 0.64032 0.17897 0.46841 0.0
C893 C 0.63111 0.16573 0.43636 0.0
C894 C 0.61701 0.14356 0.46396 0.0
C895 C 0.64201 0.18203 0.44895 0.0
C896 C 0.55561 0.14774 0.4151 0.0
N897 N 0.5796 0.15642 0.40878 0.0
C898 C 0.57536 0.18888 0.40685 0.0
C899 C 0.58976 0.17665 0.4048 0.0
C900 C 0.55034 0.18021 0.41308 0.0
C901 C 0.54055 0.15934 0.41727 0.0
H902 H 0.54809 0.13166 0.41835 0.0
H903 H 0.60899 0.18338 0.40018 0.0
C904 C 0.68371 0.14361 0.40519 0.0
N905 N 0.6667 0.13785 0.41976 0.0
C906 C 0.7092 0.15213 0.40935 0.0
C907 C 0.69928 0.14777 0.44345 0.0
C908 C 0.67393 0.13929 0.43861 0.0
C909 C 0.71726 0.15466 0.42872 0.0
H910 H 0.67735 0.14211 0.39033 0.0
H911 H 0.66005 0.13421 0.44993 0.0
C912 C 0.553 0.10359 0.38576 0.0
N913 N 0.51375 0.08927 0.35986 0.0
C914 C 0.53813 0.08293 0.38538 0.0
C915 C 0.54758 0.11703 0.37324 0.0
C916 C 0.51847 0.07597 0.3721 0.0
C917 C 0.52774 0.10948 0.36018 0.0
C918 C 0.62963 0.08819 0.41588 0.0
C919 C 0.6397 0.07484 0.40736 0.0
C920 C 0.63067 0.0907 0.43597 0.0
C921 C 0.6507 0.06423 0.4191 0.0
C922 C 0.64184 0.07982 0.4472 0.0
N923 N 0.65154 0.06692 0.43861 0.0
C924 C 0.61586 0.11499 0.34607 0.0
C925 C 0.58615 0.08328 0.35586 0.0
C926 C 0.61366 0.10862 0.32685 0.0
N927 N 0.6017 0.10255 0.36 0.0
C928 C 0.58334 0.07623 0.33678 0.0
C929 C 0.59698 0.08909 0.32195 0.0
H930 H 0.62872 0.12997 0.34982 0.0
H931 H 0.57583 0.07341 0.36734 0.0
C932 C 0.56418 0.08971 0.45218 0.0
N933 N 0.57126 0.08308 0.43552 0.0
C934 C 0.54857 0.07585 0.46518 0.0
C935 C 0.54714 0.04861 0.44327 0.0
C936 C 0.56327 0.06303 0.43083 0.0
C937 C 0.53978 0.0551 0.46066 0.0
H938 H 0.57038 0.1058 0.4552 0.0
H939 H 0.56915 0.05832 0.41736 0.0
O940 O 0.62534 0.1416 0.3891 0.0
O941 O 0.60797 0.13011 0.43181 0.0
O942 O 0.57238 0.11066 0.39864 0.0
O943 O 0.61888 0.09869 0.40448 0.0
H944 H 0.66447 0.17547 0.39485 0.0
H945 H 0.59795 0.14794 0.36063 0.0
H946 H 0.67291 0.20761 0.37672 0.0
H947 H 0.60743 0.18061 0.34321 0.0
H948 H 0.62725 0.15827 0.49164 0.0
H949 H 0.63265 0.1681 0.42095 0.0
H950 H 0.60766 0.12862 0.4701 0.0
H951 H 0.65187 0.19709 0.44325 0.0
H952 H 0.58383 0.205 0.40381 0.0
H953 H 0.52133 0.15195 0.42192 0.0
H954 H 0.72235 0.15751 0.39753 0.0
H955 H 0.70472 0.14926 0.45855 0.0
H956 H 0.5419 0.07236 0.39511 0.0
H957 H 0.55841 0.13313 0.37371 0.0
H958 H 0.50696 0.05999 0.37153 0.0
H959 H 0.52342 0.11971 0.35035 0.0
H960 H 0.63903 0.07273 0.39182 0.0
H961 H 0.62301 0.10094 0.44286 0.0
H962 H 0.65859 0.05386 0.41269 0.0
H963 H 0.64279 0.08164 0.46276 0.0
H964 H 0.62445 0.11911 0.31591 0.0
H965 H 0.57064 0.06093 0.33369 0.0
H966 H 0.54297 0.0813 0.4784 0.0
H967 H 0.54063 0.03264 0.43946 0.0
Li968 Li 0.49986 0.63757 0.9169 0.0
Li969 Li 0.49226 0.60239 0.91745 0.0
Li970 Li 0.50027 0.62131 0.88576 0.0
Li971 Li 0.46059 0.61365 0.90498 0.0
C972 C 0.54631 0.63826 0.91267 0.0
N973 N 0.59259 0.66675 0.92193 0.0
C974 C 0.55352 0.64216 0.93202 0.0
C975 C 0.5627 0.64875 0.89801 0.0
C976 C 0.57697 0.65667 0.93641 0.0
C977 C 0.58601 0.66311 0.903 0.0
C978 C 0.47064 0.60747 0.94918 0.0
C979 C 0.45013 0.57859 0.96974 0.0
N980 N 0.46579 0.58796 0.98447 0.0
C981 C 0.48651 0.61682 0.96455 0.0
C982 C 0.45223 0.58822 0.95182 0.0
C983 C 0.48374 0.60672 0.98227 0.0
C984 C 0.49638 0.66611 0.9433 0.0
N985 N 0.51187 0.66353 0.92948 0.0
C986 C 0.53452 0.69937 0.92826 0.0
C987 C 0.53115 0.67962 0.92229 0.0
C988 C 0.51768 0.70254 0.94153 0.0
C989 C 0.49907 0.68553 0.94967 0.0
H990 H 0.4805 0.65326 0.94813 0.0
H991 H 0.54254 0.6774 0.9107 0.0
C992 C 0.48453 0.56127 0.92457 0.0
N993 N 0.49715 0.58053 0.93088 0.0
C994 C 0.48464 0.54466 0.93549 0.0
C995 C 0.51141 0.56801 0.95886 0.0
C996 C 0.5112 0.58416 0.94729 0.0
C997 C 0.49764 0.54801 0.95311 0.0
H998 H 0.47374 0.5588 0.91137 0.0
H999 H 0.52134 0.59959 0.95184 0.0
C1000 C 0.48139 0.65819 0.8922 0.0
N1001 N 0.48115 0.69733 0.89296 0.0
C1002 C 0.46295 0.66253 0.90259 0.0
C1003 C 0.49962 0.67373 0.88211 0.0
C1004 C 0.46318 0.68242 0.90283 0.0
C1005 C 0.49918 0.69342 0.88268 0.0
C1006 C 0.45318 0.58214 0.88272 0.0
C1007 C 0.4513 0.58409 0.86271 0.0
C1008 C 0.4333 0.56811 0.89285 0.0
C1009 C 0.42943 0.57211 0.85319 0.0
C1010 C 0.41172 0.55644 0.88282 0.0
N1011 N 0.41024 0.55867 0.86336 0.0
C1012 C 0.52882 0.61389 0.85507 0.0
C1013 C 0.50488 0.63421 0.84733 0.0
C1014 C 0.53658 0.61441 0.83583 0.0
N1015 N 0.51318 0.62363 0.86034 0.0
C1016 C 0.5122 0.6352 0.82801 0.0
C1017 C 0.52808 0.62507 0.82199 0.0
H1018 H 0.5349 0.60543 0.86575 0.0
H1019 H 0.49194 0.64136 0.85185 0.0
C1020 C 0.41112 0.60541 0.91817 0.0
N1021 N 0.42603 0.60938 0.90225 0.0
C1022 C 0.38635 0.60429 0.91671 0.0
C1023 C 0.39271 0.61132 0.88248 0.0
C1024 C 0.41738 0.61227 0.8846 0.0
C1025 C 0.37694 0.60753 0.89873 0.0
H1026 H 0.41869 0.60383 0.93212 0.0
H1027 H 0.42984 0.61583 0.87228 0.0
O1028 O 0.52352 0.62403 0.90804 0.0
O1029 O 0.47328 0.617 0.9316 0.0
O1030 O 0.48189 0.63892 0.89225 0.0
O1031 O 0.47426 0.59402 0.89237 0.0
H1032 H 0.54101 0.6343 0.94353 0.0
H1033 H 0.55743 0.6459 0.88296 0.0
H1034 H 0.58273 0.65995 0.95133 0.0
H1035 H 0.59885 0.67139 0.89182 0.0
H1036 H 0.43611 0.56363 0.97191 0.0
H1037 H 0.50112 0.63156 0.96275 0.0
H1038 H 0.43993 0.58066 0.94008 0.0
H1039 H 0.49599 0.61373 0.99424 0.0
H1040 H 0.54909 0.71208 0.9216 0.0
H1041 H 0.48528 0.68723 0.95956 0.0
H1042 H 0.47382 0.52939 0.93064 0.0
H1043 H 0.52185 0.57109 0.97231 0.0
H1044 H 0.44885 0.65073 0.91065 0.0
H1045 H 0.51422 0.67068 0.8742 0.0
H1046 H 0.44916 0.68604 0.91094 0.0
H1047 H 0.51329 0.70563 0.87507 0.0
H1048 H 0.46648 0.59479 0.8546 0.0
H1049 H 0.43439 0.5664 0.90833 0.0
H1050 H 0.42769 0.57353 0.83772 0.0
H1051 H 0.39613 0.54563 0.8905 0.0
H1052 H 0.54891 0.60647 0.83179 0.0
H1053 H 0.50475 0.6432 0.81778 0.0
H1054 H 0.37501 0.60175 0.92967 0.0
H1055 H 0.38618 0.61379 0.86833 0.0
H1056 H 0.63252 0.09604 0.29369 0.0
H1057 H 0.5529 0.06782 0.30358 0.0
H1058 H 0.62579 0.09022 0.25917 0.0
H1059 H 0.54625 0.06098 0.26904 0.0
H1060 H 0.54403 0.08511 0.2067 0.0
H1061 H 0.54771 0.08187 0.24147 0.0
H1062 H 0.61375 0.06669 0.23291 0.0
H1063 H 0.61088 0.07108 0.19816 0.0
C1064 C 0.6136 0.08831 0.28851 0.0
C1065 C 0.59322 0.0827 0.30136 0.0
C1066 C 0.60975 0.0847 0.26871 0.0
C1067 C 0.58543 0.07524 0.26128 0.0
C1068 C 0.56518 0.06857 0.27426 0.0
C1069 C 0.56903 0.07229 0.29409 0.0
C1070 C 0.55928 0.08099 0.21223 0.0
C1071 C 0.57739 0.0787 0.19966 0.0
C1072 C 0.5612 0.07885 0.23217 0.0
C1073 C 0.58119 0.07422 0.24002 0.0
C1074 C 0.59837 0.07061 0.22736 0.0
C1075 C 0.59654 0.07289 0.2074 0.0
H1076 H 0.50682 0.59296 0.70254 0.0
H1077 H 0.56783 0.65094 0.70006 0.0
H1078 H 0.51028 0.59303 0.73764 0.0
H1079 H 0.57142 0.65097 0.73525 0.0
H1080 H 0.54084 0.6567 0.79638 0.0
H1081 H 0.54576 0.65533 0.7615 0.0
H1082 H 0.53529 0.59159 0.76562 0.0
H1083 H 0.5294 0.59281 0.80052 0.0
C1084 C 0.52139 0.60549 0.70946 0.0
C1085 C 0.53691 0.62203 0.69853 0.0
C1086 C 0.52339 0.60553 0.7296 0.0
C1087 C 0.541 0.62208 0.73928 0.0
C1088 C 0.55736 0.63816 0.72826 0.0
C1089 C 0.55531 0.63814 0.70812 0.0
C1090 C 0.53971 0.64242 0.78985 0.0
C1091 C 0.53446 0.62482 0.80119 0.0
C1092 C 0.54283 0.64168 0.76987 0.0
C1093 C 0.54079 0.62331 0.76074 0.0
C1094 C 0.53666 0.60591 0.77219 0.0
C1095 C 0.53356 0.60666 0.79221 0.0
H1096 H 0.95647 0.37138 0.19379 0.0
H1097 H 0.90547 0.40382 0.1975 0.0
H1098 H 0.95937 0.37133 0.22918 0.0
H1099 H 0.90895 0.4045 0.23268 0.0
H1100 H 0.88689 0.37061 0.28974 0.0
H1101 H 0.89165 0.37723 0.25532 0.0
H1102 H 0.9712 0.39008 0.26006 0.0
H1103 H 0.96618 0.38263 0.29482 0.0
C1104 C 0.9465 0.379 0.20222 0.0
C1105 C 0.93048 0.38734 0.19312 0.0
C1106 C 0.94818 0.37904 0.22243 0.0
C1107 C 0.934 0.38758 0.23372 0.0
C1108 C 0.9196 0.39735 0.2244 0.0
C1109 C 0.91769 0.39708 0.20431 0.0
C1110 C 0.9054 0.3747 0.28346 0.0
C1111 C 0.9261 0.37582 0.29493 0.0
C1112 C 0.90821 0.37883 0.26375 0.0
C1113 C 0.93185 0.38436 0.25496 0.0
C1114 C 0.95273 0.38578 0.26643 0.0
C1115 C 0.9499 0.38165 0.2863 0.0
H1116 H 0.36688 0.87993 0.79936 0.0
H1117 H 0.40525 0.83701 0.79942 0.0
H1118 H 0.36433 0.878 0.76418 0.0
H1119 H 0.40366 0.836 0.76415 0.0
H1120 H 0.42426 0.86579 0.70247 0.0
H1121 H 0.42373 0.86409 0.73765 0.0
H1122 H 0.34386 0.84996 0.73754 0.0
H1123 H 0.34395 0.85061 0.70223 0.0
C1124 C 0.37452 0.86991 0.79196 0.0
C1125 C 0.38633 0.85866 0.80231 0.0
C1126 C 0.37313 0.86891 0.7718 0.0
C1127 C 0.38387 0.85691 0.76156 0.0
C1128 C 0.39546 0.84552 0.77178 0.0
C1129 C 0.39649 0.84623 0.79196 0.0
C1130 C 0.40645 0.86188 0.70983 0.0
C1131 C 0.38412 0.85829 0.69941 0.0
C1132 C 0.40623 0.86102 0.72999 0.0
C1133 C 0.38377 0.8569 0.7402 0.0
C1134 C 0.36144 0.85332 0.72993 0.0
C1135 C 0.36157 0.85384 0.70973 0.0
H1136 H 0.51205 0.39004 0.29272 0.0
H1137 H 0.43185 0.36984 0.30009 0.0
H1138 H 0.50706 0.39207 0.25798 0.0
H1139 H 0.42683 0.37252 0.26512 0.0
H1140 H 0.43116 0.35122 0.2012 0.0
H1141 H 0.43188 0.35398 0.23638 0.0
H1142 H 0.49516 0.41047 0.23275 0.0
H1143 H 0.49524 0.40724 0.19773 0.0
C1144 C 0.49333 0.38616 0.28689 0.0
C1145 C 0.47232 0.37953 0.2991 0.0
C1146 C 0.49048 0.38759 0.26699 0.0
C1147 C 0.46654 0.38249 0.25876 0.0
C1148 C 0.44551 0.3764 0.27101 0.0
C1149 C 0.44838 0.37502 0.29103 0.0
C1150 C 0.44514 0.36429 0.20791 0.0
C1151 C 0.46335 0.37885 0.19664 0.0
C1152 C 0.44536 0.36599 0.22807 0.0
C1153 C 0.46377 0.38232 0.23738 0.0
C1154 C 0.48099 0.39753 0.22603 0.0
C1155 C 0.48083 0.39579 0.20591 0.0
H1156 H 0.04082 0.63225 0.69224 0.0
H1157 H 0.10246 0.61172 0.70181 0.0
H1158 H 0.03369 0.6319 0.7273 0.0
H1159 H 0.09541 0.61136 0.73662 0.0
H1160 H 0.06425 0.59609 0.79629 0.0
H1161 H 0.06245 0.59258 0.76117 0.0
H1162 H 0.05939 0.6527 0.7558 0.0
H1163 H 0.06085 0.65615 0.79106 0.0
C1164 C 0.05264 0.62749 0.70185 0.0
C1165 C 0.07228 0.62214 0.69442 0.0
C1166 C 0.04864 0.62737 0.72183 0.0
C1167 C 0.06395 0.62153 0.73461 0.0
C1168 C 0.08316 0.6157 0.72708 0.0
C1169 C 0.08735 0.61609 0.70721 0.0
C1170 C 0.06252 0.60835 0.78766 0.0
C1171 C 0.0628 0.62644 0.7964 0.0
C1172 C 0.06172 0.6064 0.76756 0.0
C1173 C 0.061 0.62244 0.75581 0.0
C1174 C 0.05983 0.64008 0.76455 0.0
C1175 C 0.06085 0.64211 0.78468 0.0
H1176 H 0.55167 0.06629 -0.00164 0.0
H1177 H 0.56935 0.01717 0.02393 0.0
H1178 H 0.52941 0.04374 0.97203 0.0
H1179 H 0.54746 0.99471 0.99739 0.0
H1180 H 0.52058 0.9655 0.9382 0.0
H1181 H 0.54915 0.99244 0.95824 0.0
H1182 H 0.48782 0.01033 0.97606 0.0
H1183 H 0.4589 0.98281 0.95702 0.0
C1184 C 0.55132 0.05081 -0.00197 0.0
C1185 C 0.56214 0.04336 0.01307 0.0
C1186 C 0.53855 0.03797 0.98308 0.0
C1187 C 0.53687 0.01762 0.98278 0.0
C1188 C 0.54878 0.01044 0.99728 0.0
C1189 C 0.56113 0.02318 0.01245 0.0
C1190 C 0.51313 0.97517 0.94636 0.0
C1191 C 0.48731 0.97173 0.94623 0.0
C1192 C 0.52955 0.99064 0.95768 0.0
C1193 C 0.52055 0.00327 0.96865 0.0
C1194 C 0.49516 0.00082 0.96754 0.0
C1195 C 0.47864 0.98511 0.95654 0.0
H1196 H 0.5238 0.55898 0.50532 0.0
H1197 H 0.49888 0.52006 0.55511 0.0
H1198 H 0.52044 0.5296 0.48537 0.0
H1199 H 0.49412 0.49033 0.53505 0.0
H1200 H 0.50719 0.44259 0.49599 0.0
H1201 H 0.51372 0.47183 0.51716 0.0
H1202 H 0.48918 0.50195 0.47116 0.0
H1203 H 0.48393 0.47312 0.44991 0.0
C1204 C 0.51768 0.54405 0.51194 0.0
C1205 C 0.51162 0.54166 0.53166 0.0
C1206 C 0.51545 0.52717 0.50052 0.0
C1207 C 0.50657 0.50747 0.50848 0.0
C1208 C 0.50124 0.50523 0.52843 0.0
C1209 C 0.50392 0.52222 0.53994 0.0
C1210 C 0.50306 0.45547 0.49056 0.0
C1211 C 0.49512 0.45572 0.47138 0.0
C1212 C 0.50675 0.4722 0.50266 0.0
C1213 C 0.50223 0.4894 0.49586 0.0
C1214 C 0.49354 0.48926 0.47677 0.0
C1215 C 0.49027 0.47269 0.46462 0.0
H1216 H 0.0047 0.56215 0.98055 0.0
H1217 H 0.03267 0.52606 0.94303 0.0
H1218 H 0.98376 0.53219 0.00038 0.0
H1219 H 0.01105 0.49599 0.96247 0.0
H1220 H 0.99607 0.45468 0.01645 0.0
H1221 H 0.0154 0.48367 0.99507 0.0
H1222 H 0.94906 0.49923 -0.00116 0.0
H1223 H 0.92974 0.47027 0.02015 0.0
C1224 C 0.00623 0.54779 0.97649 0.0
C1225 C 0.02032 0.54644 0.96026 0.0
C1226 C 0.99407 0.53061 0.98772 0.0
C1227 C 0.99582 0.51177 0.98297 0.0
C1228 C 0.00959 0.51036 0.96658 0.0
C1229 C 0.0217 0.52752 0.95532 0.0
C1230 C 0.98554 0.46417 0.01253 0.0
C1231 C 0.96148 0.4603 0.02008 0.0
C1232 C 0.99658 0.48075 0.00029 0.0
C1233 C 0.98376 0.49375 0.99536 0.0
C1234 C 0.95955 0.48967 0.00266 0.0
C1235 C 0.94852 0.47311 0.01487 0.0
H1236 H 0.54815 0.0496 0.49843 0.0
H1237 H 0.49319 0.02798 0.45304 0.0
H1238 H 0.52015 0.02541 0.52092 0.0
H1239 H 0.46432 0.00448 0.47571 0.0
H1240 H 0.43428 0.94823 0.51478 0.0
H1241 H 0.45833 0.97421 0.49206 0.0
H1242 H 0.48356 0.01728 0.53919 0.0
H1243 H 0.46046 0.99067 0.562 0.0
C1244 C 0.52988 0.03973 0.4934 0.0
C1245 C 0.52276 0.0404 0.47409 0.0
C1246 C 0.51369 0.02604 0.50629 0.0
C1247 C 0.48984 0.01302 0.5002 0.0
C1248 C 0.48267 0.01401 0.48084 0.0
C1249 C 0.4991 0.02744 0.46786 0.0
C1250 C 0.44462 0.96339 0.52016 0.0
C1251 C 0.44563 0.96757 0.54004 0.0
C1252 C 0.45838 0.97833 0.50716 0.0
C1253 C 0.47312 -0.00215 0.51377 0.0
C1254 C 0.47293 0.00228 0.53364 0.0
C1255 C 0.45954 0.98718 0.54669 0.0
H1256 H 0.50723 0.51395 0.94398 0.0
H1257 H 0.48335 0.54321 0.99077 0.0
H1258 H 0.50315 0.48506 0.9649 0.0
H1259 H 0.47788 0.51395 0.01153 0.0
H1260 H 0.49525 0.46752 0.04937 0.0
H1261 H 0.49896 0.49674 0.02902 0.0
H1262 H 0.47394 0.45671 0.97965 0.0
H1263 H 0.47166 0.42781 -5e-05 0.0
C1264 C 0.50094 0.51405 0.95875 0.0
C1265 C 0.49574 0.53074 0.96587 0.0
C1266 C 0.49836 0.49746 0.97072 0.0
C1267 C 0.49 0.49703 0.98994 0.0
C1268 C 0.48476 0.51383 0.99696 0.0
C1269 C 0.48781 0.53058 0.98509 0.0
C1270 C 0.49033 0.46507 0.03419 0.0
C1271 C 0.4832 0.44553 0.02615 0.0
C1272 C 0.49237 0.48176 0.02251 0.0
C1273 C 0.48691 0.47918 0.00259 0.0
C1274 C 0.47892 0.45941 0.99478 0.0
C1275 C 0.47735 0.44281 0.0064 0.0
H1276 H 0.95454 0.47038 0.44842 0.0
H1277 H 0.97382 0.42966 0.4866 0.0
H1278 H 0.97487 0.49853 0.47028 0.0
H1279 H 0.99539 0.4581 0.50798 0.0
H1280 H 0.00763 0.50929 0.55202 0.0
H1281 H 0.98639 0.4808 0.53049 0.0
H1282 H 0.01592 0.51943 0.48095 0.0
H1283 H 0.03669 0.54789 0.50247 0.0
C1284 C 0.96315 0.46744 0.46148 0.0
C1285 C 0.96247 0.44776 0.46581 0.0
C1286 C 0.97508 0.48363 0.47389 0.0
C1287 C 0.98677 0.48057 0.49087 0.0
C1288 C 0.98629 0.46092 0.49513 0.0
C1289 C 0.97423 0.44468 0.48275 0.0
C1290 C 0.00953 0.51162 0.53652 0.0
C1291 C 0.02363 0.53079 0.52888 0.0
C1292 C 0.99748 0.49532 0.5242 0.0
C1293 C -0.00053 0.49785 0.50401 0.0
C1294 C 0.01364 0.51705 0.49642 0.0
C1295 C 0.02554 0.53336 0.50873 0.0
H1296 H 0.51932 0.18824 0.05514 0.0
H1297 H 0.47776 0.15995 0.1062 0.0
H1298 H 0.49514 0.21025 0.05292 0.0
H1299 H 0.45377 0.18241 0.10412 0.0
H1300 H 0.44412 0.24404 0.04746 0.0
H1301 H 0.45354 0.21286 0.04789 0.0
H1302 H 0.46648 0.21953 0.1095 0.0
H1303 H 0.45744 0.25063 0.10909 0.0
C1304 C 0.5046 0.18633 0.06563 0.0
C1305 C 0.50066 0.1724 0.08095 0.0
C1306 C 0.49068 0.19897 0.06433 0.0
C1307 C 0.47255 0.19808 0.07836 0.0
C1308 C 0.46778 0.18356 0.0932 0.0
C1309 C 0.48164 0.1708 0.09445 0.0
C1310 C 0.44845 0.23859 0.06116 0.0
C1311 C 0.45039 0.25001 0.07818 0.0
C1312 C 0.45384 0.22076 0.06139 0.0
C1313 C 0.46113 0.21394 0.07867 0.0
C1314 C 0.46076 0.2243 0.09597 0.0
C1315 C 0.45548 0.24216 0.09573 0.0
H1316 H 0.35703 0.61019 0.56385 0.0
H1317 H 0.36081 0.61976 0.62569 0.0
H1318 H 0.31381 0.60865 0.56381 0.0
H1319 H 0.31723 0.61752 0.62575 0.0
H1320 H 0.25068 0.63819 0.61311 0.0
H1321 H 0.29309 0.63785 0.61447 0.0
H1322 H 0.27203 0.58725 0.5746 0.0
H1323 H 0.22957 0.58755 0.57326 0.0
C1324 C 0.3486 0.61192 0.57744 0.0
C1325 C 0.36238 0.6152 0.59476 0.0
C1326 C 0.32374 0.6108 0.57746 0.0
C1327 C 0.31208 0.61296 0.59478 0.0
C1328 C 0.32576 0.61599 0.61214 0.0
C1329 C 0.35063 0.61706 0.61214 0.0
C1330 C 0.255 0.62681 0.60484 0.0
C1331 C 0.23676 0.61293 0.59303 0.0
C1332 C 0.27931 0.62662 0.60562 0.0
C1333 C 0.28595 0.61255 0.59461 0.0
C1334 C 0.26761 0.59848 0.58302 0.0
C1335 C 0.2433 0.59867 0.58224 0.0
H1336 H 0.85589 0.26002 0.09819 0.0
H1337 H 0.83405 0.25924 0.0382 0.0
H1338 H 0.82203 0.22796 0.10341 0.0
H1339 H 0.79867 0.22815 0.04393 0.0
H1340 H 0.73471 0.17203 0.05692 0.0
H1341 H 0.77793 0.19401 0.05136 0.0
H1342 H 0.77968 0.22129 0.10769 0.0
H1343 H 0.73747 0.19822 0.11384 0.0
C1344 C 0.84431 0.25285 0.08593 0.0
C1345 C 0.84742 0.26262 0.06784 0.0
C1346 C 0.82447 0.23454 0.08906 0.0
C1347 C 0.80694 0.22578 0.07434 0.0
C1348 C 0.81159 0.23442 0.05572 0.0
C1349 C 0.83177 0.2525 0.05248 0.0
C1350 C 0.74456 0.1823 0.06835 0.0
C1351 C 0.73239 0.18354 0.08574 0.0
C1352 C 0.76932 0.19512 0.06505 0.0
C1353 C 0.78237 0.20967 0.07894 0.0
C1354 C 0.77052 0.21018 0.09668 0.0
C1355 C 0.74598 0.19718 0.10008 0.0
H1356 H 0.47049 0.7984 0.54573 0.0
H1357 H 0.51678 0.8305 0.59339 0.0
H1358 H 0.49509 0.77673 0.54309 0.0
H1359 H 0.54154 0.80868 0.59076 0.0
H1360 H 0.54043 0.742 0.59982 0.0
H1361 H 0.53125 0.77299 0.59872 0.0
H1362 H 0.53483 0.77277 0.53629 0.0
H1363 H 0.54403 0.7415 0.5374 0.0
C1364 C 0.48637 0.80122 0.55531 0.0
C1365 C 0.49148 0.81602 0.56992 0.0
C1366 C 0.50057 0.78881 0.55376 0.0
C1367 C 0.52023 0.7909 0.56679 0.0
C1368 C 0.52629 0.80651 0.58068 0.0
C1369 C 0.51206 0.81894 0.58223 0.0
C1370 C 0.54028 0.74895 0.58587 0.0
C1371 C 0.54263 0.73912 0.56868 0.0
C1372 C 0.53495 0.76677 0.58523 0.0
C1373 C 0.53187 0.77516 0.56739 0.0
C1374 C 0.53658 0.76641 0.55024 0.0
C1375 C 0.54191 0.74856 0.55088 0.0
H1376 H 0.63398 0.36998 0.06172 0.0
H1377 H 0.63665 0.37357 0.12412 0.0
H1378 H 0.67684 0.3707 0.06115 0.0
H1379 H 0.67955 0.37413 0.12359 0.0
H1380 H 0.76451 0.39515 0.11313 0.0
H1381 H 0.72188 0.39518 0.1142 0.0
H1382 H 0.69989 0.34911 0.0696 0.0
H1383 H 0.74248 0.34922 0.06844 0.0
C1384 C 0.64368 0.37078 0.07533 0.0
C1385 C 0.63189 0.37163 0.09297 0.0
C1386 C 0.66824 0.37116 0.07501 0.0
C1387 C 0.68159 0.37235 0.09233 0.0
C1388 C 0.6699 0.37346 0.10997 0.0
C1389 C 0.64533 0.37313 0.11029 0.0
C1390 C 0.7505 0.38492 0.10367 0.0
C1391 C 0.75687 0.37224 0.09064 0.0
C1392 C 0.72608 0.38493 0.10429 0.0
C1393 C 0.7075 0.37221 0.09193 0.0
C1394 C 0.71386 0.35938 0.07905 0.0
C1395 C 0.73826 0.35942 0.0784 0.0
H1396 H 0.15528 0.72399 0.51847 0.0
H1397 H 0.15664 0.73435 0.58017 0.0
H1398 H 0.18972 0.75656 0.51438 0.0
H1399 H 0.19065 0.76654 0.57612 0.0
H1400 H 0.25075 0.82455 0.56756 0.0
H1401 H 0.208 0.80072 0.56379 0.0
H1402 H 0.23359 0.76591 0.52304 0.0
H1403 H 0.27612 0.7903 0.52604 0.0
C1404 C 0.16252 0.73341 0.53108 0.0
C1405 C 0.15336 0.72649 0.54965 0.0
C1406 C 0.18223 0.75203 0.52874 0.0
C1407 C 0.19311 0.76405 0.54493 0.0
C1408 C 0.18254 0.75785 0.56328 0.0
C1409 C 0.16292 0.7393 0.56561 0.0
C1410 C 0.24715 0.81224 0.55726 0.0
C1411 C 0.26693 0.80912 0.54735 0.0
C1412 C 0.22265 0.79847 0.55525 0.0
C1413 C 0.21744 0.78122 0.54339 0.0
C1414 C 0.23688 0.77905 0.53225 0.0
C1415 C 0.26136 0.79289 0.53418 0.0
H1416 H 0.75289 0.36226 0.43111 0.0
H1417 H 0.75621 0.37095 0.36917 0.0
H1418 H 0.71198 0.36584 0.43179 0.0
H1419 H 0.71556 0.37494 0.3699 0.0
H1420 H 0.6302 0.35738 0.37754 0.0
H1421 H 0.67105 0.35395 0.37645 0.0
H1422 H 0.69455 0.39313 0.42635 0.0
H1423 H 0.65381 0.39689 0.4273 0.0
C1424 C 0.74481 0.36483 0.41764 0.0
C1425 C 0.75773 0.36632 0.40009 0.0
C1426 C 0.72154 0.3671 0.41806 0.0
C1427 C 0.71063 0.37075 0.40091 0.0
C1428 C 0.72343 0.37201 0.38333 0.0
C1429 C 0.74677 0.36989 0.38293 0.0
C1430 C 0.64419 0.36555 0.3881 0.0
C1431 C 0.63871 0.37746 0.40249 0.0
C1432 C 0.66757 0.36351 0.38751 0.0
C1433 C 0.68596 0.37322 0.40135 0.0
C1434 C 0.6806 0.38522 0.41566 0.0
C1435 C 0.65726 0.38737 0.4162 0.0
H1436 H 0.24424 0.84522 0.92701 0.0
H1437 H 0.27184 0.80846 0.964 0.0
H1438 H 0.20202 0.81974 0.92942 0.0
H1439 H 0.23001 0.78336 0.96652 0.0
H1440 H 0.15516 0.75255 0.90887 0.0
H1441 H 0.18639 0.78597 0.9147 0.0
H1442 H 0.18608 0.77229 0.97566 0.0
H1443 H 0.15464 0.7386 0.96976 0.0
C1444 C 0.24124 0.83195 0.93598 0.0
C1445 C 0.26152 0.82873 0.94504 0.0
C1446 C 0.21706 0.8174 0.9374 0.0
C1447 C 0.2127 0.79941 0.94797 0.0
C1448 C 0.23259 0.79713 0.95843 0.0
C1449 C 0.25671 0.81159 0.95697 0.0
C1450 C 0.16097 0.75691 0.92364 0.0
C1451 C 0.15276 0.74278 0.93881 0.0
C1452 C 0.17892 0.77615 0.92701 0.0
C1453 C 0.18904 0.78168 0.94561 0.0
C1454 C 0.17898 0.76831 0.9611 0.0
C1455 C 0.16101 0.74903 0.95773 0.0
H1456 H 0.51628 0.17824 0.44164 0.0
H1457 H 0.54846 0.2106 0.38928 0.0
H1458 H 0.49046 0.19904 0.4451 0.0
H1459 H 0.52365 0.23202 0.39326 0.0
H1460 H 0.46713 0.26041 0.39569 0.0
H1461 H 0.48185 0.23235 0.39201 0.0
H1462 H 0.49644 0.23364 0.45343 0.0
H1463 H 0.48043 0.26108 0.45732 0.0
C1464 C 0.51775 0.18971 0.4308 0.0
C1465 C 0.53451 0.1928 0.4152 0.0
C1466 C 0.50309 0.20174 0.43289 0.0
C1467 C 0.5049 0.21715 0.41944 0.0
C1468 C 0.52144 0.22005 0.40372 0.0
C1469 C 0.53601 0.208 0.4016 0.0
C1470 C 0.47256 0.25428 0.40857 0.0
C1471 C 0.47302 0.26332 0.42679 0.0
C1472 C 0.48141 0.23835 0.40638 0.0
C1473 C 0.49098 0.23113 0.42232 0.0
C1474 C 0.48931 0.23888 0.4408 0.0
C1475 C 0.4803 0.25475 0.44302 0.0
H1476 H 0.2315 0.61097 0.9278 0.0
H1477 H 0.23807 0.62457 0.86665 0.0
H1478 H 0.27211 0.60703 0.92728 0.0
H1479 H 0.27823 0.61984 0.86597 0.0
H1480 H 0.36207 0.6345 0.87844 0.0
H1481 H 0.32069 0.63694 0.87764 0.0
H1482 H 0.29248 0.58449 0.91505 0.0
H1483 H 0.33397 0.58209 0.91589 0.0
C1484 C 0.24161 0.61311 0.91425 0.0
C1485 C 0.23158 0.61813 0.89728 0.0
C1486 C 0.26474 0.6106 0.91389 0.0
C1487 C 0.27839 0.61307 0.89657 0.0
C1488 C 0.2683 0.618 0.87958 0.0
C1489 C 0.24516 0.6205 0.87993 0.0
C1490 C 0.34695 0.62329 0.88624 0.0
C1491 C 0.35131 0.60811 0.89724 0.0
C1492 C 0.32323 0.6247 0.8858 0.0
C1493 C 0.3033 0.61096 0.89634 0.0
C1494 C 0.30754 0.59553 0.90704 0.0
C1495 C 0.33129 0.59413 0.90749 0.0
H1496 H 0.75907 0.15233 0.41111 0.0
H1497 H 0.73564 0.18375 0.45649 0.0
H1498 H 0.80184 0.1768 0.41389 0.0
H1499 H 0.77814 0.20805 0.45926 0.0
H1500 H 0.84731 0.24573 0.39969 0.0
H1501 H 0.81588 0.21228 0.40335 0.0
H1502 H 0.82341 0.21753 0.4655 0.0
H1503 H 0.85573 0.25128 0.46186 0.0
C1504 C 0.76316 0.1642 0.42194 0.0
C1505 C 0.7439 0.16635 0.43332 0.0
C1506 C 0.78764 0.17815 0.42358 0.0
C1507 C 0.79329 0.19451 0.43661 0.0
C1508 C 0.7745 0.19552 0.44921 0.0
C1509 C 0.75004 0.18158 0.44757 0.0
C1510 C 0.84324 0.23956 0.41416 0.0
C1511 C 0.85393 0.25143 0.4305 0.0
C1512 C 0.82505 0.22024 0.41626 0.0
C1513 C 0.81692 0.21232 0.43473 0.0
C1514 C 0.82906 0.22339 0.45108 0.0
C1515 C 0.84749 0.24273 0.44897 0.0
H1516 H 0.52273 0.73147 0.91411 0.0
H1517 H 0.50887 0.71961 0.97517 0.0
H1518 H 0.51199 0.76162 0.91699 0.0
H1519 H 0.4981 0.75007 0.9781 0.0
H1520 H 0.44071 0.78178 0.96446 0.0
H1521 H 0.46192 0.75749 0.96701 0.0
H1522 H 0.52104 0.79533 0.92986 0.0
H1523 H 0.49923 0.81911 0.92654 0.0
C1524 C 0.51825 0.73569 0.92831 0.0
C1525 C 0.51652 0.72306 0.9444 0.0
C1526 C 0.51202 0.75302 0.92997 0.0
C1527 C 0.50393 0.75816 0.94775 0.0
C1528 C 0.50384 0.74631 0.96414 0.0
C1529 C 0.51007 0.72892 0.96247 0.0
C1530 C 0.45829 0.78496 0.95691 0.0
C1531 C 0.46807 0.80226 0.9451 0.0
C1532 C 0.47065 0.77118 0.95859 0.0
C1533 C 0.49312 0.77441 0.94854 0.0
C1534 C 0.50361 0.79228 0.9376 0.0
C1535 C 0.49121 0.80602 0.93587 0.0
loop_
_geom_bond_atom_site_label_1
_geom_bond_atom_site_label_2
_geom_bond_distance
_geom_bond_site_symmetry_2
_ccdc_geom_bond_type
Li0 N17 1.990 . S
Li0 O60 1.956 . S
Li0 O61 1.970 . S
Li0 O62 1.961 . S
Li1 N25 1.990 . S
Li1 O60 1.970 . S
Li1 O61 1.956 . S
Li1 O63 1.961 . S
Li2 N47 1.990 . S
Li2 O60 1.961 . S
Li2 O62 1.956 . S
Li2 O63 1.970 . S
Li3 N53 1.990 . S
Li3 O61 1.961 . S
Li3 O62 1.970 . S
Li3 O63 1.956 . S
C4 C6 1.348 . S
C4 C7 1.356 . S
C4 O60 1.325 . S
N5 C8 1.314 . S
N5 C9 1.279 . S
C6 C4 1.348 . S
C6 C8 1.353 . S
C6 H64 0.929 . S
C7 C4 1.356 . S
C7 C9 1.358 . S
C7 H65 0.930 . S
C8 N5 1.314 . S
C8 C6 1.353 . S
C8 H66 0.930 . S
C9 N5 1.279 . S
C9 C7 1.358 . S
C9 H67 0.930 . S
C10 C13 1.348 . S
C10 C14 1.356 . S
C10 O61 1.325 . S
C11 N12 1.279 . S
C11 C14 1.358 . S
C11 H68 0.930 . S
N12 C11 1.279 . S
N12 C15 1.314 . S
C13 C10 1.348 . S
C13 C15 1.353 . S
C13 H69 0.929 . S
C14 C10 1.356 . S
C14 C11 1.358 . S
C14 H70 0.930 . S
C15 N12 1.314 . S
C15 C13 1.353 . S
C15 H71 0.930 . S
C16 N17 1.314 . S
C16 C21 1.353 . S
C16 H22 0.930 . S
N17 Li0 1.990 . S
N17 C16 1.314 . S
N17 C19 1.279 . S
C18 C19 1.358 . S
C18 C20 1.356 . S
C18 H72 0.930 . S
C19 N17 1.279 . S
C19 C18 1.358 . S
C19 H23 0.930 . S
C20 C18 1.356 . S
C20 C21 1.348 . S
C21 C16 1.353 . S
C21 C20 1.348 . S
C21 H73 0.929 . S
H22 C16 0.930 . S
H23 C19 0.930 . S
C24 N25 1.314 . S
C24 C26 1.353 . S
C24 H30 0.930 . S
N25 Li1 1.990 . S
N25 C24 1.314 . S
N25 C28 1.279 . S
C26 C24 1.353 . S
C26 C29 1.348 . S
C26 H74 0.929 . S
C27 C28 1.358 . S
C27 C29 1.356 . S
C27 H75 0.930 . S
C28 N25 1.279 . S
C28 C27 1.358 . S
C28 H31 0.930 . S
C29 C26 1.348 . S
C29 C27 1.356 . S
H30 C24 0.930 . S
H31 C28 0.930 . S
C32 C34 1.348 . S
C32 C35 1.356 . S
C32 O62 1.325 . S
N33 C36 1.314 . S
N33 C37 1.279 . S
C34 C32 1.348 . S
C34 C36 1.353 . S
C34 H76 0.929 . S
C35 C32 1.356 . S
C35 C37 1.358 . S
C35 H77 0.930 . S
C36 N33 1.314 . S
C36 C34 1.353 . S
C36 H78 0.930 . S
C37 N33 1.279 . S
C37 C35 1.358 . S
C37 H79 0.930 . S
C38 C39 1.348 . S
C38 C40 1.356 . S
C38 O63 1.325 . S
C39 C38 1.348 . S
C39 C41 1.353 . S
C39 H80 0.929 . S
C40 C38 1.356 . S
C40 C42 1.358 . S
C40 H81 0.930 . S
C41 C39 1.353 . S
C41 N43 1.314 . S
C41 H82 0.930 . S
C42 C40 1.358 . S
C42 N43 1.279 . S
C42 H83 0.930 . S
N43 C41 1.314 . S
N43 C42 1.279 . S
C44 C46 1.353 . S
C44 N47 1.314 . S
C44 H50 0.930 . S
C45 N47 1.279 . S
C45 C48 1.358 . S
C45 H51 0.930 . S
C46 C44 1.353 . S
C46 C49 1.348 . S
C46 H84 0.929 . S
N47 Li2 1.990 . S
N47 C44 1.314 . S
N47 C45 1.279 . S
C48 C45 1.358 . S
C48 C49 1.356 . S
C48 H85 0.930 . S
C49 C46 1.348 . S
C49 C48 1.356 . S
H50 C44 0.930 . S
H51 C45 0.930 . S
C52 N53 1.314 . S
C52 C54 1.353 . S
C52 H58 0.930 . S
N53 Li3 1.990 . S
N53 C52 1.314 . S
N53 C56 1.279 . S
C54 C52 1.353 . S
C54 C57 1.348 . S
C54 H86 0.929 . S
C55 C56 1.358 . S
C55 C57 1.356 . S
C55 H87 0.930 . S
C56 N53 1.279 . S
C56 C55 1.358 . S
C56 H59 0.930 . S
C57 C54 1.348 . S
C57 C55 1.356 . S
H58 C52 0.930 . S
H59 C56 0.930 . S
O60 Li0 1.956 . S
O60 Li1 1.970 . S
O60 Li2 1.961 . S
O60 C4 1.325 . S
O61 Li0 1.970 . S
O61 Li1 1.956 . S
O61 Li3 1.961 . S
O61 C10 1.325 . S
O62 Li0 1.961 . S
O62 Li2 1.956 . S
O62 Li3 1.970 . S
O62 C32 1.325 . S
O63 Li1 1.961 . S
O63 Li2 1.970 . S
O63 Li3 1.956 . S
O63 C38 1.325 . S
H64 C6 0.929 . S
H65 C7 0.930 . S
H66 C8 0.930 . S
H67 C9 0.930 . S
H68 C11 0.930 . S
H69 C13 0.929 . S
H70 C14 0.930 . S
H71 C15 0.930 . S
H72 C18 0.930 . S
H73 C21 0.929 . S
H74 C26 0.929 . S
H75 C27 0.930 . S
H76 C34 0.929 . S
H77 C35 0.930 . S
H78 C36 0.930 . S
H79 C37 0.930 . S
H80 C39 0.929 . S
H81 C40 0.930 . S
H82 C41 0.930 . S
H83 C42 0.930 . S
H84 C46 0.929 . S
H85 C48 0.930 . S
H86 C54 0.929 . S
H87 C55 0.930 . S
Li88 N105 1.990 . S
Li88 O148 1.956 . S
Li88 O149 1.970 . S
Li88 O150 1.961 . S
Li89 N113 1.990 . S
Li89 O148 1.970 . S
Li89 O149 1.956 . S
Li89 O151 1.961 . S
Li90 N135 1.990 . S
Li90 O148 1.961 . S
Li90 O150 1.956 . S
Li90 O151 1.970 . S
Li91 N141 1.990 . S
Li91 O149 1.961 . S
Li91 O150 1.970 . S
Li91 O151 1.956 . S
C92 C94 1.348 . S
C92 C95 1.356 . S
C92 O148 1.325 . S
N93 C96 1.314 . S
N93 C97 1.279 . S
C94 C92 1.348 . S
C94 C96 1.353 . S
C94 H152 0.929 . S
C95 C92 1.356 . S
C95 C97 1.358 . S
C95 H153 0.930 . S
C96 N93 1.314 . S
C96 C94 1.353 . S
C96 H154 0.930 . S
C97 N93 1.279 . S
C97 C95 1.358 . S
C97 H155 0.930 . S
C98 C101 1.348 . S
C98 C102 1.356 . S
C98 O149 1.325 . S
C99 N100 1.279 . S
C99 C102 1.358 . S
C99 H156 0.930 . S
N100 C99 1.279 . S
N100 C103 1.314 . S
C101 C98 1.348 . S
C101 C103 1.353 . S
C101 H157 0.929 . S
C102 C98 1.356 . S
C102 C99 1.358 . S
C102 H158 0.930 . S
C103 N100 1.314 . S
C103 C101 1.353 . S
C103 H159 0.930 . S
C104 N105 1.314 . S
C104 C109 1.353 . S
C104 H110 0.930 . S
N105 Li88 1.990 . S
N105 C104 1.314 . S
N105 C107 1.279 . S
C106 C107 1.358 . S
C106 C108 1.356 . S
C106 H160 0.930 . S
C107 N105 1.279 . S
C107 C106 1.358 . S
C107 H111 0.930 . S
C108 C106 1.356 . S
C108 C109 1.348 . S
C109 C104 1.353 . S
C109 C108 1.348 . S
C109 H161 0.929 . S
H110 C104 0.930 . S
H111 C107 0.930 . S
C112 N113 1.314 . S
C112 C114 1.353 . S
C112 H118 0.930 . S
N113 Li89 1.990 . S
N113 C112 1.314 . S
N113 C116 1.279 . S
C114 C112 1.353 . S
C114 C117 1.348 . S
C114 H162 0.929 . S
C115 C116 1.358 . S
C115 C117 1.356 . S
C115 H163 0.930 . S
C116 N113 1.279 . S
C116 C115 1.358 . S
C116 H119 0.930 . S
C117 C114 1.348 . S
C117 C115 1.356 . S
H118 C112 0.930 . S
H119 C116 0.930 . S
C120 C122 1.348 . S
C120 C123 1.356 . S
C120 O150 1.325 . S
N121 C124 1.314 . S
N121 C125 1.279 . S
C122 C120 1.348 . S
C122 C124 1.353 . S
C122 H164 0.929 . S
C123 C120 1.356 . S
C123 C125 1.358 . S
C123 H165 0.930 . S
C124 N121 1.314 . S
C124 C122 1.353 . S
C124 H166 0.930 . S
C125 N121 1.279 . S
C125 C123 1.358 . S
C125 H167 0.930 . S
C126 C127 1.348 . S
C126 C128 1.356 . S
C126 O151 1.325 . S
C127 C126 1.348 . S
C127 C129 1.353 . S
C127 H168 0.929 . S
C128 C126 1.356 . S
C128 C130 1.358 . S
C128 H169 0.930 . S
C129 C127 1.353 . S
C129 N131 1.314 . S
C129 H170 0.930 . S
C130 C128 1.358 . S
C130 N131 1.279 . S
C130 H171 0.930 . S
N131 C129 1.314 . S
N131 C130 1.279 . S
C132 C134 1.353 . S
C132 N135 1.314 . S
C132 H138 0.930 . S
C133 N135 1.279 . S
C133 C136 1.358 . S
C133 H139 0.930 . S
C134 C132 1.353 . S
C134 C137 1.348 . S
C134 H172 0.929 . S
N135 Li90 1.990 . S
N135 C132 1.314 . S
N135 C133 1.279 . S
C136 C133 1.358 . S
C136 C137 1.356 . S
C136 H173 0.930 . S
C137 C134 1.348 . S
C137 C136 1.356 . S
H138 C132 0.930 . S
H139 C133 0.930 . S
C140 N141 1.314 . S
C140 C142 1.353 . S
C140 H146 0.930 . S
N141 Li91 1.990 . S
N141 C140 1.314 . S
N141 C144 1.279 . S
C142 C140 1.353 . S
C142 C145 1.348 . S
C142 H174 0.929 . S
C143 C144 1.358 . S
C143 C145 1.356 . S
C143 H175 0.930 . S
C144 N141 1.279 . S
C144 C143 1.358 . S
C144 H147 0.930 . S
C145 C142 1.348 . S
C145 C143 1.356 . S
H146 C140 0.930 . S
H147 C144 0.930 . S
O148 Li88 1.956 . S
O148 Li89 1.970 . S
O148 Li90 1.961 . S
O148 C92 1.325 . S
O149 Li88 1.970 . S
O149 Li89 1.956 . S
O149 Li91 1.961 . S
O149 C98 1.325 . S
O150 Li88 1.961 . S
O150 Li90 1.956 . S
O150 Li91 1.970 . S
O150 C120 1.325 . S
O151 Li89 1.961 . S
O151 Li90 1.970 . S
O151 Li91 1.956 . S
O151 C126 1.325 . S
H152 C94 0.929 . S
H153 C95 0.930 . S
H154 C96 0.930 . S
H155 C97 0.930 . S
H156 C99 0.930 . S
H157 C101 0.929 . S
H158 C102 0.930 . S
H159 C103 0.930 . S
H160 C106 0.930 . S
H161 C109 0.929 . S
H162 C114 0.929 . S
H163 C115 0.930 . S
H164 C122 0.929 . S
H165 C123 0.930 . S
H166 C124 0.930 . S
H167 C125 0.930 . S
H168 C127 0.929 . S
H169 C128 0.930 . S
H170 C129 0.930 . S
H171 C130 0.930 . S
H172 C134 0.929 . S
H173 C136 0.930 . S
H174 C142 0.929 . S
H175 C143 0.930 . S
Li176 N193 1.990 . S
Li176 O236 1.956 . S
Li176 O237 1.970 . S
Li176 O238 1.961 . S
Li177 N201 1.990 . S
Li177 O236 1.970 . S
Li177 O237 1.956 . S
Li177 O239 1.961 . S
Li178 N223 1.990 . S
Li178 O236 1.961 . S
Li178 O238 1.956 . S
Li178 O239 1.970 . S
Li179 N229 1.990 . S
Li179 O237 1.961 . S
Li179 O238 1.970 . S
Li179 O239 1.956 . S
C180 C182 1.348 . S
C180 C183 1.356 . S
C180 O236 1.325 . S
N181 C184 1.314 . S
N181 C185 1.279 . S
C182 C180 1.348 . S
C182 C184 1.353 . S
C182 H240 0.929 . S
C183 C180 1.356 . S
C183 C185 1.358 . S
C183 H241 0.930 . S
C184 N181 1.314 . S
C184 C182 1.353 . S
C184 H242 0.930 . S
C185 N181 1.279 . S
C185 C183 1.358 . S
C185 H243 0.930 . S
C186 C189 1.348 . S
C186 C190 1.356 . S
C186 O237 1.325 . S
C187 N188 1.279 . S
C187 C190 1.358 . S
C187 H244 0.930 . S
N188 C187 1.279 . S
N188 C191 1.314 . S
C189 C186 1.348 . S
C189 C191 1.353 . S
C189 H245 0.929 . S
C190 C186 1.356 . S
C190 C187 1.358 . S
C190 H246 0.930 . S
C191 N188 1.314 . S
C191 C189 1.353 . S
C191 H247 0.930 . S
C192 N193 1.314 . S
C192 C197 1.353 . S
C192 H198 0.930 . S
N193 Li176 1.990 . S
N193 C192 1.314 . S
N193 C195 1.279 . S
C194 C195 1.358 . S
C194 C196 1.356 . S
C194 H248 0.930 . S
C195 N193 1.279 . S
C195 C194 1.358 . S
C195 H199 0.930 . S
C196 C194 1.356 . S
C196 C197 1.348 . S
C197 C192 1.353 . S
C197 C196 1.348 . S
C197 H249 0.929 . S
H198 C192 0.930 . S
H199 C195 0.930 . S
C200 N201 1.314 . S
C200 C202 1.353 . S
C200 H206 0.930 . S
N201 Li177 1.990 . S
N201 C200 1.314 . S
N201 C204 1.279 . S
C202 C200 1.353 . S
C202 C205 1.348 . S
C202 H250 0.929 . S
C203 C204 1.358 . S
C203 C205 1.356 . S
C203 H251 0.930 . S
C204 N201 1.279 . S
C204 C203 1.358 . S
C204 H207 0.930 . S
C205 C202 1.348 . S
C205 C203 1.356 . S
H206 C200 0.930 . S
H207 C204 0.930 . S
C208 C210 1.348 . S
C208 C211 1.356 . S
C208 O238 1.325 . S
N209 C212 1.314 . S
N209 C213 1.279 . S
C210 C208 1.348 . S
C210 C212 1.353 . S
C210 H252 0.929 . S
C211 C208 1.356 . S
C211 C213 1.358 . S
C211 H253 0.930 . S
C212 N209 1.314 . S
C212 C210 1.353 . S
C212 H254 0.930 . S
C213 N209 1.279 . S
C213 C211 1.358 . S
C213 H255 0.930 . S
C214 C215 1.348 . S
C214 C216 1.356 . S
C214 O239 1.325 . S
C215 C214 1.348 . S
C215 C217 1.353 . S
C215 H256 0.929 . S
C216 C214 1.356 . S
C216 C218 1.358 . S
C216 H257 0.930 . S
C217 C215 1.353 . S
C217 N219 1.314 . S
C217 H258 0.930 . S
C218 C216 1.358 . S
C218 N219 1.279 . S
C218 H259 0.930 . S
N219 C217 1.314 . S
N219 C218 1.279 . S
C220 C222 1.353 . S
C220 N223 1.314 . S
C220 H226 0.930 . S
C221 N223 1.279 . S
C221 C224 1.358 . S
C221 H227 0.930 . S
C222 C220 1.353 . S
C222 C225 1.348 . S
C222 H260 0.929 . S
N223 Li178 1.990 . S
N223 C220 1.314 . S
N223 C221 1.279 . S
C224 C221 1.358 . S
C224 C225 1.356 . S
C224 H261 0.930 . S
C225 C222 1.348 . S
C225 C224 1.356 . S
H226 C220 0.930 . S
H227 C221 0.930 . S
C228 N229 1.314 . S
C228 C230 1.353 . S
C228 H234 0.930 . S
N229 Li179 1.990 . S
N229 C228 1.314 . S
N229 C232 1.279 . S
C230 C228 1.353 . S
C230 C233 1.348 . S
C230 H262 0.929 . S
C231 C232 1.358 . S
C231 C233 1.356 . S
C231 H263 0.930 . S
C232 N229 1.279 . S
C232 C231 1.358 . S
C232 H235 0.930 . S
C233 C230 1.348 . S
C233 C231 1.356 . S
H234 C228 0.930 . S
H235 C232 0.930 . S
O236 Li176 1.956 . S
O236 Li177 1.970 . S
O236 Li178 1.961 . S
O236 C180 1.325 . S
O237 Li176 1.970 . S
O237 Li177 1.956 . S
O237 Li179 1.961 . S
O237 C186 1.325 . S
O238 Li176 1.961 . S
O238 Li178 1.956 . S
O238 Li179 1.970 . S
O238 C208 1.325 . S
O239 Li177 1.961 . S
O239 Li178 1.970 . S
O239 Li179 1.956 . S
O239 C214 1.325 . S
H240 C182 0.929 . S
H241 C183 0.930 . S
H242 C184 0.930 . S
H243 C185 0.930 . S
H244 C187 0.930 . S
H245 C189 0.929 . S
H246 C190 0.930 . S
H247 C191 0.930 . S
H248 C194 0.930 . S
H249 C197 0.929 . S
H250 C202 0.929 . S
H251 C203 0.930 . S
H252 C210 0.929 . S
H253 C211 0.930 . S
H254 C212 0.930 . S
H255 C213 0.930 . S
H256 C215 0.929 . S
H257 C216 0.930 . S
H258 C217 0.930 . S
H259 C218 0.930 . S
H260 C222 0.929 . S
H261 C224 0.930 . S
H262 C230 0.929 . S
H263 C231 0.930 . S
Li264 N281 1.990 . S
Li264 O324 1.956 . S
Li264 O325 1.970 . S
Li264 O326 1.961 . S
Li265 N289 1.990 . S
Li265 O324 1.970 . S
Li265 O325 1.956 . S
Li265 O327 1.961 . S
Li266 N311 1.990 . S
Li266 O324 1.961 . S
Li266 O326 1.956 . S
Li266 O327 1.970 . S
Li267 N317 1.990 . S
Li267 O325 1.961 . S
Li267 O326 1.970 . S
Li267 O327 1.956 . S
C268 C270 1.348 . S
C268 C271 1.356 . S
C268 O324 1.325 . S
N269 C272 1.314 . S
N269 C273 1.279 . S
C270 C268 1.348 . S
C270 C272 1.353 . S
C270 H328 0.929 . S
C271 C268 1.356 . S
C271 C273 1.358 . S
C271 H329 0.930 . S
C272 N269 1.314 . S
C272 C270 1.353 . S
C272 H330 0.930 . S
C273 N269 1.279 . S
C273 C271 1.358 . S
C273 H331 0.930 . S
C274 C277 1.348 . S
C274 C278 1.356 . S
C274 O325 1.325 . S
C275 N276 1.279 . S
C275 C278 1.358 . S
C275 H332 0.930 . S
N276 C275 1.279 . S
N276 C279 1.314 . S
C277 C274 1.348 . S
C277 C279 1.353 . S
C277 H333 0.929 . S
C278 C274 1.356 . S
C278 C275 1.358 . S
C278 H334 0.930 . S
C279 N276 1.314 . S
C279 C277 1.353 . S
C279 H335 0.930 . S
C280 N281 1.314 . S
C280 C285 1.353 . S
C280 H286 0.930 . S
N281 Li264 1.990 . S
N281 C280 1.314 . S
N281 C283 1.279 . S
C282 C283 1.358 . S
C282 C284 1.356 . S
C282 H336 0.930 . S
C283 N281 1.279 . S
C283 C282 1.358 . S
C283 H287 0.930 . S
C284 C282 1.356 . S
C284 C285 1.348 . S
C285 C280 1.353 . S
C285 C284 1.348 . S
C285 H337 0.929 . S
H286 C280 0.930 . S
H287 C283 0.930 . S
C288 N289 1.314 . S
C288 C290 1.353 . S
C288 H294 0.930 . S
N289 Li265 1.990 . S
N289 C288 1.314 . S
N289 C292 1.279 . S
C290 C288 1.353 . S
C290 C293 1.348 . S
C290 H338 0.929 . S
C291 C292 1.358 . S
C291 C293 1.356 . S
C291 H339 0.930 . S
C292 N289 1.279 . S
C292 C291 1.358 . S
C292 H295 0.930 . S
C293 C290 1.348 . S
C293 C291 1.356 . S
H294 C288 0.930 . S
H295 C292 0.930 . S
C296 C298 1.348 . S
C296 C299 1.356 . S
C296 O326 1.325 . S
N297 C300 1.314 . S
N297 C301 1.279 . S
C298 C296 1.348 . S
C298 C300 1.353 . S
C298 H340 0.929 . S
C299 C296 1.356 . S
C299 C301 1.358 . S
C299 H341 0.930 . S
C300 N297 1.314 . S
C300 C298 1.353 . S
C300 H342 0.930 . S
C301 N297 1.279 . S
C301 C299 1.358 . S
C301 H343 0.930 . S
C302 C303 1.348 . S
C302 C304 1.356 . S
C302 O327 1.325 . S
C303 C302 1.348 . S
C303 C305 1.353 . S
C303 H344 0.929 . S
C304 C302 1.356 . S
C304 C306 1.358 . S
C304 H345 0.930 . S
C305 C303 1.353 . S
C305 N307 1.314 . S
C305 H346 0.930 . S
C306 C304 1.358 . S
C306 N307 1.279 . S
C306 H347 0.930 . S
N307 C305 1.314 . S
N307 C306 1.279 . S
C308 C310 1.353 . S
C308 N311 1.314 . S
C308 H314 0.930 . S
C309 N311 1.279 . S
C309 C312 1.358 . S
C309 H315 0.930 . S
C310 C308 1.353 . S
C310 C313 1.348 . S
C310 H348 0.929 . S
N311 Li266 1.990 . S
N311 C308 1.314 . S
N311 C309 1.279 . S
C312 C309 1.358 . S
C312 C313 1.356 . S
C312 H349 0.930 . S
C313 C310 1.348 . S
C313 C312 1.356 . S
H314 C308 0.930 . S
H315 C309 0.930 . S
C316 N317 1.314 . S
C316 C318 1.353 . S
C316 H322 0.930 . S
N317 Li267 1.990 . S
N317 C316 1.314 . S
N317 C320 1.279 . S
C318 C316 1.353 . S
C318 C321 1.348 . S
C318 H350 0.929 . S
C319 C320 1.358 . S
C319 C321 1.356 . S
C319 H351 0.930 . S
C320 N317 1.279 . S
C320 C319 1.358 . S
C320 H323 0.930 . S
C321 C318 1.348 . S
C321 C319 1.356 . S
H322 C316 0.930 . S
H323 C320 0.930 . S
O324 Li264 1.956 . S
O324 Li265 1.970 . S
O324 Li266 1.961 . S
O324 C268 1.325 . S
O325 Li264 1.970 . S
O325 Li265 1.956 . S
O325 Li267 1.961 . S
O325 C274 1.325 . S
O326 Li264 1.961 . S
O326 Li266 1.956 . S
O326 Li267 1.970 . S
O326 C296 1.325 . S
O327 Li265 1.961 . S
O327 Li266 1.970 . S
O327 Li267 1.956 . S
O327 C302 1.325 . S
H328 C270 0.929 . S
H329 C271 0.930 . S
H330 C272 0.930 . S
H331 C273 0.930 . S
H332 C275 0.930 . S
H333 C277 0.929 . S
H334 C278 0.930 . S
H335 C279 0.930 . S
H336 C282 0.930 . S
H337 C285 0.929 . S
H338 C290 0.929 . S
H339 C291 0.930 . S
H340 C298 0.929 . S
H341 C299 0.930 . S
H342 C300 0.930 . S
H343 C301 0.930 . S
H344 C303 0.929 . S
H345 C304 0.930 . S
H346 C305 0.930 . S
H347 C306 0.930 . S
H348 C310 0.929 . S
H349 C312 0.930 . S
H350 C318 0.929 . S
H351 C319 0.930 . S
Li352 N369 1.990 . S
Li352 O412 1.956 . S
Li352 O413 1.970 . S
Li352 O414 1.961 . S
Li353 N377 1.990 . S
Li353 O412 1.970 . S
Li353 O413 1.956 . S
Li353 O415 1.961 . S
Li354 N399 1.990 . S
Li354 O412 1.961 . S
Li354 O414 1.956 . S
Li354 O415 1.970 . S
Li355 N405 1.990 . S
Li355 O413 1.961 . S
Li355 O414 1.970 . S
Li355 O415 1.956 . S
C356 C358 1.348 . S
C356 C359 1.356 . S
C356 O412 1.325 . S
N357 C360 1.314 . S
N357 C361 1.279 . S
C358 C356 1.348 . S
C358 C360 1.353 . S
C358 H416 0.929 . S
C359 C356 1.356 . S
C359 C361 1.358 . S
C359 H417 0.930 . S
C360 N357 1.314 . S
C360 C358 1.353 . S
C360 H418 0.930 . S
C361 N357 1.279 . S
C361 C359 1.358 . S
C361 H419 0.930 . S
C362 C365 1.348 . S
C362 C366 1.356 . S
C362 O413 1.325 . S
C363 N364 1.279 . S
C363 C366 1.358 . S
C363 H420 0.930 . S
N364 C363 1.279 . S
N364 C367 1.314 . S
C365 C362 1.348 . S
C365 C367 1.353 . S
C365 H421 0.929 . S
C366 C362 1.356 . S
C366 C363 1.358 . S
C366 H422 0.930 . S
C367 N364 1.314 . S
C367 C365 1.353 . S
C367 H423 0.930 . S
C368 N369 1.314 . S
C368 C373 1.353 . S
C368 H374 0.930 . S
N369 Li352 1.990 . S
N369 C368 1.314 . S
N369 C371 1.279 . S
C370 C371 1.358 . S
C370 C372 1.356 . S
C370 H424 0.930 . S
C371 N369 1.279 . S
C371 C370 1.358 . S
C371 H375 0.930 . S
C372 C370 1.356 . S
C372 C373 1.348 . S
C373 C368 1.353 . S
C373 C372 1.348 . S
C373 H425 0.929 . S
H374 C368 0.930 . S
H375 C371 0.930 . S
C376 N377 1.314 . S
C376 C378 1.353 . S
C376 H382 0.930 . S
N377 Li353 1.990 . S
N377 C376 1.314 . S
N377 C380 1.279 . S
C378 C376 1.353 . S
C378 C381 1.348 . S
C378 H426 0.929 . S
C379 C380 1.358 . S
C379 C381 1.356 . S
C379 H427 0.930 . S
C380 N377 1.279 . S
C380 C379 1.358 . S
C380 H383 0.930 . S
C381 C378 1.348 . S
C381 C379 1.356 . S
H382 C376 0.930 . S
H383 C380 0.930 . S
C384 C386 1.348 . S
C384 C387 1.356 . S
C384 O414 1.325 . S
N385 C388 1.314 . S
N385 C389 1.279 . S
C386 C384 1.348 . S
C386 C388 1.353 . S
C386 H428 0.929 . S
C387 C384 1.356 . S
C387 C389 1.358 . S
C387 H429 0.930 . S
C388 N385 1.314 . S
C388 C386 1.353 . S
C388 H430 0.930 . S
C389 N385 1.279 . S
C389 C387 1.358 . S
C389 H431 0.930 . S
C390 C391 1.348 . S
C390 C392 1.356 . S
C390 O415 1.325 . S
C391 C390 1.348 . S
C391 C393 1.353 . S
C391 H432 0.929 . S
C392 C390 1.356 . S
C392 C394 1.358 . S
C392 H433 0.930 . S
C393 C391 1.353 . S
C393 N395 1.314 . S
C393 H434 0.930 . S
C394 C392 1.358 . S
C394 N395 1.279 . S
C394 H435 0.930 . S
N395 C393 1.314 . S
N395 C394 1.279 . S
C396 C398 1.353 . S
C396 N399 1.314 . S
C396 H402 0.930 . S
C397 N399 1.279 . S
C397 C400 1.358 . S
C397 H403 0.930 . S
C398 C396 1.353 . S
C398 C401 1.348 . S
C398 H436 0.929 . S
N399 Li354 1.990 . S
N399 C396 1.314 . S
N399 C397 1.279 . S
C400 C397 1.358 . S
C400 C401 1.356 . S
C400 H437 0.930 . S
C401 C398 1.348 . S
C401 C400 1.356 . S
H402 C396 0.930 . S
H403 C397 0.930 . S
C404 N405 1.314 . S
C404 C406 1.353 . S
C404 H410 0.930 . S
N405 Li355 1.990 . S
N405 C404 1.314 . S
N405 C408 1.279 . S
C406 C404 1.353 . S
C406 C409 1.348 . S
C406 H438 0.929 . S
C407 C408 1.358 . S
C407 C409 1.356 . S
C407 H439 0.930 . S
C408 N405 1.279 . S
C408 C407 1.358 . S
C408 H411 0.930 . S
C409 C406 1.348 . S
C409 C407 1.356 . S
H410 C404 0.930 . S
H411 C408 0.930 . S
O412 Li352 1.956 . S
O412 Li353 1.970 . S
O412 Li354 1.961 . S
O412 C356 1.325 . S
O413 Li352 1.970 . S
O413 Li353 1.956 . S
O413 Li355 1.961 . S
O413 C362 1.325 . S
O414 Li352 1.961 . S
O414 Li354 1.956 . S
O414 Li355 1.970 . S
O414 C384 1.325 . S
O415 Li353 1.961 . S
O415 Li354 1.970 . S
O415 Li355 1.956 . S
O415 C390 1.325 . S
H416 C358 0.929 . S
H417 C359 0.930 . S
H418 C360 0.930 . S
H419 C361 0.930 . S
H420 C363 0.930 . S
H421 C365 0.929 . S
H422 C366 0.930 . S
H423 C367 0.930 . S
H424 C370 0.930 . S
H425 C373 0.929 . S
H426 C378 0.929 . S
H427 C379 0.930 . S
H428 C386 0.929 . S
H429 C387 0.930 . S
H430 C388 0.930 . S
H431 C389 0.930 . S
H432 C391 0.929 . S
H433 C392 0.930 . S
H434 C393 0.930 . S
H435 C394 0.930 . S
H436 C398 0.929 . S
H437 C400 0.930 . S
H438 C406 0.929 . S
H439 C407 0.930 . S
Li440 N457 1.990 . S
Li440 O500 1.956 . S
Li440 O501 1.970 . S
Li440 O502 1.961 . S
Li441 N465 1.990 . S
Li441 O500 1.970 . S
Li441 O501 1.956 . S
Li441 O503 1.961 . S
Li442 N487 1.990 . S
Li442 O500 1.961 . S
Li442 O502 1.956 . S
Li442 O503 1.970 . S
Li443 N493 1.990 . S
Li443 O501 1.961 . S
Li443 O502 1.970 . S
Li443 O503 1.956 . S
C444 C446 1.348 . S
C444 C447 1.356 . S
C444 O500 1.325 . S
N445 C448 1.314 . S
N445 C449 1.279 . S
C446 C444 1.348 . S
C446 C448 1.353 . S
C446 H504 0.929 . S
C447 C444 1.356 . S
C447 C449 1.358 . S
C447 H505 0.930 . S
C448 N445 1.314 . S
C448 C446 1.353 . S
C448 H506 0.930 . S
C449 N445 1.279 . S
C449 C447 1.358 . S
C449 H507 0.930 . S
C450 C453 1.348 . S
C450 C454 1.356 . S
C450 O501 1.325 . S
C451 N452 1.279 . S
C451 C454 1.358 . S
C451 H508 0.930 . S
N452 C451 1.279 . S
N452 C455 1.314 . S
C453 C450 1.348 . S
C453 C455 1.353 . S
C453 H509 0.929 . S
C454 C450 1.356 . S
C454 C451 1.358 . S
C454 H510 0.930 . S
C455 N452 1.314 . S
C455 C453 1.353 . S
C455 H511 0.930 . S
C456 N457 1.314 . S
C456 C461 1.353 . S
C456 H462 0.930 . S
N457 Li440 1.990 . S
N457 C456 1.314 . S
N457 C459 1.279 . S
C458 C459 1.358 . S
C458 C460 1.356 . S
C458 H512 0.930 . S
C459 N457 1.279 . S
C459 C458 1.358 . S
C459 H463 0.930 . S
C460 C458 1.356 . S
C460 C461 1.348 . S
C461 C456 1.353 . S
C461 C460 1.348 . S
C461 H513 0.929 . S
H462 C456 0.930 . S
H463 C459 0.930 . S
C464 N465 1.314 . S
C464 C466 1.353 . S
C464 H470 0.930 . S
N465 Li441 1.990 . S
N465 C464 1.314 . S
N465 C468 1.279 . S
C466 C464 1.353 . S
C466 C469 1.348 . S
C466 H514 0.929 . S
C467 C468 1.358 . S
C467 C469 1.356 . S
C467 H515 0.930 . S
C468 N465 1.279 . S
C468 C467 1.358 . S
C468 H471 0.930 . S
C469 C466 1.348 . S
C469 C467 1.356 . S
H470 C464 0.930 . S
H471 C468 0.930 . S
C472 C474 1.348 . S
C472 C475 1.356 . S
C472 O502 1.325 . S
N473 C476 1.314 . S
N473 C477 1.279 . S
C474 C472 1.348 . S
C474 C476 1.353 . S
C474 H516 0.929 . S
C475 C472 1.356 . S
C475 C477 1.358 . S
C475 H517 0.930 . S
C476 N473 1.314 . S
C476 C474 1.353 . S
C476 H518 0.930 . S
C477 N473 1.279 . S
C477 C475 1.358 . S
C477 H519 0.930 . S
C478 C479 1.348 . S
C478 C480 1.356 . S
C478 O503 1.325 . S
C479 C478 1.348 . S
C479 C481 1.353 . S
C479 H520 0.929 . S
C480 C478 1.356 . S
C480 C482 1.358 . S
C480 H521 0.930 . S
C481 C479 1.353 . S
C481 N483 1.314 . S
C481 H522 0.930 . S
C482 C480 1.358 . S
C482 N483 1.279 . S
C482 H523 0.930 . S
N483 C481 1.314 . S
N483 C482 1.279 . S
C484 C486 1.353 . S
C484 N487 1.314 . S
C484 H490 0.930 . S
C485 N487 1.279 . S
C485 C488 1.358 . S
C485 H491 0.930 . S
C486 C484 1.353 . S
C486 C489 1.348 . S
C486 H524 0.929 . S
N487 Li442 1.990 . S
N487 C484 1.314 . S
N487 C485 1.279 . S
C488 C485 1.358 . S
C488 C489 1.356 . S
C488 H525 0.930 . S
C489 C486 1.348 . S
C489 C488 1.356 . S
H490 C484 0.930 . S
H491 C485 0.930 . S
C492 N493 1.314 . S
C492 C494 1.353 . S
C492 H498 0.930 . S
N493 Li443 1.990 . S
N493 C492 1.314 . S
N493 C496 1.279 . S
C494 C492 1.353 . S
C494 C497 1.348 . S
C494 H526 0.929 . S
C495 C496 1.358 . S
C495 C497 1.356 . S
C495 H527 0.930 . S
C496 N493 1.279 . S
C496 C495 1.358 . S
C496 H499 0.930 . S
C497 C494 1.348 . S
C497 C495 1.356 . S
H498 C492 0.930 . S
H499 C496 0.930 . S
O500 Li440 1.956 . S
O500 Li441 1.970 . S
O500 Li442 1.961 . S
O500 C444 1.325 . S
O501 Li440 1.970 . S
O501 Li441 1.956 . S
O501 Li443 1.961 . S
O501 C450 1.325 . S
O502 Li440 1.961 . S
O502 Li442 1.956 . S
O502 Li443 1.970 . S
O502 C472 1.325 . S
O503 Li441 1.961 . S
O503 Li442 1.970 . S
O503 Li443 1.956 . S
O503 C478 1.325 . S
H504 C446 0.929 . S
H505 C447 0.930 . S
H506 C448 0.930 . S
H507 C449 0.930 . S
H508 C451 0.930 . S
H509 C453 0.929 . S
H510 C454 0.930 . S
H511 C455 0.930 . S
H512 C458 0.930 . S
H513 C461 0.929 . S
H514 C466 0.929 . S
H515 C467 0.930 . S
H516 C474 0.929 . S
H517 C475 0.930 . S
H518 C476 0.930 . S
H519 C477 0.930 . S
H520 C479 0.929 . S
H521 C480 0.930 . S
H522 C481 0.930 . S
H523 C482 0.930 . S
H524 C486 0.929 . S
H525 C488 0.930 . S
H526 C494 0.929 . S
H527 C495 0.930 . S
Li528 N545 1.990 . S
Li528 O588 1.956 . S
Li528 O589 1.970 . S
Li528 O590 1.961 . S
Li529 N553 1.990 . S
Li529 O588 1.970 . S
Li529 O589 1.956 . S
Li529 O591 1.961 . S
Li530 N575 1.990 . S
Li530 O588 1.961 . S
Li530 O590 1.956 . S
Li530 O591 1.970 . S
Li531 N581 1.990 . S
Li531 O589 1.961 . S
Li531 O590 1.970 . S
Li531 O591 1.956 . S
C532 C534 1.348 . S
C532 C535 1.356 . S
C532 O588 1.325 . S
N533 C536 1.314 . S
N533 C537 1.279 . S
C534 C532 1.348 . S
C534 C536 1.353 . S
C534 H592 0.929 . S
C535 C532 1.356 . S
C535 C537 1.358 . S
C535 H593 0.930 . S
C536 N533 1.314 . S
C536 C534 1.353 . S
C536 H594 0.930 . S
C537 N533 1.279 . S
C537 C535 1.358 . S
C537 H595 0.930 . S
C538 C541 1.348 . S
C538 C542 1.356 . S
C538 O589 1.325 . S
C539 N540 1.279 . S
C539 C542 1.358 . S
C539 H596 0.930 . S
N540 C539 1.279 . S
N540 C543 1.314 . S
C541 C538 1.348 . S
C541 C543 1.353 . S
C541 H597 0.929 . S
C542 C538 1.356 . S
C542 C539 1.358 . S
C542 H598 0.930 . S
C543 N540 1.314 . S
C543 C541 1.353 . S
C543 H599 0.930 . S
C544 N545 1.314 . S
C544 C549 1.353 . S
C544 H550 0.930 . S
N545 Li528 1.990 . S
N545 C544 1.314 . S
N545 C547 1.279 . S
C546 C547 1.358 . S
C546 C548 1.356 . S
C546 H600 0.930 . S
C547 N545 1.279 . S
C547 C546 1.358 . S
C547 H551 0.930 . S
C548 C546 1.356 . S
C548 C549 1.348 . S
C549 C544 1.353 . S
C549 C548 1.348 . S
C549 H601 0.929 . S
H550 C544 0.930 . S
H551 C547 0.930 . S
C552 N553 1.314 . S
C552 C554 1.353 . S
C552 H558 0.930 . S
N553 Li529 1.990 . S
N553 C552 1.314 . S
N553 C556 1.279 . S
C554 C552 1.353 . S
C554 C557 1.348 . S
C554 H602 0.929 . S
C555 C556 1.358 . S
C555 C557 1.356 . S
C555 H603 0.930 . S
C556 N553 1.279 . S
C556 C555 1.358 . S
C556 H559 0.930 . S
C557 C554 1.348 . S
C557 C555 1.356 . S
H558 C552 0.930 . S
H559 C556 0.930 . S
C560 C562 1.348 . S
C560 C563 1.356 . S
C560 O590 1.325 . S
N561 C564 1.314 . S
N561 C565 1.279 . S
C562 C560 1.348 . S
C562 C564 1.353 . S
C562 H604 0.929 . S
C563 C560 1.356 . S
C563 C565 1.358 . S
C563 H605 0.930 . S
C564 N561 1.314 . S
C564 C562 1.353 . S
C564 H606 0.930 . S
C565 N561 1.279 . S
C565 C563 1.358 . S
C565 H607 0.930 . S
C566 C567 1.348 . S
C566 C568 1.356 . S
C566 O591 1.325 . S
C567 C566 1.348 . S
C567 C569 1.353 . S
C567 H608 0.929 . S
C568 C566 1.356 . S
C568 C570 1.358 . S
C568 H609 0.930 . S
C569 C567 1.353 . S
C569 N571 1.314 . S
C569 H610 0.930 . S
C570 C568 1.358 . S
C570 N571 1.279 . S
C570 H611 0.930 . S
N571 C569 1.314 . S
N571 C570 1.279 . S
C572 C574 1.353 . S
C572 N575 1.314 . S
C572 H578 0.930 . S
C573 N575 1.279 . S
C573 C576 1.358 . S
C573 H579 0.930 . S
C574 C572 1.353 . S
C574 C577 1.348 . S
C574 H612 0.929 . S
N575 Li530 1.990 . S
N575 C572 1.314 . S
N575 C573 1.279 . S
C576 C573 1.358 . S
C576 C577 1.356 . S
C576 H613 0.930 . S
C577 C574 1.348 . S
C577 C576 1.356 . S
H578 C572 0.930 . S
H579 C573 0.930 . S
C580 N581 1.314 . S
C580 C582 1.353 . S
C580 H586 0.930 . S
N581 Li531 1.990 . S
N581 C580 1.314 . S
N581 C584 1.279 . S
C582 C580 1.353 . S
C582 C585 1.348 . S
C582 H614 0.929 . S
C583 C584 1.358 . S
C583 C585 1.356 . S
C583 H615 0.930 . S
C584 N581 1.279 . S
C584 C583 1.358 . S
C584 H587 0.930 . S
C585 C582 1.348 . S
C585 C583 1.356 . S
H586 C580 0.930 . S
H587 C584 0.930 . S
O588 Li528 1.956 . S
O588 Li529 1.970 . S
O588 Li530 1.961 . S
O588 C532 1.325 . S
O589 Li528 1.970 . S
O589 Li529 1.956 . S
O589 Li531 1.961 . S
O589 C538 1.325 . S
O590 Li528 1.961 . S
O590 Li530 1.956 . S
O590 Li531 1.970 . S
O590 C560 1.325 . S
O591 Li529 1.961 . S
O591 Li530 1.970 . S
O591 Li531 1.956 . S
O591 C566 1.325 . S
H592 C534 0.929 . S
H593 C535 0.930 . S
H594 C536 0.930 . S
H595 C537 0.930 . S
H596 C539 0.930 . S
H597 C541 0.929 . S
H598 C542 0.930 . S
H599 C543 0.930 . S
H600 C546 0.930 . S
H601 C549 0.929 . S
H602 C554 0.929 . S
H603 C555 0.930 . S
H604 C562 0.929 . S
H605 C563 0.930 . S
H606 C564 0.930 . S
H607 C565 0.930 . S
H608 C567 0.929 . S
H609 C568 0.930 . S
H610 C569 0.930 . S
H611 C570 0.930 . S
H612 C574 0.929 . S
H613 C576 0.930 . S
H614 C582 0.929 . S
H615 C583 0.930 . S
Li616 N633 1.990 . S
Li616 O676 1.956 . S
Li616 O677 1.970 . S
Li616 O678 1.961 . S
Li617 N641 1.990 . S
Li617 O676 1.970 . S
Li617 O677 1.956 . S
Li617 O679 1.961 . S
Li618 N663 1.990 . S
Li618 O676 1.961 . S
Li618 O678 1.956 . S
Li618 O679 1.970 . S
Li619 N669 1.990 . S
Li619 O677 1.961 . S
Li619 O678 1.970 . S
Li619 O679 1.956 . S
C620 C622 1.348 . S
C620 C623 1.356 . S
C620 O676 1.325 . S
N621 C624 1.314 . S
N621 C625 1.279 . S
C622 C620 1.348 . S
C622 C624 1.353 . S
C622 H680 0.929 . S
C623 C620 1.356 . S
C623 C625 1.358 . S
C623 H681 0.930 . S
C624 N621 1.314 . S
C624 C622 1.353 . S
C624 H682 0.930 . S
C625 N621 1.279 . S
C625 C623 1.358 . S
C625 H683 0.930 . S
C626 C629 1.348 . S
C626 C630 1.356 . S
C626 O677 1.325 . S
C627 N628 1.279 . S
C627 C630 1.358 . S
C627 H684 0.930 . S
N628 C627 1.279 . S
N628 C631 1.314 . S
C629 C626 1.348 . S
C629 C631 1.353 . S
C629 H685 0.929 . S
C630 C626 1.356 . S
C630 C627 1.358 . S
C630 H686 0.930 . S
C631 N628 1.314 . S
C631 C629 1.353 . S
C631 H687 0.930 . S
C632 N633 1.314 . S
C632 C637 1.353 . S
C632 H638 0.930 . S
N633 Li616 1.990 . S
N633 C632 1.314 . S
N633 C635 1.279 . S
C634 C635 1.358 . S
C634 C636 1.356 . S
C634 H688 0.930 . S
C635 N633 1.279 . S
C635 C634 1.358 . S
C635 H639 0.930 . S
C636 C634 1.356 . S
C636 C637 1.348 . S
C637 C632 1.353 . S
C637 C636 1.348 . S
C637 H689 0.929 . S
H638 C632 0.930 . S
H639 C635 0.930 . S
C640 N641 1.314 . S
C640 C642 1.353 . S
C640 H646 0.930 . S
N641 Li617 1.990 . S
N641 C640 1.314 . S
N641 C644 1.279 . S
C642 C640 1.353 . S
C642 C645 1.348 . S
C642 H690 0.929 . S
C643 C644 1.358 . S
C643 C645 1.356 . S
C643 H691 0.930 . S
C644 N641 1.279 . S
C644 C643 1.358 . S
C644 H647 0.930 . S
C645 C642 1.348 . S
C645 C643 1.356 . S
H646 C640 0.930 . S
H647 C644 0.930 . S
C648 C650 1.348 . S
C648 C651 1.356 . S
C648 O678 1.325 . S
N649 C652 1.314 . S
N649 C653 1.279 . S
C650 C648 1.348 . S
C650 C652 1.353 . S
C650 H692 0.929 . S
C651 C648 1.356 . S
C651 C653 1.358 . S
C651 H693 0.930 . S
C652 N649 1.314 . S
C652 C650 1.353 . S
C652 H694 0.930 . S
C653 N649 1.279 . S
C653 C651 1.358 . S
C653 H695 0.930 . S
C654 C655 1.348 . S
C654 C656 1.356 . S
C654 O679 1.325 . S
C655 C654 1.348 . S
C655 C657 1.353 . S
C655 H696 0.929 . S
C656 C654 1.356 . S
C656 C658 1.358 . S
C656 H697 0.930 . S
C657 C655 1.353 . S
C657 N659 1.314 . S
C657 H698 0.930 . S
C658 C656 1.358 . S
C658 N659 1.279 . S
C658 H699 0.930 . S
N659 C657 1.314 . S
N659 C658 1.279 . S
C660 C662 1.353 . S
C660 N663 1.314 . S
C660 H666 0.930 . S
C661 N663 1.279 . S
C661 C664 1.358 . S
C661 H667 0.930 . S
C662 C660 1.353 . S
C662 C665 1.348 . S
C662 H700 0.929 . S
N663 Li618 1.990 . S
N663 C660 1.314 . S
N663 C661 1.279 . S
C664 C661 1.358 . S
C664 C665 1.356 . S
C664 H701 0.930 . S
C665 C662 1.348 . S
C665 C664 1.356 . S
H666 C660 0.930 . S
H667 C661 0.930 . S
C668 N669 1.314 . S
C668 C670 1.353 . S
C668 H674 0.930 . S
N669 Li619 1.990 . S
N669 C668 1.314 . S
N669 C672 1.279 . S
C670 C668 1.353 . S
C670 C673 1.348 . S
C670 H702 0.929 . S
C671 C672 1.358 . S
C671 C673 1.356 . S
C671 H703 0.930 . S
C672 N669 1.279 . S
C672 C671 1.358 . S
C672 H675 0.930 . S
C673 C670 1.348 . S
C673 C671 1.356 . S
H674 C668 0.930 . S
H675 C672 0.930 . S
O676 Li616 1.956 . S
O676 Li617 1.970 . S
O676 Li618 1.961 . S
O676 C620 1.325 . S
O677 Li616 1.970 . S
O677 Li617 1.956 . S
O677 Li619 1.961 . S
O677 C626 1.325 . S
O678 Li616 1.961 . S
O678 Li618 1.956 . S
O678 Li619 1.970 . S
O678 C648 1.325 . S
O679 Li617 1.961 . S
O679 Li618 1.970 . S
O679 Li619 1.956 . S
O679 C654 1.325 . S
H680 C622 0.929 . S
H681 C623 0.930 . S
H682 C624 0.930 . S
H683 C625 0.930 . S
H684 C627 0.930 . S
H685 C629 0.929 . S
H686 C630 0.930 . S
H687 C631 0.930 . S
H688 C634 0.930 . S
H689 C637 0.929 . S
H690 C642 0.929 . S
H691 C643 0.930 . S
H692 C650 0.929 . S
H693 C651 0.930 . S
H694 C652 0.930 . S
H695 C653 0.930 . S
H696 C655 0.929 . S
H697 C656 0.930 . S
H698 C657 0.930 . S
H699 C658 0.930 . S
H700 C662 0.929 . S
H701 C664 0.930 . S
H702 C670 0.929 . S
H703 C671 0.930 . S
Li704 N721 1.990 . S
Li704 O764 1.956 . S
Li704 O765 1.970 . S
Li704 O766 1.961 . S
Li705 N729 1.990 . S
Li705 O764 1.970 . S
Li705 O765 1.956 . S
Li705 O767 1.961 . S
Li706 N751 1.990 . S
Li706 O764 1.961 . S
Li706 O766 1.956 . S
Li706 O767 1.970 . S
Li707 N757 1.990 . S
Li707 O765 1.961 . S
Li707 O766 1.970 . S
Li707 O767 1.956 . S
C708 C710 1.348 . S
C708 C711 1.356 . S
C708 O764 1.325 . S
N709 C712 1.314 . S
N709 C713 1.279 . S
C710 C708 1.348 . S
C710 C712 1.353 . S
C710 H768 0.929 . S
C711 C708 1.356 . S
C711 C713 1.358 . S
C711 H769 0.930 . S
C712 N709 1.314 . S
C712 C710 1.353 . S
C712 H770 0.930 . S
C713 N709 1.279 . S
C713 C711 1.358 . S
C713 H771 0.930 . S
C714 C717 1.348 . S
C714 C718 1.356 . S
C714 O765 1.325 . S
C715 N716 1.279 . S
C715 C718 1.358 . S
C715 H772 0.930 . S
N716 C715 1.279 . S
N716 C719 1.314 . S
C717 C714 1.348 . S
C717 C719 1.353 . S
C717 H773 0.929 . S
C718 C714 1.356 . S
C718 C715 1.358 . S
C718 H774 0.930 . S
C719 N716 1.314 . S
C719 C717 1.353 . S
C719 H775 0.930 . S
C720 N721 1.314 . S
C720 C725 1.353 . S
C720 H726 0.930 . S
N721 Li704 1.990 . S
N721 C720 1.314 . S
N721 C723 1.279 . S
C722 C723 1.358 . S
C722 C724 1.356 . S
C722 H776 0.930 . S
C723 N721 1.279 . S
C723 C722 1.358 . S
C723 H727 0.930 . S
C724 C722 1.356 . S
C724 C725 1.348 . S
C725 C720 1.353 . S
C725 C724 1.348 . S
C725 H777 0.929 . S
H726 C720 0.930 . S
H727 C723 0.930 . S
C728 N729 1.314 . S
C728 C730 1.353 . S
C728 H734 0.930 . S
N729 Li705 1.990 . S
N729 C728 1.314 . S
N729 C732 1.279 . S
C730 C728 1.353 . S
C730 C733 1.348 . S
C730 H778 0.929 . S
C731 C732 1.358 . S
C731 C733 1.356 . S
C731 H779 0.930 . S
C732 N729 1.279 . S
C732 C731 1.358 . S
C732 H735 0.930 . S
C733 C730 1.348 . S
C733 C731 1.356 . S
H734 C728 0.930 . S
H735 C732 0.930 . S
C736 C738 1.348 . S
C736 C739 1.356 . S
C736 O766 1.325 . S
N737 C740 1.314 . S
N737 C741 1.279 . S
C738 C736 1.348 . S
C738 C740 1.353 . S
C738 H780 0.929 . S
C739 C736 1.356 . S
C739 C741 1.358 . S
C739 H781 0.930 . S
C740 N737 1.314 . S
C740 C738 1.353 . S
C740 H782 0.930 . S
C741 N737 1.279 . S
C741 C739 1.358 . S
C741 H783 0.930 . S
C742 C743 1.348 . S
C742 C744 1.356 . S
C742 O767 1.325 . S
C743 C742 1.348 . S
C743 C745 1.353 . S
C743 H784 0.929 . S
C744 C742 1.356 . S
C744 C746 1.358 . S
C744 H785 0.930 . S
C745 C743 1.353 . S
C745 N747 1.314 . S
C745 H786 0.930 . S
C746 C744 1.358 . S
C746 N747 1.279 . S
C746 H787 0.930 . S
N747 C745 1.314 . S
N747 C746 1.279 . S
C748 C750 1.353 . S
C748 N751 1.314 . S
C748 H754 0.930 . S
C749 N751 1.279 . S
C749 C752 1.358 . S
C749 H755 0.930 . S
C750 C748 1.353 . S
C750 C753 1.348 . S
C750 H788 0.929 . S
N751 Li706 1.990 . S
N751 C748 1.314 . S
N751 C749 1.279 . S
C752 C749 1.358 . S
C752 C753 1.356 . S
C752 H789 0.930 . S
C753 C750 1.348 . S
C753 C752 1.356 . S
H754 C748 0.930 . S
H755 C749 0.930 . S
C756 N757 1.314 . S
C756 C758 1.353 . S
C756 H762 0.930 . S
N757 Li707 1.990 . S
N757 C756 1.314 . S
N757 C760 1.279 . S
C758 C756 1.353 . S
C758 C761 1.348 . S
C758 H790 0.929 . S
C759 C760 1.358 . S
C759 C761 1.356 . S
C759 H791 0.930 . S
C760 N757 1.279 . S
C760 C759 1.358 . S
C760 H763 0.930 . S
C761 C758 1.348 . S
C761 C759 1.356 . S
H762 C756 0.930 . S
H763 C760 0.930 . S
O764 Li704 1.956 . S
O764 Li705 1.970 . S
O764 Li706 1.961 . S
O764 C708 1.325 . S
O765 Li704 1.970 . S
O765 Li705 1.956 . S
O765 Li707 1.961 . S
O765 C714 1.325 . S
O766 Li704 1.961 . S
O766 Li706 1.956 . S
O766 Li707 1.970 . S
O766 C736 1.325 . S
O767 Li705 1.961 . S
O767 Li706 1.970 . S
O767 Li707 1.956 . S
O767 C742 1.325 . S
H768 C710 0.929 . S
H769 C711 0.930 . S
H770 C712 0.930 . S
H771 C713 0.930 . S
H772 C715 0.930 . S
H773 C717 0.929 . S
H774 C718 0.930 . S
H775 C719 0.930 . S
H776 C722 0.930 . S
H777 C725 0.929 . S
H778 C730 0.929 . S
H779 C731 0.930 . S
H780 C738 0.929 . S
H781 C739 0.930 . S
H782 C740 0.930 . S
H783 C741 0.930 . S
H784 C743 0.929 . S
H785 C744 0.930 . S
H786 C745 0.930 . S
H787 C746 0.930 . S
H788 C750 0.929 . S
H789 C752 0.930 . S
H790 C758 0.929 . S
H791 C759 0.930 . S
Li792 N809 1.990 . S
Li792 O852 1.956 . S
Li792 O853 1.970 . S
Li792 O854 1.961 . S
Li793 N817 1.990 . S
Li793 O852 1.970 . S
Li793 O853 1.956 . S
Li793 O855 1.961 . S
Li794 N839 1.990 . S
Li794 O852 1.961 . S
Li794 O854 1.956 . S
Li794 O855 1.970 . S
Li795 N845 1.990 . S
Li795 O853 1.961 . S
Li795 O854 1.970 . S
Li795 O855 1.956 . S
C796 C798 1.348 . S
C796 C799 1.356 . S
C796 O852 1.325 . S
N797 C800 1.314 . S
N797 C801 1.279 . S
C798 C796 1.348 . S
C798 C800 1.353 . S
C798 H856 0.929 . S
C799 C796 1.356 . S
C799 C801 1.358 . S
C799 H857 0.930 . S
C800 N797 1.314 . S
C800 C798 1.353 . S
C800 H858 0.930 . S
C801 N797 1.279 . S
C801 C799 1.358 . S
C801 H859 0.930 . S
C802 C805 1.348 . S
C802 C806 1.356 . S
C802 O853 1.325 . S
C803 N804 1.279 . S
C803 C806 1.358 . S
C803 H860 0.930 . S
N804 C803 1.279 . S
N804 C807 1.314 . S
C805 C802 1.348 . S
C805 C807 1.353 . S
C805 H861 0.929 . S
C806 C802 1.356 . S
C806 C803 1.358 . S
C806 H862 0.930 . S
C807 N804 1.314 . S
C807 C805 1.353 . S
C807 H863 0.930 . S
C808 N809 1.314 . S
C808 C813 1.353 . S
C808 H814 0.930 . S
N809 Li792 1.990 . S
N809 C808 1.314 . S
N809 C811 1.279 . S
C810 C811 1.358 . S
C810 C812 1.356 . S
C810 H864 0.930 . S
C811 N809 1.279 . S
C811 C810 1.358 . S
C811 H815 0.930 . S
C812 C810 1.356 . S
C812 C813 1.348 . S
C813 C808 1.353 . S
C813 C812 1.348 . S
C813 H865 0.929 . S
H814 C808 0.930 . S
H815 C811 0.930 . S
C816 N817 1.314 . S
C816 C818 1.353 . S
C816 H822 0.930 . S
N817 Li793 1.990 . S
N817 C816 1.314 . S
N817 C820 1.279 . S
C818 C816 1.353 . S
C818 C821 1.348 . S
C818 H866 0.929 . S
C819 C820 1.358 . S
C819 C821 1.356 . S
C819 H867 0.930 . S
C820 N817 1.279 . S
C820 C819 1.358 . S
C820 H823 0.930 . S
C821 C818 1.348 . S
C821 C819 1.356 . S
H822 C816 0.930 . S
H823 C820 0.930 . S
C824 C826 1.348 . S
C824 C827 1.356 . S
C824 O854 1.325 . S
N825 C828 1.314 . S
N825 C829 1.279 . S
C826 C824 1.348 . S
C826 C828 1.353 . S
C826 H868 0.929 . S
C827 C824 1.356 . S
C827 C829 1.358 . S
C827 H869 0.930 . S
C828 N825 1.314 . S
C828 C826 1.353 . S
C828 H870 0.930 . S
C829 N825 1.279 . S
C829 C827 1.358 . S
C829 H871 0.930 . S
C830 C831 1.348 . S
C830 C832 1.356 . S
C830 O855 1.325 . S
C831 C830 1.348 . S
C831 C833 1.353 . S
C831 H872 0.929 . S
C832 C830 1.356 . S
C832 C834 1.358 . S
C832 H873 0.930 . S
C833 C831 1.353 . S
C833 N835 1.314 . S
C833 H874 0.930 . S
C834 C832 1.358 . S
C834 N835 1.279 . S
C834 H875 0.930 . S
N835 C833 1.314 . S
N835 C834 1.279 . S
C836 C838 1.353 . S
C836 N839 1.314 . S
C836 H842 0.930 . S
C837 N839 1.279 . S
C837 C840 1.358 . S
C837 H843 0.930 . S
C838 C836 1.353 . S
C838 C841 1.348 . S
C838 H876 0.929 . S
N839 Li794 1.990 . S
N839 C836 1.314 . S
N839 C837 1.279 . S
C840 C837 1.358 . S
C840 C841 1.356 . S
C840 H877 0.930 . S
C841 C838 1.348 . S
C841 C840 1.356 . S
H842 C836 0.930 . S
H843 C837 0.930 . S
C844 N845 1.314 . S
C844 C846 1.353 . S
C844 H850 0.930 . S
N845 Li795 1.990 . S
N845 C844 1.314 . S
N845 C848 1.279 . S
C846 C844 1.353 . S
C846 C849 1.348 . S
C846 H878 0.929 . S
C847 C848 1.358 . S
C847 C849 1.356 . S
C847 H879 0.930 . S
C848 N845 1.279 . S
C848 C847 1.358 . S
C848 H851 0.930 . S
C849 C846 1.348 . S
C849 C847 1.356 . S
H850 C844 0.930 . S
H851 C848 0.930 . S
O852 Li792 1.956 . S
O852 Li793 1.970 . S
O852 Li794 1.961 . S
O852 C796 1.325 . S
O853 Li792 1.970 . S
O853 Li793 1.956 . S
O853 Li795 1.961 . S
O853 C802 1.325 . S
O854 Li792 1.961 . S
O854 Li794 1.956 . S
O854 Li795 1.970 . S
O854 C824 1.325 . S
O855 Li793 1.961 . S
O855 Li794 1.970 . S
O855 Li795 1.956 . S
O855 C830 1.325 . S
H856 C798 0.929 . S
H857 C799 0.930 . S
H858 C800 0.930 . S
H859 C801 0.930 . S
H860 C803 0.930 . S
H861 C805 0.929 . S
H862 C806 0.930 . S
H863 C807 0.930 . S
H864 C810 0.930 . S
H865 C813 0.929 . S
H866 C818 0.929 . S
H867 C819 0.930 . S
H868 C826 0.929 . S
H869 C827 0.930 . S
H870 C828 0.930 . S
H871 C829 0.930 . S
H872 C831 0.929 . S
H873 C832 0.930 . S
H874 C833 0.930 . S
H875 C834 0.930 . S
H876 C838 0.929 . S
H877 C840 0.930 . S
H878 C846 0.929 . S
H879 C847 0.930 . S
Li880 N897 1.990 . S
Li880 O940 1.956 . S
Li880 O941 1.970 . S
Li880 O942 1.961 . S
Li881 N905 1.990 . S
Li881 O940 1.970 . S
Li881 O941 1.956 . S
Li881 O943 1.961 . S
Li882 N927 1.990 . S
Li882 O940 1.961 . S
Li882 O942 1.956 . S
Li882 O943 1.970 . S
Li883 N933 1.990 . S
Li883 O941 1.961 . S
Li883 O942 1.970 . S
Li883 O943 1.956 . S
C884 C886 1.348 . S
C884 C887 1.356 . S
C884 O940 1.325 . S
N885 C888 1.314 . S
N885 C889 1.279 . S
C886 C884 1.348 . S
C886 C888 1.353 . S
C886 H944 0.929 . S
C887 C884 1.356 . S
C887 C889 1.358 . S
C887 H945 0.930 . S
C888 N885 1.314 . S
C888 C886 1.353 . S
C888 H946 0.930 . S
C889 N885 1.279 . S
C889 C887 1.358 . S
C889 H947 0.930 . S
C890 C893 1.348 . S
C890 C894 1.356 . S
C890 O941 1.325 . S
C891 N892 1.279 . S
C891 C894 1.358 . S
C891 H948 0.930 . S
N892 C891 1.279 . S
N892 C895 1.314 . S
C893 C890 1.348 . S
C893 C895 1.353 . S
C893 H949 0.929 . S
C894 C890 1.356 . S
C894 C891 1.358 . S
C894 H950 0.930 . S
C895 N892 1.314 . S
C895 C893 1.353 . S
C895 H951 0.930 . S
C896 N897 1.314 . S
C896 C901 1.353 . S
C896 H902 0.930 . S
N897 Li880 1.990 . S
N897 C896 1.314 . S
N897 C899 1.279 . S
C898 C899 1.358 . S
C898 C900 1.356 . S
C898 H952 0.930 . S
C899 N897 1.279 . S
C899 C898 1.358 . S
C899 H903 0.930 . S
C900 C898 1.356 . S
C900 C901 1.348 . S
C901 C896 1.353 . S
C901 C900 1.348 . S
C901 H953 0.929 . S
H902 C896 0.930 . S
H903 C899 0.930 . S
C904 N905 1.314 . S
C904 C906 1.353 . S
C904 H910 0.930 . S
N905 Li881 1.990 . S
N905 C904 1.314 . S
N905 C908 1.279 . S
C906 C904 1.353 . S
C906 C909 1.348 . S
C906 H954 0.929 . S
C907 C908 1.358 . S
C907 C909 1.356 . S
C907 H955 0.930 . S
C908 N905 1.279 . S
C908 C907 1.358 . S
C908 H911 0.930 . S
C909 C906 1.348 . S
C909 C907 1.356 . S
H910 C904 0.930 . S
H911 C908 0.930 . S
C912 C914 1.348 . S
C912 C915 1.356 . S
C912 O942 1.325 . S
N913 C916 1.314 . S
N913 C917 1.279 . S
C914 C912 1.348 . S
C914 C916 1.353 . S
C914 H956 0.929 . S
C915 C912 1.356 . S
C915 C917 1.358 . S
C915 H957 0.930 . S
C916 N913 1.314 . S
C916 C914 1.353 . S
C916 H958 0.930 . S
C917 N913 1.279 . S
C917 C915 1.358 . S
C917 H959 0.930 . S
C918 C919 1.348 . S
C918 C920 1.356 . S
C918 O943 1.325 . S
C919 C918 1.348 . S
C919 C921 1.353 . S
C919 H960 0.929 . S
C920 C918 1.356 . S
C920 C922 1.358 . S
C920 H961 0.930 . S
C921 C919 1.353 . S
C921 N923 1.314 . S
C921 H962 0.930 . S
C922 C920 1.358 . S
C922 N923 1.279 . S
C922 H963 0.930 . S
N923 C921 1.314 . S
N923 C922 1.279 . S
C924 C926 1.353 . S
C924 N927 1.314 . S
C924 H930 0.930 . S
C925 N927 1.279 . S
C925 C928 1.358 . S
C925 H931 0.930 . S
C926 C924 1.353 . S
C926 C929 1.348 . S
C926 H964 0.929 . S
N927 Li882 1.990 . S
N927 C924 1.314 . S
N927 C925 1.279 . S
C928 C925 1.358 . S
C928 C929 1.356 . S
C928 H965 0.930 . S
C929 C926 1.348 . S
C929 C928 1.356 . S
H930 C924 0.930 . S
H931 C925 0.930 . S
C932 N933 1.314 . S
C932 C934 1.353 . S
C932 H938 0.930 . S
N933 Li883 1.990 . S
N933 C932 1.314 . S
N933 C936 1.279 . S
C934 C932 1.353 . S
C934 C937 1.348 . S
C934 H966 0.929 . S
C935 C936 1.358 . S
C935 C937 1.356 . S
C935 H967 0.930 . S
C936 N933 1.279 . S
C936 C935 1.358 . S
C936 H939 0.930 . S
C937 C934 1.348 . S
C937 C935 1.356 . S
H938 C932 0.930 . S
H939 C936 0.930 . S
O940 Li880 1.956 . S
O940 Li881 1.970 . S
O940 Li882 1.961 . S
O940 C884 1.325 . S
O941 Li880 1.970 . S
O941 Li881 1.956 . S
O941 Li883 1.961 . S
O941 C890 1.325 . S
O942 Li880 1.961 . S
O942 Li882 1.956 . S
O942 Li883 1.970 . S
O942 C912 1.325 . S
O943 Li881 1.961 . S
O943 Li882 1.970 . S
O943 Li883 1.956 . S
O943 C918 1.325 . S
H944 C886 0.929 . S
H945 C887 0.930 . S
H946 C888 0.930 . S
H947 C889 0.930 . S
H948 C891 0.930 . S
H949 C893 0.929 . S
H950 C894 0.930 . S
H951 C895 0.930 . S
H952 C898 0.930 . S
H953 C901 0.929 . S
H954 C906 0.929 . S
H955 C907 0.930 . S
H956 C914 0.929 . S
H957 C915 0.930 . S
H958 C916 0.930 . S
H959 C917 0.930 . S
H960 C919 0.929 . S
H961 C920 0.930 . S
H962 C921 0.930 . S
H963 C922 0.930 . S
H964 C926 0.929 . S
H965 C928 0.930 . S
H966 C934 0.929 . S
H967 C935 0.930 . S
Li968 N985 1.990 . S
Li968 O1028 1.956 . S
Li968 O1029 1.970 . S
Li968 O1030 1.961 . S
Li969 N993 1.990 . S
Li969 O1028 1.970 . S
Li969 O1029 1.956 . S
Li969 O1031 1.961 . S
Li970 N1015 1.990 . S
Li970 O1028 1.961 . S
Li970 O1030 1.956 . S
Li970 O1031 1.970 . S
Li971 N1021 1.990 . S
Li971 O1029 1.961 . S
Li971 O1030 1.970 . S
Li971 O1031 1.956 . S
C972 C974 1.348 . S
C972 C975 1.356 . S
C972 O1028 1.325 . S
N973 C976 1.314 . S
N973 C977 1.279 . S
C974 C972 1.348 . S
C974 C976 1.353 . S
C974 H1032 0.929 . S
C975 C972 1.356 . S
C975 C977 1.358 . S
C975 H1033 0.930 . S
C976 N973 1.314 . S
C976 C974 1.353 . S
C976 H1034 0.930 . S
C977 N973 1.279 . S
C977 C975 1.358 . S
C977 H1035 0.930 . S
C978 C981 1.348 . S
C978 C982 1.356 . S
C978 O1029 1.325 . S
C979 N980 1.279 . S
C979 C982 1.358 . S
C979 H1036 0.930 . S
N980 C979 1.279 . S
N980 C983 1.314 . S
C981 C978 1.348 . S
C981 C983 1.353 . S
C981 H1037 0.929 . S
C982 C978 1.356 . S
C982 C979 1.358 . S
C982 H1038 0.930 . S
C983 N980 1.314 . S
C983 C981 1.353 . S
C983 H1039 0.930 . S
C984 N985 1.314 . S
C984 C989 1.353 . S
C984 H990 0.930 . S
N985 Li968 1.990 . S
N985 C984 1.314 . S
N985 C987 1.279 . S
C986 C987 1.358 . S
C986 C988 1.356 . S
C986 H1040 0.930 . S
C987 N985 1.279 . S
C987 C986 1.358 . S
C987 H991 0.930 . S
C988 C986 1.356 . S
C988 C989 1.348 . S
C989 C984 1.353 . S
C989 C988 1.348 . S
C989 H1041 0.929 . S
H990 C984 0.930 . S
H991 C987 0.930 . S
C992 N993 1.314 . S
C992 C994 1.353 . S
C992 H998 0.930 . S
N993 Li969 1.990 . S
N993 C992 1.314 . S
N993 C996 1.279 . S
C994 C992 1.353 . S
C994 C997 1.348 . S
C994 H1042 0.929 . S
C995 C996 1.358 . S
C995 C997 1.356 . S
C995 H1043 0.930 . S
C996 N993 1.279 . S
C996 C995 1.358 . S
C996 H999 0.930 . S
C997 C994 1.348 . S
C997 C995 1.356 . S
H998 C992 0.930 . S
H999 C996 0.930 . S
C1000 C1002 1.348 . S
C1000 C1003 1.356 . S
C1000 O1030 1.325 . S
N1001 C1004 1.314 . S
N1001 C1005 1.279 . S
C1002 C1000 1.348 . S
C1002 C1004 1.353 . S
C1002 H1044 0.929 . S
C1003 C1000 1.356 . S
C1003 C1005 1.358 . S
C1003 H1045 0.930 . S
C1004 N1001 1.314 . S
C1004 C1002 1.353 . S
C1004 H1046 0.930 . S
C1005 N1001 1.279 . S
C1005 C1003 1.358 . S
C1005 H1047 0.930 . S
C1006 C1007 1.348 . S
C1006 C1008 1.356 . S
C1006 O1031 1.325 . S
C1007 C1006 1.348 . S
C1007 C1009 1.353 . S
C1007 H1048 0.929 . S
C1008 C1006 1.356 . S
C1008 C1010 1.358 . S
C1008 H1049 0.930 . S
C1009 C1007 1.353 . S
C1009 N1011 1.314 . S
C1009 H1050 0.930 . S
C1010 C1008 1.358 . S
C1010 N1011 1.279 . S
C1010 H1051 0.930 . S
N1011 C1009 1.314 . S
N1011 C1010 1.279 . S
C1012 C1014 1.353 . S
C1012 N1015 1.314 . S
C1012 H1018 0.930 . S
C1013 N1015 1.279 . S
C1013 C1016 1.358 . S
C1013 H1019 0.930 . S
C1014 C1012 1.353 . S
C1014 C1017 1.348 . S
C1014 H1052 0.929 . S
N1015 Li970 1.990 . S
N1015 C1012 1.314 . S
N1015 C1013 1.279 . S
C1016 C1013 1.358 . S
C1016 C1017 1.356 . S
C1016 H1053 0.930 . S
C1017 C1014 1.348 . S
C1017 C1016 1.356 . S
H1018 C1012 0.930 . S
H1019 C1013 0.930 . S
C1020 N1021 1.314 . S
C1020 C1022 1.353 . S
C1020 H1026 0.930 . S
N1021 Li971 1.990 . S
N1021 C1020 1.314 . S
N1021 C1024 1.279 . S
C1022 C1020 1.353 . S
C1022 C1025 1.348 . S
C1022 H1054 0.929 . S
C1023 C1024 1.358 . S
C1023 C1025 1.356 . S
C1023 H1055 0.930 . S
C1024 N1021 1.279 . S
C1024 C1023 1.358 . S
C1024 H1027 0.930 . S
C1025 C1022 1.348 . S
C1025 C1023 1.356 . S
H1026 C1020 0.930 . S
H1027 C1024 0.930 . S
O1028 Li968 1.956 . S
O1028 Li969 1.970 . S
O1028 Li970 1.961 . S
O1028 C972 1.325 . S
O1029 Li968 1.970 . S
O1029 Li969 1.956 . S
O1029 Li971 1.961 . S
O1029 C978 1.325 . S
O1030 Li968 1.961 . S
O1030 Li970 1.956 . S
O1030 Li971 1.970 . S
O1030 C1000 1.325 . S
O1031 Li969 1.961 . S
O1031 Li970 1.970 . S
O1031 Li971 1.956 . S
O1031 C1006 1.325 . S
H1032 C974 0.929 . S
H1033 C975 0.930 . S
H1034 C976 0.930 . S
H1035 C977 0.930 . S
H1036 C979 0.930 . S
H1037 C981 0.929 . S
H1038 C982 0.930 . S
H1039 C983 0.930 . S
H1040 C986 0.930 . S
H1041 C989 0.929 . S
H1042 C994 0.929 . S
H1043 C995 0.930 . S
H1044 C1002 0.929 . S
H1045 C1003 0.930 . S
H1046 C1004 0.930 . S
H1047 C1005 0.930 . S
H1048 C1007 0.929 . S
H1049 C1008 0.930 . S
H1050 C1009 0.930 . S
H1051 C1010 0.930 . S
H1052 C1014 0.929 . S
H1053 C1016 0.930 . S
H1054 C1022 0.929 . S
H1055 C1023 0.930 . S
H1056 C1064 0.950 . S
H1057 C1069 0.950 . S
H1058 C1066 0.950 . S
H1059 C1068 0.950 . S
H1060 C1070 0.950 . S
H1061 C1072 0.950 . S
H1062 C1074 0.950 . S
H1063 C1075 0.950 . S
C1064 H1056 0.950 . S
C1064 C1065 1.386 . S
C1064 C1066 1.391 . S
C1065 C1064 1.386 . S
C1065 C1069 1.393 . S
C1066 H1058 0.950 . S
C1066 C1064 1.391 . S
C1066 C1067 1.400 . S
C1067 C1066 1.400 . S
C1067 C1068 1.398 . S
C1067 C1073 1.491 . S
C1068 H1059 0.950 . S
C1068 C1067 1.398 . S
C1068 C1069 1.391 . S
C1069 H1057 0.950 . S
C1069 C1065 1.393 . S
C1069 C1068 1.391 . S
C1070 H1060 0.950 . S
C1070 C1071 1.386 . S
C1070 C1072 1.391 . S
C1071 C1070 1.386 . S
C1071 C1075 1.393 . S
C1072 H1061 0.950 . S
C1072 C1070 1.391 . S
C1072 C1073 1.400 . S
C1073 C1067 1.491 . S
C1073 C1072 1.400 . S
C1073 C1074 1.398 . S
C1074 H1062 0.950 . S
C1074 C1073 1.398 . S
C1074 C1075 1.391 . S
C1075 H1063 0.950 . S
C1075 C1071 1.393 . S
C1075 C1074 1.391 . S
H1076 C1084 0.950 . S
H1077 C1089 0.950 . S
H1078 C1086 0.950 . S
H1079 C1088 0.950 . S
H1080 C1090 0.950 . S
H1081 C1092 0.950 . S
H1082 C1094 0.950 . S
H1083 C1095 0.950 . S
C1084 H1076 0.950 . S
C1084 C1085 1.386 . S
C1084 C1086 1.391 . S
C1085 C1084 1.386 . S
C1085 C1089 1.393 . S
C1086 H1078 0.950 . S
C1086 C1084 1.391 . S
C1086 C1087 1.400 . S
C1087 C1086 1.400 . S
C1087 C1088 1.398 . S
C1087 C1093 1.491 . S
C1088 H1079 0.950 . S
C1088 C1087 1.398 . S
C1088 C1089 1.391 . S
C1089 H1077 0.950 . S
C1089 C1085 1.393 . S
C1089 C1088 1.391 . S
C1090 H1080 0.950 . S
C1090 C1091 1.386 . S
C1090 C1092 1.391 . S
C1091 C1090 1.386 . S
C1091 C1095 1.393 . S
C1092 H1081 0.950 . S
C1092 C1090 1.391 . S
C1092 C1093 1.400 . S
C1093 C1087 1.491 . S
C1093 C1092 1.400 . S
C1093 C1094 1.398 . S
C1094 H1082 0.950 . S
C1094 C1093 1.398 . S
C1094 C1095 1.391 . S
C1095 H1083 0.950 . S
C1095 C1091 1.393 . S
C1095 C1094 1.391 . S
H1096 C1104 0.950 . S
H1097 C1109 0.950 . S
H1098 C1106 0.950 . S
H1099 C1108 0.950 . S
H1100 C1110 0.950 . S
H1101 C1112 0.950 . S
H1102 C1114 0.950 . S
H1103 C1115 0.950 . S
C1104 H1096 0.950 . S
C1104 C1105 1.386 . S
C1104 C1106 1.391 . S
C1105 C1104 1.386 . S
C1105 C1109 1.393 . S
C1106 H1098 0.950 . S
C1106 C1104 1.391 . S
C1106 C1107 1.400 . S
C1107 C1106 1.400 . S
C1107 C1108 1.398 . S
C1107 C1113 1.491 . S
C1108 H1099 0.950 . S
C1108 C1107 1.398 . S
C1108 C1109 1.391 . S
C1109 H1097 0.950 . S
C1109 C1105 1.393 . S
C1109 C1108 1.391 . S
C1110 H1100 0.950 . S
C1110 C1111 1.386 . S
C1110 C1112 1.391 . S
C1111 C1110 1.386 . S
C1111 C1115 1.393 . S
C1112 H1101 0.950 . S
C1112 C1110 1.391 . S
C1112 C1113 1.400 . S
C1113 C1107 1.491 . S
C1113 C1112 1.400 . S
C1113 C1114 1.398 . S
C1114 H1102 0.950 . S
C1114 C1113 1.398 . S
C1114 C1115 1.391 . S
C1115 H1103 0.950 . S
C1115 C1111 1.393 . S
C1115 C1114 1.391 . S
H1116 C1124 0.950 . S
H1117 C1129 0.950 . S
H1118 C1126 0.950 . S
H1119 C1128 0.950 . S
H1120 C1130 0.950 . S
H1121 C1132 0.950 . S
H1122 C1134 0.950 . S
H1123 C1135 0.950 . S
C1124 H1116 0.950 . S
C1124 C1125 1.386 . S
C1124 C1126 1.391 . S
C1125 C1124 1.386 . S
C1125 C1129 1.393 . S
C1126 H1118 0.950 . S
C1126 C1124 1.391 . S
C1126 C1127 1.400 . S
C1127 C1126 1.400 . S
C1127 C1128 1.398 . S
C1127 C1133 1.491 . S
C1128 H1119 0.950 . S
C1128 C1127 1.398 . S
C1128 C1129 1.391 . S
C1129 H1117 0.950 . S
C1129 C1125 1.393 . S
C1129 C1128 1.391 . S
C1130 H1120 0.950 . S
C1130 C1131 1.386 . S
C1130 C1132 1.391 . S
C1131 C1130 1.386 . S
C1131 C1135 1.393 . S
C1132 H1121 0.950 . S
C1132 C1130 1.391 . S
C1132 C1133 1.400 . S
C1133 C1127 1.491 . S
C1133 C1132 1.400 . S
C1133 C1134 1.398 . S
C1134 H1122 0.950 . S
C1134 C1133 1.398 . S
C1134 C1135 1.391 . S
C1135 H1123 0.950 . S
C1135 C1131 1.393 . S
C1135 C1134 1.391 . S
H1136 C1144 0.950 . S
H1137 C1149 0.950 . S
H1138 C1146 0.950 . S
H1139 C1148 0.950 . S
H1140 C1150 0.950 . S
H1141 C1152 0.950 . S
H1142 C1154 0.950 . S
H1143 C1155 0.950 . S
C1144 H1136 0.950 . S
C1144 C1145 1.386 . S
C1144 C1146 1.391 . S
C1145 C1144 1.386 . S
C1145 C1149 1.393 . S
C1146 H1138 0.950 . S
C1146 C1144 1.391 . S
C1146 C1147 1.400 . S
C1147 C1146 1.400 . S
C1147 C1148 1.398 . S
C1147 C1153 1.491 . S
C1148 H1139 0.950 . S
C1148 C1147 1.398 . S
C1148 C1149 1.391 . S
C1149 H1137 0.950 . S
C1149 C1145 1.393 . S
C1149 C1148 1.391 . S
C1150 H1140 0.950 . S
C1150 C1151 1.386 . S
C1150 C1152 1.391 . S
C1151 C1150 1.386 . S
C1151 C1155 1.393 . S
C1152 H1141 0.950 . S
C1152 C1150 1.391 . S
C1152 C1153 1.400 . S
C1153 C1147 1.491 . S
C1153 C1152 1.400 . S
C1153 C1154 1.398 . S
C1154 H1142 0.950 . S
C1154 C1153 1.398 . S
C1154 C1155 1.391 . S
C1155 H1143 0.950 . S
C1155 C1151 1.393 . S
C1155 C1154 1.391 . S
H1156 C1164 0.950 . S
H1157 C1169 0.950 . S
H1158 C1166 0.950 . S
H1159 C1168 0.950 . S
H1160 C1170 0.950 . S
H1161 C1172 0.950 . S
H1162 C1174 0.950 . S
H1163 C1175 0.950 . S
C1164 H1156 0.950 . S
C1164 C1165 1.386 . S
C1164 C1166 1.391 . S
C1165 C1164 1.386 . S
C1165 C1169 1.393 . S
C1166 H1158 0.950 . S
C1166 C1164 1.391 . S
C1166 C1167 1.400 . S
C1167 C1166 1.400 . S
C1167 C1168 1.398 . S
C1167 C1173 1.491 . S
C1168 H1159 0.950 . S
C1168 C1167 1.398 . S
C1168 C1169 1.391 . S
C1169 H1157 0.950 . S
C1169 C1165 1.393 . S
C1169 C1168 1.391 . S
C1170 H1160 0.950 . S
C1170 C1171 1.386 . S
C1170 C1172 1.391 . S
C1171 C1170 1.386 . S
C1171 C1175 1.393 . S
C1172 H1161 0.950 . S
C1172 C1170 1.391 . S
C1172 C1173 1.400 . S
C1173 C1167 1.491 . S
C1173 C1172 1.400 . S
C1173 C1174 1.398 . S
C1174 H1162 0.950 . S
C1174 C1173 1.398 . S
C1174 C1175 1.391 . S
C1175 H1163 0.950 . S
C1175 C1171 1.393 . S
C1175 C1174 1.391 . S
H1176 C1184 0.950 . S
H1177 C1189 0.950 . S
H1178 C1186 0.950 . S
H1179 C1188 0.950 1_565 S
H1180 C1190 0.950 . S
H1181 C1192 0.950 . S
H1182 C1194 0.950 1_545 S
H1183 C1195 0.950 . S
C1184 H1176 0.950 . S
C1184 C1185 1.386 . S
C1184 C1186 1.391 . S
C1185 C1184 1.386 . S
C1185 C1189 1.393 . S
C1186 H1178 0.950 . S
C1186 C1184 1.391 . S
C1186 C1187 1.400 . S
C1187 C1186 1.400 . S
C1187 C1188 1.398 . S
C1187 C1193 1.491 1_544 S
C1188 H1179 0.950 1_545 S
C1188 C1187 1.398 . S
C1188 C1189 1.391 . S
C1189 H1177 0.950 . S
C1189 C1185 1.393 . S
C1189 C1188 1.391 . S
C1190 H1180 0.950 . S
C1190 C1191 1.386 . S
C1190 C1192 1.391 . S
C1191 C1190 1.386 . S
C1191 C1195 1.393 . S
C1192 H1181 0.950 . S
C1192 C1190 1.391 . S
C1192 C1193 1.400 . S
C1193 C1187 1.491 1_566 S
C1193 C1192 1.400 . S
C1193 C1194 1.398 . S
C1194 H1182 0.950 1_565 S
C1194 C1193 1.398 . S
C1194 C1195 1.391 . S
C1195 H1183 0.950 . S
C1195 C1191 1.393 . S
C1195 C1194 1.391 . S
H1196 C1204 0.950 . S
H1197 C1209 0.950 . S
H1198 C1206 0.950 . S
H1199 C1208 0.950 . S
H1200 C1210 0.950 . S
H1201 C1212 0.950 . S
H1202 C1214 0.950 . S
H1203 C1215 0.950 . S
C1204 H1196 0.950 . S
C1204 C1205 1.386 . S
C1204 C1206 1.391 . S
C1205 C1204 1.386 . S
C1205 C1209 1.393 . S
C1206 H1198 0.950 . S
C1206 C1204 1.391 . S
C1206 C1207 1.400 . S
C1207 C1206 1.400 . S
C1207 C1208 1.398 . S
C1207 C1213 1.491 . S
C1208 H1199 0.950 . S
C1208 C1207 1.398 . S
C1208 C1209 1.391 . S
C1209 H1197 0.950 . S
C1209 C1205 1.393 . S
C1209 C1208 1.391 . S
C1210 H1200 0.950 . S
C1210 C1211 1.386 . S
C1210 C1212 1.391 . S
C1211 C1210 1.386 . S
C1211 C1215 1.393 . S
C1212 H1201 0.950 . S
C1212 C1210 1.391 . S
C1212 C1213 1.400 . S
C1213 C1207 1.491 . S
C1213 C1212 1.400 . S
C1213 C1214 1.398 . S
C1214 H1202 0.950 . S
C1214 C1213 1.398 . S
C1214 C1215 1.391 . S
C1215 H1203 0.950 . S
C1215 C1211 1.393 . S
C1215 C1214 1.391 . S
H1216 C1224 0.950 . S
H1217 C1229 0.950 . S
H1218 C1226 0.950 1_554 S
H1219 C1228 0.950 . S
H1220 C1230 0.922 1_455 S
H1221 C1232 0.950 . S
H1222 C1234 0.950 . S
H1223 C1235 0.950 . S
C1224 H1216 0.950 . S
C1224 C1225 1.386 1_655 S
C1224 C1226 1.391 . S
C1225 C1224 1.386 1_455 S
C1225 C1229 1.393 . S
C1226 H1218 0.950 1_556 S
C1226 C1224 1.391 . S
C1226 C1227 1.400 1_655 S
C1227 C1226 1.400 1_455 S
C1227 C1228 1.398 . S
C1227 C1233 1.491 1_456 S
C1228 H1219 0.950 . S
C1228 C1227 1.398 . S
C1228 C1229 1.391 . S
C1229 H1217 0.950 . S
C1229 C1225 1.393 . S
C1229 C1228 1.391 . S
C1230 H1220 0.922 1_655 S
C1230 C1231 1.411 . S
C1230 C1232 1.394 1_654 S
C1231 C1230 1.411 . S
C1231 C1235 1.393 . S
C1232 H1221 0.950 . S
C1232 C1230 1.394 1_456 S
C1232 C1233 1.400 1_456 S
C1233 C1227 1.491 1_654 S
C1233 C1232 1.400 1_654 S
C1233 C1234 1.398 . S
C1234 H1222 0.950 . S
C1234 C1233 1.398 . S
C1234 C1235 1.391 . S
C1235 H1223 0.950 . S
C1235 C1231 1.393 . S
C1235 C1234 1.391 . S
H1236 C1244 0.950 . S
H1237 C1249 0.950 . S
H1238 C1246 0.950 . S
H1239 C1248 0.950 . S
H1240 C1250 0.950 . S
H1241 C1252 0.950 . S
H1242 C1254 0.950 . S
H1243 C1255 0.950 . S
C1244 H1236 0.950 . S
C1244 C1245 1.386 . S
C1244 C1246 1.391 . S
C1245 C1244 1.386 . S
C1245 C1249 1.393 . S
C1246 H1238 0.950 . S
C1246 C1244 1.391 . S
C1246 C1247 1.400 . S
C1247 C1246 1.400 . S
C1247 C1248 1.398 . S
C1247 C1253 1.491 1_545 S
C1248 H1239 0.950 . S
C1248 C1247 1.398 . S
C1248 C1249 1.391 . S
C1249 H1237 0.950 . S
C1249 C1245 1.393 . S
C1249 C1248 1.391 . S
C1250 H1240 0.950 . S
C1250 C1251 1.386 . S
C1250 C1252 1.391 . S
C1251 C1250 1.386 . S
C1251 C1255 1.393 . S
C1252 H1241 0.950 . S
C1252 C1250 1.391 . S
C1252 C1253 1.400 . S
C1253 C1247 1.491 1_565 S
C1253 C1252 1.400 . S
C1253 C1254 1.398 . S
C1254 H1242 0.950 . S
C1254 C1253 1.398 . S
C1254 C1255 1.391 . S
C1255 H1243 0.950 . S
C1255 C1251 1.393 . S
C1255 C1254 1.391 . S
H1256 C1264 0.950 . S
H1257 C1269 0.952 1_554 S
H1258 C1266 0.950 . S
H1259 C1268 0.950 . S
H1260 C1270 0.950 . S
H1261 C1272 0.950 . S
H1262 C1274 0.950 . S
H1263 C1275 0.950 1_556 S
C1264 H1256 0.950 . S
C1264 C1265 1.386 . S
C1264 C1266 1.391 . S
C1265 C1264 1.386 . S
C1265 C1269 1.389 . S
C1266 H1258 0.950 . S
C1266 C1264 1.391 . S
C1266 C1267 1.400 . S
C1267 C1266 1.400 . S
C1267 C1268 1.398 1_556 S
C1267 C1273 1.491 1_556 S
C1268 H1259 0.950 . S
C1268 C1267 1.398 1_554 S
C1268 C1269 1.392 1_554 S
C1269 H1257 0.952 1_556 S
C1269 C1265 1.389 . S
C1269 C1268 1.392 1_556 S
C1270 H1260 0.950 . S
C1270 C1271 1.386 . S
C1270 C1272 1.391 . S
C1271 C1270 1.386 . S
C1271 C1275 1.393 . S
C1272 H1261 0.950 . S
C1272 C1270 1.391 . S
C1272 C1273 1.400 . S
C1273 C1267 1.491 1_554 S
C1273 C1272 1.400 . S
C1273 C1274 1.398 1_554 S
C1274 H1262 0.950 . S
C1274 C1273 1.398 1_556 S
C1274 C1275 1.391 1_556 S
C1275 H1263 0.950 1_554 S
C1275 C1271 1.393 . S
C1275 C1274 1.391 1_554 S
H1276 C1284 0.950 . S
H1277 C1289 0.950 . S
H1278 C1286 0.950 . S
H1279 C1288 0.950 . S
H1280 C1290 0.933 1_655 S
H1281 C1292 0.950 . S
H1282 C1294 0.950 . S
H1283 C1295 0.950 . S
C1284 H1276 0.950 . S
C1284 C1285 1.386 1_455 S
C1284 C1286 1.391 . S
C1285 C1284 1.386 1_655 S
C1285 C1289 1.393 . S
C1286 H1278 0.950 . S
C1286 C1284 1.391 . S
C1286 C1287 1.400 1_455 S
C1287 C1286 1.400 1_655 S
C1287 C1288 1.398 . S
C1287 C1293 1.491 1_655 S
C1288 H1279 0.950 . S
C1288 C1287 1.398 . S
C1288 C1289 1.391 . S
C1289 H1277 0.950 . S
C1289 C1285 1.393 . S
C1289 C1288 1.391 . S
C1290 H1280 0.933 1_455 S
C1290 C1291 1.401 . S
C1290 C1292 1.393 1_455 S
C1291 C1290 1.401 . S
C1291 C1295 1.393 . S
C1292 H1281 0.950 . S
C1292 C1290 1.393 1_655 S
C1292 C1293 1.400 1_655 S
C1293 C1287 1.491 1_455 S
C1293 C1292 1.400 1_455 S
C1293 C1294 1.398 . S
C1294 H1282 0.950 . S
C1294 C1293 1.398 . S
C1294 C1295 1.391 . S
C1295 H1283 0.950 . S
C1295 C1291 1.393 . S
C1295 C1294 1.391 . S
H1296 C1304 0.950 . S
H1297 C1309 0.950 . S
H1298 C1306 0.950 . S
H1299 C1308 0.950 . S
H1300 C1310 0.950 . S
H1301 C1312 0.950 . S
H1302 C1314 0.950 . S
H1303 C1315 0.950 . S
C1304 H1296 0.950 . S
C1304 C1305 1.386 . S
C1304 C1306 1.391 . S
C1305 C1304 1.386 . S
C1305 C1309 1.393 . S
C1306 H1298 0.950 . S
C1306 C1304 1.391 . S
C1306 C1307 1.400 . S
C1307 C1306 1.400 . S
C1307 C1308 1.398 . S
C1307 C1313 1.491 . S
C1308 H1299 0.950 . S
C1308 C1307 1.398 . S
C1308 C1309 1.391 . S
C1309 H1297 0.950 . S
C1309 C1305 1.393 . S
C1309 C1308 1.391 . S
C1310 H1300 0.950 . S
C1310 C1311 1.386 . S
C1310 C1312 1.391 . S
C1311 C1310 1.386 . S
C1311 C1315 1.393 . S
C1312 H1301 0.950 . S
C1312 C1310 1.391 . S
C1312 C1313 1.400 . S
C1313 C1307 1.491 . S
C1313 C1312 1.400 . S
C1313 C1314 1.398 . S
C1314 H1302 0.950 . S
C1314 C1313 1.398 . S
C1314 C1315 1.391 . S
C1315 H1303 0.950 . S
C1315 C1311 1.393 . S
C1315 C1314 1.391 . S
H1316 C1324 0.950 . S
H1317 C1329 0.950 . S
H1318 C1326 0.950 . S
H1319 C1328 0.950 . S
H1320 C1330 0.950 . S
H1321 C1332 0.950 . S
H1322 C1334 0.950 . S
H1323 C1335 0.950 . S
C1324 H1316 0.950 . S
C1324 C1325 1.386 . S
C1324 C1326 1.391 . S
C1325 C1324 1.386 . S
C1325 C1329 1.393 . S
C1326 H1318 0.950 . S
C1326 C1324 1.391 . S
C1326 C1327 1.400 . S
C1327 C1326 1.400 . S
C1327 C1328 1.398 . S
C1327 C1333 1.491 . S
C1328 H1319 0.950 . S
C1328 C1327 1.398 . S
C1328 C1329 1.391 . S
C1329 H1317 0.950 . S
C1329 C1325 1.393 . S
C1329 C1328 1.391 . S
C1330 H1320 0.950 . S
C1330 C1331 1.386 . S
C1330 C1332 1.391 . S
C1331 C1330 1.386 . S
C1331 C1335 1.393 . S
C1332 H1321 0.950 . S
C1332 C1330 1.391 . S
C1332 C1333 1.400 . S
C1333 C1327 1.491 . S
C1333 C1332 1.400 . S
C1333 C1334 1.398 . S
C1334 H1322 0.950 . S
C1334 C1333 1.398 . S
C1334 C1335 1.391 . S
C1335 H1323 0.950 . S
C1335 C1331 1.393 . S
C1335 C1334 1.391 . S
H1336 C1344 0.950 . S
H1337 C1349 0.950 . S
H1338 C1346 0.950 . S
H1339 C1348 0.950 . S
H1340 C1350 0.950 . S
H1341 C1352 0.950 . S
H1342 C1354 0.950 . S
H1343 C1355 0.950 . S
C1344 H1336 0.950 . S
C1344 C1345 1.386 . S
C1344 C1346 1.391 . S
C1345 C1344 1.386 . S
C1345 C1349 1.393 . S
C1346 H1338 0.950 . S
C1346 C1344 1.391 . S
C1346 C1347 1.400 . S
C1347 C1346 1.400 . S
C1347 C1348 1.398 . S
C1347 C1353 1.491 . S
C1348 H1339 0.950 . S
C1348 C1347 1.398 . S
C1348 C1349 1.391 . S
C1349 H1337 0.950 . S
C1349 C1345 1.393 . S
C1349 C1348 1.391 . S
C1350 H1340 0.950 . S
C1350 C1351 1.386 . S
C1350 C1352 1.391 . S
C1351 C1350 1.386 . S
C1351 C1355 1.393 . S
C1352 H1341 0.950 . S
C1352 C1350 1.391 . S
C1352 C1353 1.400 . S
C1353 C1347 1.491 . S
C1353 C1352 1.400 . S
C1353 C1354 1.398 . S
C1354 H1342 0.950 . S
C1354 C1353 1.398 . S
C1354 C1355 1.391 . S
C1355 H1343 0.950 . S
C1355 C1351 1.393 . S
C1355 C1354 1.391 . S
H1356 C1364 0.950 . S
H1357 C1369 0.950 . S
H1358 C1366 0.950 . S
H1359 C1368 0.950 . S
H1360 C1370 0.950 . S
H1361 C1372 0.950 . S
H1362 C1374 0.950 . S
H1363 C1375 0.950 . S
C1364 H1356 0.950 . S
C1364 C1365 1.386 . S
C1364 C1366 1.391 . S
C1365 C1364 1.386 . S
C1365 C1369 1.393 . S
C1366 H1358 0.950 . S
C1366 C1364 1.391 . S
C1366 C1367 1.400 . S
C1367 C1366 1.400 . S
C1367 C1368 1.398 . S
C1367 C1373 1.491 . S
C1368 H1359 0.950 . S
C1368 C1367 1.398 . S
C1368 C1369 1.391 . S
C1369 H1357 0.950 . S
C1369 C1365 1.393 . S
C1369 C1368 1.391 . S
C1370 H1360 0.950 . S
C1370 C1371 1.386 . S
C1370 C1372 1.391 . S
C1371 C1370 1.386 . S
C1371 C1375 1.393 . S
C1372 H1361 0.950 . S
C1372 C1370 1.391 . S
C1372 C1373 1.400 . S
C1373 C1367 1.491 . S
C1373 C1372 1.400 . S
C1373 C1374 1.398 . S
C1374 H1362 0.950 . S
C1374 C1373 1.398 . S
C1374 C1375 1.391 . S
C1375 H1363 0.950 . S
C1375 C1371 1.393 . S
C1375 C1374 1.391 . S
H1376 C1384 0.950 . S
H1377 C1389 0.950 . S
H1378 C1386 0.950 . S
H1379 C1388 0.950 . S
H1380 C1390 0.950 . S
H1381 C1392 0.950 . S
H1382 C1394 0.950 . S
H1383 C1395 0.950 . S
C1384 H1376 0.950 . S
C1384 C1385 1.386 . S
C1384 C1386 1.391 . S
C1385 C1384 1.386 . S
C1385 C1389 1.393 . S
C1386 H1378 0.950 . S
C1386 C1384 1.391 . S
C1386 C1387 1.400 . S
C1387 C1386 1.400 . S
C1387 C1388 1.398 . S
C1387 C1393 1.491 . S
C1388 H1379 0.950 . S
C1388 C1387 1.398 . S
C1388 C1389 1.391 . S
C1389 H1377 0.950 . S
C1389 C1385 1.393 . S
C1389 C1388 1.391 . S
C1390 H1380 0.950 . S
C1390 C1391 1.386 . S
C1390 C1392 1.391 . S
C1391 C1390 1.386 . S
C1391 C1395 1.393 . S
C1392 H1381 0.950 . S
C1392 C1390 1.391 . S
C1392 C1393 1.400 . S
C1393 C1387 1.491 . S
C1393 C1392 1.400 . S
C1393 C1394 1.398 . S
C1394 H1382 0.950 . S
C1394 C1393 1.398 . S
C1394 C1395 1.391 . S
C1395 H1383 0.950 . S
C1395 C1391 1.393 . S
C1395 C1394 1.391 . S
H1396 C1404 0.950 . S
H1397 C1409 0.950 . S
H1398 C1406 0.950 . S
H1399 C1408 0.950 . S
H1400 C1410 0.950 . S
H1401 C1412 0.950 . S
H1402 C1414 0.950 . S
H1403 C1415 0.950 . S
C1404 H1396 0.950 . S
C1404 C1405 1.386 . S
C1404 C1406 1.391 . S
C1405 C1404 1.386 . S
C1405 C1409 1.393 . S
C1406 H1398 0.950 . S
C1406 C1404 1.391 . S
C1406 C1407 1.400 . S
C1407 C1406 1.400 . S
C1407 C1408 1.398 . S
C1407 C1413 1.491 . S
C1408 H1399 0.950 . S
C1408 C1407 1.398 . S
C1408 C1409 1.391 . S
C1409 H1397 0.950 . S
C1409 C1405 1.393 . S
C1409 C1408 1.391 . S
C1410 H1400 0.950 . S
C1410 C1411 1.386 . S
C1410 C1412 1.391 . S
C1411 C1410 1.386 . S
C1411 C1415 1.393 . S
C1412 H1401 0.950 . S
C1412 C1410 1.391 . S
C1412 C1413 1.400 . S
C1413 C1407 1.491 . S
C1413 C1412 1.400 . S
C1413 C1414 1.398 . S
C1414 H1402 0.950 . S
C1414 C1413 1.398 . S
C1414 C1415 1.391 . S
C1415 H1403 0.950 . S
C1415 C1411 1.393 . S
C1415 C1414 1.391 . S
H1416 C1424 0.950 . S
H1417 C1429 0.950 . S
H1418 C1426 0.950 . S
H1419 C1428 0.950 . S
H1420 C1430 0.950 . S
H1421 C1432 0.950 . S
H1422 C1434 0.950 . S
H1423 C1435 0.950 . S
C1424 H1416 0.950 . S
C1424 C1425 1.386 . S
C1424 C1426 1.391 . S
C1425 C1424 1.386 . S
C1425 C1429 1.393 . S
C1426 H1418 0.950 . S
C1426 C1424 1.391 . S
C1426 C1427 1.400 . S
C1427 C1426 1.400 . S
C1427 C1428 1.398 . S
C1427 C1433 1.491 . S
C1428 H1419 0.950 . S
C1428 C1427 1.398 . S
C1428 C1429 1.391 . S
C1429 H1417 0.950 . S
C1429 C1425 1.393 . S
C1429 C1428 1.391 . S
C1430 H1420 0.950 . S
C1430 C1431 1.386 . S
C1430 C1432 1.391 . S
C1431 C1430 1.386 . S
C1431 C1435 1.393 . S
C1432 H1421 0.950 . S
C1432 C1430 1.391 . S
C1432 C1433 1.400 . S
C1433 C1427 1.491 . S
C1433 C1432 1.400 . S
C1433 C1434 1.398 . S
C1434 H1422 0.950 . S
C1434 C1433 1.398 . S
C1434 C1435 1.391 . S
C1435 H1423 0.950 . S
C1435 C1431 1.393 . S
C1435 C1434 1.391 . S
H1436 C1444 0.950 . S
H1437 C1449 0.950 . S
H1438 C1446 0.950 . S
H1439 C1448 0.950 . S
H1440 C1450 0.950 . S
H1441 C1452 0.950 . S
H1442 C1454 0.950 . S
H1443 C1455 0.950 . S
C1444 H1436 0.950 . S
C1444 C1445 1.386 . S
C1444 C1446 1.391 . S
C1445 C1444 1.386 . S
C1445 C1449 1.393 . S
C1446 H1438 0.950 . S
C1446 C1444 1.391 . S
C1446 C1447 1.400 . S
C1447 C1446 1.400 . S
C1447 C1448 1.398 . S
C1447 C1453 1.491 . S
C1448 H1439 0.950 . S
C1448 C1447 1.398 . S
C1448 C1449 1.391 . S
C1449 H1437 0.950 . S
C1449 C1445 1.393 . S
C1449 C1448 1.391 . S
C1450 H1440 0.950 . S
C1450 C1451 1.386 . S
C1450 C1452 1.391 . S
C1451 C1450 1.386 . S
C1451 C1455 1.393 . S
C1452 H1441 0.950 . S
C1452 C1450 1.391 . S
C1452 C1453 1.400 . S
C1453 C1447 1.491 . S
C1453 C1452 1.400 . S
C1453 C1454 1.398 . S
C1454 H1442 0.950 . S
C1454 C1453 1.398 . S
C1454 C1455 1.391 . S
C1455 H1443 0.950 . S
C1455 C1451 1.393 . S
C1455 C1454 1.391 . S
H1456 C1464 0.950 . S
H1457 C1469 0.950 . S
H1458 C1466 0.950 . S
H1459 C1468 0.950 . S
H1460 C1470 0.950 . S
H1461 C1472 0.950 . S
H1462 C1474 0.950 . S
H1463 C1475 0.950 . S
C1464 H1456 0.950 . S
C1464 C1465 1.386 . S
C1464 C1466 1.391 . S
C1465 C1464 1.386 . S
C1465 C1469 1.393 . S
C1466 H1458 0.950 . S
C1466 C1464 1.391 . S
C1466 C1467 1.400 . S
C1467 C1466 1.400 . S
C1467 C1468 1.398 . S
C1467 C1473 1.491 . S
C1468 H1459 0.950 . S
C1468 C1467 1.398 . S
C1468 C1469 1.391 . S
C1469 H1457 0.950 . S
C1469 C1465 1.393 . S
C1469 C1468 1.391 . S
C1470 H1460 0.950 . S
C1470 C1471 1.386 . S
C1470 C1472 1.391 . S
C1471 C1470 1.386 . S
C1471 C1475 1.393 . S
C1472 H1461 0.950 . S
C1472 C1470 1.391 . S
C1472 C1473 1.400 . S
C1473 C1467 1.491 . S
C1473 C1472 1.400 . S
C1473 C1474 1.398 . S
C1474 H1462 0.950 . S
C1474 C1473 1.398 . S
C1474 C1475 1.391 . S
C1475 H1463 0.950 . S
C1475 C1471 1.393 . S
C1475 C1474 1.391 . S
H1476 C1484 0.950 . S
H1477 C1489 0.950 . S
H1478 C1486 0.950 . S
H1479 C1488 0.950 . S
H1480 C1490 0.950 . S
H1481 C1492 0.950 . S
H1482 C1494 0.950 . S
H1483 C1495 0.950 . S
C1484 H1476 0.950 . S
C1484 C1485 1.386 . S
C1484 C1486 1.391 . S
C1485 C1484 1.386 . S
C1485 C1489 1.393 . S
C1486 H1478 0.950 . S
C1486 C1484 1.391 . S
C1486 C1487 1.400 . S
C1487 C1486 1.400 . S
C1487 C1488 1.398 . S
C1487 C1493 1.491 . S
C1488 H1479 0.950 . S
C1488 C1487 1.398 . S
C1488 C1489 1.391 . S
C1489 H1477 0.950 . S
C1489 C1485 1.393 . S
C1489 C1488 1.391 . S
C1490 H1480 0.950 . S
C1490 C1491 1.386 . S
C1490 C1492 1.391 . S
C1491 C1490 1.386 . S
C1491 C1495 1.393 . S
C1492 H1481 0.950 . S
C1492 C1490 1.391 . S
C1492 C1493 1.400 . S
C1493 C1487 1.491 . S
C1493 C1492 1.400 . S
C1493 C1494 1.398 . S
C1494 H1482 0.950 . S
C1494 C1493 1.398 . S
C1494 C1495 1.391 . S
C1495 H1483 0.950 . S
C1495 C1491 1.393 . S
C1495 C1494 1.391 . S
H1496 C1504 0.950 . S
H1497 C1509 0.950 . S
H1498 C1506 0.950 . S
H1499 C1508 0.950 . S
H1500 C1510 0.950 . S
H1501 C1512 0.950 . S
H1502 C1514 0.950 . S
H1503 C1515 0.950 . S
C1504 H1496 0.950 . S
C1504 C1505 1.386 . S
C1504 C1506 1.391 . S
C1505 C1504 1.386 . S
C1505 C1509 1.393 . S
C1506 H1498 0.950 . S
C1506 C1504 1.391 . S
C1506 C1507 1.400 . S
C1507 C1506 1.400 . S
C1507 C1508 1.398 . S
C1507 C1513 1.491 . S
C1508 H1499 0.950 . S
C1508 C1507 1.398 . S
C1508 C1509 1.391 . S
C1509 H1497 0.950 . S
C1509 C1505 1.393 . S
C1509 C1508 1.391 . S
C1510 H1500 0.950 . S
C1510 C1511 1.386 . S
C1510 C1512 1.391 . S
C1511 C1510 1.386 . S
C1511 C1515 1.393 . S
C1512 H1501 0.950 . S
C1512 C1510 1.391 . S
C1512 C1513 1.400 . S
C1513 C1507 1.491 . S
C1513 C1512 1.400 . S
C1513 C1514 1.398 . S
C1514 H1502 0.950 . S
C1514 C1513 1.398 . S
C1514 C1515 1.391 . S
C1515 H1503 0.950 . S
C1515 C1511 1.393 . S
C1515 C1514 1.391 . S
H1516 C1524 0.950 . S
H1517 C1529 0.950 . S
H1518 C1526 0.950 . S
H1519 C1528 0.950 . S
H1520 C1530 0.950 . S
H1521 C1532 0.950 . S
H1522 C1534 0.950 . S
H1523 C1535 0.950 . S
C1524 H1516 0.950 . S
C1524 C1525 1.386 . S
C1524 C1526 1.391 . S
C1525 C1524 1.386 . S
C1525 C1529 1.393 . S
C1526 H1518 0.950 . S
C1526 C1524 1.391 . S
C1526 C1527 1.400 . S
C1527 C1526 1.400 . S
C1527 C1528 1.398 . S
C1527 C1533 1.491 . S
C1528 H1519 0.950 . S
C1528 C1527 1.398 . S
C1528 C1529 1.391 . S
C1529 H1517 0.950 . S
C1529 C1525 1.393 . S
C1529 C1528 1.391 . S
C1530 H1520 0.950 . S
C1530 C1531 1.386 . S
C1530 C1532 1.391 . S
C1531 C1530 1.386 . S
C1531 C1535 1.393 . S
C1532 H1521 0.950 . S
C1532 C1530 1.391 . S
C1532 C1533 1.400 . S
C1533 C1527 1.491 . S
C1533 C1532 1.400 . S
C1533 C1534 1.398 . S
C1534 H1522 0.950 . S
C1534 C1533 1.398 . S
C1534 C1535 1.391 . S
C1535 H1523 0.950 . S
C1535 C1531 1.393 . S
C1535 C1534 1.391 . S
C1065 C929 1.608 . S
C1071 C57 1.596 . S
C1085 C117 1.511 . S
C1091 C1017 1.506 . S
C1105 C205 1.561 . S
C1111 C577 1.559 . S
C1125 C636 1.606 . S
C1131 C293 1.597 . S
C1145 C761 1.501 . S
C1151 C372 1.513 . S
C1165 C460 1.567 . S
C1171 C849 1.551 . S
C1185 C49 0.570 . S
C1191 C645 0.560 . S
C1205 C137 1.312 . S
C1211 C724 1.301 . S
C1225 C812 1.232 . S
C1231 C225 1.220 . S
C1245 C937 0.528 . S
C1251 C284 0.531 . S
C1265 C997 1.302 . S
C1271 C409 1.314 . S
C1285 C557 1.209 . S
C1291 C497 1.197 . S
C1305 C20 1.057 . S
C1311 C381 0.974 . S
C1325 C145 0.809 . S
C1331 C469 0.785 . S
C1345 C233 0.897 . S
C1351 C29 0.936 . S
C1365 C313 1.060 . S
C1371 C108 0.952 . S
C1385 C401 0.802 . S
C1391 C196 0.790 . S
C1405 C489 0.931 . S
C1411 C321 0.917 . S
C1425 C548 0.810 . S
C1431 C753 0.784 . S
C1445 C673 0.943 . S
C1451 C841 0.924 . S
C1465 C900 1.040 . S
C1471 C733 0.978 . S
C1485 C821 0.809 . S
C1491 C1025 0.785 . S
C1505 C909 0.941 . S
C1511 C585 0.929 . S
C1525 C988 0.931 . S
C1531 C665 1.049 . S
