# Generated by pormake.
# Topology umm, (4)-cn, num edge types: 1
# Building blocks:
#     Node 0, Type 0, BuildingBlock: ESEHIV_clean_sbu_0, # of connection points: 4
#     Node 1, Type 0, BuildingBlock: ESEHIV_clean_sbu_0, # of connection points: 4
#     Node 2, Type 0, BuildingBlock: ESEHIV_clean_sbu_0, # of connection points: 4
#     Node 3, Type 0, BuildingBlock: ESEHIV_clean_sbu_0, # of connection points: 4
#     Node 4, Type 0, BuildingBlock: ESEHIV_clean_sbu_0, # of connection points: 4
#     Node 5, Type 0, BuildingBlock: ESEHIV_clean_sbu_0, # of connection points: 4
#     Node 6, Type 0, BuildingBlock: ESEHIV_clean_sbu_0, # of connection points: 4
#     Node 7, Type 0, BuildingBlock: ESEHIV_clean_sbu_0, # of connection points: 4
#     Node 8, Type 0, BuildingBlock: ESEHIV_clean_sbu_0, # of connection points: 4
#     Node 9, Type 0, BuildingBlock: ESEHIV_clean_sbu_0, # of connection points: 4
#     Node 10, Type 0, BuildingBlock: ESEHIV_clean_sbu_0, # of connection points: 4
#     Node 11, Type 0, BuildingBlock: ESEHIV_clean_sbu_0, # of connection points: 4
#     Edge 12, Type (0, 0), BuildingBlock: CIFDUS_clean_linker_0, # of connection points: 2
#     Edge 13, Type (0, 0), BuildingBlock: CIFDUS_clean_linker_0, # of connection points: 2
#     Edge 14, Type (0, 0), BuildingBlock: CIFDUS_clean_linker_0, # of connection points: 2
#     Edge 15, Type (0, 0), BuildingBlock: CIFDUS_clean_linker_0, # of connection points: 2
#     Edge 16, Type (0, 0), BuildingBlock: CIFDUS_clean_linker_0, # of connection points: 2
#     Edge 17, Type (0, 0), BuildingBlock: CIFDUS_clean_linker_0, # of connection points: 2
#     Edge 18, Type (0, 0), BuildingBlock: CIFDUS_clean_linker_0, # of connection points: 2
#     Edge 19, Type (0, 0), BuildingBlock: CIFDUS_clean_linker_0, # of connection points: 2
#     Edge 20, Type (0, 0), BuildingBlock: CIFDUS_clean_linker_0, # of connection points: 2
#     Edge 21, Type (0, 0), BuildingBlock: CIFDUS_clean_linker_0, # of connection points: 2
#     Edge 22, Type (0, 0), BuildingBlock: CIFDUS_clean_linker_0, # of connection points: 2
#     Edge 23, Type (0, 0), BuildingBlock: CIFDUS_clean_linker_0, # of connection points: 2
#     Edge 24, Type (0, 0), BuildingBlock: CIFDUS_clean_linker_0, # of connection points: 2
#     Edge 25, Type (0, 0), BuildingBlock: CIFDUS_clean_linker_0, # of connection points: 2
#     Edge 26, Type (0, 0), BuildingBlock: CIFDUS_clean_linker_0, # of connection points: 2
#     Edge 27, Type (0, 0), BuildingBlock: CIFDUS_clean_linker_0, # of connection points: 2
#     Edge 28, Type (0, 0), BuildingBlock: CIFDUS_clean_linker_0, # of connection points: 2
#     Edge 29, Type (0, 0), BuildingBlock: CIFDUS_clean_linker_0, # of connection points: 2
#     Edge 30, Type (0, 0), BuildingBlock: CIFDUS_clean_linker_0, # of connection points: 2
#     Edge 31, Type (0, 0), BuildingBlock: CIFDUS_clean_linker_0, # of connection points: 2
#     Edge 32, Type (0, 0), BuildingBlock: CIFDUS_clean_linker_0, # of connection points: 2
#     Edge 33, Type (0, 0), BuildingBlock: CIFDUS_clean_linker_0, # of connection points: 2
#     Edge 34, Type (0, 0), BuildingBlock: CIFDUS_clean_linker_0, # of connection points: 2
#     Edge 35, Type (0, 0), BuildingBlock: CIFDUS_clean_linker_0, # of connection points: 2
# Relax obj value: 0.042
# Max RMSD: 0.105
# Mean RMSD: 0.105
data_MOF--net-umm--node1-ESEHIV_clean_sbu_0--edge1-CIFDUS_clean_linker_0
_symmetry_space_group_name_H-M    P1
_symmetry_Int_Tables_number       1
_symmetry_cell_setting            triclinic
loop_
_symmetry_equiv_pos_as_xyz
'x, y, z'
_cell_length_a     59.163002
_cell_length_b     59.179065
_cell_length_c     24.994439
_cell_angle_alpha  89.876702
_cell_angle_beta   90.220903
_cell_angle_gamma 120.3349
loop_
_atom_site_label
_atom_site_type_symbol
_atom_site_fract_x
_atom_site_fract_y
_atom_site_fract_z
_atom_type_partial_charge
Cu0 Cu 0.42981 0.57698 0.09191 0.0
N1 N 0.43973 0.55197 0.10195 0.0
N2 N 0.46726 0.5369 0.114 0.0
C3 C 0.46371 0.55763 0.11845 0.0
C4 C 0.44448 0.51736 0.09405 0.0
C5 C 0.42755 0.52676 0.0865 0.0
O6 O 0.44533 0.60154 0.15113 0.0
C7 C 0.44473 0.6114 0.99906 0.0
O8 O 0.44104 0.62796 1.02729 0.0
H9 H 0.47882 0.5771 0.13016 0.0
H10 H 0.40827 0.51634 0.06854 0.0
N11 N 0.39343 0.56218 0.09215 0.0
N12 N 0.35396 0.55783 0.07971 0.0
C13 C 0.38003 0.57322 0.07243 0.0
C14 C 0.37525 0.53897 0.1124 0.0
C15 C 0.3509 0.53624 0.10488 0.0
C16 C 0.4362 0.59226 0.1973 0.0
O17 O 0.41641 0.56816 0.20065 0.0
H18 H 0.3893 0.59239 0.05405 0.0
H19 H 0.37941 0.5251 0.13174 0.0
O20 O 0.44211 0.5908 1.02089 0.0
H21 H 0.44056 0.49792 0.08408 0.0
H22 H 0.33239 0.51953 0.11664 0.0
Cu23 Cu 0.87412 0.41873 0.43912 0.0
N24 N 0.90856 0.42574 0.43867 0.0
N25 N 0.95222 0.4497 0.435 0.0
C26 C 0.92937 0.44842 0.42275 0.0
C27 C 0.94541 0.42656 0.45855 0.0
C28 C 0.91844 0.41184 0.46089 0.0
O29 O 0.86943 0.43266 0.50654 0.0
C30 C 0.87444 0.42802 0.32954 0.0
O31 O 0.88123 0.41004 0.32857 0.0
H32 H 0.92768 0.46413 0.4046 0.0
H33 H 0.90691 0.39299 0.48001 0.0
N34 N 0.85098 0.38259 0.44051 0.0
N35 N 0.81915 0.34193 0.42106 0.0
C36 C 0.8341 0.36668 0.40276 0.0
C37 C 0.84654 0.36739 0.48381 0.0
C38 C 0.82693 0.34233 0.47201 0.0
C39 C 0.88607 0.45533 0.5239 0.0
O40 O 0.90513 0.47146 0.49228 0.0
H41 H 0.83216 0.37321 0.36344 0.0
H42 H 0.8566 0.37425 0.52172 0.0
O43 O 0.86938 0.43459 0.37458 0.0
H44 H 0.9589 0.42128 0.4759 0.0
H45 H 0.81897 0.32569 0.49882 0.0
Cu46 Cu 0.49752 0.87712 0.79215 0.0
N47 N 0.5207 0.91285 0.80085 0.0
N48 N 0.53425 0.95559 0.80379 0.0
C49 C 0.51344 0.93103 0.80246 0.0
C50 C 0.55546 0.95265 0.80315 0.0
C51 C 0.54704 0.92627 0.80116 0.0
O52 O 0.47328 0.86563 0.85241 0.0
C53 C 0.46157 0.85427 0.70248 0.0
O54 O 0.4474 0.83358 0.73243 0.0
H55 H 0.49322 0.92625 0.80008 0.0
H56 H 0.55929 0.91764 0.79823 0.0
N57 N 0.51509 0.85826 0.78977 0.0
N58 N 0.52516 0.82821 0.76419 0.0
C59 C 0.50868 0.83754 0.75791 0.0
C60 C 0.53638 0.86216 0.8173 0.0
C61 C 0.54267 0.84369 0.80153 0.0
C62 C 0.48304 0.86777 0.89903 0.0
O63 O 0.50824 0.87651 0.90344 0.0
H64 H 0.49247 0.82974 0.72998 0.0
H65 H 0.54666 0.87734 0.8468 0.0
O66 O 0.48173 0.87394 0.72222 0.0
H67 H 0.57565 0.9684 0.80317 0.0
H68 H 0.55865 0.84162 0.81693 0.0
Cu69 Cu 0.63958 0.49239 0.10108 0.0
N70 N 0.62595 0.51431 0.11251 0.0
N71 N 0.59555 0.52616 0.115 0.0
C72 C 0.60068 0.50687 0.10395 0.0
C73 C 0.61864 0.54658 0.13146 0.0
C74 C 0.6374 0.53923 0.12974 0.0
O75 O 0.62887 0.46821 0.16111 0.0
C76 C 0.62632 0.45749 1.00964 0.0
O77 O 0.64285 0.45051 1.02721 0.0
H78 H 0.58628 0.48747 0.09033 0.0
H79 H 0.65789 0.55121 0.14008 0.0
N80 N 0.67624 0.51124 0.09426 0.0
N81 N 0.7166 0.52275 0.06663 0.0
C82 C 0.69069 0.50856 0.0559 0.0
C83 C 0.69376 0.52823 0.12974 0.0
C84 C 0.71861 0.53522 0.113 0.0
C85 C 0.63457 0.47729 0.20849 0.0
O86 O 0.64829 0.50273 0.21545 0.0
H87 H 0.68247 0.49578 1.02172 0.0
H88 H 0.68893 0.53474 0.16597 0.0
O89 O 0.62286 0.47394 0.03557 0.0
H90 H 0.62188 0.56562 0.14297 0.0
H91 H 0.73674 0.54823 0.13363 0.0
Cu92 Cu 0.18105 0.59131 0.4437 0.0
N93 N 0.14597 0.58265 0.4444 0.0
N94 N 0.10229 0.55873 0.43941 0.0
C95 C 0.1252 0.56055 0.42576 0.0
C96 C 0.10896 0.58094 0.46665 0.0
C97 C 0.13591 0.59561 0.46971 0.0
O98 O 0.18822 0.57446 0.50323 0.0
C99 C 0.18069 0.56037 0.35359 0.0
O100 O 0.16445 0.53921 0.38032 0.0
H101 H 0.12682 0.54552 0.40475 0.0
H102 H 0.14733 0.61383 0.49115 0.0
N103 N 0.20233 0.62746 0.45269 0.0
N104 N 0.23102 0.66965 0.43627 0.0
C105 C 0.21616 0.64551 0.41496 0.0
C106 C 0.20851 0.64059 0.49929 0.0
C107 C 0.22621 0.6666 0.48934 0.0
C108 C 0.1707 0.55448 0.52816 0.0
O109 O 0.14644 0.54262 0.51071 0.0
H110 H 0.21599 0.64086 0.37304 0.0
H111 H 0.20099 0.63173 0.53791 0.0
O112 O 0.1897 0.58284 0.37484 0.0
H113 H 0.09541 0.58554 0.4858 0.0
H114 H 0.23492 0.68205 0.5189 0.0
Cu115 Cu 0.5469 0.15316 0.78437 0.0
N116 N 0.52292 0.11772 0.79352 0.0
N117 N 0.5091 0.07511 0.80243 0.0
C118 C 0.52998 0.09953 0.79855 0.0
C119 C 0.48798 0.0782 0.80007 0.0
C120 C 0.4966 0.10458 0.7944 0.0
O121 O 0.57088 0.16376 0.84552 0.0
C122 C 0.58199 0.17488 0.69323 0.0
O123 O 0.5955 0.19668 0.7205 0.0
H124 H 0.55021 0.10431 0.79945 0.0
H125 H 0.48458 0.11348 0.79044 0.0
N126 N 0.5305 0.17316 0.78146 0.0
N127 N 0.52133 0.20367 0.75451 0.0
C128 C 0.53354 0.19029 0.74258 0.0
C129 C 0.51552 0.1756 0.81883 0.0
C130 C 0.50999 0.19456 0.80247 0.0
C131 C 0.56037 0.15768 0.89178 0.0
O132 O 0.53473 0.14528 0.89518 0.0
H133 H 0.54532 0.19365 0.70722 0.0
H134 H 0.50938 0.1648 0.85591 0.0
O135 O 0.56259 0.15526 0.71497 0.0
H136 H 0.46776 0.06253 0.80101 0.0
H137 H 0.49872 0.20129 0.82425 0.0
Cu138 Cu 0.50466 0.63939 0.60173 0.0
N139 N 0.52401 0.62241 0.60446 0.0
N140 N 0.53307 0.58996 0.60207 0.0
C141 C 0.51651 0.59821 0.58624 0.0
C142 C 0.55184 0.61008 0.63084 0.0
C143 C 0.54615 0.62995 0.63232 0.0
O144 O 0.48324 0.62884 0.53712 0.0
C145 C 0.47233 0.60806 0.68709 0.0
O146 O 0.4712 0.58855 0.65988 0.0
H147 H 0.49867 0.5866 0.56368 0.0
H148 H 0.55666 0.64809 0.65445 0.0
N149 N 0.52686 0.67558 0.60297 0.0
N150 N 0.54189 0.71733 0.62542 0.0
C151 C 0.52142 0.69257 0.62704 0.0
C152 C 0.55164 0.68996 0.58542 0.0
C153 C 0.56098 0.71578 0.59917 0.0
C154 C 0.49384 0.63773 0.49175 0.0
O155 O 0.51912 0.65443 0.48965 0.0
H156 H 0.5031 0.68663 0.64723 0.0
H157 H 0.56233 0.68215 0.56512 0.0
O158 O 0.48418 0.63092 0.667 0.0
H159 H 0.56779 0.61002 0.65198 0.0
H160 H 0.58036 0.73205 0.59086 0.0
Cu161 Cu 0.8975 0.50425 0.92934 0.0
N162 N 0.9315 0.53285 0.93516 0.0
N163 N 0.97528 0.55689 0.93466 0.0
C164 C 0.95407 0.53257 0.93089 0.0
C165 C 0.96557 0.57299 0.94172 0.0
C166 C 0.9386 0.55812 0.94207 0.0
O167 O 0.89504 0.48785 0.86031 0.0
C168 C 0.89292 0.49111 0.03782 0.0
O169 O 0.90027 0.51602 0.04216 0.0
H170 H 0.95485 0.51494 0.92381 0.0
H171 H 0.92509 0.56523 0.94658 0.0
N172 N 0.87351 0.516 0.92802 0.0
N173 N 0.84063 0.52266 0.94905 0.0
C174 C 0.85531 0.51224 0.96475 0.0
C175 C 0.87014 0.52912 0.88768 0.0
C176 C 0.84986 0.53325 0.90049 0.0
C177 C 0.87355 0.4703 0.83979 0.0
O178 O 0.85202 0.46042 0.86834 0.0
H179 H 0.85242 0.50154 1.00164 0.0
H180 H 0.88156 0.53509 0.85131 0.0
O181 O 0.89054 0.48138 0.99119 0.0
H182 H 0.9771 0.59402 0.9466 0.0
H183 H 0.84267 0.54348 0.87625 0.0
Cu184 Cu 0.4184 0.8643 0.30084 0.0
N185 N 0.42632 0.89914 0.29933 0.0
N186 N 0.45078 0.94289 0.29486 0.0
C187 C 0.44931 0.91981 0.28385 0.0
C188 C 0.42749 0.93628 0.31738 0.0
C189 C 0.41252 0.90934 0.3202 0.0
O190 O 0.43374 0.85818 0.23747 0.0
C191 C 0.45416 0.87478 0.38738 0.0
O192 O 0.47089 0.89469 0.35817 0.0
H193 H 0.46495 0.91782 0.2666 0.0
H194 H 0.39346 0.89802 0.33853 0.0
N195 N 0.38225 0.8409 0.3024 0.0
N196 N 0.34425 0.80588 0.32644 0.0
C197 C 0.3705 0.81923 0.33305 0.0
C198 C 0.36273 0.84143 0.2756 0.0
C199 C 0.33925 0.81972 0.29011 0.0
C200 C 0.42561 0.86037 0.19147 0.0
O201 O 0.40678 0.86592 0.18864 0.0
H202 H 0.3811 0.81329 0.35947 0.0
H203 H 0.36533 0.85662 0.24792 0.0
O204 O 0.43172 0.85883 0.3681 0.0
H205 H 0.42212 0.94988 0.33345 0.0
H206 H 0.31999 0.81483 0.27598 0.0
Cu207 Cu 0.56587 0.40899 0.60175 0.0
N208 N 0.54572 0.4251 0.59873 0.0
N209 N 0.5368 0.45765 0.59736 0.0
C210 C 0.55563 0.45111 0.5951 0.0
C211 C 0.5141 0.4346 0.60229 0.0
C212 C 0.51968 0.41459 0.60317 0.0
O213 O 0.58869 0.42068 0.5397 0.0
C214 C 0.57371 0.41706 0.71082 0.0
O215 O 0.54826 0.40734 0.7086 0.0
H216 H 0.57637 0.46488 0.59137 0.0
H217 H 0.50583 0.39393 0.60817 0.0
N218 N 0.54527 0.37247 0.6042 0.0
N219 N 0.53157 0.33154 0.63092 0.0
C220 C 0.54898 0.35713 0.6387 0.0
C221 C 0.52457 0.35597 0.57388 0.0
C222 C 0.51622 0.33062 0.59001 0.0
C223 C 0.57902 0.41396 0.4929 0.0
O224 O 0.55374 0.39789 0.48749 0.0
H225 H 0.56435 0.36457 0.66862 0.0
H226 H 0.51595 0.36187 0.54264 0.0
O227 O 0.58615 0.41998 0.66752 0.0
H228 H 0.49487 0.4323 0.60681 0.0
H229 H 0.49984 0.31295 0.57378 0.0
Cu230 Cu 0.17367 0.55567 0.93215 0.0
N231 N 0.15419 0.57256 0.92969 0.0
N232 N 0.1182 0.57602 0.93217 0.0
C233 C 0.12786 0.55964 0.93111 0.0
C234 C 0.13952 0.60033 0.93103 0.0
C235 C 0.1617 0.59813 0.92964 0.0
O236 O 0.16354 0.53351 0.86875 0.0
C237 C 0.17472 0.55471 0.03915 0.0
O238 O 0.18534 0.57967 1.02724 0.0
H239 H 0.11611 0.5385 0.93161 0.0
H240 H 0.18181 0.61402 0.92993 0.0
N241 N 0.20999 0.5785 0.9321 0.0
N242 N 0.25181 0.59115 0.95039 0.0
C243 C 0.22647 0.5729 0.95826 0.0
C244 C 0.22535 0.60117 0.90632 0.0
C245 C 0.25125 0.60903 0.9175 0.0
C246 C 0.1802 0.53305 0.83728 0.0
O247 O 0.20459 0.54313 0.85317 0.0
H248 H 0.21984 0.55504 0.98087 0.0
H249 H 0.2183 0.61092 0.8803 0.0
O250 O 0.16612 0.53805 1.00117 0.0
H251 H 0.13923 0.61845 0.93272 0.0
H252 H 0.26826 0.62638 0.9022 0.0
Cu253 Cu 0.62203 0.15427 0.29442 0.0
N254 N 0.61297 0.11907 0.29437 0.0
N255 N 0.58804 0.07534 0.29149 0.0
C256 C 0.58958 0.09846 0.28038 0.0
C257 C 0.61163 0.08184 0.31259 0.0
C258 C 0.62689 0.10876 0.31442 0.0
O259 O 0.60674 0.16075 0.23099 0.0
C260 C 0.5877 0.146 0.38194 0.0
O261 O 0.57047 0.1257 0.3542 0.0
H262 H 0.57378 0.10052 0.26387 0.0
H263 H 0.64635 0.12003 0.3313 0.0
N264 N 0.6584 0.17639 0.29433 0.0
N265 N 0.69757 0.2105 0.31553 0.0
C266 C 0.67148 0.19841 0.32359 0.0
C267 C 0.6769 0.17432 0.26721 0.0
C268 C 0.70111 0.19549 0.2799 0.0
C269 C 0.61533 0.15971 0.18485 0.0
O270 O 0.63451 0.15471 0.18145 0.0
H271 H 0.66201 0.20548 0.3502 0.0
H272 H 0.67313 0.15838 0.24065 0.0
O273 O 0.61001 0.16132 0.36156 0.0
H274 H 0.61711 0.0682 0.3282 0.0
H275 H 0.71988 0.19919 0.26527 0.0
H276 H 0.41765 0.5793 0.29837 0.0
H277 H 0.48404 0.63712 0.20865 0.0
H278 H 0.50724 0.6571 0.29225 0.0
H279 H 0.50973 0.65613 0.39063 0.0
H280 H 0.4432 0.59794 0.47965 0.0
H281 H 0.41897 0.58014 0.39633 0.0
C282 C 0.43712 0.59642 0.29696 0.0
C283 C 0.44916 0.60657 0.24721 0.0
C284 C 0.45038 0.60761 0.34508 0.0
C285 C 0.4743 0.62891 0.2463 0.0
C286 C 0.48762 0.64026 0.29413 0.0
C287 C 0.48987 0.63965 0.39189 0.0
C288 C 0.47841 0.62825 0.44145 0.0
C289 C 0.47604 0.62945 0.34373 0.0
C290 C 0.45256 0.60706 0.44221 0.0
C291 C 0.43869 0.59683 0.39453 0.0
H292 H 0.85052 0.42673 0.60221 0.0
H293 H 0.9225 0.49958 0.57508 0.0
H294 H 0.92552 0.50995 0.67 0.0
H295 H 0.90829 0.49833 0.76127 0.0
H296 H 0.83551 0.42655 0.78898 0.0
H297 H 0.8324 0.41575 0.69375 0.0
C298 C 0.86676 0.44497 0.61697 0.0
C299 C 0.88624 0.4623 0.5812 0.0
C300 C 0.86842 0.45093 0.67198 0.0
C301 C 0.90714 0.48585 0.60132 0.0
C302 C 0.90899 0.49178 0.65582 0.0
C303 C 0.89184 0.4802 0.7466 0.0
C304 C 0.8723 0.46315 0.78242 0.0
C305 C 0.88988 0.4744 0.6916 0.0
C306 C 0.85089 0.43999 0.7624 0.0
C307 C 0.84907 0.43382 0.70787 0.0
H308 H 0.49682 0.86355 1.00065 0.0
H309 H 0.43376 0.86097 0.90831 0.0
H310 H 0.40993 0.85721 0.99081 0.0
H311 H 0.4083 0.85738 0.08924 0.0
H312 H 0.47133 0.85967 0.18125 0.0
H313 H 0.49382 0.86069 0.09863 0.0
C314 C 0.47777 0.86199 0.99844 0.0
C315 C 0.4672 0.86277 0.94826 0.0
C316 C 0.46424 0.8599 0.04599 0.0
C317 C 0.44237 0.86044 0.94628 0.0
C318 C 0.42878 0.85839 0.99349 0.0
C319 C 0.4269 0.85794 0.0913 0.0
C320 C 0.43821 0.85867 0.14153 0.0
C321 C 0.43973 0.85854 0.04359 0.0
C322 C 0.46217 0.85912 0.14329 0.0
C323 C 0.47509 0.85979 0.09601 0.0
H324 H 0.65187 0.48841 0.31086 0.0
H325 H 0.5927 0.42735 0.21196 0.0
H326 H 0.5713 0.40131 0.29169 0.0
H327 H 0.56727 0.39782 0.38972 0.0
H328 H 0.62689 0.45868 0.48835 0.0
H329 H 0.65042 0.48276 0.4084 0.0
C330 C 0.63444 0.46928 0.30671 0.0
C331 C 0.62369 0.45996 0.25565 0.0
C332 C 0.62227 0.45445 0.35266 0.0
C333 C 0.60133 0.43499 0.25082 0.0
C334 C 0.58902 0.42015 0.29642 0.0
C335 C 0.58557 0.41622 0.39372 0.0
C336 C 0.59514 0.4266 0.44492 0.0
C337 C 0.59898 0.42997 0.34757 0.0
C338 C 0.61906 0.45027 0.44946 0.0
C339 C 0.63247 0.46412 0.40373 0.0
H340 H 0.13618 0.52378 0.60463 0.0
H341 H 0.2189 0.56963 0.57082 0.0
H342 H 0.22899 0.56321 0.6625 0.0
H343 H 0.21441 0.54932 0.75449 0.0
H344 H 0.13178 0.50675 0.79022 0.0
H345 H 0.12156 0.5067 0.69532 0.0
C346 C 0.15643 0.53198 0.61698 0.0
C347 C 0.17677 0.54734 0.58096 0.0
C348 C 0.16209 0.5289 0.67024 0.0
C349 C 0.20288 0.55789 0.59779 0.0
C350 C 0.20866 0.55425 0.65026 0.0
C351 C 0.19414 0.53948 0.74148 0.0
C352 C 0.17388 0.52815 0.77951 0.0
C353 C 0.18844 0.54046 0.68722 0.0
C354 C 0.14774 0.51568 0.76183 0.0
C355 C 0.14189 0.51578 0.70759 0.0
H356 H 0.63461 0.16746 0.08358 0.0
H357 H 0.56823 0.15757 0.17419 0.0
H358 H 0.54621 0.15768 0.09132 0.0
H359 H 0.54462 0.15773 0.99325 0.0
H360 H 0.61102 0.16819 0.90209 0.0
H361 H 0.63439 0.17099 0.98526 0.0
C362 C 0.61539 0.16549 0.08527 0.0
C363 C 0.60298 0.16224 0.13511 0.0
C364 C 0.60285 0.16562 0.03741 0.0
C365 C 0.57822 0.16005 0.13651 0.0
C366 C 0.56558 0.16003 0.08909 0.0
C367 C 0.5643 0.16081 0.99148 0.0
C368 C 0.57597 0.16248 0.94145 0.0
C369 C 0.57753 0.16237 0.03934 0.0
C370 C 0.60159 0.16683 0.93998 0.0
C371 C 0.6149 0.16831 0.98755 0.0
H372 H 0.35465 0.58783 0.99711 0.0
H373 H 0.30728 0.54019 0.12838 0.0
H374 H 0.27197 0.54768 0.10141 0.0
H375 H 0.25404 0.56666 0.03954 0.0
H376 H 0.30036 0.61325 0.90625 0.0
H377 H 0.33692 0.60809 0.93615 0.0
C378 C 0.33672 0.57933 1.02014 0.0
C379 C 0.3336 0.56327 0.06452 0.0
C380 C 0.31635 0.58366 1.00423 0.0
C381 C 0.31008 0.55222 0.09356 0.0
C382 C 0.28991 0.55663 0.07835 0.0
C383 C 0.27203 0.57557 1.01668 0.0
C384 C 0.27423 0.59006 0.97024 0.0
C385 C 0.29272 0.57206 0.03344 0.0
C386 C 0.29807 0.60209 0.94221 0.0
C387 C 0.31894 0.59897 0.95909 0.0
H388 H 0.77404 0.3041 0.46283 0.0
H389 H 0.8181 0.32999 0.31642 0.0
H390 H 0.78412 0.29103 0.26998 0.0
H391 H 0.74209 0.24896 0.27199 0.0
H392 H 0.69756 0.22439 0.41806 0.0
H393 H 0.73143 0.26337 0.4639 0.0
C394 C 0.7762 0.30113 0.42081 0.0
C395 C 0.79862 0.31971 0.39314 0.0
C396 C 0.7565 0.2789 0.39446 0.0
C397 C 0.80096 0.31596 0.33841 0.0
C398 C 0.78161 0.29365 0.31201 0.0
C399 C 0.73995 0.25219 0.31387 0.0
C400 C 0.71746 0.23381 0.34174 0.0
C401 C 0.75937 0.27489 0.33974 0.0
C402 C 0.71462 0.23836 0.39576 0.0
C403 C 0.73402 0.26058 0.422 0.0
H404 H 0.56577 0.8212 0.74161 0.0
H405 H 0.48202 0.78563 0.7249 0.0
H406 H 0.47994 0.74836 0.67868 0.0
H407 H 0.50178 0.72559 0.64398 0.0
H408 H 0.58541 0.76059 0.66209 0.0
H409 H 0.58769 0.79842 0.70639 0.0
C410 C 0.54705 0.80521 0.72824 0.0
C411 C 0.5241 0.80625 0.73684 0.0
C412 C 0.54599 0.78377 0.70171 0.0
C413 C 0.50004 0.78552 0.71834 0.0
C414 C 0.49881 0.76411 0.69211 0.0
C415 C 0.52049 0.74138 0.65793 0.0
C416 C 0.54336 0.74013 0.64982 0.0
C417 C 0.52164 0.76299 0.68372 0.0
C418 C 0.56752 0.7611 0.66723 0.0
C419 C 0.56883 0.78269 0.69294 0.0
H420 H 0.75993 0.52534 0.10759 0.0
H421 H 0.71995 0.51971 0.95942 0.0
H422 H 0.7552 0.5193 0.90918 0.0
H423 H 0.79746 0.52051 0.90768 0.0
H424 H 0.83667 0.52482 0.0563 0.0
H425 H 0.80166 0.52568 0.10623 0.0
C426 C 0.7591 0.52428 0.06428 0.0
C427 C 0.73751 0.52279 0.03716 0.0
C428 C 0.77924 0.52369 0.03586 0.0
C429 C 0.73635 0.52081 0.98111 0.0
C430 C 0.75652 0.52064 0.95243 0.0
C431 C 0.79839 0.52181 0.95096 0.0
C432 C 0.81969 0.52271 0.97824 0.0
C433 C 0.77807 0.52208 0.9794 0.0
C434 C 0.82039 0.52389 0.03441 0.0
C435 C 0.80045 0.52452 0.06295 0.0
H436 H 0.27611 0.70943 0.47522 0.0
H437 H 0.22687 0.68342 0.33489 0.0
H438 H 0.25752 0.72382 0.28814 0.0
H439 H 0.29862 0.76667 0.28725 0.0
H440 H 0.34803 0.79186 0.42744 0.0
H441 H 0.31707 0.7518 0.4742 0.0
C442 C 0.27196 0.7127 0.43459 0.0
C443 C 0.24914 0.69347 0.40871 0.0
C444 C 0.28978 0.73586 0.4079 0.0
C445 C 0.24436 0.69781 0.3556 0.0
C446 C 0.26183 0.72097 0.32895 0.0
C447 C 0.30246 0.76342 0.32814 0.0
C448 C 0.32562 0.78224 0.35379 0.0
C449 C 0.28463 0.74015 0.3547 0.0
C450 C 0.33053 0.77759 0.40657 0.0
C451 C 0.31276 0.75473 0.43344 0.0
H452 H 0.52755 0.24865 0.79342 0.0
H453 H 0.51699 0.20584 0.6475 0.0
H454 H 0.51818 0.24162 0.59548 0.0
H455 H 0.5227 0.28549 0.59189 0.0
H456 H 0.53645 0.32938 0.73753 0.0
H457 H 0.53353 0.29291 0.78961 0.0
C458 C 0.52531 0.24716 0.75028 0.0
C459 C 0.52193 0.22465 0.7242 0.0
C460 C 0.52665 0.26803 0.72078 0.0
C461 C 0.51963 0.22307 0.66821 0.0
C462 C 0.52025 0.24346 0.6386 0.0
C463 C 0.52487 0.28686 0.63505 0.0
C464 C 0.52961 0.30989 0.66105 0.0
C465 C 0.52379 0.26606 0.66446 0.0
C466 C 0.53288 0.31181 0.71685 0.0
C467 C 0.53115 0.29097 0.74654 0.0
H468 H 0.48358 0.50776 0.0622 0.0
H469 H 0.50573 0.56652 0.18466 0.0
H470 H 0.54784 0.56868 0.19572 0.0
H471 H 0.57857 0.55403 0.17 0.0
H472 H 0.55626 0.49559 0.04662 0.0
H473 H 0.51396 0.49284 0.03723 0.0
C474 C 0.49744 0.52077 0.09183 0.0
C475 C 0.49144 0.53695 0.12253 0.0
C476 C 0.52166 0.52198 0.09782 0.0
C477 C 0.50992 0.55404 0.1601 0.0
C478 C 0.53399 0.55524 0.16656 0.0
C479 C 0.56454 0.54084 0.14081 0.0
C480 C 0.57067 0.52499 0.10927 0.0
C481 C 0.54017 0.53943 0.13534 0.0
C482 C 0.55203 0.50775 0.07207 0.0
C483 C 0.52782 0.50625 0.06642 0.0
H484 H 0.99789 0.45015 0.42739 0.0
H485 H 0.96509 0.50069 0.43532 0.0
H486 H 1.00883 0.53908 0.43428 0.0
H487 H 0.05661 0.55847 0.43523 0.0
H488 H 0.08944 0.50789 0.4309 0.0
H489 H 0.04569 0.46959 0.42614 0.0
C490 C 1.00032 0.46955 0.42896 0.0
C491 C 0.97814 0.47239 0.43138 0.0
C492 C 1.02563 0.49166 0.42902 0.0
C493 C 0.98168 0.49777 0.43262 0.0
C494 C 1.00676 0.51983 0.43247 0.0
C495 C 0.05419 0.53908 0.43332 0.0
C496 C 0.07638 0.5362 0.43343 0.0
C497 C 1.02889 0.51701 0.43128 0.0
C498 C 0.07284 0.51086 0.43011 0.0
C499 C 0.04776 0.48885 0.42783 0.0
H500 H 0.54767 0.0667 0.76969 0.0
H501 H 0.47156 0.02887 0.84424 0.0
H502 H 0.47267 0.98826 0.85165 0.0
H503 H 0.49561 0.9637 0.83791 0.0
H504 H 0.5718 1.00209 0.7636 0.0
H505 H 0.57064 0.04255 0.7569 0.0
C506 C 0.53143 0.04975 0.78824 0.0
C507 C 0.5096 0.05101 0.80659 0.0
C508 C 0.53231 0.02657 0.79284 0.0
C509 C 0.4885 0.02849 0.82929 0.0
C510 C 0.4892 1.00527 0.83385 0.0
C511 C 0.51189 0.98085 0.81995 0.0
C512 C 0.53377 0.97973 0.80137 0.0
C513 C 0.51102 1.0041 0.81576 0.0
C514 C 0.55487 1.00236 0.77897 0.0
C515 C 0.55415 0.02551 0.77471 0.0
H516 H 0.57027 0.57647 0.61378 0.0
H517 H 0.48847 0.54464 0.57525 0.0
H518 H 0.48274 0.50108 0.56816 0.0
H519 H 0.50046 0.47154 0.57577 0.0
H520 H 0.58159 0.50328 0.62028 0.0
H521 H 0.58782 0.54708 0.6222 0.0
C522 C 0.55109 0.56009 0.60423 0.0
C523 C 0.52989 0.56419 0.59534 0.0
C524 C 0.54771 0.53484 0.6013 0.0
C525 C 0.50535 0.54248 0.58183 0.0
C526 C 0.50194 0.51736 0.57813 0.0
C527 C 0.51948 0.48793 0.58628 0.0
C528 C 0.54046 0.48377 0.59772 0.0
C529 C 0.52292 0.51326 0.5883 0.0
C530 C 0.56506 0.50558 0.61042 0.0
C531 C 0.56866 0.53078 0.61193 0.0
H532 H 0.09658 0.60524 0.9037 0.0
H533 H 0.07786 0.53033 0.96995 0.0
H534 H 0.03192 0.5176 0.97519 0.0
H535 H 0.99679 0.52773 0.96235 0.0
H536 H 1.01536 0.60284 0.89814 0.0
H537 H 0.06148 0.6156 0.8919 0.0
C538 C 0.08256 0.58622 0.91971 0.0
C539 C 0.09094 0.56879 0.93596 0.0
C540 C 0.05599 0.57903 0.9233 0.0
C541 C 0.07219 0.54407 0.95608 0.0
C542 C 0.04579 0.53678 0.95951 0.0
C543 C 1.01088 0.5468 0.94659 0.0
C544 C 1.00253 0.56426 0.93078 0.0
C545 C 0.03744 0.55405 0.94317 0.0
C546 C 1.02121 0.58909 0.91123 0.0
C547 C 0.04762 0.59637 0.90737 0.0
H548 H 0.50181 0.9561 0.2888 0.0
H549 H 0.45114 0.98891 0.28991 0.0
H550 H 0.48925 0.03297 0.28765 0.0
H551 H 0.53696 0.06225 0.28903 0.0
H552 H 0.58749 0.02932 0.2849 0.0
H553 H 0.54936 0.98529 0.28436 0.0
C554 C 0.49893 0.97276 0.28764 0.0
C555 C 0.4734 0.96893 0.28981 0.0
C556 C 0.52099 0.99815 0.28611 0.0
C557 C 0.47042 0.99108 0.28912 0.0
C558 C 0.49226 1.01636 0.28757 0.0
C559 C 0.53975 0.04555 0.28712 0.0
C560 C 0.56529 0.04933 0.28735 0.0
C561 C 0.51766 1.02015 0.2866 0.0
C562 C 0.56822 0.02718 0.28566 0.0
C563 C 0.54637 1.00191 0.28508 0.0
H564 H 0.47409 0.64455 0.75681 0.0
H565 H 0.4506 0.56275 0.74465 0.0
H566 H 0.4401 0.55685 0.83962 0.0
H567 H 0.43931 0.57502 0.92669 0.0
H568 H 0.46177 0.65641 0.94027 0.0
H569 H 0.471 0.66234 0.84411 0.0
C570 C 0.46643 0.62537 0.7748 0.0
C571 C 0.46328 0.60416 0.74346 0.0
C572 C 0.46049 0.62208 0.82978 0.0
C573 C 0.45327 0.57945 0.76757 0.0
C574 C 0.44735 0.57605 0.82204 0.0
C575 C 0.4463 0.59413 0.90878 0.0
C576 C 0.45016 0.61534 0.94083 0.0
C577 C 0.45125 0.59728 0.85362 0.0
C578 C 0.45877 0.6398 0.91662 0.0
C579 C 0.46403 0.64318 0.86163 0.0
H580 H 0.87726 0.41358 0.22759 0.0
H581 H 0.87305 0.47337 0.31812 0.0
H582 H 0.87783 0.49774 0.2357 0.0
H583 H 0.88521 0.50306 0.13855 0.0
H584 H 0.88852 0.44289 0.04766 0.0
H585 H 0.88204 0.41765 0.12966 0.0
C586 C 0.87724 0.43188 0.22935 0.0
C587 C 0.87496 0.44169 0.27918 0.0
C588 C 0.87997 0.44578 0.18174 0.0
C589 C 0.87473 0.46532 0.28047 0.0
C590 C 0.87758 0.47933 0.23332 0.0
C591 C 0.88448 0.48439 0.13658 0.0
C592 C 0.88761 0.47501 0.08696 0.0
C593 C 0.88056 0.46992 0.18384 0.0
C594 C 0.88623 0.45061 0.0852 0.0
C595 C 0.88256 0.43619 0.13214 0.0
H596 H 0.49337 0.88825 0.62662 0.0
H597 H 0.41716 0.81955 0.64757 0.0
H598 H 0.40852 0.81908 0.55155 0.0
H599 H 0.42244 0.83873 0.46179 0.0
H600 H 0.49913 0.90705 0.44198 0.0
H601 H 0.50778 0.90686 0.53732 0.0
C602 C 0.47478 0.8732 0.61037 0.0
C603 C 0.45584 0.85409 0.64449 0.0
C604 C 0.4701 0.87286 0.55516 0.0
C605 C 0.43205 0.83456 0.62237 0.0
C606 C 0.42712 0.83426 0.56741 0.0
C607 C 0.44115 0.85345 0.47821 0.0
C608 C 0.46009 0.87292 0.44451 0.0
C609 C 0.446 0.85334 0.5334 0.0
C610 C 0.48418 0.89183 0.4667 0.0
C611 C 0.48913 0.89181 0.52138 0.0
H612 H 0.55512 0.42403 0.80405 0.0
H613 H 0.62266 0.42558 0.73529 0.0
H614 H 0.64429 0.43626 0.82295 0.0
H615 H 0.64426 0.44621 0.91918 0.0
H616 H 0.57757 0.44741 0.98492 0.0
H617 H 0.55519 0.43425 0.8986 0.0
C618 C 0.57455 0.42662 0.80818 0.0
C619 C 0.58725 0.42398 0.76326 0.0
C620 C 0.58695 0.43311 0.85831 0.0
C621 C 0.61252 0.42763 0.76924 0.0
C622 C 0.62484 0.43364 0.81938 0.0
C623 C 0.6247 0.44324 0.91457 0.0
C624 C 0.61244 0.44753 0.95828 0.0
C625 C 0.61226 0.43649 0.86423 0.0
C626 C 0.58733 0.44416 0.95175 0.0
C627 C 0.57456 0.4367 0.90244 0.0
H628 H 0.21086 0.58313 0.11239 0.0
H629 H 0.1382 0.51037 0.09246 0.0
H630 H 0.13522 0.50371 0.19 0.0
H631 H 0.15075 0.52202 0.28113 0.0
H632 H 0.22275 0.59604 0.29769 0.0
H633 H 0.22867 0.59868 0.20114 0.0
C634 C 0.19449 0.56563 0.12935 0.0
C635 C 0.17453 0.54747 0.09571 0.0
C636 C 0.19277 0.5623 0.18484 0.0
C637 C 0.15374 0.52463 0.11783 0.0
C638 C 0.15199 0.52095 0.17351 0.0
C639 C 0.168 0.53839 0.26356 0.0
C640 C 0.18615 0.55896 0.29644 0.0
C641 C 0.171 0.54012 0.20753 0.0
C642 C 0.20837 0.58012 0.27321 0.0
C643 C 0.21177 0.58167 0.218 0.0
H644 H 0.55034 0.13829 0.62089 0.0
H645 H 0.62562 0.20885 0.6357 0.0
H646 H 0.63377 0.20676 0.5403 0.0
H647 H 0.61961 0.18439 0.45278 0.0
H648 H 0.54365 0.1144 0.43915 0.0
H649 H 0.53566 0.11699 0.53384 0.0
C650 C 0.56863 0.15319 0.60345 0.0
C651 C 0.58745 0.17358 0.63567 0.0
C652 C 0.573 0.15207 0.54858 0.0
C653 C 0.61083 0.19288 0.61198 0.0
C654 C 0.61548 0.19171 0.55737 0.0
C655 C 0.60122 0.16981 0.4704 0.0
C656 C 0.58229 0.14919 0.43862 0.0
C657 C 0.59669 0.17137 0.52525 0.0
C658 C 0.55859 0.1305 0.46235 0.0
C659 C 0.55401 0.13189 0.51668 0.0
loop_
_geom_bond_atom_site_label_1
_geom_bond_atom_site_label_2
_geom_bond_distance
_geom_bond_site_symmetry_2
_ccdc_geom_bond_type
Cu0 N1 1.999 . S
Cu0 O6 1.974 . S
Cu0 N11 1.985 . S
Cu0 O20 1.959 . S
N1 Cu0 1.999 . S
N1 C3 1.263 . S
N1 C5 1.389 . S
N2 C3 1.358 . S
N2 C4 1.400 . S
C3 N1 1.263 . S
C3 N2 1.358 . S
C3 H9 0.930 . S
C4 N2 1.400 . S
C4 C5 1.351 . S
C4 H21 0.930 . S
C5 N1 1.389 . S
C5 C4 1.351 . S
C5 H10 0.930 . S
O6 Cu0 1.974 . S
O6 C16 1.282 . S
C7 O8 1.261 1_556 S
C7 O20 1.251 1_556 S
O8 C7 1.261 1_554 S
H9 C3 0.930 . S
H10 C5 0.930 . S
N11 Cu0 1.985 . S
N11 C13 1.335 . S
N11 C14 1.390 . S
N12 C13 1.345 . S
N12 C15 1.336 . S
C13 N11 1.335 . S
C13 N12 1.345 . S
C13 H18 0.930 . S
C14 N11 1.390 . S
C14 C15 1.346 . S
C14 H19 0.930 . S
C15 N12 1.336 . S
C15 C14 1.346 . S
C15 H22 0.929 . S
C16 O6 1.282 . S
C16 O17 1.216 . S
O17 C16 1.216 . S
H18 C13 0.930 . S
H19 C14 0.930 . S
O20 Cu0 1.959 . S
O20 C7 1.251 1_554 S
H21 C4 0.930 . S
H22 C15 0.929 . S
Cu23 N24 1.999 . S
Cu23 O29 1.974 . S
Cu23 N34 1.985 . S
Cu23 O43 1.959 . S
N24 Cu23 1.999 . S
N24 C26 1.263 . S
N24 C28 1.389 . S
N25 C26 1.358 . S
N25 C27 1.400 . S
C26 N24 1.263 . S
C26 N25 1.358 . S
C26 H32 0.930 . S
C27 N25 1.400 . S
C27 C28 1.351 . S
C27 H44 0.930 . S
C28 N24 1.389 . S
C28 C27 1.351 . S
C28 H33 0.930 . S
O29 Cu23 1.974 . S
O29 C39 1.282 . S
C30 O31 1.261 . S
C30 O43 1.251 . S
O31 C30 1.261 . S
H32 C26 0.930 . S
H33 C28 0.930 . S
N34 Cu23 1.985 . S
N34 C36 1.335 . S
N34 C37 1.390 . S
N35 C36 1.345 . S
N35 C38 1.336 . S
C36 N34 1.335 . S
C36 N35 1.345 . S
C36 H41 0.930 . S
C37 N34 1.390 . S
C37 C38 1.346 . S
C37 H42 0.930 . S
C38 N35 1.336 . S
C38 C37 1.346 . S
C38 H45 0.929 . S
C39 O29 1.282 . S
C39 O40 1.216 . S
O40 C39 1.216 . S
H41 C36 0.930 . S
H42 C37 0.930 . S
O43 Cu23 1.959 . S
O43 C30 1.251 . S
H44 C27 0.930 . S
H45 C38 0.929 . S
Cu46 N47 1.999 . S
Cu46 O52 1.974 . S
Cu46 N57 1.985 . S
Cu46 O66 1.959 . S
N47 Cu46 1.999 . S
N47 C49 1.263 . S
N47 C51 1.389 . S
N48 C49 1.358 . S
N48 C50 1.400 . S
C49 N47 1.263 . S
C49 N48 1.358 . S
C49 H55 0.930 . S
C50 N48 1.400 . S
C50 C51 1.351 . S
C50 H67 0.930 . S
C51 N47 1.389 . S
C51 C50 1.351 . S
C51 H56 0.930 . S
O52 Cu46 1.974 . S
O52 C62 1.282 . S
C53 O54 1.261 . S
C53 O66 1.251 . S
O54 C53 1.261 . S
H55 C49 0.930 . S
H56 C51 0.930 . S
N57 Cu46 1.985 . S
N57 C59 1.335 . S
N57 C60 1.390 . S
N58 C59 1.345 . S
N58 C61 1.336 . S
C59 N57 1.335 . S
C59 N58 1.345 . S
C59 H64 0.930 . S
C60 N57 1.390 . S
C60 C61 1.346 . S
C60 H65 0.930 . S
C61 N58 1.336 . S
C61 C60 1.346 . S
C61 H68 0.929 . S
C62 O52 1.282 . S
C62 O63 1.216 . S
O63 C62 1.216 . S
H64 C59 0.930 . S
H65 C60 0.930 . S
O66 Cu46 1.959 . S
O66 C53 1.251 . S
H67 C50 0.930 . S
H68 C61 0.929 . S
Cu69 N70 1.999 . S
Cu69 O75 1.974 . S
Cu69 N80 1.985 . S
Cu69 O89 1.959 . S
N70 Cu69 1.999 . S
N70 C72 1.263 . S
N70 C74 1.389 . S
N71 C72 1.358 . S
N71 C73 1.400 . S
C72 N70 1.263 . S
C72 N71 1.358 . S
C72 H78 0.930 . S
C73 N71 1.400 . S
C73 C74 1.351 . S
C73 H90 0.930 . S
C74 N70 1.389 . S
C74 C73 1.351 . S
C74 H79 0.930 . S
O75 Cu69 1.974 . S
O75 C85 1.282 . S
C76 O77 1.261 1_556 S
C76 O89 1.251 1_556 S
O77 C76 1.261 1_554 S
H78 C72 0.930 . S
H79 C74 0.930 . S
N80 Cu69 1.985 . S
N80 C82 1.335 . S
N80 C83 1.390 . S
N81 C82 1.345 . S
N81 C84 1.336 . S
C82 N80 1.335 . S
C82 N81 1.345 . S
C82 H87 0.930 . S
C83 N80 1.390 . S
C83 C84 1.346 . S
C83 H88 0.930 . S
C84 N81 1.336 . S
C84 C83 1.346 . S
C84 H91 0.929 . S
C85 O75 1.282 . S
C85 O86 1.216 . S
O86 C85 1.216 . S
H87 C82 0.930 . S
H88 C83 0.930 . S
O89 Cu69 1.959 . S
O89 C76 1.251 1_554 S
H90 C73 0.930 . S
H91 C84 0.929 . S
Cu92 N93 1.999 . S
Cu92 O98 1.974 . S
Cu92 N103 1.985 . S
Cu92 O112 1.959 . S
N93 Cu92 1.999 . S
N93 C95 1.263 . S
N93 C97 1.389 . S
N94 C95 1.358 . S
N94 C96 1.400 . S
C95 N93 1.263 . S
C95 N94 1.358 . S
C95 H101 0.930 . S
C96 N94 1.400 . S
C96 C97 1.351 . S
C96 H113 0.930 . S
C97 N93 1.389 . S
C97 C96 1.351 . S
C97 H102 0.930 . S
O98 Cu92 1.974 . S
O98 C108 1.282 . S
C99 O100 1.261 . S
C99 O112 1.251 . S
O100 C99 1.261 . S
H101 C95 0.930 . S
H102 C97 0.930 . S
N103 Cu92 1.985 . S
N103 C105 1.335 . S
N103 C106 1.390 . S
N104 C105 1.345 . S
N104 C107 1.336 . S
C105 N103 1.335 . S
C105 N104 1.345 . S
C105 H110 0.930 . S
C106 N103 1.390 . S
C106 C107 1.346 . S
C106 H111 0.930 . S
C107 N104 1.336 . S
C107 C106 1.346 . S
C107 H114 0.929 . S
C108 O98 1.282 . S
C108 O109 1.216 . S
O109 C108 1.216 . S
H110 C105 0.930 . S
H111 C106 0.930 . S
O112 Cu92 1.959 . S
O112 C99 1.251 . S
H113 C96 0.930 . S
H114 C107 0.929 . S
Cu115 N116 1.999 . S
Cu115 O121 1.974 . S
Cu115 N126 1.985 . S
Cu115 O135 1.959 . S
N116 Cu115 1.999 . S
N116 C118 1.263 . S
N116 C120 1.389 . S
N117 C118 1.358 . S
N117 C119 1.400 . S
C118 N116 1.263 . S
C118 N117 1.358 . S
C118 H124 0.930 . S
C119 N117 1.400 . S
C119 C120 1.351 . S
C119 H136 0.930 . S
C120 N116 1.389 . S
C120 C119 1.351 . S
C120 H125 0.930 . S
O121 Cu115 1.974 . S
O121 C131 1.282 . S
C122 O123 1.261 . S
C122 O135 1.251 . S
O123 C122 1.261 . S
H124 C118 0.930 . S
H125 C120 0.930 . S
N126 Cu115 1.985 . S
N126 C128 1.335 . S
N126 C129 1.390 . S
N127 C128 1.345 . S
N127 C130 1.336 . S
C128 N126 1.335 . S
C128 N127 1.345 . S
C128 H133 0.930 . S
C129 N126 1.390 . S
C129 C130 1.346 . S
C129 H134 0.930 . S
C130 N127 1.336 . S
C130 C129 1.346 . S
C130 H137 0.929 . S
C131 O121 1.282 . S
C131 O132 1.216 . S
O132 C131 1.216 . S
H133 C128 0.930 . S
H134 C129 0.930 . S
O135 Cu115 1.959 . S
O135 C122 1.251 . S
H136 C119 0.930 . S
H137 C130 0.929 . S
Cu138 N139 1.999 . S
Cu138 O144 1.974 . S
Cu138 N149 1.985 . S
Cu138 O158 1.959 . S
N139 Cu138 1.999 . S
N139 C141 1.263 . S
N139 C143 1.389 . S
N140 C141 1.358 . S
N140 C142 1.400 . S
C141 N139 1.263 . S
C141 N140 1.358 . S
C141 H147 0.930 . S
C142 N140 1.400 . S
C142 C143 1.351 . S
C142 H159 0.930 . S
C143 N139 1.389 . S
C143 C142 1.351 . S
C143 H148 0.930 . S
O144 Cu138 1.974 . S
O144 C154 1.282 . S
C145 O146 1.261 . S
C145 O158 1.251 . S
O146 C145 1.261 . S
H147 C141 0.930 . S
H148 C143 0.930 . S
N149 Cu138 1.985 . S
N149 C151 1.335 . S
N149 C152 1.390 . S
N150 C151 1.345 . S
N150 C153 1.336 . S
C151 N149 1.335 . S
C151 N150 1.345 . S
C151 H156 0.930 . S
C152 N149 1.390 . S
C152 C153 1.346 . S
C152 H157 0.930 . S
C153 N150 1.336 . S
C153 C152 1.346 . S
C153 H160 0.929 . S
C154 O144 1.282 . S
C154 O155 1.216 . S
O155 C154 1.216 . S
H156 C151 0.930 . S
H157 C152 0.930 . S
O158 Cu138 1.959 . S
O158 C145 1.251 . S
H159 C142 0.930 . S
H160 C153 0.929 . S
Cu161 N162 1.999 . S
Cu161 O167 1.974 . S
Cu161 N172 1.985 . S
Cu161 O181 1.959 . S
N162 Cu161 1.999 . S
N162 C164 1.263 . S
N162 C166 1.389 . S
N163 C164 1.358 . S
N163 C165 1.400 . S
C164 N162 1.263 . S
C164 N163 1.358 . S
C164 H170 0.930 . S
C165 N163 1.400 . S
C165 C166 1.351 . S
C165 H182 0.930 . S
C166 N162 1.389 . S
C166 C165 1.351 . S
C166 H171 0.930 . S
O167 Cu161 1.974 . S
O167 C177 1.282 . S
C168 O169 1.261 1_554 S
C168 O181 1.251 1_554 S
O169 C168 1.261 1_556 S
H170 C164 0.930 . S
H171 C166 0.930 . S
N172 Cu161 1.985 . S
N172 C174 1.335 . S
N172 C175 1.390 . S
N173 C174 1.345 . S
N173 C176 1.336 . S
C174 N172 1.335 . S
C174 N173 1.345 . S
C174 H179 0.930 . S
C175 N172 1.390 . S
C175 C176 1.346 . S
C175 H180 0.930 . S
C176 N173 1.336 . S
C176 C175 1.346 . S
C176 H183 0.929 . S
C177 O167 1.282 . S
C177 O178 1.216 . S
O178 C177 1.216 . S
H179 C174 0.930 . S
H180 C175 0.930 . S
O181 Cu161 1.959 . S
O181 C168 1.251 1_556 S
H182 C165 0.930 . S
H183 C176 0.929 . S
Cu184 N185 1.999 . S
Cu184 O190 1.974 . S
Cu184 N195 1.985 . S
Cu184 O204 1.959 . S
N185 Cu184 1.999 . S
N185 C187 1.263 . S
N185 C189 1.389 . S
N186 C187 1.358 . S
N186 C188 1.400 . S
C187 N185 1.263 . S
C187 N186 1.358 . S
C187 H193 0.930 . S
C188 N186 1.400 . S
C188 C189 1.351 . S
C188 H205 0.930 . S
C189 N185 1.389 . S
C189 C188 1.351 . S
C189 H194 0.930 . S
O190 Cu184 1.974 . S
O190 C200 1.282 . S
C191 O192 1.261 . S
C191 O204 1.251 . S
O192 C191 1.261 . S
H193 C187 0.930 . S
H194 C189 0.930 . S
N195 Cu184 1.985 . S
N195 C197 1.335 . S
N195 C198 1.390 . S
N196 C197 1.345 . S
N196 C199 1.336 . S
C197 N195 1.335 . S
C197 N196 1.345 . S
C197 H202 0.930 . S
C198 N195 1.390 . S
C198 C199 1.346 . S
C198 H203 0.930 . S
C199 N196 1.336 . S
C199 C198 1.346 . S
C199 H206 0.929 . S
C200 O190 1.282 . S
C200 O201 1.216 . S
O201 C200 1.216 . S
H202 C197 0.930 . S
H203 C198 0.930 . S
O204 Cu184 1.959 . S
O204 C191 1.251 . S
H205 C188 0.930 . S
H206 C199 0.929 . S
Cu207 N208 1.999 . S
Cu207 O213 1.974 . S
Cu207 N218 1.985 . S
Cu207 O227 1.959 . S
N208 Cu207 1.999 . S
N208 C210 1.263 . S
N208 C212 1.389 . S
N209 C210 1.358 . S
N209 C211 1.400 . S
C210 N208 1.263 . S
C210 N209 1.358 . S
C210 H216 0.930 . S
C211 N209 1.400 . S
C211 C212 1.351 . S
C211 H228 0.930 . S
C212 N208 1.389 . S
C212 C211 1.351 . S
C212 H217 0.930 . S
O213 Cu207 1.974 . S
O213 C223 1.282 . S
C214 O215 1.261 . S
C214 O227 1.251 . S
O215 C214 1.261 . S
H216 C210 0.930 . S
H217 C212 0.930 . S
N218 Cu207 1.985 . S
N218 C220 1.335 . S
N218 C221 1.390 . S
N219 C220 1.345 . S
N219 C222 1.336 . S
C220 N218 1.335 . S
C220 N219 1.345 . S
C220 H225 0.930 . S
C221 N218 1.390 . S
C221 C222 1.346 . S
C221 H226 0.930 . S
C222 N219 1.336 . S
C222 C221 1.346 . S
C222 H229 0.929 . S
C223 O213 1.282 . S
C223 O224 1.216 . S
O224 C223 1.216 . S
H225 C220 0.930 . S
H226 C221 0.930 . S
O227 Cu207 1.959 . S
O227 C214 1.251 . S
H228 C211 0.930 . S
H229 C222 0.929 . S
Cu230 N231 1.999 . S
Cu230 O236 1.974 . S
Cu230 N241 1.985 . S
Cu230 O250 1.959 . S
N231 Cu230 1.999 . S
N231 C233 1.263 . S
N231 C235 1.389 . S
N232 C233 1.358 . S
N232 C234 1.400 . S
C233 N231 1.263 . S
C233 N232 1.358 . S
C233 H239 0.930 . S
C234 N232 1.400 . S
C234 C235 1.351 . S
C234 H251 0.930 . S
C235 N231 1.389 . S
C235 C234 1.351 . S
C235 H240 0.930 . S
O236 Cu230 1.974 . S
O236 C246 1.282 . S
C237 O238 1.261 1_554 S
C237 O250 1.251 1_554 S
O238 C237 1.261 1_556 S
H239 C233 0.930 . S
H240 C235 0.930 . S
N241 Cu230 1.985 . S
N241 C243 1.335 . S
N241 C244 1.390 . S
N242 C243 1.345 . S
N242 C245 1.336 . S
C243 N241 1.335 . S
C243 N242 1.345 . S
C243 H248 0.930 . S
C244 N241 1.390 . S
C244 C245 1.346 . S
C244 H249 0.930 . S
C245 N242 1.336 . S
C245 C244 1.346 . S
C245 H252 0.929 . S
C246 O236 1.282 . S
C246 O247 1.216 . S
O247 C246 1.216 . S
H248 C243 0.930 . S
H249 C244 0.930 . S
O250 Cu230 1.959 . S
O250 C237 1.251 1_556 S
H251 C234 0.930 . S
H252 C245 0.929 . S
Cu253 N254 1.999 . S
Cu253 O259 1.974 . S
Cu253 N264 1.985 . S
Cu253 O273 1.959 . S
N254 Cu253 1.999 . S
N254 C256 1.263 . S
N254 C258 1.389 . S
N255 C256 1.358 . S
N255 C257 1.400 . S
C256 N254 1.263 . S
C256 N255 1.358 . S
C256 H262 0.930 . S
C257 N255 1.400 . S
C257 C258 1.351 . S
C257 H274 0.930 . S
C258 N254 1.389 . S
C258 C257 1.351 . S
C258 H263 0.930 . S
O259 Cu253 1.974 . S
O259 C269 1.282 . S
C260 O261 1.261 . S
C260 O273 1.251 . S
O261 C260 1.261 . S
H262 C256 0.930 . S
H263 C258 0.930 . S
N264 Cu253 1.985 . S
N264 C266 1.335 . S
N264 C267 1.390 . S
N265 C266 1.345 . S
N265 C268 1.336 . S
C266 N264 1.335 . S
C266 N265 1.345 . S
C266 H271 0.930 . S
C267 N264 1.390 . S
C267 C268 1.346 . S
C267 H272 0.930 . S
C268 N265 1.336 . S
C268 C267 1.346 . S
C268 H275 0.929 . S
C269 O259 1.282 . S
C269 O270 1.216 . S
O270 C269 1.216 . S
H271 C266 0.930 . S
H272 C267 0.930 . S
O273 Cu253 1.959 . S
O273 C260 1.251 . S
H274 C257 0.930 . S
H275 C268 0.929 . S
H276 C282 0.930 . S
H277 C285 0.930 . S
H278 C286 0.930 . S
H279 C287 0.930 . S
H280 C290 0.930 . S
H281 C291 0.930 . S
C282 H276 0.930 . S
C282 C283 1.355 . S
C282 C284 1.415 . S
C283 C282 1.355 . S
C283 C285 1.419 . S
C284 C282 1.415 . S
C284 C289 1.425 . S
C284 C291 1.409 . S
C285 H277 0.930 . S
C285 C283 1.419 . S
C285 C286 1.362 . S
C286 H278 0.930 . S
C286 C285 1.362 . S
C286 C289 1.409 . S
C287 H279 0.930 . S
C287 C288 1.355 . S
C287 C289 1.415 . S
C288 C287 1.355 . S
C288 C290 1.419 . S
C289 C284 1.425 . S
C289 C286 1.409 . S
C289 C287 1.415 . S
C290 H280 0.930 . S
C290 C288 1.419 . S
C290 C291 1.362 . S
C291 H281 0.930 . S
C291 C284 1.409 . S
C291 C290 1.362 . S
H292 C298 0.930 . S
H293 C301 0.930 . S
H294 C302 0.930 . S
H295 C303 0.930 . S
H296 C306 0.930 . S
H297 C307 0.930 . S
C298 H292 0.930 . S
C298 C299 1.355 . S
C298 C300 1.415 . S
C299 C298 1.355 . S
C299 C301 1.419 . S
C300 C298 1.415 . S
C300 C305 1.425 . S
C300 C307 1.409 . S
C301 H293 0.930 . S
C301 C299 1.419 . S
C301 C302 1.362 . S
C302 H294 0.930 . S
C302 C301 1.362 . S
C302 C305 1.409 . S
C303 H295 0.930 . S
C303 C304 1.355 . S
C303 C305 1.415 . S
C304 C303 1.355 . S
C304 C306 1.419 . S
C305 C300 1.425 . S
C305 C302 1.409 . S
C305 C303 1.415 . S
C306 H296 0.930 . S
C306 C304 1.419 . S
C306 C307 1.362 . S
C307 H297 0.930 . S
C307 C300 1.409 . S
C307 C306 1.362 . S
H308 C314 0.930 . S
H309 C317 0.930 . S
H310 C318 0.930 . S
H311 C319 0.930 . S
H312 C322 0.930 . S
H313 C323 0.930 . S
C314 H308 0.930 . S
C314 C315 1.355 . S
C314 C316 1.415 . S
C315 C314 1.355 . S
C315 C317 1.419 . S
C316 C314 1.415 . S
C316 C321 1.425 1_556 S
C316 C323 1.409 1_556 S
C317 H309 0.930 . S
C317 C315 1.419 . S
C317 C318 1.362 . S
C318 H310 0.930 . S
C318 C317 1.362 . S
C318 C321 1.409 1_556 S
C319 H311 0.930 . S
C319 C320 1.355 . S
C319 C321 1.415 . S
C320 C319 1.355 . S
C320 C322 1.419 . S
C321 C316 1.425 1_554 S
C321 C318 1.409 1_554 S
C321 C319 1.415 . S
C322 H312 0.930 . S
C322 C320 1.419 . S
C322 C323 1.362 . S
C323 H313 0.930 . S
C323 C316 1.409 1_554 S
C323 C322 1.362 . S
H324 C330 0.930 . S
H325 C333 0.930 . S
H326 C334 0.930 . S
H327 C335 0.930 . S
H328 C338 0.930 . S
H329 C339 0.930 . S
C330 H324 0.930 . S
C330 C331 1.355 . S
C330 C332 1.415 . S
C331 C330 1.355 . S
C331 C333 1.419 . S
C332 C330 1.415 . S
C332 C337 1.425 . S
C332 C339 1.409 . S
C333 H325 0.930 . S
C333 C331 1.419 . S
C333 C334 1.362 . S
C334 H326 0.930 . S
C334 C333 1.362 . S
C334 C337 1.409 . S
C335 H327 0.930 . S
C335 C336 1.355 . S
C335 C337 1.415 . S
C336 C335 1.355 . S
C336 C338 1.419 . S
C337 C332 1.425 . S
C337 C334 1.409 . S
C337 C335 1.415 . S
C338 H328 0.930 . S
C338 C336 1.419 . S
C338 C339 1.362 . S
C339 H329 0.930 . S
C339 C332 1.409 . S
C339 C338 1.362 . S
H340 C346 0.930 . S
H341 C349 0.930 . S
H342 C350 0.930 . S
H343 C351 0.930 . S
H344 C354 0.930 . S
H345 C355 0.930 . S
C346 H340 0.930 . S
C346 C347 1.355 . S
C346 C348 1.415 . S
C347 C346 1.355 . S
C347 C349 1.419 . S
C348 C346 1.415 . S
C348 C353 1.425 . S
C348 C355 1.409 . S
C349 H341 0.930 . S
C349 C347 1.419 . S
C349 C350 1.362 . S
C350 H342 0.930 . S
C350 C349 1.362 . S
C350 C353 1.409 . S
C351 H343 0.930 . S
C351 C352 1.355 . S
C351 C353 1.415 . S
C352 C351 1.355 . S
C352 C354 1.419 . S
C353 C348 1.425 . S
C353 C350 1.409 . S
C353 C351 1.415 . S
C354 H344 0.930 . S
C354 C352 1.419 . S
C354 C355 1.362 . S
C355 H345 0.930 . S
C355 C348 1.409 . S
C355 C354 1.362 . S
H356 C362 0.930 . S
H357 C365 0.930 . S
H358 C366 0.930 . S
H359 C367 0.930 . S
H360 C370 0.930 . S
H361 C371 0.930 . S
C362 H356 0.930 . S
C362 C363 1.355 . S
C362 C364 1.415 . S
C363 C362 1.355 . S
C363 C365 1.419 . S
C364 C362 1.415 . S
C364 C369 1.425 1_554 S
C364 C371 1.409 1_554 S
C365 H357 0.930 . S
C365 C363 1.419 . S
C365 C366 1.362 . S
C366 H358 0.930 . S
C366 C365 1.362 . S
C366 C369 1.409 1_554 S
C367 H359 0.930 . S
C367 C368 1.355 . S
C367 C369 1.415 . S
C368 C367 1.355 . S
C368 C370 1.419 . S
C369 C364 1.425 1_556 S
C369 C366 1.409 1_556 S
C369 C367 1.415 . S
C370 H360 0.930 . S
C370 C368 1.419 . S
C370 C371 1.362 . S
C371 H361 0.930 . S
C371 C364 1.409 1_556 S
C371 C370 1.362 . S
H372 C378 0.930 . S
H373 C381 0.930 . S
H374 C382 0.930 . S
H375 C383 0.930 . S
H376 C386 0.930 . S
H377 C387 0.930 . S
C378 H372 0.930 . S
C378 C379 1.355 1_556 S
C378 C380 1.415 . S
C379 C378 1.355 1_554 S
C379 C381 1.419 . S
C380 C378 1.415 . S
C380 C385 1.425 1_556 S
C380 C387 1.409 . S
C381 H373 0.930 . S
C381 C379 1.419 . S
C381 C382 1.362 . S
C382 H374 0.930 . S
C382 C381 1.362 . S
C382 C385 1.409 . S
C383 H375 0.930 . S
C383 C384 1.355 1_554 S
C383 C385 1.415 . S
C384 C383 1.355 1_556 S
C384 C386 1.419 . S
C385 C380 1.425 1_554 S
C385 C382 1.409 . S
C385 C383 1.415 . S
C386 H376 0.930 . S
C386 C384 1.419 . S
C386 C387 1.362 . S
C387 H377 0.930 . S
C387 C380 1.409 . S
C387 C386 1.362 . S
H388 C394 0.930 . S
H389 C397 0.930 . S
H390 C398 0.930 . S
H391 C399 0.930 . S
H392 C402 0.930 . S
H393 C403 0.930 . S
C394 H388 0.930 . S
C394 C395 1.355 . S
C394 C396 1.415 . S
C395 C394 1.355 . S
C395 C397 1.419 . S
C396 C394 1.415 . S
C396 C401 1.425 . S
C396 C403 1.409 . S
C397 H389 0.930 . S
C397 C395 1.419 . S
C397 C398 1.362 . S
C398 H390 0.930 . S
C398 C397 1.362 . S
C398 C401 1.409 . S
C399 H391 0.930 . S
C399 C400 1.355 . S
C399 C401 1.415 . S
C400 C399 1.355 . S
C400 C402 1.419 . S
C401 C396 1.425 . S
C401 C398 1.409 . S
C401 C399 1.415 . S
C402 H392 0.930 . S
C402 C400 1.419 . S
C402 C403 1.362 . S
C403 H393 0.930 . S
C403 C396 1.409 . S
C403 C402 1.362 . S
H404 C410 0.930 . S
H405 C413 0.930 . S
H406 C414 0.930 . S
H407 C415 0.930 . S
H408 C418 0.930 . S
H409 C419 0.930 . S
C410 H404 0.930 . S
C410 C411 1.355 . S
C410 C412 1.415 . S
C411 C410 1.355 . S
C411 C413 1.419 . S
C412 C410 1.415 . S
C412 C417 1.425 . S
C412 C419 1.409 . S
C413 H405 0.930 . S
C413 C411 1.419 . S
C413 C414 1.362 . S
C414 H406 0.930 . S
C414 C413 1.362 . S
C414 C417 1.409 . S
C415 H407 0.930 . S
C415 C416 1.355 . S
C415 C417 1.415 . S
C416 C415 1.355 . S
C416 C418 1.419 . S
C417 C412 1.425 . S
C417 C414 1.409 . S
C417 C415 1.415 . S
C418 H408 0.930 . S
C418 C416 1.419 . S
C418 C419 1.362 . S
C419 H409 0.930 . S
C419 C412 1.409 . S
C419 C418 1.362 . S
H420 C426 0.930 . S
H421 C429 0.930 . S
H422 C430 0.930 . S
H423 C431 0.930 . S
H424 C434 0.930 . S
H425 C435 0.930 . S
C426 H420 0.930 . S
C426 C427 1.355 . S
C426 C428 1.415 . S
C427 C426 1.355 . S
C427 C429 1.419 . S
C428 C426 1.415 . S
C428 C433 1.425 1_554 S
C428 C435 1.409 1_554 S
C429 H421 0.930 . S
C429 C427 1.419 . S
C429 C430 1.362 . S
C430 H422 0.930 . S
C430 C429 1.362 . S
C430 C433 1.409 1_554 S
C431 H423 0.930 . S
C431 C432 1.355 . S
C431 C433 1.415 . S
C432 C431 1.355 . S
C432 C434 1.419 . S
C433 C428 1.425 1_556 S
C433 C430 1.409 1_556 S
C433 C431 1.415 . S
C434 H424 0.930 . S
C434 C432 1.419 . S
C434 C435 1.362 . S
C435 H425 0.930 . S
C435 C428 1.409 1_556 S
C435 C434 1.362 . S
H436 C442 0.930 . S
H437 C445 0.930 . S
H438 C446 0.930 . S
H439 C447 0.930 . S
H440 C450 0.930 . S
H441 C451 0.930 . S
C442 H436 0.930 . S
C442 C443 1.355 . S
C442 C444 1.415 . S
C443 C442 1.355 . S
C443 C445 1.419 . S
C444 C442 1.415 . S
C444 C449 1.425 . S
C444 C451 1.409 . S
C445 H437 0.930 . S
C445 C443 1.419 . S
C445 C446 1.362 . S
C446 H438 0.930 . S
C446 C445 1.362 . S
C446 C449 1.409 . S
C447 H439 0.930 . S
C447 C448 1.355 . S
C447 C449 1.415 . S
C448 C447 1.355 . S
C448 C450 1.419 . S
C449 C444 1.425 . S
C449 C446 1.409 . S
C449 C447 1.415 . S
C450 H440 0.930 . S
C450 C448 1.419 . S
C450 C451 1.362 . S
C451 H441 0.930 . S
C451 C444 1.409 . S
C451 C450 1.362 . S
H452 C458 0.930 . S
H453 C461 0.930 . S
H454 C462 0.930 . S
H455 C463 0.930 . S
H456 C466 0.930 . S
H457 C467 0.930 . S
C458 H452 0.930 . S
C458 C459 1.355 . S
C458 C460 1.415 . S
C459 C458 1.355 . S
C459 C461 1.419 . S
C460 C458 1.415 . S
C460 C465 1.425 . S
C460 C467 1.409 . S
C461 H453 0.930 . S
C461 C459 1.419 . S
C461 C462 1.362 . S
C462 H454 0.930 . S
C462 C461 1.362 . S
C462 C465 1.409 . S
C463 H455 0.930 . S
C463 C464 1.355 . S
C463 C465 1.415 . S
C464 C463 1.355 . S
C464 C466 1.419 . S
C465 C460 1.425 . S
C465 C462 1.409 . S
C465 C463 1.415 . S
C466 H456 0.930 . S
C466 C464 1.419 . S
C466 C467 1.362 . S
C467 H457 0.930 . S
C467 C460 1.409 . S
C467 C466 1.362 . S
H468 C474 0.930 . S
H469 C477 0.930 . S
H470 C478 0.930 . S
H471 C479 0.930 . S
H472 C482 0.930 . S
H473 C483 0.930 . S
C474 H468 0.930 . S
C474 C475 1.355 . S
C474 C476 1.415 . S
C475 C474 1.355 . S
C475 C477 1.419 . S
C476 C474 1.415 . S
C476 C481 1.425 . S
C476 C483 1.409 . S
C477 H469 0.930 . S
C477 C475 1.419 . S
C477 C478 1.362 . S
C478 H470 0.930 . S
C478 C477 1.362 . S
C478 C481 1.409 . S
C479 H471 0.930 . S
C479 C480 1.355 . S
C479 C481 1.415 . S
C480 C479 1.355 . S
C480 C482 1.419 . S
C481 C476 1.425 . S
C481 C478 1.409 . S
C481 C479 1.415 . S
C482 H472 0.930 . S
C482 C480 1.419 . S
C482 C483 1.362 . S
C483 H473 0.930 . S
C483 C476 1.409 . S
C483 C482 1.362 . S
H484 C490 0.930 . S
H485 C493 0.930 . S
H486 C494 0.930 . S
H487 C495 0.930 . S
H488 C498 0.930 . S
H489 C499 0.930 . S
C490 H484 0.930 . S
C490 C491 1.355 . S
C490 C492 1.415 . S
C491 C490 1.355 . S
C491 C493 1.419 . S
C492 C490 1.415 . S
C492 C497 1.425 1_655 S
C492 C499 1.409 1_655 S
C493 H485 0.930 . S
C493 C491 1.419 . S
C493 C494 1.362 . S
C494 H486 0.930 . S
C494 C493 1.362 . S
C494 C497 1.409 1_655 S
C495 H487 0.930 . S
C495 C496 1.355 . S
C495 C497 1.415 . S
C496 C495 1.355 . S
C496 C498 1.419 . S
C497 C492 1.425 1_455 S
C497 C494 1.409 1_455 S
C497 C495 1.415 . S
C498 H488 0.930 . S
C498 C496 1.419 . S
C498 C499 1.362 . S
C499 H489 0.930 . S
C499 C492 1.409 1_455 S
C499 C498 1.362 . S
H500 C506 0.930 . S
H501 C509 0.930 . S
H502 C510 0.930 . S
H503 C511 0.930 . S
H504 C514 0.930 . S
H505 C515 0.930 . S
C506 H500 0.930 . S
C506 C507 1.355 . S
C506 C508 1.415 . S
C507 C506 1.355 . S
C507 C509 1.419 . S
C508 C506 1.415 . S
C508 C513 1.425 1_545 S
C508 C515 1.409 1_545 S
C509 H501 0.930 . S
C509 C507 1.419 . S
C509 C510 1.362 . S
C510 H502 0.930 . S
C510 C509 1.362 . S
C510 C513 1.409 1_545 S
C511 H503 0.930 . S
C511 C512 1.355 . S
C511 C513 1.415 . S
C512 C511 1.355 . S
C512 C514 1.419 . S
C513 C508 1.425 1_565 S
C513 C510 1.409 1_565 S
C513 C511 1.415 . S
C514 H504 0.930 . S
C514 C512 1.419 . S
C514 C515 1.362 . S
C515 H505 0.930 . S
C515 C508 1.409 1_565 S
C515 C514 1.362 . S
H516 C522 0.930 . S
H517 C525 0.930 . S
H518 C526 0.930 . S
H519 C527 0.930 . S
H520 C530 0.930 . S
H521 C531 0.930 . S
C522 H516 0.930 . S
C522 C523 1.355 . S
C522 C524 1.415 . S
C523 C522 1.355 . S
C523 C525 1.419 . S
C524 C522 1.415 . S
C524 C529 1.425 . S
C524 C531 1.409 . S
C525 H517 0.930 . S
C525 C523 1.419 . S
C525 C526 1.362 . S
C526 H518 0.930 . S
C526 C525 1.362 . S
C526 C529 1.409 . S
C527 H519 0.930 . S
C527 C528 1.355 . S
C527 C529 1.415 . S
C528 C527 1.355 . S
C528 C530 1.419 . S
C529 C524 1.425 . S
C529 C526 1.409 . S
C529 C527 1.415 . S
C530 H520 0.930 . S
C530 C528 1.419 . S
C530 C531 1.362 . S
C531 H521 0.930 . S
C531 C524 1.409 . S
C531 C530 1.362 . S
H532 C538 0.930 . S
H533 C541 0.930 . S
H534 C542 0.930 . S
H535 C543 0.930 . S
H536 C546 0.930 . S
H537 C547 0.930 . S
C538 H532 0.930 . S
C538 C539 1.355 . S
C538 C540 1.415 . S
C539 C538 1.355 . S
C539 C541 1.419 . S
C540 C538 1.415 . S
C540 C545 1.425 1_455 S
C540 C547 1.409 1_455 S
C541 H533 0.930 . S
C541 C539 1.419 . S
C541 C542 1.362 . S
C542 H534 0.930 . S
C542 C541 1.362 . S
C542 C545 1.409 1_455 S
C543 H535 0.930 . S
C543 C544 1.355 . S
C543 C545 1.415 . S
C544 C543 1.355 . S
C544 C546 1.419 . S
C545 C540 1.425 1_655 S
C545 C542 1.409 1_655 S
C545 C543 1.415 . S
C546 H536 0.930 . S
C546 C544 1.419 . S
C546 C547 1.362 . S
C547 H537 0.930 . S
C547 C540 1.409 1_655 S
C547 C546 1.362 . S
H548 C554 0.930 . S
H549 C557 0.930 . S
H550 C558 0.930 . S
H551 C559 0.930 . S
H552 C562 0.930 . S
H553 C563 0.930 . S
C554 H548 0.930 . S
C554 C555 1.355 . S
C554 C556 1.415 . S
C555 C554 1.355 . S
C555 C557 1.419 . S
C556 C554 1.415 . S
C556 C561 1.425 1_565 S
C556 C563 1.409 1_565 S
C557 H549 0.930 . S
C557 C555 1.419 . S
C557 C558 1.362 . S
C558 H550 0.930 . S
C558 C557 1.362 . S
C558 C561 1.409 1_565 S
C559 H551 0.930 . S
C559 C560 1.355 . S
C559 C561 1.415 . S
C560 C559 1.355 . S
C560 C562 1.419 . S
C561 C556 1.425 1_545 S
C561 C558 1.409 1_545 S
C561 C559 1.415 . S
C562 H552 0.930 . S
C562 C560 1.419 . S
C562 C563 1.362 . S
C563 H553 0.930 . S
C563 C556 1.409 1_545 S
C563 C562 1.362 . S
H564 C570 0.930 . S
H565 C573 0.930 . S
H566 C574 0.930 . S
H567 C575 0.930 . S
H568 C578 0.930 . S
H569 C579 0.930 . S
C570 H564 0.930 . S
C570 C571 1.355 . S
C570 C572 1.415 . S
C571 C570 1.355 . S
C571 C573 1.419 . S
C572 C570 1.415 . S
C572 C577 1.425 . S
C572 C579 1.409 . S
C573 H565 0.930 . S
C573 C571 1.419 . S
C573 C574 1.362 . S
C574 H566 0.930 . S
C574 C573 1.362 . S
C574 C577 1.409 . S
C575 H567 0.930 . S
C575 C576 1.355 . S
C575 C577 1.415 . S
C576 C575 1.355 . S
C576 C578 1.419 . S
C577 C572 1.425 . S
C577 C574 1.409 . S
C577 C575 1.415 . S
C578 H568 0.930 . S
C578 C576 1.419 . S
C578 C579 1.362 . S
C579 H569 0.930 . S
C579 C572 1.409 . S
C579 C578 1.362 . S
H580 C586 0.930 . S
H581 C589 0.930 . S
H582 C590 0.930 . S
H583 C591 0.930 . S
H584 C594 0.930 . S
H585 C595 0.930 . S
C586 H580 0.930 . S
C586 C587 1.355 . S
C586 C588 1.415 . S
C587 C586 1.355 . S
C587 C589 1.419 . S
C588 C586 1.415 . S
C588 C593 1.425 . S
C588 C595 1.409 . S
C589 H581 0.930 . S
C589 C587 1.419 . S
C589 C590 1.362 . S
C590 H582 0.930 . S
C590 C589 1.362 . S
C590 C593 1.409 . S
C591 H583 0.930 . S
C591 C592 1.355 . S
C591 C593 1.415 . S
C592 C591 1.355 . S
C592 C594 1.419 . S
C593 C588 1.425 . S
C593 C590 1.409 . S
C593 C591 1.415 . S
C594 H584 0.930 . S
C594 C592 1.419 . S
C594 C595 1.362 . S
C595 H585 0.930 . S
C595 C588 1.409 . S
C595 C594 1.362 . S
H596 C602 0.930 . S
H597 C605 0.930 . S
H598 C606 0.930 . S
H599 C607 0.930 . S
H600 C610 0.930 . S
H601 C611 0.930 . S
C602 H596 0.930 . S
C602 C603 1.355 . S
C602 C604 1.415 . S
C603 C602 1.355 . S
C603 C605 1.419 . S
C604 C602 1.415 . S
C604 C609 1.425 . S
C604 C611 1.409 . S
C605 H597 0.930 . S
C605 C603 1.419 . S
C605 C606 1.362 . S
C606 H598 0.930 . S
C606 C605 1.362 . S
C606 C609 1.409 . S
C607 H599 0.930 . S
C607 C608 1.355 . S
C607 C609 1.415 . S
C608 C607 1.355 . S
C608 C610 1.419 . S
C609 C604 1.425 . S
C609 C606 1.409 . S
C609 C607 1.415 . S
C610 H600 0.930 . S
C610 C608 1.419 . S
C610 C611 1.362 . S
C611 H601 0.930 . S
C611 C604 1.409 . S
C611 C610 1.362 . S
H612 C618 0.930 . S
H613 C621 0.930 . S
H614 C622 0.930 . S
H615 C623 0.930 . S
H616 C626 0.930 . S
H617 C627 0.930 . S
C618 H612 0.930 . S
C618 C619 1.355 . S
C618 C620 1.415 . S
C619 C618 1.355 . S
C619 C621 1.419 . S
C620 C618 1.415 . S
C620 C625 1.425 . S
C620 C627 1.409 . S
C621 H613 0.930 . S
C621 C619 1.419 . S
C621 C622 1.362 . S
C622 H614 0.930 . S
C622 C621 1.362 . S
C622 C625 1.409 . S
C623 H615 0.930 . S
C623 C624 1.355 . S
C623 C625 1.415 . S
C624 C623 1.355 . S
C624 C626 1.419 . S
C625 C620 1.425 . S
C625 C622 1.409 . S
C625 C623 1.415 . S
C626 H616 0.930 . S
C626 C624 1.419 . S
C626 C627 1.362 . S
C627 H617 0.930 . S
C627 C620 1.409 . S
C627 C626 1.362 . S
H628 C634 0.930 . S
H629 C637 0.930 . S
H630 C638 0.930 . S
H631 C639 0.930 . S
H632 C642 0.930 . S
H633 C643 0.930 . S
C634 H628 0.930 . S
C634 C635 1.355 . S
C634 C636 1.415 . S
C635 C634 1.355 . S
C635 C637 1.419 . S
C636 C634 1.415 . S
C636 C641 1.425 . S
C636 C643 1.409 . S
C637 H629 0.930 . S
C637 C635 1.419 . S
C637 C638 1.362 . S
C638 H630 0.930 . S
C638 C637 1.362 . S
C638 C641 1.409 . S
C639 H631 0.930 . S
C639 C640 1.355 . S
C639 C641 1.415 . S
C640 C639 1.355 . S
C640 C642 1.419 . S
C641 C636 1.425 . S
C641 C638 1.409 . S
C641 C639 1.415 . S
C642 H632 0.930 . S
C642 C640 1.419 . S
C642 C643 1.362 . S
C643 H633 0.930 . S
C643 C636 1.409 . S
C643 C642 1.362 . S
H644 C650 0.930 . S
H645 C653 0.930 . S
H646 C654 0.930 . S
H647 C655 0.930 . S
H648 C658 0.930 . S
H649 C659 0.930 . S
C650 H644 0.930 . S
C650 C651 1.355 . S
C650 C652 1.415 . S
C651 C650 1.355 . S
C651 C653 1.419 . S
C652 C650 1.415 . S
C652 C657 1.425 . S
C652 C659 1.409 . S
C653 H645 0.930 . S
C653 C651 1.419 . S
C653 C654 1.362 . S
C654 H646 0.930 . S
C654 C653 1.362 . S
C654 C657 1.409 . S
C655 H647 0.930 . S
C655 C656 1.355 . S
C655 C657 1.415 . S
C656 C655 1.355 . S
C656 C658 1.419 . S
C657 C652 1.425 . S
C657 C654 1.409 . S
C657 C655 1.415 . S
C658 H648 0.930 . S
C658 C656 1.419 . S
C658 C659 1.362 . S
C659 H649 0.930 . S
C659 C652 1.409 . S
C659 C658 1.362 . S
C283 C16 1.459 . S
C288 C154 1.490 . S
C299 C39 1.470 . S
C304 C177 1.453 . S
C315 C62 1.480 . S
C320 C200 1.498 . S
C331 C85 1.488 . S
C336 C223 1.496 . S
C347 C108 1.474 . S
C352 C246 1.498 . S
C363 C269 1.482 . S
C368 C131 1.455 . S
C379 N12 1.671 . S
C384 N242 1.670 . S
C395 N35 1.702 . S
C400 N265 1.702 . S
C411 N58 1.684 . S
C416 N150 1.677 . S
C427 N81 1.694 . S
C432 N173 1.688 . S
C443 N104 1.697 . S
C448 N196 1.692 . S
C459 N127 1.698 . S
C464 N219 1.693 . S
C475 N2 1.667 . S
C480 N71 1.609 . S
C491 N25 1.690 . S
C496 N94 1.672 . S
C507 N117 1.603 . S
C512 N48 1.618 . S
C523 N140 1.676 . S
C528 N209 1.689 . S
C539 N232 1.599 . S
C544 N163 1.631 . S
C555 N186 1.625 . S
C560 N255 1.601 . S
C571 C145 1.473 . S
C576 C7 1.490 . S
C587 C30 1.491 . S
C592 C168 1.497 . S
C603 C53 1.479 . S
C608 C191 1.474 . S
C619 C214 1.498 . S
C624 C76 1.481 . S
C635 C237 1.497 . S
C640 C99 1.480 . S
C651 C122 1.479 . S
C656 C260 1.474 . S
