# Generated by pormake.
# Topology uki, (4)-cn, num edge types: 1
# Building blocks:
#     Node 0, Type 0, BuildingBlock: QUQFOY_clean_sbu_1, # of connection points: 4
#     Node 1, Type 0, BuildingBlock: QUQFOY_clean_sbu_1, # of connection points: 4
#     Node 2, Type 0, BuildingBlock: QUQFOY_clean_sbu_1, # of connection points: 4
#     Node 3, Type 0, BuildingBlock: QUQFOY_clean_sbu_1, # of connection points: 4
#     Node 4, Type 0, BuildingBlock: QUQFOY_clean_sbu_1, # of connection points: 4
#     Node 5, Type 0, BuildingBlock: QUQFOY_clean_sbu_1, # of connection points: 4
#     Node 6, Type 0, BuildingBlock: QUQFOY_clean_sbu_1, # of connection points: 4
#     Node 7, Type 0, BuildingBlock: QUQFOY_clean_sbu_1, # of connection points: 4
#     Node 8, Type 0, BuildingBlock: QUQFOY_clean_sbu_1, # of connection points: 4
#     Node 9, Type 0, BuildingBlock: QUQFOY_clean_sbu_1, # of connection points: 4
#     Node 10, Type 0, BuildingBlock: QUQFOY_clean_sbu_1, # of connection points: 4
#     Node 11, Type 0, BuildingBlock: QUQFOY_clean_sbu_1, # of connection points: 4
#     Node 12, Type 0, BuildingBlock: QUQFOY_clean_sbu_1, # of connection points: 4
#     Node 13, Type 0, BuildingBlock: QUQFOY_clean_sbu_1, # of connection points: 4
#     Node 14, Type 0, BuildingBlock: QUQFOY_clean_sbu_1, # of connection points: 4
#     Node 15, Type 0, BuildingBlock: QUQFOY_clean_sbu_1, # of connection points: 4
#     Edge 16, Type (0, 0), BuildingBlock: EYOCIG_clean_linker_4, # of connection points: 2
#     Edge 17, Type (0, 0), BuildingBlock: EYOCIG_clean_linker_4, # of connection points: 2
#     Edge 18, Type (0, 0), BuildingBlock: EYOCIG_clean_linker_4, # of connection points: 2
#     Edge 19, Type (0, 0), BuildingBlock: EYOCIG_clean_linker_4, # of connection points: 2
#     Edge 20, Type (0, 0), BuildingBlock: EYOCIG_clean_linker_4, # of connection points: 2
#     Edge 21, Type (0, 0), BuildingBlock: EYOCIG_clean_linker_4, # of connection points: 2
#     Edge 22, Type (0, 0), BuildingBlock: EYOCIG_clean_linker_4, # of connection points: 2
#     Edge 23, Type (0, 0), BuildingBlock: EYOCIG_clean_linker_4, # of connection points: 2
#     Edge 24, Type (0, 0), BuildingBlock: EYOCIG_clean_linker_4, # of connection points: 2
#     Edge 25, Type (0, 0), BuildingBlock: EYOCIG_clean_linker_4, # of connection points: 2
#     Edge 26, Type (0, 0), BuildingBlock: EYOCIG_clean_linker_4, # of connection points: 2
#     Edge 27, Type (0, 0), BuildingBlock: EYOCIG_clean_linker_4, # of connection points: 2
#     Edge 28, Type (0, 0), BuildingBlock: EYOCIG_clean_linker_4, # of connection points: 2
#     Edge 29, Type (0, 0), BuildingBlock: EYOCIG_clean_linker_4, # of connection points: 2
#     Edge 30, Type (0, 0), BuildingBlock: EYOCIG_clean_linker_4, # of connection points: 2
#     Edge 31, Type (0, 0), BuildingBlock: EYOCIG_clean_linker_4, # of connection points: 2
#     Edge 32, Type (0, 0), BuildingBlock: EYOCIG_clean_linker_4, # of connection points: 2
#     Edge 33, Type (0, 0), BuildingBlock: EYOCIG_clean_linker_4, # of connection points: 2
#     Edge 34, Type (0, 0), BuildingBlock: EYOCIG_clean_linker_4, # of connection points: 2
#     Edge 35, Type (0, 0), BuildingBlock: EYOCIG_clean_linker_4, # of connection points: 2
#     Edge 36, Type (0, 0), BuildingBlock: EYOCIG_clean_linker_4, # of connection points: 2
#     Edge 37, Type (0, 0), BuildingBlock: EYOCIG_clean_linker_4, # of connection points: 2
#     Edge 38, Type (0, 0), BuildingBlock: EYOCIG_clean_linker_4, # of connection points: 2
#     Edge 39, Type (0, 0), BuildingBlock: EYOCIG_clean_linker_4, # of connection points: 2
#     Edge 40, Type (0, 0), BuildingBlock: EYOCIG_clean_linker_4, # of connection points: 2
#     Edge 41, Type (0, 0), BuildingBlock: EYOCIG_clean_linker_4, # of connection points: 2
#     Edge 42, Type (0, 0), BuildingBlock: EYOCIG_clean_linker_4, # of connection points: 2
#     Edge 43, Type (0, 0), BuildingBlock: EYOCIG_clean_linker_4, # of connection points: 2
#     Edge 44, Type (0, 0), BuildingBlock: EYOCIG_clean_linker_4, # of connection points: 2
#     Edge 45, Type (0, 0), BuildingBlock: EYOCIG_clean_linker_4, # of connection points: 2
#     Edge 46, Type (0, 0), BuildingBlock: EYOCIG_clean_linker_4, # of connection points: 2
#     Edge 47, Type (0, 0), BuildingBlock: EYOCIG_clean_linker_4, # of connection points: 2
# Relax obj value: 0.034
# Max RMSD: 0.125
# Mean RMSD: 0.125
data_MOF--net-uki--node1-QUQFOY_clean_sbu_1--edge1-EYOCIG_clean_linker_4
_symmetry_space_group_name_H-M    P1
_symmetry_Int_Tables_number       1
_symmetry_cell_setting            triclinic
loop_
_symmetry_equiv_pos_as_xyz
'x, y, z'
_cell_length_a     25.873782
_cell_length_b     25.890825
_cell_length_c     59.151429
_cell_angle_alpha  89.937959
_cell_angle_beta   90.075146
_cell_angle_gamma 89.997037
loop_
_atom_site_label
_atom_site_type_symbol
_atom_site_fract_x
_atom_site_fract_y
_atom_site_fract_z
_atom_type_partial_charge
O0 O 0.14223 0.3118 0.28933 0.0
Cd1 Cd 0.10924 0.26729 0.31333 0.0
Cd2 Cd 0.10086 0.20681 0.27668 0.0
O3 O 0.16585 0.24778 0.2668 0.0
O4 O 0.13356 0.29674 0.34287 0.0
O5 O 0.15776 0.22 0.32988 0.0
C6 C 0.16252 0.25633 0.34472 0.0
C7 C 0.07578 0.1202 0.27801 0.0
C8 C 0.16711 0.29531 0.27243 0.0
C9 C 0.01177 0.26816 0.28943 0.0
O10 O 0.03799 0.25206 0.27285 0.0
O11 O 0.0298 0.26736 0.30949 0.0
O12 O 0.08427 0.14272 0.25886 0.0
O13 O 0.08737 0.1448 0.29636 0.0
O14 O 0.31243 0.87514 0.72754 0.0
Cd15 Cd 0.26798 0.9075 0.70334 0.0
Cd16 Cd 0.2077 0.91716 0.73999 0.0
O17 O 0.24825 0.85217 0.75014 0.0
O18 O 0.29809 0.88275 0.67404 0.0
O19 O 0.22115 0.85854 0.68687 0.0
C20 C 0.25779 0.85365 0.67218 0.0
C21 C 0.12108 0.94204 0.73845 0.0
C22 C 0.2958 0.85061 0.74453 0.0
C23 C 0.26975 1.00541 0.72656 0.0
O24 O 0.25339 0.97989 0.74332 0.0
O25 O 0.26853 0.98689 0.70661 0.0
O26 O 0.14359 0.93424 0.75767 0.0
O27 O 0.14578 0.93001 0.72019 0.0
O28 O 0.87579 0.70423 0.28965 0.0
Cd29 Cd 0.9079 0.74967 0.31345 0.0
Cd30 Cd 0.91678 0.80899 0.27661 0.0
O31 O 0.85193 0.76769 0.26678 0.0
O32 O 0.88286 0.7212 0.34306 0.0
O33 O 0.85833 0.79716 0.32924 0.0
C34 C 0.85336 0.76133 0.34433 0.0
C35 C 0.94293 0.89522 0.27796 0.0
C36 C 0.85111 0.72021 0.27256 0.0
C37 C 1.00535 0.74763 0.2896 0.0
O38 O 0.97913 0.76331 0.27291 0.0
O39 O 0.98747 0.74937 0.30967 0.0
O40 O 0.93389 0.87299 0.2588 0.0
O41 O 0.93118 0.87064 0.29631 0.0
O42 O 0.7046 0.14147 0.72716 0.0
Cd43 Cd 0.74984 0.10902 0.70338 0.0
Cd44 Cd 0.80919 0.09971 0.74006 0.0
O45 O 0.76831 0.16465 0.75002 0.0
O46 O 0.72132 0.13398 0.67378 0.0
O47 O 0.79769 0.1579 0.68742 0.0
C48 C 0.76177 0.16302 0.67237 0.0
C49 C 0.89544 0.07365 0.73839 0.0
C50 C 0.7208 0.16593 0.74425 0.0
C51 C 0.74711 0.01163 0.72708 0.0
O52 O 0.76327 0.03748 0.74376 0.0
O53 O 0.74886 0.02964 0.70703 0.0
O54 O 0.87351 0.08236 0.75764 0.0
O55 O 0.87052 0.08559 0.72013 0.0
O56 O 0.14312 0.20462 0.97777 0.0
Cd57 Cd 0.11001 0.24857 0.95356 0.0
Cd58 Cd 0.10012 0.30906 0.99036 0.0
O59 O 0.16541 0.26882 1.00049 0.0
O60 O 0.13455 0.21846 0.9242 0.0
O61 O 0.15827 0.29569 0.9368 0.0
C62 C 0.16325 0.25898 0.92216 0.0
C63 C 0.07411 0.39544 0.98931 0.0
C64 C 0.16735 0.22133 0.99484 0.0
C65 C 0.01236 0.246 0.9771 0.0
O66 O 0.03789 0.26282 0.99378 0.0
O67 O 0.03061 0.2472 0.95711 0.0
O68 O 0.08247 0.37254 1.00839 0.0
O69 O 0.08618 0.37137 0.9709 0.0
O70 O 0.20475 0.87504 0.03942 0.0
Cd71 Cd 0.24985 0.90733 0.0634 0.0
Cd72 Cd 0.30946 0.91658 0.0266 0.0
O73 O 0.2687 0.8514 0.01685 0.0
O74 O 0.22121 0.88212 0.09295 0.0
O75 O 0.29745 0.858 0.07934 0.0
C76 C 0.26152 0.85287 0.09436 0.0
C77 C 0.39594 0.9421 0.02767 0.0
C78 C 0.22116 0.85013 0.02251 0.0
C79 C 0.24859 1.00527 0.03983 0.0
O80 O 0.26387 0.97919 0.02308 0.0
O81 O 0.25006 0.98692 0.05983 0.0
O82 O 0.37298 0.93404 0.00858 0.0
O83 O 0.37181 0.92999 0.04608 0.0
O84 O 0.87654 0.81248 0.97751 0.0
Cd85 Cd 0.90803 0.76719 0.9535 0.0
Cd86 Cd 0.91672 0.70719 0.9904 0.0
O87 O 0.8524 0.74903 1.0003 0.0
O88 O 0.88351 0.79692 0.92399 0.0
O89 O 0.85799 0.72088 0.93733 0.0
C90 C 0.8536 0.75715 0.92241 0.0
C91 C 0.94181 0.62064 0.98923 0.0
C92 C 0.85192 0.79655 0.99459 0.0
C93 C 1.00581 0.76773 0.97715 0.0
O94 O 0.97966 0.75228 0.99387 0.0
O95 O 0.9876 0.76642 0.95712 0.0
O96 O 0.93336 0.64321 1.00836 0.0
O97 O 0.93003 0.64511 0.97085 0.0
O98 O 0.81229 0.14154 0.03968 0.0
Cd99 Cd 0.76722 0.10926 0.06361 0.0
Cd100 Cd 0.70777 0.09966 0.02653 0.0
O101 O 0.74909 0.16404 0.01638 0.0
O102 O 0.79625 0.134 0.09318 0.0
O103 O 0.71969 0.15806 0.07982 0.0
C104 C 0.75581 0.16297 0.09479 0.0
C105 C 0.62134 0.07409 0.02757 0.0
C106 C 0.79648 0.16529 0.02231 0.0
C107 C 0.77 0.01165 0.03998 0.0
O108 O 0.75356 0.03725 0.02325 0.0
O109 O 0.76844 0.02984 0.05999 0.0
O110 O 0.64415 0.08237 0.00848 0.0
O111 O 0.64553 0.08615 0.04599 0.0
O112 O 0.64065 0.81226 0.78945 0.0
Cd113 Cd 0.60892 0.76701 0.81345 0.0
Cd114 Cd 0.60007 0.70734 0.77674 0.0
O115 O 0.66458 0.74873 0.76672 0.0
O116 O 0.6329 0.79697 0.84295 0.0
O117 O 0.65883 0.72087 0.82991 0.0
C118 C 0.66277 0.75721 0.84478 0.0
C119 C 0.57423 0.62111 0.77837 0.0
C120 C 0.66521 0.79626 0.77238 0.0
C121 C 0.51125 0.76798 0.78967 0.0
O122 O 0.53748 0.75267 0.77297 0.0
O123 O 0.52935 0.76645 0.80972 0.0
O124 O 0.583 0.64316 0.75913 0.0
O125 O 0.58615 0.64588 0.79664 0.0
O126 O 0.81227 0.37455 0.22741 0.0
Cd127 Cd 0.76743 0.4072 0.20348 0.0
Cd128 Cd 0.70742 0.41613 0.23996 0.0
O129 O 0.7481 0.35091 0.24987 0.0
O130 O 0.7961 0.3821 0.17396 0.0
O131 O 0.71967 0.35822 0.18749 0.0
C132 C 0.75569 0.35299 0.17253 0.0
C133 C 0.62109 0.44204 0.23817 0.0
C134 C 0.7957 0.34968 0.24431 0.0
C135 C 0.7696 0.50447 0.22731 0.0
O136 O 0.75326 0.47841 0.2439 0.0
O137 O 0.76826 0.48663 0.20724 0.0
O138 O 0.64298 0.43313 0.25744 0.0
O139 O 0.64612 0.43043 0.21994 0.0
O140 O 0.37546 0.20419 0.78888 0.0
Cd141 Cd 0.40733 0.24861 0.81315 0.0
Cd142 Cd 0.41657 0.3096 0.77667 0.0
O143 O 0.35239 0.26825 0.76617 0.0
O144 O 0.3821 0.21889 0.84251 0.0
O145 O 0.35788 0.29552 0.82932 0.0
C146 C 0.35279 0.25909 0.84412 0.0
C147 C 0.4415 0.39618 0.77831 0.0
C148 C 0.35142 0.22063 0.7717 0.0
C149 C 0.50525 0.24774 0.78962 0.0
O150 O 0.47947 0.26455 0.773 0.0
O151 O 0.48692 0.24823 0.80962 0.0
O152 O 0.43333 0.37398 0.75907 0.0
O153 O 0.42966 0.37127 0.79656 0.0
O154 O 0.20466 0.64097 0.22712 0.0
Cd155 Cd 0.25 0.60858 0.20331 0.0
Cd156 Cd 0.30961 0.60011 0.24001 0.0
O157 O 0.2683 0.66482 0.24988 0.0
O158 O 0.22136 0.63324 0.17363 0.0
O159 O 0.29751 0.65775 0.18727 0.0
C160 C 0.26162 0.66254 0.17218 0.0
C161 C 0.39603 0.57478 0.23821 0.0
C162 C 0.22077 0.66575 0.24414 0.0
C163 C 0.24896 0.51103 0.22723 0.0
O164 O 0.26448 0.53734 0.24389 0.0
O165 O 0.25023 0.52905 0.20717 0.0
O166 O 0.37422 0.58345 0.25749 0.0
O167 O 0.37086 0.58646 0.21998 0.0
O168 O 0.64237 0.70458 0.4776 0.0
Cd169 Cd 0.61001 0.74937 0.45351 0.0
Cd170 Cd 0.60029 0.80919 0.49045 0.0
O171 O 0.66464 0.76795 0.50077 0.0
O172 O 0.63474 0.72023 0.42398 0.0
O173 O 0.65865 0.79688 0.43717 0.0
C174 C 0.66358 0.76075 0.42226 0.0
C175 C 0.57473 0.89561 0.48937 0.0
C176 C 0.66599 0.72055 0.49497 0.0
C177 C 0.51224 0.74695 0.47709 0.0
O178 O 0.53779 0.76351 0.4938 0.0
O179 O 0.53054 0.74826 0.4571 0.0
O180 O 0.58299 0.87273 0.50847 0.0
O181 O 0.58681 0.8715 0.47097 0.0
O182 O 0.70482 0.37398 0.53906 0.0
Cd183 Cd 0.74922 0.40649 0.56328 0.0
Cd184 Cd 0.80903 0.41748 0.52657 0.0
O185 O 0.76893 0.35249 0.51616 0.0
O186 O 0.72018 0.38104 0.59268 0.0
O187 O 0.7972 0.35812 0.57952 0.0
C188 C 0.76101 0.35261 0.59438 0.0
C189 C 0.89532 0.44364 0.5278 0.0
C190 C 0.72144 0.35034 0.52184 0.0
C191 C 0.74618 0.50476 0.54026 0.0
O192 O 0.76265 0.47967 0.52342 0.0
O193 O 0.74773 0.48594 0.56016 0.0
O194 O 0.87253 0.43568 0.50866 0.0
O195 O 0.87121 0.43105 0.54614 0.0
O196 O 0.37598 0.3125 0.47795 0.0
Cd197 Cd 0.40725 0.26761 0.45367 0.0
Cd198 Cd 0.4178 0.20759 0.49046 0.0
O199 O 0.35369 0.24882 0.50099 0.0
O200 O 0.38145 0.29694 0.42431 0.0
O201 O 0.35751 0.22047 0.43774 0.0
C202 C 0.35222 0.25666 0.42284 0.0
C203 C 0.44281 0.12102 0.48945 0.0
C204 C 0.35237 0.29631 0.49527 0.0
C205 C 0.50609 0.26875 0.47651 0.0
O206 O 0.4808 0.25285 0.49341 0.0
O207 O 0.48696 0.26764 0.45665 0.0
O208 O 0.43531 0.14408 0.50854 0.0
O209 O 0.43025 0.14507 0.47106 0.0
O210 O 0.31284 0.64038 0.53945 0.0
Cd211 Cd 0.26763 0.60905 0.56356 0.0
Cd212 Cd 0.20794 0.5992 0.52664 0.0
O213 O 0.24944 0.66337 0.51635 0.0
O214 O 0.29749 0.63418 0.59289 0.0
O215 O 0.22101 0.65885 0.57964 0.0
C216 C 0.25745 0.66372 0.59446 0.0
C217 C 0.12122 0.57474 0.52778 0.0
C218 C 0.2969 0.66442 0.52218 0.0
C219 C 0.26938 0.51084 0.54058 0.0
O220 O 0.25325 0.5362 0.52371 0.0
O221 O 0.26793 0.52957 0.56049 0.0
O222 O 0.14416 0.58219 0.50865 0.0
O223 O 0.14554 0.58697 0.54613 0.0
C224 C 0.20356 0.37145 0.24836 0.0
C225 C 0.189 0.3332 0.25787 0.0
C226 C 0.21733 0.41883 0.2386 0.0
C227 C 0.23092 0.4602 0.23171 0.0
C228 C 0.4191 0.79989 0.77837 0.0
C229 C 0.46044 0.78616 0.78525 0.0
C230 C 0.37175 0.81388 0.76864 0.0
C231 C 0.33356 0.82861 0.75912 0.0
C232 C 0.80296 0.59591 0.23877 0.0
C233 C 0.78863 0.55486 0.23185 0.0
C234 C 0.81659 0.6433 0.24849 0.0
C235 C 0.83029 0.68184 0.25798 0.0
C236 C 0.59689 0.21477 0.77817 0.0
C237 C 0.55576 0.22884 0.78513 0.0
C238 C 0.64421 0.20106 0.76836 0.0
C239 C 0.6826 0.18703 0.75884 0.0
C240 C 0.21724 0.09781 0.02877 0.0
C241 C 0.23071 0.05627 0.03554 0.0
C242 C 0.20359 0.14533 0.01909 0.0
C243 C 0.1891 0.18359 0.00954 0.0
C244 C 0.1451 0.81357 0.9984 0.0
C245 C 0.18323 0.82826 1.00797 0.0
C246 C 0.0979 0.79965 0.98851 0.0
C247 C 0.05661 0.78596 0.98155 0.0
C248 C 0.81794 0.87332 0.01887 0.0
C249 C 0.83146 0.83493 0.00924 0.0
C250 C 0.80421 0.9205 0.02871 0.0
C251 C 0.78955 0.96141 0.03563 0.0
C252 C 0.8736 0.19833 0.99797 0.0
C253 C 0.83503 0.18517 1.00758 0.0
C254 C 0.92103 0.21183 0.98826 0.0
C255 C 0.96207 0.22648 0.98146 0.0
C256 C 0.69924 0.87306 0.7481 0.0
C257 C 0.68573 0.83458 0.75769 0.0
C258 C 0.713 0.92038 0.73835 0.0
C259 C 0.72769 0.96136 0.73149 0.0
C260 C 0.91956 0.29994 0.27804 0.0
C261 C 0.96098 0.2863 0.28488 0.0
C262 C 0.87199 0.31355 0.26839 0.0
C263 C 0.83358 0.32789 0.25892 0.0
C264 C 0.30372 0.09699 0.73741 0.0
C265 C 0.28912 0.05582 0.73075 0.0
C266 C 0.31752 0.14436 0.74709 0.0
C267 C 0.331 0.18267 0.75681 0.0
C268 C 0.09701 0.71483 0.27813 0.0
C269 C 0.05592 0.72891 0.28513 0.0
C270 C 0.14422 0.70106 0.26825 0.0
C271 C 0.18253 0.68693 0.25869 0.0
C272 C 0.7122 0.59637 0.52945 0.0
C273 C 0.72674 0.5552 0.53618 0.0
C274 C 0.69881 0.64376 0.51964 0.0
C275 C 0.68573 0.68218 0.50987 0.0
C276 C 0.64562 0.31498 0.49721 0.0
C277 C 0.68366 0.32924 0.50699 0.0
C278 C 0.59836 0.30118 0.48731 0.0
C279 C 0.55695 0.28734 0.48053 0.0
C280 C 0.30394 0.41952 0.52974 0.0
C281 C 0.2891 0.46053 0.53649 0.0
C282 C 0.31818 0.37248 0.51989 0.0
C283 C 0.33198 0.3344 0.51009 0.0
C284 C 0.42096 0.71279 0.48829 0.0
C285 C 0.46196 0.72744 0.48144 0.0
C286 C 0.37369 0.69884 0.49802 0.0
C287 C 0.33527 0.68506 0.50757 0.0
C288 C 0.27729 0.25316 0.39207 0.0
C289 C 0.31135 0.25443 0.40616 0.0
C290 C 0.23644 0.25308 0.37594 0.0
C291 C 0.20283 0.25426 0.36166 0.0
C292 C 0.25504 0.73851 0.62518 0.0
C293 C 0.25584 0.7045 0.61112 0.0
C294 C 0.25513 0.77941 0.64121 0.0
C295 C 0.25609 0.81318 0.65537 0.0
C296 C 0.73751 0.7647 0.3911 0.0
C297 C 0.70389 0.76319 0.40535 0.0
C298 C 0.77837 0.76489 0.37501 0.0
C299 C 0.81243 0.76365 0.36095 0.0
C300 C 0.76564 0.23761 0.64152 0.0
C301 C 0.76428 0.20372 0.65565 0.0
C302 C 0.76543 0.27844 0.62541 0.0
C303 C 0.76376 0.31216 0.6112 0.0
C304 C 0.23715 0.26198 0.89099 0.0
C305 C 0.20353 0.26084 0.90524 0.0
C306 C 0.27799 0.26201 0.87489 0.0
C307 C 0.312 0.26095 0.86081 0.0
C308 C 0.26533 0.73699 0.1412 0.0
C309 C 0.26396 0.70315 0.15538 0.0
C310 C 0.26532 0.77797 0.12513 0.0
C311 C 0.26394 0.812 0.11104 0.0
C312 C 0.77884 0.75437 0.89154 0.0
C313 C 0.81291 0.75559 0.90562 0.0
C314 C 0.73741 0.75438 0.87569 0.0
C315 C 0.70329 0.75592 0.86164 0.0
C316 C 0.75197 0.23714 0.12581 0.0
C317 C 0.75344 0.20341 0.11162 0.0
C318 C 0.7519 0.27807 0.14185 0.0
C319 C 0.75327 0.31212 0.1559 0.0
C320 C 0.99504 0.98414 0.27913 0.0
C321 C 0.97128 0.94362 0.27883 0.0
C322 C 0.02472 0.03069 0.27914 0.0
C323 C 0.04801 0.07148 0.27887 0.0
C324 C 0.98459 0.02199 0.73694 0.0
C325 C 0.94396 0.04556 0.73733 0.0
C326 C 0.0313 0.99257 0.73696 0.0
C327 C 0.07222 0.96951 0.73737 0.0
C328 C 0.02276 0.48477 0.9883 0.0
C329 C 0.04618 0.44407 0.98856 0.0
C330 C 0.9932 0.53137 0.98825 0.0
C331 C 0.96976 0.57205 0.98844 0.0
C332 C 0.48541 0.99318 0.02862 0.0
C333 C 0.44464 0.96987 0.02844 0.0
C334 C 0.53202 0.02272 0.02858 0.0
C335 C 0.57272 0.04615 0.02834 0.0
C336 C 0.49254 0.48565 0.77978 0.0
C337 C 0.46925 0.44488 0.77939 0.0
C338 C 0.52221 0.53219 0.77979 0.0
C339 C 0.54594 0.57272 0.7794 0.0
C340 C 0.53187 0.49364 0.23664 0.0
C341 C 0.57253 0.47011 0.23707 0.0
C342 C 0.48529 0.52329 0.23665 0.0
C343 C 0.44461 0.54678 0.23709 0.0
C344 C 0.49387 0.03155 0.48838 0.0
C345 C 0.47057 0.07232 0.48863 0.0
C346 C 0.52338 0.98493 0.48836 0.0
C347 C 0.5468 0.94423 0.48859 0.0
C348 C 0.9846 0.49507 0.52898 0.0
C349 C 0.94392 0.4716 0.52869 0.0
C350 C 0.03134 0.52439 0.52897 0.0
C351 C 0.0723 0.54737 0.52867 0.0
loop_
_geom_bond_atom_site_label_1
_geom_bond_atom_site_label_2
_geom_bond_distance
_geom_bond_site_symmetry_2
_ccdc_geom_bond_type
O0 Cd1 2.223 . S
O0 C8 1.315 . S
Cd1 O0 2.223 . S
Cd1 O4 2.297 . S
Cd1 O5 2.439 . S
Cd1 O11 2.240 . S
Cd2 O3 2.240 . S
Cd2 O10 2.223 . S
Cd2 O12 2.297 . S
Cd2 O13 2.439 . S
O3 Cd2 2.240 . S
O3 C8 1.279 . S
O4 Cd1 2.297 . S
O4 C6 1.247 . S
O5 Cd1 2.439 . S
O5 C6 1.208 . S
C6 O4 1.247 . S
C6 O5 1.208 . S
C7 O12 1.247 . S
C7 O13 1.208 . S
C8 O0 1.315 . S
C8 O3 1.279 . S
C9 O10 1.315 . S
C9 O11 1.279 . S
O10 Cd2 2.223 . S
O10 C9 1.315 . S
O11 Cd1 2.240 . S
O11 C9 1.279 . S
O12 Cd2 2.297 . S
O12 C7 1.247 . S
O13 Cd2 2.439 . S
O13 C7 1.208 . S
O14 Cd15 2.223 . S
O14 C22 1.315 . S
Cd15 O14 2.223 . S
Cd15 O18 2.297 . S
Cd15 O19 2.439 . S
Cd15 O25 2.240 . S
Cd16 O17 2.240 . S
Cd16 O24 2.223 . S
Cd16 O26 2.297 . S
Cd16 O27 2.439 . S
O17 Cd16 2.240 . S
O17 C22 1.279 . S
O18 Cd15 2.297 . S
O18 C20 1.247 . S
O19 Cd15 2.439 . S
O19 C20 1.208 . S
C20 O18 1.247 . S
C20 O19 1.208 . S
C21 O26 1.247 . S
C21 O27 1.208 . S
C22 O14 1.315 . S
C22 O17 1.279 . S
C23 O24 1.315 . S
C23 O25 1.279 . S
O24 Cd16 2.223 . S
O24 C23 1.315 . S
O25 Cd15 2.240 . S
O25 C23 1.279 . S
O26 Cd16 2.297 . S
O26 C21 1.247 . S
O27 Cd16 2.439 . S
O27 C21 1.208 . S
O28 Cd29 2.223 . S
O28 C36 1.315 . S
Cd29 O28 2.223 . S
Cd29 O32 2.297 . S
Cd29 O33 2.439 . S
Cd29 O39 2.240 . S
Cd30 O31 2.240 . S
Cd30 O38 2.223 . S
Cd30 O40 2.297 . S
Cd30 O41 2.439 . S
O31 Cd30 2.240 . S
O31 C36 1.279 . S
O32 Cd29 2.297 . S
O32 C34 1.247 . S
O33 Cd29 2.439 . S
O33 C34 1.208 . S
C34 O32 1.247 . S
C34 O33 1.208 . S
C35 O40 1.247 . S
C35 O41 1.208 . S
C36 O28 1.315 . S
C36 O31 1.279 . S
C37 O38 1.315 . S
C37 O39 1.279 . S
O38 Cd30 2.223 . S
O38 C37 1.315 . S
O39 Cd29 2.240 . S
O39 C37 1.279 . S
O40 Cd30 2.297 . S
O40 C35 1.247 . S
O41 Cd30 2.439 . S
O41 C35 1.208 . S
O42 Cd43 2.223 . S
O42 C50 1.315 . S
Cd43 O42 2.223 . S
Cd43 O46 2.297 . S
Cd43 O47 2.439 . S
Cd43 O53 2.240 . S
Cd44 O45 2.240 . S
Cd44 O52 2.223 . S
Cd44 O54 2.297 . S
Cd44 O55 2.439 . S
O45 Cd44 2.240 . S
O45 C50 1.279 . S
O46 Cd43 2.297 . S
O46 C48 1.247 . S
O47 Cd43 2.439 . S
O47 C48 1.208 . S
C48 O46 1.247 . S
C48 O47 1.208 . S
C49 O54 1.247 . S
C49 O55 1.208 . S
C50 O42 1.315 . S
C50 O45 1.279 . S
C51 O52 1.315 . S
C51 O53 1.279 . S
O52 Cd44 2.223 . S
O52 C51 1.315 . S
O53 Cd43 2.240 . S
O53 C51 1.279 . S
O54 Cd44 2.297 . S
O54 C49 1.247 . S
O55 Cd44 2.439 . S
O55 C49 1.208 . S
O56 Cd57 2.223 . S
O56 C64 1.315 . S
Cd57 O56 2.223 . S
Cd57 O60 2.297 . S
Cd57 O61 2.439 . S
Cd57 O67 2.240 . S
Cd58 O59 2.240 . S
Cd58 O66 2.223 1_556 S
Cd58 O68 2.297 . S
Cd58 O69 2.439 . S
O59 Cd58 2.240 . S
O59 C64 1.279 . S
O60 Cd57 2.297 . S
O60 C62 1.247 . S
O61 Cd57 2.439 . S
O61 C62 1.208 . S
C62 O60 1.247 . S
C62 O61 1.208 . S
C63 O68 1.247 . S
C63 O69 1.208 . S
C64 O56 1.315 . S
C64 O59 1.279 . S
C65 O66 1.315 1_556 S
C65 O67 1.279 . S
O66 Cd58 2.223 1_554 S
O66 C65 1.315 1_554 S
O67 Cd57 2.240 . S
O67 C65 1.279 . S
O68 Cd58 2.297 . S
O68 C63 1.247 . S
O69 Cd58 2.439 . S
O69 C63 1.208 . S
O70 Cd71 2.223 . S
O70 C78 1.315 . S
Cd71 O70 2.223 . S
Cd71 O74 2.297 . S
Cd71 O75 2.439 . S
Cd71 O81 2.240 . S
Cd72 O73 2.240 . S
Cd72 O80 2.223 1_554 S
Cd72 O82 2.297 . S
Cd72 O83 2.439 . S
O73 Cd72 2.240 . S
O73 C78 1.279 . S
O74 Cd71 2.297 . S
O74 C76 1.247 . S
O75 Cd71 2.439 . S
O75 C76 1.208 . S
C76 O74 1.247 . S
C76 O75 1.208 . S
C77 O82 1.247 . S
C77 O83 1.208 . S
C78 O70 1.315 . S
C78 O73 1.279 . S
C79 O80 1.315 1_554 S
C79 O81 1.279 . S
O80 Cd72 2.223 1_556 S
O80 C79 1.315 1_556 S
O81 Cd71 2.240 . S
O81 C79 1.279 . S
O82 Cd72 2.297 . S
O82 C77 1.247 . S
O83 Cd72 2.439 . S
O83 C77 1.208 . S
O84 Cd85 2.223 . S
O84 C92 1.315 . S
Cd85 O84 2.223 . S
Cd85 O88 2.297 . S
Cd85 O89 2.439 . S
Cd85 O95 2.240 . S
Cd86 O87 2.240 . S
Cd86 O94 2.223 1_556 S
Cd86 O96 2.297 . S
Cd86 O97 2.439 . S
O87 Cd86 2.240 . S
O87 C92 1.279 . S
O88 Cd85 2.297 . S
O88 C90 1.247 . S
O89 Cd85 2.439 . S
O89 C90 1.208 . S
C90 O88 1.247 . S
C90 O89 1.208 . S
C91 O96 1.247 . S
C91 O97 1.208 . S
C92 O84 1.315 . S
C92 O87 1.279 . S
C93 O94 1.315 1_556 S
C93 O95 1.279 . S
O94 Cd86 2.223 1_554 S
O94 C93 1.315 1_554 S
O95 Cd85 2.240 . S
O95 C93 1.279 . S
O96 Cd86 2.297 . S
O96 C91 1.247 . S
O97 Cd86 2.439 . S
O97 C91 1.208 . S
O98 Cd99 2.223 . S
O98 C106 1.315 . S
Cd99 O98 2.223 . S
Cd99 O102 2.297 . S
Cd99 O103 2.439 . S
Cd99 O109 2.240 . S
Cd100 O101 2.240 . S
Cd100 O108 2.223 1_554 S
Cd100 O110 2.297 . S
Cd100 O111 2.439 . S
O101 Cd100 2.240 . S
O101 C106 1.279 . S
O102 Cd99 2.297 . S
O102 C104 1.247 . S
O103 Cd99 2.439 . S
O103 C104 1.208 . S
C104 O102 1.247 . S
C104 O103 1.208 . S
C105 O110 1.247 . S
C105 O111 1.208 . S
C106 O98 1.315 . S
C106 O101 1.279 . S
C107 O108 1.315 1_554 S
C107 O109 1.279 . S
O108 Cd100 2.223 1_556 S
O108 C107 1.315 1_556 S
O109 Cd99 2.240 . S
O109 C107 1.279 . S
O110 Cd100 2.297 . S
O110 C105 1.247 . S
O111 Cd100 2.439 . S
O111 C105 1.208 . S
O112 Cd113 2.223 . S
O112 C120 1.315 . S
Cd113 O112 2.223 . S
Cd113 O116 2.297 . S
Cd113 O117 2.439 . S
Cd113 O123 2.240 . S
Cd114 O115 2.240 . S
Cd114 O122 2.223 . S
Cd114 O124 2.297 . S
Cd114 O125 2.439 . S
O115 Cd114 2.240 . S
O115 C120 1.279 . S
O116 Cd113 2.297 . S
O116 C118 1.247 . S
O117 Cd113 2.439 . S
O117 C118 1.208 . S
C118 O116 1.247 . S
C118 O117 1.208 . S
C119 O124 1.247 . S
C119 O125 1.208 . S
C120 O112 1.315 . S
C120 O115 1.279 . S
C121 O122 1.315 . S
C121 O123 1.279 . S
O122 Cd114 2.223 . S
O122 C121 1.315 . S
O123 Cd113 2.240 . S
O123 C121 1.279 . S
O124 Cd114 2.297 . S
O124 C119 1.247 . S
O125 Cd114 2.439 . S
O125 C119 1.208 . S
O126 Cd127 2.223 . S
O126 C134 1.315 . S
Cd127 O126 2.223 . S
Cd127 O130 2.297 . S
Cd127 O131 2.439 . S
Cd127 O137 2.240 . S
Cd128 O129 2.240 . S
Cd128 O136 2.223 . S
Cd128 O138 2.297 . S
Cd128 O139 2.439 . S
O129 Cd128 2.240 . S
O129 C134 1.279 . S
O130 Cd127 2.297 . S
O130 C132 1.247 . S
O131 Cd127 2.439 . S
O131 C132 1.208 . S
C132 O130 1.247 . S
C132 O131 1.208 . S
C133 O138 1.247 . S
C133 O139 1.208 . S
C134 O126 1.315 . S
C134 O129 1.279 . S
C135 O136 1.315 . S
C135 O137 1.279 . S
O136 Cd128 2.223 . S
O136 C135 1.315 . S
O137 Cd127 2.240 . S
O137 C135 1.279 . S
O138 Cd128 2.297 . S
O138 C133 1.247 . S
O139 Cd128 2.439 . S
O139 C133 1.208 . S
O140 Cd141 2.223 . S
O140 C148 1.315 . S
Cd141 O140 2.223 . S
Cd141 O144 2.297 . S
Cd141 O145 2.439 . S
Cd141 O151 2.240 . S
Cd142 O143 2.240 . S
Cd142 O150 2.223 . S
Cd142 O152 2.297 . S
Cd142 O153 2.439 . S
O143 Cd142 2.240 . S
O143 C148 1.279 . S
O144 Cd141 2.297 . S
O144 C146 1.247 . S
O145 Cd141 2.439 . S
O145 C146 1.208 . S
C146 O144 1.247 . S
C146 O145 1.208 . S
C147 O152 1.247 . S
C147 O153 1.208 . S
C148 O140 1.315 . S
C148 O143 1.279 . S
C149 O150 1.315 . S
C149 O151 1.279 . S
O150 Cd142 2.223 . S
O150 C149 1.315 . S
O151 Cd141 2.240 . S
O151 C149 1.279 . S
O152 Cd142 2.297 . S
O152 C147 1.247 . S
O153 Cd142 2.439 . S
O153 C147 1.208 . S
O154 Cd155 2.223 . S
O154 C162 1.315 . S
Cd155 O154 2.223 . S
Cd155 O158 2.297 . S
Cd155 O159 2.439 . S
Cd155 O165 2.240 . S
Cd156 O157 2.240 . S
Cd156 O164 2.223 . S
Cd156 O166 2.297 . S
Cd156 O167 2.439 . S
O157 Cd156 2.240 . S
O157 C162 1.279 . S
O158 Cd155 2.297 . S
O158 C160 1.247 . S
O159 Cd155 2.439 . S
O159 C160 1.208 . S
C160 O158 1.247 . S
C160 O159 1.208 . S
C161 O166 1.247 . S
C161 O167 1.208 . S
C162 O154 1.315 . S
C162 O157 1.279 . S
C163 O164 1.315 . S
C163 O165 1.279 . S
O164 Cd156 2.223 . S
O164 C163 1.315 . S
O165 Cd155 2.240 . S
O165 C163 1.279 . S
O166 Cd156 2.297 . S
O166 C161 1.247 . S
O167 Cd156 2.439 . S
O167 C161 1.208 . S
O168 Cd169 2.223 . S
O168 C176 1.315 . S
Cd169 O168 2.223 . S
Cd169 O172 2.297 . S
Cd169 O173 2.439 . S
Cd169 O179 2.240 . S
Cd170 O171 2.240 . S
Cd170 O178 2.223 . S
Cd170 O180 2.297 . S
Cd170 O181 2.439 . S
O171 Cd170 2.240 . S
O171 C176 1.279 . S
O172 Cd169 2.297 . S
O172 C174 1.247 . S
O173 Cd169 2.439 . S
O173 C174 1.208 . S
C174 O172 1.247 . S
C174 O173 1.208 . S
C175 O180 1.247 . S
C175 O181 1.208 . S
C176 O168 1.315 . S
C176 O171 1.279 . S
C177 O178 1.315 . S
C177 O179 1.279 . S
O178 Cd170 2.223 . S
O178 C177 1.315 . S
O179 Cd169 2.240 . S
O179 C177 1.279 . S
O180 Cd170 2.297 . S
O180 C175 1.247 . S
O181 Cd170 2.439 . S
O181 C175 1.208 . S
O182 Cd183 2.223 . S
O182 C190 1.315 . S
Cd183 O182 2.223 . S
Cd183 O186 2.297 . S
Cd183 O187 2.439 . S
Cd183 O193 2.240 . S
Cd184 O185 2.240 . S
Cd184 O192 2.223 . S
Cd184 O194 2.297 . S
Cd184 O195 2.439 . S
O185 Cd184 2.240 . S
O185 C190 1.279 . S
O186 Cd183 2.297 . S
O186 C188 1.247 . S
O187 Cd183 2.439 . S
O187 C188 1.208 . S
C188 O186 1.247 . S
C188 O187 1.208 . S
C189 O194 1.247 . S
C189 O195 1.208 . S
C190 O182 1.315 . S
C190 O185 1.279 . S
C191 O192 1.315 . S
C191 O193 1.279 . S
O192 Cd184 2.223 . S
O192 C191 1.315 . S
O193 Cd183 2.240 . S
O193 C191 1.279 . S
O194 Cd184 2.297 . S
O194 C189 1.247 . S
O195 Cd184 2.439 . S
O195 C189 1.208 . S
O196 Cd197 2.223 . S
O196 C204 1.315 . S
Cd197 O196 2.223 . S
Cd197 O200 2.297 . S
Cd197 O201 2.439 . S
Cd197 O207 2.240 . S
Cd198 O199 2.240 . S
Cd198 O206 2.223 . S
Cd198 O208 2.297 . S
Cd198 O209 2.439 . S
O199 Cd198 2.240 . S
O199 C204 1.279 . S
O200 Cd197 2.297 . S
O200 C202 1.247 . S
O201 Cd197 2.439 . S
O201 C202 1.208 . S
C202 O200 1.247 . S
C202 O201 1.208 . S
C203 O208 1.247 . S
C203 O209 1.208 . S
C204 O196 1.315 . S
C204 O199 1.279 . S
C205 O206 1.315 . S
C205 O207 1.279 . S
O206 Cd198 2.223 . S
O206 C205 1.315 . S
O207 Cd197 2.240 . S
O207 C205 1.279 . S
O208 Cd198 2.297 . S
O208 C203 1.247 . S
O209 Cd198 2.439 . S
O209 C203 1.208 . S
O210 Cd211 2.223 . S
O210 C218 1.315 . S
Cd211 O210 2.223 . S
Cd211 O214 2.297 . S
Cd211 O215 2.439 . S
Cd211 O221 2.240 . S
Cd212 O213 2.240 . S
Cd212 O220 2.223 . S
Cd212 O222 2.297 . S
Cd212 O223 2.439 . S
O213 Cd212 2.240 . S
O213 C218 1.279 . S
O214 Cd211 2.297 . S
O214 C216 1.247 . S
O215 Cd211 2.439 . S
O215 C216 1.208 . S
C216 O214 1.247 . S
C216 O215 1.208 . S
C217 O222 1.247 . S
C217 O223 1.208 . S
C218 O210 1.315 . S
C218 O213 1.279 . S
C219 O220 1.315 . S
C219 O221 1.279 . S
O220 Cd212 2.223 . S
O220 C219 1.315 . S
O221 Cd211 2.240 . S
O221 C219 1.279 . S
O222 Cd212 2.297 . S
O222 C217 1.247 . S
O223 Cd212 2.439 . S
O223 C217 1.208 . S
C224 C225 1.170 . S
C224 C226 1.380 . S
C225 C224 1.170 . S
C226 C224 1.380 . S
C226 C227 1.170 . S
C227 C226 1.170 . S
C228 C229 1.170 . S
C228 C230 1.380 . S
C229 C228 1.170 . S
C230 C228 1.380 . S
C230 C231 1.170 . S
C231 C230 1.170 . S
C232 C233 1.170 . S
C232 C234 1.380 . S
C233 C232 1.170 . S
C234 C232 1.380 . S
C234 C235 1.170 . S
C235 C234 1.170 . S
C236 C237 1.170 . S
C236 C238 1.380 . S
C237 C236 1.170 . S
C238 C236 1.380 . S
C238 C239 1.170 . S
C239 C238 1.170 . S
C240 C241 1.170 . S
C240 C242 1.380 . S
C241 C240 1.170 . S
C242 C240 1.380 . S
C242 C243 1.170 1_554 S
C243 C242 1.170 1_556 S
C244 C245 1.171 1_556 S
C244 C246 1.380 . S
C245 C244 1.171 1_554 S
C246 C244 1.380 . S
C246 C247 1.170 . S
C247 C246 1.170 . S
C248 C249 1.171 1_554 S
C248 C250 1.379 . S
C249 C248 1.171 1_556 S
C250 C248 1.379 . S
C250 C251 1.170 . S
C251 C250 1.170 . S
C252 C253 1.157 1_556 S
C252 C254 1.397 . S
C253 C252 1.157 1_554 S
C254 C252 1.397 . S
C254 C255 1.170 . S
C255 C254 1.170 . S
C256 C257 1.170 . S
C256 C258 1.380 . S
C257 C256 1.170 . S
C258 C256 1.380 . S
C258 C259 1.170 . S
C259 C258 1.170 . S
C260 C261 1.170 . S
C260 C262 1.380 . S
C261 C260 1.170 . S
C262 C260 1.380 . S
C262 C263 1.170 . S
C263 C262 1.170 . S
C264 C265 1.170 . S
C264 C266 1.380 . S
C265 C264 1.170 . S
C266 C264 1.380 . S
C266 C267 1.170 . S
C267 C266 1.170 . S
C268 C269 1.170 . S
C268 C270 1.380 . S
C269 C268 1.170 . S
C270 C268 1.380 . S
C270 C271 1.170 . S
C271 C270 1.170 . S
C272 C273 1.170 . S
C272 C274 1.380 . S
C273 C272 1.170 . S
C274 C272 1.380 . S
C274 C275 1.170 . S
C275 C274 1.170 . S
C276 C277 1.170 . S
C276 C278 1.380 . S
C277 C276 1.170 . S
C278 C276 1.380 . S
C278 C279 1.170 . S
C279 C278 1.170 . S
C280 C281 1.170 . S
C280 C282 1.380 . S
C281 C280 1.170 . S
C282 C280 1.380 . S
C282 C283 1.170 . S
C283 C282 1.170 . S
C284 C285 1.170 . S
C284 C286 1.380 . S
C285 C284 1.170 . S
C286 C284 1.380 . S
C286 C287 1.170 . S
C287 C286 1.170 . S
C288 C289 1.170 . S
C288 C290 1.380 . S
C289 C288 1.170 . S
C290 C288 1.380 . S
C290 C291 1.170 . S
C291 C290 1.170 . S
C292 C293 1.170 . S
C292 C294 1.380 . S
C293 C292 1.170 . S
C294 C292 1.380 . S
C294 C295 1.170 . S
C295 C294 1.170 . S
C296 C297 1.170 . S
C296 C298 1.380 . S
C297 C296 1.170 . S
C298 C296 1.380 . S
C298 C299 1.170 . S
C299 C298 1.170 . S
C300 C301 1.170 . S
C300 C302 1.380 . S
C301 C300 1.170 . S
C302 C300 1.380 . S
C302 C303 1.170 . S
C303 C302 1.170 . S
C304 C305 1.170 . S
C304 C306 1.380 . S
C305 C304 1.170 . S
C306 C304 1.380 . S
C306 C307 1.170 . S
C307 C306 1.170 . S
C308 C309 1.170 . S
C308 C310 1.380 . S
C309 C308 1.170 . S
C310 C308 1.380 . S
C310 C311 1.170 . S
C311 C310 1.170 . S
C312 C313 1.170 . S
C312 C314 1.380 . S
C313 C312 1.170 . S
C314 C312 1.380 . S
C314 C315 1.170 . S
C315 C314 1.170 . S
C316 C317 1.170 . S
C316 C318 1.380 . S
C317 C316 1.170 . S
C318 C316 1.380 . S
C318 C319 1.170 . S
C319 C318 1.170 . S
C320 C321 1.170 . S
C320 C322 1.380 1_665 S
C321 C320 1.170 . S
C322 C320 1.380 1_445 S
C322 C323 1.170 . S
C323 C322 1.170 . S
C324 C325 1.170 . S
C324 C326 1.380 1_645 S
C325 C324 1.170 . S
C326 C324 1.380 1_465 S
C326 C327 1.170 . S
C327 C326 1.170 . S
C328 C329 1.170 . S
C328 C330 1.380 1_455 S
C329 C328 1.170 . S
C330 C328 1.380 1_655 S
C330 C331 1.170 . S
C331 C330 1.170 . S
C332 C333 1.170 . S
C332 C334 1.380 1_565 S
C333 C332 1.170 . S
C334 C332 1.380 1_545 S
C334 C335 1.170 . S
C335 C334 1.170 . S
C336 C337 1.170 . S
C336 C338 1.380 . S
C337 C336 1.170 . S
C338 C336 1.380 . S
C338 C339 1.170 . S
C339 C338 1.170 . S
C340 C341 1.170 . S
C340 C342 1.380 . S
C341 C340 1.170 . S
C342 C340 1.380 . S
C342 C343 1.170 . S
C343 C342 1.170 . S
C344 C345 1.170 . S
C344 C346 1.380 1_545 S
C345 C344 1.170 . S
C346 C344 1.380 1_565 S
C346 C347 1.170 . S
C347 C346 1.170 . S
C348 C349 1.170 . S
C348 C350 1.380 1_655 S
C349 C348 1.170 . S
C350 C348 1.380 1_455 S
C350 C351 1.170 . S
C351 C350 1.170 . S
C225 C8 1.326 . S
C227 C163 1.346 . S
C229 C121 1.347 . S
C231 C22 1.305 . S
C233 C135 1.364 . S
C235 C36 1.294 . S
C237 C149 1.349 . S
C239 C50 1.293 . S
C241 C79 1.348 1_545 S
C243 C64 1.337 . S
C245 C78 1.307 . S
C247 C93 1.348 1_455 S
C249 C92 1.293 . S
C251 C107 1.371 1_565 S
C253 C106 1.312 . S
C255 C65 1.370 1_655 S
C257 C120 1.294 . S
C259 C51 1.372 1_565 S
C261 C9 1.347 1_655 S
C263 C134 1.302 . S
C265 C23 1.376 1_545 S
C267 C148 1.328 . S
C269 C37 1.349 1_455 S
C271 C162 1.293 . S
C273 C191 1.379 . S
C275 C176 1.318 . S
C277 C190 1.341 . S
C279 C205 1.369 . S
C281 C219 1.377 . S
C283 C204 1.326 . S
C285 C177 1.358 . S
C287 C218 1.297 . S
C289 C202 1.483 . S
C291 C6 1.479 . S
C293 C216 1.477 . S
C295 C20 1.470 . S
C297 C174 1.488 . S
C299 C34 1.490 . S
C301 C48 1.489 . S
C303 C188 1.489 . S
C305 C62 1.472 . S
C307 C146 1.475 . S
C309 C160 1.484 . S
C311 C76 1.491 . S
C313 C90 1.471 . S
C315 C118 1.470 . S
C317 C104 1.483 . S
C319 C132 1.492 . S
C321 C35 1.439 . S
C323 C7 1.456 . S
C325 C49 1.453 . S
C327 C21 1.459 . S
C329 C63 1.442 . S
C331 C91 1.446 . S
C333 C77 1.440 . S
C335 C105 1.439 . S
C337 C147 1.460 . S
C339 C119 1.444 . S
C341 C133 1.459 . S
C343 C161 1.460 . S
C345 C203 1.444 . S
C347 C175 1.444 . S
C349 C189 1.441 . S
C351 C217 1.449 . S
