# Generated by pormake.
# Topology lcv-a, (4)-cn, num edge types: 1
# Building blocks:
#     Node 0, Type 0, BuildingBlock: QUQFOY_clean_sbu_3, # of connection points: 4
#     Node 1, Type 0, BuildingBlock: QUQFOY_clean_sbu_3, # of connection points: 4
#     Node 2, Type 0, BuildingBlock: QUQFOY_clean_sbu_3, # of connection points: 4
#     Node 3, Type 0, BuildingBlock: QUQFOY_clean_sbu_3, # of connection points: 4
#     Node 4, Type 0, BuildingBlock: QUQFOY_clean_sbu_3, # of connection points: 4
#     Node 5, Type 0, BuildingBlock: QUQFOY_clean_sbu_3, # of connection points: 4
#     Node 6, Type 0, BuildingBlock: QUQFOY_clean_sbu_3, # of connection points: 4
#     Node 7, Type 0, BuildingBlock: QUQFOY_clean_sbu_3, # of connection points: 4
#     Node 8, Type 0, BuildingBlock: QUQFOY_clean_sbu_3, # of connection points: 4
#     Node 9, Type 0, BuildingBlock: QUQFOY_clean_sbu_3, # of connection points: 4
#     Node 10, Type 0, BuildingBlock: QUQFOY_clean_sbu_3, # of connection points: 4
#     Node 11, Type 0, BuildingBlock: QUQFOY_clean_sbu_3, # of connection points: 4
#     Node 12, Type 0, BuildingBlock: QUQFOY_clean_sbu_3, # of connection points: 4
#     Node 13, Type 0, BuildingBlock: QUQFOY_clean_sbu_3, # of connection points: 4
#     Node 14, Type 0, BuildingBlock: QUQFOY_clean_sbu_3, # of connection points: 4
#     Node 15, Type 0, BuildingBlock: QUQFOY_clean_sbu_3, # of connection points: 4
#     Node 16, Type 0, BuildingBlock: QUQFOY_clean_sbu_3, # of connection points: 4
#     Node 17, Type 0, BuildingBlock: QUQFOY_clean_sbu_3, # of connection points: 4
#     Node 18, Type 0, BuildingBlock: QUQFOY_clean_sbu_3, # of connection points: 4
#     Node 19, Type 0, BuildingBlock: QUQFOY_clean_sbu_3, # of connection points: 4
#     Node 20, Type 0, BuildingBlock: QUQFOY_clean_sbu_3, # of connection points: 4
#     Node 21, Type 0, BuildingBlock: QUQFOY_clean_sbu_3, # of connection points: 4
#     Node 22, Type 0, BuildingBlock: QUQFOY_clean_sbu_3, # of connection points: 4
#     Node 23, Type 0, BuildingBlock: QUQFOY_clean_sbu_3, # of connection points: 4
#     Node 24, Type 0, BuildingBlock: QUQFOY_clean_sbu_3, # of connection points: 4
#     Node 25, Type 0, BuildingBlock: QUQFOY_clean_sbu_3, # of connection points: 4
#     Node 26, Type 0, BuildingBlock: QUQFOY_clean_sbu_3, # of connection points: 4
#     Node 27, Type 0, BuildingBlock: QUQFOY_clean_sbu_3, # of connection points: 4
#     Node 28, Type 0, BuildingBlock: QUQFOY_clean_sbu_3, # of connection points: 4
#     Node 29, Type 0, BuildingBlock: QUQFOY_clean_sbu_3, # of connection points: 4
#     Node 30, Type 0, BuildingBlock: QUQFOY_clean_sbu_3, # of connection points: 4
#     Node 31, Type 0, BuildingBlock: QUQFOY_clean_sbu_3, # of connection points: 4
#     Node 32, Type 0, BuildingBlock: QUQFOY_clean_sbu_3, # of connection points: 4
#     Node 33, Type 0, BuildingBlock: QUQFOY_clean_sbu_3, # of connection points: 4
#     Node 34, Type 0, BuildingBlock: QUQFOY_clean_sbu_3, # of connection points: 4
#     Node 35, Type 0, BuildingBlock: QUQFOY_clean_sbu_3, # of connection points: 4
#     Node 36, Type 0, BuildingBlock: QUQFOY_clean_sbu_3, # of connection points: 4
#     Node 37, Type 0, BuildingBlock: QUQFOY_clean_sbu_3, # of connection points: 4
#     Node 38, Type 0, BuildingBlock: QUQFOY_clean_sbu_3, # of connection points: 4
#     Node 39, Type 0, BuildingBlock: QUQFOY_clean_sbu_3, # of connection points: 4
#     Node 40, Type 0, BuildingBlock: QUQFOY_clean_sbu_3, # of connection points: 4
#     Node 41, Type 0, BuildingBlock: QUQFOY_clean_sbu_3, # of connection points: 4
#     Node 42, Type 0, BuildingBlock: QUQFOY_clean_sbu_3, # of connection points: 4
#     Node 43, Type 0, BuildingBlock: QUQFOY_clean_sbu_3, # of connection points: 4
#     Node 44, Type 0, BuildingBlock: QUQFOY_clean_sbu_3, # of connection points: 4
#     Node 45, Type 0, BuildingBlock: QUQFOY_clean_sbu_3, # of connection points: 4
#     Node 46, Type 0, BuildingBlock: QUQFOY_clean_sbu_3, # of connection points: 4
#     Node 47, Type 0, BuildingBlock: QUQFOY_clean_sbu_3, # of connection points: 4
#     Edge 48, Type (0, 0), BuildingBlock: AJUNOK_clean_linker_0, # of connection points: 2
#     Edge 49, Type (0, 0), BuildingBlock: AJUNOK_clean_linker_0, # of connection points: 2
#     Edge 50, Type (0, 0), BuildingBlock: AJUNOK_clean_linker_0, # of connection points: 2
#     Edge 51, Type (0, 0), BuildingBlock: AJUNOK_clean_linker_0, # of connection points: 2
#     Edge 52, Type (0, 0), BuildingBlock: AJUNOK_clean_linker_0, # of connection points: 2
#     Edge 53, Type (0, 0), BuildingBlock: AJUNOK_clean_linker_0, # of connection points: 2
#     Edge 54, Type (0, 0), BuildingBlock: AJUNOK_clean_linker_0, # of connection points: 2
#     Edge 55, Type (0, 0), BuildingBlock: AJUNOK_clean_linker_0, # of connection points: 2
#     Edge 56, Type (0, 0), BuildingBlock: AJUNOK_clean_linker_0, # of connection points: 2
#     Edge 57, Type (0, 0), BuildingBlock: AJUNOK_clean_linker_0, # of connection points: 2
#     Edge 58, Type (0, 0), BuildingBlock: AJUNOK_clean_linker_0, # of connection points: 2
#     Edge 59, Type (0, 0), BuildingBlock: AJUNOK_clean_linker_0, # of connection points: 2
#     Edge 60, Type (0, 0), BuildingBlock: AJUNOK_clean_linker_0, # of connection points: 2
#     Edge 61, Type (0, 0), BuildingBlock: AJUNOK_clean_linker_0, # of connection points: 2
#     Edge 62, Type (0, 0), BuildingBlock: AJUNOK_clean_linker_0, # of connection points: 2
#     Edge 63, Type (0, 0), BuildingBlock: AJUNOK_clean_linker_0, # of connection points: 2
#     Edge 64, Type (0, 0), BuildingBlock: AJUNOK_clean_linker_0, # of connection points: 2
#     Edge 65, Type (0, 0), BuildingBlock: AJUNOK_clean_linker_0, # of connection points: 2
#     Edge 66, Type (0, 0), BuildingBlock: AJUNOK_clean_linker_0, # of connection points: 2
#     Edge 67, Type (0, 0), BuildingBlock: AJUNOK_clean_linker_0, # of connection points: 2
#     Edge 68, Type (0, 0), BuildingBlock: AJUNOK_clean_linker_0, # of connection points: 2
#     Edge 69, Type (0, 0), BuildingBlock: AJUNOK_clean_linker_0, # of connection points: 2
#     Edge 70, Type (0, 0), BuildingBlock: AJUNOK_clean_linker_0, # of connection points: 2
#     Edge 71, Type (0, 0), BuildingBlock: AJUNOK_clean_linker_0, # of connection points: 2
#     Edge 72, Type (0, 0), BuildingBlock: AJUNOK_clean_linker_0, # of connection points: 2
#     Edge 73, Type (0, 0), BuildingBlock: AJUNOK_clean_linker_0, # of connection points: 2
#     Edge 74, Type (0, 0), BuildingBlock: AJUNOK_clean_linker_0, # of connection points: 2
#     Edge 75, Type (0, 0), BuildingBlock: AJUNOK_clean_linker_0, # of connection points: 2
#     Edge 76, Type (0, 0), BuildingBlock: AJUNOK_clean_linker_0, # of connection points: 2
#     Edge 77, Type (0, 0), BuildingBlock: AJUNOK_clean_linker_0, # of connection points: 2
#     Edge 78, Type (0, 0), BuildingBlock: AJUNOK_clean_linker_0, # of connection points: 2
#     Edge 79, Type (0, 0), BuildingBlock: AJUNOK_clean_linker_0, # of connection points: 2
#     Edge 80, Type (0, 0), BuildingBlock: AJUNOK_clean_linker_0, # of connection points: 2
#     Edge 81, Type (0, 0), BuildingBlock: AJUNOK_clean_linker_0, # of connection points: 2
#     Edge 82, Type (0, 0), BuildingBlock: AJUNOK_clean_linker_0, # of connection points: 2
#     Edge 83, Type (0, 0), BuildingBlock: AJUNOK_clean_linker_0, # of connection points: 2
#     Edge 84, Type (0, 0), BuildingBlock: AJUNOK_clean_linker_0, # of connection points: 2
#     Edge 85, Type (0, 0), BuildingBlock: AJUNOK_clean_linker_0, # of connection points: 2
#     Edge 86, Type (0, 0), BuildingBlock: AJUNOK_clean_linker_0, # of connection points: 2
#     Edge 87, Type (0, 0), BuildingBlock: AJUNOK_clean_linker_0, # of connection points: 2
#     Edge 88, Type (0, 0), BuildingBlock: AJUNOK_clean_linker_0, # of connection points: 2
#     Edge 89, Type (0, 0), BuildingBlock: AJUNOK_clean_linker_0, # of connection points: 2
#     Edge 90, Type (0, 0), BuildingBlock: AJUNOK_clean_linker_0, # of connection points: 2
#     Edge 91, Type (0, 0), BuildingBlock: AJUNOK_clean_linker_0, # of connection points: 2
#     Edge 92, Type (0, 0), BuildingBlock: AJUNOK_clean_linker_0, # of connection points: 2
#     Edge 93, Type (0, 0), BuildingBlock: AJUNOK_clean_linker_0, # of connection points: 2
#     Edge 94, Type (0, 0), BuildingBlock: AJUNOK_clean_linker_0, # of connection points: 2
#     Edge 95, Type (0, 0), BuildingBlock: AJUNOK_clean_linker_0, # of connection points: 2
#     Edge 96, Type (0, 0), BuildingBlock: AJUNOK_clean_linker_0, # of connection points: 2
#     Edge 97, Type (0, 0), BuildingBlock: AJUNOK_clean_linker_0, # of connection points: 2
#     Edge 98, Type (0, 0), BuildingBlock: AJUNOK_clean_linker_0, # of connection points: 2
#     Edge 99, Type (0, 0), BuildingBlock: AJUNOK_clean_linker_0, # of connection points: 2
#     Edge 100, Type (0, 0), BuildingBlock: AJUNOK_clean_linker_0, # of connection points: 2
#     Edge 101, Type (0, 0), BuildingBlock: AJUNOK_clean_linker_0, # of connection points: 2
#     Edge 102, Type (0, 0), BuildingBlock: AJUNOK_clean_linker_0, # of connection points: 2
#     Edge 103, Type (0, 0), BuildingBlock: AJUNOK_clean_linker_0, # of connection points: 2
#     Edge 104, Type (0, 0), BuildingBlock: AJUNOK_clean_linker_0, # of connection points: 2
#     Edge 105, Type (0, 0), BuildingBlock: AJUNOK_clean_linker_0, # of connection points: 2
#     Edge 106, Type (0, 0), BuildingBlock: AJUNOK_clean_linker_0, # of connection points: 2
#     Edge 107, Type (0, 0), BuildingBlock: AJUNOK_clean_linker_0, # of connection points: 2
#     Edge 108, Type (0, 0), BuildingBlock: AJUNOK_clean_linker_0, # of connection points: 2
#     Edge 109, Type (0, 0), BuildingBlock: AJUNOK_clean_linker_0, # of connection points: 2
#     Edge 110, Type (0, 0), BuildingBlock: AJUNOK_clean_linker_0, # of connection points: 2
#     Edge 111, Type (0, 0), BuildingBlock: AJUNOK_clean_linker_0, # of connection points: 2
#     Edge 112, Type (0, 0), BuildingBlock: AJUNOK_clean_linker_0, # of connection points: 2
#     Edge 113, Type (0, 0), BuildingBlock: AJUNOK_clean_linker_0, # of connection points: 2
#     Edge 114, Type (0, 0), BuildingBlock: AJUNOK_clean_linker_0, # of connection points: 2
#     Edge 115, Type (0, 0), BuildingBlock: AJUNOK_clean_linker_0, # of connection points: 2
#     Edge 116, Type (0, 0), BuildingBlock: AJUNOK_clean_linker_0, # of connection points: 2
#     Edge 117, Type (0, 0), BuildingBlock: AJUNOK_clean_linker_0, # of connection points: 2
#     Edge 118, Type (0, 0), BuildingBlock: AJUNOK_clean_linker_0, # of connection points: 2
#     Edge 119, Type (0, 0), BuildingBlock: AJUNOK_clean_linker_0, # of connection points: 2
#     Edge 120, Type (0, 0), BuildingBlock: AJUNOK_clean_linker_0, # of connection points: 2
#     Edge 121, Type (0, 0), BuildingBlock: AJUNOK_clean_linker_0, # of connection points: 2
#     Edge 122, Type (0, 0), BuildingBlock: AJUNOK_clean_linker_0, # of connection points: 2
#     Edge 123, Type (0, 0), BuildingBlock: AJUNOK_clean_linker_0, # of connection points: 2
#     Edge 124, Type (0, 0), BuildingBlock: AJUNOK_clean_linker_0, # of connection points: 2
#     Edge 125, Type (0, 0), BuildingBlock: AJUNOK_clean_linker_0, # of connection points: 2
#     Edge 126, Type (0, 0), BuildingBlock: AJUNOK_clean_linker_0, # of connection points: 2
#     Edge 127, Type (0, 0), BuildingBlock: AJUNOK_clean_linker_0, # of connection points: 2
#     Edge 128, Type (0, 0), BuildingBlock: AJUNOK_clean_linker_0, # of connection points: 2
#     Edge 129, Type (0, 0), BuildingBlock: AJUNOK_clean_linker_0, # of connection points: 2
#     Edge 130, Type (0, 0), BuildingBlock: AJUNOK_clean_linker_0, # of connection points: 2
#     Edge 131, Type (0, 0), BuildingBlock: AJUNOK_clean_linker_0, # of connection points: 2
#     Edge 132, Type (0, 0), BuildingBlock: AJUNOK_clean_linker_0, # of connection points: 2
#     Edge 133, Type (0, 0), BuildingBlock: AJUNOK_clean_linker_0, # of connection points: 2
#     Edge 134, Type (0, 0), BuildingBlock: AJUNOK_clean_linker_0, # of connection points: 2
#     Edge 135, Type (0, 0), BuildingBlock: AJUNOK_clean_linker_0, # of connection points: 2
#     Edge 136, Type (0, 0), BuildingBlock: AJUNOK_clean_linker_0, # of connection points: 2
#     Edge 137, Type (0, 0), BuildingBlock: AJUNOK_clean_linker_0, # of connection points: 2
#     Edge 138, Type (0, 0), BuildingBlock: AJUNOK_clean_linker_0, # of connection points: 2
#     Edge 139, Type (0, 0), BuildingBlock: AJUNOK_clean_linker_0, # of connection points: 2
#     Edge 140, Type (0, 0), BuildingBlock: AJUNOK_clean_linker_0, # of connection points: 2
#     Edge 141, Type (0, 0), BuildingBlock: AJUNOK_clean_linker_0, # of connection points: 2
#     Edge 142, Type (0, 0), BuildingBlock: AJUNOK_clean_linker_0, # of connection points: 2
#     Edge 143, Type (0, 0), BuildingBlock: AJUNOK_clean_linker_0, # of connection points: 2
# Relax obj value: 0.833
# Max RMSD: 0.532
# Mean RMSD: 0.404
data_MOF--net-lcv-a--node1-QUQFOY_clean_sbu_3--edge1-AJUNOK_clean_linker_0
_symmetry_space_group_name_H-M    P1
_symmetry_Int_Tables_number       1
_symmetry_cell_setting            triclinic
loop_
_symmetry_equiv_pos_as_xyz
'x, y, z'
_cell_length_a     65.41133
_cell_length_b     65.273236
_cell_length_c     65.38171
_cell_angle_alpha  89.946888
_cell_angle_beta   90.025917
_cell_angle_gamma 90.068856
loop_
_atom_site_label
_atom_site_type_symbol
_atom_site_fract_x
_atom_site_fract_y
_atom_site_fract_z
_atom_type_partial_charge
C0 C 0.01879 0.3307 0.2743 0.0
O1 O 0.01629 0.31512 0.26283 0.0
Cd2 Cd 0.00064 0.31308 0.22907 0.0
O3 O 0.01319 0.34824 0.26822 0.0
Cd4 Cd -0.00111 0.36213 0.2373 0.0
C5 C 0.0321 0.34524 0.20078 0.0
O6 O 0.97343 0.33668 0.22936 0.0
O7 O 0.97381 0.36331 0.21009 0.0
O8 O 0.97984 0.38704 0.25584 0.0
C9 C 0.96741 0.34521 0.21299 0.0
O10 O 0.02414 0.3276 0.20364 0.0
C11 C 0.99135 0.4016 0.25008 0.0
O12 O 0.02728 0.36031 0.21216 0.0
O13 O 0.00645 0.39751 0.23863 0.0
C14 C 0.99412 0.80275 0.50447 0.0
O15 O -0.00399 0.78769 0.49233 0.0
Cd16 Cd 0.98862 0.78677 0.45665 0.0
O17 O 0.98405 0.81854 0.499 0.0
Cd18 Cd 0.95919 0.82429 0.47063 0.0
C19 C -0.00262 0.83732 0.43992 0.0
O20 O 0.95412 0.79179 0.45365 0.0
O21 O 0.94591 0.81893 0.43647 0.0
O22 O 0.93509 0.81305 0.49512 0.0
C23 C 0.94708 0.79958 0.4373 0.0
O24 O 0.00019 0.81804 0.44063 0.0
C25 C 0.92113 0.82541 0.48979 0.0
O26 O 0.98365 0.84606 0.45081 0.0
O27 O 0.92637 0.84045 0.47842 0.0
C28 C 0.57338 0.76842 0.77924 0.0
O29 O 0.58076 0.78244 0.76819 0.0
Cd30 Cd 0.61093 0.7721 0.74907 0.0
O31 O 0.58308 0.75165 0.77973 0.0
Cd32 Cd 0.59478 0.73836 0.7465 0.0
C33 C 0.57038 0.77031 0.71923 0.0
O34 O 0.61588 0.75173 0.71816 0.0
O35 O 0.62185 0.72065 0.72703 0.0
O36 O 0.59858 0.7077 0.76453 0.0
C37 C 0.62146 0.73386 0.71284 0.0
O38 O 0.5859 0.78077 0.72468 0.0
C39 C 0.58383 0.69889 0.75538 0.0
O40 O 0.56728 0.75264 0.72673 0.0
O41 O 0.57401 0.709 0.74188 0.0
C42 C 0.55432 0.32248 -0.00205 0.0
O43 O 0.5436 0.32968 0.98352 0.0
Cd44 Cd 0.55071 0.36506 0.96984 0.0
O45 O 0.56937 0.33331 0.00349 0.0
Cd46 Cd 0.58398 0.34858 0.97214 0.0
C47 C 0.55001 0.33814 0.93256 0.0
O48 O 0.57862 0.37463 0.94662 0.0
O49 O 0.60712 0.37637 0.96287 0.0
O50 O 0.61443 0.3454 0.99104 0.0
C51 C 0.59765 0.37844 0.94607 0.0
O52 O 0.53934 0.35355 0.93771 0.0
C53 C 0.62177 0.33165 0.97949 0.0
O54 O 0.56499 0.33215 0.94371 0.0
O55 O 0.61104 0.32532 0.96447 0.0
C56 C 0.00399 0.77868 0.30965 0.0
O57 O 9e-05 0.79287 0.32243 0.0
Cd58 Cd 0.97728 0.7939 0.3519 0.0
O59 O -0.00397 0.7611 0.31169 0.0
Cd60 Cd 0.98028 0.74451 0.3406 0.0
C61 C 0.00852 0.7637 0.38129 0.0
O62 O 0.95281 0.76763 0.34691 0.0
O63 O 0.94919 0.73805 0.36042 0.0
O64 O 0.97213 0.71749 0.3173 0.0
C65 C 0.94454 0.75688 0.36081 0.0
O66 O -0.00082 0.78071 0.37907 0.0
C67 C 0.9831 0.70453 0.32682 0.0
O68 O 0.00575 0.74907 0.36869 0.0
O69 O 0.99232 0.71043 0.34287 0.0
C70 C 0.54164 0.75772 0.57561 0.0
O71 O 0.52987 0.74731 0.58681 0.0
Cd72 Cd 0.54826 0.71897 0.60175 0.0
O73 O 0.55994 0.75168 0.57411 0.0
Cd74 Cd 0.5777 0.73873 0.60476 0.0
C75 C 0.54873 0.75521 0.63842 0.0
O76 O 0.57128 0.71106 0.62993 0.0
O77 O 0.60185 0.71306 0.61798 0.0
O78 O 0.60588 0.74092 0.58279 0.0
C79 C 0.59036 0.7085 0.63287 0.0
O80 O 0.53969 0.74017 0.6299 0.0
C81 C 0.61405 0.75494 0.59356 0.0
O82 O 0.56533 0.7619 0.63103 0.0
O83 O 0.6044 0.76185 0.609 0.0
C84 C 0.58092 0.29974 0.80586 0.0
O85 O 0.59985 0.30133 0.80204 0.0
Cd86 Cd 0.60894 0.30923 0.8389 0.0
O87 O 0.57471 0.30532 0.8232 0.0
Cd88 Cd 0.59526 0.32693 0.84466 0.0
C89 C 0.57172 0.30482 0.87538 0.0
O90 O 0.62748 0.33765 0.85735 0.0
O91 O 0.61204 0.31834 0.87831 0.0
O92 O 0.61119 0.35095 0.82181 0.0
C93 C 0.62399 0.33334 0.87595 0.0
O94 O 0.58316 0.29395 0.86375 0.0
C95 C 0.59766 0.36462 0.82444 0.0
O96 O 0.57171 0.32402 0.8724 0.0
O97 O 0.58187 0.35988 0.83484 0.0
C98 C 0.02115 0.29796 0.08746 0.0
O99 O 0.02037 0.31272 0.10015 0.0
Cd100 Cd 0.00771 0.31111 0.13384 0.0
O101 O 0.01169 0.28112 0.09086 0.0
Cd102 Cd 0.98439 0.26579 0.11354 0.0
C103 C 0.01929 0.25737 0.14269 0.0
O104 O 0.97559 0.29885 0.12762 0.0
O105 O 0.96435 0.27324 0.14472 0.0
O106 O 0.96836 0.2686 0.08067 0.0
C107 C 0.96582 0.29251 0.14301 0.0
O108 O 0.01521 0.276 0.13956 0.0
C109 C 0.9515 0.26176 0.08736 0.0
O110 O 0.00904 0.24372 0.13321 0.0
O111 O 0.95262 0.24984 0.10274 0.0
C112 C 0.27156 0.01976 0.32889 0.0
O113 O 0.25852 0.0198 0.31439 0.0
Cd114 Cd 0.22312 0.00765 0.3139 0.0
O115 O 0.26656 0.01332 0.34648 0.0
Cd116 Cd 0.23458 0.00186 0.36102 0.0
C117 C 0.19928 0.03929 0.34833 0.0
O118 O 0.22256 0.97807 0.33543 0.0
O119 O 0.20691 0.97751 0.36431 0.0
O120 O 0.24997 0.98311 0.38865 0.0
C121 C 0.20735 0.97187 0.34582 0.0
O122 O 0.20105 0.03383 0.32974 0.0
C123 C 0.24432 -0.00323 0.40129 0.0
O124 O 0.20992 0.03074 0.36218 0.0
O125 O 0.23604 0.01293 0.39448 0.0
C126 C 0.31775 0.00502 0.55211 0.0
O127 O 0.32962 0.99545 0.5403 0.0
Cd128 Cd 0.35331 0.97381 0.56049 0.0
O129 O 0.32253 0.00418 0.57072 0.0
Cd130 Cd 0.33755 0.97084 0.58108 0.0
C131 C 0.3155 0.94017 0.5565 0.0
O132 O 0.36758 0.95868 0.59536 0.0
O133 O 0.36002 0.9397 0.5704 0.0
O134 O 0.33907 0.98799 0.61219 0.0
C135 C 0.36803 0.94077 0.58788 0.0
O136 O 0.33155 0.9457 0.54707 0.0
C137 C 0.32564 0.97661 0.62048 0.0
O138 O 0.31039 0.94923 0.57267 0.0
O139 O 0.31805 0.962 0.61016 0.0
C140 C 0.31344 0.07955 0.80361 0.0
O141 O 0.32795 0.0828 0.7911 0.0
Cd142 Cd 0.36237 0.08759 0.80255 0.0
O143 O 0.31673 0.08055 0.82278 0.0
Cd144 Cd 0.34271 0.0904 0.84839 0.0
C145 C 0.37269 0.04858 0.83783 0.0
O146 O 0.35876 0.11489 0.82668 0.0
O147 O 0.37092 0.11432 0.85699 0.0
O148 O 0.31454 0.10645 0.86622 0.0
C149 C 0.37271 0.12074 0.83875 0.0
O150 O 0.37312 0.05504 0.81939 0.0
C151 C 0.3153 0.09381 0.88099 0.0
O152 O 0.36334 0.05873 0.85155 0.0
O153 O 0.33012 0.08128 0.88141 0.0
C154 C 0.30894 0.07909 0.09998 0.0
O155 O 0.29313 0.08201 0.11064 0.0
Cd156 Cd 0.29412 0.11918 0.11223 0.0
O157 O 0.32443 0.09017 0.10394 0.0
Cd158 Cd 0.32978 0.11282 0.13328 0.0
C159 C 0.34024 0.1392 0.09369 0.0
O160 O 0.29872 0.13196 0.14531 0.0
O161 O 0.32812 0.14733 0.14489 0.0
O162 O 0.3232 0.08164 0.15069 0.0
C163 C 0.30921 0.14799 0.14904 0.0
O164 O 0.32093 0.13676 0.0929 0.0
C165 C 0.33095 0.0887 0.16701 0.0
O166 O 0.35084 0.1308 0.10781 0.0
O167 O 0.34518 0.10196 0.16487 0.0
C168 C 0.27398 0.09028 0.30891 0.0
O169 O 0.26054 0.0965 0.32146 0.0
Cd170 Cd 0.22865 0.10907 0.30876 0.0
O171 O 0.27126 0.09286 0.28981 0.0
Cd172 Cd 0.24888 0.10986 0.26465 0.0
C173 C 0.21186 0.07418 0.2711 0.0
O174 O 0.2371 0.13648 0.28676 0.0
O175 O 0.22746 0.1394 0.25569 0.0
O176 O 0.28201 0.11669 0.24959 0.0
C177 C 0.22462 0.14428 0.27421 0.0
O178 O 0.21172 0.08091 0.28938 0.0
C179 C 0.27594 0.11038 0.23223 0.0
O180 O 0.22381 0.08203 0.25794 0.0
O181 O 0.25726 0.10552 0.23037 0.0
C182 C 0.23038 0.98929 0.55045 0.0
O183 O 0.22701 0.97171 0.55774 0.0
Cd184 Cd 0.19656 0.95225 0.54631 0.0
O185 O 0.21759 0.99536 0.5373 0.0
Cd186 Cd 0.21061 0.96253 0.51898 0.0
C187 C 0.23526 0.92724 0.54534 0.0
O188 O 0.19523 0.92823 0.517 0.0
O189 O 0.1891 0.94816 0.49166 0.0
O190 O 0.20866 0.98415 0.49157 0.0
C191 C 0.19116 0.92993 0.49806 0.0
O192 O 0.21911 0.92678 0.55613 0.0
C193 C 0.22601 0.97912 0.48449 0.0
O194 O 0.23706 0.93984 0.5307 0.0
O195 O 0.23746 0.96743 0.49508 0.0
C196 C 0.30644 0.01267 0.7786 0.0
O197 O 0.31776 0.00762 0.79362 0.0
Cd198 Cd 0.35001 0.98919 0.79219 0.0
O199 O 0.31189 0.00841 0.76051 0.0
Cd200 Cd 0.34039 0.99116 0.74444 0.0
C201 C 0.38126 0.01884 0.7608 0.0
O202 O 0.34479 0.96303 0.7678 0.0
O203 O 0.36394 0.96251 0.74125 0.0
O204 O 0.31735 0.9772 0.71952 0.0
C205 C 0.35996 0.95509 0.75872 0.0
O206 O 0.37795 0.01007 0.77789 0.0
C207 C 0.32496 0.98818 0.70541 0.0
O208 O 0.36878 0.0166 0.74602 0.0
O209 O 0.33951 0.00023 0.7099 0.0
C210 C 0.28484 0.07726 0.016 0.0
O211 O 0.29852 0.0754 0.00254 0.0
Cd212 Cd 0.3062 0.11173 0.00137 0.0
O213 O 0.27246 0.09206 0.01359 0.0
Cd214 Cd 0.27181 0.11453 0.98291 0.0
C215 C 0.26821 0.14319 0.02177 0.0
O216 O 0.30606 0.12491 0.96847 0.0
O217 O 0.28201 0.14756 0.97085 0.0
O218 O 0.27179 0.08487 0.9623 0.0
C219 C 0.29997 0.14309 0.96515 0.0
O220 O 0.28609 0.13554 0.02257 0.0
C221 C 0.26075 0.09296 0.94851 0.0
O222 O 0.25593 0.13813 0.00745 0.0
O223 O 0.25023 0.10864 0.95361 0.0
C224 C 0.32471 0.27138 0.01538 0.0
O225 O 0.31172 0.25726 0.01162 0.0
Cd226 Cd 0.31278 0.22325 -0.00309 0.0
O227 O 0.34368 0.26857 0.01193 0.0
Cd228 Cd 0.36218 0.2383 -0.00035 0.0
C229 C 0.34395 0.20083 0.0328 0.0
O230 O 0.33881 0.22882 0.97308 0.0
O231 O 0.36757 0.21382 0.97144 0.0
O232 O 0.39168 0.25634 0.98724 0.0
C233 C 0.34922 0.21445 0.96548 0.0
O234 O 0.32709 0.20019 0.02302 0.0
C235 C 0.40385 0.24573 -0.00183 0.0
O236 O 0.35771 0.21391 0.02837 0.0
O237 O 0.39612 0.23335 0.01099 0.0
C238 C 0.80603 0.31569 0.07562 0.0
O239 O 0.79307 0.3297 0.07946 0.0
Cd240 Cd 0.80252 0.36412 0.08938 0.0
O241 O 0.82503 0.31896 0.07808 0.0
Cd242 Cd 0.84981 0.34364 0.0911 0.0
C243 C 0.83894 0.37717 0.05199 0.0
O244 O 0.82698 0.35779 0.1154 0.0
O245 O 0.85773 0.36836 0.11853 0.0
O246 O 0.86552 0.31136 0.10068 0.0
C247 C 0.83899 0.37118 0.12254 0.0
O248 O 0.82103 0.37877 0.05957 0.0
C249 C 0.88305 0.31707 0.09453 0.0
O250 O 0.8523 0.36568 0.06033 0.0
O251 O 0.88489 0.33532 0.08801 0.0
C252 C 0.99144 0.55264 0.3183 0.0
O253 O 0.97402 0.54587 0.32299 0.0
Cd254 Cd 0.96396 0.55813 0.35777 0.0
O255 O -0.00127 0.56592 0.33032 0.0
Cd256 Cd 0.96628 0.58352 0.34064 0.0
C257 C 0.9264 0.55152 0.33322 0.0
O258 O 0.93956 0.58538 0.36698 0.0
O259 O 0.95775 0.61237 0.36298 0.0
O260 O 0.98898 0.61053 0.33583 0.0
C261 C 0.94069 0.60476 0.36804 0.0
O262 O 0.93323 0.54322 0.34943 0.0
C263 C 0.97944 0.61832 0.3208 0.0
O264 O 0.93632 0.56602 0.32452 0.0
O265 O 0.96418 0.60842 0.3136 0.0
C266 C 0.76695 0.78196 0.5745 0.0
O267 O 0.78066 0.76939 0.5796 0.0
Cd268 Cd 0.77208 0.74833 0.60959 0.0
O269 O 0.75111 0.78224 0.58553 0.0
Cd270 Cd 0.73977 0.74781 0.5952 0.0
C271 C 0.77054 0.72109 0.56891 0.0
O272 O 0.75135 0.71689 0.61311 0.0
O273 O 0.7218 0.72804 0.62178 0.0
O274 O 0.71059 0.76541 0.60324 0.0
C275 C 0.73355 0.7128 0.61974 0.0
O276 O 0.78154 0.72514 0.58441 0.0
C277 C 0.70032 0.75786 0.58855 0.0
O278 O 0.75309 0.72918 0.56649 0.0
O279 O 0.70916 0.74588 0.57593 0.0
C280 C 0.07504 0.02039 0.2806 0.0
O281 O 0.07486 0.01155 0.29779 0.0
Cd282 Cd 0.10996 0.00735 0.30809 0.0
O283 O 0.08774 0.01417 0.26724 0.0
Cd284 Cd 0.10931 0.9832 0.26738 0.0
C285 C 0.14318 0.01998 0.26674 0.0
O286 O 0.11652 0.97296 0.30288 0.0
O287 O 0.13978 0.96746 0.28001 0.0
O288 O 0.07997 0.9618 0.26682 0.0
C289 C 0.13431 0.96647 0.29856 0.0
O290 O 0.13578 0.02145 0.28475 0.0
C291 C 0.08876 0.94808 0.25623 0.0
O292 O 0.1358 0.00713 0.25391 0.0
O293 O 0.10437 0.95365 0.24587 0.0
C294 C 0.28542 0.80396 0.50004 0.0
O295 O 0.2951 0.81747 0.49026 0.0
Cd296 Cd 0.26957 0.83367 0.46684 0.0
O297 O 0.26714 0.80139 0.4947 0.0
Cd298 Cd 0.24942 0.83248 0.4832 0.0
C299 C 0.27142 0.86188 0.50895 0.0
O300 O 0.23312 0.84824 0.45628 0.0
O301 O 0.25646 0.86817 0.46587 0.0
O302 O 0.22448 0.80707 0.47673 0.0
C303 C 0.23881 0.86665 0.45843 0.0
O304 O 0.28065 0.85885 0.49219 0.0
C305 C 0.21323 0.8125 0.49162 0.0
O306 O 0.25581 0.85139 0.51335 0.0
O307 O 0.21815 0.8286 0.50149 0.0
C308 C -0.0002 0.54785 0.23086 0.0
O309 O 0.98527 0.55929 0.22531 0.0
Cd310 Cd 0.96418 0.55031 0.19495 0.0
O311 O 0.00271 0.53199 0.2201 0.0
Cd312 Cd 0.96888 0.51808 0.21182 0.0
C313 C 0.93889 0.55539 0.23192 0.0
O314 O 0.9373 0.523 0.19383 0.0
O315 O 0.95237 0.4941 0.18831 0.0
O316 O 0.98532 0.4872 0.21879 0.0
C317 C 0.93567 0.50387 0.19024 0.0
O318 O 0.9398 0.566 0.21562 0.0
C319 C 0.97461 0.48354 0.23456 0.0
O320 O 0.9489 0.53888 0.23406 0.0
O321 O 0.96103 0.49632 0.23996 0.0
C322 C 0.58254 0.53963 0.75077 0.0
O323 O 0.59754 0.53084 0.74244 0.0
Cd324 Cd 0.61353 0.55049 0.71478 0.0
O325 O 0.57793 0.55721 0.74408 0.0
Cd326 Cd 0.60722 0.5794 0.7353 0.0
C327 C 0.64303 0.55273 0.75499 0.0
O328 O 0.63793 0.57856 0.71252 0.0
O329 O 0.62045 0.60638 0.71288 0.0
O330 O 0.58217 0.60522 0.73448 0.0
C331 C 0.63761 0.59787 0.71013 0.0
O332 O 0.64006 0.54377 0.73799 0.0
C333 C 0.58803 0.61308 0.7513 0.0
O334 O 0.63176 0.5675 0.76059 0.0
O335 O 0.60241 0.6042 0.76102 0.0
C336 C 0.48461 0.77081 0.77675 0.0
O337 O 0.47699 0.7594 0.76308 0.0
Cd338 Cd 0.45106 0.7814 0.74573 0.0
O339 O 0.47515 0.78734 0.78029 0.0
Cd340 Cd 0.47744 0.81673 0.75754 0.0
C341 C 0.49921 0.79617 0.72376 0.0
O342 O 0.45382 0.814 0.72712 0.0
O343 O 0.45076 0.84024 0.7466 0.0
O344 O 0.47279 0.83518 0.78888 0.0
C345 C 0.4494 0.83284 0.72879 0.0
O346 O 0.48217 0.78928 0.7296 0.0
C347 C 0.48779 0.84703 0.78539 0.0
O348 O 0.50665 0.81086 0.73399 0.0
O349 O 0.49844 0.84396 0.7694 0.0
C350 C 0.54898 0.23637 0.98226 0.0
O351 O 0.55408 0.23453 0.96365 0.0
Cd352 Cd 0.54304 0.20286 0.94318 0.0
O353 O 0.537 0.22294 0.98918 0.0
Cd354 Cd 0.5198 0.21573 0.9562 0.0
C355 C 0.54402 0.23443 0.91265 0.0
O356 O 0.50826 0.19046 0.93121 0.0
O357 O 0.4925 0.21979 0.9348 0.0
O358 O 0.49241 0.21047 0.97994 0.0
C359 C 0.4935 0.20255 0.92609 0.0
O360 O 0.55234 0.21704 0.91039 0.0
C361 C 0.48721 0.22926 0.97851 0.0
O362 O 0.53446 0.23815 0.92914 0.0
O363 O 0.4982 0.24128 0.96787 0.0
C364 C 0.08907 0.31004 0.26973 0.0
O365 O 0.09371 0.32168 0.25482 0.0
Cd366 Cd 0.10978 0.31049 0.2236 0.0
O367 O 0.09252 0.29089 0.26875 0.0
Cd368 Cd 0.10833 0.26497 0.24676 0.0
C369 C 0.07671 0.27232 0.20587 0.0
O370 O 0.13476 0.2876 0.23636 0.0
O371 O 0.13775 0.2577 0.22357 0.0
O372 O 0.11494 0.24909 0.27985 0.0
C373 C 0.14372 0.27619 0.2236 0.0
O374 O 0.08566 0.28952 0.2032 0.0
C375 C 0.108 0.2318 0.27421 0.0
O376 O 0.08069 0.26126 0.22141 0.0
O377 O 0.10282 0.22997 0.25559 0.0
C378 C 0.06867 0.80508 0.50818 0.0
O379 O 0.07172 0.82139 0.49806 0.0
Cd380 Cd 0.08285 0.81979 0.46333 0.0
O381 O 0.07641 0.78823 0.50204 0.0
Cd382 Cd 0.10387 0.77793 0.47755 0.0
C383 C 0.06516 0.77046 0.44737 0.0
O384 O 0.11678 0.81 0.46329 0.0
O385 O 0.12084 0.7829 0.44497 0.0
O386 O 0.12295 0.7828 0.50782 0.0
C387 C 0.12355 0.80203 0.44696 0.0
O388 O 0.06609 0.78992 0.44871 0.0
C389 C 0.13738 0.77098 0.50257 0.0
O390 O 0.07765 0.7591 0.45726 0.0
O391 O 0.13344 0.75809 0.48841 0.0
C392 C 0.50046 0.28647 0.79751 0.0
O393 O 0.49695 0.29486 0.81446 0.0
Cd394 Cd 0.46543 0.28369 0.83197 0.0
O395 O 0.48818 0.27242 0.79253 0.0
Cd396 Cd 0.48044 0.25359 0.82447 0.0
C397 C 0.50228 0.28481 0.86051 0.0
O398 O 0.46224 0.2553 0.85702 0.0
O399 O 0.45527 0.22931 0.8383 0.0
O400 O 0.47571 0.22797 0.79855 0.0
C401 C 0.45673 0.23667 0.85615 0.0
O402 O 0.48639 0.29562 0.85756 0.0
C403 C 0.49166 0.21828 0.80395 0.0
O404 O 0.50573 0.26881 0.84975 0.0
O405 O 0.50213 0.22523 0.81875 0.0
C406 C 0.09906 0.30229 0.08281 0.0
O407 O 0.10444 0.28612 0.09218 0.0
Cd408 Cd 0.11474 0.29016 0.12726 0.0
O409 O 0.10576 0.31957 0.08887 0.0
Cd410 Cd 0.13349 0.332 0.11138 0.0
C411 C 0.09276 0.33881 0.13871 0.0
O412 O 0.14793 0.3027 0.12995 0.0
O413 O 0.14892 0.3324 0.14447 0.0
O414 O 0.15248 0.32583 0.08116 0.0
C415 C 0.15282 0.3134 0.14548 0.0
O416 O 0.09496 0.31941 0.13887 0.0
C417 C 0.16728 0.33665 0.08759 0.0
O418 O 0.10517 0.35034 0.12886 0.0
O419 O 0.16262 0.35135 0.09961 0.0
C420 C 0.07761 0.80224 0.3224 0.0
O421 O 0.08285 0.79199 0.33811 0.0
Cd422 Cd 0.09627 0.80635 0.3692 0.0
O423 O 0.07965 0.82163 0.32218 0.0
Cd424 Cd 0.09238 0.85057 0.3424 0.0
C425 C 0.05823 0.84203 0.38116 0.0
O426 O 0.11929 0.83141 0.35713 0.0
O427 O 0.11716 0.86188 0.36889 0.0
O428 O 0.10563 0.86681 0.3116 0.0
C429 C 0.12484 0.8441 0.37063 0.0
O430 O 0.06803 0.82567 0.38543 0.0
C431 C 0.09252 0.88117 0.31201 0.0
O432 O 0.06297 0.85308 0.36581 0.0
O433 O 0.0807 0.88204 0.32738 0.0
C434 C 0.52683 0.84227 0.58986 0.0
O435 O 0.53623 0.84416 0.60666 0.0
Cd436 Cd 0.50321 0.84322 0.62364 0.0
O437 O 0.50908 0.84995 0.58932 0.0
Cd438 Cd 0.48895 0.84822 0.62325 0.0
C439 C 0.49983 0.80687 0.64806 0.0
O440 O 0.49917 0.8652 0.65401 0.0
O441 O 0.47039 0.8749 0.64101 0.0
O442 O 0.45842 0.85133 0.60445 0.0
C443 C 0.48151 0.87287 0.6569 0.0
O444 O 0.50589 0.80592 0.62982 0.0
C445 C 0.45401 0.83256 0.60741 0.0
O446 O 0.48949 0.82254 0.65231 0.0
O447 O 0.46594 0.82152 0.61803 0.0
C448 C 0.77938 0.48738 0.77289 0.0
O449 O 0.76351 0.48099 0.76392 0.0
Cd450 Cd 0.74397 0.4527 0.77793 0.0
O451 O 0.78438 0.4789 0.78956 0.0
Cd452 Cd 0.75774 0.47033 0.81466 0.0
C453 C 0.71981 0.49484 0.79311 0.0
O454 O 0.72864 0.44659 0.81103 0.0
O455 O 0.74289 0.44815 0.84066 0.0
O456 O 0.78695 0.46468 0.83502 0.0
C457 C 0.72704 0.44421 0.83029 0.0
O458 O 0.71978 0.47934 0.7813 0.0
C459 C 0.78406 0.48044 0.84612 0.0
O460 O 0.73367 0.49752 0.8065 0.0
O461 O 0.76819 0.4913 0.84264 0.0
C462 C 0.79378 0.51407 0.06583 0.0
O463 O 0.81085 0.50718 0.0717 0.0
Cd464 Cd 0.80585 0.47151 0.07511 0.0
O465 O 0.77759 0.50531 0.07243 0.0
Cd466 Cd 0.77413 0.48155 0.10289 0.0
C467 C 0.75826 0.45172 0.0668 0.0
O468 O 0.80701 0.46531 0.11012 0.0
O469 O 0.77986 0.44799 0.11772 0.0
O470 O 0.78456 0.50776 0.12543 0.0
C471 C 0.79918 0.44916 0.11755 0.0
O472 O 0.774 0.46013 0.05897 0.0
C473 C 0.77154 0.50363 0.13922 0.0
O474 O 0.75209 0.45729 0.08441 0.0
O475 O 0.75675 0.49187 0.1342 0.0
C476 C 0.79775 0.578 0.30207 0.0
O477 O 0.80334 0.59417 0.29266 0.0
Cd478 Cd 0.82963 0.60034 0.32005 0.0
O479 O 0.80552 0.57478 0.31935 0.0
Cd480 Cd 0.83449 0.59613 0.3325 0.0
C481 C 0.86184 0.56561 0.31659 0.0
O482 O 0.84659 0.62746 0.34344 0.0
O483 O 0.86333 0.61865 0.31744 0.0
O484 O 0.8114 0.60975 0.356 0.0
C485 C 0.86343 0.62846 0.33413 0.0
O486 O 0.84262 0.56451 0.31374 0.0
C487 C 0.81843 0.59838 0.37016 0.0
O488 O 0.86539 0.57498 0.3334 0.0
O489 O 0.83202 0.58505 0.36587 0.0
C490 C 0.75557 0.57853 0.54219 0.0
O491 O 0.74736 0.59194 0.53099 0.0
Cd492 Cd 0.7154 0.6043 0.54645 0.0
O493 O 0.74698 0.57499 0.55914 0.0
Cd494 Cd 0.73305 0.60574 0.5761 0.0
C495 C 0.74787 0.64239 0.55026 0.0
O496 O 0.70612 0.6316 0.57006 0.0
O497 O 0.70809 0.61881 0.60034 0.0
O498 O 0.73456 0.5839 0.60399 0.0
C499 C 0.70396 0.63416 0.58923 0.0
O500 O 0.73243 0.63537 0.54072 0.0
C501 C 0.74909 0.5939 0.61225 0.0
O502 O 0.75565 0.63251 0.56497 0.0
O503 O 0.75636 0.60942 0.60291 0.0
C504 C 0.78695 0.57453 0.76144 0.0
O505 O 0.78096 0.58435 0.77702 0.0
Cd506 Cd 0.75112 0.59731 0.75766 0.0
O507 O 0.78042 0.58094 0.74453 0.0
Cd508 Cd 0.74403 0.5913 0.73934 0.0
C509 C 0.72004 0.5594 0.75963 0.0
O510 O 0.73173 0.62337 0.73383 0.0
O511 O 0.71576 0.60966 0.7584 0.0
O512 O 0.75537 0.60439 0.70837 0.0
C513 C 0.71498 0.62185 0.7434 0.0
O514 O 0.73811 0.56243 0.76554 0.0
C515 C 0.74977 0.58876 0.69828 0.0
O516 O 0.71466 0.56857 0.74362 0.0
O517 O 0.74031 0.57453 0.70765 0.0
C518 C 0.80373 0.50219 0.99123 0.0
O519 O 0.79079 0.48777 0.99276 0.0
Cd520 Cd 0.79939 0.45342 0.98972 0.0
O521 O 0.8212 0.49885 0.98312 0.0
Cd522 Cd 0.83035 0.47067 0.95791 0.0
C523 C 0.84801 0.44421 -0.0026 0.0
O524 O 0.79816 0.4536 0.95395 0.0
O525 O 0.82415 0.43752 0.94182 0.0
O526 O 0.81684 0.49434 0.93423 0.0
C527 C 0.80496 0.43843 0.94407 0.0
O528 O 0.83339 0.45438 0.00499 0.0
C529 C 0.8295 0.4905 0.92009 0.0
O530 O 0.85251 0.4472 0.97867 0.0
O531 O 0.84541 0.48025 0.92498 0.0
C532 C 0.80154 0.4957 0.28318 0.0
O533 O 0.81754 0.49244 0.29335 0.0
Cd534 Cd 0.83961 0.46528 0.27845 0.0
O535 O 0.79976 0.48535 0.26702 0.0
Cd536 Cd 0.83373 0.48418 0.25073 0.0
C537 C 0.86228 0.50444 0.28971 0.0
O538 O 0.86775 0.46902 0.25286 0.0
O539 O 0.85109 0.46148 0.22586 0.0
O540 O 0.8078 0.47876 0.22636 0.0
C541 C 0.86839 0.4641 0.23412 0.0
O542 O 0.86152 0.48602 0.296 0.0
C543 C 0.81156 0.4949 0.21614 0.0
O544 O 0.85218 0.50988 0.27375 0.0
O545 O 0.82671 0.50599 0.2217 0.0
C546 C 0.83915 0.58724 0.52189 0.0
O547 O 0.85361 0.59492 0.53223 0.0
Cd548 Cd 0.86588 0.62549 0.51354 0.0
O549 O 0.83607 0.59442 0.50431 0.0
Cd550 Cd 0.84672 0.62654 0.48977 0.0
C551 C 0.81902 0.64704 0.51796 0.0
O552 O 0.87687 0.6449 0.48104 0.0
O553 O 0.8565 0.66213 0.49976 0.0
O554 O 0.84928 0.609 0.45859 0.0
C555 C 0.86996 0.66248 0.48598 0.0
O556 O 0.83621 0.64428 0.52664 0.0
C557 C 0.83438 0.61903 0.45117 0.0
O558 O 0.81552 0.63956 0.50063 0.0
O559 O 0.82628 0.63321 0.46157 0.0
C560 C 0.76997 0.7784 0.4868 0.0
O561 O 0.7636 0.7611 0.48105 0.0
Cd562 Cd 0.78482 0.7499 0.45205 0.0
O563 O 0.78484 0.7857 0.47681 0.0
Cd564 Cd 0.81228 0.76037 0.47098 0.0
C565 C 0.79365 0.72164 0.4924 0.0
O566 O 0.81498 0.72828 0.44972 0.0
O567 O 0.83985 0.74959 0.44814 0.0
O568 O 0.83205 0.79017 0.46558 0.0
C569 C 0.83392 0.73119 0.44677 0.0
O570 O 0.78504 0.72273 0.47501 0.0
C571 C 0.84195 0.78823 0.4822 0.0
O572 O 0.80536 0.73591 0.49854 0.0
O573 O 0.83766 0.77317 0.49389 0.0
C574 C 0.30061 0.80154 0.58691 0.0
O575 O 0.28834 0.81414 0.59481 0.0
Cd576 Cd 0.30601 0.83123 0.62344 0.0
O577 O 0.31788 0.80004 0.59538 0.0
Cd578 Cd 0.33349 0.83313 0.60402 0.0
C579 C 0.30313 0.86211 0.58365 0.0
O580 O 0.32599 0.86293 0.62665 0.0
O581 O 0.35588 0.85022 0.62905 0.0
O582 O 0.36037 0.81066 0.60819 0.0
C583 C 0.34485 0.86607 0.63017 0.0
O584 O 0.29583 0.85659 0.60072 0.0
C585 C 0.37094 0.81886 0.59405 0.0
O586 O 0.31931 0.85391 0.57684 0.0
O587 O 0.36287 0.83304 0.58331 0.0
C588 C 0.51487 0.0726 0.79915 0.0
O589 O 0.51047 0.08266 0.81504 0.0
Cd590 Cd 0.4743 0.08648 0.81292 0.0
O591 O 0.50438 0.07595 0.78304 0.0
Cd592 Cd 0.48216 0.10641 0.77495 0.0
C593 C 0.4535 0.06811 0.76611 0.0
O594 O 0.46728 0.12077 0.80663 0.0
O595 O 0.44881 0.122 0.77945 0.0
O596 O 0.51261 0.12519 0.77927 0.0
C597 C 0.45053 0.12599 0.79832 0.0
O598 O 0.45729 0.0673 0.78523 0.0
C599 C 0.5065 0.13973 0.76796 0.0
O600 O 0.46111 0.08236 0.7551 0.0
O601 O 0.49277 0.13542 0.75475 0.0
C602 C 0.30297 0.27396 0.08817 0.0
O603 O 0.31704 0.26185 0.09408 0.0
Cd604 Cd 0.30944 0.23043 0.11317 0.0
O605 O 0.28452 0.27037 0.09292 0.0
Cd606 Cd 0.26067 0.24901 0.11132 0.0
C607 C 0.27359 0.20812 0.08043 0.0
O608 O 0.284 0.23983 0.13744 0.0
O609 O 0.25383 0.22764 0.14148 0.0
O610 O 0.24395 0.28075 0.1198 0.0
C611 C 0.27259 0.22693 0.14645 0.0
O612 O 0.29118 0.20765 0.08892 0.0
C613 C 0.22815 0.27679 0.10917 0.0
O614 O 0.26044 0.22179 0.08499 0.0
O615 O 0.22676 0.25902 0.10132 0.0
C616 C 0.58598 0.52158 0.8363 0.0
O617 O 0.60092 0.53239 0.84197 0.0
Cd618 Cd 0.62192 0.51666 0.8689 0.0
O619 O 0.58422 0.50426 0.8448 0.0
Cd620 Cd 0.61809 0.48808 0.84723 0.0
C621 C 0.6496 0.52375 0.8298 0.0
O622 O 0.65074 0.49277 0.86529 0.0
O623 O 0.63614 0.46402 0.87035 0.0
O624 O 0.60142 0.45652 0.84911 0.0
C625 C 0.65276 0.47386 0.86912 0.0
O626 O 0.64643 0.53052 0.84772 0.0
C627 C 0.6068 0.45065 0.83143 0.0
O628 O 0.63907 0.50855 0.82343 0.0
O629 O 0.61627 0.4632 0.81992 0.0
C630 C 0.77732 0.30361 0.00777 0.0
O631 O 0.79062 0.31041 -0.0045 0.0
Cd632 Cd 0.78372 0.34613 0.99071 0.0
O633 O 0.76106 0.3139 0.01016 0.0
Cd634 Cd 0.74493 0.34153 0.99048 0.0
C635 C 0.75549 0.37346 0.02641 0.0
O636 O 0.76526 0.35134 0.96004 0.0
O637 O 0.74436 0.37376 0.97201 0.0
O638 O 0.72134 0.32056 0.97127 0.0
C639 C 0.75717 0.36892 0.95831 0.0
O640 O 0.77305 0.36783 0.02018 0.0
C641 C 0.70704 0.32551 0.98341 0.0
O642 O 0.7398 0.36592 0.01802 0.0
O643 O 0.71093 0.33759 -0.00201 0.0
C644 C 0.50554 0.99291 0.81382 0.0
O645 O 0.50113 0.98013 0.80002 0.0
Cd646 Cd 0.47143 0.96813 0.81906 0.0
O647 O 0.49474 0.99242 0.82999 0.0
Cd648 Cd 0.46859 0.96216 0.82911 0.0
C649 C 0.44136 0.99477 0.84522 0.0
O650 O 0.44938 0.95623 0.79508 0.0
O651 O 0.43341 0.95111 0.82344 0.0
O652 O 0.49569 0.94019 0.81694 0.0
C653 C 0.43321 0.9504 0.80409 0.0
O654 O 0.4509 -0.00228 0.82866 0.0
C655 C 0.48958 0.92464 0.82676 0.0
O656 O 0.44623 0.97897 0.85553 0.0
O657 O 0.47699 0.92764 0.84133 0.0
C658 C 0.07673 0.10275 0.30539 0.0
O659 O 0.08163 0.11707 0.29351 0.0
Cd660 Cd 0.11634 0.10815 0.30139 0.0
O661 O 0.08592 0.10206 0.32257 0.0
Cd662 Cd 0.10933 0.1315 0.33323 0.0
C663 C 0.12946 0.09073 0.35042 0.0
O664 O 0.12896 0.14101 0.30221 0.0
O665 O 0.1452 0.1432 0.33074 0.0
O666 O 0.07977 0.15124 0.32536 0.0
C667 C 0.14524 0.14553 0.31152 0.0
O668 O 0.12499 0.08693 0.3318 0.0
C669 C 0.08789 0.16753 0.33212 0.0
O670 O 0.12476 0.1081 0.35802 0.0
O671 O 0.10109 0.16529 0.34628 0.0
C672 C 0.04036 0.30985 0.29673 0.0
C673 C 0.03436 0.32959 0.29065 0.0
C674 C 0.06068 0.30377 0.29393 0.0
C675 C 0.07494 0.31768 0.2856 0.0
H676 H 0.02892 0.29804 0.299 0.0
H677 H 0.06407 0.28755 0.29468 0.0
S678 S 0.06881 0.37399 0.2832 0.0
N679 N 0.0457 0.3651 0.28831 0.0
N680 N 0.0839 0.35373 0.28224 0.0
C681 C 0.07028 0.33863 0.28668 0.0
C682 C 0.0497 0.34473 0.29 0.0
C683 C 0.04109 0.78607 0.52604 0.0
C684 C 0.05136 0.80476 0.52283 0.0
C685 C 0.01967 0.7856 0.52607 0.0
C686 C 0.00864 0.80366 0.52185 0.0
H687 H 0.04918 0.77165 0.52482 0.0
H688 H 0.01225 0.77081 0.52475 0.0
S689 S 0.02849 0.85634 0.52821 0.0
N690 N 0.04907 0.8417 0.52755 0.0
N691 N 0.00872 0.84063 0.52649 0.0
C692 C 0.01852 0.82231 0.52588 0.0
C693 C 0.04026 0.82287 0.52638 0.0
C694 C 0.54015 0.78745 0.78195 0.0
C695 C 0.55095 0.76888 0.78384 0.0
C696 C 0.51871 0.78787 0.78077 0.0
C697 C 0.50701 0.76973 0.78105 0.0
H698 H 0.54837 0.80178 0.78031 0.0
H699 H 0.51134 0.80254 0.77849 0.0
S700 S 0.52734 0.71724 0.78865 0.0
N701 N 0.54789 0.73195 0.78845 0.0
N702 N 0.50768 0.73279 0.78542 0.0
C703 C 0.51742 0.75114 0.78412 0.0
C704 C 0.53931 0.75072 0.78582 0.0
C705 C 0.53608 0.26692 0.00221 0.0
C706 C 0.55251 0.25624 0.9931 0.0
C707 C 0.53704 0.28838 0.00548 0.0
C708 C 0.55485 0.29966 0.00082 0.0
H709 H 0.5216 0.25921 0.00457 0.0
H710 H 0.52336 0.29635 0.01033 0.0
S711 S 0.6032 0.2778 0.98089 0.0
N712 N 0.58766 0.25798 0.98211 0.0
N713 N 0.59019 0.29752 0.98982 0.0
C714 C 0.57208 0.28848 0.99433 0.0
C715 C 0.57077 0.26698 0.99015 0.0
C716 C 0.0304 0.79922 0.29224 0.0
C717 C 0.02368 0.7799 0.29883 0.0
C718 C 0.05052 0.80546 0.29605 0.0
C719 C 0.06391 0.79264 0.30712 0.0
H720 H 0.0194 0.81062 0.28737 0.0
H721 H 0.05426 0.82144 0.29352 0.0
S722 S 0.05619 0.73746 0.31793 0.0
N723 N 0.03403 0.74546 0.30886 0.0
N724 N 0.07154 0.75754 0.31703 0.0
C725 C 0.05885 0.77179 0.30873 0.0
C726 C 0.03859 0.76527 0.30421 0.0
C727 C 0.55302 0.79412 0.57154 0.0
C728 C 0.53688 0.77971 0.5719 0.0
C729 C 0.54954 0.81501 0.57537 0.0
C730 C 0.52973 0.82245 0.579 0.0
H731 H 0.56872 0.78903 0.57032 0.0
H732 H 0.56258 0.82514 0.57699 0.0
S733 S 0.48178 0.79163 0.5779 0.0
N734 N 0.50012 0.7748 0.57378 0.0
N735 N 0.49338 0.814 0.57988 0.0
C736 C 0.51323 0.80855 0.57699 0.0
C737 C 0.51684 0.78721 0.57368 0.0
C738 C 0.55327 0.30318 0.78058 0.0
C739 C 0.56564 0.29008 0.79249 0.0
C740 C 0.5318 0.30077 0.78012 0.0
C741 C 0.52227 0.28506 0.79133 0.0
H742 H 0.55979 0.31702 0.77416 0.0
H743 H 0.5226 0.3124 0.7727 0.0
S744 S 0.54844 0.24578 0.82295 0.0
N745 N 0.5672 0.25938 0.81299 0.0
N746 N 0.52731 0.2557 0.81339 0.0
C747 C 0.53486 0.27061 0.80113 0.0
C748 C 0.55653 0.27265 0.80097 0.0
C749 C 0.04912 0.28115 0.06845 0.0
C750 C 0.03751 0.29892 0.0719 0.0
C751 C 0.07048 0.28246 0.06742 0.0
C752 C 0.08034 0.30151 0.06998 0.0
H753 H 0.04228 0.26614 0.07024 0.0
H754 H 0.07915 0.26835 0.0682 0.0
S755 S 0.05542 0.35244 0.06678 0.0
N756 N 0.03634 0.33591 0.06805 0.0
N757 N 0.07652 0.33854 0.06665 0.0
C758 C 0.06851 0.31932 0.06725 0.0
C759 C 0.04682 0.31793 0.068 0.0
C760 C 0.2894 0.06978 0.33683 0.0
C761 C 0.28924 0.07507 0.31595 0.0
C762 C 0.2899 0.04911 0.34258 0.0
C763 C 0.28912 0.03386 0.32735 0.0
H764 H 0.2854 0.08102 0.34834 0.0
H765 H 0.28611 0.04541 0.3583 0.0
S766 S 0.30382 0.04081 0.27329 0.0
N767 N 0.30044 0.0643 0.28206 0.0
N768 N 0.29977 0.02532 0.29289 0.0
C769 C 0.29605 0.03926 0.30783 0.0
C770 C 0.29628 0.06025 0.30202 0.0
C771 C 0.28748 0.98499 0.54202 0.0
C772 C 0.29546 0.00415 0.54753 0.0
C773 C 0.26662 0.98078 0.54324 0.0
C774 C 0.25228 0.99576 0.54898 0.0
H775 H 0.29759 0.9726 0.53782 0.0
H776 H 0.26185 0.96538 0.53984 0.0
S777 S 0.2647 0.04988 0.56102 0.0
N778 N 0.28728 0.03913 0.55718 0.0
N779 N 0.24741 0.03167 0.55753 0.0
C780 C 0.25973 0.01566 0.5528 0.0
C781 C 0.28142 0.01973 0.55255 0.0
C782 C 0.2853 0.03311 0.80204 0.0
C783 C 0.29077 0.02867 0.78173 0.0
C784 C 0.28726 0.0532 0.8093 0.0
C785 C 0.29512 0.06848 0.79623 0.0
H786 H 0.28386 0.02084 0.81312 0.0
H787 H 0.28707 0.05548 0.82571 0.0
S788 S 0.29533 0.06645 0.73972 0.0
N789 N 0.29162 0.0425 0.74708 0.0
N790 N 0.29629 0.08018 0.76093 0.0
C791 C 0.29292 0.06532 0.77511 0.0
C792 C 0.29044 0.04502 0.76768 0.0
C793 C 0.30885 0.0919 0.06522 0.0
C794 C 0.30544 0.0752 0.0782 0.0
C795 C 0.30225 0.09174 0.04525 0.0
C796 C 0.29196 0.07486 0.03705 0.0
H797 H 0.31586 0.10583 0.07073 0.0
H798 H 0.30501 0.10532 0.0363 0.0
S799 S 0.28206 0.0256 0.06342 0.0
N800 N 0.29283 0.04018 0.08113 0.0
N801 N 0.28073 0.0397 0.0424 0.0
C802 C 0.28941 0.0573 0.04924 0.0
C803 C 0.29599 0.05756 0.07016 0.0
C804 C 0.29162 0.28791 0.05504 0.0
C805 C 0.30667 0.28758 0.0705 0.0
C806 C 0.29739 0.28853 0.03447 0.0
C807 C 0.31826 0.28806 0.02929 0.0
H808 H 0.27585 0.28416 0.05846 0.0
H809 H 0.28589 0.28491 0.02309 0.0
S810 S 0.36047 0.30363 0.06367 0.0
N811 N 0.34114 0.29849 0.07917 0.0
N812 N 0.35185 0.29998 0.04016 0.0
C813 C 0.33214 0.29486 0.04424 0.0
C814 C 0.32641 0.29405 0.06523 0.0
C815 C 0.80486 0.28762 0.0275 0.0
C816 C 0.78368 0.28937 0.0242 0.0
C817 C 0.81292 0.29252 0.04671 0.0
C818 C 0.79973 0.29827 0.06274 0.0
H819 H 0.81531 0.2871 0.01464 0.0
H820 H 0.82923 0.29528 0.04777 0.0
S821 S 0.74402 0.28872 0.06446 0.0
N822 N 0.75043 0.28499 0.0403 0.0
N823 N 0.76545 0.29448 0.0766 0.0
C824 C 0.77903 0.29296 0.06098 0.0
C825 C 0.77098 0.28781 0.04146 0.0
C826 C -0.0036 0.53061 0.26476 0.0
C827 C 0.00409 0.54721 0.2533 0.0
C828 C 0.99387 0.53183 0.2861 0.0
C829 C -0.00049 0.5495 0.29709 0.0
H830 H 0.9907 0.51717 0.257 0.0
H831 H 0.98634 0.51925 0.29387 0.0
S832 S 0.02354 0.59601 0.27479 0.0
N833 N 0.01913 0.58114 0.25481 0.0
N834 N 0.01562 0.58305 0.29501 0.0
C835 C 0.00909 0.56545 0.28607 0.0
C836 C 0.01101 0.56444 0.26418 0.0
C837 C 0.74985 0.77656 0.51958 0.0
C838 C 0.7663 0.78496 0.50844 0.0
C839 C 0.74916 0.77766 0.54106 0.0
C840 C 0.76509 0.78683 0.55236 0.0
H841 H 0.73807 0.7679 0.51175 0.0
H842 H 0.7369 0.76973 0.54894 0.0
S843 S 0.81014 0.81354 0.53082 0.0
N844 N 0.79757 0.8052 0.51057 0.0
N845 N 0.79666 0.80616 0.55087 0.0
C846 C 0.78083 0.79651 0.54148 0.0
C847 C 0.78128 0.79593 0.51956 0.0
C848 C 0.08628 0.07592 0.28092 0.0
C849 C 0.0722 0.08318 0.29544 0.0
C850 C 0.0852 0.05594 0.27364 0.0
C851 C 0.07014 0.04238 0.28086 0.0
H852 H 0.09911 0.08529 0.27615 0.0
H853 H 0.09758 0.05061 0.26402 0.0
S854 S 0.02637 0.05594 0.31423 0.0
N855 N 0.04042 0.077 0.31347 0.0
N856 N 0.03833 0.03889 0.29986 0.0
C857 C 0.05455 0.05021 0.29347 0.0
C858 C 0.05568 0.07074 0.30089 0.0
C859 C 0.27963 0.7913 0.55638 0.0
C860 C 0.29861 0.79689 0.56469 0.0
C861 C 0.27633 0.79138 0.53512 0.0
C862 C 0.29162 0.79787 0.52124 0.0
H863 H 0.26694 0.78774 0.56642 0.0
H864 H 0.26107 0.78787 0.52973 0.0
S865 S 0.34455 0.81291 0.53528 0.0
N866 N 0.3335 0.80753 0.55732 0.0
N867 N 0.32701 0.80871 0.51758 0.0
C868 C 0.31104 0.80244 0.52933 0.0
C869 C 0.31457 0.80175 0.55097 0.0
C870 C 0.57322 0.54901 0.78679 0.0
C871 C 0.57667 0.53361 0.77202 0.0
C872 C 0.57434 0.54474 0.80789 0.0
C873 C 0.57818 0.5248 0.8151 0.0
H874 H 0.57158 0.56485 0.78212 0.0
H875 H 0.57352 0.55738 0.8186 0.0
S876 S 0.58513 0.47852 0.78285 0.0
N877 N 0.58214 0.49733 0.76623 0.0
N878 N 0.583 0.48911 0.80566 0.0
C879 C 0.57949 0.50896 0.8005 0.0
C880 C 0.57903 0.5134 0.77905 0.0
C881 C 0.7943 0.52114 0.78395 0.0
C882 C 0.78706 0.50835 0.76807 0.0
C883 C 0.7959 0.54253 0.78141 0.0
C884 C 0.79083 0.55195 0.76273 0.0
H885 H 0.79714 0.51484 0.79902 0.0
H886 H 0.79995 0.55183 0.79452 0.0
S887 S 0.77342 0.52488 0.7155 0.0
N888 N 0.77634 0.50652 0.73259 0.0
N889 N 0.78026 0.54612 0.72727 0.0
C890 C 0.78539 0.53897 0.74615 0.0
C891 C 0.78326 0.51737 0.74895 0.0
C892 C 0.81573 0.52782 0.01625 0.0
C893 C 0.79969 0.52039 0.00407 0.0
C894 C 0.81259 0.53066 0.03728 0.0
C895 C 0.79357 0.52552 0.04621 0.0
H896 H 0.8313 0.52765 0.01059 0.0
H897 H 0.82591 0.53311 0.04683 0.0
S898 S 0.74511 0.5172 0.01801 0.0
N899 N 0.76287 0.51831 0.00013 0.0
N900 N 0.75712 0.52118 0.03988 0.0
C901 C 0.77657 0.52408 0.03314 0.0
C902 C 0.77968 0.52245 0.01167 0.0
C903 C 0.78028 0.54469 0.30555 0.0
C904 C 0.78865 0.55966 0.29227 0.0
C905 C 0.78291 0.52361 0.30191 0.0
C906 C 0.79273 0.5167 0.28417 0.0
H907 H 0.77435 0.54928 0.32033 0.0
H908 H 0.77861 0.5128 0.31374 0.0
S909 S 0.81329 0.5493 0.24243 0.0
N910 N 0.80449 0.56585 0.25932 0.0
N911 N 0.80804 0.52643 0.25186 0.0
C912 C 0.79839 0.53145 0.26946 0.0
C913 C 0.79638 0.55291 0.27347 0.0
C914 C 0.80752 0.56612 0.51932 0.0
C915 C 0.8209 0.57783 0.53167 0.0
C916 C 0.78639 0.56507 0.52339 0.0
C917 C 0.77794 0.57522 0.54031 0.0
H918 H 0.8131 0.55948 0.5052 0.0
H919 H 0.77648 0.55733 0.5126 0.0
S920 S 0.80597 0.60724 0.57785 0.0
N921 N 0.82384 0.59915 0.56199 0.0
N922 N 0.78451 0.59658 0.56991 0.0
C923 C 0.7913 0.58558 0.55365 0.0
C924 C 0.81271 0.58688 0.54939 0.0
C925 C 0.52702 0.04473 0.82192 0.0
C926 C 0.52501 0.05249 0.80188 0.0
C927 C 0.52388 0.0239 0.82582 0.0
C928 C 0.51933 0.0104 0.80974 0.0
H929 H 0.5277 0.05499 0.83491 0.0
H930 H 0.52233 0.01897 0.84158 0.0
S931 S 0.52487 0.02163 0.75439 0.0
N932 N 0.52706 0.04415 0.76571 0.0
N933 N 0.52184 0.00472 0.77297 0.0
C934 C 0.52295 0.01714 0.7896 0.0
C935 C 0.52578 0.03843 0.78566 0.0
C936 C 0.96696 0.34012 0.17539 0.0
C937 C 0.96194 0.33273 0.19499 0.0
C938 C 0.96699 0.32718 0.15845 0.0
C939 C 0.96182 0.30636 0.16036 0.0
H940 H 0.97228 0.3557 0.17322 0.0
H941 H 0.97213 0.33338 0.14395 0.0
S942 S 0.94355 0.28046 0.20748 0.0
N943 N 0.9489 0.30407 0.21485 0.0
N944 N 0.94865 0.27963 0.18276 0.0
C945 C 0.95496 0.29919 0.17946 0.0
C946 C 0.95509 0.31241 0.19683 0.0
C947 C 0.95615 0.76032 0.3965 0.0
C948 C 0.94221 0.76607 0.38113 0.0
C949 C 0.95692 0.77067 0.41511 0.0
C950 C 0.9438 0.78717 0.41895 0.0
H951 H 0.96725 0.74832 0.39377 0.0
H952 H 0.96851 0.76634 0.42613 0.0
S953 S 0.90206 0.80572 0.38538 0.0
N954 N 0.91339 0.78758 0.37189 0.0
N955 N 0.91466 0.80711 0.40726 0.0
C956 C 0.92893 0.79229 0.4043 0.0
C957 C 0.92819 0.78173 0.38523 0.0
C958 C 0.59543 0.73216 0.68531 0.0
C959 C 0.61512 0.7268 0.69205 0.0
C960 C 0.58719 0.72457 0.66715 0.0
C961 C 0.59847 0.71183 0.65402 0.0
H962 H 0.58596 0.7421 0.69434 0.0
H963 H 0.57197 0.72948 0.66306 0.0
S964 S 0.65074 0.69235 0.66455 0.0
N965 N 0.64545 0.7067 0.68471 0.0
N966 N 0.63056 0.69364 0.64935 0.0
C967 C 0.61828 0.70614 0.66046 0.0
C968 C 0.62643 0.71329 0.67969 0.0
C969 C 0.62563 0.35999 0.92708 0.0
C970 C 0.60832 0.37286 0.92653 0.0
C971 C 0.6322 0.34862 0.91004 0.0
C972 C 0.62179 0.34984 0.8914 0.0
H973 H 0.63289 0.3569 0.94128 0.0
H974 H 0.64448 0.33765 0.91195 0.0
S975 S 0.57544 0.38105 0.88119 0.0
N976 N 0.58132 0.38647 0.90511 0.0
N977 N 0.59301 0.36472 0.87343 0.0
C978 C 0.60495 0.36326 0.89027 0.0
C979 C 0.59843 0.37494 0.90761 0.0
C980 C 0.15503 0.98309 0.3252 0.0
C981 C 0.15038 0.96536 0.31401 0.0
C982 C 0.17341 0.98464 0.33593 0.0
C983 C 0.18767 0.96855 0.33575 0.0
H984 H 0.14506 -0.00369 0.32459 0.0
H985 H 0.17687 -0.00115 0.34376 0.0
S986 S 0.1813 0.91802 0.31095 0.0
N987 N 0.16039 0.9308 0.30476 0.0
N988 N 0.19516 0.93369 0.32522 0.0
C989 C 0.18276 0.95036 0.32553 0.0
C990 C 0.16399 0.94878 0.31457 0.0
C991 C 0.35761 0.8853 0.60023 0.0
C992 C 0.35379 0.88516 0.62136 0.0
C993 C 0.36455 0.90288 0.59013 0.0
C994 C 0.36764 0.92156 0.60052 0.0
H995 H 0.35453 0.87178 0.59118 0.0
H996 H 0.3662 0.90207 0.57366 0.0
S997 S 0.36314 0.92856 0.65672 0.0
N998 N 0.35608 0.9045 0.65301 0.0
N999 N 0.3687 0.938 0.63391 0.0
C1000 C 0.3652 0.92135 0.62199 0.0
C1001 C 0.35824 0.90312 0.63241 0.0
C1002 C 0.40108 0.14231 0.82401 0.0
C1003 C 0.3934 0.12322 0.83049 0.0
C1004 C 0.42022 0.14361 0.81415 0.0
C1005 C 0.43179 0.12582 0.81052 0.0
H1006 H 0.39215 0.15609 0.82622 0.0
H1007 H 0.42575 0.15837 0.80895 0.0
S1008 S 0.41773 0.07252 0.82359 0.0
N1009 N 0.39877 0.08658 0.83251 0.0
N1010 N 0.4338 0.08893 0.81324 0.0
C1011 C 0.42409 0.10691 0.81691 0.0
C1012 C 0.40509 0.10563 0.82711 0.0
C1013 C 0.31167 0.18563 0.1547 0.0
C1014 C 0.29957 0.16777 0.15441 0.0
C1015 C 0.30276 0.20509 0.15452 0.0
C1016 C 0.28139 0.20742 0.15403 0.0
H1017 H 0.32817 0.18467 0.15355 0.0
H1018 H 0.31271 0.21829 0.15309 0.0
S1019 S 0.24306 0.16565 0.15866 0.0
N1020 N 0.26526 0.15372 0.15757 0.0
N1021 N 0.24846 0.19034 0.15765 0.0
C1022 C 0.2692 0.18977 0.1565 0.0
C1023 C 0.2783 0.16991 0.1565 0.0
C1024 C 0.18052 0.16006 0.30801 0.0
C1025 C 0.16441 0.14823 0.30006 0.0
C1026 C 0.19986 0.15996 0.29867 0.0
C1027 C 0.20355 0.14805 0.28115 0.0
H1028 H 0.17836 0.16884 0.32189 0.0
H1029 H 0.21221 0.16852 0.30567 0.0
S1030 S 0.16654 0.11359 0.2552 0.0
N1031 N 0.15344 0.12411 0.27396 0.0
N1032 N 0.18959 0.12377 0.25657 0.0
C1033 C 0.18732 0.13665 0.27276 0.0
C1034 C 0.16776 0.1368 0.28219 0.0
C1035 C 0.22116 0.91815 0.47797 0.0
C1036 C 0.2008 0.91466 0.48401 0.0
C1037 C 0.23257 0.90326 0.46755 0.0
C1038 C 0.22429 0.8839 0.46272 0.0
H1039 H 0.2288 0.93215 0.48233 0.0
H1040 H 0.24855 0.9065 0.46456 0.0
S1041 S 0.17079 0.86775 0.47284 0.0
N1042 N 0.17218 0.891 0.4828 0.0
N1043 N 0.19355 0.86292 0.46303 0.0
C1044 C 0.20346 0.88067 0.4674 0.0
C1045 C 0.1918 0.89595 0.47821 0.0
C1046 C 0.37705 0.94895 0.79206 0.0
C1047 C 0.37701 0.94643 0.7707 0.0
C1048 C 0.39536 0.94876 0.80303 0.0
C1049 C 0.41417 0.94582 0.79303 0.0
H1050 H 0.36319 0.95299 0.80014 0.0
H1051 H 0.39485 0.95251 0.81916 0.0
S1052 S 0.42139 0.93142 0.73874 0.0
N1053 N 0.39659 0.9357 0.74093 0.0
N1054 N 0.43117 0.93548 0.76168 0.0
C1055 C 0.41402 0.94042 0.77229 0.0
C1056 C 0.39533 0.94051 0.76111 0.0
C1057 C 0.30611 0.17864 0.95308 0.0
C1058 C 0.31416 0.1596 0.95915 0.0
C1059 C 0.31826 0.19627 0.953 0.0
C1060 C 0.33889 0.19544 0.95893 0.0
H1061 H 0.28994 0.18023 0.94982 0.0
H1062 H 0.31105 0.21087 0.94981 0.0
S1063 S 0.3681 0.1487 0.97291 0.0
N1064 N 0.3446 0.14048 0.96877 0.0
N1065 N 0.36757 0.17353 0.96828 0.0
C1066 C 0.34767 0.17611 0.96283 0.0
C1067 C 0.33524 0.15817 0.96305 0.0
C1068 C 0.8153 0.39719 0.13725 0.0
C1069 C 0.83153 0.39231 0.12408 0.0
C1070 C 0.80549 0.41625 0.13588 0.0
C1071 C 0.8116 0.43082 0.12123 0.0
H1072 H 0.80971 0.38595 0.1481 0.0
H1073 H 0.79262 0.41933 0.14584 0.0
S1074 S 0.85219 0.42469 0.08224 0.0
N1075 N 0.85274 0.40319 0.09551 0.0
N1076 N 0.83427 0.43882 0.09292 0.0
C1077 C 0.82803 0.42621 0.10827 0.0
C1078 C 0.838 0.40695 0.10968 0.0
C1079 C 0.92048 0.62631 0.3439 0.0
C1080 C 0.92172 0.6165 0.3631 0.0
C1081 C 0.90161 0.63218 0.33535 0.0
C1082 C 0.88311 0.62914 0.3459 0.0
H1083 H 0.93401 0.62783 0.33452 0.0
H1084 H 0.9014 0.6378 0.31975 0.0
S1085 S 0.87822 0.60701 0.39817 0.0
N1086 N 0.90295 0.60563 0.39319 0.0
N1087 N 0.86768 0.61795 0.37797 0.0
C1088 C 0.88437 0.62123 0.36605 0.0
C1089 C 0.90357 0.61451 0.3744 0.0
C1090 C 0.71284 0.67136 0.58463 0.0
C1091 C 0.7071 0.65526 0.59788 0.0
C1092 C 0.72126 0.68969 0.59211 0.0
C1093 C 0.72414 0.69305 0.61318 0.0
H1094 H 0.71188 0.66948 0.5682 0.0
H1095 H 0.72588 0.70128 0.58118 0.0
S1096 S 0.70975 0.65715 0.65466 0.0
N1097 N 0.70361 0.64481 0.63347 0.0
N1098 N 0.71911 0.67953 0.64735 0.0
C1099 C 0.71746 0.67776 0.62673 0.0
C1100 C 0.709 0.65887 0.61912 0.0
C1101 C 0.91732 0.47162 0.20231 0.0
C1102 C 0.91672 0.49281 0.1975 0.0
C1103 C 0.90172 0.46201 0.21393 0.0
C1104 C 0.88494 0.47325 0.2213 0.0
H1105 H 0.93039 0.46253 0.19781 0.0
H1106 H 0.90307 0.44588 0.21757 0.0
S1107 S 0.87443 0.52822 0.21152 0.0
N1108 N 0.89623 0.5239 0.19955 0.0
N1109 N 0.86817 0.50624 0.2223 0.0
C1110 C 0.8838 0.4941 0.21606 0.0
C1111 C 0.89924 0.50374 0.20387 0.0
C1112 C 0.69338 0.61532 0.71226 0.0
C1113 C 0.69498 0.62287 0.73249 0.0
C1114 C 0.67451 0.60838 0.70424 0.0
C1115 C 0.65645 0.6094 0.71589 0.0
H1116 H 0.70706 0.6129 0.70326 0.0
H1117 H 0.67426 0.6012 0.68931 0.0
S1118 S 0.65227 0.62821 0.76927 0.0
N1119 N 0.67669 0.63112 0.7636 0.0
N1120 N 0.64143 0.61908 0.7484 0.0
C1121 C 0.65771 0.61814 0.73555 0.0
C1122 C 0.67686 0.6247 0.74383 0.0
C1123 C 0.45171 0.85872 0.67655 0.0
C1124 C 0.47137 0.86786 0.67669 0.0
C1125 C 0.44412 0.84791 0.69361 0.0
C1126 C 0.45567 0.84632 0.71163 0.0
H1127 H 0.44269 0.85855 0.66265 0.0
H1128 H 0.4295 0.84019 0.69246 0.0
S1129 S 0.50787 0.867 0.72005 0.0
N1130 N 0.50202 0.87433 0.69659 0.0
N1131 N 0.48769 0.85441 0.72852 0.0
C1132 C 0.47496 0.85588 0.71219 0.0
C1133 C 0.48278 0.86663 0.69483 0.0
C1134 C 0.46148 0.20644 0.90613 0.0
C1135 C 0.48252 0.20141 0.90642 0.0
C1136 C 0.45254 0.21682 0.88938 0.0
C1137 C 0.46451 0.22291 0.8726 0.0
H1138 H 0.45236 0.20412 0.91977 0.0
H1139 H 0.43662 0.22127 0.8902 0.0
S1140 S 0.52028 0.21429 0.86645 0.0
N1141 N 0.51452 0.20246 0.88798 0.0
N1142 N 0.49853 0.22386 0.85807 0.0
C1143 C 0.48529 0.21733 0.87259 0.0
C1144 C 0.49403 0.20587 0.88896 0.0
C1145 C 0.15382 0.31594 0.18335 0.0
C1146 C 0.15667 0.30399 0.16569 0.0
C1147 C 0.15196 0.30686 0.20259 0.0
C1148 C 0.15269 0.28544 0.20492 0.0
H1149 H 0.15147 0.33233 0.18225 0.0
H1150 H 0.14827 0.31668 0.21542 0.0
S1151 S 0.16673 0.24814 0.16453 0.0
N1152 N 0.16514 0.27029 0.15239 0.0
N1153 N 0.16147 0.25306 0.18875 0.0
C1154 C 0.15836 0.27361 0.18785 0.0
C1155 C 0.16032 0.28292 0.16816 0.0
C1156 C 0.13612 0.8049 0.41112 0.0
C1157 C 0.12918 0.81463 0.42899 0.0
C1158 C 0.13701 0.81542 0.39249 0.0
C1159 C 0.13081 0.83601 0.39098 0.0
H1160 H 0.13968 0.78869 0.41119 0.0
H1161 H 0.14101 0.80684 0.37889 0.0
S1162 S 0.11557 0.86955 0.43419 0.0
N1163 N 0.11924 0.84687 0.44473 0.0
N1164 N 0.12075 0.86663 0.40966 0.0
C1165 C 0.12606 0.84652 0.40917 0.0
C1166 C 0.12522 0.83579 0.4282 0.0
C1167 C 0.70514 0.4484 0.86189 0.0
C1168 C 0.70655 0.44652 0.84035 0.0
C1169 C 0.68756 0.45657 0.8715 0.0
C1170 C 0.67077 0.4633 0.8599 0.0
H1171 H 0.71816 0.44457 0.87139 0.0
H1172 H 0.68746 0.45836 0.88796 0.0
S1173 S 0.66576 0.46083 0.80342 0.0
N1174 N 0.6884 0.45076 0.80807 0.0
N1175 N 0.65645 0.46708 0.82599 0.0
C1176 C 0.67168 0.46079 0.83856 0.0
C1177 C 0.68918 0.45205 0.82883 0.0
C1178 C 0.78853 0.38348 0.9427 0.0
C1179 C 0.76746 0.38528 0.94666 0.0
C1180 C 0.80058 0.40091 0.93962 0.0
C1181 C 0.79184 0.42055 0.9403 0.0
H1182 H 0.79618 0.36886 0.94427 0.0
H1183 H 0.81701 0.39904 0.93878 0.0
S1184 S 0.73658 0.43274 0.94286 0.0
N1185 N 0.73772 0.40762 0.94585 0.0
N1186 N 0.76044 0.44046 0.93984 0.0
C1187 C 0.77046 0.42226 0.94097 0.0
C1188 C 0.7582 0.40453 0.94417 0.0
C1189 C 0.8477 0.69491 0.44427 0.0
C1190 C 0.84834 0.71459 0.45307 0.0
C1191 C 0.85808 0.6782 0.45336 0.0
C1192 C 0.86883 0.68037 0.47197 0.0
H1193 H 0.83826 0.69221 0.43094 0.0
H1194 H 0.85593 0.66307 0.44697 0.0
S1195 S 0.87448 0.72842 0.50156 0.0
N1196 N 0.86092 0.7351 0.48137 0.0
N1197 N 0.87949 0.70382 0.4986 0.0
C1198 C 0.87022 0.70011 0.48035 0.0
C1199 C 0.86012 0.71712 0.47095 0.0
C1200 C 0.04298 0.33563 0.16576 0.0
C1201 C 0.04603 0.34804 0.18304 0.0
C1202 C 0.05717 0.33513 0.14985 0.0
C1203 C 0.07529 0.3467 0.15065 0.0
H1204 H 0.02993 0.32542 0.16491 0.0
H1205 H 0.05476 0.32419 0.13761 0.0
S1206 S 0.0887 0.38488 0.19042 0.0
N1207 N 0.06684 0.37494 0.19839 0.0
N1208 N 0.09411 0.37336 0.16856 0.0
C1209 C 0.07762 0.36084 0.16672 0.0
C1210 C 0.06285 0.36161 0.18295 0.0
C1211 C 0.02103 0.84193 0.38903 0.0
C1212 C 0.04093 0.84793 0.39434 0.0
C1213 C 0.00531 0.84212 0.40363 0.0
C1214 C 0.00908 0.84813 0.424 0.0
H1215 H 0.018 0.83536 0.37411 0.0
H1216 H 0.99077 0.83521 0.39961 0.0
S1217 S 0.05757 0.86928 0.44409 0.0
N1218 N 0.06281 0.86327 0.42011 0.0
N1219 N 0.03323 0.86339 0.44764 0.0
C1220 C 0.02826 0.85646 0.4287 0.0
C1221 C 0.04428 0.85628 0.41384 0.0
C1222 C 0.56469 0.79884 0.69435 0.0
C1223 C 0.55743 0.77826 0.70276 0.0
C1224 C 0.55301 0.8126 0.6798 0.0
C1225 C 0.51449 0.79948 0.66428 0.0
H1226 H 0.57937 0.80491 0.69906 0.0
H1227 H 0.56253 0.82611 0.67643 0.0
S1228 S 0.49227 0.75515 0.71387 0.0
N1229 N 0.52427 0.75599 0.71691 0.0
N1230 N 0.48838 0.77076 0.68575 0.0
C1231 C 0.50963 0.77823 0.67423 0.0
C1232 C 0.53715 0.76714 0.69805 0.0
C1233 C 0.538 0.32942 0.89339 0.0
C1234 C 0.54102 0.32333 0.91883 0.0
C1235 C 0.52735 0.31563 0.87355 0.0
C1236 C 0.51636 0.29179 0.8769 0.0
H1237 H 0.5433 0.34457 0.88924 0.0
H1238 H 0.52639 0.32282 0.85867 0.0
S1239 S 0.52077 0.28021 0.95732 0.0
N1240 N 0.53427 0.30144 0.95276 0.0
N1241 N 0.51241 0.26986 0.93556 0.0
C1242 C 0.52109 0.28305 0.92206 0.0
C1243 C 0.53344 0.30268 0.93223 0.0
C1244 C 0.03029 0.77286 0.43391 0.0
C1245 C 0.04901 0.76234 0.43373 0.0
C1246 C 0.01708 0.77237 0.41718 0.0
C1247 C 0.02172 0.76095 0.3996 0.0
H1248 H 0.02662 0.78302 0.44647 0.0
H1249 H 0.0035 0.78181 0.41771 0.0
S1250 S 0.06688 0.72714 0.39301 0.0
N1251 N 0.07035 0.73778 0.41571 0.0
N1252 N 0.04496 0.7362 0.38422 0.0
C1253 C 0.03932 0.74844 0.40003 0.0
C1254 C 0.05308 0.74922 0.41716 0.0
C1255 C 0.52817 0.74478 0.66833 0.0
C1256 C 0.54145 0.76147 0.65875 0.0
C1257 C 0.5134 0.74741 0.68588 0.0
C1258 C 0.51109 0.78586 0.70647 0.0
H1259 H 0.52841 0.72944 0.66202 0.0
H1260 H 0.50541 0.73274 0.68829 0.0
S1261 S 0.53183 0.83112 0.65729 0.0
N1262 N 0.54463 0.80268 0.64848 0.0
N1263 N 0.52158 0.8242 0.68703 0.0
C1264 C 0.52622 0.80078 0.69526 0.0
C1265 C 0.54371 0.78397 0.66581 0.0
C1266 C 0.56968 0.25876 0.90272 0.0
C1267 C 0.54951 0.25197 0.89971 0.0
C1268 C 0.57595 0.27921 0.90083 0.0
C1269 C 0.56303 0.2952 0.89445 0.0
H1270 H 0.58114 0.24789 0.90782 0.0
H1271 H 0.59229 0.28203 0.90158 0.0
S1272 S 0.4908 0.2853 0.90213 0.0
N1273 N 0.51045 0.26233 0.89582 0.0
N1274 N 0.51323 0.30739 0.90394 0.0
C1275 C 0.5415 0.29165 0.89779 0.0
C1276 C 0.53447 0.26643 0.89423 0.0
C1277 C 0.05452 0.26326 0.15325 0.0
C1278 C 0.0359 0.25327 0.15721 0.0
C1279 C 0.06771 0.26886 0.1691 0.0
C1280 C 0.06302 0.26437 0.1896 0.0
H1281 H 0.05804 0.26848 0.13789 0.0
H1282 H 0.08139 0.27744 0.1653 0.0
S1283 S 0.01696 0.23661 0.20795 0.0
N1284 N 0.0139 0.23791 0.18288 0.0
N1285 N 0.03917 0.24769 0.21289 0.0
C1286 C 0.04522 0.25287 0.19369 0.0
C1287 C 0.03156 0.24743 0.17742 0.0
C1288 C 0.1494 0.06219 0.36759 0.0
C1289 C 0.14872 0.08088 0.35689 0.0
C1290 C 0.1669 0.04951 0.36645 0.0
C1291 C 0.18361 0.05476 0.35378 0.0
H1292 H 0.13599 0.05674 0.37565 0.0
H1293 H 0.16662 0.03475 0.37405 0.0
S1294 S 0.18889 0.10256 0.32381 0.0
N1295 N 0.16661 0.10473 0.33512 0.0
N1296 N 0.19849 0.08044 0.33149 0.0
C1297 C 0.18333 0.07387 0.34405 0.0
C1298 C 0.16615 0.08705 0.34608 0.0
C1299 C 0.28525 0.91229 0.5646 0.0
C1300 C 0.30355 0.9231 0.54919 0.0
C1301 C 0.26769 0.88149 0.54582 0.0
C1302 C 0.2782 0.8783 0.52203 0.0
H1303 H 0.28299 0.91894 0.5798 0.0
H1304 H 0.25558 0.87089 0.55048 0.0
S1305 S 0.32179 0.91004 0.49192 0.0
N1306 N 0.32256 0.92332 0.51356 0.0
N1307 N 0.30451 0.89151 0.49409 0.0
C1308 C 0.29704 0.89392 0.51323 0.0
C1309 C 0.30844 0.91401 0.52548 0.0
C1310 C 0.3908 0.01636 0.82878 0.0
C1311 C 0.3865 0.03133 0.84351 0.0
C1312 C 0.40778 0.00351 0.83062 0.0
C1313 C 0.42125 0.00499 0.84734 0.0
H1314 H 0.38157 0.0154 0.81513 0.0
H1315 H 0.41107 0.99306 0.81817 0.0
S1316 S 0.41472 0.03876 0.8923 0.0
N1317 N 0.39541 0.04479 0.87712 0.0
N1318 N 0.42757 0.02047 0.88048 0.0
C1319 C 0.41609 0.01835 0.86331 0.0
C1320 C 0.39859 0.03154 0.86145 0.0
C1321 C 0.34955 0.1901 0.06925 0.0
C1322 C 0.34814 0.185 0.0484 0.0
C1323 C 0.34983 0.17469 0.08434 0.0
C1324 C 0.34902 0.1538 0.07895 0.0
H1325 H 0.34894 0.206 0.07396 0.0
H1326 H 0.34884 0.17915 0.10027 0.0
S1327 S 0.3485 0.13274 0.02643 0.0
N1328 N 0.34838 0.15784 0.02312 0.0
N1329 N 0.34907 0.12899 0.05141 0.0
C1330 C 0.34943 0.14866 0.05815 0.0
C1331 C 0.34893 0.16426 0.04287 0.0
C1332 C 0.1947 0.04155 0.27995 0.0
C1333 C 0.19753 0.05732 0.26569 0.0
C1334 C 0.17786 0.02841 0.27886 0.0
C1335 C 0.16307 0.03041 0.26335 0.0
H1336 H 0.20516 0.04005 0.29265 0.0
H1337 H 0.17576 0.01731 0.29104 0.0
S1338 S 0.166 0.06601 0.21927 0.0
N1339 N 0.18628 0.07179 0.23325 0.0
N1340 N 0.15417 0.04712 0.23134 0.0
C1341 C 0.16687 0.04454 0.24756 0.0
C1342 C 0.18427 0.05799 0.24866 0.0
C1343 C 0.27267 0.91204 0.53402 0.0
C1344 C 0.25211 0.91388 0.55022 0.0
C1345 C 0.30013 0.88701 0.54933 0.0
C1346 C 0.29179 0.87747 0.57237 0.0
H1347 H 0.27226 0.921 0.51986 0.0
H1348 H 0.31497 0.88182 0.54365 0.0
S1349 S 0.24014 0.8879 0.60471 0.0
N1350 N 0.23476 0.90296 0.58499 0.0
N1351 N 0.2627 0.87703 0.6008 0.0
C1352 C 0.26886 0.88453 0.5825 0.0
C1353 C 0.25111 0.90083 0.57251 0.0
C1354 C 0.4199 0.0612 0.74865 0.0
C1355 C 0.43766 0.05382 0.75842 0.0
C1356 C 0.40175 0.04941 0.74826 0.0
C1357 C 0.40084 0.0301 0.75794 0.0
H1358 H 0.41952 0.07673 0.74281 0.0
H1359 H 0.38807 0.05599 0.74163 0.0
S1360 S 0.44439 0.00254 0.7815 0.0
N1361 N 0.45404 0.02489 0.77477 0.0
N1362 N 0.42015 0.00304 0.77453 0.0
C1363 C 0.41902 0.02201 0.76604 0.0
C1364 C 0.43738 0.03377 0.76609 0.0
C1365 C 0.26813 0.17139 0.07175 0.0
C1366 C 0.26826 0.19199 0.0655 0.0
C1367 C 0.2658 0.15549 0.05751 0.0
C1368 C 0.2635 0.15961 0.03653 0.0
H1369 H 0.27066 0.16753 0.08768 0.0
H1370 H 0.26707 0.1398 0.0628 0.0
S1371 S 0.26312 0.21099 0.01232 0.0
N1372 N 0.26565 0.21576 0.03702 0.0
N1373 N 0.26146 0.18581 0.01019 0.0
C1374 C 0.26274 0.18018 0.03017 0.0
C1375 C 0.2651 0.19641 0.0447 0.0
C1376 C 0.86491 0.41936 0.02146 0.0
C1377 C 0.85033 0.42346 0.0062 0.0
C1378 C 0.86232 0.40274 0.03507 0.0
C1379 C 0.84458 0.39044 0.03439 0.0
H1380 H 0.87754 0.42983 0.02384 0.0
H1381 H 0.87331 0.40068 0.04729 0.0
S1382 S 0.80444 0.39233 0.99453 0.0
N1383 N 0.81968 0.41169 0.98894 0.0
N1384 N 0.81432 0.38134 0.01503 0.0
C1385 C 0.83102 0.39332 0.01805 0.0
C1386 C 0.83402 0.40964 0.00384 0.0
C1387 C 0.89186 0.50971 0.3128 0.0
C1388 C 0.8763 0.51837 0.30049 0.0
C1389 C 0.90702 0.52083 0.3233 0.0
C1390 C 0.90867 0.54233 0.32342 0.0
H1391 H 0.89304 0.49319 0.31401 0.0
H1392 H 0.91846 0.51186 0.3313 0.0
S1393 S 0.86748 0.58637 0.28832 0.0
N1394 N 0.86088 0.55456 0.28483 0.0
N1395 N 0.89178 0.5785 0.30965 0.0
C1396 C 0.894 0.55343 0.31304 0.0
C1397 C 0.87578 0.53956 0.29899 0.0
C1398 C 0.81459 0.67478 0.54857 0.0
C1399 C 0.80553 0.66209 0.52634 0.0
C1400 C 0.80181 0.69463 0.56186 0.0
C1401 C 0.77783 0.7055 0.55532 0.0
H1402 H 0.82921 0.67015 0.55474 0.0
H1403 H 0.80961 0.70053 0.57519 0.0
S1404 S 0.74669 0.66978 0.48789 0.0
N1405 N 0.77201 0.65965 0.49613 0.0
N1406 N 0.74439 0.70037 0.52251 0.0
C1407 C 0.76402 0.69672 0.5339 0.0
C1408 C 0.78169 0.66879 0.51478 0.0
C1409 C 0.90841 0.54482 0.24959 0.0
C1410 C 0.9234 0.55934 0.24695 0.0
C1411 C 0.89323 0.5473 0.26394 0.0
C1412 C 0.89306 0.5632 0.27992 0.0
H1413 H 0.9082 0.53125 0.24009 0.0
H1414 H 0.88181 0.5354 0.26254 0.0
S1415 S 0.92963 0.60899 0.27217 0.0
N1416 N 0.93711 0.59209 0.25526 0.0
N1417 N 0.91029 0.59801 0.28386 0.0
C1418 C 0.90885 0.57919 0.27471 0.0
C1419 C 0.92348 0.57669 0.25869 0.0
C1420 C 0.68377 0.50098 0.77233 0.0
C1421 C 0.70283 0.5089 0.79119 0.0
C1422 C 0.66317 0.51677 0.76199 0.0
C1423 C 0.65778 0.54345 0.76854 0.0
H1424 H 0.68501 0.48575 0.76599 0.0
H1425 H 0.65368 0.50959 0.75049 0.0
S1426 S 0.71596 0.58261 0.79349 0.0
N1427 N 0.72249 0.55155 0.80366 0.0
N1428 N 0.68457 0.58039 0.78452 0.0
C1429 C 0.67294 0.55783 0.78709 0.0
C1430 C 0.70327 0.53438 0.80249 0.0
C1431 C 0.77255 0.41803 0.05856 0.0
C1432 C 0.75497 0.43031 0.06018 0.0
C1433 C 0.77201 0.39897 0.04911 0.0
C1434 C 0.75388 0.39108 0.04081 0.0
H1435 H 0.78724 0.42366 0.06385 0.0
H1436 H 0.78628 0.39088 0.04728 0.0
S1437 S 0.70247 0.41508 0.04538 0.0
N1438 N 0.71812 0.43197 0.05593 0.0
N1439 N 0.71691 0.39565 0.03799 0.0
C1440 C 0.73561 0.40223 0.0442 0.0
C1441 C 0.7362 0.42196 0.05395 0.0
C1442 C 0.77888 0.67014 0.54851 0.0
C1443 C 0.75719 0.66069 0.54205 0.0
C1444 C 0.79688 0.69685 0.5262 0.0
C1445 C 0.78665 0.70511 0.50545 0.0
H1446 H 0.78389 0.6628 0.56278 0.0
H1447 H 0.81161 0.70468 0.52839 0.0
S1448 S 0.71927 0.69632 0.49763 0.0
N1449 N 0.72415 0.67369 0.51768 0.0
N1450 N 0.74665 0.70735 0.48956 0.0
C1451 C 0.7656 0.6964 0.49947 0.0
C1452 C 0.74715 0.66887 0.52248 0.0
C1453 C 0.67081 0.52456 0.79619 0.0
C1454 C 0.66598 0.53341 0.81692 0.0
C1455 C 0.69242 0.53564 0.77015 0.0
C1456 C 0.70382 0.55365 0.77537 0.0
H1457 H 0.66092 0.51099 0.79631 0.0
H1458 H 0.69601 0.52971 0.75476 0.0
S1459 S 0.6879 0.57628 0.84925 0.0
N1460 N 0.67239 0.55733 0.84502 0.0
N1461 N 0.70005 0.57845 0.82762 0.0
C1462 C 0.6923 0.56391 0.81387 0.0
C1463 C 0.67631 0.55145 0.82539 0.0
C1464 C 0.96644 0.42822 0.24274 0.0
C1465 C 0.98485 0.42262 0.25217 0.0
C1466 C 0.96223 0.44871 0.23876 0.0
C1467 C 0.97631 0.46387 0.24429 0.0
H1468 H 0.95612 0.41664 0.2368 0.0
H1469 H 0.94876 0.45254 0.22992 0.0
S1470 S 0.02527 0.45713 0.27163 0.0
N1471 N 0.01629 0.43364 0.26865 0.0
N1472 N 0.00819 0.47257 0.26118 0.0
C1473 C 0.99404 0.45864 0.25498 0.0
C1474 C -0.00161 0.43777 0.25896 0.0
C1475 C 0.88347 0.82542 0.49806 0.0
C1476 C 0.90045 0.81686 0.48808 0.0
C1477 C 0.86409 0.81616 0.49632 0.0
C1478 C 0.86148 0.79856 0.48423 0.0
H1479 H 0.88526 0.83897 0.50743 0.0
H1480 H 0.85119 0.82271 0.50435 0.0
S1481 S 0.90069 0.77114 0.45418 0.0
N1482 N 0.91306 0.78996 0.46563 0.0
N1483 N 0.87669 0.77365 0.46141 0.0
C1484 C 0.87812 0.79037 0.47377 0.0
C1485 C 0.89767 0.79928 0.47596 0.0
C1486 C 0.56949 0.64492 0.74287 0.0
C1487 C 0.58158 0.63382 0.7568 0.0
C1488 C 0.56882 0.66622 0.74362 0.0
C1489 C 0.58016 0.67699 0.75833 0.0
H1490 H 0.56193 0.63733 0.73023 0.0
H1491 H 0.5607 0.67425 0.73159 0.0
S1492 S 0.60996 0.65475 0.80123 0.0
N1493 N 0.60182 0.63481 0.78804 0.0
N1494 N 0.60075 0.67504 0.78932 0.0
C1495 C 0.59027 0.66599 0.77379 0.0
C1496 C 0.59086 0.64428 0.7731 0.0
C1497 C 0.67684 0.34034 0.96969 0.0
C1498 C 0.68599 0.32293 0.97806 0.0
C1499 C 0.65606 0.34335 0.97171 0.0
C1500 C 0.64353 0.32802 0.97984 0.0
H1501 H 0.68607 0.35279 0.96367 0.0
H1502 H 0.65004 0.35827 0.96797 0.0
S1503 S 0.66073 0.28177 0.00755 0.0
N1504 N 0.68191 0.29195 -0.00179 0.0
N1505 N 0.64184 0.29659 -0.00037 0.0
C1506 C 0.65243 0.31063 0.9886 0.0
C1507 C 0.67398 0.30815 0.98786 0.0
C1508 C 5e-05 0.64975 0.32495 0.0
C1509 C 0.9831 0.63998 0.31593 0.0
C1510 C 0.00049 0.67094 0.32735 0.0
C1511 C 0.98417 0.68307 0.32048 0.0
H1512 H 0.01232 0.64088 0.33171 0.0
H1513 H 0.01318 0.67773 0.33559 0.0
S1514 S 0.93776 0.66535 0.29321 0.0
N1515 N 0.95078 0.64428 0.29809 0.0
N1516 N 0.95178 0.6843 0.30229 0.0
C1517 C 0.96815 0.67379 0.30964 0.0
C1518 C 0.96762 0.65214 0.30735 0.0
C1519 C 0.6685 0.76149 0.6076 0.0
C1520 C 0.67833 0.76024 0.58858 0.0
C1521 C 0.64739 0.76119 0.60883 0.0
C1522 C 0.63552 0.75957 0.59108 0.0
H1523 H 0.67715 0.76164 0.62175 0.0
H1524 H 0.64041 0.76094 0.62387 0.0
S1525 S 0.65395 0.75776 0.53759 0.0
N1526 N 0.67496 0.75875 0.55159 0.0
N1527 N 0.63467 0.758 0.55393 0.0
C1528 C 0.64506 0.75905 0.5719 0.0
C1529 C 0.6667 0.75941 0.57063 0.0
C1530 C 0.59275 0.39932 0.80938 0.0
C1531 C 0.60328 0.38614 0.82268 0.0
C1532 C 0.59483 0.42063 0.81129 0.0
C1533 C 0.60675 0.4289 0.82708 0.0
H1534 H 0.58234 0.39316 0.79806 0.0
H1535 H 0.5862 0.43061 0.80125 0.0
S1536 S 0.63786 0.40079 0.86524 0.0
N1537 N 0.62736 0.38283 0.85089 0.0
N1538 N 0.62966 0.42269 0.85568 0.0
C1539 C 0.61779 0.41586 0.84 0.0
C1540 C 0.61646 0.39441 0.83747 0.0
C1541 C 0.91381 0.26852 0.08683 0.0
C1542 C 0.93396 0.27598 0.08679 0.0
C1543 C 0.89721 0.28183 0.08982 0.0
C1544 C 0.90038 0.30286 0.09343 0.0
H1545 H 0.91091 0.25232 0.08467 0.0
H1546 H 0.88185 0.27566 0.0891 0.0
S1547 S 0.95008 0.32975 0.09724 0.0
N1548 N 0.95598 0.30591 0.09129 0.0
N1549 N 0.92493 0.33022 0.09861 0.0
C1550 C 0.92039 0.31038 0.09409 0.0
C1551 C 0.93715 0.29712 0.0903 0.0
C1552 C 0.25144 0.98411 0.45679 0.0
C1553 C 0.231 0.98401 0.46344 0.0
C1554 C 0.2561 0.98786 0.43626 0.0
C1555 C 0.24033 0.99146 0.42228 0.0
H1556 H 0.26381 0.98143 0.46749 0.0
H1557 H 0.27193 0.9883 0.4314 0.0
S1558 S 0.18445 0.98965 0.43133 0.0
N1559 N 0.19492 0.98567 0.45393 0.0
N1560 N 0.20382 0.99272 0.41548 0.0
C1561 C 0.21991 0.99054 0.42854 0.0
C1562 C 0.21516 0.98684 0.4492 0.0
C1563 C 0.32269 -0.00055 0.64996 0.0
C1564 C 0.32014 0.97982 0.6417 0.0
C1565 C 0.32211 0.00239 0.67094 0.0
C1566 C 0.31907 0.98575 0.68416 0.0
H1567 H 0.32632 0.01242 0.64025 0.0
H1568 H 0.32548 0.01752 0.6769 0.0
S1569 S 0.30866 0.93184 0.66976 0.0
N1570 N 0.31202 0.94393 0.64781 0.0
N1571 N 0.31109 0.94948 0.6877 0.0
C1572 C 0.31452 0.96639 0.67604 0.0
C1573 C 0.31505 0.96339 0.65457 0.0
C1574 C 0.27292 0.10962 0.91686 0.0
C1575 C 0.26868 0.09131 0.92751 0.0
C1576 C 0.28778 0.11028 0.90147 0.0
C1577 C 0.29887 0.09267 0.89626 0.0
H1578 H 0.26612 0.12396 0.92164 0.0
H1579 H 0.29133 0.12488 0.8944 0.0
S1580 S 0.29104 0.04027 0.91681 0.0
N1581 N 0.27496 0.0547 0.92988 0.0
N1582 N 0.30275 0.05588 0.90074 0.0
C1583 C 0.29367 0.07397 0.90556 0.0
C1584 C 0.2785 0.07328 0.92115 0.0
C1585 C 0.31093 0.10241 0.21944 0.0
C1586 C 0.29015 0.10624 0.21546 0.0
C1587 C 0.32401 0.09565 0.20388 0.0
C1588 C 0.31657 0.09202 0.18406 0.0
H1589 H 0.31706 0.10433 0.23472 0.0
H1590 H 0.34006 0.09339 0.2073 0.0
S1591 S 0.2632 0.10094 0.16587 0.0
N1592 N 0.26295 0.10744 0.1902 0.0
N1593 N 0.28677 0.09321 0.16135 0.0
C1594 C 0.29561 0.09571 0.18004 0.0
C1595 C 0.28262 0.10331 0.19563 0.0
C1596 C 0.43907 0.23657 0.00881 0.0
C1597 C 0.42583 0.24498 0.99401 0.0
C1598 C 0.45933 0.23188 0.00399 0.0
C1599 C 0.46688 0.23582 0.98438 0.0
H1600 H 0.43351 0.23287 0.02398 0.0
H1601 H 0.469 0.22485 0.01548 0.0
S1602 S 0.4383 0.25576 0.93966 0.0
N1603 N 0.42157 0.25576 0.95856 0.0
N1604 N 0.45986 0.2475 0.94978 0.0
C1605 C 0.45402 0.24443 0.96952 0.0
C1606 C 0.43338 0.24895 0.97429 0.0
C1607 C 0.10798 0.90191 0.28398 0.0
C1608 C 0.09063 0.89592 0.29508 0.0
C1609 C 0.1067 0.91726 0.26905 0.0
C1610 C 0.08801 0.92713 0.26472 0.0
H1611 H 0.12283 0.89555 0.28763 0.0
H1612 H 0.12082 0.92263 0.26223 0.0
S1613 S 0.03756 0.91424 0.28717 0.0
N1614 N 0.05378 0.89887 0.29896 0.0
N1615 N 0.05141 0.9279 0.27101 0.0
C1616 C 0.0703 0.92 0.27459 0.0
C1617 C 0.07161 0.90444 0.28984 0.0
C1618 C 0.16124 0.79894 0.51218 0.0
C1619 C 0.15853 0.77851 0.50554 0.0
C1620 C 0.17922 0.8097 0.50804 0.0
C1621 C 0.19528 0.80035 0.49745 0.0
H1622 H 0.1488 0.80738 0.51911 0.0
H1623 H 0.18009 0.82573 0.51227 0.0
S1624 S 0.19822 0.74588 0.4816 0.0
N1625 N 0.17496 0.74843 0.49111 0.0
N1626 N 0.20911 0.76861 0.48376 0.0
C1627 C 0.19375 0.77941 0.49265 0.0
C1628 C 0.17534 0.76845 0.49675 0.0
C1629 C 0.4919 0.86732 0.81752 0.0
C1630 C 0.48945 0.86642 0.7962 0.0
C1631 C 0.49251 0.88632 0.8276 0.0
C1632 C 0.49067 0.90467 0.8165 0.0
H1633 H 0.4933 0.85335 0.82636 0.0
H1634 H 0.49431 0.88669 0.84406 0.0
S1635 S 0.47943 0.90954 0.76085 0.0
N1636 N 0.48223 0.88476 0.76478 0.0
N1637 N 0.48335 0.92036 0.78332 0.0
C1638 C 0.4873 0.90367 0.79519 0.0
C1639 C 0.48668 0.8845 0.78512 0.0
C1640 C 0.09606 0.20416 0.32392 0.0
C1641 C 0.09122 0.18431 0.3172 0.0
C1642 C 0.10212 0.21942 0.31001 0.0
C1643 C 0.10392 0.21518 0.28896 0.0
H1644 H 0.09525 0.20789 0.34004 0.0
H1645 H 0.10515 0.23468 0.31576 0.0
S1646 S 0.09588 0.16496 0.26374 0.0
N1647 N 0.09019 0.16097 0.28798 0.0
N1648 N 0.10224 0.18936 0.2623 0.0
C1649 C 0.09986 0.19525 0.28212 0.0
C1650 C 0.09331 0.17989 0.29611 0.0
C1651 C 0.50045 0.17725 0.76444 0.0
C1652 C 0.50702 0.16066 0.77652 0.0
C1653 C 0.49554 0.19612 0.77333 0.0
C1654 C 0.49719 0.19891 0.79453 0.0
H1655 H 0.49822 0.17536 0.74813 0.0
H1656 H 0.4902 0.20849 0.76365 0.0
S1657 S 0.51171 0.16043 0.83343 0.0
N1658 N 0.51401 0.14848 0.81132 0.0
N1659 N 0.50447 0.18387 0.82759 0.0
C1660 C 0.5038 0.18272 0.80682 0.0
C1661 C 0.5089 0.16361 0.79792 0.0
C1662 C 0.20392 0.29256 0.08454 0.0
C1663 C 0.21351 0.29303 0.10376 0.0
C1664 C 0.19075 0.30827 0.07838 0.0
C1665 C 0.18637 0.32496 0.09131 0.0
H1666 H 0.20654 0.27991 0.07415 0.0
H1667 H 0.18299 0.30672 0.06381 0.0
S1668 S 0.2079 0.33314 0.14336 0.0
N1669 N 0.21827 0.31147 0.13559 0.0
N1670 N 0.19334 0.34101 0.12428 0.0
C1671 C 0.19653 0.3259 0.11037 0.0
C1672 C 0.21002 0.30987 0.11657 0.0
C1673 C 0.40217 0.81064 0.61288 0.0
C1674 C 0.39299 0.81626 0.59424 0.0
C1675 C 0.42262 0.81487 0.61647 0.0
C1676 C 0.43435 0.82466 0.60151 0.0
H1677 H 0.3932 0.80474 0.62551 0.0
H1678 H 0.42883 0.8119 0.63157 0.0
S1679 S 0.41882 0.83819 0.54885 0.0
N1680 N 0.39791 0.82887 0.55956 0.0
N1681 N 0.43681 0.83704 0.56657 0.0
C1682 C 0.42604 0.82858 0.58221 0.0
C1683 C 0.40517 0.82416 0.57846 0.0
C1684 C 0.80452 0.5038 0.89479 0.0
C1685 C 0.82222 0.49214 0.89873 0.0
C1686 C 0.79271 0.5005 0.87728 0.0
C1687 C 0.79817 0.48545 0.86298 0.0
H1688 H 0.79888 0.51458 0.90605 0.0
H1689 H 0.77866 0.50911 0.87553 0.0
S1690 S 0.8444 0.45254 0.86463 0.0
N1691 N 0.84562 0.46628 0.88578 0.0
N1692 N 0.82353 0.4602 0.8527 0.0
C1693 C 0.81661 0.47474 0.86587 0.0
C1694 C 0.82868 0.47814 0.88373 0.0
C1695 C 0.80692 0.51322 0.18322 0.0
C1696 C 0.79897 0.5002 0.19829 0.0
C1697 C 0.79644 0.51637 0.16487 0.0
C1698 C 0.77769 0.50646 0.16083 0.0
H1699 H 0.82189 0.52012 0.18508 0.0
H1700 H 0.80396 0.52538 0.15316 0.0
S1701 S 0.7486 0.4739 0.19723 0.0
N1702 N 0.76991 0.47969 0.20948 0.0
N1703 N 0.75024 0.48547 0.17482 0.0
C1704 C 0.76868 0.49493 0.17663 0.0
C1705 C 0.77939 0.4917 0.19535 0.0
C1706 C 0.81741 0.5888 0.40615 0.0
C1707 C 0.81571 0.60412 0.39123 0.0
C1708 C 0.82294 0.59386 0.42601 0.0
C1709 C 0.82656 0.61432 0.43123 0.0
H1710 H 0.81606 0.57276 0.40205 0.0
H1711 H 0.82515 0.58171 0.43711 0.0
S1712 S 0.82355 0.66001 0.39799 0.0
N1713 N 0.81742 0.64056 0.38307 0.0
N1714 N 0.82733 0.64999 0.42085 0.0
C1715 C 0.82351 0.6299 0.41693 0.0
C1716 C 0.81804 0.6248 0.3967 0.0
C1717 C 0.76138 0.60657 0.64526 0.0
C1718 C 0.75435 0.59009 0.63346 0.0
C1719 C 0.76079 0.60554 0.66643 0.0
C1720 C 0.75327 0.58798 0.67633 0.0
H1721 H 0.76581 0.62095 0.63822 0.0
H1722 H 0.76519 0.61907 0.67497 0.0
S1723 S 0.73731 0.53922 0.65205 0.0
N1724 N 0.74269 0.55468 0.63279 0.0
N1725 N 0.74181 0.55262 0.67297 0.0
C1726 C 0.74814 0.57067 0.66472 0.0
C1727 C 0.74866 0.57176 0.6431 0.0
loop_
_geom_bond_atom_site_label_1
_geom_bond_atom_site_label_2
_geom_bond_distance
_geom_bond_site_symmetry_2
_ccdc_geom_bond_type
C0 O1 1.306 . S
C0 O3 1.160 . S
O1 C0 1.306 . S
O1 Cd2 2.228 . S
Cd2 O1 2.228 . S
Cd2 O6 2.273 1_455 S
Cd2 O10 2.277 . S
O3 C0 1.160 . S
O3 Cd4 2.203 . S
Cd4 O3 2.203 . S
Cd4 O6 2.411 1_455 S
Cd4 O7 2.333 1_455 S
Cd4 O8 2.352 1_455 S
Cd4 O12 2.277 . S
Cd4 O13 2.356 . S
C5 O10 1.209 . S
C5 O12 1.226 . S
O6 Cd2 2.273 1_655 S
O6 Cd4 2.411 1_655 S
O6 C9 1.320 . S
O7 Cd4 2.333 1_655 S
O7 C9 1.214 . S
O8 Cd4 2.352 1_655 S
O8 C11 1.258 . S
C9 O6 1.320 . S
C9 O7 1.214 . S
O10 Cd2 2.277 . S
O10 C5 1.209 . S
C11 O8 1.258 . S
C11 O13 1.282 1_655 S
O12 Cd4 2.277 . S
O12 C5 1.226 . S
O13 Cd4 2.356 . S
O13 C11 1.282 1_455 S
C14 O15 1.306 . S
C14 O17 1.160 1_455 S
O15 C14 1.306 . S
O15 Cd16 2.228 . S
Cd16 O15 2.228 . S
Cd16 O20 2.273 1_455 S
Cd16 O24 2.277 . S
O17 C14 1.160 1_655 S
O17 Cd18 2.203 . S
Cd18 O17 2.203 . S
Cd18 O20 2.411 . S
Cd18 O21 2.333 . S
Cd18 O22 2.352 . S
Cd18 O26 2.277 . S
Cd18 O27 2.356 . S
C19 O24 1.209 1_655 S
C19 O26 1.226 . S
O20 Cd16 2.273 1_655 S
O20 Cd18 2.411 . S
O20 C23 1.320 . S
O21 Cd18 2.333 . S
O21 C23 1.214 . S
O22 Cd18 2.352 . S
O22 C25 1.258 . S
C23 O20 1.320 . S
C23 O21 1.214 . S
O24 Cd16 2.277 . S
O24 C19 1.209 1_455 S
C25 O22 1.258 . S
C25 O27 1.282 . S
O26 Cd18 2.277 . S
O26 C19 1.226 . S
O27 Cd18 2.356 . S
O27 C25 1.282 . S
C28 O29 1.306 . S
C28 O31 1.160 . S
O29 C28 1.306 . S
O29 Cd30 2.228 . S
Cd30 O29 2.228 . S
Cd30 O34 2.273 . S
Cd30 O38 2.277 . S
O31 C28 1.160 . S
O31 Cd32 2.203 . S
Cd32 O31 2.203 . S
Cd32 O34 2.411 . S
Cd32 O35 2.333 . S
Cd32 O36 2.352 . S
Cd32 O40 2.277 . S
Cd32 O41 2.356 . S
C33 O38 1.209 . S
C33 O40 1.226 . S
O34 Cd30 2.273 . S
O34 Cd32 2.411 . S
O34 C37 1.320 . S
O35 Cd32 2.333 . S
O35 C37 1.214 . S
O36 Cd32 2.352 . S
O36 C39 1.258 . S
C37 O34 1.320 . S
C37 O35 1.214 . S
O38 Cd30 2.277 . S
O38 C33 1.209 . S
C39 O36 1.258 . S
C39 O41 1.282 . S
O40 Cd32 2.277 . S
O40 C33 1.226 . S
O41 Cd32 2.356 . S
O41 C39 1.282 . S
C42 O43 1.306 . S
C42 O45 1.160 . S
O43 C42 1.306 . S
O43 Cd44 2.228 . S
Cd44 O43 2.228 . S
Cd44 O48 2.273 . S
Cd44 O52 2.277 . S
O45 C42 1.160 . S
O45 Cd46 2.203 . S
Cd46 O45 2.203 . S
Cd46 O48 2.411 . S
Cd46 O49 2.333 . S
Cd46 O50 2.352 . S
Cd46 O54 2.277 . S
Cd46 O55 2.356 . S
C47 O52 1.209 . S
C47 O54 1.226 . S
O48 Cd44 2.273 . S
O48 Cd46 2.411 . S
O48 C51 1.320 . S
O49 Cd46 2.333 . S
O49 C51 1.214 . S
O50 Cd46 2.352 . S
O50 C53 1.258 . S
C51 O48 1.320 . S
C51 O49 1.214 . S
O52 Cd44 2.277 . S
O52 C47 1.209 . S
C53 O50 1.258 . S
C53 O55 1.282 . S
O54 Cd46 2.277 . S
O54 C47 1.226 . S
O55 Cd46 2.356 . S
O55 C53 1.282 . S
C56 O57 1.306 . S
C56 O59 1.160 . S
O57 C56 1.306 . S
O57 Cd58 2.236 . S
Cd58 O57 2.236 . S
Cd58 O62 2.255 1_455 S
Cd58 O66 2.292 . S
O59 C56 1.160 . S
O59 Cd60 2.204 . S
Cd60 O59 2.204 . S
Cd60 O62 2.410 1_455 S
Cd60 O63 2.331 1_455 S
Cd60 O64 2.350 1_455 S
Cd60 O68 2.278 . S
Cd60 O69 2.356 1_455 S
C61 O66 1.209 . S
C61 O68 1.226 . S
O62 Cd58 2.255 1_655 S
O62 Cd60 2.410 1_655 S
O62 C65 1.320 . S
O63 Cd60 2.331 1_655 S
O63 C65 1.214 . S
O64 Cd60 2.350 1_655 S
O64 C67 1.258 . S
C65 O62 1.320 . S
C65 O63 1.214 . S
O66 Cd58 2.292 . S
O66 C61 1.209 . S
C67 O64 1.258 . S
C67 O69 1.282 . S
O68 Cd60 2.278 . S
O68 C61 1.226 . S
O69 Cd60 2.356 1_655 S
O69 C67 1.282 . S
C70 O71 1.306 . S
C70 O73 1.160 . S
O71 C70 1.306 . S
O71 Cd72 2.228 . S
Cd72 O71 2.228 . S
Cd72 O76 2.273 . S
Cd72 O80 2.277 . S
O73 C70 1.160 . S
O73 Cd74 2.203 . S
Cd74 O73 2.203 . S
Cd74 O76 2.411 . S
Cd74 O77 2.333 . S
Cd74 O78 2.352 . S
Cd74 O82 2.277 . S
Cd74 O83 2.356 . S
C75 O80 1.209 . S
C75 O82 1.226 . S
O76 Cd72 2.273 . S
O76 Cd74 2.411 . S
O76 C79 1.320 . S
O77 Cd74 2.333 . S
O77 C79 1.214 . S
O78 Cd74 2.352 . S
O78 C81 1.258 . S
C79 O76 1.320 . S
C79 O77 1.214 . S
O80 Cd72 2.277 . S
O80 C75 1.209 . S
C81 O78 1.258 . S
C81 O83 1.282 . S
O82 Cd74 2.277 . S
O82 C75 1.226 . S
O83 Cd74 2.356 . S
O83 C81 1.282 . S
C84 O85 1.306 . S
C84 O87 1.160 . S
O85 C84 1.306 . S
O85 Cd86 2.228 . S
Cd86 O85 2.228 . S
Cd86 O90 2.273 . S
Cd86 O94 2.277 . S
O87 C84 1.160 . S
O87 Cd88 2.203 . S
Cd88 O87 2.203 . S
Cd88 O90 2.411 . S
Cd88 O91 2.333 . S
Cd88 O92 2.352 . S
Cd88 O96 2.277 . S
Cd88 O97 2.356 . S
C89 O94 1.209 . S
C89 O96 1.226 . S
O90 Cd86 2.273 . S
O90 Cd88 2.411 . S
O90 C93 1.320 . S
O91 Cd88 2.333 . S
O91 C93 1.214 . S
O92 Cd88 2.352 . S
O92 C95 1.258 . S
C93 O90 1.320 . S
C93 O91 1.214 . S
O94 Cd86 2.277 . S
O94 C89 1.209 . S
C95 O92 1.258 . S
C95 O97 1.282 . S
O96 Cd88 2.277 . S
O96 C89 1.226 . S
O97 Cd88 2.356 . S
O97 C95 1.282 . S
C98 O99 1.306 . S
C98 O101 1.160 . S
O99 C98 1.306 . S
O99 Cd100 2.228 . S
Cd100 O99 2.228 . S
Cd100 O104 2.273 . S
Cd100 O108 2.277 . S
O101 C98 1.160 . S
O101 Cd102 2.203 1_455 S
Cd102 O101 2.203 1_655 S
Cd102 O104 2.411 1_655 S
Cd102 O105 2.333 . S
Cd102 O106 2.352 . S
Cd102 O110 2.277 1_655 S
Cd102 O111 2.356 . S
C103 O108 1.209 . S
C103 O110 1.226 . S
O104 Cd100 2.273 . S
O104 Cd102 2.411 1_455 S
O104 C107 1.320 1_455 S
O105 Cd102 2.333 . S
O105 C107 1.214 . S
O106 Cd102 2.352 . S
O106 C109 1.258 . S
C107 O104 1.320 1_655 S
C107 O105 1.214 . S
O108 Cd100 2.277 . S
O108 C103 1.209 . S
C109 O106 1.258 . S
C109 O111 1.282 . S
O110 Cd102 2.277 1_455 S
O110 C103 1.226 . S
O111 Cd102 2.356 . S
O111 C109 1.282 . S
C112 O113 1.306 . S
C112 O115 1.160 . S
O113 C112 1.306 . S
O113 Cd114 2.228 . S
Cd114 O113 2.228 . S
Cd114 O118 2.273 1_545 S
Cd114 O122 2.277 . S
O115 C112 1.160 . S
O115 Cd116 2.203 . S
Cd116 O115 2.203 . S
Cd116 O118 2.411 1_545 S
Cd116 O119 2.333 1_545 S
Cd116 O120 2.352 1_545 S
Cd116 O124 2.277 . S
Cd116 O125 2.356 . S
C117 O122 1.209 . S
C117 O124 1.226 . S
O118 Cd114 2.273 1_565 S
O118 Cd116 2.411 1_565 S
O118 C121 1.320 . S
O119 Cd116 2.333 1_565 S
O119 C121 1.214 . S
O120 Cd116 2.352 1_565 S
O120 C123 1.258 . S
C121 O118 1.320 . S
C121 O119 1.214 . S
O122 Cd114 2.277 . S
O122 C117 1.209 . S
C123 O120 1.258 . S
C123 O125 1.282 1_565 S
O124 Cd116 2.277 . S
O124 C117 1.226 . S
O125 Cd116 2.356 . S
O125 C123 1.282 1_545 S
C126 O127 1.306 . S
C126 O129 1.160 . S
O127 C126 1.306 . S
O127 Cd128 2.228 . S
Cd128 O127 2.228 . S
Cd128 O132 2.273 . S
Cd128 O136 2.277 . S
O129 C126 1.160 . S
O129 Cd130 2.203 . S
Cd130 O129 2.203 . S
Cd130 O132 2.411 . S
Cd130 O133 2.333 . S
Cd130 O134 2.352 . S
Cd130 O138 2.277 . S
Cd130 O139 2.356 . S
C131 O136 1.209 . S
C131 O138 1.226 . S
O132 Cd128 2.273 . S
O132 Cd130 2.411 . S
O132 C135 1.320 . S
O133 Cd130 2.333 . S
O133 C135 1.214 . S
O134 Cd130 2.352 . S
O134 C137 1.258 . S
C135 O132 1.320 . S
C135 O133 1.214 . S
O136 Cd128 2.277 . S
O136 C131 1.209 . S
C137 O134 1.258 . S
C137 O139 1.282 . S
O138 Cd130 2.277 . S
O138 C131 1.226 . S
O139 Cd130 2.356 . S
O139 C137 1.282 . S
C140 O141 1.306 . S
C140 O143 1.160 . S
O141 C140 1.306 . S
O141 Cd142 2.228 . S
Cd142 O141 2.228 . S
Cd142 O146 2.273 . S
Cd142 O150 2.277 . S
O143 C140 1.160 . S
O143 Cd144 2.203 . S
Cd144 O143 2.203 . S
Cd144 O146 2.411 . S
Cd144 O147 2.333 . S
Cd144 O148 2.352 . S
Cd144 O152 2.277 . S
Cd144 O153 2.356 . S
C145 O150 1.209 . S
C145 O152 1.226 . S
O146 Cd142 2.273 . S
O146 Cd144 2.411 . S
O146 C149 1.320 . S
O147 Cd144 2.333 . S
O147 C149 1.214 . S
O148 Cd144 2.352 . S
O148 C151 1.258 . S
C149 O146 1.320 . S
C149 O147 1.214 . S
O150 Cd142 2.277 . S
O150 C145 1.209 . S
C151 O148 1.258 . S
C151 O153 1.282 . S
O152 Cd144 2.277 . S
O152 C145 1.226 . S
O153 Cd144 2.356 . S
O153 C151 1.282 . S
C154 O155 1.306 . S
C154 O157 1.160 . S
O155 C154 1.306 . S
O155 Cd156 2.228 . S
Cd156 O155 2.228 . S
Cd156 O160 2.273 . S
Cd156 O164 2.277 . S
O157 C154 1.160 . S
O157 Cd158 2.203 . S
Cd158 O157 2.203 . S
Cd158 O160 2.411 . S
Cd158 O161 2.333 . S
Cd158 O162 2.352 . S
Cd158 O166 2.277 . S
Cd158 O167 2.356 . S
C159 O164 1.209 . S
C159 O166 1.226 . S
O160 Cd156 2.273 . S
O160 Cd158 2.411 . S
O160 C163 1.320 . S
O161 Cd158 2.333 . S
O161 C163 1.214 . S
O162 Cd158 2.352 . S
O162 C165 1.258 . S
C163 O160 1.320 . S
C163 O161 1.214 . S
O164 Cd156 2.277 . S
O164 C159 1.209 . S
C165 O162 1.258 . S
C165 O167 1.282 . S
O166 Cd158 2.277 . S
O166 C159 1.226 . S
O167 Cd158 2.356 . S
O167 C165 1.282 . S
C168 O169 1.306 . S
C168 O171 1.160 . S
O169 C168 1.306 . S
O169 Cd170 2.228 . S
Cd170 O169 2.228 . S
Cd170 O174 2.273 . S
Cd170 O178 2.277 . S
O171 C168 1.160 . S
O171 Cd172 2.203 . S
Cd172 O171 2.203 . S
Cd172 O174 2.411 . S
Cd172 O175 2.333 . S
Cd172 O176 2.352 . S
Cd172 O180 2.277 . S
Cd172 O181 2.356 . S
C173 O178 1.209 . S
C173 O180 1.226 . S
O174 Cd170 2.273 . S
O174 Cd172 2.411 . S
O174 C177 1.320 . S
O175 Cd172 2.333 . S
O175 C177 1.214 . S
O176 Cd172 2.352 . S
O176 C179 1.258 . S
C177 O174 1.320 . S
C177 O175 1.214 . S
O178 Cd170 2.277 . S
O178 C173 1.209 . S
C179 O176 1.258 . S
C179 O181 1.282 . S
O180 Cd172 2.277 . S
O180 C173 1.226 . S
O181 Cd172 2.356 . S
O181 C179 1.282 . S
C182 O183 1.306 . S
C182 O185 1.160 . S
O183 C182 1.306 . S
O183 Cd184 2.228 . S
Cd184 O183 2.228 . S
Cd184 O188 2.273 . S
Cd184 O192 2.277 . S
O185 C182 1.160 . S
O185 Cd186 2.203 . S
Cd186 O185 2.203 . S
Cd186 O188 2.411 . S
Cd186 O189 2.333 . S
Cd186 O190 2.352 . S
Cd186 O194 2.277 . S
Cd186 O195 2.356 . S
C187 O192 1.209 . S
C187 O194 1.226 . S
O188 Cd184 2.273 . S
O188 Cd186 2.411 . S
O188 C191 1.320 . S
O189 Cd186 2.333 . S
O189 C191 1.214 . S
O190 Cd186 2.352 . S
O190 C193 1.258 . S
C191 O188 1.320 . S
C191 O189 1.214 . S
O192 Cd184 2.277 . S
O192 C187 1.209 . S
C193 O190 1.258 . S
C193 O195 1.282 . S
O194 Cd186 2.277 . S
O194 C187 1.226 . S
O195 Cd186 2.356 . S
O195 C193 1.282 . S
C196 O197 1.306 . S
C196 O199 1.160 . S
O197 C196 1.306 . S
O197 Cd198 2.236 . S
Cd198 O197 2.236 . S
Cd198 O202 2.255 1_545 S
Cd198 O206 2.292 . S
O199 C196 1.160 . S
O199 Cd200 2.204 . S
Cd200 O199 2.204 . S
Cd200 O202 2.410 1_545 S
Cd200 O203 2.331 1_545 S
Cd200 O204 2.350 1_545 S
Cd200 O208 2.278 . S
Cd200 O209 2.356 1_545 S
C201 O206 1.209 . S
C201 O208 1.226 . S
O202 Cd198 2.255 1_565 S
O202 Cd200 2.410 1_565 S
O202 C205 1.320 . S
O203 Cd200 2.331 1_565 S
O203 C205 1.214 . S
O204 Cd200 2.350 1_565 S
O204 C207 1.258 . S
C205 O202 1.320 . S
C205 O203 1.214 . S
O206 Cd198 2.292 . S
O206 C201 1.209 . S
C207 O204 1.258 . S
C207 O209 1.282 . S
O208 Cd200 2.278 . S
O208 C201 1.226 . S
O209 Cd200 2.356 1_565 S
O209 C207 1.282 . S
C210 O211 1.306 . S
C210 O213 1.160 . S
O211 C210 1.306 . S
O211 Cd212 2.228 . S
Cd212 O211 2.228 . S
Cd212 O216 2.273 . S
Cd212 O220 2.277 . S
O213 C210 1.160 . S
O213 Cd214 2.203 1_554 S
Cd214 O213 2.203 1_556 S
Cd214 O216 2.411 1_556 S
Cd214 O217 2.333 . S
Cd214 O218 2.352 . S
Cd214 O222 2.277 1_556 S
Cd214 O223 2.356 . S
C215 O220 1.209 . S
C215 O222 1.226 . S
O216 Cd212 2.273 . S
O216 Cd214 2.411 1_554 S
O216 C219 1.320 1_554 S
O217 Cd214 2.333 . S
O217 C219 1.214 . S
O218 Cd214 2.352 . S
O218 C221 1.258 . S
C219 O216 1.320 1_556 S
C219 O217 1.214 . S
O220 Cd212 2.277 . S
O220 C215 1.209 . S
C221 O218 1.258 . S
C221 O223 1.282 . S
O222 Cd214 2.277 1_554 S
O222 C215 1.226 . S
O223 Cd214 2.356 . S
O223 C221 1.282 . S
C224 O225 1.306 . S
C224 O227 1.160 . S
O225 C224 1.306 . S
O225 Cd226 2.228 . S
Cd226 O225 2.228 . S
Cd226 O230 2.273 1_554 S
Cd226 O234 2.277 . S
O227 C224 1.160 . S
O227 Cd228 2.203 . S
Cd228 O227 2.203 . S
Cd228 O230 2.411 1_554 S
Cd228 O231 2.333 1_554 S
Cd228 O232 2.352 1_554 S
Cd228 O236 2.277 . S
Cd228 O237 2.356 . S
C229 O234 1.209 . S
C229 O236 1.226 . S
O230 Cd226 2.273 1_556 S
O230 Cd228 2.411 1_556 S
O230 C233 1.320 . S
O231 Cd228 2.333 1_556 S
O231 C233 1.214 . S
O232 Cd228 2.352 1_556 S
O232 C235 1.258 . S
C233 O230 1.320 . S
C233 O231 1.214 . S
O234 Cd226 2.277 . S
O234 C229 1.209 . S
C235 O232 1.258 . S
C235 O237 1.282 1_556 S
O236 Cd228 2.277 . S
O236 C229 1.226 . S
O237 Cd228 2.356 . S
O237 C235 1.282 1_554 S
C238 O239 1.306 . S
C238 O241 1.160 . S
O239 C238 1.306 . S
O239 Cd240 2.228 . S
Cd240 O239 2.228 . S
Cd240 O244 2.273 . S
Cd240 O248 2.277 . S
O241 C238 1.160 . S
O241 Cd242 2.203 . S
Cd242 O241 2.203 . S
Cd242 O244 2.411 . S
Cd242 O245 2.333 . S
Cd242 O246 2.352 . S
Cd242 O250 2.277 . S
Cd242 O251 2.356 . S
C243 O248 1.209 . S
C243 O250 1.226 . S
O244 Cd240 2.273 . S
O244 Cd242 2.411 . S
O244 C247 1.320 . S
O245 Cd242 2.333 . S
O245 C247 1.214 . S
O246 Cd242 2.352 . S
O246 C249 1.258 . S
C247 O244 1.320 . S
C247 O245 1.214 . S
O248 Cd240 2.277 . S
O248 C243 1.209 . S
C249 O246 1.258 . S
C249 O251 1.282 . S
O250 Cd242 2.277 . S
O250 C243 1.226 . S
O251 Cd242 2.356 . S
O251 C249 1.282 . S
C252 O253 1.306 . S
C252 O255 1.160 . S
O253 C252 1.306 . S
O253 Cd254 2.228 . S
Cd254 O253 2.228 . S
Cd254 O258 2.273 . S
Cd254 O262 2.277 . S
O255 C252 1.160 . S
O255 Cd256 2.203 . S
Cd256 O255 2.203 . S
Cd256 O258 2.411 . S
Cd256 O259 2.333 . S
Cd256 O260 2.352 . S
Cd256 O264 2.277 . S
Cd256 O265 2.356 . S
C257 O262 1.209 . S
C257 O264 1.226 . S
O258 Cd254 2.273 . S
O258 Cd256 2.411 . S
O258 C261 1.320 . S
O259 Cd256 2.333 . S
O259 C261 1.214 . S
O260 Cd256 2.352 . S
O260 C263 1.258 . S
C261 O258 1.320 . S
C261 O259 1.214 . S
O262 Cd254 2.277 . S
O262 C257 1.209 . S
C263 O260 1.258 . S
C263 O265 1.282 . S
O264 Cd256 2.277 . S
O264 C257 1.226 . S
O265 Cd256 2.356 . S
O265 C263 1.282 . S
C266 O267 1.306 . S
C266 O269 1.160 . S
O267 C266 1.306 . S
O267 Cd268 2.228 . S
Cd268 O267 2.228 . S
Cd268 O272 2.273 . S
Cd268 O276 2.277 . S
O269 C266 1.160 . S
O269 Cd270 2.203 . S
Cd270 O269 2.203 . S
Cd270 O272 2.411 . S
Cd270 O273 2.333 . S
Cd270 O274 2.352 . S
Cd270 O278 2.277 . S
Cd270 O279 2.356 . S
C271 O276 1.209 . S
C271 O278 1.226 . S
O272 Cd268 2.273 . S
O272 Cd270 2.411 . S
O272 C275 1.320 . S
O273 Cd270 2.333 . S
O273 C275 1.214 . S
O274 Cd270 2.352 . S
O274 C277 1.258 . S
C275 O272 1.320 . S
C275 O273 1.214 . S
O276 Cd268 2.277 . S
O276 C271 1.209 . S
C277 O274 1.258 . S
C277 O279 1.282 . S
O278 Cd270 2.277 . S
O278 C271 1.226 . S
O279 Cd270 2.356 . S
O279 C277 1.282 . S
C280 O281 1.306 . S
C280 O283 1.160 . S
O281 C280 1.306 . S
O281 Cd282 2.228 . S
Cd282 O281 2.228 . S
Cd282 O286 2.273 . S
Cd282 O290 2.277 . S
O283 C280 1.160 . S
O283 Cd284 2.203 1_545 S
Cd284 O283 2.203 1_565 S
Cd284 O286 2.411 1_565 S
Cd284 O287 2.333 . S
Cd284 O288 2.352 . S
Cd284 O292 2.277 1_565 S
Cd284 O293 2.356 . S
C285 O290 1.209 . S
C285 O292 1.226 . S
O286 Cd282 2.273 . S
O286 Cd284 2.411 1_545 S
O286 C289 1.320 1_545 S
O287 Cd284 2.333 . S
O287 C289 1.214 . S
O288 Cd284 2.352 . S
O288 C291 1.258 . S
C289 O286 1.320 1_565 S
C289 O287 1.214 . S
O290 Cd282 2.277 . S
O290 C285 1.209 . S
C291 O288 1.258 . S
C291 O293 1.282 . S
O292 Cd284 2.277 1_545 S
O292 C285 1.226 . S
O293 Cd284 2.356 . S
O293 C291 1.282 . S
C294 O295 1.306 . S
C294 O297 1.160 . S
O295 C294 1.306 . S
O295 Cd296 2.228 . S
Cd296 O295 2.228 . S
Cd296 O300 2.273 . S
Cd296 O304 2.277 . S
O297 C294 1.160 . S
O297 Cd298 2.203 . S
Cd298 O297 2.203 . S
Cd298 O300 2.411 . S
Cd298 O301 2.333 . S
Cd298 O302 2.352 . S
Cd298 O306 2.277 . S
Cd298 O307 2.356 . S
C299 O304 1.209 . S
C299 O306 1.226 . S
O300 Cd296 2.273 . S
O300 Cd298 2.411 . S
O300 C303 1.320 . S
O301 Cd298 2.333 . S
O301 C303 1.214 . S
O302 Cd298 2.352 . S
O302 C305 1.258 . S
C303 O300 1.320 . S
C303 O301 1.214 . S
O304 Cd296 2.277 . S
O304 C299 1.209 . S
C305 O302 1.258 . S
C305 O307 1.282 . S
O306 Cd298 2.277 . S
O306 C299 1.226 . S
O307 Cd298 2.356 . S
O307 C305 1.282 . S
C308 O309 1.306 . S
C308 O311 1.160 . S
O309 C308 1.306 . S
O309 Cd310 2.228 . S
Cd310 O309 2.228 . S
Cd310 O314 2.273 . S
Cd310 O318 2.277 . S
O311 C308 1.160 . S
O311 Cd312 2.203 . S
Cd312 O311 2.203 . S
Cd312 O314 2.411 . S
Cd312 O315 2.333 . S
Cd312 O316 2.352 . S
Cd312 O320 2.277 . S
Cd312 O321 2.356 . S
C313 O318 1.209 . S
C313 O320 1.226 . S
O314 Cd310 2.273 . S
O314 Cd312 2.411 . S
O314 C317 1.320 . S
O315 Cd312 2.333 . S
O315 C317 1.214 . S
O316 Cd312 2.352 . S
O316 C319 1.258 . S
C317 O314 1.320 . S
C317 O315 1.214 . S
O318 Cd310 2.277 . S
O318 C313 1.209 . S
C319 O316 1.258 . S
C319 O321 1.282 . S
O320 Cd312 2.277 . S
O320 C313 1.226 . S
O321 Cd312 2.356 . S
O321 C319 1.282 . S
C322 O323 1.306 . S
C322 O325 1.160 . S
O323 C322 1.306 . S
O323 Cd324 2.228 . S
Cd324 O323 2.228 . S
Cd324 O328 2.273 . S
Cd324 O332 2.277 . S
O325 C322 1.160 . S
O325 Cd326 2.203 . S
Cd326 O325 2.203 . S
Cd326 O328 2.411 . S
Cd326 O329 2.333 . S
Cd326 O330 2.352 . S
Cd326 O334 2.277 . S
Cd326 O335 2.356 . S
C327 O332 1.209 . S
C327 O334 1.226 . S
O328 Cd324 2.273 . S
O328 Cd326 2.411 . S
O328 C331 1.320 . S
O329 Cd326 2.333 . S
O329 C331 1.214 . S
O330 Cd326 2.352 . S
O330 C333 1.258 . S
C331 O328 1.320 . S
C331 O329 1.214 . S
O332 Cd324 2.277 . S
O332 C327 1.209 . S
C333 O330 1.258 . S
C333 O335 1.282 . S
O334 Cd326 2.277 . S
O334 C327 1.226 . S
O335 Cd326 2.356 . S
O335 C333 1.282 . S
C336 O337 1.306 . S
C336 O339 1.160 . S
O337 C336 1.306 . S
O337 Cd338 2.228 . S
Cd338 O337 2.228 . S
Cd338 O342 2.273 . S
Cd338 O346 2.277 . S
O339 C336 1.160 . S
O339 Cd340 2.203 . S
Cd340 O339 2.203 . S
Cd340 O342 2.411 . S
Cd340 O343 2.333 . S
Cd340 O344 2.352 . S
Cd340 O348 2.277 . S
Cd340 O349 2.356 . S
C341 O346 1.209 . S
C341 O348 1.226 . S
O342 Cd338 2.273 . S
O342 Cd340 2.411 . S
O342 C345 1.320 . S
O343 Cd340 2.333 . S
O343 C345 1.214 . S
O344 Cd340 2.352 . S
O344 C347 1.258 . S
C345 O342 1.320 . S
C345 O343 1.214 . S
O346 Cd338 2.277 . S
O346 C341 1.209 . S
C347 O344 1.258 . S
C347 O349 1.282 . S
O348 Cd340 2.277 . S
O348 C341 1.226 . S
O349 Cd340 2.356 . S
O349 C347 1.282 . S
C350 O351 1.306 . S
C350 O353 1.160 . S
O351 C350 1.306 . S
O351 Cd352 2.228 . S
Cd352 O351 2.228 . S
Cd352 O356 2.273 . S
Cd352 O360 2.277 . S
O353 C350 1.160 . S
O353 Cd354 2.203 . S
Cd354 O353 2.203 . S
Cd354 O356 2.411 . S
Cd354 O357 2.333 . S
Cd354 O358 2.352 . S
Cd354 O362 2.277 . S
Cd354 O363 2.356 . S
C355 O360 1.209 . S
C355 O362 1.226 . S
O356 Cd352 2.273 . S
O356 Cd354 2.411 . S
O356 C359 1.320 . S
O357 Cd354 2.333 . S
O357 C359 1.214 . S
O358 Cd354 2.352 . S
O358 C361 1.258 . S
C359 O356 1.320 . S
C359 O357 1.214 . S
O360 Cd352 2.277 . S
O360 C355 1.209 . S
C361 O358 1.258 . S
C361 O363 1.282 . S
O362 Cd354 2.277 . S
O362 C355 1.226 . S
O363 Cd354 2.356 . S
O363 C361 1.282 . S
C364 O365 1.306 . S
C364 O367 1.160 . S
O365 C364 1.306 . S
O365 Cd366 2.228 . S
Cd366 O365 2.228 . S
Cd366 O370 2.273 . S
Cd366 O374 2.277 . S
O367 C364 1.160 . S
O367 Cd368 2.203 . S
Cd368 O367 2.203 . S
Cd368 O370 2.411 . S
Cd368 O371 2.333 . S
Cd368 O372 2.352 . S
Cd368 O376 2.277 . S
Cd368 O377 2.356 . S
C369 O374 1.209 . S
C369 O376 1.226 . S
O370 Cd366 2.273 . S
O370 Cd368 2.411 . S
O370 C373 1.320 . S
O371 Cd368 2.333 . S
O371 C373 1.214 . S
O372 Cd368 2.352 . S
O372 C375 1.258 . S
C373 O370 1.320 . S
C373 O371 1.214 . S
O374 Cd366 2.277 . S
O374 C369 1.209 . S
C375 O372 1.258 . S
C375 O377 1.282 . S
O376 Cd368 2.277 . S
O376 C369 1.226 . S
O377 Cd368 2.356 . S
O377 C375 1.282 . S
C378 O379 1.306 . S
C378 O381 1.160 . S
O379 C378 1.306 . S
O379 Cd380 2.228 . S
Cd380 O379 2.228 . S
Cd380 O384 2.273 . S
Cd380 O388 2.277 . S
O381 C378 1.160 . S
O381 Cd382 2.203 . S
Cd382 O381 2.203 . S
Cd382 O384 2.411 . S
Cd382 O385 2.333 . S
Cd382 O386 2.352 . S
Cd382 O390 2.277 . S
Cd382 O391 2.356 . S
C383 O388 1.209 . S
C383 O390 1.226 . S
O384 Cd380 2.273 . S
O384 Cd382 2.411 . S
O384 C387 1.320 . S
O385 Cd382 2.333 . S
O385 C387 1.214 . S
O386 Cd382 2.352 . S
O386 C389 1.258 . S
C387 O384 1.320 . S
C387 O385 1.214 . S
O388 Cd380 2.277 . S
O388 C383 1.209 . S
C389 O386 1.258 . S
C389 O391 1.282 . S
O390 Cd382 2.277 . S
O390 C383 1.226 . S
O391 Cd382 2.356 . S
O391 C389 1.282 . S
C392 O393 1.306 . S
C392 O395 1.160 . S
O393 C392 1.306 . S
O393 Cd394 2.228 . S
Cd394 O393 2.228 . S
Cd394 O398 2.273 . S
Cd394 O402 2.277 . S
O395 C392 1.160 . S
O395 Cd396 2.203 . S
Cd396 O395 2.203 . S
Cd396 O398 2.411 . S
Cd396 O399 2.333 . S
Cd396 O400 2.352 . S
Cd396 O404 2.277 . S
Cd396 O405 2.356 . S
C397 O402 1.209 . S
C397 O404 1.226 . S
O398 Cd394 2.273 . S
O398 Cd396 2.411 . S
O398 C401 1.320 . S
O399 Cd396 2.333 . S
O399 C401 1.214 . S
O400 Cd396 2.352 . S
O400 C403 1.258 . S
C401 O398 1.320 . S
C401 O399 1.214 . S
O402 Cd394 2.277 . S
O402 C397 1.209 . S
C403 O400 1.258 . S
C403 O405 1.282 . S
O404 Cd396 2.277 . S
O404 C397 1.226 . S
O405 Cd396 2.356 . S
O405 C403 1.282 . S
C406 O407 1.306 . S
C406 O409 1.160 . S
O407 C406 1.306 . S
O407 Cd408 2.228 . S
Cd408 O407 2.228 . S
Cd408 O412 2.273 . S
Cd408 O416 2.277 . S
O409 C406 1.160 . S
O409 Cd410 2.203 . S
Cd410 O409 2.203 . S
Cd410 O412 2.411 . S
Cd410 O413 2.333 . S
Cd410 O414 2.352 . S
Cd410 O418 2.277 . S
Cd410 O419 2.356 . S
C411 O416 1.209 . S
C411 O418 1.226 . S
O412 Cd408 2.273 . S
O412 Cd410 2.411 . S
O412 C415 1.320 . S
O413 Cd410 2.333 . S
O413 C415 1.214 . S
O414 Cd410 2.352 . S
O414 C417 1.258 . S
C415 O412 1.320 . S
C415 O413 1.214 . S
O416 Cd408 2.277 . S
O416 C411 1.209 . S
C417 O414 1.258 . S
C417 O419 1.282 . S
O418 Cd410 2.277 . S
O418 C411 1.226 . S
O419 Cd410 2.356 . S
O419 C417 1.282 . S
C420 O421 1.306 . S
C420 O423 1.160 . S
O421 C420 1.306 . S
O421 Cd422 2.228 . S
Cd422 O421 2.228 . S
Cd422 O426 2.273 . S
Cd422 O430 2.277 . S
O423 C420 1.160 . S
O423 Cd424 2.203 . S
Cd424 O423 2.203 . S
Cd424 O426 2.411 . S
Cd424 O427 2.333 . S
Cd424 O428 2.352 . S
Cd424 O432 2.277 . S
Cd424 O433 2.356 . S
C425 O430 1.209 . S
C425 O432 1.226 . S
O426 Cd422 2.273 . S
O426 Cd424 2.411 . S
O426 C429 1.320 . S
O427 Cd424 2.333 . S
O427 C429 1.214 . S
O428 Cd424 2.352 . S
O428 C431 1.258 . S
C429 O426 1.320 . S
C429 O427 1.214 . S
O430 Cd422 2.277 . S
O430 C425 1.209 . S
C431 O428 1.258 . S
C431 O433 1.282 . S
O432 Cd424 2.277 . S
O432 C425 1.226 . S
O433 Cd424 2.356 . S
O433 C431 1.282 . S
C434 O435 1.306 . S
C434 O437 1.160 . S
O435 C434 1.306 . S
O435 Cd436 2.228 . S
Cd436 O435 2.228 . S
Cd436 O440 2.273 . S
Cd436 O444 2.277 . S
O437 C434 1.160 . S
O437 Cd438 2.203 . S
Cd438 O437 2.203 . S
Cd438 O440 2.411 . S
Cd438 O441 2.333 . S
Cd438 O442 2.352 . S
Cd438 O446 2.277 . S
Cd438 O447 2.356 . S
C439 O444 1.209 . S
C439 O446 1.226 . S
O440 Cd436 2.273 . S
O440 Cd438 2.411 . S
O440 C443 1.320 . S
O441 Cd438 2.333 . S
O441 C443 1.214 . S
O442 Cd438 2.352 . S
O442 C445 1.258 . S
C443 O440 1.320 . S
C443 O441 1.214 . S
O444 Cd436 2.277 . S
O444 C439 1.209 . S
C445 O442 1.258 . S
C445 O447 1.282 . S
O446 Cd438 2.277 . S
O446 C439 1.226 . S
O447 Cd438 2.356 . S
O447 C445 1.282 . S
C448 O449 1.306 . S
C448 O451 1.160 . S
O449 C448 1.306 . S
O449 Cd450 2.228 . S
Cd450 O449 2.228 . S
Cd450 O454 2.273 . S
Cd450 O458 2.277 . S
O451 C448 1.160 . S
O451 Cd452 2.203 . S
Cd452 O451 2.203 . S
Cd452 O454 2.411 . S
Cd452 O455 2.333 . S
Cd452 O456 2.352 . S
Cd452 O460 2.277 . S
Cd452 O461 2.356 . S
C453 O458 1.209 . S
C453 O460 1.226 . S
O454 Cd450 2.273 . S
O454 Cd452 2.411 . S
O454 C457 1.320 . S
O455 Cd452 2.333 . S
O455 C457 1.214 . S
O456 Cd452 2.352 . S
O456 C459 1.258 . S
C457 O454 1.320 . S
C457 O455 1.214 . S
O458 Cd450 2.277 . S
O458 C453 1.209 . S
C459 O456 1.258 . S
C459 O461 1.282 . S
O460 Cd452 2.277 . S
O460 C453 1.226 . S
O461 Cd452 2.356 . S
O461 C459 1.282 . S
C462 O463 1.306 . S
C462 O465 1.160 . S
O463 C462 1.306 . S
O463 Cd464 2.228 . S
Cd464 O463 2.228 . S
Cd464 O468 2.273 . S
Cd464 O472 2.277 . S
O465 C462 1.160 . S
O465 Cd466 2.203 . S
Cd466 O465 2.203 . S
Cd466 O468 2.411 . S
Cd466 O469 2.333 . S
Cd466 O470 2.352 . S
Cd466 O474 2.277 . S
Cd466 O475 2.356 . S
C467 O472 1.209 . S
C467 O474 1.226 . S
O468 Cd464 2.273 . S
O468 Cd466 2.411 . S
O468 C471 1.320 . S
O469 Cd466 2.333 . S
O469 C471 1.214 . S
O470 Cd466 2.352 . S
O470 C473 1.258 . S
C471 O468 1.320 . S
C471 O469 1.214 . S
O472 Cd464 2.277 . S
O472 C467 1.209 . S
C473 O470 1.258 . S
C473 O475 1.282 . S
O474 Cd466 2.277 . S
O474 C467 1.226 . S
O475 Cd466 2.356 . S
O475 C473 1.282 . S
C476 O477 1.306 . S
C476 O479 1.160 . S
O477 C476 1.306 . S
O477 Cd478 2.228 . S
Cd478 O477 2.228 . S
Cd478 O482 2.273 . S
Cd478 O486 2.277 . S
O479 C476 1.160 . S
O479 Cd480 2.203 . S
Cd480 O479 2.203 . S
Cd480 O482 2.411 . S
Cd480 O483 2.333 . S
Cd480 O484 2.352 . S
Cd480 O488 2.277 . S
Cd480 O489 2.356 . S
C481 O486 1.209 . S
C481 O488 1.226 . S
O482 Cd478 2.273 . S
O482 Cd480 2.411 . S
O482 C485 1.320 . S
O483 Cd480 2.333 . S
O483 C485 1.214 . S
O484 Cd480 2.352 . S
O484 C487 1.258 . S
C485 O482 1.320 . S
C485 O483 1.214 . S
O486 Cd478 2.277 . S
O486 C481 1.209 . S
C487 O484 1.258 . S
C487 O489 1.282 . S
O488 Cd480 2.277 . S
O488 C481 1.226 . S
O489 Cd480 2.356 . S
O489 C487 1.282 . S
C490 O491 1.306 . S
C490 O493 1.160 . S
O491 C490 1.306 . S
O491 Cd492 2.228 . S
Cd492 O491 2.228 . S
Cd492 O496 2.273 . S
Cd492 O500 2.277 . S
O493 C490 1.160 . S
O493 Cd494 2.203 . S
Cd494 O493 2.203 . S
Cd494 O496 2.411 . S
Cd494 O497 2.333 . S
Cd494 O498 2.352 . S
Cd494 O502 2.277 . S
Cd494 O503 2.356 . S
C495 O500 1.209 . S
C495 O502 1.226 . S
O496 Cd492 2.273 . S
O496 Cd494 2.411 . S
O496 C499 1.320 . S
O497 Cd494 2.333 . S
O497 C499 1.214 . S
O498 Cd494 2.352 . S
O498 C501 1.258 . S
C499 O496 1.320 . S
C499 O497 1.214 . S
O500 Cd492 2.277 . S
O500 C495 1.209 . S
C501 O498 1.258 . S
C501 O503 1.282 . S
O502 Cd494 2.277 . S
O502 C495 1.226 . S
O503 Cd494 2.356 . S
O503 C501 1.282 . S
C504 O505 1.306 . S
C504 O507 1.160 . S
O505 C504 1.306 . S
O505 Cd506 2.228 . S
Cd506 O505 2.228 . S
Cd506 O510 2.273 . S
Cd506 O514 2.277 . S
O507 C504 1.160 . S
O507 Cd508 2.203 . S
Cd508 O507 2.203 . S
Cd508 O510 2.411 . S
Cd508 O511 2.333 . S
Cd508 O512 2.352 . S
Cd508 O516 2.277 . S
Cd508 O517 2.356 . S
C509 O514 1.209 . S
C509 O516 1.226 . S
O510 Cd506 2.273 . S
O510 Cd508 2.411 . S
O510 C513 1.320 . S
O511 Cd508 2.333 . S
O511 C513 1.214 . S
O512 Cd508 2.352 . S
O512 C515 1.258 . S
C513 O510 1.320 . S
C513 O511 1.214 . S
O514 Cd506 2.277 . S
O514 C509 1.209 . S
C515 O512 1.258 . S
C515 O517 1.282 . S
O516 Cd508 2.277 . S
O516 C509 1.226 . S
O517 Cd508 2.356 . S
O517 C515 1.282 . S
C518 O519 1.306 . S
C518 O521 1.160 1_554 S
O519 C518 1.306 . S
O519 Cd520 2.228 . S
Cd520 O519 2.228 . S
Cd520 O524 2.273 1_554 S
Cd520 O528 2.277 . S
O521 C518 1.160 1_556 S
O521 Cd522 2.203 . S
Cd522 O521 2.203 . S
Cd522 O524 2.411 . S
Cd522 O525 2.333 . S
Cd522 O526 2.352 . S
Cd522 O530 2.277 . S
Cd522 O531 2.356 . S
C523 O528 1.209 1_556 S
C523 O530 1.226 . S
O524 Cd520 2.273 1_556 S
O524 Cd522 2.411 . S
O524 C527 1.320 . S
O525 Cd522 2.333 . S
O525 C527 1.214 . S
O526 Cd522 2.352 . S
O526 C529 1.258 . S
C527 O524 1.320 . S
C527 O525 1.214 . S
O528 Cd520 2.277 . S
O528 C523 1.209 1_554 S
C529 O526 1.258 . S
C529 O531 1.282 . S
O530 Cd522 2.277 . S
O530 C523 1.226 . S
O531 Cd522 2.356 . S
O531 C529 1.282 . S
C532 O533 1.306 . S
C532 O535 1.160 . S
O533 C532 1.306 . S
O533 Cd534 2.228 . S
Cd534 O533 2.228 . S
Cd534 O538 2.273 . S
Cd534 O542 2.277 . S
O535 C532 1.160 . S
O535 Cd536 2.203 . S
Cd536 O535 2.203 . S
Cd536 O538 2.411 . S
Cd536 O539 2.333 . S
Cd536 O540 2.352 . S
Cd536 O544 2.277 . S
Cd536 O545 2.356 . S
C537 O542 1.209 . S
C537 O544 1.226 . S
O538 Cd534 2.273 . S
O538 Cd536 2.411 . S
O538 C541 1.320 . S
O539 Cd536 2.333 . S
O539 C541 1.214 . S
O540 Cd536 2.352 . S
O540 C543 1.258 . S
C541 O538 1.320 . S
C541 O539 1.214 . S
O542 Cd534 2.277 . S
O542 C537 1.209 . S
C543 O540 1.258 . S
C543 O545 1.282 . S
O544 Cd536 2.277 . S
O544 C537 1.226 . S
O545 Cd536 2.356 . S
O545 C543 1.282 . S
C546 O547 1.306 . S
C546 O549 1.160 . S
O547 C546 1.306 . S
O547 Cd548 2.228 . S
Cd548 O547 2.228 . S
Cd548 O552 2.273 . S
Cd548 O556 2.277 . S
O549 C546 1.160 . S
O549 Cd550 2.203 . S
Cd550 O549 2.203 . S
Cd550 O552 2.411 . S
Cd550 O553 2.333 . S
Cd550 O554 2.352 . S
Cd550 O558 2.277 . S
Cd550 O559 2.356 . S
C551 O556 1.209 . S
C551 O558 1.226 . S
O552 Cd548 2.273 . S
O552 Cd550 2.411 . S
O552 C555 1.320 . S
O553 Cd550 2.333 . S
O553 C555 1.214 . S
O554 Cd550 2.352 . S
O554 C557 1.258 . S
C555 O552 1.320 . S
C555 O553 1.214 . S
O556 Cd548 2.277 . S
O556 C551 1.209 . S
C557 O554 1.258 . S
C557 O559 1.282 . S
O558 Cd550 2.277 . S
O558 C551 1.226 . S
O559 Cd550 2.356 . S
O559 C557 1.282 . S
C560 O561 1.306 . S
C560 O563 1.160 . S
O561 C560 1.306 . S
O561 Cd562 2.228 . S
Cd562 O561 2.228 . S
Cd562 O566 2.273 . S
Cd562 O570 2.277 . S
O563 C560 1.160 . S
O563 Cd564 2.203 . S
Cd564 O563 2.203 . S
Cd564 O566 2.411 . S
Cd564 O567 2.333 . S
Cd564 O568 2.352 . S
Cd564 O572 2.277 . S
Cd564 O573 2.356 . S
C565 O570 1.209 . S
C565 O572 1.226 . S
O566 Cd562 2.273 . S
O566 Cd564 2.411 . S
O566 C569 1.320 . S
O567 Cd564 2.333 . S
O567 C569 1.214 . S
O568 Cd564 2.352 . S
O568 C571 1.258 . S
C569 O566 1.320 . S
C569 O567 1.214 . S
O570 Cd562 2.277 . S
O570 C565 1.209 . S
C571 O568 1.258 . S
C571 O573 1.282 . S
O572 Cd564 2.277 . S
O572 C565 1.226 . S
O573 Cd564 2.356 . S
O573 C571 1.282 . S
C574 O575 1.306 . S
C574 O577 1.160 . S
O575 C574 1.306 . S
O575 Cd576 2.228 . S
Cd576 O575 2.228 . S
Cd576 O580 2.273 . S
Cd576 O584 2.277 . S
O577 C574 1.160 . S
O577 Cd578 2.203 . S
Cd578 O577 2.203 . S
Cd578 O580 2.411 . S
Cd578 O581 2.333 . S
Cd578 O582 2.352 . S
Cd578 O586 2.277 . S
Cd578 O587 2.356 . S
C579 O584 1.209 . S
C579 O586 1.226 . S
O580 Cd576 2.273 . S
O580 Cd578 2.411 . S
O580 C583 1.320 . S
O581 Cd578 2.333 . S
O581 C583 1.214 . S
O582 Cd578 2.352 . S
O582 C585 1.258 . S
C583 O580 1.320 . S
C583 O581 1.214 . S
O584 Cd576 2.277 . S
O584 C579 1.209 . S
C585 O582 1.258 . S
C585 O587 1.282 . S
O586 Cd578 2.277 . S
O586 C579 1.226 . S
O587 Cd578 2.356 . S
O587 C585 1.282 . S
C588 O589 1.306 . S
C588 O591 1.160 . S
O589 C588 1.306 . S
O589 Cd590 2.228 . S
Cd590 O589 2.228 . S
Cd590 O594 2.273 . S
Cd590 O598 2.277 . S
O591 C588 1.160 . S
O591 Cd592 2.203 . S
Cd592 O591 2.203 . S
Cd592 O594 2.411 . S
Cd592 O595 2.333 . S
Cd592 O596 2.352 . S
Cd592 O600 2.277 . S
Cd592 O601 2.356 . S
C593 O598 1.209 . S
C593 O600 1.226 . S
O594 Cd590 2.273 . S
O594 Cd592 2.411 . S
O594 C597 1.320 . S
O595 Cd592 2.333 . S
O595 C597 1.214 . S
O596 Cd592 2.352 . S
O596 C599 1.258 . S
C597 O594 1.320 . S
C597 O595 1.214 . S
O598 Cd590 2.277 . S
O598 C593 1.209 . S
C599 O596 1.258 . S
C599 O601 1.282 . S
O600 Cd592 2.277 . S
O600 C593 1.226 . S
O601 Cd592 2.356 . S
O601 C599 1.282 . S
C602 O603 1.306 . S
C602 O605 1.160 . S
O603 C602 1.306 . S
O603 Cd604 2.228 . S
Cd604 O603 2.228 . S
Cd604 O608 2.273 . S
Cd604 O612 2.277 . S
O605 C602 1.160 . S
O605 Cd606 2.203 . S
Cd606 O605 2.203 . S
Cd606 O608 2.411 . S
Cd606 O609 2.333 . S
Cd606 O610 2.352 . S
Cd606 O614 2.277 . S
Cd606 O615 2.356 . S
C607 O612 1.209 . S
C607 O614 1.226 . S
O608 Cd604 2.273 . S
O608 Cd606 2.411 . S
O608 C611 1.320 . S
O609 Cd606 2.333 . S
O609 C611 1.214 . S
O610 Cd606 2.352 . S
O610 C613 1.258 . S
C611 O608 1.320 . S
C611 O609 1.214 . S
O612 Cd604 2.277 . S
O612 C607 1.209 . S
C613 O610 1.258 . S
C613 O615 1.282 . S
O614 Cd606 2.277 . S
O614 C607 1.226 . S
O615 Cd606 2.356 . S
O615 C613 1.282 . S
C616 O617 1.306 . S
C616 O619 1.160 . S
O617 C616 1.306 . S
O617 Cd618 2.228 . S
Cd618 O617 2.228 . S
Cd618 O622 2.273 . S
Cd618 O626 2.277 . S
O619 C616 1.160 . S
O619 Cd620 2.203 . S
Cd620 O619 2.203 . S
Cd620 O622 2.411 . S
Cd620 O623 2.333 . S
Cd620 O624 2.352 . S
Cd620 O628 2.277 . S
Cd620 O629 2.356 . S
C621 O626 1.209 . S
C621 O628 1.226 . S
O622 Cd618 2.273 . S
O622 Cd620 2.411 . S
O622 C625 1.320 . S
O623 Cd620 2.333 . S
O623 C625 1.214 . S
O624 Cd620 2.352 . S
O624 C627 1.258 . S
C625 O622 1.320 . S
C625 O623 1.214 . S
O626 Cd618 2.277 . S
O626 C621 1.209 . S
C627 O624 1.258 . S
C627 O629 1.282 . S
O628 Cd620 2.277 . S
O628 C621 1.226 . S
O629 Cd620 2.356 . S
O629 C627 1.282 . S
C630 O631 1.306 . S
C630 O633 1.160 . S
O631 C630 1.306 . S
O631 Cd632 2.236 . S
Cd632 O631 2.236 . S
Cd632 O636 2.255 1_554 S
Cd632 O640 2.292 . S
O633 C630 1.160 . S
O633 Cd634 2.204 . S
Cd634 O633 2.204 . S
Cd634 O636 2.410 1_554 S
Cd634 O637 2.331 1_554 S
Cd634 O638 2.350 1_554 S
Cd634 O642 2.278 . S
Cd634 O643 2.356 1_554 S
C635 O640 1.209 . S
C635 O642 1.226 . S
O636 Cd632 2.255 1_556 S
O636 Cd634 2.410 1_556 S
O636 C639 1.320 . S
O637 Cd634 2.331 1_556 S
O637 C639 1.214 . S
O638 Cd634 2.350 1_556 S
O638 C641 1.258 . S
C639 O636 1.320 . S
C639 O637 1.214 . S
O640 Cd632 2.292 . S
O640 C635 1.209 . S
C641 O638 1.258 . S
C641 O643 1.282 . S
O642 Cd634 2.278 . S
O642 C635 1.226 . S
O643 Cd634 2.356 1_556 S
O643 C641 1.282 . S
C644 O645 1.306 . S
C644 O647 1.160 1_545 S
O645 C644 1.306 . S
O645 Cd646 2.228 . S
Cd646 O645 2.228 . S
Cd646 O650 2.273 1_545 S
Cd646 O654 2.277 . S
O647 C644 1.160 1_565 S
O647 Cd648 2.203 . S
Cd648 O647 2.203 . S
Cd648 O650 2.411 . S
Cd648 O651 2.333 . S
Cd648 O652 2.352 . S
Cd648 O656 2.277 . S
Cd648 O657 2.356 . S
C649 O654 1.209 1_565 S
C649 O656 1.226 . S
O650 Cd646 2.273 1_565 S
O650 Cd648 2.411 . S
O650 C653 1.320 . S
O651 Cd648 2.333 . S
O651 C653 1.214 . S
O652 Cd648 2.352 . S
O652 C655 1.258 . S
C653 O650 1.320 . S
C653 O651 1.214 . S
O654 Cd646 2.277 . S
O654 C649 1.209 1_545 S
C655 O652 1.258 . S
C655 O657 1.282 . S
O656 Cd648 2.277 . S
O656 C649 1.226 . S
O657 Cd648 2.356 . S
O657 C655 1.282 . S
C658 O659 1.306 . S
C658 O661 1.160 . S
O659 C658 1.306 . S
O659 Cd660 2.228 . S
Cd660 O659 2.228 . S
Cd660 O664 2.273 . S
Cd660 O668 2.277 . S
O661 C658 1.160 . S
O661 Cd662 2.203 . S
Cd662 O661 2.203 . S
Cd662 O664 2.411 . S
Cd662 O665 2.333 . S
Cd662 O666 2.352 . S
Cd662 O670 2.277 . S
Cd662 O671 2.356 . S
C663 O668 1.209 . S
C663 O670 1.226 . S
O664 Cd660 2.273 . S
O664 Cd662 2.411 . S
O664 C667 1.320 . S
O665 Cd662 2.333 . S
O665 C667 1.214 . S
O666 Cd662 2.352 . S
O666 C669 1.258 . S
C667 O664 1.320 . S
C667 O665 1.214 . S
O668 Cd660 2.277 . S
O668 C663 1.209 . S
C669 O666 1.258 . S
C669 O671 1.282 . S
O670 Cd662 2.277 . S
O670 C663 1.226 . S
O671 Cd662 2.356 . S
O671 C669 1.282 . S
C672 C673 1.369 . S
C672 C674 1.419 . S
C672 H676 0.930 . S
C673 C672 1.369 . S
C673 C682 1.429 . S
C674 C672 1.419 . S
C674 C675 1.363 . S
C674 H677 0.929 . S
C675 C674 1.363 . S
C675 C681 1.428 . S
H676 C672 0.930 . S
H677 C674 0.929 . S
S678 N679 1.613 . S
S678 N680 1.610 . S
N679 S678 1.613 . S
N679 C682 1.350 . S
N680 S678 1.610 . S
N680 C681 1.351 . S
C681 C675 1.428 . S
C681 N680 1.351 . S
C681 C682 1.434 . S
C682 C673 1.429 . S
C682 N679 1.350 . S
C682 C681 1.434 . S
C683 C684 1.369 . S
C683 C685 1.419 . S
C683 H687 0.930 . S
C684 C683 1.369 . S
C684 C693 1.429 . S
C685 C683 1.419 . S
C685 C686 1.363 . S
C685 H688 0.929 . S
C686 C685 1.363 . S
C686 C692 1.428 . S
H687 C683 0.930 . S
H688 C685 0.929 . S
S689 N690 1.613 . S
S689 N691 1.610 . S
N690 S689 1.613 . S
N690 C693 1.350 . S
N691 S689 1.610 . S
N691 C692 1.351 . S
C692 C686 1.428 . S
C692 N691 1.351 . S
C692 C693 1.434 . S
C693 C684 1.429 . S
C693 N690 1.350 . S
C693 C692 1.434 . S
C694 C695 1.369 . S
C694 C696 1.419 . S
C694 H698 0.930 . S
C695 C694 1.369 . S
C695 C704 1.429 . S
C696 C694 1.419 . S
C696 C697 1.363 . S
C696 H699 0.929 . S
C697 C696 1.363 . S
C697 C703 1.428 . S
H698 C694 0.930 . S
H699 C696 0.929 . S
S700 N701 1.613 . S
S700 N702 1.610 . S
N701 S700 1.613 . S
N701 C704 1.350 . S
N702 S700 1.610 . S
N702 C703 1.351 . S
C703 C697 1.428 . S
C703 N702 1.351 . S
C703 C704 1.434 . S
C704 C695 1.429 . S
C704 N701 1.350 . S
C704 C703 1.434 . S
C705 C706 1.369 1_554 S
C705 C707 1.419 . S
C705 H709 0.930 . S
C706 C705 1.369 1_556 S
C706 C715 1.429 . S
C707 C705 1.419 . S
C707 C708 1.363 . S
C707 H710 0.929 . S
C708 C707 1.363 . S
C708 C714 1.428 1_554 S
H709 C705 0.930 . S
H710 C707 0.929 . S
S711 N712 1.613 . S
S711 N713 1.610 . S
N712 S711 1.613 . S
N712 C715 1.350 . S
N713 S711 1.610 . S
N713 C714 1.351 . S
C714 C708 1.428 1_556 S
C714 N713 1.351 . S
C714 C715 1.434 . S
C715 C706 1.429 . S
C715 N712 1.350 . S
C715 C714 1.434 . S
C716 C717 1.369 . S
C716 C718 1.419 . S
C716 H720 0.930 . S
C717 C716 1.369 . S
C717 C726 1.429 . S
C718 C716 1.419 . S
C718 C719 1.363 . S
C718 H721 0.929 . S
C719 C718 1.363 . S
C719 C725 1.428 . S
H720 C716 0.930 . S
H721 C718 0.929 . S
S722 N723 1.613 . S
S722 N724 1.610 . S
N723 S722 1.613 . S
N723 C726 1.350 . S
N724 S722 1.610 . S
N724 C725 1.351 . S
C725 C719 1.428 . S
C725 N724 1.351 . S
C725 C726 1.434 . S
C726 C717 1.429 . S
C726 N723 1.350 . S
C726 C725 1.434 . S
C727 C728 1.369 . S
C727 C729 1.419 . S
C727 H731 0.930 . S
C728 C727 1.369 . S
C728 C737 1.429 . S
C729 C727 1.419 . S
C729 C730 1.363 . S
C729 H732 0.929 . S
C730 C729 1.363 . S
C730 C736 1.428 . S
H731 C727 0.930 . S
H732 C729 0.929 . S
S733 N734 1.613 . S
S733 N735 1.610 . S
N734 S733 1.613 . S
N734 C737 1.350 . S
N735 S733 1.610 . S
N735 C736 1.351 . S
C736 C730 1.428 . S
C736 N735 1.351 . S
C736 C737 1.434 . S
C737 C728 1.429 . S
C737 N734 1.350 . S
C737 C736 1.434 . S
C738 C739 1.369 . S
C738 C740 1.419 . S
C738 H742 0.930 . S
C739 C738 1.369 . S
C739 C748 1.429 . S
C740 C738 1.419 . S
C740 C741 1.363 . S
C740 H743 0.929 . S
C741 C740 1.363 . S
C741 C747 1.428 . S
H742 C738 0.930 . S
H743 C740 0.929 . S
S744 N745 1.613 . S
S744 N746 1.610 . S
N745 S744 1.613 . S
N745 C748 1.350 . S
N746 S744 1.610 . S
N746 C747 1.351 . S
C747 C741 1.428 . S
C747 N746 1.351 . S
C747 C748 1.434 . S
C748 C739 1.429 . S
C748 N745 1.350 . S
C748 C747 1.434 . S
C749 C750 1.369 . S
C749 C751 1.419 . S
C749 H753 0.930 . S
C750 C749 1.369 . S
C750 C759 1.429 . S
C751 C749 1.419 . S
C751 C752 1.363 . S
C751 H754 0.929 . S
C752 C751 1.363 . S
C752 C758 1.428 . S
H753 C749 0.930 . S
H754 C751 0.929 . S
S755 N756 1.613 . S
S755 N757 1.610 . S
N756 S755 1.613 . S
N756 C759 1.350 . S
N757 S755 1.610 . S
N757 C758 1.351 . S
C758 C752 1.428 . S
C758 N757 1.351 . S
C758 C759 1.434 . S
C759 C750 1.429 . S
C759 N756 1.350 . S
C759 C758 1.434 . S
C760 C761 1.369 . S
C760 C762 1.419 . S
C760 H764 0.930 . S
C761 C760 1.369 . S
C761 C770 1.429 . S
C762 C760 1.419 . S
C762 C763 1.363 . S
C762 H765 0.929 . S
C763 C762 1.363 . S
C763 C769 1.428 . S
H764 C760 0.930 . S
H765 C762 0.929 . S
S766 N767 1.613 . S
S766 N768 1.610 . S
N767 S766 1.613 . S
N767 C770 1.350 . S
N768 S766 1.610 . S
N768 C769 1.351 . S
C769 C763 1.428 . S
C769 N768 1.351 . S
C769 C770 1.434 . S
C770 C761 1.429 . S
C770 N767 1.350 . S
C770 C769 1.434 . S
C771 C772 1.369 1_565 S
C771 C773 1.419 . S
C771 H775 0.930 . S
C772 C771 1.369 1_545 S
C772 C781 1.429 . S
C773 C771 1.419 . S
C773 C774 1.363 . S
C773 H776 0.929 . S
C774 C773 1.363 . S
C774 C780 1.428 1_565 S
H775 C771 0.930 . S
H776 C773 0.929 . S
S777 N778 1.613 . S
S777 N779 1.610 . S
N778 S777 1.613 . S
N778 C781 1.350 . S
N779 S777 1.610 . S
N779 C780 1.351 . S
C780 C774 1.428 1_545 S
C780 N779 1.351 . S
C780 C781 1.434 . S
C781 C772 1.429 . S
C781 N778 1.350 . S
C781 C780 1.434 . S
C782 C783 1.369 . S
C782 C784 1.419 . S
C782 H786 0.930 . S
C783 C782 1.369 . S
C783 C792 1.429 . S
C784 C782 1.419 . S
C784 C785 1.363 . S
C784 H787 0.929 . S
C785 C784 1.363 . S
C785 C791 1.428 . S
H786 C782 0.930 . S
H787 C784 0.929 . S
S788 N789 1.613 . S
S788 N790 1.610 . S
N789 S788 1.613 . S
N789 C792 1.350 . S
N790 S788 1.610 . S
N790 C791 1.351 . S
C791 C785 1.428 . S
C791 N790 1.351 . S
C791 C792 1.434 . S
C792 C783 1.429 . S
C792 N789 1.350 . S
C792 C791 1.434 . S
C793 C794 1.369 . S
C793 C795 1.419 . S
C793 H797 0.930 . S
C794 C793 1.369 . S
C794 C803 1.429 . S
C795 C793 1.419 . S
C795 C796 1.363 . S
C795 H798 0.929 . S
C796 C795 1.363 . S
C796 C802 1.428 . S
H797 C793 0.930 . S
H798 C795 0.929 . S
S799 N800 1.613 . S
S799 N801 1.610 . S
N800 S799 1.613 . S
N800 C803 1.350 . S
N801 S799 1.610 . S
N801 C802 1.351 . S
C802 C796 1.428 . S
C802 N801 1.351 . S
C802 C803 1.434 . S
C803 C794 1.429 . S
C803 N800 1.350 . S
C803 C802 1.434 . S
C804 C805 1.369 . S
C804 C806 1.419 . S
C804 H808 0.930 . S
C805 C804 1.369 . S
C805 C814 1.429 . S
C806 C804 1.419 . S
C806 C807 1.363 . S
C806 H809 0.929 . S
C807 C806 1.363 . S
C807 C813 1.428 . S
H808 C804 0.930 . S
H809 C806 0.929 . S
S810 N811 1.613 . S
S810 N812 1.610 . S
N811 S810 1.613 . S
N811 C814 1.350 . S
N812 S810 1.610 . S
N812 C813 1.351 . S
C813 C807 1.428 . S
C813 N812 1.351 . S
C813 C814 1.434 . S
C814 C805 1.429 . S
C814 N811 1.350 . S
C814 C813 1.434 . S
C815 C816 1.369 . S
C815 C817 1.419 . S
C815 H819 0.930 . S
C816 C815 1.369 . S
C816 C825 1.429 . S
C817 C815 1.419 . S
C817 C818 1.363 . S
C817 H820 0.929 . S
C818 C817 1.363 . S
C818 C824 1.428 . S
H819 C815 0.930 . S
H820 C817 0.929 . S
S821 N822 1.613 . S
S821 N823 1.610 . S
N822 S821 1.613 . S
N822 C825 1.350 . S
N823 S821 1.610 . S
N823 C824 1.351 . S
C824 C818 1.428 . S
C824 N823 1.351 . S
C824 C825 1.434 . S
C825 C816 1.429 . S
C825 N822 1.350 . S
C825 C824 1.434 . S
C826 C827 1.369 . S
C826 C828 1.419 . S
C826 H830 0.930 . S
C827 C826 1.369 . S
C827 C836 1.429 1_655 S
C828 C826 1.419 . S
C828 C829 1.363 1_655 S
C828 H831 0.929 . S
C829 C828 1.363 1_455 S
C829 C835 1.428 . S
H830 C826 0.930 . S
H831 C828 0.929 . S
S832 N833 1.613 . S
S832 N834 1.610 . S
N833 S832 1.613 . S
N833 C836 1.350 . S
N834 S832 1.610 . S
N834 C835 1.351 . S
C835 C829 1.428 . S
C835 N834 1.351 . S
C835 C836 1.434 . S
C836 C827 1.429 1_455 S
C836 N833 1.350 . S
C836 C835 1.434 . S
C837 C838 1.369 . S
C837 C839 1.419 . S
C837 H841 0.930 . S
C838 C837 1.369 . S
C838 C847 1.429 . S
C839 C837 1.419 . S
C839 C840 1.363 . S
C839 H842 0.929 . S
C840 C839 1.363 . S
C840 C846 1.428 . S
H841 C837 0.930 . S
H842 C839 0.929 . S
S843 N844 1.613 . S
S843 N845 1.610 . S
N844 S843 1.613 . S
N844 C847 1.350 . S
N845 S843 1.610 . S
N845 C846 1.351 . S
C846 C840 1.428 . S
C846 N845 1.351 . S
C846 C847 1.434 . S
C847 C838 1.429 . S
C847 N844 1.350 . S
C847 C846 1.434 . S
C848 C849 1.369 . S
C848 C850 1.419 . S
C848 H852 0.930 . S
C849 C848 1.369 . S
C849 C858 1.429 . S
C850 C848 1.419 . S
C850 C851 1.363 . S
C850 H853 0.929 . S
C851 C850 1.363 . S
C851 C857 1.428 . S
H852 C848 0.930 . S
H853 C850 0.929 . S
S854 N855 1.613 . S
S854 N856 1.610 . S
N855 S854 1.613 . S
N855 C858 1.350 . S
N856 S854 1.610 . S
N856 C857 1.351 . S
C857 C851 1.428 . S
C857 N856 1.351 . S
C857 C858 1.434 . S
C858 C849 1.429 . S
C858 N855 1.350 . S
C858 C857 1.434 . S
C859 C860 1.369 . S
C859 C861 1.419 . S
C859 H863 0.930 . S
C860 C859 1.369 . S
C860 C869 1.429 . S
C861 C859 1.419 . S
C861 C862 1.363 . S
C861 H864 0.929 . S
C862 C861 1.363 . S
C862 C868 1.428 . S
H863 C859 0.930 . S
H864 C861 0.929 . S
S865 N866 1.613 . S
S865 N867 1.610 . S
N866 S865 1.613 . S
N866 C869 1.350 . S
N867 S865 1.610 . S
N867 C868 1.351 . S
C868 C862 1.428 . S
C868 N867 1.351 . S
C868 C869 1.434 . S
C869 C860 1.429 . S
C869 N866 1.350 . S
C869 C868 1.434 . S
C870 C871 1.369 . S
C870 C872 1.419 . S
C870 H874 0.930 . S
C871 C870 1.369 . S
C871 C880 1.429 . S
C872 C870 1.419 . S
C872 C873 1.363 . S
C872 H875 0.929 . S
C873 C872 1.363 . S
C873 C879 1.428 . S
H874 C870 0.930 . S
H875 C872 0.929 . S
S876 N877 1.613 . S
S876 N878 1.610 . S
N877 S876 1.613 . S
N877 C880 1.350 . S
N878 S876 1.610 . S
N878 C879 1.351 . S
C879 C873 1.428 . S
C879 N878 1.351 . S
C879 C880 1.434 . S
C880 C871 1.429 . S
C880 N877 1.350 . S
C880 C879 1.434 . S
C881 C882 1.369 . S
C881 C883 1.419 . S
C881 H885 0.930 . S
C882 C881 1.369 . S
C882 C891 1.429 . S
C883 C881 1.419 . S
C883 C884 1.363 . S
C883 H886 0.929 . S
C884 C883 1.363 . S
C884 C890 1.428 . S
H885 C881 0.930 . S
H886 C883 0.929 . S
S887 N888 1.613 . S
S887 N889 1.610 . S
N888 S887 1.613 . S
N888 C891 1.350 . S
N889 S887 1.610 . S
N889 C890 1.351 . S
C890 C884 1.428 . S
C890 N889 1.351 . S
C890 C891 1.434 . S
C891 C882 1.429 . S
C891 N888 1.350 . S
C891 C890 1.434 . S
C892 C893 1.369 . S
C892 C894 1.419 . S
C892 H896 0.930 . S
C893 C892 1.369 . S
C893 C902 1.429 . S
C894 C892 1.419 . S
C894 C895 1.363 . S
C894 H897 0.929 . S
C895 C894 1.363 . S
C895 C901 1.428 . S
H896 C892 0.930 . S
H897 C894 0.929 . S
S898 N899 1.613 . S
S898 N900 1.610 . S
N899 S898 1.613 . S
N899 C902 1.350 . S
N900 S898 1.610 . S
N900 C901 1.351 . S
C901 C895 1.428 . S
C901 N900 1.351 . S
C901 C902 1.434 . S
C902 C893 1.429 . S
C902 N899 1.350 . S
C902 C901 1.434 . S
C903 C904 1.369 . S
C903 C905 1.419 . S
C903 H907 0.930 . S
C904 C903 1.369 . S
C904 C913 1.429 . S
C905 C903 1.419 . S
C905 C906 1.363 . S
C905 H908 0.929 . S
C906 C905 1.363 . S
C906 C912 1.428 . S
H907 C903 0.930 . S
H908 C905 0.929 . S
S909 N910 1.613 . S
S909 N911 1.610 . S
N910 S909 1.613 . S
N910 C913 1.350 . S
N911 S909 1.610 . S
N911 C912 1.351 . S
C912 C906 1.428 . S
C912 N911 1.351 . S
C912 C913 1.434 . S
C913 C904 1.429 . S
C913 N910 1.350 . S
C913 C912 1.434 . S
C914 C915 1.369 . S
C914 C916 1.419 . S
C914 H918 0.930 . S
C915 C914 1.369 . S
C915 C924 1.429 . S
C916 C914 1.419 . S
C916 C917 1.363 . S
C916 H919 0.929 . S
C917 C916 1.363 . S
C917 C923 1.428 . S
H918 C914 0.930 . S
H919 C916 0.929 . S
S920 N921 1.613 . S
S920 N922 1.610 . S
N921 S920 1.613 . S
N921 C924 1.350 . S
N922 S920 1.610 . S
N922 C923 1.351 . S
C923 C917 1.428 . S
C923 N922 1.351 . S
C923 C924 1.434 . S
C924 C915 1.429 . S
C924 N921 1.350 . S
C924 C923 1.434 . S
C925 C926 1.369 . S
C925 C927 1.419 . S
C925 H929 0.930 . S
C926 C925 1.369 . S
C926 C935 1.429 . S
C927 C925 1.419 . S
C927 C928 1.363 . S
C927 H930 0.929 . S
C928 C927 1.363 . S
C928 C934 1.428 . S
H929 C925 0.930 . S
H930 C927 0.929 . S
S931 N932 1.613 . S
S931 N933 1.610 . S
N932 S931 1.613 . S
N932 C935 1.350 . S
N933 S931 1.610 . S
N933 C934 1.351 . S
C934 C928 1.428 . S
C934 N933 1.351 . S
C934 C935 1.434 . S
C935 C926 1.429 . S
C935 N932 1.350 . S
C935 C934 1.434 . S
C936 C937 1.369 . S
C936 C938 1.419 . S
C936 H940 0.930 . S
C937 C936 1.369 . S
C937 C946 1.429 . S
C938 C936 1.419 . S
C938 C939 1.363 . S
C938 H941 0.929 1_655 S
C939 C938 1.363 . S
C939 C945 1.428 . S
H940 C936 0.930 . S
H941 C938 0.929 1_455 S
S942 N943 1.613 . S
S942 N944 1.610 . S
N943 S942 1.613 . S
N943 C946 1.350 . S
N944 S942 1.610 . S
N944 C945 1.351 . S
C945 C939 1.428 . S
C945 N944 1.351 . S
C945 C946 1.434 . S
C946 C937 1.429 . S
C946 N943 1.350 . S
C946 C945 1.434 . S
C947 C948 1.369 . S
C947 C949 1.419 . S
C947 H951 0.930 . S
C948 C947 1.369 . S
C948 C957 1.429 . S
C949 C947 1.419 . S
C949 C950 1.363 . S
C949 H952 0.929 . S
C950 C949 1.363 . S
C950 C956 1.428 . S
H951 C947 0.930 . S
H952 C949 0.929 . S
S953 N954 1.613 . S
S953 N955 1.610 . S
N954 S953 1.613 . S
N954 C957 1.350 . S
N955 S953 1.610 . S
N955 C956 1.351 . S
C956 C950 1.428 . S
C956 N955 1.351 . S
C956 C957 1.434 . S
C957 C948 1.429 . S
C957 N954 1.350 . S
C957 C956 1.434 . S
C958 C959 1.369 . S
C958 C960 1.419 . S
C958 H962 0.930 . S
C959 C958 1.369 . S
C959 C968 1.429 . S
C960 C958 1.419 . S
C960 C961 1.363 . S
C960 H963 0.929 . S
C961 C960 1.363 . S
C961 C967 1.428 . S
H962 C958 0.930 . S
H963 C960 0.929 . S
S964 N965 1.613 . S
S964 N966 1.610 . S
N965 S964 1.613 . S
N965 C968 1.350 . S
N966 S964 1.610 . S
N966 C967 1.351 . S
C967 C961 1.428 . S
C967 N966 1.351 . S
C967 C968 1.434 . S
C968 C959 1.429 . S
C968 N965 1.350 . S
C968 C967 1.434 . S
C969 C970 1.369 . S
C969 C971 1.419 . S
C969 H973 0.930 . S
C970 C969 1.369 . S
C970 C979 1.429 . S
C971 C969 1.419 . S
C971 C972 1.363 . S
C971 H974 0.929 . S
C972 C971 1.363 . S
C972 C978 1.428 . S
H973 C969 0.930 . S
H974 C971 0.929 . S
S975 N976 1.613 . S
S975 N977 1.610 . S
N976 S975 1.613 . S
N976 C979 1.350 . S
N977 S975 1.610 . S
N977 C978 1.351 . S
C978 C972 1.428 . S
C978 N977 1.351 . S
C978 C979 1.434 . S
C979 C970 1.429 . S
C979 N976 1.350 . S
C979 C978 1.434 . S
C980 C981 1.369 1_545 S
C980 C982 1.419 1_545 S
C980 H984 0.930 . S
C981 C980 1.369 1_565 S
C981 C990 1.429 . S
C982 C980 1.419 1_565 S
C982 C983 1.363 . S
C982 H985 0.929 1_565 S
C983 C982 1.363 . S
C983 C989 1.428 . S
H984 C980 0.930 . S
H985 C982 0.929 1_545 S
S986 N987 1.613 . S
S986 N988 1.610 . S
N987 S986 1.613 . S
N987 C990 1.350 . S
N988 S986 1.610 . S
N988 C989 1.351 . S
C989 C983 1.428 . S
C989 N988 1.351 . S
C989 C990 1.434 . S
C990 C981 1.429 . S
C990 N987 1.350 . S
C990 C989 1.434 . S
C991 C992 1.369 . S
C991 C993 1.419 . S
C991 H995 0.930 . S
C992 C991 1.369 . S
C992 C1001 1.429 . S
C993 C991 1.419 . S
C993 C994 1.363 . S
C993 H996 0.929 . S
C994 C993 1.363 . S
C994 C1000 1.428 . S
H995 C991 0.930 . S
H996 C993 0.929 . S
S997 N998 1.613 . S
S997 N999 1.610 . S
N998 S997 1.613 . S
N998 C1001 1.350 . S
N999 S997 1.610 . S
N999 C1000 1.351 . S
C1000 C994 1.428 . S
C1000 N999 1.351 . S
C1000 C1001 1.434 . S
C1001 C992 1.429 . S
C1001 N998 1.350 . S
C1001 C1000 1.434 . S
C1002 C1003 1.369 . S
C1002 C1004 1.419 . S
C1002 H1006 0.930 . S
C1003 C1002 1.369 . S
C1003 C1012 1.429 . S
C1004 C1002 1.419 . S
C1004 C1005 1.363 . S
C1004 H1007 0.929 . S
C1005 C1004 1.363 . S
C1005 C1011 1.428 . S
H1006 C1002 0.930 . S
H1007 C1004 0.929 . S
S1008 N1009 1.613 . S
S1008 N1010 1.610 . S
N1009 S1008 1.613 . S
N1009 C1012 1.350 . S
N1010 S1008 1.610 . S
N1010 C1011 1.351 . S
C1011 C1005 1.428 . S
C1011 N1010 1.351 . S
C1011 C1012 1.434 . S
C1012 C1003 1.429 . S
C1012 N1009 1.350 . S
C1012 C1011 1.434 . S
C1013 C1014 1.369 . S
C1013 C1015 1.419 . S
C1013 H1017 0.930 . S
C1014 C1013 1.369 . S
C1014 C1023 1.429 . S
C1015 C1013 1.419 . S
C1015 C1016 1.363 . S
C1015 H1018 0.929 . S
C1016 C1015 1.363 . S
C1016 C1022 1.428 . S
H1017 C1013 0.930 . S
H1018 C1015 0.929 . S
S1019 N1020 1.613 . S
S1019 N1021 1.610 . S
N1020 S1019 1.613 . S
N1020 C1023 1.350 . S
N1021 S1019 1.610 . S
N1021 C1022 1.351 . S
C1022 C1016 1.428 . S
C1022 N1021 1.351 . S
C1022 C1023 1.434 . S
C1023 C1014 1.429 . S
C1023 N1020 1.350 . S
C1023 C1022 1.434 . S
C1024 C1025 1.369 . S
C1024 C1026 1.419 . S
C1024 H1028 0.930 . S
C1025 C1024 1.369 . S
C1025 C1034 1.429 . S
C1026 C1024 1.419 . S
C1026 C1027 1.363 . S
C1026 H1029 0.929 . S
C1027 C1026 1.363 . S
C1027 C1033 1.428 . S
H1028 C1024 0.930 . S
H1029 C1026 0.929 . S
S1030 N1031 1.613 . S
S1030 N1032 1.610 . S
N1031 S1030 1.613 . S
N1031 C1034 1.350 . S
N1032 S1030 1.610 . S
N1032 C1033 1.351 . S
C1033 C1027 1.428 . S
C1033 N1032 1.351 . S
C1033 C1034 1.434 . S
C1034 C1025 1.429 . S
C1034 N1031 1.350 . S
C1034 C1033 1.434 . S
C1035 C1036 1.369 . S
C1035 C1037 1.419 . S
C1035 H1039 0.930 . S
C1036 C1035 1.369 . S
C1036 C1045 1.429 . S
C1037 C1035 1.419 . S
C1037 C1038 1.363 . S
C1037 H1040 0.929 . S
C1038 C1037 1.363 . S
C1038 C1044 1.428 . S
H1039 C1035 0.930 . S
H1040 C1037 0.929 . S
S1041 N1042 1.613 . S
S1041 N1043 1.610 . S
N1042 S1041 1.613 . S
N1042 C1045 1.350 . S
N1043 S1041 1.610 . S
N1043 C1044 1.351 . S
C1044 C1038 1.428 . S
C1044 N1043 1.351 . S
C1044 C1045 1.434 . S
C1045 C1036 1.429 . S
C1045 N1042 1.350 . S
C1045 C1044 1.434 . S
C1046 C1047 1.369 . S
C1046 C1048 1.419 . S
C1046 H1050 0.930 . S
C1047 C1046 1.369 . S
C1047 C1056 1.429 . S
C1048 C1046 1.419 . S
C1048 C1049 1.363 . S
C1048 H1051 0.929 . S
C1049 C1048 1.363 . S
C1049 C1055 1.428 . S
H1050 C1046 0.930 . S
H1051 C1048 0.929 . S
S1052 N1053 1.613 . S
S1052 N1054 1.610 . S
N1053 S1052 1.613 . S
N1053 C1056 1.350 . S
N1054 S1052 1.610 . S
N1054 C1055 1.351 . S
C1055 C1049 1.428 . S
C1055 N1054 1.351 . S
C1055 C1056 1.434 . S
C1056 C1047 1.429 . S
C1056 N1053 1.350 . S
C1056 C1055 1.434 . S
C1057 C1058 1.369 . S
C1057 C1059 1.419 . S
C1057 H1061 0.930 . S
C1058 C1057 1.369 . S
C1058 C1067 1.429 . S
C1059 C1057 1.419 . S
C1059 C1060 1.363 . S
C1059 H1062 0.929 . S
C1060 C1059 1.363 . S
C1060 C1066 1.428 . S
H1061 C1057 0.930 . S
H1062 C1059 0.929 . S
S1063 N1064 1.613 . S
S1063 N1065 1.610 . S
N1064 S1063 1.613 . S
N1064 C1067 1.350 1_554 S
N1065 S1063 1.610 . S
N1065 C1066 1.351 1_554 S
C1066 C1060 1.428 . S
C1066 N1065 1.351 1_556 S
C1066 C1067 1.434 . S
C1067 C1058 1.429 . S
C1067 N1064 1.350 1_556 S
C1067 C1066 1.434 . S
C1068 C1069 1.369 . S
C1068 C1070 1.419 . S
C1068 H1072 0.930 . S
C1069 C1068 1.369 . S
C1069 C1078 1.429 . S
C1070 C1068 1.419 . S
C1070 C1071 1.363 . S
C1070 H1073 0.929 . S
C1071 C1070 1.363 . S
C1071 C1077 1.428 . S
H1072 C1068 0.930 . S
H1073 C1070 0.929 . S
S1074 N1075 1.613 . S
S1074 N1076 1.610 . S
N1075 S1074 1.613 . S
N1075 C1078 1.350 . S
N1076 S1074 1.610 . S
N1076 C1077 1.351 . S
C1077 C1071 1.428 . S
C1077 N1076 1.351 . S
C1077 C1078 1.434 . S
C1078 C1069 1.429 . S
C1078 N1075 1.350 . S
C1078 C1077 1.434 . S
C1079 C1080 1.369 . S
C1079 C1081 1.419 . S
C1079 H1083 0.930 . S
C1080 C1079 1.369 . S
C1080 C1089 1.429 . S
C1081 C1079 1.419 . S
C1081 C1082 1.363 . S
C1081 H1084 0.929 . S
C1082 C1081 1.363 . S
C1082 C1088 1.428 . S
H1083 C1079 0.930 . S
H1084 C1081 0.929 . S
S1085 N1086 1.613 . S
S1085 N1087 1.610 . S
N1086 S1085 1.613 . S
N1086 C1089 1.350 . S
N1087 S1085 1.610 . S
N1087 C1088 1.351 . S
C1088 C1082 1.428 . S
C1088 N1087 1.351 . S
C1088 C1089 1.434 . S
C1089 C1080 1.429 . S
C1089 N1086 1.350 . S
C1089 C1088 1.434 . S
C1090 C1091 1.369 . S
C1090 C1092 1.419 . S
C1090 H1094 0.930 . S
C1091 C1090 1.369 . S
C1091 C1100 1.429 . S
C1092 C1090 1.419 . S
C1092 C1093 1.363 . S
C1092 H1095 0.929 . S
C1093 C1092 1.363 . S
C1093 C1099 1.428 . S
H1094 C1090 0.930 . S
H1095 C1092 0.929 . S
S1096 N1097 1.613 . S
S1096 N1098 1.610 . S
N1097 S1096 1.613 . S
N1097 C1100 1.350 . S
N1098 S1096 1.610 . S
N1098 C1099 1.351 . S
C1099 C1093 1.428 . S
C1099 N1098 1.351 . S
C1099 C1100 1.434 . S
C1100 C1091 1.429 . S
C1100 N1097 1.350 . S
C1100 C1099 1.434 . S
C1101 C1102 1.369 . S
C1101 C1103 1.419 . S
C1101 H1105 0.930 . S
C1102 C1101 1.369 . S
C1102 C1111 1.429 . S
C1103 C1101 1.419 . S
C1103 C1104 1.363 . S
C1103 H1106 0.929 . S
C1104 C1103 1.363 . S
C1104 C1110 1.428 . S
H1105 C1101 0.930 . S
H1106 C1103 0.929 . S
S1107 N1108 1.613 . S
S1107 N1109 1.610 . S
N1108 S1107 1.613 . S
N1108 C1111 1.350 . S
N1109 S1107 1.610 . S
N1109 C1110 1.351 . S
C1110 C1104 1.428 . S
C1110 N1109 1.351 . S
C1110 C1111 1.434 . S
C1111 C1102 1.429 . S
C1111 N1108 1.350 . S
C1111 C1110 1.434 . S
C1112 C1113 1.369 . S
C1112 C1114 1.419 . S
C1112 H1116 0.930 . S
C1113 C1112 1.369 . S
C1113 C1122 1.429 . S
C1114 C1112 1.419 . S
C1114 C1115 1.363 . S
C1114 H1117 0.929 . S
C1115 C1114 1.363 . S
C1115 C1121 1.428 . S
H1116 C1112 0.930 . S
H1117 C1114 0.929 . S
S1118 N1119 1.613 . S
S1118 N1120 1.610 . S
N1119 S1118 1.613 . S
N1119 C1122 1.350 . S
N1120 S1118 1.610 . S
N1120 C1121 1.351 . S
C1121 C1115 1.428 . S
C1121 N1120 1.351 . S
C1121 C1122 1.434 . S
C1122 C1113 1.429 . S
C1122 N1119 1.350 . S
C1122 C1121 1.434 . S
C1123 C1124 1.369 . S
C1123 C1125 1.419 . S
C1123 H1127 0.930 . S
C1124 C1123 1.369 . S
C1124 C1133 1.429 . S
C1125 C1123 1.419 . S
C1125 C1126 1.363 . S
C1125 H1128 0.929 . S
C1126 C1125 1.363 . S
C1126 C1132 1.428 . S
H1127 C1123 0.930 . S
H1128 C1125 0.929 . S
S1129 N1130 1.613 . S
S1129 N1131 1.610 . S
N1130 S1129 1.613 . S
N1130 C1133 1.350 . S
N1131 S1129 1.610 . S
N1131 C1132 1.351 . S
C1132 C1126 1.428 . S
C1132 N1131 1.351 . S
C1132 C1133 1.434 . S
C1133 C1124 1.429 . S
C1133 N1130 1.350 . S
C1133 C1132 1.434 . S
C1134 C1135 1.369 . S
C1134 C1136 1.419 . S
C1134 H1138 0.930 . S
C1135 C1134 1.369 . S
C1135 C1144 1.429 . S
C1136 C1134 1.419 . S
C1136 C1137 1.363 . S
C1136 H1139 0.929 . S
C1137 C1136 1.363 . S
C1137 C1143 1.428 . S
H1138 C1134 0.930 . S
H1139 C1136 0.929 . S
S1140 N1141 1.613 . S
S1140 N1142 1.610 . S
N1141 S1140 1.613 . S
N1141 C1144 1.350 . S
N1142 S1140 1.610 . S
N1142 C1143 1.351 . S
C1143 C1137 1.428 . S
C1143 N1142 1.351 . S
C1143 C1144 1.434 . S
C1144 C1135 1.429 . S
C1144 N1141 1.350 . S
C1144 C1143 1.434 . S
C1145 C1146 1.369 . S
C1145 C1147 1.419 . S
C1145 H1149 0.930 . S
C1146 C1145 1.369 . S
C1146 C1155 1.429 . S
C1147 C1145 1.419 . S
C1147 C1148 1.363 . S
C1147 H1150 0.929 . S
C1148 C1147 1.363 . S
C1148 C1154 1.428 . S
H1149 C1145 0.930 . S
H1150 C1147 0.929 . S
S1151 N1152 1.613 . S
S1151 N1153 1.610 . S
N1152 S1151 1.613 . S
N1152 C1155 1.350 . S
N1153 S1151 1.610 . S
N1153 C1154 1.351 . S
C1154 C1148 1.428 . S
C1154 N1153 1.351 . S
C1154 C1155 1.434 . S
C1155 C1146 1.429 . S
C1155 N1152 1.350 . S
C1155 C1154 1.434 . S
C1156 C1157 1.369 . S
C1156 C1158 1.419 . S
C1156 H1160 0.930 . S
C1157 C1156 1.369 . S
C1157 C1166 1.429 . S
C1158 C1156 1.419 . S
C1158 C1159 1.363 . S
C1158 H1161 0.929 . S
C1159 C1158 1.363 . S
C1159 C1165 1.428 . S
H1160 C1156 0.930 . S
H1161 C1158 0.929 . S
S1162 N1163 1.613 . S
S1162 N1164 1.610 . S
N1163 S1162 1.613 . S
N1163 C1166 1.350 . S
N1164 S1162 1.610 . S
N1164 C1165 1.351 . S
C1165 C1159 1.428 . S
C1165 N1164 1.351 . S
C1165 C1166 1.434 . S
C1166 C1157 1.429 . S
C1166 N1163 1.350 . S
C1166 C1165 1.434 . S
C1167 C1168 1.369 . S
C1167 C1169 1.419 . S
C1167 H1171 0.930 . S
C1168 C1167 1.369 . S
C1168 C1177 1.429 . S
C1169 C1167 1.419 . S
C1169 C1170 1.363 . S
C1169 H1172 0.929 . S
C1170 C1169 1.363 . S
C1170 C1176 1.428 . S
H1171 C1167 0.930 . S
H1172 C1169 0.929 . S
S1173 N1174 1.613 . S
S1173 N1175 1.610 . S
N1174 S1173 1.613 . S
N1174 C1177 1.350 . S
N1175 S1173 1.610 . S
N1175 C1176 1.351 . S
C1176 C1170 1.428 . S
C1176 N1175 1.351 . S
C1176 C1177 1.434 . S
C1177 C1168 1.429 . S
C1177 N1174 1.350 . S
C1177 C1176 1.434 . S
C1178 C1179 1.369 . S
C1178 C1180 1.419 . S
C1178 H1182 0.930 . S
C1179 C1178 1.369 . S
C1179 C1188 1.429 . S
C1180 C1178 1.419 . S
C1180 C1181 1.363 . S
C1180 H1183 0.929 . S
C1181 C1180 1.363 . S
C1181 C1187 1.428 . S
H1182 C1178 0.930 . S
H1183 C1180 0.929 . S
S1184 N1185 1.613 . S
S1184 N1186 1.610 . S
N1185 S1184 1.613 . S
N1185 C1188 1.350 . S
N1186 S1184 1.610 . S
N1186 C1187 1.351 . S
C1187 C1181 1.428 . S
C1187 N1186 1.351 . S
C1187 C1188 1.434 . S
C1188 C1179 1.429 . S
C1188 N1185 1.350 . S
C1188 C1187 1.434 . S
C1189 C1190 1.369 . S
C1189 C1191 1.419 . S
C1189 H1193 0.930 . S
C1190 C1189 1.369 . S
C1190 C1199 1.429 . S
C1191 C1189 1.419 . S
C1191 C1192 1.363 . S
C1191 H1194 0.929 . S
C1192 C1191 1.363 . S
C1192 C1198 1.428 . S
H1193 C1189 0.930 . S
H1194 C1191 0.929 . S
S1195 N1196 1.613 . S
S1195 N1197 1.610 . S
N1196 S1195 1.613 . S
N1196 C1199 1.350 . S
N1197 S1195 1.610 . S
N1197 C1198 1.351 . S
C1198 C1192 1.428 . S
C1198 N1197 1.351 . S
C1198 C1199 1.434 . S
C1199 C1190 1.429 . S
C1199 N1196 1.350 . S
C1199 C1198 1.434 . S
C1200 C1201 1.369 . S
C1200 C1202 1.419 . S
C1200 H1204 0.930 . S
C1201 C1200 1.369 . S
C1201 C1210 1.429 . S
C1202 C1200 1.419 . S
C1202 C1203 1.363 . S
C1202 H1205 0.929 . S
C1203 C1202 1.363 . S
C1203 C1209 1.428 . S
H1204 C1200 0.930 . S
H1205 C1202 0.929 . S
S1206 N1207 1.613 . S
S1206 N1208 1.610 . S
N1207 S1206 1.613 . S
N1207 C1210 1.350 . S
N1208 S1206 1.610 . S
N1208 C1209 1.351 . S
C1209 C1203 1.428 . S
C1209 N1208 1.351 . S
C1209 C1210 1.434 . S
C1210 C1201 1.429 . S
C1210 N1207 1.350 . S
C1210 C1209 1.434 . S
C1211 C1212 1.369 . S
C1211 C1213 1.419 . S
C1211 H1215 0.930 . S
C1212 C1211 1.369 . S
C1212 C1221 1.429 . S
C1213 C1211 1.419 . S
C1213 C1214 1.363 . S
C1213 H1216 0.929 1_455 S
C1214 C1213 1.363 . S
C1214 C1220 1.428 . S
H1215 C1211 0.930 . S
H1216 C1213 0.929 1_655 S
S1217 N1218 1.613 . S
S1217 N1219 1.610 . S
N1218 S1217 1.613 . S
N1218 C1221 1.350 . S
N1219 S1217 1.610 . S
N1219 C1220 1.351 . S
C1220 C1214 1.428 . S
C1220 N1219 1.351 . S
C1220 C1221 1.434 . S
C1221 C1212 1.429 . S
C1221 N1218 1.350 . S
C1221 C1220 1.434 . S
C1222 C1223 1.369 . S
C1222 C1224 1.419 . S
C1222 H1226 0.930 . S
C1223 C1222 1.369 . S
C1223 C1232 1.429 . S
C1224 C1222 1.419 . S
C1224 C1225 1.363 . S
C1224 H1227 0.929 . S
C1225 C1224 1.363 . S
C1225 C1231 1.428 . S
H1226 C1222 0.930 . S
H1227 C1224 0.929 . S
S1228 N1229 1.613 . S
S1228 N1230 1.610 . S
N1229 S1228 1.613 . S
N1229 C1232 1.350 . S
N1230 S1228 1.610 . S
N1230 C1231 1.351 . S
C1231 C1225 1.428 . S
C1231 N1230 1.351 . S
C1231 C1232 1.434 . S
C1232 C1223 1.429 . S
C1232 N1229 1.350 . S
C1232 C1231 1.434 . S
C1233 C1234 1.369 . S
C1233 C1235 1.419 . S
C1233 H1237 0.930 . S
C1234 C1233 1.369 . S
C1234 C1243 1.429 . S
C1235 C1233 1.419 . S
C1235 C1236 1.363 . S
C1235 H1238 0.929 . S
C1236 C1235 1.363 . S
C1236 C1242 1.428 . S
H1237 C1233 0.930 . S
H1238 C1235 0.929 . S
S1239 N1240 1.613 . S
S1239 N1241 1.610 . S
N1240 S1239 1.613 . S
N1240 C1243 1.350 . S
N1241 S1239 1.610 . S
N1241 C1242 1.351 . S
C1242 C1236 1.428 . S
C1242 N1241 1.351 . S
C1242 C1243 1.434 . S
C1243 C1234 1.429 . S
C1243 N1240 1.350 . S
C1243 C1242 1.434 . S
C1244 C1245 1.369 . S
C1244 C1246 1.419 . S
C1244 H1248 0.930 . S
C1245 C1244 1.369 . S
C1245 C1254 1.429 . S
C1246 C1244 1.419 . S
C1246 C1247 1.363 . S
C1246 H1249 0.929 . S
C1247 C1246 1.363 . S
C1247 C1253 1.428 . S
H1248 C1244 0.930 . S
H1249 C1246 0.929 . S
S1250 N1251 1.613 . S
S1250 N1252 1.610 . S
N1251 S1250 1.613 . S
N1251 C1254 1.350 . S
N1252 S1250 1.610 . S
N1252 C1253 1.351 . S
C1253 C1247 1.428 . S
C1253 N1252 1.351 . S
C1253 C1254 1.434 . S
C1254 C1245 1.429 . S
C1254 N1251 1.350 . S
C1254 C1253 1.434 . S
C1255 C1256 1.369 . S
C1255 C1257 1.419 . S
C1255 H1259 0.930 . S
C1256 C1255 1.369 . S
C1256 C1265 1.429 . S
C1257 C1255 1.419 . S
C1257 C1258 1.363 . S
C1257 H1260 0.929 . S
C1258 C1257 1.363 . S
C1258 C1264 1.428 . S
H1259 C1255 0.930 . S
H1260 C1257 0.929 . S
S1261 N1262 1.613 . S
S1261 N1263 1.610 . S
N1262 S1261 1.613 . S
N1262 C1265 1.350 . S
N1263 S1261 1.610 . S
N1263 C1264 1.351 . S
C1264 C1258 1.428 . S
C1264 N1263 1.351 . S
C1264 C1265 1.434 . S
C1265 C1256 1.429 . S
C1265 N1262 1.350 . S
C1265 C1264 1.434 . S
C1266 C1267 1.369 . S
C1266 C1268 1.419 . S
C1266 H1270 0.930 . S
C1267 C1266 1.369 . S
C1267 C1276 1.429 . S
C1268 C1266 1.419 . S
C1268 C1269 1.363 . S
C1268 H1271 0.929 . S
C1269 C1268 1.363 . S
C1269 C1275 1.428 . S
H1270 C1266 0.930 . S
H1271 C1268 0.929 . S
S1272 N1273 1.613 . S
S1272 N1274 1.610 . S
N1273 S1272 1.613 . S
N1273 C1276 1.350 . S
N1274 S1272 1.610 . S
N1274 C1275 1.351 . S
C1275 C1269 1.428 . S
C1275 N1274 1.351 . S
C1275 C1276 1.434 . S
C1276 C1267 1.429 . S
C1276 N1273 1.350 . S
C1276 C1275 1.434 . S
C1277 C1278 1.369 . S
C1277 C1279 1.419 . S
C1277 H1281 0.930 . S
C1278 C1277 1.369 . S
C1278 C1287 1.429 . S
C1279 C1277 1.419 . S
C1279 C1280 1.363 . S
C1279 H1282 0.929 . S
C1280 C1279 1.363 . S
C1280 C1286 1.428 . S
H1281 C1277 0.930 . S
H1282 C1279 0.929 . S
S1283 N1284 1.613 . S
S1283 N1285 1.610 . S
N1284 S1283 1.613 . S
N1284 C1287 1.350 . S
N1285 S1283 1.610 . S
N1285 C1286 1.351 . S
C1286 C1280 1.428 . S
C1286 N1285 1.351 . S
C1286 C1287 1.434 . S
C1287 C1278 1.429 . S
C1287 N1284 1.350 . S
C1287 C1286 1.434 . S
C1288 C1289 1.369 . S
C1288 C1290 1.419 . S
C1288 H1292 0.930 . S
C1289 C1288 1.369 . S
C1289 C1298 1.429 . S
C1290 C1288 1.419 . S
C1290 C1291 1.363 . S
C1290 H1293 0.929 . S
C1291 C1290 1.363 . S
C1291 C1297 1.428 . S
H1292 C1288 0.930 . S
H1293 C1290 0.929 . S
S1294 N1295 1.613 . S
S1294 N1296 1.610 . S
N1295 S1294 1.613 . S
N1295 C1298 1.350 . S
N1296 S1294 1.610 . S
N1296 C1297 1.351 . S
C1297 C1291 1.428 . S
C1297 N1296 1.351 . S
C1297 C1298 1.434 . S
C1298 C1289 1.429 . S
C1298 N1295 1.350 . S
C1298 C1297 1.434 . S
C1299 C1300 1.369 . S
C1299 C1301 1.419 . S
C1299 H1303 0.930 . S
C1300 C1299 1.369 . S
C1300 C1309 1.429 . S
C1301 C1299 1.419 . S
C1301 C1302 1.363 . S
C1301 H1304 0.929 . S
C1302 C1301 1.363 . S
C1302 C1308 1.428 . S
H1303 C1299 0.930 . S
H1304 C1301 0.929 . S
S1305 N1306 1.613 . S
S1305 N1307 1.610 . S
N1306 S1305 1.613 . S
N1306 C1309 1.350 . S
N1307 S1305 1.610 . S
N1307 C1308 1.351 . S
C1308 C1302 1.428 . S
C1308 N1307 1.351 . S
C1308 C1309 1.434 . S
C1309 C1300 1.429 . S
C1309 N1306 1.350 . S
C1309 C1308 1.434 . S
C1310 C1311 1.369 . S
C1310 C1312 1.419 . S
C1310 H1314 0.930 . S
C1311 C1310 1.369 . S
C1311 C1320 1.429 . S
C1312 C1310 1.419 . S
C1312 C1313 1.363 . S
C1312 H1315 0.929 . S
C1313 C1312 1.363 . S
C1313 C1319 1.428 . S
H1314 C1310 0.930 . S
H1315 C1312 0.929 . S
S1316 N1317 1.613 . S
S1316 N1318 1.610 . S
N1317 S1316 1.613 . S
N1317 C1320 1.350 . S
N1318 S1316 1.610 . S
N1318 C1319 1.351 . S
C1319 C1313 1.428 . S
C1319 N1318 1.351 . S
C1319 C1320 1.434 . S
C1320 C1311 1.429 . S
C1320 N1317 1.350 . S
C1320 C1319 1.434 . S
C1321 C1322 1.369 . S
C1321 C1323 1.419 . S
C1321 H1325 0.930 . S
C1322 C1321 1.369 . S
C1322 C1331 1.429 . S
C1323 C1321 1.419 . S
C1323 C1324 1.363 . S
C1323 H1326 0.929 . S
C1324 C1323 1.363 . S
C1324 C1330 1.428 . S
H1325 C1321 0.930 . S
H1326 C1323 0.929 . S
S1327 N1328 1.613 . S
S1327 N1329 1.610 . S
N1328 S1327 1.613 . S
N1328 C1331 1.350 . S
N1329 S1327 1.610 . S
N1329 C1330 1.351 . S
C1330 C1324 1.428 . S
C1330 N1329 1.351 . S
C1330 C1331 1.434 . S
C1331 C1322 1.429 . S
C1331 N1328 1.350 . S
C1331 C1330 1.434 . S
C1332 C1333 1.369 . S
C1332 C1334 1.419 . S
C1332 H1336 0.930 . S
C1333 C1332 1.369 . S
C1333 C1342 1.429 . S
C1334 C1332 1.419 . S
C1334 C1335 1.363 . S
C1334 H1337 0.929 . S
C1335 C1334 1.363 . S
C1335 C1341 1.428 . S
H1336 C1332 0.930 . S
H1337 C1334 0.929 . S
S1338 N1339 1.613 . S
S1338 N1340 1.610 . S
N1339 S1338 1.613 . S
N1339 C1342 1.350 . S
N1340 S1338 1.610 . S
N1340 C1341 1.351 . S
C1341 C1335 1.428 . S
C1341 N1340 1.351 . S
C1341 C1342 1.434 . S
C1342 C1333 1.429 . S
C1342 N1339 1.350 . S
C1342 C1341 1.434 . S
C1343 C1344 1.369 . S
C1343 C1345 1.419 . S
C1343 H1347 0.930 . S
C1344 C1343 1.369 . S
C1344 C1353 1.429 . S
C1345 C1343 1.419 . S
C1345 C1346 1.363 . S
C1345 H1348 0.929 . S
C1346 C1345 1.363 . S
C1346 C1352 1.428 . S
H1347 C1343 0.930 . S
H1348 C1345 0.929 . S
S1349 N1350 1.613 . S
S1349 N1351 1.610 . S
N1350 S1349 1.613 . S
N1350 C1353 1.350 . S
N1351 S1349 1.610 . S
N1351 C1352 1.351 . S
C1352 C1346 1.428 . S
C1352 N1351 1.351 . S
C1352 C1353 1.434 . S
C1353 C1344 1.429 . S
C1353 N1350 1.350 . S
C1353 C1352 1.434 . S
C1354 C1355 1.369 . S
C1354 C1356 1.419 . S
C1354 H1358 0.930 . S
C1355 C1354 1.369 . S
C1355 C1364 1.429 . S
C1356 C1354 1.419 . S
C1356 C1357 1.363 . S
C1356 H1359 0.929 . S
C1357 C1356 1.363 . S
C1357 C1363 1.428 . S
H1358 C1354 0.930 . S
H1359 C1356 0.929 . S
S1360 N1361 1.613 . S
S1360 N1362 1.610 . S
N1361 S1360 1.613 . S
N1361 C1364 1.350 . S
N1362 S1360 1.610 . S
N1362 C1363 1.351 . S
C1363 C1357 1.428 . S
C1363 N1362 1.351 . S
C1363 C1364 1.434 . S
C1364 C1355 1.429 . S
C1364 N1361 1.350 . S
C1364 C1363 1.434 . S
C1365 C1366 1.369 . S
C1365 C1367 1.419 . S
C1365 H1369 0.930 . S
C1366 C1365 1.369 . S
C1366 C1375 1.429 . S
C1367 C1365 1.419 . S
C1367 C1368 1.363 . S
C1367 H1370 0.929 . S
C1368 C1367 1.363 . S
C1368 C1374 1.428 . S
H1369 C1365 0.930 . S
H1370 C1367 0.929 . S
S1371 N1372 1.613 . S
S1371 N1373 1.610 . S
N1372 S1371 1.613 . S
N1372 C1375 1.350 . S
N1373 S1371 1.610 . S
N1373 C1374 1.351 . S
C1374 C1368 1.428 . S
C1374 N1373 1.351 . S
C1374 C1375 1.434 . S
C1375 C1366 1.429 . S
C1375 N1372 1.350 . S
C1375 C1374 1.434 . S
C1376 C1377 1.369 . S
C1376 C1378 1.419 . S
C1376 H1380 0.930 . S
C1377 C1376 1.369 . S
C1377 C1386 1.429 . S
C1378 C1376 1.419 . S
C1378 C1379 1.363 . S
C1378 H1381 0.929 . S
C1379 C1378 1.363 . S
C1379 C1385 1.428 . S
H1380 C1376 0.930 . S
H1381 C1378 0.929 . S
S1382 N1383 1.613 . S
S1382 N1384 1.610 1_556 S
N1383 S1382 1.613 . S
N1383 C1386 1.350 1_556 S
N1384 S1382 1.610 1_554 S
N1384 C1385 1.351 . S
C1385 C1379 1.428 . S
C1385 N1384 1.351 . S
C1385 C1386 1.434 . S
C1386 C1377 1.429 . S
C1386 N1383 1.350 1_554 S
C1386 C1385 1.434 . S
C1387 C1388 1.369 . S
C1387 C1389 1.419 . S
C1387 H1391 0.930 . S
C1388 C1387 1.369 . S
C1388 C1397 1.429 . S
C1389 C1387 1.419 . S
C1389 C1390 1.363 . S
C1389 H1392 0.929 . S
C1390 C1389 1.363 . S
C1390 C1396 1.428 . S
H1391 C1387 0.930 . S
H1392 C1389 0.929 . S
S1393 N1394 1.613 . S
S1393 N1395 1.610 . S
N1394 S1393 1.613 . S
N1394 C1397 1.350 . S
N1395 S1393 1.610 . S
N1395 C1396 1.351 . S
C1396 C1390 1.428 . S
C1396 N1395 1.351 . S
C1396 C1397 1.434 . S
C1397 C1388 1.429 . S
C1397 N1394 1.350 . S
C1397 C1396 1.434 . S
C1398 C1399 1.369 . S
C1398 C1400 1.419 . S
C1398 H1402 0.930 . S
C1399 C1398 1.369 . S
C1399 C1408 1.429 . S
C1400 C1398 1.419 . S
C1400 C1401 1.363 . S
C1400 H1403 0.929 . S
C1401 C1400 1.363 . S
C1401 C1407 1.428 . S
H1402 C1398 0.930 . S
H1403 C1400 0.929 . S
S1404 N1405 1.613 . S
S1404 N1406 1.610 . S
N1405 S1404 1.613 . S
N1405 C1408 1.350 . S
N1406 S1404 1.610 . S
N1406 C1407 1.351 . S
C1407 C1401 1.428 . S
C1407 N1406 1.351 . S
C1407 C1408 1.434 . S
C1408 C1399 1.429 . S
C1408 N1405 1.350 . S
C1408 C1407 1.434 . S
C1409 C1410 1.369 . S
C1409 C1411 1.419 . S
C1409 H1413 0.930 . S
C1410 C1409 1.369 . S
C1410 C1419 1.429 . S
C1411 C1409 1.419 . S
C1411 C1412 1.363 . S
C1411 H1414 0.929 . S
C1412 C1411 1.363 . S
C1412 C1418 1.428 . S
H1413 C1409 0.930 . S
H1414 C1411 0.929 . S
S1415 N1416 1.613 . S
S1415 N1417 1.610 . S
N1416 S1415 1.613 . S
N1416 C1419 1.350 . S
N1417 S1415 1.610 . S
N1417 C1418 1.351 . S
C1418 C1412 1.428 . S
C1418 N1417 1.351 . S
C1418 C1419 1.434 . S
C1419 C1410 1.429 . S
C1419 N1416 1.350 . S
C1419 C1418 1.434 . S
C1420 C1421 1.369 . S
C1420 C1422 1.419 . S
C1420 H1424 0.930 . S
C1421 C1420 1.369 . S
C1421 C1430 1.429 . S
C1422 C1420 1.419 . S
C1422 C1423 1.363 . S
C1422 H1425 0.929 . S
C1423 C1422 1.363 . S
C1423 C1429 1.428 . S
H1424 C1420 0.930 . S
H1425 C1422 0.929 . S
S1426 N1427 1.613 . S
S1426 N1428 1.610 . S
N1427 S1426 1.613 . S
N1427 C1430 1.350 . S
N1428 S1426 1.610 . S
N1428 C1429 1.351 . S
C1429 C1423 1.428 . S
C1429 N1428 1.351 . S
C1429 C1430 1.434 . S
C1430 C1421 1.429 . S
C1430 N1427 1.350 . S
C1430 C1429 1.434 . S
C1431 C1432 1.369 . S
C1431 C1433 1.419 . S
C1431 H1435 0.930 . S
C1432 C1431 1.369 . S
C1432 C1441 1.429 . S
C1433 C1431 1.419 . S
C1433 C1434 1.363 . S
C1433 H1436 0.929 . S
C1434 C1433 1.363 . S
C1434 C1440 1.428 . S
H1435 C1431 0.930 . S
H1436 C1433 0.929 . S
S1437 N1438 1.613 . S
S1437 N1439 1.610 . S
N1438 S1437 1.613 . S
N1438 C1441 1.350 . S
N1439 S1437 1.610 . S
N1439 C1440 1.351 . S
C1440 C1434 1.428 . S
C1440 N1439 1.351 . S
C1440 C1441 1.434 . S
C1441 C1432 1.429 . S
C1441 N1438 1.350 . S
C1441 C1440 1.434 . S
C1442 C1443 1.369 . S
C1442 C1444 1.419 . S
C1442 H1446 0.930 . S
C1443 C1442 1.369 . S
C1443 C1452 1.429 . S
C1444 C1442 1.419 . S
C1444 C1445 1.363 . S
C1444 H1447 0.929 . S
C1445 C1444 1.363 . S
C1445 C1451 1.428 . S
H1446 C1442 0.930 . S
H1447 C1444 0.929 . S
S1448 N1449 1.613 . S
S1448 N1450 1.610 . S
N1449 S1448 1.613 . S
N1449 C1452 1.350 . S
N1450 S1448 1.610 . S
N1450 C1451 1.351 . S
C1451 C1445 1.428 . S
C1451 N1450 1.351 . S
C1451 C1452 1.434 . S
C1452 C1443 1.429 . S
C1452 N1449 1.350 . S
C1452 C1451 1.434 . S
C1453 C1454 1.369 . S
C1453 C1455 1.419 . S
C1453 H1457 0.930 . S
C1454 C1453 1.369 . S
C1454 C1463 1.429 . S
C1455 C1453 1.419 . S
C1455 C1456 1.363 . S
C1455 H1458 0.929 . S
C1456 C1455 1.363 . S
C1456 C1462 1.428 . S
H1457 C1453 0.930 . S
H1458 C1455 0.929 . S
S1459 N1460 1.613 . S
S1459 N1461 1.610 . S
N1460 S1459 1.613 . S
N1460 C1463 1.350 . S
N1461 S1459 1.610 . S
N1461 C1462 1.351 . S
C1462 C1456 1.428 . S
C1462 N1461 1.351 . S
C1462 C1463 1.434 . S
C1463 C1454 1.429 . S
C1463 N1460 1.350 . S
C1463 C1462 1.434 . S
C1464 C1465 1.369 . S
C1464 C1466 1.419 . S
C1464 H1468 0.930 . S
C1465 C1464 1.369 . S
C1465 C1474 1.398 1_655 S
C1466 C1464 1.419 . S
C1466 C1467 1.363 . S
C1466 H1469 0.929 . S
C1467 C1466 1.363 . S
C1467 C1473 1.403 1_655 S
H1468 C1464 0.930 . S
H1469 C1466 0.929 . S
S1470 N1471 1.613 . S
S1470 N1472 1.610 . S
N1471 S1470 1.613 . S
N1471 C1474 1.382 . S
N1472 S1470 1.610 . S
N1472 C1473 1.378 . S
C1473 C1467 1.403 1_455 S
C1473 N1472 1.378 . S
C1473 C1474 1.434 . S
C1474 C1465 1.398 1_455 S
C1474 N1471 1.382 . S
C1474 C1473 1.434 . S
C1475 C1476 1.369 . S
C1475 C1477 1.419 . S
C1475 H1479 0.930 . S
C1476 C1475 1.369 . S
C1476 C1485 1.429 . S
C1477 C1475 1.419 . S
C1477 C1478 1.363 . S
C1477 H1480 0.929 . S
C1478 C1477 1.363 . S
C1478 C1484 1.428 . S
H1479 C1475 0.930 . S
H1480 C1477 0.929 . S
S1481 N1482 1.613 . S
S1481 N1483 1.610 . S
N1482 S1481 1.613 . S
N1482 C1485 1.350 . S
N1483 S1481 1.610 . S
N1483 C1484 1.351 . S
C1484 C1478 1.428 . S
C1484 N1483 1.351 . S
C1484 C1485 1.434 . S
C1485 C1476 1.429 . S
C1485 N1482 1.350 . S
C1485 C1484 1.434 . S
C1486 C1487 1.369 . S
C1486 C1488 1.419 . S
C1486 H1490 0.930 . S
C1487 C1486 1.369 . S
C1487 C1496 1.429 . S
C1488 C1486 1.419 . S
C1488 C1489 1.363 . S
C1488 H1491 0.929 . S
C1489 C1488 1.363 . S
C1489 C1495 1.428 . S
H1490 C1486 0.930 . S
H1491 C1488 0.929 . S
S1492 N1493 1.613 . S
S1492 N1494 1.610 . S
N1493 S1492 1.613 . S
N1493 C1496 1.350 . S
N1494 S1492 1.610 . S
N1494 C1495 1.351 . S
C1495 C1489 1.428 . S
C1495 N1494 1.351 . S
C1495 C1496 1.434 . S
C1496 C1487 1.429 . S
C1496 N1493 1.350 . S
C1496 C1495 1.434 . S
C1497 C1498 1.369 . S
C1497 C1499 1.419 . S
C1497 H1501 0.930 . S
C1498 C1497 1.369 . S
C1498 C1507 1.429 . S
C1499 C1497 1.419 . S
C1499 C1500 1.363 . S
C1499 H1502 0.929 . S
C1500 C1499 1.363 . S
C1500 C1506 1.428 . S
H1501 C1497 0.930 . S
H1502 C1499 0.929 . S
S1503 N1504 1.613 . S
S1503 N1505 1.610 . S
N1504 S1503 1.613 . S
N1504 C1507 1.350 1_554 S
N1505 S1503 1.610 . S
N1505 C1506 1.351 1_554 S
C1506 C1500 1.428 . S
C1506 N1505 1.351 1_556 S
C1506 C1507 1.434 . S
C1507 C1498 1.429 . S
C1507 N1504 1.350 1_556 S
C1507 C1506 1.434 . S
C1508 C1509 1.369 . S
C1508 C1510 1.419 . S
C1508 H1512 0.930 1_655 S
C1509 C1508 1.369 . S
C1509 C1518 1.429 . S
C1510 C1508 1.419 . S
C1510 C1511 1.363 . S
C1510 H1513 0.929 1_655 S
C1511 C1510 1.363 . S
C1511 C1517 1.428 . S
H1512 C1508 0.930 1_455 S
H1513 C1510 0.929 1_455 S
S1514 N1515 1.613 . S
S1514 N1516 1.610 . S
N1515 S1514 1.613 . S
N1515 C1518 1.350 . S
N1516 S1514 1.610 . S
N1516 C1517 1.351 . S
C1517 C1511 1.428 . S
C1517 N1516 1.351 . S
C1517 C1518 1.434 . S
C1518 C1509 1.429 . S
C1518 N1515 1.350 . S
C1518 C1517 1.434 . S
C1519 C1520 1.369 . S
C1519 C1521 1.419 . S
C1519 H1523 0.930 . S
C1520 C1519 1.369 . S
C1520 C1529 1.429 . S
C1521 C1519 1.419 . S
C1521 C1522 1.363 . S
C1521 H1524 0.929 . S
C1522 C1521 1.363 . S
C1522 C1528 1.428 . S
H1523 C1519 0.930 . S
H1524 C1521 0.929 . S
S1525 N1526 1.613 . S
S1525 N1527 1.610 . S
N1526 S1525 1.613 . S
N1526 C1529 1.350 . S
N1527 S1525 1.610 . S
N1527 C1528 1.351 . S
C1528 C1522 1.428 . S
C1528 N1527 1.351 . S
C1528 C1529 1.434 . S
C1529 C1520 1.429 . S
C1529 N1526 1.350 . S
C1529 C1528 1.434 . S
C1530 C1531 1.369 . S
C1530 C1532 1.419 . S
C1530 H1534 0.930 . S
C1531 C1530 1.369 . S
C1531 C1540 1.429 . S
C1532 C1530 1.419 . S
C1532 C1533 1.363 . S
C1532 H1535 0.929 . S
C1533 C1532 1.363 . S
C1533 C1539 1.428 . S
H1534 C1530 0.930 . S
H1535 C1532 0.929 . S
S1536 N1537 1.613 . S
S1536 N1538 1.610 . S
N1537 S1536 1.613 . S
N1537 C1540 1.350 . S
N1538 S1536 1.610 . S
N1538 C1539 1.351 . S
C1539 C1533 1.428 . S
C1539 N1538 1.351 . S
C1539 C1540 1.434 . S
C1540 C1531 1.429 . S
C1540 N1537 1.350 . S
C1540 C1539 1.434 . S
C1541 C1542 1.369 . S
C1541 C1543 1.419 . S
C1541 H1545 0.930 . S
C1542 C1541 1.369 . S
C1542 C1551 1.429 . S
C1543 C1541 1.419 . S
C1543 C1544 1.363 . S
C1543 H1546 0.929 . S
C1544 C1543 1.363 . S
C1544 C1550 1.428 . S
H1545 C1541 0.930 . S
H1546 C1543 0.929 . S
S1547 N1548 1.613 . S
S1547 N1549 1.610 . S
N1548 S1547 1.613 . S
N1548 C1551 1.350 . S
N1549 S1547 1.610 . S
N1549 C1550 1.351 . S
C1550 C1544 1.428 . S
C1550 N1549 1.351 . S
C1550 C1551 1.434 . S
C1551 C1542 1.429 . S
C1551 N1548 1.350 . S
C1551 C1550 1.434 . S
C1552 C1553 1.369 . S
C1552 C1554 1.419 . S
C1552 H1556 0.930 . S
C1553 C1552 1.369 . S
C1553 C1562 1.429 . S
C1554 C1552 1.419 . S
C1554 C1555 1.363 . S
C1554 H1557 0.929 . S
C1555 C1554 1.363 . S
C1555 C1561 1.428 . S
H1556 C1552 0.930 . S
H1557 C1554 0.929 . S
S1558 N1559 1.613 . S
S1558 N1560 1.610 . S
N1559 S1558 1.613 . S
N1559 C1562 1.350 . S
N1560 S1558 1.610 . S
N1560 C1561 1.351 . S
C1561 C1555 1.428 . S
C1561 N1560 1.351 . S
C1561 C1562 1.434 . S
C1562 C1553 1.429 . S
C1562 N1559 1.350 . S
C1562 C1561 1.434 . S
C1563 C1564 1.369 1_545 S
C1563 C1565 1.419 1_545 S
C1563 H1567 0.930 . S
C1564 C1563 1.369 1_565 S
C1564 C1573 1.429 . S
C1565 C1563 1.419 1_565 S
C1565 C1566 1.363 . S
C1565 H1568 0.929 1_565 S
C1566 C1565 1.363 . S
C1566 C1572 1.428 . S
H1567 C1563 0.930 . S
H1568 C1565 0.929 1_545 S
S1569 N1570 1.613 . S
S1569 N1571 1.610 . S
N1570 S1569 1.613 . S
N1570 C1573 1.350 . S
N1571 S1569 1.610 . S
N1571 C1572 1.351 . S
C1572 C1566 1.428 . S
C1572 N1571 1.351 . S
C1572 C1573 1.434 . S
C1573 C1564 1.429 . S
C1573 N1570 1.350 . S
C1573 C1572 1.434 . S
C1574 C1575 1.369 . S
C1574 C1576 1.419 . S
C1574 H1578 0.930 . S
C1575 C1574 1.369 . S
C1575 C1584 1.429 . S
C1576 C1574 1.419 . S
C1576 C1577 1.363 . S
C1576 H1579 0.929 . S
C1577 C1576 1.363 . S
C1577 C1583 1.428 . S
H1578 C1574 0.930 . S
H1579 C1576 0.929 . S
S1580 N1581 1.613 . S
S1580 N1582 1.610 . S
N1581 S1580 1.613 . S
N1581 C1584 1.350 . S
N1582 S1580 1.610 . S
N1582 C1583 1.351 . S
C1583 C1577 1.428 . S
C1583 N1582 1.351 . S
C1583 C1584 1.434 . S
C1584 C1575 1.429 . S
C1584 N1581 1.350 . S
C1584 C1583 1.434 . S
C1585 C1586 1.369 . S
C1585 C1587 1.419 . S
C1585 H1589 0.930 . S
C1586 C1585 1.369 . S
C1586 C1595 1.429 . S
C1587 C1585 1.419 . S
C1587 C1588 1.363 . S
C1587 H1590 0.929 . S
C1588 C1587 1.363 . S
C1588 C1594 1.428 . S
H1589 C1585 0.930 . S
H1590 C1587 0.929 . S
S1591 N1592 1.613 . S
S1591 N1593 1.610 . S
N1592 S1591 1.613 . S
N1592 C1595 1.350 . S
N1593 S1591 1.610 . S
N1593 C1594 1.351 . S
C1594 C1588 1.428 . S
C1594 N1593 1.351 . S
C1594 C1595 1.434 . S
C1595 C1586 1.429 . S
C1595 N1592 1.350 . S
C1595 C1594 1.434 . S
C1596 C1597 1.369 1_554 S
C1596 C1598 1.419 . S
C1596 H1600 0.930 . S
C1597 C1596 1.369 1_556 S
C1597 C1606 1.429 . S
C1598 C1596 1.419 . S
C1598 C1599 1.363 1_554 S
C1598 H1601 0.929 . S
C1599 C1598 1.363 1_556 S
C1599 C1605 1.428 . S
H1600 C1596 0.930 . S
H1601 C1598 0.929 . S
S1602 N1603 1.613 . S
S1602 N1604 1.610 . S
N1603 S1602 1.613 . S
N1603 C1606 1.350 . S
N1604 S1602 1.610 . S
N1604 C1605 1.351 . S
C1605 C1599 1.428 . S
C1605 N1604 1.351 . S
C1605 C1606 1.434 . S
C1606 C1597 1.429 . S
C1606 N1603 1.350 . S
C1606 C1605 1.434 . S
C1607 C1608 1.369 . S
C1607 C1609 1.419 . S
C1607 H1611 0.930 . S
C1608 C1607 1.369 . S
C1608 C1617 1.429 . S
C1609 C1607 1.419 . S
C1609 C1610 1.363 . S
C1609 H1612 0.929 . S
C1610 C1609 1.363 . S
C1610 C1616 1.428 . S
H1611 C1607 0.930 . S
H1612 C1609 0.929 . S
S1613 N1614 1.613 . S
S1613 N1615 1.610 . S
N1614 S1613 1.613 . S
N1614 C1617 1.350 . S
N1615 S1613 1.610 . S
N1615 C1616 1.351 . S
C1616 C1610 1.428 . S
C1616 N1615 1.351 . S
C1616 C1617 1.434 . S
C1617 C1608 1.429 . S
C1617 N1614 1.350 . S
C1617 C1616 1.434 . S
C1618 C1619 1.369 . S
C1618 C1620 1.419 . S
C1618 H1622 0.930 . S
C1619 C1618 1.369 . S
C1619 C1628 1.429 . S
C1620 C1618 1.419 . S
C1620 C1621 1.363 . S
C1620 H1623 0.929 . S
C1621 C1620 1.363 . S
C1621 C1627 1.428 . S
H1622 C1618 0.930 . S
H1623 C1620 0.929 . S
S1624 N1625 1.613 . S
S1624 N1626 1.610 . S
N1625 S1624 1.613 . S
N1625 C1628 1.350 . S
N1626 S1624 1.610 . S
N1626 C1627 1.351 . S
C1627 C1621 1.428 . S
C1627 N1626 1.351 . S
C1627 C1628 1.434 . S
C1628 C1619 1.429 . S
C1628 N1625 1.350 . S
C1628 C1627 1.434 . S
C1629 C1630 1.369 . S
C1629 C1631 1.419 . S
C1629 H1633 0.930 . S
C1630 C1629 1.369 . S
C1630 C1639 1.429 . S
C1631 C1629 1.419 . S
C1631 C1632 1.363 . S
C1631 H1634 0.929 . S
C1632 C1631 1.363 . S
C1632 C1638 1.428 . S
H1633 C1629 0.930 . S
H1634 C1631 0.929 . S
S1635 N1636 1.613 . S
S1635 N1637 1.610 . S
N1636 S1635 1.613 . S
N1636 C1639 1.350 . S
N1637 S1635 1.610 . S
N1637 C1638 1.351 . S
C1638 C1632 1.428 . S
C1638 N1637 1.351 . S
C1638 C1639 1.434 . S
C1639 C1630 1.429 . S
C1639 N1636 1.350 . S
C1639 C1638 1.434 . S
C1640 C1641 1.369 . S
C1640 C1642 1.419 . S
C1640 H1644 0.930 . S
C1641 C1640 1.369 . S
C1641 C1650 1.429 . S
C1642 C1640 1.419 . S
C1642 C1643 1.363 . S
C1642 H1645 0.929 . S
C1643 C1642 1.363 . S
C1643 C1649 1.428 . S
H1644 C1640 0.930 . S
H1645 C1642 0.929 . S
S1646 N1647 1.613 . S
S1646 N1648 1.610 . S
N1647 S1646 1.613 . S
N1647 C1650 1.350 . S
N1648 S1646 1.610 . S
N1648 C1649 1.351 . S
C1649 C1643 1.428 . S
C1649 N1648 1.351 . S
C1649 C1650 1.434 . S
C1650 C1641 1.429 . S
C1650 N1647 1.350 . S
C1650 C1649 1.434 . S
C1651 C1652 1.369 . S
C1651 C1653 1.419 . S
C1651 H1655 0.930 . S
C1652 C1651 1.369 . S
C1652 C1661 1.429 . S
C1653 C1651 1.419 . S
C1653 C1654 1.363 . S
C1653 H1656 0.929 . S
C1654 C1653 1.363 . S
C1654 C1660 1.428 . S
H1655 C1651 0.930 . S
H1656 C1653 0.929 . S
S1657 N1658 1.613 . S
S1657 N1659 1.610 . S
N1658 S1657 1.613 . S
N1658 C1661 1.350 . S
N1659 S1657 1.610 . S
N1659 C1660 1.351 . S
C1660 C1654 1.428 . S
C1660 N1659 1.351 . S
C1660 C1661 1.434 . S
C1661 C1652 1.429 . S
C1661 N1658 1.350 . S
C1661 C1660 1.434 . S
C1662 C1663 1.369 . S
C1662 C1664 1.419 . S
C1662 H1666 0.930 . S
C1663 C1662 1.369 . S
C1663 C1672 1.429 . S
C1664 C1662 1.419 . S
C1664 C1665 1.363 . S
C1664 H1667 0.929 . S
C1665 C1664 1.363 . S
C1665 C1671 1.428 . S
H1666 C1662 0.930 . S
H1667 C1664 0.929 . S
S1668 N1669 1.613 . S
S1668 N1670 1.610 . S
N1669 S1668 1.613 . S
N1669 C1672 1.350 . S
N1670 S1668 1.610 . S
N1670 C1671 1.351 . S
C1671 C1665 1.428 . S
C1671 N1670 1.351 . S
C1671 C1672 1.434 . S
C1672 C1663 1.429 . S
C1672 N1669 1.350 . S
C1672 C1671 1.434 . S
C1673 C1674 1.369 . S
C1673 C1675 1.419 . S
C1673 H1677 0.930 . S
C1674 C1673 1.369 . S
C1674 C1683 1.429 . S
C1675 C1673 1.419 . S
C1675 C1676 1.363 . S
C1675 H1678 0.929 . S
C1676 C1675 1.363 . S
C1676 C1682 1.428 . S
H1677 C1673 0.930 . S
H1678 C1675 0.929 . S
S1679 N1680 1.613 . S
S1679 N1681 1.610 . S
N1680 S1679 1.613 . S
N1680 C1683 1.350 . S
N1681 S1679 1.610 . S
N1681 C1682 1.351 . S
C1682 C1676 1.428 . S
C1682 N1681 1.351 . S
C1682 C1683 1.434 . S
C1683 C1674 1.429 . S
C1683 N1680 1.350 . S
C1683 C1682 1.434 . S
C1684 C1685 1.369 . S
C1684 C1686 1.419 . S
C1684 H1688 0.930 . S
C1685 C1684 1.369 . S
C1685 C1694 1.429 . S
C1686 C1684 1.419 . S
C1686 C1687 1.363 . S
C1686 H1689 0.929 . S
C1687 C1686 1.363 . S
C1687 C1693 1.428 . S
H1688 C1684 0.930 . S
H1689 C1686 0.929 . S
S1690 N1691 1.613 . S
S1690 N1692 1.610 . S
N1691 S1690 1.613 . S
N1691 C1694 1.350 . S
N1692 S1690 1.610 . S
N1692 C1693 1.351 . S
C1693 C1687 1.428 . S
C1693 N1692 1.351 . S
C1693 C1694 1.434 . S
C1694 C1685 1.429 . S
C1694 N1691 1.350 . S
C1694 C1693 1.434 . S
C1695 C1696 1.369 . S
C1695 C1697 1.419 . S
C1695 H1699 0.930 . S
C1696 C1695 1.369 . S
C1696 C1705 1.429 . S
C1697 C1695 1.419 . S
C1697 C1698 1.363 . S
C1697 H1700 0.929 . S
C1698 C1697 1.363 . S
C1698 C1704 1.428 . S
H1699 C1695 0.930 . S
H1700 C1697 0.929 . S
S1701 N1702 1.613 . S
S1701 N1703 1.610 . S
N1702 S1701 1.613 . S
N1702 C1705 1.350 . S
N1703 S1701 1.610 . S
N1703 C1704 1.351 . S
C1704 C1698 1.428 . S
C1704 N1703 1.351 . S
C1704 C1705 1.434 . S
C1705 C1696 1.429 . S
C1705 N1702 1.350 . S
C1705 C1704 1.434 . S
C1706 C1707 1.369 . S
C1706 C1708 1.419 . S
C1706 H1710 0.930 . S
C1707 C1706 1.369 . S
C1707 C1716 1.429 . S
C1708 C1706 1.419 . S
C1708 C1709 1.363 . S
C1708 H1711 0.929 . S
C1709 C1708 1.363 . S
C1709 C1715 1.428 . S
H1710 C1706 0.930 . S
H1711 C1708 0.929 . S
S1712 N1713 1.613 . S
S1712 N1714 1.610 . S
N1713 S1712 1.613 . S
N1713 C1716 1.350 . S
N1714 S1712 1.610 . S
N1714 C1715 1.351 . S
C1715 C1709 1.428 . S
C1715 N1714 1.351 . S
C1715 C1716 1.434 . S
C1716 C1707 1.429 . S
C1716 N1713 1.350 . S
C1716 C1715 1.434 . S
C1717 C1718 1.369 . S
C1717 C1719 1.419 . S
C1717 H1721 0.930 . S
C1718 C1717 1.369 . S
C1718 C1727 1.429 . S
C1719 C1717 1.419 . S
C1719 C1720 1.363 . S
C1719 H1722 0.929 . S
C1720 C1719 1.363 . S
C1720 C1726 1.428 . S
H1721 C1717 0.930 . S
H1722 C1719 0.929 . S
S1723 N1724 1.613 . S
S1723 N1725 1.610 . S
N1724 S1723 1.613 . S
N1724 C1727 1.350 . S
N1725 S1723 1.610 . S
N1725 C1726 1.351 . S
C1726 C1720 1.428 . S
C1726 N1725 1.351 . S
C1726 C1727 1.434 . S
C1727 C1718 1.429 . S
C1727 N1724 1.350 . S
C1727 C1726 1.434 . S
C673 C0 0.805 . S
C675 C364 0.841 . S
C684 C378 0.998 . S
C686 C14 1.002 . S
C695 C28 1.846 . S
C697 C336 1.895 . S
C706 C350 2.075 . S
C708 C42 2.060 1_554 S
C717 C56 0.793 . S
C719 C420 0.826 . S
C728 C70 1.841 . S
C730 C434 1.856 . S
C739 C84 2.108 . S
C741 C392 2.140 . S
C750 C98 0.887 . S
C752 C406 0.915 . S
C761 C168 0.841 . S
C763 C112 0.817 . S
C772 C126 2.066 1_545 S
C774 C182 2.075 . S
C783 C196 0.797 . S
C785 C140 0.830 . S
C794 C154 0.924 . S
C796 C210 0.902 . S
C805 C602 0.855 . S
C807 C224 0.826 . S
C816 C630 0.812 . S
C818 C238 0.840 . S
C827 C308 2.076 . S
C829 C252 2.065 1_455 S
C838 C560 1.890 . S
C840 C266 1.853 . S
C849 C658 0.923 . S
C851 C280 0.902 . S
C860 C574 2.105 . S
C862 C294 2.144 . S
C871 C322 1.839 . S
C873 C616 1.855 . S
C882 C448 1.896 . S
C884 C504 1.847 . S
C893 C518 0.994 . S
C895 C462 0.984 . S
C904 C476 2.113 . S
C906 C532 2.142 . S
C915 C546 1.857 . S
C917 C490 1.832 . S
C926 C588 0.988 . S
C928 C644 0.998 . S
C937 C9 0.743 . S
C939 C107 0.716 . S
C948 C65 0.807 . S
C950 C23 0.823 . S
C959 C37 1.691 . S
C961 C79 1.693 . S
C970 C51 1.806 . S
C972 C93 1.803 . S
C981 C289 0.721 . S
C983 C121 0.750 . S
C992 C583 1.814 . S
C994 C135 1.796 . S
C1003 C149 0.727 . S
C1005 C597 0.739 . S
C1014 C163 0.717 . S
C1016 C611 0.733 . S
C1025 C667 0.713 . S
C1027 C177 0.722 . S
C1036 C191 1.837 . S
C1038 C303 1.851 . S
C1047 C205 0.804 . S
C1049 C653 0.827 . S
C1058 C219 0.727 . S
C1060 C233 0.728 . S
C1069 C247 0.727 . S
C1071 C471 0.739 . S
C1080 C261 1.807 . S
C1082 C485 1.803 . S
C1091 C499 1.695 . S
C1093 C275 1.688 . S
C1102 C317 1.827 . S
C1104 C541 1.853 . S
C1113 C513 1.685 . S
C1115 C331 1.688 . S
C1124 C443 1.673 . S
C1126 C345 1.664 . S
C1135 C359 1.831 . S
C1137 C401 1.850 . S
C1146 C415 0.716 . S
C1148 C373 0.737 . S
C1157 C387 0.742 . S
C1159 C429 0.733 . S
C1168 C457 1.665 . S
C1170 C625 1.670 . S
C1179 C639 0.801 . S
C1181 C527 0.829 . S
C1190 C569 1.663 . S
C1192 C555 1.678 . S
C1201 C5 1.594 . S
C1203 C411 1.331 . S
C1212 C425 1.598 . S
C1214 C19 1.333 1_455 S
C1223 C33 1.265 . S
C1225 C439 1.270 . S
C1234 C47 1.187 . S
C1236 C397 1.183 . S
C1245 C383 1.315 . S
C1247 C61 1.527 . S
C1256 C75 1.254 . S
C1258 C341 1.257 . S
C1267 C355 1.219 . S
C1269 C89 1.202 . S
C1278 C103 1.351 . S
C1280 C369 1.632 . S
C1289 C663 1.315 . S
C1291 C117 1.598 . S
C1300 C131 1.187 . S
C1302 C299 1.182 . S
C1311 C145 1.597 . S
C1313 C649 1.338 1_545 S
C1322 C229 1.595 . S
C1324 C159 1.325 . S
C1333 C173 1.626 . S
C1335 C285 1.357 . S
C1344 C187 1.220 . S
C1346 C579 1.194 . S
C1355 C593 1.310 . S
C1357 C201 1.527 . S
C1366 C607 1.628 . S
C1368 C215 1.354 . S
C1377 C523 1.322 1_554 S
C1379 C243 1.602 . S
C1388 C537 1.189 . S
C1390 C257 1.185 . S
C1399 C551 1.270 . S
C1401 C271 1.264 . S
C1410 C313 1.224 . S
C1412 C481 1.195 . S
C1421 C453 1.260 . S
C1423 C327 1.251 . S
C1432 C467 1.320 . S
C1434 C635 1.525 . S
C1443 C495 1.247 . S
C1445 C565 1.255 . S
C1454 C621 1.266 . S
C1456 C509 1.260 . S
C1465 C11 1.627 . S
C1467 C319 1.679 . S
C1476 C25 1.713 . S
C1478 C571 1.814 . S
C1487 C333 1.707 . S
C1489 C39 1.711 . S
C1498 C641 1.655 . S
C1500 C53 1.709 . S
C1509 C263 1.705 . S
C1511 C67 1.656 . S
C1520 C277 1.709 . S
C1522 C81 1.711 . S
C1531 C95 1.714 . S
C1533 C627 1.749 . S
C1542 C109 1.681 . S
C1544 C249 1.755 . S
C1553 C193 1.681 . S
C1555 C123 1.621 . S
C1564 C137 1.704 . S
C1566 C207 1.655 . S
C1575 C221 1.692 . S
C1577 C151 1.750 . S
C1586 C179 1.718 . S
C1588 C165 1.681 . S
C1597 C235 1.627 . S
C1599 C361 1.676 . S
C1608 C431 1.756 . S
C1610 C291 1.686 . S
C1619 C389 1.669 . S
C1621 C305 1.747 . S
C1630 C347 1.811 . S
C1632 C655 1.716 . S
C1641 C669 1.680 . S
C1643 C375 1.718 . S
C1652 C599 1.665 . S
C1654 C403 1.744 . S
C1663 C613 1.724 . S
C1665 C417 1.678 . S
C1674 C585 1.720 . S
C1676 C445 1.749 . S
C1685 C529 1.719 . S
C1687 C459 1.815 . S
C1696 C543 1.750 . S
C1698 C473 1.665 . S
C1707 C487 1.717 . S
C1709 C557 1.745 . S
C1718 C501 1.713 . S
C1720 C515 1.705 . S
