# Generated by pormake.
# Topology mon, (4)-cn, num edge types: 1
# Building blocks:
#     Node 0, Type 0, BuildingBlock: CEKHIL_clean_sbu_0, # of connection points: 4
#     Node 1, Type 0, BuildingBlock: CEKHIL_clean_sbu_0, # of connection points: 4
#     Node 2, Type 0, BuildingBlock: CEKHIL_clean_sbu_0, # of connection points: 4
#     Node 3, Type 0, BuildingBlock: CEKHIL_clean_sbu_0, # of connection points: 4
#     Node 4, Type 0, BuildingBlock: CEKHIL_clean_sbu_0, # of connection points: 4
#     Node 5, Type 0, BuildingBlock: CEKHIL_clean_sbu_0, # of connection points: 4
#     Node 6, Type 0, BuildingBlock: CEKHIL_clean_sbu_0, # of connection points: 4
#     Node 7, Type 0, BuildingBlock: CEKHIL_clean_sbu_0, # of connection points: 4
#     Node 8, Type 0, BuildingBlock: CEKHIL_clean_sbu_0, # of connection points: 4
#     Node 9, Type 0, BuildingBlock: CEKHIL_clean_sbu_0, # of connection points: 4
#     Node 10, Type 0, BuildingBlock: CEKHIL_clean_sbu_0, # of connection points: 4
#     Node 11, Type 0, BuildingBlock: CEKHIL_clean_sbu_0, # of connection points: 4
#     Node 12, Type 0, BuildingBlock: CEKHIL_clean_sbu_0, # of connection points: 4
#     Node 13, Type 0, BuildingBlock: CEKHIL_clean_sbu_0, # of connection points: 4
#     Node 14, Type 0, BuildingBlock: CEKHIL_clean_sbu_0, # of connection points: 4
#     Node 15, Type 0, BuildingBlock: CEKHIL_clean_sbu_0, # of connection points: 4
#     Edge 16, Type (0, 0), BuildingBlock: XUDNAN_clean_linker_2, # of connection points: 2
#     Edge 17, Type (0, 0), BuildingBlock: XUDNAN_clean_linker_2, # of connection points: 2
#     Edge 18, Type (0, 0), BuildingBlock: XUDNAN_clean_linker_2, # of connection points: 2
#     Edge 19, Type (0, 0), BuildingBlock: XUDNAN_clean_linker_2, # of connection points: 2
#     Edge 20, Type (0, 0), BuildingBlock: XUDNAN_clean_linker_2, # of connection points: 2
#     Edge 21, Type (0, 0), BuildingBlock: XUDNAN_clean_linker_2, # of connection points: 2
#     Edge 22, Type (0, 0), BuildingBlock: XUDNAN_clean_linker_2, # of connection points: 2
#     Edge 23, Type (0, 0), BuildingBlock: XUDNAN_clean_linker_2, # of connection points: 2
#     Edge 24, Type (0, 0), BuildingBlock: XUDNAN_clean_linker_2, # of connection points: 2
#     Edge 25, Type (0, 0), BuildingBlock: XUDNAN_clean_linker_2, # of connection points: 2
#     Edge 26, Type (0, 0), BuildingBlock: XUDNAN_clean_linker_2, # of connection points: 2
#     Edge 27, Type (0, 0), BuildingBlock: XUDNAN_clean_linker_2, # of connection points: 2
#     Edge 28, Type (0, 0), BuildingBlock: XUDNAN_clean_linker_2, # of connection points: 2
#     Edge 29, Type (0, 0), BuildingBlock: XUDNAN_clean_linker_2, # of connection points: 2
#     Edge 30, Type (0, 0), BuildingBlock: XUDNAN_clean_linker_2, # of connection points: 2
#     Edge 31, Type (0, 0), BuildingBlock: XUDNAN_clean_linker_2, # of connection points: 2
#     Edge 32, Type (0, 0), BuildingBlock: XUDNAN_clean_linker_2, # of connection points: 2
#     Edge 33, Type (0, 0), BuildingBlock: XUDNAN_clean_linker_2, # of connection points: 2
#     Edge 34, Type (0, 0), BuildingBlock: XUDNAN_clean_linker_2, # of connection points: 2
#     Edge 35, Type (0, 0), BuildingBlock: XUDNAN_clean_linker_2, # of connection points: 2
#     Edge 36, Type (0, 0), BuildingBlock: XUDNAN_clean_linker_2, # of connection points: 2
#     Edge 37, Type (0, 0), BuildingBlock: XUDNAN_clean_linker_2, # of connection points: 2
#     Edge 38, Type (0, 0), BuildingBlock: XUDNAN_clean_linker_2, # of connection points: 2
#     Edge 39, Type (0, 0), BuildingBlock: XUDNAN_clean_linker_2, # of connection points: 2
#     Edge 40, Type (0, 0), BuildingBlock: XUDNAN_clean_linker_2, # of connection points: 2
#     Edge 41, Type (0, 0), BuildingBlock: XUDNAN_clean_linker_2, # of connection points: 2
#     Edge 42, Type (0, 0), BuildingBlock: XUDNAN_clean_linker_2, # of connection points: 2
#     Edge 43, Type (0, 0), BuildingBlock: XUDNAN_clean_linker_2, # of connection points: 2
#     Edge 44, Type (0, 0), BuildingBlock: XUDNAN_clean_linker_2, # of connection points: 2
#     Edge 45, Type (0, 0), BuildingBlock: XUDNAN_clean_linker_2, # of connection points: 2
#     Edge 46, Type (0, 0), BuildingBlock: XUDNAN_clean_linker_2, # of connection points: 2
#     Edge 47, Type (0, 0), BuildingBlock: XUDNAN_clean_linker_2, # of connection points: 2
# Relax obj value: 0.188
# Max RMSD: 0.178
# Mean RMSD: 0.178
data_MOF--net-mon--node1-CEKHIL_clean_sbu_0--edge1-XUDNAN_clean_linker_2
_symmetry_space_group_name_H-M    P1
_symmetry_Int_Tables_number       1
_symmetry_cell_setting            triclinic
loop_
_symmetry_equiv_pos_as_xyz
'x, y, z'
_cell_length_a     33.258678
_cell_length_b     33.282632
_cell_length_c     84.696066
_cell_angle_alpha  90.046671
_cell_angle_beta   89.924999
_cell_angle_gamma 90.036258
loop_
_atom_site_label
_atom_site_type_symbol
_atom_site_fract_x
_atom_site_fract_y
_atom_site_fract_z
_atom_type_partial_charge
Co0 Co 0.03424 0.03978 0.5847 0.0
O1 O 0.06297 0.08612 0.5772 0.0
O2 O 1.00084 0.08795 0.58635 0.0
C3 C 0.08514 0.01553 0.59949 0.0
O4 O 0.99592 0.99762 0.59407 0.0
Co5 Co 0.06549 0.95359 0.57667 0.0
O6 O 0.02754 0.93779 0.59356 0.0
C7 C 0.0218 1.00067 0.55255 0.0
C8 C 0.03165 0.10747 0.58072 0.0
C9 C 0.99845 0.96013 0.59792 0.0
O10 O 0.01387 0.02845 0.5627 0.0
O11 O 0.04401 0.97025 0.55561 0.0
O12 O 0.06189 0.0436 0.60503 0.0
O13 O 0.07902 0.0058 0.58497 0.0
Co14 Co 0.23311 0.77636 0.83495 0.0
O15 O 0.18766 0.8045 0.8262 0.0
O16 O 0.18426 0.74384 0.83656 0.0
C17 C 0.25627 0.82962 0.84901 0.0
O18 O 0.27342 0.73838 0.84564 0.0
Co19 Co 0.32125 0.80557 0.82873 0.0
O20 O 0.33376 0.76895 0.84636 0.0
C21 C 0.27891 0.7553 0.80495 0.0
C22 C 0.16551 0.77409 0.8302 0.0
C23 C 0.31042 0.74021 0.85021 0.0
O24 O 0.24705 0.75261 0.81361 0.0
O25 O 0.30991 0.77604 0.80869 0.0
O26 O 0.22757 0.80724 0.8546 0.0
O27 O 0.26779 0.82088 0.83491 0.0
Co28 Co 0.495 0.96736 0.08436 0.0
O29 O 0.46699 0.91972 0.07751 0.0
O30 O 0.52698 0.91918 0.08858 0.0
C31 C 0.4403 0.99445 0.09621 0.0
O32 O 0.53251 0.01032 0.09369 0.0
Co33 Co 0.46761 0.05325 0.07417 0.0
O34 O 0.50319 0.07093 0.09151 0.0
C35 C 0.51465 1.0019 0.05208 0.0
C36 C 0.49698 0.89884 0.08277 0.0
C37 C 0.53096 0.0483 0.09679 0.0
O38 O 0.51996 0.97444 0.06266 0.0
O39 O 0.49289 0.03312 0.05431 0.0
O40 O 0.46222 0.96858 0.10382 0.0
O41 O 0.45099 1.00157 0.08192 0.0
Co42 Co 0.29464 0.2343 0.33481 0.0
O43 O 0.34851 0.21424 0.33061 0.0
O44 O 0.33443 0.2739 0.34067 0.0
C45 C 0.27108 0.17691 0.3459 0.0
O46 O 0.2448 0.26614 0.34149 0.0
Co47 Co 0.21673 0.19567 0.32091 0.0
O48 O 0.18753 0.23712 0.33312 0.0
C49 C 0.26793 0.24841 0.301 0.0
C50 C 0.36154 0.24848 0.33593 0.0
C51 C 0.20622 0.26489 0.3404 0.0
O52 O 0.29103 0.25745 0.31271 0.0
O53 O 0.23959 0.22248 0.30186 0.0
O54 O 0.29158 0.20226 0.35441 0.0
O55 O 0.26745 0.18602 0.33125 0.0
Co56 Co 0.02804 0.96685 0.40838 0.0
O57 O 0.0505 0.91547 0.41491 0.0
O58 O 0.98902 0.92459 0.40568 0.0
C59 C 0.08202 0.98822 0.39443 0.0
O60 O 0.99366 0.01273 0.39968 0.0
Co61 Co 0.06429 0.05046 0.41687 0.0
O62 O 0.0258 0.07189 0.40123 0.0
C63 C 0.01427 0.00669 0.44021 0.0
C64 C 0.016 0.89994 0.41103 0.0
C65 C 0.99613 0.05062 0.39672 0.0
O66 O 0.00771 0.97765 0.43048 0.0
O67 O 0.03688 0.03684 0.43718 0.0
O68 O 0.05664 0.96304 0.38819 0.0
O69 O 0.07572 0.99708 0.40903 0.0
Co70 Co 0.29676 0.77137 0.66149 0.0
O71 O 0.345 0.79888 0.66787 0.0
O72 O 0.34425 0.73968 0.65605 0.0
C73 C 0.26841 0.82683 0.65088 0.0
O74 O 0.25286 0.73468 0.65241 0.0
Co75 Co 0.21196 0.79756 0.67359 0.0
O76 O 0.19241 0.76345 0.65612 0.0
C77 C 0.26607 0.7492 0.69405 0.0
C78 C 0.36515 0.76921 0.66191 0.0
C79 C 0.21456 0.73636 0.65001 0.0
O80 O 0.2922 0.74478 0.6829 0.0
O81 O 0.23445 0.77086 0.69272 0.0
O82 O 0.29355 0.80564 0.64255 0.0
O83 O 0.26278 0.81492 0.66513 0.0
Co84 Co 0.49917 0.04027 0.90983 0.0
O85 O 0.47916 0.0923 0.91691 0.0
O86 O 0.53771 0.08219 0.9052 0.0
C87 C 0.44064 0.01992 0.89879 0.0
O88 O 0.5305 0.99356 0.90002 0.0
Co89 Co 0.46416 0.95714 0.91951 0.0
O90 O 0.49809 0.93479 0.90243 0.0
C91 C 0.52074 1.00024 0.94084 0.0
C92 C 0.51249 0.10736 0.91148 0.0
C93 C 0.52698 0.95575 0.89701 0.0
O94 O 0.52509 0.02972 0.93109 0.0
O95 O 0.49714 0.97044 0.9385 0.0
O96 O 0.46486 0.04321 0.8909 0.0
O97 O 0.45158 0.01125 0.91292 0.0
Co98 Co 0.23438 0.24127 0.15963 0.0
O99 O 0.18994 0.21252 0.16902 0.0
O100 O 0.18462 0.27214 0.15788 0.0
C101 C 0.25895 0.18808 0.14601 0.0
O102 O 0.27281 0.27927 0.14786 0.0
Co103 Co 0.32366 0.2163 0.166 0.0
O104 O 0.33613 0.255 0.14909 0.0
C105 C 0.27912 0.26432 0.18971 0.0
C106 C 0.16686 0.24194 0.16472 0.0
C107 C 0.31041 0.2802 0.14406 0.0
O108 O 0.24795 0.26689 0.1807 0.0
O109 O 0.31062 0.24411 0.18623 0.0
O110 O 0.22909 0.20887 0.14045 0.0
O111 O 0.27074 0.19804 0.15997 0.0
Co112 Co 0.80315 0.27004 0.1581 0.0
O113 O 0.85435 0.29274 0.16483 0.0
O114 O 0.84564 0.23068 0.1562 0.0
C115 C 0.78295 0.32326 0.14343 0.0
O116 O 0.75725 0.23553 0.14936 0.0
Co117 Co 0.71974 0.30837 0.16572 0.0
O118 O 0.69831 0.26826 0.15063 0.0
C119 C 0.76295 0.26175 0.19022 0.0
C120 C 0.8701 0.25805 0.16144 0.0
C121 C 0.71934 0.23817 0.14637 0.0
O122 O 0.79058 0.25136 0.18031 0.0
O123 O 0.73464 0.28631 0.18684 0.0
O124 O 0.80823 0.29731 0.1376 0.0
O125 O 0.77351 0.31791 0.15801 0.0
Co126 Co 0.72911 0.73854 0.66024 0.0
O127 O 0.67629 0.717 0.66566 0.0
O128 O 0.68741 0.77474 0.65356 0.0
C129 C 0.75493 0.68035 0.65069 0.0
O130 O 0.77625 0.77154 0.65178 0.0
Co131 Co 0.8113 0.70913 0.67329 0.0
O132 O 0.83622 0.74414 0.65711 0.0
C133 C 0.75884 0.76198 0.6927 0.0
C134 C 0.66159 0.74942 0.65931 0.0
C135 C 0.81479 0.77083 0.65043 0.0
O136 O 0.73297 0.76612 0.6815 0.0
O137 O 0.78986 0.73939 0.69186 0.0
O138 O 0.7323 0.70267 0.64173 0.0
O139 O 0.75964 0.69285 0.66493 0.0
Co140 Co 0.72619 0.27207 0.33333 0.0
O141 O 0.67891 0.30078 0.32662 0.0
O142 O 0.67759 0.24237 0.33895 0.0
C143 C 0.75668 0.327 0.34356 0.0
O144 O 0.76857 0.23432 0.3428 0.0
Co145 Co 0.81226 0.29415 0.32134 0.0
O146 O 0.8297 0.2621 0.3397 0.0
C147 C 0.75786 0.24429 0.30156 0.0
C148 C 0.65768 0.27208 0.33276 0.0
C149 C 0.80665 0.23561 0.34569 0.0
O150 O 0.72997 0.24393 0.31216 0.0
O151 O 0.79098 0.26357 0.30287 0.0
O152 O 0.73057 0.3073 0.35199 0.0
O153 O 0.76195 0.31413 0.3294 0.0
Co154 Co 0.80249 0.73708 0.83649 0.0
O155 O 0.85452 0.71549 0.8302 0.0
O156 O 0.84372 0.77784 0.83812 0.0
C157 C 0.7832 0.68474 0.85178 0.0
O158 O 0.75528 0.77059 0.84469 0.0
Co159 Co 0.72063 0.69591 0.82881 0.0
O160 O 0.69751 0.73569 0.8437 0.0
C161 C 0.76301 0.74285 0.80413 0.0
C162 C 0.86914 0.75087 0.83328 0.0
C163 C 0.71747 0.76671 0.84773 0.0
O164 O 0.79021 0.75397 0.81406 0.0
O165 O 0.73501 0.7179 0.80755 0.0
O166 O 0.8077 0.71182 0.8573 0.0
O167 O 0.77422 0.68831 0.83706 0.0
Co168 Co 0.53648 0.53541 0.0841 0.0
O169 O 0.55611 0.58916 0.07921 0.0
O170 O 0.49751 0.57556 0.09028 0.0
C171 C 0.59508 0.51238 0.09451 0.0
O172 O 0.50511 0.48596 0.09151 0.0
Co173 Co 0.57437 0.45662 0.07041 0.0
O174 O 0.53279 0.42827 0.08287 0.0
C175 C 0.51788 0.50537 0.05108 0.0
C176 C 0.52244 0.60248 0.08499 0.0
C177 C 0.50572 0.44738 0.0904 0.0
O178 O 0.51088 0.53024 0.06247 0.0
O179 O 0.54396 0.47719 0.05186 0.0
O180 O 0.57057 0.53336 0.10323 0.0
O181 O 0.58449 0.50804 0.08005 0.0
Co182 Co 0.99281 0.46948 0.58574 0.0
O183 O 0.97044 0.41806 0.57912 0.0
O184 O 0.03259 0.42772 0.58758 0.0
C185 C 0.93991 0.48955 0.60062 0.0
O186 O 0.02731 0.51532 0.59441 0.0
Co187 Co 0.95499 0.55299 0.57851 0.0
O188 O 0.99379 0.57378 0.59423 0.0
C189 C 1.00381 0.51142 0.55414 0.0
C190 C 0.00548 0.40291 0.58242 0.0
C191 C 0.02424 0.55277 0.59804 0.0
O192 O 0.01117 0.48176 0.56348 0.0
O193 O 0.98127 0.54118 0.55777 0.0
O194 O 0.96611 0.46439 0.6063 0.0
O195 O 0.94475 0.49905 0.586 0.0
Co196 Co 0.53586 0.47242 0.9124 0.0
O197 O 0.56278 0.42565 0.92065 0.0
O198 O 0.50641 0.42334 0.907 0.0
C199 C 0.59311 0.50093 0.9029 0.0
O200 O 0.49991 0.51426 0.90153 0.0
Co201 Co 0.55867 0.5593 0.92346 0.0
O202 O 0.5265 0.57575 0.90504 0.0
C203 C 0.50259 0.50907 0.94252 0.0
C204 C 0.53484 0.40388 0.91428 0.0
C205 C 0.50055 0.55245 0.89883 0.0
O206 O 0.50436 0.47932 0.93274 0.0
O207 O 0.5229 0.54153 0.94103 0.0
O208 O 0.57412 0.47423 0.89452 0.0
O209 O 0.57817 0.50788 0.91661 0.0
Co210 Co 0.99897 0.53616 0.40881 0.0
O211 O 0.96816 0.58096 0.41661 0.0
O212 O 0.0298 0.58588 0.4071 0.0
C213 C 0.94911 0.50921 0.39417 0.0
O214 O 0.03899 0.4969 0.3987 0.0
Co215 Co 0.97389 0.44822 0.41691 0.0
O216 O 0.01455 0.43384 0.40086 0.0
C217 C 0.01266 0.49866 0.44116 0.0
C218 C 0.99828 0.60384 0.41288 0.0
C219 C 0.0402 0.45893 0.39563 0.0
O220 O 0.02056 0.52582 0.43075 0.0
O221 O 0.99176 0.46727 0.43817 0.0
O222 O 0.97049 0.53881 0.38871 0.0
O223 O 0.95613 0.49942 0.40865 0.0
H224 H 0.97018 0.16347 0.58508 0.0
H225 H 0.09656 0.15247 0.57277 0.0
H226 H 0.10216 0.22585 0.57113 0.0
H227 H 0.94992 0.24932 0.55899 0.0
H228 H 0.91602 0.27331 0.57268 0.0
H229 H 0.92097 0.21939 0.57262 0.0
H230 H 0.93869 0.22079 0.60238 0.0
H231 H 0.93386 0.27469 0.60252 0.0
H232 H 0.97988 0.25159 0.6091 0.0
H233 H 0.09646 0.29971 0.57257 0.0
H234 H 0.07815 0.37113 0.57531 0.0
H235 H 0.9546 0.33726 0.58508 0.0
C236 C 0.99889 0.17657 0.58192 0.0
C237 C 0.03294 0.15197 0.57906 0.0
C238 C 0.06997 0.17039 0.57498 0.0
C239 C 0.07355 0.2122 0.57403 0.0
C240 C 0.03975 0.23556 0.57702 0.0
C241 C 1.00297 0.21864 0.58072 0.0
C242 C 0.97161 0.25125 0.58341 0.0
C243 C 0.93762 0.24812 0.5712 0.0
C244 C 0.95504 0.24946 0.60036 0.0
C245 C 0.99677 0.28891 0.58082 0.0
C246 C 0.03605 0.2789 0.57725 0.0
C247 C 0.06569 0.308 0.57516 0.0
C248 C 0.05503 0.34849 0.57679 0.0
C249 C 0.01496 0.35975 0.58024 0.0
C250 C 0.98534 0.32951 0.58215 0.0
H251 H 0.93464 0.69974 0.8352 0.0
H252 H 0.90161 0.82413 0.82716 0.0
H253 H 0.97324 0.84198 0.82423 0.0
H254 H 0.02138 0.72228 0.85898 0.0
H255 H 0.05124 0.68118 0.85157 0.0
H256 H 0.99723 0.67718 0.85194 0.0
H257 H 0.99698 0.66167 0.82198 0.0
H258 H 0.05102 0.66567 0.82152 0.0
H259 H 0.02092 0.69614 0.80851 0.0
H260 H 0.04763 0.8468 0.82203 0.0
H261 H 0.12115 0.83997 0.82296 0.0
H262 H 0.10859 0.71331 0.83424 0.0
C263 C 0.94258 0.73062 0.83265 0.0
C264 C 0.91247 0.76055 0.83125 0.0
C265 C 0.92407 0.80074 0.82824 0.0
C266 C 0.96471 0.81115 0.82651 0.0
C267 C 0.99365 0.78113 0.82803 0.0
C268 C 0.9833 0.74175 0.83121 0.0
C269 C 0.0208 0.716 0.8332 0.0
C270 C 0.02277 0.69811 0.84992 0.0
C271 C 0.02252 0.68291 0.82055 0.0
C272 C 0.05372 0.74711 0.83065 0.0
C273 C 0.03714 0.78431 0.82747 0.0
C274 C 0.06097 0.81786 0.82455 0.0
C275 C 0.10285 0.81358 0.82506 0.0
C276 C 0.1209 0.77612 0.82868 0.0
C277 C 0.09582 0.74235 0.83144 0.0
H278 H 0.57342 0.66841 0.08334 0.0
H279 H 0.44759 0.63489 0.08685 0.0
H280 H 0.42845 0.70642 0.08644 0.0
H281 H 0.56555 0.75575 0.10912 0.0
H282 H 0.60098 0.78551 0.09803 0.0
H283 H 0.60528 0.73154 0.09818 0.0
H284 H 0.60248 0.73058 0.06763 0.0
H285 H 0.59811 0.78453 0.06739 0.0
H286 H 0.56078 0.75404 0.05767 0.0
H287 H 0.42219 0.78061 0.08442 0.0
H288 H 0.42908 0.85414 0.08331 0.0
H289 H 0.55906 0.84243 0.08314 0.0
C290 C 0.54186 0.67622 0.084 0.0
C291 C 0.51194 0.64594 0.08505 0.0
C292 C 0.47103 0.65742 0.08607 0.0
C293 C 0.45983 0.69803 0.0858 0.0
C294 C 0.48989 0.72709 0.08474 0.0
C295 C 0.53012 0.71691 0.08406 0.0
C296 C 0.55623 0.75451 0.0835 0.0
C297 C 0.58363 0.75696 0.09807 0.0
C298 C 0.58085 0.75599 0.06813 0.0
C299 C 0.52433 0.78729 0.08381 0.0
C300 C 0.48631 0.77051 0.08435 0.0
C301 C 0.45179 0.7941 0.08414 0.0
C302 C 0.45607 0.83594 0.08344 0.0
C303 C 0.49457 0.85419 0.0832 0.0
C304 C 0.52923 0.82941 0.08346 0.0
H305 H 0.60095 0.21094 0.33493 0.0
H306 H 0.61371 0.34049 0.33194 0.0
H307 H 0.54013 0.34805 0.33319 0.0
H308 H 0.51299 0.20562 0.30988 0.0
H309 H 0.48943 0.16562 0.32086 0.0
H310 H 0.54342 0.16997 0.32053 0.0
H311 H 0.54449 0.17207 0.35109 0.0
H312 H 0.49048 0.16778 0.35151 0.0
H313 H 0.51484 0.20918 0.36135 0.0
H314 H 0.46571 0.34241 0.33551 0.0
H315 H 0.39401 0.32348 0.33628 0.0
H316 H 0.4272 0.1974 0.33571 0.0
C317 C 0.58815 0.24083 0.33461 0.0
C318 C 0.61315 0.27517 0.33342 0.0
C319 C 0.59525 0.31375 0.33282 0.0
C320 C 0.55343 0.3184 0.33359 0.0
C321 C 0.5296 0.28413 0.33472 0.0
C322 C 0.54611 0.24602 0.33503 0.0
C323 C 0.51319 0.21429 0.33555 0.0
C324 C 0.51487 0.18728 0.32082 0.0
C325 C 0.51592 0.18936 0.35078 0.0
C326 C 0.4758 0.2406 0.33551 0.0
C327 C 0.48615 0.28079 0.33526 0.0
C328 C 0.45719 0.31102 0.3356 0.0
C329 C 0.41651 0.29997 0.33609 0.0
C330 C 0.40495 0.25902 0.33597 0.0
C331 C 0.43511 0.22897 0.33567 0.0
H332 H 0.06889 0.83568 0.41046 0.0
H333 H 0.94257 0.86607 0.4151 0.0
H334 H 0.92561 0.79418 0.41726 0.0
H335 H 0.05281 0.74916 0.38587 0.0
H336 H 0.09288 0.71988 0.39437 0.0
H337 H 0.09597 0.77391 0.39431 0.0
H338 H 0.10549 0.77382 0.42465 0.0
H339 H 0.10242 0.71975 0.4248 0.0
H340 H 0.06889 0.74898 0.43697 0.0
H341 H 0.92173 0.71997 0.41895 0.0
H342 H 0.93012 0.64665 0.41803 0.0
H343 H 0.05847 0.66172 0.41057 0.0
C344 C 0.03776 0.82709 0.41212 0.0
C345 C 0.00702 0.8565 0.41276 0.0
C346 C 0.96657 0.84411 0.4146 0.0
C347 C 0.95665 0.80333 0.4159 0.0
C348 C 0.98746 0.77508 0.41512 0.0
C349 C 0.02717 0.7862 0.41312 0.0
C350 C 0.05396 0.74929 0.41176 0.0
C351 C 0.07515 0.74799 0.39562 0.0
C352 C 0.0845 0.74789 0.42536 0.0
C353 C 0.02301 0.71583 0.41327 0.0
C354 C 0.98497 0.73163 0.41541 0.0
C355 C 0.95134 0.7072 0.41725 0.0
C356 C 0.95649 0.66548 0.41675 0.0
C357 C 0.99494 0.64826 0.41422 0.0
C358 C 0.02869 0.67392 0.4125 0.0
H359 H 0.42238 0.70851 0.66461 0.0
H360 H 0.408 0.83634 0.65636 0.0
H361 H 0.48142 0.84401 0.65421 0.0
H362 H 0.51077 0.71956 0.68932 0.0
H363 H 0.53505 0.67461 0.68224 0.0
H364 H 0.48098 0.678 0.68227 0.0
H365 H 0.47978 0.66195 0.65235 0.0
H366 H 0.53385 0.65848 0.65224 0.0
H367 H 0.50879 0.69248 0.63894 0.0
H368 H 0.55525 0.83867 0.6525 0.0
H369 H 0.6271 0.82154 0.65319 0.0
H370 H 0.59696 0.69782 0.66443 0.0
C371 C 0.43486 0.73795 0.66223 0.0
C372 C 0.40951 0.77187 0.66055 0.0
C373 C 0.42685 0.81004 0.65772 0.0
C374 C 0.46853 0.81469 0.65642 0.0
C375 C 0.49278 0.78097 0.65825 0.0
C376 C 0.47686 0.74337 0.66128 0.0
C377 C 0.51038 0.71277 0.66357 0.0
C378 C 0.50922 0.6952 0.68035 0.0
C379 C 0.50805 0.67945 0.65103 0.0
C380 C 0.54736 0.73908 0.66117 0.0
C381 C 0.5362 0.77821 0.65799 0.0
C382 C 0.56443 0.80818 0.65507 0.0
C383 C 0.60526 0.79808 0.65546 0.0
C384 C 0.61782 0.75839 0.65892 0.0
C385 C 0.58834 0.72848 0.66185 0.0
H386 H 0.47477 0.34681 0.90899 0.0
H387 H 0.60129 0.35963 0.92052 0.0
H388 H 0.60863 0.28615 0.92095 0.0
H389 H 0.45738 0.2603 0.93433 0.0
H390 H 0.4231 0.23599 0.9209 0.0
H391 H 0.42736 0.28996 0.921 0.0
H392 H 0.44365 0.28915 0.8911 0.0
H393 H 0.43945 0.23517 0.89091 0.0
H394 H 0.48484 0.25895 0.88397 0.0
H395 H 0.604 0.21177 0.91885 0.0
H396 H 0.58592 0.14001 0.91672 0.0
H397 H 0.46135 0.17268 0.90881 0.0
C398 C 0.50395 0.33406 0.91159 0.0
C399 C 0.5375 0.35919 0.91468 0.0
C400 C 0.5751 0.34124 0.91816 0.0
C401 C 0.57966 0.2994 0.91838 0.0
C402 C 0.54624 0.2755 0.91531 0.0
C403 C 0.50895 0.29197 0.91216 0.0
C404 C 0.47787 0.25892 0.90972 0.0
C405 C 0.44445 0.26145 0.92224 0.0
C406 C 0.46043 0.26066 0.89293 0.0
C407 C 0.50361 0.22155 0.91199 0.0
C408 C 0.54309 0.23202 0.91496 0.0
C409 C 0.57311 0.20316 0.91671 0.0
C410 C 0.56259 0.16247 0.91544 0.0
C411 C 0.52226 0.15077 0.91278 0.0
C412 C 0.49233 0.18078 0.91112 0.0
H413 H 0.10862 0.30077 0.15985 0.0
H414 H 0.12401 0.17576 0.17315 0.0
H415 H 0.0506 0.16728 0.17421 0.0
H416 H 0.02071 0.31875 0.18527 0.0
H417 H 0.99632 0.35129 0.17124 0.0
H418 H 0.0504 0.34824 0.17173 0.0
H419 H 0.05125 0.3295 0.14206 0.0
H420 H 0.99719 0.33235 0.14149 0.0
H421 H 0.02233 0.28701 0.13531 0.0
H422 H 0.97597 0.17013 0.17183 0.0
H423 H 0.90397 0.18613 0.16858 0.0
H424 H 0.93452 0.31035 0.15877 0.0
C425 C 0.09649 0.27176 0.16314 0.0
C426 C 0.12233 0.23892 0.16641 0.0
C427 C 0.10511 0.20145 0.17064 0.0
C428 C 0.06331 0.19624 0.17124 0.0
C429 C 0.03873 0.22891 0.16779 0.0
C430 C 0.05451 0.26613 0.16404 0.0
C431 C 0.02093 0.29617 0.16095 0.0
C432 C 0.02217 0.33065 0.17302 0.0
C433 C 0.02307 0.31219 0.14394 0.0
C434 C 0.98401 0.26981 0.16337 0.0
C435 C 0.99516 0.23102 0.16716 0.0
C436 C 0.96682 0.20054 0.16909 0.0
C437 C 0.92598 0.20987 0.16717 0.0
C438 C 0.91359 0.2495 0.16361 0.0
C439 C 0.94308 0.27992 0.16178 0.0
H440 H 0.01998 0.94697 0.46194 0.0
H441 H 0.97178 0.06606 0.45416 0.0
H442 H 0.95634 0.07229 0.48257 0.0
H443 H 0.95279 0.91863 0.49724 0.0
H444 H 0.99443 0.89394 0.50676 0.0
H445 H 0.99075 0.89399 0.48551 0.0
H446 H 0.06221 0.92466 0.48375 0.0
H447 H 0.06592 0.92537 0.50489 0.0
H448 H 0.07277 0.97118 0.49387 0.0
H449 H 0.95933 0.07164 0.51179 0.0
H450 H 0.9797 0.06371 0.53961 0.0
H451 H 0.02808 0.94573 0.52862 0.0
C452 C 1.0042 0.97332 0.46619 0.0
C453 C 0.99617 0.00569 0.45599 0.0
C454 C 0.97742 0.04075 0.46189 0.0
C455 C 0.9685 0.04449 0.47797 0.0
C456 C 0.97871 0.01292 0.48797 0.0
C457 C 0.99579 0.97776 0.4823 0.0
C458 C 0.00997 0.9513 0.49571 0.0
C459 C 0.98551 0.91215 0.49634 0.0
C460 C 0.05539 0.94267 0.49447 0.0
C461 C 1.00042 0.97809 0.50967 0.0
C462 C 0.98148 0.01302 0.50501 0.0
C463 C 0.97327 0.04398 0.51565 0.0
C464 C 0.98515 0.0393 0.53143 0.0
C465 C 0.00553 1.00413 0.53634 0.0
C466 C 0.01234 0.97291 0.52532 0.0
H467 H 0.21771 0.74434 0.78385 0.0
H468 H 0.34475 0.72255 0.7911 0.0
H469 H 0.35207 0.70255 0.76326 0.0
H470 H 0.20242 0.66429 0.75117 0.0
H471 H 0.16863 0.69744 0.74086 0.0
H472 H 0.17063 0.69819 0.76213 0.0
H473 H 0.18498 0.7747 0.76144 0.0
H474 H 0.18336 0.77416 0.74029 0.0
H475 H 0.22735 0.79307 0.75025 0.0
H476 H 0.34956 0.70135 0.73407 0.0
H477 H 0.33663 0.71862 0.70615 0.0
H478 H 0.2112 0.73995 0.71758 0.0
C479 C 0.24651 0.73341 0.7797 0.0
C480 C 0.28056 0.73476 0.78955 0.0
C481 C 0.31825 0.72166 0.78368 0.0
C482 C 0.32266 0.70996 0.76791 0.0
C483 C 0.28903 0.71117 0.75817 0.0
C484 C 0.25147 0.72199 0.76389 0.0
C485 C 0.22177 0.72729 0.75055 0.0
C486 C 0.18892 0.69486 0.75122 0.0
C487 C 0.20335 0.76982 0.75065 0.0
C488 C 0.24923 0.72097 0.7365 0.0
C489 C 0.28764 0.71052 0.74109 0.0
C490 C 0.31932 0.70832 0.73026 0.0
C491 C 0.31177 0.71825 0.71442 0.0
C492 C 0.27299 0.73074 0.70969 0.0
C493 C 0.24119 0.73037 0.7208 0.0
H494 H 0.51734 0.05884 0.02904 0.0
H495 H 0.5524 0.93579 0.03893 0.0
H496 H 0.57382 0.92799 0.0111 0.0
H497 H 0.47077 0.03975 0.9949 0.0
H498 H 0.48505 0.08548 0.98496 0.0
H499 H 0.48238 0.08437 0.0061 0.0
H500 H 0.55633 0.10863 0.00777 0.0
H501 H 0.55926 0.10967 0.98651 0.0
H502 H 0.59522 0.08091 -0.0023 0.0
H503 H 0.57815 0.92941 0.98175 0.0
H504 H 0.56165 0.93818 0.95359 0.0
H505 H 0.52345 0.06029 0.96268 0.0
C506 C 0.53053 0.03046 0.02554 0.0
C507 C 0.53313 0.99784 0.03621 0.0
C508 C 0.55032 0.96126 0.03103 0.0
C509 C 0.56275 0.95669 0.01525 0.0
C510 C 0.55828 0.98912 0.00492 0.0
C511 C 0.54277 0.02542 0.00992 0.0
C512 C 0.53525 0.05368 0.99623 0.0
C513 C 0.49074 0.06652 0.99551 0.0
C514 C 0.5632 0.09039 0.99711 0.0
C515 C 0.54646 0.02674 0.98254 0.0
C516 C 0.56082 0.99003 0.98783 0.0
C517 C 0.56809 0.95834 0.97748 0.0
C518 C 0.55867 0.9636 0.96151 0.0
C519 C 0.54204 1.00017 0.95604 0.0
C520 C 0.53756 0.03267 0.96653 0.0
H521 H 0.21786 0.26413 0.21104 0.0
H522 H 0.34094 0.30273 0.20413 0.0
H523 H 0.34723 0.31664 0.23263 0.0
H524 H 0.19398 0.33232 0.24674 0.0
H525 H 0.16538 0.29242 0.25575 0.0
H526 H 0.16651 0.29739 0.23456 0.0
H527 H 0.19082 0.2237 0.23222 0.0
H528 H 0.19044 0.21864 0.25329 0.0
H529 H 0.23592 0.20852 0.2424 0.0
H530 H 0.34554 0.31112 0.262 0.0
H531 H 0.33495 0.28787 0.28948 0.0
H532 H 0.21336 0.25224 0.27724 0.0
C533 C 0.24526 0.27766 0.21546 0.0
C534 C 0.27868 0.28297 0.20547 0.0
C535 C 0.31486 0.29892 0.21167 0.0
C536 C 0.31867 0.30701 0.22782 0.0
C537 C 0.28598 0.29907 0.23762 0.0
C538 C 0.24968 0.28529 0.23163 0.0
C539 C 0.22159 0.27268 0.24478 0.0
C540 C 0.18468 0.30037 0.2455 0.0
C541 C 0.20901 0.22828 0.24306 0.0
C542 C 0.24863 0.279 0.25892 0.0
C543 C 0.28527 0.29519 0.25467 0.0
C544 C 0.31655 0.29942 0.26556 0.0
C545 C 0.31038 0.28605 0.28113 0.0
C546 C 0.27346 0.26809 0.28549 0.0
C547 C 0.242 0.26584 0.2743 0.0
H548 H 0.70941 0.27777 0.21386 0.0
H549 H 0.81613 0.20747 0.20333 0.0
H550 H 0.81618 0.18216 0.23078 0.0
H551 H 0.73984 0.31111 0.24983 0.0
H552 H 0.69075 0.30999 0.25888 0.0
H553 H 0.69524 0.31604 0.23791 0.0
H554 H 0.64927 0.25392 0.23377 0.0
H555 H 0.64525 0.24736 0.25484 0.0
H556 H 0.66269 0.20655 0.24262 0.0
H557 H 0.81095 0.17346 0.25996 0.0
H558 H 0.80489 0.18709 0.28852 0.0
H559 H 0.70076 0.26163 0.27994 0.0
C560 C 0.73243 0.25638 0.21714 0.0
C561 C 0.76276 0.24455 0.20637 0.0
C562 C 0.79252 0.21693 0.21133 0.0
C563 C 0.79254 0.20211 0.22686 0.0
C564 C 0.76235 0.21483 0.2372 0.0
C565 C 0.73286 0.24141 0.2325 0.0
C566 C 0.70687 0.25463 0.24624 0.0
C567 C 0.70831 0.30063 0.24834 0.0
C568 C 0.66344 0.2397 0.24424 0.0
C569 C 0.72766 0.23306 0.25964 0.0
C570 C 0.75896 0.20938 0.25413 0.0
C571 C 0.78587 0.19087 0.26439 0.0
C572 C 0.78208 0.19853 0.28059 0.0
C573 C 0.75164 0.22439 0.28632 0.0
C574 C 0.72302 0.24029 0.27583 0.0
H575 H 0.70181 0.74398 0.71423 0.0
H576 H 0.80581 0.81899 0.70589 0.0
H577 H 0.81175 0.83189 0.73451 0.0
H578 H 0.66358 0.79819 0.7519 0.0
H579 H 0.64995 0.75048 0.76043 0.0
H580 H 0.64613 0.75794 0.7394 0.0
H581 H 0.69109 0.69546 0.73499 0.0
H582 H 0.69618 0.68842 0.75589 0.0
H583 H 0.74044 0.69392 0.74378 0.0
H584 H 0.81656 0.82286 0.76369 0.0
H585 H 0.81617 0.79729 0.7911 0.0
H586 H 0.70995 0.72642 0.78035 0.0
C587 C 0.72398 0.76531 0.71843 0.0
C588 C 0.75252 0.78166 0.70798 0.0
C589 C 0.78294 0.80738 0.71379 0.0
C590 C 0.78665 0.81461 0.73002 0.0
C591 C 0.7597 0.7958 0.74023 0.0
C592 C 0.72836 0.77228 0.73464 0.0
C593 C 0.70766 0.75019 0.74799 0.0
C594 C 0.66425 0.76511 0.75006 0.0
C595 C 0.70897 0.70431 0.7455 0.0
C596 C 0.73373 0.76293 0.76174 0.0
C597 C 0.76309 0.78983 0.75714 0.0
C598 C 0.79302 0.80263 0.76754 0.0
C599 C 0.79278 0.78768 0.78305 0.0
C600 C 0.76304 0.75986 0.78795 0.0
C601 C 0.73299 0.74789 0.7771 0.0
H602 H 0.49981 0.4466 0.96311 0.0
H603 H 0.4555 0.56698 0.95511 0.0
H604 H 0.43798 0.57322 0.98324 0.0
H605 H 0.42838 0.42229 -0.00075 0.0
H606 H 0.46904 0.39537 0.00849 0.0
H607 H 0.46351 0.39436 0.98731 0.0
H608 H 0.5368 0.41948 0.9844 0.0
H609 H 0.5424 0.42153 0.00539 0.0
H610 H 0.55145 0.46596 0.99375 0.0
H611 H 0.44642 0.57519 0.01224 0.0
H612 H 0.47428 0.56943 0.03925 0.0
H613 H 0.51139 0.44732 0.02878 0.0
C614 C 0.48385 0.47302 0.96717 0.0
C615 C 0.47863 0.5061 0.95707 0.0
C616 C 0.45933 0.54116 0.96275 0.0
C617 C 0.44924 0.54496 0.97872 0.0
C618 C 0.45814 0.5132 0.9888 0.0
C619 C 0.47393 0.47731 0.98318 0.0
C620 C 0.48753 0.45079 0.99664 0.0
C621 C 0.46049 0.4135 -0.002 0.0
C622 C 0.53216 0.43882 0.99493 0.0
C623 C 0.48094 0.47899 0.01042 0.0
C624 C 0.46282 0.51437 0.00582 0.0
C625 C 0.4593 0.54706 0.01613 0.0
C626 C 0.4754 0.54369 0.03143 0.0
C627 C 0.49526 0.5081 0.03608 0.0
C628 C 0.49645 0.47504 0.02559 0.0
H629 H 0.00479 0.45083 0.53237 0.0
H630 H 0.03992 0.57465 0.53998 0.0
H631 H 0.05799 0.58105 0.51183 0.0
H632 H 0.07923 0.42753 0.49929 0.0
H633 H 0.04212 0.39814 0.48894 0.0
H634 H 0.04168 0.40004 0.51022 0.0
H635 H 0.9675 0.42373 0.50962 0.0
H636 H 0.96779 0.42229 0.48843 0.0
H637 H 0.95447 0.46808 0.49853 0.0
H638 H 0.06083 0.57802 0.48256 0.0
H639 H 0.04698 0.56603 0.45432 0.0
H640 H 0.00808 0.44469 0.46546 0.0
C641 C 0.01801 0.47859 0.52817 0.0
C642 C 0.02168 0.51205 0.53826 0.0
C643 C 0.03737 0.54861 0.53236 0.0
C644 C 0.04786 0.55245 0.51643 0.0
C645 C 0.04232 0.51947 0.50655 0.0
C646 C 0.02797 0.48311 0.51219 0.0
C647 C 0.01905 0.45443 0.49876 0.0
C648 C 0.04721 0.41787 0.49934 0.0
C649 C 0.97458 0.44141 0.49885 0.0
C650 C 0.0286 0.48104 0.48475 0.0
C651 C 0.04293 0.51807 0.48947 0.0
C652 C 0.05044 0.54882 0.47867 0.0
C653 C 0.04239 0.54177 0.46265 0.0
C654 C 0.02644 0.50444 0.45763 0.0
C655 C 0.0205 0.47351 0.46885 0.0
H656 H 0.24243 0.84195 0.62045 0.0
H657 H 0.24269 0.88967 0.66814 0.0
H658 H 0.19919 0.94546 0.65975 0.0
H659 H 0.23944 0.93978 0.59964 0.0
H660 H 0.20549 0.92161 0.58467 0.0
H661 H 0.24034 0.88758 0.59394 0.0
H662 H 0.18109 0.84117 0.6019 0.0
H663 H 0.14607 0.87517 0.59277 0.0
H664 H 0.13993 0.86156 0.61322 0.0
H665 H 0.152 0.99297 0.64704 0.0
H666 H 0.10389 0.03019 0.63036 0.0
H667 H 0.13256 0.95186 0.5909 0.0
C668 C 0.23404 0.86476 0.62897 0.0
C669 C 0.2461 0.86183 0.64489 0.0
C670 C 0.23376 0.89151 0.65586 0.0
C671 C 0.20914 0.92336 0.65122 0.0
C672 C 0.19689 0.92504 0.63556 0.0
C673 C 0.20889 0.89669 0.62455 0.0
C674 C 0.18895 0.90424 0.60874 0.0
C675 C 0.22044 0.91388 0.596 0.0
C676 C 0.16244 0.86841 0.60388 0.0
C677 C 0.1637 0.94085 0.61271 0.0
C678 C 0.16896 0.95244 0.62822 0.0
C679 C 0.14784 0.9845 0.63482 0.0
C680 C 0.12053 0.00538 0.62528 0.0
C681 C 0.11459 0.99399 0.60936 0.0
C682 C 0.13664 0.96141 0.60302 0.0
H683 H 0.32323 0.87279 0.84078 0.0
H684 H 0.2355 0.85778 0.8783 0.0
H685 H 0.26997 0.91049 0.89383 0.0
H686 H 0.4078 0.8852 0.86583 0.0
H687 H 0.43231 0.92164 0.85337 0.0
H688 H 0.39909 0.88489 0.84482 0.0
H689 H 0.35704 0.94201 0.83223 0.0
H690 H 0.38997 0.97899 0.84087 0.0
H691 H 0.33665 0.98108 0.84463 0.0
H692 H 0.31569 0.96136 0.9058 0.0
H693 H 0.37166 0.00486 0.91425 0.0
H694 H 0.43018 0.98782 0.86897 0.0
C695 C 0.31103 0.88079 0.85221 0.0
C696 C 0.27653 0.8613 0.85833 0.0
C697 C 0.2618 0.87236 0.87339 0.0
C698 C 0.28108 0.90238 0.88224 0.0
C699 C 0.315 0.92098 0.87585 0.0
C700 C 0.33001 0.91052 0.86122 0.0
C701 C 0.36831 0.9335 0.85748 0.0
C702 C 0.40397 0.90459 0.85525 0.0
C703 C 0.36263 0.9605 0.84293 0.0
C704 C 0.37281 0.95829 0.87239 0.0
C705 C 0.34147 0.95072 0.88276 0.0
C706 C 0.34004 0.96792 0.89771 0.0
C707 C 0.37192 0.99263 0.90238 0.0
C708 C 0.40475 1.00018 0.89214 0.0
C709 C 0.40482 0.98348 0.87682 0.0
H710 H 0.43273 0.02966 0.12563 0.0
H711 H 0.37078 0.00944 0.08133 0.0
H712 H 0.31557 0.05363 0.08998 0.0
H713 H 0.34157 0.03826 0.15107 0.0
H714 H 0.36294 0.07823 0.16274 0.0
H715 H 0.3952 0.04081 0.15399 0.0
H716 H 0.43622 0.09709 0.14029 0.0
H717 H 0.40384 0.13462 0.14882 0.0
H718 H 0.41073 0.13256 0.12773 0.0
H719 H 0.27049 0.10442 0.10201 0.0
H720 H 0.2366 0.15764 0.11738 0.0
H721 H 0.32745 0.14674 0.15389 0.0
C722 C 0.40684 0.03361 0.11805 0.0
C723 C 0.40548 0.01574 0.10294 0.0
C724 C 0.37201 0.02265 0.09301 0.0
C725 C 0.34055 0.04769 0.09781 0.0
C726 C 0.34312 0.0659 0.11255 0.0
C727 C 0.37522 0.05915 0.1226 0.0
C728 C 0.37182 0.08513 0.13727 0.0
C729 C 0.36762 0.05904 0.15215 0.0
C730 C 0.40779 0.11405 0.1386 0.0
C731 C 0.33317 0.10765 0.13376 0.0
C732 C 0.3171 0.09594 0.11946 0.0
C733 C 0.28247 0.11357 0.11333 0.0
C734 C 0.26352 0.14387 0.1221 0.0
C735 C 0.27926 0.15621 0.13683 0.0
C736 C 0.31452 0.13773 0.14271 0.0
H737 H 0.12625 0.0538 0.4034 0.0
H738 H 0.10848 0.97045 0.36459 0.0
H739 H 0.16024 0.00662 0.34912 0.0
H740 H 0.13601 0.1408 0.37956 0.0
H741 H 0.17313 0.16447 0.39196 0.0
H742 H 0.1373 0.13007 0.40041 0.0
H743 H 0.19568 0.08743 0.41173 0.0
H744 H 0.23174 0.1216 0.40321 0.0
H745 H 0.23413 0.06876 0.39862 0.0
H746 H 0.21071 0.05326 0.33751 0.0
H747 H 0.25405 0.10966 0.32957 0.0
H748 H 0.23889 0.16427 0.37573 0.0
C749 C 0.13346 0.04286 0.39171 0.0
C750 C 0.11347 0.00912 0.3852 0.0
C751 C 0.12347 0.99614 0.36979 0.0
C752 C 0.15293 0.01639 0.36097 0.0
C753 C 0.17191 0.04963 0.36772 0.0
C754 C 0.16244 0.06298 0.38269 0.0
C755 C 0.18532 0.1011 0.38678 0.0
C756 C 0.1562 0.13618 0.38985 0.0
C757 C 0.21339 0.09429 0.40092 0.0
C758 C 0.20901 0.10736 0.37167 0.0
C759 C 0.20096 0.07702 0.36093 0.0
C760 C 0.21747 0.07696 0.34585 0.0
C761 C 0.24205 0.10917 0.34147 0.0
C762 C 0.25003 0.14113 0.35208 0.0
C763 C 0.23395 0.13982 0.36751 0.0
H764 H 0.99222 0.12918 0.38713 0.0
H765 H 0.92238 0.01895 0.38859 0.0
H766 H 0.86441 0.05492 0.37703 0.0
H767 H 0.91207 0.19624 0.3974 0.0
H768 H 0.929 0.2355 0.38434 0.0
H769 H 0.96477 0.20105 0.39276 0.0
H770 H 0.99006 0.18199 0.36477 0.0
H771 H 0.95476 0.21675 0.35628 0.0
H772 H 0.95449 0.16484 0.3502 0.0
H773 H 0.8134 0.10423 0.36541 0.0
H774 H 0.77665 0.1605 0.35285 0.0
H775 H 0.881 0.23715 0.35929 0.0
C776 C 0.96484 0.1124 0.38501 0.0
C777 C 0.96198 0.07115 0.38882 0.0
C778 C 0.92547 0.05052 0.38576 0.0
C779 C 0.89226 0.07076 0.37927 0.0
C780 C 0.89603 0.1116 0.37589 0.0
C781 C 0.93157 0.13203 0.37856 0.0
C782 C 0.92843 0.17557 0.37364 0.0
C783 C 0.93388 0.20374 0.38789 0.0
C784 C 0.95872 0.18534 0.36044 0.0
C785 C 0.88565 0.1765 0.36764 0.0
C786 C 0.86717 0.13951 0.36915 0.0
C787 C 0.82763 0.13331 0.36419 0.0
C788 C 0.80689 0.16551 0.35715 0.0
C789 C 0.82592 0.20324 0.35504 0.0
C790 C 0.86555 0.2087 0.36066 0.0
H791 H 0.53116 0.12377 0.10952 0.0
H792 H 0.60617 0.01805 0.10383 0.0
H793 H 0.66318 0.05476 0.11597 0.0
H794 H 0.60471 0.19548 0.09969 0.0
H795 H 0.58797 0.23215 0.11392 0.0
H796 H 0.55275 0.19672 0.10576 0.0
H797 H 0.53343 0.17288 0.1339 0.0
H798 H 0.5682 0.20865 0.14216 0.0
H799 H 0.57229 0.1562 0.14718 0.0
H800 H 0.71333 0.10566 0.12742 0.0
H801 H 0.75003 0.16359 0.13875 0.0
H802 H 0.64083 0.23481 0.13657 0.0
C803 C 0.5594 0.10801 0.11094 0.0
C804 C 0.56412 0.06795 0.10567 0.0
C805 C 0.60168 0.04862 0.10784 0.0
C806 C 0.63429 0.06933 0.11465 0.0
C807 C 0.62876 0.10921 0.11932 0.0
C808 C 0.59202 0.12809 0.1177 0.0
C809 C 0.59365 0.17116 0.12337 0.0
C810 C 0.58422 0.2006 0.10988 0.0
C811 C 0.56521 0.17758 0.13749 0.0
C812 C 0.63723 0.17392 0.12832 0.0
C813 C 0.65713 0.13799 0.1259 0.0
C814 C 0.69789 0.13382 0.12943 0.0
C815 C 0.71855 0.167 0.1358 0.0
C816 C 0.69843 0.20391 0.1386 0.0
C817 C 0.65726 0.20716 0.13465 0.0
H818 H 0.63971 0.76725 0.85886 0.0
H819 H 0.74521 0.84311 0.85364 0.0
H820 H 0.70725 0.90035 0.86472 0.0
H821 H 0.56644 0.84146 0.8485 0.0
H822 H 0.52995 0.82465 0.8628 0.0
H823 H 0.56536 0.78952 0.85452 0.0
H824 H 0.5894 0.77025 0.8826 0.0
H825 H 0.55378 0.80499 0.89097 0.0
H826 H 0.60635 0.80909 0.89587 0.0
H827 H 0.65698 0.94993 0.87585 0.0
H828 H 0.60031 0.98638 0.88808 0.0
H829 H 0.52819 0.87762 0.88632 0.0
C830 C 0.65499 0.79582 0.86007 0.0
C831 C 0.69555 0.80056 0.85531 0.0
C832 C 0.71426 0.83856 0.85721 0.0
C833 C 0.69287 0.87135 0.86343 0.0
C834 C 0.65282 0.86571 0.86777 0.0
C835 C 0.63419 0.82878 0.86631 0.0
C836 C 0.59109 0.83042 0.87212 0.0
C837 C 0.56147 0.82096 0.85868 0.0
C838 C 0.58481 0.80201 0.88623 0.0
C839 C 0.58836 0.87406 0.87709 0.0
C840 C 0.62416 0.894 0.87438 0.0
C841 C 0.62883 0.93457 0.87805 0.0
C842 C 0.59634 0.95509 0.88494 0.0
C843 C 0.55965 0.93498 0.88822 0.0
C844 C 0.55572 0.89399 0.88401 0.0
H845 H 0.89472 0.7767 0.64241 0.0
H846 H 0.78121 0.84053 0.63911 0.0
H847 H 0.81599 0.89762 0.62642 0.0
H848 H 0.95636 0.86196 0.65122 0.0
H849 H 0.99827 0.84474 0.63953 0.0
H850 H 0.96443 0.8089 0.64833 0.0
H851 H 0.95075 0.77732 0.62087 0.0
H852 H 0.98492 0.81274 0.61202 0.0
H853 H 0.93399 0.80895 0.60491 0.0
H854 H 0.86424 0.94888 0.61444 0.0
H855 H 0.92054 0.9866 0.60222 0.0
H856 H 1.00128 0.88822 0.61338 0.0
C857 C 0.87704 0.80257 0.63899 0.0
C858 C 0.83516 0.80401 0.64182 0.0
C859 C 0.81329 0.83852 0.63705 0.0
C860 C 0.83281 0.87126 0.6299 0.0
C861 C 0.87422 0.86904 0.62752 0.0
C862 C 0.89596 0.83536 0.63179 0.0
C863 C 0.93999 0.83999 0.62766 0.0
C864 C 0.9663 0.83884 0.64258 0.0
C865 C 0.95317 0.80786 0.61565 0.0
C866 C 0.93966 0.88148 0.62037 0.0
C867 C 0.90159 0.89802 0.62048 0.0
C868 C 0.89417 0.93616 0.61427 0.0
C869 C 0.92636 0.95748 0.60744 0.0
C870 C 0.96533 0.94041 0.60677 0.0
C871 C 0.97187 0.90217 0.6136 0.0
H872 H 0.72065 0.37161 0.15258 0.0
H873 H 0.79779 0.3443 0.11261 0.0
H874 H 0.76132 0.3948 0.09665 0.0
H875 H 0.63069 0.38111 0.13059 0.0
H876 H 0.61047 0.42117 0.14253 0.0
H877 H 0.64467 0.38542 0.15108 0.0
H878 H 0.69137 0.44361 0.15987 0.0
H879 H 0.65739 0.47959 0.15125 0.0
H880 H 0.70951 0.47895 0.14539 0.0
H881 H 0.71473 0.44525 0.08482 0.0
H882 H 0.65912 0.4898 0.07715 0.0
H883 H 0.61085 0.48407 0.12472 0.0
C884 C 0.7302 0.37642 0.14051 0.0
C885 C 0.76225 0.3541 0.13383 0.0
C886 C 0.77345 0.36112 0.11796 0.0
C887 C 0.75299 0.38982 0.10885 0.0
C888 C 0.72141 0.41111 0.1158 0.0
C889 C 0.70992 0.40465 0.13124 0.0
C890 C 0.67341 0.42974 0.13559 0.0
C891 C 0.6377 0.40275 0.14022 0.0
C892 C 0.68354 0.45976 0.14881 0.0
C893 C 0.66578 0.45114 0.1201 0.0
C894 C 0.69413 0.44012 0.10891 0.0
C895 C 0.6926 0.45429 0.0935 0.0
C896 C 0.66084 0.4796 0.08928 0.0
C897 C 0.63081 0.49059 0.10037 0.0
C898 C 0.63377 0.47679 0.11609 0.0
H899 H 0.78447 0.34092 0.37388 0.0
H900 H 0.78534 0.38819 0.32615 0.0
H901 H 0.83229 0.44149 0.33427 0.0
H902 H 0.79339 0.43851 0.39452 0.0
H903 H 0.82672 0.41887 0.40939 0.0
H904 H 0.78996 0.38649 0.4003 0.0
H905 H 0.84659 0.33712 0.39221 0.0
H906 H 0.88353 0.36949 0.40115 0.0
H907 H 0.88844 0.35528 0.38069 0.0
H908 H 0.8818 0.48689 0.34673 0.0
H909 H 0.9311 0.52292 0.36325 0.0
H910 H 0.9005 0.44625 0.40296 0.0
C911 C 0.79389 0.36314 0.3653 0.0
C912 C 0.78107 0.3608 0.34944 0.0
C913 C 0.79478 0.38963 0.33838 0.0
C914 C 0.82139 0.42003 0.34287 0.0
C915 C 0.8343 0.42112 0.35846 0.0
C916 C 0.82107 0.39361 0.36956 0.0
C917 C 0.84179 0.4004 0.38529 0.0
C918 C 0.81113 0.41175 0.39813 0.0
C919 C 0.86656 0.36337 0.39011 0.0
C920 C 0.86879 0.43569 0.38118 0.0
C921 C 0.86375 0.4472 0.36566 0.0
C922 C 0.88587 0.47841 0.35896 0.0
C923 C 0.91385 0.49864 0.36841 0.0
C924 C 0.91955 0.48747 0.38437 0.0
C925 C 0.89669 0.45554 0.3908 0.0
H926 H 0.88833 0.54917 0.59151 0.0
H927 H 0.92437 0.47851 0.63215 0.0
H928 H 0.87659 0.51673 0.6488 0.0
H929 H 0.88123 0.64205 0.61154 0.0
H930 H 0.8384 0.65972 0.60054 0.0
H931 H 0.87295 0.62479 0.59163 0.0
H932 H 0.81411 0.57585 0.58591 0.0
H933 H 0.77932 0.61063 0.59485 0.0
H934 H 0.78217 0.55963 0.6019 0.0
H935 H 0.82851 0.56494 0.66119 0.0
H936 H 0.78407 0.62066 0.66893 0.0
H937 H 0.77874 0.66076 0.62023 0.0
C938 C 0.88591 0.54137 0.60388 0.0
C939 C 0.91 0.51071 0.61055 0.0
C940 C 0.90612 0.50173 0.6268 0.0
C941 C 0.87903 0.52324 0.63632 0.0
C942 C 0.85603 0.55351 0.62938 0.0
C943 C 0.85917 0.5626 0.61354 0.0
C944 C 0.83254 0.59793 0.60917 0.0
C945 C 0.85779 0.6332 0.60285 0.0
C946 C 0.80011 0.58524 0.59725 0.0
C947 C 0.81424 0.60772 0.62511 0.0
C948 C 0.82811 0.58148 0.63655 0.0
C949 C 0.81718 0.58538 0.65232 0.0
C950 C 0.79194 0.61721 0.65658 0.0
C951 C 0.77774 0.64488 0.64516 0.0
C952 C 0.78855 0.63967 0.62916 0.0
H953 H 0.72588 0.63021 0.84286 0.0
H954 H 0.79221 0.67316 0.88364 0.0
H955 H 0.75382 0.62652 0.90068 0.0
H956 H 0.63159 0.62285 0.8618 0.0
H957 H 0.61595 0.57817 0.85145 0.0
H958 H 0.65076 0.61245 0.8423 0.0
H959 H 0.70171 0.55442 0.83839 0.0
H960 H 0.66704 0.5199 0.84755 0.0
H961 H 0.71734 0.52511 0.85519 0.0
H962 H 0.70534 0.57943 0.91341 0.0
H963 H 0.6499 0.53473 0.92131 0.0
H964 H 0.6148 0.52108 0.87228 0.0
C965 C 0.73272 0.6295 0.85535 0.0
C966 C 0.76217 0.65527 0.86194 0.0
C967 C 0.76993 0.65362 0.87834 0.0
C968 C 0.74831 0.62719 0.88809 0.0
C969 C 0.71918 0.60256 0.88123 0.0
C970 C 0.7114 0.60338 0.86523 0.0
C971 C 0.67713 0.57522 0.86096 0.0
C972 C 0.64177 0.59857 0.85371 0.0
C973 C 0.69169 0.54167 0.84986 0.0
C974 C 0.66642 0.55879 0.87711 0.0
C975 C 0.69125 0.57494 0.88859 0.0
C976 C 0.68606 0.56626 0.90452 0.0
C977 C 0.6544 0.54088 0.90888 0.0
C978 C 0.62829 0.5242 0.89739 0.0
C979 C 0.63477 0.53279 0.88126 0.0
H980 H 0.49399 0.63169 0.89111 0.0
H981 H 0.43146 0.51773 0.88653 0.0
H982 H 0.37346 0.55323 0.87452 0.0
H983 H 0.40924 0.68893 0.9025 0.0
H984 H 0.42514 0.73329 0.892 0.0
H985 H 0.46202 0.69848 0.89937 0.0
H986 H 0.49214 0.69052 0.87128 0.0
H987 H 0.4559 0.72591 0.8639 0.0
H988 H 0.45968 0.67668 0.85513 0.0
H989 H 0.32099 0.60367 0.86346 0.0
H990 H 0.28302 0.6619 0.85286 0.0
H991 H 0.38111 0.74077 0.86633 0.0
C992 C 0.46841 0.61381 0.88747 0.0
C993 C 0.46749 0.57175 0.88977 0.0
C994 C 0.4331 0.54992 0.88481 0.0
C995 C 0.39989 0.5699 0.87808 0.0
C996 C 0.40152 0.61165 0.87646 0.0
C997 C 0.4352 0.63313 0.88094 0.0
C998 C 0.42995 0.67766 0.87828 0.0
C999 C 0.43168 0.70094 0.89397 0.0
C1000 C 0.46126 0.69361 0.86644 0.0
C1001 C 0.38811 0.67816 0.87142 0.0
C1002 C 0.37185 0.64002 0.87048 0.0
C1003 C 0.33354 0.63362 0.86419 0.0
C1004 C 0.31203 0.66691 0.85832 0.0
C1005 C 0.32902 0.70598 0.85874 0.0
C1006 C 0.36714 0.7114 0.86576 0.0
H1007 H 0.0254 0.62809 0.61121 0.0
H1008 H 0.10082 0.52384 0.6027 0.0
H1009 H 0.15875 0.55986 0.6143 0.0
H1010 H 0.09843 0.70279 0.60204 0.0
H1011 H 0.08237 0.73675 0.61739 0.0
H1012 H 0.04686 0.70253 0.60864 0.0
H1013 H 0.02952 0.67384 0.63626 0.0
H1014 H 0.06464 0.7083 0.64512 0.0
H1015 H 0.06932 0.65512 0.64867 0.0
H1016 H 0.20926 0.60887 0.62637 0.0
H1017 H 0.24599 0.66432 0.63952 0.0
H1018 H 0.13642 0.73522 0.63997 0.0
C1019 C 0.05401 0.61266 0.61181 0.0
C1020 C 0.05847 0.5731 0.60598 0.0
C1021 C 0.09652 0.55408 0.60712 0.0
C1022 C 0.12969 0.57437 0.61362 0.0
C1023 C 0.1243 0.61359 0.61903 0.0
C1024 C 0.08726 0.63232 0.61831 0.0
C1025 C 0.08904 0.67432 0.62511 0.0
C1026 C 0.07857 0.70595 0.61254 0.0
C1027 C 0.06151 0.67809 0.63965 0.0
C1028 C 0.13294 0.67647 0.62968 0.0
C1029 C 0.15295 0.6413 0.62605 0.0
C1030 C 0.19381 0.63651 0.62929 0.0
C1031 C 0.2145 0.66824 0.6367 0.0
C1032 C 0.1942 0.70418 0.64084 0.0
C1033 C 0.15298 0.70821 0.63704 0.0
H1034 H 0.1084 0.4168 0.40248 0.0
H1035 H 0.0362 0.46206 0.36391 0.0
H1036 H 0.07522 0.42066 0.34508 0.0
H1037 H 0.2058 0.40962 0.37876 0.0
H1038 H 0.2207 0.36472 0.38909 0.0
H1039 H 0.19126 0.40248 0.39908 0.0
H1040 H 0.13813 0.34847 0.40609 0.0
H1041 H 0.16683 0.31075 0.39587 0.0
H1042 H 0.11517 0.3196 0.39048 0.0
H1043 H 0.11225 0.36558 0.33161 0.0
H1044 H 0.15275 0.30712 0.32325 0.0
H1045 H 0.20602 0.30046 0.36986 0.0
C1046 C 0.10223 0.41923 0.38997 0.0
C1047 C 0.07013 0.44319 0.38448 0.0
C1048 C 0.0615 0.44469 0.36817 0.0
C1049 C 0.08331 0.42108 0.35745 0.0
C1050 C 0.11403 0.39672 0.36324 0.0
C1051 C 0.12435 0.39643 0.37905 0.0
C1052 C 0.15726 0.36587 0.38226 0.0
C1053 C 0.19606 0.38693 0.38761 0.0
C1054 C 0.14349 0.33431 0.39439 0.0
C1055 C 0.16223 0.34753 0.36597 0.0
C1056 C 0.13693 0.36586 0.3552 0.0
C1057 C 0.133 0.35175 0.3398 0.0
C1058 C 0.15581 0.31836 0.3352 0.0
C1059 C 0.18262 0.29973 0.34588 0.0
C1060 C 0.18621 0.31474 0.36142 0.0
H1061 H 0.47275 0.44347 0.12028 0.0
H1062 H 0.45952 0.39924 0.07244 0.0
H1063 H 0.39999 0.35981 0.08049 0.0
H1064 H 0.45187 0.35047 0.13834 0.0
H1065 H 0.4256 0.3713 0.15508 0.0
H1066 H 0.46325 0.40061 0.14508 0.0
H1067 H 0.4111 0.45739 0.14076 0.0
H1068 H 0.37311 0.42787 0.15058 0.0
H1069 H 0.36443 0.44623 0.13087 0.0
H1070 H 0.34462 0.32222 0.09379 0.0
H1071 H 0.30362 0.28142 0.11222 0.0
H1072 H 0.35517 0.34554 0.15181 0.0
C1073 C 0.45679 0.42592 0.11153 0.0
C1074 C 0.47028 0.42448 0.09574 0.0
C1075 C 0.44945 0.40058 0.0846 0.0
C1076 C 0.41544 0.37843 0.08903 0.0
C1077 C 0.40285 0.38013 0.1047 0.0
C1078 C 0.42321 0.40273 0.11586 0.0
C1079 C 0.40625 0.39543 0.13224 0.0
C1080 C 0.43867 0.37843 0.14333 0.0
C1081 C 0.38762 0.43404 0.13901 0.0
C1082 C 0.37407 0.36443 0.12858 0.0
C1083 C 0.37181 0.35697 0.11255 0.0
C1084 C 0.34569 0.32818 0.10634 0.0
C1085 C 0.32229 0.30538 0.11684 0.0
C1086 C 0.32566 0.31124 0.1333 0.0
C1087 C 0.35129 0.34154 0.13921 0.0
loop_
_geom_bond_atom_site_label_1
_geom_bond_atom_site_label_2
_geom_bond_distance
_geom_bond_site_symmetry_2
_ccdc_geom_bond_type
Co0 O1 2.216 . S
Co0 O2 2.091 1_455 S
Co0 O4 2.004 1_455 S
Co0 O10 2.021 1_455 S
Co0 O12 2.137 . S
Co0 O13 2.244 1_545 S
O1 Co0 2.216 . S
O1 C8 1.247 . S
O2 Co0 2.091 1_655 S
O2 C8 1.261 1_655 S
C3 O12 1.247 . S
C3 O13 1.272 1_545 S
O4 Co0 2.004 1_655 S
O4 C9 1.259 1_545 S
Co5 O6 2.061 1_455 S
Co5 O11 2.052 . S
Co5 O13 2.135 . S
O6 Co5 2.061 1_655 S
O6 C9 1.235 . S
C7 O10 1.238 1_455 S
C7 O11 1.241 1_545 S
C8 O1 1.247 . S
C8 O2 1.261 1_455 S
C9 O4 1.259 1_565 S
C9 O6 1.235 . S
O10 Co0 2.021 1_655 S
O10 C7 1.238 1_655 S
O11 Co5 2.052 . S
O11 C7 1.241 1_565 S
O12 Co0 2.137 . S
O12 C3 1.247 . S
O13 Co0 2.244 1_565 S
O13 C3 1.272 1_565 S
O13 Co5 2.135 . S
Co14 O15 2.216 . S
Co14 O16 2.091 . S
Co14 O18 2.004 . S
Co14 O24 2.021 . S
Co14 O26 2.137 . S
Co14 O27 2.244 . S
O15 Co14 2.216 . S
O15 C22 1.247 . S
O16 Co14 2.091 . S
O16 C22 1.261 . S
C17 O26 1.247 . S
C17 O27 1.272 . S
O18 Co14 2.004 . S
O18 C23 1.259 . S
Co19 O20 2.061 . S
Co19 O25 2.052 . S
Co19 O27 2.135 . S
O20 Co19 2.061 . S
O20 C23 1.235 . S
C21 O24 1.238 . S
C21 O25 1.241 . S
C22 O15 1.247 . S
C22 O16 1.261 . S
C23 O18 1.259 . S
C23 O20 1.235 . S
O24 Co14 2.021 . S
O24 C21 1.238 . S
O25 Co19 2.052 . S
O25 C21 1.241 . S
O26 Co14 2.137 . S
O26 C17 1.247 . S
O27 Co14 2.244 . S
O27 C17 1.272 . S
O27 Co19 2.135 . S
Co28 O29 2.216 . S
Co28 O30 2.091 . S
Co28 O32 2.004 . S
Co28 O38 2.021 . S
Co28 O40 2.137 . S
Co28 O41 2.244 1_565 S
O29 Co28 2.216 . S
O29 C36 1.247 . S
O30 Co28 2.091 . S
O30 C36 1.261 . S
C31 O40 1.247 . S
C31 O41 1.272 1_565 S
O32 Co28 2.004 . S
O32 C37 1.259 1_565 S
Co33 O34 2.061 . S
Co33 O39 2.052 . S
Co33 O41 2.135 . S
O34 Co33 2.061 . S
O34 C37 1.235 . S
C35 O38 1.238 . S
C35 O39 1.241 1_565 S
C36 O29 1.247 . S
C36 O30 1.261 . S
C37 O32 1.259 1_545 S
C37 O34 1.235 . S
O38 Co28 2.021 . S
O38 C35 1.238 . S
O39 Co33 2.052 . S
O39 C35 1.241 1_545 S
O40 Co28 2.137 . S
O40 C31 1.247 . S
O41 Co28 2.244 1_545 S
O41 C31 1.272 1_545 S
O41 Co33 2.135 . S
Co42 O43 2.216 . S
Co42 O44 2.091 . S
Co42 O46 2.004 . S
Co42 O52 2.021 . S
Co42 O54 2.137 . S
Co42 O55 2.244 . S
O43 Co42 2.216 . S
O43 C50 1.247 . S
O44 Co42 2.091 . S
O44 C50 1.261 . S
C45 O54 1.247 . S
C45 O55 1.272 . S
O46 Co42 2.004 . S
O46 C51 1.259 . S
Co47 O48 2.061 . S
Co47 O53 2.052 . S
Co47 O55 2.135 . S
O48 Co47 2.061 . S
O48 C51 1.235 . S
C49 O52 1.238 . S
C49 O53 1.241 . S
C50 O43 1.247 . S
C50 O44 1.261 . S
C51 O46 1.259 . S
C51 O48 1.235 . S
O52 Co42 2.021 . S
O52 C49 1.238 . S
O53 Co47 2.052 . S
O53 C49 1.241 . S
O54 Co42 2.137 . S
O54 C45 1.247 . S
O55 Co42 2.244 . S
O55 C45 1.272 . S
O55 Co47 2.135 . S
Co56 O57 2.216 . S
Co56 O58 2.091 1_455 S
Co56 O60 2.004 1_455 S
Co56 O66 2.021 1_455 S
Co56 O68 2.137 . S
Co56 O69 2.244 1_565 S
O57 Co56 2.216 . S
O57 C64 1.247 . S
O58 Co56 2.091 1_655 S
O58 C64 1.261 1_655 S
C59 O68 1.247 . S
C59 O69 1.272 1_565 S
O60 Co56 2.004 1_655 S
O60 C65 1.259 1_565 S
Co61 O62 2.061 1_455 S
Co61 O67 2.052 . S
Co61 O69 2.135 . S
O62 Co61 2.061 1_655 S
O62 C65 1.235 . S
C63 O66 1.238 1_455 S
C63 O67 1.241 1_565 S
C64 O57 1.247 . S
C64 O58 1.261 1_455 S
C65 O60 1.259 1_545 S
C65 O62 1.235 . S
O66 Co56 2.021 1_655 S
O66 C63 1.238 1_655 S
O67 Co61 2.052 . S
O67 C63 1.241 1_545 S
O68 Co56 2.137 . S
O68 C59 1.247 . S
O69 Co56 2.244 1_545 S
O69 C59 1.272 1_545 S
O69 Co61 2.135 . S
Co70 O71 2.216 . S
Co70 O72 2.091 . S
Co70 O74 2.004 . S
Co70 O80 2.021 . S
Co70 O82 2.137 . S
Co70 O83 2.244 . S
O71 Co70 2.216 . S
O71 C78 1.247 . S
O72 Co70 2.091 . S
O72 C78 1.261 . S
C73 O82 1.247 . S
C73 O83 1.272 . S
O74 Co70 2.004 . S
O74 C79 1.259 . S
Co75 O76 2.061 . S
Co75 O81 2.052 . S
Co75 O83 2.135 . S
O76 Co75 2.061 . S
O76 C79 1.235 . S
C77 O80 1.238 . S
C77 O81 1.241 . S
C78 O71 1.247 . S
C78 O72 1.261 . S
C79 O74 1.259 . S
C79 O76 1.235 . S
O80 Co70 2.021 . S
O80 C77 1.238 . S
O81 Co75 2.052 . S
O81 C77 1.241 . S
O82 Co70 2.137 . S
O82 C73 1.247 . S
O83 Co70 2.244 . S
O83 C73 1.272 . S
O83 Co75 2.135 . S
Co84 O85 2.216 . S
Co84 O86 2.091 . S
Co84 O88 2.004 . S
Co84 O94 2.021 . S
Co84 O96 2.137 . S
Co84 O97 2.244 1_545 S
O85 Co84 2.216 . S
O85 C92 1.247 . S
O86 Co84 2.091 . S
O86 C92 1.261 . S
C87 O96 1.247 . S
C87 O97 1.272 1_545 S
O88 Co84 2.004 . S
O88 C93 1.259 1_545 S
Co89 O90 2.061 . S
Co89 O95 2.052 . S
Co89 O97 2.135 . S
O90 Co89 2.061 . S
O90 C93 1.235 . S
C91 O94 1.238 . S
C91 O95 1.241 1_545 S
C92 O85 1.247 . S
C92 O86 1.261 . S
C93 O88 1.259 1_565 S
C93 O90 1.235 . S
O94 Co84 2.021 . S
O94 C91 1.238 . S
O95 Co89 2.052 . S
O95 C91 1.241 1_565 S
O96 Co84 2.137 . S
O96 C87 1.247 . S
O97 Co84 2.244 1_565 S
O97 C87 1.272 1_565 S
O97 Co89 2.135 . S
Co98 O99 2.216 . S
Co98 O100 2.091 . S
Co98 O102 2.004 . S
Co98 O108 2.021 . S
Co98 O110 2.137 . S
Co98 O111 2.244 . S
O99 Co98 2.216 . S
O99 C106 1.247 . S
O100 Co98 2.091 . S
O100 C106 1.261 . S
C101 O110 1.247 . S
C101 O111 1.272 . S
O102 Co98 2.004 . S
O102 C107 1.259 . S
Co103 O104 2.061 . S
Co103 O109 2.052 . S
Co103 O111 2.135 . S
O104 Co103 2.061 . S
O104 C107 1.235 . S
C105 O108 1.238 . S
C105 O109 1.241 . S
C106 O99 1.247 . S
C106 O100 1.261 . S
C107 O102 1.259 . S
C107 O104 1.235 . S
O108 Co98 2.021 . S
O108 C105 1.238 . S
O109 Co103 2.052 . S
O109 C105 1.241 . S
O110 Co98 2.137 . S
O110 C101 1.247 . S
O111 Co98 2.244 . S
O111 C101 1.272 . S
O111 Co103 2.135 . S
Co112 O113 2.216 . S
Co112 O114 2.091 . S
Co112 O116 2.004 . S
Co112 O122 2.021 . S
Co112 O124 2.137 . S
Co112 O125 2.244 . S
O113 Co112 2.216 . S
O113 C120 1.247 . S
O114 Co112 2.091 . S
O114 C120 1.261 . S
C115 O124 1.247 . S
C115 O125 1.272 . S
O116 Co112 2.004 . S
O116 C121 1.259 . S
Co117 O118 2.061 . S
Co117 O123 2.052 . S
Co117 O125 2.135 . S
O118 Co117 2.061 . S
O118 C121 1.235 . S
C119 O122 1.238 . S
C119 O123 1.241 . S
C120 O113 1.247 . S
C120 O114 1.261 . S
C121 O116 1.259 . S
C121 O118 1.235 . S
O122 Co112 2.021 . S
O122 C119 1.238 . S
O123 Co117 2.052 . S
O123 C119 1.241 . S
O124 Co112 2.137 . S
O124 C115 1.247 . S
O125 Co112 2.244 . S
O125 C115 1.272 . S
O125 Co117 2.135 . S
Co126 O127 2.216 . S
Co126 O128 2.091 . S
Co126 O130 2.004 . S
Co126 O136 2.021 . S
Co126 O138 2.137 . S
Co126 O139 2.244 . S
O127 Co126 2.216 . S
O127 C134 1.247 . S
O128 Co126 2.091 . S
O128 C134 1.261 . S
C129 O138 1.247 . S
C129 O139 1.272 . S
O130 Co126 2.004 . S
O130 C135 1.259 . S
Co131 O132 2.061 . S
Co131 O137 2.052 . S
Co131 O139 2.135 . S
O132 Co131 2.061 . S
O132 C135 1.235 . S
C133 O136 1.238 . S
C133 O137 1.241 . S
C134 O127 1.247 . S
C134 O128 1.261 . S
C135 O130 1.259 . S
C135 O132 1.235 . S
O136 Co126 2.021 . S
O136 C133 1.238 . S
O137 Co131 2.052 . S
O137 C133 1.241 . S
O138 Co126 2.137 . S
O138 C129 1.247 . S
O139 Co126 2.244 . S
O139 C129 1.272 . S
O139 Co131 2.135 . S
Co140 O141 2.216 . S
Co140 O142 2.091 . S
Co140 O144 2.004 . S
Co140 O150 2.021 . S
Co140 O152 2.137 . S
Co140 O153 2.244 . S
O141 Co140 2.216 . S
O141 C148 1.247 . S
O142 Co140 2.091 . S
O142 C148 1.261 . S
C143 O152 1.247 . S
C143 O153 1.272 . S
O144 Co140 2.004 . S
O144 C149 1.259 . S
Co145 O146 2.061 . S
Co145 O151 2.052 . S
Co145 O153 2.135 . S
O146 Co145 2.061 . S
O146 C149 1.235 . S
C147 O150 1.238 . S
C147 O151 1.241 . S
C148 O141 1.247 . S
C148 O142 1.261 . S
C149 O144 1.259 . S
C149 O146 1.235 . S
O150 Co140 2.021 . S
O150 C147 1.238 . S
O151 Co145 2.052 . S
O151 C147 1.241 . S
O152 Co140 2.137 . S
O152 C143 1.247 . S
O153 Co140 2.244 . S
O153 C143 1.272 . S
O153 Co145 2.135 . S
Co154 O155 2.216 . S
Co154 O156 2.091 . S
Co154 O158 2.004 . S
Co154 O164 2.021 . S
Co154 O166 2.137 . S
Co154 O167 2.244 . S
O155 Co154 2.216 . S
O155 C162 1.247 . S
O156 Co154 2.091 . S
O156 C162 1.261 . S
C157 O166 1.247 . S
C157 O167 1.272 . S
O158 Co154 2.004 . S
O158 C163 1.259 . S
Co159 O160 2.061 . S
Co159 O165 2.052 . S
Co159 O167 2.135 . S
O160 Co159 2.061 . S
O160 C163 1.235 . S
C161 O164 1.238 . S
C161 O165 1.241 . S
C162 O155 1.247 . S
C162 O156 1.261 . S
C163 O158 1.259 . S
C163 O160 1.235 . S
O164 Co154 2.021 . S
O164 C161 1.238 . S
O165 Co159 2.052 . S
O165 C161 1.241 . S
O166 Co154 2.137 . S
O166 C157 1.247 . S
O167 Co154 2.244 . S
O167 C157 1.272 . S
O167 Co159 2.135 . S
Co168 O169 2.216 . S
Co168 O170 2.091 . S
Co168 O172 2.004 . S
Co168 O178 2.021 . S
Co168 O180 2.137 . S
Co168 O181 2.244 . S
O169 Co168 2.216 . S
O169 C176 1.247 . S
O170 Co168 2.091 . S
O170 C176 1.261 . S
C171 O180 1.247 . S
C171 O181 1.272 . S
O172 Co168 2.004 . S
O172 C177 1.259 . S
Co173 O174 2.061 . S
Co173 O179 2.052 . S
Co173 O181 2.135 . S
O174 Co173 2.061 . S
O174 C177 1.235 . S
C175 O178 1.238 . S
C175 O179 1.241 . S
C176 O169 1.247 . S
C176 O170 1.261 . S
C177 O172 1.259 . S
C177 O174 1.235 . S
O178 Co168 2.021 . S
O178 C175 1.238 . S
O179 Co173 2.052 . S
O179 C175 1.241 . S
O180 Co168 2.137 . S
O180 C171 1.247 . S
O181 Co168 2.244 . S
O181 C171 1.272 . S
O181 Co173 2.135 . S
Co182 O183 2.216 1_455 S
Co182 O184 2.091 . S
Co182 O186 2.004 . S
Co182 O192 2.021 . S
Co182 O194 2.137 1_455 S
Co182 O195 2.244 1_455 S
O183 Co182 2.216 1_655 S
O183 C190 1.247 . S
O184 Co182 2.091 . S
O184 C190 1.261 1_455 S
C185 O194 1.247 . S
C185 O195 1.272 . S
O186 Co182 2.004 . S
O186 C191 1.259 . S
Co187 O188 2.061 1_655 S
Co187 O193 2.052 . S
Co187 O195 2.135 . S
O188 Co187 2.061 1_455 S
O188 C191 1.235 . S
C189 O192 1.238 . S
C189 O193 1.241 1_455 S
C190 O183 1.247 . S
C190 O184 1.261 1_655 S
C191 O186 1.259 . S
C191 O188 1.235 . S
O192 Co182 2.021 . S
O192 C189 1.238 . S
O193 Co187 2.052 . S
O193 C189 1.241 1_655 S
O194 Co182 2.137 1_655 S
O194 C185 1.247 . S
O195 Co182 2.244 1_655 S
O195 C185 1.272 . S
O195 Co187 2.135 . S
Co196 O197 2.216 . S
Co196 O198 2.091 . S
Co196 O200 2.004 . S
Co196 O206 2.021 . S
Co196 O208 2.137 . S
Co196 O209 2.244 . S
O197 Co196 2.216 . S
O197 C204 1.247 . S
O198 Co196 2.091 . S
O198 C204 1.261 . S
C199 O208 1.247 . S
C199 O209 1.272 . S
O200 Co196 2.004 . S
O200 C205 1.259 . S
Co201 O202 2.061 . S
Co201 O207 2.052 . S
Co201 O209 2.135 . S
O202 Co201 2.061 . S
O202 C205 1.235 . S
C203 O206 1.238 . S
C203 O207 1.241 . S
C204 O197 1.247 . S
C204 O198 1.261 . S
C205 O200 1.259 . S
C205 O202 1.235 . S
O206 Co196 2.021 . S
O206 C203 1.238 . S
O207 Co201 2.052 . S
O207 C203 1.241 . S
O208 Co196 2.137 . S
O208 C199 1.247 . S
O209 Co196 2.244 . S
O209 C199 1.272 . S
O209 Co201 2.135 . S
Co210 O211 2.216 1_455 S
Co210 O212 2.091 . S
Co210 O214 2.004 . S
Co210 O220 2.021 . S
Co210 O222 2.137 1_455 S
Co210 O223 2.244 1_455 S
O211 Co210 2.216 1_655 S
O211 C218 1.247 . S
O212 Co210 2.091 . S
O212 C218 1.261 1_455 S
C213 O222 1.247 . S
C213 O223 1.272 . S
O214 Co210 2.004 . S
O214 C219 1.259 . S
Co215 O216 2.061 1_655 S
Co215 O221 2.052 . S
Co215 O223 2.135 . S
O216 Co215 2.061 1_455 S
O216 C219 1.235 . S
C217 O220 1.238 . S
C217 O221 1.241 1_455 S
C218 O211 1.247 . S
C218 O212 1.261 1_655 S
C219 O214 1.259 . S
C219 O216 1.235 . S
O220 Co210 2.021 . S
O220 C217 1.238 . S
O221 Co215 2.052 . S
O221 C217 1.241 1_655 S
O222 Co210 2.137 1_655 S
O222 C213 1.247 . S
O223 Co210 2.244 1_655 S
O223 C213 1.272 . S
O223 Co215 2.135 . S
H224 C236 0.930 . S
H225 C238 0.930 . S
H226 C239 0.930 . S
H227 C243 0.959 . S
H228 C243 0.959 . S
H229 C243 0.961 . S
H230 C244 0.960 . S
H231 C244 0.961 . S
H232 C244 0.959 . S
H233 C247 0.929 . S
H234 C248 0.931 . S
H235 C250 0.930 . S
C236 H224 0.930 . S
C236 C237 1.399 . S
C236 C241 1.399 . S
C237 C236 1.399 . S
C237 C238 1.376 . S
C238 H225 0.930 . S
C238 C237 1.376 . S
C238 C239 1.388 . S
C239 H226 0.930 . S
C239 C238 1.388 . S
C239 C240 1.390 . S
C240 C239 1.390 . S
C240 C241 1.394 . S
C240 C246 1.465 . S
C241 C236 1.399 . S
C241 C240 1.394 . S
C241 C242 1.516 . S
C242 C241 1.516 . S
C242 C243 1.502 1_455 S
C242 C244 1.561 . S
C242 C245 1.526 . S
C243 H227 0.959 . S
C243 H228 0.959 . S
C243 H229 0.961 . S
C243 C242 1.502 1_655 S
C244 H230 0.960 . S
C244 H231 0.961 . S
C244 H232 0.959 . S
C244 C242 1.561 . S
C245 C242 1.526 . S
C245 C246 1.396 . S
C245 C250 1.390 1_455 S
C246 C240 1.465 . S
C246 C245 1.396 . S
C246 C247 1.399 . S
C247 H233 0.929 . S
C247 C246 1.399 . S
C247 C248 1.385 . S
C248 H234 0.931 . S
C248 C247 1.385 . S
C248 C249 1.389 1_455 S
C249 C248 1.389 1_655 S
C249 C250 1.387 . S
C250 H235 0.930 . S
C250 C245 1.390 1_655 S
C250 C249 1.387 . S
H251 C263 0.930 . S
H252 C265 0.930 . S
H253 C266 0.930 . S
H254 C270 0.959 . S
H255 C270 0.959 . S
H256 C270 0.961 1_655 S
H257 C271 0.960 1_655 S
H258 C271 0.961 . S
H259 C271 0.959 . S
H260 C274 0.929 . S
H261 C275 0.931 . S
H262 C277 0.930 . S
C263 H251 0.930 . S
C263 C264 1.399 . S
C263 C268 1.399 . S
C264 C263 1.399 . S
C264 C265 1.376 . S
C265 H252 0.930 . S
C265 C264 1.376 . S
C265 C266 1.388 . S
C266 H253 0.930 . S
C266 C265 1.388 . S
C266 C267 1.390 . S
C267 C266 1.390 . S
C267 C268 1.394 . S
C267 C273 1.465 1_655 S
C268 C263 1.399 . S
C268 C267 1.394 . S
C268 C269 1.516 1_655 S
C269 C268 1.516 1_455 S
C269 C270 1.502 . S
C269 C271 1.561 . S
C269 C272 1.526 . S
C270 H254 0.959 . S
C270 H255 0.959 . S
C270 H256 0.961 1_455 S
C270 C269 1.502 . S
C271 H257 0.960 1_455 S
C271 H258 0.961 . S
C271 H259 0.959 . S
C271 C269 1.561 . S
C272 C269 1.526 . S
C272 C273 1.396 . S
C272 C277 1.390 . S
C273 C267 1.465 1_455 S
C273 C272 1.396 . S
C273 C274 1.399 . S
C274 H260 0.929 . S
C274 C273 1.399 . S
C274 C275 1.385 . S
C275 H261 0.931 . S
C275 C274 1.385 . S
C275 C276 1.389 . S
C276 C275 1.389 . S
C276 C277 1.387 . S
C277 H262 0.930 . S
C277 C272 1.390 . S
C277 C276 1.387 . S
H278 C290 0.930 . S
H279 C292 0.930 . S
H280 C293 0.930 . S
H281 C297 0.959 . S
H282 C297 0.959 . S
H283 C297 0.961 . S
H284 C298 0.960 . S
H285 C298 0.961 . S
H286 C298 0.959 . S
H287 C301 0.929 . S
H288 C302 0.931 . S
H289 C304 0.930 . S
C290 H278 0.930 . S
C290 C291 1.399 . S
C290 C295 1.399 . S
C291 C290 1.399 . S
C291 C292 1.376 . S
C292 H279 0.930 . S
C292 C291 1.376 . S
C292 C293 1.388 . S
C293 H280 0.930 . S
C293 C292 1.388 . S
C293 C294 1.390 . S
C294 C293 1.390 . S
C294 C295 1.394 . S
C294 C300 1.465 . S
C295 C290 1.399 . S
C295 C294 1.394 . S
C295 C296 1.516 . S
C296 C295 1.516 . S
C296 C297 1.502 . S
C296 C298 1.561 . S
C296 C299 1.526 . S
C297 H281 0.959 . S
C297 H282 0.959 . S
C297 H283 0.961 . S
C297 C296 1.502 . S
C298 H284 0.960 . S
C298 H285 0.961 . S
C298 H286 0.959 . S
C298 C296 1.561 . S
C299 C296 1.526 . S
C299 C300 1.396 . S
C299 C304 1.390 . S
C300 C294 1.465 . S
C300 C299 1.396 . S
C300 C301 1.399 . S
C301 H287 0.929 . S
C301 C300 1.399 . S
C301 C302 1.385 . S
C302 H288 0.931 . S
C302 C301 1.385 . S
C302 C303 1.389 . S
C303 C302 1.389 . S
C303 C304 1.387 . S
C304 H289 0.930 . S
C304 C299 1.390 . S
C304 C303 1.387 . S
H305 C317 0.930 . S
H306 C319 0.930 . S
H307 C320 0.930 . S
H308 C324 0.959 . S
H309 C324 0.959 . S
H310 C324 0.961 . S
H311 C325 0.960 . S
H312 C325 0.961 . S
H313 C325 0.959 . S
H314 C328 0.929 . S
H315 C329 0.931 . S
H316 C331 0.930 . S
C317 H305 0.930 . S
C317 C318 1.399 . S
C317 C322 1.399 . S
C318 C317 1.399 . S
C318 C319 1.376 . S
C319 H306 0.930 . S
C319 C318 1.376 . S
C319 C320 1.388 . S
C320 H307 0.930 . S
C320 C319 1.388 . S
C320 C321 1.390 . S
C321 C320 1.390 . S
C321 C322 1.394 . S
C321 C327 1.465 . S
C322 C317 1.399 . S
C322 C321 1.394 . S
C322 C323 1.516 . S
C323 C322 1.516 . S
C323 C324 1.502 . S
C323 C325 1.561 . S
C323 C326 1.526 . S
C324 H308 0.959 . S
C324 H309 0.959 . S
C324 H310 0.961 . S
C324 C323 1.502 . S
C325 H311 0.960 . S
C325 H312 0.961 . S
C325 H313 0.959 . S
C325 C323 1.561 . S
C326 C323 1.526 . S
C326 C327 1.396 . S
C326 C331 1.390 . S
C327 C321 1.465 . S
C327 C326 1.396 . S
C327 C328 1.399 . S
C328 H314 0.929 . S
C328 C327 1.399 . S
C328 C329 1.385 . S
C329 H315 0.931 . S
C329 C328 1.385 . S
C329 C330 1.389 . S
C330 C329 1.389 . S
C330 C331 1.387 . S
C331 H316 0.930 . S
C331 C326 1.390 . S
C331 C330 1.387 . S
H332 C344 0.930 . S
H333 C346 0.926 1_655 S
H334 C347 0.930 . S
H335 C351 0.959 . S
H336 C351 0.959 . S
H337 C351 0.961 . S
H338 C352 0.965 . S
H339 C352 0.963 . S
H340 C352 0.944 1_655 S
H341 C355 0.929 . S
H342 C356 0.931 . S
H343 C358 0.930 . S
C344 H332 0.930 . S
C344 C345 1.399 . S
C344 C349 1.399 . S
C345 C344 1.399 . S
C345 C346 1.386 . S
C346 H333 0.926 1_455 S
C346 C345 1.386 . S
C346 C347 1.384 1_455 S
C347 H334 0.930 . S
C347 C346 1.384 1_655 S
C347 C348 1.392 . S
C348 C347 1.392 . S
C348 C349 1.389 1_655 S
C348 C354 1.466 . S
C349 C344 1.399 . S
C349 C348 1.389 1_455 S
C349 C350 1.516 . S
C350 C349 1.516 . S
C350 C351 1.502 . S
C350 C352 1.570 . S
C350 C353 1.526 . S
C351 H335 0.959 . S
C351 H336 0.959 . S
C351 H337 0.961 . S
C351 C350 1.502 . S
C352 H338 0.965 . S
C352 H339 0.963 . S
C352 H340 0.944 1_455 S
C352 C350 1.570 . S
C353 C350 1.526 . S
C353 C354 1.396 1_455 S
C353 C358 1.390 . S
C354 C348 1.466 . S
C354 C353 1.396 1_655 S
C354 C355 1.399 . S
C355 H341 0.929 . S
C355 C354 1.399 . S
C355 C356 1.385 . S
C356 H342 0.931 . S
C356 C355 1.385 . S
C356 C357 1.389 . S
C357 C356 1.389 . S
C357 C358 1.387 1_655 S
C358 H343 0.930 . S
C358 C353 1.390 . S
C358 C357 1.387 1_455 S
H359 C371 0.930 . S
H360 C373 0.930 . S
H361 C374 0.930 . S
H362 C378 0.959 . S
H363 C378 0.959 . S
H364 C378 0.961 . S
H365 C379 0.960 . S
H366 C379 0.961 . S
H367 C379 0.959 . S
H368 C382 0.929 . S
H369 C383 0.931 . S
H370 C385 0.930 . S
C371 H359 0.930 . S
C371 C372 1.399 . S
C371 C376 1.399 . S
C372 C371 1.399 . S
C372 C373 1.376 . S
C373 H360 0.930 . S
C373 C372 1.376 . S
C373 C374 1.388 . S
C374 H361 0.930 . S
C374 C373 1.388 . S
C374 C375 1.390 . S
C375 C374 1.390 . S
C375 C376 1.394 . S
C375 C381 1.465 . S
C376 C371 1.399 . S
C376 C375 1.394 . S
C376 C377 1.516 . S
C377 C376 1.516 . S
C377 C378 1.502 . S
C377 C379 1.561 . S
C377 C380 1.526 . S
C378 H362 0.959 . S
C378 H363 0.959 . S
C378 H364 0.961 . S
C378 C377 1.502 . S
C379 H365 0.960 . S
C379 H366 0.961 . S
C379 H367 0.959 . S
C379 C377 1.561 . S
C380 C377 1.526 . S
C380 C381 1.396 . S
C380 C385 1.390 . S
C381 C375 1.465 . S
C381 C380 1.396 . S
C381 C382 1.399 . S
C382 H368 0.929 . S
C382 C381 1.399 . S
C382 C383 1.385 . S
C383 H369 0.931 . S
C383 C382 1.385 . S
C383 C384 1.389 . S
C384 C383 1.389 . S
C384 C385 1.387 . S
C385 H370 0.930 . S
C385 C380 1.390 . S
C385 C384 1.387 . S
H386 C398 0.930 . S
H387 C400 0.930 . S
H388 C401 0.930 . S
H389 C405 0.959 . S
H390 C405 0.959 . S
H391 C405 0.961 . S
H392 C406 0.960 . S
H393 C406 0.961 . S
H394 C406 0.959 . S
H395 C409 0.929 . S
H396 C410 0.931 . S
H397 C412 0.930 . S
C398 H386 0.930 . S
C398 C399 1.399 . S
C398 C403 1.399 . S
C399 C398 1.399 . S
C399 C400 1.376 . S
C400 H387 0.930 . S
C400 C399 1.376 . S
C400 C401 1.388 . S
C401 H388 0.930 . S
C401 C400 1.388 . S
C401 C402 1.390 . S
C402 C401 1.390 . S
C402 C403 1.394 . S
C402 C408 1.465 . S
C403 C398 1.399 . S
C403 C402 1.394 . S
C403 C404 1.516 . S
C404 C403 1.516 . S
C404 C405 1.502 . S
C404 C406 1.561 . S
C404 C407 1.526 . S
C405 H389 0.959 . S
C405 H390 0.959 . S
C405 H391 0.961 . S
C405 C404 1.502 . S
C406 H392 0.960 . S
C406 H393 0.961 . S
C406 H394 0.959 . S
C406 C404 1.561 . S
C407 C404 1.526 . S
C407 C408 1.396 . S
C407 C412 1.390 . S
C408 C402 1.465 . S
C408 C407 1.396 . S
C408 C409 1.399 . S
C409 H395 0.929 . S
C409 C408 1.399 . S
C409 C410 1.385 . S
C410 H396 0.931 . S
C410 C409 1.385 . S
C410 C411 1.389 . S
C411 C410 1.389 . S
C411 C412 1.387 . S
C412 H397 0.930 . S
C412 C407 1.390 . S
C412 C411 1.387 . S
H413 C425 0.930 . S
H414 C427 0.930 . S
H415 C428 0.930 . S
H416 C432 0.959 . S
H417 C432 0.959 1_655 S
H418 C432 0.961 . S
H419 C433 0.960 . S
H420 C433 0.961 1_655 S
H421 C433 0.959 1_655 S
H422 C436 0.929 . S
H423 C437 0.931 . S
H424 C439 0.930 . S
C425 H413 0.930 . S
C425 C426 1.399 . S
C425 C430 1.399 . S
C426 C425 1.399 . S
C426 C427 1.376 . S
C427 H414 0.930 . S
C427 C426 1.376 . S
C427 C428 1.388 . S
C428 H415 0.930 . S
C428 C427 1.388 . S
C428 C429 1.390 . S
C429 C428 1.390 . S
C429 C430 1.394 . S
C429 C435 1.465 1_455 S
C430 C425 1.399 . S
C430 C429 1.394 . S
C430 C431 1.516 . S
C431 C430 1.516 . S
C431 C432 1.502 . S
C431 C433 1.561 . S
C431 C434 1.526 1_455 S
C432 H416 0.959 . S
C432 H417 0.959 1_455 S
C432 H418 0.961 . S
C432 C431 1.502 . S
C433 H419 0.960 . S
C433 H420 0.961 1_455 S
C433 H421 0.959 1_455 S
C433 C431 1.561 . S
C434 C431 1.526 1_655 S
C434 C435 1.396 . S
C434 C439 1.390 . S
C435 C429 1.465 1_655 S
C435 C434 1.396 . S
C435 C436 1.399 . S
C436 H422 0.929 . S
C436 C435 1.399 . S
C436 C437 1.385 . S
C437 H423 0.931 . S
C437 C436 1.385 . S
C437 C438 1.389 . S
C438 C437 1.389 . S
C438 C439 1.387 . S
C439 H424 0.930 . S
C439 C434 1.390 . S
C439 C438 1.387 . S
H440 C452 0.930 . S
H441 C454 0.930 . S
H442 C455 0.930 . S
H443 C459 0.959 . S
H444 C459 0.959 . S
H445 C459 0.961 . S
H446 C460 0.960 . S
H447 C460 0.961 . S
H448 C460 0.959 . S
H449 C463 0.929 . S
H450 C464 0.931 . S
H451 C466 0.930 . S
C452 H440 0.930 . S
C452 C453 1.399 1_655 S
C452 C457 1.399 . S
C453 C452 1.399 1_455 S
C453 C454 1.376 1_565 S
C454 H441 0.930 . S
C454 C453 1.376 1_545 S
C454 C455 1.388 . S
C455 H442 0.930 . S
C455 C454 1.388 . S
C455 C456 1.390 . S
C456 C455 1.390 . S
C456 C457 1.393 1_445 S
C456 C462 1.465 . S
C457 C452 1.399 . S
C457 C456 1.393 1_665 S
C457 C458 1.517 . S
C458 C457 1.517 . S
C458 C459 1.502 . S
C458 C460 1.561 1_655 S
C458 C461 1.526 . S
C459 H443 0.959 . S
C459 H444 0.959 . S
C459 H445 0.961 . S
C459 C458 1.502 . S
C460 H446 0.960 . S
C460 H447 0.961 . S
C460 H448 0.959 . S
C460 C458 1.561 1_455 S
C461 C458 1.526 . S
C461 C462 1.395 1_665 S
C461 C466 1.390 . S
C462 C456 1.465 . S
C462 C461 1.395 1_445 S
C462 C463 1.399 . S
C463 H449 0.929 . S
C463 C462 1.399 . S
C463 C464 1.385 . S
C464 H450 0.931 . S
C464 C463 1.385 . S
C464 C465 1.389 . S
C465 C464 1.389 . S
C465 C466 1.387 1_445 S
C466 H451 0.930 . S
C466 C461 1.390 . S
C466 C465 1.387 1_665 S
H467 C479 0.930 . S
H468 C481 0.930 . S
H469 C482 0.930 . S
H470 C486 0.959 . S
H471 C486 0.959 . S
H472 C486 0.961 . S
H473 C487 0.960 . S
H474 C487 0.961 . S
H475 C487 0.959 . S
H476 C490 0.929 . S
H477 C491 0.931 . S
H478 C493 0.930 . S
C479 H467 0.930 . S
C479 C480 1.399 . S
C479 C484 1.399 . S
C480 C479 1.399 . S
C480 C481 1.376 . S
C481 H468 0.930 . S
C481 C480 1.376 . S
C481 C482 1.388 . S
C482 H469 0.930 . S
C482 C481 1.388 . S
C482 C483 1.390 . S
C483 C482 1.390 . S
C483 C484 1.394 . S
C483 C489 1.465 . S
C484 C479 1.399 . S
C484 C483 1.394 . S
C484 C485 1.516 . S
C485 C484 1.516 . S
C485 C486 1.502 . S
C485 C487 1.561 . S
C485 C488 1.526 . S
C486 H470 0.959 . S
C486 H471 0.959 . S
C486 H472 0.961 . S
C486 C485 1.502 . S
C487 H473 0.960 . S
C487 H474 0.961 . S
C487 H475 0.959 . S
C487 C485 1.561 . S
C488 C485 1.526 . S
C488 C489 1.396 . S
C488 C493 1.390 . S
C489 C483 1.465 . S
C489 C488 1.396 . S
C489 C490 1.399 . S
C490 H476 0.929 . S
C490 C489 1.399 . S
C490 C491 1.385 . S
C491 H477 0.931 . S
C491 C490 1.385 . S
C491 C492 1.389 . S
C492 C491 1.389 . S
C492 C493 1.387 . S
C493 H478 0.930 . S
C493 C488 1.390 . S
C493 C492 1.387 . S
H494 C506 0.930 . S
H495 C508 0.930 . S
H496 C509 0.930 . S
H497 C513 0.959 . S
H498 C513 0.959 1_556 S
H499 C513 0.961 . S
H500 C514 0.960 . S
H501 C514 0.961 1_556 S
H502 C514 0.959 . S
H503 C517 0.929 . S
H504 C518 0.931 . S
H505 C520 0.930 . S
C506 H494 0.930 . S
C506 C507 1.399 1_545 S
C506 C511 1.399 . S
C507 C506 1.399 1_565 S
C507 C508 1.376 . S
C508 H495 0.930 . S
C508 C507 1.376 . S
C508 C509 1.388 . S
C509 H496 0.930 . S
C509 C508 1.388 . S
C509 C510 1.390 . S
C510 C509 1.390 . S
C510 C511 1.394 1_565 S
C510 C516 1.465 1_554 S
C511 C506 1.399 . S
C511 C510 1.394 1_545 S
C511 C512 1.516 . S
C512 C511 1.516 . S
C512 C513 1.502 . S
C512 C514 1.561 . S
C512 C515 1.526 1_554 S
C513 H497 0.959 . S
C513 H498 0.959 1_554 S
C513 H499 0.961 . S
C513 C512 1.502 . S
C514 H500 0.960 . S
C514 H501 0.961 1_554 S
C514 H502 0.959 . S
C514 C512 1.561 . S
C515 C512 1.526 1_556 S
C515 C516 1.396 1_545 S
C515 C520 1.390 . S
C516 C510 1.465 1_556 S
C516 C515 1.396 1_565 S
C516 C517 1.399 . S
C517 H503 0.929 . S
C517 C516 1.399 . S
C517 C518 1.385 . S
C518 H504 0.931 . S
C518 C517 1.385 . S
C518 C519 1.389 1_565 S
C519 C518 1.389 1_545 S
C519 C520 1.387 . S
C520 H505 0.930 . S
C520 C515 1.390 . S
C520 C519 1.387 . S
H521 C533 0.930 . S
H522 C535 0.930 . S
H523 C536 0.930 . S
H524 C540 0.959 . S
H525 C540 0.959 . S
H526 C540 0.961 . S
H527 C541 0.960 . S
H528 C541 0.961 . S
H529 C541 0.959 . S
H530 C544 0.929 . S
H531 C545 0.931 . S
H532 C547 0.930 . S
C533 H521 0.930 . S
C533 C534 1.399 . S
C533 C538 1.399 . S
C534 C533 1.399 . S
C534 C535 1.376 . S
C535 H522 0.930 . S
C535 C534 1.376 . S
C535 C536 1.388 . S
C536 H523 0.930 . S
C536 C535 1.388 . S
C536 C537 1.390 . S
C537 C536 1.390 . S
C537 C538 1.394 . S
C537 C543 1.465 . S
C538 C533 1.399 . S
C538 C537 1.394 . S
C538 C539 1.516 . S
C539 C538 1.516 . S
C539 C540 1.502 . S
C539 C541 1.561 . S
C539 C542 1.526 . S
C540 H524 0.959 . S
C540 H525 0.959 . S
C540 H526 0.961 . S
C540 C539 1.502 . S
C541 H527 0.960 . S
C541 H528 0.961 . S
C541 H529 0.959 . S
C541 C539 1.561 . S
C542 C539 1.526 . S
C542 C543 1.396 . S
C542 C547 1.390 . S
C543 C537 1.465 . S
C543 C542 1.396 . S
C543 C544 1.399 . S
C544 H530 0.929 . S
C544 C543 1.399 . S
C544 C545 1.385 . S
C545 H531 0.931 . S
C545 C544 1.385 . S
C545 C546 1.389 . S
C546 C545 1.389 . S
C546 C547 1.387 . S
C547 H532 0.930 . S
C547 C542 1.390 . S
C547 C546 1.387 . S
H548 C560 0.930 . S
H549 C562 0.930 . S
H550 C563 0.930 . S
H551 C567 0.959 . S
H552 C567 0.959 . S
H553 C567 0.961 . S
H554 C568 0.960 . S
H555 C568 0.961 . S
H556 C568 0.959 . S
H557 C571 0.929 . S
H558 C572 0.931 . S
H559 C574 0.930 . S
C560 H548 0.930 . S
C560 C561 1.399 . S
C560 C565 1.399 . S
C561 C560 1.399 . S
C561 C562 1.376 . S
C562 H549 0.930 . S
C562 C561 1.376 . S
C562 C563 1.388 . S
C563 H550 0.930 . S
C563 C562 1.388 . S
C563 C564 1.390 . S
C564 C563 1.390 . S
C564 C565 1.394 . S
C564 C570 1.465 . S
C565 C560 1.399 . S
C565 C564 1.394 . S
C565 C566 1.516 . S
C566 C565 1.516 . S
C566 C567 1.502 . S
C566 C568 1.561 . S
C566 C569 1.526 . S
C567 H551 0.959 . S
C567 H552 0.959 . S
C567 H553 0.961 . S
C567 C566 1.502 . S
C568 H554 0.960 . S
C568 H555 0.961 . S
C568 H556 0.959 . S
C568 C566 1.561 . S
C569 C566 1.526 . S
C569 C570 1.396 . S
C569 C574 1.390 . S
C570 C564 1.465 . S
C570 C569 1.396 . S
C570 C571 1.399 . S
C571 H557 0.929 . S
C571 C570 1.399 . S
C571 C572 1.385 . S
C572 H558 0.931 . S
C572 C571 1.385 . S
C572 C573 1.389 . S
C573 C572 1.389 . S
C573 C574 1.387 . S
C574 H559 0.930 . S
C574 C569 1.390 . S
C574 C573 1.387 . S
H575 C587 0.930 . S
H576 C589 0.930 . S
H577 C590 0.930 . S
H578 C594 0.959 . S
H579 C594 0.959 . S
H580 C594 0.961 . S
H581 C595 0.960 . S
H582 C595 0.961 . S
H583 C595 0.959 . S
H584 C598 0.929 . S
H585 C599 0.931 . S
H586 C601 0.930 . S
C587 H575 0.930 . S
C587 C588 1.399 . S
C587 C592 1.399 . S
C588 C587 1.399 . S
C588 C589 1.376 . S
C589 H576 0.930 . S
C589 C588 1.376 . S
C589 C590 1.388 . S
C590 H577 0.930 . S
C590 C589 1.388 . S
C590 C591 1.390 . S
C591 C590 1.390 . S
C591 C592 1.394 . S
C591 C597 1.465 . S
C592 C587 1.399 . S
C592 C591 1.394 . S
C592 C593 1.516 . S
C593 C592 1.516 . S
C593 C594 1.502 . S
C593 C595 1.561 . S
C593 C596 1.526 . S
C594 H578 0.959 . S
C594 H579 0.959 . S
C594 H580 0.961 . S
C594 C593 1.502 . S
C595 H581 0.960 . S
C595 H582 0.961 . S
C595 H583 0.959 . S
C595 C593 1.561 . S
C596 C593 1.526 . S
C596 C597 1.396 . S
C596 C601 1.390 . S
C597 C591 1.465 . S
C597 C596 1.396 . S
C597 C598 1.399 . S
C598 H584 0.929 . S
C598 C597 1.399 . S
C598 C599 1.385 . S
C599 H585 0.931 . S
C599 C598 1.385 . S
C599 C600 1.389 . S
C600 C599 1.389 . S
C600 C601 1.387 . S
C601 H586 0.930 . S
C601 C596 1.390 . S
C601 C600 1.387 . S
H602 C614 0.930 . S
H603 C616 0.930 . S
H604 C617 0.930 . S
H605 C621 0.959 . S
H606 C621 0.959 . S
H607 C621 0.961 1_556 S
H608 C622 0.960 1_556 S
H609 C622 0.961 . S
H610 C622 0.959 . S
H611 C625 0.929 . S
H612 C626 0.931 . S
H613 C628 0.930 . S
C614 H602 0.930 . S
C614 C615 1.399 . S
C614 C619 1.399 . S
C615 C614 1.399 . S
C615 C616 1.376 . S
C616 H603 0.930 . S
C616 C615 1.376 . S
C616 C617 1.388 . S
C617 H604 0.930 . S
C617 C616 1.388 . S
C617 C618 1.390 . S
C618 C617 1.390 . S
C618 C619 1.394 . S
C618 C624 1.465 1_556 S
C619 C614 1.399 . S
C619 C618 1.394 . S
C619 C620 1.516 1_556 S
C620 C619 1.516 1_554 S
C620 C621 1.502 . S
C620 C622 1.561 . S
C620 C623 1.526 . S
C621 H605 0.959 . S
C621 H606 0.959 . S
C621 H607 0.961 1_554 S
C621 C620 1.502 . S
C622 H608 0.960 1_554 S
C622 H609 0.961 . S
C622 H610 0.959 . S
C622 C620 1.561 . S
C623 C620 1.526 . S
C623 C624 1.396 . S
C623 C628 1.390 . S
C624 C618 1.465 1_554 S
C624 C623 1.396 . S
C624 C625 1.399 . S
C625 H611 0.929 . S
C625 C624 1.399 . S
C625 C626 1.385 . S
C626 H612 0.931 . S
C626 C625 1.385 . S
C626 C627 1.389 . S
C627 C626 1.389 . S
C627 C628 1.387 . S
C628 H613 0.930 . S
C628 C623 1.390 . S
C628 C627 1.387 . S
H629 C641 0.930 . S
H630 C643 0.930 . S
H631 C644 0.930 . S
H632 C648 0.959 . S
H633 C648 0.959 . S
H634 C648 0.961 . S
H635 C649 0.960 . S
H636 C649 0.961 . S
H637 C649 0.959 . S
H638 C652 0.929 . S
H639 C653 0.931 . S
H640 C655 0.930 . S
C641 H629 0.930 . S
C641 C642 1.399 . S
C641 C646 1.399 . S
C642 C641 1.399 . S
C642 C643 1.376 . S
C643 H630 0.930 . S
C643 C642 1.376 . S
C643 C644 1.388 . S
C644 H631 0.930 . S
C644 C643 1.388 . S
C644 C645 1.390 . S
C645 C644 1.390 . S
C645 C646 1.394 . S
C645 C651 1.465 . S
C646 C641 1.399 . S
C646 C645 1.394 . S
C646 C647 1.516 . S
C647 C646 1.516 . S
C647 C648 1.502 . S
C647 C649 1.561 1_455 S
C647 C650 1.526 . S
C648 H632 0.959 . S
C648 H633 0.959 . S
C648 H634 0.961 . S
C648 C647 1.502 . S
C649 H635 0.960 . S
C649 H636 0.961 . S
C649 H637 0.959 . S
C649 C647 1.561 1_655 S
C650 C647 1.526 . S
C650 C651 1.396 . S
C650 C655 1.390 . S
C651 C645 1.465 . S
C651 C650 1.396 . S
C651 C652 1.399 . S
C652 H638 0.929 . S
C652 C651 1.399 . S
C652 C653 1.385 . S
C653 H639 0.931 . S
C653 C652 1.385 . S
C653 C654 1.389 . S
C654 C653 1.389 . S
C654 C655 1.387 . S
C655 H640 0.930 . S
C655 C650 1.390 . S
C655 C654 1.387 . S
H656 C668 0.930 . S
H657 C670 0.930 . S
H658 C671 0.930 . S
H659 C675 0.959 . S
H660 C675 0.959 . S
H661 C675 0.961 . S
H662 C676 0.960 . S
H663 C676 0.961 . S
H664 C676 0.959 . S
H665 C679 0.929 . S
H666 C680 0.931 . S
H667 C682 0.930 . S
C668 H656 0.930 . S
C668 C669 1.399 . S
C668 C673 1.399 . S
C669 C668 1.399 . S
C669 C670 1.376 . S
C670 H657 0.930 . S
C670 C669 1.376 . S
C670 C671 1.388 . S
C671 H658 0.930 . S
C671 C670 1.388 . S
C671 C672 1.390 . S
C672 C671 1.390 . S
C672 C673 1.394 . S
C672 C678 1.465 . S
C673 C668 1.399 . S
C673 C672 1.394 . S
C673 C674 1.516 . S
C674 C673 1.516 . S
C674 C675 1.502 . S
C674 C676 1.561 . S
C674 C677 1.526 . S
C675 H659 0.959 . S
C675 H660 0.959 . S
C675 H661 0.961 . S
C675 C674 1.502 . S
C676 H662 0.960 . S
C676 H663 0.961 . S
C676 H664 0.959 . S
C676 C674 1.561 . S
C677 C674 1.526 . S
C677 C678 1.396 . S
C677 C682 1.390 . S
C678 C672 1.465 . S
C678 C677 1.396 . S
C678 C679 1.399 . S
C679 H665 0.929 . S
C679 C678 1.399 . S
C679 C680 1.385 . S
C680 H666 0.931 . S
C680 C679 1.385 . S
C680 C681 1.389 . S
C681 C680 1.389 . S
C681 C682 1.387 . S
C682 H667 0.930 . S
C682 C677 1.390 . S
C682 C681 1.387 . S
H683 C695 0.930 . S
H684 C697 0.930 . S
H685 C698 0.930 . S
H686 C702 0.959 . S
H687 C702 0.959 . S
H688 C702 0.961 . S
H689 C703 0.960 . S
H690 C703 0.961 . S
H691 C703 0.959 . S
H692 C706 0.929 . S
H693 C707 0.931 . S
H694 C709 0.930 . S
C695 H683 0.930 . S
C695 C696 1.399 . S
C695 C700 1.399 . S
C696 C695 1.399 . S
C696 C697 1.376 . S
C697 H684 0.930 . S
C697 C696 1.376 . S
C697 C698 1.388 . S
C698 H685 0.930 . S
C698 C697 1.388 . S
C698 C699 1.390 . S
C699 C698 1.390 . S
C699 C700 1.394 . S
C699 C705 1.465 . S
C700 C695 1.399 . S
C700 C699 1.394 . S
C700 C701 1.516 . S
C701 C700 1.516 . S
C701 C702 1.502 . S
C701 C703 1.561 . S
C701 C704 1.526 . S
C702 H686 0.959 . S
C702 H687 0.959 . S
C702 H688 0.961 . S
C702 C701 1.502 . S
C703 H689 0.960 . S
C703 H690 0.961 . S
C703 H691 0.959 . S
C703 C701 1.561 . S
C704 C701 1.526 . S
C704 C705 1.396 . S
C704 C709 1.390 . S
C705 C699 1.465 . S
C705 C704 1.396 . S
C705 C706 1.399 . S
C706 H692 0.929 . S
C706 C705 1.399 . S
C706 C707 1.385 . S
C707 H693 0.931 . S
C707 C706 1.385 . S
C707 C708 1.389 . S
C708 C707 1.389 . S
C708 C709 1.387 . S
C709 H694 0.930 . S
C709 C704 1.390 . S
C709 C708 1.387 . S
H710 C722 0.930 . S
H711 C724 0.930 1_565 S
H712 C725 0.930 . S
H713 C729 0.959 . S
H714 C729 0.959 . S
H715 C729 0.961 . S
H716 C730 0.960 . S
H717 C730 0.961 . S
H718 C730 0.959 . S
H719 C733 0.929 . S
H720 C734 0.931 . S
H721 C736 0.930 . S
C722 H710 0.930 . S
C722 C723 1.399 . S
C722 C727 1.399 . S
C723 C722 1.399 . S
C723 C724 1.376 . S
C724 H711 0.930 1_545 S
C724 C723 1.376 . S
C724 C725 1.388 . S
C725 H712 0.930 . S
C725 C724 1.388 . S
C725 C726 1.390 . S
C726 C725 1.390 . S
C726 C727 1.394 . S
C726 C732 1.465 . S
C727 C722 1.399 . S
C727 C726 1.394 . S
C727 C728 1.516 . S
C728 C727 1.516 . S
C728 C729 1.502 . S
C728 C730 1.561 . S
C728 C731 1.526 . S
C729 H713 0.959 . S
C729 H714 0.959 . S
C729 H715 0.961 . S
C729 C728 1.502 . S
C730 H716 0.960 . S
C730 H717 0.961 . S
C730 H718 0.959 . S
C730 C728 1.561 . S
C731 C728 1.526 . S
C731 C732 1.396 . S
C731 C736 1.390 . S
C732 C726 1.465 . S
C732 C731 1.396 . S
C732 C733 1.399 . S
C733 H719 0.929 . S
C733 C732 1.399 . S
C733 C734 1.385 . S
C734 H720 0.931 . S
C734 C733 1.385 . S
C734 C735 1.389 . S
C735 C734 1.389 . S
C735 C736 1.387 . S
C736 H721 0.930 . S
C736 C731 1.390 . S
C736 C735 1.387 . S
H737 C749 0.930 . S
H738 C751 0.930 1_565 S
H739 C752 0.930 . S
H740 C756 0.959 . S
H741 C756 0.959 . S
H742 C756 0.961 . S
H743 C757 0.960 . S
H744 C757 0.961 . S
H745 C757 0.959 . S
H746 C760 0.929 . S
H747 C761 0.931 . S
H748 C763 0.930 . S
C749 H737 0.930 . S
C749 C750 1.399 . S
C749 C754 1.399 . S
C750 C749 1.399 . S
C750 C751 1.376 . S
C751 H738 0.930 1_545 S
C751 C750 1.376 . S
C751 C752 1.388 . S
C752 H739 0.930 . S
C752 C751 1.388 . S
C752 C753 1.390 . S
C753 C752 1.390 . S
C753 C754 1.394 . S
C753 C759 1.465 . S
C754 C749 1.399 . S
C754 C753 1.394 . S
C754 C755 1.516 . S
C755 C754 1.516 . S
C755 C756 1.502 . S
C755 C757 1.561 . S
C755 C758 1.526 . S
C756 H740 0.959 . S
C756 H741 0.959 . S
C756 H742 0.961 . S
C756 C755 1.502 . S
C757 H743 0.960 . S
C757 H744 0.961 . S
C757 H745 0.959 . S
C757 C755 1.561 . S
C758 C755 1.526 . S
C758 C759 1.396 . S
C758 C763 1.390 . S
C759 C753 1.465 . S
C759 C758 1.396 . S
C759 C760 1.399 . S
C760 H746 0.929 . S
C760 C759 1.399 . S
C760 C761 1.385 . S
C761 H747 0.931 . S
C761 C760 1.385 . S
C761 C762 1.389 . S
C762 C761 1.389 . S
C762 C763 1.387 . S
C763 H748 0.930 . S
C763 C758 1.390 . S
C763 C762 1.387 . S
H764 C776 0.930 . S
H765 C778 0.930 . S
H766 C779 0.930 . S
H767 C783 0.959 . S
H768 C783 0.959 . S
H769 C783 0.961 . S
H770 C784 0.960 . S
H771 C784 0.961 . S
H772 C784 0.959 . S
H773 C787 0.929 . S
H774 C788 0.931 . S
H775 C790 0.930 . S
C776 H764 0.930 . S
C776 C777 1.399 . S
C776 C781 1.399 . S
C777 C776 1.399 . S
C777 C778 1.376 . S
C778 H765 0.930 . S
C778 C777 1.376 . S
C778 C779 1.388 . S
C779 H766 0.930 . S
C779 C778 1.388 . S
C779 C780 1.390 . S
C780 C779 1.390 . S
C780 C781 1.394 . S
C780 C786 1.465 . S
C781 C776 1.399 . S
C781 C780 1.394 . S
C781 C782 1.516 . S
C782 C781 1.516 . S
C782 C783 1.502 . S
C782 C784 1.561 . S
C782 C785 1.526 . S
C783 H767 0.959 . S
C783 H768 0.959 . S
C783 H769 0.961 . S
C783 C782 1.502 . S
C784 H770 0.960 . S
C784 H771 0.961 . S
C784 H772 0.959 . S
C784 C782 1.561 . S
C785 C782 1.526 . S
C785 C786 1.396 . S
C785 C790 1.390 . S
C786 C780 1.465 . S
C786 C785 1.396 . S
C786 C787 1.399 . S
C787 H773 0.929 . S
C787 C786 1.399 . S
C787 C788 1.385 . S
C788 H774 0.931 . S
C788 C787 1.385 . S
C788 C789 1.389 . S
C789 C788 1.389 . S
C789 C790 1.387 . S
C790 H775 0.930 . S
C790 C785 1.390 . S
C790 C789 1.387 . S
H791 C803 0.930 . S
H792 C805 0.930 1_565 S
H793 C806 0.930 . S
H794 C810 0.959 . S
H795 C810 0.959 . S
H796 C810 0.961 . S
H797 C811 0.960 . S
H798 C811 0.961 . S
H799 C811 0.959 . S
H800 C814 0.929 . S
H801 C815 0.931 . S
H802 C817 0.930 . S
C803 H791 0.930 . S
C803 C804 1.399 . S
C803 C808 1.399 . S
C804 C803 1.399 . S
C804 C805 1.376 . S
C805 H792 0.930 1_545 S
C805 C804 1.376 . S
C805 C806 1.388 . S
C806 H793 0.930 . S
C806 C805 1.388 . S
C806 C807 1.390 . S
C807 C806 1.390 . S
C807 C808 1.394 . S
C807 C813 1.465 . S
C808 C803 1.399 . S
C808 C807 1.394 . S
C808 C809 1.516 . S
C809 C808 1.516 . S
C809 C810 1.502 . S
C809 C811 1.561 . S
C809 C812 1.526 . S
C810 H794 0.959 . S
C810 H795 0.959 . S
C810 H796 0.961 . S
C810 C809 1.502 . S
C811 H797 0.960 . S
C811 H798 0.961 . S
C811 H799 0.959 . S
C811 C809 1.561 . S
C812 C809 1.526 . S
C812 C813 1.396 . S
C812 C817 1.390 . S
C813 C807 1.465 . S
C813 C812 1.396 . S
C813 C814 1.399 . S
C814 H800 0.929 . S
C814 C813 1.399 . S
C814 C815 1.385 . S
C815 H801 0.931 . S
C815 C814 1.385 . S
C815 C816 1.389 . S
C816 C815 1.389 . S
C816 C817 1.387 . S
C817 H802 0.930 . S
C817 C812 1.390 . S
C817 C816 1.387 . S
H818 C830 0.930 . S
H819 C832 0.930 . S
H820 C833 0.930 . S
H821 C837 0.959 . S
H822 C837 0.959 . S
H823 C837 0.961 . S
H824 C838 0.960 . S
H825 C838 0.961 . S
H826 C838 0.959 . S
H827 C841 0.929 . S
H828 C842 0.931 . S
H829 C844 0.930 . S
C830 H818 0.930 . S
C830 C831 1.399 . S
C830 C835 1.399 . S
C831 C830 1.399 . S
C831 C832 1.376 . S
C832 H819 0.930 . S
C832 C831 1.376 . S
C832 C833 1.388 . S
C833 H820 0.930 . S
C833 C832 1.388 . S
C833 C834 1.390 . S
C834 C833 1.390 . S
C834 C835 1.394 . S
C834 C840 1.465 . S
C835 C830 1.399 . S
C835 C834 1.394 . S
C835 C836 1.516 . S
C836 C835 1.516 . S
C836 C837 1.502 . S
C836 C838 1.561 . S
C836 C839 1.526 . S
C837 H821 0.959 . S
C837 H822 0.959 . S
C837 H823 0.961 . S
C837 C836 1.502 . S
C838 H824 0.960 . S
C838 H825 0.961 . S
C838 H826 0.959 . S
C838 C836 1.561 . S
C839 C836 1.526 . S
C839 C840 1.396 . S
C839 C844 1.390 . S
C840 C834 1.465 . S
C840 C839 1.396 . S
C840 C841 1.399 . S
C841 H827 0.929 . S
C841 C840 1.399 . S
C841 C842 1.385 . S
C842 H828 0.931 . S
C842 C841 1.385 . S
C842 C843 1.389 . S
C843 C842 1.389 . S
C843 C844 1.387 . S
C844 H829 0.930 . S
C844 C839 1.390 . S
C844 C843 1.387 . S
H845 C857 0.930 . S
H846 C859 0.930 . S
H847 C860 0.930 . S
H848 C864 0.959 . S
H849 C864 0.959 . S
H850 C864 0.961 . S
H851 C865 0.960 . S
H852 C865 0.961 . S
H853 C865 0.959 . S
H854 C868 0.929 . S
H855 C869 0.931 1_545 S
H856 C871 0.930 . S
C857 H845 0.930 . S
C857 C858 1.399 . S
C857 C862 1.399 . S
C858 C857 1.399 . S
C858 C859 1.376 . S
C859 H846 0.930 . S
C859 C858 1.376 . S
C859 C860 1.388 . S
C860 H847 0.930 . S
C860 C859 1.388 . S
C860 C861 1.390 . S
C861 C860 1.390 . S
C861 C862 1.394 . S
C861 C867 1.465 . S
C862 C857 1.399 . S
C862 C861 1.394 . S
C862 C863 1.516 . S
C863 C862 1.516 . S
C863 C864 1.502 . S
C863 C865 1.561 . S
C863 C866 1.526 . S
C864 H848 0.959 . S
C864 H849 0.959 . S
C864 H850 0.961 . S
C864 C863 1.502 . S
C865 H851 0.960 . S
C865 H852 0.961 . S
C865 H853 0.959 . S
C865 C863 1.561 . S
C866 C863 1.526 . S
C866 C867 1.396 . S
C866 C871 1.390 . S
C867 C861 1.465 . S
C867 C866 1.396 . S
C867 C868 1.399 . S
C868 H854 0.929 . S
C868 C867 1.399 . S
C868 C869 1.385 . S
C869 H855 0.931 1_565 S
C869 C868 1.385 . S
C869 C870 1.389 . S
C870 C869 1.389 . S
C870 C871 1.387 . S
C871 H856 0.930 . S
C871 C866 1.390 . S
C871 C870 1.387 . S
H872 C884 0.930 . S
H873 C886 0.930 . S
H874 C887 0.930 . S
H875 C891 0.959 . S
H876 C891 0.959 . S
H877 C891 0.961 . S
H878 C892 0.960 . S
H879 C892 0.961 . S
H880 C892 0.959 . S
H881 C895 0.929 . S
H882 C896 0.931 . S
H883 C898 0.930 . S
C884 H872 0.930 . S
C884 C885 1.399 . S
C884 C889 1.399 . S
C885 C884 1.399 . S
C885 C886 1.376 . S
C886 H873 0.930 . S
C886 C885 1.376 . S
C886 C887 1.388 . S
C887 H874 0.930 . S
C887 C886 1.388 . S
C887 C888 1.390 . S
C888 C887 1.390 . S
C888 C889 1.394 . S
C888 C894 1.465 . S
C889 C884 1.399 . S
C889 C888 1.394 . S
C889 C890 1.516 . S
C890 C889 1.516 . S
C890 C891 1.502 . S
C890 C892 1.561 . S
C890 C893 1.526 . S
C891 H875 0.959 . S
C891 H876 0.959 . S
C891 H877 0.961 . S
C891 C890 1.502 . S
C892 H878 0.960 . S
C892 H879 0.961 . S
C892 H880 0.959 . S
C892 C890 1.561 . S
C893 C890 1.526 . S
C893 C894 1.396 . S
C893 C898 1.390 . S
C894 C888 1.465 . S
C894 C893 1.396 . S
C894 C895 1.399 . S
C895 H881 0.929 . S
C895 C894 1.399 . S
C895 C896 1.385 . S
C896 H882 0.931 . S
C896 C895 1.385 . S
C896 C897 1.389 . S
C897 C896 1.389 . S
C897 C898 1.387 . S
C898 H883 0.930 . S
C898 C893 1.390 . S
C898 C897 1.387 . S
H899 C911 0.930 . S
H900 C913 0.930 . S
H901 C914 0.930 . S
H902 C918 0.959 . S
H903 C918 0.959 . S
H904 C918 0.961 . S
H905 C919 0.960 . S
H906 C919 0.961 . S
H907 C919 0.959 . S
H908 C922 0.929 . S
H909 C923 0.931 . S
H910 C925 0.930 . S
C911 H899 0.930 . S
C911 C912 1.399 . S
C911 C916 1.399 . S
C912 C911 1.399 . S
C912 C913 1.376 . S
C913 H900 0.930 . S
C913 C912 1.376 . S
C913 C914 1.388 . S
C914 H901 0.930 . S
C914 C913 1.388 . S
C914 C915 1.390 . S
C915 C914 1.390 . S
C915 C916 1.394 . S
C915 C921 1.465 . S
C916 C911 1.399 . S
C916 C915 1.394 . S
C916 C917 1.516 . S
C917 C916 1.516 . S
C917 C918 1.502 . S
C917 C919 1.561 . S
C917 C920 1.526 . S
C918 H902 0.959 . S
C918 H903 0.959 . S
C918 H904 0.961 . S
C918 C917 1.502 . S
C919 H905 0.960 . S
C919 H906 0.961 . S
C919 H907 0.959 . S
C919 C917 1.561 . S
C920 C917 1.526 . S
C920 C921 1.396 . S
C920 C925 1.390 . S
C921 C915 1.465 . S
C921 C920 1.396 . S
C921 C922 1.399 . S
C922 H908 0.929 . S
C922 C921 1.399 . S
C922 C923 1.385 . S
C923 H909 0.931 . S
C923 C922 1.385 . S
C923 C924 1.389 . S
C924 C923 1.389 . S
C924 C925 1.387 . S
C925 H910 0.930 . S
C925 C920 1.390 . S
C925 C924 1.387 . S
H926 C938 0.930 . S
H927 C940 0.930 . S
H928 C941 0.930 . S
H929 C945 0.959 . S
H930 C945 0.959 . S
H931 C945 0.961 . S
H932 C946 0.960 . S
H933 C946 0.961 . S
H934 C946 0.959 . S
H935 C949 0.929 . S
H936 C950 0.931 . S
H937 C952 0.930 . S
C938 H926 0.930 . S
C938 C939 1.399 . S
C938 C943 1.399 . S
C939 C938 1.399 . S
C939 C940 1.376 . S
C940 H927 0.930 . S
C940 C939 1.376 . S
C940 C941 1.388 . S
C941 H928 0.930 . S
C941 C940 1.388 . S
C941 C942 1.390 . S
C942 C941 1.390 . S
C942 C943 1.394 . S
C942 C948 1.465 . S
C943 C938 1.399 . S
C943 C942 1.394 . S
C943 C944 1.516 . S
C944 C943 1.516 . S
C944 C945 1.502 . S
C944 C946 1.561 . S
C944 C947 1.526 . S
C945 H929 0.959 . S
C945 H930 0.959 . S
C945 H931 0.961 . S
C945 C944 1.502 . S
C946 H932 0.960 . S
C946 H933 0.961 . S
C946 H934 0.959 . S
C946 C944 1.561 . S
C947 C944 1.526 . S
C947 C948 1.396 . S
C947 C952 1.390 . S
C948 C942 1.465 . S
C948 C947 1.396 . S
C948 C949 1.399 . S
C949 H935 0.929 . S
C949 C948 1.399 . S
C949 C950 1.385 . S
C950 H936 0.931 . S
C950 C949 1.385 . S
C950 C951 1.389 . S
C951 C950 1.389 . S
C951 C952 1.387 . S
C952 H937 0.930 . S
C952 C947 1.390 . S
C952 C951 1.387 . S
H953 C965 0.930 . S
H954 C967 0.930 . S
H955 C968 0.930 . S
H956 C972 0.959 . S
H957 C972 0.959 . S
H958 C972 0.961 . S
H959 C973 0.960 . S
H960 C973 0.961 . S
H961 C973 0.959 . S
H962 C976 0.929 . S
H963 C977 0.931 . S
H964 C979 0.930 . S
C965 H953 0.930 . S
C965 C966 1.399 . S
C965 C970 1.399 . S
C966 C965 1.399 . S
C966 C967 1.376 . S
C967 H954 0.930 . S
C967 C966 1.376 . S
C967 C968 1.388 . S
C968 H955 0.930 . S
C968 C967 1.388 . S
C968 C969 1.390 . S
C969 C968 1.390 . S
C969 C970 1.394 . S
C969 C975 1.465 . S
C970 C965 1.399 . S
C970 C969 1.394 . S
C970 C971 1.516 . S
C971 C970 1.516 . S
C971 C972 1.502 . S
C971 C973 1.561 . S
C971 C974 1.526 . S
C972 H956 0.959 . S
C972 H957 0.959 . S
C972 H958 0.961 . S
C972 C971 1.502 . S
C973 H959 0.960 . S
C973 H960 0.961 . S
C973 H961 0.959 . S
C973 C971 1.561 . S
C974 C971 1.526 . S
C974 C975 1.396 . S
C974 C979 1.390 . S
C975 C969 1.465 . S
C975 C974 1.396 . S
C975 C976 1.399 . S
C976 H962 0.929 . S
C976 C975 1.399 . S
C976 C977 1.385 . S
C977 H963 0.931 . S
C977 C976 1.385 . S
C977 C978 1.389 . S
C978 C977 1.389 . S
C978 C979 1.387 . S
C979 H964 0.930 . S
C979 C974 1.390 . S
C979 C978 1.387 . S
H980 C992 0.930 . S
H981 C994 0.930 . S
H982 C995 0.930 . S
H983 C999 0.959 . S
H984 C999 0.959 . S
H985 C999 0.961 . S
H986 C1000 0.960 . S
H987 C1000 0.961 . S
H988 C1000 0.959 . S
H989 C1003 0.929 . S
H990 C1004 0.931 . S
H991 C1006 0.930 . S
C992 H980 0.930 . S
C992 C993 1.399 . S
C992 C997 1.399 . S
C993 C992 1.399 . S
C993 C994 1.376 . S
C994 H981 0.930 . S
C994 C993 1.376 . S
C994 C995 1.388 . S
C995 H982 0.930 . S
C995 C994 1.388 . S
C995 C996 1.390 . S
C996 C995 1.390 . S
C996 C997 1.394 . S
C996 C1002 1.465 . S
C997 C992 1.399 . S
C997 C996 1.394 . S
C997 C998 1.516 . S
C998 C997 1.516 . S
C998 C999 1.502 . S
C998 C1000 1.561 . S
C998 C1001 1.526 . S
C999 H983 0.959 . S
C999 H984 0.959 . S
C999 H985 0.961 . S
C999 C998 1.502 . S
C1000 H986 0.960 . S
C1000 H987 0.961 . S
C1000 H988 0.959 . S
C1000 C998 1.561 . S
C1001 C998 1.526 . S
C1001 C1002 1.396 . S
C1001 C1006 1.390 . S
C1002 C996 1.465 . S
C1002 C1001 1.396 . S
C1002 C1003 1.399 . S
C1003 H989 0.929 . S
C1003 C1002 1.399 . S
C1003 C1004 1.385 . S
C1004 H990 0.931 . S
C1004 C1003 1.385 . S
C1004 C1005 1.389 . S
C1005 C1004 1.389 . S
C1005 C1006 1.387 . S
C1006 H991 0.930 . S
C1006 C1001 1.390 . S
C1006 C1005 1.387 . S
H1007 C1019 0.930 . S
H1008 C1021 0.930 . S
H1009 C1022 0.930 . S
H1010 C1026 0.959 . S
H1011 C1026 0.959 . S
H1012 C1026 0.961 . S
H1013 C1027 0.960 . S
H1014 C1027 0.961 . S
H1015 C1027 0.959 . S
H1016 C1030 0.929 . S
H1017 C1031 0.931 . S
H1018 C1033 0.930 . S
C1019 H1007 0.930 . S
C1019 C1020 1.399 . S
C1019 C1024 1.399 . S
C1020 C1019 1.399 . S
C1020 C1021 1.376 . S
C1021 H1008 0.930 . S
C1021 C1020 1.376 . S
C1021 C1022 1.388 . S
C1022 H1009 0.930 . S
C1022 C1021 1.388 . S
C1022 C1023 1.390 . S
C1023 C1022 1.390 . S
C1023 C1024 1.394 . S
C1023 C1029 1.465 . S
C1024 C1019 1.399 . S
C1024 C1023 1.394 . S
C1024 C1025 1.516 . S
C1025 C1024 1.516 . S
C1025 C1026 1.502 . S
C1025 C1027 1.561 . S
C1025 C1028 1.526 . S
C1026 H1010 0.959 . S
C1026 H1011 0.959 . S
C1026 H1012 0.961 . S
C1026 C1025 1.502 . S
C1027 H1013 0.960 . S
C1027 H1014 0.961 . S
C1027 H1015 0.959 . S
C1027 C1025 1.561 . S
C1028 C1025 1.526 . S
C1028 C1029 1.396 . S
C1028 C1033 1.390 . S
C1029 C1023 1.465 . S
C1029 C1028 1.396 . S
C1029 C1030 1.399 . S
C1030 H1016 0.929 . S
C1030 C1029 1.399 . S
C1030 C1031 1.385 . S
C1031 H1017 0.931 . S
C1031 C1030 1.385 . S
C1031 C1032 1.389 . S
C1032 C1031 1.389 . S
C1032 C1033 1.387 . S
C1033 H1018 0.930 . S
C1033 C1028 1.390 . S
C1033 C1032 1.387 . S
H1034 C1046 0.930 . S
H1035 C1048 0.930 . S
H1036 C1049 0.930 . S
H1037 C1053 0.959 . S
H1038 C1053 0.959 . S
H1039 C1053 0.961 . S
H1040 C1054 0.960 . S
H1041 C1054 0.961 . S
H1042 C1054 0.959 . S
H1043 C1057 0.929 . S
H1044 C1058 0.931 . S
H1045 C1060 0.930 . S
C1046 H1034 0.930 . S
C1046 C1047 1.399 . S
C1046 C1051 1.399 . S
C1047 C1046 1.399 . S
C1047 C1048 1.376 . S
C1048 H1035 0.930 . S
C1048 C1047 1.376 . S
C1048 C1049 1.388 . S
C1049 H1036 0.930 . S
C1049 C1048 1.388 . S
C1049 C1050 1.390 . S
C1050 C1049 1.390 . S
C1050 C1051 1.394 . S
C1050 C1056 1.465 . S
C1051 C1046 1.399 . S
C1051 C1050 1.394 . S
C1051 C1052 1.516 . S
C1052 C1051 1.516 . S
C1052 C1053 1.502 . S
C1052 C1054 1.561 . S
C1052 C1055 1.526 . S
C1053 H1037 0.959 . S
C1053 H1038 0.959 . S
C1053 H1039 0.961 . S
C1053 C1052 1.502 . S
C1054 H1040 0.960 . S
C1054 H1041 0.961 . S
C1054 H1042 0.959 . S
C1054 C1052 1.561 . S
C1055 C1052 1.526 . S
C1055 C1056 1.396 . S
C1055 C1060 1.390 . S
C1056 C1050 1.465 . S
C1056 C1055 1.396 . S
C1056 C1057 1.399 . S
C1057 H1043 0.929 . S
C1057 C1056 1.399 . S
C1057 C1058 1.385 . S
C1058 H1044 0.931 . S
C1058 C1057 1.385 . S
C1058 C1059 1.389 . S
C1059 C1058 1.389 . S
C1059 C1060 1.387 . S
C1060 H1045 0.930 . S
C1060 C1055 1.390 . S
C1060 C1059 1.387 . S
H1061 C1073 0.930 . S
H1062 C1075 0.930 . S
H1063 C1076 0.930 . S
H1064 C1080 0.959 . S
H1065 C1080 0.959 . S
H1066 C1080 0.961 . S
H1067 C1081 0.960 . S
H1068 C1081 0.961 . S
H1069 C1081 0.959 . S
H1070 C1084 0.929 . S
H1071 C1085 0.931 . S
H1072 C1087 0.930 . S
C1073 H1061 0.930 . S
C1073 C1074 1.399 . S
C1073 C1078 1.399 . S
C1074 C1073 1.399 . S
C1074 C1075 1.376 . S
C1075 H1062 0.930 . S
C1075 C1074 1.376 . S
C1075 C1076 1.388 . S
C1076 H1063 0.930 . S
C1076 C1075 1.388 . S
C1076 C1077 1.390 . S
C1077 C1076 1.390 . S
C1077 C1078 1.394 . S
C1077 C1083 1.465 . S
C1078 C1073 1.399 . S
C1078 C1077 1.394 . S
C1078 C1079 1.516 . S
C1079 C1078 1.516 . S
C1079 C1080 1.502 . S
C1079 C1081 1.561 . S
C1079 C1082 1.526 . S
C1080 H1064 0.959 . S
C1080 H1065 0.959 . S
C1080 H1066 0.961 . S
C1080 C1079 1.502 . S
C1081 H1067 0.960 . S
C1081 H1068 0.961 . S
C1081 H1069 0.959 . S
C1081 C1079 1.561 . S
C1082 C1079 1.526 . S
C1082 C1083 1.396 . S
C1082 C1087 1.390 . S
C1083 C1077 1.465 . S
C1083 C1082 1.396 . S
C1083 C1084 1.399 . S
C1084 H1070 0.929 . S
C1084 C1083 1.399 . S
C1084 C1085 1.385 . S
C1085 H1071 0.931 . S
C1085 C1084 1.385 . S
C1085 C1086 1.389 . S
C1086 C1085 1.389 . S
C1086 C1087 1.387 . S
C1087 H1072 0.930 . S
C1087 C1082 1.390 . S
C1087 C1086 1.387 . S
C237 C8 1.313 . S
C249 C190 1.284 . S
C264 C162 1.276 . S
C276 C22 1.307 . S
C291 C176 1.274 . S
C303 C36 1.310 . S
C318 C148 1.321 . S
C330 C50 1.268 . S
C345 C64 1.273 . S
C357 C218 1.311 . S
C372 C78 1.287 . S
C384 C134 1.295 . S
C399 C204 1.315 . S
C411 C92 1.282 . S
C426 C106 1.311 . S
C438 C120 1.286 . S
C453 C63 1.546 . S
C465 C7 1.606 . S
C480 C21 1.546 . S
C492 C77 1.606 . S
C507 C35 1.610 . S
C519 C91 1.559 . S
C534 C105 1.562 . S
C546 C49 1.608 . S
C561 C119 1.590 . S
C573 C147 1.584 . S
C588 C133 1.566 . S
C600 C161 1.605 . S
C615 C203 1.545 . S
C627 C175 1.611 . S
C642 C189 1.545 . S
C654 C217 1.613 . S
C669 C73 1.410 . S
C681 C3 1.434 1_565 S
C696 C17 1.451 . S
C708 C87 1.419 1_565 S
C723 C31 1.432 1_545 S
C735 C101 1.455 . S
C750 C59 1.456 1_545 S
C762 C45 1.434 . S
C777 C65 1.189 . S
C789 C149 1.218 . S
C804 C37 1.230 . S
C816 C121 1.241 . S
C831 C163 1.218 . S
C843 C93 1.239 . S
C858 C135 1.233 . S
C870 C9 1.241 . S
C885 C115 1.453 . S
C897 C171 1.421 . S
C912 C143 1.415 . S
C924 C213 1.421 . S
C939 C185 1.436 . S
C951 C129 1.411 . S
C966 C157 1.454 . S
C978 C199 1.424 . S
C993 C205 1.182 . S
C1005 C23 1.208 . S
C1020 C191 1.232 . S
C1032 C79 1.205 . S
C1047 C219 1.179 . S
C1059 C51 1.181 . S
C1074 C177 1.194 . S
C1086 C107 1.178 . S
