# Generated by pormake.
# Topology qtz-x, (6)-cn, num edge types: 1
# Building blocks:
#     Node 0, Type 0, BuildingBlock: KUMJIN_clean_sbu_1, # of connection points: 6
#     Node 1, Type 0, BuildingBlock: KUMJIN_clean_sbu_1, # of connection points: 6
#     Node 2, Type 0, BuildingBlock: KUMJIN_clean_sbu_1, # of connection points: 6
#     Edge 3, Type (0, 0), BuildingBlock: TEMPAE_clean_linker_10, # of connection points: 2
#     Edge 4, Type (0, 0), BuildingBlock: TEMPAE_clean_linker_10, # of connection points: 2
#     Edge 5, Type (0, 0), BuildingBlock: TEMPAE_clean_linker_10, # of connection points: 2
#     Edge 6, Type (0, 0), BuildingBlock: TEMPAE_clean_linker_10, # of connection points: 2
#     Edge 7, Type (0, 0), BuildingBlock: TEMPAE_clean_linker_10, # of connection points: 2
#     Edge 8, Type (0, 0), BuildingBlock: TEMPAE_clean_linker_10, # of connection points: 2
#     Edge 9, Type (0, 0), BuildingBlock: TEMPAE_clean_linker_10, # of connection points: 2
#     Edge 10, Type (0, 0), BuildingBlock: TEMPAE_clean_linker_10, # of connection points: 2
#     Edge 11, Type (0, 0), BuildingBlock: TEMPAE_clean_linker_10, # of connection points: 2
# Relax obj value: 0.204
# Max RMSD: 0.280
# Mean RMSD: 0.280
data_MOF--net-qtz-x--node1-KUMJIN_clean_sbu_1--edge1-TEMPAE_clean_linker_10
_symmetry_space_group_name_H-M    P1
_symmetry_Int_Tables_number       1
_symmetry_cell_setting            triclinic
loop_
_symmetry_equiv_pos_as_xyz
'x, y, z'
_cell_length_a     15.158309
_cell_length_b     15.169553
_cell_length_c     53.147273
_cell_angle_alpha  89.964921
_cell_angle_beta   90.054823
_cell_angle_gamma 119.97262
loop_
_atom_site_label
_atom_site_type_symbol
_atom_site_fract_x
_atom_site_fract_y
_atom_site_fract_z
_atom_type_partial_charge
Eu0 Eu 0.97052 0.45041 0.1436 0.0
C1 C 0.43273 0.67809 0.13987 0.0
N2 N 0.38101 0.58938 0.15279 0.0
C3 C 0.47673 0.52353 0.13216 0.0
C4 C 0.50697 0.69176 0.12189 0.0
C5 C 0.40461 0.51385 0.14997 0.0
C6 C 0.52727 0.61238 0.11783 0.0
C7 C 0.47299 0.85254 0.1339 0.0
C8 C 0.41391 0.75655 0.1454 0.0
C9 C 0.54363 0.86521 0.11512 0.0
C10 C 0.56008 0.78473 0.10902 0.0
Eu11 Eu 0.24975 0.57346 0.17988 0.0
N12 N 0.34497 0.74204 0.16364 0.0
C13 C 0.46337 0.93435 0.14257 0.0
C14 C 0.34349 0.82415 0.17381 0.0
C15 C 0.40004 0.92059 0.16298 0.0
H16 H 0.36426 0.44445 0.16076 0.0
H17 H 0.39624 0.98464 0.1707 0.0
H18 H 0.94553 0.65 0.12681 0.0
H19 H 0.71275 0.10891 0.19656 0.0
H20 H 0.29953 0.81638 0.19049 0.0
H21 H 0.50888 0.00957 0.13466 0.0
H22 H 0.86935 0.22493 0.17335 0.0
H23 H 0.49322 0.46249 0.12948 0.0
H24 H 0.58831 0.93796 0.1058 0.0
H25 H 0.6165 0.79629 0.09492 0.0
H26 H 0.8268 0.71456 0.13413 0.0
H27 H 0.58346 0.61984 0.10412 0.0
H28 H 0.58145 0.1573 0.20408 0.0
N29 N 0.85946 0.51595 0.14847 0.0
C30 C 0.7728 0.45761 0.16172 0.0
C31 C 0.81088 0.64236 0.14206 0.0
C32 C 0.70134 0.48991 0.16572 0.0
C33 C 0.87855 0.60626 0.13821 0.0
C34 C 0.7222 0.58425 0.15601 0.0
N35 N 0.82755 0.33795 0.16783 0.0
C36 C 0.81287 0.24696 0.17651 0.0
C37 C 0.66525 0.30168 0.1847 0.0
C38 C 0.75548 0.36518 0.17132 0.0
C39 C 0.64999 0.20847 0.19382 0.0
C40 C 0.72405 0.18096 0.18965 0.0
H41 H 0.67014 0.6126 0.15903 0.0
H42 H 0.55572 0.45061 0.18239 0.0
H43 H 0.52379 0.28547 0.19883 0.0
O44 O 0.92918 0.33135 0.11536 0.0
O45 O 0.96347 0.47021 0.18569 0.0
O46 O 0.10315 0.46223 0.19951 0.0
O47 O 0.89303 0.45113 0.10919 0.0
O48 O 0.02833 0.33893 0.15063 0.0
O49 O 0.16841 0.40219 0.1781 0.0
O50 O 0.31035 0.65018 0.21599 0.0
O51 O 0.23087 0.51301 0.13983 0.0
O52 O 0.12074 0.56165 0.12603 0.0
O53 O 0.35441 0.54528 0.20215 0.0
O54 O 0.15597 0.65324 0.18289 0.0
O55 O 0.08473 0.61862 0.14371 0.0
C56 C 0.02238 0.47036 0.20384 0.0
C57 C 0.78766 0.29481 0.08934 0.0
C58 C 0.68705 0.2301 0.05101 0.0
C59 C 0.60041 0.16928 0.06571 0.0
C60 C 0.70089 0.23402 0.10386 0.0
C61 C 0.60753 0.17161 0.09198 0.0
C62 C 0.78036 0.2926 0.06312 0.0
C63 C 0.09565 0.32907 0.16448 0.0
C64 C 0.88551 0.36731 0.10068 0.0
C65 C 0.61167 0.42724 0.1792 0.0
C66 C 0.59345 0.33316 0.18855 0.0
C67 C 0.18939 0.53613 0.12131 0.0
C68 C 0.32289 0.54157 0.24554 0.0
C69 C 0.32996 0.54216 0.29146 0.0
C70 C 0.25677 0.43788 0.2915 0.0
C71 C 0.24948 0.43749 0.24607 0.0
C72 C 0.36288 0.59357 0.26827 0.0
C73 C 0.21696 0.38616 0.26894 0.0
C74 C 0.10946 0.67188 0.16453 0.0
C75 C 0.35321 0.59687 0.22144 0.0
H76 H 0.52728 0.12057 0.05695 0.0
H77 H 0.70494 0.23608 0.1242 0.0
H78 H 0.53999 0.12622 0.10309 0.0
H79 H 0.84727 0.34294 0.05218 0.0
H80 H 0.22833 0.39673 0.30901 0.0
H81 H 0.21641 0.39597 0.22883 0.0
H82 H 0.41911 0.67393 0.26784 0.0
H83 H 0.15978 0.30622 0.26919 0.0
Eu84 Eu 0.68359 0.13236 0.47888 0.0
C85 C 0.36963 0.66452 0.48811 0.0
N86 N 0.37194 0.74202 0.50152 0.0
C87 C 0.19353 0.67481 0.49431 0.0
C88 C 0.27855 0.59006 0.47669 0.0
C89 C 0.2855 0.74693 0.50527 0.0
C90 C 0.19018 0.59648 0.47979 0.0
C91 C 0.45883 0.58207 0.47122 0.0
C92 C 0.45952 0.66168 0.48516 0.0
C93 C 0.36838 0.50828 0.45969 0.0
C94 C 0.27862 0.51238 0.46237 0.0
Eu95 Eu 0.53091 0.86269 0.51854 0.0
N96 N 0.54691 0.73557 0.4961 0.0
C97 C 0.54872 0.57786 0.46958 0.0
C98 C 0.6328 0.72773 0.49574 0.0
C99 C 0.63556 0.65011 0.48222 0.0
H100 H 0.28755 0.80611 0.51696 0.0
H101 H 0.7044 0.6452 0.48188 0.0
H102 H 0.93175 0.22295 0.4889 0.0
H103 H 0.45883 0.32063 0.49463 0.0
H104 H 0.69882 0.77869 0.50638 0.0
H105 H 0.55112 0.51762 0.4592 0.0
H106 H 0.49621 0.19483 0.47621 0.0
H107 H 0.12526 0.67948 0.49714 0.0
H108 H 0.36689 0.44719 0.44879 0.0
H109 H 0.20949 0.45481 0.45338 0.0
H110 H 0.07662 0.36903 0.50999 0.0
H111 H 0.11889 0.54098 0.47123 0.0
H112 H 0.58715 0.45926 0.52113 0.0
N113 N 0.82548 0.26939 0.49853 0.0
C114 C 0.80985 0.34162 0.50934 0.0
C115 C 1.00192 0.36192 0.51007 0.0
C116 C 0.89038 0.42668 0.52141 0.0
C117 C 0.92008 0.27937 0.49818 0.0
C118 C 0.98685 0.43551 0.52191 0.0
N119 N 0.63822 0.25028 0.49529 0.0
C120 C 0.55026 0.24977 0.48922 0.0
C121 C 0.69688 0.40807 0.51791 0.0
C122 C 0.71339 0.33113 0.50796 0.0
C123 C 0.6026 0.40154 0.5139 0.0
C124 C 0.52981 0.32319 0.49904 0.0
H125 H 0.05049 0.49959 0.53105 0.0
H126 H 0.93342 0.56629 0.5417 0.0
H127 H 0.76447 0.55072 0.53838 0.0
O128 O 0.64749 0.18519 0.44415 0.0
O129 O 0.73375 0.13711 0.51932 0.0
O130 O 0.58344 0.01631 0.5364 0.0
O131 O 0.79946 0.21139 0.45013 0.0
O132 O 0.50991 0.04666 0.4809 0.0
O133 O 0.47154 0.97318 0.52042 0.0
O134 O 0.57241 0.80777 0.55225 0.0
O135 O 0.49076 0.86577 0.47756 0.0
O136 O 0.6451 0.98157 0.46112 0.0
O137 O 0.41688 0.7695 0.54639 0.0
O138 O 0.70399 0.93346 0.51597 0.0
O139 O 0.75754 0.03422 0.47984 0.0
C140 C 0.67878 0.08754 0.53885 0.0
C141 C 0.78306 0.32895 0.42462 0.0
C142 C 0.84952 0.437 0.38749 0.0
C143 C 0.87555 0.52271 0.40264 0.0
C144 C 0.8093 0.41483 0.4395 0.0
C145 C 0.855 0.51135 0.42847 0.0
C146 C 0.80187 0.34017 0.39875 0.0
C147 C 0.4503 0.01193 0.50076 0.0
C148 C 0.73997 0.22696 0.43551 0.0
C149 C 0.87258 0.50064 0.53229 0.0
C150 C 0.77619 0.49146 0.53051 0.0
C151 C 0.55351 0.90305 0.4585 0.0
C152 C 0.47861 0.80924 0.58758 0.0
C153 C 0.49416 0.80421 0.63318 0.0
C154 C 0.46858 0.88112 0.63545 0.0
C155 C 0.45444 0.88695 0.59031 0.0
C156 C 0.49885 0.76837 0.60903 0.0
C157 C 0.44904 0.92214 0.61412 0.0
C158 C 0.77322 0.98675 0.49866 0.0
C159 C 0.48261 0.77146 0.56235 0.0
H160 H 0.91345 0.59854 0.39466 0.0
H161 H 0.79531 0.40746 0.45952 0.0
H162 H 0.87577 0.57768 0.44002 0.0
H163 H 0.77955 0.27283 0.38742 0.0
H164 H 0.46603 0.91143 0.65371 0.0
H165 H 0.43936 0.92032 0.57402 0.0
H166 H 0.51731 0.70834 0.60691 0.0
H167 H 0.43052 0.9821 0.61606 0.0
Eu168 Eu 0.76447 0.42579 0.81055 0.0
C169 C 0.53944 0.66775 0.819 0.0
N170 N 0.63042 0.6969 0.83029 0.0
C171 C 0.69795 0.86621 0.81422 0.0
C172 C 0.52491 0.73722 0.80441 0.0
C173 C 0.70811 0.79545 0.82895 0.0
C174 C 0.6062 0.8368 0.80173 0.0
C175 C 0.36207 0.53992 0.81311 0.0
C176 C 0.45964 0.56937 0.82291 0.0
C177 C 0.34826 0.60758 0.79778 0.0
C178 C 0.4295 0.70595 0.79344 0.0
Eu179 Eu 0.6454 0.56963 0.8524 0.0
N180 N 0.47485 0.50602 0.83817 0.0
C181 C 0.27997 0.44561 0.82015 0.0
C182 C 0.39267 0.41981 0.84738 0.0
C183 C 0.29494 0.38654 0.83788 0.0
H184 H 0.77905 0.8179 0.8385 0.0
H185 H 0.23093 0.31628 0.8446 0.0
H186 H 0.57016 0.18888 0.80193 0.0
H187 H 0.13076 0.55758 0.85779 0.0
H188 H 0.40149 0.37613 0.86221 0.0
H189 H 0.20388 0.4204 0.81311 0.0
H190 H 1.00045 0.57641 0.83476 0.0
H191 H 0.76078 0.94337 0.81252 0.0
H192 H 0.27413 0.58578 0.78993 0.0
H193 H 0.41687 0.7583 0.78223 0.0
H194 H 0.51824 0.01431 0.81606 0.0
H195 H 0.59832 0.89204 0.79047 0.0
H196 H 0.09736 0.38659 0.87029 0.0
N197 N 0.71376 0.25541 0.82029 0.0
C198 C 0.7815 0.23954 0.83347 0.0
C199 C 0.59248 0.07699 0.82106 0.0
C200 C 0.7565 0.1408 0.84117 0.0
C201 C 0.62157 0.17594 0.81335 0.0
C202 C 0.65972 0.05958 0.83532 0.0
N203 N 0.8931 0.41817 0.83422 0.0
C204 C 0.98408 0.50159 0.84017 0.0
C205 C 0.94648 0.30882 0.8538 0.0
C206 C 0.87447 0.32304 0.84024 0.0
C207 C 0.03965 0.39434 0.86009 0.0
C208 C 0.05861 0.49105 0.85316 0.0
H209 H 0.63612 0.98326 0.84176 0.0
H210 H 0.8103 0.05101 0.86065 0.0
H211 H 0.97748 0.19778 0.8712 0.0
O212 O 0.88253 0.48448 0.78156 0.0
O213 O 0.72985 0.38037 0.85145 0.0
O214 O 0.7634 0.53297 0.86698 0.0
O215 O 0.7449 0.33922 0.77629 0.0
O216 O 0.86627 0.59813 0.81513 0.0
O217 O 0.81751 0.65767 0.85015 0.0
O218 O 0.57935 0.53251 0.89011 0.0
O219 O 0.69338 0.6201 0.81194 0.0
O220 O 0.65593 0.47 0.79324 0.0
O221 O 0.66792 0.68928 0.87897 0.0
O222 O 0.56161 0.39642 0.85013 0.0
O223 O 0.59474 0.36651 0.80975 0.0
C224 C 0.74434 0.43999 0.87062 0.0
C225 C 0.89087 0.36253 0.75513 0.0
C226 C 0.91713 0.28777 0.71727 0.0
C227 C 0.98681 0.26962 0.73058 0.0
C228 C 0.95965 0.34338 0.76833 0.0
C229 C 0.00811 0.29778 0.75595 0.0
C230 C 0.87138 0.33628 0.72973 0.0
C231 C 0.88231 0.66867 0.83208 0.0
C232 C 0.83333 0.4048 0.7672 0.0
C233 C 0.8279 0.12648 0.85475 0.0
C234 C 0.92304 0.21011 0.8608 0.0
C235 C 0.67124 0.56269 0.79189 0.0
C236 C 0.52828 0.64388 0.90605 0.0
C237 C 0.42283 0.63711 0.94141 0.0
C238 C 0.36522 0.66141 0.92503 0.0
C239 C 0.47045 0.66883 0.88998 0.0
C240 C 0.50484 0.629 0.93179 0.0
C241 C 0.38946 0.67775 0.89948 0.0
C242 C 0.53778 0.33861 0.83002 0.0
C243 C 0.60836 0.62619 0.89599 0.0
H244 H 0.02304 0.23185 0.72161 0.0
H245 H 0.97518 0.36284 0.78806 0.0
H246 H 0.06112 0.28278 0.76613 0.0
H247 H 0.81916 0.35314 0.71971 0.0
H248 H 0.3019 0.66839 0.93205 0.0
H249 H 0.48717 0.68043 0.87009 0.0
H250 H 0.5485 0.6083 0.94418 0.0
H251 H 0.34487 0.69659 0.88697 0.0
C252 C 0.13319 0.82905 0.14396 0.0
C253 C 0.10359 0.76566 0.16511 0.0
C254 C 0.12773 0.91855 0.14391 0.0
C255 C 0.08904 0.94353 0.16531 0.0
C256 C 0.05718 0.87839 0.18657 0.0
C257 C 0.06642 0.79073 0.18637 0.0
C258 C 0.16545 0.9874 0.12117 0.0
C259 C 0.01367 0.90148 0.20952 0.0
C260 C 0.17279 0.22174 0.17529 0.0
C261 C 0.09094 0.22887 0.16511 0.0
C262 C 0.17278 0.12943 0.17551 0.0
C263 C 0.08767 0.04086 0.16589 0.0
C264 C 0.00367 0.04649 0.15605 0.0
C265 C 0.0069 0.14079 0.15545 0.0
C266 C 0.26506 0.12732 0.18556 0.0
C267 C 0.91083 0.95306 0.14602 0.0
H268 H 0.16261 0.80947 0.1276 0.0
H269 H 0.04269 0.74066 0.20259 0.0
H270 H 0.10385 0.99893 0.11353 0.0
H271 H 0.22909 0.06325 0.12669 0.0
H272 H 0.19249 0.95633 0.106 0.0
H273 H 0.98687 0.84007 0.22385 0.0
H274 H 0.07223 0.97368 0.21823 0.0
H275 H 0.94887 0.91198 0.20401 0.0
H276 H 0.23841 0.28891 0.18278 0.0
H277 H 0.9434 0.1452 0.14749 0.0
H278 H 0.29868 0.10257 0.17052 0.0
H279 H 0.24261 0.07147 0.20113 0.0
H280 H 0.32466 0.20285 0.19259 0.0
H281 H 0.93192 0.92357 0.12936 0.0
H282 H 0.84933 0.96884 0.1405 0.0
H283 H 0.8806 0.89192 0.16043 0.0
C284 C 0.33322 0.0675 0.51751 0.0
C285 C 0.35239 0.0094 0.50033 0.0
C286 C 0.23994 0.06602 0.51722 0.0
C287 C 0.16216 0.99951 0.50049 0.0
C288 C 0.18075 0.93834 0.4836 0.0
C289 C 0.27728 0.94701 0.48309 0.0
C290 C 0.22542 0.13688 0.53444 0.0
C291 C 0.09832 0.86247 0.46643 0.0
C292 C 0.89258 0.93415 0.5175 0.0
C293 C 0.87243 0.98898 0.4993 0.0
C294 C 0.98514 0.9339 0.51755 0.0
C295 C 0.0623 0.99583 0.50019 0.0
C296 C 0.04417 0.0545 0.48246 0.0
C297 C 0.94848 0.04755 0.48166 0.0
C298 C 0.99977 0.86638 0.53596 0.0
C299 C 0.12616 0.12562 0.46446 0.0
H300 H 0.39236 0.11621 0.53067 0.0
H301 H 0.2929 0.90198 0.4699 0.0
H302 H 0.20116 0.18319 0.52336 0.0
H303 H 0.16438 0.09232 0.54826 0.0
H304 H 0.29612 0.1891 0.54487 0.0
H305 H 0.12267 0.81452 0.45612 0.0
H306 H 0.02912 0.81197 0.47753 0.0
H307 H 0.07675 0.90281 0.4525 0.0
H308 H 0.83554 0.88992 0.53151 0.0
H309 H 0.93421 0.08971 0.46733 0.0
H310 H 0.06035 0.91364 0.54966 0.0
H311 H 0.02472 0.81854 0.52586 0.0
H312 H 0.92896 0.81569 0.54653 0.0
H313 H 0.1972 0.17631 0.47493 0.0
H314 H 0.10314 0.17361 0.45366 0.0
H315 H 0.14409 0.08118 0.45094 0.0
C316 C 0.9923 0.84977 0.84542 0.0
C317 C 0.9802 0.76623 0.83129 0.0
C318 C 0.08301 0.9435 0.84456 0.0
C319 C 0.16564 0.95279 0.83016 0.0
C320 C 0.15513 0.86851 0.81625 0.0
C321 C 0.06167 0.77691 0.81649 0.0
C322 C 0.09012 0.03276 0.85895 0.0
C323 C 0.24287 0.87482 0.80132 0.0
C324 C 0.37236 0.21656 0.81068 0.0
C325 C 0.44337 0.24031 0.82999 0.0
C326 C 0.28087 0.12333 0.81061 0.0
C327 C 0.26291 0.05106 0.82971 0.0
C328 C 0.33638 0.07414 0.84886 0.0
C329 C 0.42501 0.16984 0.84909 0.0
C330 C 0.20266 0.10314 0.79047 0.0
C331 C 0.3216 0.99778 0.86902 0.0
H332 H 0.93042 0.84266 0.85703 0.0
H333 H 0.05325 0.7133 0.80539 0.0
H334 H 0.14905 0.05675 0.87383 0.0
H335 H 0.11363 0.09865 0.84616 0.0
H336 H 0.01673 0.01457 0.86791 0.0
H337 H 0.2237 0.801 0.79248 0.0
H338 H 0.26559 0.93305 0.78633 0.0
H339 H 0.30997 0.89893 0.81375 0.0
H340 H 0.38726 0.27224 0.79607 0.0
H341 H 0.48128 0.18876 0.8638 0.0
H342 H 0.1301 0.08808 0.79931 0.0
H343 H 0.18645 0.03434 0.77957 0.0
H344 H 0.228 0.16811 0.77724 0.0
H345 H 0.25429 0.98093 0.88067 0.0
H346 H 0.38902 0.02549 0.88157 0.0
H347 H 0.30666 0.9252 0.86026 0.0
C348 C 0.29548 0.54965 0.97556 0.0
C349 C 0.39585 0.61837 0.96841 0.0
C350 C 0.26746 0.53344 0.001 0.0
C351 C 0.34135 0.58881 0.01971 0.0
C352 C 0.44332 0.65722 0.01261 0.0
C353 C 0.4696 0.67048 0.98699 0.0
C354 C 0.15827 0.45864 0.00783 0.0
C355 C 0.52361 0.71909 0.03201 0.0
C356 C 0.23212 0.62605 0.08018 0.0
C357 C 0.23381 0.55285 0.09593 0.0
C358 C 0.27068 0.64114 0.05565 0.0
C359 C 0.30984 0.57993 0.04649 0.0
C360 C 0.3138 0.50732 0.06252 0.0
C361 C 0.27637 0.49522 0.0872 0.0
C362 C 0.26769 0.72134 0.0394 0.0
C363 C 0.35422 0.4401 0.05336 0.0
H364 H 0.2388 0.50849 0.96117 0.0
H365 H 0.54714 0.72402 0.98141 0.0
H366 H 0.15545 0.40299 0.02183 0.0
H367 H 0.12264 0.49954 0.01663 0.0
H368 H 0.11208 0.41639 0.99119 0.0
H369 H 0.60053 0.76435 0.02354 0.0
H370 H 0.50377 0.77195 0.04154 0.0
H371 H 0.52649 0.6687 0.04672 0.0
H372 H 0.20075 0.67193 0.08707 0.0
H373 H 0.2775 0.43853 0.09942 0.0
H374 H 0.21517 0.68458 0.02332 0.0
H375 H 0.3443 0.77313 0.0315 0.0
H376 H 0.24188 0.76749 0.04999 0.0
H377 H 0.30423 0.38962 0.03817 0.0
H378 H 0.35805 0.39209 0.06864 0.0
H379 H 0.4314 0.4869 0.04524 0.0
C380 C 0.86234 0.51751 0.34523 0.0
C381 C 0.87363 0.4474 0.36015 0.0
C382 C 0.88324 0.5258 0.31931 0.0
C383 C 0.9145 0.4613 0.30806 0.0
C384 C 0.926 0.3905 0.32299 0.0
C385 C 0.90672 0.38535 0.34885 0.0
C386 C 0.87268 0.60394 0.30402 0.0
C387 C 0.95896 0.3202 0.31165 0.0
C388 C 0.89058 0.41361 0.23759 0.0
C389 C 0.99243 0.47083 0.2301 0.0
C390 C 0.86327 0.41107 0.26292 0.0
C391 C 0.9395 0.46993 0.28085 0.0
C392 C 0.04167 0.53171 0.27303 0.0
C393 C 0.06704 0.53003 0.2478 0.0
C394 C 0.75381 0.34261 0.27062 0.0
C395 C 0.12454 0.59834 0.29137 0.0
H396 H 0.83605 0.56517 0.35373 0.0
H397 H 0.91829 0.33278 0.36027 0.0
H398 H 0.94637 0.65685 0.2949 0.0
H399 H 0.81602 0.56594 0.28879 0.0
H400 H 0.84862 0.64904 0.31567 0.0
H401 H 0.96097 0.26708 0.32573 0.0
H402 H 0.90621 0.27494 0.29625 0.0
H403 H 0.03588 0.36538 0.30329 0.0
H404 H 0.83292 0.36823 0.22384 0.0
H405 H 0.1453 0.57622 0.24183 0.0
H406 H 0.72559 0.38633 0.2813 0.0
H407 H 0.74857 0.28192 0.28326 0.0
H408 H 0.70304 0.30626 0.25417 0.0
H409 H 0.10125 0.64513 0.30251 0.0
H410 H 0.19729 0.64994 0.28167 0.0
H411 H 0.13777 0.55019 0.30481 0.0
C412 C 0.58064 0.52573 0.75073 0.0
C413 C 0.64706 0.59708 0.76826 0.0
C414 C 0.55473 0.5571 0.72848 0.0
C415 C 0.59654 0.6623 0.72368 0.0
C416 C 0.66421 0.73471 0.74125 0.0
C417 C 0.68913 0.70108 0.76329 0.0
C418 C 0.48168 0.4777 0.71026 0.0
C419 C 0.70989 0.84756 0.73685 0.0
C420 C 0.60128 0.74744 0.6563 0.0
C421 C 0.51792 0.76361 0.65602 0.0
C422 C 0.62766 0.71426 0.6782 0.0
C423 C 0.56897 0.69644 0.70028 0.0
C424 C 0.48379 0.711 0.70002 0.0
C425 C 0.45934 0.74448 0.6779 0.0
C426 C 0.71907 0.69951 0.6778 0.0
C427 C 0.41968 0.69323 0.72325 0.0
H428 H 0.54754 0.44511 0.75456 0.0
H429 H 0.74219 0.75624 0.77657 0.0
H430 H 0.41315 0.48552 0.70791 0.0
H431 H 0.51787 0.48936 0.6915 0.0
H432 H 0.45703 0.399 0.71665 0.0
H433 H 0.76329 0.89381 0.75208 0.0
H434 H 0.75129 0.86936 0.71866 0.0
H435 H 0.64843 0.86689 0.73567 0.0
H436 H 0.64741 0.76292 0.63955 0.0
H437 H 0.39403 0.75557 0.67771 0.0
H438 H 0.69596 0.62012 0.68312 0.0
H439 H 0.77594 0.7503 0.69187 0.0
H440 H 0.75613 0.71576 0.65903 0.0
H441 H 0.39556 0.61712 0.73138 0.0
H442 H 0.35076 0.69901 0.71933 0.0
H443 H 0.46583 0.75065 0.7377 0.0
C444 C 0.68306 0.29359 0.90032 0.0
C445 C 0.73053 0.399 0.89636 0.0
C446 C 0.66638 0.25329 0.92473 0.0
C447 C 0.70015 0.32024 0.94557 0.0
C448 C 0.74879 0.42675 0.94165 0.0
C449 C 0.76255 0.4648 0.91707 0.0
C450 C 0.61239 0.13929 0.9282 0.0
C451 C 0.78722 0.50067 0.96342 0.0
C452 C 0.60064 0.24199 0.01195 0.0
C453 C 0.68077 0.2352 0.02321 0.0
C454 C 0.60281 0.2636 0.98621 0.0
C455 C 0.6877 0.28004 0.97156 0.0
C456 C 0.7658 0.26746 0.9825 0.0
C457 C 0.76078 0.24411 0.00814 0.0
C458 C 0.51722 0.27469 0.97504 0.0
C459 C 0.85802 0.28514 0.96757 0.0
H460 H 0.65755 0.24229 0.88434 0.0
H461 H 0.79938 0.54628 0.91408 0.0
H462 H 0.66352 0.11724 0.93778 0.0
H463 H 0.54467 0.1144 0.94041 0.0
H464 H 0.58737 0.09774 0.91003 0.0
H465 H 0.82431 0.58119 0.95711 0.0
H466 H 0.72321 0.48584 0.97611 0.0
H467 H 0.84301 0.48991 0.9746 0.0
H468 H 0.53882 0.23577 0.02348 0.0
H469 H 0.82182 0.23673 0.01664 0.0
H470 H 0.49173 0.23301 0.95693 0.0
H471 H 0.54461 0.35613 0.97105 0.0
H472 H 0.4508 0.24603 0.98791 0.0
H473 H 0.83448 0.24102 0.94979 0.0
H474 H 0.90753 0.26378 0.97828 0.0
H475 H 0.90369 0.36684 0.96245 0.0
C476 C 0.37853 0.69367 0.31906 0.0
C477 C 0.36838 0.59732 0.31568 0.0
C478 C 0.40894 0.74399 0.34228 0.0
C479 C 0.43085 0.69736 0.36254 0.0
C480 C 0.42252 0.60097 0.35918 0.0
C481 C 0.39123 0.55203 0.33579 0.0
C482 C 0.41619 0.84643 0.34524 0.0
C483 C 0.44618 0.54938 0.38033 0.0
C484 C 0.59538 0.86755 0.4156 0.0
C485 C 0.52228 0.8508 0.43395 0.0
C486 C 0.5667 0.81751 0.39231 0.0
C487 C 0.46242 0.74955 0.38728 0.0
C488 C 0.38826 0.73237 0.40575 0.0
C489 C 0.41913 0.78357 0.42883 0.0
C490 C 0.64796 0.8372 0.37313 0.0
C491 C 0.2763 0.66037 0.4011 0.0
H492 H 0.36041 0.72893 0.30371 0.0
H493 H 0.38501 0.47826 0.33321 0.0
H494 H 0.36376 0.84254 0.36032 0.0
H495 H 0.49444 0.90427 0.35102 0.0
H496 H 0.39684 0.87243 0.32761 0.0
H497 H 0.437 0.47487 0.37456 0.0
H498 H 0.5255 0.59897 0.38695 0.0
H499 H 0.39527 0.53693 0.39656 0.0
H500 H 0.67529 0.91919 0.41949 0.0
H501 H 0.36215 0.77178 0.44278 0.0
H502 H 0.6342 0.86859 0.35565 0.0
H503 H 0.64472 0.76471 0.36805 0.0
H504 H 0.72573 0.89138 0.3801 0.0
H505 H 0.25081 0.68529 0.38433 0.0
H506 H 0.22845 0.65582 0.41743 0.0
H507 H 0.26305 0.58291 0.3971 0.0
C508 C 0.96206 0.2653 0.67296 0.0
C509 C 0.88878 0.25457 0.6907 0.0
C510 C 0.93551 0.23945 0.64756 0.0
C511 C 0.83372 0.20323 0.63976 0.0
C512 C 0.75941 0.19094 0.65765 0.0
C513 C 0.78751 0.21542 0.68285 0.0
C514 C 0.01642 0.25215 0.62903 0.0
C515 C 0.65048 0.15466 0.65013 0.0
C516 C 0.76499 0.22009 0.57188 0.0
C517 C 0.72262 0.11883 0.56415 0.0
C518 C 0.80513 0.24985 0.59622 0.0
C519 C 0.80333 0.17638 0.61301 0.0
C520 C 0.76338 0.07457 0.60489 0.0
C521 C 0.72311 0.04707 0.58056 0.0
C522 C 0.84595 0.35891 0.60421 0.0
C523 C 0.76048 0.99411 0.62216 0.0
H524 H 0.04055 0.29604 0.6788 0.0
H525 H 0.72967 0.2044 0.69646 0.0
H526 H 0.99294 0.17894 0.61933 0.0
H527 H 0.02558 0.30821 0.61437 0.0
H528 H 0.09132 0.27831 0.63822 0.0
H529 H 0.59882 0.13256 0.66664 0.0
H530 H 0.64676 0.21651 0.63991 0.0
H531 H 0.6221 0.08888 0.63722 0.0
H532 H 0.76365 0.27525 0.55922 0.0
H533 H 0.69276 0.96952 0.5743 0.0
H534 H 0.92298 0.39014 0.61253 0.0
H535 H 0.79583 0.36223 0.61893 0.0
H536 H 0.85022 0.40829 0.58825 0.0
H537 H 0.83744 0.01933 0.62991 0.0
H538 H 0.73301 0.92019 0.6124 0.0
H539 H 0.70947 0.98243 0.63832 0.0
loop_
_geom_bond_atom_site_label_1
_geom_bond_atom_site_label_2
_geom_bond_distance
_geom_bond_site_symmetry_2
_ccdc_geom_bond_type
Eu0 N29 2.600 . S
Eu0 N35 2.562 . S
Eu0 O44 2.462 . S
Eu0 O45 2.373 . S
Eu0 O47 2.432 . S
Eu0 O48 2.291 . S
Eu0 O52 2.335 1_655 S
Eu0 O55 2.372 . S
Eu0 C64 2.787 . S
C1 N2 1.365 . S
C1 C4 1.405 . S
C1 C8 1.448 . S
N2 C1 1.365 . S
N2 C5 1.319 . S
N2 Eu11 2.600 . S
C3 C5 1.397 . S
C3 C6 1.367 . S
C3 H23 0.931 . S
C4 C1 1.405 . S
C4 C6 1.403 . S
C4 C10 1.439 . S
C5 N2 1.319 . S
C5 C3 1.397 . S
C5 H16 0.930 . S
C6 C3 1.367 . S
C6 C4 1.403 . S
C6 H27 0.929 . S
C7 C8 1.430 . S
C7 C9 1.387 . S
C7 C13 1.404 . S
C8 C1 1.448 . S
C8 C7 1.430 . S
C8 N12 1.351 . S
C9 C7 1.387 . S
C9 C10 1.374 . S
C9 H24 0.931 . S
C10 C4 1.439 . S
C10 C9 1.374 . S
C10 H25 0.931 . S
Eu11 N2 2.600 . S
Eu11 N12 2.562 . S
Eu11 O46 2.335 1_455 S
Eu11 O49 2.372 . S
Eu11 O50 2.462 . S
Eu11 O51 2.373 . S
Eu11 O53 2.432 . S
Eu11 O54 2.291 . S
Eu11 C75 2.787 . S
N12 C8 1.351 . S
N12 Eu11 2.562 . S
N12 C14 1.325 . S
C13 C7 1.404 . S
C13 C15 1.366 . S
C13 H21 0.930 . S
C14 N12 1.325 . S
C14 C15 1.416 . S
C14 H20 0.929 . S
C15 C13 1.366 . S
C15 C14 1.416 . S
C15 H17 0.930 . S
H16 C5 0.930 . S
H17 C15 0.930 . S
H18 C33 0.930 . S
H19 C40 0.930 . S
H20 C14 0.929 . S
H21 C13 0.930 . S
H22 C36 0.929 . S
H23 C3 0.931 . S
H24 C9 0.931 . S
H25 C10 0.931 . S
H26 C31 0.931 . S
H27 C6 0.929 . S
H28 C39 0.930 . S
N29 Eu0 2.600 . S
N29 C30 1.365 . S
N29 C33 1.319 . S
C30 N29 1.365 . S
C30 C32 1.405 . S
C30 C38 1.448 . S
C31 H26 0.931 . S
C31 C33 1.397 . S
C31 C34 1.367 . S
C32 C30 1.405 . S
C32 C34 1.403 . S
C32 C65 1.439 . S
C33 H18 0.930 . S
C33 N29 1.319 . S
C33 C31 1.397 . S
C34 C31 1.367 . S
C34 C32 1.403 . S
C34 H41 0.929 . S
N35 Eu0 2.562 . S
N35 C36 1.325 . S
N35 C38 1.351 . S
C36 H22 0.929 . S
C36 N35 1.325 . S
C36 C40 1.416 . S
C37 C38 1.430 . S
C37 C39 1.404 . S
C37 C66 1.387 . S
C38 C30 1.448 . S
C38 N35 1.351 . S
C38 C37 1.430 . S
C39 H28 0.930 . S
C39 C37 1.404 . S
C39 C40 1.366 . S
C40 H19 0.930 . S
C40 C36 1.416 . S
C40 C39 1.366 . S
H41 C34 0.929 . S
H42 C65 0.931 . S
H43 C66 0.931 . S
O44 Eu0 2.462 . S
O44 C64 1.252 . S
O45 Eu0 2.373 . S
O45 C56 1.249 . S
O46 Eu11 2.335 1_655 S
O46 C56 1.264 . S
O47 Eu0 2.432 . S
O47 C64 1.268 . S
O48 Eu0 2.291 . S
O48 C63 1.255 . S
O49 Eu11 2.372 . S
O49 C63 1.257 1_455 S
O50 Eu11 2.462 . S
O50 C75 1.252 . S
O51 Eu11 2.373 . S
O51 C67 1.249 . S
O52 Eu0 2.335 1_455 S
O52 C67 1.264 . S
O53 Eu11 2.432 . S
O53 C75 1.268 . S
O54 Eu11 2.291 . S
O54 C74 1.255 . S
O55 Eu0 2.372 . S
O55 C74 1.257 1_655 S
C56 O45 1.249 . S
C56 O46 1.264 . S
C57 C60 1.382 . S
C57 C62 1.390 . S
C57 C64 1.506 . S
C58 C59 1.398 . S
C58 C62 1.392 . S
C59 C58 1.398 . S
C59 C61 1.372 . S
C59 H76 0.931 . S
C60 C57 1.382 . S
C60 C61 1.390 . S
C60 H77 0.931 . S
C61 C59 1.372 . S
C61 C60 1.390 . S
C61 H78 0.929 . S
C62 C57 1.390 . S
C62 C58 1.392 . S
C62 H79 0.930 . S
C63 O48 1.255 . S
C63 O49 1.257 1_655 S
C64 Eu0 2.787 . S
C64 O44 1.252 . S
C64 O47 1.268 . S
C64 C57 1.506 . S
C65 C32 1.439 . S
C65 H42 0.931 . S
C65 C66 1.374 . S
C66 C37 1.387 . S
C66 H43 0.931 . S
C66 C65 1.374 . S
C67 O51 1.249 . S
C67 O52 1.264 . S
C68 C71 1.382 . S
C68 C72 1.390 . S
C68 C75 1.506 . S
C69 C70 1.398 . S
C69 C72 1.392 . S
C70 C69 1.398 . S
C70 C73 1.372 . S
C70 H80 0.931 . S
C71 C68 1.382 . S
C71 C73 1.390 . S
C71 H81 0.931 . S
C72 C68 1.390 . S
C72 C69 1.392 . S
C72 H82 0.930 . S
C73 C70 1.372 . S
C73 C71 1.390 . S
C73 H83 0.929 . S
C74 O54 1.255 . S
C74 O55 1.257 1_455 S
C75 Eu11 2.787 . S
C75 O50 1.252 . S
C75 O53 1.268 . S
C75 C68 1.506 . S
H76 C59 0.931 . S
H77 C60 0.931 . S
H78 C61 0.929 . S
H79 C62 0.930 . S
H80 C70 0.931 . S
H81 C71 0.931 . S
H82 C72 0.930 . S
H83 C73 0.929 . S
Eu84 N113 2.600 . S
Eu84 N119 2.562 . S
Eu84 O128 2.462 . S
Eu84 O129 2.373 . S
Eu84 O131 2.432 . S
Eu84 O132 2.291 . S
Eu84 O136 2.335 . S
Eu84 O139 2.372 . S
Eu84 C148 2.787 . S
C85 N86 1.365 . S
C85 C88 1.405 . S
C85 C92 1.448 . S
N86 C85 1.365 . S
N86 C89 1.319 . S
N86 Eu95 2.600 . S
C87 C89 1.397 . S
C87 C90 1.367 . S
C87 H107 0.931 . S
C88 C85 1.405 . S
C88 C90 1.403 . S
C88 C94 1.439 . S
C89 N86 1.319 . S
C89 C87 1.397 . S
C89 H100 0.930 . S
C90 C87 1.367 . S
C90 C88 1.403 . S
C90 H111 0.929 . S
C91 C92 1.430 . S
C91 C93 1.387 . S
C91 C97 1.404 . S
C92 C85 1.448 . S
C92 C91 1.430 . S
C92 N96 1.351 . S
C93 C91 1.387 . S
C93 C94 1.374 . S
C93 H108 0.931 . S
C94 C88 1.439 . S
C94 C93 1.374 . S
C94 H109 0.931 . S
Eu95 N86 2.600 . S
Eu95 N96 2.562 . S
Eu95 O130 2.335 1_565 S
Eu95 O133 2.372 1_565 S
Eu95 O134 2.462 . S
Eu95 O135 2.373 . S
Eu95 O137 2.432 . S
Eu95 O138 2.291 1_565 S
Eu95 C159 2.787 . S
N96 C92 1.351 . S
N96 Eu95 2.562 . S
N96 C98 1.325 . S
C97 C91 1.404 . S
C97 C99 1.366 . S
C97 H105 0.930 . S
C98 N96 1.325 . S
C98 C99 1.416 . S
C98 H104 0.929 . S
C99 C97 1.366 . S
C99 C98 1.416 . S
C99 H101 0.930 . S
H100 C89 0.930 . S
H101 C99 0.930 . S
H102 C117 0.930 . S
H103 C124 0.930 . S
H104 C98 0.929 . S
H105 C97 0.930 . S
H106 C120 0.929 . S
H107 C87 0.931 . S
H108 C93 0.931 . S
H109 C94 0.931 . S
H110 C115 0.931 . S
H111 C90 0.929 . S
H112 C123 0.930 . S
N113 Eu84 2.600 . S
N113 C114 1.365 . S
N113 C117 1.319 1_655 S
C114 N113 1.365 . S
C114 C116 1.405 1_655 S
C114 C122 1.448 . S
C115 H110 0.931 . S
C115 C117 1.397 . S
C115 C118 1.367 . S
C116 C114 1.405 1_455 S
C116 C118 1.403 . S
C116 C149 1.439 . S
C117 H102 0.930 . S
C117 N113 1.319 1_455 S
C117 C115 1.397 . S
C118 C115 1.367 . S
C118 C116 1.403 . S
C118 H125 0.929 . S
N119 Eu84 2.562 . S
N119 C120 1.325 . S
N119 C122 1.351 . S
C120 H106 0.929 . S
C120 N119 1.325 . S
C120 C124 1.416 . S
C121 C122 1.430 . S
C121 C123 1.404 . S
C121 C150 1.387 1_655 S
C122 C114 1.448 . S
C122 N119 1.351 . S
C122 C121 1.430 . S
C123 H112 0.930 . S
C123 C121 1.404 . S
C123 C124 1.366 . S
C124 H103 0.930 . S
C124 C120 1.416 . S
C124 C123 1.366 . S
H125 C118 0.929 . S
H126 C149 0.931 . S
H127 C150 0.931 . S
O128 Eu84 2.462 . S
O128 C148 1.252 . S
O129 Eu84 2.373 . S
O129 C140 1.249 . S
O130 Eu95 2.335 1_545 S
O130 C140 1.264 . S
O131 Eu84 2.432 . S
O131 C148 1.268 . S
O132 Eu84 2.291 . S
O132 C147 1.255 . S
O133 Eu95 2.372 1_545 S
O133 C147 1.257 . S
O134 Eu95 2.462 . S
O134 C159 1.252 . S
O135 Eu95 2.373 . S
O135 C151 1.249 1_565 S
O136 Eu84 2.335 . S
O136 C151 1.264 . S
O137 Eu95 2.432 . S
O137 C159 1.268 . S
O138 Eu95 2.291 1_545 S
O138 C158 1.255 . S
O139 Eu84 2.372 . S
O139 C158 1.257 . S
C140 O129 1.249 . S
C140 O130 1.264 . S
C141 C144 1.382 . S
C141 C146 1.390 . S
C141 C148 1.506 . S
C142 C143 1.398 . S
C142 C146 1.392 . S
C143 C142 1.398 . S
C143 C145 1.372 . S
C143 H160 0.931 . S
C144 C141 1.382 . S
C144 C145 1.390 . S
C144 H161 0.931 . S
C145 C143 1.372 . S
C145 C144 1.390 . S
C145 H162 0.929 . S
C146 C141 1.390 . S
C146 C142 1.392 . S
C146 H163 0.930 . S
C147 O132 1.255 . S
C147 O133 1.257 . S
C148 Eu84 2.787 . S
C148 O128 1.252 . S
C148 O131 1.268 . S
C148 C141 1.506 . S
C149 C116 1.439 . S
C149 H126 0.931 . S
C149 C150 1.374 . S
C150 C121 1.387 1_455 S
C150 H127 0.931 . S
C150 C149 1.374 . S
C151 O135 1.249 1_545 S
C151 O136 1.264 . S
C152 C155 1.382 . S
C152 C156 1.390 . S
C152 C159 1.506 . S
C153 C154 1.398 . S
C153 C156 1.392 . S
C154 C153 1.398 . S
C154 C157 1.372 . S
C154 H164 0.931 . S
C155 C152 1.382 . S
C155 C157 1.390 . S
C155 H165 0.931 . S
C156 C152 1.390 . S
C156 C153 1.392 . S
C156 H166 0.930 . S
C157 C154 1.372 . S
C157 C155 1.390 . S
C157 H167 0.929 . S
C158 O138 1.255 . S
C158 O139 1.257 . S
C159 Eu95 2.787 . S
C159 O134 1.252 . S
C159 O137 1.268 . S
C159 C152 1.506 . S
H160 C143 0.931 . S
H161 C144 0.931 . S
H162 C145 0.929 . S
H163 C146 0.930 . S
H164 C154 0.931 . S
H165 C155 0.931 . S
H166 C156 0.930 . S
H167 C157 0.929 . S
Eu168 N197 2.600 . S
Eu168 N203 2.562 . S
Eu168 O212 2.462 . S
Eu168 O213 2.373 . S
Eu168 O215 2.432 . S
Eu168 O216 2.291 . S
Eu168 O220 2.335 . S
Eu168 O223 2.372 . S
Eu168 C232 2.787 . S
C169 N170 1.365 . S
C169 C172 1.405 . S
C169 C176 1.448 . S
N170 C169 1.365 . S
N170 C173 1.319 . S
N170 Eu179 2.600 . S
C171 C173 1.397 . S
C171 C174 1.367 . S
C171 H191 0.931 . S
C172 C169 1.405 . S
C172 C174 1.403 . S
C172 C178 1.439 . S
C173 N170 1.319 . S
C173 C171 1.397 . S
C173 H184 0.930 . S
C174 C171 1.367 . S
C174 C172 1.403 . S
C174 H195 0.929 . S
C175 C176 1.430 . S
C175 C177 1.387 . S
C175 C181 1.404 . S
C176 C169 1.448 . S
C176 C175 1.430 . S
C176 N180 1.351 . S
C177 C175 1.387 . S
C177 C178 1.374 . S
C177 H192 0.931 . S
C178 C172 1.439 . S
C178 C177 1.374 . S
C178 H193 0.931 . S
Eu179 N170 2.600 . S
Eu179 N180 2.562 . S
Eu179 O214 2.335 . S
Eu179 O217 2.372 . S
Eu179 O218 2.462 . S
Eu179 O219 2.373 . S
Eu179 O221 2.432 . S
Eu179 O222 2.291 . S
Eu179 C243 2.787 . S
N180 C176 1.351 . S
N180 Eu179 2.562 . S
N180 C182 1.325 . S
C181 C175 1.404 . S
C181 C183 1.366 . S
C181 H189 0.930 . S
C182 N180 1.325 . S
C182 C183 1.416 . S
C182 H188 0.929 . S
C183 C181 1.366 . S
C183 C182 1.416 . S
C183 H185 0.930 . S
H184 C173 0.930 . S
H185 C183 0.930 . S
H186 C201 0.930 . S
H187 C208 0.930 . S
H188 C182 0.929 . S
H189 C181 0.930 . S
H190 C204 0.929 . S
H191 C171 0.931 . S
H192 C177 0.931 . S
H193 C178 0.931 . S
H194 C199 0.931 . S
H195 C174 0.929 . S
H196 C207 0.930 . S
N197 Eu168 2.600 . S
N197 C198 1.365 . S
N197 C201 1.319 . S
C198 N197 1.365 . S
C198 C200 1.405 . S
C198 C206 1.448 . S
C199 H194 0.931 . S
C199 C201 1.397 1_565 S
C199 C202 1.367 . S
C200 C198 1.405 . S
C200 C202 1.403 1_545 S
C200 C233 1.439 . S
C201 H186 0.930 . S
C201 N197 1.319 . S
C201 C199 1.397 1_545 S
C202 C199 1.367 . S
C202 C200 1.403 1_565 S
C202 H209 0.929 . S
N203 Eu168 2.562 . S
N203 C204 1.325 . S
N203 C206 1.351 . S
C204 H190 0.929 . S
C204 N203 1.325 . S
C204 C208 1.416 1_655 S
C205 C206 1.430 . S
C205 C207 1.404 1_655 S
C205 C234 1.387 . S
C206 C198 1.448 . S
C206 N203 1.351 . S
C206 C205 1.430 . S
C207 H196 0.930 . S
C207 C205 1.404 1_455 S
C207 C208 1.366 . S
C208 H187 0.930 . S
C208 C204 1.416 1_455 S
C208 C207 1.366 . S
H209 C202 0.929 . S
H210 C233 0.931 1_565 S
H211 C234 0.931 . S
O212 Eu168 2.462 . S
O212 C232 1.252 . S
O213 Eu168 2.373 . S
O213 C224 1.249 . S
O214 Eu179 2.335 . S
O214 C224 1.264 . S
O215 Eu168 2.432 . S
O215 C232 1.268 . S
O216 Eu168 2.291 . S
O216 C231 1.255 . S
O217 Eu179 2.372 . S
O217 C231 1.257 . S
O218 Eu179 2.462 . S
O218 C243 1.252 . S
O219 Eu179 2.373 . S
O219 C235 1.249 . S
O220 Eu168 2.335 . S
O220 C235 1.264 . S
O221 Eu179 2.432 . S
O221 C243 1.268 . S
O222 Eu179 2.291 . S
O222 C242 1.255 . S
O223 Eu168 2.372 . S
O223 C242 1.257 . S
C224 O213 1.249 . S
C224 O214 1.264 . S
C225 C228 1.382 . S
C225 C230 1.390 . S
C225 C232 1.506 . S
C226 C227 1.398 . S
C226 C230 1.392 . S
C227 C226 1.398 . S
C227 C229 1.372 . S
C227 H244 0.931 . S
C228 C225 1.382 . S
C228 C229 1.390 . S
C228 H245 0.931 . S
C229 C227 1.372 . S
C229 C228 1.390 . S
C229 H246 0.929 . S
C230 C225 1.390 . S
C230 C226 1.392 . S
C230 H247 0.930 . S
C231 O216 1.255 . S
C231 O217 1.257 . S
C232 Eu168 2.787 . S
C232 O212 1.252 . S
C232 O215 1.268 . S
C232 C225 1.506 . S
C233 C200 1.439 . S
C233 H210 0.931 1_545 S
C233 C234 1.374 . S
C234 C205 1.387 . S
C234 H211 0.931 . S
C234 C233 1.374 . S
C235 O219 1.249 . S
C235 O220 1.264 . S
C236 C239 1.382 . S
C236 C240 1.390 . S
C236 C243 1.506 . S
C237 C238 1.398 . S
C237 C240 1.392 . S
C238 C237 1.398 . S
C238 C241 1.372 . S
C238 H248 0.931 . S
C239 C236 1.382 . S
C239 C241 1.390 . S
C239 H249 0.931 . S
C240 C236 1.390 . S
C240 C237 1.392 . S
C240 H250 0.930 . S
C241 C238 1.372 . S
C241 C239 1.390 . S
C241 H251 0.929 . S
C242 O222 1.255 . S
C242 O223 1.257 . S
C243 Eu179 2.787 . S
C243 O218 1.252 . S
C243 O221 1.268 . S
C243 C236 1.506 . S
H244 C227 0.931 . S
H245 C228 0.931 . S
H246 C229 0.929 . S
H247 C230 0.930 . S
H248 C238 0.931 . S
H249 C239 0.931 . S
H250 C240 0.930 . S
H251 C241 0.929 . S
C252 C253 1.391 . S
C252 C254 1.394 . S
C252 H268 0.931 . S
C253 C252 1.391 . S
C253 C257 1.376 1_455 S
C254 C252 1.394 . S
C254 C255 1.369 . S
C254 C258 1.531 1_565 S
C255 C254 1.369 . S
C255 C256 1.410 1_455 S
C255 C263 1.504 . S
C256 C255 1.410 1_655 S
C256 C257 1.392 . S
C256 C259 1.511 . S
C257 C253 1.376 1_655 S
C257 C256 1.392 . S
C257 H269 0.929 . S
C258 C254 1.531 1_545 S
C258 H270 0.960 . S
C258 H271 0.962 . S
C258 H272 0.961 . S
C259 C256 1.511 . S
C259 H273 0.961 . S
C259 H274 0.961 . S
C259 H275 0.961 . S
C260 C261 1.370 . S
C260 C262 1.363 . S
C260 H276 0.931 . S
C261 C260 1.370 . S
C261 C265 1.408 1_655 S
C262 C260 1.363 . S
C262 C263 1.370 1_645 S
C262 C266 1.524 1_545 S
C263 C255 1.504 . S
C263 C262 1.370 1_465 S
C263 C264 1.402 1_565 S
C264 C263 1.402 1_545 S
C264 C265 1.404 . S
C264 C267 1.538 1_545 S
C265 C261 1.408 1_455 S
C265 C264 1.404 . S
C265 H277 0.930 . S
C266 C262 1.524 1_565 S
C266 H278 0.956 1_655 S
C266 H279 0.961 . S
C266 H280 0.961 . S
C267 C264 1.538 1_565 S
C267 H281 0.958 1_565 S
C267 H282 0.960 1_565 S
C267 H283 0.962 . S
H268 C252 0.931 . S
H269 C257 0.929 . S
H270 C258 0.960 . S
H271 C258 0.962 . S
H272 C258 0.961 . S
H273 C259 0.961 . S
H274 C259 0.961 . S
H275 C259 0.961 . S
H276 C260 0.931 . S
H277 C265 0.930 . S
H278 C266 0.956 1_455 S
H279 C266 0.961 . S
H280 C266 0.961 . S
H281 C267 0.958 1_545 S
H282 C267 0.960 1_545 S
H283 C267 0.962 . S
C284 C285 1.391 . S
C284 C286 1.394 . S
C284 H300 0.931 . S
C285 C284 1.391 . S
C285 C289 1.376 . S
C286 C284 1.394 . S
C286 C287 1.369 . S
C286 C290 1.531 . S
C287 C286 1.369 . S
C287 C288 1.410 . S
C287 C295 1.503 . S
C288 C287 1.410 . S
C288 C289 1.392 . S
C288 C291 1.511 1_545 S
C289 C285 1.376 . S
C289 C288 1.392 . S
C289 H301 0.929 1_545 S
C290 C286 1.531 . S
C290 H302 0.960 . S
C290 H303 0.962 . S
C290 H304 0.960 . S
C291 C288 1.511 1_565 S
C291 H305 0.961 . S
C291 H306 0.961 . S
C291 H307 0.961 . S
C292 C293 1.370 1_455 S
C292 C294 1.363 . S
C292 H308 0.931 1_455 S
C293 C292 1.370 1_655 S
C293 C297 1.408 . S
C294 C292 1.363 . S
C294 C295 1.370 . S
C294 C298 1.524 . S
C295 C287 1.503 . S
C295 C294 1.370 . S
C295 C296 1.403 . S
C296 C295 1.403 . S
C296 C297 1.404 1_455 S
C296 C299 1.539 . S
C297 C293 1.408 . S
C297 C296 1.404 1_655 S
C297 H309 0.930 . S
C298 C294 1.524 . S
C298 H310 0.956 . S
C298 H311 0.961 . S
C298 H312 0.961 . S
C299 C296 1.539 . S
C299 H313 0.958 . S
C299 H314 0.961 . S
C299 H315 0.960 . S
H300 C284 0.931 . S
H301 C289 0.929 1_565 S
H302 C290 0.960 . S
H303 C290 0.962 . S
H304 C290 0.960 . S
H305 C291 0.961 . S
H306 C291 0.961 . S
H307 C291 0.961 . S
H308 C292 0.931 1_655 S
H309 C297 0.930 . S
H310 C298 0.956 . S
H311 C298 0.961 . S
H312 C298 0.961 . S
H313 C299 0.958 . S
H314 C299 0.961 . S
H315 C299 0.960 . S
C316 C317 1.391 . S
C316 C318 1.394 1_655 S
C316 H332 0.931 . S
C317 C316 1.391 . S
C317 C321 1.376 1_655 S
C318 C316 1.394 1_455 S
C318 C319 1.369 . S
C318 C322 1.531 . S
C319 C318 1.369 . S
C319 C320 1.410 . S
C319 C327 1.503 . S
C320 C319 1.410 . S
C320 C321 1.392 . S
C320 C323 1.511 . S
C321 C317 1.376 1_455 S
C321 C320 1.392 . S
C321 H333 0.929 . S
C322 C318 1.531 . S
C322 H334 0.960 . S
C322 H335 0.962 . S
C322 H336 0.953 1_455 S
C323 C320 1.511 . S
C323 H337 0.961 . S
C323 H338 0.961 . S
C323 H339 0.961 . S
C324 C325 1.370 . S
C324 C326 1.363 . S
C324 H340 0.931 . S
C325 C324 1.370 . S
C325 C329 1.408 . S
C326 C324 1.363 . S
C326 C327 1.370 1_545 S
C326 C330 1.524 . S
C327 C319 1.503 . S
C327 C326 1.370 1_565 S
C327 C328 1.403 1_565 S
C328 C327 1.403 1_545 S
C328 C329 1.404 . S
C328 C331 1.539 1_545 S
C329 C325 1.408 . S
C329 C328 1.404 . S
C329 H341 0.930 . S
C330 C326 1.524 . S
C330 H342 0.956 . S
C330 H343 0.961 1_545 S
C330 H344 0.961 . S
C331 C328 1.539 1_565 S
C331 H345 0.958 . S
C331 H346 0.961 . S
C331 H347 0.960 . S
H332 C316 0.931 . S
H333 C321 0.929 . S
H334 C322 0.960 . S
H335 C322 0.962 . S
H336 C322 0.953 1_655 S
H337 C323 0.961 . S
H338 C323 0.961 . S
H339 C323 0.961 . S
H340 C324 0.931 . S
H341 C329 0.930 . S
H342 C330 0.956 . S
H343 C330 0.961 1_565 S
H344 C330 0.961 . S
H345 C331 0.958 . S
H346 C331 0.961 . S
H347 C331 0.960 . S
C348 C349 1.391 . S
C348 C350 1.394 1_556 S
C348 H364 0.931 . S
C349 C348 1.391 . S
C349 C353 1.376 1_556 S
C350 C348 1.394 1_554 S
C350 C351 1.369 . S
C350 C354 1.531 . S
C351 C350 1.369 . S
C351 C352 1.410 . S
C351 C359 1.503 . S
C352 C351 1.410 . S
C352 C353 1.392 . S
C352 C355 1.511 . S
C353 C349 1.376 1_554 S
C353 C352 1.392 . S
C353 H365 0.929 1_554 S
C354 C350 1.531 . S
C354 H366 0.960 . S
C354 H367 0.962 . S
C354 H368 0.960 . S
C355 C352 1.511 . S
C355 H369 0.961 . S
C355 H370 0.961 . S
C355 H371 0.961 . S
C356 C357 1.370 . S
C356 C358 1.363 . S
C356 H372 0.931 . S
C357 C356 1.370 . S
C357 C361 1.408 . S
C358 C356 1.363 . S
C358 C359 1.370 . S
C358 C362 1.524 . S
C359 C351 1.503 . S
C359 C358 1.370 . S
C359 C360 1.403 . S
C360 C359 1.403 . S
C360 C361 1.404 . S
C360 C363 1.539 . S
C361 C357 1.408 . S
C361 C360 1.404 . S
C361 H373 0.930 . S
C362 C358 1.524 . S
C362 H374 0.956 . S
C362 H375 0.961 . S
C362 H376 0.961 . S
C363 C360 1.539 . S
C363 H377 0.958 . S
C363 H378 0.961 . S
C363 H379 0.960 . S
H364 C348 0.931 . S
H365 C353 0.929 1_556 S
H366 C354 0.960 . S
H367 C354 0.962 . S
H368 C354 0.960 . S
H369 C355 0.961 . S
H370 C355 0.961 . S
H371 C355 0.961 . S
H372 C356 0.931 . S
H373 C361 0.930 . S
H374 C362 0.956 . S
H375 C362 0.961 . S
H376 C362 0.961 . S
H377 C363 0.958 . S
H378 C363 0.961 . S
H379 C363 0.960 . S
C380 C381 1.391 . S
C380 C382 1.394 . S
C380 H396 0.931 . S
C381 C380 1.391 . S
C381 C385 1.376 . S
C382 C380 1.394 . S
C382 C383 1.369 . S
C382 C386 1.531 . S
C383 C382 1.369 . S
C383 C384 1.410 . S
C383 C391 1.503 . S
C384 C383 1.410 . S
C384 C385 1.392 . S
C384 C387 1.511 . S
C385 C381 1.376 . S
C385 C384 1.392 . S
C385 H397 0.929 . S
C386 C382 1.531 . S
C386 H398 0.960 . S
C386 H399 0.962 . S
C386 H400 0.960 . S
C387 C384 1.511 . S
C387 H401 0.961 . S
C387 H402 0.961 . S
C387 H403 0.961 . S
C388 C389 1.370 . S
C388 C390 1.363 . S
C388 H404 0.931 . S
C389 C388 1.370 . S
C389 C393 1.408 . S
C390 C388 1.363 . S
C390 C391 1.370 . S
C390 C394 1.524 . S
C391 C383 1.503 . S
C391 C390 1.370 . S
C391 C392 1.403 . S
C392 C391 1.403 . S
C392 C393 1.404 . S
C392 C395 1.539 . S
C393 C389 1.408 . S
C393 C392 1.404 . S
C393 H405 0.930 . S
C394 C390 1.524 . S
C394 H406 0.956 . S
C394 H407 0.961 . S
C394 H408 0.961 . S
C395 C392 1.539 . S
C395 H409 0.958 . S
C395 H410 0.961 1_655 S
C395 H411 0.960 . S
H396 C380 0.931 . S
H397 C385 0.929 . S
H398 C386 0.960 . S
H399 C386 0.962 . S
H400 C386 0.960 . S
H401 C387 0.961 . S
H402 C387 0.961 . S
H403 C387 0.961 . S
H404 C388 0.931 . S
H405 C393 0.930 . S
H406 C394 0.956 . S
H407 C394 0.961 . S
H408 C394 0.961 . S
H409 C395 0.958 . S
H410 C395 0.961 1_455 S
H411 C395 0.960 . S
C412 C413 1.391 . S
C412 C414 1.394 . S
C412 H428 0.931 . S
C413 C412 1.391 . S
C413 C417 1.376 . S
C414 C412 1.394 . S
C414 C415 1.369 . S
C414 C418 1.531 . S
C415 C414 1.369 . S
C415 C416 1.410 . S
C415 C423 1.503 . S
C416 C415 1.410 . S
C416 C417 1.392 . S
C416 C419 1.511 . S
C417 C413 1.376 . S
C417 C416 1.392 . S
C417 H429 0.929 . S
C418 C414 1.531 . S
C418 H430 0.960 . S
C418 H431 0.962 . S
C418 H432 0.960 . S
C419 C416 1.511 . S
C419 H433 0.961 . S
C419 H434 0.961 . S
C419 H435 0.961 . S
C420 C421 1.370 . S
C420 C422 1.363 . S
C420 H436 0.931 . S
C421 C420 1.370 . S
C421 C425 1.408 . S
C422 C420 1.363 . S
C422 C423 1.370 . S
C422 C426 1.524 . S
C423 C415 1.503 . S
C423 C422 1.370 . S
C423 C424 1.403 . S
C424 C423 1.403 . S
C424 C425 1.404 . S
C424 C427 1.539 . S
C425 C421 1.408 . S
C425 C424 1.404 . S
C425 H437 0.930 . S
C426 C422 1.524 . S
C426 H438 0.956 . S
C426 H439 0.961 . S
C426 H440 0.961 . S
C427 C424 1.539 . S
C427 H441 0.958 . S
C427 H442 0.961 . S
C427 H443 0.960 . S
H428 C412 0.931 . S
H429 C417 0.929 . S
H430 C418 0.960 . S
H431 C418 0.962 . S
H432 C418 0.960 . S
H433 C419 0.961 . S
H434 C419 0.961 . S
H435 C419 0.961 . S
H436 C420 0.931 . S
H437 C425 0.930 . S
H438 C426 0.956 . S
H439 C426 0.961 . S
H440 C426 0.961 . S
H441 C427 0.958 . S
H442 C427 0.961 . S
H443 C427 0.960 . S
C444 C445 1.391 . S
C444 C446 1.394 . S
C444 H460 0.931 . S
C445 C444 1.391 . S
C445 C449 1.376 . S
C446 C444 1.394 . S
C446 C447 1.369 . S
C446 C450 1.531 . S
C447 C446 1.369 . S
C447 C448 1.410 . S
C447 C455 1.503 . S
C448 C447 1.410 . S
C448 C449 1.392 . S
C448 C451 1.511 . S
C449 C445 1.376 . S
C449 C448 1.392 . S
C449 H461 0.929 . S
C450 C446 1.531 . S
C450 H462 0.960 . S
C450 H463 0.962 . S
C450 H464 0.960 . S
C451 C448 1.511 . S
C451 H465 0.961 . S
C451 H466 0.961 . S
C451 H467 0.961 . S
C452 C453 1.370 . S
C452 C454 1.363 1_554 S
C452 H468 0.931 . S
C453 C452 1.370 . S
C453 C457 1.408 . S
C454 C452 1.363 1_556 S
C454 C455 1.370 . S
C454 C458 1.524 . S
C455 C447 1.503 . S
C455 C454 1.370 . S
C455 C456 1.403 . S
C456 C455 1.403 . S
C456 C457 1.404 1_556 S
C456 C459 1.539 . S
C457 C453 1.408 . S
C457 C456 1.404 1_554 S
C457 H469 0.930 . S
C458 C454 1.524 . S
C458 H470 0.956 . S
C458 H471 0.961 . S
C458 H472 0.961 1_556 S
C459 C456 1.539 . S
C459 H473 0.958 . S
C459 H474 0.961 . S
C459 H475 0.960 . S
H460 C444 0.931 . S
H461 C449 0.929 . S
H462 C450 0.960 . S
H463 C450 0.962 . S
H464 C450 0.960 . S
H465 C451 0.961 . S
H466 C451 0.961 . S
H467 C451 0.961 . S
H468 C452 0.931 . S
H469 C457 0.930 . S
H470 C458 0.956 . S
H471 C458 0.961 . S
H472 C458 0.961 1_554 S
H473 C459 0.958 . S
H474 C459 0.961 . S
H475 C459 0.960 . S
C476 C477 1.391 . S
C476 C478 1.394 . S
C476 H492 0.931 . S
C477 C476 1.391 . S
C477 C481 1.376 . S
C478 C476 1.394 . S
C478 C479 1.369 . S
C478 C482 1.531 . S
C479 C478 1.369 . S
C479 C480 1.410 . S
C479 C487 1.503 . S
C480 C479 1.410 . S
C480 C481 1.392 . S
C480 C483 1.511 . S
C481 C477 1.376 . S
C481 C480 1.392 . S
C481 H493 0.929 . S
C482 C478 1.531 . S
C482 H494 0.960 . S
C482 H495 0.962 1_565 S
C482 H496 0.960 . S
C483 C480 1.511 . S
C483 H497 0.961 . S
C483 H498 0.961 . S
C483 H499 0.961 . S
C484 C485 1.370 1_545 S
C484 C486 1.363 1_545 S
C484 H500 0.931 . S
C485 C484 1.370 1_565 S
C485 C489 1.408 . S
C486 C484 1.363 1_565 S
C486 C487 1.370 . S
C486 C490 1.524 1_565 S
C487 C479 1.503 . S
C487 C486 1.370 . S
C487 C488 1.403 . S
C488 C487 1.403 . S
C488 C489 1.404 . S
C488 C491 1.539 . S
C489 C485 1.408 . S
C489 C488 1.404 . S
C489 H501 0.930 . S
C490 C486 1.524 1_545 S
C490 H502 0.956 . S
C490 H503 0.961 1_545 S
C490 H504 0.961 . S
C491 C488 1.539 . S
C491 H505 0.958 . S
C491 H506 0.961 . S
C491 H507 0.960 . S
H492 C476 0.931 . S
H493 C481 0.929 . S
H494 C482 0.960 . S
H495 C482 0.962 1_545 S
H496 C482 0.960 . S
H497 C483 0.961 . S
H498 C483 0.961 . S
H499 C483 0.961 . S
H500 C484 0.931 . S
H501 C489 0.930 . S
H502 C490 0.956 . S
H503 C490 0.961 1_565 S
H504 C490 0.961 . S
H505 C491 0.958 . S
H506 C491 0.961 . S
H507 C491 0.960 . S
C508 C509 1.391 1_455 S
C508 C510 1.394 1_455 S
C508 H524 0.931 . S
C509 C508 1.391 1_655 S
C509 C513 1.376 . S
C510 C508 1.394 1_655 S
C510 C511 1.369 . S
C510 C514 1.531 . S
C511 C510 1.369 . S
C511 C512 1.410 . S
C511 C519 1.503 . S
C512 C511 1.410 . S
C512 C513 1.392 . S
C512 C515 1.511 . S
C513 C509 1.376 . S
C513 C512 1.392 . S
C513 H525 0.929 . S
C514 C510 1.531 . S
C514 H526 0.960 . S
C514 H527 0.962 1_655 S
C514 H528 0.960 1_655 S
C515 C512 1.511 . S
C515 H529 0.961 . S
C515 H530 0.961 . S
C515 H531 0.961 . S
C516 C517 1.370 . S
C516 C518 1.363 . S
C516 H532 0.931 . S
C517 C516 1.370 . S
C517 C521 1.408 . S
C518 C516 1.363 . S
C518 C519 1.370 . S
C518 C522 1.524 . S
C519 C511 1.503 . S
C519 C518 1.370 . S
C519 C520 1.403 . S
C520 C519 1.403 . S
C520 C521 1.404 . S
C520 C523 1.539 . S
C521 C517 1.408 . S
C521 C520 1.404 . S
C521 H533 0.930 . S
C522 C518 1.524 . S
C522 H534 0.956 1_655 S
C522 H535 0.961 . S
C522 H536 0.961 1_655 S
C523 C520 1.539 . S
C523 H537 0.958 . S
C523 H538 0.961 . S
C523 H539 0.960 . S
H524 C508 0.931 . S
H525 C513 0.929 . S
H526 C514 0.960 . S
H527 C514 0.962 1_455 S
H528 C514 0.960 1_455 S
H529 C515 0.961 . S
H530 C515 0.961 . S
H531 C515 0.961 . S
H532 C516 0.931 . S
H533 C521 0.930 . S
H534 C522 0.956 1_455 S
H535 C522 0.961 . S
H536 C522 0.961 1_455 S
H537 C523 0.958 . S
H538 C523 0.961 . S
H539 C523 0.960 . S
C253 C74 1.518 . S
C261 C63 1.558 . S
C285 C147 1.572 . S
C293 C158 1.535 . S
C317 C231 1.526 . S
C325 C242 1.552 . S
C349 C237 1.458 . S
C357 C67 1.557 . S
C381 C142 1.003 . S
C389 C56 1.389 . S
C413 C235 1.593 . S
C421 C153 1.409 . S
C445 C224 1.399 . S
C453 C58 1.063 . S
C477 C69 1.417 . S
C485 C151 1.566 1_565 S
C509 C226 0.942 . S
C517 C140 1.401 . S
