# Generated by pormake.
# Topology una, (4)-cn, num edge types: 1
# Building blocks:
#     Node 0, Type 0, BuildingBlock: QUQFOY_clean_sbu_1, # of connection points: 4
#     Node 1, Type 0, BuildingBlock: QUQFOY_clean_sbu_1, # of connection points: 4
#     Node 2, Type 0, BuildingBlock: QUQFOY_clean_sbu_1, # of connection points: 4
#     Node 3, Type 0, BuildingBlock: QUQFOY_clean_sbu_1, # of connection points: 4
#     Node 4, Type 0, BuildingBlock: QUQFOY_clean_sbu_1, # of connection points: 4
#     Node 5, Type 0, BuildingBlock: QUQFOY_clean_sbu_1, # of connection points: 4
#     Node 6, Type 0, BuildingBlock: QUQFOY_clean_sbu_1, # of connection points: 4
#     Node 7, Type 0, BuildingBlock: QUQFOY_clean_sbu_1, # of connection points: 4
#     Node 8, Type 0, BuildingBlock: QUQFOY_clean_sbu_1, # of connection points: 4
#     Node 9, Type 0, BuildingBlock: QUQFOY_clean_sbu_1, # of connection points: 4
#     Node 10, Type 0, BuildingBlock: QUQFOY_clean_sbu_1, # of connection points: 4
#     Node 11, Type 0, BuildingBlock: QUQFOY_clean_sbu_1, # of connection points: 4
#     Edge 12, Type (0, 0), BuildingBlock: OJICUG_clean_linker_0, # of connection points: 2
#     Edge 13, Type (0, 0), BuildingBlock: OJICUG_clean_linker_0, # of connection points: 2
#     Edge 14, Type (0, 0), BuildingBlock: OJICUG_clean_linker_0, # of connection points: 2
#     Edge 15, Type (0, 0), BuildingBlock: OJICUG_clean_linker_0, # of connection points: 2
#     Edge 16, Type (0, 0), BuildingBlock: OJICUG_clean_linker_0, # of connection points: 2
#     Edge 17, Type (0, 0), BuildingBlock: OJICUG_clean_linker_0, # of connection points: 2
#     Edge 18, Type (0, 0), BuildingBlock: OJICUG_clean_linker_0, # of connection points: 2
#     Edge 19, Type (0, 0), BuildingBlock: OJICUG_clean_linker_0, # of connection points: 2
#     Edge 20, Type (0, 0), BuildingBlock: OJICUG_clean_linker_0, # of connection points: 2
#     Edge 21, Type (0, 0), BuildingBlock: OJICUG_clean_linker_0, # of connection points: 2
#     Edge 22, Type (0, 0), BuildingBlock: OJICUG_clean_linker_0, # of connection points: 2
#     Edge 23, Type (0, 0), BuildingBlock: OJICUG_clean_linker_0, # of connection points: 2
#     Edge 24, Type (0, 0), BuildingBlock: OJICUG_clean_linker_0, # of connection points: 2
#     Edge 25, Type (0, 0), BuildingBlock: OJICUG_clean_linker_0, # of connection points: 2
#     Edge 26, Type (0, 0), BuildingBlock: OJICUG_clean_linker_0, # of connection points: 2
#     Edge 27, Type (0, 0), BuildingBlock: OJICUG_clean_linker_0, # of connection points: 2
#     Edge 28, Type (0, 0), BuildingBlock: OJICUG_clean_linker_0, # of connection points: 2
#     Edge 29, Type (0, 0), BuildingBlock: OJICUG_clean_linker_0, # of connection points: 2
#     Edge 30, Type (0, 0), BuildingBlock: OJICUG_clean_linker_0, # of connection points: 2
#     Edge 31, Type (0, 0), BuildingBlock: OJICUG_clean_linker_0, # of connection points: 2
#     Edge 32, Type (0, 0), BuildingBlock: OJICUG_clean_linker_0, # of connection points: 2
#     Edge 33, Type (0, 0), BuildingBlock: OJICUG_clean_linker_0, # of connection points: 2
#     Edge 34, Type (0, 0), BuildingBlock: OJICUG_clean_linker_0, # of connection points: 2
#     Edge 35, Type (0, 0), BuildingBlock: OJICUG_clean_linker_0, # of connection points: 2
# Relax obj value: 0.112
# Max RMSD: 0.096
# Mean RMSD: 0.096
data_MOF--net-una--node1-QUQFOY_clean_sbu_1--edge1-OJICUG_clean_linker_0
_symmetry_space_group_name_H-M    P1
_symmetry_Int_Tables_number       1
_symmetry_cell_setting            triclinic
loop_
_symmetry_equiv_pos_as_xyz
'x, y, z'
_cell_length_a     42.014018
_cell_length_b     41.245229
_cell_length_c     17.443209
_cell_angle_alpha  90.000879
_cell_angle_beta   89.998277
_cell_angle_gamma 120.57199
loop_
_atom_site_label
_atom_site_type_symbol
_atom_site_fract_x
_atom_site_fract_y
_atom_site_fract_z
_atom_type_partial_charge
O0 O 0.17787 0.52486 0.09966 0.0
Cd1 Cd 0.18111 0.4778 0.06976 0.0
Cd2 Cd 0.24227 0.52928 0.00201 0.0
O3 O 0.21493 0.55897 0.00579 0.0
O4 O 0.13067 0.43421 0.04161 0.0
O5 O 0.17506 0.46665 0.95747 0.0
C6 C 0.14136 0.4407 0.97085 0.0
C7 C 0.27444 0.5307 0.89217 0.0
C8 C 0.19189 0.55426 0.05799 0.0
C9 C 0.24987 0.49273 0.14481 0.0
O10 O 0.26364 0.52176 0.10217 0.0
O11 O 0.21626 0.46677 0.13587 0.0
O12 O 0.28634 0.55992 0.93547 0.0
O13 O 0.2437 0.50094 0.91012 0.0
O14 O 0.71811 0.16124 0.25919 0.0
Cd15 Cd 0.76536 0.15831 0.24033 0.0
Cd16 Cd 0.79347 0.22922 0.18238 0.0
O17 O 0.74044 0.21712 0.20534 0.0
O18 O 0.75112 0.10529 0.21118 0.0
O19 O 0.7748 0.15299 0.12982 0.0
C20 C 0.76066 0.11739 0.14175 0.0
C21 C 0.82131 0.2586 0.06816 0.0
C22 C 0.71409 0.18846 0.23794 0.0
C23 C 0.83242 0.22086 0.31918 0.0
O24 O 0.82998 0.24241 0.27072 0.0
O25 O 0.80941 0.18548 0.31843 0.0
O26 O 0.81485 0.27638 0.12084 0.0
O27 O 0.8108 0.22367 0.07921 0.0
O28 O 0.63449 0.70008 0.44103 0.0
Cd29 Cd 0.68269 0.74892 0.41092 0.0
Cd30 Cd 0.63679 0.76731 0.34039 0.0
O31 O 0.60109 0.71022 0.35735 0.0
O32 O 0.72259 0.73778 0.38151 0.0
O33 O 0.69364 0.75434 0.29846 0.0
C34 C 0.71718 0.74364 0.3111 0.0
C35 C 0.63289 0.79377 0.22613 0.0
C36 C 0.60434 0.68878 0.40503 0.0
C37 C 0.68062 0.81419 0.47734 0.0
O38 O 0.65428 0.80498 0.43031 0.0
O39 O 0.69816 0.79647 0.47825 0.0
O40 O 0.60697 0.78214 0.27652 0.0
O41 O 0.66059 0.7893 0.23941 0.0
O42 O 0.99161 0.60624 0.5997 0.0
Cd43 Cd 0.98837 0.65331 0.5698 0.0
Cd44 Cd 0.92718 0.60181 0.50219 0.0
O45 O 0.95453 0.57213 0.50588 0.0
O46 O 1.03881 0.69689 0.5416 0.0
O47 O 0.9944 0.66444 0.4575 0.0
C48 C 1.0281 0.69039 0.47085 0.0
C49 C 0.89498 0.6004 0.39242 0.0
C50 C 0.97758 0.57683 0.55805 0.0
C51 C 0.91965 0.63838 0.645 0.0
O52 O 0.90587 0.60934 0.60241 0.0
O53 O 0.95324 0.66436 0.63596 0.0
O54 O 0.88309 0.57118 0.4357 0.0
O55 O 0.92573 0.63016 0.41035 0.0
O56 O 0.45131 0.96982 0.7591 0.0
Cd57 Cd 0.40405 0.97275 0.74021 0.0
Cd58 Cd 0.37596 0.90184 0.68224 0.0
O59 O 0.42899 0.91395 0.70524 0.0
O60 O 0.41829 1.02578 0.71107 0.0
O61 O 0.39463 0.97808 0.62969 0.0
C62 C 0.40876 1.01369 0.64163 0.0
C63 C 0.34814 0.87248 0.568 0.0
C64 C 0.45533 0.94261 0.73785 0.0
C65 C 0.33698 0.9102 0.81902 0.0
O66 O 0.33943 0.88865 0.77056 0.0
O67 O 0.35999 0.94558 0.81828 0.0
O68 O 0.35458 0.85469 0.62067 0.0
O69 O 0.35865 0.90741 0.57907 0.0
O70 O 0.53501 0.43105 0.94099 0.0
Cd71 Cd 0.4868 0.38222 0.91087 0.0
Cd72 Cd 0.5327 0.36381 0.84036 0.0
O73 O 0.5684 0.4209 0.85733 0.0
O74 O 0.44691 0.39337 0.88147 0.0
O75 O 0.47585 0.3768 0.79842 0.0
C76 C 0.45232 0.3875 0.81106 0.0
C77 C 0.53658 0.33735 0.72609 0.0
C78 C 0.56516 0.44235 0.905 0.0
C79 C 0.48885 0.31694 -0.0227 0.0
O80 O 0.5152 0.32614 0.93028 0.0
O81 O 0.47132 0.33466 -0.02179 0.0
O82 O 0.5625 0.34897 0.77647 0.0
O83 O 0.50889 0.34183 0.73938 0.0
O84 O 0.6226 0.96997 0.76806 0.0
Cd85 Cd 0.6728 0.97294 0.78699 0.0
Cd86 Cd 0.63015 0.90209 0.84526 0.0
O87 O 0.58918 0.91413 0.8221 0.0
O88 O 0.71151 1.02597 0.81612 0.0
O89 O 0.68753 0.97827 0.89751 0.0
C90 C 0.70896 1.01388 0.88556 0.0
C91 C 0.62857 0.87275 0.95957 0.0
C92 C 0.59142 0.94275 0.78936 0.0
C93 C 0.67743 0.91034 0.70848 0.0
O94 O 0.65351 0.88884 0.75706 0.0
O95 O 0.68972 0.94571 0.70903 0.0
O96 O 0.6044 0.85495 0.90684 0.0
O97 O 0.65296 0.90767 0.94852 0.0
O98 O 0.71854 0.6061 0.92743 0.0
Cd99 Cd 0.76878 0.65316 0.9573 0.0
Cd100 Cd 0.77858 0.60165 0.02482 0.0
O101 O 0.72159 0.57197 0.02118 0.0
O102 O 0.76188 0.69674 -0.01438 0.0
O103 O 0.77389 0.66426 0.06961 0.0
C104 C 0.76611 0.69022 0.05634 0.0
C105 C 0.80943 0.60031 0.13456 0.0
C106 C 0.70322 0.57669 0.96907 0.0
C107 C 0.82262 0.63828 0.88203 0.0
O108 O 0.80741 0.60922 0.92458 0.0
O109 O 0.81495 0.66423 0.89112 0.0
O110 O 0.79213 0.57106 0.09133 0.0
O111 O 0.80838 0.63005 0.11661 0.0
O112 O 0.16957 0.70017 0.08642 0.0
Cd113 Cd 0.1703 0.74908 0.11661 0.0
Cd114 Cd 0.23449 0.76724 0.18717 0.0
O115 O 0.21301 0.71012 0.17014 0.0
O116 O 0.11931 0.73806 0.14591 0.0
O117 O 0.16472 0.75446 0.22906 0.0
C118 C 0.13052 0.74385 0.21635 0.0
C119 C 0.26481 0.7936 0.30149 0.0
C120 C 0.18834 0.68876 0.12241 0.0
C121 C 0.23767 0.81423 0.05025 0.0
O122 O 0.25474 0.80492 0.09727 0.0
O123 O 0.20244 0.79662 0.04934 0.0
O124 O 0.27907 0.78192 0.25111 0.0
O125 O 0.23269 0.78924 0.28817 0.0
O126 O 0.54681 0.16112 0.268 0.0
Cd127 Cd 0.49662 0.15815 0.28691 0.0
Cd128 Cd 0.53927 0.22899 0.34522 0.0
O129 O 0.58024 0.21695 0.32207 0.0
O130 O 0.4579 0.10512 0.31603 0.0
O131 O 0.48189 0.15282 0.39743 0.0
C132 C 0.46046 0.11721 0.38548 0.0
C133 C 0.54085 0.25834 0.45953 0.0
C134 C 0.578 0.18833 0.28932 0.0
C135 C 0.49201 0.22077 0.20843 0.0
O136 O 0.51592 0.24226 0.25702 0.0
O137 O 0.47972 0.18539 0.20896 0.0
O138 O 0.56503 0.27613 0.4068 0.0
O139 O 0.51645 0.22342 0.44848 0.0
O140 O 0.45096 0.52502 0.42737 0.0
Cd141 Cd 0.40071 0.47796 0.45724 0.0
Cd142 Cd 0.3909 0.52949 0.52463 0.0
O143 O 0.44789 0.55915 0.5211 0.0
O144 O 0.40761 0.43439 0.48558 0.0
O145 O 0.3956 0.46687 0.56956 0.0
C146 C 0.40338 0.44092 0.5563 0.0
C147 C 0.36 0.53081 0.6343 0.0
C148 C 0.46628 0.55443 0.46901 0.0
C149 C 0.3469 0.49285 0.38182 0.0
O150 O 0.36212 0.52193 0.42432 0.0
O151 O 0.35455 0.46688 0.39102 0.0
O152 O 0.37733 0.56007 0.59109 0.0
O153 O 0.36106 0.50107 0.61635 0.0
O154 O 0.99985 0.4309 0.58651 0.0
Cd155 Cd 0.99911 0.38199 0.61673 0.0
Cd156 Cd 0.93493 0.36385 0.6873 0.0
O157 O 0.95642 0.42097 0.67025 0.0
O158 O 1.0501 0.39299 0.64599 0.0
O159 O 1.00471 0.37662 0.72918 0.0
C160 C 1.0389 0.38722 0.71644 0.0
C161 C 0.90463 0.3375 0.80164 0.0
C162 C 0.98109 0.44232 0.6225 0.0
C163 C 0.93173 0.31684 0.5504 0.0
O164 O 0.91466 0.32616 0.59741 0.0
O165 O 0.96695 0.33444 0.54948 0.0
O166 O 0.89036 0.34919 0.75128 0.0
O167 O 0.93675 0.34186 0.78829 0.0
C168 C 0.30283 0.52502 0.23487 0.0
C169 C 0.27347 0.49108 0.20632 0.0
H170 H 0.34842 0.55193 0.31185 0.0
C171 C 0.26832 0.45688 0.23548 0.0
H172 H 0.3076 0.55188 0.21402 0.0
C173 C 0.29256 0.45691 0.29143 0.0
C174 C 0.32166 0.49113 0.32023 0.0
H175 H 0.24604 0.43028 0.21423 0.0
H176 H 0.28819 0.43033 0.313 0.0
C177 C 0.32629 0.52505 0.29128 0.0
C178 C 0.87457 0.25681 0.51354 0.0
C179 C 0.9097 0.28707 0.49353 0.0
H180 H 0.82283 0.2108 0.47357 0.0
C181 C 0.92112 0.29121 0.41679 0.0
H182 H 0.86511 0.25299 0.57242 0.0
C183 C 0.8966 0.26761 0.36022 0.0
C184 C 0.86074 0.23871 0.37973 0.0
H185 H 0.94788 0.31439 0.39971 0.0
H186 H 0.905 0.27315 0.30066 0.0
C187 C 0.85047 0.23249 0.45721 0.0
C188 C 0.68372 0.87437 0.51417 0.0
C189 C 0.68843 0.84399 0.53421 0.0
H190 H 0.67812 0.92051 0.55408 0.0
C191 C 0.69559 0.83976 0.61099 0.0
H192 H 0.67817 0.87826 0.45526 0.0
C193 C 0.6947 0.8634 0.66754 0.0
C194 C 0.68787 0.89242 0.64799 0.0
H195 H 0.69904 0.81648 0.6281 0.0
H196 H 0.69747 0.8578 0.72712 0.0
C197 C 0.68396 0.89872 0.57049 0.0
C198 C 0.86681 0.6061 0.73534 0.0
C199 C 0.89608 0.64004 0.70656 0.0
H200 H 0.82128 0.57919 0.81248 0.0
C201 C 0.90115 0.67424 0.73552 0.0
H202 H 0.8621 0.57924 0.71465 0.0
C203 C 0.87691 0.67421 0.79148 0.0
C204 C 0.84789 0.63999 0.82048 0.0
H205 H 0.92335 0.70084 0.71409 0.0
H206 H 0.8812 0.7008 0.81287 0.0
C207 C 0.84335 0.60608 0.79176 0.0
C208 C 0.31891 0.89859 0.95703 0.0
C209 C 0.30866 0.89234 0.87955 0.0
H210 H 0.30426 0.87812 0.07226 0.0
C211 C 0.2728 0.86342 0.86004 0.0
H212 H 0.34655 0.92029 -0.02661 0.0
C213 C 0.24828 0.83983 0.91662 0.0
C214 C 0.25969 0.844 -0.00663 0.0
H215 H 0.26441 0.85787 0.80048 0.0
H216 H 0.22153 0.81663 0.89954 0.0
C217 C 0.29481 0.87427 0.01337 0.0
C218 C 0.47476 0.26772 0.16749 0.0
C219 C 0.48157 0.2387 0.14794 0.0
H220 H 0.47043 0.31465 0.12807 0.0
C221 C 0.48548 0.23239 0.07044 0.0
H222 H 0.47199 0.27332 0.22708 0.0
C223 C 0.48573 0.25675 0.01412 0.0
C224 C 0.48103 0.28713 0.03417 0.0
H225 H 0.49131 0.21059 0.05403 0.0
H226 H 0.49127 0.25285 0.95521 0.0
C227 C 0.47388 0.29136 0.11095 0.0
C228 C 0.18478 0.59617 0.15073 0.0
C229 C 0.18484 0.58512 0.07465 0.0
H230 H 0.18661 0.63844 0.22535 0.0
C231 C 0.18242 0.6065 0.01463 0.0
H232 H 0.187 0.58035 0.19792 0.0
C233 C 0.18105 0.63904 0.03038 0.0
C234 C 0.18343 0.65139 0.10627 0.0
H235 H 0.18253 0.59853 0.95548 0.0
H236 H 0.18028 0.65568 -0.01687 0.0
C237 C 0.18475 0.62942 0.16635 0.0
C238 C 0.679 0.22163 0.25739 0.0
C239 C 0.67892 0.18761 0.25178 0.0
H240 H 0.64736 0.24837 0.27438 0.0
C241 C 0.64515 0.15343 0.25816 0.0
H242 H 0.70457 0.24843 0.25296 0.0
C243 C 0.61204 0.1534 0.26894 0.0
C244 C 0.61235 0.18755 0.27542 0.0
H245 H 0.64427 0.1268 0.25366 0.0
H246 H 0.58634 0.12674 0.27338 0.0
C247 C 0.64621 0.22159 0.26987 0.0
C248 C 0.5279 0.60659 0.51258 0.0
C249 C 0.50417 0.58526 0.45248 0.0
H250 H 0.57919 0.65569 0.54424 0.0
C251 C 0.51534 0.59632 0.37644 0.0
H252 H 0.51978 0.59862 0.5717 0.0
C253 C 0.54863 0.62953 0.36092 0.0
C254 C 0.57186 0.65144 0.42108 0.0
H255 H 0.49735 0.58053 0.32918 0.0
H256 H 0.55584 0.63856 0.30194 0.0
C257 C 0.56183 0.63909 0.49693 0.0
C258 C 0.98703 0.52459 0.5147 0.0
C259 C 0.98463 0.54598 0.57472 0.0
H260 H 0.98914 0.47539 0.48321 0.0
C261 C 0.98469 0.53493 0.6508 0.0
H262 H 0.98691 0.53254 0.45555 0.0
C263 C 0.98471 0.50168 0.66643 0.0
C264 C 0.98601 0.4797 0.60635 0.0
H265 H 0.98249 0.55076 0.69799 0.0
H266 H 0.98285 0.49266 0.72543 0.0
C267 C 0.98839 0.49204 0.53046 0.0
C268 C 0.49042 0.90945 0.75734 0.0
C269 C 0.49049 0.94346 0.75172 0.0
H270 H 0.52206 0.8827 0.77436 0.0
C271 C 0.52426 0.97764 0.75814 0.0
H272 H 0.46485 0.88264 0.75288 0.0
C273 C 0.55738 0.97767 0.76895 0.0
C274 C 0.55707 0.94352 0.77543 0.0
H275 H 0.52514 1.00427 0.75364 0.0
H276 H 0.58307 1.00433 0.77341 0.0
C277 C 0.52321 0.90948 0.76986 0.0
C278 C 0.60766 0.49203 -0.00308 0.0
C279 C 0.59764 0.47967 0.92106 0.0
H280 H 0.64968 0.53251 0.07172 0.0
C281 C 0.6209 0.50159 0.86092 0.0
H282 H 0.59028 0.47543 0.04422 0.0
C283 C 0.65418 0.53479 0.87646 0.0
C284 C 0.66533 0.54586 0.95251 0.0
H285 H 0.6137 0.49255 0.80194 0.0
H286 H 0.67218 0.55057 0.82922 0.0
C287 C 0.64158 0.52453 0.01259 0.0
C288 C 0.34473 0.56505 0.73206 0.0
C289 C 0.33854 0.53093 0.70087 0.0
H290 H 0.32938 0.59171 0.81784 0.0
C291 C 0.3109 0.49679 0.73248 0.0
H292 H 0.36588 0.59176 0.70871 0.0
C293 C 0.28958 0.49677 0.79382 0.0
C294 C 0.29601 0.53087 0.82553 0.0
H295 H 0.30539 0.47007 0.70918 0.0
H296 H 0.26842 0.47003 0.81706 0.0
C297 C 0.32387 0.56502 0.79441 0.0
C298 C 0.866 0.26842 0.96484 0.0
C299 C 0.84188 0.2783 -0.00096 0.0
H300 H 0.90584 0.28054 0.87631 0.0
C301 C 0.83888 0.30814 0.96875 0.0
H302 H 0.86896 0.2457 -0.01215 0.0
C303 C 0.85929 0.32746 0.90411 0.0
C304 C 0.88386 0.31797 0.87071 0.0
H305 H 0.82045 0.31621 -0.0055 0.0
H306 H 0.85622 0.35007 0.8808 0.0
C307 C 0.88729 0.28853 0.90176 0.0
C308 C 0.59766 0.80392 0.12368 0.0
C309 C 0.63168 0.81334 0.1571 0.0
H310 H 0.57012 0.81523 0.03325 0.0
C311 C 0.66454 0.84276 0.12607 0.0
H312 H 0.57199 0.78134 0.14697 0.0
C313 C 0.66338 0.86288 0.06298 0.0
C314 C 0.62943 0.85306 0.02875 0.0
H315 H 0.69105 0.85069 0.15154 0.0
H316 H 0.68906 0.88558 0.03998 0.0
C317 C 0.59659 0.82326 0.05903 0.0
C318 C 0.84554 0.56609 0.29468 0.0
C319 C 0.8734 0.60024 0.32581 0.0
H320 H 0.80354 0.53935 0.20897 0.0
C321 C 0.87982 0.63434 0.29413 0.0
H322 H 0.84003 0.53939 0.31809 0.0
C323 C 0.8585 0.63432 0.23279 0.0
C324 C 0.83088 0.60019 0.20116 0.0
H325 H 0.90098 0.66108 0.31737 0.0
H326 H 0.86401 0.66104 0.2095 0.0
C327 C 0.82468 0.56607 0.23234 0.0
C328 C 0.31015 0.80364 0.40393 0.0
C329 C 0.28558 0.81313 0.37055 0.0
H330 H 0.34899 0.81488 0.4943 0.0
C331 C 0.28216 0.84258 0.40161 0.0
H332 H 0.31322 0.78103 0.38061 0.0
C333 C 0.30345 0.86267 0.46469 0.0
C334 C 0.32757 0.8528 0.49888 0.0
H335 H 0.26361 0.85056 0.37618 0.0
H336 H 0.30049 0.8854 0.48771 0.0
C337 C 0.33057 0.82296 0.46857 0.0
C338 C 0.57179 0.32717 0.62364 0.0
C339 C 0.53778 0.31777 0.65706 0.0
H340 H 0.59932 0.31584 0.53321 0.0
C341 C 0.50491 0.28836 0.62605 0.0
H342 H 0.59747 0.34975 0.64692 0.0
C343 C 0.50606 0.26822 0.56295 0.0
C344 C 0.54001 0.27803 0.52871 0.0
H345 H 0.47841 0.28044 0.65152 0.0
H346 H 0.48037 0.24554 0.53996 0.0
C347 C 0.57285 0.30782 0.55899 0.0
C348 C 1.07684 0.40086 0.91915 0.0
C349 C 0.11519 0.42179 0.90631 0.0
H350 H 1.02266 0.37342 0.86936 0.0
C351 C 0.12814 0.42776 0.83022 0.0
H352 H 1.06589 0.39577 -0.02307 0.0
C353 C 0.10336 0.41475 0.76848 0.0
C354 C 1.065 0.39573 0.78128 0.0
H355 H 0.15751 0.44366 0.81818 0.0
H356 H 0.11434 0.42109 0.71073 0.0
C357 C 1.05203 0.38812 0.85737 0.0
C358 C 0.72126 1.02681 0.02659 0.0
C359 C 0.72712 1.0403 0.95072 0.0
H360 H 0.72747 1.04044 0.14632 0.0
C361 C 0.74752 0.07943 0.93855 0.0
H362 H 0.70574 0.99685 0.03819 0.0
C363 C 0.76003 0.10445 0.00071 0.0
C364 C 0.75243 0.09097 0.07658 0.0
H365 H 0.75262 0.09082 0.88098 0.0
H366 H 0.77443 0.13441 -0.01089 0.0
C367 C 0.73375 1.05184 0.08874 0.0
C368 C 0.76582 0.70306 0.19702 0.0
C369 C 0.75883 0.70909 0.12098 0.0
H370 H 0.7587 0.70966 0.31656 0.0
C371 C 0.74143 0.73007 0.10827 0.0
H372 H 0.77928 0.68712 0.20897 0.0
C373 C 0.72938 0.7428 0.17013 0.0
C374 C 0.73474 0.73512 0.24617 0.0
H375 H 0.73557 0.73521 0.05052 0.0
H376 H 0.71471 0.75753 0.15823 0.0
C377 C 0.75406 0.71605 0.25885 0.0
C378 C 1.06607 0.71631 0.26845 0.0
C379 C 0.10443 0.73534 0.28121 0.0
H380 H 1.01193 0.6874 0.31819 0.0
C381 C 0.11741 0.74297 0.35729 0.0
H382 H 1.05508 0.70997 0.21071 0.0
C383 C 0.09262 0.73023 0.41909 0.0
C384 C 1.05426 0.70929 0.40628 0.0
H385 H 0.14679 0.75767 0.36926 0.0
H386 H 0.10358 0.73533 0.47686 0.0
C387 C 1.0413 0.70331 0.33021 0.0
C388 C 0.4219 1.05166 0.43845 0.0
C389 C 0.4423 0.09079 0.45063 0.0
H390 H 0.39499 0.99667 0.48899 0.0
C391 C 0.44815 0.10427 0.52651 0.0
H392 H 0.4168 1.04026 0.38087 0.0
C393 C 0.43567 0.07924 0.58865 0.0
C394 C 0.41699 1.04011 0.57647 0.0
H395 H 0.46367 0.13423 0.53811 0.0
H396 H 0.44194 0.09063 0.64623 0.0
C397 C 0.40939 1.02663 0.5006 0.0
C398 C 0.40368 0.42809 0.69698 0.0
C399 C 0.41066 0.42204 0.62094 0.0
H400 H 0.4108 0.42149 0.81652 0.0
C401 C 0.42806 0.40106 0.60823 0.0
H402 H 0.39022 0.44403 0.70893 0.0
C403 C 0.44011 0.38834 0.6701 0.0
C404 C 0.43476 0.39602 0.74614 0.0
H405 H 0.43391 0.39591 0.55049 0.0
H406 H 0.45477 0.3736 0.6582 0.0
C407 C 0.41544 0.4151 0.75881 0.0
loop_
_geom_bond_atom_site_label_1
_geom_bond_atom_site_label_2
_geom_bond_distance
_geom_bond_site_symmetry_2
_ccdc_geom_bond_type
O0 Cd1 2.223 . S
O0 C8 1.315 . S
Cd1 O0 2.223 . S
Cd1 O4 2.297 . S
Cd1 O5 2.439 1_554 S
Cd1 O11 2.240 . S
Cd2 O3 2.240 1_556 S
Cd2 O10 2.223 1_556 S
Cd2 O12 2.297 . S
Cd2 O13 2.439 . S
O3 Cd2 2.240 1_554 S
O3 C8 1.279 . S
O4 Cd1 2.297 . S
O4 C6 1.247 1_554 S
O5 Cd1 2.439 1_556 S
O5 C6 1.208 . S
C6 O4 1.247 1_556 S
C6 O5 1.208 . S
C7 O12 1.247 . S
C7 O13 1.208 . S
C8 O0 1.315 . S
C8 O3 1.279 . S
C9 O10 1.315 . S
C9 O11 1.279 . S
O10 Cd2 2.223 1_554 S
O10 C9 1.315 . S
O11 Cd1 2.240 . S
O11 C9 1.279 . S
O12 Cd2 2.297 . S
O12 C7 1.247 . S
O13 Cd2 2.439 . S
O13 C7 1.208 . S
O14 Cd15 2.223 . S
O14 C22 1.315 . S
Cd15 O14 2.223 . S
Cd15 O18 2.297 . S
Cd15 O19 2.439 . S
Cd15 O25 2.240 . S
Cd16 O17 2.240 . S
Cd16 O24 2.223 . S
Cd16 O26 2.297 . S
Cd16 O27 2.439 . S
O17 Cd16 2.240 . S
O17 C22 1.279 . S
O18 Cd15 2.297 . S
O18 C20 1.247 . S
O19 Cd15 2.439 . S
O19 C20 1.208 . S
C20 O18 1.247 . S
C20 O19 1.208 . S
C21 O26 1.247 . S
C21 O27 1.208 . S
C22 O14 1.315 . S
C22 O17 1.279 . S
C23 O24 1.315 . S
C23 O25 1.279 . S
O24 Cd16 2.223 . S
O24 C23 1.315 . S
O25 Cd15 2.240 . S
O25 C23 1.279 . S
O26 Cd16 2.297 . S
O26 C21 1.247 . S
O27 Cd16 2.439 . S
O27 C21 1.208 . S
O28 Cd29 2.223 . S
O28 C36 1.315 . S
Cd29 O28 2.223 . S
Cd29 O32 2.297 . S
Cd29 O33 2.439 . S
Cd29 O39 2.240 . S
Cd30 O31 2.240 . S
Cd30 O38 2.223 . S
Cd30 O40 2.297 . S
Cd30 O41 2.439 . S
O31 Cd30 2.240 . S
O31 C36 1.279 . S
O32 Cd29 2.297 . S
O32 C34 1.247 . S
O33 Cd29 2.439 . S
O33 C34 1.208 . S
C34 O32 1.247 . S
C34 O33 1.208 . S
C35 O40 1.247 . S
C35 O41 1.208 . S
C36 O28 1.315 . S
C36 O31 1.279 . S
C37 O38 1.315 . S
C37 O39 1.279 . S
O38 Cd30 2.223 . S
O38 C37 1.315 . S
O39 Cd29 2.240 . S
O39 C37 1.279 . S
O40 Cd30 2.297 . S
O40 C35 1.247 . S
O41 Cd30 2.439 . S
O41 C35 1.208 . S
O42 Cd43 2.223 . S
O42 C50 1.315 . S
Cd43 O42 2.223 . S
Cd43 O46 2.297 . S
Cd43 O47 2.439 . S
Cd43 O53 2.240 . S
Cd44 O45 2.240 . S
Cd44 O52 2.223 . S
Cd44 O54 2.297 . S
Cd44 O55 2.439 . S
O45 Cd44 2.240 . S
O45 C50 1.279 . S
O46 Cd43 2.297 . S
O46 C48 1.247 . S
O47 Cd43 2.439 . S
O47 C48 1.208 . S
C48 O46 1.247 . S
C48 O47 1.208 . S
C49 O54 1.247 . S
C49 O55 1.208 . S
C50 O42 1.315 . S
C50 O45 1.279 . S
C51 O52 1.315 . S
C51 O53 1.279 . S
O52 Cd44 2.223 . S
O52 C51 1.315 . S
O53 Cd43 2.240 . S
O53 C51 1.279 . S
O54 Cd44 2.297 . S
O54 C49 1.247 . S
O55 Cd44 2.439 . S
O55 C49 1.208 . S
O56 Cd57 2.223 . S
O56 C64 1.315 . S
Cd57 O56 2.223 . S
Cd57 O60 2.297 . S
Cd57 O61 2.439 . S
Cd57 O67 2.240 . S
Cd58 O59 2.240 . S
Cd58 O66 2.223 . S
Cd58 O68 2.297 . S
Cd58 O69 2.439 . S
O59 Cd58 2.240 . S
O59 C64 1.279 . S
O60 Cd57 2.297 . S
O60 C62 1.247 . S
O61 Cd57 2.439 . S
O61 C62 1.208 . S
C62 O60 1.247 . S
C62 O61 1.208 . S
C63 O68 1.247 . S
C63 O69 1.208 . S
C64 O56 1.315 . S
C64 O59 1.279 . S
C65 O66 1.315 . S
C65 O67 1.279 . S
O66 Cd58 2.223 . S
O66 C65 1.315 . S
O67 Cd57 2.240 . S
O67 C65 1.279 . S
O68 Cd58 2.297 . S
O68 C63 1.247 . S
O69 Cd58 2.439 . S
O69 C63 1.208 . S
O70 Cd71 2.223 . S
O70 C78 1.315 . S
Cd71 O70 2.223 . S
Cd71 O74 2.297 . S
Cd71 O75 2.439 . S
Cd71 O81 2.240 . S
Cd72 O73 2.240 . S
Cd72 O80 2.223 . S
Cd72 O82 2.297 . S
Cd72 O83 2.439 . S
O73 Cd72 2.240 . S
O73 C78 1.279 . S
O74 Cd71 2.297 . S
O74 C76 1.247 . S
O75 Cd71 2.439 . S
O75 C76 1.208 . S
C76 O74 1.247 . S
C76 O75 1.208 . S
C77 O82 1.247 . S
C77 O83 1.208 . S
C78 O70 1.315 . S
C78 O73 1.279 . S
C79 O80 1.315 . S
C79 O81 1.279 . S
O80 Cd72 2.223 . S
O80 C79 1.315 . S
O81 Cd71 2.240 . S
O81 C79 1.279 . S
O82 Cd72 2.297 . S
O82 C77 1.247 . S
O83 Cd72 2.439 . S
O83 C77 1.208 . S
O84 Cd85 2.223 . S
O84 C92 1.315 . S
Cd85 O84 2.223 . S
Cd85 O88 2.297 . S
Cd85 O89 2.439 . S
Cd85 O95 2.240 . S
Cd86 O87 2.240 . S
Cd86 O94 2.223 . S
Cd86 O96 2.297 . S
Cd86 O97 2.439 1_556 S
O87 Cd86 2.240 . S
O87 C92 1.279 . S
O88 Cd85 2.297 . S
O88 C90 1.247 . S
O89 Cd85 2.439 . S
O89 C90 1.208 . S
C90 O88 1.247 . S
C90 O89 1.208 . S
C91 O96 1.247 1_554 S
C91 O97 1.208 . S
C92 O84 1.315 . S
C92 O87 1.279 . S
C93 O94 1.315 . S
C93 O95 1.279 . S
O94 Cd86 2.223 . S
O94 C93 1.315 . S
O95 Cd85 2.240 . S
O95 C93 1.279 . S
O96 Cd86 2.297 . S
O96 C91 1.247 1_556 S
O97 Cd86 2.439 1_554 S
O97 C91 1.208 . S
O98 Cd99 2.223 . S
O98 C106 1.315 . S
Cd99 O98 2.223 . S
Cd99 O102 2.297 1_556 S
Cd99 O103 2.439 1_556 S
Cd99 O109 2.240 . S
Cd100 O101 2.240 . S
Cd100 O108 2.223 1_554 S
Cd100 O110 2.297 . S
Cd100 O111 2.439 . S
O101 Cd100 2.240 . S
O101 C106 1.279 1_554 S
O102 Cd99 2.297 1_554 S
O102 C104 1.247 . S
O103 Cd99 2.439 1_554 S
O103 C104 1.208 . S
C104 O102 1.247 . S
C104 O103 1.208 . S
C105 O110 1.247 . S
C105 O111 1.208 . S
C106 O98 1.315 . S
C106 O101 1.279 1_556 S
C107 O108 1.315 . S
C107 O109 1.279 . S
O108 Cd100 2.223 1_556 S
O108 C107 1.315 . S
O109 Cd99 2.240 . S
O109 C107 1.279 . S
O110 Cd100 2.297 . S
O110 C105 1.247 . S
O111 Cd100 2.439 . S
O111 C105 1.208 . S
O112 Cd113 2.223 . S
O112 C120 1.315 . S
Cd113 O112 2.223 . S
Cd113 O116 2.297 . S
Cd113 O117 2.439 . S
Cd113 O123 2.240 . S
Cd114 O115 2.240 . S
Cd114 O122 2.223 . S
Cd114 O124 2.297 . S
Cd114 O125 2.439 . S
O115 Cd114 2.240 . S
O115 C120 1.279 . S
O116 Cd113 2.297 . S
O116 C118 1.247 . S
O117 Cd113 2.439 . S
O117 C118 1.208 . S
C118 O116 1.247 . S
C118 O117 1.208 . S
C119 O124 1.247 . S
C119 O125 1.208 . S
C120 O112 1.315 . S
C120 O115 1.279 . S
C121 O122 1.315 . S
C121 O123 1.279 . S
O122 Cd114 2.223 . S
O122 C121 1.315 . S
O123 Cd113 2.240 . S
O123 C121 1.279 . S
O124 Cd114 2.297 . S
O124 C119 1.247 . S
O125 Cd114 2.439 . S
O125 C119 1.208 . S
O126 Cd127 2.223 . S
O126 C134 1.315 . S
Cd127 O126 2.223 . S
Cd127 O130 2.297 . S
Cd127 O131 2.439 . S
Cd127 O137 2.240 . S
Cd128 O129 2.240 . S
Cd128 O136 2.223 . S
Cd128 O138 2.297 . S
Cd128 O139 2.439 . S
O129 Cd128 2.240 . S
O129 C134 1.279 . S
O130 Cd127 2.297 . S
O130 C132 1.247 . S
O131 Cd127 2.439 . S
O131 C132 1.208 . S
C132 O130 1.247 . S
C132 O131 1.208 . S
C133 O138 1.247 . S
C133 O139 1.208 . S
C134 O126 1.315 . S
C134 O129 1.279 . S
C135 O136 1.315 . S
C135 O137 1.279 . S
O136 Cd128 2.223 . S
O136 C135 1.315 . S
O137 Cd127 2.240 . S
O137 C135 1.279 . S
O138 Cd128 2.297 . S
O138 C133 1.247 . S
O139 Cd128 2.439 . S
O139 C133 1.208 . S
O140 Cd141 2.223 . S
O140 C148 1.315 . S
Cd141 O140 2.223 . S
Cd141 O144 2.297 . S
Cd141 O145 2.439 . S
Cd141 O151 2.240 . S
Cd142 O143 2.240 . S
Cd142 O150 2.223 . S
Cd142 O152 2.297 . S
Cd142 O153 2.439 . S
O143 Cd142 2.240 . S
O143 C148 1.279 . S
O144 Cd141 2.297 . S
O144 C146 1.247 . S
O145 Cd141 2.439 . S
O145 C146 1.208 . S
C146 O144 1.247 . S
C146 O145 1.208 . S
C147 O152 1.247 . S
C147 O153 1.208 . S
C148 O140 1.315 . S
C148 O143 1.279 . S
C149 O150 1.315 . S
C149 O151 1.279 . S
O150 Cd142 2.223 . S
O150 C149 1.315 . S
O151 Cd141 2.240 . S
O151 C149 1.279 . S
O152 Cd142 2.297 . S
O152 C147 1.247 . S
O153 Cd142 2.439 . S
O153 C147 1.208 . S
O154 Cd155 2.223 . S
O154 C162 1.315 . S
Cd155 O154 2.223 . S
Cd155 O158 2.297 . S
Cd155 O159 2.439 . S
Cd155 O165 2.240 . S
Cd156 O157 2.240 . S
Cd156 O164 2.223 . S
Cd156 O166 2.297 . S
Cd156 O167 2.439 . S
O157 Cd156 2.240 . S
O157 C162 1.279 . S
O158 Cd155 2.297 . S
O158 C160 1.247 . S
O159 Cd155 2.439 . S
O159 C160 1.208 . S
C160 O158 1.247 . S
C160 O159 1.208 . S
C161 O166 1.247 . S
C161 O167 1.208 . S
C162 O154 1.315 . S
C162 O157 1.279 . S
C163 O164 1.315 . S
C163 O165 1.279 . S
O164 Cd156 2.223 . S
O164 C163 1.315 . S
O165 Cd155 2.240 . S
O165 C163 1.279 . S
O166 Cd156 2.297 . S
O166 C161 1.247 . S
O167 Cd156 2.439 . S
O167 C161 1.208 . S
C168 C169 1.387 . S
C168 H172 0.950 . S
C168 C177 1.390 . S
C169 C168 1.387 . S
C169 C171 1.387 . S
H170 C177 0.950 . S
C171 C169 1.387 . S
C171 C173 1.390 . S
C171 H175 0.950 . S
H172 C168 0.950 . S
C173 C171 1.390 . S
C173 C174 1.387 . S
C173 H176 0.950 . S
C174 C173 1.387 . S
C174 C177 1.387 . S
H175 C171 0.950 . S
H176 C173 0.950 . S
C177 C168 1.390 . S
C177 H170 0.950 . S
C177 C174 1.387 . S
C178 C179 1.387 . S
C178 H182 0.950 . S
C178 C187 1.390 . S
C179 C178 1.387 . S
C179 C181 1.387 . S
H180 C187 0.950 . S
C181 C179 1.387 . S
C181 C183 1.390 . S
C181 H185 0.950 . S
H182 C178 0.950 . S
C183 C181 1.390 . S
C183 C184 1.387 . S
C183 H186 0.950 . S
C184 C183 1.387 . S
C184 C187 1.387 . S
H185 C181 0.950 . S
H186 C183 0.950 . S
C187 C178 1.390 . S
C187 H180 0.950 . S
C187 C184 1.387 . S
C188 C189 1.387 . S
C188 H192 0.950 . S
C188 C197 1.390 . S
C189 C188 1.387 . S
C189 C191 1.387 . S
H190 C197 0.950 . S
C191 C189 1.387 . S
C191 C193 1.390 . S
C191 H195 0.950 . S
H192 C188 0.950 . S
C193 C191 1.390 . S
C193 C194 1.387 . S
C193 H196 0.950 . S
C194 C193 1.387 . S
C194 C197 1.387 . S
H195 C191 0.950 . S
H196 C193 0.950 . S
C197 C188 1.390 . S
C197 H190 0.950 . S
C197 C194 1.387 . S
C198 C199 1.387 . S
C198 H202 0.950 . S
C198 C207 1.390 . S
C199 C198 1.387 . S
C199 C201 1.387 . S
H200 C207 0.950 . S
C201 C199 1.387 . S
C201 C203 1.390 . S
C201 H205 0.950 . S
H202 C198 0.950 . S
C203 C201 1.390 . S
C203 C204 1.387 . S
C203 H206 0.950 . S
C204 C203 1.387 . S
C204 C207 1.387 . S
H205 C201 0.950 . S
H206 C203 0.950 . S
C207 C198 1.390 . S
C207 H200 0.950 . S
C207 C204 1.387 . S
C208 C209 1.387 . S
C208 H212 0.950 . S
C208 C217 1.390 1_556 S
C209 C208 1.387 . S
C209 C211 1.387 . S
H210 C217 0.950 . S
C211 C209 1.387 . S
C211 C213 1.390 . S
C211 H215 0.950 . S
H212 C208 0.950 . S
C213 C211 1.390 . S
C213 C214 1.387 1_556 S
C213 H216 0.950 . S
C214 C213 1.387 1_554 S
C214 C217 1.387 . S
H215 C211 0.950 . S
H216 C213 0.950 . S
C217 C208 1.390 1_554 S
C217 H210 0.950 . S
C217 C214 1.387 . S
C218 C219 1.387 . S
C218 H222 0.950 . S
C218 C227 1.390 . S
C219 C218 1.387 . S
C219 C221 1.387 . S
H220 C227 0.950 . S
C221 C219 1.387 . S
C221 C223 1.390 . S
C221 H225 0.950 . S
H222 C218 0.950 . S
C223 C221 1.390 . S
C223 C224 1.387 . S
C223 H226 0.950 1_554 S
C224 C223 1.387 . S
C224 C227 1.387 . S
H225 C221 0.950 . S
H226 C223 0.950 1_556 S
C227 C218 1.390 . S
C227 H220 0.950 . S
C227 C224 1.387 . S
C228 C229 1.387 . S
C228 H232 0.950 . S
C228 C237 1.390 . S
C229 C228 1.387 . S
C229 C231 1.387 . S
H230 C237 0.950 . S
C231 C229 1.387 . S
C231 C233 1.390 . S
C231 H235 0.961 . S
H232 C228 0.950 . S
C233 C231 1.390 . S
C233 C234 1.387 . S
C233 H236 0.950 . S
C234 C233 1.387 . S
C234 C237 1.387 . S
H235 C231 0.961 . S
H236 C233 0.950 . S
C237 C228 1.390 . S
C237 H230 0.950 . S
C237 C234 1.387 . S
C238 C239 1.387 . S
C238 H242 0.950 . S
C238 C247 1.390 . S
C239 C238 1.387 . S
C239 C241 1.387 . S
H240 C247 0.950 . S
C241 C239 1.387 . S
C241 C243 1.390 . S
C241 H245 0.950 . S
H242 C238 0.950 . S
C243 C241 1.390 . S
C243 C244 1.387 . S
C243 H246 0.950 . S
C244 C243 1.387 . S
C244 C247 1.387 . S
H245 C241 0.950 . S
H246 C243 0.950 . S
C247 C238 1.390 . S
C247 H240 0.950 . S
C247 C244 1.387 . S
C248 C249 1.387 . S
C248 H252 0.950 . S
C248 C257 1.390 . S
C249 C248 1.387 . S
C249 C251 1.387 . S
H250 C257 0.950 . S
C251 C249 1.387 . S
C251 C253 1.390 . S
C251 H255 0.950 . S
H252 C248 0.950 . S
C253 C251 1.390 . S
C253 C254 1.387 . S
C253 H256 0.950 . S
C254 C253 1.387 . S
C254 C257 1.387 . S
H255 C251 0.950 . S
H256 C253 0.950 . S
C257 C248 1.390 . S
C257 H250 0.950 . S
C257 C254 1.387 . S
C258 C259 1.387 . S
C258 H262 0.950 . S
C258 C267 1.390 . S
C259 C258 1.387 . S
C259 C261 1.387 . S
H260 C267 0.950 . S
C261 C259 1.387 . S
C261 C263 1.390 . S
C261 H265 0.950 . S
H262 C258 0.950 . S
C263 C261 1.390 . S
C263 C264 1.387 . S
C263 H266 0.950 . S
C264 C263 1.387 . S
C264 C267 1.387 . S
H265 C261 0.950 . S
H266 C263 0.950 . S
C267 C258 1.390 . S
C267 H260 0.950 . S
C267 C264 1.387 . S
C268 C269 1.387 . S
C268 H272 0.950 . S
C268 C277 1.390 . S
C269 C268 1.387 . S
C269 C271 1.387 . S
H270 C277 0.950 . S
C271 C269 1.387 . S
C271 C273 1.390 . S
C271 H275 0.950 . S
H272 C268 0.950 . S
C273 C271 1.390 . S
C273 C274 1.387 . S
C273 H276 0.950 . S
C274 C273 1.387 . S
C274 C277 1.387 . S
H275 C271 0.950 . S
H276 C273 0.950 . S
C277 C268 1.390 . S
C277 H270 0.950 . S
C277 C274 1.387 . S
C278 C279 1.387 1_554 S
C278 H282 0.950 . S
C278 C287 1.390 . S
C279 C278 1.387 1_556 S
C279 C281 1.387 . S
H280 C287 0.950 . S
C281 C279 1.387 . S
C281 C283 1.390 . S
C281 H285 0.950 . S
H282 C278 0.950 . S
C283 C281 1.390 . S
C283 C284 1.387 . S
C283 H286 0.950 . S
C284 C283 1.387 . S
C284 C287 1.387 1_556 S
H285 C281 0.950 . S
H286 C283 0.950 . S
C287 C278 1.390 . S
C287 H280 0.950 . S
C287 C284 1.387 1_554 S
C288 C289 1.387 . S
C288 H292 0.950 . S
C288 C297 1.390 . S
C289 C288 1.387 . S
C289 C291 1.387 . S
H290 C297 0.950 . S
C291 C289 1.387 . S
C291 C293 1.390 . S
C291 H295 0.950 . S
H292 C288 0.950 . S
C293 C291 1.390 . S
C293 C294 1.387 . S
C293 H296 0.950 . S
C294 C293 1.387 . S
C294 C297 1.387 . S
H295 C291 0.950 . S
H296 C293 0.950 . S
C297 C288 1.390 . S
C297 H290 0.950 . S
C297 C294 1.387 . S
C298 C299 1.387 . S
C298 H302 0.950 . S
C298 C307 1.390 1_554 S
C299 C298 1.387 . S
C299 C301 1.387 1_554 S
H300 C307 0.950 . S
C301 C299 1.387 1_556 S
C301 C303 1.390 . S
C301 H305 0.950 . S
H302 C298 0.950 . S
C303 C301 1.390 . S
C303 C304 1.387 . S
C303 H306 0.950 . S
C304 C303 1.387 . S
C304 C307 1.387 . S
H305 C301 0.950 . S
H306 C303 0.950 . S
C307 C298 1.390 1_556 S
C307 H300 0.950 . S
C307 C304 1.387 . S
C308 C309 1.387 . S
C308 H312 0.950 . S
C308 C317 1.390 . S
C309 C308 1.387 . S
C309 C311 1.387 . S
H310 C317 0.942 1_556 S
C311 C309 1.387 . S
C311 C313 1.390 . S
C311 H315 0.950 . S
H312 C308 0.950 . S
C313 C311 1.390 . S
C313 C314 1.387 . S
C313 H316 0.950 . S
C314 C313 1.387 . S
C314 C317 1.387 . S
H315 C311 0.950 . S
H316 C313 0.950 . S
C317 C308 1.390 . S
C317 H310 0.942 1_554 S
C317 C314 1.387 . S
C318 C319 1.387 . S
C318 H322 0.950 . S
C318 C327 1.390 . S
C319 C318 1.387 . S
C319 C321 1.387 . S
H320 C327 0.950 . S
C321 C319 1.387 . S
C321 C323 1.390 . S
C321 H325 0.950 . S
H322 C318 0.950 . S
C323 C321 1.390 . S
C323 C324 1.387 . S
C323 H326 0.950 . S
C324 C323 1.387 . S
C324 C327 1.387 . S
H325 C321 0.950 . S
H326 C323 0.950 . S
C327 C318 1.390 . S
C327 H320 0.950 . S
C327 C324 1.387 . S
C328 C329 1.387 . S
C328 H332 0.950 . S
C328 C337 1.390 . S
C329 C328 1.387 . S
C329 C331 1.387 . S
H330 C337 0.950 . S
C331 C329 1.387 . S
C331 C333 1.390 . S
C331 H335 0.950 . S
H332 C328 0.950 . S
C333 C331 1.390 . S
C333 C334 1.387 . S
C333 H336 0.950 . S
C334 C333 1.387 . S
C334 C337 1.387 . S
H335 C331 0.950 . S
H336 C333 0.950 . S
C337 C328 1.390 . S
C337 H330 0.950 . S
C337 C334 1.387 . S
C338 C339 1.387 . S
C338 H342 0.950 . S
C338 C347 1.390 . S
C339 C338 1.387 . S
C339 C341 1.387 . S
H340 C347 0.950 . S
C341 C339 1.387 . S
C341 C343 1.390 . S
C341 H345 0.950 . S
H342 C338 0.950 . S
C343 C341 1.390 . S
C343 C344 1.387 . S
C343 H346 0.950 . S
C344 C343 1.387 . S
C344 C347 1.387 . S
H345 C341 0.950 . S
H346 C343 0.950 . S
C347 C338 1.390 . S
C347 H340 0.950 . S
C347 C344 1.387 . S
C348 C349 1.397 . S
C348 H352 0.960 . S
C348 C357 1.371 1_455 S
C349 C348 1.397 . S
C349 C351 1.387 . S
H350 C357 0.950 . S
C351 C349 1.387 . S
C351 C353 1.371 1_455 S
C351 H355 0.950 . S
H352 C348 0.960 . S
C353 C351 1.371 1_655 S
C353 C354 1.397 . S
C353 H356 0.960 . S
C354 C353 1.397 . S
C354 C357 1.387 . S
H355 C351 0.950 . S
H356 C353 0.960 . S
C357 C348 1.371 1_655 S
C357 H350 0.950 . S
C357 C354 1.387 . S
C358 C359 1.387 1_554 S
C358 H362 0.950 1_554 S
C358 C367 1.390 1_565 S
C359 C358 1.387 1_556 S
C359 C361 1.387 1_556 S
H360 C367 0.950 . S
C361 C359 1.387 1_554 S
C361 C363 1.390 1_565 S
C361 H365 0.950 1_554 S
H362 C358 0.950 1_556 S
C363 C361 1.390 1_545 S
C363 C364 1.387 . S
C363 H366 0.950 . S
C364 C363 1.387 . S
C364 C367 1.387 . S
H365 C361 0.950 1_556 S
H366 C363 0.950 . S
C367 C358 1.390 1_545 S
C367 H360 0.950 . S
C367 C364 1.387 . S
C368 C369 1.387 . S
C368 H372 0.950 . S
C368 C377 1.390 . S
C369 C368 1.387 . S
C369 C371 1.387 . S
H370 C377 0.950 . S
C371 C369 1.387 . S
C371 C373 1.390 . S
C371 H375 0.950 . S
H372 C368 0.950 . S
C373 C371 1.390 . S
C373 C374 1.387 . S
C373 H376 0.950 . S
C374 C373 1.387 . S
C374 C377 1.387 . S
H375 C371 0.950 . S
H376 C373 0.950 . S
C377 C368 1.390 . S
C377 H370 0.950 . S
C377 C374 1.387 . S
C378 C379 1.387 . S
C378 H382 0.950 . S
C378 C387 1.390 1_455 S
C379 C378 1.387 . S
C379 C381 1.387 . S
H380 C387 0.950 . S
C381 C379 1.387 . S
C381 C383 1.390 1_455 S
C381 H385 0.950 . S
H382 C378 0.950 . S
C383 C381 1.390 1_655 S
C383 C384 1.387 . S
C383 H386 0.950 . S
C384 C383 1.387 . S
C384 C387 1.387 . S
H385 C381 0.950 . S
H386 C383 0.950 . S
C387 C378 1.390 1_655 S
C387 H380 0.950 . S
C387 C384 1.387 . S
C388 C389 1.387 . S
C388 H392 0.950 . S
C388 C397 1.390 1_545 S
C389 C388 1.387 . S
C389 C391 1.387 . S
H390 C397 0.950 . S
C391 C389 1.387 . S
C391 C393 1.390 1_545 S
C391 H395 0.950 . S
H392 C388 0.950 . S
C393 C391 1.390 1_565 S
C393 C394 1.387 . S
C393 H396 0.950 . S
C394 C393 1.387 . S
C394 C397 1.387 . S
H395 C391 0.950 . S
H396 C393 0.950 . S
C397 C388 1.390 1_565 S
C397 H390 0.950 . S
C397 C394 1.387 . S
C398 C399 1.387 . S
C398 H402 0.950 . S
C398 C407 1.390 . S
C399 C398 1.387 . S
C399 C401 1.387 . S
H400 C407 0.950 . S
C401 C399 1.387 . S
C401 C403 1.390 . S
C401 H405 0.950 . S
H402 C398 0.950 . S
C403 C401 1.390 . S
C403 C404 1.387 . S
C403 H406 0.950 . S
C404 C403 1.387 . S
C404 C407 1.387 . S
H405 C401 0.950 . S
H406 C403 0.950 . S
C407 C398 1.390 . S
C407 H400 0.950 . S
C407 C404 1.387 . S
C169 C9 1.960 . S
C174 C149 1.960 . S
C179 C163 1.960 . S
C184 C23 1.960 . S
C189 C37 1.962 . S
C194 C93 1.961 . S
C199 C51 1.960 . S
C204 C107 1.960 . S
C209 C65 1.960 . S
C214 C121 1.960 . S
C219 C135 1.961 . S
C224 C79 1.960 1_554 S
C229 C8 1.649 . S
C234 C120 1.651 . S
C239 C22 1.651 . S
C244 C134 1.651 . S
C249 C148 1.651 . S
C254 C36 1.649 . S
C259 C50 1.651 . S
C264 C162 1.649 . S
C269 C64 1.651 . S
C274 C92 1.651 . S
C279 C78 1.649 . S
C284 C106 1.651 . S
C289 C147 0.941 . S
C294 C7 0.941 . S
C299 C21 0.941 . S
C304 C161 0.944 . S
C309 C35 0.944 . S
C314 C91 0.940 . S
C319 C49 0.941 . S
C324 C105 0.941 . S
C329 C119 0.942 . S
C334 C63 0.940 . S
C339 C77 0.943 . S
C344 C133 0.940 . S
C349 C6 1.598 . S
C354 C160 1.598 . S
C359 C90 1.598 . S
C364 C20 1.598 . S
C369 C104 1.598 . S
C374 C34 1.598 . S
C379 C118 1.598 . S
C384 C48 1.598 . S
C389 C132 1.598 . S
C394 C62 1.598 . S
C399 C146 1.598 . S
C404 C76 1.598 . S
