# Generated by pormake.
# Topology uoo, (4)-cn, num edge types: 1
# Building blocks:
#     Node 0, Type 0, BuildingBlock: CEKHIL_clean_sbu_0, # of connection points: 4
#     Node 1, Type 0, BuildingBlock: CEKHIL_clean_sbu_0, # of connection points: 4
#     Node 2, Type 0, BuildingBlock: CEKHIL_clean_sbu_0, # of connection points: 4
#     Node 3, Type 0, BuildingBlock: CEKHIL_clean_sbu_0, # of connection points: 4
#     Node 4, Type 0, BuildingBlock: CEKHIL_clean_sbu_0, # of connection points: 4
#     Node 5, Type 0, BuildingBlock: CEKHIL_clean_sbu_0, # of connection points: 4
#     Edge 6, Type (0, 0), BuildingBlock: CIFDUS_clean_linker_0, # of connection points: 2
#     Edge 7, Type (0, 0), BuildingBlock: CIFDUS_clean_linker_0, # of connection points: 2
#     Edge 8, Type (0, 0), BuildingBlock: CIFDUS_clean_linker_0, # of connection points: 2
#     Edge 9, Type (0, 0), BuildingBlock: CIFDUS_clean_linker_0, # of connection points: 2
#     Edge 10, Type (0, 0), BuildingBlock: CIFDUS_clean_linker_0, # of connection points: 2
#     Edge 11, Type (0, 0), BuildingBlock: CIFDUS_clean_linker_0, # of connection points: 2
#     Edge 12, Type (0, 0), BuildingBlock: CIFDUS_clean_linker_0, # of connection points: 2
#     Edge 13, Type (0, 0), BuildingBlock: CIFDUS_clean_linker_0, # of connection points: 2
#     Edge 14, Type (0, 0), BuildingBlock: CIFDUS_clean_linker_0, # of connection points: 2
#     Edge 15, Type (0, 0), BuildingBlock: CIFDUS_clean_linker_0, # of connection points: 2
#     Edge 16, Type (0, 0), BuildingBlock: CIFDUS_clean_linker_0, # of connection points: 2
#     Edge 17, Type (0, 0), BuildingBlock: CIFDUS_clean_linker_0, # of connection points: 2
# Relax obj value: 0.252
# Max RMSD: 0.172
# Mean RMSD: 0.172
data_MOF--net-uoo--node1-CEKHIL_clean_sbu_0--edge1-CIFDUS_clean_linker_0
_symmetry_space_group_name_H-M    P1
_symmetry_Int_Tables_number       1
_symmetry_cell_setting            triclinic
loop_
_symmetry_equiv_pos_as_xyz
'x, y, z'
_cell_length_a     21.348915
_cell_length_b     21.327706
_cell_length_c     33.735076
_cell_angle_alpha  90.153878
_cell_angle_beta   89.876472
_cell_angle_gamma 119.98531
loop_
_atom_site_label
_atom_site_type_symbol
_atom_site_fract_x
_atom_site_fract_y
_atom_site_fract_z
_atom_type_partial_charge
Co0 Co 0.16158 0.35378 0.98313 0.0
O1 O 0.06793 0.34291 0.97234 0.0
O2 O 0.16301 0.44209 -0.00419 0.0
C3 C 0.17414 0.30588 0.9267 0.0
O4 O 0.26623 0.38901 -0.00367 0.0
Co5 Co 0.18802 0.22592 0.99376 0.0
O6 O 0.29247 0.29997 0.99131 0.0
C7 C 0.11641 0.26044 0.05751 0.0
C8 C 0.09596 0.40955 0.98449 0.0
C9 C 0.31184 0.36654 -0.00426 0.0
O10 O 0.12987 0.31783 0.03842 0.0
O11 O 0.13133 0.21334 0.04388 0.0
O12 O 0.18825 0.3726 0.92793 0.0
O13 O 0.14609 0.2677 0.95844 0.0
Co14 Co 0.83919 0.1211 0.31698 0.0
O15 O 0.75872 0.02919 0.30099 0.0
O16 O 0.75094 0.12194 0.32534 0.0
C17 C 0.90927 0.13982 0.26401 0.0
O18 O 0.90639 0.22401 0.33497 0.0
Co19 Co 0.98883 0.14365 0.33648 0.0
O20 O 0.0213 0.24873 0.33605 0.0
C21 C 0.87097 0.0653 0.39297 0.0
C22 C 0.71843 0.05608 0.31184 0.0
C23 C 0.97439 0.26882 0.33818 0.0
O24 O 0.83209 0.0821 0.37156 0.0
O25 O 0.93548 0.08158 0.38363 0.0
O26 O 0.85707 0.15445 0.26311 0.0
O27 O 0.91357 0.10744 0.29559 0.0
Co28 Co 0.66378 0.82341 0.65815 0.0
O29 O 0.67603 0.74005 0.65298 0.0
O30 O 0.57285 0.73697 0.66674 0.0
C31 C 0.72567 0.88116 0.60359 0.0
O32 O 0.62645 0.89339 0.66411 0.0
Co33 Co 0.78821 0.9783 0.67201 0.0
O34 O 0.71535 0.009 0.66353 0.0
C35 C 0.74221 0.87233 0.73672 0.0
C36 C 0.6071 0.7019 0.66042 0.0
C37 C 0.64845 0.96141 0.66364 0.0
O38 O 0.68689 0.82915 0.71595 0.0
O39 O 0.79249 0.93316 0.72362 0.0
O40 O 0.65865 0.82959 0.6013 0.0
O41 O 0.75529 0.89286 0.63833 0.0
Co42 Co 0.86223 0.72401 -0.00267 0.0
O43 O 0.95731 0.73747 0.98784 0.0
O44 O 0.86072 0.63452 0.00608 0.0
C45 C 0.85457 0.77945 0.94304 0.0
O46 O 0.75607 0.68602 0.00788 0.0
Co47 Co 0.83318 0.84935 0.01281 0.0
O48 O 0.72966 0.77518 0.0055 0.0
C49 C 0.89799 0.80567 0.07583 0.0
C50 C 0.9287 0.66914 -0.00354 0.0
C51 C 0.71027 0.70824 0.00715 0.0
O52 O 0.88753 0.75165 0.05423 0.0
O53 O 0.8842 0.85446 0.06394 0.0
O54 O 0.84145 0.7131 0.94138 0.0
O55 O 0.87922 0.81318 0.97641 0.0
Co56 Co 0.17104 0.81863 0.32499 0.0
O57 O 0.25146 0.91124 0.31031 0.0
O58 O 0.2597 0.81891 0.33457 0.0
C59 C 0.10504 0.8019 0.27051 0.0
O60 O 0.10348 0.71492 0.34155 0.0
Co61 Co 0.01849 0.79314 0.34031 0.0
O62 O 0.98813 0.68866 0.33844 0.0
C63 C 0.13219 0.87295 0.39923 0.0
C64 C 0.29195 0.88473 0.3211 0.0
C65 C 0.03538 0.6693 0.34219 0.0
O66 O 0.17355 0.85623 0.37981 0.0
O67 O 0.06885 0.85659 0.38743 0.0
O68 O 0.15689 0.78675 0.27054 0.0
O69 O 0.09816 0.83239 0.30224 0.0
Co70 Co 0.28895 0.15338 0.65811 0.0
O71 O 0.2764 0.23603 0.65005 0.0
O72 O 0.37796 0.24041 0.66906 0.0
C73 C 0.23539 0.09364 0.60236 0.0
O74 O 0.32648 0.0844 0.66757 0.0
Co75 Co 0.16347 0.9979 0.66991 0.0
O76 O 0.23801 0.969 0.66218 0.0
C77 C 0.20163 0.10358 0.73446 0.0
C78 C 0.34418 0.27483 0.65999 0.0
C79 C 0.30471 0.01652 0.66514 0.0
O80 O 0.25819 0.14775 0.71478 0.0
O81 O 0.15375 0.04194 0.72084 0.0
O82 O 0.30192 0.14661 0.60186 0.0
O83 O 0.20091 0.08273 0.63559 0.0
H84 H 0.27208 0.23942 0.76419 0.0
H85 H 0.10582 0.02171 0.79309 0.0
H86 H 0.08553 0.06428 0.85673 0.0
H87 H 0.11233 0.16507 0.903 0.0
H88 H 0.27388 0.38262 0.87075 0.0
H89 H 0.29924 0.33814 0.80967 0.0
C90 C 0.23179 0.20087 0.78447 0.0
C91 C 0.19071 0.1274 0.77388 0.0
C92 C 0.21957 0.22581 0.82043 0.0
C93 C 0.13818 0.07861 0.80046 0.0
C94 C 0.12659 0.10291 0.83686 0.0
C95 C 0.15344 0.20239 0.88268 0.0
C96 C 0.19116 0.27692 0.8912 0.0
C97 C 0.16657 0.17659 0.84701 0.0
C98 C 0.24387 0.32505 0.86461 0.0
C99 C 0.25846 0.29969 0.82973 0.0
H100 H 0.93645 0.24071 0.20928 0.0
H101 H 0.99175 0.0793 0.24237 0.0
H102 H 0.06253 0.10279 0.18112 0.0
H103 H 0.10317 0.16587 0.11641 0.0
H104 H 0.04681 0.3283 0.08589 0.0
H105 H 0.98191 0.30754 0.14795 0.0
C106 C 0.9643 0.21086 0.20322 0.0
C107 C 0.9585 0.15795 0.22992 0.0
C108 C 0.00439 0.22462 0.16831 0.0
C109 C 0.99565 0.12042 0.22211 0.0
C110 C 0.0357 0.13358 0.18705 0.0
C111 C 0.07681 0.19675 0.12344 0.0
C112 C 0.07969 0.24829 0.09633 0.0
C113 C 0.03954 0.18492 0.15961 0.0
C114 C 0.0458 0.28839 0.1061 0.0
C115 C 0.00843 0.27655 0.14161 0.0
H116 H 0.93397 0.06961 0.46446 0.0
H117 H 0.7302 0.96644 0.40206 0.0
H118 H 0.66806 0.90047 0.46155 0.0
H119 H 0.67006 0.87423 0.53127 0.0
H120 H 0.87079 0.97862 0.59622 0.0
H121 H 0.93563 0.04234 0.53595 0.0
C122 C 0.87616 0.03215 0.46399 0.0
C123 C 0.83669 0.02296 0.42903 0.0
C124 C 0.84012 0.9952 0.49876 0.0
C125 C 0.76166 0.97484 0.42874 0.0
C126 C 0.726 0.93704 0.46272 0.0
C127 C 0.72803 0.91091 0.53233 0.0
C128 C 0.76558 0.92174 0.56805 0.0
C129 C 0.76447 0.94737 0.49791 0.0
C130 C 0.84064 0.96964 0.56899 0.0
C131 C 0.87773 0.00586 0.53454 0.0
H132 H 0.75054 0.70868 0.88931 0.0
H133 H 0.92107 0.92212 0.9213 0.0
H134 H 0.89958 0.97164 0.86046 0.0
H135 H 0.8367 0.95144 0.79606 0.0
H136 H 0.66364 0.73651 0.76678 0.0
H137 H 0.68135 0.69062 0.82894 0.0
C138 C 0.78274 0.76614 0.88302 0.0
C139 C 0.83788 0.81169 0.90914 0.0
C140 C 0.76963 0.79385 0.84852 0.0
C141 C 0.87837 0.88619 0.90133 0.0
C142 C 0.86626 0.91431 0.86656 0.0
C143 C 0.80256 0.89473 0.80345 0.0
C144 C 0.74945 0.84753 0.77649 0.0
C145 C 0.81274 0.86829 0.83958 0.0
C146 C 0.70506 0.77427 0.78678 0.0
C147 C 0.71521 0.7477 0.82234 0.0
H148 H 0.0358 0.87367 0.24749 0.0
H149 H 0.07517 0.70093 0.21406 0.0
H150 H 0.0109 0.68466 0.15183 0.0
H151 H 0.9506 0.72371 0.1056 0.0
H152 H 0.91584 0.90093 0.13592 0.0
H153 H 0.97165 0.91153 0.20076 0.0
C154 C 0.0293 0.83193 0.22672 0.0
C155 C 0.05998 0.7885 0.23515 0.0
C156 C 0.99395 0.82422 0.19041 0.0
C157 C 0.05216 0.73513 0.20799 0.0
C158 C 0.01556 0.72586 0.17244 0.0
C159 C 0.95454 0.76446 0.12636 0.0
C160 C 0.92905 0.8115 0.11579 0.0
C161 C 0.98739 0.77087 0.1631 0.0
C162 C 0.93521 0.86413 0.14319 0.0
C163 C 0.96702 0.87015 0.1803 0.0
H164 H 0.30701 0.07621 0.5416 0.0
H165 H 0.09199 0.00511 0.5855 0.0
H166 H 0.04008 0.93026 0.5261 0.0
H167 H 0.05678 0.88668 0.46107 0.0
H168 H 0.27334 0.95532 0.41986 0.0
H169 H 0.32361 0.02926 0.47895 0.0
C170 C 0.24875 0.04438 0.53815 0.0
C171 C 0.20329 0.04649 0.56755 0.0
C172 C 0.21963 0.00095 0.50446 0.0
C173 C 0.12797 0.00422 0.56311 0.0
C174 C 0.09836 0.96161 0.52917 0.0
C175 C 0.11492 0.91782 0.4651 0.0
C176 C 0.16114 0.91555 0.43604 0.0
C177 C 0.14376 0.9598 0.49954 0.0
C178 C 0.23641 0.95568 0.44183 0.0
C179 C 0.26536 0.99826 0.47556 0.0
H180 H 0.37108 0.51217 0.00248 0.0
H181 H 0.42746 0.34383 -0.00203 0.0
H182 H 0.55552 0.43508 0.00241 0.0
H183 H 0.65085 0.56205 0.00572 0.0
H184 H 0.59434 0.73035 0.00905 0.0
H185 H 0.4662 0.63886 0.00701 0.0
C186 C 0.41115 0.49509 0.00262 0.0
C187 C 0.38947 0.42104 -0.00017 0.0
C188 C 0.48451 0.5477 0.0049 0.0
C189 C 0.44246 0.40032 3e-05 0.0
C190 C 0.51571 0.45248 0.00255 0.0
C191 C 0.61069 0.57901 0.0062 0.0
C192 C 0.63241 0.65318 0.0075 0.0
C193 C 0.53726 0.52627 0.00473 0.0
C194 C 0.57933 0.67378 0.00801 0.0
C195 C 0.50602 0.62149 0.00682 0.0
H196 H 0.88907 0.32948 0.34382 0.0
H197 H 0.11294 0.38336 0.34375 0.0
H198 H 0.15104 0.51192 0.3474 0.0
H199 H 0.12093 0.60862 0.34694 0.0
H200 H 0.89696 0.55442 0.34539 0.0
H201 H 0.85893 0.42585 0.34626 0.0
C202 C 0.9463 0.36912 0.34484 0.0
C203 C -0.00196 0.34656 0.34326 0.0
C204 C 0.96783 0.44283 0.34653 0.0
C205 C 0.07188 0.399 0.3448 0.0
C206 C 0.09374 0.47258 0.34683 0.0
C207 C 0.0637 0.56887 0.3471 0.0
C208 C 0.01191 0.59141 0.34589 0.0
C209 C 0.04217 0.49506 0.34715 0.0
C210 C 0.93806 0.53883 0.34619 0.0
C211 C 0.91623 0.46523 0.34662 0.0
H212 H 0.4508 0.10363 0.6664 0.0
H213 H 0.28332 0.87857 0.66403 0.0
H214 H 0.37523 0.84234 0.6632 0.0
H215 H 0.50235 0.87441 0.66292 0.0
H216 H 0.6699 0.09945 0.66494 0.0
H217 H 0.57799 0.13571 0.66603 0.0
C218 C 0.4341 0.04653 0.66583 0.0
C219 C 0.36001 0.9939 0.6654 0.0
C220 C 0.48712 0.02609 0.66519 0.0
C221 C 0.33979 0.92027 0.66445 0.0
C222 C 0.39234 0.8995 0.66394 0.0
C223 C 0.51909 0.9315 0.66361 0.0
C224 C 0.59319 0.98411 0.66389 0.0
C225 C 0.46608 0.95196 0.66425 0.0
C226 C 0.61342 0.05775 0.6647 0.0
C227 C 0.56088 0.07855 0.66536 0.0
H228 H 0.48848 0.36591 0.66376 0.0
H229 H 0.28487 0.36233 0.65695 0.0
H230 H 0.34872 0.49476 0.65747 0.0
H231 H 0.46234 0.61103 0.65921 0.0
H232 H 0.66598 0.61423 0.66331 0.0
H233 H 0.60196 0.48193 0.66452 0.0
C234 C 0.45803 0.3941 0.66252 0.0
C235 C 0.38212 0.35457 0.66044 0.0
C236 C 0.49505 0.46992 0.66229 0.0
C237 C 0.34338 0.3917 0.6585 0.0
C238 C 0.37982 0.46731 0.65884 0.0
C239 C 0.49271 0.58276 0.6605 0.0
C240 C 0.56872 0.62217 0.66128 0.0
C241 C 0.45562 0.50689 0.66064 0.0
C242 C 0.60742 0.58496 0.6626 0.0
C243 C 0.57087 0.50941 0.66334 0.0
H244 H 0.87613 0.5249 0.99144 0.0
H245 H 0.07538 0.72954 -0.00298 0.0
H246 H 0.14477 0.66667 0.99421 0.0
H247 H 0.14842 0.5537 0.99024 0.0
H248 H 0.94934 0.34943 0.98145 0.0
H249 H 0.87989 0.41215 0.98532 0.0
C250 C 0.93476 0.55569 0.99218 0.0
C251 C 0.97074 0.63161 -0.00532 0.0
C252 C 0.9741 0.51933 0.98986 0.0
C253 C 0.04662 0.671 -0.00492 0.0
C254 C 0.08622 0.63512 0.99352 0.0
C255 C 0.08981 0.52292 0.98921 0.0
C256 C 0.0539 0.44712 0.98576 0.0
C257 C 0.05049 0.55934 0.99091 0.0
C258 C 0.97808 0.40788 0.98402 0.0
C259 C 0.93842 0.44366 0.98633 0.0
H260 H 0.62559 0.10717 0.31258 0.0
H261 H 0.63385 0.90921 0.30863 0.0
H262 H 0.50172 0.83833 0.31147 0.0
H263 H 0.38445 0.83315 0.317 0.0
H264 H 0.37634 0.03127 0.31789 0.0
H265 H 0.50833 0.10199 0.31438 0.0
C266 C 0.59838 0.04849 0.3122 0.0
C267 C 0.63904 0.01327 0.31062 0.0
C268 C 0.52275 0.00837 0.31346 0.0
C269 C 0.60341 0.93736 0.3097 0.0
C270 C 0.52803 0.8969 0.3115 0.0
C271 C 0.41171 0.89182 0.31646 0.0
C272 C 0.37117 0.92718 0.31803 0.0
C273 C 0.48727 0.9319 0.31375 0.0
C274 C 0.40671 0.00306 0.31671 0.0
C275 C 0.48201 0.04342 0.31476 0.0
loop_
_geom_bond_atom_site_label_1
_geom_bond_atom_site_label_2
_geom_bond_distance
_geom_bond_site_symmetry_2
_ccdc_geom_bond_type
Co0 O1 2.216 . S
Co0 O2 2.091 . S
Co0 O4 2.004 1_556 S
Co0 O10 2.021 1_556 S
Co0 O12 2.137 . S
Co0 O13 2.244 . S
O1 Co0 2.216 . S
O1 C8 1.247 . S
O2 Co0 2.091 . S
O2 C8 1.261 . S
C3 O12 1.247 . S
C3 O13 1.272 . S
O4 Co0 2.004 1_554 S
O4 C9 1.259 . S
Co5 O6 2.061 . S
Co5 O11 2.052 . S
Co5 O13 2.135 1_554 S
O6 Co5 2.061 . S
O6 C9 1.235 . S
C7 O10 1.238 . S
C7 O11 1.241 . S
C8 O1 1.247 . S
C8 O2 1.261 . S
C9 O4 1.259 . S
C9 O6 1.235 . S
O10 Co0 2.021 1_554 S
O10 C7 1.238 . S
O11 Co5 2.052 . S
O11 C7 1.241 . S
O12 Co0 2.137 . S
O12 C3 1.247 . S
O13 Co0 2.244 . S
O13 C3 1.272 . S
O13 Co5 2.135 1_556 S
Co14 O15 2.216 . S
Co14 O16 2.091 . S
Co14 O18 2.004 . S
Co14 O24 2.021 . S
Co14 O26 2.137 . S
Co14 O27 2.244 . S
O15 Co14 2.216 . S
O15 C22 1.247 . S
O16 Co14 2.091 . S
O16 C22 1.261 . S
C17 O26 1.247 . S
C17 O27 1.272 . S
O18 Co14 2.004 . S
O18 C23 1.259 . S
Co19 O20 2.061 1_455 S
Co19 O25 2.052 1_455 S
Co19 O27 2.135 1_455 S
O20 Co19 2.061 1_655 S
O20 C23 1.235 . S
C21 O24 1.238 . S
C21 O25 1.241 . S
C22 O15 1.247 . S
C22 O16 1.261 . S
C23 O18 1.259 . S
C23 O20 1.235 . S
O24 Co14 2.021 . S
O24 C21 1.238 . S
O25 Co19 2.052 1_655 S
O25 C21 1.241 . S
O26 Co14 2.137 . S
O26 C17 1.247 . S
O27 Co14 2.244 . S
O27 C17 1.272 . S
O27 Co19 2.135 1_655 S
Co28 O29 2.216 . S
Co28 O30 2.091 . S
Co28 O32 2.004 . S
Co28 O38 2.021 . S
Co28 O40 2.137 . S
Co28 O41 2.244 . S
O29 Co28 2.216 . S
O29 C36 1.247 . S
O30 Co28 2.091 . S
O30 C36 1.261 . S
C31 O40 1.247 . S
C31 O41 1.272 . S
O32 Co28 2.004 . S
O32 C37 1.259 . S
Co33 O34 2.061 1_545 S
Co33 O39 2.052 1_545 S
Co33 O41 2.135 1_545 S
O34 Co33 2.061 1_565 S
O34 C37 1.235 . S
C35 O38 1.238 . S
C35 O39 1.241 . S
C36 O29 1.247 . S
C36 O30 1.261 . S
C37 O32 1.259 . S
C37 O34 1.235 . S
O38 Co28 2.021 . S
O38 C35 1.238 . S
O39 Co33 2.052 1_565 S
O39 C35 1.241 . S
O40 Co28 2.137 . S
O40 C31 1.247 . S
O41 Co28 2.244 . S
O41 C31 1.272 . S
O41 Co33 2.135 1_565 S
Co42 O43 2.216 . S
Co42 O44 2.091 . S
Co42 O46 2.004 1_556 S
Co42 O52 2.021 1_556 S
Co42 O54 2.137 . S
Co42 O55 2.244 . S
O43 Co42 2.216 . S
O43 C50 1.247 . S
O44 Co42 2.091 . S
O44 C50 1.261 . S
C45 O54 1.247 . S
C45 O55 1.272 . S
O46 Co42 2.004 1_554 S
O46 C51 1.259 . S
Co47 O48 2.061 . S
Co47 O53 2.052 . S
Co47 O55 2.135 1_554 S
O48 Co47 2.061 . S
O48 C51 1.235 . S
C49 O52 1.238 . S
C49 O53 1.241 . S
C50 O43 1.247 . S
C50 O44 1.261 . S
C51 O46 1.259 . S
C51 O48 1.235 . S
O52 Co42 2.021 1_554 S
O52 C49 1.238 . S
O53 Co47 2.052 . S
O53 C49 1.241 . S
O54 Co42 2.137 . S
O54 C45 1.247 . S
O55 Co42 2.244 . S
O55 C45 1.272 . S
O55 Co47 2.135 1_556 S
Co56 O57 2.216 . S
Co56 O58 2.091 . S
Co56 O60 2.004 . S
Co56 O66 2.021 . S
Co56 O68 2.137 . S
Co56 O69 2.244 . S
O57 Co56 2.216 . S
O57 C64 1.247 . S
O58 Co56 2.091 . S
O58 C64 1.261 . S
C59 O68 1.247 . S
C59 O69 1.272 . S
O60 Co56 2.004 . S
O60 C65 1.259 . S
Co61 O62 2.061 1_655 S
Co61 O67 2.052 1_655 S
Co61 O69 2.135 1_655 S
O62 Co61 2.061 1_455 S
O62 C65 1.235 . S
C63 O66 1.238 . S
C63 O67 1.241 . S
C64 O57 1.247 . S
C64 O58 1.261 . S
C65 O60 1.259 . S
C65 O62 1.235 . S
O66 Co56 2.021 . S
O66 C63 1.238 . S
O67 Co61 2.052 1_455 S
O67 C63 1.241 . S
O68 Co56 2.137 . S
O68 C59 1.247 . S
O69 Co56 2.244 . S
O69 C59 1.272 . S
O69 Co61 2.135 1_455 S
Co70 O71 2.216 . S
Co70 O72 2.091 . S
Co70 O74 2.004 . S
Co70 O80 2.021 . S
Co70 O82 2.137 . S
Co70 O83 2.244 . S
O71 Co70 2.216 . S
O71 C78 1.247 . S
O72 Co70 2.091 . S
O72 C78 1.261 . S
C73 O82 1.247 . S
C73 O83 1.272 . S
O74 Co70 2.004 . S
O74 C79 1.259 . S
Co75 O76 2.061 1_565 S
Co75 O81 2.052 1_565 S
Co75 O83 2.135 1_565 S
O76 Co75 2.061 1_545 S
O76 C79 1.235 . S
C77 O80 1.238 . S
C77 O81 1.241 . S
C78 O71 1.247 . S
C78 O72 1.261 . S
C79 O74 1.259 . S
C79 O76 1.235 . S
O80 Co70 2.021 . S
O80 C77 1.238 . S
O81 Co75 2.052 1_545 S
O81 C77 1.241 . S
O82 Co70 2.137 . S
O82 C73 1.247 . S
O83 Co70 2.244 . S
O83 C73 1.272 . S
O83 Co75 2.135 1_545 S
H84 C90 0.930 . S
H85 C93 0.930 . S
H86 C94 0.930 . S
H87 C95 0.930 . S
H88 C98 0.930 . S
H89 C99 0.930 . S
C90 H84 0.930 . S
C90 C91 1.355 . S
C90 C92 1.415 . S
C91 C90 1.355 . S
C91 C93 1.419 . S
C92 C90 1.415 . S
C92 C97 1.425 . S
C92 C99 1.409 . S
C93 H85 0.930 . S
C93 C91 1.419 . S
C93 C94 1.362 . S
C94 H86 0.930 . S
C94 C93 1.362 . S
C94 C97 1.409 . S
C95 H87 0.930 . S
C95 C96 1.355 . S
C95 C97 1.415 . S
C96 C95 1.355 . S
C96 C98 1.419 . S
C97 C92 1.425 . S
C97 C94 1.409 . S
C97 C95 1.415 . S
C98 H88 0.930 . S
C98 C96 1.419 . S
C98 C99 1.362 . S
C99 H89 0.930 . S
C99 C92 1.409 . S
C99 C98 1.362 . S
H100 C106 0.930 . S
H101 C109 0.930 . S
H102 C110 0.930 . S
H103 C111 0.930 . S
H104 C114 0.930 . S
H105 C115 0.930 . S
C106 H100 0.930 . S
C106 C107 1.355 . S
C106 C108 1.415 . S
C107 C106 1.355 . S
C107 C109 1.419 1_655 S
C108 C106 1.415 . S
C108 C113 1.425 1_655 S
C108 C115 1.409 . S
C109 H101 0.930 . S
C109 C107 1.419 1_455 S
C109 C110 1.362 . S
C110 H102 0.930 . S
C110 C109 1.362 . S
C110 C113 1.409 . S
C111 H103 0.930 . S
C111 C112 1.355 . S
C111 C113 1.415 . S
C112 C111 1.355 . S
C112 C114 1.419 1_455 S
C113 C108 1.425 1_455 S
C113 C110 1.409 . S
C113 C111 1.415 . S
C114 H104 0.930 . S
C114 C112 1.419 1_655 S
C114 C115 1.362 . S
C115 H105 0.930 . S
C115 C108 1.409 . S
C115 C114 1.362 . S
H116 C122 0.930 . S
H117 C125 0.930 . S
H118 C126 0.930 . S
H119 C127 0.930 . S
H120 C130 0.930 . S
H121 C131 0.930 . S
C122 H116 0.930 . S
C122 C123 1.355 . S
C122 C124 1.415 . S
C123 C122 1.355 . S
C123 C125 1.419 1_545 S
C124 C122 1.415 . S
C124 C129 1.425 1_545 S
C124 C131 1.409 . S
C125 H117 0.930 . S
C125 C123 1.419 1_565 S
C125 C126 1.362 . S
C126 H118 0.930 . S
C126 C125 1.362 . S
C126 C129 1.409 . S
C127 H119 0.930 . S
C127 C128 1.355 . S
C127 C129 1.415 . S
C128 C127 1.355 . S
C128 C130 1.419 1_565 S
C129 C124 1.425 1_565 S
C129 C126 1.409 . S
C129 C127 1.415 . S
C130 H120 0.930 . S
C130 C128 1.419 1_545 S
C130 C131 1.362 . S
C131 H121 0.930 . S
C131 C124 1.409 . S
C131 C130 1.362 . S
H132 C138 0.930 . S
H133 C141 0.930 . S
H134 C142 0.930 . S
H135 C143 0.930 . S
H136 C146 0.930 . S
H137 C147 0.930 . S
C138 H132 0.930 . S
C138 C139 1.355 . S
C138 C140 1.415 . S
C139 C138 1.355 . S
C139 C141 1.419 . S
C140 C138 1.415 . S
C140 C145 1.425 . S
C140 C147 1.409 . S
C141 H133 0.930 . S
C141 C139 1.419 . S
C141 C142 1.362 . S
C142 H134 0.930 . S
C142 C141 1.362 . S
C142 C145 1.409 . S
C143 H135 0.930 . S
C143 C144 1.355 . S
C143 C145 1.415 . S
C144 C143 1.355 . S
C144 C146 1.419 . S
C145 C140 1.425 . S
C145 C142 1.409 . S
C145 C143 1.415 . S
C146 H136 0.930 . S
C146 C144 1.419 . S
C146 C147 1.362 . S
C147 H137 0.930 . S
C147 C140 1.409 . S
C147 C146 1.362 . S
H148 C154 0.930 1_655 S
H149 C157 0.930 . S
H150 C158 0.930 . S
H151 C159 0.930 1_455 S
H152 C162 0.930 . S
H153 C163 0.930 . S
C154 H148 0.930 1_455 S
C154 C155 1.355 . S
C154 C156 1.415 1_455 S
C155 C154 1.355 . S
C155 C157 1.419 . S
C156 C154 1.415 1_655 S
C156 C161 1.425 1_655 S
C156 C163 1.409 . S
C157 H149 0.930 . S
C157 C155 1.419 . S
C157 C158 1.362 . S
C158 H150 0.930 . S
C158 C157 1.362 . S
C158 C161 1.409 . S
C159 H151 0.930 1_655 S
C159 C160 1.355 . S
C159 C161 1.415 1_655 S
C160 C159 1.355 . S
C160 C162 1.419 . S
C161 C156 1.425 1_455 S
C161 C158 1.409 . S
C161 C159 1.415 1_455 S
C162 H152 0.930 . S
C162 C160 1.419 . S
C162 C163 1.362 . S
C163 H153 0.930 . S
C163 C156 1.409 . S
C163 C162 1.362 . S
H164 C170 0.930 1_565 S
H165 C173 0.930 . S
H166 C174 0.930 . S
H167 C175 0.930 1_545 S
H168 C178 0.930 . S
H169 C179 0.930 . S
C170 H164 0.930 1_545 S
C170 C171 1.355 . S
C170 C172 1.415 1_545 S
C171 C170 1.355 . S
C171 C173 1.419 . S
C172 C170 1.415 1_565 S
C172 C177 1.425 1_565 S
C172 C179 1.409 . S
C173 H165 0.930 . S
C173 C171 1.419 . S
C173 C174 1.362 . S
C174 H166 0.930 . S
C174 C173 1.362 . S
C174 C177 1.409 . S
C175 H167 0.930 1_565 S
C175 C176 1.355 . S
C175 C177 1.415 1_565 S
C176 C175 1.355 . S
C176 C178 1.419 . S
C177 C172 1.425 1_545 S
C177 C174 1.409 . S
C177 C175 1.415 1_545 S
C178 H168 0.930 . S
C178 C176 1.419 . S
C178 C179 1.362 . S
C179 H169 0.930 . S
C179 C172 1.409 . S
C179 C178 1.362 . S
H180 C186 0.930 . S
H181 C189 0.930 . S
H182 C190 0.930 . S
H183 C191 0.930 . S
H184 C194 0.930 . S
H185 C195 0.930 . S
C186 H180 0.930 . S
C186 C187 1.355 . S
C186 C188 1.415 . S
C187 C186 1.355 . S
C187 C189 1.419 . S
C188 C186 1.415 . S
C188 C193 1.425 . S
C188 C195 1.409 . S
C189 H181 0.930 . S
C189 C187 1.419 . S
C189 C190 1.362 . S
C190 H182 0.930 . S
C190 C189 1.362 . S
C190 C193 1.409 . S
C191 H183 0.930 . S
C191 C192 1.355 . S
C191 C193 1.415 . S
C192 C191 1.355 . S
C192 C194 1.419 . S
C193 C188 1.425 . S
C193 C190 1.409 . S
C193 C191 1.415 . S
C194 H184 0.930 . S
C194 C192 1.419 . S
C194 C195 1.362 . S
C195 H185 0.930 . S
C195 C188 1.409 . S
C195 C194 1.362 . S
H196 C202 0.930 . S
H197 C205 0.930 . S
H198 C206 0.930 . S
H199 C207 0.930 . S
H200 C210 0.930 . S
H201 C211 0.930 . S
C202 H196 0.930 . S
C202 C203 1.355 . S
C202 C204 1.415 . S
C203 C202 1.355 . S
C203 C205 1.419 1_655 S
C204 C202 1.415 . S
C204 C209 1.425 1_655 S
C204 C211 1.409 . S
C205 H197 0.930 . S
C205 C203 1.419 1_455 S
C205 C206 1.362 . S
C206 H198 0.930 . S
C206 C205 1.362 . S
C206 C209 1.409 . S
C207 H199 0.930 . S
C207 C208 1.355 . S
C207 C209 1.415 . S
C208 C207 1.355 . S
C208 C210 1.419 1_455 S
C209 C204 1.425 1_455 S
C209 C206 1.409 . S
C209 C207 1.415 . S
C210 H200 0.930 . S
C210 C208 1.419 1_655 S
C210 C211 1.362 . S
C211 H201 0.930 . S
C211 C204 1.409 . S
C211 C210 1.362 . S
H212 C218 0.930 . S
H213 C221 0.930 . S
H214 C222 0.930 . S
H215 C223 0.930 . S
H216 C226 0.930 . S
H217 C227 0.930 . S
C218 H212 0.930 . S
C218 C219 1.355 . S
C218 C220 1.415 . S
C219 C218 1.355 . S
C219 C221 1.419 1_545 S
C220 C218 1.415 . S
C220 C225 1.425 1_545 S
C220 C227 1.409 . S
C221 H213 0.930 . S
C221 C219 1.419 1_565 S
C221 C222 1.362 . S
C222 H214 0.930 . S
C222 C221 1.362 . S
C222 C225 1.409 . S
C223 H215 0.930 . S
C223 C224 1.355 . S
C223 C225 1.415 . S
C224 C223 1.355 . S
C224 C226 1.419 1_565 S
C225 C220 1.425 1_565 S
C225 C222 1.409 . S
C225 C223 1.415 . S
C226 H216 0.930 . S
C226 C224 1.419 1_545 S
C226 C227 1.362 . S
C227 H217 0.930 . S
C227 C220 1.409 . S
C227 C226 1.362 . S
H228 C234 0.930 . S
H229 C237 0.930 . S
H230 C238 0.930 . S
H231 C239 0.930 . S
H232 C242 0.930 . S
H233 C243 0.930 . S
C234 H228 0.930 . S
C234 C235 1.355 . S
C234 C236 1.415 . S
C235 C234 1.355 . S
C235 C237 1.419 . S
C236 C234 1.415 . S
C236 C241 1.425 . S
C236 C243 1.409 . S
C237 H229 0.930 . S
C237 C235 1.419 . S
C237 C238 1.362 . S
C238 H230 0.930 . S
C238 C237 1.362 . S
C238 C241 1.409 . S
C239 H231 0.930 . S
C239 C240 1.355 . S
C239 C241 1.415 . S
C240 C239 1.355 . S
C240 C242 1.419 . S
C241 C236 1.425 . S
C241 C238 1.409 . S
C241 C239 1.415 . S
C242 H232 0.930 . S
C242 C240 1.419 . S
C242 C243 1.362 . S
C243 H233 0.930 . S
C243 C236 1.409 . S
C243 C242 1.362 . S
H244 C250 0.930 . S
H245 C253 0.930 . S
H246 C254 0.930 . S
H247 C255 0.930 . S
H248 C258 0.930 . S
H249 C259 0.930 . S
C250 H244 0.930 . S
C250 C251 1.355 1_454 S
C250 C252 1.415 . S
C251 C250 1.355 1_656 S
C251 C253 1.419 . S
C252 C250 1.415 . S
C252 C257 1.425 1_454 S
C252 C259 1.409 . S
C253 H245 0.930 . S
C253 C251 1.419 . S
C253 C254 1.362 . S
C254 H246 0.930 . S
C254 C253 1.362 . S
C254 C257 1.409 . S
C255 H247 0.930 . S
C255 C256 1.355 1_655 S
C255 C257 1.415 . S
C256 C255 1.355 1_455 S
C256 C258 1.419 1_556 S
C257 C252 1.425 1_656 S
C257 C254 1.409 . S
C257 C255 1.415 . S
C258 H248 0.930 . S
C258 C256 1.419 1_554 S
C258 C259 1.362 . S
C259 H249 0.930 . S
C259 C252 1.409 . S
C259 C258 1.362 . S
H260 C266 0.930 . S
H261 C269 0.930 . S
H262 C270 0.930 . S
H263 C271 0.930 . S
H264 C274 0.930 . S
H265 C275 0.930 . S
C266 H260 0.930 . S
C266 C267 1.355 . S
C266 C268 1.415 . S
C267 C266 1.355 . S
C267 C269 1.419 1_545 S
C268 C266 1.415 . S
C268 C273 1.425 1_545 S
C268 C275 1.409 . S
C269 H261 0.930 . S
C269 C267 1.419 1_565 S
C269 C270 1.362 . S
C270 H262 0.930 . S
C270 C269 1.362 . S
C270 C273 1.409 . S
C271 H263 0.930 . S
C271 C272 1.355 . S
C271 C273 1.415 . S
C272 C271 1.355 . S
C272 C274 1.419 1_565 S
C273 C268 1.425 1_565 S
C273 C270 1.409 . S
C273 C271 1.415 . S
C274 H264 0.930 . S
C274 C272 1.419 1_545 S
C274 C275 1.362 . S
C275 H265 0.930 . S
C275 C268 1.409 . S
C275 C274 1.362 . S
C91 C77 1.304 . S
C96 C3 1.275 . S
C107 C17 1.311 . S
C112 C7 1.315 . S
C123 C21 1.313 . S
C128 C31 1.299 . S
C139 C45 1.305 . S
C144 C35 1.314 . S
C155 C59 1.268 . S
C160 C49 1.304 . S
C171 C73 1.302 . S
C176 C63 1.308 . S
C187 C9 1.525 . S
C192 C51 1.526 . S
C203 C23 1.529 . S
C208 C65 1.521 . S
C219 C79 1.513 . S
C224 C37 1.531 . S
C235 C78 1.438 . S
C240 C36 1.423 . S
C251 C50 1.435 . S
C256 C8 1.420 . S
C267 C22 1.452 . S
C272 C64 1.460 . S
