# Generated by pormake.
# Topology vci, (7)-cn, num edge types: 1
# Building blocks:
#     Node 0, Type 0, BuildingBlock: NUHQUE_clean_sbu_2, # of connection points: 7
#     Node 1, Type 0, BuildingBlock: NUHQUE_clean_sbu_2, # of connection points: 7
#     Node 2, Type 0, BuildingBlock: NUHQUE_clean_sbu_2, # of connection points: 7
#     Node 3, Type 0, BuildingBlock: NUHQUE_clean_sbu_2, # of connection points: 7
#     Node 4, Type 0, BuildingBlock: NUHQUE_clean_sbu_2, # of connection points: 7
#     Node 5, Type 0, BuildingBlock: NUHQUE_clean_sbu_2, # of connection points: 7
#     Node 6, Type 0, BuildingBlock: NUHQUE_clean_sbu_2, # of connection points: 7
#     Node 7, Type 0, BuildingBlock: NUHQUE_clean_sbu_2, # of connection points: 7
#     Node 8, Type 0, BuildingBlock: NUHQUE_clean_sbu_2, # of connection points: 7
#     Node 9, Type 0, BuildingBlock: NUHQUE_clean_sbu_2, # of connection points: 7
#     Node 10, Type 0, BuildingBlock: NUHQUE_clean_sbu_2, # of connection points: 7
#     Node 11, Type 0, BuildingBlock: NUHQUE_clean_sbu_2, # of connection points: 7
#     Node 12, Type 0, BuildingBlock: NUHQUE_clean_sbu_2, # of connection points: 7
#     Node 13, Type 0, BuildingBlock: NUHQUE_clean_sbu_2, # of connection points: 7
#     Node 14, Type 0, BuildingBlock: NUHQUE_clean_sbu_2, # of connection points: 7
#     Node 15, Type 0, BuildingBlock: NUHQUE_clean_sbu_2, # of connection points: 7
#     Edge 16, Type (0, 0), BuildingBlock: XIVTED_clean_linker_0, # of connection points: 2
#     Edge 17, Type (0, 0), BuildingBlock: XIVTED_clean_linker_0, # of connection points: 2
#     Edge 18, Type (0, 0), BuildingBlock: XIVTED_clean_linker_0, # of connection points: 2
#     Edge 19, Type (0, 0), BuildingBlock: XIVTED_clean_linker_0, # of connection points: 2
#     Edge 20, Type (0, 0), BuildingBlock: XIVTED_clean_linker_0, # of connection points: 2
#     Edge 21, Type (0, 0), BuildingBlock: XIVTED_clean_linker_0, # of connection points: 2
#     Edge 22, Type (0, 0), BuildingBlock: XIVTED_clean_linker_0, # of connection points: 2
#     Edge 23, Type (0, 0), BuildingBlock: XIVTED_clean_linker_0, # of connection points: 2
#     Edge 24, Type (0, 0), BuildingBlock: XIVTED_clean_linker_0, # of connection points: 2
#     Edge 25, Type (0, 0), BuildingBlock: XIVTED_clean_linker_0, # of connection points: 2
#     Edge 26, Type (0, 0), BuildingBlock: XIVTED_clean_linker_0, # of connection points: 2
#     Edge 27, Type (0, 0), BuildingBlock: XIVTED_clean_linker_0, # of connection points: 2
#     Edge 28, Type (0, 0), BuildingBlock: XIVTED_clean_linker_0, # of connection points: 2
#     Edge 29, Type (0, 0), BuildingBlock: XIVTED_clean_linker_0, # of connection points: 2
#     Edge 30, Type (0, 0), BuildingBlock: XIVTED_clean_linker_0, # of connection points: 2
#     Edge 31, Type (0, 0), BuildingBlock: XIVTED_clean_linker_0, # of connection points: 2
#     Edge 32, Type (0, 0), BuildingBlock: XIVTED_clean_linker_0, # of connection points: 2
#     Edge 33, Type (0, 0), BuildingBlock: XIVTED_clean_linker_0, # of connection points: 2
#     Edge 34, Type (0, 0), BuildingBlock: XIVTED_clean_linker_0, # of connection points: 2
#     Edge 35, Type (0, 0), BuildingBlock: XIVTED_clean_linker_0, # of connection points: 2
#     Edge 36, Type (0, 0), BuildingBlock: XIVTED_clean_linker_0, # of connection points: 2
#     Edge 37, Type (0, 0), BuildingBlock: XIVTED_clean_linker_0, # of connection points: 2
#     Edge 38, Type (0, 0), BuildingBlock: XIVTED_clean_linker_0, # of connection points: 2
#     Edge 39, Type (0, 0), BuildingBlock: XIVTED_clean_linker_0, # of connection points: 2
#     Edge 40, Type (0, 0), BuildingBlock: XIVTED_clean_linker_0, # of connection points: 2
#     Edge 41, Type (0, 0), BuildingBlock: XIVTED_clean_linker_0, # of connection points: 2
#     Edge 42, Type (0, 0), BuildingBlock: XIVTED_clean_linker_0, # of connection points: 2
#     Edge 43, Type (0, 0), BuildingBlock: XIVTED_clean_linker_0, # of connection points: 2
#     Edge 44, Type (0, 0), BuildingBlock: XIVTED_clean_linker_0, # of connection points: 2
#     Edge 45, Type (0, 0), BuildingBlock: XIVTED_clean_linker_0, # of connection points: 2
#     Edge 46, Type (0, 0), BuildingBlock: XIVTED_clean_linker_0, # of connection points: 2
#     Edge 47, Type (0, 0), BuildingBlock: XIVTED_clean_linker_0, # of connection points: 2
#     Edge 48, Type (0, 0), BuildingBlock: XIVTED_clean_linker_0, # of connection points: 2
#     Edge 49, Type (0, 0), BuildingBlock: XIVTED_clean_linker_0, # of connection points: 2
#     Edge 50, Type (0, 0), BuildingBlock: XIVTED_clean_linker_0, # of connection points: 2
#     Edge 51, Type (0, 0), BuildingBlock: XIVTED_clean_linker_0, # of connection points: 2
#     Edge 52, Type (0, 0), BuildingBlock: XIVTED_clean_linker_0, # of connection points: 2
#     Edge 53, Type (0, 0), BuildingBlock: XIVTED_clean_linker_0, # of connection points: 2
#     Edge 54, Type (0, 0), BuildingBlock: XIVTED_clean_linker_0, # of connection points: 2
#     Edge 55, Type (0, 0), BuildingBlock: XIVTED_clean_linker_0, # of connection points: 2
#     Edge 56, Type (0, 0), BuildingBlock: XIVTED_clean_linker_0, # of connection points: 2
#     Edge 57, Type (0, 0), BuildingBlock: XIVTED_clean_linker_0, # of connection points: 2
#     Edge 58, Type (0, 0), BuildingBlock: XIVTED_clean_linker_0, # of connection points: 2
#     Edge 59, Type (0, 0), BuildingBlock: XIVTED_clean_linker_0, # of connection points: 2
#     Edge 60, Type (0, 0), BuildingBlock: XIVTED_clean_linker_0, # of connection points: 2
#     Edge 61, Type (0, 0), BuildingBlock: XIVTED_clean_linker_0, # of connection points: 2
#     Edge 62, Type (0, 0), BuildingBlock: XIVTED_clean_linker_0, # of connection points: 2
#     Edge 63, Type (0, 0), BuildingBlock: XIVTED_clean_linker_0, # of connection points: 2
#     Edge 64, Type (0, 0), BuildingBlock: XIVTED_clean_linker_0, # of connection points: 2
#     Edge 65, Type (0, 0), BuildingBlock: XIVTED_clean_linker_0, # of connection points: 2
#     Edge 66, Type (0, 0), BuildingBlock: XIVTED_clean_linker_0, # of connection points: 2
#     Edge 67, Type (0, 0), BuildingBlock: XIVTED_clean_linker_0, # of connection points: 2
#     Edge 68, Type (0, 0), BuildingBlock: XIVTED_clean_linker_0, # of connection points: 2
#     Edge 69, Type (0, 0), BuildingBlock: XIVTED_clean_linker_0, # of connection points: 2
#     Edge 70, Type (0, 0), BuildingBlock: XIVTED_clean_linker_0, # of connection points: 2
#     Edge 71, Type (0, 0), BuildingBlock: XIVTED_clean_linker_0, # of connection points: 2
# Relax obj value: 0.143
# Max RMSD: 0.214
# Mean RMSD: 0.214
data_MOF--net-vci--node1-NUHQUE_clean_sbu_2--edge1-XIVTED_clean_linker_0
_symmetry_space_group_name_H-M    P1
_symmetry_Int_Tables_number       1
_symmetry_cell_setting            triclinic
loop_
_symmetry_equiv_pos_as_xyz
'x, y, z'
_cell_length_a     52.435725
_cell_length_b     67.237625
_cell_length_c     21.548499
_cell_angle_alpha  89.843442
_cell_angle_beta   90.085147
_cell_angle_gamma 90.07586
loop_
_atom_site_label
_atom_site_type_symbol
_atom_site_fract_x
_atom_site_fract_y
_atom_site_fract_z
_atom_type_partial_charge
O0 O 0.1219 0.17535 0.1685 0.0
Tb1 Tb 0.12717 0.14323 0.16017 0.0
Eu2 Eu 0.14243 0.11002 0.98691 0.0
C3 C 0.1364 0.18455 0.20953 0.0
O4 O 0.15332 0.17398 0.24015 0.0
C5 C 0.1735 0.12311 0.10517 0.0
O6 O 0.13727 0.07664 0.97956 0.0
C7 C 0.16345 0.12488 0.88803 0.0
C8 C 0.12428 0.06641 0.02104 0.0
O9 O 0.11319 0.07595 0.06677 0.0
C10 C 0.09265 0.12935 0.05158 0.0
C11 C 0.1564 0.13709 0.83317 0.0
C12 C 0.15481 0.15804 0.83672 0.0
C13 C 0.14817 0.16938 0.78406 0.0
C14 C 0.14319 0.15954 0.72802 0.0
C15 C 0.14514 0.13887 0.72353 0.0
C16 C 0.15203 0.12769 0.77577 0.0
O17 O 0.15946 0.13913 0.09925 0.0
O18 O 0.17039 0.10842 0.0659 0.0
O19 O 0.14927 0.13121 0.23783 0.0
O20 O 0.10893 0.13323 0.24567 0.0
C21 C 0.12982 0.12799 0.27392 0.0
O22 O 0.10375 0.12441 0.99891 0.0
O23 O 0.10285 0.12394 0.10472 0.0
O24 O 0.15383 0.10682 0.8906 0.0
O25 O 0.16414 0.13372 0.94242 0.0
H26 H 0.15859 0.16553 0.88022 0.0
H27 H 0.1387 0.16806 0.68659 0.0
H28 H 0.15381 0.11169 0.77163 0.0
O29 O 0.35991 0.82196 0.66201 0.0
Tb30 Tb 0.3539 0.85362 0.64743 0.0
Eu31 Eu 0.34567 0.8889 0.4676 0.0
C32 C 0.34347 0.81161 0.69513 0.0
O33 O 0.32281 0.82043 0.71566 0.0
C34 C 0.31193 0.87541 0.57293 0.0
O35 O 0.35186 0.9222 0.47388 0.0
C36 C 0.33277 0.87746 0.35755 0.0
C37 C 0.37433 0.93063 0.46636 0.0
O38 O 0.39439 0.91935 0.45697 0.0
C39 C 0.39129 0.87358 0.55311 0.0
C40 C 0.33922 0.86363 0.30734 0.0
C41 C 0.34446 0.84322 0.31671 0.0
C42 C 0.35101 0.83108 0.26569 0.0
C43 C 0.35211 0.83968 0.2062 0.0
C44 C 0.34644 0.85978 0.19717 0.0
C45 C 0.33992 0.87162 0.2475 0.0
O46 O 0.33053 0.86244 0.56968 0.0
O47 O 0.31157 0.8892 0.53014 0.0
O48 O 0.32925 0.86249 0.72408 0.0
O49 O 0.3678 0.87213 0.72287 0.0
C50 C 0.34644 0.87284 0.75306 0.0
O51 O 0.37529 0.8682 0.50919 0.0
O52 O 0.38865 0.86648 0.60986 0.0
O53 O 0.34921 0.89189 0.36786 0.0
O54 O 0.32217 0.87027 0.40807 0.0
H55 H 0.34369 0.83692 0.363 0.0
H56 H 0.35647 0.83058 0.16614 0.0
H57 H 0.33558 0.88723 0.24002 0.0
O58 O 0.12847 0.84319 0.84348 0.0
Tb59 Tb 0.11958 0.87465 0.83432 0.0
Eu60 Eu 0.13575 0.87222 0.99618 0.0
C61 C 0.14402 0.83498 0.80306 0.0
O62 O 0.15595 0.84653 0.76326 0.0
C63 C 0.17224 0.88058 0.88488 0.0
O64 O 0.13601 0.90592 0.99162 0.0
C65 C 0.1485 0.85844 0.10508 0.0
C66 C 0.11831 0.91638 0.02001 0.0
O67 O 0.10042 0.90692 0.05092 0.0
C68 C 0.07969 0.87375 0.93857 0.0
C69 C 0.1388 0.84808 0.16152 0.0
C70 C 0.1395 0.82711 0.16535 0.0
C71 C 0.13264 0.81714 0.22041 0.0
C72 C 0.12476 0.8284 0.27157 0.0
C73 C 0.12412 0.84923 0.26926 0.0
C74 C 0.13138 0.85904 0.2143 0.0
O75 O 0.15295 0.89092 0.86392 0.0
O76 O 0.16835 0.86756 0.92932 0.0
O77 O 0.1302 0.8881 0.74515 0.0
O78 O 0.0964 0.87101 0.75032 0.0
C79 C 0.11103 0.88125 0.71351 0.0
O80 O 0.0951 0.86334 0.97451 0.0
O81 O 0.08843 0.88457 0.89221 0.0
O82 O 0.14155 0.87698 0.09544 0.0
O83 O 0.15019 0.84808 0.05356 0.0
H84 H 0.14581 0.81852 0.12579 0.0
H85 H 0.12042 0.82096 0.315 0.0
H86 H 0.13155 0.87515 0.21306 0.0
O87 O 0.37706 0.15666 0.31294 0.0
Tb88 Tb 0.38627 0.12505 0.30666 0.0
Eu89 Eu 0.37087 0.12522 0.46682 0.0
C90 C 0.36279 0.16483 0.26934 0.0
O91 O 0.35268 0.15324 0.22686 0.0
C92 C 0.33196 0.12164 0.35737 0.0
O93 O 0.36929 0.09192 0.45073 0.0
C94 C 0.36169 0.1336 0.5824 0.0
C95 C 0.38841 0.08029 0.46687 0.0
O96 O 0.40915 0.08839 0.49 0.0
C97 C 0.42578 0.12722 0.41044 0.0
C98 C 0.37434 0.14349 0.63574 0.0
C99 C 0.37774 0.16429 0.63668 0.0
C100 C 0.38916 0.17356 0.68791 0.0
C101 C 0.39729 0.16203 0.73822 0.0
C102 C 0.39326 0.14142 0.73951 0.0
C103 C 0.38173 0.13219 0.68806 0.0
O104 O 0.34993 0.1115 0.32945 0.0
O105 O 0.33737 0.13276 0.40563 0.0
O106 O 0.40669 0.13187 0.22062 0.0
O107 O 0.38121 0.10744 0.2219 0.0
C108 C 0.39683 0.11767 0.18761 0.0
O109 O 0.40954 0.13761 0.44333 0.0
O110 O 0.41777 0.11568 0.36532 0.0
O111 O 0.37124 0.11651 0.56443 0.0
O112 O 0.35442 0.14492 0.53574 0.0
H113 H 0.37118 0.1734 0.59829 0.0
H114 H 0.4051 0.16941 0.77874 0.0
H115 H 0.37824 0.11629 0.68907 0.0
O116 O 0.87345 0.83898 0.85654 0.0
Tb117 Tb 0.86078 0.86862 0.88072 0.0
Eu118 Eu 0.83917 0.88445 0.06942 0.0
C119 C 0.8619 0.83124 0.80804 0.0
O120 O 0.84434 0.84189 0.77996 0.0
C121 C 0.80989 0.87353 0.94469 0.0
O122 O 0.84091 0.91788 0.07142 0.0
C123 C 0.82175 0.86825 0.17014 0.0
C124 C 0.86175 0.92753 0.08715 0.0
O125 O 0.88186 0.91748 0.10556 0.0
C126 C 0.89063 0.87793 0.99732 0.0
C127 C 0.83032 0.85695 0.22553 0.0
C128 C 0.83415 0.8362 0.22339 0.0
C129 C 0.84117 0.82552 0.27715 0.0
C130 C 0.84469 0.83596 0.33294 0.0
C131 C 0.84059 0.85654 0.33582 0.0
C132 C 0.83319 0.86689 0.28235 0.0
O133 O 0.82866 0.86092 0.93859 0.0
O134 O 0.80918 0.88501 0.9939 0.0
O135 O 0.83685 0.8822 0.8092 0.0
O136 O 0.87727 0.88398 0.80143 0.0
C137 C 0.85569 0.88835 0.77465 0.0
O138 O 0.88003 0.87517 0.05193 0.0
O139 O 0.87728 0.88649 0.95344 0.0
O140 O 0.82876 0.88704 0.16653 0.0
O141 O 0.82202 0.85907 0.11621 0.0
H142 H 0.83158 0.82833 0.18003 0.0
H143 H 0.84952 0.82799 0.37513 0.0
H144 H 0.8297 0.88276 0.28518 0.0
O145 O 0.65981 0.18838 0.37061 0.0
Tb146 Tb 0.66158 0.15631 0.38348 0.0
Eu147 Eu 0.66469 0.11636 0.54053 0.0
C148 C 0.63976 0.19597 0.3423 0.0
O149 O 0.62088 0.18405 0.32719 0.0
C150 C 0.70179 0.13048 0.44422 0.0
O151 O 0.65903 0.08314 0.54249 0.0
C152 C 0.67686 0.12991 0.6496 0.0
C153 C 0.64352 0.07462 0.50258 0.0
O154 O 0.63153 0.08575 0.46174 0.0
C155 C 0.61394 0.13954 0.46647 0.0
C156 C 0.66756 0.1415 0.70347 0.0
C157 C 0.66093 0.1617 0.69715 0.0
C158 C 0.65443 0.17309 0.74938 0.0
C159 C 0.65381 0.16391 0.80794 0.0
C160 C 0.66051 0.14389 0.8153 0.0
C161 C 0.66762 0.13275 0.76306 0.0
O162 O 0.68613 0.14516 0.45506 0.0
O163 O 0.69849 0.11457 0.4777 0.0
O164 O 0.68212 0.15268 0.29586 0.0
O165 O 0.64801 0.13637 0.30994 0.0
C166 C 0.66635 0.1401 0.27091 0.0
O167 O 0.62607 0.12741 0.50562 0.0
O168 O 0.62402 0.15145 0.42363 0.0
O169 O 0.66698 0.11215 0.64087 0.0
O170 O 0.68141 0.13958 0.5975 0.0
H171 H 0.66136 0.16871 0.65183 0.0
H172 H 0.64958 0.17264 0.84888 0.0
H173 H 0.67354 0.11742 0.76895 0.0
O174 O 0.85517 0.18693 0.14772 0.0
Tb175 Tb 0.85383 0.15502 0.13372 0.0
Eu176 Eu 0.85241 0.11701 0.9767 0.0
C177 C 0.87546 0.19517 0.17284 0.0
O178 O 0.8955 0.18409 0.18481 0.0
C179 C 0.81346 0.13123 0.06888 0.0
O180 O 0.85633 0.08376 0.98346 0.0
C181 C 0.83968 0.12823 0.86541 0.0
C182 C 0.8711 0.07549 0.02558 0.0
O183 O 0.88478 0.0869 0.0622 0.0
C184 C 0.90257 0.14092 0.05033 0.0
C185 C 0.84758 0.14002 0.8105 0.0
C186 C 0.85175 0.16069 0.81468 0.0
C187 C 0.85674 0.17205 0.76114 0.0
C188 C 0.85819 0.16247 0.70351 0.0
C189 C 0.85376 0.14201 0.69836 0.0
C190 C 0.84835 0.13081 0.75182 0.0
O191 O 0.82935 0.14586 0.0597 0.0
O192 O 0.81797 0.11512 0.03771 0.0
O193 O 0.83232 0.15156 0.21995 0.0
O194 O 0.86517 0.13379 0.20624 0.0
C195 C 0.84683 0.13803 0.24464 0.0
O196 O 0.89076 0.12989 0.00766 0.0
O197 O 0.89201 0.15048 0.09765 0.0
O198 O 0.85204 0.1116 0.87686 0.0
O199 O 0.83318 0.13798 0.91594 0.0
H200 H 0.85048 0.16806 0.85922 0.0
H201 H 0.8612 0.17113 0.66161 0.0
H202 H 0.84415 0.11508 0.74754 0.0
O203 O 0.62454 0.85385 0.65308 0.0
Tb204 Tb 0.61641 0.88495 0.67297 0.0
Eu205 Eu 0.63387 0.88101 0.51926 0.0
C206 C 0.6404 0.8442 0.68981 0.0
O207 O 0.65284 0.85429 0.73237 0.0
C208 C 0.67117 0.88743 0.63172 0.0
O209 O 0.63793 0.91429 0.52671 0.0
C210 C 0.64644 0.86799 0.40983 0.0
C211 C 0.62127 0.92612 0.49983 0.0
O212 O 0.60219 0.91825 0.46881 0.0
C213 C 0.57716 0.88619 0.56787 0.0
C214 C 0.63638 0.85661 0.35603 0.0
C215 C 0.63211 0.83595 0.36124 0.0
C216 C 0.62502 0.82467 0.30936 0.0
C217 C 0.62187 0.83424 0.25209 0.0
C218 C 0.62682 0.85464 0.24479 0.0
C219 C 0.63372 0.86587 0.29737 0.0
O220 O 0.6529 0.89847 0.65426 0.0
O221 O 0.66602 0.8748 0.58696 0.0
O222 O 0.60032 0.87206 0.75747 0.0
O223 O 0.61835 0.90014 0.76331 0.0
C224 C 0.60696 0.88624 0.795 0.0
O225 O 0.59222 0.87406 0.53683 0.0
O226 O 0.5857 0.89616 0.61605 0.0
O227 O 0.63759 0.88602 0.41916 0.0
O228 O 0.6504 0.85808 0.46167 0.0
H229 H 0.63476 0.82848 0.40539 0.0
H230 H 0.61655 0.82548 0.21194 0.0
H231 H 0.63808 0.88155 0.29221 0.0
O232 O 0.61857 0.66936 0.20166 0.0
Tb233 Tb 0.61534 0.63733 0.19361 0.0
Eu234 Eu 0.62731 0.63378 0.97672 0.0
C235 C 0.63243 0.67747 0.24575 0.0
O236 O 0.64606 0.66598 0.28236 0.0
C237 C 0.65961 0.63117 0.09916 0.0
O238 O 0.62012 0.60214 0.94573 0.0
C239 C 0.62882 0.66256 0.89655 0.0
C240 C 0.61426 0.58942 0.9901 0.0
O241 O 0.61193 0.59623 0.04679 0.0
C242 C 0.58335 0.63415 0.07961 0.0
C243 C 0.62638 0.66917 0.83196 0.0
C244 C 0.62867 0.68957 0.81856 0.0
C245 C 0.62557 0.69672 0.75757 0.0
C246 C 0.61985 0.68303 0.7104 0.0
C247 C 0.61777 0.6626 0.7235 0.0
C248 C 0.62121 0.65567 0.78428 0.0
O249 O 0.63786 0.62402 0.11962 0.0
O250 O 0.66216 0.63431 0.03903 0.0
O251 O 0.63344 0.624 0.27488 0.0
O252 O 0.59295 0.62522 0.26989 0.0
C253 C 0.61231 0.61979 0.30375 0.0
O254 O 0.60414 0.64283 0.05931 0.0
O255 O 0.58118 0.63193 0.13983 0.0
O256 O 0.64896 0.65186 0.91144 0.0
O257 O 0.60777 0.6569 0.92478 0.0
H258 H 0.63251 0.69989 0.856 0.0
H259 H 0.6178 0.68813 0.66288 0.0
H260 H 0.61955 0.63993 0.79453 0.0
O261 O 0.85692 0.329 0.66496 0.0
Tb262 Tb 0.85333 0.36099 0.65286 0.0
Eu263 Eu 0.84992 0.39628 0.48922 0.0
C264 C 0.83995 0.31871 0.69656 0.0
O265 O 0.81966 0.32774 0.71827 0.0
C266 C 0.81201 0.38445 0.58808 0.0
O267 O 0.85662 0.42902 0.47488 0.0
C268 C 0.83778 0.37936 0.38466 0.0
C269 C 0.85446 0.44151 0.52139 0.0
O270 O 0.84939 0.43453 0.57705 0.0
C271 C 0.90151 0.37661 0.56605 0.0
C272 C 0.84835 0.36919 0.32915 0.0
C273 C 0.8552 0.34892 0.33151 0.0
C274 C 0.86377 0.33911 0.27799 0.0
C275 C 0.86572 0.34965 0.22207 0.0
C276 C 0.85799 0.36952 0.21794 0.0
C277 C 0.84922 0.37926 0.27149 0.0
O278 O 0.82729 0.36932 0.58078 0.0
O279 O 0.81614 0.39966 0.5521 0.0
O280 O 0.83137 0.3669 0.73741 0.0
O281 O 0.86761 0.38035 0.72706 0.0
C282 C 0.84817 0.37828 0.76397 0.0
O283 O 0.88961 0.38722 0.52245 0.0
O284 O 0.89085 0.36664 0.61277 0.0
O285 O 0.84232 0.3985 0.39012 0.0
O286 O 0.83814 0.36985 0.43824 0.0
H287 H 0.85338 0.3406 0.37443 0.0
H288 H 0.87154 0.34192 0.18029 0.0
H289 H 0.8427 0.39451 0.26795 0.0
O290 O 0.63818 0.32946 0.83414 0.0
Tb291 Tb 0.63454 0.36145 0.84257 0.0
Eu292 Eu 0.63881 0.39787 0.01042 0.0
C293 C 0.64962 0.32136 0.78623 0.0
O294 O 0.66032 0.33285 0.74431 0.0
C295 C 0.67424 0.3869 0.91057 0.0
O296 O 0.63057 0.4308 0.01276 0.0
C297 C 0.6515 0.38269 0.11729 0.0
C298 C 0.63136 0.44124 0.96099 0.0
O299 O 0.63673 0.43214 0.90876 0.0
C300 C 0.58775 0.37484 0.93573 0.0
C301 C 0.64226 0.37137 0.17221 0.0
C302 C 0.63994 0.35041 0.17098 0.0
C303 C 0.63265 0.3399 0.22464 0.0
C304 C 0.62772 0.35034 0.27937 0.0
C305 C 0.63112 0.37096 0.2823 0.0
C306 C 0.6384 0.38143 0.22876 0.0
O307 O 0.65579 0.37403 0.91673 0.0
O308 O 0.67369 0.4011 0.95095 0.0
O309 O 0.6138 0.37505 0.76553 0.0
O310 O 0.65422 0.37431 0.76208 0.0
C311 C 0.63368 0.37969 0.73255 0.0
O312 O 0.60004 0.38589 0.9777 0.0
O313 O 0.59772 0.36527 0.88753 0.0
O314 O 0.64346 0.40111 0.11034 0.0
O315 O 0.65397 0.37314 0.06436 0.0
H316 H 0.64417 0.34223 0.12899 0.0
H317 H 0.62288 0.34216 0.32124 0.0
H318 H 0.64153 0.39735 0.23158 0.0
O319 O 0.8652 0.66632 0.32202 0.0
Tb320 Tb 0.8722 0.63493 0.30544 0.0
Eu321 Eu 0.85476 0.63451 0.46948 0.0
C322 C 0.85115 0.67604 0.2814 0.0
O323 O 0.84103 0.6661 0.23508 0.0
C324 C 0.81728 0.63257 0.35203 0.0
O325 O 0.85234 0.60104 0.47983 0.0
C326 C 0.84622 0.65062 0.57713 0.0
C327 C 0.85762 0.58837 0.43523 0.0
O328 O 0.86393 0.59504 0.38019 0.0
C329 C 0.91037 0.62899 0.41273 0.0
C330 C 0.85982 0.65915 0.63148 0.0
C331 C 0.86469 0.67974 0.63363 0.0
C332 C 0.87512 0.68859 0.68695 0.0
C333 C 0.88143 0.67649 0.73768 0.0
C334 C 0.87679 0.65596 0.73691 0.0
C335 C 0.86568 0.64734 0.68389 0.0
O336 O 0.83507 0.62247 0.32363 0.0
O337 O 0.82171 0.64144 0.40526 0.0
O338 O 0.89358 0.64209 0.22087 0.0
O339 O 0.86463 0.62014 0.21686 0.0
C340 C 0.88166 0.62968 0.1848 0.0
O341 O 0.89621 0.64053 0.44777 0.0
O342 O 0.90152 0.62113 0.36133 0.0
O343 O 0.84755 0.63132 0.56866 0.0
O344 O 0.84693 0.66075 0.52489 0.0
H345 H 0.85966 0.68904 0.59434 0.0
H346 H 0.88836 0.68329 0.78004 0.0
H347 H 0.86129 0.63159 0.68398 0.0
O348 O 0.36404 0.31942 0.8666 0.0
Tb349 Tb 0.35137 0.34993 0.87297 0.0
Eu350 Eu 0.347 0.37836 0.04426 0.0
C351 C 0.38191 0.31455 0.82678 0.0
O352 O 0.39443 0.32869 0.79763 0.0
C353 C 0.30879 0.36992 0.94092 0.0
O354 O 0.35555 0.41106 0.05878 0.0
C355 C 0.33029 0.36004 0.14281 0.0
C356 C 0.3708 0.42052 0.02013 0.0
O357 O 0.38162 0.41045 0.97521 0.0
C358 C 0.39626 0.36557 0.95842 0.0
C359 C 0.33607 0.34655 0.19584 0.0
C360 C 0.34242 0.32623 0.18772 0.0
C361 C 0.34551 0.31361 0.23973 0.0
C362 C 0.34146 0.32137 0.29926 0.0
C363 C 0.33466 0.34129 0.30804 0.0
C364 C 0.33246 0.35389 0.25637 0.0
O365 O 0.32318 0.35411 0.94387 0.0
O366 O 0.31467 0.38447 0.97815 0.0
O367 O 0.35618 0.36746 0.78773 0.0
O368 O 0.32441 0.3482 0.79566 0.0
C369 C 0.33599 0.36078 0.75958 0.0
O370 O 0.38502 0.36541 0.01348 0.0
O371 O 0.38381 0.36751 0.90532 0.0
O372 O 0.33994 0.37811 0.14396 0.0
O373 O 0.32878 0.35251 0.0866 0.0
H374 H 0.34484 0.32025 0.14147 0.0
H375 H 0.34307 0.31169 0.33941 0.0
H376 H 0.32677 0.36923 0.26318 0.0
O377 O 0.14109 0.6611 0.34331 0.0
Tb378 Tb 0.13656 0.62911 0.33418 0.0
Eu379 Eu 0.1537 0.63249 0.49822 0.0
C380 C 0.15366 0.67061 0.29946 0.0
O381 O 0.16494 0.66016 0.25605 0.0
C382 C 0.19066 0.62911 0.38232 0.0
O383 O 0.15533 0.59878 0.49631 0.0
C384 C 0.16385 0.64808 0.60627 0.0
C385 C 0.13792 0.58839 0.52631 0.0
O386 O 0.12041 0.59801 0.5578 0.0
C387 C 0.09881 0.62544 0.44137 0.0
C388 C 0.1525 0.65739 0.66256 0.0
C389 C 0.15072 0.67833 0.66666 0.0
C390 C 0.14206 0.6876 0.72128 0.0
C391 C 0.1349 0.67562 0.77173 0.0
C392 C 0.13689 0.65486 0.76921 0.0
C393 C 0.14591 0.64577 0.71484 0.0
O394 O 0.17323 0.61723 0.35961 0.0
O395 O 0.18595 0.63966 0.43222 0.0
O396 O 0.11237 0.63274 0.25189 0.0
O397 O 0.14594 0.61552 0.24454 0.0
C398 C 0.12647 0.62249 0.21414 0.0
O399 O 0.11232 0.63805 0.4747 0.0
O400 O 0.10919 0.61539 0.39572 0.0
O401 O 0.16084 0.62885 0.59768 0.0
O402 O 0.16306 0.65832 0.55425 0.0
H403 H 0.15643 0.68747 0.6276 0.0
H404 H 0.12897 0.68248 0.81483 0.0
H405 H 0.14803 0.62974 0.71371 0.0
O406 O 0.38046 0.67532 0.18001 0.0
Tb407 Tb 0.38948 0.64373 0.17889 0.0
Eu408 Eu 0.36632 0.6134 0.99377 0.0
C409 C 0.36703 0.68291 0.2258 0.0
O410 O 0.35742 0.6709 0.26791 0.0
C411 C 0.34057 0.62612 0.11103 0.0
O412 O 0.3688 0.58067 0.01802 0.0
C413 C 0.35876 0.62045 0.87739 0.0
C414 C 0.38754 0.5694 0.99784 0.0
O415 O 0.40594 0.57761 0.96524 0.0
C416 C 0.41612 0.63069 0.05903 0.0
C417 C 0.3679 0.63434 0.82929 0.0
C418 C 0.36534 0.65517 0.83402 0.0
C419 C 0.37475 0.66763 0.78653 0.0
C420 C 0.38647 0.65897 0.73465 0.0
C421 C 0.38879 0.63829 0.72933 0.0
C422 C 0.37958 0.62613 0.77694 0.0
O423 O 0.36518 0.62525 0.12146 0.0
O424 O 0.33311 0.61989 0.05636 0.0
O425 O 0.3785 0.62869 0.26407 0.0
O426 O 0.4169 0.63858 0.25343 0.0
C427 C 0.40091 0.62947 0.28983 0.0
O428 O 0.39439 0.63556 0.03306 0.0
O429 O 0.42064 0.63618 0.11668 0.0
O430 O 0.37586 0.60771 0.89787 0.0
O431 O 0.34362 0.62735 0.92099 0.0
H432 H 0.35623 0.66166 0.87426 0.0
H433 H 0.39253 0.66836 0.69643 0.0
H434 H 0.38132 0.6101 0.77302 0.0
O435 O 0.14301 0.32498 0.6719 0.0
Tb436 Tb 0.13846 0.357 0.66405 0.0
Eu437 Eu 0.14691 0.3938 0.4944 0.0
C438 C 0.15462 0.31707 0.72022 0.0
O439 O 0.16511 0.3288 0.7617 0.0
C440 C 0.18 0.38157 0.59734 0.0
O441 O 0.14499 0.42724 0.48173 0.0
C442 C 0.15618 0.37456 0.39195 0.0
C443 C 0.13459 0.43831 0.52521 0.0
O444 O 0.12463 0.42945 0.57391 0.0
C445 C 0.09374 0.3745 0.5705 0.0
C446 C 0.14511 0.36322 0.33893 0.0
C447 C 0.14042 0.3425 0.343 0.0
C448 C 0.13214 0.33167 0.29055 0.0
C449 C 0.12849 0.34186 0.23431 0.0
C450 C 0.13369 0.36221 0.22887 0.0
C451 C 0.14208 0.3728 0.28106 0.0
O452 O 0.15963 0.3706 0.59167 0.0
O453 O 0.18196 0.39511 0.55477 0.0
O454 O 0.15696 0.37082 0.74461 0.0
O455 O 0.11665 0.36781 0.74327 0.0
C456 C 0.13607 0.37387 0.77577 0.0
O457 O 0.10691 0.38631 0.53196 0.0
O458 O 0.1029 0.3623 0.61407 0.0
O459 O 0.15187 0.39383 0.39416 0.0
O460 O 0.15682 0.36615 0.44719 0.0
H461 H 0.14368 0.33474 0.3864 0.0
H462 H 0.12318 0.33364 0.19301 0.0
H463 H 0.14672 0.38844 0.27613 0.0
H464 H 0.93358 0.13021 0.95306 0.0
H465 H 0.06199 0.14022 0.14856 0.0
H466 H 0.93618 0.15401 0.13909 0.0
H467 H 0.0607 0.13031 0.95063 0.0
H468 H 0.01587 0.14553 0.1461 0.0
H469 H 0.98015 0.13011 0.95117 0.0
C470 C 0.94386 0.13551 0.9934 0.0
C471 C 0.9308 0.14202 0.04643 0.0
C472 C 0.02573 0.14234 0.10314 0.0
C473 C 0.98421 0.14183 0.04459 0.0
C474 C 0.05206 0.13928 0.10454 0.0
C475 C 0.06523 0.13456 0.04989 0.0
C476 C 0.01243 0.14049 0.04679 0.0
C477 C 0.05138 0.13375 0.99406 0.0
C478 C 0.97049 0.1355 0.99218 0.0
C479 C 0.94529 0.14884 0.09709 0.0
N480 N 0.02571 0.13646 0.99408 0.0
N481 N 0.97117 0.14839 0.0951 0.0
H482 H 0.41766 0.90166 0.61476 0.0
H483 H 0.55004 0.86504 0.48048 0.0
H484 H 0.42282 0.86219 0.45812 0.0
H485 H 0.54194 0.91135 0.61747 0.0
H486 H 0.50392 0.86632 0.46203 0.0
H487 H 0.46312 0.9087 0.60574 0.0
C488 C 0.42839 0.89485 0.57749 0.0
C489 C 0.41669 0.8813 0.53732 0.0
C490 C 0.51233 0.87636 0.49553 0.0
C491 C 0.4689 0.88862 0.52792 0.0
C492 C 0.53864 0.87559 0.50626 0.0
C493 C 0.54983 0.88783 0.55149 0.0
C494 C 0.49717 0.88942 0.53044 0.0
C495 C 0.53416 0.90136 0.58297 0.0
C496 C 0.45436 0.89877 0.57244 0.0
C497 C 0.43126 0.87279 0.48984 0.0
N498 N 0.50867 0.90163 0.57231 0.0
N499 N 0.45683 0.87627 0.4872 0.0
H500 H 0.91716 0.88166 0.88936 0.0
H501 H 0.0537 0.85819 0.03839 0.0
H502 H 0.92662 0.86545 0.08202 0.0
H503 H 0.04211 0.88689 0.86107 0.0
H504 H 0.0073 0.85676 0.05239 0.0
H505 H 0.96298 0.87893 0.87484 0.0
C506 C 0.92885 0.87737 0.9286 0.0
C507 C 0.91803 0.87398 0.98718 0.0
C508 C 0.01499 0.86334 0.01047 0.0
C509 C 0.97077 0.87096 0.97088 0.0
C510 C 0.04144 0.86415 0.0024 0.0
C511 C 0.05182 0.87275 0.94857 0.0
C512 C -0.00111 0.87099 0.96407 0.0
C513 C 0.03503 0.88025 0.90351 0.0
C514 C 0.95509 0.87588 0.9203 0.0
C515 C 0.93419 0.86829 0.03613 0.0
N516 N 0.00946 0.87916 0.91226 0.0
N517 N 0.95983 0.86708 0.02699 0.0
H518 H 0.58008 0.16959 0.44274 0.0
H519 H 0.46244 0.09911 0.39186 0.0
H520 H 0.58398 0.10734 0.49121 0.0
H521 H 0.45144 0.15887 0.45919 0.0
H522 H 0.50826 0.1023 0.41303 0.0
H523 H 0.53351 0.16668 0.43471 0.0
C524 C 0.57111 0.15538 0.45222 0.0
C525 C 0.58584 0.13869 0.46781 0.0
C526 C 0.49573 0.11464 0.42339 0.0
C527 C 0.53298 0.13519 0.45716 0.0
C528 C 0.46971 0.11289 0.41099 0.0
C529 C 0.45326 0.12877 0.42376 0.0
C530 C 0.50536 0.13256 0.44711 0.0
C531 C 0.46354 0.14626 0.44893 0.0
C532 C 0.54463 0.15376 0.44776 0.0
C533 C 0.5733 0.12061 0.47957 0.0
N534 N 0.48905 0.14781 0.45908 0.0
N535 N 0.54759 0.11925 0.47305 0.0
H536 H 0.56186 0.65113 0.97693 0.0
H537 H 0.44029 0.59583 0.07924 0.0
H538 H 0.55958 0.59859 0.09155 0.0
H539 H 0.44025 0.64734 0.96022 0.0
H540 H 0.48392 0.5886 0.04751 0.0
H541 H 0.51984 0.64248 0.93518 0.0
C542 C 0.55302 0.63729 0.99109 0.0
C543 C 0.56376 0.62576 0.03856 0.0
C544 C 0.47426 0.60118 0.02663 0.0
C545 C 0.51564 0.61606 0.99281 0.0
C546 C 0.44929 0.60519 0.04456 0.0
C547 C 0.43709 0.62232 0.02291 0.0
C548 C 0.4874 0.61503 0.98945 0.0
C549 C 0.44932 0.63404 0.97815 0.0
C550 C 0.52892 0.63241 0.9677 0.0
C551 C 0.55152 0.60809 0.05594 0.0
N552 N 0.47421 0.63058 0.96435 0.0
N553 N 0.52787 0.60399 0.03403 0.0
H554 H 0.06322 0.39802 0.495 0.0
H555 H 0.93376 0.35313 0.63457 0.0
H556 H 0.05909 0.35148 0.63348 0.0
H557 H 0.93435 0.39814 0.491 0.0
H558 H 0.97996 0.35245 0.63227 0.0
H559 H 0.01647 0.39833 0.49038 0.0
C560 C 0.05264 0.38783 0.52426 0.0
C561 C 0.06539 0.37475 0.56487 0.0
C562 C 0.97007 0.36248 0.60109 0.0
C563 C 0.01181 0.37511 0.55975 0.0
C564 C 0.94352 0.36292 0.60241 0.0
C565 C 0.92988 0.37579 0.56308 0.0
C566 C 0.98342 0.37504 0.5603 0.0
C567 C 0.94393 0.38796 0.52223 0.0
C568 C 0.02591 0.38805 0.52157 0.0
C569 C 0.05043 0.36193 0.60156 0.0
N570 N 0.96992 0.38734 0.52206 0.0
N571 N 0.02461 0.36249 0.59815 0.0
H572 H 0.42716 0.35977 0.85803 0.0
H573 H 0.55736 0.38545 0.0351 0.0
H574 H 0.43 0.37299 0.0539 0.0
H575 H 0.55345 0.36044 0.85078 0.0
H576 H 0.51083 0.38277 0.04243 0.0
H577 H 0.47353 0.36174 0.85407 0.0
C578 C 0.43751 0.36309 0.9003 0.0
C579 C 0.42456 0.36624 0.95637 0.0
C580 C 0.52025 0.37782 1.00055 0.0
C581 C 0.47793 0.36859 0.95208 0.0
C582 C 0.54683 0.3794 0.9962 0.0
C583 C 0.55955 0.37315 0.94224 0.0
C584 C 0.50622 0.37013 0.9504 0.0
C585 C 0.54472 0.36538 0.89352 0.0
C586 C 0.46406 0.36416 0.89802 0.0
C587 C 0.43913 0.37038 0.00966 0.0
N588 N 0.51897 0.36418 0.89873 0.0
N589 N 0.46503 0.37154 0.00614 0.0
H590 H 0.06756 0.64896 0.51245 0.0
H591 H 0.94226 0.60089 0.36618 0.0
H592 H 0.06685 0.59782 0.39162 0.0
H593 H 0.94014 0.65011 0.49435 0.0
H594 H 0.9878 0.59764 0.38453 0.0
H595 H 0.02088 0.64772 0.51637 0.0
C596 C 0.05763 0.63735 0.48737 0.0
C597 C 0.07106 0.62369 0.45076 0.0
C598 C 0.97742 0.60909 0.40907 0.0
C599 C 0.01789 0.62222 0.45494 0.0
C600 C 0.95139 0.61099 0.39841 0.0
C601 C 0.93749 0.626 0.42804 0.0
C602 C 0.98978 0.62242 0.44917 0.0
C603 C 0.95022 0.63844 0.47016 0.0
C604 C 0.03101 0.63667 0.48957 0.0
C605 C 0.05728 0.60889 0.41956 0.0
N606 N 0.97579 0.63654 0.47893 0.0
N607 N 0.03148 0.60867 0.42193 0.0
H608 H 0.18187 0.19528 0.83971 0.0
H609 H 0.12655 0.2893 0.65754 0.0
H610 H 0.11295 0.19395 0.73008 0.0
H611 H 0.1808 0.29525 0.80724 0.0
H612 H 0.12376 0.25371 0.67905 0.0
H613 H 0.18332 0.23155 0.82721 0.0
C614 C 0.16683 0.20262 0.81393 0.0
C615 C 0.14743 0.1915 0.78527 0.0
C616 C 0.13627 0.26279 0.7073 0.0
C617 C 0.14932 0.23286 0.76957 0.0
C618 C 0.13801 0.28311 0.69473 0.0
C619 C 0.15393 0.2953 0.73063 0.0
C620 C 0.15075 0.25448 0.75576 0.0
C621 C 0.16823 0.28642 0.77845 0.0
C622 C 0.16778 0.2233 0.80638 0.0
C623 C 0.12857 0.20183 0.75187 0.0
N624 N 0.16638 0.26653 0.78952 0.0
N625 N 0.13015 0.22184 0.74441 0.0
H626 H 0.3236 0.80319 0.33189 0.0
H627 H 0.39136 0.71217 0.15979 0.0
H628 H 0.38901 0.80931 0.21216 0.0
H629 H 0.33773 0.70357 0.30927 0.0
H630 H 0.38914 0.74803 0.17632 0.0
H631 H 0.32784 0.76684 0.32549 0.0
C632 C 0.33912 0.79691 0.30527 0.0
C633 C 0.35579 0.80932 0.27195 0.0
C634 C 0.37786 0.73832 0.20562 0.0
C635 C 0.36039 0.76784 0.26322 0.0
C636 C 0.37899 0.71781 0.19589 0.0
C637 C 0.3647 0.70479 0.23312 0.0
C638 C 0.36215 0.746 0.25264 0.0
C639 C 0.34911 0.71304 0.27944 0.0
C640 C 0.34139 0.77617 0.30115 0.0
C641 C 0.37542 0.80034 0.23769 0.0
N642 N 0.34818 0.7331 0.28778 0.0
N643 N 0.37699 0.78023 0.2337 0.0
H644 H 0.12216 0.69653 0.36094 0.0
H645 H 0.17081 0.79291 0.17621 0.0
H646 H 0.18124 0.69456 0.22186 0.0
H647 H 0.10076 0.79112 0.28113 0.0
H648 H 0.17678 0.75744 0.19711 0.0
H649 H 0.11679 0.73211 0.34009 0.0
C650 C 0.13421 0.70361 0.32657 0.0
C651 C 0.15212 0.69252 0.29297 0.0
C652 C 0.16005 0.76481 0.21533 0.0
C653 C 0.14593 0.7332 0.26847 0.0
C654 C 0.15649 0.78505 0.20289 0.0
C655 C 0.13528 0.79513 0.22709 0.0
C656 C 0.14239 0.75456 0.25261 0.0
C657 C 0.11763 0.78411 0.26235 0.0
C658 C 0.131 0.72389 0.31431 0.0
C659 C 0.16711 0.7025 0.2487 0.0
N660 N 0.12166 0.76451 0.27433 0.0
N661 N 0.16366 0.72223 0.23769 0.0
H662 H 0.34715 0.28472 0.84029 0.0
H663 H 0.43057 0.19747 0.70735 0.0
H664 H 0.42188 0.29707 0.76565 0.0
H665 H 0.34884 0.19881 0.6865 0.0
H666 H 0.42979 0.23265 0.73827 0.0
H667 H 0.34943 0.25117 0.79757 0.0
C668 C 0.36419 0.2803 0.81559 0.0
C669 C 0.38441 0.29368 0.80661 0.0
C670 C 0.41213 0.22531 0.72581 0.0
C671 C 0.38703 0.25534 0.75751 0.0
C672 C 0.41257 0.20535 0.70798 0.0
C673 C 0.38975 0.19542 0.69395 0.0
C674 C 0.38862 0.23509 0.73132 0.0
C675 C 0.36684 0.20608 0.69625 0.0
C676 C 0.36533 0.26123 0.79063 0.0
C677 C 0.4059 0.28718 0.77358 0.0
N678 N 0.3668 0.22529 0.71567 0.0
N679 N 0.40675 0.26837 0.7505 0.0
H680 H 0.81977 0.69942 0.21127 0.0
H681 H 0.87647 0.80219 0.33774 0.0
H682 H 0.87663 0.70266 0.35591 0.0
H683 H 0.81136 0.79829 0.21546 0.0
H684 H 0.87826 0.76588 0.34151 0.0
H685 H 0.81758 0.73564 0.20956 0.0
C686 C 0.83173 0.70775 0.24295 0.0
C687 C 0.84846 0.69796 0.28374 0.0
C688 C 0.8636 0.77298 0.31381 0.0
C689 C 0.84619 0.7396 0.2816 0.0
C690 C 0.86252 0.79373 0.31169 0.0
C691 C 0.84367 0.80342 0.27634 0.0
C692 C 0.8458 0.76172 0.28012 0.0
C693 C 0.82644 0.79158 0.2427 0.0
C694 C 0.83048 0.72847 0.24189 0.0
C695 C 0.86343 0.70958 0.32379 0.0
N696 N 0.8279 0.7714 0.2455 0.0
N697 N 0.86205 0.72979 0.32148 0.0
H698 H 0.62331 0.29384 0.85445 0.0
H699 H 0.68167 0.19995 0.67982 0.0
H700 H 0.67475 0.29916 0.69901 0.0
H701 H 0.61914 0.19618 0.80943 0.0
H702 H 0.67915 0.23621 0.6843 0.0
H703 H 0.62211 0.25792 0.83916 0.0
C704 C 0.63442 0.28746 0.81716 0.0
C705 C 0.64923 0.29953 0.77808 0.0
C706 C 0.66581 0.22744 0.71127 0.0
C707 C 0.64787 0.25835 0.76016 0.0
C708 C 0.66708 0.20672 0.70832 0.0
C709 C 0.6507 0.19496 0.74467 0.0
C710 C 0.64817 0.23648 0.75119 0.0
C711 C 0.63246 0.20462 0.78148 0.0
C712 C 0.63361 0.26693 0.80823 0.0
C713 C 0.6631 0.29041 0.73029 0.0
N714 N 0.63186 0.22479 0.78425 0.0
N715 N 0.66218 0.27035 0.72285 0.0
H716 H 0.87923 0.29502 0.65718 0.0
H717 H 0.825 0.19718 0.82414 0.0
H718 H 0.81047 0.29378 0.7671 0.0
H719 H 0.88994 0.19715 0.70139 0.0
H720 H 0.82251 0.23333 0.81389 0.0
H721 H 0.88588 0.25982 0.68072 0.0
C722 C 0.86552 0.28736 0.68624 0.0
C723 C 0.84416 0.29736 0.70985 0.0
C724 C 0.83746 0.22545 0.78965 0.0
C725 C 0.85177 0.25707 0.73737 0.0
C726 C 0.83906 0.20482 0.79603 0.0
C727 C 0.85763 0.19412 0.76329 0.0
C728 C 0.85454 0.23547 0.75022 0.0
C729 C 0.87512 0.2048 0.7268 0.0
C730 C 0.86936 0.26726 0.69979 0.0
C731 C 0.82712 0.28667 0.74753 0.0
N732 N 0.87303 0.22486 0.72089 0.0
N733 N 0.83126 0.26712 0.76001 0.0
H734 H 0.60092 0.70449 0.18987 0.0
H735 H 0.65771 0.79872 0.36728 0.0
H736 H 0.66009 0.69973 0.32866 0.0
H737 H 0.58919 0.80034 0.25619 0.0
H738 H 0.65878 0.76252 0.35605 0.0
H739 H 0.59712 0.73985 0.21271 0.0
C740 C 0.61321 0.71089 0.22501 0.0
C741 C 0.63089 0.69911 0.25731 0.0
C742 C 0.64336 0.77078 0.33472 0.0
C743 C 0.62653 0.73969 0.28401 0.0
C744 C 0.64259 0.79144 0.34162 0.0
C745 C 0.62344 0.80261 0.31219 0.0
C746 C 0.62494 0.76126 0.29778 0.0
C747 C 0.60455 0.79236 0.27878 0.0
C748 C 0.61091 0.73109 0.23833 0.0
C749 C 0.64621 0.70825 0.30257 0.0
N750 N 0.60594 0.77233 0.27195 0.0
N751 N 0.64373 0.72802 0.31444 0.0
H752 H 0.67263 0.82032 0.75611 0.0
H753 H 0.59727 0.71977 0.67719 0.0
H754 H 0.60969 0.81775 0.6271 0.0
H755 H 0.66089 0.72301 0.80411 0.0
H756 H 0.60281 0.75513 0.65372 0.0
H757 H 0.67024 0.78431 0.76864 0.0
C758 C 0.65844 0.81216 0.72986 0.0
C759 C 0.64121 0.82214 0.69078 0.0
C760 C 0.6156 0.74809 0.68659 0.0
C761 C 0.63818 0.78073 0.70552 0.0
C762 C 0.61251 0.72786 0.6999 0.0
C763 C 0.62858 0.71832 0.74296 0.0
C764 C 0.63491 0.75897 0.71646 0.0
C765 C 0.64776 0.72972 0.77142 0.0
C766 C 0.65704 0.79155 0.73721 0.0
C767 C 0.62334 0.81071 0.65779 0.0
N768 N 0.65035 0.74939 0.75775 0.0
N769 N 0.62215 0.79064 0.66631 0.0
H770 H 0.83038 0.31019 0.31344 0.0
H771 H 0.91611 0.21946 0.19781 0.0
H772 H 0.90563 0.31873 0.23754 0.0
H773 H 0.83383 0.21866 0.19312 0.0
H774 H 0.91475 0.25414 0.23286 0.0
H775 H 0.83393 0.27443 0.29277 0.0
C776 C 0.84789 0.30443 0.2939 0.0
C777 C 0.86777 0.31733 0.2772 0.0
C778 C 0.89704 0.24632 0.22416 0.0
C779 C 0.87184 0.27667 0.25286 0.0
C780 C 0.89778 0.22658 0.20415 0.0
C781 C 0.87504 0.21624 0.19208 0.0
C782 C 0.8734 0.25561 0.23337 0.0
C783 C 0.85181 0.22615 0.20123 0.0
C784 C 0.84979 0.28411 0.28146 0.0
C785 C 0.88991 0.3092 0.251 0.0
N786 N 0.85158 0.24526 0.22166 0.0
N787 N 0.89135 0.28937 0.23948 0.0
H788 H 0.59233 0.31561 0.24945 0.0
H789 H 0.67949 0.22257 0.33412 0.0
H790 H 0.67289 0.31462 0.21094 0.0
H791 H 0.59827 0.21753 0.30553 0.0
H792 H 0.67763 0.25704 0.2966 0.0
H793 H 0.59397 0.28007 0.27489 0.0
C794 C 0.61023 0.30773 0.24499 0.0
C795 C 0.63243 0.31789 0.22729 0.0
C796 C 0.66025 0.24835 0.29846 0.0
C797 C 0.63473 0.2775 0.2586 0.0
C798 C 0.66126 0.22874 0.32039 0.0
C799 C 0.63899 0.21716 0.32315 0.0
C800 C 0.63675 0.25652 0.28009 0.0
C801 C 0.61592 0.22589 0.30418 0.0
C802 C 0.61123 0.28751 0.25988 0.0
C803 C 0.6553 0.30717 0.22342 0.0
N804 N 0.61538 0.24505 0.28386 0.0
N805 N 0.65595 0.28759 0.23977 0.0
H806 H 0.89715 0.80415 0.85185 0.0
H807 H 0.84116 0.71653 0.64502 0.0
H808 H 0.83872 0.8121 0.71257 0.0
H809 H 0.91226 0.7109 0.74502 0.0
H810 H 0.84074 0.75185 0.66851 0.0
H811 H 0.90348 0.76997 0.81468 0.0
C812 C 0.88578 0.79877 0.81339 0.0
C813 C 0.86726 0.81093 0.78562 0.0
C814 C 0.85661 0.74295 0.6848 0.0
C815 C 0.87432 0.77207 0.74312 0.0
C816 C 0.85699 0.72275 0.67081 0.0
C817 C 0.87671 0.7106 0.69328 0.0
C818 C 0.87588 0.75113 0.72226 0.0
C819 C 0.8964 0.71959 0.72772 0.0
C820 C 0.88944 0.77932 0.79207 0.0
C821 C 0.85312 0.80325 0.73575 0.0
N822 N 0.89533 0.73927 0.74184 0.0
N823 N 0.85681 0.78431 0.71649 0.0
H824 H 0.38134 0.29259 0.30433 0.0
H825 H 0.33334 0.18582 0.18691 0.0
H826 H 0.3231 0.28529 0.16485 0.0
H827 H 0.38643 0.19409 0.33785 0.0
H828 H 0.33106 0.2219 0.17354 0.0
H829 H 0.38604 0.25651 0.31026 0.0
C830 C 0.36975 0.28336 0.27429 0.0
C831 C 0.35167 0.29201 0.23428 0.0
C832 C 0.34318 0.21585 0.20964 0.0
C833 C 0.35677 0.25045 0.24134 0.0
C834 C 0.34446 0.1952 0.21751 0.0
C835 C 0.36009 0.18681 0.26376 0.0
C836 C 0.35773 0.22833 0.24806 0.0
C837 C 0.37405 0.19981 0.30178 0.0
C838 C 0.37236 0.26273 0.27793 0.0
C839 C 0.33735 0.2793 0.19608 0.0
N840 N 0.37258 0.21987 0.293 0.0
N841 N 0.34004 0.25916 0.20095 0.0
H842 H 0.11424 0.80658 0.85929 0.0
H843 H 0.17759 0.7148 0.67984 0.0
H844 H 0.17607 0.8134 0.72895 0.0
H845 H 0.10645 0.71093 0.77974 0.0
H846 H 0.17889 0.75054 0.70104 0.0
H847 H 0.11352 0.77088 0.83756 0.0
C848 C 0.12786 0.80056 0.82661 0.0
C849 C 0.14519 0.81305 0.7958 0.0
C850 C 0.16295 0.74186 0.7181 0.0
C851 C 0.14433 0.77215 0.77023 0.0
C852 C 0.16206 0.72146 0.70549 0.0
C853 C 0.14193 0.70971 0.7282 0.0
C854 C 0.14366 0.75063 0.75403 0.0
C855 C 0.1226 0.71924 0.76214 0.0
C856 C 0.12731 0.78018 0.81386 0.0
C857 C 0.16231 0.80437 0.75368 0.0
N858 N 0.12402 0.73905 0.77428 0.0
N859 N 0.16142 0.78449 0.74208 0.0
H860 H 0.33168 0.68877 0.81674 0.0
H861 H 0.38673 0.78992 0.67302 0.0
H862 H 0.40949 0.69641 0.75639 0.0
H863 H 0.31227 0.78557 0.75719 0.0
H864 H 0.39531 0.75562 0.70427 0.0
H865 H 0.32439 0.7244 0.79962 0.0
C866 C 0.34735 0.69801 0.80111 0.0
C867 C 0.37114 0.68956 0.78736 0.0
C868 C 0.37711 0.76217 0.71609 0.0
C869 C 0.36282 0.73019 0.76632 0.0
C870 C 0.37215 0.78175 0.69792 0.0
C871 C 0.34871 0.79064 0.71226 0.0
C872 C 0.35845 0.75131 0.74855 0.0
C873 C 0.3306 0.77932 0.74499 0.0
C874 C 0.34313 0.7183 0.79077 0.0
C875 C 0.39071 0.70222 0.76657 0.0
N876 N 0.3358 0.76023 0.76181 0.0
N877 N 0.38604 0.72181 0.75609 0.0
H878 H 0.16383 0.30399 0.3446 0.0
H879 H 0.10134 0.21165 0.16381 0.0
H880 H 0.09508 0.30872 0.23535 0.0
H881 H 0.16559 0.20669 0.28827 0.0
H882 H 0.09796 0.24707 0.1906 0.0
H883 H 0.16337 0.26798 0.32859 0.0
C884 C 0.14834 0.29745 0.31832 0.0
C885 C 0.1296 0.30951 0.29093 0.0
C886 C 0.11274 0.23817 0.21214 0.0
C887 C 0.1293 0.2682 0.27087 0.0
C888 C 0.11473 0.21797 0.19662 0.0
C889 C 0.13381 0.20613 0.22357 0.0
C890 C 0.13002 0.24662 0.25475 0.0
C891 C 0.15057 0.21516 0.2661 0.0
C892 C 0.14823 0.27686 0.30856 0.0
C893 C 0.11019 0.30009 0.25654 0.0
N894 N 0.14833 0.23478 0.28013 0.0
N895 N 0.11069 0.28009 0.24699 0.0
H896 H 0.08724 0.94207 0.08284 0.0
H897 H 0.14978 0.04133 0.94185 0.0
H898 H 0.15009 0.94127 0.95383 0.0
H899 H 0.09585 0.04099 0.09291 0.0
H900 H 0.14819 0.0049 0.93982 0.0
H901 H 0.0882 0.97837 0.08134 0.0
C902 C 0.10125 0.94951 0.05405 0.0
C903 C 0.11866 0.93852 0.01851 0.0
C904 C 0.13669 0.01281 0.97335 0.0
C905 C 0.11981 0.98032 0.01649 0.0
C906 C 0.13752 0.03363 0.97444 0.0
C907 C 0.12294 0.04431 0.0177 0.0
C908 C 0.12103 1.00251 0.01552 0.0
C909 C 0.10747 0.03345 0.05883 0.0
C910 C 0.1018 0.97029 0.05332 0.0
C911 C 0.13635 0.94909 0.98214 0.0
N912 N 0.10691 0.01322 0.05666 0.0
N913 N 0.13645 0.96937 0.98201 0.0
H914 H 0.41813 0.95308 0.46692 0.0
H915 H 0.3458 0.05789 0.44083 0.0
H916 H 0.33615 0.95857 0.465 0.0
H917 H 0.42584 0.05238 0.48431 0.0
H918 H 0.3423 0.02153 0.44 0.0
H919 H 0.42168 0.98938 0.46472 0.0
C920 C 0.40086 0.96189 0.46606 0.0
C921 C 0.3768 0.95269 0.46627 0.0
C922 C 0.36063 0.02829 0.44963 0.0
C923 C 0.38074 0.99439 0.46324 0.0
C924 C 0.36267 0.04906 0.44985 0.0
C925 C 0.38614 0.05827 0.46283 0.0
C926 C 0.38225 0.01656 0.46192 0.0
C927 C 0.40733 0.046 0.4743 0.0
C928 C 0.40291 0.98265 0.46486 0.0
C929 C 0.35511 0.96496 0.46515 0.0
N930 N 0.40489 0.02583 0.47351 0.0
N931 N 0.3576 0.98513 0.46346 0.0
H932 H 0.82608 0.952 0.03485 0.0
H933 H 0.90257 0.05283 0.09912 0.0
H934 H 0.90002 0.953 0.1232 0.0
H935 H 0.83907 0.04835 0.97219 0.0
H936 H 0.90055 0.01678 0.11554 0.0
H937 H 0.82882 0.9879 0.01971 0.0
C938 C 0.84286 0.95977 0.05137 0.0
C939 C 0.86287 0.94944 0.0803 0.0
C940 C 0.88714 0.02371 0.08395 0.0
C941 C 0.86613 0.99066 0.06294 0.0
C942 C 0.88826 0.04427 0.07457 0.0
C943 C 0.87097 0.05363 0.03418 0.0
C944 C 0.8684 0.01246 0.05326 0.0
C945 C 0.85284 0.04179 0.0036 0.0
C946 C 0.84446 0.98028 0.04242 0.0
C947 C 0.88417 0.96035 0.10056 0.0
N948 N 0.85196 0.02187 0.01402 0.0
N949 N 0.88522 0.98038 0.09159 0.0
H950 H 0.65683 0.9475 0.56528 0.0
H951 H 0.61012 0.05276 0.4327 0.0
H952 H 0.59272 0.95463 0.44132 0.0
H953 H 0.66811 0.04668 0.57387 0.0
H954 H 0.60427 0.01674 0.43354 0.0
H955 H 0.662 0.98366 0.56757 0.0
C956 C 0.64382 0.95666 0.53859 0.0
C957 C 0.62434 0.948 0.50292 0.0
C958 C 0.61825 0.02326 0.46445 0.0
C959 C 0.63021 0.98942 0.50521 0.0
C960 C 0.62164 0.04386 0.46392 0.0
C961 C 0.63967 0.05278 0.50322 0.0
C962 C 0.63308 0.01142 0.50435 0.0
C963 C 0.65398 0.04046 0.54278 0.0
C964 C 0.64677 0.97731 0.53999 0.0
C965 C 0.60801 0.96063 0.46944 0.0
N966 N 0.65043 0.02041 0.5422 0.0
N967 N 0.61137 0.98067 0.47124 0.0
H968 H 0.63663 0.46774 0.86467 0.0
H969 H 0.5965 0.56151 0.07047 0.0
H970 H 0.61567 0.46444 0.05805 0.0
H971 H 0.62892 0.56762 0.88742 0.0
H972 H 0.59869 0.52555 0.06075 0.0
H973 H 0.62989 0.50377 0.86715 0.0
C974 C 0.63052 0.47456 0.90762 0.0
C975 C 0.62679 0.46302 0.96137 0.0
C976 C 0.60524 0.53468 0.02246 0.0
C977 C 0.61894 0.50427 0.96428 0.0
C978 C 0.60395 0.55528 0.02787 0.0
C979 C 0.61279 0.56765 0.97988 0.0
C980 C 0.61549 0.52619 0.96862 0.0
C981 C 0.62195 0.55865 0.9256 0.0
C982 C 0.62671 0.49515 0.90893 0.0
C983 C 0.61888 0.4727 0.01558 0.0
N984 N 0.62324 0.53843 0.92158 0.0
N985 N 0.61524 0.49272 0.01561 0.0
H986 H 0.84823 0.47161 0.60556 0.0
H987 H 0.86696 0.55818 0.35342 0.0
H988 H 0.86433 0.4609 0.41209 0.0
H989 H 0.84753 0.56912 0.54494 0.0
H990 H 0.86704 0.52252 0.37479 0.0
H991 H 0.84921 0.50738 0.58519 0.0
C992 C 0.85208 0.47677 0.55884 0.0
C993 C 0.85616 0.46321 0.51043 0.0
C994 C 0.86274 0.53271 0.41217 0.0
C995 C 0.85722 0.50418 0.48676 0.0
C996 C 0.86266 0.5531 0.39999 0.0
C997 C 0.8572 0.5667 0.44745 0.0
C998 C 0.85735 0.52579 0.47232 0.0
C999 C 0.85181 0.5592 0.50689 0.0
C1000 C 0.85258 0.49721 0.54722 0.0
C1001 C 0.86104 0.47078 0.45083 0.0
N1002 N 0.85204 0.53926 0.51763 0.0
N1003 N 0.86139 0.49074 0.44069 0.0
H1004 H 0.4209 0.54154 0.9534 0.0
H1005 H 0.34517 0.44766 0.09251 0.0
H1006 H 0.35276 0.5472 0.06401 0.0
H1007 H 0.40513 0.44335 0.95628 0.0
H1008 H 0.35038 0.48394 0.09235 0.0
H1009 H 0.41815 0.50543 0.96392 0.0
C1010 C 0.40542 0.53522 0.98026 0.0
C1011 C 0.38695 0.5475 0.00755 0.0
C1012 C 0.36246 0.47503 0.06273 0.0
C1013 C 0.38367 0.50596 0.01976 0.0
C1014 C 0.35955 0.4543 0.06295 0.0
C1015 C 0.37465 0.4424 0.02414 0.0
C1016 C 0.38072 0.48393 0.02376 0.0
C1017 C 0.39295 0.45188 0.98673 0.0
C1018 C 0.40383 0.51455 0.98612 0.0
C1019 C 0.36737 0.53836 0.04191 0.0
N1020 N 0.39543 0.47201 0.98744 0.0
N1021 N 0.36621 0.51817 0.0469 0.0
H1022 H 0.15986 0.46245 0.44155 0.0
H1023 H 0.1073 0.56331 0.59273 0.0
H1024 H 0.11009 0.4647 0.60065 0.0
H1025 H 0.16747 0.5629 0.45635 0.0
H1026 H 0.10623 0.5271 0.59015 0.0
H1027 H 0.16097 0.499 0.44002 0.0
C1028 C 0.14907 0.47059 0.47594 0.0
C1029 C 0.13487 0.46042 0.52135 0.0
C1030 C 0.11973 0.53487 0.56077 0.0
C1031 C 0.13607 0.50226 0.51981 0.0
C1032 C 0.12034 0.55562 0.56216 0.0
C1033 C 0.13757 0.56626 0.52483 0.0
C1034 C 0.13635 0.52446 0.52144 0.0
C1035 C 0.15395 0.55534 0.48614 0.0
C1036 C 0.1498 0.49146 0.47516 0.0
C1037 C 0.12136 0.47181 0.56484 0.0
N1038 N 0.15291 0.53505 0.48534 0.0
N1039 N 0.12227 0.49201 0.5629 0.0
H1040 H 0.20018 0.09024 0.141 0.0
H1041 H 0.29341 0.14885 0.3712 0.0
H1042 H 0.19287 0.15306 0.17766 0.0
H1043 H 0.31128 0.09265 0.28544 0.0
H1044 H 0.25176 0.14847 0.31875 0.0
H1045 H 0.23618 0.08883 0.21265 0.0
C1046 C 0.20601 0.10372 0.16452 0.0
C1047 C 0.19363 0.12183 0.15303 0.0
C1048 C 0.26476 0.13616 0.31204 0.0
C1049 C 0.23486 0.12031 0.23507 0.0
C1050 C 0.28841 0.13632 0.34212 0.0
C1051 C 0.30583 0.12084 0.33215 0.0
C1052 C 0.2585 0.12028 0.27259 0.0
C1053 C 0.29852 0.105 0.29385 0.0
C1054 C 0.22657 0.1029 0.20542 0.0
C1055 C 0.2019 0.13879 0.18521 0.0
N1056 N 0.27545 0.10515 0.26537 0.0
N1057 N 0.22214 0.13765 0.22461 0.0
H1058 H 0.29114 0.84411 0.63568 0.0
H1059 H 0.19099 0.91092 0.81537 0.0
H1060 H 0.29108 0.90816 0.62652 0.0
H1061 H 0.2072 0.85056 0.87095 0.0
H1062 H 0.22726 0.90995 0.74468 0.0
H1063 H 0.25971 0.8456 0.72003 0.0
C1064 C 0.28465 0.85846 0.65199 0.0
C1065 C 0.29392 0.87605 0.62515 0.0
C1066 C 0.22313 0.89698 0.77284 0.0
C1067 C 0.25776 0.87789 0.71997 0.0
C1068 C 0.20243 0.89753 0.81316 0.0
C1069 C 0.19612 0.88079 0.84889 0.0
C1070 C 0.23738 0.87943 0.76724 0.0
C1071 C 0.21156 0.86382 0.8444 0.0
C1072 C 0.2668 0.85932 0.70001 0.0
C1073 C 0.28454 0.89428 0.64654 0.0
N1074 N 0.23132 0.86347 0.80353 0.0
N1075 N 0.26692 0.89473 0.69261 0.0
H1076 H 0.70725 0.85774 0.633 0.0
H1077 H 0.77956 0.90583 0.9236 0.0
H1078 H 0.69008 0.91535 0.7101 0.0
H1079 H 0.79843 0.84812 0.84963 0.0
H1080 H 0.74898 0.91047 0.83951 0.0
H1081 H 0.74366 0.85506 0.70428 0.0
C1082 C 0.71143 0.86997 0.66404 0.0
C1083 C 0.69552 0.88671 0.6661 0.0
C1084 C 0.75987 0.89681 0.84135 0.0
C1085 C 0.73674 0.88366 0.748 0.0
C1086 C 0.77725 0.89412 0.88961 0.0
C1087 C 0.79151 0.87656 0.8936 0.0
C1088 C 0.75648 0.88174 0.79699 0.0
C1089 C 0.78784 0.86193 0.84805 0.0
C1090 C 0.73207 0.86838 0.70499 0.0
C1091 C 0.70168 0.90207 0.70745 0.0
N1092 N 0.7706 0.8648 0.8017 0.0
N1093 N 0.72163 0.9001 0.74702 0.0
H1094 H 0.71614 0.09816 0.37618 0.0
H1095 H 0.79108 0.163 0.12369 0.0
H1096 H 0.7248 0.16184 0.38761 0.0
H1097 H 0.7961 0.09906 0.13465 0.0
H1098 H 0.76344 0.16284 0.21511 0.0
H1099 H 0.74284 0.09811 0.28312 0.0
C1100 C 0.72372 0.11212 0.35903 0.0
C1101 C 0.71804 0.13008 0.38875 0.0
C1102 C 0.77062 0.14885 0.1976 0.0
C1103 C 0.74854 0.13014 0.28288 0.0
C1104 C 0.78633 0.14894 0.14548 0.0
C1105 C 0.79615 0.13106 0.12249 0.0
C1106 C 0.76453 0.13071 0.22643 0.0
C1107 C 0.7891 0.11319 0.15145 0.0
C1108 C 0.73891 0.11209 0.30598 0.0
C1109 C 0.7285 0.14773 0.36525 0.0
N1110 N 0.77379 0.11347 0.20223 0.0
N1111 N 0.74316 0.14735 0.31339 0.0
H1112 H 0.76953 0.63687 0.40287 0.0
H1113 H 0.6998 0.65645 0.08167 0.0
H1114 H 0.80944 0.63414 0.22806 0.0
H1115 H 0.66909 0.61354 0.21035 0.0
H1116 H 0.73747 0.65991 0.14875 0.0
H1117 H 0.72892 0.63968 0.34523 0.0
C1118 C 0.76975 0.63711 0.35261 0.0
C1119 C 0.79272 0.63514 0.32001 0.0
C1120 C 0.72201 0.65022 0.16296 0.0
C1121 C 0.74708 0.63904 0.25491 0.0
C1122 C 0.70064 0.6482 0.12489 0.0
C1123 C 0.68093 0.63517 0.14182 0.0
C1124 C 0.72343 0.63931 0.2184 0.0
C1125 C 0.68312 0.6246 0.19772 0.0
C1126 C 0.74673 0.63871 0.32003 0.0
C1127 C 0.79211 0.63551 0.25491 0.0
N1128 N 0.70402 0.6269 0.23429 0.0
N1129 N 0.76965 0.63754 0.22444 0.0
H1130 H 0.79018 0.41722 0.64068 0.0
H1131 H 0.69184 0.35442 0.84815 0.0
H1132 H 0.78909 0.35312 0.64652 0.0
H1133 H 0.70077 0.41802 0.86106 0.0
H1134 H 0.72582 0.35361 0.77008 0.0
H1135 H 0.7562 0.41785 0.71832 0.0
C1136 C 0.78288 0.40327 0.65866 0.0
C1137 C 0.79262 0.38508 0.63773 0.0
C1138 C 0.7203 0.36776 0.7898 0.0
C1139 C 0.75347 0.38566 0.72591 0.0
C1140 C 0.70081 0.36822 0.83398 0.0
C1141 C 0.6933 0.38634 0.86028 0.0
C1142 C 0.73243 0.38555 0.77209 0.0
C1143 C 0.70585 0.40376 0.84142 0.0
C1144 C 0.76347 0.40363 0.70295 0.0
C1145 C 0.78235 0.36746 0.66219 0.0
N1146 N 0.72474 0.40294 0.79836 0.0
N1147 N 0.76328 0.36817 0.70488 0.0
H1148 H 0.19346 0.34815 0.66097 0.0
H1149 H 0.29189 0.40444 0.88616 0.0
H1150 H 0.20875 0.41104 0.64977 0.0
H1151 H 0.2818 0.3408 0.88318 0.0
H1152 H 0.26021 0.40752 0.80273 0.0
H1153 H 0.22457 0.34538 0.74549 0.0
C1154 C 0.20325 0.3614 0.67683 0.0
C1155 C 0.19823 0.3799 0.64937 0.0
C1156 C 0.26496 0.39288 0.82025 0.0
C1157 C 0.23415 0.37688 0.74522 0.0
C1158 C 0.28298 0.39113 0.86793 0.0
C1159 C 0.28966 0.37231 0.89096 0.0
C1160 C 0.25332 0.3757 0.79607 0.0
C1161 C 0.27742 0.35557 0.86609 0.0
C1162 C 0.22109 0.35982 0.72479 0.0
C1163 C 0.21189 0.39654 0.67033 0.0
N1164 N 0.25989 0.35764 0.82 0.0
N1165 N 0.22913 0.39466 0.71723 0.0
H1166 H 0.33818 0.61541 0.23205 0.0
H1167 H 0.19521 0.62695 0.25741 0.0
H1168 H 0.29878 0.64923 0.09203 0.0
H1169 H 0.23862 0.63936 0.42315 0.0
H1170 H 0.23341 0.63213 0.19535 0.0
H1171 H 0.30357 0.62207 0.30493 0.0
C1172 C 0.32306 0.62535 0.21808 0.0
C1173 C 0.32199 0.63277 0.15737 0.0
C1174 C 0.2345 0.63397 0.24523 0.0
C1175 C 0.28125 0.6387 0.2379 0.0
C1176 C 0.2128 0.63084 0.28077 0.0
C1177 C 0.21383 0.63269 0.3455 0.0
C1178 C 0.25765 0.63827 0.2747 0.0
C1179 C 0.23713 0.63781 0.37328 0.0
C1180 C 0.30301 0.62872 0.2591 0.0
C1181 C 0.30046 0.6436 0.13899 0.0
N1182 N 0.25841 0.64002 0.33771 0.0
N1183 N 0.28066 0.64596 0.17883 0.0
H1184 H 0.10093 0.13765 0.65836 0.0
H1185 H 0.17254 0.11926 0.34149 0.0
H1186 H 0.17978 0.12001 0.65006 0.0
H1187 H 0.09082 0.12455 0.35638 0.0
H1188 H 0.17521 0.11552 0.45448 0.0
H1189 H 0.09594 0.12882 0.54905 0.0
C1190 C 0.11701 0.13143 0.63358 0.0
C1191 C 0.14076 0.1295 0.6627 0.0
C1192 C 0.15665 0.11714 0.43296 0.0
C1193 C 0.13556 0.11997 0.53741 0.0
C1194 C 0.15514 0.11928 0.36853 0.0
C1195 C 0.13146 0.12247 0.33995 0.0
C1196 C 0.13433 0.11844 0.4688 0.0
C1197 C 0.10948 0.12231 0.37682 0.0
C1198 C 0.11423 0.12645 0.57121 0.0
C1199 C 0.16114 0.12157 0.62892 0.0
N1200 N 0.11147 0.12064 0.43944 0.0
N1201 N 0.15821 0.11741 0.56756 0.0
H1202 H 0.3867 0.86251 0.11896 0.0
H1203 H 0.30377 0.87337 0.82523 0.0
H1204 H 0.30672 0.87626 0.13446 0.0
H1205 H 0.38375 0.88855 0.82507 0.0
H1206 H 0.30317 0.87729 0.93815 0.0
H1207 H 0.38593 0.87396 0.01112 0.0
C1208 C 0.36908 0.86817 0.09947 0.0
C1209 C 0.34669 0.86832 0.13454 0.0
C1210 C 0.32067 0.88029 0.91317 0.0
C1211 C 0.34547 0.88118 0.01208 0.0
C1212 C 0.32101 0.87804 0.84891 0.0
C1213 C 0.34399 0.88016 0.81659 0.0
C1214 C 0.34358 0.88428 0.94463 0.0
C1215 C 0.36576 0.88641 0.84881 0.0
C1216 C 0.36863 0.87485 0.03837 0.0
C1217 C 0.32428 0.87589 0.10813 0.0
N1218 N 0.3652 0.88778 0.91149 0.0
N1219 N 0.32408 0.88168 0.04775 0.0
H1220 H 0.07288 0.8659 0.64195 0.0
H1221 H 0.15142 0.87885 0.32643 0.0
H1222 H 0.14417 0.89768 0.62983 0.0
H1223 H 0.08284 0.8439 0.34433 0.0
H1224 H 0.14508 0.89124 0.43237 0.0
H1225 H 0.07234 0.86288 0.52888 0.0
C1226 C 0.08824 0.8725 0.61532 0.0
C1227 C 0.1087 0.88191 0.64519 0.0
C1228 C 0.13117 0.88113 0.41272 0.0
C1229 C 0.10843 0.87832 0.51573 0.0
C1230 C 0.13467 0.87421 0.35209 0.0
C1231 C 0.11773 0.86021 0.3269 0.0
C1232 C 0.11057 0.874 0.44821 0.0
C1233 C 0.09649 0.85452 0.36235 0.0
C1234 C 0.08797 0.87074 0.55075 0.0
C1235 C 0.12809 0.89023 0.60852 0.0
N1236 N 0.09367 0.86125 0.42132 0.0
N1237 N 0.12764 0.88805 0.54573 0.0
H1238 H 0.43656 0.14281 0.80989 0.0
H1239 H 0.36854 0.09513 0.10726 0.0
H1240 H 0.36187 0.11599 0.80368 0.0
H1241 H 0.43248 0.13545 0.11437 0.0
H1242 H 0.37115 0.09533 0.99342 0.0
H1243 H 0.4409 0.13219 0.91791 0.0
C1244 C 0.4213 0.13428 0.83096 0.0
C1245 C 0.39868 0.13052 0.79811 0.0
C1246 C 0.38482 0.10389 0.02 0.0
C1247 C 0.40335 0.11853 0.92202 0.0
C1248 C 0.38339 0.10374 0.08485 0.0
C1249 C 0.4002 0.11543 0.12001 0.0
C1250 C 0.40334 0.11567 0.9904 0.0
C1251 C 0.41904 0.12635 0.08887 0.0
C1252 C 0.42373 0.1283 0.89268 0.0
C1253 C 0.37962 0.11921 0.82736 0.0
N1254 N 0.42001 0.12629 0.02586 0.0
N1255 N 0.3822 0.11388 0.88808 0.0
H1256 H 0.80487 0.87881 0.39603 0.0
H1257 H 0.89419 0.8945 0.69255 0.0
H1258 H 0.88225 0.85776 0.41109 0.0
H1259 H 0.81217 0.89118 0.70492 0.0
H1260 H 0.89098 0.89202 0.57969 0.0
H1261 H 0.80855 0.89329 0.50043 0.0
C1262 C 0.82274 0.87756 0.42104 0.0
C1263 C 0.84325 0.867 0.39562 0.0
C1264 C 0.87367 0.89227 0.60705 0.0
C1265 C 0.84768 0.88362 0.51362 0.0
C1266 C 0.87546 0.89384 0.67136 0.0
C1267 C 0.85342 0.89275 0.70794 0.0
C1268 C 0.84968 0.8897 0.5793 0.0
C1269 C 0.82963 0.89193 0.6782 0.0
C1270 C 0.8248 0.88575 0.48036 0.0
C1271 C 0.86597 0.86565 0.4296 0.0
N1272 N 0.82837 0.89012 0.61541 0.0
N1273 N 0.86757 0.87383 0.48699 0.0
H1274 H 0.70304 0.13315 0.88017 0.0
H1275 H 0.62771 0.12382 0.20256 0.0
H1276 H 0.62138 0.13754 0.89593 0.0
H1277 H 0.7059 0.14328 0.18911 0.0
H1278 H 0.62681 0.11919 0.08963 0.0
H1279 H 0.70576 0.12715 0.99271 0.0
C1280 C 0.68566 0.13221 0.90715 0.0
C1281 C 0.66195 0.1357 0.87907 0.0
C1282 C 0.64427 0.12418 0.11157 0.0
C1283 C 0.66486 0.12911 0.0072 0.0
C1284 C 0.64484 0.12672 0.17596 0.0
C1285 C 0.66684 0.13411 0.20497 0.0
C1286 C 0.66597 0.12881 0.07613 0.0
C1287 C 0.68849 0.13769 0.16837 0.0
C1288 C 0.68722 0.129 0.97126 0.0
C1289 C 0.63999 0.13478 0.91604 0.0
N1290 N 0.68748 0.13512 0.10577 0.0
N1291 N 0.64197 0.13166 0.97826 0.0
H1292 H 0.89313 0.13291 0.62133 0.0
H1293 H 0.80667 0.14183 0.32391 0.0
H1294 H 0.81116 0.13317 0.63196 0.0
H1295 H 0.8841 0.12057 0.3148 0.0
H1296 H 0.80715 0.13674 0.43645 0.0
H1297 H 0.89019 0.12622 0.50965 0.0
C1298 C 0.87454 0.13095 0.60023 0.0
C1299 C 0.85236 0.13332 0.63555 0.0
C1300 C 0.82391 0.13285 0.40981 0.0
C1301 C 0.84873 0.12647 0.50787 0.0
C1302 C 0.82362 0.13575 0.34558 0.0
C1303 C 0.84544 0.13173 0.31025 0.0
C1304 C 0.84638 0.1263 0.43906 0.0
C1305 C 0.8669 0.12388 0.34049 0.0
C1306 C 0.87282 0.12723 0.53656 0.0
C1307 C 0.82866 0.13114 0.60615 0.0
N1308 N 0.867 0.12176 0.40333 0.0
N1309 N 0.82744 0.12817 0.54376 0.0
H1310 H 0.59509 0.85347 0.86217 0.0
H1311 H 0.6067 0.89065 0.20427 0.0
H1312 H 0.6188 0.91454 0.88329 0.0
H1313 H 0.64573 0.83826 0.13893 0.0
H1314 H 0.60068 0.90119 0.09505 0.0
H1315 H 0.60052 0.8485 0.9737 0.0
C1316 C 0.60098 0.86596 0.89045 0.0
C1317 C 0.60665 0.88442 0.86344 0.0
C1318 C 0.61071 0.88749 0.10527 0.0
C1319 C 0.6127 0.87881 0.9912 0.0
C1320 C 0.61425 0.88152 0.16731 0.0
C1321 C 0.62613 0.86326 0.18085 0.0
C1322 C 0.61876 0.87493 0.05717 0.0
C1323 C 0.63562 0.85206 0.13096 0.0
C1324 C 0.6042 0.86306 0.95396 0.0
C1325 C 0.61433 0.90006 0.90248 0.0
N1326 N 0.63129 0.85786 0.07162 0.0
N1327 N 0.61718 0.89692 0.96477 0.0
H1328 H 0.57623 0.66139 0.64839 0.0
H1329 H 0.65129 0.61137 0.38353 0.0
H1330 H 0.64831 0.63267 0.68262 0.0
H1331 H 0.56971 0.61915 0.37561 0.0
H1332 H 0.64952 0.61429 0.4965 0.0
H1333 H 0.57161 0.64223 0.55278 0.0
C1334 C 0.59082 0.6507 0.63608 0.0
C1335 C 0.61276 0.64863 0.67251 0.0
C1336 C 0.6319 0.61479 0.47027 0.0
C1337 C 0.60802 0.62704 0.56306 0.0
C1338 C 0.63292 0.61309 0.40582 0.0
C1339 C 0.61069 0.61548 0.37047 0.0
C1340 C 0.60856 0.61931 0.49892 0.0
C1341 C 0.58735 0.61756 0.40134 0.0
C1342 C 0.58818 0.63971 0.58179 0.0
C1343 C 0.63117 0.63463 0.65522 0.0
N1344 N 0.58696 0.61994 0.46383 0.0
N1345 N 0.62867 0.62465 0.6008 0.0
H1346 H 0.80802 0.37636 0.84459 0.0
H1347 H 0.89736 0.37717 0.13903 0.0
H1348 H 0.88755 0.39237 0.83444 0.0
H1349 H 0.81567 0.38142 0.15408 0.0
H1350 H 0.89415 0.3849 0.02811 0.0
H1351 H 0.80975 0.38013 0.95769 0.0
C1352 C 0.82573 0.38102 0.86614 0.0
C1353 C 0.84773 0.38393 0.83027 0.0
C1354 C 0.87694 0.38461 0.05579 0.0
C1355 C 0.84999 0.3879 0.9596 0.0
C1356 C 0.87881 0.3803 0.1191 0.0
C1357 C 0.85677 0.37884 0.15559 0.0
C1358 C 0.85277 0.38694 0.02837 0.0
C1359 C 0.83312 0.38266 0.12751 0.0
C1360 C 0.82671 0.38317 0.93068 0.0
C1361 C 0.87016 0.38995 0.86044 0.0
N1362 N 0.83168 0.38618 0.06531 0.0
N1363 N 0.87084 0.3914 0.92341 0.0
H1364 H 0.59137 0.38707 0.66309 0.0
H1365 H 0.66893 0.39056 0.34406 0.0
H1366 H 0.67352 0.3865 0.65313 0.0
H1367 H 0.59047 0.37224 0.36066 0.0
H1368 H 0.66919 0.39906 0.45493 0.0
H1369 H 0.58946 0.39166 0.55059 0.0
C1370 C 0.60902 0.3883 0.63729 0.0
C1371 C 0.63263 0.38614 0.66714 0.0
C1372 C 0.65176 0.39362 0.43393 0.0
C1373 C 0.63059 0.39128 0.53852 0.0
C1374 C 0.65154 0.38896 0.37071 0.0
C1375 C 0.62964 0.3807 0.34361 0.0
C1376 C 0.62985 0.3901 0.46982 0.0
C1377 C 0.6077 0.37857 0.3801 0.0
C1378 C 0.60792 0.39085 0.5731 0.0
C1379 C 0.65492 0.38793 0.63164 0.0
N1380 N 0.60842 0.38308 0.44148 0.0
N1381 N 0.65337 0.39017 0.56895 0.0
H1382 H 0.91913 0.64627 0.11391 0.0
H1383 H 0.84389 0.63094 0.79824 0.0
H1384 H 0.85106 0.61046 0.10147 0.0
H1385 H 0.91959 0.6558 0.80895 0.0
H1386 H 0.84796 0.61971 0.90622 0.0
H1387 H 0.92141 0.6471 1.00062 0.0
C1388 C 0.90483 0.6384 0.08719 0.0
C1389 C 0.88479 0.62841 0.11687 0.0
C1390 C 0.86389 0.62725 0.88454 0.0
C1391 C 0.88701 0.62947 0.98716 0.0
C1392 C 0.86165 0.63349 0.82272 0.0
C1393 C 0.88132 0.64453 0.79497 0.0
C1394 C 0.88587 0.63225 0.91872 0.0
C1395 C 0.90383 0.6476 0.829 0.0
C1396 C 0.90613 0.63882 0.0225 0.0
C1397 C 0.86678 0.61838 0.0802 0.0
N1398 N 0.90532 0.64181 0.8893 0.0
N1399 N 0.8681 0.61939 0.01719 0.0
H1400 H 0.30189 0.32471 0.39082 0.0
H1401 H 0.2926 0.35005 0.69852 0.0
H1402 H 0.35469 0.37342 0.36999 0.0
H1403 H 0.36583 0.3778 0.67007 0.0
H1404 H 0.28611 0.34934 0.58632 0.0
H1405 H 0.29683 0.333 0.49975 0.0
C1406 C 0.31205 0.33744 0.40922 0.0
C1407 C 0.32885 0.34832 0.37162 0.0
C1408 C 0.30372 0.35546 0.60429 0.0
C1409 C 0.32285 0.35831 0.49676 0.0
C1410 C 0.30725 0.35609 0.66846 0.0
C1411 C 0.33 0.36361 0.69329 0.0
C1412 C 0.32335 0.36202 0.56468 0.0
C1413 C 0.34815 0.37165 0.65257 0.0
C1414 C 0.30893 0.34237 0.47148 0.0
C1415 C 0.34151 0.36471 0.39755 0.0
N1416 N 0.3446 0.37038 0.59013 0.0
N1417 N 0.33859 0.369 0.4589 0.0
H1418 H 0.08778 0.63831 0.14563 0.0
H1419 H 0.09125 0.65166 0.82813 0.0
H1420 H 0.15868 0.60653 0.1276 0.0
H1421 H 0.16961 0.63306 0.84107 0.0
H1422 H 0.08383 0.63931 0.93294 0.0
H1423 H 0.08598 0.64214 0.03373 0.0
C1424 C 0.1027 0.63172 0.11772 0.0
C1425 C 0.1234 0.62211 0.14591 0.0
C1426 C 0.10274 0.63792 0.91364 0.0
C1427 C 0.12152 0.62619 0.01633 0.0
C1428 C 0.1068 0.64467 0.85312 0.0
C1429 C 0.13105 0.64338 0.82622 0.0
C1430 C 0.12334 0.63035 0.9484 0.0
C1431 C 0.1506 0.63422 0.86025 0.0
C1432 C 0.10165 0.63379 0.05326 0.0
C1433 C 0.14234 0.61402 0.10763 0.0
N1434 N 0.14641 0.62832 0.91992 0.0
N1435 N 0.1411 0.61644 0.04491 0.0
H1436 H 0.36858 0.60706 0.66516 0.0
H1437 H 0.44294 0.63797 0.35973 0.0
H1438 H 0.43019 0.64968 0.66018 0.0
H1439 H 0.37082 0.60707 0.36469 0.0
H1440 H 0.44719 0.63299 0.472 0.0
H1441 H 0.37869 0.59742 0.55916 0.0
C1442 C 0.38469 0.61403 0.64236 0.0
C1443 C 0.39823 0.62952 0.6709 0.0
C1444 C 0.43072 0.62693 0.44822 0.0
C1445 C 0.40946 0.61887 0.54925 0.0
C1446 C 0.4283 0.62975 0.38434 0.0
C1447 C 0.40623 0.6233 0.35374 0.0
C1448 C 0.41091 0.61758 0.48106 0.0
C1449 C 0.3879 0.6126 0.38715 0.0
C1450 C 0.39033 0.6086 0.58168 0.0
C1451 C 0.41885 0.63805 0.63906 0.0
N1452 N 0.39047 0.61031 0.44933 0.0
N1453 N 0.42357 0.63287 0.57936 0.0
H1454 H 0.17176 0.38138 0.16581 0.0
H1455 H 0.09357 0.37802 0.84675 0.0
H1456 H 0.09324 0.36314 0.14947 0.0
H1457 H 0.17562 0.38159 0.85559 0.0
H1458 H 0.09175 0.38117 0.95961 0.0
H1459 H 0.17184 0.38999 0.05485 0.0
C1460 C 0.15435 0.37974 0.13917 0.0
C1461 C 0.13247 0.3715 0.16649 0.0
C1462 C 0.11015 0.38155 0.93688 0.0
C1463 C 0.13247 0.38106 0.04002 0.0
C1464 C 0.11119 0.37982 0.87243 0.0
C1465 C 0.13479 0.37933 0.84201 0.0
C1466 C 0.13288 0.38274 0.97126 0.0
C1467 C 0.15704 0.3818 0.87745 0.0
C1468 C 0.15446 0.38447 0.07586 0.0
C1469 C 0.11051 0.36938 0.12992 0.0
N1470 N 0.15557 0.38317 0.9404 0.0
N1471 N 0.11112 0.37397 0.06851 0.0
loop_
_geom_bond_atom_site_label_1
_geom_bond_atom_site_label_2
_geom_bond_distance
_geom_bond_site_symmetry_2
_ccdc_geom_bond_type
O0 Tb1 2.292 . S
O0 C3 1.255 . S
Tb1 O0 2.292 . S
Tb1 O17 2.326 . S
Tb1 O19 2.500 . S
Tb1 O20 2.473 . S
Tb1 O23 2.324 . S
Eu2 O6 2.292 1_554 S
Eu2 C7 2.852 1_554 S
Eu2 O18 2.324 . S
Eu2 O22 2.326 . S
Eu2 O24 2.500 1_554 S
Eu2 O25 2.473 1_554 S
C3 O0 1.255 . S
C3 O4 1.247 . S
O4 C3 1.247 . S
C5 O17 1.242 . S
C5 O18 1.258 . S
O6 Eu2 2.292 1_556 S
O6 C8 1.255 1_556 S
C7 Eu2 2.852 1_556 S
C7 C11 1.503 . S
C7 O24 1.273 . S
C7 O25 1.257 . S
C8 O6 1.255 1_554 S
C8 O9 1.247 . S
O9 C8 1.247 . S
C10 O22 1.242 . S
C10 O23 1.258 . S
C11 C7 1.503 . S
C11 C12 1.379 . S
C11 C16 1.392 . S
C12 C11 1.379 . S
C12 C13 1.404 . S
C12 H26 0.929 . S
C13 C12 1.404 . S
C13 C14 1.389 . S
C14 C13 1.389 . S
C14 C15 1.399 . S
C14 H27 0.931 . S
C15 C14 1.399 . S
C15 C16 1.390 . S
C16 C11 1.392 . S
C16 C15 1.390 . S
C16 H28 0.929 . S
O17 Tb1 2.326 . S
O17 C5 1.242 . S
O18 Eu2 2.324 . S
O18 C5 1.258 . S
O19 Tb1 2.500 . S
O19 C21 1.273 . S
O20 Tb1 2.473 . S
O20 C21 1.257 . S
C21 O19 1.273 . S
C21 O20 1.257 . S
O22 Eu2 2.326 . S
O22 C10 1.242 . S
O23 Tb1 2.324 . S
O23 C10 1.258 . S
O24 Eu2 2.500 1_556 S
O24 C7 1.273 . S
O25 Eu2 2.473 1_556 S
O25 C7 1.257 . S
H26 C12 0.929 . S
H27 C14 0.931 . S
H28 C16 0.929 . S
O29 Tb30 2.292 . S
O29 C32 1.255 . S
Tb30 O29 2.292 . S
Tb30 O46 2.326 . S
Tb30 O48 2.500 . S
Tb30 O49 2.473 . S
Tb30 O52 2.324 . S
Eu31 O35 2.292 . S
Eu31 C36 2.852 . S
Eu31 O47 2.324 . S
Eu31 O51 2.326 . S
Eu31 O53 2.500 . S
Eu31 O54 2.473 . S
C32 O29 1.255 . S
C32 O33 1.247 . S
O33 C32 1.247 . S
C34 O46 1.242 . S
C34 O47 1.258 . S
O35 Eu31 2.292 . S
O35 C37 1.255 . S
C36 Eu31 2.852 . S
C36 C40 1.503 . S
C36 O53 1.273 . S
C36 O54 1.257 . S
C37 O35 1.255 . S
C37 O38 1.247 . S
O38 C37 1.247 . S
C39 O51 1.242 . S
C39 O52 1.258 . S
C40 C36 1.503 . S
C40 C41 1.379 . S
C40 C45 1.392 . S
C41 C40 1.379 . S
C41 C42 1.404 . S
C41 H55 0.929 . S
C42 C41 1.404 . S
C42 C43 1.389 . S
C43 C42 1.389 . S
C43 C44 1.399 . S
C43 H56 0.931 . S
C44 C43 1.399 . S
C44 C45 1.390 . S
C45 C40 1.392 . S
C45 C44 1.390 . S
C45 H57 0.929 . S
O46 Tb30 2.326 . S
O46 C34 1.242 . S
O47 Eu31 2.324 . S
O47 C34 1.258 . S
O48 Tb30 2.500 . S
O48 C50 1.273 . S
O49 Tb30 2.473 . S
O49 C50 1.257 . S
C50 O48 1.273 . S
C50 O49 1.257 . S
O51 Eu31 2.326 . S
O51 C39 1.242 . S
O52 Tb30 2.324 . S
O52 C39 1.258 . S
O53 Eu31 2.500 . S
O53 C36 1.273 . S
O54 Eu31 2.473 . S
O54 C36 1.257 . S
H55 C41 0.929 . S
H56 C43 0.931 . S
H57 C45 0.929 . S
O58 Tb59 2.292 . S
O58 C61 1.255 . S
Tb59 O58 2.292 . S
Tb59 O75 2.326 . S
Tb59 O77 2.500 . S
Tb59 O78 2.473 . S
Tb59 O81 2.324 . S
Eu60 O64 2.292 1_556 S
Eu60 C65 2.852 1_556 S
Eu60 O76 2.324 . S
Eu60 O80 2.326 . S
Eu60 O82 2.500 1_556 S
Eu60 O83 2.473 1_556 S
C61 O58 1.255 . S
C61 O62 1.247 . S
O62 C61 1.247 . S
C63 O75 1.242 . S
C63 O76 1.258 . S
O64 Eu60 2.292 1_554 S
O64 C66 1.255 1_554 S
C65 Eu60 2.852 1_554 S
C65 C69 1.503 . S
C65 O82 1.273 . S
C65 O83 1.257 . S
C66 O64 1.255 1_556 S
C66 O67 1.247 . S
O67 C66 1.247 . S
C68 O80 1.242 . S
C68 O81 1.258 . S
C69 C65 1.503 . S
C69 C70 1.379 . S
C69 C74 1.392 . S
C70 C69 1.379 . S
C70 C71 1.404 . S
C70 H84 0.929 . S
C71 C70 1.404 . S
C71 C72 1.389 . S
C72 C71 1.389 . S
C72 C73 1.399 . S
C72 H85 0.931 . S
C73 C72 1.399 . S
C73 C74 1.390 . S
C74 C69 1.392 . S
C74 C73 1.390 . S
C74 H86 0.929 . S
O75 Tb59 2.326 . S
O75 C63 1.242 . S
O76 Eu60 2.324 . S
O76 C63 1.258 . S
O77 Tb59 2.500 . S
O77 C79 1.273 . S
O78 Tb59 2.473 . S
O78 C79 1.257 . S
C79 O77 1.273 . S
C79 O78 1.257 . S
O80 Eu60 2.326 . S
O80 C68 1.242 . S
O81 Tb59 2.324 . S
O81 C68 1.258 . S
O82 Eu60 2.500 1_554 S
O82 C65 1.273 . S
O83 Eu60 2.473 1_554 S
O83 C65 1.257 . S
H84 C70 0.929 . S
H85 C72 0.931 . S
H86 C74 0.929 . S
O87 Tb88 2.292 . S
O87 C90 1.255 . S
Tb88 O87 2.292 . S
Tb88 O104 2.326 . S
Tb88 O106 2.500 . S
Tb88 O107 2.473 . S
Tb88 O110 2.324 . S
Eu89 O93 2.292 . S
Eu89 C94 2.852 . S
Eu89 O105 2.324 . S
Eu89 O109 2.326 . S
Eu89 O111 2.500 . S
Eu89 O112 2.473 . S
C90 O87 1.255 . S
C90 O91 1.247 . S
O91 C90 1.247 . S
C92 O104 1.242 . S
C92 O105 1.258 . S
O93 Eu89 2.292 . S
O93 C95 1.255 . S
C94 Eu89 2.852 . S
C94 C98 1.503 . S
C94 O111 1.273 . S
C94 O112 1.257 . S
C95 O93 1.255 . S
C95 O96 1.247 . S
O96 C95 1.247 . S
C97 O109 1.242 . S
C97 O110 1.258 . S
C98 C94 1.503 . S
C98 C99 1.379 . S
C98 C103 1.392 . S
C99 C98 1.379 . S
C99 C100 1.404 . S
C99 H113 0.929 . S
C100 C99 1.404 . S
C100 C101 1.389 . S
C101 C100 1.389 . S
C101 C102 1.399 . S
C101 H114 0.931 . S
C102 C101 1.399 . S
C102 C103 1.390 . S
C103 C98 1.392 . S
C103 C102 1.390 . S
C103 H115 0.929 . S
O104 Tb88 2.326 . S
O104 C92 1.242 . S
O105 Eu89 2.324 . S
O105 C92 1.258 . S
O106 Tb88 2.500 . S
O106 C108 1.273 . S
O107 Tb88 2.473 . S
O107 C108 1.257 . S
C108 O106 1.273 . S
C108 O107 1.257 . S
O109 Eu89 2.326 . S
O109 C97 1.242 . S
O110 Tb88 2.324 . S
O110 C97 1.258 . S
O111 Eu89 2.500 . S
O111 C94 1.273 . S
O112 Eu89 2.473 . S
O112 C94 1.257 . S
H113 C99 0.929 . S
H114 C101 0.931 . S
H115 C103 0.929 . S
O116 Tb117 2.292 . S
O116 C119 1.255 . S
Tb117 O116 2.292 . S
Tb117 O133 2.326 . S
Tb117 O135 2.500 . S
Tb117 O136 2.473 . S
Tb117 O139 2.324 . S
Eu118 O122 2.292 1_556 S
Eu118 C123 2.852 1_556 S
Eu118 O134 2.324 . S
Eu118 O138 2.326 . S
Eu118 O140 2.500 1_556 S
Eu118 O141 2.473 1_556 S
C119 O116 1.255 . S
C119 O120 1.247 . S
O120 C119 1.247 . S
C121 O133 1.242 . S
C121 O134 1.258 . S
O122 Eu118 2.292 1_554 S
O122 C124 1.255 1_554 S
C123 Eu118 2.852 1_554 S
C123 C127 1.503 . S
C123 O140 1.273 . S
C123 O141 1.257 . S
C124 O122 1.255 1_556 S
C124 O125 1.247 . S
O125 C124 1.247 . S
C126 O138 1.242 . S
C126 O139 1.258 . S
C127 C123 1.503 . S
C127 C128 1.379 . S
C127 C132 1.392 . S
C128 C127 1.379 . S
C128 C129 1.404 . S
C128 H142 0.929 . S
C129 C128 1.404 . S
C129 C130 1.389 . S
C130 C129 1.389 . S
C130 C131 1.399 . S
C130 H143 0.931 . S
C131 C130 1.399 . S
C131 C132 1.390 . S
C132 C127 1.392 . S
C132 C131 1.390 . S
C132 H144 0.929 . S
O133 Tb117 2.326 . S
O133 C121 1.242 . S
O134 Eu118 2.324 . S
O134 C121 1.258 . S
O135 Tb117 2.500 . S
O135 C137 1.273 . S
O136 Tb117 2.473 . S
O136 C137 1.257 . S
C137 O135 1.273 . S
C137 O136 1.257 . S
O138 Eu118 2.326 . S
O138 C126 1.242 . S
O139 Tb117 2.324 . S
O139 C126 1.258 . S
O140 Eu118 2.500 1_554 S
O140 C123 1.273 . S
O141 Eu118 2.473 1_554 S
O141 C123 1.257 . S
H142 C128 0.929 . S
H143 C130 0.931 . S
H144 C132 0.929 . S
O145 Tb146 2.292 . S
O145 C148 1.255 . S
Tb146 O145 2.292 . S
Tb146 O162 2.326 . S
Tb146 O164 2.500 . S
Tb146 O165 2.473 . S
Tb146 O168 2.324 . S
Eu147 O151 2.292 . S
Eu147 C152 2.852 . S
Eu147 O163 2.324 . S
Eu147 O167 2.326 . S
Eu147 O169 2.500 . S
Eu147 O170 2.473 . S
C148 O145 1.255 . S
C148 O149 1.247 . S
O149 C148 1.247 . S
C150 O162 1.242 . S
C150 O163 1.258 . S
O151 Eu147 2.292 . S
O151 C153 1.255 . S
C152 Eu147 2.852 . S
C152 C156 1.503 . S
C152 O169 1.273 . S
C152 O170 1.257 . S
C153 O151 1.255 . S
C153 O154 1.247 . S
O154 C153 1.247 . S
C155 O167 1.242 . S
C155 O168 1.258 . S
C156 C152 1.503 . S
C156 C157 1.379 . S
C156 C161 1.392 . S
C157 C156 1.379 . S
C157 C158 1.404 . S
C157 H171 0.929 . S
C158 C157 1.404 . S
C158 C159 1.389 . S
C159 C158 1.389 . S
C159 C160 1.399 . S
C159 H172 0.931 . S
C160 C159 1.399 . S
C160 C161 1.390 . S
C161 C156 1.392 . S
C161 C160 1.390 . S
C161 H173 0.929 . S
O162 Tb146 2.326 . S
O162 C150 1.242 . S
O163 Eu147 2.324 . S
O163 C150 1.258 . S
O164 Tb146 2.500 . S
O164 C166 1.273 . S
O165 Tb146 2.473 . S
O165 C166 1.257 . S
C166 O164 1.273 . S
C166 O165 1.257 . S
O167 Eu147 2.326 . S
O167 C155 1.242 . S
O168 Tb146 2.324 . S
O168 C155 1.258 . S
O169 Eu147 2.500 . S
O169 C152 1.273 . S
O170 Eu147 2.473 . S
O170 C152 1.257 . S
H171 C157 0.929 . S
H172 C159 0.931 . S
H173 C161 0.929 . S
O174 Tb175 2.292 . S
O174 C177 1.255 . S
Tb175 O174 2.292 . S
Tb175 O191 2.326 . S
Tb175 O193 2.500 . S
Tb175 O194 2.473 . S
Tb175 O197 2.324 . S
Eu176 O180 2.292 1_554 S
Eu176 C181 2.852 1_554 S
Eu176 O192 2.324 . S
Eu176 O196 2.326 . S
Eu176 O198 2.500 1_554 S
Eu176 O199 2.473 1_554 S
C177 O174 1.255 . S
C177 O178 1.247 . S
O178 C177 1.247 . S
C179 O191 1.242 . S
C179 O192 1.258 . S
O180 Eu176 2.292 1_556 S
O180 C182 1.255 1_556 S
C181 Eu176 2.852 1_556 S
C181 C185 1.503 . S
C181 O198 1.273 . S
C181 O199 1.257 . S
C182 O180 1.255 1_554 S
C182 O183 1.247 . S
O183 C182 1.247 . S
C184 O196 1.242 . S
C184 O197 1.258 . S
C185 C181 1.503 . S
C185 C186 1.379 . S
C185 C190 1.392 . S
C186 C185 1.379 . S
C186 C187 1.404 . S
C186 H200 0.929 . S
C187 C186 1.404 . S
C187 C188 1.389 . S
C188 C187 1.389 . S
C188 C189 1.399 . S
C188 H201 0.931 . S
C189 C188 1.399 . S
C189 C190 1.390 . S
C190 C185 1.392 . S
C190 C189 1.390 . S
C190 H202 0.929 . S
O191 Tb175 2.326 . S
O191 C179 1.242 . S
O192 Eu176 2.324 . S
O192 C179 1.258 . S
O193 Tb175 2.500 . S
O193 C195 1.273 . S
O194 Tb175 2.473 . S
O194 C195 1.257 . S
C195 O193 1.273 . S
C195 O194 1.257 . S
O196 Eu176 2.326 . S
O196 C184 1.242 . S
O197 Tb175 2.324 . S
O197 C184 1.258 . S
O198 Eu176 2.500 1_556 S
O198 C181 1.273 . S
O199 Eu176 2.473 1_556 S
O199 C181 1.257 . S
H200 C186 0.929 . S
H201 C188 0.931 . S
H202 C190 0.929 . S
O203 Tb204 2.292 . S
O203 C206 1.255 . S
Tb204 O203 2.292 . S
Tb204 O220 2.326 . S
Tb204 O222 2.500 . S
Tb204 O223 2.473 . S
Tb204 O226 2.324 . S
Eu205 O209 2.292 . S
Eu205 C210 2.852 . S
Eu205 O221 2.324 . S
Eu205 O225 2.326 . S
Eu205 O227 2.500 . S
Eu205 O228 2.473 . S
C206 O203 1.255 . S
C206 O207 1.247 . S
O207 C206 1.247 . S
C208 O220 1.242 . S
C208 O221 1.258 . S
O209 Eu205 2.292 . S
O209 C211 1.255 . S
C210 Eu205 2.852 . S
C210 C214 1.503 . S
C210 O227 1.273 . S
C210 O228 1.257 . S
C211 O209 1.255 . S
C211 O212 1.247 . S
O212 C211 1.247 . S
C213 O225 1.242 . S
C213 O226 1.258 . S
C214 C210 1.503 . S
C214 C215 1.379 . S
C214 C219 1.392 . S
C215 C214 1.379 . S
C215 C216 1.404 . S
C215 H229 0.929 . S
C216 C215 1.404 . S
C216 C217 1.389 . S
C217 C216 1.389 . S
C217 C218 1.399 . S
C217 H230 0.931 . S
C218 C217 1.399 . S
C218 C219 1.390 . S
C219 C214 1.392 . S
C219 C218 1.390 . S
C219 H231 0.929 . S
O220 Tb204 2.326 . S
O220 C208 1.242 . S
O221 Eu205 2.324 . S
O221 C208 1.258 . S
O222 Tb204 2.500 . S
O222 C224 1.273 . S
O223 Tb204 2.473 . S
O223 C224 1.257 . S
C224 O222 1.273 . S
C224 O223 1.257 . S
O225 Eu205 2.326 . S
O225 C213 1.242 . S
O226 Tb204 2.324 . S
O226 C213 1.258 . S
O227 Eu205 2.500 . S
O227 C210 1.273 . S
O228 Eu205 2.473 . S
O228 C210 1.257 . S
H229 C215 0.929 . S
H230 C217 0.931 . S
H231 C219 0.929 . S
O232 Tb233 2.292 . S
O232 C235 1.255 . S
Tb233 O232 2.292 . S
Tb233 O249 2.326 . S
Tb233 O251 2.500 . S
Tb233 O252 2.473 . S
Tb233 O255 2.324 . S
Eu234 O238 2.292 1_554 S
Eu234 C239 2.852 1_554 S
Eu234 O250 2.324 . S
Eu234 O254 2.326 . S
Eu234 O256 2.500 1_554 S
Eu234 O257 2.473 1_554 S
C235 O232 1.255 . S
C235 O236 1.247 . S
O236 C235 1.247 . S
C237 O249 1.242 . S
C237 O250 1.258 . S
O238 Eu234 2.292 1_556 S
O238 C240 1.255 1_556 S
C239 Eu234 2.852 1_556 S
C239 C243 1.503 . S
C239 O256 1.273 . S
C239 O257 1.257 . S
C240 O238 1.255 1_554 S
C240 O241 1.247 . S
O241 C240 1.247 . S
C242 O254 1.242 . S
C242 O255 1.258 . S
C243 C239 1.503 . S
C243 C244 1.379 . S
C243 C248 1.392 . S
C244 C243 1.379 . S
C244 C245 1.404 . S
C244 H258 0.929 . S
C245 C244 1.404 . S
C245 C246 1.389 . S
C246 C245 1.389 . S
C246 C247 1.399 . S
C246 H259 0.931 . S
C247 C246 1.399 . S
C247 C248 1.390 . S
C248 C243 1.392 . S
C248 C247 1.390 . S
C248 H260 0.929 . S
O249 Tb233 2.326 . S
O249 C237 1.242 . S
O250 Eu234 2.324 . S
O250 C237 1.258 . S
O251 Tb233 2.500 . S
O251 C253 1.273 . S
O252 Tb233 2.473 . S
O252 C253 1.257 . S
C253 O251 1.273 . S
C253 O252 1.257 . S
O254 Eu234 2.326 . S
O254 C242 1.242 . S
O255 Tb233 2.324 . S
O255 C242 1.258 . S
O256 Eu234 2.500 1_556 S
O256 C239 1.273 . S
O257 Eu234 2.473 1_556 S
O257 C239 1.257 . S
H258 C244 0.929 . S
H259 C246 0.931 . S
H260 C248 0.929 . S
O261 Tb262 2.292 . S
O261 C264 1.255 . S
Tb262 O261 2.292 . S
Tb262 O278 2.326 . S
Tb262 O280 2.500 . S
Tb262 O281 2.473 . S
Tb262 O284 2.324 . S
Eu263 O267 2.292 . S
Eu263 C268 2.852 . S
Eu263 O279 2.324 . S
Eu263 O283 2.326 . S
Eu263 O285 2.500 . S
Eu263 O286 2.473 . S
C264 O261 1.255 . S
C264 O265 1.247 . S
O265 C264 1.247 . S
C266 O278 1.242 . S
C266 O279 1.258 . S
O267 Eu263 2.292 . S
O267 C269 1.255 . S
C268 Eu263 2.852 . S
C268 C272 1.503 . S
C268 O285 1.273 . S
C268 O286 1.257 . S
C269 O267 1.255 . S
C269 O270 1.247 . S
O270 C269 1.247 . S
C271 O283 1.242 . S
C271 O284 1.258 . S
C272 C268 1.503 . S
C272 C273 1.379 . S
C272 C277 1.392 . S
C273 C272 1.379 . S
C273 C274 1.404 . S
C273 H287 0.929 . S
C274 C273 1.404 . S
C274 C275 1.389 . S
C275 C274 1.389 . S
C275 C276 1.399 . S
C275 H288 0.931 . S
C276 C275 1.399 . S
C276 C277 1.390 . S
C277 C272 1.392 . S
C277 C276 1.390 . S
C277 H289 0.929 . S
O278 Tb262 2.326 . S
O278 C266 1.242 . S
O279 Eu263 2.324 . S
O279 C266 1.258 . S
O280 Tb262 2.500 . S
O280 C282 1.273 . S
O281 Tb262 2.473 . S
O281 C282 1.257 . S
C282 O280 1.273 . S
C282 O281 1.257 . S
O283 Eu263 2.326 . S
O283 C271 1.242 . S
O284 Tb262 2.324 . S
O284 C271 1.258 . S
O285 Eu263 2.500 . S
O285 C268 1.273 . S
O286 Eu263 2.473 . S
O286 C268 1.257 . S
H287 C273 0.929 . S
H288 C275 0.931 . S
H289 C277 0.929 . S
O290 Tb291 2.292 . S
O290 C293 1.255 . S
Tb291 O290 2.292 . S
Tb291 O307 2.326 . S
Tb291 O309 2.500 . S
Tb291 O310 2.473 . S
Tb291 O313 2.324 . S
Eu292 O296 2.292 1_556 S
Eu292 C297 2.852 1_556 S
Eu292 O308 2.324 . S
Eu292 O312 2.326 . S
Eu292 O314 2.500 1_556 S
Eu292 O315 2.473 1_556 S
C293 O290 1.255 . S
C293 O294 1.247 . S
O294 C293 1.247 . S
C295 O307 1.242 . S
C295 O308 1.258 . S
O296 Eu292 2.292 1_554 S
O296 C298 1.255 1_554 S
C297 Eu292 2.852 1_554 S
C297 C301 1.503 . S
C297 O314 1.273 . S
C297 O315 1.257 . S
C298 O296 1.255 1_556 S
C298 O299 1.247 . S
O299 C298 1.247 . S
C300 O312 1.242 . S
C300 O313 1.258 . S
C301 C297 1.503 . S
C301 C302 1.379 . S
C301 C306 1.392 . S
C302 C301 1.379 . S
C302 C303 1.404 . S
C302 H316 0.929 . S
C303 C302 1.404 . S
C303 C304 1.389 . S
C304 C303 1.389 . S
C304 C305 1.399 . S
C304 H317 0.931 . S
C305 C304 1.399 . S
C305 C306 1.390 . S
C306 C301 1.392 . S
C306 C305 1.390 . S
C306 H318 0.929 . S
O307 Tb291 2.326 . S
O307 C295 1.242 . S
O308 Eu292 2.324 . S
O308 C295 1.258 . S
O309 Tb291 2.500 . S
O309 C311 1.273 . S
O310 Tb291 2.473 . S
O310 C311 1.257 . S
C311 O309 1.273 . S
C311 O310 1.257 . S
O312 Eu292 2.326 . S
O312 C300 1.242 . S
O313 Tb291 2.324 . S
O313 C300 1.258 . S
O314 Eu292 2.500 1_554 S
O314 C297 1.273 . S
O315 Eu292 2.473 1_554 S
O315 C297 1.257 . S
H316 C302 0.929 . S
H317 C304 0.931 . S
H318 C306 0.929 . S
O319 Tb320 2.292 . S
O319 C322 1.255 . S
Tb320 O319 2.292 . S
Tb320 O336 2.326 . S
Tb320 O338 2.500 . S
Tb320 O339 2.473 . S
Tb320 O342 2.324 . S
Eu321 O325 2.292 . S
Eu321 C326 2.852 . S
Eu321 O337 2.324 . S
Eu321 O341 2.326 . S
Eu321 O343 2.500 . S
Eu321 O344 2.473 . S
C322 O319 1.255 . S
C322 O323 1.247 . S
O323 C322 1.247 . S
C324 O336 1.242 . S
C324 O337 1.258 . S
O325 Eu321 2.292 . S
O325 C327 1.255 . S
C326 Eu321 2.852 . S
C326 C330 1.503 . S
C326 O343 1.273 . S
C326 O344 1.257 . S
C327 O325 1.255 . S
C327 O328 1.247 . S
O328 C327 1.247 . S
C329 O341 1.242 . S
C329 O342 1.258 . S
C330 C326 1.503 . S
C330 C331 1.379 . S
C330 C335 1.392 . S
C331 C330 1.379 . S
C331 C332 1.404 . S
C331 H345 0.929 . S
C332 C331 1.404 . S
C332 C333 1.389 . S
C333 C332 1.389 . S
C333 C334 1.399 . S
C333 H346 0.931 . S
C334 C333 1.399 . S
C334 C335 1.390 . S
C335 C330 1.392 . S
C335 C334 1.390 . S
C335 H347 0.929 . S
O336 Tb320 2.326 . S
O336 C324 1.242 . S
O337 Eu321 2.324 . S
O337 C324 1.258 . S
O338 Tb320 2.500 . S
O338 C340 1.273 . S
O339 Tb320 2.473 . S
O339 C340 1.257 . S
C340 O338 1.273 . S
C340 O339 1.257 . S
O341 Eu321 2.326 . S
O341 C329 1.242 . S
O342 Tb320 2.324 . S
O342 C329 1.258 . S
O343 Eu321 2.500 . S
O343 C326 1.273 . S
O344 Eu321 2.473 . S
O344 C326 1.257 . S
H345 C331 0.929 . S
H346 C333 0.931 . S
H347 C335 0.929 . S
O348 Tb349 2.292 . S
O348 C351 1.255 . S
Tb349 O348 2.292 . S
Tb349 O365 2.326 . S
Tb349 O367 2.500 . S
Tb349 O368 2.473 . S
Tb349 O371 2.324 . S
Eu350 O354 2.292 1_556 S
Eu350 C355 2.852 1_556 S
Eu350 O366 2.324 . S
Eu350 O370 2.326 . S
Eu350 O372 2.500 1_556 S
Eu350 O373 2.473 1_556 S
C351 O348 1.255 . S
C351 O352 1.247 . S
O352 C351 1.247 . S
C353 O365 1.242 . S
C353 O366 1.258 . S
O354 Eu350 2.292 1_554 S
O354 C356 1.255 1_554 S
C355 Eu350 2.852 1_554 S
C355 C359 1.503 . S
C355 O372 1.273 . S
C355 O373 1.257 . S
C356 O354 1.255 1_556 S
C356 O357 1.247 . S
O357 C356 1.247 . S
C358 O370 1.242 . S
C358 O371 1.258 . S
C359 C355 1.503 . S
C359 C360 1.379 . S
C359 C364 1.392 . S
C360 C359 1.379 . S
C360 C361 1.404 . S
C360 H374 0.929 . S
C361 C360 1.404 . S
C361 C362 1.389 . S
C362 C361 1.389 . S
C362 C363 1.399 . S
C362 H375 0.931 . S
C363 C362 1.399 . S
C363 C364 1.390 . S
C364 C359 1.392 . S
C364 C363 1.390 . S
C364 H376 0.929 . S
O365 Tb349 2.326 . S
O365 C353 1.242 . S
O366 Eu350 2.324 . S
O366 C353 1.258 . S
O367 Tb349 2.500 . S
O367 C369 1.273 . S
O368 Tb349 2.473 . S
O368 C369 1.257 . S
C369 O367 1.273 . S
C369 O368 1.257 . S
O370 Eu350 2.326 . S
O370 C358 1.242 . S
O371 Tb349 2.324 . S
O371 C358 1.258 . S
O372 Eu350 2.500 1_554 S
O372 C355 1.273 . S
O373 Eu350 2.473 1_554 S
O373 C355 1.257 . S
H374 C360 0.929 . S
H375 C362 0.931 . S
H376 C364 0.929 . S
O377 Tb378 2.292 . S
O377 C380 1.255 . S
Tb378 O377 2.292 . S
Tb378 O394 2.326 . S
Tb378 O396 2.500 . S
Tb378 O397 2.473 . S
Tb378 O400 2.324 . S
Eu379 O383 2.292 . S
Eu379 C384 2.852 . S
Eu379 O395 2.324 . S
Eu379 O399 2.326 . S
Eu379 O401 2.500 . S
Eu379 O402 2.473 . S
C380 O377 1.255 . S
C380 O381 1.247 . S
O381 C380 1.247 . S
C382 O394 1.242 . S
C382 O395 1.258 . S
O383 Eu379 2.292 . S
O383 C385 1.255 . S
C384 Eu379 2.852 . S
C384 C388 1.503 . S
C384 O401 1.273 . S
C384 O402 1.257 . S
C385 O383 1.255 . S
C385 O386 1.247 . S
O386 C385 1.247 . S
C387 O399 1.242 . S
C387 O400 1.258 . S
C388 C384 1.503 . S
C388 C389 1.379 . S
C388 C393 1.392 . S
C389 C388 1.379 . S
C389 C390 1.404 . S
C389 H403 0.929 . S
C390 C389 1.404 . S
C390 C391 1.389 . S
C391 C390 1.389 . S
C391 C392 1.399 . S
C391 H404 0.931 . S
C392 C391 1.399 . S
C392 C393 1.390 . S
C393 C388 1.392 . S
C393 C392 1.390 . S
C393 H405 0.929 . S
O394 Tb378 2.326 . S
O394 C382 1.242 . S
O395 Eu379 2.324 . S
O395 C382 1.258 . S
O396 Tb378 2.500 . S
O396 C398 1.273 . S
O397 Tb378 2.473 . S
O397 C398 1.257 . S
C398 O396 1.273 . S
C398 O397 1.257 . S
O399 Eu379 2.326 . S
O399 C387 1.242 . S
O400 Tb378 2.324 . S
O400 C387 1.258 . S
O401 Eu379 2.500 . S
O401 C384 1.273 . S
O402 Eu379 2.473 . S
O402 C384 1.257 . S
H403 C389 0.929 . S
H404 C391 0.931 . S
H405 C393 0.929 . S
O406 Tb407 2.292 . S
O406 C409 1.255 . S
Tb407 O406 2.292 . S
Tb407 O423 2.326 . S
Tb407 O425 2.500 . S
Tb407 O426 2.473 . S
Tb407 O429 2.324 . S
Eu408 O412 2.292 1_554 S
Eu408 C413 2.852 1_554 S
Eu408 O424 2.324 . S
Eu408 O428 2.326 . S
Eu408 O430 2.500 1_554 S
Eu408 O431 2.473 1_554 S
C409 O406 1.255 . S
C409 O410 1.247 . S
O410 C409 1.247 . S
C411 O423 1.242 . S
C411 O424 1.258 . S
O412 Eu408 2.292 1_556 S
O412 C414 1.255 1_556 S
C413 Eu408 2.852 1_556 S
C413 C417 1.503 . S
C413 O430 1.273 . S
C413 O431 1.257 . S
C414 O412 1.255 1_554 S
C414 O415 1.247 . S
O415 C414 1.247 . S
C416 O428 1.242 . S
C416 O429 1.258 . S
C417 C413 1.503 . S
C417 C418 1.379 . S
C417 C422 1.392 . S
C418 C417 1.379 . S
C418 C419 1.404 . S
C418 H432 0.929 . S
C419 C418 1.404 . S
C419 C420 1.389 . S
C420 C419 1.389 . S
C420 C421 1.399 . S
C420 H433 0.931 . S
C421 C420 1.399 . S
C421 C422 1.390 . S
C422 C417 1.392 . S
C422 C421 1.390 . S
C422 H434 0.929 . S
O423 Tb407 2.326 . S
O423 C411 1.242 . S
O424 Eu408 2.324 . S
O424 C411 1.258 . S
O425 Tb407 2.500 . S
O425 C427 1.273 . S
O426 Tb407 2.473 . S
O426 C427 1.257 . S
C427 O425 1.273 . S
C427 O426 1.257 . S
O428 Eu408 2.326 . S
O428 C416 1.242 . S
O429 Tb407 2.324 . S
O429 C416 1.258 . S
O430 Eu408 2.500 1_556 S
O430 C413 1.273 . S
O431 Eu408 2.473 1_556 S
O431 C413 1.257 . S
H432 C418 0.929 . S
H433 C420 0.931 . S
H434 C422 0.929 . S
O435 Tb436 2.292 . S
O435 C438 1.255 . S
Tb436 O435 2.292 . S
Tb436 O452 2.326 . S
Tb436 O454 2.500 . S
Tb436 O455 2.473 . S
Tb436 O458 2.324 . S
Eu437 O441 2.292 . S
Eu437 C442 2.852 . S
Eu437 O453 2.324 . S
Eu437 O457 2.326 . S
Eu437 O459 2.500 . S
Eu437 O460 2.473 . S
C438 O435 1.255 . S
C438 O439 1.247 . S
O439 C438 1.247 . S
C440 O452 1.242 . S
C440 O453 1.258 . S
O441 Eu437 2.292 . S
O441 C443 1.255 . S
C442 Eu437 2.852 . S
C442 C446 1.503 . S
C442 O459 1.273 . S
C442 O460 1.257 . S
C443 O441 1.255 . S
C443 O444 1.247 . S
O444 C443 1.247 . S
C445 O457 1.242 . S
C445 O458 1.258 . S
C446 C442 1.503 . S
C446 C447 1.379 . S
C446 C451 1.392 . S
C447 C446 1.379 . S
C447 C448 1.404 . S
C447 H461 0.929 . S
C448 C447 1.404 . S
C448 C449 1.389 . S
C449 C448 1.389 . S
C449 C450 1.399 . S
C449 H462 0.931 . S
C450 C449 1.399 . S
C450 C451 1.390 . S
C451 C446 1.392 . S
C451 C450 1.390 . S
C451 H463 0.929 . S
O452 Tb436 2.326 . S
O452 C440 1.242 . S
O453 Eu437 2.324 . S
O453 C440 1.258 . S
O454 Tb436 2.500 . S
O454 C456 1.273 . S
O455 Tb436 2.473 . S
O455 C456 1.257 . S
C456 O454 1.273 . S
C456 O455 1.257 . S
O457 Eu437 2.326 . S
O457 C445 1.242 . S
O458 Tb436 2.324 . S
O458 C445 1.258 . S
O459 Eu437 2.500 . S
O459 C442 1.273 . S
O460 Eu437 2.473 . S
O460 C442 1.257 . S
H461 C447 0.929 . S
H462 C449 0.931 . S
H463 C451 0.929 . S
H464 C470 0.930 . S
H465 C474 0.930 . S
H466 C479 0.929 . S
H467 C477 0.929 . S
H468 C472 0.929 . S
H469 C478 0.929 . S
C470 H464 0.930 . S
C470 C471 1.367 1_556 S
C470 C478 1.378 . S
C471 C470 1.367 1_554 S
C471 C479 1.433 . S
C472 H468 0.929 . S
C472 C474 1.378 . S
C472 C476 1.350 . S
C473 C476 1.463 1_655 S
C473 C478 1.350 1_554 S
C473 N481 1.427 . S
C474 H465 0.930 . S
C474 C472 1.378 . S
C474 C475 1.367 . S
C475 C474 1.367 . S
C475 C477 1.433 1_554 S
C476 C472 1.350 . S
C476 C473 1.463 1_455 S
C476 N480 1.427 1_554 S
C477 H467 0.929 . S
C477 C475 1.433 1_556 S
C477 N480 1.384 . S
C478 H469 0.929 . S
C478 C470 1.378 . S
C478 C473 1.350 1_556 S
C479 H466 0.929 . S
C479 C471 1.433 . S
C479 N481 1.384 . S
N480 C476 1.427 1_556 S
N480 C477 1.384 . S
N481 C473 1.427 . S
N481 C479 1.384 . S
H482 C488 0.930 . S
H483 C492 0.930 . S
H484 C497 0.929 . S
H485 C495 0.929 . S
H486 C490 0.929 . S
H487 C496 0.929 . S
C488 H482 0.930 . S
C488 C489 1.367 . S
C488 C496 1.378 . S
C489 C488 1.367 . S
C489 C497 1.433 . S
C490 H486 0.929 . S
C490 C492 1.378 . S
C490 C494 1.350 . S
C491 C494 1.463 . S
C491 C496 1.350 . S
C491 N499 1.427 . S
C492 H483 0.930 . S
C492 C490 1.378 . S
C492 C493 1.367 . S
C493 C492 1.367 . S
C493 C495 1.433 . S
C494 C490 1.350 . S
C494 C491 1.463 . S
C494 N498 1.427 . S
C495 H485 0.929 . S
C495 C493 1.433 . S
C495 N498 1.384 . S
C496 H487 0.929 . S
C496 C488 1.378 . S
C496 C491 1.350 . S
C497 H484 0.929 . S
C497 C489 1.433 . S
C497 N499 1.384 . S
N498 C494 1.427 . S
N498 C495 1.384 . S
N499 C491 1.427 . S
N499 C497 1.384 . S
H500 C506 0.930 . S
H501 C510 0.930 . S
H502 C515 0.929 . S
H503 C513 0.929 . S
H504 C508 0.929 . S
H505 C514 0.929 . S
C506 H500 0.930 . S
C506 C507 1.367 . S
C506 C514 1.378 . S
C507 C506 1.367 . S
C507 C515 1.433 1_556 S
C508 H504 0.929 . S
C508 C510 1.378 . S
C508 C512 1.350 1_554 S
C509 C512 1.463 1_655 S
C509 C514 1.350 . S
C509 N517 1.427 1_556 S
C510 H501 0.930 . S
C510 C508 1.378 . S
C510 C511 1.367 1_554 S
C511 C510 1.367 1_556 S
C511 C513 1.433 . S
C512 C508 1.350 1_556 S
C512 C509 1.463 1_455 S
C512 N516 1.427 . S
C513 H503 0.929 . S
C513 C511 1.433 . S
C513 N516 1.384 . S
C514 H505 0.929 . S
C514 C506 1.378 . S
C514 C509 1.350 . S
C515 H502 0.929 . S
C515 C507 1.433 1_554 S
C515 N517 1.384 . S
N516 C512 1.427 . S
N516 C513 1.384 . S
N517 C509 1.427 1_554 S
N517 C515 1.384 . S
H518 C524 0.930 . S
H519 C528 0.930 . S
H520 C533 0.929 . S
H521 C531 0.929 . S
H522 C526 0.929 . S
H523 C532 0.929 . S
C524 H518 0.930 . S
C524 C525 1.367 . S
C524 C532 1.378 . S
C525 C524 1.367 . S
C525 C533 1.433 . S
C526 H522 0.929 . S
C526 C528 1.378 . S
C526 C530 1.350 . S
C527 C530 1.463 . S
C527 C532 1.350 . S
C527 N535 1.427 . S
C528 H519 0.930 . S
C528 C526 1.378 . S
C528 C529 1.367 . S
C529 C528 1.367 . S
C529 C531 1.433 . S
C530 C526 1.350 . S
C530 C527 1.463 . S
C530 N534 1.427 . S
C531 H521 0.929 . S
C531 C529 1.433 . S
C531 N534 1.384 . S
C532 H523 0.929 . S
C532 C524 1.378 . S
C532 C527 1.350 . S
C533 H520 0.929 . S
C533 C525 1.433 . S
C533 N535 1.384 . S
N534 C530 1.427 . S
N534 C531 1.384 . S
N535 C527 1.427 . S
N535 C533 1.384 . S
H536 C542 0.930 . S
H537 C546 0.930 . S
H538 C551 0.929 . S
H539 C549 0.929 . S
H540 C544 0.929 . S
H541 C550 0.929 . S
C542 H536 0.930 . S
C542 C543 1.367 . S
C542 C550 1.378 . S
C543 C542 1.367 . S
C543 C551 1.433 . S
C544 H540 0.929 . S
C544 C546 1.378 . S
C544 C548 1.350 . S
C545 C548 1.463 . S
C545 C550 1.350 . S
C545 N553 1.427 . S
C546 H537 0.930 . S
C546 C544 1.378 . S
C546 C547 1.367 . S
C547 C546 1.367 . S
C547 C549 1.433 . S
C548 C544 1.350 . S
C548 C545 1.463 . S
C548 N552 1.427 . S
C549 H539 0.929 . S
C549 C547 1.433 . S
C549 N552 1.384 . S
C550 H541 0.929 . S
C550 C542 1.378 . S
C550 C545 1.350 . S
C551 H538 0.929 . S
C551 C543 1.433 . S
C551 N553 1.384 . S
N552 C548 1.427 . S
N552 C549 1.384 . S
N553 C545 1.427 . S
N553 C551 1.384 . S
H554 C560 0.930 . S
H555 C564 0.930 . S
H556 C569 0.929 . S
H557 C567 0.929 . S
H558 C562 0.929 . S
H559 C568 0.929 . S
C560 H554 0.930 . S
C560 C561 1.367 . S
C560 C568 1.378 . S
C561 C560 1.367 . S
C561 C569 1.433 . S
C562 H558 0.929 . S
C562 C564 1.378 . S
C562 C566 1.350 . S
C563 C566 1.463 1_455 S
C563 C568 1.350 . S
C563 N571 1.427 . S
C564 H555 0.930 . S
C564 C562 1.378 . S
C564 C565 1.367 . S
C565 C564 1.367 . S
C565 C567 1.433 . S
C566 C562 1.350 . S
C566 C563 1.463 1_655 S
C566 N570 1.427 . S
C567 H557 0.929 . S
C567 C565 1.433 . S
C567 N570 1.384 . S
C568 H559 0.929 . S
C568 C560 1.378 . S
C568 C563 1.350 . S
C569 H556 0.929 . S
C569 C561 1.433 . S
C569 N571 1.384 . S
N570 C566 1.427 . S
N570 C567 1.384 . S
N571 C563 1.427 . S
N571 C569 1.384 . S
H572 C578 0.930 . S
H573 C582 0.930 . S
H574 C587 0.929 . S
H575 C585 0.929 . S
H576 C580 0.929 . S
H577 C586 0.929 . S
C578 H572 0.930 . S
C578 C579 1.367 . S
C578 C586 1.378 . S
C579 C578 1.367 . S
C579 C587 1.433 1_556 S
C580 H576 0.929 . S
C580 C582 1.378 . S
C580 C584 1.350 1_554 S
C581 C584 1.463 . S
C581 C586 1.350 . S
C581 N589 1.427 1_556 S
C582 H573 0.930 . S
C582 C580 1.378 . S
C582 C583 1.367 1_554 S
C583 C582 1.367 1_556 S
C583 C585 1.433 . S
C584 C580 1.350 1_556 S
C584 C581 1.463 . S
C584 N588 1.427 . S
C585 H575 0.929 . S
C585 C583 1.433 . S
C585 N588 1.384 . S
C586 H577 0.929 . S
C586 C578 1.378 . S
C586 C581 1.350 . S
C587 H574 0.929 . S
C587 C579 1.433 1_554 S
C587 N589 1.384 . S
N588 C584 1.427 . S
N588 C585 1.384 . S
N589 C581 1.427 1_554 S
N589 C587 1.384 . S
H590 C596 0.930 . S
H591 C600 0.930 . S
H592 C605 0.929 . S
H593 C603 0.929 . S
H594 C598 0.929 . S
H595 C604 0.929 . S
C596 H590 0.930 . S
C596 C597 1.367 . S
C596 C604 1.378 . S
C597 C596 1.367 . S
C597 C605 1.433 . S
C598 H594 0.929 . S
C598 C600 1.378 . S
C598 C602 1.350 . S
C599 C602 1.463 1_455 S
C599 C604 1.350 . S
C599 N607 1.427 . S
C600 H591 0.930 . S
C600 C598 1.378 . S
C600 C601 1.367 . S
C601 C600 1.367 . S
C601 C603 1.433 . S
C602 C598 1.350 . S
C602 C599 1.463 1_655 S
C602 N606 1.427 . S
C603 H593 0.929 . S
C603 C601 1.433 . S
C603 N606 1.384 . S
C604 H595 0.929 . S
C604 C596 1.378 . S
C604 C599 1.350 . S
C605 H592 0.929 . S
C605 C597 1.433 . S
C605 N607 1.384 . S
N606 C602 1.427 . S
N606 C603 1.384 . S
N607 C599 1.427 . S
N607 C605 1.384 . S
H608 C614 0.930 . S
H609 C618 0.930 . S
H610 C623 0.929 . S
H611 C621 0.929 . S
H612 C616 0.929 . S
H613 C622 0.929 . S
C614 H608 0.930 . S
C614 C615 1.367 . S
C614 C622 1.378 . S
C615 C614 1.367 . S
C615 C623 1.433 . S
C616 H612 0.929 . S
C616 C618 1.378 . S
C616 C620 1.350 . S
C617 C620 1.463 . S
C617 C622 1.350 . S
C617 N625 1.427 . S
C618 H609 0.930 . S
C618 C616 1.378 . S
C618 C619 1.367 . S
C619 C618 1.367 . S
C619 C621 1.433 . S
C620 C616 1.350 . S
C620 C617 1.463 . S
C620 N624 1.427 . S
C621 H611 0.929 . S
C621 C619 1.433 . S
C621 N624 1.384 . S
C622 H613 0.929 . S
C622 C614 1.378 . S
C622 C617 1.350 . S
C623 H610 0.929 . S
C623 C615 1.433 . S
C623 N625 1.384 . S
N624 C620 1.427 . S
N624 C621 1.384 . S
N625 C617 1.427 . S
N625 C623 1.384 . S
H626 C632 0.930 . S
H627 C636 0.930 . S
H628 C641 0.929 . S
H629 C639 0.929 . S
H630 C634 0.929 . S
H631 C640 0.929 . S
C632 H626 0.930 . S
C632 C633 1.367 . S
C632 C640 1.378 . S
C633 C632 1.367 . S
C633 C641 1.433 . S
C634 H630 0.929 . S
C634 C636 1.378 . S
C634 C638 1.350 . S
C635 C638 1.463 . S
C635 C640 1.350 . S
C635 N643 1.427 . S
C636 H627 0.930 . S
C636 C634 1.378 . S
C636 C637 1.367 . S
C637 C636 1.367 . S
C637 C639 1.433 . S
C638 C634 1.350 . S
C638 C635 1.463 . S
C638 N642 1.427 . S
C639 H629 0.929 . S
C639 C637 1.433 . S
C639 N642 1.384 . S
C640 H631 0.929 . S
C640 C632 1.378 . S
C640 C635 1.350 . S
C641 H628 0.929 . S
C641 C633 1.433 . S
C641 N643 1.384 . S
N642 C638 1.427 . S
N642 C639 1.384 . S
N643 C635 1.427 . S
N643 C641 1.384 . S
H644 C650 0.930 . S
H645 C654 0.930 . S
H646 C659 0.929 . S
H647 C657 0.929 . S
H648 C652 0.929 . S
H649 C658 0.929 . S
C650 H644 0.930 . S
C650 C651 1.367 . S
C650 C658 1.378 . S
C651 C650 1.367 . S
C651 C659 1.433 . S
C652 H648 0.929 . S
C652 C654 1.378 . S
C652 C656 1.350 . S
C653 C656 1.463 . S
C653 C658 1.350 . S
C653 N661 1.427 . S
C654 H645 0.930 . S
C654 C652 1.378 . S
C654 C655 1.367 . S
C655 C654 1.367 . S
C655 C657 1.433 . S
C656 C652 1.350 . S
C656 C653 1.463 . S
C656 N660 1.427 . S
C657 H647 0.929 . S
C657 C655 1.433 . S
C657 N660 1.384 . S
C658 H649 0.929 . S
C658 C650 1.378 . S
C658 C653 1.350 . S
C659 H646 0.929 . S
C659 C651 1.433 . S
C659 N661 1.384 . S
N660 C656 1.427 . S
N660 C657 1.384 . S
N661 C653 1.427 . S
N661 C659 1.384 . S
H662 C668 0.930 . S
H663 C672 0.930 . S
H664 C677 0.929 . S
H665 C675 0.929 . S
H666 C670 0.929 . S
H667 C676 0.929 . S
C668 H662 0.930 . S
C668 C669 1.367 . S
C668 C676 1.378 . S
C669 C668 1.367 . S
C669 C677 1.433 . S
C670 H666 0.929 . S
C670 C672 1.378 . S
C670 C674 1.350 . S
C671 C674 1.463 . S
C671 C676 1.350 . S
C671 N679 1.427 . S
C672 H663 0.930 . S
C672 C670 1.378 . S
C672 C673 1.367 . S
C673 C672 1.367 . S
C673 C675 1.433 . S
C674 C670 1.350 . S
C674 C671 1.463 . S
C674 N678 1.427 . S
C675 H665 0.929 . S
C675 C673 1.433 . S
C675 N678 1.384 . S
C676 H667 0.929 . S
C676 C668 1.378 . S
C676 C671 1.350 . S
C677 H664 0.929 . S
C677 C669 1.433 . S
C677 N679 1.384 . S
N678 C674 1.427 . S
N678 C675 1.384 . S
N679 C671 1.427 . S
N679 C677 1.384 . S
H680 C686 0.930 . S
H681 C690 0.930 . S
H682 C695 0.929 . S
H683 C693 0.929 . S
H684 C688 0.929 . S
H685 C694 0.929 . S
C686 H680 0.930 . S
C686 C687 1.367 . S
C686 C694 1.378 . S
C687 C686 1.367 . S
C687 C695 1.433 . S
C688 H684 0.929 . S
C688 C690 1.378 . S
C688 C692 1.350 . S
C689 C692 1.463 . S
C689 C694 1.350 . S
C689 N697 1.427 . S
C690 H681 0.930 . S
C690 C688 1.378 . S
C690 C691 1.367 . S
C691 C690 1.367 . S
C691 C693 1.433 . S
C692 C688 1.350 . S
C692 C689 1.463 . S
C692 N696 1.427 . S
C693 H683 0.929 . S
C693 C691 1.433 . S
C693 N696 1.384 . S
C694 H685 0.929 . S
C694 C686 1.378 . S
C694 C689 1.350 . S
C695 H682 0.929 . S
C695 C687 1.433 . S
C695 N697 1.384 . S
N696 C692 1.427 . S
N696 C693 1.384 . S
N697 C689 1.427 . S
N697 C695 1.384 . S
H698 C704 0.930 . S
H699 C708 0.930 . S
H700 C713 0.929 . S
H701 C711 0.929 . S
H702 C706 0.929 . S
H703 C712 0.929 . S
C704 H698 0.930 . S
C704 C705 1.367 . S
C704 C712 1.378 . S
C705 C704 1.367 . S
C705 C713 1.433 . S
C706 H702 0.929 . S
C706 C708 1.378 . S
C706 C710 1.350 . S
C707 C710 1.463 . S
C707 C712 1.350 . S
C707 N715 1.427 . S
C708 H699 0.930 . S
C708 C706 1.378 . S
C708 C709 1.367 . S
C709 C708 1.367 . S
C709 C711 1.433 . S
C710 C706 1.350 . S
C710 C707 1.463 . S
C710 N714 1.427 . S
C711 H701 0.929 . S
C711 C709 1.433 . S
C711 N714 1.384 . S
C712 H703 0.929 . S
C712 C704 1.378 . S
C712 C707 1.350 . S
C713 H700 0.929 . S
C713 C705 1.433 . S
C713 N715 1.384 . S
N714 C710 1.427 . S
N714 C711 1.384 . S
N715 C707 1.427 . S
N715 C713 1.384 . S
H716 C722 0.930 . S
H717 C726 0.930 . S
H718 C731 0.929 . S
H719 C729 0.929 . S
H720 C724 0.929 . S
H721 C730 0.929 . S
C722 H716 0.930 . S
C722 C723 1.367 . S
C722 C730 1.378 . S
C723 C722 1.367 . S
C723 C731 1.433 . S
C724 H720 0.929 . S
C724 C726 1.378 . S
C724 C728 1.350 . S
C725 C728 1.463 . S
C725 C730 1.350 . S
C725 N733 1.427 . S
C726 H717 0.930 . S
C726 C724 1.378 . S
C726 C727 1.367 . S
C727 C726 1.367 . S
C727 C729 1.433 . S
C728 C724 1.350 . S
C728 C725 1.463 . S
C728 N732 1.427 . S
C729 H719 0.929 . S
C729 C727 1.433 . S
C729 N732 1.384 . S
C730 H721 0.929 . S
C730 C722 1.378 . S
C730 C725 1.350 . S
C731 H718 0.929 . S
C731 C723 1.433 . S
C731 N733 1.384 . S
N732 C728 1.427 . S
N732 C729 1.384 . S
N733 C725 1.427 . S
N733 C731 1.384 . S
H734 C740 0.930 . S
H735 C744 0.930 . S
H736 C749 0.929 . S
H737 C747 0.929 . S
H738 C742 0.929 . S
H739 C748 0.929 . S
C740 H734 0.930 . S
C740 C741 1.367 . S
C740 C748 1.378 . S
C741 C740 1.367 . S
C741 C749 1.433 . S
C742 H738 0.929 . S
C742 C744 1.378 . S
C742 C746 1.350 . S
C743 C746 1.463 . S
C743 C748 1.350 . S
C743 N751 1.427 . S
C744 H735 0.930 . S
C744 C742 1.378 . S
C744 C745 1.367 . S
C745 C744 1.367 . S
C745 C747 1.433 . S
C746 C742 1.350 . S
C746 C743 1.463 . S
C746 N750 1.427 . S
C747 H737 0.929 . S
C747 C745 1.433 . S
C747 N750 1.384 . S
C748 H739 0.929 . S
C748 C740 1.378 . S
C748 C743 1.350 . S
C749 H736 0.929 . S
C749 C741 1.433 . S
C749 N751 1.384 . S
N750 C746 1.427 . S
N750 C747 1.384 . S
N751 C743 1.427 . S
N751 C749 1.384 . S
H752 C758 0.930 . S
H753 C762 0.930 . S
H754 C767 0.929 . S
H755 C765 0.929 . S
H756 C760 0.929 . S
H757 C766 0.929 . S
C758 H752 0.930 . S
C758 C759 1.367 . S
C758 C766 1.378 . S
C759 C758 1.367 . S
C759 C767 1.433 . S
C760 H756 0.929 . S
C760 C762 1.378 . S
C760 C764 1.350 . S
C761 C764 1.463 . S
C761 C766 1.350 . S
C761 N769 1.427 . S
C762 H753 0.930 . S
C762 C760 1.378 . S
C762 C763 1.367 . S
C763 C762 1.367 . S
C763 C765 1.433 . S
C764 C760 1.350 . S
C764 C761 1.463 . S
C764 N768 1.427 . S
C765 H755 0.929 . S
C765 C763 1.433 . S
C765 N768 1.384 . S
C766 H757 0.929 . S
C766 C758 1.378 . S
C766 C761 1.350 . S
C767 H754 0.929 . S
C767 C759 1.433 . S
C767 N769 1.384 . S
N768 C764 1.427 . S
N768 C765 1.384 . S
N769 C761 1.427 . S
N769 C767 1.384 . S
H770 C776 0.930 . S
H771 C780 0.930 . S
H772 C785 0.929 . S
H773 C783 0.929 . S
H774 C778 0.929 . S
H775 C784 0.929 . S
C776 H770 0.930 . S
C776 C777 1.367 . S
C776 C784 1.378 . S
C777 C776 1.367 . S
C777 C785 1.433 . S
C778 H774 0.929 . S
C778 C780 1.378 . S
C778 C782 1.350 . S
C779 C782 1.463 . S
C779 C784 1.350 . S
C779 N787 1.427 . S
C780 H771 0.930 . S
C780 C778 1.378 . S
C780 C781 1.367 . S
C781 C780 1.367 . S
C781 C783 1.433 . S
C782 C778 1.350 . S
C782 C779 1.463 . S
C782 N786 1.427 . S
C783 H773 0.929 . S
C783 C781 1.433 . S
C783 N786 1.384 . S
C784 H775 0.929 . S
C784 C776 1.378 . S
C784 C779 1.350 . S
C785 H772 0.929 . S
C785 C777 1.433 . S
C785 N787 1.384 . S
N786 C782 1.427 . S
N786 C783 1.384 . S
N787 C779 1.427 . S
N787 C785 1.384 . S
H788 C794 0.930 . S
H789 C798 0.930 . S
H790 C803 0.929 . S
H791 C801 0.929 . S
H792 C796 0.929 . S
H793 C802 0.929 . S
C794 H788 0.930 . S
C794 C795 1.367 . S
C794 C802 1.378 . S
C795 C794 1.367 . S
C795 C803 1.433 . S
C796 H792 0.929 . S
C796 C798 1.378 . S
C796 C800 1.350 . S
C797 C800 1.463 . S
C797 C802 1.350 . S
C797 N805 1.427 . S
C798 H789 0.930 . S
C798 C796 1.378 . S
C798 C799 1.367 . S
C799 C798 1.367 . S
C799 C801 1.433 . S
C800 C796 1.350 . S
C800 C797 1.463 . S
C800 N804 1.427 . S
C801 H791 0.929 . S
C801 C799 1.433 . S
C801 N804 1.384 . S
C802 H793 0.929 . S
C802 C794 1.378 . S
C802 C797 1.350 . S
C803 H790 0.929 . S
C803 C795 1.433 . S
C803 N805 1.384 . S
N804 C800 1.427 . S
N804 C801 1.384 . S
N805 C797 1.427 . S
N805 C803 1.384 . S
H806 C812 0.930 . S
H807 C816 0.930 . S
H808 C821 0.929 . S
H809 C819 0.929 . S
H810 C814 0.929 . S
H811 C820 0.929 . S
C812 H806 0.930 . S
C812 C813 1.367 . S
C812 C820 1.378 . S
C813 C812 1.367 . S
C813 C821 1.433 . S
C814 H810 0.929 . S
C814 C816 1.378 . S
C814 C818 1.350 . S
C815 C818 1.463 . S
C815 C820 1.350 . S
C815 N823 1.427 . S
C816 H807 0.930 . S
C816 C814 1.378 . S
C816 C817 1.367 . S
C817 C816 1.367 . S
C817 C819 1.433 . S
C818 C814 1.350 . S
C818 C815 1.463 . S
C818 N822 1.427 . S
C819 H809 0.929 . S
C819 C817 1.433 . S
C819 N822 1.384 . S
C820 H811 0.929 . S
C820 C812 1.378 . S
C820 C815 1.350 . S
C821 H808 0.929 . S
C821 C813 1.433 . S
C821 N823 1.384 . S
N822 C818 1.427 . S
N822 C819 1.384 . S
N823 C815 1.427 . S
N823 C821 1.384 . S
H824 C830 0.930 . S
H825 C834 0.930 . S
H826 C839 0.929 . S
H827 C837 0.929 . S
H828 C832 0.929 . S
H829 C838 0.929 . S
C830 H824 0.930 . S
C830 C831 1.367 . S
C830 C838 1.378 . S
C831 C830 1.367 . S
C831 C839 1.433 . S
C832 H828 0.929 . S
C832 C834 1.378 . S
C832 C836 1.350 . S
C833 C836 1.463 . S
C833 C838 1.350 . S
C833 N841 1.427 . S
C834 H825 0.930 . S
C834 C832 1.378 . S
C834 C835 1.367 . S
C835 C834 1.367 . S
C835 C837 1.433 . S
C836 C832 1.350 . S
C836 C833 1.463 . S
C836 N840 1.427 . S
C837 H827 0.929 . S
C837 C835 1.433 . S
C837 N840 1.384 . S
C838 H829 0.929 . S
C838 C830 1.378 . S
C838 C833 1.350 . S
C839 H826 0.929 . S
C839 C831 1.433 . S
C839 N841 1.384 . S
N840 C836 1.427 . S
N840 C837 1.384 . S
N841 C833 1.427 . S
N841 C839 1.384 . S
H842 C848 0.930 . S
H843 C852 0.930 . S
H844 C857 0.929 . S
H845 C855 0.929 . S
H846 C850 0.929 . S
H847 C856 0.929 . S
C848 H842 0.930 . S
C848 C849 1.367 . S
C848 C856 1.378 . S
C849 C848 1.367 . S
C849 C857 1.433 . S
C850 H846 0.929 . S
C850 C852 1.378 . S
C850 C854 1.350 . S
C851 C854 1.463 . S
C851 C856 1.350 . S
C851 N859 1.427 . S
C852 H843 0.930 . S
C852 C850 1.378 . S
C852 C853 1.367 . S
C853 C852 1.367 . S
C853 C855 1.433 . S
C854 C850 1.350 . S
C854 C851 1.463 . S
C854 N858 1.427 . S
C855 H845 0.929 . S
C855 C853 1.433 . S
C855 N858 1.384 . S
C856 H847 0.929 . S
C856 C848 1.378 . S
C856 C851 1.350 . S
C857 H844 0.929 . S
C857 C849 1.433 . S
C857 N859 1.384 . S
N858 C854 1.427 . S
N858 C855 1.384 . S
N859 C851 1.427 . S
N859 C857 1.384 . S
H860 C866 0.930 . S
H861 C870 0.930 . S
H862 C875 0.929 . S
H863 C873 0.929 . S
H864 C868 0.929 . S
H865 C874 0.929 . S
C866 H860 0.930 . S
C866 C867 1.367 . S
C866 C874 1.378 . S
C867 C866 1.367 . S
C867 C875 1.433 . S
C868 H864 0.929 . S
C868 C870 1.378 . S
C868 C872 1.350 . S
C869 C872 1.463 . S
C869 C874 1.350 . S
C869 N877 1.427 . S
C870 H861 0.930 . S
C870 C868 1.378 . S
C870 C871 1.367 . S
C871 C870 1.367 . S
C871 C873 1.433 . S
C872 C868 1.350 . S
C872 C869 1.463 . S
C872 N876 1.427 . S
C873 H863 0.929 . S
C873 C871 1.433 . S
C873 N876 1.384 . S
C874 H865 0.929 . S
C874 C866 1.378 . S
C874 C869 1.350 . S
C875 H862 0.929 . S
C875 C867 1.433 . S
C875 N877 1.384 . S
N876 C872 1.427 . S
N876 C873 1.384 . S
N877 C869 1.427 . S
N877 C875 1.384 . S
H878 C884 0.930 . S
H879 C888 0.930 . S
H880 C893 0.929 . S
H881 C891 0.929 . S
H882 C886 0.929 . S
H883 C892 0.929 . S
C884 H878 0.930 . S
C884 C885 1.367 . S
C884 C892 1.378 . S
C885 C884 1.367 . S
C885 C893 1.433 . S
C886 H882 0.929 . S
C886 C888 1.378 . S
C886 C890 1.350 . S
C887 C890 1.463 . S
C887 C892 1.350 . S
C887 N895 1.427 . S
C888 H879 0.930 . S
C888 C886 1.378 . S
C888 C889 1.367 . S
C889 C888 1.367 . S
C889 C891 1.433 . S
C890 C886 1.350 . S
C890 C887 1.463 . S
C890 N894 1.427 . S
C891 H881 0.929 . S
C891 C889 1.433 . S
C891 N894 1.384 . S
C892 H883 0.929 . S
C892 C884 1.378 . S
C892 C887 1.350 . S
C893 H880 0.929 . S
C893 C885 1.433 . S
C893 N895 1.384 . S
N894 C890 1.427 . S
N894 C891 1.384 . S
N895 C887 1.427 . S
N895 C893 1.384 . S
H896 C902 0.930 . S
H897 C906 0.930 . S
H898 C911 0.929 . S
H899 C909 0.929 . S
H900 C904 0.929 . S
H901 C910 0.929 . S
C902 H896 0.930 . S
C902 C903 1.367 1_556 S
C902 C910 1.378 . S
C903 C902 1.367 1_554 S
C903 C911 1.433 . S
C904 H900 0.929 . S
C904 C906 1.378 . S
C904 C908 1.350 1_554 S
C905 C908 1.463 1_564 S
C905 C910 1.350 1_554 S
C905 N913 1.427 . S
C906 H897 0.930 . S
C906 C904 1.378 . S
C906 C907 1.367 1_554 S
C907 C906 1.367 1_556 S
C907 C909 1.433 . S
C908 C904 1.350 1_556 S
C908 C905 1.463 1_546 S
C908 N912 1.427 . S
C909 H899 0.929 . S
C909 C907 1.433 . S
C909 N912 1.384 . S
C910 H901 0.929 . S
C910 C902 1.378 . S
C910 C905 1.350 1_556 S
C911 H898 0.929 . S
C911 C903 1.433 . S
C911 N913 1.384 . S
N912 C908 1.427 . S
N912 C909 1.384 . S
N913 C905 1.427 . S
N913 C911 1.384 . S
H914 C920 0.930 . S
H915 C924 0.930 . S
H916 C929 0.929 . S
H917 C927 0.929 . S
H918 C922 0.929 . S
H919 C928 0.929 . S
C920 H914 0.930 . S
C920 C921 1.367 . S
C920 C928 1.378 . S
C921 C920 1.367 . S
C921 C929 1.433 . S
C922 H918 0.929 . S
C922 C924 1.378 . S
C922 C926 1.350 . S
C923 C926 1.463 1_565 S
C923 C928 1.350 . S
C923 N931 1.427 . S
C924 H915 0.930 . S
C924 C922 1.378 . S
C924 C925 1.367 . S
C925 C924 1.367 . S
C925 C927 1.433 . S
C926 C922 1.350 . S
C926 C923 1.463 1_545 S
C926 N930 1.427 . S
C927 H917 0.929 . S
C927 C925 1.433 . S
C927 N930 1.384 . S
C928 H919 0.929 . S
C928 C920 1.378 . S
C928 C923 1.350 . S
C929 H916 0.929 . S
C929 C921 1.433 . S
C929 N931 1.384 . S
N930 C926 1.427 . S
N930 C927 1.384 . S
N931 C923 1.427 . S
N931 C929 1.384 . S
H932 C938 0.930 . S
H933 C942 0.930 . S
H934 C947 0.929 . S
H935 C945 0.929 . S
H936 C940 0.929 . S
H937 C946 0.929 . S
C938 H932 0.930 . S
C938 C939 1.367 1_556 S
C938 C946 1.378 . S
C939 C938 1.367 1_554 S
C939 C947 1.433 . S
C940 H936 0.929 . S
C940 C942 1.378 . S
C940 C944 1.350 1_554 S
C941 C944 1.463 1_564 S
C941 C946 1.350 1_554 S
C941 N949 1.427 . S
C942 H933 0.930 . S
C942 C940 1.378 . S
C942 C943 1.367 1_554 S
C943 C942 1.367 1_556 S
C943 C945 1.433 . S
C944 C940 1.350 1_556 S
C944 C941 1.463 1_546 S
C944 N948 1.427 . S
C945 H935 0.929 . S
C945 C943 1.433 . S
C945 N948 1.384 . S
C946 H937 0.929 . S
C946 C938 1.378 . S
C946 C941 1.350 1_556 S
C947 H934 0.929 . S
C947 C939 1.433 . S
C947 N949 1.384 . S
N948 C944 1.427 . S
N948 C945 1.384 . S
N949 C941 1.427 . S
N949 C947 1.384 . S
H950 C956 0.930 . S
H951 C960 0.930 . S
H952 C965 0.929 . S
H953 C963 0.929 . S
H954 C958 0.929 . S
H955 C964 0.929 . S
C956 H950 0.930 . S
C956 C957 1.367 . S
C956 C964 1.378 . S
C957 C956 1.367 . S
C957 C965 1.433 . S
C958 H954 0.929 . S
C958 C960 1.378 . S
C958 C962 1.350 . S
C959 C962 1.463 1_565 S
C959 C964 1.350 . S
C959 N967 1.427 . S
C960 H951 0.930 . S
C960 C958 1.378 . S
C960 C961 1.367 . S
C961 C960 1.367 . S
C961 C963 1.433 . S
C962 C958 1.350 . S
C962 C959 1.463 1_545 S
C962 N966 1.427 . S
C963 H953 0.929 . S
C963 C961 1.433 . S
C963 N966 1.384 . S
C964 H955 0.929 . S
C964 C956 1.378 . S
C964 C959 1.350 . S
C965 H952 0.929 . S
C965 C957 1.433 . S
C965 N967 1.384 . S
N966 C962 1.427 . S
N966 C963 1.384 . S
N967 C959 1.427 . S
N967 C965 1.384 . S
H968 C974 0.930 . S
H969 C978 0.930 . S
H970 C983 0.929 . S
H971 C981 0.929 . S
H972 C976 0.929 . S
H973 C982 0.929 . S
C974 H968 0.930 . S
C974 C975 1.367 1_556 S
C974 C982 1.378 . S
C975 C974 1.367 1_554 S
C975 C983 1.433 . S
C976 H972 0.929 . S
C976 C978 1.378 . S
C976 C980 1.335 1_554 S
C977 C980 1.462 1_554 S
C977 C982 1.335 1_554 S
C977 N985 1.444 . S
C978 H969 0.930 . S
C978 C976 1.378 . S
C978 C979 1.367 1_554 S
C979 C978 1.367 1_556 S
C979 C981 1.433 . S
C980 C976 1.335 1_556 S
C980 C977 1.462 1_556 S
C980 N984 1.444 . S
C981 H971 0.929 . S
C981 C979 1.433 . S
C981 N984 1.384 . S
C982 H973 0.929 . S
C982 C974 1.378 . S
C982 C977 1.335 1_556 S
C983 H970 0.929 . S
C983 C975 1.433 . S
C983 N985 1.384 . S
N984 C980 1.444 . S
N984 C981 1.384 . S
N985 C977 1.444 . S
N985 C983 1.384 . S
H986 C992 0.930 . S
H987 C996 0.930 . S
H988 C1001 0.929 . S
H989 C999 0.929 . S
H990 C994 0.929 . S
H991 C1000 0.929 . S
C992 H986 0.930 . S
C992 C993 1.367 . S
C992 C1000 1.378 . S
C993 C992 1.367 . S
C993 C1001 1.433 . S
C994 H990 0.929 . S
C994 C996 1.378 . S
C994 C998 1.350 . S
C995 C998 1.463 . S
C995 C1000 1.350 . S
C995 N1003 1.427 . S
C996 H987 0.930 . S
C996 C994 1.378 . S
C996 C997 1.367 . S
C997 C996 1.367 . S
C997 C999 1.433 . S
C998 C994 1.350 . S
C998 C995 1.463 . S
C998 N1002 1.427 . S
C999 H989 0.929 . S
C999 C997 1.433 . S
C999 N1002 1.384 . S
C1000 H991 0.929 . S
C1000 C992 1.378 . S
C1000 C995 1.350 . S
C1001 H988 0.929 . S
C1001 C993 1.433 . S
C1001 N1003 1.384 . S
N1002 C998 1.427 . S
N1002 C999 1.384 . S
N1003 C995 1.427 . S
N1003 C1001 1.384 . S
H1004 C1010 0.930 . S
H1005 C1014 0.930 . S
H1006 C1019 0.929 . S
H1007 C1017 0.929 . S
H1008 C1012 0.929 . S
H1009 C1018 0.929 . S
C1010 H1004 0.930 . S
C1010 C1011 1.367 . S
C1010 C1018 1.378 . S
C1011 C1010 1.367 . S
C1011 C1019 1.433 1_556 S
C1012 H1008 0.929 . S
C1012 C1014 1.378 . S
C1012 C1016 1.350 . S
C1013 C1016 1.463 1_556 S
C1013 C1018 1.350 . S
C1013 N1021 1.427 1_556 S
C1014 H1005 0.930 . S
C1014 C1012 1.378 . S
C1014 C1015 1.367 . S
C1015 C1014 1.367 . S
C1015 C1017 1.433 1_554 S
C1016 C1012 1.350 . S
C1016 C1013 1.463 1_554 S
C1016 N1020 1.427 1_554 S
C1017 H1007 0.929 . S
C1017 C1015 1.433 1_556 S
C1017 N1020 1.384 . S
C1018 H1009 0.929 . S
C1018 C1010 1.378 . S
C1018 C1013 1.350 . S
C1019 H1006 0.929 . S
C1019 C1011 1.433 1_554 S
C1019 N1021 1.384 . S
N1020 C1016 1.427 1_556 S
N1020 C1017 1.384 . S
N1021 C1013 1.427 1_554 S
N1021 C1019 1.384 . S
H1022 C1028 0.930 . S
H1023 C1032 0.930 . S
H1024 C1037 0.929 . S
H1025 C1035 0.929 . S
H1026 C1030 0.929 . S
H1027 C1036 0.929 . S
C1028 H1022 0.930 . S
C1028 C1029 1.367 . S
C1028 C1036 1.378 . S
C1029 C1028 1.367 . S
C1029 C1037 1.433 . S
C1030 H1026 0.929 . S
C1030 C1032 1.378 . S
C1030 C1034 1.350 . S
C1031 C1034 1.463 . S
C1031 C1036 1.350 . S
C1031 N1039 1.427 . S
C1032 H1023 0.930 . S
C1032 C1030 1.378 . S
C1032 C1033 1.367 . S
C1033 C1032 1.367 . S
C1033 C1035 1.433 . S
C1034 C1030 1.350 . S
C1034 C1031 1.463 . S
C1034 N1038 1.427 . S
C1035 H1025 0.929 . S
C1035 C1033 1.433 . S
C1035 N1038 1.384 . S
C1036 H1027 0.929 . S
C1036 C1028 1.378 . S
C1036 C1031 1.350 . S
C1037 H1024 0.929 . S
C1037 C1029 1.433 . S
C1037 N1039 1.384 . S
N1038 C1034 1.427 . S
N1038 C1035 1.384 . S
N1039 C1031 1.427 . S
N1039 C1037 1.384 . S
H1040 C1046 0.930 . S
H1041 C1050 0.930 . S
H1042 C1055 0.929 . S
H1043 C1053 0.929 . S
H1044 C1048 0.929 . S
H1045 C1054 0.929 . S
C1046 H1040 0.930 . S
C1046 C1047 1.367 . S
C1046 C1054 1.378 . S
C1047 C1046 1.367 . S
C1047 C1055 1.433 . S
C1048 H1044 0.929 . S
C1048 C1050 1.378 . S
C1048 C1052 1.350 . S
C1049 C1052 1.463 . S
C1049 C1054 1.350 . S
C1049 N1057 1.427 . S
C1050 H1041 0.930 . S
C1050 C1048 1.378 . S
C1050 C1051 1.367 . S
C1051 C1050 1.367 . S
C1051 C1053 1.433 . S
C1052 C1048 1.350 . S
C1052 C1049 1.463 . S
C1052 N1056 1.427 . S
C1053 H1043 0.929 . S
C1053 C1051 1.433 . S
C1053 N1056 1.384 . S
C1054 H1045 0.929 . S
C1054 C1046 1.378 . S
C1054 C1049 1.350 . S
C1055 H1042 0.929 . S
C1055 C1047 1.433 . S
C1055 N1057 1.384 . S
N1056 C1052 1.427 . S
N1056 C1053 1.384 . S
N1057 C1049 1.427 . S
N1057 C1055 1.384 . S
H1058 C1064 0.930 . S
H1059 C1068 0.930 . S
H1060 C1073 0.929 . S
H1061 C1071 0.929 . S
H1062 C1066 0.929 . S
H1063 C1072 0.929 . S
C1064 H1058 0.930 . S
C1064 C1065 1.367 . S
C1064 C1072 1.378 . S
C1065 C1064 1.367 . S
C1065 C1073 1.433 . S
C1066 H1062 0.929 . S
C1066 C1068 1.378 . S
C1066 C1070 1.350 . S
C1067 C1070 1.463 . S
C1067 C1072 1.350 . S
C1067 N1075 1.427 . S
C1068 H1059 0.930 . S
C1068 C1066 1.378 . S
C1068 C1069 1.367 . S
C1069 C1068 1.367 . S
C1069 C1071 1.433 . S
C1070 C1066 1.350 . S
C1070 C1067 1.463 . S
C1070 N1074 1.427 . S
C1071 H1061 0.929 . S
C1071 C1069 1.433 . S
C1071 N1074 1.384 . S
C1072 H1063 0.929 . S
C1072 C1064 1.378 . S
C1072 C1067 1.350 . S
C1073 H1060 0.929 . S
C1073 C1065 1.433 . S
C1073 N1075 1.384 . S
N1074 C1070 1.427 . S
N1074 C1071 1.384 . S
N1075 C1067 1.427 . S
N1075 C1073 1.384 . S
H1076 C1082 0.930 . S
H1077 C1086 0.930 . S
H1078 C1091 0.929 . S
H1079 C1089 0.929 . S
H1080 C1084 0.929 . S
H1081 C1090 0.929 . S
C1082 H1076 0.930 . S
C1082 C1083 1.367 . S
C1082 C1090 1.378 . S
C1083 C1082 1.367 . S
C1083 C1091 1.433 . S
C1084 H1080 0.929 . S
C1084 C1086 1.378 . S
C1084 C1088 1.350 . S
C1085 C1088 1.463 . S
C1085 C1090 1.350 . S
C1085 N1093 1.427 . S
C1086 H1077 0.930 . S
C1086 C1084 1.378 . S
C1086 C1087 1.367 . S
C1087 C1086 1.367 . S
C1087 C1089 1.433 . S
C1088 C1084 1.350 . S
C1088 C1085 1.463 . S
C1088 N1092 1.427 . S
C1089 H1079 0.929 . S
C1089 C1087 1.433 . S
C1089 N1092 1.384 . S
C1090 H1081 0.929 . S
C1090 C1082 1.378 . S
C1090 C1085 1.350 . S
C1091 H1078 0.929 . S
C1091 C1083 1.433 . S
C1091 N1093 1.384 . S
N1092 C1088 1.427 . S
N1092 C1089 1.384 . S
N1093 C1085 1.427 . S
N1093 C1091 1.384 . S
H1094 C1100 0.930 . S
H1095 C1104 0.930 . S
H1096 C1109 0.929 . S
H1097 C1107 0.929 . S
H1098 C1102 0.929 . S
H1099 C1108 0.929 . S
C1100 H1094 0.930 . S
C1100 C1101 1.367 . S
C1100 C1108 1.378 . S
C1101 C1100 1.367 . S
C1101 C1109 1.433 . S
C1102 H1098 0.929 . S
C1102 C1104 1.378 . S
C1102 C1106 1.350 . S
C1103 C1106 1.463 . S
C1103 C1108 1.350 . S
C1103 N1111 1.427 . S
C1104 H1095 0.930 . S
C1104 C1102 1.378 . S
C1104 C1105 1.367 . S
C1105 C1104 1.367 . S
C1105 C1107 1.433 . S
C1106 C1102 1.350 . S
C1106 C1103 1.463 . S
C1106 N1110 1.427 . S
C1107 H1097 0.929 . S
C1107 C1105 1.433 . S
C1107 N1110 1.384 . S
C1108 H1099 0.929 . S
C1108 C1100 1.378 . S
C1108 C1103 1.350 . S
C1109 H1096 0.929 . S
C1109 C1101 1.433 . S
C1109 N1111 1.384 . S
N1110 C1106 1.427 . S
N1110 C1107 1.384 . S
N1111 C1103 1.427 . S
N1111 C1109 1.384 . S
H1112 C1118 0.930 . S
H1113 C1122 0.930 . S
H1114 C1127 0.929 . S
H1115 C1125 0.929 . S
H1116 C1120 0.929 . S
H1117 C1126 0.929 . S
C1118 H1112 0.930 . S
C1118 C1119 1.367 . S
C1118 C1126 1.378 . S
C1119 C1118 1.367 . S
C1119 C1127 1.433 . S
C1120 H1116 0.929 . S
C1120 C1122 1.378 . S
C1120 C1124 1.350 . S
C1121 C1124 1.463 . S
C1121 C1126 1.350 . S
C1121 N1129 1.427 . S
C1122 H1113 0.930 . S
C1122 C1120 1.378 . S
C1122 C1123 1.367 . S
C1123 C1122 1.367 . S
C1123 C1125 1.433 . S
C1124 C1120 1.350 . S
C1124 C1121 1.463 . S
C1124 N1128 1.427 . S
C1125 H1115 0.929 . S
C1125 C1123 1.433 . S
C1125 N1128 1.384 . S
C1126 H1117 0.929 . S
C1126 C1118 1.378 . S
C1126 C1121 1.350 . S
C1127 H1114 0.929 . S
C1127 C1119 1.433 . S
C1127 N1129 1.384 . S
N1128 C1124 1.427 . S
N1128 C1125 1.384 . S
N1129 C1121 1.427 . S
N1129 C1127 1.384 . S
H1130 C1136 0.930 . S
H1131 C1140 0.930 . S
H1132 C1145 0.929 . S
H1133 C1143 0.929 . S
H1134 C1138 0.929 . S
H1135 C1144 0.929 . S
C1136 H1130 0.930 . S
C1136 C1137 1.367 . S
C1136 C1144 1.378 . S
C1137 C1136 1.367 . S
C1137 C1145 1.433 . S
C1138 H1134 0.929 . S
C1138 C1140 1.378 . S
C1138 C1142 1.350 . S
C1139 C1142 1.463 . S
C1139 C1144 1.350 . S
C1139 N1147 1.427 . S
C1140 H1131 0.930 . S
C1140 C1138 1.378 . S
C1140 C1141 1.367 . S
C1141 C1140 1.367 . S
C1141 C1143 1.433 . S
C1142 C1138 1.350 . S
C1142 C1139 1.463 . S
C1142 N1146 1.427 . S
C1143 H1133 0.929 . S
C1143 C1141 1.433 . S
C1143 N1146 1.384 . S
C1144 H1135 0.929 . S
C1144 C1136 1.378 . S
C1144 C1139 1.350 . S
C1145 H1132 0.929 . S
C1145 C1137 1.433 . S
C1145 N1147 1.384 . S
N1146 C1142 1.427 . S
N1146 C1143 1.384 . S
N1147 C1139 1.427 . S
N1147 C1145 1.384 . S
H1148 C1154 0.930 . S
H1149 C1158 0.930 . S
H1150 C1163 0.929 . S
H1151 C1161 0.929 . S
H1152 C1156 0.929 . S
H1153 C1162 0.929 . S
C1154 H1148 0.930 . S
C1154 C1155 1.367 . S
C1154 C1162 1.378 . S
C1155 C1154 1.367 . S
C1155 C1163 1.433 . S
C1156 H1152 0.929 . S
C1156 C1158 1.378 . S
C1156 C1160 1.350 . S
C1157 C1160 1.463 . S
C1157 C1162 1.350 . S
C1157 N1165 1.427 . S
C1158 H1149 0.930 . S
C1158 C1156 1.378 . S
C1158 C1159 1.367 . S
C1159 C1158 1.367 . S
C1159 C1161 1.433 . S
C1160 C1156 1.350 . S
C1160 C1157 1.463 . S
C1160 N1164 1.427 . S
C1161 H1151 0.929 . S
C1161 C1159 1.433 . S
C1161 N1164 1.384 . S
C1162 H1153 0.929 . S
C1162 C1154 1.378 . S
C1162 C1157 1.350 . S
C1163 H1150 0.929 . S
C1163 C1155 1.433 . S
C1163 N1165 1.384 . S
N1164 C1160 1.427 . S
N1164 C1161 1.384 . S
N1165 C1157 1.427 . S
N1165 C1163 1.384 . S
H1166 C1172 0.930 . S
H1167 C1176 0.930 . S
H1168 C1181 0.929 . S
H1169 C1179 0.929 . S
H1170 C1174 0.929 . S
H1171 C1180 0.929 . S
C1172 H1166 0.930 . S
C1172 C1173 1.367 . S
C1172 C1180 1.378 . S
C1173 C1172 1.367 . S
C1173 C1181 1.433 . S
C1174 H1170 0.929 . S
C1174 C1176 1.378 . S
C1174 C1178 1.350 . S
C1175 C1178 1.463 . S
C1175 C1180 1.350 . S
C1175 N1183 1.427 . S
C1176 H1167 0.930 . S
C1176 C1174 1.378 . S
C1176 C1177 1.367 . S
C1177 C1176 1.367 . S
C1177 C1179 1.433 . S
C1178 C1174 1.350 . S
C1178 C1175 1.463 . S
C1178 N1182 1.427 . S
C1179 H1169 0.929 . S
C1179 C1177 1.433 . S
C1179 N1182 1.384 . S
C1180 H1171 0.929 . S
C1180 C1172 1.378 . S
C1180 C1175 1.350 . S
C1181 H1168 0.929 . S
C1181 C1173 1.433 . S
C1181 N1183 1.384 . S
N1182 C1178 1.427 . S
N1182 C1179 1.384 . S
N1183 C1175 1.427 . S
N1183 C1181 1.384 . S
H1184 C1190 0.930 . S
H1185 C1194 0.930 . S
H1186 C1199 0.929 . S
H1187 C1197 0.929 . S
H1188 C1192 0.929 . S
H1189 C1198 0.929 . S
C1190 H1184 0.930 . S
C1190 C1191 1.367 . S
C1190 C1198 1.378 . S
C1191 C1190 1.367 . S
C1191 C1199 1.433 . S
C1192 H1188 0.929 . S
C1192 C1194 1.378 . S
C1192 C1196 1.350 . S
C1193 C1196 1.463 . S
C1193 C1198 1.350 . S
C1193 N1201 1.427 . S
C1194 H1185 0.930 . S
C1194 C1192 1.378 . S
C1194 C1195 1.367 . S
C1195 C1194 1.367 . S
C1195 C1197 1.433 . S
C1196 C1192 1.350 . S
C1196 C1193 1.463 . S
C1196 N1200 1.427 . S
C1197 H1187 0.929 . S
C1197 C1195 1.433 . S
C1197 N1200 1.384 . S
C1198 H1189 0.929 . S
C1198 C1190 1.378 . S
C1198 C1193 1.350 . S
C1199 H1186 0.929 . S
C1199 C1191 1.433 . S
C1199 N1201 1.384 . S
N1200 C1196 1.427 . S
N1200 C1197 1.384 . S
N1201 C1193 1.427 . S
N1201 C1199 1.384 . S
H1202 C1208 0.930 . S
H1203 C1212 0.930 . S
H1204 C1217 0.929 . S
H1205 C1215 0.929 . S
H1206 C1210 0.929 . S
H1207 C1216 0.929 . S
C1208 H1202 0.930 . S
C1208 C1209 1.367 . S
C1208 C1216 1.378 . S
C1209 C1208 1.367 . S
C1209 C1217 1.433 . S
C1210 H1206 0.929 . S
C1210 C1212 1.378 . S
C1210 C1214 1.350 . S
C1211 C1214 1.463 1_554 S
C1211 C1216 1.350 . S
C1211 N1219 1.427 . S
C1212 H1203 0.930 . S
C1212 C1210 1.378 . S
C1212 C1213 1.367 . S
C1213 C1212 1.367 . S
C1213 C1215 1.433 . S
C1214 C1210 1.350 . S
C1214 C1211 1.463 1_556 S
C1214 N1218 1.427 . S
C1215 H1205 0.929 . S
C1215 C1213 1.433 . S
C1215 N1218 1.384 . S
C1216 H1207 0.929 . S
C1216 C1208 1.378 . S
C1216 C1211 1.350 . S
C1217 H1204 0.929 . S
C1217 C1209 1.433 . S
C1217 N1219 1.384 . S
N1218 C1214 1.427 . S
N1218 C1215 1.384 . S
N1219 C1211 1.427 . S
N1219 C1217 1.384 . S
H1220 C1226 0.930 . S
H1221 C1230 0.930 . S
H1222 C1235 0.929 . S
H1223 C1233 0.929 . S
H1224 C1228 0.929 . S
H1225 C1234 0.929 . S
C1226 H1220 0.930 . S
C1226 C1227 1.367 . S
C1226 C1234 1.378 . S
C1227 C1226 1.367 . S
C1227 C1235 1.433 . S
C1228 H1224 0.929 . S
C1228 C1230 1.378 . S
C1228 C1232 1.350 . S
C1229 C1232 1.463 . S
C1229 C1234 1.350 . S
C1229 N1237 1.427 . S
C1230 H1221 0.930 . S
C1230 C1228 1.378 . S
C1230 C1231 1.367 . S
C1231 C1230 1.367 . S
C1231 C1233 1.433 . S
C1232 C1228 1.350 . S
C1232 C1229 1.463 . S
C1232 N1236 1.427 . S
C1233 H1223 0.929 . S
C1233 C1231 1.433 . S
C1233 N1236 1.384 . S
C1234 H1225 0.929 . S
C1234 C1226 1.378 . S
C1234 C1229 1.350 . S
C1235 H1222 0.929 . S
C1235 C1227 1.433 . S
C1235 N1237 1.384 . S
N1236 C1232 1.427 . S
N1236 C1233 1.384 . S
N1237 C1229 1.427 . S
N1237 C1235 1.384 . S
H1238 C1244 0.930 . S
H1239 C1248 0.930 . S
H1240 C1253 0.929 . S
H1241 C1251 0.929 . S
H1242 C1246 0.929 . S
H1243 C1252 0.929 . S
C1244 H1238 0.930 . S
C1244 C1245 1.367 . S
C1244 C1252 1.378 . S
C1245 C1244 1.367 . S
C1245 C1253 1.433 . S
C1246 H1242 0.929 . S
C1246 C1248 1.378 . S
C1246 C1250 1.350 . S
C1247 C1250 1.463 1_556 S
C1247 C1252 1.350 . S
C1247 N1255 1.427 . S
C1248 H1239 0.930 . S
C1248 C1246 1.378 . S
C1248 C1249 1.367 . S
C1249 C1248 1.367 . S
C1249 C1251 1.433 . S
C1250 C1246 1.350 . S
C1250 C1247 1.463 1_554 S
C1250 N1254 1.427 . S
C1251 H1241 0.929 . S
C1251 C1249 1.433 . S
C1251 N1254 1.384 . S
C1252 H1243 0.929 . S
C1252 C1244 1.378 . S
C1252 C1247 1.350 . S
C1253 H1240 0.929 . S
C1253 C1245 1.433 . S
C1253 N1255 1.384 . S
N1254 C1250 1.427 . S
N1254 C1251 1.384 . S
N1255 C1247 1.427 . S
N1255 C1253 1.384 . S
H1256 C1262 0.930 . S
H1257 C1266 0.930 . S
H1258 C1271 0.929 . S
H1259 C1269 0.929 . S
H1260 C1264 0.929 . S
H1261 C1270 0.929 . S
C1262 H1256 0.930 . S
C1262 C1263 1.367 . S
C1262 C1270 1.378 . S
C1263 C1262 1.367 . S
C1263 C1271 1.433 . S
C1264 H1260 0.929 . S
C1264 C1266 1.378 . S
C1264 C1268 1.350 . S
C1265 C1268 1.463 . S
C1265 C1270 1.350 . S
C1265 N1273 1.427 . S
C1266 H1257 0.930 . S
C1266 C1264 1.378 . S
C1266 C1267 1.367 . S
C1267 C1266 1.367 . S
C1267 C1269 1.433 . S
C1268 C1264 1.350 . S
C1268 C1265 1.463 . S
C1268 N1272 1.427 . S
C1269 H1259 0.929 . S
C1269 C1267 1.433 . S
C1269 N1272 1.384 . S
C1270 H1261 0.929 . S
C1270 C1262 1.378 . S
C1270 C1265 1.350 . S
C1271 H1258 0.929 . S
C1271 C1263 1.433 . S
C1271 N1273 1.384 . S
N1272 C1268 1.427 . S
N1272 C1269 1.384 . S
N1273 C1265 1.427 . S
N1273 C1271 1.384 . S
H1274 C1280 0.930 . S
H1275 C1284 0.930 . S
H1276 C1289 0.929 . S
H1277 C1287 0.929 . S
H1278 C1282 0.929 . S
H1279 C1288 0.929 . S
C1280 H1274 0.930 . S
C1280 C1281 1.367 . S
C1280 C1288 1.378 . S
C1281 C1280 1.367 . S
C1281 C1289 1.433 . S
C1282 H1278 0.929 . S
C1282 C1284 1.378 . S
C1282 C1286 1.350 . S
C1283 C1286 1.463 1_556 S
C1283 C1288 1.350 . S
C1283 N1291 1.427 . S
C1284 H1275 0.930 . S
C1284 C1282 1.378 . S
C1284 C1285 1.367 . S
C1285 C1284 1.367 . S
C1285 C1287 1.433 . S
C1286 C1282 1.350 . S
C1286 C1283 1.463 1_554 S
C1286 N1290 1.427 . S
C1287 H1277 0.929 . S
C1287 C1285 1.433 . S
C1287 N1290 1.384 . S
C1288 H1279 0.929 . S
C1288 C1280 1.378 . S
C1288 C1283 1.350 . S
C1289 H1276 0.929 . S
C1289 C1281 1.433 . S
C1289 N1291 1.384 . S
N1290 C1286 1.427 . S
N1290 C1287 1.384 . S
N1291 C1283 1.427 . S
N1291 C1289 1.384 . S
H1292 C1298 0.930 . S
H1293 C1302 0.930 . S
H1294 C1307 0.929 . S
H1295 C1305 0.929 . S
H1296 C1300 0.929 . S
H1297 C1306 0.929 . S
C1298 H1292 0.930 . S
C1298 C1299 1.367 . S
C1298 C1306 1.378 . S
C1299 C1298 1.367 . S
C1299 C1307 1.433 . S
C1300 H1296 0.929 . S
C1300 C1302 1.378 . S
C1300 C1304 1.350 . S
C1301 C1304 1.463 . S
C1301 C1306 1.350 . S
C1301 N1309 1.427 . S
C1302 H1293 0.930 . S
C1302 C1300 1.378 . S
C1302 C1303 1.367 . S
C1303 C1302 1.367 . S
C1303 C1305 1.433 . S
C1304 C1300 1.350 . S
C1304 C1301 1.463 . S
C1304 N1308 1.427 . S
C1305 H1295 0.929 . S
C1305 C1303 1.433 . S
C1305 N1308 1.384 . S
C1306 H1297 0.929 . S
C1306 C1298 1.378 . S
C1306 C1301 1.350 . S
C1307 H1294 0.929 . S
C1307 C1299 1.433 . S
C1307 N1309 1.384 . S
N1308 C1304 1.427 . S
N1308 C1305 1.384 . S
N1309 C1301 1.427 . S
N1309 C1307 1.384 . S
H1310 C1316 0.930 . S
H1311 C1320 0.930 . S
H1312 C1325 0.929 . S
H1313 C1323 0.929 . S
H1314 C1318 0.929 . S
H1315 C1324 0.929 . S
C1316 H1310 0.930 . S
C1316 C1317 1.367 . S
C1316 C1324 1.378 . S
C1317 C1316 1.367 . S
C1317 C1325 1.433 . S
C1318 H1314 0.929 . S
C1318 C1320 1.378 . S
C1318 C1322 1.350 . S
C1319 C1322 1.463 1_556 S
C1319 C1324 1.350 . S
C1319 N1327 1.427 . S
C1320 H1311 0.930 . S
C1320 C1318 1.378 . S
C1320 C1321 1.367 . S
C1321 C1320 1.367 . S
C1321 C1323 1.433 . S
C1322 C1318 1.350 . S
C1322 C1319 1.463 1_554 S
C1322 N1326 1.427 . S
C1323 H1313 0.929 . S
C1323 C1321 1.433 . S
C1323 N1326 1.384 . S
C1324 H1315 0.929 . S
C1324 C1316 1.378 . S
C1324 C1319 1.350 . S
C1325 H1312 0.929 . S
C1325 C1317 1.433 . S
C1325 N1327 1.384 . S
N1326 C1322 1.427 . S
N1326 C1323 1.384 . S
N1327 C1319 1.427 . S
N1327 C1325 1.384 . S
H1328 C1334 0.930 . S
H1329 C1338 0.930 . S
H1330 C1343 0.929 . S
H1331 C1341 0.929 . S
H1332 C1336 0.929 . S
H1333 C1342 0.929 . S
C1334 H1328 0.930 . S
C1334 C1335 1.367 . S
C1334 C1342 1.378 . S
C1335 C1334 1.367 . S
C1335 C1343 1.433 . S
C1336 H1332 0.929 . S
C1336 C1338 1.378 . S
C1336 C1340 1.350 . S
C1337 C1340 1.463 . S
C1337 C1342 1.350 . S
C1337 N1345 1.427 . S
C1338 H1329 0.930 . S
C1338 C1336 1.378 . S
C1338 C1339 1.367 . S
C1339 C1338 1.367 . S
C1339 C1341 1.433 . S
C1340 C1336 1.350 . S
C1340 C1337 1.463 . S
C1340 N1344 1.427 . S
C1341 H1331 0.929 . S
C1341 C1339 1.433 . S
C1341 N1344 1.384 . S
C1342 H1333 0.929 . S
C1342 C1334 1.378 . S
C1342 C1337 1.350 . S
C1343 H1330 0.929 . S
C1343 C1335 1.433 . S
C1343 N1345 1.384 . S
N1344 C1340 1.427 . S
N1344 C1341 1.384 . S
N1345 C1337 1.427 . S
N1345 C1343 1.384 . S
H1346 C1352 0.930 . S
H1347 C1356 0.930 . S
H1348 C1361 0.929 . S
H1349 C1359 0.929 . S
H1350 C1354 0.929 . S
H1351 C1360 0.929 . S
C1352 H1346 0.930 . S
C1352 C1353 1.367 . S
C1352 C1360 1.378 . S
C1353 C1352 1.367 . S
C1353 C1361 1.433 . S
C1354 H1350 0.929 . S
C1354 C1356 1.378 . S
C1354 C1358 1.350 . S
C1355 C1358 1.463 1_556 S
C1355 C1360 1.350 . S
C1355 N1363 1.427 . S
C1356 H1347 0.930 . S
C1356 C1354 1.378 . S
C1356 C1357 1.367 . S
C1357 C1356 1.367 . S
C1357 C1359 1.433 . S
C1358 C1354 1.350 . S
C1358 C1355 1.463 1_554 S
C1358 N1362 1.427 . S
C1359 H1349 0.929 . S
C1359 C1357 1.433 . S
C1359 N1362 1.384 . S
C1360 H1351 0.929 . S
C1360 C1352 1.378 . S
C1360 C1355 1.350 . S
C1361 H1348 0.929 . S
C1361 C1353 1.433 . S
C1361 N1363 1.384 . S
N1362 C1358 1.427 . S
N1362 C1359 1.384 . S
N1363 C1355 1.427 . S
N1363 C1361 1.384 . S
H1364 C1370 0.930 . S
H1365 C1374 0.930 . S
H1366 C1379 0.929 . S
H1367 C1377 0.929 . S
H1368 C1372 0.929 . S
H1369 C1378 0.929 . S
C1370 H1364 0.930 . S
C1370 C1371 1.367 . S
C1370 C1378 1.378 . S
C1371 C1370 1.367 . S
C1371 C1379 1.433 . S
C1372 H1368 0.929 . S
C1372 C1374 1.378 . S
C1372 C1376 1.350 . S
C1373 C1376 1.463 . S
C1373 C1378 1.350 . S
C1373 N1381 1.427 . S
C1374 H1365 0.930 . S
C1374 C1372 1.378 . S
C1374 C1375 1.367 . S
C1375 C1374 1.367 . S
C1375 C1377 1.433 . S
C1376 C1372 1.350 . S
C1376 C1373 1.463 . S
C1376 N1380 1.427 . S
C1377 H1367 0.929 . S
C1377 C1375 1.433 . S
C1377 N1380 1.384 . S
C1378 H1369 0.929 . S
C1378 C1370 1.378 . S
C1378 C1373 1.350 . S
C1379 H1366 0.929 . S
C1379 C1371 1.433 . S
C1379 N1381 1.384 . S
N1380 C1376 1.427 . S
N1380 C1377 1.384 . S
N1381 C1373 1.427 . S
N1381 C1379 1.384 . S
H1382 C1388 0.930 . S
H1383 C1392 0.930 . S
H1384 C1397 0.929 . S
H1385 C1395 0.929 . S
H1386 C1390 0.929 . S
H1387 C1396 0.929 . S
C1388 H1382 0.930 . S
C1388 C1389 1.367 . S
C1388 C1396 1.378 . S
C1389 C1388 1.367 . S
C1389 C1397 1.433 . S
C1390 H1386 0.929 . S
C1390 C1392 1.378 . S
C1390 C1394 1.350 . S
C1391 C1394 1.463 1_554 S
C1391 C1396 1.350 . S
C1391 N1399 1.427 . S
C1392 H1383 0.930 . S
C1392 C1390 1.378 . S
C1392 C1393 1.367 . S
C1393 C1392 1.367 . S
C1393 C1395 1.433 . S
C1394 C1390 1.350 . S
C1394 C1391 1.463 1_556 S
C1394 N1398 1.427 . S
C1395 H1385 0.929 . S
C1395 C1393 1.433 . S
C1395 N1398 1.384 . S
C1396 H1387 0.929 . S
C1396 C1388 1.378 . S
C1396 C1391 1.350 . S
C1397 H1384 0.929 . S
C1397 C1389 1.433 . S
C1397 N1399 1.384 . S
N1398 C1394 1.427 . S
N1398 C1395 1.384 . S
N1399 C1391 1.427 . S
N1399 C1397 1.384 . S
H1400 C1406 0.930 . S
H1401 C1410 0.930 . S
H1402 C1415 0.929 . S
H1403 C1413 0.929 . S
H1404 C1408 0.929 . S
H1405 C1414 0.929 . S
C1406 H1400 0.930 . S
C1406 C1407 1.367 . S
C1406 C1414 1.378 . S
C1407 C1406 1.367 . S
C1407 C1415 1.433 . S
C1408 H1404 0.929 . S
C1408 C1410 1.378 . S
C1408 C1412 1.350 . S
C1409 C1412 1.463 . S
C1409 C1414 1.350 . S
C1409 N1417 1.427 . S
C1410 H1401 0.930 . S
C1410 C1408 1.378 . S
C1410 C1411 1.367 . S
C1411 C1410 1.367 . S
C1411 C1413 1.433 . S
C1412 C1408 1.350 . S
C1412 C1409 1.463 . S
C1412 N1416 1.427 . S
C1413 H1403 0.929 . S
C1413 C1411 1.433 . S
C1413 N1416 1.384 . S
C1414 H1405 0.929 . S
C1414 C1406 1.378 . S
C1414 C1409 1.350 . S
C1415 H1402 0.929 . S
C1415 C1407 1.433 . S
C1415 N1417 1.384 . S
N1416 C1412 1.427 . S
N1416 C1413 1.384 . S
N1417 C1409 1.427 . S
N1417 C1415 1.384 . S
H1418 C1424 0.930 . S
H1419 C1428 0.930 . S
H1420 C1433 0.929 . S
H1421 C1431 0.929 . S
H1422 C1426 0.929 . S
H1423 C1432 0.929 . S
C1424 H1418 0.930 . S
C1424 C1425 1.367 . S
C1424 C1432 1.378 . S
C1425 C1424 1.367 . S
C1425 C1433 1.433 . S
C1426 H1422 0.929 . S
C1426 C1428 1.378 . S
C1426 C1430 1.350 . S
C1427 C1430 1.463 1_554 S
C1427 C1432 1.350 . S
C1427 N1435 1.427 . S
C1428 H1419 0.930 . S
C1428 C1426 1.378 . S
C1428 C1429 1.367 . S
C1429 C1428 1.367 . S
C1429 C1431 1.433 . S
C1430 C1426 1.350 . S
C1430 C1427 1.463 1_556 S
C1430 N1434 1.427 . S
C1431 H1421 0.929 . S
C1431 C1429 1.433 . S
C1431 N1434 1.384 . S
C1432 H1423 0.929 . S
C1432 C1424 1.378 . S
C1432 C1427 1.350 . S
C1433 H1420 0.929 . S
C1433 C1425 1.433 . S
C1433 N1435 1.384 . S
N1434 C1430 1.427 . S
N1434 C1431 1.384 . S
N1435 C1427 1.427 . S
N1435 C1433 1.384 . S
H1436 C1442 0.930 . S
H1437 C1446 0.930 . S
H1438 C1451 0.929 . S
H1439 C1449 0.929 . S
H1440 C1444 0.929 . S
H1441 C1450 0.929 . S
C1442 H1436 0.930 . S
C1442 C1443 1.367 . S
C1442 C1450 1.378 . S
C1443 C1442 1.367 . S
C1443 C1451 1.433 . S
C1444 H1440 0.929 . S
C1444 C1446 1.378 . S
C1444 C1448 1.350 . S
C1445 C1448 1.463 . S
C1445 C1450 1.350 . S
C1445 N1453 1.427 . S
C1446 H1437 0.930 . S
C1446 C1444 1.378 . S
C1446 C1447 1.367 . S
C1447 C1446 1.367 . S
C1447 C1449 1.433 . S
C1448 C1444 1.350 . S
C1448 C1445 1.463 . S
C1448 N1452 1.427 . S
C1449 H1439 0.929 . S
C1449 C1447 1.433 . S
C1449 N1452 1.384 . S
C1450 H1441 0.929 . S
C1450 C1442 1.378 . S
C1450 C1445 1.350 . S
C1451 H1438 0.929 . S
C1451 C1443 1.433 . S
C1451 N1453 1.384 . S
N1452 C1448 1.427 . S
N1452 C1449 1.384 . S
N1453 C1445 1.427 . S
N1453 C1451 1.384 . S
H1454 C1460 0.930 . S
H1455 C1464 0.930 . S
H1456 C1469 0.929 . S
H1457 C1467 0.929 . S
H1458 C1462 0.929 . S
H1459 C1468 0.929 . S
C1460 H1454 0.930 . S
C1460 C1461 1.367 . S
C1460 C1468 1.378 . S
C1461 C1460 1.367 . S
C1461 C1469 1.433 . S
C1462 H1458 0.929 . S
C1462 C1464 1.378 . S
C1462 C1466 1.350 . S
C1463 C1466 1.463 1_554 S
C1463 C1468 1.350 . S
C1463 N1471 1.427 . S
C1464 H1455 0.930 . S
C1464 C1462 1.378 . S
C1464 C1465 1.367 . S
C1465 C1464 1.367 . S
C1465 C1467 1.433 . S
C1466 C1462 1.350 . S
C1466 C1463 1.463 1_556 S
C1466 N1470 1.427 . S
C1467 H1457 0.929 . S
C1467 C1465 1.433 . S
C1467 N1470 1.384 . S
C1468 H1459 0.929 . S
C1468 C1460 1.378 . S
C1468 C1463 1.350 . S
C1469 H1456 0.929 . S
C1469 C1461 1.433 . S
C1469 N1471 1.384 . S
N1470 C1466 1.427 . S
N1470 C1467 1.384 . S
N1471 C1463 1.427 . S
N1471 C1469 1.384 . S
C471 C184 1.567 . S
C475 C10 1.552 . S
C489 C39 1.558 . S
C493 C213 1.560 . S
C507 C126 1.552 . S
C511 C68 1.567 . S
C525 C155 1.552 . S
C529 C97 1.566 . S
C543 C242 1.554 . S
C547 C416 1.565 . S
C561 C445 1.563 . S
C565 C271 1.555 . S
C579 C358 1.553 . S
C583 C300 1.566 . S
C597 C387 1.552 . S
C601 C329 1.566 . S
C615 C13 1.034 . S
C619 C438 1.022 . S
C633 C42 1.037 . S
C637 C409 1.024 . S
C651 C380 1.038 . S
C655 C71 1.016 . S
C669 C351 1.041 . S
C673 C100 1.017 . S
C687 C322 1.041 . S
C691 C129 1.026 . S
C705 C293 1.022 . S
C709 C158 1.034 . S
C723 C264 1.024 . S
C727 C187 1.037 . S
C741 C235 1.025 . S
C745 C216 1.025 . S
C759 C206 1.029 . S
C763 C245 1.037 . S
C777 C274 1.036 . S
C781 C177 1.023 . S
C795 C303 1.017 . S
C799 C148 1.040 . S
C813 C119 1.029 . S
C817 C332 1.020 . S
C831 C361 1.038 . S
C835 C90 1.028 . S
C849 C61 1.022 . S
C853 C390 1.034 . S
C867 C419 1.016 . S
C871 C32 1.038 . S
C885 C448 1.022 . S
C889 C3 1.027 . S
C903 C66 1.342 1_554 S
C907 C8 1.337 1_556 S
C921 C37 1.346 . S
C925 C95 1.338 . S
C939 C124 1.337 1_554 S
C943 C182 1.342 1_556 S
C957 C211 1.337 . S
C961 C153 1.343 . S
C975 C298 1.340 1_554 S
C979 C240 1.337 1_556 S
C993 C269 1.338 . S
C997 C327 1.339 . S
C1011 C414 1.359 1_556 S
C1015 C356 1.352 1_554 S
C1029 C443 1.356 . S
C1033 C385 1.361 . S
C1047 C5 1.323 . S
C1051 C92 1.336 . S
C1065 C34 1.335 . S
C1069 C63 1.324 . S
C1083 C208 1.336 . S
C1087 C121 1.323 . S
C1101 C150 1.323 . S
C1105 C179 1.336 . S
C1119 C324 1.326 . S
C1123 C237 1.334 . S
C1137 C266 1.326 . S
C1141 C295 1.332 . S
C1155 C440 1.336 . S
C1159 C353 1.324 . S
C1173 C411 1.325 . S
C1177 C382 1.333 . S
C1191 C15 2.127 . S
C1195 C21 2.001 . S
C1209 C44 2.122 . S
C1213 C50 2.013 . S
C1227 C79 2.012 . S
C1231 C73 2.120 . S
C1245 C102 2.120 . S
C1249 C108 2.013 . S
C1263 C131 2.121 . S
C1267 C137 1.998 . S
C1281 C160 2.123 . S
C1285 C166 1.997 . S
C1299 C189 2.123 . S
C1303 C195 2.012 . S
C1317 C224 1.998 . S
C1321 C218 2.125 . S
C1335 C247 2.127 . S
C1339 C253 2.001 . S
C1353 C282 2.013 . S
C1357 C276 2.121 . S
C1371 C311 1.997 . S
C1375 C305 2.124 . S
C1389 C340 1.997 . S
C1393 C334 2.123 . S
C1407 C363 2.120 . S
C1411 C369 2.013 . S
C1425 C398 1.999 . S
C1429 C392 2.126 . S
C1443 C421 2.118 . S
C1447 C427 2.007 . S
C1461 C450 2.118 . S
C1465 C456 2.007 . S
