# Generated by pormake.
# Topology umj, (4)-cn, num edge types: 1
# Building blocks:
#     Node 0, Type 0, BuildingBlock: ICAMEG_clean_sbu_1, # of connection points: 4
#     Node 1, Type 0, BuildingBlock: ICAMEG_clean_sbu_1, # of connection points: 4
#     Node 2, Type 0, BuildingBlock: ICAMEG_clean_sbu_1, # of connection points: 4
#     Node 3, Type 0, BuildingBlock: ICAMEG_clean_sbu_1, # of connection points: 4
#     Node 4, Type 0, BuildingBlock: ICAMEG_clean_sbu_1, # of connection points: 4
#     Node 5, Type 0, BuildingBlock: ICAMEG_clean_sbu_1, # of connection points: 4
#     Node 6, Type 0, BuildingBlock: ICAMEG_clean_sbu_1, # of connection points: 4
#     Node 7, Type 0, BuildingBlock: ICAMEG_clean_sbu_1, # of connection points: 4
#     Node 8, Type 0, BuildingBlock: ICAMEG_clean_sbu_1, # of connection points: 4
#     Node 9, Type 0, BuildingBlock: ICAMEG_clean_sbu_1, # of connection points: 4
#     Node 10, Type 0, BuildingBlock: ICAMEG_clean_sbu_1, # of connection points: 4
#     Node 11, Type 0, BuildingBlock: ICAMEG_clean_sbu_1, # of connection points: 4
#     Edge 12, Type (0, 0), BuildingBlock: AJUNOK_clean_linker_0, # of connection points: 2
#     Edge 13, Type (0, 0), BuildingBlock: AJUNOK_clean_linker_0, # of connection points: 2
#     Edge 14, Type (0, 0), BuildingBlock: AJUNOK_clean_linker_0, # of connection points: 2
#     Edge 15, Type (0, 0), BuildingBlock: AJUNOK_clean_linker_0, # of connection points: 2
#     Edge 16, Type (0, 0), BuildingBlock: AJUNOK_clean_linker_0, # of connection points: 2
#     Edge 17, Type (0, 0), BuildingBlock: AJUNOK_clean_linker_0, # of connection points: 2
#     Edge 18, Type (0, 0), BuildingBlock: AJUNOK_clean_linker_0, # of connection points: 2
#     Edge 19, Type (0, 0), BuildingBlock: AJUNOK_clean_linker_0, # of connection points: 2
#     Edge 20, Type (0, 0), BuildingBlock: AJUNOK_clean_linker_0, # of connection points: 2
#     Edge 21, Type (0, 0), BuildingBlock: AJUNOK_clean_linker_0, # of connection points: 2
#     Edge 22, Type (0, 0), BuildingBlock: AJUNOK_clean_linker_0, # of connection points: 2
#     Edge 23, Type (0, 0), BuildingBlock: AJUNOK_clean_linker_0, # of connection points: 2
#     Edge 24, Type (0, 0), BuildingBlock: AJUNOK_clean_linker_0, # of connection points: 2
#     Edge 25, Type (0, 0), BuildingBlock: AJUNOK_clean_linker_0, # of connection points: 2
#     Edge 26, Type (0, 0), BuildingBlock: AJUNOK_clean_linker_0, # of connection points: 2
#     Edge 27, Type (0, 0), BuildingBlock: AJUNOK_clean_linker_0, # of connection points: 2
#     Edge 28, Type (0, 0), BuildingBlock: AJUNOK_clean_linker_0, # of connection points: 2
#     Edge 29, Type (0, 0), BuildingBlock: AJUNOK_clean_linker_0, # of connection points: 2
#     Edge 30, Type (0, 0), BuildingBlock: AJUNOK_clean_linker_0, # of connection points: 2
#     Edge 31, Type (0, 0), BuildingBlock: AJUNOK_clean_linker_0, # of connection points: 2
#     Edge 32, Type (0, 0), BuildingBlock: AJUNOK_clean_linker_0, # of connection points: 2
#     Edge 33, Type (0, 0), BuildingBlock: AJUNOK_clean_linker_0, # of connection points: 2
#     Edge 34, Type (0, 0), BuildingBlock: AJUNOK_clean_linker_0, # of connection points: 2
#     Edge 35, Type (0, 0), BuildingBlock: AJUNOK_clean_linker_0, # of connection points: 2
# Relax obj value: 0.070
# Max RMSD: 0.260
# Mean RMSD: 0.227
data_MOF--net-umj--node1-ICAMEG_clean_sbu_1--edge1-AJUNOK_clean_linker_0
_symmetry_space_group_name_H-M    P1
_symmetry_Int_Tables_number       1
_symmetry_cell_setting            triclinic
loop_
_symmetry_equiv_pos_as_xyz
'x, y, z'
_cell_length_a     22.861118
_cell_length_b     22.853288
_cell_length_c     65.610001
_cell_angle_alpha  89.991843
_cell_angle_beta   89.998667
_cell_angle_gamma 120.00373
loop_
_atom_site_label
_atom_site_type_symbol
_atom_site_fract_x
_atom_site_fract_y
_atom_site_fract_z
_atom_type_partial_charge
Co0 Co 0.12654 0.28349 0.09798 0.0
Co1 Co 0.97671 0.23209 0.07262 0.0
O2 O 0.03963 0.27766 0.09455 0.0
C3 C 0.0442 0.21378 0.13404 0.0
O4 O 0.99825 0.17542 0.12071 0.0
C5 C 0.01763 0.37622 0.06966 0.0
O6 O 0.07915 0.38633 0.07114 0.0
O7 O 0.04957 0.26913 0.05218 0.0
O8 O 0.14906 0.30566 0.06805 0.0
H9 H 0.88981 0.09035 1.00931 0.0
H10 H 0.08666 0.36208 0.125 0.0
O11 O 0.1023 0.25974 0.12775 0.0
H12 H 0.29428 0.53125 0.09024 0.0
H13 H 0.33889 0.34651 0.13727 0.0
H14 H 0.21129 0.24303 0.07427 0.0
H15 H 0.24762 0.40955 0.08377 0.0
H16 H 0.22819 0.33773 0.13131 0.0
O17 O 0.96755 0.31558 0.06947 0.0
H18 H 0.96994 0.147 0.03753 0.0
H19 H 0.84748 0.22365 0.06024 0.0
H20 H 0.32216 0.25159 0.07941 0.0
H21 H 0.13178 0.48319 0.132 0.0
H22 H 0.38671 0.3035 0.11116 0.0
H23 H 0.23612 0.56873 0.11449 0.0
O24 O 0.08834 0.18612 0.09137 0.0
H25 H 0.84445 0.24393 0.1321 0.0
H26 H 0.86165 0.09442 0.08121 0.0
H27 H 0.76871 0.04639 0.10628 0.0
H28 H 0.7593 0.12153 0.1318 0.0
H29 H 0.93686 0.28968 0.10688 0.0
H30 H 0.76624 0.16834 0.03216 0.0
H31 H 0.78707 0.10082 1.00651 0.0
O32 O 0.98848 0.15016 0.07559 0.0
C33 C 0.11353 0.29588 0.05192 0.0
C34 C 0.88002 0.11937 0.02044 0.0
C35 C 0.81072 0.16324 0.03325 0.0
N36 N 0.91294 0.18793 0.05062 0.0
C37 C 0.92507 0.15134 0.0365 0.0
C38 C 0.85692 0.19454 0.04909 0.0
C39 C 0.82243 0.12535 0.01887 0.0
C40 C 0.13257 0.39894 0.11751 0.0
N41 N 0.16474 0.37875 0.10409 0.0
C42 C 0.15769 0.46747 0.12146 0.0
C43 C 0.21619 0.51545 0.1116 0.0
C44 C 0.24882 0.49445 0.09799 0.0
C45 C 0.22218 0.42549 0.09438 0.0
C46 C 0.31128 0.3238 0.12338 0.0
C47 C 0.23938 0.26626 0.088 0.0
C48 C 0.24848 0.31845 0.11996 0.0
N49 N 0.2135 0.29011 0.10241 0.0
C50 C 0.30201 0.27071 0.09088 0.0
C51 C 0.33812 0.29973 0.10871 0.0
C52 C 0.03551 0.14027 0.08249 0.0
C53 C 0.84772 0.21078 0.12095 0.0
C54 C 0.85814 0.12729 0.09238 0.0
C55 C 0.80528 0.09987 0.10648 0.0
C56 C 0.79999 0.14208 0.12078 0.0
N57 N 0.90424 0.19484 0.09249 0.0
C58 C 0.89984 0.23642 0.10661 0.0
Co59 Co 0.84152 0.12538 0.43034 0.0
Co60 Co 0.73591 0.97281 0.40728 0.0
O61 O 0.75833 0.03953 0.42841 0.0
C62 C 0.83225 0.04619 0.46696 0.0
O63 O 0.818 0.99673 0.45419 0.0
C64 C 0.6358 0.01813 0.40447 0.0
O65 O 0.68827 0.07917 0.40558 0.0
O66 O 0.77182 0.04268 0.38583 0.0
O67 O 0.83678 0.14421 0.40043 0.0
H68 H 0.77793 0.87185 0.34483 0.0
H69 H 0.72927 0.09209 0.45936 0.0
O70 O 0.8462 0.10428 0.46012 0.0
H71 H 0.76735 0.29783 0.42346 0.0
H72 H 1.00355 0.33966 0.46683 0.0
H73 H 0.96169 0.20577 0.40412 0.0
H74 H 0.83787 0.24682 0.41584 0.0
H75 H 0.89823 0.23055 0.46266 0.0
O76 O 0.6447 0.96699 0.4046 0.0
H77 H 0.80772 0.9572 0.37187 0.0
H78 H 0.61104 0.84403 0.39717 0.0
H79 H 0.06745 0.31471 0.40751 0.0
H80 H 0.65789 0.14164 0.46754 0.0
H81 H 0.08901 0.38251 0.43909 0.0
H82 H 0.67653 0.24508 0.44946 0.0
O83 O 0.89736 0.08425 0.42291 0.0
H84 H 0.59961 0.85573 0.46963 0.0
H85 H 0.75448 0.85604 0.41724 0.0
H86 H 0.71283 0.76953 0.44433 0.0
H87 H 0.63472 0.769 0.47075 0.0
H88 H 0.64301 0.94167 0.44239 0.0
H89 H 0.57878 0.75774 0.37027 0.0
H90 H 0.66272 0.77124 0.34393 0.0
O91 O 0.82815 0.981 0.40967 0.0
C92 C 0.80957 0.10655 0.38477 0.0
C93 C 0.741 0.86527 0.35627 0.0
C94 C 0.62919 0.80127 0.37053 0.0
N95 N 0.71133 0.90518 0.38617 0.0
C96 C 0.75766 0.91329 0.37166 0.0
C97 C 0.64766 0.85033 0.38569 0.0
C98 C 0.67632 0.80887 0.35576 0.0
C99 C 0.73823 0.13756 0.4516 0.0
N100 N 0.78796 0.1668 0.43723 0.0
C101 C 0.69743 0.1652 0.45623 0.0
C102 C 0.70787 0.2232 0.44606 0.0
C103 C 0.75879 0.2528 0.43146 0.0
C104 C 0.79853 0.22369 0.4272 0.0
C105 C 0.99487 0.31053 0.45302 0.0
C106 C 0.97074 0.23486 0.41788 0.0
C107 C 0.93547 0.24856 0.45062 0.0
N108 N 0.92409 0.21159 0.43321 0.0
C109 C 0.03071 0.29658 0.41973 0.0
C110 C 0.04276 0.33456 0.43745 0.0
C111 C 0.88685 0.02887 0.41497 0.0
C112 C 0.63338 0.85527 0.45815 0.0
C113 C 0.72057 0.85613 0.4287 0.0
C114 C 0.69706 0.80698 0.44398 0.0
C115 C 0.65319 0.80667 0.45879 0.0
N116 N 0.70083 0.90353 0.42818 0.0
C117 C 0.6579 0.90362 0.44265 0.0
Co118 Co 0.73751 0.84113 0.76342 0.0
Co119 Co 0.78134 0.73405 0.73974 0.0
O120 O 0.73747 0.75668 0.76103 0.0
C121 C 0.80212 0.82659 0.80049 0.0
O122 O 0.83744 0.81178 0.78793 0.0
C123 C 0.63574 0.63752 0.73638 0.0
O124 O 0.63012 0.69167 0.73753 0.0
O125 O 0.74903 0.77195 0.71843 0.0
O126 O 0.71732 0.84035 0.73336 0.0
H127 H 0.92533 0.77641 0.67751 0.0
H128 H 0.65261 0.7271 0.79122 0.0
O129 O 0.75958 0.8423 0.79337 0.0
H130 H 0.49363 0.77505 0.75414 0.0
H131 H 0.68609 1.00426 0.79957 0.0
H132 H 0.79046 0.96668 0.73891 0.0
H133 H 0.6163 0.84348 0.74792 0.0
H134 H 0.68538 0.8967 0.79501 0.0
O135 O 0.6947 0.64376 0.73676 0.0
H136 H 0.87031 0.80641 0.70465 0.0
H137 H 0.78207 0.60798 0.72898 0.0
H138 H 0.79173 0.0747 0.74273 0.0
H139 H 0.53044 0.65774 0.79799 0.0
H140 H 0.73931 0.09404 0.77326 0.0
H141 H 0.45002 0.68138 0.77931 0.0
O142 O 0.83513 0.89443 0.75716 0.0
H143 H 0.75846 0.59531 0.80182 0.0
H144 H 0.91508 0.74855 0.74954 0.0
H145 H 0.95821 0.70494 0.77655 0.0
H146 H 0.87955 0.62767 0.80294 0.0
H147 H 0.7177 0.64064 0.77465 0.0
H148 H 0.83551 0.57548 0.70194 0.0
H149 H 0.90804 0.66019 0.67604 0.0
O150 O 0.86655 0.82555 0.74237 0.0
C151 C 0.72544 0.81184 0.7176 0.0
C152 C 0.89405 0.73913 0.68875 0.0
C153 C 0.84357 0.62633 0.70245 0.0
N154 N 0.82371 0.70917 0.71849 0.0
C155 C 0.863 0.7559 0.7042 0.0
C156 C 0.81335 0.64494 0.71769 0.0
C157 C 0.88427 0.67389 0.68793 0.0
C158 C 0.61802 0.73826 0.78322 0.0
N159 N 0.64158 0.78958 0.7693 0.0
C160 C 0.54886 0.69861 0.78705 0.0
C161 C 0.50376 0.71186 0.77655 0.0
C162 C 0.52819 0.76439 0.76241 0.0
C163 C 0.59767 0.8029 0.75895 0.0
C164 C 0.70893 0.99638 0.78618 0.0
C165 C 0.767 0.97451 0.75213 0.0
C166 C 0.70879 0.93567 0.78354 0.0
N167 N 0.73728 0.92529 0.76662 0.0
C168 C 0.76813 0.03587 0.75426 0.0
C169 C 0.73879 0.04672 0.77141 0.0
C170 C 0.87938 0.88393 0.7488 0.0
C171 C 0.79315 0.62875 0.79037 0.0
C172 C 0.88069 0.7151 0.76099 0.0
C173 C 0.9053 0.69042 0.77622 0.0
C174 C 0.86114 0.64702 0.79101 0.0
N175 N 0.81397 0.69698 0.76048 0.0
C176 C 0.77034 0.65437 0.7749 0.0
Co177 Co 0.89429 0.72681 0.09757 0.0
Co178 Co 0.04494 0.76535 0.07456 0.0
O179 O 0.97722 0.72348 0.09567 0.0
C180 C 0.97356 0.79165 0.13468 0.0
O181 O 0.02459 0.82458 0.1222 0.0
C182 C 0.99216 0.61853 0.07135 0.0
O183 O 0.93267 0.61357 0.07255 0.0
O184 O 0.97549 0.73516 0.05306 0.0
O185 O 0.8752 0.70524 0.06758 0.0
H186 H 0.1511 0.90643 0.0121 0.0
H187 H 0.91936 0.64114 0.12626 0.0
O188 O 0.91498 0.75036 0.12749 0.0
H189 H 0.71099 0.48446 0.08937 0.0
H190 H 0.68149 0.6845 0.13298 0.0
H191 H 0.82456 0.78058 0.07205 0.0
H192 H 0.76906 0.60691 0.08234 0.0
H193 H 0.78651 0.67995 0.12904 0.0
O194 O 0.04532 0.67714 0.0717 0.0
H195 H 0.0658 0.8552 0.03936 0.0
H196 H 0.16924 0.76058 0.06417 0.0
H197 H 0.71969 0.78567 0.07524 0.0
H198 H 0.8627 0.51919 0.13387 0.0
H199 H 0.64736 0.73743 0.1059 0.0
H200 H 0.75787 0.43992 0.11529 0.0
O201 O 0.94123 0.82432 0.09073 0.0
H202 H 0.15373 0.73748 0.13755 0.0
H203 H 0.16894 0.89578 0.08398 0.0
H204 H 0.25454 0.93624 0.11131 0.0
H205 H 0.2472 0.85671 0.13835 0.0
H206 H 0.06882 0.69957 0.11008 0.0
H207 H 0.25541 0.81028 0.03707 0.0
H208 H 0.24675 0.88403 1.01085 0.0
O209 O 0.04257 0.85268 0.07712 0.0
C210 C 0.91221 0.71263 0.05199 0.0
C211 C 0.15559 0.87463 0.02349 0.0
C212 C 0.21408 0.82057 0.03749 0.0
N213 N 0.11305 0.80563 0.05345 0.0
C214 C 0.10762 0.84573 0.03901 0.0
C215 C 0.16512 0.79249 0.05277 0.0
C216 C 0.2092 0.86196 0.02278 0.0
C217 C 0.87332 0.60708 0.1183 0.0
N218 N 0.84725 0.63115 0.10398 0.0
C219 C 0.84162 0.53803 0.1226 0.0
C220 C 0.78284 0.49357 0.11216 0.0
C221 C 0.75654 0.51853 0.0976 0.0
C222 C 0.78966 0.58787 0.09367 0.0
C223 C 0.7125 0.70558 0.11954 0.0
C224 C 0.79309 0.75905 0.08535 0.0
C225 C 0.77207 0.7033 0.11725 0.0
N226 N 0.81131 0.72959 0.10028 0.0
C227 C 0.73388 0.76228 0.08711 0.0
C228 C 0.69337 0.73527 0.10433 0.0
C229 C 0.99756 0.86722 0.08286 0.0
C230 C 0.15751 0.77259 0.12585 0.0
C231 C 0.16525 0.86116 0.09577 0.0
C232 C 0.21399 0.88419 0.11115 0.0
C233 C 0.20989 0.83952 0.1263 0.0
N234 N 0.11388 0.79557 0.0955 0.0
C235 C 0.1097 0.75137 0.11022 0.0
Co236 Co 0.16756 0.89833 0.43257 0.0
Co237 Co 0.27413 0.04719 0.40777 0.0
O238 O 0.25214 0.98234 0.42954 0.0
C239 C 0.18349 0.98091 0.46886 0.0
O240 O 0.19577 0.02861 0.45561 0.0
C241 C 0.36966 0.99668 0.40463 0.0
O242 O 0.31529 0.93722 0.40621 0.0
O243 O 0.23467 0.97542 0.38702 0.0
O244 O 0.16671 0.87647 0.40258 0.0
H245 H 0.22932 0.14542 0.34516 0.0
H246 H 0.2827 0.92905 0.46007 0.0
O247 O 0.16812 0.92194 0.46243 0.0
H248 H 0.2316 0.71858 0.42455 0.0
H249 H 1.00588 0.68632 0.47013 0.0
H250 H 0.04071 0.82453 0.40874 0.0
H251 H 0.16376 0.77321 0.41793 0.0
H252 H 0.11305 0.79313 0.46493 0.0
O253 O 0.36389 0.04971 0.40465 0.0
H254 H 0.20031 0.06204 0.37275 0.0
H255 H 0.40026 0.1723 0.3959 0.0
H256 H 0.93313 0.71781 0.41318 0.0
H257 H 0.35151 0.87589 0.46723 0.0
H258 H 0.91518 0.6479 0.44408 0.0
H259 H 0.32625 0.77001 0.44935 0.0
O260 O 0.11433 0.94246 0.42593 0.0
H261 H 0.42035 0.17035 0.46792 0.0
H262 H 0.26115 0.16784 0.41675 0.0
H263 H 0.31033 0.25944 0.44223 0.0
H264 H 0.39115 0.26143 0.46791 0.0
H265 H 0.36951 0.07943 0.44226 0.0
H266 H 0.43179 0.25652 0.36838 0.0
H267 H 0.34582 0.24353 0.34285 0.0
O268 O 0.18299 0.04172 0.41053 0.0
C269 C 0.19402 0.91201 0.38654 0.0
C270 C 0.26716 0.15178 0.35623 0.0
C271 C 0.38082 0.21408 0.36925 0.0
N272 N 0.29837 0.1128 0.38604 0.0
C273 C 0.25096 0.10488 0.37194 0.0
C274 C 0.36277 0.16619 0.38476 0.0
C275 C 0.33255 0.20677 0.35494 0.0
C276 C 0.27086 0.88254 0.45242 0.0
N277 N 0.21895 0.85397 0.43872 0.0
C278 C 0.3102 0.85283 0.45646 0.0
C279 C 0.29604 0.79345 0.44641 0.0
C280 C 0.24296 0.76459 0.43248 0.0
C281 C 0.20479 0.79579 0.42878 0.0
C282 C 0.01318 0.71622 0.45658 0.0
C283 C 0.03349 0.79405 0.42212 0.0
C284 C 0.07367 0.77674 0.45357 0.0
N285 N 0.08335 0.81446 0.43642 0.0
C286 C 0.97236 0.73383 0.4246 0.0
C287 C 0.96231 0.69468 0.44195 0.0
C288 C 0.12468 0.99656 0.41714 0.0
C289 C 0.3856 0.17031 0.45671 0.0
C290 C 0.29582 0.16812 0.42799 0.0
C291 C 0.32374 0.22024 0.44232 0.0
C292 C 0.36914 0.22137 0.45671 0.0
N293 N 0.31283 0.11869 0.42794 0.0
C294 C 0.35676 0.11904 0.44212 0.0
Co295 Co 0.28956 0.16723 0.76577 0.0
Co296 Co 0.2464 0.27097 0.73954 0.0
O297 O 0.28744 0.25051 0.76215 0.0
C298 C 0.2157 0.18001 0.80084 0.0
O299 O 0.18112 0.1916 0.7871 0.0
C300 C 0.39208 0.3709 0.7378 0.0
O301 O 0.40067 0.31884 0.74042 0.0
O302 O 0.28339 0.23317 0.71981 0.0
O303 O 0.31665 0.16842 0.73631 0.0
H304 H 0.11537 0.22251 0.67423 0.0
H305 H 0.36559 0.28266 0.79404 0.0
O306 O 0.26077 0.16588 0.79509 0.0
H307 H 0.53654 0.23996 0.76252 0.0
H308 H 0.33656 0.00882 0.80654 0.0
H309 H 0.25149 0.04383 0.74134 0.0
H310 H 0.41591 0.16888 0.75383 0.0
H311 H 0.33413 0.11397 0.80014 0.0
O312 O 0.33209 0.36179 0.73685 0.0
H313 H 0.16491 0.19537 0.70361 0.0
H314 H 0.24426 0.39468 0.72649 0.0
H315 H 0.25307 0.93799 0.74699 0.0
H316 H 0.48555 0.35466 0.80326 0.0
H317 H 0.29589 0.91995 0.77983 0.0
H318 H 0.572 0.33368 0.78738 0.0
O319 O 0.19339 0.11091 0.75743 0.0
H320 H 0.25805 0.41788 0.79817 0.0
H321 H 0.11002 0.25382 0.74648 0.0
H322 H 0.06255 0.30217 0.77054 0.0
H323 H 0.137 0.38547 0.79645 0.0
H324 H 0.30321 0.36777 0.77394 0.0
H325 H 0.19609 0.42427 0.69725 0.0
H326 H 0.1309 0.3377 0.6709 0.0
O327 O 0.16201 0.17914 0.74191 0.0
C328 C 0.30954 0.19549 0.72006 0.0
C329 C 0.14342 0.26057 0.68565 0.0
C330 C 0.18881 0.37384 0.69856 0.0
N331 N 0.20677 0.29321 0.71684 0.0
C332 C 0.17133 0.24541 0.70236 0.0
C333 C 0.21604 0.35686 0.71506 0.0
C334 C 0.15223 0.32525 0.68378 0.0
C335 C 0.40279 0.27268 0.78725 0.0
N336 N 0.38374 0.22134 0.77352 0.0
C337 C 0.47069 0.31384 0.79245 0.0
C338 C 0.51919 0.3021 0.78352 0.0
C339 C 0.49933 0.24954 0.76956 0.0
C340 C 0.43098 0.20948 0.76469 0.0
C341 C 0.31767 0.01601 0.79218 0.0
C342 C 0.27009 0.03631 0.75562 0.0
C343 C 0.31594 0.07533 0.7885 0.0
N344 N 0.29235 0.08484 0.77039 0.0
C345 C 0.27092 0.97629 0.75876 0.0
C346 C 0.2949 0.96619 0.77719 0.0
C347 C 0.15001 0.12096 0.74822 0.0
C348 C 0.22524 0.38206 0.78684 0.0
C349 C 0.14254 0.28959 0.75784 0.0
C350 C 0.11546 0.317 0.77136 0.0
C351 C 0.15729 0.36379 0.78588 0.0
N352 N 0.20941 0.30845 0.75871 0.0
C353 C 0.25055 0.35363 0.77306 0.0
Co354 Co 0.73723 0.89576 0.58974 0.0
Co355 Co 0.77755 0.04213 0.61573 0.0
O356 O 0.73571 0.97906 0.5935 0.0
C357 C 0.80376 0.98146 0.55395 0.0
O358 O 0.83869 0.02841 0.56745 0.0
C359 C 0.63121 0.99071 0.61869 0.0
O360 O 0.62625 0.93138 0.61674 0.0
O361 O 0.74496 0.96861 0.63587 0.0
O362 O 0.71596 0.87122 0.61959 0.0
H363 H 0.91734 0.13491 0.67916 0.0
H364 H 0.65242 0.92761 0.56278 0.0
O365 O 0.76057 0.92189 0.56004 0.0
H366 H 0.49395 0.71397 0.59701 0.0
H367 H 0.68888 0.68737 0.55042 0.0
H368 H 0.79187 0.82136 0.61252 0.0
H369 H 0.61641 0.76894 0.60368 0.0
H370 H 0.68723 0.79306 0.55667 0.0
O371 O 0.68995 0.04379 0.61896 0.0
H372 H 0.86509 0.0544 0.65078 0.0
H373 H 0.77507 0.16564 0.62867 0.0
H374 H 0.79406 0.7157 0.60703 0.0
H375 H 0.53046 0.87416 0.55558 0.0
H376 H 0.74228 0.6479 0.57578 0.0
H377 H 0.45029 0.76667 0.57282 0.0
O378 O 0.83456 0.94019 0.59647 0.0
H379 H 0.75525 0.17014 0.55679 0.0
H380 H 0.91091 0.16427 0.60767 0.0
H381 H 0.9535 0.25834 0.58303 0.0
H382 H 0.87513 0.26204 0.55751 0.0
H383 H 0.71504 0.07671 0.58158 0.0
H384 H 0.82571 0.24703 0.65697 0.0
H385 H 0.89774 0.23206 0.68239 0.0
O386 O 0.86371 0.03762 0.61283 0.0
C387 C 0.72307 0.90535 0.63588 0.0
C388 C 0.88628 0.14213 0.66814 0.0
C389 C 0.83477 0.205 0.6557 0.0
N390 N 0.81775 0.10583 0.63797 0.0
C391 C 0.85679 0.09687 0.65198 0.0
C392 C 0.80612 0.15872 0.63974 0.0
C393 C 0.8752 0.19658 0.66995 0.0
C394 C 0.61796 0.88043 0.57014 0.0
N395 N 0.64153 0.85115 0.58351 0.0
C396 C 0.54891 0.85054 0.56608 0.0
C397 C 0.50395 0.79027 0.57577 0.0
C398 C 0.5284 0.76068 0.58936 0.0
C399 C 0.59776 0.79208 0.59309 0.0
C400 C 0.71137 0.71631 0.56413 0.0
C401 C 0.76863 0.79175 0.599 0.0
C402 C 0.71064 0.77618 0.56774 0.0
N403 N 0.73853 0.81269 0.58509 0.0
C404 C 0.77032 0.73215 0.59592 0.0
C405 C 0.74134 0.69419 0.57837 0.0
C406 C 0.87764 0.99353 0.60573 0.0
C407 C 0.78973 0.16934 0.56793 0.0
C408 C 0.8768 0.16525 0.59648 0.0
C409 C 0.90104 0.21877 0.58263 0.0
C410 C 0.85704 0.22086 0.56834 0.0
N411 N 0.81053 0.11537 0.59614 0.0
C412 C 0.76726 0.11666 0.58203 0.0
Co413 Co 0.84955 0.72964 0.92381 0.0
Co414 Co 0.73991 0.76784 0.94858 0.0
O415 O 0.76372 0.7266 0.92679 0.0
C416 C 0.83252 0.79661 0.88775 0.0
O417 O 0.81822 0.83029 0.90108 0.0
C418 C 0.64598 0.62097 0.95142 0.0
O419 O 0.70049 0.61609 0.94982 0.0
O420 O 0.7808 0.73669 0.96925 0.0
O421 O 0.84997 0.7073 0.95367 0.0
H422 H 0.7808 0.90805 0.01162 0.0
H423 H 0.73596 0.64488 0.89585 0.0
O424 O 0.84933 0.75397 0.89406 0.0
H425 H 0.79074 0.48694 0.93061 0.0
H426 H 0.01551 0.68637 0.88594 0.0
H427 H 0.97584 0.7834 0.94796 0.0
H428 H 0.85595 0.60917 0.93789 0.0
H429 H 0.90689 0.68291 0.89118 0.0
O430 O 0.65145 0.6796 0.9516 0.0
H431 H 0.81214 0.85682 0.98367 0.0
H432 H 0.61182 0.76258 0.96062 0.0
H433 H 0.08489 0.78738 0.94349 0.0
H434 H 0.66978 0.52315 0.88802 0.0
H435 H 0.10528 0.73861 0.91227 0.0
H436 H 0.69692 0.44325 0.90551 0.0
O437 O 0.90097 0.8269 0.93092 0.0
H438 H 0.59473 0.74178 0.88786 0.0
H439 H 0.74607 0.89887 0.94035 0.0
H440 H 0.69555 0.93953 0.91476 0.0
H441 H 0.61869 0.86043 0.88839 0.0
H442 H 0.64703 0.70362 0.91361 0.0
H443 H 0.57803 0.81214 0.98847 0.0
H444 H 0.66298 0.88577 0.01414 0.0
O445 O 0.82962 0.85508 0.94582 0.0
C446 C 0.82203 0.71462 0.9697 0.0
C447 C 0.7434 0.87629 1.00048 0.0
C448 C 0.62957 0.82236 0.9875 0.0
N449 N 0.71402 0.80743 0.97041 0.0
C450 C 0.76092 0.84738 0.98457 0.0
C451 C 0.64892 0.79432 0.9718 0.0
C452 C 0.67726 0.86369 1.0019 0.0
C453 C 0.7486 0.61054 0.90334 0.0
N454 N 0.80008 0.63414 0.91719 0.0
C455 C 0.71075 0.54162 0.89891 0.0
C456 C 0.72596 0.49681 0.90875 0.0
C457 C 0.77857 0.52129 0.92285 0.0
C458 C 0.81525 0.59051 0.92693 0.0
C459 C 1.00717 0.70762 0.89963 0.0
C460 C 0.98416 0.7616 0.93443 0.0
C461 C 0.94585 0.7059 0.90265 0.0
N462 N 0.93487 0.73226 0.91996 0.0
C463 C 0.0461 0.76423 0.93194 0.0
C464 C 0.05752 0.73693 0.91441 0.0
C465 C 0.88862 0.86962 0.93949 0.0
C466 C 0.62786 0.77662 0.89934 0.0
C467 C 0.7134 0.86454 0.92877 0.0
C468 C 0.68457 0.88765 0.9144 0.0
C469 C 0.64137 0.84322 0.89963 0.0
N470 N 0.69955 0.79906 0.92847 0.0
C471 C 0.65756 0.7553 0.91397 0.0
Co472 Co 0.11342 0.84434 0.2587 0.0
Co473 Co 0.96486 0.73879 0.28393 0.0
O474 O 0.02932 0.75969 0.26209 0.0
C475 C 0.03091 0.82534 0.22216 0.0
O476 O 0.98244 0.81105 0.23528 0.0
C477 C 0.01177 0.63977 0.28709 0.0
O478 O 0.0726 0.69247 0.28563 0.0
O479 O 0.03719 0.77705 0.30446 0.0
O480 O 0.13541 0.84663 0.28872 0.0
H481 H 0.87242 0.78523 0.34753 0.0
H482 H 0.08239 0.72755 0.23193 0.0
O483 O 0.09008 0.84234 0.22875 0.0
H484 H 0.29282 0.78032 0.26774 0.0
H485 H 0.32494 1.00406 0.22062 0.0
H486 H 0.18734 0.97243 0.28193 0.0
H487 H 0.23853 0.84885 0.27368 0.0
H488 H 0.21853 0.89694 0.22632 0.0
O489 O 0.9604 0.64827 0.28704 0.0
H490 H 0.95346 0.81337 0.31928 0.0
H491 H 0.8381 0.61428 0.29581 0.0
H492 H 0.29365 0.08014 0.27695 0.0
H493 H 0.13516 0.65798 0.22544 0.0
H494 H 0.36323 0.09644 0.2461 0.0
H495 H 0.24098 0.68403 0.24349 0.0
O496 O 0.06925 0.89825 0.26469 0.0
H497 H 0.83878 0.59334 0.22395 0.0
H498 H 0.84627 0.75533 0.275 0.0
H499 H 0.75493 0.70846 0.24941 0.0
H500 H 0.75052 0.62641 0.22377 0.0
H501 H 0.92963 0.64204 0.24966 0.0
H502 H 0.75604 0.58369 0.32391 0.0
H503 H 0.77286 0.66965 0.34996 0.0
O504 O 0.97144 0.83041 0.28112 0.0
C505 C 0.1005 0.8178 0.30474 0.0
C506 C 0.86439 0.74743 0.33622 0.0
C507 C 0.79912 0.63428 0.32298 0.0
N508 N 0.90003 0.7157 0.30582 0.0
C509 C 0.90994 0.76315 0.32015 0.0
C510 C 0.84576 0.65182 0.30713 0.0
C511 C 0.80858 0.68254 0.33759 0.0
C512 C 0.12887 0.73972 0.23965 0.0
N513 N 0.1576 0.79246 0.25306 0.0
C514 C 0.15834 0.69994 0.23599 0.0
C515 C 0.21767 0.71452 0.24615 0.0
C516 C 0.24676 0.76852 0.25976 0.0
C517 C 0.21579 0.80711 0.26307 0.0
C518 C 0.29518 0.99749 0.23415 0.0
C519 C 0.21769 0.97899 0.26857 0.0
C520 C 0.23488 0.93702 0.23744 0.0
N521 N 0.19729 0.92829 0.25455 0.0
C522 C 0.27767 0.04016 0.26579 0.0
C523 C 0.31664 0.0493 0.24846 0.0
C524 C 0.01574 0.88786 0.27382 0.0
C525 C 0.83991 0.62868 0.23514 0.0
C526 C 0.84486 0.71995 0.26381 0.0
C527 C 0.79292 0.69341 0.24941 0.0
C528 C 0.79043 0.64731 0.23503 0.0
N529 N 0.89288 0.70101 0.26391 0.0
C530 C 0.89109 0.65624 0.24977 0.0
Co531 Co 0.28956 0.12131 0.59263 0.0
Co532 Co 0.24203 0.96919 0.61615 0.0
O533 O 0.28607 0.03499 0.59472 0.0
C534 C 0.21872 0.0418 0.55609 0.0
O535 O 0.18383 0.99208 0.56881 0.0
C536 C 0.38716 0.01322 0.61863 0.0
O537 O 0.39621 0.07439 0.6172 0.0
O538 O 0.2775 0.03994 0.63733 0.0
O539 O 0.31438 0.14103 0.62242 0.0
H540 H 0.10131 0.87273 0.67926 0.0
H541 H 0.36689 0.08615 0.56354 0.0
O542 O 0.26293 0.09982 0.56294 0.0
H543 H 0.53686 0.2924 0.59869 0.0
H544 H 0.34278 0.33544 0.55581 0.0
H545 H 0.25061 0.20256 0.6187 0.0
H546 H 0.41569 0.24262 0.60664 0.0
H547 H 0.33841 0.22607 0.56014 0.0
O548 O 0.32695 0.96242 0.61875 0.0
H549 H 0.15642 0.9564 0.65175 0.0
H550 H 0.2368 0.84002 0.62676 0.0
H551 H 0.2544 0.31178 0.61516 0.0
H552 H 0.48743 0.13446 0.55503 0.0
H553 H 0.30072 0.37906 0.58348 0.0
H554 H 0.57338 0.23814 0.57273 0.0
O555 O 0.19282 0.08107 0.60025 0.0
H556 H 0.2576 0.84862 0.55414 0.0
H557 H 0.10582 0.85281 0.60682 0.0
H558 H 0.05931 0.76522 0.58008 0.0
H559 H 0.13546 0.76274 0.55351 0.0
H560 H 0.30181 0.93568 0.58104 0.0
H561 H 0.1831 0.75531 0.65411 0.0
H562 H 0.11449 0.77131 0.68054 0.0
O563 O 0.15847 0.97819 0.61383 0.0
C564 C 0.30455 0.10394 0.63818 0.0
C565 C 0.13084 0.86507 0.66778 0.0
C566 C 0.17684 0.79921 0.65368 0.0
N567 N 0.19916 0.90266 0.63757 0.0
C568 C 0.16194 0.91212 0.65213 0.0
C569 C 0.20722 0.84736 0.63826 0.0
C570 C 0.13833 0.8082 0.6685 0.0
C571 C 0.4039 0.13174 0.57114 0.0
N572 N 0.38426 0.16179 0.58548 0.0
C573 C 0.47212 0.15867 0.56633 0.0
C574 C 0.52033 0.2168 0.57628 0.0
C575 C 0.49987 0.24725 0.59085 0.0
C576 C 0.43122 0.21884 0.5953 0.0
C577 C 0.32235 0.30655 0.56966 0.0
C578 C 0.27075 0.23148 0.60491 0.0
C579 C 0.31946 0.24446 0.57216 0.0
N580 N 0.29389 0.20781 0.58963 0.0
C581 C 0.27282 0.29333 0.60297 0.0
C582 C 0.29878 0.33102 0.5852 0.0
C583 C 0.14785 0.02603 0.60833 0.0
C584 C 0.22396 0.84901 0.56568 0.0
C585 C 0.13922 0.85206 0.59529 0.0
C586 C 0.11263 0.80229 0.58021 0.0
C587 C 0.1554 0.8009 0.56532 0.0
N588 N 0.2065 0.89901 0.59555 0.0
C589 C 0.24877 0.89802 0.581 0.0
Co590 Co 0.17404 0.28491 0.92413 0.0
Co591 Co 0.27522 0.23438 0.94833 0.0
O592 O 0.25565 0.2795 0.92672 0.0
C593 C 0.18331 0.21437 0.88766 0.0
O594 O 0.19555 0.17794 0.90054 0.0
C595 C 0.37831 0.37861 0.95102 0.0
O596 O 0.32688 0.38871 0.94958 0.0
O597 O 0.24077 0.27129 0.96928 0.0
O598 O 0.17712 0.30831 0.95403 0.0
H599 H 0.22661 0.09426 0.01176 0.0
H600 H 0.28909 0.36216 0.89586 0.0
O601 O 0.17075 0.25959 0.89437 0.0
H602 H 0.25465 0.533 0.9312 0.0
H603 H 0.01928 0.34404 0.88629 0.0
H604 H 0.05264 0.24791 0.94952 0.0
H605 H 0.18061 0.41163 0.93844 0.0
H606 H 0.1222 0.33641 0.89126 0.0
O607 O 0.36784 0.31801 0.95106 0.0
H608 H 0.20025 0.14991 0.9839 0.0
H609 H 0.39707 0.22606 0.95938 0.0
H610 H 0.94936 0.25528 0.94534 0.0
H611 H 0.364 0.4829 0.88807 0.0
H612 H 0.93203 0.30346 0.91349 0.0
H613 H 0.34721 0.56928 0.90588 0.0
O614 O 0.11573 0.18786 0.93122 0.0
H615 H 0.41171 0.24617 0.88681 0.0
H616 H 0.25235 0.09687 0.93927 0.0
H617 H 0.29238 0.04846 0.9128 0.0
H618 H 0.37273 0.12337 0.88635 0.0
H619 H 0.36981 0.29226 0.91342 0.0
H620 H 0.42584 0.17168 0.98707 0.0
H621 H 0.34011 0.10496 0.01346 0.0
O622 O 0.18161 0.1522 0.94588 0.0
C623 C 0.20422 0.29873 0.96986 0.0
C624 C 0.26428 0.12293 1.00031 0.0
C625 C 0.37614 0.16648 0.98646 0.0
N626 N 0.29687 0.19053 0.96993 0.0
C627 C 0.24957 0.15433 0.98445 0.0
C628 C 0.35964 0.19723 0.97084 0.0
C629 C 0.32801 0.12904 1.00126 0.0
C630 C 0.28091 0.39937 0.90349 0.0
N631 N 0.23026 0.37986 0.91749 0.0
C632 C 0.32372 0.4677 0.89909 0.0
C633 C 0.31432 0.51615 0.9091 0.0
C634 C 0.26241 0.49583 0.92332 0.0
C635 C 0.22066 0.42706 0.92736 0.0
C636 C 0.02614 0.3228 0.90021 0.0
C637 C 0.04566 0.26925 0.93569 0.0
C638 C 0.08415 0.31801 0.90307 0.0
N639 N 0.09322 0.29136 0.92063 0.0
C640 C 0.98698 0.27317 0.93338 0.0
C641 C 0.97726 0.30011 0.91549 0.0
C642 C 0.12395 0.14221 0.9397 0.0
C643 C 0.3769 0.21306 0.8983 0.0
C644 C 0.2872 0.12971 0.92778 0.0
C645 C 0.3098 0.10205 0.91286 0.0
C646 C 0.35493 0.14413 0.89803 0.0
N647 N 0.309 0.19733 0.92793 0.0
C648 C 0.35323 0.23893 0.91345 0.0
Co649 Co 0.89267 0.17379 0.25679 0.0
Co650 Co 0.03948 0.27665 0.28314 0.0
O651 O 0.97687 0.25765 0.26082 0.0
C652 C 0.97741 0.19315 0.22068 0.0
O653 O 0.02647 0.20875 0.23373 0.0
C654 C 0.99028 0.37337 0.28651 0.0
O655 O 0.93082 0.31957 0.28412 0.0
O656 O 0.96557 0.23633 0.30315 0.0
O657 O 0.86808 0.16994 0.28661 0.0
H658 H 0.12713 0.22493 0.34684 0.0
H659 H 0.92643 0.29188 0.23033 0.0
O660 O 0.91818 0.17646 0.22712 0.0
H661 H 0.71359 0.23879 0.26467 0.0
H662 H 0.68478 0.016 0.21694 0.0
H663 H 0.81708 0.0443 0.27924 0.0
H664 H 0.76661 0.16921 0.27086 0.0
H665 H 0.78995 0.12324 0.22372 0.0
O666 O 0.04292 0.3669 0.28678 0.0
H667 H 0.04848 0.19905 0.31805 0.0
H668 H 0.16455 0.40047 0.29641 0.0
H669 H 0.7119 0.93642 0.27319 0.0
H670 H 0.87494 0.36251 0.22359 0.0
H671 H 0.64503 0.92176 0.24183 0.0
H672 H 0.76791 0.33628 0.2409 0.0
O673 O 0.93611 0.11993 0.26292 0.0
H674 H 0.16804 0.42508 0.22394 0.0
H675 H 0.15936 0.26186 0.27476 0.0
H676 H 0.25137 0.30941 0.24938 0.0
H677 H 0.25606 0.39166 0.22374 0.0
H678 H 0.07668 0.37586 0.24948 0.0
H679 H 0.24426 0.42884 0.32509 0.0
H680 H 0.22583 0.34057 0.3505 0.0
O681 O 0.03342 0.18501 0.27977 0.0
C682 C 0.90204 0.19667 0.30291 0.0
C683 C 0.13587 0.26374 0.33582 0.0
C684 C 0.20156 0.37821 0.32362 0.0
N685 N 0.1025 0.29801 0.30545 0.0
C686 C 0.0917 0.24929 0.31944 0.0
C687 C 0.15628 0.36192 0.30744 0.0
C688 C 0.19119 0.32866 0.33787 0.0
C689 C 0.8794 0.27964 0.23771 0.0
N690 N 0.84931 0.22625 0.25087 0.0
C691 C 0.85065 0.31999 0.23391 0.0
C692 C 0.79063 0.30529 0.24365 0.0
C693 C 0.76014 0.25061 0.257 0.0
C694 C 0.79041 0.21146 0.26046 0.0
C695 C 0.71332 0.02186 0.2307 0.0
C696 C 0.78781 0.03851 0.26568 0.0
C697 C 0.77289 0.08241 0.23461 0.0
N698 N 0.80903 0.0902 0.25198 0.0
C699 C 0.72849 0.97723 0.26229 0.0
C700 C 0.69105 0.96901 0.24467 0.0
C701 C 0.98944 0.12858 0.27173 0.0
C702 C 0.16667 0.38947 0.23508 0.0
C703 C 0.16111 0.2976 0.26363 0.0
C704 C 0.21335 0.32443 0.24932 0.0
C705 C 0.21598 0.37062 0.23495 0.0
N706 N 0.11298 0.31638 0.26365 0.0
C707 C 0.11524 0.36167 0.24963 0.0
C708 C 0.0591 0.23982 0.19161 0.0
C709 C 0.9926 0.19715 0.19856 0.0
C710 C 0.07548 0.24473 0.17081 0.0
C711 C 0.02624 0.20637 0.15611 0.0
H712 H 0.09891 0.27048 0.2023 0.0
H713 H 0.1272 0.27894 0.16627 0.0
S714 S 0.84498 0.08412 0.16665 0.0
N715 N 0.8776 0.1146 0.18925 0.0
N716 N 0.90788 0.12228 0.1503 0.0
C717 C 0.95957 0.16257 0.16297 0.0
C718 C 0.94287 0.15842 0.18413 0.0
C719 C 0.78933 0.96437 0.49612 0.0
C720 C 0.82692 0.03174 0.4892 0.0
C721 C 0.78204 0.94852 0.51698 0.0
C722 C 0.81284 0.99926 0.53185 0.0
H723 H 0.76442 0.92326 0.48533 0.0
H724 H 0.75209 0.89598 0.52143 0.0
S725 S 0.91873 0.18376 0.52172 0.0
N726 N 0.89604 0.14946 0.49888 0.0
N727 N 0.88383 0.12027 0.538 0.0
C728 C 0.85135 0.06695 0.52511 0.0
C729 C 0.85795 0.08303 0.50384 0.0
C730 C 0.83848 0.78257 0.82998 0.0
C731 C 0.80975 0.82079 0.82278 0.0
C732 C 0.84579 0.77506 0.85091 0.0
C733 C 0.82547 0.80618 0.86558 0.0
H734 H 0.85485 0.75736 0.81936 0.0
H735 H 0.86758 0.74461 0.85559 0.0
S736 S 0.74932 0.9138 0.85468 0.0
N737 N 0.76184 0.89094 0.83198 0.0
N738 N 0.77636 0.87821 0.87122 0.0
C739 C 0.79735 0.84531 0.85855 0.0
C740 C 0.78922 0.8522 0.83722 0.0
C741 C 0.05253 0.82618 0.1645 0.0
C742 C 0.98627 0.80041 0.15701 0.0
C743 C 0.06663 0.83439 0.18548 0.0
C744 C 0.01519 0.81796 0.19991 0.0
H745 H 0.09407 0.83938 0.15408 0.0
H746 H 0.11832 0.85361 0.19038 0.0
S747 S 0.83335 0.75172 0.18816 0.0
N748 N 0.86899 0.76014 0.16566 0.0
N749 N 0.89497 0.77649 0.20497 0.0
C750 C 0.9487 0.79314 0.19257 0.0
C751 C 0.93436 0.78406 0.1712 0.0
C752 C 0.18135 0.96115 0.52663 0.0
C753 C 0.20929 0.02803 0.53383 0.0
C754 C 0.173 0.94623 0.5057 0.0
C755 C 0.19134 0.99746 0.49105 0.0
H756 H 0.16661 0.91979 0.53724 0.0
H757 H 0.15203 0.89409 0.501 0.0
S758 S 0.26403 0.18081 0.50204 0.0
N759 N 0.25389 0.14568 0.52469 0.0
N760 N 0.23729 0.11826 0.48548 0.0
C761 C 0.2184 0.06459 0.49811 0.0
C762 C 0.22766 0.07971 0.51942 0.0
C763 C 0.23515 0.16743 0.83789 0.0
C764 C 0.20496 0.18763 0.82288 0.0
C765 C 0.22705 0.17563 0.85872 0.0
C766 C 0.18928 0.20536 0.86546 0.0
H767 H 0.26537 0.14502 0.83357 0.0
H768 H 0.25157 0.15932 0.86961 0.0
S769 S 0.09855 0.26582 0.83256 0.0
N770 N 0.13409 0.23752 0.81643 0.0
N771 N 0.1204 0.25394 0.85549 0.0
C772 C 0.15871 0.22572 0.85069 0.0
C773 C 0.16608 0.21653 0.82946 0.0
C774 C 0.10625 0.31092 0.01439 0.0
C775 C 0.14544 0.31303 0.03136 0.0
C776 C 0.12807 0.31227 0.99436 0.0
C777 C 0.18984 0.3154 0.99044 0.0
H778 H 0.05642 0.30465 0.01649 0.0
H779 H 0.09417 0.3062 0.98199 0.0
S780 S 0.31844 0.33763 0.02908 0.0
N781 N 0.25429 0.33038 0.04262 0.0
N782 N 0.29532 0.3324 1.00501 0.0
C783 C 0.2326 0.32451 1.00715 0.0
C784 C 0.21047 0.32356 0.02759 0.0
C785 C 0.79318 0.0931 0.34691 0.0
C786 C 0.8244 0.13594 0.36385 0.0
C787 C 0.81466 0.1147 0.32691 0.0
C788 C 0.86834 0.1799 0.32305 0.0
H789 H 0.75391 0.04104 0.34905 0.0
H790 H 0.7921 0.0786 0.31461 0.0
S791 S 0.95756 0.31657 0.36122 0.0
N792 N 0.90453 0.2503 0.37483 0.0
N793 N 0.94518 0.29082 0.33729 0.0
C794 C 0.89573 0.22529 0.33956 0.0
C795 C 0.87366 0.20338 0.35994 0.0
C796 C 0.71045 0.88812 0.69347 0.0
C797 C 0.71028 0.8275 0.69695 0.0
C798 C 0.7099 0.91031 0.67362 0.0
C799 C 0.70904 0.87282 0.65634 0.0
H800 H 0.71496 0.92072 0.70608 0.0
H801 H 0.71338 0.9591 0.67189 0.0
S802 S 0.69419 0.70364 0.65736 0.0
N803 N 0.69857 0.72496 0.68158 0.0
N804 N 0.6978 0.76712 0.64431 0.0
C805 C 0.70251 0.80914 0.65967 0.0
C806 C 0.7032 0.78646 0.67993 0.0
C807 C 0.82355 0.70153 0.02739 0.0
C808 C 0.88243 0.69867 0.0312 0.0
C809 C 0.8024 0.7024 1.00742 0.0
C810 C 0.83906 0.70022 0.99034 0.0
H811 H 0.79557 0.70703 0.03985 0.0
H812 H 0.75832 0.70785 1.00545 0.0
S813 S 0.98941 0.6787 0.9922 0.0
N814 N 0.97169 0.6834 0.01632 0.0
N815 N 0.93172 0.6851 0.97883 0.0
C816 C 0.89458 0.69119 0.99398 0.0
C817 C 0.91633 0.6905 0.01437 0.0
C818 C 0.1893 0.89826 0.32877 0.0
C819 C 0.13253 0.8347 0.32519 0.0
C820 C 0.21105 0.92083 0.34867 0.0
C821 C 0.17702 0.88078 0.36588 0.0
H822 H 0.21472 0.93257 0.31623 0.0
H823 H 0.25324 0.97165 0.3505 0.0
S824 S 0.03352 0.70471 0.36443 0.0
N825 N 0.04868 0.72766 0.34028 0.0
N826 N 0.08952 0.77044 0.37764 0.0
C827 C 0.12389 0.81474 0.3624 0.0
C828 C 0.10166 0.79169 0.34209 0.0
C829 C 0.31394 0.09255 0.67587 0.0
C830 C 0.32192 0.13431 0.65893 0.0
C831 C 0.3165 0.11476 0.69592 0.0
C832 C 0.3269 0.17954 0.69986 0.0
H833 H 0.30194 0.04071 0.67371 0.0
H834 H 0.30531 0.0792 0.70824 0.0
S835 S 0.36593 0.31397 0.66152 0.0
N836 N 0.35221 0.24762 0.64788 0.0
N837 N 0.3567 0.28932 0.68553 0.0
C838 C 0.34188 0.22416 0.68326 0.0
C839 C 0.33951 0.20162 0.66282 0.0
C840 C 0.06014 0.55998 0.06931 0.0
C841 C 0.99675 0.55576 0.07027 0.0
C842 C 0.06584 0.50168 0.06884 0.0
C843 C 0.00841 0.43631 0.06928 0.0
H844 H 0.10603 0.60876 0.06908 0.0
H845 H 0.11616 0.5083 0.06829 0.0
S846 S 0.83019 0.3968 0.07172 0.0
N847 N 0.87471 0.48012 0.07152 0.0
N848 N 0.88587 0.37101 0.07067 0.0
C849 C 0.94459 0.43116 0.07008 0.0
C850 C 0.93866 0.49064 0.07056 0.0
C851 C 0.56027 0.06858 0.4041 0.0
C852 C 0.56712 0.01046 0.40385 0.0
C853 C 0.49664 0.06388 0.40407 0.0
C854 C 0.43687 1.00084 0.40382 0.0
H855 H 0.60451 0.11858 0.40449 0.0
H856 H 0.49445 0.11013 0.40447 0.0
S857 S 0.42646 0.83287 0.40284 0.0
N858 N 0.50819 0.88778 0.40317 0.0
N859 N 0.38883 0.87846 0.40302 0.0
C860 C 0.44291 0.94217 0.40339 0.0
C861 C 0.50783 0.94707 0.40343 0.0
C862 C 0.51797 0.44682 0.73761 0.0
C863 C 0.45292 0.43955 0.73663 0.0
C864 C 0.57669 0.5106 0.73717 0.0
C865 C 0.57307 0.57006 0.73577 0.0
H866 H 0.52393 0.40283 0.73892 0.0
H867 H 0.62523 0.5132 0.73821 0.0
S868 S 0.41519 0.57923 0.73233 0.0
N869 N 0.38872 0.49769 0.73388 0.0
N870 N 0.49839 0.61731 0.73295 0.0
C871 C 0.50829 0.56355 0.73451 0.0
C872 C 0.4485 0.4985 0.73497 0.0
C873 C 0.51295 0.06305 0.6195 0.0
C874 C 0.44789 1.00511 0.61936 0.0
C875 C 0.57172 0.05809 0.61958 0.0
C876 C 0.56821 0.99494 0.61949 0.0
H877 H 0.51895 0.11316 0.61939 0.0
H878 H 0.62024 0.10427 0.61949 0.0
S879 S 0.41031 0.82727 0.61938 0.0
N880 N 0.38375 0.88241 0.61932 0.0
N881 N 0.49355 0.87259 0.61955 0.0
C882 C 0.5034 0.93639 0.61955 0.0
C883 C 0.44352 0.94157 0.61947 0.0
C884 C 0.45539 0.50398 0.95272 0.0
C885 C 0.44753 0.43867 0.95187 0.0
C886 C 0.51938 0.56229 0.95283 0.0
C887 C 0.57862 0.55814 0.95206 0.0
H888 H 0.41165 0.51054 0.95317 0.0
H889 H 0.52223 0.61104 0.95333 0.0
S890 S 0.58642 0.39935 0.94979 0.0
N891 N 0.50489 0.3735 0.95035 0.0
N892 N 0.62515 0.48262 0.9506 0.0
C893 C 0.57165 0.49307 0.95138 0.0
C894 C 0.50625 0.43358 0.95128 0.0
C895 C 0.06248 0.56427 0.28742 0.0
C896 C 1.00438 0.57113 0.28787 0.0
C897 C 0.05779 0.50056 0.28737 0.0
C898 C 0.99478 0.44075 0.28773 0.0
H899 H 0.11241 0.60855 0.28686 0.0
H900 H 0.10398 0.49831 0.28673 0.0
S901 S 0.82692 0.43036 0.28959 0.0
N902 N 0.88178 0.51211 0.28911 0.0
N903 N 0.8725 0.39275 0.28913 0.0
C904 C 0.93617 0.44685 0.28851 0.0
C905 C 0.94106 0.51178 0.28855 0.0
C906 C 0.96386 0.01406 0.07815 0.0
C907 C 0.02788 0.0714 0.08108 0.0
C908 C 0.95514 0.94866 0.07829 0.0
C909 C 0.01014 0.93756 0.08098 0.0
H910 H 0.91968 0.01942 0.07632 0.0
H911 H 0.90449 0.90628 0.07644 0.0
S912 S 0.189 0.0701 0.08803 0.0
N913 N 0.14795 0.11212 0.08596 0.0
N914 N 0.13108 0.98962 0.08586 0.0
C915 C 0.07464 0.99429 0.08316 0.0
C916 C 0.08357 0.06092 0.08334 0.0
C917 C 0.94183 0.95844 0.41923 0.0
C918 C 0.94636 0.01939 0.41319 0.0
C919 C 0.99962 0.95185 0.42023 0.0
C920 C 0.06456 0.00573 0.41503 0.0
H921 H 0.89372 0.91632 0.42397 0.0
H922 H 0.993 0.90394 0.42543 0.0
S923 S 0.10156 0.17356 0.39577 0.0
N924 N 0.0195 0.13286 0.40023 0.0
N925 N 0.1279 0.12056 0.40197 0.0
C926 C 0.06902 0.06601 0.40804 0.0
C927 C 0.0101 0.0728 0.40719 0.0
C928 C 0.02442 0.06657 0.75136 0.0
C929 C 0.08116 0.06166 0.74602 0.0
C930 C 0.95981 0.00898 0.75194 0.0
C931 C 0.94889 0.94392 0.74698 0.0
H932 H 0.03028 0.11482 0.75589 0.0
H933 H 0.91821 0.01583 0.75662 0.0
S934 S 0.08089 0.90617 0.72941 0.0
N935 N 0.12221 0.98823 0.73394 0.0
N936 N 1.00105 0.88016 0.73483 0.0
C937 C 1.00515 0.93915 0.74065 0.0
C938 C 0.07109 0.99786 0.74025 0.0
C939 C 0.95808 0.94885 0.60303 0.0
C940 C 0.94696 1.00288 0.60796 0.0
C941 C 0.02247 0.95552 0.60415 0.0
C942 C 0.07889 0.01673 0.61001 0.0
H943 H 0.91681 0.90075 0.59797 0.0
H944 H 0.02845 0.91321 0.59962 0.0
S945 S 0.07779 0.17164 0.62657 0.0
N946 N 0.9984 0.11826 0.62052 0.0
N947 N 0.1192 0.1308 0.62241 0.0
C948 C 0.06853 0.07038 0.6157 0.0
C949 C 1.00277 0.06346 0.61477 0.0
C950 C 0.01342 0.95047 0.94179 0.0
C951 C 0.94694 0.93975 0.94141 0.0
C952 C 0.07021 0.01574 0.94197 0.0
C953 C 0.06318 0.07338 0.94146 0.0
H954 H 0.02197 0.90797 0.94171 0.0
H955 H 0.11994 0.02088 0.94186 0.0
S956 S 0.9004 0.07355 0.94175 0.0
N957 N 0.87776 0.99275 0.94168 0.0
N958 N 0.98375 0.11508 0.94178 0.0
C959 C 0.99692 0.06338 0.94171 0.0
C960 C 0.93911 0.99682 0.94179 0.0
C961 C 0.03258 0.99515 0.28966 0.0
C962 C 1.00362 0.9456 0.2743 0.0
C963 C 0.02993 0.05551 0.28863 0.0
C964 C 0.99871 0.06844 0.27209 0.0
H965 H 0.0582 0.98753 0.30239 0.0
H966 H 0.05158 0.09169 0.30095 0.0
S967 S 0.92154 0.95697 0.227 0.0
N968 N 0.94664 0.91501 0.24166 0.0
N969 N 0.9422 0.02763 0.23935 0.0
C970 C 0.97107 0.01948 0.25644 0.0
C971 C 0.97346 0.95836 0.25762 0.0
loop_
_geom_bond_atom_site_label_1
_geom_bond_atom_site_label_2
_geom_bond_distance
_geom_bond_site_symmetry_2
_ccdc_geom_bond_type
Co0 O2 2.143 . S
Co0 O8 2.074 . S
Co0 O11 2.093 . S
Co0 O24 2.097 . S
Co0 N41 2.151 . S
Co0 N49 2.214 . S
Co1 O2 2.160 1_655 S
Co1 O7 2.058 1_655 S
Co1 O17 2.057 . S
Co1 O32 2.037 . S
Co1 N36 2.145 . S
Co1 N57 2.257 . S
O2 Co0 2.143 . S
O2 Co1 2.160 1_455 S
C3 O4 1.278 1_455 S
C3 O11 1.224 . S
O4 C3 1.278 1_655 S
C5 O6 1.245 1_655 S
C5 O17 1.232 . S
O6 C5 1.245 1_455 S
O7 Co1 2.058 1_455 S
O7 C33 1.269 . S
O8 Co0 2.074 . S
O8 C33 1.257 . S
H9 C34 0.930 1_556 S
H10 C40 0.930 . S
O11 Co0 2.093 . S
O11 C3 1.224 . S
H12 C44 0.929 . S
H13 C46 0.930 . S
H14 C47 0.930 . S
H15 C45 0.929 . S
H16 C48 0.928 . S
O17 Co1 2.057 . S
O17 C5 1.232 . S
H18 C37 0.929 . S
H19 C38 0.929 . S
H20 C50 0.931 . S
H21 C42 0.929 . S
H22 C51 0.930 . S
H23 C43 0.931 . S
O24 Co0 2.097 . S
O24 C52 1.214 1_455 S
H25 C53 0.929 . S
H26 C54 0.929 . S
H27 C55 0.930 . S
H28 C56 0.929 . S
H29 C58 0.930 . S
H30 C35 0.930 . S
H31 C39 0.930 1_556 S
O32 Co1 2.037 . S
O32 C52 1.234 . S
C33 O7 1.269 . S
C33 O8 1.257 . S
C34 H9 0.930 1_554 S
C34 C37 1.388 . S
C34 C39 1.418 . S
C35 H30 0.930 . S
C35 C38 1.404 . S
C35 C39 1.353 . S
N36 Co1 2.145 . S
N36 C37 1.397 . S
N36 C38 1.334 . S
C37 H18 0.929 . S
C37 C34 1.388 . S
C37 N36 1.397 . S
C38 H19 0.929 . S
C38 C35 1.404 . S
C38 N36 1.334 . S
C39 H31 0.930 1_554 S
C39 C34 1.418 . S
C39 C35 1.353 . S
C40 H10 0.930 . S
C40 N41 1.330 . S
C40 C42 1.446 . S
N41 Co0 2.151 . S
N41 C40 1.330 . S
N41 C45 1.418 . S
C42 H21 0.929 . S
C42 C40 1.446 . S
C42 C43 1.332 . S
C43 H23 0.931 . S
C43 C42 1.332 . S
C43 C44 1.267 . S
C44 H12 0.929 . S
C44 C43 1.267 . S
C44 C45 1.251 . S
C45 H15 0.929 . S
C45 N41 1.418 . S
C45 C44 1.251 . S
C46 H13 0.930 . S
C46 C48 1.406 . S
C46 C51 1.261 . S
C47 H14 0.930 . S
C47 N49 1.325 . S
C47 C50 1.357 . S
C48 H16 0.928 . S
C48 C46 1.406 . S
C48 N49 1.261 . S
N49 Co0 2.214 . S
N49 C47 1.325 . S
N49 C48 1.261 . S
C50 H20 0.931 . S
C50 C47 1.357 . S
C50 C51 1.312 . S
C51 H22 0.930 . S
C51 C46 1.261 . S
C51 C50 1.312 . S
C52 O24 1.214 1_655 S
C52 O32 1.234 . S
C53 H25 0.929 . S
C53 C56 1.391 . S
C53 C58 1.391 . S
C54 H26 0.929 . S
C54 C55 1.390 . S
C54 N57 1.391 . S
C55 H27 0.930 . S
C55 C54 1.390 . S
C55 C56 1.392 . S
C56 H28 0.929 . S
C56 C53 1.391 . S
C56 C55 1.392 . S
N57 Co1 2.257 . S
N57 C54 1.391 . S
N57 C58 1.388 . S
C58 H29 0.930 . S
C58 C53 1.391 . S
C58 N57 1.388 . S
Co59 O61 2.146 . S
Co59 O67 2.074 . S
Co59 O70 2.093 . S
Co59 O83 2.097 1_545 S
Co59 N100 2.151 . S
Co59 N108 2.214 . S
Co60 O61 2.151 1_565 S
Co60 O66 2.058 1_565 S
Co60 O76 2.057 . S
Co60 O91 2.037 . S
Co60 N95 2.145 . S
Co60 N116 2.257 . S
O61 Co59 2.146 . S
O61 Co60 2.151 1_545 S
C62 O63 1.278 1_545 S
C62 O70 1.224 . S
O63 C62 1.278 1_565 S
C64 O65 1.245 1_565 S
C64 O76 1.232 . S
O65 C64 1.245 1_545 S
O66 Co60 2.058 1_545 S
O66 C92 1.269 . S
O67 Co59 2.074 . S
O67 C92 1.257 . S
H68 C93 0.930 . S
H69 C99 0.930 . S
O70 Co59 2.093 . S
O70 C62 1.224 . S
H71 C103 0.929 . S
H72 C105 0.930 . S
H73 C106 0.931 . S
H74 C104 0.929 . S
H75 C107 0.928 . S
O76 Co60 2.057 . S
O76 C64 1.232 . S
H77 C96 0.929 . S
H78 C97 0.929 . S
H79 C109 0.931 . S
H80 C101 0.929 . S
H81 C110 0.930 . S
H82 C102 0.931 . S
O83 Co59 2.097 1_565 S
O83 C111 1.214 . S
H84 C112 0.929 . S
H85 C113 0.929 . S
H86 C114 0.930 . S
H87 C115 0.929 . S
H88 C117 0.930 . S
H89 C94 0.930 . S
H90 C98 0.930 . S
O91 Co60 2.037 . S
O91 C111 1.234 . S
C92 O66 1.269 . S
C92 O67 1.257 . S
C93 H68 0.930 . S
C93 C96 1.388 . S
C93 C98 1.418 . S
C94 H89 0.930 . S
C94 C97 1.404 . S
C94 C98 1.353 . S
N95 Co60 2.145 . S
N95 C96 1.397 . S
N95 C97 1.334 . S
C96 H77 0.929 . S
C96 C93 1.388 . S
C96 N95 1.397 . S
C97 H78 0.929 . S
C97 C94 1.404 . S
C97 N95 1.334 . S
C98 H90 0.930 . S
C98 C93 1.418 . S
C98 C94 1.353 . S
C99 H69 0.930 . S
C99 N100 1.330 . S
C99 C101 1.446 . S
N100 Co59 2.151 . S
N100 C99 1.330 . S
N100 C104 1.418 . S
C101 H80 0.929 . S
C101 C99 1.446 . S
C101 C102 1.332 . S
C102 H82 0.931 . S
C102 C101 1.332 . S
C102 C103 1.267 . S
C103 H71 0.929 . S
C103 C102 1.267 . S
C103 C104 1.251 . S
C104 H74 0.929 . S
C104 N100 1.418 . S
C104 C103 1.251 . S
C105 H72 0.930 . S
C105 C107 1.406 1_455 S
C105 C110 1.261 . S
C106 H73 0.931 . S
C106 N108 1.338 . S
C106 C109 1.344 1_655 S
C107 H75 0.928 . S
C107 C105 1.406 1_655 S
C107 N108 1.261 . S
N108 Co59 2.214 . S
N108 C106 1.338 . S
N108 C107 1.261 . S
C109 H79 0.931 . S
C109 C106 1.344 1_455 S
C109 C110 1.312 . S
C110 H81 0.930 . S
C110 C105 1.261 . S
C110 C109 1.312 . S
C111 O83 1.214 . S
C111 O91 1.234 . S
C112 H84 0.929 . S
C112 C115 1.391 . S
C112 C117 1.391 . S
C113 H85 0.929 . S
C113 C114 1.390 . S
C113 N116 1.391 . S
C114 H86 0.930 . S
C114 C113 1.390 . S
C114 C115 1.392 . S
C115 H87 0.929 . S
C115 C112 1.391 . S
C115 C114 1.392 . S
N116 Co60 2.257 . S
N116 C113 1.391 . S
N116 C117 1.388 . S
C117 H88 0.930 . S
C117 C112 1.391 . S
C117 N116 1.388 . S
Co118 O120 2.143 . S
Co118 O126 2.074 . S
Co118 O129 2.093 . S
Co118 O142 2.097 . S
Co118 N159 2.151 . S
Co118 N167 2.214 . S
Co119 O120 2.160 . S
Co119 O125 2.058 . S
Co119 O135 2.057 . S
Co119 O150 2.037 . S
Co119 N154 2.145 . S
Co119 N175 2.257 . S
O120 Co118 2.143 . S
O120 Co119 2.160 . S
C121 O122 1.278 . S
C121 O129 1.224 . S
O122 C121 1.278 . S
C123 O124 1.245 . S
C123 O135 1.232 . S
O124 C123 1.245 . S
O125 Co119 2.058 . S
O125 C151 1.269 . S
O126 Co118 2.074 . S
O126 C151 1.257 . S
H127 C152 0.930 . S
H128 C158 0.930 . S
O129 Co118 2.093 . S
O129 C121 1.224 . S
H130 C162 0.929 . S
H131 C164 0.930 . S
H132 C165 0.930 . S
H133 C163 0.929 . S
H134 C166 0.928 . S
O135 Co119 2.057 . S
O135 C123 1.232 . S
H136 C155 0.929 . S
H137 C156 0.929 . S
H138 C168 0.931 . S
H139 C160 0.929 . S
H140 C169 0.930 . S
H141 C161 0.931 . S
O142 Co118 2.097 . S
O142 C170 1.214 . S
H143 C171 0.929 . S
H144 C172 0.929 . S
H145 C173 0.930 . S
H146 C174 0.929 . S
H147 C176 0.930 . S
H148 C153 0.930 . S
H149 C157 0.930 . S
O150 Co119 2.037 . S
O150 C170 1.234 . S
C151 O125 1.269 . S
C151 O126 1.257 . S
C152 H127 0.930 . S
C152 C155 1.388 . S
C152 C157 1.418 . S
C153 H148 0.930 . S
C153 C156 1.404 . S
C153 C157 1.353 . S
N154 Co119 2.145 . S
N154 C155 1.397 . S
N154 C156 1.334 . S
C155 H136 0.929 . S
C155 C152 1.388 . S
C155 N154 1.397 . S
C156 H137 0.929 . S
C156 C153 1.404 . S
C156 N154 1.334 . S
C157 H149 0.930 . S
C157 C152 1.418 . S
C157 C153 1.353 . S
C158 H128 0.930 . S
C158 N159 1.330 . S
C158 C160 1.446 . S
N159 Co118 2.151 . S
N159 C158 1.330 . S
N159 C163 1.418 . S
C160 H139 0.929 . S
C160 C158 1.446 . S
C160 C161 1.332 . S
C161 H141 0.931 . S
C161 C160 1.332 . S
C161 C162 1.267 . S
C162 H130 0.929 . S
C162 C161 1.267 . S
C162 C163 1.251 . S
C163 H133 0.929 . S
C163 N159 1.418 . S
C163 C162 1.251 . S
C164 H131 0.930 . S
C164 C166 1.406 1_545 S
C164 C169 1.261 . S
C165 H132 0.930 . S
C165 N167 1.325 . S
C165 C168 1.357 1_565 S
C166 H134 0.928 . S
C166 C164 1.406 1_565 S
C166 N167 1.261 . S
N167 Co118 2.214 . S
N167 C165 1.325 . S
N167 C166 1.261 . S
C168 H138 0.931 . S
C168 C165 1.357 1_545 S
C168 C169 1.312 . S
C169 H140 0.930 . S
C169 C164 1.261 . S
C169 C168 1.312 . S
C170 O142 1.214 . S
C170 O150 1.234 . S
C171 H143 0.929 . S
C171 C174 1.391 . S
C171 C176 1.391 . S
C172 H144 0.929 . S
C172 C173 1.390 . S
C172 N175 1.391 . S
C173 H145 0.930 . S
C173 C172 1.390 . S
C173 C174 1.392 . S
C174 H146 0.929 . S
C174 C171 1.391 . S
C174 C173 1.392 . S
N175 Co119 2.257 . S
N175 C172 1.391 . S
N175 C176 1.388 . S
C176 H147 0.930 . S
C176 C171 1.391 . S
C176 N175 1.388 . S
Co177 O179 2.143 . S
Co177 O185 2.074 . S
Co177 O188 2.093 . S
Co177 O201 2.097 . S
Co177 N218 2.151 . S
Co177 N226 2.214 . S
Co178 O179 2.160 1_455 S
Co178 O184 2.058 1_455 S
Co178 O194 2.057 . S
Co178 O209 2.037 . S
Co178 N213 2.145 . S
Co178 N234 2.257 . S
O179 Co177 2.143 . S
O179 Co178 2.160 1_655 S
C180 O181 1.278 1_655 S
C180 O188 1.224 . S
O181 C180 1.278 1_455 S
C182 O183 1.245 1_455 S
C182 O194 1.232 . S
O183 C182 1.245 1_655 S
O184 Co178 2.058 1_655 S
O184 C210 1.269 . S
O185 Co177 2.074 . S
O185 C210 1.257 . S
H186 C211 0.930 1_556 S
H187 C217 0.930 . S
O188 Co177 2.093 . S
O188 C180 1.224 . S
H189 C221 0.929 . S
H190 C223 0.930 . S
H191 C224 0.930 . S
H192 C222 0.929 . S
H193 C225 0.928 . S
O194 Co178 2.057 . S
O194 C182 1.232 . S
H195 C214 0.929 . S
H196 C215 0.929 . S
H197 C227 0.931 . S
H198 C219 0.929 . S
H199 C228 0.930 . S
H200 C220 0.931 . S
O201 Co177 2.097 . S
O201 C229 1.214 1_655 S
H202 C230 0.929 . S
H203 C231 0.929 . S
H204 C232 0.930 . S
H205 C233 0.929 . S
H206 C235 0.930 . S
H207 C212 0.930 . S
H208 C216 0.930 1_556 S
O209 Co178 2.037 . S
O209 C229 1.234 . S
C210 O184 1.269 . S
C210 O185 1.257 . S
C211 H186 0.930 1_554 S
C211 C214 1.388 . S
C211 C216 1.418 . S
C212 H207 0.930 . S
C212 C215 1.404 . S
C212 C216 1.353 . S
N213 Co178 2.145 . S
N213 C214 1.397 . S
N213 C215 1.334 . S
C214 H195 0.929 . S
C214 C211 1.388 . S
C214 N213 1.397 . S
C215 H196 0.929 . S
C215 C212 1.404 . S
C215 N213 1.334 . S
C216 H208 0.930 1_554 S
C216 C211 1.418 . S
C216 C212 1.353 . S
C217 H187 0.930 . S
C217 N218 1.330 . S
C217 C219 1.446 . S
N218 Co177 2.151 . S
N218 C217 1.330 . S
N218 C222 1.418 . S
C219 H198 0.929 . S
C219 C217 1.446 . S
C219 C220 1.332 . S
C220 H200 0.931 . S
C220 C219 1.332 . S
C220 C221 1.267 . S
C221 H189 0.929 . S
C221 C220 1.267 . S
C221 C222 1.251 . S
C222 H192 0.929 . S
C222 N218 1.418 . S
C222 C221 1.251 . S
C223 H190 0.930 . S
C223 C225 1.406 . S
C223 C228 1.261 . S
C224 H191 0.930 . S
C224 N226 1.325 . S
C224 C227 1.357 . S
C225 H193 0.928 . S
C225 C223 1.406 . S
C225 N226 1.261 . S
N226 Co177 2.214 . S
N226 C224 1.325 . S
N226 C225 1.261 . S
C227 H197 0.931 . S
C227 C224 1.357 . S
C227 C228 1.312 . S
C228 H199 0.930 . S
C228 C223 1.261 . S
C228 C227 1.312 . S
C229 O201 1.214 1_455 S
C229 O209 1.234 . S
C230 H202 0.929 . S
C230 C233 1.391 . S
C230 C235 1.391 . S
C231 H203 0.929 . S
C231 C232 1.390 . S
C231 N234 1.391 . S
C232 H204 0.930 . S
C232 C231 1.390 . S
C232 C233 1.392 . S
C233 H205 0.929 . S
C233 C230 1.391 . S
C233 C232 1.392 . S
N234 Co178 2.257 . S
N234 C231 1.391 . S
N234 C235 1.388 . S
C235 H206 0.930 . S
C235 C230 1.391 . S
C235 N234 1.388 . S
Co236 O238 2.146 . S
Co236 O244 2.074 . S
Co236 O247 2.093 . S
Co236 O260 2.097 1_565 S
Co236 N277 2.151 . S
Co236 N285 2.214 . S
Co237 O238 2.151 1_545 S
Co237 O243 2.058 1_545 S
Co237 O253 2.057 . S
Co237 O268 2.037 . S
Co237 N272 2.145 . S
Co237 N293 2.257 . S
O238 Co236 2.146 . S
O238 Co237 2.151 1_565 S
C239 O240 1.278 1_565 S
C239 O247 1.224 . S
O240 C239 1.278 1_545 S
C241 O242 1.245 1_545 S
C241 O253 1.232 . S
O242 C241 1.245 1_565 S
O243 Co237 2.058 1_565 S
O243 C269 1.269 . S
O244 Co236 2.074 . S
O244 C269 1.257 . S
H245 C270 0.930 . S
H246 C276 0.930 . S
O247 Co236 2.093 . S
O247 C239 1.224 . S
H248 C280 0.929 . S
H249 C282 0.930 . S
H250 C283 0.931 . S
H251 C281 0.929 . S
H252 C284 0.928 . S
O253 Co237 2.057 . S
O253 C241 1.232 . S
H254 C273 0.929 . S
H255 C274 0.929 . S
H256 C286 0.931 . S
H257 C278 0.929 . S
H258 C287 0.930 . S
H259 C279 0.931 . S
O260 Co236 2.097 1_545 S
O260 C288 1.214 . S
H261 C289 0.929 . S
H262 C290 0.929 . S
H263 C291 0.930 . S
H264 C292 0.929 . S
H265 C294 0.930 . S
H266 C271 0.930 . S
H267 C275 0.930 . S
O268 Co237 2.037 . S
O268 C288 1.234 . S
C269 O243 1.269 . S
C269 O244 1.257 . S
C270 H245 0.930 . S
C270 C273 1.388 . S
C270 C275 1.418 . S
C271 H266 0.930 . S
C271 C274 1.404 . S
C271 C275 1.353 . S
N272 Co237 2.145 . S
N272 C273 1.397 . S
N272 C274 1.334 . S
C273 H254 0.929 . S
C273 C270 1.388 . S
C273 N272 1.397 . S
C274 H255 0.929 . S
C274 C271 1.404 . S
C274 N272 1.334 . S
C275 H267 0.930 . S
C275 C270 1.418 . S
C275 C271 1.353 . S
C276 H246 0.930 . S
C276 N277 1.330 . S
C276 C278 1.446 . S
N277 Co236 2.151 . S
N277 C276 1.330 . S
N277 C281 1.418 . S
C278 H257 0.929 . S
C278 C276 1.446 . S
C278 C279 1.332 . S
C279 H259 0.931 . S
C279 C278 1.332 . S
C279 C280 1.267 . S
C280 H248 0.929 . S
C280 C279 1.267 . S
C280 C281 1.251 . S
C281 H251 0.929 . S
C281 N277 1.418 . S
C281 C280 1.251 . S
C282 H249 0.930 . S
C282 C284 1.406 1_655 S
C282 C287 1.261 . S
C283 H250 0.931 . S
C283 N285 1.340 . S
C283 C286 1.341 1_455 S
C284 H252 0.928 . S
C284 C282 1.406 1_455 S
C284 N285 1.261 . S
N285 Co236 2.214 . S
N285 C283 1.340 . S
N285 C284 1.261 . S
C286 H256 0.931 . S
C286 C283 1.341 1_655 S
C286 C287 1.312 . S
C287 H258 0.930 . S
C287 C282 1.261 . S
C287 C286 1.312 . S
C288 O260 1.214 . S
C288 O268 1.234 . S
C289 H261 0.929 . S
C289 C292 1.391 . S
C289 C294 1.391 . S
C290 H262 0.929 . S
C290 C291 1.390 . S
C290 N293 1.391 . S
C291 H263 0.930 . S
C291 C290 1.390 . S
C291 C292 1.392 . S
C292 H264 0.929 . S
C292 C289 1.391 . S
C292 C291 1.392 . S
N293 Co237 2.257 . S
N293 C290 1.391 . S
N293 C294 1.388 . S
C294 H265 0.930 . S
C294 C289 1.391 . S
C294 N293 1.388 . S
Co295 O297 2.143 . S
Co295 O303 2.074 . S
Co295 O306 2.093 . S
Co295 O319 2.097 . S
Co295 N336 2.151 . S
Co295 N344 2.214 . S
Co296 O297 2.160 . S
Co296 O302 2.058 . S
Co296 O312 2.057 . S
Co296 O327 2.037 . S
Co296 N331 2.145 . S
Co296 N352 2.257 . S
O297 Co295 2.143 . S
O297 Co296 2.160 . S
C298 O299 1.278 . S
C298 O306 1.224 . S
O299 C298 1.278 . S
C300 O301 1.245 . S
C300 O312 1.232 . S
O301 C300 1.245 . S
O302 Co296 2.058 . S
O302 C328 1.269 . S
O303 Co295 2.074 . S
O303 C328 1.257 . S
H304 C329 0.930 . S
H305 C335 0.930 . S
O306 Co295 2.093 . S
O306 C298 1.224 . S
H307 C339 0.929 . S
H308 C341 0.930 . S
H309 C342 0.930 . S
H310 C340 0.929 . S
H311 C343 0.928 . S
O312 Co296 2.057 . S
O312 C300 1.232 . S
H313 C332 0.929 . S
H314 C333 0.929 . S
H315 C345 0.931 . S
H316 C337 0.929 . S
H317 C346 0.930 . S
H318 C338 0.931 . S
O319 Co295 2.097 . S
O319 C347 1.214 . S
H320 C348 0.929 . S
H321 C349 0.929 . S
H322 C350 0.930 . S
H323 C351 0.929 . S
H324 C353 0.930 . S
H325 C330 0.930 . S
H326 C334 0.930 . S
O327 Co296 2.037 . S
O327 C347 1.234 . S
C328 O302 1.269 . S
C328 O303 1.257 . S
C329 H304 0.930 . S
C329 C332 1.388 . S
C329 C334 1.418 . S
C330 H325 0.930 . S
C330 C333 1.404 . S
C330 C334 1.353 . S
N331 Co296 2.145 . S
N331 C332 1.397 . S
N331 C333 1.334 . S
C332 H313 0.929 . S
C332 C329 1.388 . S
C332 N331 1.397 . S
C333 H314 0.929 . S
C333 C330 1.404 . S
C333 N331 1.334 . S
C334 H326 0.930 . S
C334 C329 1.418 . S
C334 C330 1.353 . S
C335 H305 0.930 . S
C335 N336 1.330 . S
C335 C337 1.446 . S
N336 Co295 2.151 . S
N336 C335 1.330 . S
N336 C340 1.418 . S
C337 H316 0.929 . S
C337 C335 1.446 . S
C337 C338 1.332 . S
C338 H318 0.931 . S
C338 C337 1.332 . S
C338 C339 1.267 . S
C339 H307 0.929 . S
C339 C338 1.267 . S
C339 C340 1.251 . S
C340 H310 0.929 . S
C340 N336 1.418 . S
C340 C339 1.251 . S
C341 H308 0.930 . S
C341 C343 1.406 1_565 S
C341 C346 1.261 . S
C342 H309 0.930 . S
C342 N344 1.325 . S
C342 C345 1.357 1_545 S
C343 H311 0.928 . S
C343 C341 1.406 1_545 S
C343 N344 1.261 . S
N344 Co295 2.214 . S
N344 C342 1.325 . S
N344 C343 1.261 . S
C345 H315 0.931 . S
C345 C342 1.357 1_565 S
C345 C346 1.312 . S
C346 H317 0.930 . S
C346 C341 1.261 . S
C346 C345 1.312 . S
C347 O319 1.214 . S
C347 O327 1.234 . S
C348 H320 0.929 . S
C348 C351 1.391 . S
C348 C353 1.391 . S
C349 H321 0.929 . S
C349 C350 1.390 . S
C349 N352 1.391 . S
C350 H322 0.930 . S
C350 C349 1.390 . S
C350 C351 1.392 . S
C351 H323 0.929 . S
C351 C348 1.391 . S
C351 C350 1.392 . S
N352 Co296 2.257 . S
N352 C349 1.391 . S
N352 C353 1.388 . S
C353 H324 0.930 . S
C353 C348 1.391 . S
C353 N352 1.388 . S
Co354 O356 2.143 . S
Co354 O362 2.074 . S
Co354 O365 2.093 . S
Co354 O378 2.097 . S
Co354 N395 2.151 . S
Co354 N403 2.214 . S
Co355 O356 2.160 1_545 S
Co355 O361 2.058 1_545 S
Co355 O371 2.057 . S
Co355 O386 2.037 . S
Co355 N390 2.145 . S
Co355 N411 2.257 . S
O356 Co354 2.143 . S
O356 Co355 2.160 1_565 S
C357 O358 1.278 1_565 S
C357 O365 1.224 . S
O358 C357 1.278 1_545 S
C359 O360 1.245 1_545 S
C359 O371 1.232 . S
O360 C359 1.245 1_565 S
O361 Co355 2.058 1_565 S
O361 C387 1.269 . S
O362 Co354 2.074 . S
O362 C387 1.257 . S
H363 C388 0.930 . S
H364 C394 0.930 . S
O365 Co354 2.093 . S
O365 C357 1.224 . S
H366 C398 0.929 . S
H367 C400 0.930 . S
H368 C401 0.930 . S
H369 C399 0.929 . S
H370 C402 0.928 . S
O371 Co355 2.057 . S
O371 C359 1.232 . S
H372 C391 0.929 . S
H373 C392 0.929 . S
H374 C404 0.931 . S
H375 C396 0.929 . S
H376 C405 0.930 . S
H377 C397 0.931 . S
O378 Co354 2.097 . S
O378 C406 1.214 1_565 S
H379 C407 0.929 . S
H380 C408 0.929 . S
H381 C409 0.930 . S
H382 C410 0.929 . S
H383 C412 0.930 . S
H384 C389 0.930 . S
H385 C393 0.930 . S
O386 Co355 2.037 . S
O386 C406 1.234 . S
C387 O361 1.269 . S
C387 O362 1.257 . S
C388 H363 0.930 . S
C388 C391 1.388 . S
C388 C393 1.418 . S
C389 H384 0.930 . S
C389 C392 1.404 . S
C389 C393 1.353 . S
N390 Co355 2.145 . S
N390 C391 1.397 . S
N390 C392 1.334 . S
C391 H372 0.929 . S
C391 C388 1.388 . S
C391 N390 1.397 . S
C392 H373 0.929 . S
C392 C389 1.404 . S
C392 N390 1.334 . S
C393 H385 0.930 . S
C393 C388 1.418 . S
C393 C389 1.353 . S
C394 H364 0.930 . S
C394 N395 1.330 . S
C394 C396 1.446 . S
N395 Co354 2.151 . S
N395 C394 1.330 . S
N395 C399 1.418 . S
C396 H375 0.929 . S
C396 C394 1.446 . S
C396 C397 1.332 . S
C397 H377 0.931 . S
C397 C396 1.332 . S
C397 C398 1.267 . S
C398 H366 0.929 . S
C398 C397 1.267 . S
C398 C399 1.251 . S
C399 H369 0.929 . S
C399 N395 1.418 . S
C399 C398 1.251 . S
C400 H367 0.930 . S
C400 C402 1.406 . S
C400 C405 1.261 . S
C401 H368 0.930 . S
C401 N403 1.325 . S
C401 C404 1.357 . S
C402 H370 0.928 . S
C402 C400 1.406 . S
C402 N403 1.261 . S
N403 Co354 2.214 . S
N403 C401 1.325 . S
N403 C402 1.261 . S
C404 H374 0.931 . S
C404 C401 1.357 . S
C404 C405 1.312 . S
C405 H376 0.930 . S
C405 C400 1.261 . S
C405 C404 1.312 . S
C406 O378 1.214 1_545 S
C406 O386 1.234 . S
C407 H379 0.929 . S
C407 C410 1.391 . S
C407 C412 1.391 . S
C408 H380 0.929 . S
C408 C409 1.390 . S
C408 N411 1.391 . S
C409 H381 0.930 . S
C409 C408 1.390 . S
C409 C410 1.392 . S
C410 H382 0.929 . S
C410 C407 1.391 . S
C410 C409 1.392 . S
N411 Co355 2.257 . S
N411 C408 1.391 . S
N411 C412 1.388 . S
C412 H383 0.930 . S
C412 C407 1.391 . S
C412 N411 1.388 . S
Co413 O415 2.143 . S
Co413 O421 2.074 . S
Co413 O424 2.093 . S
Co413 O437 2.097 . S
Co413 N454 2.151 . S
Co413 N462 2.214 . S
Co414 O415 2.160 . S
Co414 O420 2.058 . S
Co414 O430 2.057 . S
Co414 O445 2.037 . S
Co414 N449 2.145 . S
Co414 N470 2.257 . S
O415 Co413 2.143 . S
O415 Co414 2.160 . S
C416 O417 1.278 . S
C416 O424 1.224 . S
O417 C416 1.278 . S
C418 O419 1.245 . S
C418 O430 1.232 . S
O419 C418 1.245 . S
O420 Co414 2.058 . S
O420 C446 1.269 . S
O421 Co413 2.074 . S
O421 C446 1.257 . S
H422 C447 0.930 1_554 S
H423 C453 0.930 . S
O424 Co413 2.093 . S
O424 C416 1.224 . S
H425 C457 0.929 . S
H426 C459 0.930 . S
H427 C460 0.930 1_655 S
H428 C458 0.929 . S
H429 C461 0.928 1_655 S
O430 Co414 2.057 . S
O430 C418 1.232 . S
H431 C450 0.929 . S
H432 C451 0.929 . S
H433 C463 0.931 . S
H434 C455 0.929 . S
H435 C464 0.930 . S
H436 C456 0.931 . S
O437 Co413 2.097 . S
O437 C465 1.214 . S
H438 C466 0.929 . S
H439 C467 0.929 . S
H440 C468 0.930 . S
H441 C469 0.929 . S
H442 C471 0.930 . S
H443 C448 0.930 . S
H444 C452 0.930 1_554 S
O445 Co414 2.037 . S
O445 C465 1.234 . S
C446 O420 1.269 . S
C446 O421 1.257 . S
C447 H422 0.930 1_556 S
C447 C450 1.388 . S
C447 C452 1.418 . S
C448 H443 0.930 . S
C448 C451 1.404 . S
C448 C452 1.353 . S
N449 Co414 2.145 . S
N449 C450 1.397 . S
N449 C451 1.334 . S
C450 H431 0.929 . S
C450 C447 1.388 . S
C450 N449 1.397 . S
C451 H432 0.929 . S
C451 C448 1.404 . S
C451 N449 1.334 . S
C452 H444 0.930 1_556 S
C452 C447 1.418 . S
C452 C448 1.353 . S
C453 H423 0.930 . S
C453 N454 1.330 . S
C453 C455 1.446 . S
N454 Co413 2.151 . S
N454 C453 1.330 . S
N454 C458 1.418 . S
C455 H434 0.929 . S
C455 C453 1.446 . S
C455 C456 1.332 . S
C456 H436 0.931 . S
C456 C455 1.332 . S
C456 C457 1.267 . S
C457 H425 0.929 . S
C457 C456 1.267 . S
C457 C458 1.251 . S
C458 H428 0.929 . S
C458 N454 1.418 . S
C458 C457 1.251 . S
C459 H426 0.930 . S
C459 C461 1.406 . S
C459 C464 1.261 . S
C460 H427 0.930 1_455 S
C460 N462 1.325 1_455 S
C460 C463 1.357 . S
C461 H429 0.928 1_455 S
C461 C459 1.406 . S
C461 N462 1.261 1_455 S
N462 Co413 2.214 . S
N462 C460 1.325 1_655 S
N462 C461 1.261 1_655 S
C463 H433 0.931 . S
C463 C460 1.357 . S
C463 C464 1.312 . S
C464 H435 0.930 . S
C464 C459 1.261 . S
C464 C463 1.312 . S
C465 O437 1.214 . S
C465 O445 1.234 . S
C466 H438 0.929 . S
C466 C469 1.391 . S
C466 C471 1.391 . S
C467 H439 0.929 . S
C467 C468 1.390 . S
C467 N470 1.391 . S
C468 H440 0.930 . S
C468 C467 1.390 . S
C468 C469 1.392 . S
C469 H441 0.929 . S
C469 C466 1.391 . S
C469 C468 1.392 . S
N470 Co414 2.257 . S
N470 C467 1.391 . S
N470 C471 1.388 . S
C471 H442 0.930 . S
C471 C466 1.391 . S
C471 N470 1.388 . S
Co472 O474 2.145 . S
Co472 O480 2.074 . S
Co472 O483 2.093 . S
Co472 O496 2.097 1_455 S
Co472 N513 2.151 . S
Co472 N521 2.214 . S
Co473 O474 2.153 1_655 S
Co473 O479 2.058 1_655 S
Co473 O489 2.057 . S
Co473 O504 2.037 . S
Co473 N508 2.145 . S
Co473 N529 2.257 . S
O474 Co472 2.145 . S
O474 Co473 2.153 1_455 S
C475 O476 1.278 1_455 S
C475 O483 1.224 . S
O476 C475 1.278 1_655 S
C477 O478 1.245 1_655 S
C477 O489 1.232 . S
O478 C477 1.245 1_455 S
O479 Co473 2.058 1_455 S
O479 C505 1.269 . S
O480 Co472 2.074 . S
O480 C505 1.257 . S
H481 C506 0.930 . S
H482 C512 0.930 . S
O483 Co472 2.093 . S
O483 C475 1.224 . S
H484 C516 0.929 . S
H485 C518 0.930 . S
H486 C519 0.930 . S
H487 C517 0.929 . S
H488 C520 0.928 . S
O489 Co473 2.057 . S
O489 C477 1.232 . S
H490 C509 0.929 . S
H491 C510 0.929 . S
H492 C522 0.931 . S
H493 C514 0.929 . S
H494 C523 0.930 . S
H495 C515 0.931 . S
O496 Co472 2.097 1_655 S
O496 C524 1.214 . S
H497 C525 0.929 . S
H498 C526 0.929 . S
H499 C527 0.930 . S
H500 C528 0.929 . S
H501 C530 0.930 . S
H502 C507 0.930 . S
H503 C511 0.930 . S
O504 Co473 2.037 . S
O504 C524 1.234 . S
C505 O479 1.269 . S
C505 O480 1.257 . S
C506 H481 0.930 . S
C506 C509 1.388 . S
C506 C511 1.418 . S
C507 H502 0.930 . S
C507 C510 1.404 . S
C507 C511 1.353 . S
N508 Co473 2.145 . S
N508 C509 1.397 . S
N508 C510 1.334 . S
C509 H490 0.929 . S
C509 C506 1.388 . S
C509 N508 1.397 . S
C510 H491 0.929 . S
C510 C507 1.404 . S
C510 N508 1.334 . S
C511 H503 0.930 . S
C511 C506 1.418 . S
C511 C507 1.353 . S
C512 H482 0.930 . S
C512 N513 1.330 . S
C512 C514 1.446 . S
N513 Co472 2.151 . S
N513 C512 1.330 . S
N513 C517 1.418 . S
C514 H493 0.929 . S
C514 C512 1.446 . S
C514 C515 1.332 . S
C515 H495 0.931 . S
C515 C514 1.332 . S
C515 C516 1.267 . S
C516 H484 0.929 . S
C516 C515 1.267 . S
C516 C517 1.251 . S
C517 H487 0.929 . S
C517 N513 1.418 . S
C517 C516 1.251 . S
C518 H485 0.930 . S
C518 C520 1.406 1_545 S
C518 C523 1.261 . S
C519 H486 0.930 . S
C519 N521 1.325 . S
C519 C522 1.357 1_565 S
C520 H488 0.928 . S
C520 C518 1.406 1_565 S
C520 N521 1.261 . S
N521 Co472 2.214 . S
N521 C519 1.325 . S
N521 C520 1.261 . S
C522 H492 0.931 . S
C522 C519 1.357 1_545 S
C522 C523 1.312 . S
C523 H494 0.930 . S
C523 C518 1.261 . S
C523 C522 1.312 . S
C524 O496 1.214 . S
C524 O504 1.234 . S
C525 H497 0.929 . S
C525 C528 1.391 . S
C525 C530 1.391 . S
C526 H498 0.929 . S
C526 C527 1.390 . S
C526 N529 1.391 . S
C527 H499 0.930 . S
C527 C526 1.390 . S
C527 C528 1.392 . S
C528 H500 0.929 . S
C528 C525 1.391 . S
C528 C527 1.392 . S
N529 Co473 2.257 . S
N529 C526 1.391 . S
N529 C530 1.388 . S
C530 H501 0.930 . S
C530 C525 1.391 . S
C530 N529 1.388 . S
Co531 O533 2.143 . S
Co531 O539 2.074 . S
Co531 O542 2.093 . S
Co531 O555 2.097 . S
Co531 N572 2.151 . S
Co531 N580 2.214 . S
Co532 O533 2.160 1_565 S
Co532 O538 2.058 1_565 S
Co532 O548 2.057 . S
Co532 O563 2.037 . S
Co532 N567 2.145 . S
Co532 N588 2.257 . S
O533 Co531 2.143 . S
O533 Co532 2.160 1_545 S
C534 O535 1.278 1_545 S
C534 O542 1.224 . S
O535 C534 1.278 1_565 S
C536 O537 1.245 1_565 S
C536 O548 1.232 . S
O537 C536 1.245 1_545 S
O538 Co532 2.058 1_545 S
O538 C564 1.269 . S
O539 Co531 2.074 . S
O539 C564 1.257 . S
H540 C565 0.930 . S
H541 C571 0.930 . S
O542 Co531 2.093 . S
O542 C534 1.224 . S
H543 C575 0.929 . S
H544 C577 0.930 . S
H545 C578 0.930 . S
H546 C576 0.929 . S
H547 C579 0.928 . S
O548 Co532 2.057 . S
O548 C536 1.232 . S
H549 C568 0.929 . S
H550 C569 0.929 . S
H551 C581 0.931 . S
H552 C573 0.929 . S
H553 C582 0.930 . S
H554 C574 0.931 . S
O555 Co531 2.097 . S
O555 C583 1.214 1_545 S
H556 C584 0.929 . S
H557 C585 0.929 . S
H558 C586 0.930 . S
H559 C587 0.929 . S
H560 C589 0.930 . S
H561 C566 0.930 . S
H562 C570 0.930 . S
O563 Co532 2.037 . S
O563 C583 1.234 . S
C564 O538 1.269 . S
C564 O539 1.257 . S
C565 H540 0.930 . S
C565 C568 1.388 . S
C565 C570 1.418 . S
C566 H561 0.930 . S
C566 C569 1.404 . S
C566 C570 1.353 . S
N567 Co532 2.145 . S
N567 C568 1.397 . S
N567 C569 1.334 . S
C568 H549 0.929 . S
C568 C565 1.388 . S
C568 N567 1.397 . S
C569 H550 0.929 . S
C569 C566 1.404 . S
C569 N567 1.334 . S
C570 H562 0.930 . S
C570 C565 1.418 . S
C570 C566 1.353 . S
C571 H541 0.930 . S
C571 N572 1.330 . S
C571 C573 1.446 . S
N572 Co531 2.151 . S
N572 C571 1.330 . S
N572 C576 1.418 . S
C573 H552 0.929 . S
C573 C571 1.446 . S
C573 C574 1.332 . S
C574 H554 0.931 . S
C574 C573 1.332 . S
C574 C575 1.267 . S
C575 H543 0.929 . S
C575 C574 1.267 . S
C575 C576 1.251 . S
C576 H546 0.929 . S
C576 N572 1.418 . S
C576 C575 1.251 . S
C577 H544 0.930 . S
C577 C579 1.406 . S
C577 C582 1.261 . S
C578 H545 0.930 . S
C578 N580 1.325 . S
C578 C581 1.357 . S
C579 H547 0.928 . S
C579 C577 1.406 . S
C579 N580 1.261 . S
N580 Co531 2.214 . S
N580 C578 1.325 . S
N580 C579 1.261 . S
C581 H551 0.931 . S
C581 C578 1.357 . S
C581 C582 1.312 . S
C582 H553 0.930 . S
C582 C577 1.261 . S
C582 C581 1.312 . S
C583 O555 1.214 1_565 S
C583 O563 1.234 . S
C584 H556 0.929 . S
C584 C587 1.391 . S
C584 C589 1.391 . S
C585 H557 0.929 . S
C585 C586 1.390 . S
C585 N588 1.391 . S
C586 H558 0.930 . S
C586 C585 1.390 . S
C586 C587 1.392 . S
C587 H559 0.929 . S
C587 C584 1.391 . S
C587 C586 1.392 . S
N588 Co532 2.257 . S
N588 C585 1.391 . S
N588 C589 1.388 . S
C589 H560 0.930 . S
C589 C584 1.391 . S
C589 N588 1.388 . S
Co590 O592 2.143 . S
Co590 O598 2.074 . S
Co590 O601 2.093 . S
Co590 O614 2.097 . S
Co590 N631 2.151 . S
Co590 N639 2.214 . S
Co591 O592 2.160 . S
Co591 O597 2.058 . S
Co591 O607 2.057 . S
Co591 O622 2.037 . S
Co591 N626 2.145 . S
Co591 N647 2.257 . S
O592 Co590 2.143 . S
O592 Co591 2.160 . S
C593 O594 1.278 . S
C593 O601 1.224 . S
O594 C593 1.278 . S
C595 O596 1.245 . S
C595 O607 1.232 . S
O596 C595 1.245 . S
O597 Co591 2.058 . S
O597 C623 1.269 . S
O598 Co590 2.074 . S
O598 C623 1.257 . S
H599 C624 0.930 1_554 S
H600 C630 0.930 . S
O601 Co590 2.093 . S
O601 C593 1.224 . S
H602 C634 0.929 . S
H603 C636 0.930 . S
H604 C637 0.930 1_455 S
H605 C635 0.929 . S
H606 C638 0.928 1_455 S
O607 Co591 2.057 . S
O607 C595 1.232 . S
H608 C627 0.929 . S
H609 C628 0.929 . S
H610 C640 0.931 . S
H611 C632 0.929 . S
H612 C641 0.930 . S
H613 C633 0.931 . S
O614 Co590 2.097 . S
O614 C642 1.214 . S
H615 C643 0.929 . S
H616 C644 0.929 . S
H617 C645 0.930 . S
H618 C646 0.929 . S
H619 C648 0.930 . S
H620 C625 0.930 . S
H621 C629 0.930 1_554 S
O622 Co591 2.037 . S
O622 C642 1.234 . S
C623 O597 1.269 . S
C623 O598 1.257 . S
C624 H599 0.930 1_556 S
C624 C627 1.388 . S
C624 C629 1.418 . S
C625 H620 0.930 . S
C625 C628 1.404 . S
C625 C629 1.353 . S
N626 Co591 2.145 . S
N626 C627 1.397 . S
N626 C628 1.334 . S
C627 H608 0.929 . S
C627 C624 1.388 . S
C627 N626 1.397 . S
C628 H609 0.929 . S
C628 C625 1.404 . S
C628 N626 1.334 . S
C629 H621 0.930 1_556 S
C629 C624 1.418 . S
C629 C625 1.353 . S
C630 H600 0.930 . S
C630 N631 1.330 . S
C630 C632 1.446 . S
N631 Co590 2.151 . S
N631 C630 1.330 . S
N631 C635 1.418 . S
C632 H611 0.929 . S
C632 C630 1.446 . S
C632 C633 1.332 . S
C633 H613 0.931 . S
C633 C632 1.332 . S
C633 C634 1.267 . S
C634 H602 0.929 . S
C634 C633 1.267 . S
C634 C635 1.251 . S
C635 H605 0.929 . S
C635 N631 1.418 . S
C635 C634 1.251 . S
C636 H603 0.930 . S
C636 C638 1.406 . S
C636 C641 1.261 . S
C637 H604 0.930 1_655 S
C637 N639 1.325 1_655 S
C637 C640 1.357 . S
C638 H606 0.928 1_655 S
C638 C636 1.406 . S
C638 N639 1.261 1_655 S
N639 Co590 2.214 . S
N639 C637 1.325 1_455 S
N639 C638 1.261 1_455 S
C640 H610 0.931 . S
C640 C637 1.357 . S
C640 C641 1.312 . S
C641 H612 0.930 . S
C641 C636 1.261 . S
C641 C640 1.312 . S
C642 O614 1.214 . S
C642 O622 1.234 . S
C643 H615 0.929 . S
C643 C646 1.391 . S
C643 C648 1.391 . S
C644 H616 0.929 . S
C644 C645 1.390 . S
C644 N647 1.391 . S
C645 H617 0.930 . S
C645 C644 1.390 . S
C645 C646 1.392 . S
C646 H618 0.929 . S
C646 C643 1.391 . S
C646 C645 1.392 . S
N647 Co591 2.257 . S
N647 C644 1.391 . S
N647 C648 1.388 . S
C648 H619 0.930 . S
C648 C643 1.391 . S
C648 N647 1.388 . S
Co649 O651 2.145 . S
Co649 O657 2.074 . S
Co649 O660 2.093 . S
Co649 O673 2.097 1_655 S
Co649 N690 2.151 . S
Co649 N698 2.214 . S
Co650 O651 2.152 1_455 S
Co650 O656 2.058 1_455 S
Co650 O666 2.057 . S
Co650 O681 2.037 . S
Co650 N685 2.145 . S
Co650 N706 2.257 . S
O651 Co649 2.145 . S
O651 Co650 2.152 1_655 S
C652 O653 1.278 1_655 S
C652 O660 1.224 . S
O653 C652 1.278 1_455 S
C654 O655 1.245 1_455 S
C654 O666 1.232 . S
O655 C654 1.245 1_655 S
O656 Co650 2.058 1_655 S
O656 C682 1.269 . S
O657 Co649 2.074 . S
O657 C682 1.257 . S
H658 C683 0.930 . S
H659 C689 0.930 . S
O660 Co649 2.093 . S
O660 C652 1.224 . S
H661 C693 0.929 . S
H662 C695 0.930 . S
H663 C696 0.930 . S
H664 C694 0.929 . S
H665 C697 0.928 . S
O666 Co650 2.057 . S
O666 C654 1.232 . S
H667 C686 0.929 . S
H668 C687 0.929 . S
H669 C699 0.931 . S
H670 C691 0.929 . S
H671 C700 0.930 . S
H672 C692 0.931 . S
O673 Co649 2.097 1_455 S
O673 C701 1.214 . S
H674 C702 0.929 . S
H675 C703 0.929 . S
H676 C704 0.930 . S
H677 C705 0.929 . S
H678 C707 0.930 . S
H679 C684 0.930 . S
H680 C688 0.930 . S
O681 Co650 2.037 . S
O681 C701 1.234 . S
C682 O656 1.269 . S
C682 O657 1.257 . S
C683 H658 0.930 . S
C683 C686 1.388 . S
C683 C688 1.418 . S
C684 H679 0.930 . S
C684 C687 1.404 . S
C684 C688 1.353 . S
N685 Co650 2.145 . S
N685 C686 1.397 . S
N685 C687 1.334 . S
C686 H667 0.929 . S
C686 C683 1.388 . S
C686 N685 1.397 . S
C687 H668 0.929 . S
C687 C684 1.404 . S
C687 N685 1.334 . S
C688 H680 0.930 . S
C688 C683 1.418 . S
C688 C684 1.353 . S
C689 H659 0.930 . S
C689 N690 1.330 . S
C689 C691 1.446 . S
N690 Co649 2.151 . S
N690 C689 1.330 . S
N690 C694 1.418 . S
C691 H670 0.929 . S
C691 C689 1.446 . S
C691 C692 1.332 . S
C692 H672 0.931 . S
C692 C691 1.332 . S
C692 C693 1.267 . S
C693 H661 0.929 . S
C693 C692 1.267 . S
C693 C694 1.251 . S
C694 H664 0.929 . S
C694 N690 1.418 . S
C694 C693 1.251 . S
C695 H662 0.930 . S
C695 C697 1.406 1_565 S
C695 C700 1.261 . S
C696 H663 0.930 . S
C696 N698 1.325 . S
C696 C699 1.357 1_545 S
C697 H665 0.928 . S
C697 C695 1.406 1_545 S
C697 N698 1.261 . S
N698 Co649 2.214 . S
N698 C696 1.325 . S
N698 C697 1.261 . S
C699 H669 0.931 . S
C699 C696 1.357 1_565 S
C699 C700 1.312 . S
C700 H671 0.930 . S
C700 C695 1.261 . S
C700 C699 1.312 . S
C701 O673 1.214 . S
C701 O681 1.234 . S
C702 H674 0.929 . S
C702 C705 1.391 . S
C702 C707 1.391 . S
C703 H675 0.929 . S
C703 C704 1.390 . S
C703 N706 1.391 . S
C704 H676 0.930 . S
C704 C703 1.390 . S
C704 C705 1.392 . S
C705 H677 0.929 . S
C705 C702 1.391 . S
C705 C704 1.392 . S
N706 Co650 2.257 . S
N706 C703 1.391 . S
N706 C707 1.388 . S
C707 H678 0.930 . S
C707 C702 1.391 . S
C707 N706 1.388 . S
C708 C709 1.369 1_455 S
C708 C710 1.419 . S
C708 H712 0.930 . S
C709 C708 1.369 1_655 S
C709 C718 1.429 . S
C710 C708 1.419 . S
C710 C711 1.363 . S
C710 H713 0.929 . S
C711 C710 1.363 . S
C711 C717 1.428 1_455 S
H712 C708 0.930 . S
H713 C710 0.929 . S
S714 N715 1.613 . S
S714 N716 1.610 . S
N715 S714 1.613 . S
N715 C718 1.350 . S
N716 S714 1.610 . S
N716 C717 1.351 . S
C717 C711 1.428 1_655 S
C717 N716 1.351 . S
C717 C718 1.434 . S
C718 C709 1.429 . S
C718 N715 1.350 . S
C718 C717 1.434 . S
C719 C720 1.369 1_565 S
C719 C721 1.419 . S
C719 H723 0.930 . S
C720 C719 1.369 1_545 S
C720 C729 1.429 . S
C721 C719 1.419 . S
C721 C722 1.363 . S
C721 H724 0.929 . S
C722 C721 1.363 . S
C722 C728 1.428 1_565 S
H723 C719 0.930 . S
H724 C721 0.929 . S
S725 N726 1.613 . S
S725 N727 1.610 . S
N726 S725 1.613 . S
N726 C729 1.350 . S
N727 S725 1.610 . S
N727 C728 1.351 . S
C728 C722 1.428 1_545 S
C728 N727 1.351 . S
C728 C729 1.434 . S
C729 C720 1.429 . S
C729 N726 1.350 . S
C729 C728 1.434 . S
C730 C731 1.369 . S
C730 C732 1.419 . S
C730 H734 0.930 . S
C731 C730 1.369 . S
C731 C740 1.429 . S
C732 C730 1.419 . S
C732 C733 1.363 . S
C732 H735 0.929 . S
C733 C732 1.363 . S
C733 C739 1.428 . S
H734 C730 0.930 . S
H735 C732 0.929 . S
S736 N737 1.613 . S
S736 N738 1.610 . S
N737 S736 1.613 . S
N737 C740 1.350 . S
N738 S736 1.610 . S
N738 C739 1.351 . S
C739 C733 1.428 . S
C739 N738 1.351 . S
C739 C740 1.434 . S
C740 C731 1.429 . S
C740 N737 1.350 . S
C740 C739 1.434 . S
C741 C742 1.369 1_455 S
C741 C743 1.419 . S
C741 H745 0.930 . S
C742 C741 1.369 1_655 S
C742 C751 1.429 . S
C743 C741 1.419 . S
C743 C744 1.363 . S
C743 H746 0.929 . S
C744 C743 1.363 . S
C744 C750 1.428 1_455 S
H745 C741 0.930 . S
H746 C743 0.929 . S
S747 N748 1.613 . S
S747 N749 1.610 . S
N748 S747 1.613 . S
N748 C751 1.350 . S
N749 S747 1.610 . S
N749 C750 1.351 . S
C750 C744 1.428 1_655 S
C750 N749 1.351 . S
C750 C751 1.434 . S
C751 C742 1.429 . S
C751 N748 1.350 . S
C751 C750 1.434 . S
C752 C753 1.369 1_565 S
C752 C754 1.419 . S
C752 H756 0.930 . S
C753 C752 1.369 1_545 S
C753 C762 1.429 . S
C754 C752 1.419 . S
C754 C755 1.363 . S
C754 H757 0.929 . S
C755 C754 1.363 . S
C755 C761 1.428 1_565 S
H756 C752 0.930 . S
H757 C754 0.929 . S
S758 N759 1.613 . S
S758 N760 1.610 . S
N759 S758 1.613 . S
N759 C762 1.350 . S
N760 S758 1.610 . S
N760 C761 1.351 . S
C761 C755 1.428 1_545 S
C761 N760 1.351 . S
C761 C762 1.434 . S
C762 C753 1.429 . S
C762 N759 1.350 . S
C762 C761 1.434 . S
C763 C764 1.369 . S
C763 C765 1.419 . S
C763 H767 0.930 . S
C764 C763 1.369 . S
C764 C773 1.429 . S
C765 C763 1.419 . S
C765 C766 1.363 . S
C765 H768 0.929 . S
C766 C765 1.363 . S
C766 C772 1.428 . S
H767 C763 0.930 . S
H768 C765 0.929 . S
S769 N770 1.613 . S
S769 N771 1.610 . S
N770 S769 1.613 . S
N770 C773 1.350 . S
N771 S769 1.610 . S
N771 C772 1.351 . S
C772 C766 1.428 . S
C772 N771 1.351 . S
C772 C773 1.434 . S
C773 C764 1.429 . S
C773 N770 1.350 . S
C773 C772 1.434 . S
C774 C775 1.369 . S
C774 C776 1.419 1_554 S
C774 H778 0.930 . S
C775 C774 1.369 . S
C775 C784 1.429 . S
C776 C774 1.419 1_556 S
C776 C777 1.363 . S
C776 H779 0.929 . S
C777 C776 1.363 . S
C777 C783 1.428 . S
H778 C774 0.930 . S
H779 C776 0.929 . S
S780 N781 1.613 . S
S780 N782 1.610 1_554 S
N781 S780 1.613 . S
N781 C784 1.350 . S
N782 S780 1.610 1_556 S
N782 C783 1.351 . S
C783 C777 1.428 . S
C783 N782 1.351 . S
C783 C784 1.434 1_556 S
C784 C775 1.429 . S
C784 N781 1.350 . S
C784 C783 1.434 1_554 S
C785 C786 1.369 . S
C785 C787 1.419 . S
C785 H789 0.930 . S
C786 C785 1.369 . S
C786 C795 1.429 . S
C787 C785 1.419 . S
C787 C788 1.363 . S
C787 H790 0.929 . S
C788 C787 1.363 . S
C788 C794 1.428 . S
H789 C785 0.930 . S
H790 C787 0.929 . S
S791 N792 1.613 . S
S791 N793 1.610 . S
N792 S791 1.613 . S
N792 C795 1.350 . S
N793 S791 1.610 . S
N793 C794 1.351 . S
C794 C788 1.428 . S
C794 N793 1.351 . S
C794 C795 1.434 . S
C795 C786 1.429 . S
C795 N792 1.350 . S
C795 C794 1.434 . S
C796 C797 1.369 . S
C796 C798 1.419 . S
C796 H800 0.930 . S
C797 C796 1.369 . S
C797 C806 1.429 . S
C798 C796 1.419 . S
C798 C799 1.363 . S
C798 H801 0.929 . S
C799 C798 1.363 . S
C799 C805 1.428 . S
H800 C796 0.930 . S
H801 C798 0.929 . S
S802 N803 1.613 . S
S802 N804 1.610 . S
N803 S802 1.613 . S
N803 C806 1.350 . S
N804 S802 1.610 . S
N804 C805 1.351 . S
C805 C799 1.428 . S
C805 N804 1.351 . S
C805 C806 1.434 . S
C806 C797 1.429 . S
C806 N803 1.350 . S
C806 C805 1.434 . S
C807 C808 1.369 . S
C807 C809 1.419 1_554 S
C807 H811 0.930 . S
C808 C807 1.369 . S
C808 C817 1.429 . S
C809 C807 1.419 1_556 S
C809 C810 1.363 . S
C809 H812 0.929 . S
C810 C809 1.363 . S
C810 C816 1.428 . S
H811 C807 0.930 . S
H812 C809 0.929 . S
S813 N814 1.613 1_456 S
S813 N815 1.610 1_455 S
N814 S813 1.613 1_654 S
N814 C817 1.350 . S
N815 S813 1.610 1_655 S
N815 C816 1.351 . S
C816 C810 1.428 . S
C816 N815 1.351 . S
C816 C817 1.434 1_556 S
C817 C808 1.429 . S
C817 N814 1.350 . S
C817 C816 1.434 1_554 S
C818 C819 1.369 . S
C818 C820 1.419 . S
C818 H822 0.930 . S
C819 C818 1.369 . S
C819 C828 1.429 . S
C820 C818 1.419 . S
C820 C821 1.363 . S
C820 H823 0.929 . S
C821 C820 1.363 . S
C821 C827 1.428 . S
H822 C818 0.930 . S
H823 C820 0.929 . S
S824 N825 1.613 . S
S824 N826 1.610 . S
N825 S824 1.613 . S
N825 C828 1.350 . S
N826 S824 1.610 . S
N826 C827 1.351 . S
C827 C821 1.428 . S
C827 N826 1.351 . S
C827 C828 1.434 . S
C828 C819 1.429 . S
C828 N825 1.350 . S
C828 C827 1.434 . S
C829 C830 1.369 . S
C829 C831 1.419 . S
C829 H833 0.930 . S
C830 C829 1.369 . S
C830 C839 1.429 . S
C831 C829 1.419 . S
C831 C832 1.363 . S
C831 H834 0.929 . S
C832 C831 1.363 . S
C832 C838 1.428 . S
H833 C829 0.930 . S
H834 C831 0.929 . S
S835 N836 1.613 . S
S835 N837 1.610 . S
N836 S835 1.613 . S
N836 C839 1.350 . S
N837 S835 1.610 . S
N837 C838 1.351 . S
C838 C832 1.428 . S
C838 N837 1.351 . S
C838 C839 1.434 . S
C839 C830 1.429 . S
C839 N836 1.350 . S
C839 C838 1.434 . S
C840 C841 1.369 . S
C840 C842 1.419 . S
C840 H844 0.930 . S
C841 C840 1.369 . S
C841 C850 1.429 1_455 S
C842 C840 1.419 . S
C842 C843 1.363 1_455 S
C842 H845 0.929 . S
C843 C842 1.363 1_655 S
C843 C849 1.428 . S
H844 C840 0.930 . S
H845 C842 0.929 . S
S846 N847 1.613 . S
S846 N848 1.610 . S
N847 S846 1.613 . S
N847 C850 1.350 . S
N848 S846 1.610 . S
N848 C849 1.351 . S
C849 C843 1.428 . S
C849 N848 1.351 . S
C849 C850 1.434 . S
C850 C841 1.429 1_655 S
C850 N847 1.350 . S
C850 C849 1.434 . S
C851 C852 1.369 1_545 S
C851 C853 1.419 . S
C851 H855 0.930 . S
C852 C851 1.369 1_565 S
C852 C861 1.429 . S
C853 C851 1.419 . S
C853 C854 1.363 . S
C853 H856 0.929 . S
C854 C853 1.363 . S
C854 C860 1.428 1_545 S
H855 C851 0.930 . S
H856 C853 0.929 . S
S857 N858 1.613 . S
S857 N859 1.610 . S
N858 S857 1.613 . S
N858 C861 1.350 . S
N859 S857 1.610 . S
N859 C860 1.351 . S
C860 C854 1.428 1_565 S
C860 N859 1.351 . S
C860 C861 1.434 . S
C861 C852 1.429 . S
C861 N858 1.350 . S
C861 C860 1.434 . S
C862 C863 1.369 . S
C862 C864 1.419 . S
C862 H866 0.930 . S
C863 C862 1.369 . S
C863 C872 1.429 . S
C864 C862 1.419 . S
C864 C865 1.363 . S
C864 H867 0.929 . S
C865 C864 1.363 . S
C865 C871 1.428 . S
H866 C862 0.930 . S
H867 C864 0.929 . S
S868 N869 1.613 . S
S868 N870 1.610 . S
N869 S868 1.613 . S
N869 C872 1.350 . S
N870 S868 1.610 . S
N870 C871 1.351 . S
C871 C865 1.428 . S
C871 N870 1.351 . S
C871 C872 1.434 . S
C872 C863 1.429 . S
C872 N869 1.350 . S
C872 C871 1.434 . S
C873 C874 1.369 1_545 S
C873 C875 1.419 . S
C873 H877 0.930 . S
C874 C873 1.369 1_565 S
C874 C883 1.429 . S
C875 C873 1.419 . S
C875 C876 1.363 . S
C875 H878 0.929 . S
C876 C875 1.363 . S
C876 C882 1.428 1_545 S
H877 C873 0.930 . S
H878 C875 0.929 . S
S879 N880 1.613 . S
S879 N881 1.610 . S
N880 S879 1.613 . S
N880 C883 1.350 . S
N881 S879 1.610 . S
N881 C882 1.351 . S
C882 C876 1.428 1_565 S
C882 N881 1.351 . S
C882 C883 1.434 . S
C883 C874 1.429 . S
C883 N880 1.350 . S
C883 C882 1.434 . S
C884 C885 1.369 . S
C884 C886 1.419 . S
C884 H888 0.930 . S
C885 C884 1.369 . S
C885 C894 1.429 . S
C886 C884 1.419 . S
C886 C887 1.363 . S
C886 H889 0.929 . S
C887 C886 1.363 . S
C887 C893 1.428 . S
H888 C884 0.930 . S
H889 C886 0.929 . S
S890 N891 1.613 . S
S890 N892 1.610 . S
N891 S890 1.613 . S
N891 C894 1.350 . S
N892 S890 1.610 . S
N892 C893 1.351 . S
C893 C887 1.428 . S
C893 N892 1.351 . S
C893 C894 1.434 . S
C894 C885 1.429 . S
C894 N891 1.350 . S
C894 C893 1.434 . S
C895 C896 1.369 1_455 S
C895 C897 1.419 . S
C895 H899 0.930 . S
C896 C895 1.369 1_655 S
C896 C905 1.429 . S
C897 C895 1.419 . S
C897 C898 1.363 . S
C897 H900 0.929 . S
C898 C897 1.363 . S
C898 C904 1.428 1_455 S
H899 C895 0.930 . S
H900 C897 0.929 . S
S901 N902 1.613 . S
S901 N903 1.610 . S
N902 S901 1.613 . S
N902 C905 1.350 . S
N903 S901 1.610 . S
N903 C904 1.351 . S
C904 C898 1.428 1_655 S
C904 N903 1.351 . S
C904 C905 1.434 . S
C905 C896 1.429 . S
C905 N902 1.350 . S
C905 C904 1.434 . S
C906 C907 1.377 . S
C906 C908 1.408 1_545 S
C906 H910 0.934 1_545 S
C907 C906 1.377 . S
C907 C916 1.429 1_655 S
C908 C906 1.408 1_565 S
C908 C909 1.363 1_655 S
C908 H911 0.929 . S
C909 C908 1.363 1_455 S
C909 C915 1.428 1_565 S
H910 C906 0.934 1_565 S
H911 C908 0.929 . S
S912 N913 1.613 . S
S912 N914 1.610 . S
N913 S912 1.613 . S
N913 C916 1.350 . S
N914 S912 1.610 . S
N914 C915 1.351 . S
C915 C909 1.428 1_545 S
C915 N914 1.351 . S
C915 C916 1.434 . S
C916 C907 1.429 1_455 S
C916 N913 1.350 . S
C916 C915 1.434 . S
C917 C918 1.369 . S
C917 C919 1.419 1_655 S
C917 H921 0.930 . S
C918 C917 1.369 . S
C918 C927 1.429 1_565 S
C919 C917 1.419 1_455 S
C919 C920 1.363 1_565 S
C919 H922 0.929 . S
C920 C919 1.363 1_545 S
C920 C926 1.428 . S
H921 C917 0.930 . S
H922 C919 0.929 . S
S923 N924 1.613 1_455 S
S923 N925 1.610 . S
N924 S923 1.613 1_655 S
N924 C927 1.350 . S
N925 S923 1.610 . S
N925 C926 1.351 . S
C926 C920 1.428 . S
C926 N925 1.351 . S
C926 C927 1.434 1_455 S
C927 C918 1.429 1_545 S
C927 N924 1.350 . S
C927 C926 1.434 1_655 S
C928 C929 1.369 1_655 S
C928 C930 1.419 1_545 S
C928 H932 0.930 . S
C929 C928 1.369 1_455 S
C929 C938 1.429 . S
C930 C928 1.419 1_565 S
C930 C931 1.363 . S
C930 H933 0.929 . S
C931 C930 1.363 . S
C931 C937 1.428 1_655 S
H932 C928 0.930 . S
H933 C930 0.929 . S
S934 N935 1.613 . S
S934 N936 1.610 1_545 S
N935 S934 1.613 . S
N935 C938 1.350 . S
N936 S934 1.610 1_565 S
N936 C937 1.351 . S
C937 C931 1.428 1_455 S
C937 N936 1.351 . S
C937 C938 1.434 1_565 S
C938 C929 1.429 . S
C938 N935 1.350 . S
C938 C937 1.434 1_545 S
C939 C940 1.369 1_565 S
C939 C941 1.419 1_655 S
C939 H943 0.930 . S
C940 C939 1.369 1_545 S
C940 C949 1.429 . S
C941 C939 1.419 1_455 S
C941 C942 1.363 . S
C941 H944 0.929 . S
C942 C941 1.363 . S
C942 C948 1.428 1_565 S
H943 C939 0.930 . S
H944 C941 0.929 . S
S945 N946 1.613 . S
S945 N947 1.610 . S
N946 S945 1.613 . S
N946 C949 1.350 1_455 S
N947 S945 1.610 . S
N947 C948 1.351 . S
C948 C942 1.428 1_545 S
C948 N947 1.351 . S
C948 C949 1.434 1_455 S
C949 C940 1.429 . S
C949 N946 1.350 1_655 S
C949 C948 1.434 1_655 S
C950 C951 1.369 . S
C950 C952 1.419 1_655 S
C950 H954 0.930 . S
C951 C950 1.369 . S
C951 C960 1.429 1_565 S
C952 C950 1.419 1_455 S
C952 C953 1.363 1_565 S
C952 H955 0.929 . S
C953 C952 1.363 1_545 S
C953 C959 1.428 . S
H954 C950 0.930 . S
H955 C952 0.929 . S
S956 N957 1.613 . S
S956 N958 1.610 1_655 S
N957 S956 1.613 . S
N957 C960 1.350 . S
N958 S956 1.610 1_455 S
N958 C959 1.351 . S
C959 C953 1.428 . S
C959 N958 1.351 . S
C959 C960 1.434 1_455 S
C960 C951 1.429 1_545 S
C960 N957 1.350 . S
C960 C959 1.434 1_655 S
C961 C962 1.369 . S
C961 C963 1.419 1_665 S
C961 H965 0.930 . S
C962 C961 1.369 . S
C962 C971 1.429 . S
C963 C961 1.419 1_445 S
C963 C964 1.363 . S
C963 H966 0.929 . S
C964 C963 1.363 . S
C964 C970 1.428 . S
H965 C961 0.930 . S
H966 C963 0.929 . S
S967 N968 1.609 1_445 S
S967 N969 1.616 . S
N968 S967 1.609 1_665 S
N968 C971 1.350 . S
N969 S967 1.616 . S
N969 C970 1.351 . S
C970 C964 1.428 . S
C970 N969 1.351 . S
C970 C971 1.434 1_445 S
C971 C962 1.429 . S
C971 N968 1.350 . S
C971 C970 1.434 1_665 S
C709 C652 1.495 . S
C711 C3 1.482 . S
C720 C62 1.486 . S
C722 C357 1.476 . S
C731 C121 1.496 . S
C733 C416 1.478 . S
C742 C180 1.490 . S
C744 C475 1.490 . S
C753 C534 1.483 . S
C755 C239 1.480 . S
C764 C298 1.495 . S
C766 C593 1.487 . S
C775 C33 1.349 . S
C777 C623 1.343 . S
C786 C92 1.370 . S
C788 C682 1.365 . S
C797 C151 1.366 . S
C799 C387 1.361 . S
C808 C210 1.345 . S
C810 C446 1.344 . S
C819 C505 1.366 . S
C821 C269 1.369 . S
C830 C564 1.365 . S
C832 C328 1.366 . S
C841 C182 1.507 . S
C843 C5 1.516 . S
C852 C64 1.655 . S
C854 C241 1.643 . S
C863 C300 1.735 . S
C865 C123 1.725 . S
C874 C536 1.561 . S
C876 C359 1.556 . S
C885 C595 1.487 . S
C887 C418 1.480 . S
C896 C477 1.644 . S
C898 C654 1.638 . S
C907 C52 1.420 . S
C909 C229 1.429 . S
C918 C111 1.534 . S
C920 C288 1.546 . S
C929 C347 1.663 . S
C931 C170 1.664 . S
C940 C406 1.421 . S
C942 C583 1.413 . S
C951 C465 1.386 . S
C953 C642 1.382 . S
C962 C524 1.538 . S
C964 C701 1.546 . S
