# Generated by pormake.
# Topology ukg, (4)-cn, num edge types: 1
# Building blocks:
#     Node 0, Type 0, BuildingBlock: ESEHIV_clean_sbu_0, # of connection points: 4
#     Node 1, Type 0, BuildingBlock: ESEHIV_clean_sbu_0, # of connection points: 4
#     Node 2, Type 0, BuildingBlock: ESEHIV_clean_sbu_0, # of connection points: 4
#     Node 3, Type 0, BuildingBlock: ESEHIV_clean_sbu_0, # of connection points: 4
#     Node 4, Type 0, BuildingBlock: ESEHIV_clean_sbu_0, # of connection points: 4
#     Node 5, Type 0, BuildingBlock: ESEHIV_clean_sbu_0, # of connection points: 4
#     Node 6, Type 0, BuildingBlock: ESEHIV_clean_sbu_0, # of connection points: 4
#     Node 7, Type 0, BuildingBlock: ESEHIV_clean_sbu_0, # of connection points: 4
#     Edge 8, Type (0, 0), BuildingBlock: UVAHIK_clean_linker_0, # of connection points: 2
#     Edge 9, Type (0, 0), BuildingBlock: UVAHIK_clean_linker_0, # of connection points: 2
#     Edge 10, Type (0, 0), BuildingBlock: UVAHIK_clean_linker_0, # of connection points: 2
#     Edge 11, Type (0, 0), BuildingBlock: UVAHIK_clean_linker_0, # of connection points: 2
#     Edge 12, Type (0, 0), BuildingBlock: UVAHIK_clean_linker_0, # of connection points: 2
#     Edge 13, Type (0, 0), BuildingBlock: UVAHIK_clean_linker_0, # of connection points: 2
#     Edge 14, Type (0, 0), BuildingBlock: UVAHIK_clean_linker_0, # of connection points: 2
#     Edge 15, Type (0, 0), BuildingBlock: UVAHIK_clean_linker_0, # of connection points: 2
#     Edge 16, Type (0, 0), BuildingBlock: UVAHIK_clean_linker_0, # of connection points: 2
#     Edge 17, Type (0, 0), BuildingBlock: UVAHIK_clean_linker_0, # of connection points: 2
#     Edge 18, Type (0, 0), BuildingBlock: UVAHIK_clean_linker_0, # of connection points: 2
#     Edge 19, Type (0, 0), BuildingBlock: UVAHIK_clean_linker_0, # of connection points: 2
#     Edge 20, Type (0, 0), BuildingBlock: UVAHIK_clean_linker_0, # of connection points: 2
#     Edge 21, Type (0, 0), BuildingBlock: UVAHIK_clean_linker_0, # of connection points: 2
#     Edge 22, Type (0, 0), BuildingBlock: UVAHIK_clean_linker_0, # of connection points: 2
#     Edge 23, Type (0, 0), BuildingBlock: UVAHIK_clean_linker_0, # of connection points: 2
# Relax obj value: 0.112
# Max RMSD: 0.189
# Mean RMSD: 0.174
data_MOF--net-ukg--node1-ESEHIV_clean_sbu_0--edge1-UVAHIK_clean_linker_0
_symmetry_space_group_name_H-M    P1
_symmetry_Int_Tables_number       1
_symmetry_cell_setting            triclinic
loop_
_symmetry_equiv_pos_as_xyz
'x, y, z'
_cell_length_a     39.920444
_cell_length_b     40.665935
_cell_length_c     54.680755
_cell_angle_alpha  90.70971
_cell_angle_beta   89.455308
_cell_angle_gamma 89.776855
loop_
_atom_site_label
_atom_site_type_symbol
_atom_site_fract_x
_atom_site_fract_y
_atom_site_fract_z
_atom_type_partial_charge
Cu0 Cu 0.04701 0.6857 0.1668 0.0
N1 N 1.02274 0.72334 0.17565 0.0
N2 N 0.98737 0.75597 0.19665 0.0
C3 C 1.00167 0.72592 0.19495 0.0
C4 C 0.99997 0.77301 0.17766 0.0
C5 C 1.02196 0.75284 0.16479 0.0
O6 O 0.03521 0.65427 0.19238 0.0
C7 C 0.10663 0.7123 0.14743 0.0
O8 O 0.08696 0.71735 0.12871 0.0
H9 H 0.99653 0.70597 0.2073 0.0
H10 H 0.03622 0.75916 0.14862 0.0
N11 N 0.03279 0.67144 0.13569 0.0
N12 N 1.02573 0.64296 0.10074 0.0
C13 C 0.04169 0.6444 0.12251 0.0
C14 C 1.01046 0.6874 0.12184 0.0
C15 C 1.00612 0.67004 0.10038 0.0
C16 C 1.01055 0.63464 0.19002 0.0
O17 O 0.99621 0.63159 0.16861 0.0
H18 H 0.0595 0.62628 0.12873 0.0
H19 H 0.99788 0.71002 0.12707 0.0
O20 O 0.09469 0.6977 0.1661 0.0
H21 H 0.99409 0.79835 0.17355 0.0
H22 H 0.98912 0.6765 0.08588 0.0
Cu23 Cu 0.37103 0.57463 0.66892 0.0
N24 N 0.33331 0.54921 0.67653 0.0
N25 N 0.29946 0.51433 0.6962 0.0
C26 C 0.33042 0.52754 0.6949 0.0
C27 C 0.28225 0.52815 0.67781 0.0
C28 C 0.30312 0.54968 0.66579 0.0
O29 O 0.40757 0.55753 0.68839 0.0
C30 C 0.34131 0.63511 0.65776 0.0
O31 O 0.33323 0.61789 0.63823 0.0
H32 H 0.35063 0.52149 0.70707 0.0
H33 H 0.29656 0.56495 0.65051 0.0
N34 N 0.38472 0.56665 0.63649 0.0
N35 N 0.41914 0.55949 0.60426 0.0
C36 C 0.41545 0.57244 0.62703 0.0
C37 C 0.36838 0.54959 0.61908 0.0
C38 C 0.38952 0.54517 0.5992 0.0
C39 C 0.40971 0.55739 0.71158 0.0
O40 O 0.38815 0.57456 0.72486 0.0
H41 H 0.43527 0.58431 0.63717 0.0
H42 H 0.34334 0.5399 0.62106 0.0
O43 O 0.35934 0.62138 0.67394 0.0
H44 H 0.25616 0.52375 0.67373 0.0
H45 H 0.38374 0.53186 0.58251 0.0
Cu46 Cu 0.50139 0.87362 0.13266 0.0
N47 N 0.51712 0.83107 0.13797 0.0
N48 N 0.53974 0.78794 0.15663 0.0
C49 C 0.53236 0.82032 0.15822 0.0
C50 C 0.52853 0.77791 0.13458 0.0
C51 C 0.51435 0.80454 0.12319 0.0
O52 O 0.52403 0.90222 0.15636 0.0
C53 C 0.43482 0.85828 0.12053 0.0
O54 O 0.44907 0.851 0.09938 0.0
H55 H 0.53791 0.83597 0.1738 0.0
H56 H 0.50254 0.80452 0.10547 0.0
N57 N 0.51372 0.88605 0.10079 0.0
N58 N 0.5223 0.91458 0.06648 0.0
C59 C 0.50606 0.91356 0.08835 0.0
C60 C 0.53535 0.86929 0.08625 0.0
C61 C 0.54058 0.88664 0.06518 0.0
C62 C 0.55597 0.9032 0.15512 0.0
O63 O 0.57121 0.88647 0.13754 0.0
H64 H 0.48987 0.93286 0.09553 0.0
H65 H 0.54735 0.84638 0.09092 0.0
O66 O 0.45269 0.871 0.13737 0.0
H67 H 0.52969 0.75297 0.12746 0.0
H68 H 0.55679 0.87924 0.0501 0.0
Cu69 Cu 0.16468 0.01936 0.6591 0.0
N70 N 0.20469 0.04076 0.66676 0.0
N71 N 0.24138 0.07108 0.68787 0.0
C72 C 0.20965 0.05982 0.6867 0.0
C73 C 0.25699 0.05855 0.66778 0.0
C74 C 0.23433 0.03971 0.65486 0.0
O75 O 0.13262 0.03748 0.68322 0.0
C76 C 0.19034 0.96 0.67882 0.0
O77 O 0.19936 0.97968 0.6968 0.0
H78 H 0.19029 0.06529 0.70011 0.0
H79 H 0.23916 0.02596 0.63813 0.0
N80 N 0.15246 0.03012 0.62694 0.0
N81 N 0.12502 0.03389 0.59134 0.0
C82 C 0.12664 0.01893 0.61336 0.0
C83 C 0.16788 0.0525 0.61294 0.0
C84 C 0.15123 0.05482 0.59111 0.0
C85 C 0.1058 0.05308 0.67824 0.0
O86 O 0.09479 0.05295 0.65571 0.0
H87 H 0.1088 1.00105 0.61994 0.0
H88 H 0.18954 0.0666 0.61836 0.0
O89 O 0.17322 0.97185 0.66138 0.0
H90 H 0.2831 0.06208 0.66303 0.0
H91 H 0.15809 0.07088 0.57628 0.0
Cu92 Cu 1.02005 0.33319 0.88642 0.0
N93 N 0.99412 0.30337 0.90413 0.0
N94 N 0.94722 0.28365 0.92115 0.0
C95 C 0.96295 0.31036 0.9123 0.0
C96 C 0.96968 0.25884 0.91866 0.0
C97 C 0.99867 0.27111 0.90817 0.0
O98 O 1.01456 0.37629 0.90247 0.0
C99 C 0.98851 0.30764 0.84337 0.0
O100 O 0.96435 0.29698 0.85762 0.0
H101 H 0.95126 0.33419 0.91009 0.0
H102 H 1.02075 0.25724 0.90277 0.0
N103 N 0.06598 0.3243 0.8858 0.0
N104 N 0.11772 0.32909 0.87021 0.0
C105 C 0.08471 0.33315 0.86645 0.0
C106 C 0.08795 0.31407 0.90267 0.0
C107 C 0.12008 0.31722 0.89309 0.0
C108 C 1.0216 0.3757 0.9252 0.0
O109 O 0.03078 0.34751 0.93457 0.0
H110 H 0.0743 0.34445 0.85037 0.0
H111 H 0.0813 0.30623 0.9209 0.0
O112 O 1.00909 0.32881 0.85173 0.0
H113 H 0.96518 0.23344 0.92332 0.0
H114 H 0.14327 0.31196 0.90239 0.0
Cu115 Cu 0.70674 0.51614 0.38671 0.0
N116 N 0.69618 0.47321 0.37748 0.0
N117 N 0.69076 0.41851 0.37788 0.0
C118 C 0.70243 0.44541 0.3898 0.0
C119 C 0.67661 0.43007 0.35733 0.0
C120 C 0.67999 0.46376 0.35716 0.0
O121 O 0.69915 0.51957 0.42194 0.0
C122 C 0.76511 0.55364 0.37286 0.0
O123 O 0.74944 0.57917 0.38255 0.0
H124 H 0.71553 0.445 0.40703 0.0
H125 H 0.67104 0.48029 0.34329 0.0
N126 N 0.67579 0.54393 0.37215 0.0
N127 N 0.65125 0.57988 0.34754 0.0
C128 C 0.67912 0.56198 0.3518 0.0
C129 C 0.64476 0.55028 0.38082 0.0
C130 C 0.62961 0.57257 0.36576 0.0
C131 C 0.69244 0.54677 0.43275 0.0
O132 O 0.69733 0.57436 0.42102 0.0
H133 H 0.70164 0.56243 0.34062 0.0
H134 H 0.63404 0.53954 0.39709 0.0
O135 O 0.75182 0.52529 0.3743 0.0
H136 H 0.66417 0.41538 0.34354 0.0
H137 H 0.60448 0.58237 0.36788 0.0
Cu138 Cu 0.5181 0.24685 0.88585 0.0
N139 N 0.5433 0.26436 0.91157 0.0
N140 N 0.59076 0.27481 0.93162 0.0
C141 C 0.57629 0.25809 0.91312 0.0
C142 C 0.5657 0.29243 0.94226 0.0
C143 C 0.53628 0.28575 0.92992 0.0
O144 O 0.52402 0.1992 0.88832 0.0
C145 C 0.52855 0.30071 0.85876 0.0
O146 O 0.51875 0.31221 0.88022 0.0
H147 H 0.58968 0.24251 0.90011 0.0
H148 H 0.51188 0.29647 0.93356 0.0
N149 N 0.47178 0.25386 0.88646 0.0
N150 N 0.42072 0.24803 0.87052 0.0
C151 C 0.45399 0.24646 0.86643 0.0
C152 C 0.44897 0.26085 0.9041 0.0
C153 C 0.41727 0.257 0.89429 0.0
C154 C 0.51048 0.18873 0.90799 0.0
O155 O 0.49595 0.21011 0.92287 0.0
H156 H 0.46549 0.23786 0.8495 0.0
H157 H 0.45483 0.26654 0.92295 0.0
O158 O 0.53204 0.26961 0.8561 0.0
H159 H 0.56848 0.30918 0.95764 0.0
H160 H 0.39366 0.25957 0.90404 0.0
Cu161 Cu 0.79587 1.00477 0.39519 0.0
N162 N 0.76932 0.03219 0.41512 0.0
N163 N 0.74341 0.07906 0.42584 0.0
C164 C 0.76221 0.06324 0.40881 0.0
C165 C 0.73871 0.05716 0.4439 0.0
C166 C 0.75466 0.02805 0.43715 0.0
O167 O 0.84267 1.01084 0.40524 0.0
C168 C 0.75238 1.01332 0.35768 0.0
O169 O 0.73255 1.00744 0.37641 0.0
H170 H 0.77116 0.07416 0.39203 0.0
H171 H 0.75558 1.00564 0.44757 0.0
N172 N 0.78638 0.95985 0.3966 0.0
N173 N 0.78891 0.90883 0.38103 0.0
C174 C 0.79086 0.94116 0.37643 0.0
C175 C 0.78088 0.93851 0.41487 0.0
C176 C 0.78287 0.9068 0.40528 0.0
C177 C 0.84862 1.00118 0.42692 0.0
O178 O 0.82373 0.98934 0.4399 0.0
H179 H 0.79825 0.9511 0.35892 0.0
H180 H 0.77759 0.94524 0.43393 0.0
O181 O 0.78395 1.01503 0.36132 0.0
H182 H 0.72452 0.06172 0.46057 0.0
H183 H 0.78141 0.88416 0.41544 0.0
C184 C 0.02659 0.4016 0.96655 0.0
C185 C 1.02013 0.40529 0.94148 0.0
C186 C 0.02613 0.42858 0.9825 0.0
C187 C 0.03385 0.51883 0.98554 0.0
H188 H 0.99689 0.50677 0.05068 0.0
C189 C 1.02064 0.62487 0.0575 0.0
C190 C 0.02753 0.61751 0.08205 0.0
C191 C 1.01994 0.60003 0.03957 0.0
C192 C 1.00768 0.51048 0.03268 0.0
H193 H 1.0081 0.44067 0.91356 0.0
H194 H 1.00709 0.48833 0.94174 0.0
H195 H 0.99318 0.4625 1.02051 0.0
H196 H 0.03981 0.57815 0.10677 0.0
H197 H 0.03895 0.53476 0.07546 0.0
H198 H 0.04831 0.56698 0.99787 0.0
C199 C 1.01273 0.46424 0.94888 0.0
C200 C 1.00547 0.48509 1.01531 0.0
C201 C 1.01311 0.43695 0.93276 0.0
C202 C 0.03457 0.58472 0.08807 0.0
C203 C 0.0337 0.55981 0.07014 0.0
C204 C 0.03597 0.54437 1.00296 0.0
C205 C 1.01911 0.46028 0.97401 0.0
C206 C 1.01897 0.48868 0.99161 0.0
C207 C 1.02597 0.56709 0.0457 0.0
C208 C 1.02329 0.54033 0.02687 0.0
H209 H 0.03224 0.3777 0.97404 0.0
H210 H 0.03185 0.42456 1.00156 0.0
H211 H 0.04479 0.52237 0.96757 0.0
H212 H 1.01556 0.6499 0.05212 0.0
H213 H 1.01377 0.60655 1.021 0.0
C214 C 0.45635 0.53129 0.57414 0.0
C215 C 0.44923 0.5586 0.58937 0.0
C216 C 0.4856 0.53019 0.55983 0.0
C217 C 0.54736 0.58268 0.52979 0.0
H218 H 0.60217 0.50378 0.52697 0.0
C219 C 0.66576 0.5767 0.46842 0.0
C220 C 0.67187 0.54709 0.45557 0.0
C221 C 0.642 0.5782 0.48743 0.0
C222 C 0.58702 0.52592 0.52726 0.0
H223 H 0.46714 0.60626 0.60136 0.0
H224 H 0.5181 0.60465 0.57596 0.0
H225 H 0.55343 0.50627 0.55418 0.0
H226 H 0.65851 0.49551 0.45331 0.0
H227 H 0.61665 0.49823 0.48579 0.0
H228 H 0.5798 0.60198 0.50222 0.0
C229 C 0.50107 0.58399 0.57527 0.0
C230 C 0.55911 0.52735 0.54298 0.0
C231 C 0.47204 0.58485 0.5899 0.0
C232 C 0.6547 0.5187 0.46292 0.0
C233 C 0.63062 0.52028 0.48169 0.0
C234 C 0.57498 0.58111 0.51382 0.0
C235 C 0.50824 0.55659 0.56012 0.0
C236 C 0.53882 0.55565 0.5443 0.0
C237 C 0.62332 0.55023 0.49388 0.0
C238 C 0.59513 0.5526 0.51215 0.0
H239 H 0.4395 0.51052 0.57352 0.0
H240 H 0.49026 0.50886 0.54822 0.0
H241 H 0.53201 0.60471 0.53019 0.0
H242 H 0.67867 0.59901 0.46332 0.0
H243 H 0.63785 0.60153 0.49673 0.0
C244 C 0.49325 0.96021 0.04549 0.0
C245 C 0.52172 0.94026 0.04843 0.0
C246 C 0.49249 0.98412 0.02723 0.0
C247 C 0.54764 0.03419 0.98767 0.0
H248 H 0.46701 0.0463 0.94985 0.0
C249 C 0.53974 0.13427 0.91334 0.0
C250 C 0.51084 0.15392 0.91542 0.0
C251 C 0.54159 0.10425 0.92578 0.0
C252 C 0.48973 0.04331 0.96027 0.0
H253 H 0.57213 0.93068 0.03489 0.0
H254 H 0.57069 0.97197 1.00311 0.0
H255 H 0.46905 1.00329 0.98051 0.0
H256 H 0.46059 0.15678 0.93061 0.0
H257 H 0.46357 0.10496 0.95187 0.0
H258 H 0.56802 0.07476 0.96792 0.0
C259 C 0.54891 0.96918 1.01485 0.0
C260 C 0.49082 0.01872 0.97793 0.0
C261 C 0.54958 0.94523 0.03295 0.0
C262 C 0.48319 0.14208 0.92866 0.0
C263 C 0.48487 0.11221 0.9408 0.0
C264 C 0.54649 0.05889 0.97006 0.0
C265 C 0.5203 0.98882 1.01162 0.0
C266 C 0.51961 1.01416 0.99212 0.0
C267 C 0.51441 0.09332 0.94021 0.0
C268 C 0.51731 0.06417 0.95642 0.0
H269 H 0.47134 0.95693 0.057 0.0
H270 H 0.47018 0.99911 0.02546 0.0
H271 H 0.57014 0.03153 0.99838 0.0
H272 H 0.56153 0.14302 0.90346 0.0
H273 H 0.56461 0.09011 0.92473 0.0
C274 C 0.90566 0.02719 0.43259 0.0
C275 C 0.88226 1.00264 0.43826 0.0
C276 C 0.93529 0.03025 0.44621 0.0
C277 C 0.9905 0.98505 0.48911 0.0
H278 H 1.01138 0.07135 0.51546 0.0
C279 C 0.07884 1.00226 0.57179 0.0
C280 C 0.09993 0.02992 0.57246 0.0
C281 C 0.05448 0.99878 0.55361 0.0
C282 C 1.00635 0.0471 0.50801 0.0
H283 H 0.87235 0.96114 0.46176 0.0
H284 H 0.92361 0.96612 0.48495 0.0
H285 H 0.96685 0.0654 0.48551 0.0
H286 H 0.11112 0.0758 0.55415 0.0
H287 H 0.06979 0.06921 0.52237 0.0
H288 H 0.02975 0.96662 0.51163 0.0
C289 C 0.91936 0.98314 0.47021 0.0
C290 C 0.98077 0.04374 0.49076 0.0
C291 C 0.88978 0.98042 0.45695 0.0
C292 C 0.09588 0.0539 0.5543 0.0
C293 C 0.07168 0.05035 0.5361 0.0
C294 C 1.01618 0.98842 0.50623 0.0
C295 C 0.94227 1.00841 0.46538 0.0
C296 C 0.97212 1.01259 0.4814 0.0
C297 C 0.05051 0.02281 0.53549 0.0
C298 C 1.02417 0.01942 0.51626 0.0
H299 H 0.90047 0.04477 0.41839 0.0
H300 H 0.95255 0.04988 0.44194 0.0
H301 H 0.98481 0.96073 0.48203 0.0
H302 H 0.08115 0.98312 0.58523 0.0
H303 H 0.03841 0.97741 0.55401 0.0
C304 C 0.16063 0.72905 0.16807 0.0
C305 C 0.14158 0.72506 0.14671 0.0
C306 C 0.19271 0.74324 0.16702 0.0
C307 C 0.26282 0.7596 0.12397 0.0
H308 H 0.28766 0.82899 0.16947 0.0
C309 C 0.37927 0.83839 0.10554 0.0
C310 C 0.39972 0.84753 0.12526 0.0
C311 C 0.3478 0.82432 0.10955 0.0
C312 C 0.28138 0.80937 0.15678 0.0
H313 H 0.14175 0.73241 0.10748 0.0
H314 H 0.19732 0.75649 0.10566 0.0
H315 H 0.23379 0.80112 0.17435 0.0
H316 H 0.40245 0.84989 0.1648 0.0
H317 H 0.3476 0.8248 0.17186 0.0
H318 H 0.31017 0.76731 0.10648 0.0
C319 C 0.18766 0.74875 0.12323 0.0
C320 C 0.25043 0.79338 0.1596 0.0
C321 C 0.15562 0.73502 0.12432 0.0
C322 C 0.38728 0.84331 0.14918 0.0
C323 C 0.35576 0.8289 0.15322 0.0
C324 C 0.29372 0.77534 0.12125 0.0
C325 C 0.20661 0.75326 0.14454 0.0
C326 C 0.24054 0.76864 0.14297 0.0
C327 C 0.33585 0.81854 0.13342 0.0
C328 C 0.3033 0.80089 0.13732 0.0
H329 H 0.15052 0.72182 0.18564 0.0
H330 H 0.20672 0.74618 0.18376 0.0
H331 H 0.25635 0.74024 0.1111 0.0
H332 H 0.38785 0.84154 0.08687 0.0
H333 H 0.33296 0.81766 0.09379 0.0
C334 C 0.33238 0.68785 0.68241 0.0
C335 C 0.32778 0.66924 0.66084 0.0
C336 C 0.31795 0.71937 0.68507 0.0
C337 C 0.28084 0.78761 0.64864 0.0
H338 H 0.24063 0.81478 0.71045 0.0
C339 C 0.19866 0.90528 0.65705 0.0
C340 C 0.20312 0.92542 0.67786 0.0
C341 C 0.21331 0.87384 0.65555 0.0
C342 C 0.252 0.80776 0.69309 0.0
H343 H 0.3044 0.6696 0.62515 0.0
H344 H 0.27937 0.72368 0.62986 0.0
H345 H 0.26863 0.7614 0.70696 0.0
H346 H 0.226 0.92763 0.71368 0.0
H347 H 0.25143 0.87318 0.71104 0.0
H348 H 0.26418 0.83382 0.63472 0.0
C349 C 0.29442 0.71441 0.64465 0.0
C350 C 0.26819 0.77709 0.69111 0.0
C351 C 0.30871 0.6831 0.64202 0.0
C352 C 0.22191 0.9129 0.69736 0.0
C353 C 0.23643 0.88148 0.69589 0.0
C354 C 0.26463 0.81819 0.6506 0.0
C355 C 0.2987 0.73309 0.6662 0.0
C356 C 0.2827 0.76645 0.6688 0.0
C357 C 0.23274 0.8616 0.67485 0.0
C358 C 0.24981 0.82871 0.67282 0.0
H359 H 0.34684 0.67798 0.6973 0.0
H360 H 0.3221 0.73308 0.70187 0.0
H361 H 0.29223 0.7807 0.63127 0.0
H362 H 0.18438 0.91403 0.64168 0.0
H363 H 0.20944 0.85912 0.63919 0.0
C364 C 0.64168 0.30384 0.94589 0.0
C365 C 0.62612 0.27521 0.93699 0.0
C366 C 0.67659 0.305 0.94849 0.0
C367 C 0.7531 0.25232 0.95117 0.0
H368 H 0.79788 0.32904 0.92541 0.0
C369 C 0.89399 0.25266 0.92472 0.0
C370 C 0.9123 0.28178 0.92825 0.0
C371 C 0.8594 0.25198 0.92927 0.0
C372 C 0.78586 0.30763 0.93307 0.0
H373 H 0.63483 0.22481 0.92519 0.0
H374 H 0.6954 0.22684 0.92948 0.0
H375 H 0.73696 0.32795 0.92772 0.0
H376 H 0.90875 0.33248 0.94073 0.0
H377 H 0.84863 0.33128 0.9488 0.0
H378 H 0.80204 0.23178 0.95615 0.0
C379 C 0.68082 0.24845 0.93449 0.0
C380 C 0.75084 0.30702 0.93441 0.0
C381 C 0.64608 0.24738 0.93177 0.0
C382 C 0.89535 0.30982 0.93736 0.0
C383 C 0.86082 0.30914 0.94195 0.0
C384 C 0.78815 0.25293 0.94987 0.0
C385 C 0.69664 0.27743 0.94247 0.0
C386 C 0.73396 0.27918 0.94316 0.0
C387 C 0.84224 0.28039 0.93755 0.0
C388 C 0.80501 0.28043 0.9405 0.0
H389 H 0.62704 0.32572 0.94996 0.0
H390 H 0.68791 0.32761 0.95495 0.0
H391 H 0.74097 0.23066 0.95836 0.0
H392 H 0.90609 0.23071 0.91748 0.0
H393 H 0.84592 0.22949 0.9254 0.0
C394 C 0.69107 0.35898 0.3679 0.0
C395 C 0.69289 0.38459 0.38535 0.0
C396 C 0.69281 0.32614 0.37499 0.0
C397 C 0.72227 0.27244 0.4242 0.0
H398 H 0.66609 0.20817 0.39163 0.0
C399 C 0.72923 0.1328 0.4453 0.0
C400 C 0.73144 0.11244 0.42439 0.0
C401 C 0.72062 0.16612 0.44319 0.0
C402 C 0.68201 0.22579 0.40086 0.0
H403 H 0.69776 0.39543 0.4241 0.0
H404 H 0.70104 0.33802 0.43645 0.0
H405 H 0.6591 0.26638 0.38286 0.0
H406 H 0.72466 0.11052 0.38513 0.0
H407 H 0.70988 0.16826 0.3814 0.0
H408 H 0.74563 0.23164 0.44182 0.0
C409 C 0.69851 0.34349 0.41722 0.0
C410 C 0.67806 0.25916 0.3958 0.0
C411 C 0.69669 0.37643 0.41012 0.0
C412 C 0.7236 0.1257 0.40153 0.0
C413 C 0.71476 0.15874 0.39944 0.0
C414 C 0.72622 0.23898 0.42928 0.0
C415 C 0.69646 0.31795 0.39973 0.0
C416 C 0.69864 0.28284 0.40697 0.0
C417 C 0.7136 0.17951 0.42016 0.0
C418 C 0.70664 0.21522 0.41724 0.0
H419 H 0.68881 0.36421 0.34864 0.0
H420 H 0.69188 0.30713 0.36097 0.0
H421 H 0.73867 0.29001 0.43301 0.0
H422 H 0.73528 0.12323 0.46312 0.0
H423 H 0.7197 0.18145 0.45952 0.0
C424 C 0.81347 0.58825 0.35843 0.0
C425 C 0.79571 0.55843 0.35756 0.0
C426 C 0.84041 0.59381 0.34236 0.0
C427 C 0.87011 0.5709 0.28122 0.0
H428 H 0.95564 0.60674 0.30101 0.0
C429 C 0.97327 0.59263 0.20912 0.0
C430 C 0.9936 0.62052 0.21176 0.0
C431 C 0.9526 0.58231 0.22835 0.0
C432 C 0.93179 0.59714 0.29503 0.0
H433 H 0.79293 0.51084 0.33933 0.0
H434 H 0.83941 0.52085 0.31106 0.0
H435 H 0.91285 0.59492 0.33191 0.0
H436 H 1.00892 0.65894 0.23701 0.0
H437 H 0.97194 0.64198 0.27019 0.0
H438 H 0.88779 0.57443 0.24443 0.0
C439 C 0.83258 0.53983 0.32428 0.0
C440 C 0.90733 0.59022 0.31284 0.0
C441 C 0.80606 0.53405 0.3406 0.0
C442 C 0.99379 0.63713 0.23445 0.0
C443 C 0.9725 0.62728 0.25356 0.0
C444 C 0.89423 0.57834 0.26342 0.0
C445 C 0.84982 0.56991 0.32477 0.0
C446 C 0.87625 0.57692 0.30612 0.0
C447 C 0.95093 0.60014 0.25062 0.0
C448 C 0.92558 0.59149 0.26997 0.0
H449 H 0.80619 0.60755 0.37126 0.0
H450 H 0.8531 0.61729 0.34309 0.0
H451 H 0.8462 0.56119 0.27542 0.0
H452 H 0.97272 0.57918 0.1919 0.0
H453 H 0.93739 0.56067 0.22546 0.0
C454 C 0.43878 0.53433 0.74831 0.0
C455 C 0.43164 0.53258 0.72321 0.0
C456 C 0.45648 0.5089 0.75958 0.0
C457 C 0.4692 0.42089 0.75615 0.0
H458 H 0.5456 0.43585 0.79795 0.0
C459 C 0.52311 0.31518 0.81412 0.0
C460 C 0.53064 0.32424 0.83832 0.0
C461 C 0.51786 0.33948 0.79644 0.0
C462 C 0.52408 0.43115 0.78654 0.0
H463 H 0.4379 0.50276 0.69023 0.0
H464 H 0.4679 0.45817 0.71011 0.0
H465 H 0.52181 0.4815 0.77528 0.0
H466 H 0.54099 0.36556 0.86248 0.0
H467 H 0.53128 0.40726 0.83241 0.0
H468 H 0.46985 0.37117 0.76844 0.0
C469 C 0.46017 0.47941 0.72094 0.0
C470 C 0.5106 0.45738 0.77348 0.0
C471 C 0.44316 0.5051 0.70957 0.0
C472 C 0.53507 0.35772 0.84401 0.0
C473 C 0.52973 0.3818 0.82656 0.0
C474 C 0.48222 0.39477 0.76962 0.0
C475 C 0.46673 0.48089 0.74608 0.0
C476 C 0.48271 0.45263 0.75846 0.0
C477 C 0.52005 0.37324 0.80267 0.0
C478 C 0.50943 0.39965 0.78546 0.0
H479 H 0.43017 0.55507 0.75933 0.0
H480 H 0.46109 0.51056 0.77905 0.0
H481 H 0.44758 0.4166 0.74474 0.0
H482 H 0.51938 0.28958 0.80922 0.0
H483 H 0.51105 0.33182 0.77813 0.0
C484 C 0.56141 0.93847 0.1933 0.0
C485 C 0.57635 0.92043 0.17398 0.0
C486 C 0.58119 0.95309 0.21152 0.0
C487 C 0.6698 0.97644 0.22623 0.0
H488 H 0.6371 0.97324 0.29306 0.0
C489 C 0.75273 0.99735 0.31294 0.0
C490 C 0.73721 1.01322 0.33305 0.0
C491 C 0.7343 0.99025 0.29171 0.0
C492 C 0.64651 0.97476 0.27447 0.0
H493 H 0.62402 0.90405 0.15864 0.0
H494 H 0.65809 0.92865 0.19039 0.0
H495 H 0.60209 0.95291 0.26012 0.0
H496 H 0.69128 0.03632 0.34602 0.0
H497 H 0.65967 0.02475 0.30911 0.0
H498 H 0.71469 0.99758 0.24092 0.0
C499 C 0.63122 0.93223 0.19137 0.0
C500 C 0.6263 0.96314 0.25549 0.0
C501 C 0.61152 0.91783 0.17316 0.0
C502 C 0.70386 0.02389 0.33086 0.0
C503 C 0.68562 1.01696 0.30978 0.0
C504 C 0.69015 0.98789 0.2453 0.0
C505 C 0.61641 0.94988 0.21095 0.0
C506 C 0.63761 0.9637 0.23106 0.0
C507 C 0.70012 0.99892 0.2903 0.0
C508 C 0.67873 0.98724 0.26968 0.0
H509 H 0.53443 0.94109 0.19447 0.0
H510 H 0.56881 0.9669 0.22607 0.0
H511 H 0.67929 0.97776 0.20766 0.0
H512 H 0.77824 0.98843 0.31426 0.0
H513 H 0.74624 0.97629 0.27704 0.0
C514 C 0.97421 0.26761 0.80975 0.0
C515 C 0.998 0.28757 0.82145 0.0
C516 C 0.98418 0.24383 0.79234 0.0
C517 C 0.05933 0.21251 0.75631 0.0
H518 H 1.00802 0.13173 0.75485 0.0
C519 C 0.10996 0.08933 0.71563 0.0
C520 C 0.0906 0.07622 0.6965 0.0
C521 C 0.09745 0.11498 0.73049 0.0
C522 C 1.0225 0.1542 0.75504 0.0
H523 H 0.05097 0.29871 0.82338 0.0
H524 H 0.06849 0.2568 0.79413 0.0
H525 H 0.98871 0.17789 0.78018 0.0
H526 H 0.04233 0.07877 0.67879 0.0
H527 H 1.01998 0.12262 0.70553 0.0
H528 H 0.09398 0.1877 0.73205 0.0
C529 C 0.04193 0.25988 0.79758 0.0
C530 C 1.01131 0.18095 0.76938 0.0
C531 C 0.03185 0.28413 0.81453 0.0
C532 C 0.05784 0.08827 0.69338 0.0
C533 C 0.04505 0.11337 0.70864 0.0
C534 C 0.07089 0.18548 0.74246 0.0
C535 C 1.01836 0.23875 0.78658 0.0
C536 C 0.02955 0.21062 0.77031 0.0
C537 C 0.06504 0.12751 0.72695 0.0
C538 C 0.05262 0.15606 0.74172 0.0
H539 H 0.94792 0.26968 0.81463 0.0
H540 H 0.965 0.22897 0.78385 0.0
H541 H 0.07385 0.23491 0.75588 0.0
H542 H 0.13533 0.08082 0.71848 0.0
H543 H 0.11328 0.1253 0.74459 0.0
C544 C 0.139 0.33774 0.82837 0.0
C545 C 0.14396 0.3395 0.85376 0.0
C546 C 0.16163 0.35224 0.8122 0.0
C547 C 0.22288 0.41947 0.80995 0.0
H548 H 0.24007 0.38444 0.74473 0.0
C549 C 0.30063 0.49043 0.73772 0.0
C550 C 0.28689 0.49151 0.71413 0.0
C551 C 0.28754 0.46923 0.75537 0.0
C552 C 0.2354 0.39463 0.76284 0.0
H553 H 0.1775 0.3565 0.88205 0.0
H554 H 0.21758 0.38168 0.8537 0.0
H555 H 0.21094 0.35082 0.77475 0.0
H556 H 0.24919 0.47034 0.6905 0.0
H557 H 0.2262 0.43363 0.72125 0.0
H558 H 0.24686 0.46351 0.79786 0.0
C559 C 0.19581 0.36937 0.84635 0.0
C560 C 0.21871 0.37534 0.78008 0.0
C561 C 0.17311 0.35464 0.86258 0.0
C562 C 0.26015 0.47041 0.70852 0.0
C563 C 0.24722 0.44908 0.72609 0.0
C564 C 0.23969 0.43873 0.79272 0.0
C565 C 0.18994 0.36897 0.82097 0.0
C566 C 0.21156 0.38777 0.8037 0.0
C567 C 0.26056 0.44839 0.7498 0.0
C568 C 0.24552 0.42681 0.76879 0.0
H569 H 0.11693 0.32593 0.82104 0.0
H570 H 0.15602 0.35162 0.79287 0.0
H571 H 0.21745 0.43005 0.82783 0.0
H572 H 0.32103 0.50651 0.74277 0.0
H573 H 0.29857 0.46916 0.77339 0.0
C574 C 0.65921 0.5962 0.30448 0.0
C575 C 0.64544 0.60228 0.32785 0.0
C576 C 0.65188 0.6171 0.28509 0.0
C577 C 0.62224 0.70051 0.27104 0.0
H578 H 0.58942 0.66104 0.21101 0.0
C579 C 0.55069 0.77576 0.19996 0.0
C580 C 0.55515 0.76803 0.17503 0.0
C581 C 0.56499 0.7561 0.21785 0.0
C582 C 0.5991 0.67253 0.22745 0.0
H583 H 0.6144 0.6356 0.34951 0.0
H584 H 0.60174 0.67215 0.31577 0.0
H585 H 0.60968 0.62592 0.24358 0.0
H586 H 0.5788 0.7341 0.1493 0.0
H587 H 0.6043 0.69997 0.18052 0.0
H588 H 0.61175 0.7471 0.25505 0.0
C589 C 0.61806 0.6512 0.31238 0.0
C590 C 0.61065 0.65236 0.24611 0.0
C591 C 0.62503 0.63012 0.33163 0.0
C592 C 0.57456 0.74039 0.16837 0.0
C593 C 0.58912 0.72084 0.18628 0.0
C594 C 0.61099 0.72069 0.25231 0.0
C595 C 0.63109 0.64472 0.28885 0.0
C596 C 0.6218 0.66614 0.26824 0.0
C597 C 0.58436 0.72835 0.21126 0.0
C598 C 0.59871 0.70695 0.23044 0.0
H599 H 0.67486 0.57481 0.30106 0.0
H600 H 0.66238 0.61165 0.26715 0.0
H601 H 0.63113 0.7118 0.2878 0.0
H602 H 0.53544 0.79658 0.20568 0.0
H603 H 0.56018 0.76228 0.23688 0.0
C604 C 0.3669 0.22036 0.86134 0.0
C605 C 0.39548 0.23744 0.85344 0.0
C606 C 0.34538 0.20569 0.84429 0.0
C607 C 0.3246 0.20303 0.7777 0.0
H608 H 0.29786 0.11349 0.79126 0.0
C609 C 0.28289 0.1122 0.70187 0.0
C610 C 0.25563 0.09149 0.7069 0.0
C611 C 0.29665 0.13197 0.72032 0.0
C612 C 0.30473 0.13862 0.7873 0.0
H613 H 0.42258 0.25444 0.82155 0.0
H614 H 0.38567 0.2287 0.79197 0.0
H615 H 0.3262 0.14574 0.82268 0.0
H616 H 0.22178 0.07514 0.7355 0.0
H617 H 0.24567 0.10969 0.76761 0.0
H618 H 0.30392 0.19552 0.74206 0.0
C619 C 0.37958 0.22656 0.81122 0.0
C620 C 0.32089 0.1572 0.80537 0.0
C621 C 0.401 0.24109 0.8282 0.0
C622 C 0.24251 0.09103 0.73088 0.0
C623 C 0.25642 0.11062 0.74937 0.0
C624 C 0.30861 0.1844 0.75961 0.0
C625 C 0.3519 0.20799 0.81899 0.0
C626 C 0.33152 0.18949 0.80069 0.0
C627 C 0.28365 0.13135 0.74432 0.0
C628 C 0.2989 0.15181 0.76406 0.0
H629 H 0.36206 0.217 0.88066 0.0
H630 H 0.32402 0.19198 0.85093 0.0
H631 H 0.33184 0.228 0.77357 0.0
H632 H 0.29342 0.11339 0.6836 0.0
H633 H 0.31785 0.14739 0.71586 0.0
C634 C 0.93937 0.79091 0.20938 0.0
C635 C 0.96376 0.76731 0.21502 0.0
C636 C 0.91664 0.8021 0.22725 0.0
C637 C 0.88217 0.78363 0.28935 0.0
H638 H 0.85925 0.8763 0.28872 0.0
C639 C 0.82138 0.85874 0.37024 0.0
C640 C 0.79852 0.88343 0.36379 0.0
C641 C 0.83742 0.83966 0.35203 0.0
C642 C 0.865 0.85025 0.28898 0.0
H643 H 0.98347 0.73696 0.24388 0.0
H644 H 0.94449 0.75708 0.27525 0.0
H645 H 0.89617 0.85374 0.25723 0.0
H646 H 0.77193 0.90534 0.33376 0.0
H647 H 0.79945 0.87192 0.30207 0.0
H648 H 0.85166 0.7808 0.32185 0.0
C649 C 0.94226 0.76639 0.25687 0.0
C650 C 0.88617 0.83724 0.27084 0.0
C651 C 0.96475 0.75493 0.23891 0.0
C652 C 0.78974 0.88667 0.33913 0.0
C653 C 0.80564 0.86771 0.32102 0.0
C654 C 0.86117 0.7968 0.30772 0.0
C655 C 0.91801 0.7903 0.25133 0.0
C656 C 0.895 0.80374 0.27068 0.0
C657 C 0.83074 0.84507 0.32717 0.0
C658 C 0.85225 0.83024 0.30762 0.0
H659 H 0.9376 0.80045 0.19104 0.0
H660 H 0.89788 0.81995 0.2221 0.0
H661 H 0.88811 0.75764 0.28969 0.0
H662 H 0.82877 0.85598 0.38911 0.0
H663 H 0.85669 0.82239 0.3573 0.0
loop_
_geom_bond_atom_site_label_1
_geom_bond_atom_site_label_2
_geom_bond_distance
_geom_bond_site_symmetry_2
_ccdc_geom_bond_type
Cu0 N1 1.999 . S
Cu0 O6 1.974 . S
Cu0 N11 1.985 1_655 S
Cu0 O20 1.959 1_655 S
N1 Cu0 1.999 . S
N1 C3 1.263 . S
N1 C5 1.389 . S
N2 C3 1.358 . S
N2 C4 1.400 . S
C3 N1 1.263 . S
C3 N2 1.358 . S
C3 H9 0.930 . S
C4 N2 1.400 . S
C4 C5 1.351 . S
C4 H21 0.930 . S
C5 N1 1.389 . S
C5 C4 1.351 . S
C5 H10 0.930 1_655 S
O6 Cu0 1.974 . S
O6 C16 1.282 . S
C7 O8 1.261 . S
C7 O20 1.251 . S
O8 C7 1.261 . S
H9 C3 0.930 . S
H10 C5 0.930 1_455 S
N11 Cu0 1.985 1_455 S
N11 C13 1.333 . S
N11 C14 1.391 1_455 S
N12 C13 1.345 . S
N12 C15 1.336 1_455 S
C13 N11 1.333 . S
C13 N12 1.345 . S
C13 H18 0.930 . S
C14 N11 1.391 1_655 S
C14 C15 1.346 . S
C14 H19 0.930 . S
C15 N12 1.336 1_655 S
C15 C14 1.346 . S
C15 H22 0.929 . S
C16 O6 1.282 . S
C16 O17 1.216 . S
O17 C16 1.216 . S
H18 C13 0.930 . S
H19 C14 0.930 . S
O20 Cu0 1.959 1_455 S
O20 C7 1.251 . S
H21 C4 0.930 . S
H22 C15 0.929 . S
Cu23 N24 1.999 . S
Cu23 O29 1.974 . S
Cu23 N34 1.985 . S
Cu23 O43 1.959 . S
N24 Cu23 1.999 . S
N24 C26 1.263 . S
N24 C28 1.389 . S
N25 C26 1.358 . S
N25 C27 1.400 . S
C26 N24 1.263 . S
C26 N25 1.358 . S
C26 H32 0.930 . S
C27 N25 1.400 . S
C27 C28 1.351 . S
C27 H44 0.930 . S
C28 N24 1.389 . S
C28 C27 1.351 . S
C28 H33 0.930 . S
O29 Cu23 1.974 . S
O29 C39 1.282 . S
C30 O31 1.261 . S
C30 O43 1.251 . S
O31 C30 1.261 . S
H32 C26 0.930 . S
H33 C28 0.930 . S
N34 Cu23 1.985 . S
N34 C36 1.335 . S
N34 C37 1.390 . S
N35 C36 1.345 . S
N35 C38 1.336 . S
C36 N34 1.335 . S
C36 N35 1.345 . S
C36 H41 0.930 . S
C37 N34 1.390 . S
C37 C38 1.346 . S
C37 H42 0.930 . S
C38 N35 1.336 . S
C38 C37 1.346 . S
C38 H45 0.929 . S
C39 O29 1.282 . S
C39 O40 1.216 . S
O40 C39 1.216 . S
H41 C36 0.930 . S
H42 C37 0.930 . S
O43 Cu23 1.959 . S
O43 C30 1.251 . S
H44 C27 0.930 . S
H45 C38 0.929 . S
Cu46 N47 1.999 . S
Cu46 O52 1.974 . S
Cu46 N57 1.985 . S
Cu46 O66 1.959 . S
N47 Cu46 1.999 . S
N47 C49 1.263 . S
N47 C51 1.389 . S
N48 C49 1.358 . S
N48 C50 1.400 . S
C49 N47 1.263 . S
C49 N48 1.358 . S
C49 H55 0.930 . S
C50 N48 1.400 . S
C50 C51 1.351 . S
C50 H67 0.930 . S
C51 N47 1.389 . S
C51 C50 1.351 . S
C51 H56 0.930 . S
O52 Cu46 1.974 . S
O52 C62 1.282 . S
C53 O54 1.261 . S
C53 O66 1.251 . S
O54 C53 1.261 . S
H55 C49 0.930 . S
H56 C51 0.930 . S
N57 Cu46 1.985 . S
N57 C59 1.335 . S
N57 C60 1.390 . S
N58 C59 1.345 . S
N58 C61 1.336 . S
C59 N57 1.335 . S
C59 N58 1.345 . S
C59 H64 0.930 . S
C60 N57 1.390 . S
C60 C61 1.346 . S
C60 H65 0.930 . S
C61 N58 1.336 . S
C61 C60 1.346 . S
C61 H68 0.929 . S
C62 O52 1.282 . S
C62 O63 1.216 . S
O63 C62 1.216 . S
H64 C59 0.930 . S
H65 C60 0.930 . S
O66 Cu46 1.959 . S
O66 C53 1.251 . S
H67 C50 0.930 . S
H68 C61 0.929 . S
Cu69 N70 1.999 . S
Cu69 O75 1.974 . S
Cu69 N80 1.985 1_545 S
Cu69 O89 1.959 1_545 S
N70 Cu69 1.999 . S
N70 C72 1.263 . S
N70 C74 1.389 . S
N71 C72 1.358 . S
N71 C73 1.400 . S
C72 N70 1.263 . S
C72 N71 1.358 . S
C72 H78 0.930 . S
C73 N71 1.400 . S
C73 C74 1.351 . S
C73 H90 0.930 . S
C74 N70 1.389 . S
C74 C73 1.351 . S
C74 H79 0.930 1_545 S
O75 Cu69 1.974 . S
O75 C85 1.282 . S
C76 O77 1.261 . S
C76 O89 1.251 . S
O77 C76 1.261 . S
H78 C72 0.930 . S
H79 C74 0.930 1_565 S
N80 Cu69 1.985 1_565 S
N80 C82 1.336 . S
N80 C83 1.390 1_565 S
N81 C82 1.345 . S
N81 C84 1.316 1_565 S
C82 N80 1.336 . S
C82 N81 1.345 . S
C82 H87 0.930 . S
C83 N80 1.390 1_545 S
C83 C84 1.360 . S
C83 H88 0.930 . S
C84 N81 1.316 1_545 S
C84 C83 1.360 . S
C84 H91 0.937 . S
C85 O75 1.282 . S
C85 O86 1.216 . S
O86 C85 1.216 . S
H87 C82 0.930 . S
H88 C83 0.930 . S
O89 Cu69 1.959 1_565 S
O89 C76 1.251 . S
H90 C73 0.930 . S
H91 C84 0.937 . S
Cu92 N93 1.999 . S
Cu92 O98 1.974 . S
Cu92 N103 1.985 1_655 S
Cu92 O112 1.958 1_655 S
N93 Cu92 1.999 . S
N93 C95 1.263 . S
N93 C97 1.389 . S
N94 C95 1.358 . S
N94 C96 1.400 . S
C95 N93 1.263 . S
C95 N94 1.358 . S
C95 H101 0.930 . S
C96 N94 1.400 . S
C96 C97 1.351 . S
C96 H113 0.930 . S
C97 N93 1.389 . S
C97 C96 1.351 . S
C97 H102 0.930 . S
O98 Cu92 1.974 . S
O98 C108 1.282 . S
C99 O100 1.261 . S
C99 O112 1.254 . S
O100 C99 1.261 . S
H101 C95 0.930 . S
H102 C97 0.930 . S
N103 Cu92 1.985 1_455 S
N103 C105 1.335 . S
N103 C106 1.390 . S
N104 C105 1.345 . S
N104 C107 1.336 . S
C105 N103 1.335 . S
C105 N104 1.345 . S
C105 H110 0.930 . S
C106 N103 1.390 . S
C106 C107 1.346 . S
C106 H111 0.930 . S
C107 N104 1.336 . S
C107 C106 1.346 . S
C107 H114 0.929 . S
C108 O98 1.282 . S
C108 O109 1.216 1_655 S
O109 C108 1.216 1_455 S
H110 C105 0.930 . S
H111 C106 0.930 . S
O112 Cu92 1.958 1_455 S
O112 C99 1.254 . S
H113 C96 0.930 . S
H114 C107 0.929 . S
Cu115 N116 1.999 . S
Cu115 O121 1.974 . S
Cu115 N126 1.985 . S
Cu115 O135 1.959 . S
N116 Cu115 1.999 . S
N116 C118 1.263 . S
N116 C120 1.389 . S
N117 C118 1.358 . S
N117 C119 1.400 . S
C118 N116 1.263 . S
C118 N117 1.358 . S
C118 H124 0.930 . S
C119 N117 1.400 . S
C119 C120 1.351 . S
C119 H136 0.930 . S
C120 N116 1.389 . S
C120 C119 1.351 . S
C120 H125 0.930 . S
O121 Cu115 1.974 . S
O121 C131 1.282 . S
C122 O123 1.261 . S
C122 O135 1.251 . S
O123 C122 1.261 . S
H124 C118 0.930 . S
H125 C120 0.930 . S
N126 Cu115 1.985 . S
N126 C128 1.335 . S
N126 C129 1.390 . S
N127 C128 1.345 . S
N127 C130 1.336 . S
C128 N126 1.335 . S
C128 N127 1.345 . S
C128 H133 0.930 . S
C129 N126 1.390 . S
C129 C130 1.346 . S
C129 H134 0.930 . S
C130 N127 1.336 . S
C130 C129 1.346 . S
C130 H137 0.929 . S
C131 O121 1.282 . S
C131 O132 1.216 . S
O132 C131 1.216 . S
H133 C128 0.930 . S
H134 C129 0.930 . S
O135 Cu115 1.959 . S
O135 C122 1.251 . S
H136 C119 0.930 . S
H137 C130 0.929 . S
Cu138 N139 1.999 . S
Cu138 O144 1.974 . S
Cu138 N149 1.985 . S
Cu138 O158 1.959 . S
N139 Cu138 1.999 . S
N139 C141 1.263 . S
N139 C143 1.389 . S
N140 C141 1.358 . S
N140 C142 1.400 . S
C141 N139 1.263 . S
C141 N140 1.358 . S
C141 H147 0.930 . S
C142 N140 1.400 . S
C142 C143 1.351 . S
C142 H159 0.930 . S
C143 N139 1.389 . S
C143 C142 1.351 . S
C143 H148 0.930 . S
O144 Cu138 1.974 . S
O144 C154 1.282 . S
C145 O146 1.261 . S
C145 O158 1.251 . S
O146 C145 1.261 . S
H147 C141 0.930 . S
H148 C143 0.930 . S
N149 Cu138 1.985 . S
N149 C151 1.335 . S
N149 C152 1.390 . S
N150 C151 1.345 . S
N150 C153 1.336 . S
C151 N149 1.335 . S
C151 N150 1.345 . S
C151 H156 0.930 . S
C152 N149 1.390 . S
C152 C153 1.346 . S
C152 H157 0.930 . S
C153 N150 1.336 . S
C153 C152 1.346 . S
C153 H160 0.929 . S
C154 O144 1.282 . S
C154 O155 1.216 . S
O155 C154 1.216 . S
H156 C151 0.930 . S
H157 C152 0.930 . S
O158 Cu138 1.959 . S
O158 C145 1.251 . S
H159 C142 0.930 . S
H160 C153 0.929 . S
Cu161 N162 1.999 . S
Cu161 O167 1.974 . S
Cu161 N172 1.985 1_545 S
Cu161 O181 1.957 1_545 S
N162 Cu161 1.999 . S
N162 C164 1.263 . S
N162 C166 1.389 . S
N163 C164 1.358 . S
N163 C165 1.400 . S
C164 N162 1.263 . S
C164 N163 1.358 . S
C164 H170 0.930 . S
C165 N163 1.400 . S
C165 C166 1.351 . S
C165 H182 0.930 . S
C166 N162 1.389 . S
C166 C165 1.351 . S
C166 H171 0.930 . S
O167 Cu161 1.974 . S
O167 C177 1.282 . S
C168 O169 1.261 . S
C168 O181 1.258 . S
O169 C168 1.261 . S
H170 C164 0.930 . S
H171 C166 0.930 . S
N172 Cu161 1.985 1_565 S
N172 C174 1.335 . S
N172 C175 1.390 . S
N173 C174 1.345 . S
N173 C176 1.336 . S
C174 N172 1.335 . S
C174 N173 1.345 . S
C174 H179 0.930 . S
C175 N172 1.390 . S
C175 C176 1.346 . S
C175 H180 0.930 . S
C176 N173 1.336 . S
C176 C175 1.346 . S
C176 H183 0.929 . S
C177 O167 1.282 . S
C177 O178 1.216 1_545 S
O178 C177 1.216 1_565 S
H179 C174 0.930 . S
H180 C175 0.930 . S
O181 Cu161 1.957 1_565 S
O181 C168 1.258 . S
H182 C165 0.930 . S
H183 C176 0.929 . S
C184 C185 1.349 . S
C184 C186 1.327 . S
C184 H209 0.950 . S
C185 C184 1.349 . S
C185 C201 1.352 . S
C186 C184 1.327 . S
C186 C205 1.429 . S
C186 H210 0.950 . S
C187 C204 1.574 . S
C187 C206 1.368 . S
C187 H211 0.949 . S
H188 C192 0.949 1_655 S
C189 C190 1.349 . S
C189 C191 1.327 . S
C189 H212 0.950 . S
C190 C189 1.349 . S
C190 C202 1.349 . S
C191 C189 1.327 . S
C191 C207 1.429 . S
C191 H213 0.950 . S
C192 H188 0.949 1_455 S
C192 C200 1.579 1_455 S
C192 C208 1.368 . S
H193 C201 0.948 1_455 S
H194 C199 0.950 . S
H195 C200 0.951 . S
H196 C202 0.950 . S
H197 C203 0.950 . S
H198 C204 0.949 . S
C199 H194 0.950 . S
C199 C201 1.326 1_455 S
C199 C205 1.429 1_455 S
C200 C192 1.579 1_655 S
C200 H195 0.951 . S
C200 C206 1.361 1_654 S
C201 C185 1.352 . S
C201 H193 0.948 1_655 S
C201 C199 1.326 1_655 S
C202 C190 1.349 . S
C202 H196 0.950 . S
C202 C203 1.327 . S
C203 H197 0.950 . S
C203 C202 1.327 . S
C203 C207 1.429 . S
C204 C187 1.574 . S
C204 H198 0.949 . S
C204 C208 1.368 1_556 S
C205 C186 1.429 . S
C205 C199 1.429 1_655 S
C205 C206 1.523 1_655 S
C206 C187 1.368 . S
C206 C200 1.361 1_456 S
C206 C205 1.523 1_455 S
C207 C191 1.429 . S
C207 C203 1.429 . S
C207 C208 1.523 . S
C208 C192 1.368 . S
C208 C204 1.368 1_554 S
C208 C207 1.523 . S
H209 C184 0.950 . S
H210 C186 0.950 . S
H211 C187 0.949 . S
H212 C189 0.950 . S
H213 C191 0.950 . S
C214 C215 1.349 . S
C214 C216 1.327 . S
C214 H239 0.950 . S
C215 C214 1.349 . S
C215 C231 1.349 . S
C216 C214 1.327 . S
C216 C235 1.429 . S
C216 H240 0.950 . S
C217 C234 1.574 . S
C217 C236 1.368 . S
C217 H241 0.949 . S
H218 C222 0.949 . S
C219 C220 1.349 . S
C219 C221 1.327 . S
C219 H242 0.950 . S
C220 C219 1.349 . S
C220 C232 1.349 . S
C221 C219 1.327 . S
C221 C237 1.429 . S
C221 H243 0.950 . S
C222 H218 0.949 . S
C222 C230 1.574 . S
C222 C238 1.368 . S
H223 C231 0.950 . S
H224 C229 0.950 . S
H225 C230 0.949 . S
H226 C232 0.950 . S
H227 C233 0.950 . S
H228 C234 0.949 . S
C229 H224 0.950 . S
C229 C231 1.327 . S
C229 C235 1.429 . S
C230 C222 1.574 . S
C230 H225 0.949 . S
C230 C236 1.368 . S
C231 C215 1.349 . S
C231 H223 0.950 . S
C231 C229 1.327 . S
C232 C220 1.349 . S
C232 H226 0.950 . S
C232 C233 1.327 . S
C233 H227 0.950 . S
C233 C232 1.327 . S
C233 C237 1.429 . S
C234 C217 1.574 . S
C234 H228 0.949 . S
C234 C238 1.368 . S
C235 C216 1.429 . S
C235 C229 1.429 . S
C235 C236 1.523 . S
C236 C217 1.368 . S
C236 C230 1.368 . S
C236 C235 1.523 . S
C237 C221 1.429 . S
C237 C233 1.429 . S
C237 C238 1.523 . S
C238 C222 1.368 . S
C238 C234 1.368 . S
C238 C237 1.523 . S
H239 C214 0.950 . S
H240 C216 0.950 . S
H241 C217 0.949 . S
H242 C219 0.950 . S
H243 C221 0.950 . S
C244 C245 1.349 . S
C244 C246 1.327 . S
C244 H269 0.950 . S
C245 C244 1.349 . S
C245 C261 1.349 . S
C246 C244 1.327 . S
C246 C265 1.429 . S
C246 H270 0.950 . S
C247 C264 1.574 1_554 S
C247 C266 1.368 . S
C247 H271 0.949 . S
H248 C252 0.949 . S
C249 C250 1.349 . S
C249 C251 1.327 . S
C249 H272 0.950 . S
C250 C249 1.349 . S
C250 C262 1.349 . S
C251 C249 1.327 . S
C251 C267 1.429 . S
C251 H273 0.950 . S
C252 H248 0.949 . S
C252 C260 1.574 . S
C252 C268 1.368 . S
H253 C261 0.950 . S
H254 C259 0.950 1_545 S
H255 C260 0.949 . S
H256 C262 0.950 . S
H257 C263 0.950 . S
H258 C264 0.949 . S
C259 H254 0.950 1_565 S
C259 C261 1.327 . S
C259 C265 1.429 . S
C260 C252 1.574 . S
C260 H255 0.949 . S
C260 C266 1.368 1_556 S
C261 C245 1.349 . S
C261 H253 0.950 . S
C261 C259 1.327 . S
C262 C250 1.349 . S
C262 H256 0.950 . S
C262 C263 1.327 . S
C263 H257 0.950 . S
C263 C262 1.327 . S
C263 C267 1.429 . S
C264 C247 1.574 1_556 S
C264 H258 0.949 . S
C264 C268 1.368 . S
C265 C246 1.429 . S
C265 C259 1.429 . S
C265 C266 1.523 1_565 S
C266 C247 1.368 . S
C266 C260 1.368 1_554 S
C266 C265 1.523 1_545 S
C267 C251 1.429 . S
C267 C263 1.429 . S
C267 C268 1.523 . S
C268 C252 1.368 . S
C268 C264 1.368 . S
C268 C267 1.523 . S
H269 C244 0.950 . S
H270 C246 0.950 . S
H271 C247 0.949 . S
H272 C249 0.950 . S
H273 C251 0.950 . S
C274 C275 1.349 . S
C274 C276 1.327 . S
C274 H299 0.950 . S
C275 C274 1.349 . S
C275 C291 1.349 1_545 S
C276 C274 1.327 . S
C276 C295 1.429 . S
C276 H300 0.950 . S
C277 C294 1.574 . S
C277 C296 1.368 . S
C277 H301 0.949 . S
H278 C282 0.949 . S
C279 C280 1.349 . S
C279 C281 1.327 . S
C279 H302 0.950 . S
C280 C279 1.349 . S
C280 C292 1.349 1_565 S
C281 C279 1.327 . S
C281 C297 1.429 . S
C281 H303 0.950 . S
C282 H278 0.949 . S
C282 C290 1.574 . S
C282 C298 1.368 1_545 S
H283 C291 0.950 . S
H284 C289 0.950 . S
H285 C290 0.949 . S
H286 C292 0.950 . S
H287 C293 0.950 1_655 S
H288 C294 0.949 . S
C289 H284 0.950 . S
C289 C291 1.327 . S
C289 C295 1.429 1_565 S
C290 C282 1.574 . S
C290 H285 0.949 . S
C290 C296 1.368 1_545 S
C291 C275 1.349 1_565 S
C291 H283 0.950 . S
C291 C289 1.327 . S
C292 C280 1.349 1_545 S
C292 H286 0.950 . S
C292 C293 1.327 . S
C293 H287 0.950 1_455 S
C293 C292 1.327 . S
C293 C297 1.429 1_545 S
C294 C277 1.574 . S
C294 H288 0.949 . S
C294 C298 1.368 . S
C295 C276 1.429 . S
C295 C289 1.429 1_545 S
C295 C296 1.523 1_545 S
C296 C277 1.368 . S
C296 C290 1.368 1_565 S
C296 C295 1.523 1_565 S
C297 C281 1.429 . S
C297 C293 1.429 1_565 S
C297 C298 1.523 1_455 S
C298 C282 1.368 1_565 S
C298 C294 1.368 . S
C298 C297 1.523 1_655 S
H299 C274 0.950 . S
H300 C276 0.950 . S
H301 C277 0.949 . S
H302 C279 0.950 . S
H303 C281 0.950 . S
C304 C305 1.349 . S
C304 C306 1.327 . S
C304 H329 0.950 . S
C305 C304 1.349 . S
C305 C321 1.349 . S
C306 C304 1.327 . S
C306 C325 1.429 . S
C306 H330 0.950 . S
C307 C324 1.574 . S
C307 C326 1.368 . S
C307 H331 0.949 . S
H308 C312 0.949 . S
C309 C310 1.349 . S
C309 C311 1.327 . S
C309 H332 0.950 . S
C310 C309 1.349 . S
C310 C322 1.349 . S
C311 C309 1.327 . S
C311 C327 1.429 . S
C311 H333 0.950 . S
C312 H308 0.949 . S
C312 C320 1.574 . S
C312 C328 1.368 . S
H313 C321 0.950 . S
H314 C319 0.950 . S
H315 C320 0.949 . S
H316 C322 0.950 . S
H317 C323 0.950 . S
H318 C324 0.949 . S
C319 H314 0.950 . S
C319 C321 1.327 . S
C319 C325 1.429 . S
C320 C312 1.574 . S
C320 H315 0.949 . S
C320 C326 1.368 . S
C321 C305 1.349 . S
C321 H313 0.950 . S
C321 C319 1.327 . S
C322 C310 1.349 . S
C322 H316 0.950 . S
C322 C323 1.327 . S
C323 H317 0.950 . S
C323 C322 1.327 . S
C323 C327 1.429 . S
C324 C307 1.574 . S
C324 H318 0.949 . S
C324 C328 1.368 . S
C325 C306 1.429 . S
C325 C319 1.429 . S
C325 C326 1.523 . S
C326 C307 1.368 . S
C326 C320 1.368 . S
C326 C325 1.523 . S
C327 C311 1.429 . S
C327 C323 1.429 . S
C327 C328 1.523 . S
C328 C312 1.368 . S
C328 C324 1.368 . S
C328 C327 1.523 . S
H329 C304 0.950 . S
H330 C306 0.950 . S
H331 C307 0.949 . S
H332 C309 0.950 . S
H333 C311 0.950 . S
C334 C335 1.349 . S
C334 C336 1.327 . S
C334 H359 0.950 . S
C335 C334 1.349 . S
C335 C351 1.349 . S
C336 C334 1.327 . S
C336 C355 1.429 . S
C336 H360 0.950 . S
C337 C354 1.574 . S
C337 C356 1.368 . S
C337 H361 0.949 . S
H338 C342 0.949 . S
C339 C340 1.349 . S
C339 C341 1.327 . S
C339 H362 0.950 . S
C340 C339 1.349 . S
C340 C352 1.349 . S
C341 C339 1.327 . S
C341 C357 1.429 . S
C341 H363 0.950 . S
C342 H338 0.949 . S
C342 C350 1.574 . S
C342 C358 1.368 . S
H343 C351 0.950 . S
H344 C349 0.950 . S
H345 C350 0.949 . S
H346 C352 0.950 . S
H347 C353 0.950 . S
H348 C354 0.949 . S
C349 H344 0.950 . S
C349 C351 1.327 . S
C349 C355 1.429 . S
C350 C342 1.574 . S
C350 H345 0.949 . S
C350 C356 1.368 . S
C351 C335 1.349 . S
C351 H343 0.950 . S
C351 C349 1.327 . S
C352 C340 1.349 . S
C352 H346 0.950 . S
C352 C353 1.327 . S
C353 H347 0.950 . S
C353 C352 1.327 . S
C353 C357 1.429 . S
C354 C337 1.574 . S
C354 H348 0.949 . S
C354 C358 1.368 . S
C355 C336 1.429 . S
C355 C349 1.429 . S
C355 C356 1.523 . S
C356 C337 1.368 . S
C356 C350 1.368 . S
C356 C355 1.523 . S
C357 C341 1.429 . S
C357 C353 1.429 . S
C357 C358 1.523 . S
C358 C342 1.368 . S
C358 C354 1.368 . S
C358 C357 1.523 . S
H359 C334 0.950 . S
H360 C336 0.950 . S
H361 C337 0.949 . S
H362 C339 0.950 . S
H363 C341 0.950 . S
C364 C365 1.349 . S
C364 C366 1.327 . S
C364 H389 0.950 . S
C365 C364 1.349 . S
C365 C381 1.349 . S
C366 C364 1.327 . S
C366 C385 1.429 . S
C366 H390 0.950 . S
C367 C384 1.574 . S
C367 C386 1.368 . S
C367 H391 0.949 . S
H368 C372 0.949 . S
C369 C370 1.349 . S
C369 C371 1.327 . S
C369 H392 0.950 . S
C370 C369 1.349 . S
C370 C382 1.349 . S
C371 C369 1.327 . S
C371 C387 1.429 . S
C371 H393 0.950 . S
C372 H368 0.949 . S
C372 C380 1.574 . S
C372 C388 1.368 . S
H373 C381 0.950 . S
H374 C379 0.950 . S
H375 C380 0.949 . S
H376 C382 0.950 . S
H377 C383 0.950 . S
H378 C384 0.949 . S
C379 H374 0.950 . S
C379 C381 1.327 . S
C379 C385 1.429 . S
C380 C372 1.574 . S
C380 H375 0.949 . S
C380 C386 1.368 . S
C381 C365 1.349 . S
C381 H373 0.950 . S
C381 C379 1.327 . S
C382 C370 1.349 . S
C382 H376 0.950 . S
C382 C383 1.327 . S
C383 H377 0.950 . S
C383 C382 1.327 . S
C383 C387 1.429 . S
C384 C367 1.574 . S
C384 H378 0.949 . S
C384 C388 1.368 . S
C385 C366 1.429 . S
C385 C379 1.429 . S
C385 C386 1.523 . S
C386 C367 1.368 . S
C386 C380 1.368 . S
C386 C385 1.523 . S
C387 C371 1.429 . S
C387 C383 1.429 . S
C387 C388 1.523 . S
C388 C372 1.368 . S
C388 C384 1.368 . S
C388 C387 1.523 . S
H389 C364 0.950 . S
H390 C366 0.950 . S
H391 C367 0.949 . S
H392 C369 0.950 . S
H393 C371 0.950 . S
C394 C395 1.349 . S
C394 C396 1.327 . S
C394 H419 0.950 . S
C395 C394 1.349 . S
C395 C411 1.349 . S
C396 C394 1.327 . S
C396 C415 1.429 . S
C396 H420 0.950 . S
C397 C414 1.574 . S
C397 C416 1.368 . S
C397 H421 0.949 . S
H398 C402 0.949 . S
C399 C400 1.349 . S
C399 C401 1.327 . S
C399 H422 0.950 . S
C400 C399 1.349 . S
C400 C412 1.349 . S
C401 C399 1.327 . S
C401 C417 1.429 . S
C401 H423 0.950 . S
C402 H398 0.949 . S
C402 C410 1.574 . S
C402 C418 1.368 . S
H403 C411 0.950 . S
H404 C409 0.950 . S
H405 C410 0.949 . S
H406 C412 0.950 . S
H407 C413 0.950 . S
H408 C414 0.949 . S
C409 H404 0.950 . S
C409 C411 1.327 . S
C409 C415 1.429 . S
C410 C402 1.574 . S
C410 H405 0.949 . S
C410 C416 1.368 . S
C411 C395 1.349 . S
C411 H403 0.950 . S
C411 C409 1.327 . S
C412 C400 1.349 . S
C412 H406 0.950 . S
C412 C413 1.327 . S
C413 H407 0.950 . S
C413 C412 1.327 . S
C413 C417 1.429 . S
C414 C397 1.574 . S
C414 H408 0.949 . S
C414 C418 1.368 . S
C415 C396 1.429 . S
C415 C409 1.429 . S
C415 C416 1.523 . S
C416 C397 1.368 . S
C416 C410 1.368 . S
C416 C415 1.523 . S
C417 C401 1.429 . S
C417 C413 1.429 . S
C417 C418 1.523 . S
C418 C402 1.368 . S
C418 C414 1.368 . S
C418 C417 1.523 . S
H419 C394 0.950 . S
H420 C396 0.950 . S
H421 C397 0.949 . S
H422 C399 0.950 . S
H423 C401 0.950 . S
C424 C425 1.349 . S
C424 C426 1.327 . S
C424 H449 0.950 . S
C425 C424 1.349 . S
C425 C441 1.349 . S
C426 C424 1.327 . S
C426 C445 1.429 . S
C426 H450 0.950 . S
C427 C444 1.574 . S
C427 C446 1.368 . S
C427 H451 0.949 . S
H428 C432 0.949 . S
C429 C430 1.349 . S
C429 C431 1.327 . S
C429 H452 0.950 . S
C430 C429 1.349 . S
C430 C442 1.349 . S
C431 C429 1.327 . S
C431 C447 1.429 . S
C431 H453 0.950 . S
C432 H428 0.949 . S
C432 C440 1.574 . S
C432 C448 1.368 . S
H433 C441 0.950 . S
H434 C439 0.950 . S
H435 C440 0.949 . S
H436 C442 0.950 . S
H437 C443 0.950 . S
H438 C444 0.949 . S
C439 H434 0.950 . S
C439 C441 1.327 . S
C439 C445 1.429 . S
C440 C432 1.574 . S
C440 H435 0.949 . S
C440 C446 1.368 . S
C441 C425 1.349 . S
C441 H433 0.950 . S
C441 C439 1.327 . S
C442 C430 1.349 . S
C442 H436 0.950 . S
C442 C443 1.327 . S
C443 H437 0.950 . S
C443 C442 1.327 . S
C443 C447 1.429 . S
C444 C427 1.574 . S
C444 H438 0.949 . S
C444 C448 1.368 . S
C445 C426 1.429 . S
C445 C439 1.429 . S
C445 C446 1.523 . S
C446 C427 1.368 . S
C446 C440 1.368 . S
C446 C445 1.523 . S
C447 C431 1.429 . S
C447 C443 1.429 . S
C447 C448 1.523 . S
C448 C432 1.368 . S
C448 C444 1.368 . S
C448 C447 1.523 . S
H449 C424 0.950 . S
H450 C426 0.950 . S
H451 C427 0.949 . S
H452 C429 0.950 . S
H453 C431 0.950 . S
C454 C455 1.349 . S
C454 C456 1.327 . S
C454 H479 0.950 . S
C455 C454 1.349 . S
C455 C471 1.349 . S
C456 C454 1.327 . S
C456 C475 1.429 . S
C456 H480 0.950 . S
C457 C474 1.574 . S
C457 C476 1.368 . S
C457 H481 0.949 . S
H458 C462 0.949 . S
C459 C460 1.349 . S
C459 C461 1.327 . S
C459 H482 0.950 . S
C460 C459 1.349 . S
C460 C472 1.349 . S
C461 C459 1.327 . S
C461 C477 1.429 . S
C461 H483 0.950 . S
C462 H458 0.949 . S
C462 C470 1.574 . S
C462 C478 1.368 . S
H463 C471 0.950 . S
H464 C469 0.950 . S
H465 C470 0.949 . S
H466 C472 0.950 . S
H467 C473 0.950 . S
H468 C474 0.949 . S
C469 H464 0.950 . S
C469 C471 1.327 . S
C469 C475 1.429 . S
C470 C462 1.574 . S
C470 H465 0.949 . S
C470 C476 1.368 . S
C471 C455 1.349 . S
C471 H463 0.950 . S
C471 C469 1.327 . S
C472 C460 1.349 . S
C472 H466 0.950 . S
C472 C473 1.327 . S
C473 H467 0.950 . S
C473 C472 1.327 . S
C473 C477 1.429 . S
C474 C457 1.574 . S
C474 H468 0.949 . S
C474 C478 1.368 . S
C475 C456 1.429 . S
C475 C469 1.429 . S
C475 C476 1.523 . S
C476 C457 1.368 . S
C476 C470 1.368 . S
C476 C475 1.523 . S
C477 C461 1.429 . S
C477 C473 1.429 . S
C477 C478 1.523 . S
C478 C462 1.368 . S
C478 C474 1.368 . S
C478 C477 1.523 . S
H479 C454 0.950 . S
H480 C456 0.950 . S
H481 C457 0.949 . S
H482 C459 0.950 . S
H483 C461 0.950 . S
C484 C485 1.349 . S
C484 C486 1.327 . S
C484 H509 0.950 . S
C485 C484 1.349 . S
C485 C501 1.349 . S
C486 C484 1.327 . S
C486 C505 1.429 . S
C486 H510 0.950 . S
C487 C504 1.574 . S
C487 C506 1.368 . S
C487 H511 0.949 . S
H488 C492 0.949 . S
C489 C490 1.349 . S
C489 C491 1.327 . S
C489 H512 0.950 1_565 S
C490 C489 1.349 . S
C490 C502 1.349 . S
C491 C489 1.327 . S
C491 C507 1.429 . S
C491 H513 0.950 . S
C492 H488 0.949 . S
C492 C500 1.574 . S
C492 C508 1.368 . S
H493 C501 0.950 . S
H494 C499 0.950 . S
H495 C500 0.949 . S
H496 C502 0.950 . S
H497 C503 0.950 . S
H498 C504 0.949 . S
C499 H494 0.950 . S
C499 C501 1.327 . S
C499 C505 1.429 . S
C500 C492 1.574 . S
C500 H495 0.949 . S
C500 C506 1.368 . S
C501 C485 1.349 . S
C501 H493 0.950 . S
C501 C499 1.327 . S
C502 C490 1.349 . S
C502 H496 0.950 . S
C502 C503 1.327 . S
C503 H497 0.950 . S
C503 C502 1.327 . S
C503 C507 1.429 . S
C504 C487 1.574 . S
C504 H498 0.949 . S
C504 C508 1.368 . S
C505 C486 1.429 . S
C505 C499 1.429 . S
C505 C506 1.523 . S
C506 C487 1.368 . S
C506 C500 1.368 . S
C506 C505 1.523 . S
C507 C491 1.429 . S
C507 C503 1.429 . S
C507 C508 1.523 . S
C508 C492 1.368 . S
C508 C504 1.368 . S
C508 C507 1.523 . S
H509 C484 0.950 . S
H510 C486 0.950 . S
H511 C487 0.949 . S
H512 C489 0.950 1_545 S
H513 C491 0.950 . S
C514 C515 1.349 . S
C514 C516 1.327 . S
C514 H539 0.926 1_455 S
C515 C514 1.349 . S
C515 C531 1.349 . S
C516 C514 1.327 . S
C516 C535 1.429 . S
C516 H540 0.950 . S
C517 C534 1.574 . S
C517 C536 1.368 . S
C517 H541 0.949 . S
H518 C522 0.949 . S
C519 C520 1.349 . S
C519 C521 1.327 . S
C519 H542 0.950 . S
C520 C519 1.349 . S
C520 C532 1.349 . S
C521 C519 1.327 . S
C521 C537 1.429 . S
C521 H543 0.950 . S
C522 H518 0.949 . S
C522 C530 1.574 . S
C522 C538 1.368 . S
H523 C531 0.950 . S
H524 C529 0.950 . S
H525 C530 0.949 . S
H526 C532 0.950 . S
H527 C533 0.950 . S
H528 C534 0.949 . S
C529 H524 0.950 . S
C529 C531 1.327 . S
C529 C535 1.429 . S
C530 C522 1.574 . S
C530 H525 0.949 . S
C530 C536 1.368 . S
C531 C515 1.349 . S
C531 H523 0.950 . S
C531 C529 1.327 . S
C532 C520 1.349 . S
C532 H526 0.950 . S
C532 C533 1.327 . S
C533 H527 0.950 . S
C533 C532 1.327 . S
C533 C537 1.429 . S
C534 C517 1.574 . S
C534 H528 0.949 . S
C534 C538 1.368 . S
C535 C516 1.429 . S
C535 C529 1.429 . S
C535 C536 1.523 . S
C536 C517 1.368 . S
C536 C530 1.368 . S
C536 C535 1.523 . S
C537 C521 1.429 . S
C537 C533 1.429 . S
C537 C538 1.523 . S
C538 C522 1.368 . S
C538 C534 1.368 . S
C538 C537 1.523 . S
H539 C514 0.926 1_655 S
H540 C516 0.950 . S
H541 C517 0.949 . S
H542 C519 0.950 . S
H543 C521 0.950 . S
C544 C545 1.349 . S
C544 C546 1.327 . S
C544 H569 0.950 . S
C545 C544 1.349 . S
C545 C561 1.349 . S
C546 C544 1.327 . S
C546 C565 1.429 . S
C546 H570 0.950 . S
C547 C564 1.574 . S
C547 C566 1.368 . S
C547 H571 0.949 . S
H548 C552 0.949 . S
C549 C550 1.349 . S
C549 C551 1.327 . S
C549 H572 0.950 . S
C550 C549 1.349 . S
C550 C562 1.349 . S
C551 C549 1.327 . S
C551 C567 1.429 . S
C551 H573 0.950 . S
C552 H548 0.949 . S
C552 C560 1.574 . S
C552 C568 1.368 . S
H553 C561 0.950 . S
H554 C559 0.950 . S
H555 C560 0.949 . S
H556 C562 0.950 . S
H557 C563 0.950 . S
H558 C564 0.949 . S
C559 H554 0.950 . S
C559 C561 1.327 . S
C559 C565 1.429 . S
C560 C552 1.574 . S
C560 H555 0.949 . S
C560 C566 1.368 . S
C561 C545 1.349 . S
C561 H553 0.950 . S
C561 C559 1.327 . S
C562 C550 1.349 . S
C562 H556 0.950 . S
C562 C563 1.327 . S
C563 H557 0.950 . S
C563 C562 1.327 . S
C563 C567 1.429 . S
C564 C547 1.574 . S
C564 H558 0.949 . S
C564 C568 1.368 . S
C565 C546 1.429 . S
C565 C559 1.429 . S
C565 C566 1.523 . S
C566 C547 1.368 . S
C566 C560 1.368 . S
C566 C565 1.523 . S
C567 C551 1.429 . S
C567 C563 1.429 . S
C567 C568 1.523 . S
C568 C552 1.368 . S
C568 C564 1.368 . S
C568 C567 1.523 . S
H569 C544 0.950 . S
H570 C546 0.950 . S
H571 C547 0.949 . S
H572 C549 0.950 . S
H573 C551 0.950 . S
C574 C575 1.349 . S
C574 C576 1.327 . S
C574 H599 0.950 . S
C575 C574 1.349 . S
C575 C591 1.349 . S
C576 C574 1.327 . S
C576 C595 1.429 . S
C576 H600 0.950 . S
C577 C594 1.574 . S
C577 C596 1.368 . S
C577 H601 0.949 . S
H578 C582 0.949 . S
C579 C580 1.349 . S
C579 C581 1.327 . S
C579 H602 0.950 . S
C580 C579 1.349 . S
C580 C592 1.349 . S
C581 C579 1.327 . S
C581 C597 1.429 . S
C581 H603 0.950 . S
C582 H578 0.949 . S
C582 C590 1.574 . S
C582 C598 1.368 . S
H583 C591 0.950 . S
H584 C589 0.950 . S
H585 C590 0.949 . S
H586 C592 0.950 . S
H587 C593 0.950 . S
H588 C594 0.949 . S
C589 H584 0.950 . S
C589 C591 1.327 . S
C589 C595 1.429 . S
C590 C582 1.574 . S
C590 H585 0.949 . S
C590 C596 1.368 . S
C591 C575 1.349 . S
C591 H583 0.950 . S
C591 C589 1.327 . S
C592 C580 1.349 . S
C592 H586 0.950 . S
C592 C593 1.327 . S
C593 H587 0.950 . S
C593 C592 1.327 . S
C593 C597 1.429 . S
C594 C577 1.574 . S
C594 H588 0.949 . S
C594 C598 1.368 . S
C595 C576 1.429 . S
C595 C589 1.429 . S
C595 C596 1.523 . S
C596 C577 1.368 . S
C596 C590 1.368 . S
C596 C595 1.523 . S
C597 C581 1.429 . S
C597 C593 1.429 . S
C597 C598 1.523 . S
C598 C582 1.368 . S
C598 C594 1.368 . S
C598 C597 1.523 . S
H599 C574 0.950 . S
H600 C576 0.950 . S
H601 C577 0.949 . S
H602 C579 0.950 . S
H603 C581 0.950 . S
C604 C605 1.349 . S
C604 C606 1.327 . S
C604 H629 0.950 . S
C605 C604 1.349 . S
C605 C621 1.349 . S
C606 C604 1.327 . S
C606 C625 1.429 . S
C606 H630 0.950 . S
C607 C624 1.574 . S
C607 C626 1.368 . S
C607 H631 0.949 . S
H608 C612 0.949 . S
C609 C610 1.349 . S
C609 C611 1.327 . S
C609 H632 0.950 . S
C610 C609 1.349 . S
C610 C622 1.349 . S
C611 C609 1.327 . S
C611 C627 1.429 . S
C611 H633 0.950 . S
C612 H608 0.949 . S
C612 C620 1.574 . S
C612 C628 1.368 . S
H613 C621 0.950 . S
H614 C619 0.950 . S
H615 C620 0.949 . S
H616 C622 0.950 . S
H617 C623 0.950 . S
H618 C624 0.949 . S
C619 H614 0.950 . S
C619 C621 1.327 . S
C619 C625 1.429 . S
C620 C612 1.574 . S
C620 H615 0.949 . S
C620 C626 1.368 . S
C621 C605 1.349 . S
C621 H613 0.950 . S
C621 C619 1.327 . S
C622 C610 1.349 . S
C622 H616 0.950 . S
C622 C623 1.327 . S
C623 H617 0.950 . S
C623 C622 1.327 . S
C623 C627 1.429 . S
C624 C607 1.574 . S
C624 H618 0.949 . S
C624 C628 1.368 . S
C625 C606 1.429 . S
C625 C619 1.429 . S
C625 C626 1.523 . S
C626 C607 1.368 . S
C626 C620 1.368 . S
C626 C625 1.523 . S
C627 C611 1.429 . S
C627 C623 1.429 . S
C627 C628 1.523 . S
C628 C612 1.368 . S
C628 C624 1.368 . S
C628 C627 1.523 . S
H629 C604 0.950 . S
H630 C606 0.950 . S
H631 C607 0.949 . S
H632 C609 0.950 . S
H633 C611 0.950 . S
C634 C635 1.349 . S
C634 C636 1.327 . S
C634 H659 0.950 . S
C635 C634 1.349 . S
C635 C651 1.349 . S
C636 C634 1.327 . S
C636 C655 1.429 . S
C636 H660 0.950 . S
C637 C654 1.574 . S
C637 C656 1.368 . S
C637 H661 0.949 . S
H638 C642 0.949 . S
C639 C640 1.349 . S
C639 C641 1.327 . S
C639 H662 0.950 . S
C640 C639 1.349 . S
C640 C652 1.349 . S
C641 C639 1.327 . S
C641 C657 1.429 . S
C641 H663 0.950 . S
C642 H638 0.949 . S
C642 C650 1.574 . S
C642 C658 1.368 . S
H643 C651 0.950 . S
H644 C649 0.950 . S
H645 C650 0.949 . S
H646 C652 0.950 . S
H647 C653 0.950 . S
H648 C654 0.949 . S
C649 H644 0.950 . S
C649 C651 1.327 . S
C649 C655 1.429 . S
C650 C642 1.574 . S
C650 H645 0.949 . S
C650 C656 1.368 . S
C651 C635 1.349 . S
C651 H643 0.950 . S
C651 C649 1.327 . S
C652 C640 1.349 . S
C652 H646 0.950 . S
C652 C653 1.327 . S
C653 H647 0.950 . S
C653 C652 1.327 . S
C653 C657 1.429 . S
C654 C637 1.574 . S
C654 H648 0.949 . S
C654 C658 1.368 . S
C655 C636 1.429 . S
C655 C649 1.429 . S
C655 C656 1.523 . S
C656 C637 1.368 . S
C656 C650 1.368 . S
C656 C655 1.523 . S
C657 C641 1.429 . S
C657 C653 1.429 . S
C657 C658 1.523 . S
C658 C642 1.368 . S
C658 C654 1.368 . S
C658 C657 1.523 . S
H659 C634 0.950 . S
H660 C636 0.950 . S
H661 C637 0.949 . S
H662 C639 0.950 . S
H663 C641 0.950 . S
C185 C108 1.902 . S
C190 N12 1.832 . S
C215 N35 1.808 . S
C220 C131 1.880 . S
C245 N58 1.735 . S
C250 C154 1.805 . S
C275 C177 1.832 . S
C280 N81 1.764 . S
C305 C7 2.826 . S
C310 C53 2.824 . S
C335 C30 2.826 . S
C340 C76 2.831 . S
C365 N140 2.013 . S
C370 N94 2.005 . S
C395 N117 2.006 . S
C400 N163 2.015 . S
C425 C122 1.605 . S
C430 C16 1.545 . S
C455 C39 1.573 . S
C460 C145 1.646 . S
C485 C62 1.534 . S
C490 C168 1.603 . S
C515 C99 1.561 . S
C520 C85 1.507 . S
C545 N104 1.067 . S
C550 N25 1.093 . S
C575 N127 1.124 . S
C580 N48 1.153 . S
C605 N150 1.114 . S
C610 N71 1.141 . S
C635 N2 1.077 . S
C640 N173 1.061 . S
