# Generated by pormake.
# Topology hjm, (4)-cn, num edge types: 1
# Building blocks:
#     Node 0, Type 0, BuildingBlock: QUQFOY_clean_sbu_3, # of connection points: 4
#     Node 1, Type 0, BuildingBlock: QUQFOY_clean_sbu_3, # of connection points: 4
#     Node 2, Type 0, BuildingBlock: QUQFOY_clean_sbu_3, # of connection points: 4
#     Node 3, Type 0, BuildingBlock: QUQFOY_clean_sbu_3, # of connection points: 4
#     Node 4, Type 0, BuildingBlock: QUQFOY_clean_sbu_3, # of connection points: 4
#     Node 5, Type 0, BuildingBlock: QUQFOY_clean_sbu_3, # of connection points: 4
#     Node 6, Type 0, BuildingBlock: QUQFOY_clean_sbu_3, # of connection points: 4
#     Node 7, Type 0, BuildingBlock: QUQFOY_clean_sbu_3, # of connection points: 4
#     Edge 8, Type (0, 0), BuildingBlock: ZUJKAS_clean_linker_0, # of connection points: 2
#     Edge 9, Type (0, 0), BuildingBlock: ZUJKAS_clean_linker_0, # of connection points: 2
#     Edge 10, Type (0, 0), BuildingBlock: ZUJKAS_clean_linker_0, # of connection points: 2
#     Edge 11, Type (0, 0), BuildingBlock: ZUJKAS_clean_linker_0, # of connection points: 2
#     Edge 12, Type (0, 0), BuildingBlock: ZUJKAS_clean_linker_0, # of connection points: 2
#     Edge 13, Type (0, 0), BuildingBlock: ZUJKAS_clean_linker_0, # of connection points: 2
#     Edge 14, Type (0, 0), BuildingBlock: ZUJKAS_clean_linker_0, # of connection points: 2
#     Edge 15, Type (0, 0), BuildingBlock: ZUJKAS_clean_linker_0, # of connection points: 2
#     Edge 16, Type (0, 0), BuildingBlock: ZUJKAS_clean_linker_0, # of connection points: 2
#     Edge 17, Type (0, 0), BuildingBlock: ZUJKAS_clean_linker_0, # of connection points: 2
#     Edge 18, Type (0, 0), BuildingBlock: ZUJKAS_clean_linker_0, # of connection points: 2
#     Edge 19, Type (0, 0), BuildingBlock: ZUJKAS_clean_linker_0, # of connection points: 2
#     Edge 20, Type (0, 0), BuildingBlock: ZUJKAS_clean_linker_0, # of connection points: 2
#     Edge 21, Type (0, 0), BuildingBlock: ZUJKAS_clean_linker_0, # of connection points: 2
#     Edge 22, Type (0, 0), BuildingBlock: ZUJKAS_clean_linker_0, # of connection points: 2
#     Edge 23, Type (0, 0), BuildingBlock: ZUJKAS_clean_linker_0, # of connection points: 2
# Relax obj value: 0.093
# Max RMSD: 0.137
# Mean RMSD: 0.137
data_MOF--net-hjm--node1-QUQFOY_clean_sbu_3--edge1-ZUJKAS_clean_linker_0
_symmetry_space_group_name_H-M    P1
_symmetry_Int_Tables_number       1
_symmetry_cell_setting            triclinic
loop_
_symmetry_equiv_pos_as_xyz
'x, y, z'
_cell_length_a     35.472517
_cell_length_b     30.554586
_cell_length_c     34.801103
_cell_angle_alpha  90.044098
_cell_angle_beta   59.549341
_cell_angle_gamma 90.003137
loop_
_atom_site_label
_atom_site_type_symbol
_atom_site_fract_x
_atom_site_fract_y
_atom_site_fract_z
_atom_type_partial_charge
C0 C 0.20696 0.30461 0.22255 0.0
O1 O 0.21524 0.3421 0.23225 0.0
Cd2 Cd 0.20659 0.36188 0.30222 0.0
O3 O 0.19509 0.27298 0.25027 0.0
Cd4 Cd 0.18367 0.26214 0.32667 0.0
C5 C 0.28586 0.29654 0.29937 0.0
O6 O 0.13906 0.3271 0.35345 0.0
O7 O 0.15295 0.29748 0.40095 0.0
O8 O 0.12955 0.2059 0.33797 0.0
C9 C 0.13148 0.32552 0.39298 0.0
O10 O 0.27225 0.33525 0.30019 0.0
C11 C 0.14156 0.17907 0.35754 0.0
O12 O 0.26134 0.26377 0.30517 0.0
O13 O 0.17434 0.19007 0.36078 0.0
C14 C 0.8195 0.28889 0.24582 0.0
O15 O 0.81935 0.32517 0.22814 0.0
Cd16 Cd 0.82759 0.33297 0.15663 0.0
O17 O 0.82409 0.25284 0.22521 0.0
Cd18 Cd 0.83558 0.23027 0.15066 0.0
C19 C 0.73853 0.27422 0.17262 0.0
O20 O 0.88913 0.28667 0.11279 0.0
O21 O 0.86951 0.25396 0.07117 0.0
O22 O 0.88199 0.17017 0.14962 0.0
C23 C 0.89551 0.28032 0.07415 0.0
O24 O 0.75718 0.31132 0.16576 0.0
C25 C 0.86682 0.14189 0.13427 0.0
O26 O 0.75889 0.23941 0.17127 0.0
O27 O 0.83563 0.15417 0.12888 0.0
C28 C 0.88025 0.68437 0.66597 0.0
O29 O 0.89466 0.70328 0.68851 0.0
Cd30 Cd 0.86637 0.76732 0.73267 0.0
O31 O 0.84711 0.6994 0.66497 0.0
Cd32 Cd 0.7939 0.76142 0.69965 0.0
C33 C 0.87514 0.83826 0.65142 0.0
O34 O 0.79124 0.7495 0.76864 0.0
O35 O 0.75036 0.80266 0.77144 0.0
O36 O 0.73831 0.71194 0.70258 0.0
C37 C 0.76381 0.77858 0.79165 0.0
O38 O 0.8872 0.8263 0.67859 0.0
C39 C 0.72048 0.7403 0.69021 0.0
O40 O 0.84328 0.81939 0.65102 0.0
O41 O 0.73828 0.77784 0.67996 0.0
C42 C 0.12569 0.64195 0.80702 0.0
O43 O 0.10556 0.66181 0.79068 0.0
Cd44 Cd 0.12102 0.73297 0.75934 0.0
O45 O 0.15784 0.65987 0.80784 0.0
Cd46 Cd 0.1999 0.7302 0.78074 0.0
C47 C 0.11054 0.79304 0.84793 0.0
O48 O 0.19806 0.7271 0.71286 0.0
O49 O 0.22875 0.78514 0.71893 0.0
O50 O 0.26607 0.68865 0.76209 0.0
C51 C 0.21866 0.76194 0.6953 0.0
O52 O 0.09618 0.78337 0.82208 0.0
C53 C 0.28081 0.71633 0.77843 0.0
O54 O 0.1465 0.77708 0.84143 0.0
O55 O 0.25694 0.74945 0.79758 0.0
C56 C 0.69243 0.78981 0.23135 0.0
O57 O 0.69968 0.82663 0.24329 0.0
Cd58 Cd 0.69246 0.84077 0.31378 0.0
O59 O 0.68268 0.75631 0.25656 0.0
Cd60 Cd 0.67397 0.73925 0.33089 0.0
C61 C 0.77565 0.77595 0.30303 0.0
O62 O 0.62698 0.80176 0.36323 0.0
O63 O 0.64261 0.76866 0.40791 0.0
O64 O 0.62225 0.68273 0.33693 0.0
C65 C 0.61997 0.79732 0.40238 0.0
O66 O 0.76037 0.8144 0.30687 0.0
C67 C 0.63535 0.65396 0.3538 0.0
O68 O 0.75209 0.74268 0.30759 0.0
O69 O 0.66753 0.66431 0.35837 0.0
C70 C 0.30824 0.7993 0.24912 0.0
O71 O 0.30486 0.83505 0.23254 0.0
Cd72 Cd 0.31239 0.84328 0.16132 0.0
O73 O 0.31592 0.76344 0.22744 0.0
Cd74 Cd 0.32819 0.74125 0.15248 0.0
C75 C 0.22855 0.77732 0.17428 0.0
O76 O 0.37644 0.80146 0.11468 0.0
O77 O 0.35547 0.767 0.07482 0.0
O78 O 0.38604 0.6892 0.13845 0.0
C79 C 0.381 0.79482 0.07675 0.0
O80 O 0.24439 0.81572 0.16875 0.0
C81 C 0.36848 0.65663 0.13101 0.0
O82 O 0.25118 0.74417 0.17243 0.0
O83 O 0.33078 0.66258 0.13613 0.0
C84 C 0.37553 0.15767 0.67018 0.0
O85 O 0.39239 0.17873 0.6893 0.0
Cd86 Cd 0.37012 0.24756 0.72573 0.0
O87 O 0.34262 0.17277 0.66876 0.0
Cd88 Cd 0.29308 0.23826 0.69762 0.0
C89 C 0.37824 0.30931 0.63857 0.0
O90 O 0.29412 0.23473 0.76522 0.0
O91 O 0.25343 0.28663 0.76507 0.0
O92 O 0.23359 0.18952 0.70906 0.0
C93 C 0.26848 0.26587 0.78587 0.0
O94 O 0.39162 0.29989 0.66531 0.0
C95 C 0.2167 0.21606 0.69394 0.0
O96 O 0.34433 0.29095 0.64209 0.0
O97 O 0.23669 0.25203 0.67843 0.0
C98 C 0.61552 0.15813 0.81067 0.0
O99 O 0.60101 0.18002 0.78991 0.0
Cd100 Cd 0.63305 0.24547 0.74971 0.0
O101 O 0.64894 0.17122 0.81219 0.0
Cd102 Cd 0.70031 0.23464 0.7815 0.0
C103 C 0.62092 0.31062 0.83479 0.0
O104 O 0.70859 0.22606 0.70895 0.0
O105 O 0.73624 0.28571 0.71661 0.0
O106 O 0.75879 0.18607 0.77364 0.0
C107 C 0.73258 0.25898 0.69082 0.0
O108 O 0.61222 0.30497 0.80387 0.0
C109 C 0.77584 0.2138 0.78749 0.0
O110 O 0.64916 0.28682 0.83706 0.0
O111 O 0.75634 0.2503 0.80083 0.0
H112 H 0.15562 0.12055 0.40813 0.0
H113 H 0.10783 0.06062 0.45278 0.0
H114 H 0.02162 0.08758 0.40224 0.0
H115 H 0.06922 0.14786 0.3574 0.0
H116 H 0.0135 0.07837 0.51849 0.0
H117 H 0.0413 0.94964 0.39325 0.0
H118 H 0.08181 0.99094 0.38308 0.0
H119 H 0.03367 0.00528 0.38142 0.0
C120 C 0.12695 0.11329 0.40581 0.0
C121 C 0.11612 0.13907 0.37934 0.0
C122 C 0.09967 0.07907 0.4314 0.0
C123 C 0.06137 0.06969 0.43063 0.0
C124 C 0.05132 0.0941 0.40288 0.0
H125 H 0.85943 0.87464 0.58853 0.0
H126 H 0.90142 0.93257 0.53491 0.0
C127 C 0.0785 0.12855 0.37738 0.0
C128 C 0.0302 0.03704 0.46195 0.0
H129 H 0.98983 0.93418 0.46843 0.0
C130 C 0.00816 0.04688 0.5076 0.0
C131 C 0.02295 -0.00361 0.44744 0.0
C132 C 0.04621 0.98452 0.39866 0.0
C133 C 0.97947 0.01678 0.53936 0.0
C134 C 0.97354 0.9753 0.52509 0.0
C135 C 0.99457 0.96595 0.47927 0.0
C136 C 0.94777 0.94041 0.55743 0.0
C137 C 0.95569 0.02979 0.58791 0.0
C138 C 0.96028 0.9253 0.58737 0.0
C139 C 0.93638 0.89253 0.61805 0.0
C140 C 0.89961 0.87374 0.61919 0.0
C141 C 0.88741 0.88855 0.58873 0.0
C142 C 0.9114 0.92155 0.55801 0.0
H143 H 0.9529 0.06593 0.59196 0.0
H144 H 0.92236 0.01542 0.60607 0.0
H145 H 0.97427 0.01775 0.60357 0.0
H146 H 0.98884 0.93866 0.58681 0.0
H147 H 0.94706 0.88173 0.64064 0.0
H148 H 0.1342 0.82907 0.90502 0.0
H149 H 0.09223 0.88099 0.96582 0.0
H150 H 0.98754 0.87752 0.93699 0.0
H151 H 0.02886 0.82576 0.87655 0.0
H152 H 0.06305 0.96398 0.95597 0.0
H153 H 0.92371 0.86023 0.07297 0.0
H154 H 0.97446 0.83769 0.02894 0.0
H155 H 0.93411 0.85834 0.01684 0.0
C156 C 0.10206 0.83903 0.91189 0.0
C157 C 0.08494 0.82325 0.88583 0.0
C158 C 0.07814 0.86864 0.94667 0.0
C159 C 0.0365 0.8825 0.95636 0.0
C160 C 0.0192 0.8665 0.93072 0.0
H161 H 0.84578 0.07842 0.09311 0.0
H162 H 0.88767 0.01261 0.05615 0.0
C163 C 0.0431 0.83717 0.89587 0.0
C164 C 0.01229 0.91627 -0.00917 0.0
H165 H 0.91344 0.93789 0.08344 0.0
C166 C 0.03066 0.95818 0.98435 0.0
C167 C 0.97004 0.90851 0.0277 0.0
C168 C 0.94953 0.86363 0.03737 0.0
C169 C 0.00694 0.99322 0.01232 0.0
C170 C 0.96402 0.98583 0.04834 0.0
C171 C 0.94631 0.94348 0.05584 0.0
C172 C 0.93582 0.0224 0.07603 0.0
C173 C 0.02715 0.0383 0.00154 0.0
C174 C 0.94799 0.04879 0.10099 0.0
C175 C 0.9242 0.08665 0.122 0.0
C176 C 0.88763 0.09847 0.11869 0.0
C177 C 0.87389 0.07036 0.09615 0.0
C178 C 0.89779 0.03269 0.07502 0.0
H179 H 0.05644 0.03992 0.96757 0.0
H180 H 0.00315 0.06312 0.00399 0.0
H181 H 0.03741 0.04715 0.02581 0.0
H182 H 0.97671 0.0409 0.103 0.0
H183 H 0.93543 0.10745 0.1394 0.0
H184 H 0.45535 0.34871 0.61767 0.0
H185 H 0.49693 0.40176 0.55885 0.0
H186 H 0.40061 0.39591 0.51831 0.0
H187 H 0.35831 0.34255 0.57749 0.0
H188 H 0.53109 0.392 0.46308 0.0
H189 H 0.41172 0.52866 0.54134 0.0
H190 H 0.41111 0.48135 0.57272 0.0
H191 H 0.39141 0.47702 0.5345 0.0
C192 C 0.44279 0.35862 0.5964 0.0
C193 C 0.40327 0.34149 0.60255 0.0
C194 C 0.46677 0.38885 0.56265 0.0
C195 C 0.4517 0.40288 0.53449 0.0
C196 C 0.41253 0.38572 0.54005 0.0
H197 H 0.5642 0.62426 0.35063 0.0
H198 H 0.52036 0.55908 0.38698 0.0
C199 C 0.38849 0.35521 0.57382 0.0
C200 C 0.47709 0.43609 0.49994 0.0
H201 H 0.47773 0.54439 0.47592 0.0
C202 C 0.5193 0.42523 0.46548 0.0
C203 C 0.46143 0.47923 0.50309 0.0
C204 C 0.41656 0.49264 0.53996 0.0
C205 C 0.54681 0.45678 0.43472 0.0
C206 C 0.532 0.5005 0.43925 0.0
C207 C 0.48906 0.51087 0.47254 0.0
C208 C 0.56143 0.53676 0.41245 0.0
C209 C 0.59158 0.44302 0.39793 0.0
C210 C 0.59932 0.54561 0.4143 0.0
C211 C 0.62449 0.58269 0.39346 0.0
C212 C 0.61198 0.61193 0.37076 0.0
C213 C 0.57475 0.60233 0.3678 0.0
C214 C 0.54963 0.56514 0.38859 0.0
H215 H 0.59218 0.40778 0.38972 0.0
H216 H 0.60222 0.46258 0.36723 0.0
H217 H 0.61553 0.44798 0.40911 0.0
H218 H 0.6085 0.52482 0.43341 0.0
H219 H 0.65281 0.58927 0.39661 0.0
H220 H 0.45667 0.64645 0.08434 0.0
H221 H 0.49772 0.58284 0.04101 0.0
H222 H 0.3775 0.50989 0.09216 0.0
H223 H 0.33596 0.57478 0.13325 0.0
H224 H 0.51248 0.50391 0.05386 0.0
H225 H 0.42109 0.4969 0.96364 0.0
H226 H 0.41354 0.5406 0.00159 0.0
H227 H 0.38645 0.48879 0.02241 0.0
C228 C 0.43899 0.6167 0.08674 0.0
C229 C 0.39308 0.6157 0.11168 0.0
C230 C 0.46252 0.58028 0.0619 0.0
C231 C 0.44071 0.54182 0.06212 0.0
C232 C 0.39501 0.53966 0.08996 0.0
H233 H 0.59635 0.30834 0.92286 0.0
H234 H 0.55182 0.36209 0.98042 0.0
C235 C 0.37131 0.57657 0.11385 0.0
C236 C 0.4659 0.50521 0.03151 0.0
H237 H 0.47236 0.44074 0.94821 0.0
C238 C 0.50374 0.49013 0.03069 0.0
C239 C 0.455 0.48764 0.00067 0.0
C240 C 0.4171 0.50461 -0.00329 0.0
C241 C 0.53132 0.45875 -0.00046 0.0
C242 C 0.51967 0.44027 0.96962 0.0
C243 C 0.48132 0.45468 0.97115 0.0
C244 C 0.54746 0.40751 0.935 0.0
C245 C 0.57353 0.44737 -0.00211 0.0
C246 C 0.55873 0.41416 0.89044 0.0
C247 C 0.58278 0.38275 0.85791 0.0
C248 C 0.59692 0.34443 0.86901 0.0
C249 C 0.58639 0.33797 0.91333 0.0
C250 C 0.56121 0.36886 0.94619 0.0
H251 H 0.58392 0.47383 0.01245 0.0
H252 H 0.56867 0.4173 0.01774 0.0
H253 H 0.60035 0.44142 0.96318 0.0
H254 H 0.54864 0.44363 0.8808 0.0
H255 H 0.59051 0.38856 0.82397 0.0
H256 H 0.95856 0.33204 0.07213 0.0
H257 H 0.00626 0.38316 0.01389 0.0
H258 H 0.9534 0.34062 0.93253 0.0
H259 H 0.905 0.28912 -0.00886 0.0
H260 H 0.06988 0.37335 0.91881 0.0
H261 H 0.92369 0.47387 0.95724 0.0
H262 H 0.92185 0.43129 -0.00595 0.0
H263 H 0.9229 0.41727 0.94342 0.0
C264 C 0.95733 0.33314 0.04167 0.0
C265 C 0.92755 0.30712 0.03643 0.0
C266 C 0.98484 0.36217 0.00833 0.0
C267 C 0.98294 0.36588 0.96927 0.0
C268 C 0.95494 0.33836 0.96276 0.0
H269 H 0.0781 0.58609 0.78761 0.0
H270 H 0.0493 0.51462 0.82025 0.0
C271 C 0.92741 0.30903 -0.00384 0.0
C272 C 0.00719 0.40164 0.93786 0.0
H273 H 0.9922 0.50232 0.90575 0.0
C274 C 0.05306 0.40139 0.91535 0.0
C275 C 0.98496 0.43813 0.93388 0.0
C276 C 0.93564 0.44061 0.95857 0.0
C277 C 0.07742 0.43708 0.88908 0.0
C278 C 0.0551 0.47418 0.88624 0.0
C279 C 0.00925 0.47381 0.90793 0.0
C280 C 0.07801 0.51456 0.86225 0.0
C281 C 0.12668 0.43464 0.86466 0.0
C282 C 0.10432 0.53809 0.87456 0.0
C283 C 0.12125 0.57901 0.85557 0.0
C284 C 0.11133 0.59731 0.82471 0.0
C285 C 0.08592 0.57312 0.8117 0.0
C286 C 0.06958 0.53215 0.83017 0.0
H287 H 0.13827 0.40016 0.85878 0.0
H288 H 0.14139 0.45181 0.8321 0.0
H289 H 0.13865 0.45048 0.88517 0.0
H290 H 0.11036 0.52565 0.90007 0.0
H291 H 0.14062 0.59699 0.86632 0.0
H292 H 0.07569 0.38095 0.38569 0.0
H293 H 0.02878 0.43658 0.43885 0.0
H294 H 0.07249 0.39814 0.5291 0.0
H295 H 0.1197 0.34184 0.47593 0.0
H296 H 0.9605 0.42525 0.53747 0.0
H297 H 0.10178 0.53418 0.49776 0.0
H298 H 0.105 0.49163 0.46015 0.0
H299 H 0.10524 0.47756 0.51002 0.0
C300 C 0.07523 0.3841 0.41693 0.0
C301 C 0.10165 0.35733 0.42654 0.0
C302 C 0.04825 0.41574 0.44729 0.0
C303 C 0.04749 0.42141 0.48757 0.0
C304 C 0.07294 0.39416 0.49794 0.0
H305 H 0.93819 0.63463 0.67618 0.0
H306 H 0.97535 0.56832 0.63607 0.0
C307 C 0.09979 0.36213 0.46763 0.0
C308 C 0.02164 0.45753 0.51742 0.0
H309 H 0.03172 0.56042 0.54889 0.0
C310 C 0.97588 0.45475 0.54039 0.0
C311 C 0.04209 0.49579 0.52074 0.0
C312 C 0.09123 0.50042 0.49577 0.0
C313 C 0.94982 0.48951 0.56698 0.0
C314 C 0.97028 0.52829 0.5695 0.0
C315 C 0.01612 0.53069 0.54683 0.0
C316 C 0.94508 0.56692 0.59552 0.0
C317 C 0.90078 0.48411 0.59252 0.0
C318 C 0.91565 0.58824 0.58602 0.0
C319 C 0.89394 0.62618 0.60924 0.0
C320 C 0.90198 0.64375 0.64175 0.0
C321 C 0.93145 0.62219 0.65112 0.0
C322 C 0.95268 0.58417 0.62831 0.0
H323 H 0.89122 0.44902 0.59742 0.0
H324 H 0.88594 0.50023 0.62565 0.0
H325 H 0.88696 0.49941 0.57343 0.0
H326 H 0.91013 0.57608 0.56004 0.0
H327 H 0.8716 0.64217 0.60114 0.0
H328 H 0.55599 0.11281 0.79882 0.0
H329 H 0.5201 0.04403 0.83351 0.0
H330 H 0.58953 0.04016 0.90547 0.0
H331 H 0.62674 0.10864 0.86984 0.0
H332 H 0.58761 0.95991 0.86976 0.0
H333 H 0.42131 0.0331 0.9612 0.0
H334 H 0.44912 0.04106 0.90198 0.0
H335 H 0.47022 0.06598 0.93409 0.0
C336 C 0.56361 0.09747 0.82214 0.0
C337 C 0.59389 0.11645 0.83198 0.0
C338 C 0.54294 0.05819 0.84199 0.0
C339 C 0.55153 0.03748 0.87266 0.0
C340 C 0.58233 0.05581 0.88199 0.0
H341 H 0.45026 0.84048 0.06776 0.0
H342 H 0.49498 0.89337 0.01003 0.0
C343 C 0.60344 0.09497 0.86175 0.0
C344 C 0.52795 -0.00298 0.89551 0.0
H345 H 0.42614 0.95669 0.96691 0.0
C346 C 0.5523 0.95911 0.89084 0.0
C347 C 0.48184 -0.00392 0.92281 0.0
C348 C 0.45406 0.03629 0.93073 0.0
C349 C 0.53174 0.92043 0.91345 0.0
C350 C 0.48581 0.91988 0.94144 0.0
C351 C 0.46135 0.95724 0.94494 0.0
C352 C 0.46289 0.88312 0.97194 0.0
C353 C 0.55925 0.88064 0.90783 0.0
C354 C 0.43012 0.85972 0.96944 0.0
C355 C 0.40447 0.82918 0.00246 0.0
C356 C 0.41079 0.82256 0.03875 0.0
C357 C 0.44453 0.84512 0.04027 0.0
C358 C 0.47037 0.87505 0.00713 0.0
H359 H 0.59148 0.88221 0.87649 0.0
H360 H 0.56526 0.87884 0.93614 0.0
H361 H 0.54221 0.85018 0.90773 0.0
H362 H 0.42367 0.86598 0.94267 0.0
H363 H 0.3786 0.81227 0.00062 0.0
H364 H 0.56135 0.85248 0.40003 0.0
H365 H 0.5141 0.90549 0.4564 0.0
H366 H 0.56171 0.86258 0.54215 0.0
H367 H 0.60942 0.80888 0.48559 0.0
H368 H 0.44773 0.89224 0.55381 0.0
H369 H 0.59028 -0.00157 0.51621 0.0
H370 H 0.59321 0.95698 0.47779 0.0
H371 H 0.59291 0.94138 0.5276 0.0
C372 C 0.56163 0.85401 0.43099 0.0
C373 C 0.58943 0.82688 0.43825 0.0
C374 C 0.53442 0.88414 0.46321 0.0
C375 C 0.53471 0.88795 0.50312 0.0
C376 C 0.56132 0.86006 0.51131 0.0
H377 H 0.42893 0.10702 0.68646 0.0
H378 H 0.46317 0.03776 0.65157 0.0
C379 C 0.58846 0.82951 0.47907 0.0
C380 C 0.50927 0.92338 0.53437 0.0
H381 H 0.52052 0.02577 0.56605 0.0
C382 C 0.46347 0.92129 0.55708 0.0
C383 C 0.53014 0.96108 0.5382 0.0
C384 C 0.57934 0.96506 0.51359 0.0
C385 C 0.4378 0.95639 0.58338 0.0
C386 C 0.4587 -0.00517 0.58588 0.0
C387 C 0.50456 -0.00369 0.56401 0.0
C388 C 0.43409 0.03452 0.60998 0.0
C389 C 0.38868 0.95185 0.60827 0.0
C390 C 0.40608 0.05567 0.59836 0.0
C391 C 0.38603 0.09527 0.61862 0.0
C392 C 0.39443 0.11472 0.65013 0.0
C393 C 0.42208 0.09313 0.66199 0.0
C394 C 0.44159 0.05343 0.64221 0.0
H395 H 0.37858 0.91693 0.61438 0.0
H396 H 0.3735 0.96923 0.64077 0.0
H397 H 0.37573 0.96621 0.58799 0.0
H398 H 0.40072 0.04225 0.57272 0.0
H399 H 0.36506 0.11125 0.60866 0.0
H400 H 0.29279 0.87033 0.30262 0.0
H401 H 0.28351 0.87219 0.37692 0.0
H402 H 0.3026 0.73248 0.37221 0.0
H403 H 0.31248 0.73018 0.29727 0.0
H404 H 0.21943 0.82914 0.45123 0.0
H405 H 0.3851 0.77919 0.41361 0.0
H406 H 0.37388 0.79778 0.37112 0.0
H407 H 0.36099 0.7426 0.39164 0.0
C408 C 0.29534 0.83991 0.31712 0.0
C409 C 0.30336 0.80002 0.29394 0.0
C410 C 0.29009 0.84114 0.3596 0.0
C411 C 0.29298 0.80262 0.37972 0.0
C412 C 0.30116 0.76272 0.35678 0.0
H413 H 0.18587 0.72581 0.64728 0.0
H414 H 0.20511 0.74266 0.57109 0.0
C415 C 0.30644 0.76141 0.31414 0.0
C416 C 0.28457 0.80394 0.42587 0.0
H417 H 0.32845 0.77769 0.49036 0.0
C418 C 0.24344 0.81839 0.45973 0.0
C419 C 0.31623 0.7906 0.43671 0.0
C420 C 0.3617 0.77706 0.40133 0.0
C421 C 0.23238 0.81786 0.5045 0.0
C422 C 0.26311 0.80209 0.51556 0.0
C423 C 0.30496 0.7896 0.48161 0.0
C424 C 0.25075 0.79404 0.56228 0.0
C425 C 0.18757 0.8333 0.53976 0.0
C426 C 0.27041 0.81728 0.58235 0.0
C427 C 0.2593 0.80782 0.62623 0.0
C428 C 0.22897 0.77455 0.65011 0.0
C429 C 0.20936 0.75162 0.62976 0.0
C430 C 0.22014 0.7613 0.5863 0.0
H431 H 0.17261 0.85505 0.52554 0.0
H432 H 0.16588 0.80451 0.55472 0.0
H433 H 0.18911 0.85109 0.56677 0.0
H434 H 0.29434 0.8425 0.56402 0.0
H435 H 0.27505 0.82581 0.64108 0.0
H436 H 0.80823 0.75411 0.83214 0.0
H437 H 0.78351 0.75627 0.91133 0.0
H438 H 0.66185 0.81509 0.93829 0.0
H439 H 0.68745 0.81457 0.85802 0.0
H440 H 0.69096 0.85202 0.98762 0.0
H441 H 0.69789 0.67316 0.00244 0.0
H442 H 0.74993 0.69275 0.95944 0.0
H443 H 0.70253 0.69873 0.95351 0.0
C444 C 0.77624 0.76766 0.85489 0.0
C445 C 0.7495 0.78376 0.83914 0.0
C446 C 0.76198 0.76848 0.90018 0.0
C447 C 0.72021 0.78432 0.93086 0.0
C448 C 0.69395 0.80207 0.91516 0.0
H449 H 0.64765 0.73292 0.20833 0.0
H450 H 0.64544 0.7325 0.13906 0.0
C451 C 0.70861 0.80193 0.86944 0.0
C452 C 0.70508 0.78294 0.97906 0.0
H453 H 0.70347 0.716 0.05819 0.0
C454 C 0.69286 0.82215 0.00339 0.0
C455 C 0.70609 0.74373 0.00016 0.0
C456 C 0.71431 0.69969 0.97759 0.0
C457 C 0.68486 0.82374 0.04719 0.0
C458 C 0.69091 0.78543 0.06638 0.0
C459 C 0.69987 0.74564 0.04321 0.0
C460 C 0.69093 0.78633 0.10896 0.0
C461 C 0.67037 0.86657 0.07214 0.0
C462 C 0.71801 0.81591 0.11464 0.0
C463 C 0.71877 0.81662 0.15428 0.0
C464 C 0.69347 0.78686 0.18855 0.0
C465 C 0.66761 0.7561 0.18232 0.0
C466 C 0.66616 0.75601 0.14291 0.0
H467 H 0.6513 0.88622 0.06099 0.0
H468 H 0.65 0.86141 0.10868 0.0
H469 H 0.6996 0.88603 0.0651 0.0
H470 H 0.73885 0.83836 0.08827 0.0
H471 H 0.73942 0.84033 0.15799 0.0
H472 H 0.81028 0.21867 0.29905 0.0
H473 H 0.80277 0.22036 0.37301 0.0
H474 H 0.81319 0.3611 0.3663 0.0
H475 H 0.81977 0.35994 0.29314 0.0
H476 H 0.85978 0.25364 0.39919 0.0
H477 H 0.70039 0.34127 0.48408 0.0
H478 H 0.72243 0.31718 0.42948 0.0
H479 H 0.74293 0.36876 0.43603 0.0
C480 C 0.8108 0.24997 0.3134 0.0
C481 C 0.8152 0.28916 0.29037 0.0
C482 C 0.80662 0.25088 0.35556 0.0
C483 C 0.80676 0.29092 0.37531 0.0
C484 C 0.81202 0.32996 0.35205 0.0
H485 H 0.76341 0.33621 0.64479 0.0
H486 H 0.78851 0.34863 0.56548 0.0
C487 C 0.81593 0.32914 0.31013 0.0
C488 C 0.80145 0.29183 0.42026 0.0
H489 H 0.73352 0.3269 0.52686 0.0
C490 C 0.8323 0.26981 0.42707 0.0
C491 C 0.76573 0.31331 0.45644 0.0
C492 C 0.73074 0.33617 0.45141 0.0
C493 C 0.82787 0.26796 0.46942 0.0
C494 C 0.79154 0.28836 0.50574 0.0
C495 C 0.76154 0.31168 0.4987 0.0
C496 C 0.78085 0.28104 0.55207 0.0
C497 C 0.86163 0.2436 0.47524 0.0
C498 C 0.76833 0.2391 0.57035 0.0
C499 C 0.75364 0.23211 0.61526 0.0
C500 C 0.75129 0.26693 0.64278 0.0
C501 C 0.76503 0.30882 0.62423 0.0
C502 C 0.77932 0.31593 0.57911 0.0
H503 H 0.89302 0.2404 0.44319 0.0
H504 H 0.86784 0.26035 0.49984 0.0
H505 H 0.84935 0.21019 0.48785 0.0
H506 H 0.76862 0.21196 0.55014 0.0
H507 H 0.74345 0.19942 0.62859 0.0
H508 H 0.16328 0.24516 0.20054 0.0
H509 H 0.16412 0.23994 0.12983 0.0
H510 H 0.2581 0.34513 0.07616 0.0
H511 H 0.25591 0.35175 0.14709 0.0
H512 H 0.19586 0.35656 0.05617 0.0
H513 H 0.2569 0.1855 0.01661 0.0
H514 H 0.20641 0.19133 0.06842 0.0
H515 H 0.25553 0.2158 0.06174 0.0
C516 C 0.18438 0.26684 0.17345 0.0
C517 C 0.20971 0.2987 0.17916 0.0
C518 C 0.18489 0.2638 0.13308 0.0
C519 C 0.21159 0.2918 0.09751 0.0
C520 C 0.23714 0.3233 0.10318 0.0
H521 H 0.3205 0.25394 0.82058 0.0
H522 H 0.30182 0.26371 0.89768 0.0
C523 C 0.23603 0.32689 0.14365 0.0
C524 C 0.21335 0.28871 0.05415 0.0
H525 H 0.24052 0.22025 0.96653 0.0
C526 C 0.20552 0.32674 0.03653 0.0
C527 C 0.22602 0.24977 0.02865 0.0
C528 C 0.23709 0.20839 0.04455 0.0
C529 C 0.21163 0.32736 -0.00659 0.0
C530 C 0.22461 0.28848 0.96784 0.0
C531 C 0.23059 0.25004 0.98624 0.0
C532 C 0.23624 0.28735 0.92054 0.0
C533 C 0.20618 0.37005 0.97496 0.0
C534 C 0.20598 0.29865 0.9074 0.0
C535 C 0.21708 0.29405 0.86281 0.0
C536 C 0.25811 0.27706 0.83128 0.0
C537 C 0.28855 0.26687 0.84435 0.0
C538 C 0.27785 0.27229 0.88841 0.0
H539 H 0.20648 0.39858 -0.00538 0.0
H540 H 0.23249 0.37447 0.93974 0.0
H541 H 0.17433 0.36993 0.97615 0.0
H542 H 0.1734 0.30957 0.93176 0.0
H543 H 0.19298 0.30169 0.85347 0.0
H544 H 0.32863 0.21892 0.2909 0.0
H545 H 0.40452 0.209 0.27273 0.0
H546 H 0.42171 0.34899 0.26728 0.0
H547 H 0.3462 0.35931 0.28586 0.0
H548 H 0.48078 0.23778 0.19667 0.0
H549 H 0.46672 0.31079 0.34915 0.0
H550 H 0.41958 0.29463 0.34565 0.0
H551 H 0.44631 0.346 0.32255 0.0
C552 C 0.34844 0.24761 0.28626 0.0
C553 C 0.33118 0.28993 0.29007 0.0
C554 C 0.3918 0.24185 0.2758 0.0
C555 C 0.41852 0.27826 0.26934 0.0
C556 C 0.4014 0.32044 0.27309 0.0
H557 H 0.6844 0.34236 0.18242 0.0
H558 H 0.60702 0.3393 0.20542 0.0
C559 C 0.3582 0.32625 0.2835 0.0
C560 C 0.46487 0.27256 0.25688 0.0
H561 H 0.53921 0.30216 0.28691 0.0
C562 C 0.49353 0.25129 0.21665 0.0
C563 C 0.48134 0.29016 0.28308 0.0
C564 C 0.45181 0.31129 0.32773 0.0
C565 C 0.53861 0.24888 0.20095 0.0
C566 C 0.55522 0.26781 0.22647 0.0
C567 C 0.52637 0.28794 0.26729 0.0
C568 C 0.60263 0.26875 0.2107 0.0
C569 C 0.56838 0.22767 0.15643 0.0
C570 C 0.62585 0.23 0.20598 0.0
C571 C 0.67024 0.23158 0.19281 0.0
C572 C 0.69213 0.272 0.18426 0.0
C573 C 0.66871 0.31066 0.18862 0.0
C574 C 0.62442 0.30902 0.20186 0.0
H575 H 0.55166 0.22218 0.13713 0.0
H576 H 0.59783 0.24816 0.13625 0.0
H577 H 0.57945 0.1955 0.16183 0.0
H578 H 0.60945 0.19862 0.21326 0.0
H579 H 0.68719 0.2012 0.18996 0.0
H580 H 0.6734 0.79594 0.66906 0.0
H581 H 0.59951 0.78475 0.68216 0.0
H582 H 0.59856 0.65389 0.72892 0.0
H583 H 0.67234 0.66488 0.71633 0.0
H584 H 0.56295 0.72082 0.65107 0.0
H585 H 0.49201 0.71401 0.83474 0.0
H586 H 0.54673 0.73346 0.79724 0.0
H587 H 0.53542 0.67578 0.80299 0.0
C588 C 0.65773 0.76456 0.68158 0.0
C589 C 0.67858 0.73143 0.69203 0.0
C590 C 0.6155 0.75824 0.68906 0.0
C591 C 0.59333 0.7188 0.70727 0.0
C592 C 0.61485 0.68486 0.71562 0.0
H593 H 0.34115 0.65198 0.73377 0.0
H594 H 0.41696 0.6493 0.71717 0.0
C595 C 0.65711 0.69112 0.70813 0.0
C596 C 0.54708 0.71408 0.71921 0.0
H597 H 0.44339 0.70331 0.80802 0.0
C598 C 0.53678 0.71672 0.68532 0.0
C599 C 0.51305 0.70938 0.76404 0.0
C600 C 0.5221 0.70834 0.802 0.0
C601 C 0.49325 0.7148 0.69507 0.0
C602 C 0.45927 0.70956 0.73985 0.0
C603 C 0.46959 0.70688 0.77371 0.0
C604 C 0.41264 0.70917 0.75242 0.0
C605 C 0.48386 0.71976 0.65757 0.0
C606 C 0.38469 0.7428 0.77917 0.0
C607 C 0.34134 0.74431 0.78893 0.0
C608 C 0.3251 0.71205 0.77228 0.0
C609 C 0.35271 0.67742 0.74696 0.0
C610 C 0.39611 0.67598 0.73717 0.0
H611 H 0.51249 0.73283 0.62684 0.0
H612 H 0.47554 0.68728 0.64959 0.0
H613 H 0.45556 0.7419 0.66745 0.0
H614 H 0.39679 0.76859 0.79147 0.0
H615 H 0.32092 0.77137 0.80857 0.0
H616 H 0.18185 0.70093 0.19099 0.0
H617 H 0.10568 0.69269 0.20956 0.0
H618 H 0.0957 0.83242 0.19983 0.0
H619 H 0.17153 0.84099 0.1808 0.0
H620 H 0.03076 0.72873 0.28151 0.0
H621 H 0.04944 0.78577 0.1218 0.0
H622 H 0.09554 0.7703 0.12742 0.0
H623 H 0.0714 0.82376 0.14472 0.0
C624 C 0.16356 0.72987 0.19241 0.0
C625 C 0.18294 0.77161 0.18417 0.0
C626 C 0.12004 0.72508 0.20309 0.0
C627 C 0.09528 0.76186 0.20535 0.0
C628 C 0.11449 0.80349 0.19727 0.0
H629 H 0.83554 0.8401 0.28671 0.0
H630 H 0.91256 0.83156 0.26339 0.0
C631 C 0.15786 0.80832 0.18663 0.0
C632 C 0.04878 0.75736 0.21795 0.0
H633 H 0.97642 0.78473 0.18461 0.0
C634 C 0.01888 0.7403 0.2601 0.0
C635 C 0.03344 0.77234 0.18985 0.0
C636 C 0.0642 0.78866 0.14324 0.0
C637 C 0.97374 0.73992 0.27579 0.0
C638 C 0.95834 0.75663 0.24838 0.0
C639 C 0.98837 0.7722 0.20564 0.0
C640 C 0.91108 0.76081 0.26428 0.0
C641 C 0.94267 0.72347 0.32223 0.0
C642 C 0.88466 0.72375 0.27261 0.0
C643 C 0.84039 0.72846 0.28596 0.0
C644 C 0.82189 0.77037 0.29112 0.0
C645 C 0.84854 0.80733 0.28317 0.0
C646 C 0.89266 0.80256 0.26973 0.0
H647 H 0.95924 0.71817 0.34169 0.0
H648 H 0.91538 0.74699 0.34052 0.0
H649 H 0.92836 0.69188 0.32014 0.0
H650 H 0.89845 0.69122 0.26804 0.0
H651 H 0.82087 0.69932 0.29165 0.0
H652 H 0.17198 0.26797 0.66665 0.0
H653 H 0.09688 0.25829 0.6828 0.0
H654 H 0.08873 0.13535 0.74732 0.0
H655 H 0.16376 0.14488 0.73164 0.0
H656 H 0.05532 0.18982 0.66216 0.0
H657 H 0.98741 0.20954 0.84456 0.0
H658 H 0.04301 0.22395 0.8039 0.0
H659 H 0.02814 0.16757 0.81791 0.0
C660 C 0.15444 0.23859 0.68378 0.0
C661 C 0.1737 0.20737 0.69819 0.0
C662 C 0.11153 0.23313 0.69299 0.0
C663 C 0.08707 0.1965 0.71692 0.0
C664 C 0.10685 0.16423 0.72948 0.0
H665 H 0.82755 0.14095 0.75498 0.0
H666 H 0.90246 0.13209 0.73993 0.0
C667 C 0.14981 0.16962 0.72024 0.0
C668 C 0.04035 0.19325 0.73022 0.0
H669 H 0.93697 0.19644 0.82071 0.0
C670 C 0.02938 0.1909 0.69681 0.0
C671 C 0.0067 0.19523 0.77547 0.0
C672 C 0.01666 0.19957 0.81264 0.0
C673 C 0.98556 0.19087 0.7074 0.0
C674 C 0.95189 0.19268 0.75267 0.0
C675 C 0.96288 0.19463 0.7861 0.0
C676 C 0.90519 0.19571 0.76576 0.0
C677 C 0.9757 0.19052 0.66999 0.0
C678 C 0.88128 0.23355 0.78713 0.0
C679 C 0.83842 0.23859 0.79609 0.0
C680 C 0.81864 0.20576 0.78394 0.0
C681 C 0.84193 0.16692 0.76456 0.0
C682 C 0.88483 0.16192 0.75564 0.0
H683 H 0.00502 0.19847 0.63734 0.0
H684 H 0.9642 0.15746 0.66745 0.0
H685 H 0.94945 0.21435 0.67656 0.0
H686 H 0.89634 0.2599 0.79545 0.0
H687 H 0.82136 0.26885 0.81113 0.0
loop_
_geom_bond_atom_site_label_1
_geom_bond_atom_site_label_2
_geom_bond_distance
_geom_bond_site_symmetry_2
_ccdc_geom_bond_type
C0 O1 1.306 . S
C0 O3 1.160 . S
O1 C0 1.306 . S
O1 Cd2 2.228 . S
Cd2 O1 2.228 . S
Cd2 O6 2.273 . S
Cd2 O10 2.277 . S
O3 C0 1.160 . S
O3 Cd4 2.203 . S
Cd4 O3 2.203 . S
Cd4 O6 2.411 . S
Cd4 O7 2.333 . S
Cd4 O8 2.352 . S
Cd4 O12 2.277 . S
Cd4 O13 2.356 . S
C5 O10 1.209 . S
C5 O12 1.226 . S
O6 Cd2 2.273 . S
O6 Cd4 2.411 . S
O6 C9 1.320 . S
O7 Cd4 2.333 . S
O7 C9 1.214 . S
O8 Cd4 2.352 . S
O8 C11 1.258 . S
C9 O6 1.320 . S
C9 O7 1.214 . S
O10 Cd2 2.277 . S
O10 C5 1.209 . S
C11 O8 1.258 . S
C11 O13 1.282 . S
O12 Cd4 2.277 . S
O12 C5 1.226 . S
O13 Cd4 2.356 . S
O13 C11 1.282 . S
C14 O15 1.306 . S
C14 O17 1.160 . S
O15 C14 1.306 . S
O15 Cd16 2.228 . S
Cd16 O15 2.228 . S
Cd16 O20 2.273 . S
Cd16 O24 2.277 . S
O17 C14 1.160 . S
O17 Cd18 2.203 . S
Cd18 O17 2.203 . S
Cd18 O20 2.411 . S
Cd18 O21 2.333 . S
Cd18 O22 2.352 . S
Cd18 O26 2.277 . S
Cd18 O27 2.356 . S
C19 O24 1.209 . S
C19 O26 1.226 . S
O20 Cd16 2.273 . S
O20 Cd18 2.411 . S
O20 C23 1.320 . S
O21 Cd18 2.333 . S
O21 C23 1.214 . S
O22 Cd18 2.352 . S
O22 C25 1.258 . S
C23 O20 1.320 . S
C23 O21 1.214 . S
O24 Cd16 2.277 . S
O24 C19 1.209 . S
C25 O22 1.258 . S
C25 O27 1.282 . S
O26 Cd18 2.277 . S
O26 C19 1.226 . S
O27 Cd18 2.356 . S
O27 C25 1.282 . S
C28 O29 1.306 . S
C28 O31 1.160 . S
O29 C28 1.306 . S
O29 Cd30 2.228 . S
Cd30 O29 2.228 . S
Cd30 O34 2.273 . S
Cd30 O38 2.277 . S
O31 C28 1.160 . S
O31 Cd32 2.203 . S
Cd32 O31 2.203 . S
Cd32 O34 2.411 . S
Cd32 O35 2.333 . S
Cd32 O36 2.352 . S
Cd32 O40 2.277 . S
Cd32 O41 2.356 . S
C33 O38 1.209 . S
C33 O40 1.226 . S
O34 Cd30 2.273 . S
O34 Cd32 2.411 . S
O34 C37 1.320 . S
O35 Cd32 2.333 . S
O35 C37 1.214 . S
O36 Cd32 2.352 . S
O36 C39 1.258 . S
C37 O34 1.320 . S
C37 O35 1.214 . S
O38 Cd30 2.277 . S
O38 C33 1.209 . S
C39 O36 1.258 . S
C39 O41 1.282 . S
O40 Cd32 2.277 . S
O40 C33 1.226 . S
O41 Cd32 2.356 . S
O41 C39 1.282 . S
C42 O43 1.306 . S
C42 O45 1.160 . S
O43 C42 1.306 . S
O43 Cd44 2.228 . S
Cd44 O43 2.228 . S
Cd44 O48 2.273 . S
Cd44 O52 2.277 . S
O45 C42 1.160 . S
O45 Cd46 2.203 . S
Cd46 O45 2.203 . S
Cd46 O48 2.411 . S
Cd46 O49 2.333 . S
Cd46 O50 2.352 . S
Cd46 O54 2.277 . S
Cd46 O55 2.356 . S
C47 O52 1.209 . S
C47 O54 1.226 . S
O48 Cd44 2.273 . S
O48 Cd46 2.411 . S
O48 C51 1.320 . S
O49 Cd46 2.333 . S
O49 C51 1.214 . S
O50 Cd46 2.352 . S
O50 C53 1.258 . S
C51 O48 1.320 . S
C51 O49 1.214 . S
O52 Cd44 2.277 . S
O52 C47 1.209 . S
C53 O50 1.258 . S
C53 O55 1.282 . S
O54 Cd46 2.277 . S
O54 C47 1.226 . S
O55 Cd46 2.356 . S
O55 C53 1.282 . S
C56 O57 1.306 . S
C56 O59 1.160 . S
O57 C56 1.306 . S
O57 Cd58 2.228 . S
Cd58 O57 2.228 . S
Cd58 O62 2.273 . S
Cd58 O66 2.277 . S
O59 C56 1.160 . S
O59 Cd60 2.203 . S
Cd60 O59 2.203 . S
Cd60 O62 2.411 . S
Cd60 O63 2.333 . S
Cd60 O64 2.352 . S
Cd60 O68 2.277 . S
Cd60 O69 2.356 . S
C61 O66 1.209 . S
C61 O68 1.226 . S
O62 Cd58 2.273 . S
O62 Cd60 2.411 . S
O62 C65 1.320 . S
O63 Cd60 2.333 . S
O63 C65 1.214 . S
O64 Cd60 2.352 . S
O64 C67 1.258 . S
C65 O62 1.320 . S
C65 O63 1.214 . S
O66 Cd58 2.277 . S
O66 C61 1.209 . S
C67 O64 1.258 . S
C67 O69 1.282 . S
O68 Cd60 2.277 . S
O68 C61 1.226 . S
O69 Cd60 2.356 . S
O69 C67 1.282 . S
C70 O71 1.306 . S
C70 O73 1.160 . S
O71 C70 1.306 . S
O71 Cd72 2.228 . S
Cd72 O71 2.228 . S
Cd72 O76 2.273 . S
Cd72 O80 2.277 . S
O73 C70 1.160 . S
O73 Cd74 2.203 . S
Cd74 O73 2.203 . S
Cd74 O76 2.411 . S
Cd74 O77 2.333 . S
Cd74 O78 2.352 . S
Cd74 O82 2.277 . S
Cd74 O83 2.356 . S
C75 O80 1.209 . S
C75 O82 1.226 . S
O76 Cd72 2.273 . S
O76 Cd74 2.411 . S
O76 C79 1.320 . S
O77 Cd74 2.333 . S
O77 C79 1.214 . S
O78 Cd74 2.352 . S
O78 C81 1.258 . S
C79 O76 1.320 . S
C79 O77 1.214 . S
O80 Cd72 2.277 . S
O80 C75 1.209 . S
C81 O78 1.258 . S
C81 O83 1.282 . S
O82 Cd74 2.277 . S
O82 C75 1.226 . S
O83 Cd74 2.356 . S
O83 C81 1.282 . S
C84 O85 1.306 . S
C84 O87 1.160 . S
O85 C84 1.306 . S
O85 Cd86 2.228 . S
Cd86 O85 2.228 . S
Cd86 O90 2.273 . S
Cd86 O94 2.277 . S
O87 C84 1.160 . S
O87 Cd88 2.203 . S
Cd88 O87 2.203 . S
Cd88 O90 2.411 . S
Cd88 O91 2.333 . S
Cd88 O92 2.352 . S
Cd88 O96 2.277 . S
Cd88 O97 2.356 . S
C89 O94 1.209 . S
C89 O96 1.226 . S
O90 Cd86 2.273 . S
O90 Cd88 2.411 . S
O90 C93 1.320 . S
O91 Cd88 2.333 . S
O91 C93 1.214 . S
O92 Cd88 2.352 . S
O92 C95 1.258 . S
C93 O90 1.320 . S
C93 O91 1.214 . S
O94 Cd86 2.277 . S
O94 C89 1.209 . S
C95 O92 1.258 . S
C95 O97 1.282 . S
O96 Cd88 2.277 . S
O96 C89 1.226 . S
O97 Cd88 2.356 . S
O97 C95 1.282 . S
C98 O99 1.306 . S
C98 O101 1.160 . S
O99 C98 1.306 . S
O99 Cd100 2.228 . S
Cd100 O99 2.228 . S
Cd100 O104 2.273 . S
Cd100 O108 2.277 . S
O101 C98 1.160 . S
O101 Cd102 2.203 . S
Cd102 O101 2.203 . S
Cd102 O104 2.411 . S
Cd102 O105 2.333 . S
Cd102 O106 2.352 . S
Cd102 O110 2.277 . S
Cd102 O111 2.356 . S
C103 O108 1.209 . S
C103 O110 1.226 . S
O104 Cd100 2.273 . S
O104 Cd102 2.411 . S
O104 C107 1.320 . S
O105 Cd102 2.333 . S
O105 C107 1.214 . S
O106 Cd102 2.352 . S
O106 C109 1.258 . S
C107 O104 1.320 . S
C107 O105 1.214 . S
O108 Cd100 2.277 . S
O108 C103 1.209 . S
C109 O106 1.258 . S
C109 O111 1.282 . S
O110 Cd102 2.277 . S
O110 C103 1.226 . S
O111 Cd102 2.356 . S
O111 C109 1.282 . S
H112 C120 0.929 . S
H113 C122 0.930 . S
H114 C124 0.930 1_655 S
H115 C127 0.929 . S
H116 C130 0.930 . S
H117 C132 0.960 1_565 S
H118 C132 0.960 1_455 S
H119 C132 0.960 . S
C120 H112 0.929 . S
C120 C121 1.377 . S
C120 C122 1.384 . S
C121 C120 1.377 . S
C121 C127 1.390 . S
C122 H113 0.930 . S
C122 C120 1.384 . S
C122 C123 1.372 . S
C123 C122 1.372 . S
C123 C124 1.400 . S
C123 C128 1.490 . S
C124 H114 0.930 1_455 S
C124 C123 1.400 . S
C124 C127 1.386 . S
H125 C141 0.930 . S
H126 C142 0.931 . S
C127 H115 0.929 . S
C127 C121 1.390 . S
C127 C124 1.386 . S
C128 C123 1.490 . S
C128 C130 1.395 . S
C128 C131 1.423 . S
H129 C135 0.930 . S
C130 H116 0.930 . S
C130 C128 1.395 . S
C130 C133 1.403 1_545 S
C131 C128 1.423 . S
C131 C132 1.508 1_455 S
C131 C135 1.396 1_445 S
C132 H117 0.960 1_545 S
C132 H118 0.960 1_655 S
C132 H119 0.960 . S
C132 C131 1.508 1_655 S
C133 C130 1.403 1_565 S
C133 C134 1.392 1_455 S
C133 C137 1.495 . S
C134 C133 1.392 1_655 S
C134 C135 1.385 . S
C134 C136 1.478 . S
C135 H129 0.930 . S
C135 C131 1.396 1_665 S
C135 C134 1.385 . S
C136 C134 1.478 . S
C136 C138 1.381 . S
C136 C142 1.383 . S
C137 C133 1.495 . S
C137 H143 0.959 . S
C137 H144 0.961 1_455 S
C137 H145 0.960 . S
C138 C136 1.381 . S
C138 C139 1.394 . S
C138 H146 0.930 1_655 S
C139 C138 1.394 . S
C139 C140 1.383 . S
C139 H147 0.929 . S
C140 C139 1.383 . S
C140 C141 1.377 . S
C141 H125 0.930 . S
C141 C140 1.377 . S
C141 C142 1.379 . S
C142 H126 0.931 . S
C142 C136 1.383 . S
C142 C141 1.379 . S
H143 C137 0.959 . S
H144 C137 0.961 1_655 S
H145 C137 0.960 . S
H146 C138 0.930 1_455 S
H147 C139 0.929 . S
H148 C156 0.929 . S
H149 C158 0.930 . S
H150 C160 0.930 . S
H151 C163 0.929 . S
H152 C166 0.930 . S
H153 C168 0.960 . S
H154 C168 0.960 . S
H155 C168 0.960 . S
C156 H148 0.929 . S
C156 C157 1.377 . S
C156 C158 1.384 . S
C157 C156 1.377 . S
C157 C163 1.390 . S
C158 H149 0.930 . S
C158 C156 1.384 . S
C158 C159 1.372 . S
C159 C158 1.372 . S
C159 C160 1.400 . S
C159 C164 1.490 . S
C160 H150 0.930 . S
C160 C159 1.400 . S
C160 C163 1.386 . S
H161 C177 0.930 . S
H162 C178 0.934 1_556 S
C163 H151 0.929 . S
C163 C157 1.390 . S
C163 C160 1.386 . S
C164 C159 1.490 . S
C164 C166 1.395 . S
C164 C167 1.403 1_455 S
H165 C171 0.930 . S
C166 H152 0.930 . S
C166 C164 1.395 . S
C166 C169 1.403 1_566 S
C167 C164 1.403 1_655 S
C167 C168 1.524 . S
C167 C171 1.400 1_566 S
C168 H153 0.960 . S
C168 H154 0.960 . S
C168 H155 0.960 . S
C168 C167 1.524 . S
C169 C166 1.403 1_544 S
C169 C170 1.392 1_455 S
C169 C173 1.495 . S
C170 C169 1.392 1_655 S
C170 C171 1.385 . S
C170 C172 1.478 . S
C171 H165 0.930 . S
C171 C167 1.400 1_544 S
C171 C170 1.385 . S
C172 C170 1.478 . S
C172 C174 1.381 . S
C172 C178 1.383 . S
C173 C169 1.495 . S
C173 H179 0.959 . S
C173 H180 0.961 . S
C173 H181 0.960 . S
C174 C172 1.381 . S
C174 C175 1.394 . S
C174 H182 0.930 . S
C175 C174 1.394 . S
C175 C176 1.383 . S
C175 H183 0.929 . S
C176 C175 1.383 . S
C176 C177 1.377 . S
C177 H161 0.930 . S
C177 C176 1.377 . S
C177 C178 1.379 . S
C178 H162 0.934 1_554 S
C178 C172 1.383 . S
C178 C177 1.379 . S
H179 C173 0.959 . S
H180 C173 0.961 . S
H181 C173 0.960 . S
H182 C174 0.930 . S
H183 C175 0.929 . S
H184 C192 0.929 . S
H185 C194 0.930 . S
H186 C196 0.930 . S
H187 C199 0.929 . S
H188 C202 0.930 . S
H189 C204 0.960 . S
H190 C204 0.960 . S
H191 C204 0.960 . S
C192 H184 0.929 . S
C192 C193 1.377 . S
C192 C194 1.384 . S
C193 C192 1.377 . S
C193 C199 1.390 . S
C194 H185 0.930 . S
C194 C192 1.384 . S
C194 C195 1.372 . S
C195 C194 1.372 . S
C195 C196 1.400 . S
C195 C200 1.490 . S
C196 H186 0.930 . S
C196 C195 1.400 . S
C196 C199 1.386 . S
H197 C213 0.930 . S
H198 C214 0.931 . S
C199 H187 0.929 . S
C199 C193 1.390 . S
C199 C196 1.386 . S
C200 C195 1.490 . S
C200 C202 1.395 . S
C200 C203 1.403 . S
H201 C207 0.930 . S
C202 H188 0.930 . S
C202 C200 1.395 . S
C202 C205 1.403 . S
C203 C200 1.403 . S
C203 C204 1.524 . S
C203 C207 1.400 . S
C204 H189 0.960 . S
C204 H190 0.960 . S
C204 H191 0.960 . S
C204 C203 1.524 . S
C205 C202 1.403 . S
C205 C206 1.392 . S
C205 C209 1.495 . S
C206 C205 1.392 . S
C206 C207 1.385 . S
C206 C208 1.478 . S
C207 H201 0.930 . S
C207 C203 1.400 . S
C207 C206 1.385 . S
C208 C206 1.478 . S
C208 C210 1.381 . S
C208 C214 1.383 . S
C209 C205 1.495 . S
C209 H215 0.959 . S
C209 H216 0.961 . S
C209 H217 0.960 . S
C210 C208 1.381 . S
C210 C211 1.394 . S
C210 H218 0.930 . S
C211 C210 1.394 . S
C211 C212 1.383 . S
C211 H219 0.929 . S
C212 C211 1.383 . S
C212 C213 1.377 . S
C213 H197 0.930 . S
C213 C212 1.377 . S
C213 C214 1.379 . S
C214 H198 0.931 . S
C214 C208 1.383 . S
C214 C213 1.379 . S
H215 C209 0.959 . S
H216 C209 0.961 . S
H217 C209 0.960 . S
H218 C210 0.930 . S
H219 C211 0.929 . S
H220 C228 0.929 . S
H221 C230 0.930 . S
H222 C232 0.930 . S
H223 C235 0.929 . S
H224 C238 0.930 . S
H225 C240 0.960 . S
H226 C240 0.960 . S
H227 C240 0.960 . S
C228 H220 0.929 . S
C228 C229 1.377 . S
C228 C230 1.384 . S
C229 C228 1.377 . S
C229 C235 1.390 . S
C230 H221 0.930 . S
C230 C228 1.384 . S
C230 C231 1.372 . S
C231 C230 1.372 . S
C231 C232 1.400 . S
C231 C236 1.490 . S
C232 H222 0.930 . S
C232 C231 1.400 . S
C232 C235 1.386 . S
H233 C249 0.930 . S
H234 C250 0.931 . S
C235 H223 0.929 . S
C235 C229 1.390 . S
C235 C232 1.386 . S
C236 C231 1.490 . S
C236 C238 1.395 . S
C236 C239 1.403 . S
H237 C243 0.930 . S
C238 H224 0.930 . S
C238 C236 1.395 . S
C238 C241 1.403 1_554 S
C239 C236 1.403 . S
C239 C240 1.524 . S
C239 C243 1.400 1_554 S
C240 H225 0.960 . S
C240 H226 0.960 . S
C240 H227 0.960 . S
C240 C239 1.524 . S
C241 C238 1.403 1_556 S
C241 C242 1.392 . S
C241 C245 1.495 . S
C242 C241 1.392 . S
C242 C243 1.385 . S
C242 C244 1.478 . S
C243 H237 0.930 . S
C243 C239 1.400 1_556 S
C243 C242 1.385 . S
C244 C242 1.478 . S
C244 C246 1.381 . S
C244 C250 1.383 . S
C245 C241 1.495 . S
C245 H251 0.959 . S
C245 H252 0.961 . S
C245 H253 0.960 . S
C246 C244 1.381 . S
C246 C247 1.394 . S
C246 H254 0.930 . S
C247 C246 1.394 . S
C247 C248 1.383 . S
C247 H255 0.929 . S
C248 C247 1.383 . S
C248 C249 1.377 . S
C249 H233 0.930 . S
C249 C248 1.377 . S
C249 C250 1.379 . S
C250 H234 0.931 . S
C250 C244 1.383 . S
C250 C249 1.379 . S
H251 C245 0.959 . S
H252 C245 0.961 . S
H253 C245 0.960 . S
H254 C246 0.930 . S
H255 C247 0.929 . S
H256 C264 0.929 . S
H257 C266 0.930 . S
H258 C268 0.930 . S
H259 C271 0.929 . S
H260 C274 0.930 . S
H261 C276 0.960 . S
H262 C276 0.960 . S
H263 C276 0.960 . S
C264 H256 0.929 . S
C264 C265 1.377 . S
C264 C266 1.384 . S
C265 C264 1.377 . S
C265 C271 1.390 . S
C266 H257 0.930 . S
C266 C264 1.384 . S
C266 C267 1.372 . S
C267 C266 1.372 . S
C267 C268 1.400 . S
C267 C272 1.490 . S
C268 H258 0.930 . S
C268 C267 1.400 . S
C268 C271 1.386 . S
H269 C285 0.930 . S
H270 C286 0.931 . S
C271 H259 0.929 . S
C271 C265 1.390 . S
C271 C268 1.386 . S
C272 C267 1.490 . S
C272 C274 1.395 1_654 S
C272 C275 1.403 . S
H273 C279 0.930 . S
C274 H260 0.930 . S
C274 C272 1.395 1_456 S
C274 C277 1.403 . S
C275 C272 1.403 . S
C275 C276 1.524 . S
C275 C279 1.400 . S
C276 H261 0.960 . S
C276 H262 0.960 . S
C276 H263 0.960 . S
C276 C275 1.524 . S
C277 C274 1.403 . S
C277 C278 1.392 . S
C277 C281 1.495 . S
C278 C277 1.392 . S
C278 C279 1.385 1_456 S
C278 C280 1.478 . S
C279 H273 0.930 . S
C279 C275 1.400 . S
C279 C278 1.385 1_654 S
C280 C278 1.478 . S
C280 C282 1.381 . S
C280 C286 1.383 . S
C281 C277 1.495 . S
C281 H287 0.959 . S
C281 H288 0.961 . S
C281 H289 0.960 . S
C282 C280 1.381 . S
C282 C283 1.394 . S
C282 H290 0.930 . S
C283 C282 1.394 . S
C283 C284 1.383 . S
C283 H291 0.929 . S
C284 C283 1.383 . S
C284 C285 1.377 . S
C285 H269 0.930 . S
C285 C284 1.377 . S
C285 C286 1.379 . S
C286 H270 0.931 . S
C286 C280 1.383 . S
C286 C285 1.379 . S
H287 C281 0.959 . S
H288 C281 0.961 . S
H289 C281 0.960 . S
H290 C282 0.930 . S
H291 C283 0.929 . S
H292 C300 0.929 . S
H293 C302 0.930 . S
H294 C304 0.930 . S
H295 C307 0.929 . S
H296 C310 0.930 . S
H297 C312 0.960 . S
H298 C312 0.960 . S
H299 C312 0.960 . S
C300 H292 0.929 . S
C300 C301 1.377 . S
C300 C302 1.384 . S
C301 C300 1.377 . S
C301 C307 1.390 . S
C302 H293 0.930 . S
C302 C300 1.384 . S
C302 C303 1.372 . S
C303 C302 1.372 . S
C303 C304 1.400 . S
C303 C308 1.490 . S
C304 H294 0.930 . S
C304 C303 1.400 . S
C304 C307 1.386 . S
H305 C321 0.930 . S
H306 C322 0.931 . S
C307 H295 0.929 . S
C307 C301 1.390 . S
C307 C304 1.386 . S
C308 C303 1.490 . S
C308 C310 1.395 1_455 S
C308 C311 1.403 . S
H309 C315 0.930 . S
C310 H296 0.930 . S
C310 C308 1.395 1_655 S
C310 C313 1.403 . S
C311 C308 1.403 . S
C311 C312 1.524 . S
C311 C315 1.400 . S
C312 H297 0.960 . S
C312 H298 0.960 . S
C312 H299 0.960 . S
C312 C311 1.524 . S
C313 C310 1.403 . S
C313 C314 1.392 . S
C313 C317 1.495 . S
C314 C313 1.392 . S
C314 C315 1.385 1_655 S
C314 C316 1.478 . S
C315 H309 0.930 . S
C315 C311 1.400 . S
C315 C314 1.385 1_455 S
C316 C314 1.478 . S
C316 C318 1.381 . S
C316 C322 1.383 . S
C317 C313 1.495 . S
C317 H323 0.959 . S
C317 H324 0.961 . S
C317 H325 0.960 . S
C318 C316 1.381 . S
C318 C319 1.394 . S
C318 H326 0.930 . S
C319 C318 1.394 . S
C319 C320 1.383 . S
C319 H327 0.929 . S
C320 C319 1.383 . S
C320 C321 1.377 . S
C321 H305 0.930 . S
C321 C320 1.377 . S
C321 C322 1.379 . S
C322 H306 0.931 . S
C322 C316 1.383 . S
C322 C321 1.379 . S
H323 C317 0.959 . S
H324 C317 0.961 . S
H325 C317 0.960 . S
H326 C318 0.930 . S
H327 C319 0.929 . S
H328 C336 0.929 . S
H329 C338 0.930 . S
H330 C340 0.930 . S
H331 C343 0.929 . S
H332 C346 0.930 . S
H333 C348 0.960 . S
H334 C348 0.960 . S
H335 C348 0.960 . S
C336 H328 0.929 . S
C336 C337 1.377 . S
C336 C338 1.384 . S
C337 C336 1.377 . S
C337 C343 1.390 . S
C338 H329 0.930 . S
C338 C336 1.384 . S
C338 C339 1.372 . S
C339 C338 1.372 . S
C339 C340 1.400 . S
C339 C344 1.490 . S
C340 H330 0.930 . S
C340 C339 1.400 . S
C340 C343 1.386 . S
H341 C357 0.930 . S
H342 C358 0.931 . S
C343 H331 0.929 . S
C343 C337 1.390 . S
C343 C340 1.386 . S
C344 C339 1.490 . S
C344 C346 1.395 1_545 S
C344 C347 1.403 1_556 S
H345 C351 0.930 . S
C346 H332 0.930 . S
C346 C344 1.395 1_565 S
C346 C349 1.403 . S
C347 C344 1.403 1_554 S
C347 C348 1.524 . S
C347 C351 1.400 . S
C348 H333 0.960 . S
C348 H334 0.960 . S
C348 H335 0.960 . S
C348 C347 1.524 . S
C349 C346 1.403 . S
C349 C350 1.392 1_556 S
C349 C353 1.495 . S
C350 C349 1.392 1_554 S
C350 C351 1.385 1_565 S
C350 C352 1.478 . S
C351 H345 0.930 . S
C351 C347 1.400 . S
C351 C350 1.385 1_545 S
C352 C350 1.478 . S
C352 C354 1.381 . S
C352 C358 1.383 . S
C353 C349 1.495 . S
C353 H359 0.959 . S
C353 H360 0.961 . S
C353 H361 0.960 . S
C354 C352 1.381 . S
C354 C355 1.394 . S
C354 H362 0.930 . S
C355 C354 1.394 . S
C355 C356 1.383 . S
C355 H363 0.929 . S
C356 C355 1.383 . S
C356 C357 1.377 . S
C357 H341 0.930 . S
C357 C356 1.377 . S
C357 C358 1.379 . S
C358 H342 0.931 . S
C358 C352 1.383 . S
C358 C357 1.379 . S
H359 C353 0.959 . S
H360 C353 0.961 . S
H361 C353 0.960 . S
H362 C354 0.930 . S
H363 C355 0.929 . S
H364 C372 0.929 . S
H365 C374 0.930 . S
H366 C376 0.930 . S
H367 C379 0.929 . S
H368 C382 0.930 . S
H369 C384 0.960 1_545 S
H370 C384 0.960 1_545 S
H371 C384 0.960 . S
C372 H364 0.929 . S
C372 C373 1.377 . S
C372 C374 1.384 . S
C373 C372 1.377 . S
C373 C379 1.390 . S
C374 H365 0.930 . S
C374 C372 1.384 . S
C374 C375 1.372 . S
C375 C374 1.372 . S
C375 C376 1.400 . S
C375 C380 1.490 . S
C376 H366 0.930 . S
C376 C375 1.400 . S
C376 C379 1.386 . S
H377 C393 0.930 . S
H378 C394 0.931 . S
C379 H367 0.929 . S
C379 C373 1.390 . S
C379 C376 1.386 . S
C380 C375 1.490 . S
C380 C382 1.395 . S
C380 C383 1.403 . S
H381 C387 0.930 . S
C382 H368 0.930 . S
C382 C380 1.395 . S
C382 C385 1.403 1_565 S
C383 C380 1.403 . S
C383 C384 1.524 . S
C383 C387 1.400 1_565 S
C384 H369 0.960 1_565 S
C384 H370 0.960 1_565 S
C384 H371 0.960 . S
C384 C383 1.524 . S
C385 C382 1.403 1_545 S
C385 C386 1.392 . S
C385 C389 1.495 . S
C386 C385 1.392 . S
C386 C387 1.385 . S
C386 C388 1.478 . S
C387 H381 0.930 . S
C387 C383 1.400 1_545 S
C387 C386 1.385 . S
C388 C386 1.478 . S
C388 C390 1.381 . S
C388 C394 1.383 . S
C389 C385 1.495 . S
C389 H395 0.959 1_545 S
C389 H396 0.957 1_545 S
C389 H397 0.960 . S
C390 C388 1.381 . S
C390 C391 1.394 . S
C390 H398 0.930 . S
C391 C390 1.394 . S
C391 C392 1.383 . S
C391 H399 0.929 . S
C392 C391 1.383 . S
C392 C393 1.377 . S
C393 H377 0.930 . S
C393 C392 1.377 . S
C393 C394 1.379 . S
C394 H378 0.931 . S
C394 C388 1.383 . S
C394 C393 1.379 . S
H395 C389 0.959 1_565 S
H396 C389 0.957 1_565 S
H397 C389 0.960 . S
H398 C390 0.930 . S
H399 C391 0.929 . S
H400 C408 0.929 . S
H401 C410 0.930 . S
H402 C412 0.930 . S
H403 C415 0.929 . S
H404 C418 0.930 . S
H405 C420 0.960 . S
H406 C420 0.960 . S
H407 C420 0.960 . S
C408 H400 0.929 . S
C408 C409 1.377 . S
C408 C410 1.384 . S
C409 C408 1.377 . S
C409 C415 1.390 . S
C410 H401 0.930 . S
C410 C408 1.384 . S
C410 C411 1.372 . S
C411 C410 1.372 . S
C411 C412 1.400 . S
C411 C416 1.490 . S
C412 H402 0.930 . S
C412 C411 1.400 . S
C412 C415 1.386 . S
H413 C429 0.930 . S
H414 C430 0.931 . S
C415 H403 0.929 . S
C415 C409 1.390 . S
C415 C412 1.386 . S
C416 C411 1.490 . S
C416 C418 1.395 . S
C416 C419 1.403 . S
H417 C423 0.930 . S
C418 H404 0.930 . S
C418 C416 1.395 . S
C418 C421 1.403 . S
C419 C416 1.403 . S
C419 C420 1.524 . S
C419 C423 1.400 . S
C420 H405 0.960 . S
C420 H406 0.960 . S
C420 H407 0.960 . S
C420 C419 1.524 . S
C421 C418 1.403 . S
C421 C422 1.392 . S
C421 C425 1.495 . S
C422 C421 1.392 . S
C422 C423 1.385 . S
C422 C424 1.478 . S
C423 H417 0.930 . S
C423 C419 1.400 . S
C423 C422 1.385 . S
C424 C422 1.478 . S
C424 C426 1.381 . S
C424 C430 1.383 . S
C425 C421 1.495 . S
C425 H431 0.959 . S
C425 H432 0.961 . S
C425 H433 0.960 . S
C426 C424 1.381 . S
C426 C427 1.394 . S
C426 H434 0.930 . S
C427 C426 1.394 . S
C427 C428 1.383 . S
C427 H435 0.929 . S
C428 C427 1.383 . S
C428 C429 1.377 . S
C429 H413 0.930 . S
C429 C428 1.377 . S
C429 C430 1.379 . S
C430 H414 0.931 . S
C430 C424 1.383 . S
C430 C429 1.379 . S
H431 C425 0.959 . S
H432 C425 0.961 . S
H433 C425 0.960 . S
H434 C426 0.930 . S
H435 C427 0.929 . S
H436 C444 0.929 . S
H437 C446 0.930 . S
H438 C448 0.930 . S
H439 C451 0.929 . S
H440 C454 0.930 . S
H441 C456 0.960 . S
H442 C456 0.960 . S
H443 C456 0.960 . S
C444 H436 0.929 . S
C444 C445 1.377 . S
C444 C446 1.384 . S
C445 C444 1.377 . S
C445 C451 1.390 . S
C446 H437 0.930 . S
C446 C444 1.384 . S
C446 C447 1.372 . S
C447 C446 1.372 . S
C447 C448 1.400 . S
C447 C452 1.490 . S
C448 H438 0.930 . S
C448 C447 1.400 . S
C448 C451 1.386 . S
H449 C465 0.930 . S
H450 C466 0.931 . S
C451 H439 0.929 . S
C451 C445 1.390 . S
C451 C448 1.386 . S
C452 C447 1.490 . S
C452 C454 1.395 . S
C452 C455 1.403 . S
H453 C459 0.930 . S
C454 H440 0.930 . S
C454 C452 1.395 . S
C454 C457 1.403 1_556 S
C455 C452 1.403 . S
C455 C456 1.524 . S
C455 C459 1.400 1_556 S
C456 H441 0.960 . S
C456 H442 0.960 . S
C456 H443 0.960 . S
C456 C455 1.524 . S
C457 C454 1.403 1_554 S
C457 C458 1.392 . S
C457 C461 1.495 . S
C458 C457 1.392 . S
C458 C459 1.385 . S
C458 C460 1.478 . S
C459 H453 0.930 . S
C459 C455 1.400 1_554 S
C459 C458 1.385 . S
C460 C458 1.478 . S
C460 C462 1.381 . S
C460 C466 1.383 . S
C461 C457 1.495 . S
C461 H467 0.957 1_554 S
C461 H468 0.961 . S
C461 H469 0.960 . S
C462 C460 1.381 . S
C462 C463 1.394 . S
C462 H470 0.930 . S
C463 C462 1.394 . S
C463 C464 1.383 . S
C463 H471 0.929 . S
C464 C463 1.383 . S
C464 C465 1.377 . S
C465 H449 0.930 . S
C465 C464 1.377 . S
C465 C466 1.379 . S
C466 H450 0.931 . S
C466 C460 1.383 . S
C466 C465 1.379 . S
H467 C461 0.957 1_556 S
H468 C461 0.961 . S
H469 C461 0.960 . S
H470 C462 0.930 . S
H471 C463 0.929 . S
H472 C480 0.929 . S
H473 C482 0.930 . S
H474 C484 0.930 . S
H475 C487 0.929 . S
H476 C490 0.930 . S
H477 C492 0.960 . S
H478 C492 0.960 . S
H479 C492 0.960 . S
C480 H472 0.929 . S
C480 C481 1.377 . S
C480 C482 1.384 . S
C481 C480 1.377 . S
C481 C487 1.390 . S
C482 H473 0.930 . S
C482 C480 1.384 . S
C482 C483 1.372 . S
C483 C482 1.372 . S
C483 C484 1.400 . S
C483 C488 1.490 . S
C484 H474 0.930 . S
C484 C483 1.400 . S
C484 C487 1.386 . S
H485 C501 0.930 . S
H486 C502 0.931 . S
C487 H475 0.929 . S
C487 C481 1.390 . S
C487 C484 1.386 . S
C488 C483 1.490 . S
C488 C490 1.395 . S
C488 C491 1.403 . S
H489 C495 0.930 . S
C490 H476 0.930 . S
C490 C488 1.395 . S
C490 C493 1.403 . S
C491 C488 1.403 . S
C491 C492 1.524 . S
C491 C495 1.400 . S
C492 H477 0.960 . S
C492 H478 0.960 . S
C492 H479 0.960 . S
C492 C491 1.524 . S
C493 C490 1.403 . S
C493 C494 1.392 . S
C493 C497 1.495 . S
C494 C493 1.392 . S
C494 C495 1.385 . S
C494 C496 1.478 . S
C495 H489 0.930 . S
C495 C491 1.400 . S
C495 C494 1.385 . S
C496 C494 1.478 . S
C496 C498 1.381 . S
C496 C502 1.383 . S
C497 C493 1.495 . S
C497 H503 0.959 . S
C497 H504 0.961 . S
C497 H505 0.960 . S
C498 C496 1.381 . S
C498 C499 1.394 . S
C498 H506 0.930 . S
C499 C498 1.394 . S
C499 C500 1.383 . S
C499 H507 0.929 . S
C500 C499 1.383 . S
C500 C501 1.377 . S
C501 H485 0.930 . S
C501 C500 1.377 . S
C501 C502 1.379 . S
C502 H486 0.931 . S
C502 C496 1.383 . S
C502 C501 1.379 . S
H503 C497 0.959 . S
H504 C497 0.961 . S
H505 C497 0.960 . S
H506 C498 0.930 . S
H507 C499 0.929 . S
H508 C516 0.929 . S
H509 C518 0.930 . S
H510 C520 0.930 . S
H511 C523 0.929 . S
H512 C526 0.930 . S
H513 C528 0.951 1_556 S
H514 C528 0.960 . S
H515 C528 0.960 . S
C516 H508 0.929 . S
C516 C517 1.377 . S
C516 C518 1.384 . S
C517 C516 1.377 . S
C517 C523 1.390 . S
C518 H509 0.930 . S
C518 C516 1.384 . S
C518 C519 1.372 . S
C519 C518 1.372 . S
C519 C520 1.400 . S
C519 C524 1.490 . S
C520 H510 0.930 . S
C520 C519 1.400 . S
C520 C523 1.386 . S
H521 C537 0.930 . S
H522 C538 0.931 . S
C523 H511 0.929 . S
C523 C517 1.390 . S
C523 C520 1.386 . S
C524 C519 1.490 . S
C524 C526 1.395 . S
C524 C527 1.403 . S
H525 C531 0.930 . S
C526 H512 0.930 . S
C526 C524 1.395 . S
C526 C529 1.403 1_554 S
C527 C524 1.403 . S
C527 C528 1.524 . S
C527 C531 1.400 1_554 S
C528 H513 0.951 1_554 S
C528 H514 0.960 . S
C528 H515 0.960 . S
C528 C527 1.524 . S
C529 C526 1.403 1_556 S
C529 C530 1.392 . S
C529 C533 1.495 . S
C530 C529 1.392 . S
C530 C531 1.385 . S
C530 C532 1.478 . S
C531 H525 0.930 . S
C531 C527 1.400 1_556 S
C531 C530 1.385 . S
C532 C530 1.478 . S
C532 C534 1.381 . S
C532 C538 1.383 . S
C533 C529 1.495 . S
C533 H539 0.959 . S
C533 H540 0.961 . S
C533 H541 0.960 . S
C534 C532 1.381 . S
C534 C535 1.394 . S
C534 H542 0.930 . S
C535 C534 1.394 . S
C535 C536 1.383 . S
C535 H543 0.929 . S
C536 C535 1.383 . S
C536 C537 1.377 . S
C537 H521 0.930 . S
C537 C536 1.377 . S
C537 C538 1.379 . S
C538 H522 0.931 . S
C538 C532 1.383 . S
C538 C537 1.379 . S
H539 C533 0.959 . S
H540 C533 0.961 . S
H541 C533 0.960 . S
H542 C534 0.930 . S
H543 C535 0.929 . S
H544 C552 0.929 . S
H545 C554 0.930 . S
H546 C556 0.930 . S
H547 C559 0.929 . S
H548 C562 0.930 . S
H549 C564 0.960 . S
H550 C564 0.960 . S
H551 C564 0.960 . S
C552 H544 0.929 . S
C552 C553 1.377 . S
C552 C554 1.384 . S
C553 C552 1.377 . S
C553 C559 1.390 . S
C554 H545 0.930 . S
C554 C552 1.384 . S
C554 C555 1.372 . S
C555 C554 1.372 . S
C555 C556 1.400 . S
C555 C560 1.490 . S
C556 H546 0.930 . S
C556 C555 1.400 . S
C556 C559 1.386 . S
H557 C573 0.930 . S
H558 C574 0.931 . S
C559 H547 0.929 . S
C559 C553 1.390 . S
C559 C556 1.386 . S
C560 C555 1.490 . S
C560 C562 1.395 . S
C560 C563 1.403 . S
H561 C567 0.930 . S
C562 H548 0.930 . S
C562 C560 1.395 . S
C562 C565 1.403 . S
C563 C560 1.403 . S
C563 C564 1.524 . S
C563 C567 1.400 . S
C564 H549 0.960 . S
C564 H550 0.960 . S
C564 H551 0.960 . S
C564 C563 1.524 . S
C565 C562 1.403 . S
C565 C566 1.392 . S
C565 C569 1.495 . S
C566 C565 1.392 . S
C566 C567 1.385 . S
C566 C568 1.478 . S
C567 H561 0.930 . S
C567 C563 1.400 . S
C567 C566 1.385 . S
C568 C566 1.478 . S
C568 C570 1.381 . S
C568 C574 1.383 . S
C569 C565 1.495 . S
C569 H575 0.959 . S
C569 H576 0.961 . S
C569 H577 0.960 . S
C570 C568 1.381 . S
C570 C571 1.394 . S
C570 H578 0.930 . S
C571 C570 1.394 . S
C571 C572 1.383 . S
C571 H579 0.929 . S
C572 C571 1.383 . S
C572 C573 1.377 . S
C573 H557 0.930 . S
C573 C572 1.377 . S
C573 C574 1.379 . S
C574 H558 0.931 . S
C574 C568 1.383 . S
C574 C573 1.379 . S
H575 C569 0.959 . S
H576 C569 0.961 . S
H577 C569 0.960 . S
H578 C570 0.930 . S
H579 C571 0.929 . S
H580 C588 0.929 . S
H581 C590 0.930 . S
H582 C592 0.930 . S
H583 C595 0.929 . S
H584 C598 0.930 . S
H585 C600 0.960 . S
H586 C600 0.960 . S
H587 C600 0.960 . S
C588 H580 0.929 . S
C588 C589 1.377 . S
C588 C590 1.384 . S
C589 C588 1.377 . S
C589 C595 1.390 . S
C590 H581 0.930 . S
C590 C588 1.384 . S
C590 C591 1.372 . S
C591 C590 1.372 . S
C591 C592 1.400 . S
C591 C596 1.490 . S
C592 H582 0.930 . S
C592 C591 1.400 . S
C592 C595 1.386 . S
H593 C609 0.930 . S
H594 C610 0.931 . S
C595 H583 0.929 . S
C595 C589 1.390 . S
C595 C592 1.386 . S
C596 C591 1.490 . S
C596 C598 1.395 . S
C596 C599 1.403 . S
H597 C603 0.930 . S
C598 H584 0.930 . S
C598 C596 1.395 . S
C598 C601 1.403 . S
C599 C596 1.403 . S
C599 C600 1.524 . S
C599 C603 1.400 . S
C600 H585 0.960 . S
C600 H586 0.960 . S
C600 H587 0.960 . S
C600 C599 1.524 . S
C601 C598 1.403 . S
C601 C602 1.392 . S
C601 C605 1.495 . S
C602 C601 1.392 . S
C602 C603 1.385 . S
C602 C604 1.478 . S
C603 H597 0.930 . S
C603 C599 1.400 . S
C603 C602 1.385 . S
C604 C602 1.478 . S
C604 C606 1.381 . S
C604 C610 1.383 . S
C605 C601 1.495 . S
C605 H611 0.959 . S
C605 H612 0.961 . S
C605 H613 0.960 . S
C606 C604 1.381 . S
C606 C607 1.394 . S
C606 H614 0.930 . S
C607 C606 1.394 . S
C607 C608 1.383 . S
C607 H615 0.929 . S
C608 C607 1.383 . S
C608 C609 1.377 . S
C609 H593 0.930 . S
C609 C608 1.377 . S
C609 C610 1.379 . S
C610 H594 0.931 . S
C610 C604 1.383 . S
C610 C609 1.379 . S
H611 C605 0.959 . S
H612 C605 0.961 . S
H613 C605 0.960 . S
H614 C606 0.930 . S
H615 C607 0.929 . S
H616 C624 0.929 . S
H617 C626 0.930 . S
H618 C628 0.930 . S
H619 C631 0.929 . S
H620 C634 0.930 . S
H621 C636 0.960 . S
H622 C636 0.960 . S
H623 C636 0.960 . S
C624 H616 0.929 . S
C624 C625 1.377 . S
C624 C626 1.384 . S
C625 C624 1.377 . S
C625 C631 1.390 . S
C626 H617 0.930 . S
C626 C624 1.384 . S
C626 C627 1.372 . S
C627 C626 1.372 . S
C627 C628 1.400 . S
C627 C632 1.490 . S
C628 H618 0.930 . S
C628 C627 1.400 . S
C628 C631 1.386 . S
H629 C645 0.930 . S
H630 C646 0.931 . S
C631 H619 0.929 . S
C631 C625 1.390 . S
C631 C628 1.386 . S
C632 C627 1.490 . S
C632 C634 1.395 . S
C632 C635 1.403 . S
H633 C639 0.930 . S
C634 H620 0.930 . S
C634 C632 1.395 . S
C634 C637 1.403 1_455 S
C635 C632 1.403 . S
C635 C636 1.524 . S
C635 C639 1.400 1_455 S
C636 H621 0.960 . S
C636 H622 0.960 . S
C636 H623 0.960 . S
C636 C635 1.524 . S
C637 C634 1.403 1_655 S
C637 C638 1.392 . S
C637 C641 1.495 . S
C638 C637 1.392 . S
C638 C639 1.385 . S
C638 C640 1.478 . S
C639 H633 0.930 . S
C639 C635 1.400 1_655 S
C639 C638 1.385 . S
C640 C638 1.478 . S
C640 C642 1.381 . S
C640 C646 1.383 . S
C641 C637 1.495 . S
C641 H647 0.959 . S
C641 H648 0.961 . S
C641 H649 0.960 . S
C642 C640 1.381 . S
C642 C643 1.394 . S
C642 H650 0.930 . S
C643 C642 1.394 . S
C643 C644 1.383 . S
C643 H651 0.929 . S
C644 C643 1.383 . S
C644 C645 1.377 . S
C645 H629 0.930 . S
C645 C644 1.377 . S
C645 C646 1.379 . S
C646 H630 0.931 . S
C646 C640 1.383 . S
C646 C645 1.379 . S
H647 C641 0.959 . S
H648 C641 0.961 . S
H649 C641 0.960 . S
H650 C642 0.930 . S
H651 C643 0.929 . S
H652 C660 0.929 . S
H653 C662 0.930 . S
H654 C664 0.930 . S
H655 C667 0.929 . S
H656 C670 0.930 . S
H657 C672 0.960 1_655 S
H658 C672 0.960 . S
H659 C672 0.960 . S
C660 H652 0.929 . S
C660 C661 1.377 . S
C660 C662 1.384 . S
C661 C660 1.377 . S
C661 C667 1.390 . S
C662 H653 0.930 . S
C662 C660 1.384 . S
C662 C663 1.372 . S
C663 C662 1.372 . S
C663 C664 1.400 . S
C663 C668 1.490 . S
C664 H654 0.930 . S
C664 C663 1.400 . S
C664 C667 1.386 . S
H665 C681 0.930 . S
H666 C682 0.931 . S
C667 H655 0.929 . S
C667 C661 1.390 . S
C667 C664 1.386 . S
C668 C663 1.490 . S
C668 C670 1.395 . S
C668 C671 1.403 . S
H669 C675 0.930 . S
C670 H656 0.930 . S
C670 C668 1.395 . S
C670 C673 1.403 1_455 S
C671 C668 1.403 . S
C671 C672 1.524 . S
C671 C675 1.400 1_455 S
C672 H657 0.960 1_455 S
C672 H658 0.960 . S
C672 H659 0.960 . S
C672 C671 1.524 . S
C673 C670 1.403 1_655 S
C673 C674 1.392 . S
C673 C677 1.495 . S
C674 C673 1.392 . S
C674 C675 1.385 . S
C674 C676 1.478 . S
C675 H669 0.930 . S
C675 C671 1.400 1_655 S
C675 C674 1.385 . S
C676 C674 1.478 . S
C676 C678 1.381 . S
C676 C682 1.383 . S
C677 C673 1.495 . S
C677 H683 0.959 1_655 S
C677 H684 0.961 . S
C677 H685 0.960 . S
C678 C676 1.381 . S
C678 C679 1.394 . S
C678 H686 0.930 . S
C679 C678 1.394 . S
C679 C680 1.383 . S
C679 H687 0.929 . S
C680 C679 1.383 . S
C680 C681 1.377 . S
C681 H665 0.930 . S
C681 C680 1.377 . S
C681 C682 1.379 . S
C682 H666 0.931 . S
C682 C676 1.383 . S
C682 C681 1.379 . S
H683 C677 0.959 1_455 S
H684 C677 0.961 . S
H685 C677 0.960 . S
H686 C678 0.930 . S
H687 C679 0.929 . S
C121 C11 1.914 . S
C140 C33 1.929 . S
C157 C47 1.928 . S
C176 C25 1.922 . S
C193 C89 1.927 . S
C212 C67 1.902 . S
C229 C81 1.912 . S
C248 C103 1.916 . S
C265 C23 1.152 . S
C284 C42 1.144 . S
C301 C9 1.156 . S
C320 C28 1.165 . S
C337 C98 1.139 . S
C356 C79 1.137 . S
C373 C65 1.157 . S
C392 C84 1.166 . S
C409 C70 1.507 . S
C428 C51 1.520 . S
C445 C37 1.520 . S
C464 C56 1.494 . S
C481 C14 1.511 . S
C500 C107 1.508 . S
C517 C0 1.513 . S
C536 C93 1.516 . S
C553 C5 1.527 . S
C572 C19 1.517 . S
C589 C39 1.589 . S
C608 C53 1.595 . S
C625 C75 1.526 . S
C644 C61 1.525 . S
C661 C95 1.589 . S
C680 C109 1.592 . S
