# Generated by pormake.
# Topology lcy-e, (6)-cn, num edge types: 1
# Building blocks:
#     Node 0, Type 0, BuildingBlock: GEDQOX_clean_sbu_0, # of connection points: 6
#     Node 1, Type 0, BuildingBlock: GEDQOX_clean_sbu_0, # of connection points: 6
#     Node 2, Type 0, BuildingBlock: GEDQOX_clean_sbu_0, # of connection points: 6
#     Node 3, Type 0, BuildingBlock: GEDQOX_clean_sbu_0, # of connection points: 6
#     Node 4, Type 0, BuildingBlock: GEDQOX_clean_sbu_0, # of connection points: 6
#     Node 5, Type 0, BuildingBlock: GEDQOX_clean_sbu_0, # of connection points: 6
#     Node 6, Type 0, BuildingBlock: GEDQOX_clean_sbu_0, # of connection points: 6
#     Node 7, Type 0, BuildingBlock: GEDQOX_clean_sbu_0, # of connection points: 6
#     Node 8, Type 0, BuildingBlock: GEDQOX_clean_sbu_0, # of connection points: 6
#     Node 9, Type 0, BuildingBlock: GEDQOX_clean_sbu_0, # of connection points: 6
#     Node 10, Type 0, BuildingBlock: GEDQOX_clean_sbu_0, # of connection points: 6
#     Node 11, Type 0, BuildingBlock: GEDQOX_clean_sbu_0, # of connection points: 6
#     Edge 12, Type (0, 0), BuildingBlock: ZUJKAS_clean_linker_0, # of connection points: 2
#     Edge 13, Type (0, 0), BuildingBlock: ZUJKAS_clean_linker_0, # of connection points: 2
#     Edge 14, Type (0, 0), BuildingBlock: ZUJKAS_clean_linker_0, # of connection points: 2
#     Edge 15, Type (0, 0), BuildingBlock: ZUJKAS_clean_linker_0, # of connection points: 2
#     Edge 16, Type (0, 0), BuildingBlock: ZUJKAS_clean_linker_0, # of connection points: 2
#     Edge 17, Type (0, 0), BuildingBlock: ZUJKAS_clean_linker_0, # of connection points: 2
#     Edge 18, Type (0, 0), BuildingBlock: ZUJKAS_clean_linker_0, # of connection points: 2
#     Edge 19, Type (0, 0), BuildingBlock: ZUJKAS_clean_linker_0, # of connection points: 2
#     Edge 20, Type (0, 0), BuildingBlock: ZUJKAS_clean_linker_0, # of connection points: 2
#     Edge 21, Type (0, 0), BuildingBlock: ZUJKAS_clean_linker_0, # of connection points: 2
#     Edge 22, Type (0, 0), BuildingBlock: ZUJKAS_clean_linker_0, # of connection points: 2
#     Edge 23, Type (0, 0), BuildingBlock: ZUJKAS_clean_linker_0, # of connection points: 2
#     Edge 24, Type (0, 0), BuildingBlock: ZUJKAS_clean_linker_0, # of connection points: 2
#     Edge 25, Type (0, 0), BuildingBlock: ZUJKAS_clean_linker_0, # of connection points: 2
#     Edge 26, Type (0, 0), BuildingBlock: ZUJKAS_clean_linker_0, # of connection points: 2
#     Edge 27, Type (0, 0), BuildingBlock: ZUJKAS_clean_linker_0, # of connection points: 2
#     Edge 28, Type (0, 0), BuildingBlock: ZUJKAS_clean_linker_0, # of connection points: 2
#     Edge 29, Type (0, 0), BuildingBlock: ZUJKAS_clean_linker_0, # of connection points: 2
#     Edge 30, Type (0, 0), BuildingBlock: ZUJKAS_clean_linker_0, # of connection points: 2
#     Edge 31, Type (0, 0), BuildingBlock: ZUJKAS_clean_linker_0, # of connection points: 2
#     Edge 32, Type (0, 0), BuildingBlock: ZUJKAS_clean_linker_0, # of connection points: 2
#     Edge 33, Type (0, 0), BuildingBlock: ZUJKAS_clean_linker_0, # of connection points: 2
#     Edge 34, Type (0, 0), BuildingBlock: ZUJKAS_clean_linker_0, # of connection points: 2
#     Edge 35, Type (0, 0), BuildingBlock: ZUJKAS_clean_linker_0, # of connection points: 2
#     Edge 36, Type (0, 0), BuildingBlock: ZUJKAS_clean_linker_0, # of connection points: 2
#     Edge 37, Type (0, 0), BuildingBlock: ZUJKAS_clean_linker_0, # of connection points: 2
#     Edge 38, Type (0, 0), BuildingBlock: ZUJKAS_clean_linker_0, # of connection points: 2
#     Edge 39, Type (0, 0), BuildingBlock: ZUJKAS_clean_linker_0, # of connection points: 2
#     Edge 40, Type (0, 0), BuildingBlock: ZUJKAS_clean_linker_0, # of connection points: 2
#     Edge 41, Type (0, 0), BuildingBlock: ZUJKAS_clean_linker_0, # of connection points: 2
#     Edge 42, Type (0, 0), BuildingBlock: ZUJKAS_clean_linker_0, # of connection points: 2
#     Edge 43, Type (0, 0), BuildingBlock: ZUJKAS_clean_linker_0, # of connection points: 2
#     Edge 44, Type (0, 0), BuildingBlock: ZUJKAS_clean_linker_0, # of connection points: 2
#     Edge 45, Type (0, 0), BuildingBlock: ZUJKAS_clean_linker_0, # of connection points: 2
#     Edge 46, Type (0, 0), BuildingBlock: ZUJKAS_clean_linker_0, # of connection points: 2
#     Edge 47, Type (0, 0), BuildingBlock: ZUJKAS_clean_linker_0, # of connection points: 2
# Relax obj value: 0.302
# Max RMSD: 0.328
# Mean RMSD: 0.256
data_MOF--net-lcy-e--node1-GEDQOX_clean_sbu_0--edge1-ZUJKAS_clean_linker_0
_symmetry_space_group_name_H-M    P1
_symmetry_Int_Tables_number       1
_symmetry_cell_setting            triclinic
loop_
_symmetry_equiv_pos_as_xyz
'x, y, z'
_cell_length_a     47.644369
_cell_length_b     56.527984
_cell_length_c     55.072052
_cell_angle_alpha  90.361511
_cell_angle_beta   87.119087
_cell_angle_gamma 79.304159
loop_
_atom_site_label
_atom_site_type_symbol
_atom_site_fract_x
_atom_site_fract_y
_atom_site_fract_z
_atom_type_partial_charge
Nd0 Nd 0.10107 0.23198 0.43683 0.0
Nd1 Nd 0.14702 0.25045 0.46445 0.0
C2 C 0.05207 0.21698 0.42705 0.0
C3 C 0.03619 0.19586 0.42779 0.0
C4 C 0.01882 0.19147 0.44821 0.0
C5 C 1.00174 0.17338 0.44773 0.0
C6 C 1.00101 0.15894 0.42672 0.0
C7 C 0.0188 0.16318 0.40646 0.0
C8 C 0.03585 0.18121 0.40696 0.0
C9 C 0.15472 0.21793 0.41061 0.0
C10 C 0.13646 0.1948 0.47337 0.0
C11 C 0.19393 0.25868 0.4836 0.0
C12 C 0.21173 0.27699 0.47969 0.0
C13 C 0.2414 0.26979 0.47591 0.0
C14 C 0.25872 0.287 0.4727 0.0
C15 C 0.24646 0.31152 0.47314 0.0
C16 C 0.21675 0.31879 0.47613 0.0
C17 C 0.1994 0.3016 0.47926 0.0
C18 C 0.0939 0.26733 0.48796 0.0
C19 C 0.12412 0.27981 0.41516 0.0
O20 O 0.05578 0.2282 0.44719 0.0
O21 O 0.07376 0.21633 0.41143 0.0
O22 O 0.13089 0.21221 0.40421 0.0
O23 O 0.14882 0.22967 0.4304 0.0
O24 O 0.11842 0.19762 0.45595 0.0
O25 O 0.14879 0.21247 0.48094 0.0
O26 O 0.19428 0.24352 0.46558 0.0
O27 O 0.16838 0.26602 0.49368 0.0
O28 O 0.11233 0.28056 0.48104 0.0
O29 O 0.10213 0.24609 0.478 0.0
O30 O 0.14459 0.27523 0.43088 0.0
O31 O 0.10185 0.26844 0.41661 0.0
H32 H 0.01788 0.20241 0.46454 0.0
H33 H 0.9884 0.1713 0.46377 0.0
H34 H 0.01968 0.15252 0.38995 0.0
H35 H 0.04849 0.18394 0.39068 0.0
H36 H 0.25119 0.25089 0.47587 0.0
H37 H 0.28172 0.28125 0.47065 0.0
H38 H 0.20711 0.33773 0.47685 0.0
H39 H 0.17647 0.30759 0.48177 0.0
Nd40 Nd 0.05988 0.91193 0.69215 0.0
Nd41 Nd 0.03944 0.86677 0.70435 0.0
C42 C 0.06882 0.95485 0.67833 0.0
C43 C 0.07192 0.96848 0.65581 0.0
C44 C 0.05487 0.99132 0.65362 0.0
C45 C 0.05984 1.00601 0.63419 0.0
C46 C 0.08208 0.99822 0.61655 0.0
C47 C 0.09804 0.97477 0.61787 0.0
C48 C 0.09306 0.96001 0.63738 0.0
C49 C 0.09438 0.87065 0.67358 0.0
C50 C 0.01129 0.8947 0.65607 0.0
C51 C 0.04065 0.82022 0.70767 0.0
C52 C 0.04362 0.80314 0.72768 0.0
C53 C 0.06687 0.78383 0.72665 0.0
C54 C 0.07194 0.76866 0.7464 0.0
C55 C 0.05368 0.77247 0.76744 0.0
C56 C 0.03026 0.79173 0.76836 0.0
C57 C 0.02533 0.80703 0.74867 0.0
C58 C 1.00495 0.90135 0.73376 0.0
C59 C 0.08682 0.88447 0.74061 0.0
O60 O 0.04343 0.95061 0.68468 0.0
O61 O 0.08927 0.93677 0.68246 0.0
O62 O 0.10389 0.88796 0.68392 0.0
O63 O 0.06747 0.87571 0.67347 0.0
O64 O 0.02798 0.91063 0.66045 0.0
O65 O 0.012 0.87583 0.6704 0.0
O66 O 0.06338 0.82949 0.70263 0.0
O67 O 0.01673 0.83597 0.70717 0.0
O68 O 1.00334 0.87875 0.7331 0.0
O69 O 0.02456 0.90577 0.71888 0.0
O70 O 0.07594 0.86619 0.73215 0.0
O71 O 0.07979 0.90597 0.73053 0.0
H72 H 0.03835 0.99819 0.66747 0.0
H73 H 0.04689 0.02386 0.63341 0.0
H74 H 0.11534 0.96831 0.60455 0.0
H75 H 0.10646 0.94238 0.63847 0.0
H76 H 0.08149 0.78081 0.71074 0.0
H77 H 0.09034 0.75413 0.74532 0.0
H78 H 0.01558 0.79486 0.78421 0.0
H79 H 1.00745 0.82201 0.75004 0.0
Nd80 Nd 0.35166 0.82869 0.9568 0.0
Nd81 Nd 0.31336 0.80702 0.98719 0.0
C82 C 0.3908 0.85103 0.93526 0.0
C83 C 0.41271 0.86622 0.93894 0.0
C84 C 0.42727 0.86606 0.96057 0.0
C85 C 0.44985 0.87887 0.96236 0.0
C86 C 0.45854 0.89196 0.94249 0.0
C87 C 0.44317 0.8926 0.92121 0.0
C88 C 0.42066 0.87992 0.91949 0.0
C89 C 0.30304 0.82379 0.93092 0.0
C90 C 0.32159 0.86208 1.00178 0.0
C91 C 0.27502 0.78398 1.00932 0.0
C92 C 0.2741 0.75855 1.01763 0.0
C93 C 0.27858 0.73863 1.00134 0.0
C94 C 0.27656 0.71521 1.00939 0.0
C95 C 0.26986 0.71069 0.03406 0.0
C96 C 0.26571 0.73067 0.05031 0.0
C97 C 0.26779 0.75404 0.04226 0.0
C98 C 0.3675 0.79738 1.00532 0.0
C99 C 0.36061 0.77273 0.95315 0.0
O100 O 0.39615 0.82884 0.94272 0.0
O101 O 0.36377 0.86083 0.93839 0.0
O102 O 0.32953 0.81774 0.92314 0.0
O103 O 0.30244 0.83069 0.95322 0.0
O104 O 0.33676 0.86095 0.98124 0.0
O105 O 0.30859 0.84405 1.00853 0.0
O106 O 0.27623 0.78805 0.98596 0.0
O107 O 0.29073 0.79644 1.021 0.0
O108 O 0.35144 0.78161 1.00234 0.0
O109 O 0.35565 0.81746 0.99687 0.0
O110 O 0.33327 0.77693 0.95994 0.0
O111 O 0.37513 0.79011 0.95409 0.0
H112 H 0.42162 0.85562 0.97587 0.0
H113 H 0.46112 0.87782 0.97902 0.0
H114 H 0.44867 0.90282 0.90569 0.0
H115 H 0.40982 0.8804 0.90262 0.0
H116 H 0.28347 0.74112 0.98222 0.0
H117 H 0.27971 0.70069 0.99605 0.0
H118 H 0.26106 0.72831 0.06948 0.0
H119 H 0.26426 0.76873 0.05544 0.0
Nd120 Nd 0.46078 0.12459 0.21505 0.0
Nd121 Nd 0.4873 0.1614 0.22936 0.0
C122 C 0.44528 0.08517 0.19734 0.0
C123 C 0.44036 0.07315 0.17418 0.0
C124 C 0.45671 0.05044 0.16777 0.0
C125 C 0.44954 0.03706 0.14823 0.0
C126 C 0.42563 0.04598 0.13469 0.0
C127 C 0.4103 0.06933 0.14025 0.0
C128 C 0.41754 0.08273 0.15973 0.0
C129 C 0.43528 0.16953 0.19742 0.0
C130 C 0.51333 0.13575 0.17848 0.0
C131 C 0.50183 0.20218 0.24376 0.0
C132 C 0.49671 0.21864 0.26505 0.0
C133 C 0.4781 0.24097 0.26375 0.0
C134 C 0.47191 0.25613 0.28421 0.0
C135 C 0.48431 0.24919 0.30628 0.0
C136 C 0.50385 0.22733 0.30724 0.0
C137 C 0.51 0.21221 0.28685 0.0
C138 C 0.51847 0.11801 0.24541 0.0
C139 C 0.42825 0.15254 0.26161 0.0
O140 O 0.47151 0.0861 0.2025 0.0
O141 O 0.42737 0.10468 0.20416 0.0
O142 O 0.42134 0.15404 0.20691 0.0
O143 O 0.4616 0.16091 0.19694 0.0
O144 O 0.49911 0.11915 0.18633 0.0
O145 O 0.50948 0.15651 0.19047 0.0
O146 O 0.47987 0.2013 0.23082 0.0
O147 O 0.51755 0.18098 0.24649 0.0
O148 O 0.52866 0.13454 0.23364 0.0
O149 O 0.49095 0.12366 0.24719 0.0
O150 O 0.44501 0.16808 0.25527 0.0
O151 O 0.4338 0.13099 0.25123 0.0
H152 H 0.47435 0.04252 0.17856 0.0
H153 H 0.46179 0.01914 0.14465 0.0
H154 H 0.39211 0.07701 0.12996 0.0
H155 H 0.40453 0.10024 0.16398 0.0
H156 H 0.46789 0.24649 0.24703 0.0
H157 H 0.45679 0.27288 0.28298 0.0
H158 H 0.51421 0.2218 0.32388 0.0
H159 H 0.52483 0.19533 0.28835 0.0
Nd160 Nd 0.62604 0.31741 0.61754 0.0
Nd161 Nd 0.56428 0.31225 0.61519 0.0
C162 C 0.68038 0.31053 0.62688 0.0
C163 C 0.69309 0.31133 0.65066 0.0
C164 C 0.71369 0.29203 0.65803 0.0
C165 C 0.72572 0.29289 0.68061 0.0
C166 C 0.71741 0.31315 0.69611 0.0
C167 C 0.69561 0.3318 0.68918 0.0
C168 C 0.68349 0.33085 0.66679 0.0
C169 C 0.58703 0.35345 0.6408 0.0
C170 C 0.59665 0.2877 0.65974 0.0
C171 C 0.50854 0.31824 0.60991 0.0
C172 C 0.49014 0.32133 0.58888 0.0
C173 C 0.47742 0.34451 0.58166 0.0
C174 C 0.46338 0.34769 0.5599 0.0
C175 C 0.46158 0.32774 0.54512 0.0
C176 C 0.47263 0.30449 0.5532 0.0
C177 C 0.4867 0.30131 0.57487 0.0
C178 C 0.60299 0.27564 0.59278 0.0
C179 C 0.59348 0.3457 0.5753 0.0
O180 O 0.66703 0.29265 0.6235 0.0
O181 O 0.66653 0.33103 0.61908 0.0
O182 O 0.61011 0.35712 0.62921 0.0
O183 O 0.58669 0.33138 0.64124 0.0
O184 O 0.6197 0.28883 0.64585 0.0
O185 O 0.57138 0.2996 0.65412 0.0
O186 O 0.52173 0.33596 0.61454 0.0
O187 O 0.5249 0.29713 0.61216 0.0
O188 O 0.58072 0.27239 0.60585 0.0
O189 O 0.60406 0.29765 0.59109 0.0
O190 O 0.57011 0.34176 0.5874 0.0
O191 O 0.61904 0.33387 0.58033 0.0
H192 H 0.72077 0.27647 0.64618 0.0
H193 H 0.74219 0.27808 0.68559 0.0
H194 H 0.6889 0.34784 0.70043 0.0
H195 H 0.66701 0.34572 0.66195 0.0
H196 H 0.47931 0.36026 0.59231 0.0
H197 H 0.45481 0.3658 0.55422 0.0
H198 H 0.47195 0.28875 0.5421 0.0
H199 H 0.49594 0.28319 0.58002 0.0
Nd200 Nd 0.97498 0.37051 0.79631 0.0
Nd201 Nd 0.99551 0.40702 0.76866 0.0
C202 C 0.96001 0.32816 0.80684 0.0
C203 C 0.93871 0.3143 0.81801 0.0
C204 C 0.92651 0.29902 0.80313 0.0
C205 C 0.90941 0.28336 0.81314 0.0
C206 C 0.90393 0.28229 0.83848 0.0
C207 C 0.91532 0.29828 0.85334 0.0
C208 C 0.93255 0.31395 0.84328 0.0
C209 C 0.96218 0.41117 0.82777 0.0
C210 C 0.92724 0.40689 0.77015 0.0
C211 C 0.01148 0.44449 0.74703 0.0
C212 C 0.03328 0.45895 0.75199 0.0
C213 C 0.03922 0.46453 0.77592 0.0
C214 C 0.06276 0.47529 0.78026 0.0
C215 C 0.08094 0.48006 0.76076 0.0
C216 C 0.07448 0.47501 0.73689 0.0
C217 C 0.0508 0.46464 0.73256 0.0
C218 C 0.01116 0.36301 0.7432 0.0
C219 C 0.0316 0.38544 0.81404 0.0
O220 O 0.95395 0.33978 0.78677 0.0
O221 O 0.97539 0.33896 0.82072 0.0
O222 O 0.95538 0.39032 0.83213 0.0
O223 O 0.97436 0.41067 0.80654 0.0
O224 O 0.93188 0.3905 0.78687 0.0
O225 O 0.94834 0.41448 0.75795 0.0
O226 O 0.98929 0.44646 0.76228 0.0
O227 O 0.02169 0.42225 0.74064 0.0
O228 O 0.02888 0.37628 0.75005 0.0
O229 O 0.98671 0.3712 0.75409 0.0
O230 O 0.0233 0.40498 0.80153 0.0
O231 O 0.02084 0.36607 0.80957 0.0
H232 H 0.93087 0.29865 0.78362 0.0
H233 H 0.9007 0.27188 0.80088 0.0
H234 H 0.91188 0.29808 0.87291 0.0
H235 H 0.94164 0.32532 0.8554 0.0
H236 H 0.02623 0.45993 0.79126 0.0
H237 H 0.06736 0.47908 0.7988 0.0
H238 H 0.08798 0.47887 0.72156 0.0
H239 H 0.04673 0.46029 0.71402 0.0
Nd240 Nd 0.85539 0.6294 0.0643 0.0
Nd241 Nd 0.90603 0.65436 0.04755 0.0
C242 C 0.80511 0.62072 0.07753 0.0
C243 C 0.79455 0.62091 0.10298 0.0
C244 C 0.7695 0.63686 0.11055 0.0
C245 C 0.76267 0.64123 0.13525 0.0
C246 C 0.78081 0.62968 0.1527 0.0
C247 C 0.80543 0.61322 0.14518 0.0
C248 C 0.81234 0.60894 0.12051 0.0
C249 C 0.906 0.60607 0.08309 0.0
C250 C 0.87239 0.6696 0.10206 0.0
C251 C 0.95503 0.66845 0.04062 0.0
C252 C 0.97354 0.66544 1.01849 0.0
C253 C 1.00295 0.65684 1.01972 0.0
C254 C 0.02002 0.65108 0.99838 0.0
C255 C 1.00773 0.65376 0.97566 0.0
C256 C 0.97817 0.66213 0.97462 0.0
C257 C 0.96122 0.66778 0.99582 0.0
C258 C 0.85387 0.67749 0.03179 0.0
C259 C 0.89174 0.60972 1.01291 0.0
O260 O 0.80859 0.64181 0.06954 0.0
O261 O 0.82654 0.60338 0.0711 0.0
O262 O 0.88193 0.59898 0.08759 0.0
O263 O 0.90135 0.62375 0.06954 0.0
O264 O 0.85535 0.65399 0.09829 0.0
O265 O 0.89309 0.67259 0.08585 0.0
O266 O 0.95276 0.6482 0.0512 0.0
O267 O 0.93047 0.68321 0.03926 0.0
O268 O 0.87743 0.67286 1.0181 0.0
O269 O 0.85859 0.66752 0.05212 0.0
O270 O 0.91127 0.62256 1.0189 0.0
O271 O 0.86662 0.6126 1.02534 0.0
H272 H 0.75579 0.64657 0.09737 0.0
H273 H 0.74302 0.65348 0.14071 0.0
H274 H 0.81945 0.60391 0.15838 0.0
H275 H 0.83216 0.59687 0.11524 0.0
H276 H 0.01258 0.65428 0.03715 0.0
H277 H 0.04278 0.64471 0.99959 0.0
H278 H 0.96817 0.665 0.95737 0.0
H279 H 0.9384 0.67377 0.99443 0.0
Nd280 Nd 0.55564 0.66843 0.37905 0.0
Nd281 Nd 0.51252 0.70979 0.3498 0.0
C282 C 0.57952 0.63117 0.40445 0.0
C283 C 0.57514 0.61031 0.41925 0.0
C284 C 0.56121 0.5923 0.4107 0.0
C285 C 0.55956 0.57194 0.42478 0.0
C286 C 0.57192 0.5692 0.44756 0.0
C287 C 0.58507 0.58765 0.45625 0.0
C288 C 0.58669 0.6079 0.44224 0.0
C289 C 0.57626 0.71218 0.3778 0.0
C290 C 0.49587 0.69821 0.40554 0.0
C291 C 0.49481 0.74648 0.32115 0.0
C292 C 0.48824 0.74929 0.29484 0.0
C293 C 0.50722 0.75806 0.2783 0.0
C294 C 0.50128 0.76102 0.25362 0.0
C295 C 0.47605 0.75543 0.24463 0.0
C296 C 0.45713 0.74653 0.26122 0.0
C297 C 0.46311 0.74351 0.2859 0.0
C298 C 0.49411 0.66602 0.34814 0.0
C299 C 0.56084 0.66831 0.32024 0.0
O300 O 0.57732 0.63016 0.3808 0.0
O301 O 0.56984 0.65259 0.41399 0.0
O302 O 0.58984 0.69205 0.38589 0.0
O303 O 0.55328 0.70779 0.36963 0.0
O304 O 0.51518 0.67821 0.40338 0.0
O305 O 0.49293 0.71554 0.3891 0.0
O306 O 0.52171 0.73935 0.32599 0.0
O307 O 0.47738 0.73685 0.33558 0.0
O308 O 0.48095 0.68569 0.33864 0.0
O309 O 0.51583 0.67051 0.35833 0.0
O310 O 0.54297 0.68923 0.31996 0.0
O311 O 0.56801 0.65639 0.34019 0.0
H312 H 0.5521 0.59371 0.39302 0.0
H313 H 0.54945 0.55798 0.41748 0.0
H314 H 0.5944 0.58634 0.47383 0.0
H315 H 0.59751 0.62157 0.44923 0.0
H316 H 0.52679 0.76268 0.28445 0.0
H317 H 0.5167 0.76755 0.24156 0.0
H318 H 0.43728 0.7423 0.2553 0.0
H319 H 0.44787 0.73677 0.29797 0.0
Nd320 Nd 0.21117 0.43341 0.15339 0.0
Nd321 Nd 0.23603 0.46287 0.18876 0.0
C322 C 0.19397 0.41345 0.1144 0.0
C323 C 0.17819 0.41542 0.09174 0.0
C324 C 0.1811 0.43249 0.07379 0.0
C325 C 0.16685 0.43241 0.052 0.0
C326 C 0.14965 0.41514 0.04771 0.0
C327 C 0.14627 0.39862 0.06612 0.0
C328 C 0.16034 0.39877 0.08778 0.0
C329 C 0.19935 0.41477 0.19948 0.0
C330 C 0.17098 0.48348 0.17063 0.0
C331 C 0.25368 0.48775 0.22451 0.0
C332 C 0.28024 0.49317 0.23478 0.0
C333 C 0.28475 0.4894 0.25958 0.0
C334 C 0.30819 0.4963 0.27028 0.0
C335 C 0.32782 0.50729 0.2565 0.0
C336 C 0.32371 0.5104 0.23144 0.0
C337 C 0.30024 0.50348 0.22074 0.0
C338 C 0.24736 0.47578 0.14093 0.0
C339 C 0.27475 0.41121 0.16983 0.0
O340 O 0.21882 0.42028 0.11488 0.0
O341 O 0.17883 0.41727 0.13499 0.0
O342 O 0.19214 0.40747 0.17887 0.0
O343 O 0.21259 0.43213 0.19567 0.0
O344 O 0.17677 0.4666 0.15374 0.0
O345 O 0.1885 0.48427 0.18858 0.0
O346 O 0.24831 0.46606 0.22712 0.0
O347 O 0.24651 0.49671 0.20345 0.0
O348 O 0.26662 0.47036 0.15691 0.0
O349 O 0.22405 0.47075 0.1498 0.0
O350 O 0.2701 0.42746 0.18771 0.0
O351 O 0.25734 0.41277 0.15187 0.0
H352 H 0.19466 0.4456 0.07643 0.0
H353 H 0.17001 0.44537 0.03821 0.0
H354 H 0.13283 0.38537 0.06375 0.0
H355 H 0.15762 0.38549 0.10138 0.0
H356 H 0.26975 0.48152 0.27088 0.0
H357 H 0.31077 0.49318 0.28949 0.0
H358 H 0.33808 0.51899 0.22019 0.0
H359 H 0.29745 0.5067 0.20156 0.0
Nd360 Nd 0.72245 0.05593 0.91228 0.0
Nd361 Nd 0.75763 0.03577 0.94865 0.0
C362 C 0.70349 0.0784 0.87293 0.0
C363 C 0.69964 0.10376 0.86617 0.0
C364 C 0.70525 0.1097 0.84203 0.0
C365 C 0.70176 0.13377 0.83535 0.0
C366 C 0.69246 0.15226 0.85275 0.0
C367 C 0.68786 0.14627 0.87713 0.0
C368 C 0.69169 0.12216 0.88385 0.0
C369 C 0.6955 0.06755 0.95801 0.0
C370 C 0.76754 0.08842 0.93186 0.0
C371 C 0.78093 1.00801 0.98406 0.0
C372 C 0.78032 0.98297 0.992 0.0
C373 C 0.75487 0.97366 0.99346 0.0
C374 C 0.75532 0.94938 0.9992 0.0
C375 C 0.78124 0.93374 1.00358 0.0
C376 C 0.80658 0.9433 1.00234 0.0
C377 C 0.80609 0.96752 0.99664 0.0
C378 C 0.78521 0.02699 0.90329 0.0
C379 C 0.70602 1.00867 0.93026 0.0
O380 O 0.73003 0.06766 0.87462 0.0
O381 O 0.68651 0.0731 0.89063 0.0
O382 O 0.68284 0.06235 0.93894 0.0
O383 O 0.72168 0.06786 0.95266 0.0
O384 O 0.75039 0.08466 0.91493 0.0
O385 O 0.7728 0.07286 0.9498 0.0
O386 O 0.75762 0.02424 0.98736 0.0
O387 O 0.79382 1.00993 0.96297 0.0
O388 O 0.79558 0.03574 0.92186 0.0
O389 O 0.75965 0.0241 0.90847 0.0
O390 O 0.72029 0.01402 0.94883 0.0
O391 O 0.70834 0.01989 0.90979 0.0
H392 H 0.71188 0.09571 0.82827 0.0
H393 H 0.705 0.13788 0.81635 0.0
H394 H 0.6807 0.16022 0.89082 0.0
H395 H 0.688 0.11789 0.90275 0.0
H396 H 0.73464 0.98503 0.98984 0.0
H397 H 0.73531 0.94289 1.00022 0.0
H398 H 0.82704 0.9319 1.0051 0.0
H399 H 0.82606 0.97411 0.99536 0.0
Nd400 Nd 0.79752 0.92743 0.39832 0.0
Nd401 Nd 0.7609 0.95135 0.43622 0.0
C402 C 0.82438 0.89908 0.36167 0.0
C403 C 0.82318 0.87936 0.34347 0.0
C404 C 0.79984 0.87922 0.32877 0.0
C405 C 0.80062 0.86094 0.31091 0.0
C406 C 0.82475 0.84222 0.30713 0.0
C407 C 0.84777 0.84236 0.32227 0.0
C408 C 0.84696 0.86053 0.34004 0.0
C409 C 0.82348 0.92364 0.44355 0.0
C410 C 0.74209 0.90262 0.41627 0.0
C411 C 0.74349 0.96939 0.48004 0.0
C412 C 0.73514 0.99375 0.49108 0.0
C413 C 0.75281 1.00144 0.50795 0.0
C414 C 0.74679 0.02496 0.5173 0.0
C415 C 0.72273 0.04129 0.51018 0.0
C416 C 0.70459 0.03335 0.49376 0.0
C417 C 0.71076 1.00985 0.48424 0.0
C418 C 0.73287 0.97161 0.39607 0.0
C419 C 0.81134 0.97947 0.41236 0.0
O420 O 0.80975 0.92077 0.35867 0.0
O421 O 0.82565 0.89343 0.38457 0.0
O422 O 0.83495 0.92961 0.42323 0.0
O423 O 0.79821 0.92024 0.43969 0.0
O424 O 0.76272 0.90343 0.39962 0.0
O425 O 0.73805 0.91835 0.43452 0.0
O426 O 0.77038 0.9633 0.4727 0.0
O427 O 0.7263 0.96224 0.46495 0.0
O428 O 0.72561 0.97699 0.41859 0.0
O429 O 0.75599 0.9555 0.39392 0.0
O430 O 0.79327 0.97763 0.43099 0.0
O431 O 0.81446 0.96338 0.39436 0.0
H432 H 0.78108 0.89333 0.33093 0.0
H433 H 0.78217 0.86152 0.30009 0.0
H434 H 0.867 0.82877 0.32 0.0
H435 H 0.86538 0.8601 0.3509 0.0
H436 H 0.77173 0.98938 0.51352 0.0
H437 H 0.76142 0.03047 0.52966 0.0
H438 H 0.68557 0.0453 0.48824 0.0
H439 H 0.69665 1.00445 0.47132 0.0
Nd440 Nd 0.35036 0.60622 0.66217 0.0
Nd441 Nd 0.31133 0.59446 0.62705 0.0
C442 C 0.37594 0.62285 0.69799 0.0
C443 C 0.36902 0.64555 0.71156 0.0
C444 C 0.34051 0.65753 0.71482 0.0
C445 C 0.33384 0.67905 0.72805 0.0
C446 C 0.3556 0.68859 0.73859 0.0
C447 C 0.38432 0.67714 0.7341 0.0
C448 C 0.39095 0.65578 0.72059 0.0
C449 C 0.37123 0.60743 0.61498 0.0
C450 C 0.29608 0.64786 0.64665 0.0
C451 C 0.28883 0.57576 0.59075 0.0
C452 C 0.30007 0.55339 0.57708 0.0
C453 C 0.32908 0.54776 0.56897 0.0
C454 C 0.34037 0.52527 0.55848 0.0
C455 C 0.32295 0.50801 0.55638 0.0
C456 C 0.29404 0.51362 0.56459 0.0
C457 C 0.28268 0.53618 0.57479 0.0
C458 C 0.29108 0.59244 0.67439 0.0
C459 C 0.36245 0.55234 0.64412 0.0
O460 O 0.35786 0.60823 0.70132 0.0
O461 O 0.38386 0.62479 0.6752 0.0
O462 O 0.38658 0.59795 0.63245 0.0
O463 O 0.346 0.61605 0.62266 0.0
O464 O 0.31356 0.63964 0.66386 0.0
O465 O 0.2941 0.63453 0.62741 0.0
O466 O 0.3032 0.59321 0.5879 0.0
O467 O 0.28111 0.57274 0.61343 0.0
O468 O 0.27578 0.60258 0.65716 0.0
O469 O 0.31619 0.58384 0.66642 0.0
O470 O 0.34793 0.56127 0.6255 0.0
O471 O 0.36366 0.56564 0.66351 0.0
H472 H 0.3233 0.64986 0.70786 0.0
H473 H 0.31159 0.68747 0.73121 0.0
H474 H 0.40159 0.68371 0.74239 0.0
H475 H 0.41308 0.64684 0.71789 0.0
H476 H 0.34318 0.56054 0.5711 0.0
H477 H 0.36271 0.52124 0.55227 0.0
H478 H 0.28012 0.50065 0.56279 0.0
H479 H 0.26045 0.54004 0.58134 0.0
H480 H 0.26487 0.33726 0.43576 0.0
H481 H 0.29512 0.36811 0.43886 0.0
H482 H 0.29816 0.35673 0.5162 0.0
H483 H 0.26841 0.3261 0.51303 0.0
H484 H 0.27984 0.40993 0.46864 0.0
H485 H 0.38242 0.35626 0.49533 0.0
H486 H 0.35667 0.34347 0.47895 0.0
H487 H 0.35234 0.34761 0.51146 0.0
C488 C 0.27246 0.3413 0.45325 0.0
C489 C 0.26487 0.32945 0.47417 0.0
C490 C 0.28972 0.35868 0.45499 0.0
C491 C 0.29956 0.36403 0.47762 0.0
C492 C 0.29167 0.35217 0.49845 0.0
H493 H 0.31886 0.46357 0.57299 0.0
H494 H 0.32461 0.42674 0.54827 0.0
C495 C 0.27453 0.33493 0.49672 0.0
C496 C 0.31513 0.38394 0.48063 0.0
H497 H 0.37047 0.39746 0.51156 0.0
C498 C 0.30025 0.40735 0.47708 0.0
C499 C 0.34174 0.38034 0.49161 0.0
C500 C 0.35937 0.35552 0.49433 0.0
C501 C 0.30973 0.42723 0.48676 0.0
C502 C 0.33487 0.42341 0.49993 0.0
C503 C 0.3512 0.40021 0.50145 0.0
C504 C 0.34077 0.44254 0.516 0.0
C505 C 0.2913 0.45192 0.48501 0.0
C506 C 0.3496 0.46297 0.5063 0.0
C507 C 0.34631 0.484 0.52039 0.0
C508 C 0.33395 0.48469 0.54414 0.0
C509 C 0.32806 0.46345 0.55458 0.0
C510 C 0.33155 0.44243 0.54057 0.0
H511 H 0.27176 0.45158 0.47492 0.0
H512 H 0.2847 0.45952 0.50351 0.0
H513 H 0.30376 0.46422 0.47558 0.0
H514 H 0.35671 0.46323 0.48733 0.0
H515 H 0.351 0.50022 0.51204 0.0
H516 H 0.77571 0.99711 0.86489 0.0
H517 H 0.81123 0.97822 0.83279 0.0
H518 H 0.87411 0.01487 0.86169 0.0
H519 H 0.83929 0.03369 0.89317 0.0
H520 H 0.85079 1.00172 0.7964 0.0
H521 H 0.90848 0.93977 0.86297 0.0
H522 H 0.87139 0.95396 0.868 0.0
H523 H 0.89915 0.97092 0.87229 0.0
C524 C 0.797 1.00132 0.86418 0.0
C525 C 0.80458 0.01678 0.88189 0.0
C526 C 0.81733 0.99051 0.84583 0.0
C527 C 0.84562 0.99484 0.84493 0.0
C528 C 0.85268 1.01094 0.86203 0.0
H529 H 0.01049 0.93734 0.76653 0.0
H530 H 0.97178 0.96192 0.79233 0.0
C531 C 0.83256 0.02173 0.88012 0.0
C532 C 0.86846 0.98202 0.82711 0.0
H533 H 0.93162 0.94124 0.82417 0.0
C534 C 0.86829 0.98833 0.80243 0.0
C535 C 0.89167 0.96475 0.83487 0.0
C536 C 0.89277 0.95673 0.86093 0.0
C537 C 0.89076 0.97807 0.78557 0.0
C538 C 0.914 0.96084 0.79342 0.0
C539 C 0.91409 0.95457 0.81807 0.0
C540 C 0.9375 0.948 0.77619 0.0
C541 C 0.88984 0.98613 0.75953 0.0
C542 C 0.93135 0.93208 0.75839 0.0
C543 C 0.95339 0.91787 0.74403 0.0
C544 C 0.98222 0.91945 0.74666 0.0
C545 C 0.98848 0.93603 0.76378 0.0
C546 C 0.96634 0.94996 0.77861 0.0
H547 H 0.87464 1.00339 0.75759 0.0
H548 H 0.91139 0.98834 0.75235 0.0
H549 H 0.88282 0.97223 0.7482 0.0
H550 H 0.9095 0.92988 0.75627 0.0
H551 H 0.9479 0.90511 0.73114 0.0
H552 H 0.2999 0.6657 1.01794 0.0
H553 H 0.29534 0.62559 0.03254 0.0
H554 H 0.22914 0.65776 0.0851 0.0
H555 H 0.23316 0.69779 0.07042 0.0
H556 H 0.30303 0.60559 0.07929 0.0
H557 H 0.19195 0.60594 0.05419 0.0
H558 H 0.21286 0.62707 0.04189 0.0
H559 H 0.19614 0.63169 0.07196 0.0
C560 C 0.28407 0.6644 0.03243 0.0
C561 C 0.26697 0.68555 0.04282 0.0
C562 C 0.28159 0.64122 0.04093 0.0
C563 C 0.2616 0.63815 0.0599 0.0
C564 C 0.24446 0.65918 0.07023 0.0
H565 H 0.20772 0.51805 0.14025 0.0
H566 H 0.21205 0.55581 0.12012 0.0
C567 C 0.24708 0.68234 0.06191 0.0
C568 C 0.25931 0.61324 0.06942 0.0
H569 H 0.21253 0.57429 0.07946 0.0
C570 C 0.28324 0.59873 0.07919 0.0
C571 C 0.23359 0.60389 0.06955 0.0
C572 C 0.2072 0.6178 0.05866 0.0
C573 C 0.28199 0.57604 0.0898 0.0
C574 C 0.25621 0.56653 0.08999 0.0
C575 C 0.23241 0.58099 0.07971 0.0
C576 C 0.25309 0.54236 0.1014 0.0
C577 C 0.30826 0.56321 0.10174 0.0
C578 C 0.27398 0.52115 0.09749 0.0
C579 C 0.27184 0.4995 0.1097 0.0
C580 C 0.24805 0.49776 0.12541 0.0
C581 C 0.22629 0.51842 0.12818 0.0
C582 C 0.22885 0.54026 0.11658 0.0
H583 H 0.32208 0.57596 0.10714 0.0
H584 H 0.30252 0.55355 0.1182 0.0
H585 H 0.32113 0.55005 0.08862 0.0
H586 H 0.29229 0.52124 0.08511 0.0
H587 H 0.28899 0.48408 0.10693 0.0
H588 H 0.50727 0.08361 0.28046 0.0
H589 H 0.54233 0.05729 0.30496 0.0
H590 H 0.61077 0.08597 0.2691 0.0
H591 H 0.57659 0.11168 0.24495 0.0
H592 H 0.59163 0.02065 0.29351 0.0
H593 H 0.62731 0.09612 0.33949 0.0
H594 H 0.59525 0.10032 0.3227 0.0
H595 H 0.62969 0.09825 0.30699 0.0
C596 C 0.52976 0.08428 0.27775 0.0
C597 C 0.53857 0.10026 0.26055 0.0
C598 C 0.55002 0.06913 0.29188 0.0
C599 C 0.57973 0.06965 0.28962 0.0
C600 C 0.58831 0.08524 0.27207 0.0
H601 H 0.74187 1.00081 0.35652 0.0
H602 H 0.70551 0.02341 0.33064 0.0
C603 C 0.56837 0.10004 0.25797 0.0
C604 C 0.60203 0.05422 0.30508 0.0
H605 H 0.65695 0.0575 0.34283 0.0
C606 C 0.60563 0.02885 0.30446 0.0
C607 C 0.62101 0.06433 0.3195 0.0
C608 C 0.61803 0.09124 0.32246 0.0
C609 C 0.62753 0.01375 0.31699 0.0
C610 C 0.64666 0.02388 0.33127 0.0
C611 C 0.64291 0.04925 0.33197 0.0
C612 C 0.66988 1.00866 0.34609 0.0
C613 C 0.6305 0.98685 0.31408 0.0
C614 C 0.66288 0.99242 0.36377 0.0
C615 C 0.68376 0.97953 0.37862 0.0
C616 C 0.71284 0.98179 0.37634 0.0
C617 C 0.72011 0.99771 0.35842 0.0
C618 C 0.69903 1.01099 0.34372 0.0
H619 H 0.62089 0.98195 0.29723 0.0
H620 H 0.6533 0.97781 0.31356 0.0
H621 H 0.61915 0.97985 0.32975 0.0
H622 H 0.64086 0.99033 0.36684 0.0
H623 H 0.67688 0.96814 0.3926 0.0
H624 H 0.63307 0.24336 0.62188 0.0
H625 H 0.66527 0.2059 0.60942 0.0
H626 H 0.65476 0.2247 0.5341 0.0
H627 H 0.62398 0.26297 0.54678 0.0
H628 H 0.64596 0.17288 0.58707 0.0
H629 H 0.73667 0.19295 0.52951 0.0
H630 H 0.71402 0.21564 0.54851 0.0
H631 H 0.70325 0.20822 0.51893 0.0
C632 C 0.63856 0.2398 0.60271 0.0
C633 C 0.62628 0.25583 0.58521 0.0
C634 C 0.65689 0.21843 0.59558 0.0
C635 C 0.6626 0.21241 0.5708 0.0
C636 C 0.65138 0.22912 0.55331 0.0
H637 H 0.70263 0.08249 0.48556 0.0
H638 H 0.6912 0.12376 0.5016 0.0
C639 C 0.63361 0.25088 0.56051 0.0
C640 C 0.67592 0.18734 0.5635 0.0
H641 H 0.72522 0.15331 0.52414 0.0
C642 C 0.66368 0.16862 0.57364 0.0
C643 C 0.69891 0.18171 0.54587 0.0
C644 C 0.71414 0.20071 0.53529 0.0
C645 C 0.67291 0.14465 0.56601 0.0
C646 C 0.69522 0.13911 0.54781 0.0
C647 C 0.70803 0.15766 0.53803 0.0
C648 C 0.70429 0.11432 0.53787 0.0
C649 C 0.65785 0.12559 0.5768 0.0
C650 C 0.71578 0.0954 0.55289 0.0
C651 C 0.72181 0.07172 0.54392 0.0
C652 C 0.7168 0.06655 0.51965 0.0
C653 C 0.70616 0.08572 0.50446 0.0
C654 C 0.69997 0.10937 0.5135 0.0
H655 H 0.63725 0.13353 0.58657 0.0
H656 H 0.65356 0.11301 0.56247 0.0
H657 H 0.6717 0.11501 0.59004 0.0
H658 H 0.7196 0.0989 0.57168 0.0
H659 H 0.72982 0.05744 0.55619 0.0
H660 H 0.08479 0.5211 0.78583 0.0
H661 H 0.12608 0.54156 0.78495 0.0
H662 H 0.17645 0.48204 0.74377 0.0
H663 H 0.13532 0.46168 0.74441 0.0
H664 H 0.20532 0.51167 0.78386 0.0
H665 H 0.14489 0.55986 0.70896 0.0
H666 H 0.12596 0.55658 0.73751 0.0
H667 H 0.1394 0.53057 0.71866 0.0
C668 C 0.10497 0.5121 0.77731 0.0
C669 C 0.10689 0.49006 0.76485 0.0
C670 C 0.1285 0.52371 0.77691 0.0
C671 C 0.15421 0.51323 0.76432 0.0
C672 C 0.15684 0.49028 0.75373 0.0
H673 H 0.30427 0.54836 0.69516 0.0
H674 H 0.2732 0.53089 0.72379 0.0
C675 C 0.13331 0.47881 0.7539 0.0
C676 C 0.1759 0.52793 0.75766 0.0
H677 H 0.19011 0.56797 0.71502 0.0
C678 C 0.20199 0.52431 0.76909 0.0
C679 C 0.17144 0.54415 0.73825 0.0
C680 C 0.14402 0.54809 0.72495 0.0
C681 C 0.22396 0.53659 0.76139 0.0
C682 C 0.2197 0.5524 0.74149 0.0
C683 C 0.19332 0.55616 0.73048 0.0
C684 C 0.2425 0.56406 0.73014 0.0
C685 C 0.25137 0.53247 0.77457 0.0
C686 C 0.23615 0.58866 0.72463 0.0
C687 C 0.25333 0.5984 0.70764 0.0
C688 C 0.27755 0.58386 0.69637 0.0
C689 C 0.28571 0.55995 0.70377 0.0
C690 C 0.26806 0.54999 0.72032 0.0
H691 H 0.24766 0.52727 0.79372 0.0
H692 H 0.26672 0.51749 0.76546 0.0
H693 H 0.26128 0.54877 0.77444 0.0
H694 H 0.21661 0.59989 0.73202 0.0
H695 H 0.24679 0.61694 0.70226 0.0
H696 H 0.81497 0.90478 0.03507 0.0
H697 H 0.81923 0.86142 0.04094 0.0
H698 H 0.75348 0.85952 0.99044 0.0
H699 H 0.74961 0.90278 0.98387 0.0
H700 H 0.77745 0.83232 0.05618 0.0
H701 H 0.82181 0.80962 0.96179 0.0
H702 H 0.82017 0.83904 0.97534 0.0
H703 H 0.78833 0.83041 0.96496 0.0
C704 C 0.80147 0.8952 1.02505 0.0
C705 C 0.78219 0.90748 1.00871 0.0
C706 C 0.80377 0.87035 0.02862 0.0
C707 C 0.78701 0.85699 1.01588 0.0
C708 C 0.76701 0.86927 1.00023 0.0
H709 H 0.81483 0.69848 0.99911 0.0
H710 H 0.79326 0.74149 0.99664 0.0
C711 C 0.76463 0.89415 0.99667 0.0
C712 C 0.79138 0.83017 1.01834 0.0
H713 H 0.81695 0.77737 0.98718 0.0
C714 C 0.78595 0.82028 0.04106 0.0
C715 C 0.80209 0.81433 0.9986 0.0
C716 C 0.80867 0.82376 0.9738 0.0
C717 C 0.79114 0.79514 0.04461 0.0
C718 C 0.80321 0.77926 1.02512 0.0
C719 C 0.8078 0.78924 1.00223 0.0
C720 C 0.81315 0.75258 0.02829 0.0
C721 C 0.78313 0.78603 0.06922 0.0
C722 C 0.83138 0.74408 0.04691 0.0
C723 C 0.84313 0.71954 0.04855 0.0
C724 C 0.83746 0.70267 0.03144 0.0
C725 C 0.8192 0.71095 1.01281 0.0
C726 C 0.807 0.7356 1.01136 0.0
H727 H 0.76465 0.79849 0.07816 0.0
H728 H 0.77757 0.76787 0.06789 0.0
H729 H 0.80139 0.78515 0.08113 0.0
H730 H 0.8377 0.75653 0.05964 0.0
H731 H 0.85804 0.71389 0.06251 0.0
H732 H 0.52508 0.61918 0.3429 0.0
H733 H 0.5059 0.58351 0.32992 0.0
H734 H 0.4206 0.6257 0.33461 0.0
H735 H 0.43937 0.66088 0.34717 0.0
H736 H 0.44744 0.56248 0.35241 0.0
H737 H 0.44883 0.59913 0.25906 0.0
H738 H 0.47377 0.60454 0.2812 0.0
H739 H 0.43755 0.6207 0.28346 0.0
C740 C 0.50219 0.62053 0.34188 0.0
C741 C 0.48371 0.64285 0.34605 0.0
C742 C 0.49125 0.60021 0.33434 0.0
C743 C 0.46175 0.60198 0.33113 0.0
C744 C 0.44336 0.62385 0.33689 0.0
H745 H 0.32621 0.5292 0.30141 0.0
H746 H 0.36308 0.54712 0.31956 0.0
C747 C 0.45418 0.64398 0.34411 0.0
C748 C 0.44971 0.58238 0.31942 0.0
H749 H 0.41903 0.57055 0.26697 0.0
C750 C 0.44172 0.5639 0.33359 0.0
C751 C 0.44246 0.58397 0.29481 0.0
C752 C 0.45121 0.60302 0.27857 0.0
C753 C 0.42542 0.54782 0.32409 0.0
C754 C 0.41612 0.55072 0.29999 0.0
C755 C 0.42572 0.5683 0.28548 0.0
C756 C 0.39482 0.5372 0.28995 0.0
C757 C 0.4182 0.52799 0.34006 0.0
C758 C 0.39984 0.52573 0.26696 0.0
C759 C 0.37853 0.51552 0.25636 0.0
C760 C 0.3515 0.51655 0.26841 0.0
C761 C 0.3468 0.52757 0.29166 0.0
C762 C 0.36806 0.53782 0.3022 0.0
H763 H 0.43484 0.52256 0.35342 0.0
H764 H 0.39765 0.5346 0.35046 0.0
H765 H 0.41603 0.51189 0.32917 0.0
H766 H 0.42017 0.52501 0.25698 0.0
H767 H 0.38321 0.50695 0.2386 0.0
H768 H 0.47132 0.23351 0.35115 0.0
H769 H 0.46079 0.25704 0.38885 0.0
H770 H 0.4676 0.32185 0.34992 0.0
H771 H 0.47857 0.29822 0.31181 0.0
H772 H 0.50212 0.28784 0.40494 0.0
H773 H 0.38969 0.33552 0.39616 0.0
H774 H 0.4036 0.30753 0.38001 0.0
H775 H 0.41554 0.33452 0.37089 0.0
C776 C 0.4706 0.25276 0.35056 0.0
C777 C 0.47613 0.26401 0.32863 0.0
C778 C 0.46434 0.26618 0.37205 0.0
C779 C 0.46331 0.29109 0.37202 0.0
C780 C 0.46801 0.30262 0.35012 0.0
H781 H 0.47492 0.35994 0.51183 0.0
H782 H 0.47053 0.3577 0.46792 0.0
C783 C 0.47429 0.28914 0.32847 0.0
C784 C 0.45974 0.30422 0.39547 0.0
H785 H 0.40981 0.33833 0.43421 0.0
C786 C 0.48218 0.2993 0.41123 0.0
C787 C 0.43359 0.31897 0.40343 0.0
C788 C 0.40906 0.32454 0.38688 0.0
C789 C 0.47877 0.30791 0.43524 0.0
C790 C 0.45228 0.32196 0.44356 0.0
C791 C 0.4301 0.32768 0.42758 0.0
C792 C 0.44699 0.32851 0.46952 0.0
C793 C 0.50301 0.3009 0.45199 0.0
C794 C 0.43379 0.31367 0.48485 0.0
C795 C 0.43622 0.31488 0.50995 0.0
C796 C 0.45194 0.33093 0.51998 0.0
C797 C 0.46254 0.34747 0.5047 0.0
C798 C 0.46011 0.34622 0.47959 0.0
H799 H 0.52145 0.28842 0.44304 0.0
H800 H 0.51054 0.31728 0.45811 0.0
H801 H 0.49546 0.29209 0.4684 0.0
H802 H 0.42364 0.29985 0.47728 0.0
H803 H 0.42747 0.30218 0.52134 0.0
H804 H 0.11769 0.25251 0.53184 0.0
H805 H 0.10238 0.26689 0.5736 0.0
H806 H 0.02684 0.31058 0.54695 0.0
H807 H 0.04249 0.29649 0.50516 0.0
H808 H 0.09366 0.31243 0.59526 0.0
H809 H 0.98985 0.28237 0.60543 0.0
H810 H 0.01598 0.27125 0.58118 0.0
H811 H 0.99359 0.30043 0.57918 0.0
C812 C 0.09732 0.2646 0.53479 0.0
C813 C 0.08104 0.2723 0.51442 0.0
C814 C 0.08858 0.27322 0.55905 0.0
C815 C 0.06284 0.28991 0.56461 0.0
C816 C 0.04638 0.2974 0.54425 0.0
H817 H 0.97473 0.36126 0.70419 0.0
H818 H 0.98695 0.34469 0.66264 0.0
C819 C 0.05539 0.2891 0.51991 0.0
C820 C 0.05419 0.3001 0.59105 0.0
H821 H 1.00031 0.30766 0.63679 0.0
C822 C 0.07321 0.31115 0.6042 0.0
C823 C 0.02738 0.29931 0.60364 0.0
C824 C 1.00553 0.28755 0.59181 0.0
C825 C 0.06637 0.32149 0.6282 0.0
C826 C 0.03983 0.32012 0.64122 0.0
C827 C 0.02075 0.30907 0.62794 0.0
C828 C 0.03157 0.32996 0.668 0.0
C829 C 0.08763 0.33494 0.63864 0.0
C830 C 0.05146 0.32727 0.68663 0.0
C831 C 0.04447 0.33731 0.71055 0.0
C832 C 0.01675 0.34986 0.71799 0.0
C833 C 0.99627 0.35163 0.69991 0.0
C834 C 1.00349 0.34204 0.67566 0.0
H835 H 0.10051 0.3421 0.62402 0.0
H836 H 0.0769 0.35029 0.65044 0.0
H837 H 0.10275 0.32242 0.64941 0.0
H838 H 0.07287 0.31725 0.68288 0.0
H839 H 0.06117 0.33522 0.72342 0.0
H840 H 0.04924 0.78398 0.81592 0.0
H841 H 0.05151 0.75605 0.84982 0.0
H842 H 0.07103 0.69586 0.79937 0.0
H843 H 0.06839 0.72355 0.76539 0.0
H844 H 0.01395 0.72286 0.85284 0.0
H845 H 0.12785 0.67747 0.85393 0.0
H846 H 0.11664 0.70616 0.83971 0.0
H847 H 0.11246 0.67884 0.82469 0.0
C848 C 0.05426 0.76479 0.81208 0.0
C849 C 0.05839 0.75589 0.78804 0.0
C850 C 0.05579 0.74893 0.83142 0.0
C851 C 0.0617 0.72401 0.82696 0.0
C852 C 0.06703 0.71507 0.80309 0.0
H853 H 0.99834 0.6323 0.9329 0.0
H854 H 0.01687 0.64254 0.89286 0.0
C855 C 0.06545 0.73091 0.78374 0.0
C856 C 0.05862 0.70747 0.84694 0.0
H857 H 0.09459 0.6614 0.8794 0.0
C858 C 0.03152 0.70936 0.85865 0.0
C859 C 0.08169 0.69 0.85426 0.0
C860 C 0.1114 0.68802 0.84267 0.0
C861 C 0.02686 0.69441 0.87791 0.0
C862 C 0.04987 0.67669 0.88514 0.0
C863 C 0.07696 0.67463 0.87329 0.0
C864 C 0.04676 0.66284 0.90724 0.0
C865 C 0.99764 0.69843 0.89099 0.0
C866 C 0.05947 0.66902 0.92817 0.0
C867 C 0.04897 0.66326 0.95096 0.0
C868 C 0.02564 0.65133 0.95288 0.0
C869 C 0.01595 0.642 0.93179 0.0
C870 C 0.02653 0.64774 0.90897 0.0
H871 H 0.98403 0.71564 0.88586 0.0
H872 H 0.98654 0.68355 0.88626 0.0
H873 H 0.99953 0.6986 0.911 0.0
H874 H 0.07527 0.68057 0.92705 0.0
H875 H 0.05689 0.6706 0.96691 0.0
H876 H 0.4489 0.72816 0.21485 0.0
H877 H 0.43589 0.73563 0.17282 0.0
H878 H 0.4747 0.79866 0.17203 0.0
H879 H 0.4874 0.79161 0.21417 0.0
H880 H 0.40068 0.77511 0.15471 0.0
H881 H 0.50847 0.76499 0.10847 0.0
H882 H 0.50285 0.75462 0.13897 0.0
H883 H 0.50248 0.78601 0.13363 0.0
C884 C 0.45464 0.74371 0.20588 0.0
C885 C 0.46923 0.75928 0.21828 0.0
C886 C 0.44731 0.74786 0.18165 0.0
C887 C 0.45454 0.76758 0.16892 0.0
C888 C 0.46937 0.783 0.18109 0.0
H889 H 0.37981 0.8323 0.03635 0.0
H890 H 0.40362 0.82593 0.07499 0.0
C891 C 0.47665 0.77891 0.20535 0.0
C892 C 0.44506 0.77269 0.14352 0.0
H893 H 0.46888 0.78008 0.08465 0.0
C894 C 0.41567 0.77618 0.13946 0.0
C895 C 0.46449 0.77404 0.12338 0.0
C896 C 0.49636 0.76951 0.12617 0.0
C897 C 0.40526 0.78119 0.11616 0.0
C898 C 0.42458 0.78279 0.09613 0.0
C899 C 0.454 0.77914 0.10002 0.0
C900 C 0.41422 0.78717 0.07101 0.0
C901 C 0.37354 0.78456 0.1129 0.0
C902 C 0.41291 0.76764 0.0555 0.0
C903 C 0.39936 0.77129 0.03339 0.0
C904 C 0.38688 0.79457 1.0261 0.0
C905 C 0.38959 0.81423 0.04106 0.0
C906 C 0.40304 0.81056 0.0633 0.0
H907 H 0.36127 0.78219 0.13012 0.0
H908 H 0.36568 0.80288 0.10601 0.0
H909 H 0.36923 0.77142 0.09914 0.0
H910 H 0.42123 0.74943 0.06101 0.0
H911 H 0.39755 0.75571 1.02243 0.0
H912 H 0.1564 0.31564 0.41321 0.0
H913 H 0.1676 0.33996 0.37872 0.0
H914 H 0.11586 0.30463 0.33379 0.0
H915 H 0.10336 0.28126 0.36873 0.0
H916 H 0.19553 0.33253 0.33873 0.0
H917 H 0.08654 0.36888 0.31092 0.0
H918 H 0.09265 0.35263 0.33876 0.0
H919 H 0.09329 0.33666 0.31019 0.0
C920 C 0.14678 0.31337 0.39614 0.0
C921 C 0.12833 0.2966 0.39426 0.0
C922 C 0.15347 0.32731 0.37613 0.0
C923 C 0.14236 0.32498 0.3531 0.0
C924 C 0.12411 0.30797 0.35116 0.0
H925 H 0.17014 0.37803 0.20588 0.0
H926 H 0.15783 0.35792 0.24282 0.0
C927 C 0.11694 0.29434 0.37136 0.0
C928 C 0.15081 0.33956 0.3313 0.0
H929 H 0.12461 0.37305 0.28252 0.0
C930 C 0.17977 0.34154 0.3267 0.0
C931 C 0.1308 0.35176 0.31505 0.0
C932 C 0.09909 0.35261 0.31911 0.0
C933 C 0.18913 0.35436 0.30657 0.0
C934 C 0.16919 0.36603 0.29009 0.0
C935 C 0.14025 0.36424 0.29476 0.0
C936 C 0.17776 0.37902 0.26729 0.0
C937 C 0.22064 0.35456 0.30273 0.0
C938 C 0.19324 0.39817 0.2679 0.0
C939 C 0.20045 0.41 0.24632 0.0
C940 C 0.19236 0.40313 0.22337 0.0
C941 C 0.17688 0.38408 0.22297 0.0
C942 C 0.16968 0.37242 0.24434 0.0
H943 H 0.23384 0.34012 0.31302 0.0
H944 H 0.22754 0.35232 0.28316 0.0
H945 H 0.22496 0.37211 0.30919 0.0
H946 H 0.19945 0.40428 0.28515 0.0
H947 H 0.21225 0.42455 0.24763 0.0
H948 H 0.96914 0.86884 0.64451 0.0
H949 H 0.93734 0.87344 0.61044 0.0
H950 H 0.97545 0.93219 0.58382 0.0
H951 H 1.00729 0.92768 0.61794 0.0
H952 H 0.89511 0.9094 0.59492 0.0
H953 H 0.9801 0.89337 0.5215 0.0
H954 H 0.98745 0.8873 0.5529 0.0
H955 H 0.98323 0.91757 0.54182 0.0
C956 C 0.97101 0.88277 0.63145 0.0
C957 C 0.99143 0.89774 0.6345 0.0
C958 C 0.95247 0.88545 0.61172 0.0
C959 C 0.95361 0.90299 0.59364 0.0
C960 C 0.97392 0.91807 0.59673 0.0
H961 H 0.8701 0.94276 0.45477 0.0
H962 H 0.89869 0.93799 0.49054 0.0
C963 C 0.99228 0.91556 0.61663 0.0
C964 C 0.93361 0.90556 0.57205 0.0
H965 H 0.933 0.90672 0.50939 0.0
C966 C 0.90358 0.90874 0.57624 0.0
C967 C 0.94376 0.90478 0.5472 0.0
C968 C 0.97538 0.90034 0.54046 0.0
C969 C 0.88402 0.91191 0.55704 0.0
C970 C 0.89415 0.91111 0.53208 0.0
C971 C 0.92429 0.9076 0.528 0.0
C972 C 0.87453 0.9146 0.51006 0.0
C973 C 0.85247 0.91713 0.5641 0.0
C974 C 0.85028 0.90344 0.50785 0.0
C975 C 0.83307 0.90672 0.4871 0.0
C976 C 0.8397 0.92078 0.46719 0.0
C977 C 0.86392 0.93172 0.46937 0.0
C978 C 0.88067 0.92884 0.49015 0.0
H979 H 0.84826 0.92491 0.58279 0.0
H980 H 0.84043 0.92987 0.55138 0.0
H981 H 0.84416 0.90005 0.56385 0.0
H982 H 0.84482 0.89159 0.52191 0.0
H983 H 0.81504 0.89761 0.48637 0.0
H984 H 0.31414 0.69031 0.77457 0.0
H985 H 0.31812 0.70517 0.81536 0.0
H986 H 0.38634 0.74071 0.78979 0.0
H987 H 0.38197 0.72649 0.74842 0.0
H988 H 0.37869 0.6843 0.8272 0.0
H989 H 0.34321 0.78192 0.85021 0.0
H990 H 0.32469 0.76645 0.82916 0.0
H991 H 0.3588 0.77351 0.82015 0.0
C992 C 0.32875 0.70257 0.77716 0.0
C993 C 0.34857 0.70653 0.75853 0.0
C994 C 0.33108 0.71091 0.8006 0.0
C995 C 0.35299 0.72336 0.8054 0.0
C996 C 0.36943 0.73092 0.78622 0.0
H997 H 0.41511 0.76029 0.93348 0.0
H998 H 0.42763 0.73294 0.89884 0.0
C999 C 0.36699 0.72271 0.76268 0.0
C1000 C 0.36337 0.72271 0.82994 0.0
H1001 H 0.36833 0.75746 0.87929 0.0
C1002 C 0.37658 0.70025 0.83869 0.0
C1003 C 0.36075 0.74363 0.84437 0.0
C1004 C 0.34602 0.76781 0.8357 0.0
C1005 C 0.38668 0.69815 0.86213 0.0
C1006 C 0.38363 0.71901 0.87669 0.0
C1007 C 0.37112 0.74155 0.86764 0.0
C1008 C 0.38897 0.7182 0.90261 0.0
C1009 C 0.39999 0.67387 0.87146 0.0
C1010 C 0.36544 0.71589 0.91814 0.0
C1011 C 0.35764 0.73206 0.93753 0.0
C1012 C 0.37406 0.74976 0.94154 0.0
C1013 C 0.4014 0.7475 0.92994 0.0
C1014 C 0.40898 0.73146 0.91043 0.0
H1015 H 0.4039 0.65982 0.85687 0.0
H1016 H 0.42054 0.67495 0.87968 0.0
H1017 H 0.38555 0.66841 0.88596 0.0
H1018 H 0.35015 0.70518 0.91258 0.0
H1019 H 0.33703 0.73275 0.94704 0.0
H1020 H 0.53974 0.09202 0.15905 0.0
H1021 H 0.57118 0.08328 0.12242 0.0
H1022 H 0.56112 0.15928 0.10844 0.0
H1023 H 0.53105 0.16808 0.14609 0.0
H1024 H 0.56545 0.08742 0.07768 0.0
H1025 H 0.64377 0.14548 0.09635 0.0
H1026 H 0.61677 0.14068 0.1189 0.0
H1027 H 0.60817 0.16239 0.09527 0.0
C1028 C 0.54447 0.10696 0.14837 0.0
C1029 C 0.53296 0.13082 0.1559 0.0
C1030 C 0.56252 0.10191 0.12719 0.0
C1031 C 0.5695 0.12049 0.1124 0.0
C1032 C 0.55741 0.14441 0.11964 0.0
H1033 H 0.65247 0.10689 0.96389 0.0
H1034 H 0.62251 0.12063 1.0009 0.0
C1035 C 0.53984 0.1495 0.14122 0.0
C1036 C 0.5886 0.11447 0.08932 0.0
H1037 H 0.64753 0.12742 0.05699 0.0
C1038 C 0.58344 0.0962 0.07343 0.0
C1039 C 0.61237 0.12571 0.08312 0.0
C1040 C 0.6208 0.14447 0.09942 0.0
C1041 C 0.60095 0.089 0.05214 0.0
C1042 C 0.62445 0.10027 0.04606 0.0
C1043 C 0.62955 0.11871 0.06155 0.0
C1044 C 0.644 0.09282 1.02384 0.0
C1045 C 0.59435 0.0692 0.03615 0.0
C1046 C 0.66655 0.07281 1.02425 0.0
C1047 C 0.68414 0.06525 1.00318 0.0
C1048 C 0.67936 0.0773 0.98107 0.0
C1049 C 0.65689 0.09736 0.98068 0.0
C1050 C 0.63968 0.1052 1.00185 0.0
H1051 H 0.57407 0.06345 0.04213 0.0
H1052 H 0.59284 0.0753 1.01704 0.0
H1053 H 0.61206 0.05339 0.03644 0.0
H1054 H 0.67029 0.06278 0.04084 0.0
H1055 H 0.70081 0.04943 1.00397 0.0
H1056 H 0.64144 0.25346 0.67132 0.0
H1057 H 0.65197 0.23708 0.7114 0.0
H1058 H 0.57241 0.27838 0.74143 0.0
H1059 H 0.56149 0.29499 0.70107 0.0
H1060 H 0.6317 0.28073 0.7651 0.0
H1061 H 0.60483 0.19009 0.75086 0.0
H1062 H 0.62495 0.20125 0.7264 0.0
H1063 H 0.58888 0.2161 0.73405 0.0
C1064 C 0.62597 0.25887 0.68636 0.0
C1065 C 0.60063 0.27549 0.68314 0.0
C1066 C 0.63207 0.24954 0.7092 0.0
C1067 C 0.613 0.2567 0.72919 0.0
C1068 C 0.58732 0.27279 0.72606 0.0
H1069 H 0.64187 0.18211 0.86361 0.0
H1070 H 0.6205 0.21582 0.83897 0.0
C1071 C 0.58103 0.28204 0.70306 0.0
C1072 C 0.62062 0.24737 0.75329 0.0
H1073 H 0.63275 0.19498 0.7844 0.0
C1074 C 0.63142 0.26214 0.76968 0.0
C1075 C 0.62033 0.22312 0.75888 0.0
C1076 C 0.60896 0.20667 0.74173 0.0
C1077 C 0.64326 0.25274 0.79123 0.0
C1078 C 0.64392 0.22826 0.79628 0.0
C1079 C 0.63196 0.21386 0.78039 0.0
C1080 C 0.65904 0.21608 0.81664 0.0
C1081 C 0.65584 0.26859 0.8081 0.0
C1082 C 0.6882 0.20618 0.813 0.0
C1083 C 0.70041 0.18675 0.82687 0.0
C1084 C 0.6835 0.17716 0.84447 0.0
C1085 C 0.65538 0.18921 0.85018 0.0
C1086 C 0.64313 0.2085 0.83617 0.0
H1087 H 0.65097 0.28783 0.80294 0.0
H1088 H 0.64748 0.2668 0.82706 0.0
H1089 H 0.67941 0.26261 0.80769 0.0
H1090 H 0.70066 0.21174 0.7978 0.0
H1091 H 0.72224 0.17786 0.82235 0.0
H1092 H 0.14638 0.37442 1.02169 0.0
H1093 H 0.12496 0.37111 0.98278 0.0
H1094 H 0.10075 0.44839 0.98054 0.0
H1095 H 0.12235 0.45188 1.01966 0.0
H1096 H 0.06942 0.38592 0.9685 0.0
H1097 H 0.14419 0.43287 0.91523 0.0
H1098 H 0.15059 0.42305 0.94591 0.0
H1099 H 0.12471 0.44968 0.94047 0.0
C1100 C 0.13633 0.39077 1.01308 0.0
C1101 C 0.13623 0.41345 1.02388 0.0
C1102 C 0.12412 0.38882 0.99072 0.0
C1103 C 0.11155 0.40947 0.97843 0.0
C1104 C 0.11089 0.43218 0.98932 0.0
H1105 H 0.04243 0.42664 0.83457 0.0
H1106 H 0.0603 0.43216 0.87436 0.0
C1107 C 0.12326 0.43416 1.01172 0.0
C1108 C 0.09959 0.40691 0.95414 0.0
H1109 H 0.10828 0.41961 0.8939 0.0
C1110 C 0.0779 0.3933 0.95217 0.0
C1111 C 0.1104 0.4167 0.93281 0.0
C1112 C 0.1339 0.43125 0.93354 0.0
C1113 C 0.0667 0.38929 0.9296 0.0
C1114 C 0.07819 0.39839 0.90809 0.0
C1115 C 0.09958 0.41234 0.91019 0.0
C1116 C 0.0679 0.39437 0.88334 0.0
C1117 C 0.04211 0.3759 0.92927 0.0
C1118 C 0.06669 0.37114 0.87446 0.0
C1119 C 0.05597 0.36788 0.85156 0.0
C1120 C 0.04693 0.38773 0.83671 0.0
C1121 C 0.04941 0.41079 0.84524 0.0
C1122 C 0.05958 0.41406 0.86819 0.0
H1123 H 0.03014 0.37705 0.94721 0.0
H1124 H 0.02693 0.38306 0.91526 0.0
H1125 H 0.05058 0.35659 0.92512 0.0
H1126 H 0.07381 0.35549 0.88531 0.0
H1127 H 0.05434 0.3499 0.84567 0.0
H1128 H 0.85154 0.79408 0.30691 0.0
H1129 H 0.85779 0.76443 0.27358 0.0
H1130 H 0.80744 0.81629 0.22869 0.0
H1131 H 0.80199 0.84635 0.26154 0.0
H1132 H 0.82117 0.7431 0.24666 0.0
H1133 H 0.87914 0.79702 0.18524 0.0
H1134 H 0.87204 0.80428 0.21717 0.0
H1135 H 0.84445 0.81267 0.19603 0.0
C1136 C 0.84196 0.79943 0.28992 0.0
C1137 C 0.82658 0.82312 0.28717 0.0
C1138 C 0.84538 0.78221 0.27079 0.0
C1139 C 0.83371 0.78799 0.24811 0.0
C1140 C 0.81739 0.81128 0.24562 0.0
H1141 H 0.845 0.7166 0.10468 0.0
H1142 H 0.83475 0.74367 0.14019 0.0
C1143 C 0.81394 0.82852 0.26472 0.0
C1144 C 0.83916 0.77001 0.22703 0.0
H1145 H 0.86697 0.76206 0.16819 0.0
C1146 C 0.83128 0.74727 0.22953 0.0
C1147 C 0.85238 0.77508 0.20446 0.0
C1148 C 0.86276 0.79847 0.20054 0.0
C1149 C 0.83546 0.73001 0.21018 0.0
C1150 C 0.84874 0.73511 0.18756 0.0
C1151 C 0.85674 0.75782 0.18523 0.0
C1152 C 0.85422 0.71764 0.16594 0.0
C1153 C 0.82463 0.70681 0.21404 0.0
C1154 C 0.86874 0.69358 0.16792 0.0
C1155 C 0.87443 0.6779 0.14739 0.0
C1156 C 0.86634 0.6859 0.12415 0.0
C1157 C 0.85194 0.70986 0.12214 0.0
C1158 C 0.84597 0.72542 0.14262 0.0
H1159 H 0.80745 0.70876 0.22873 0.0
H1160 H 0.81619 0.70064 0.19717 0.0
H1161 H 0.84247 0.69266 0.21957 0.0
H1162 H 0.87621 0.68695 0.18528 0.0
H1163 H 0.88557 0.65959 0.14964 0.0
H1164 H 0.34269 0.61823 0.57386 0.0
H1165 H 0.36155 0.63085 0.53497 0.0
H1166 H 0.44516 0.62406 0.56399 0.0
H1167 H 0.42669 0.6097 0.60224 0.0
H1168 H 0.37955 0.66938 0.52697 0.0
H1169 H 0.46939 0.59637 0.49902 0.0
H1170 H 0.44392 0.5928 0.52345 0.0
H1171 H 0.47406 0.6069 0.529 0.0
C1172 C 0.36524 0.61881 0.57165 0.0
C1173 C 0.38325 0.61293 0.59095 0.0
C1174 C 0.37603 0.62611 0.54945 0.0
C1175 C 0.40492 0.62822 0.54629 0.0
C1176 C 0.42304 0.6219 0.56554 0.0
H1177 H 0.50771 0.70113 0.45249 0.0
H1178 H 0.48259 0.68457 0.48629 0.0
C1179 C 0.4124 0.61392 0.58753 0.0
C1180 C 0.41515 0.63954 0.524 0.0
H1181 H 0.47058 0.63535 0.48137 0.0
C1182 C 0.39922 0.66166 0.51679 0.0
C1183 C 0.44076 0.62953 0.5105 0.0
C1184 C 0.45779 0.60497 0.51576 0.0
C1185 C 0.40872 0.67445 0.49724 0.0
C1186 C 0.435 0.66508 0.4847 0.0
C1187 C 0.45059 0.64266 0.49132 0.0
C1188 C 0.44734 0.67867 0.46524 0.0
C1189 C 0.39107 0.69829 0.49058 0.0
C1190 C 0.43514 0.68186 0.44252 0.0
C1191 C 0.44923 0.69183 0.42329 0.0
C1192 C 0.47566 0.69869 0.4266 0.0
C1193 C 0.48684 0.69684 0.44976 0.0
C1194 C 0.4728 0.68694 0.46892 0.0
H1195 H 0.3733 0.70468 0.50426 0.0
H1196 H 0.40473 0.71217 0.4887 0.0
H1197 H 0.38174 0.69637 0.47277 0.0
H1198 H 0.41571 0.67525 0.43922 0.0
H1199 H 0.44087 0.69202 0.40533 0.0
H1200 H 0.20455 0.23684 0.41503 0.0
H1201 H 0.24986 0.22768 0.39028 0.0
H1202 H 0.2163 0.17507 0.3492 0.0
H1203 H 0.17088 0.18508 0.37302 0.0
H1204 H 0.2919 0.19339 0.38206 0.0
H1205 H 0.24558 0.20483 0.29241 0.0
H1206 H 0.22404 0.21279 0.32008 0.0
H1207 H 0.2314 0.18207 0.30878 0.0
C1208 C 0.20675 0.22336 0.40067 0.0
C1209 C 0.18352 0.21187 0.39622 0.0
C1210 C 0.23294 0.21805 0.38631 0.0
C1211 C 0.23718 0.20095 0.36688 0.0
C1212 C 0.2141 0.18904 0.36304 0.0
H1213 H 0.38265 0.12897 0.26968 0.0
H1214 H 0.33808 0.14147 0.29448 0.0
C1215 C 0.18786 0.19461 0.37709 0.0
C1216 C 0.26556 0.19517 0.35124 0.0
H1217 H 0.29416 0.18401 0.29243 0.0
C1218 C 0.29209 0.19164 0.36245 0.0
C1219 C 0.26698 0.19289 0.32531 0.0
C1220 C 0.2405 0.19862 0.31094 0.0
C1221 C 0.31896 0.18533 0.34906 0.0
C1222 C 0.3202 0.1822 0.32333 0.0
C1223 C 0.29382 0.18599 0.31205 0.0
C1224 C 0.34839 0.17464 0.30799 0.0
C1225 C 0.34599 0.1814 0.36275 0.0
C1226 C 0.36987 0.18892 0.30656 0.0
C1227 C 0.39566 0.18183 0.29197 0.0
C1228 C 0.40131 0.15996 0.27841 0.0
C1229 C 0.37978 0.14573 0.27993 0.0
C1230 C 0.35389 0.15299 0.29417 0.0
H1231 H 0.34163 0.17944 0.38257 0.0
H1232 H 0.36102 0.1651 0.35574 0.0
H1233 H 0.35671 0.19709 0.36011 0.0
H1234 H 0.36655 0.2059 0.31646 0.0
H1235 H 0.41117 0.19362 0.29127 0.0
H1236 H 0.13529 0.15127 0.45296 0.0
H1237 H 0.13064 0.11417 0.47407 0.0
H1238 H 0.14054 0.14822 0.54257 0.0
H1239 H 0.14535 0.18557 0.52146 0.0
H1240 H 0.16558 0.08371 0.51104 0.0
H1241 H 0.05693 0.13064 0.54319 0.0
H1242 H 0.07676 0.14114 0.51797 0.0
H1243 H 0.08555 0.14644 0.54861 0.0
C1244 C 0.13721 0.15067 0.47248 0.0
C1245 C 0.1405 0.17134 0.48564 0.0
C1246 C 0.13459 0.12945 0.48447 0.0
C1247 C 0.13492 0.12859 0.50984 0.0
C1248 C 0.14013 0.14864 0.52293 0.0
H1249 H 0.0894 0.04369 0.62566 0.0
H1250 H 0.10268 0.07288 0.5971 0.0
C1251 C 0.14307 0.16988 0.51088 0.0
C1252 C 0.12673 0.10779 0.52273 0.0
H1253 H 0.07336 0.09223 0.55924 0.0
C1254 C 0.14544 0.08544 0.52159 0.0
C1255 C 0.10008 0.11004 0.53581 0.0
C1256 C 0.07847 0.13326 0.53638 0.0
C1257 C 0.13889 0.0656 0.53456 0.0
C1258 C 0.11276 0.06822 0.54864 0.0
C1259 C 0.09352 0.0903 0.54868 0.0
C1260 C 0.10589 0.04942 0.56548 0.0
C1261 C 0.16042 0.04236 0.53381 0.0
C1262 C 0.10333 0.02633 0.55726 0.0
C1263 C 0.09585 1.0094 0.57376 0.0
C1264 C 0.09029 0.01553 0.59858 0.0
C1265 C 0.093 0.03859 0.6066 0.0
C1266 C 0.10073 0.05526 0.59029 0.0
H1267 H 0.18171 0.04482 0.5262 0.0
H1268 H 0.16291 0.03474 0.55228 0.0
H1269 H 0.15279 0.02905 0.52211 0.0
H1270 H 0.10666 0.02154 0.53813 0.0
H1271 H 0.09384 0.99176 0.56708 0.0
H1272 H 0.14491 0.86383 0.73734 0.0
H1273 H 0.17867 0.85394 0.76935 0.0
H1274 H 0.1137 0.88702 0.82253 0.0
H1275 H 0.07931 0.89565 0.79041 0.0
H1276 H 0.20526 0.87489 0.79913 0.0
H1277 H 0.13808 0.82951 0.86072 0.0
H1278 H 0.12778 0.83815 0.83055 0.0
H1279 H 0.12118 0.8599 0.85526 0.0
C1280 C 0.13731 0.86855 0.75584 0.0
C1281 C 0.10853 0.88008 0.7608 0.0
C1282 C 0.15712 0.86306 0.77448 0.0
C1283 C 0.1494 0.86881 0.79929 0.0
C1284 C 0.12082 0.88118 0.80415 0.0
H1285 H 0.24608 0.84955 0.93748 0.0
H1286 H 0.21019 0.86054 0.90662 0.0
C1287 C 0.10091 0.88653 0.78545 0.0
C1288 C 0.17128 0.86236 0.81947 0.0
H1289 H 0.18054 0.83793 0.87673 0.0
C1290 C 0.19955 0.86669 0.81597 0.0
C1291 C 0.16504 0.8515 0.84202 0.0
C1292 C 0.1365 0.84424 0.84732 0.0
C1293 C 0.22068 0.86122 0.83375 0.0
C1294 C 0.21436 0.85048 0.85633 0.0
C1295 C 0.18611 0.84621 0.8599 0.0
C1296 C 0.23661 0.84324 0.87599 0.0
C1297 C 0.24958 0.86778 0.8282 0.0
C1298 C 0.26394 0.82913 0.8702 0.0
C1299 C 0.28456 0.82279 0.88798 0.0
C1300 C 0.27913 0.82992 0.91277 0.0
C1301 C 0.25157 0.84352 0.91886 0.0
C1302 C 0.2308 0.8499 0.90094 0.0
H1303 H 0.24831 0.88254 0.81484 0.0
H1304 H 0.25881 0.8735 0.84489 0.0
H1305 H 0.26436 0.85188 0.82011 0.0
H1306 H 0.26951 0.8227 0.85172 0.0
H1307 H 0.30514 0.81217 0.88212 0.0
H1308 H 0.37024 0.04184 0.12769 0.0
H1309 H 0.35306 1.01229 0.1027 0.0
H1310 H 0.43943 0.98418 0.07585 0.0
H1311 H 0.45693 0.01376 0.10104 0.0
H1312 H 0.35616 0.9997 0.05347 0.0
H1313 H 0.4161 0.9253 0.10663 0.0
H1314 H 0.41247 0.95644 0.11587 0.0
H1315 H 0.43728 0.94432 0.09125 0.0
C1316 C 0.38563 0.02973 0.11614 0.0
C1317 C 0.41508 0.03007 0.11672 0.0
C1318 C 0.37572 0.01272 0.10187 0.0
C1319 C 0.39493 0.99554 0.08781 0.0
C1320 C 0.4242 0.99676 0.08707 0.0
H1321 H 0.37443 0.86675 1.01127 0.0
H1322 H 0.39055 0.89924 0.03189 0.0
C1323 C 0.43419 0.01373 0.10148 0.0
C1324 C 0.38425 0.97553 0.07548 0.0
H1325 H 0.38778 0.91458 0.07625 0.0
C1326 C 0.36307 0.98107 0.05844 0.0
C1327 C 0.39337 0.95115 0.08176 0.0
C1328 C 0.4159 0.94385 0.09999 0.0
C1329 C 0.35092 0.96297 0.04748 0.0
C1330 C 0.35932 0.93867 0.05442 0.0
C1331 C 0.3808 0.93318 0.07122 0.0
C1332 C 0.34816 0.91831 0.04306 0.0
C1333 C 0.32995 0.96999 0.02799 0.0
C1334 C 0.31867 0.91746 0.04285 0.0
C1335 C 0.30915 0.89838 0.03091 0.0
C1336 C 0.32907 0.87984 1.01926 0.0
C1337 C 0.35843 0.88045 1.02049 0.0
C1338 C 0.36779 0.89924 0.03215 0.0
H1339 H 0.33158 0.98785 1.02031 0.0
H1340 H 0.33349 0.95644 1.01293 0.0
H1341 H 0.30788 0.97108 0.03594 0.0
H1342 H 0.30302 0.93169 0.05158 0.0
H1343 H 0.28645 0.8987 0.02992 0.0
H1344 H 0.90424 0.40036 0.7273 0.0
H1345 H 0.85676 0.38993 0.72572 0.0
H1346 H 0.83627 0.41599 0.79939 0.0
H1347 H 0.88357 0.42666 0.80091 0.0
H1348 H 0.85188 0.35625 0.77544 0.0
H1349 H 0.7588 0.42633 0.75285 0.0
H1350 H 0.79323 0.42712 0.73786 0.0
H1351 H 0.78788 0.43311 0.7699 0.0
C1352 C 0.88884 0.40554 0.74243 0.0
C1353 C 0.89738 0.41418 0.76422 0.0
C1354 C 0.86186 0.3993 0.74167 0.0
C1355 C 0.84337 0.40196 0.76258 0.0
C1356 C 0.85028 0.41394 0.78309 0.0
H1357 H 0.69833 0.33374 0.74088 0.0
H1358 H 0.72723 0.35198 0.76855 0.0
C1359 C 0.87718 0.42023 0.78383 0.0
C1360 C 0.82125 0.38699 0.76485 0.0
H1361 H 0.75297 0.38564 0.75088 0.0
C1362 C 0.83001 0.36268 0.77056 0.0
C1363 C 0.79268 0.39573 0.7595 0.0
C1364 C 0.7823 0.42203 0.75478 0.0
C1365 C 0.8115 0.34629 0.76869 0.0
C1366 C 0.78391 0.35443 0.76021 0.0
C1367 C 0.77424 0.37927 0.75711 0.0
C1368 C 0.76754 0.33762 0.74924 0.0
C1369 C 0.82226 0.32027 0.77463 0.0
C1370 C 0.78075 0.32239 0.73009 0.0
C1371 C 0.76438 0.31208 0.71429 0.0
C1372 C 0.73441 0.31704 0.71714 0.0
C1373 C 0.72138 0.33002 0.73793 0.0
C1374 C 0.73785 0.34036 0.75383 0.0
H1375 H 0.8361 0.31894 0.7904 0.0
H1376 H 0.80443 0.31053 0.77881 0.0
H1377 H 0.83559 0.31123 0.75892 0.0
H1378 H 0.80349 0.32039 0.72575 0.0
H1379 H 0.77517 0.30238 0.69842 0.0
H1380 H 0.92445 0.41781 0.86793 0.0
H1381 H 0.91291 0.45159 0.89696 0.0
H1382 H 0.97436 0.48688 0.85882 0.0
H1383 H 0.98464 0.45356 0.8289 0.0
H1384 H 0.93555 0.47003 0.92987 0.0
H1385 H 0.91624 0.54471 0.86524 0.0
H1386 H 0.92143 0.51375 0.85524 0.0
H1387 H 0.95177 0.52769 0.86062 0.0
C1388 C 0.93533 0.43289 0.86543 0.0
C1389 C 0.9553 0.43271 0.84551 0.0
C1390 C 0.92874 0.45244 0.88234 0.0
C1391 C 0.94198 0.47284 0.88045 0.0
C1392 C 0.96255 0.47236 0.86078 0.0
H1393 H 0.93786 0.60087 0.9786 0.0
H1394 H 0.94958 0.56879 0.94729 0.0
C1395 C 0.96876 0.45293 0.84354 0.0
C1396 C 0.93474 0.49378 0.89937 0.0
H1397 H 0.92 0.55577 0.90652 0.0
C1398 C 0.93198 0.48869 0.92444 0.0
C1399 C 0.92977 0.5187 0.89323 0.0
C1400 C 0.92964 0.52657 0.86712 0.0
C1401 C 0.92511 0.50704 0.94286 0.0
C1402 C 0.92063 0.53183 0.93669 0.0
C1403 C 0.9235 0.53703 0.91174 0.0
C1404 C 0.91279 0.55236 0.95573 0.0
C1405 C 0.92325 0.4996 0.96905 0.0
C1406 C 0.88775 0.55484 0.97115 0.0
C1407 C 0.88076 0.57352 0.98902 0.0
C1408 C 0.89855 0.59061 0.99249 0.0
C1409 C 0.92342 0.58832 0.97683 0.0
C1410 C 0.93022 0.56978 0.95872 0.0
H1411 H 0.93416 0.48068 0.9715 0.0
H1412 H 0.93286 0.51153 0.98095 0.0
H1413 H 0.90043 0.50104 0.97512 0.0
H1414 H 0.87335 0.54227 0.96936 0.0
H1415 H 0.86143 0.5743 1.00044 0.0
H1416 H 0.77772 0.59454 0.18534 0.0
H1417 H 0.74419 0.59899 0.22066 0.0
H1418 H 0.72935 0.67614 0.21337 0.0
H1419 H 0.763 0.67186 0.17793 0.0
H1420 H 0.72121 0.63329 0.26612 0.0
H1421 H 0.66349 0.64411 0.18009 0.0
H1422 H 0.70118 0.63172 0.18049 0.0
H1423 H 0.68875 0.66352 0.18468 0.0
C1424 C 0.76862 0.61251 0.19212 0.0
C1425 C 0.77185 0.63286 0.17856 0.0
C1426 C 0.74957 0.615 0.21234 0.0
C1427 C 0.73394 0.6378 0.21889 0.0
C1428 C 0.74119 0.65841 0.20819 0.0
H1429 H 0.57202 0.69412 0.2807 0.0
H1430 H 0.61205 0.68197 0.25127 0.0
C1431 C 0.76015 0.65594 0.1879 0.0
C1432 C 0.70538 0.63929 0.23042 0.0
H1433 H 0.63535 0.64671 0.21667 0.0
C1434 C 0.70237 0.63616 0.25546 0.0
C1435 C 0.68117 0.64267 0.21606 0.0
C1436 C 0.68365 0.64554 0.18881 0.0
C1437 C 0.67525 0.63729 0.26687 0.0
C1438 C 0.65096 0.64094 0.25252 0.0
C1439 C 0.65415 0.64355 0.22738 0.0
C1440 C 0.62197 0.64528 0.26384 0.0
C1441 C 0.67276 0.63558 0.29423 0.0
C1442 C 0.6129 0.62794 0.27879 0.0
C1443 C 0.59032 0.63492 0.29586 0.0
C1444 C 0.57661 0.65915 0.29766 0.0
C1445 C 0.58267 0.67543 0.27992 0.0
C1446 C 0.6055 0.66851 0.26311 0.0
H1447 H 0.69292 0.6374 0.30273 0.0
H1448 H 0.65527 0.64975 0.30205 0.0
H1449 H 0.66771 0.61779 0.2992 0.0
H1450 H 0.62498 0.60971 0.27891 0.0
H1451 H 0.58532 0.62189 0.30897 0.0
H1452 H 0.63625 0.36791 0.55708 0.0
H1453 H 0.6309 0.40604 0.53557 0.0
H1454 H 0.53989 0.40881 0.53461 0.0
H1455 H 0.54491 0.37103 0.5567 0.0
H1456 H 0.61078 0.42039 0.49217 0.0
H1457 H 0.54251 0.4732 0.56559 0.0
H1458 H 0.5612 0.44282 0.5698 0.0
H1459 H 0.52808 0.44823 0.55465 0.0
C1460 C 0.61513 0.37643 0.55199 0.0
C1461 C 0.591 0.36642 0.55868 0.0
C1462 C 0.61208 0.39833 0.53981 0.0
C1463 C 0.5849 0.41063 0.53402 0.0
C1464 C 0.56097 0.40005 0.53954 0.0
H1465 H 0.52885 0.54334 0.45548 0.0
H1466 H 0.53126 0.50523 0.47717 0.0
C1467 C 0.56394 0.37826 0.55191 0.0
C1468 C 0.5817 0.4345 0.5222 0.0
H1469 H 0.54826 0.49343 0.52839 0.0
C1470 C 0.59716 0.43634 0.50014 0.0
C1471 C 0.56403 0.45539 0.53269 0.0
C1472 C 0.54823 0.45494 0.5571 0.0
C1473 C 0.59514 0.45837 0.4881 0.0
C1474 C 0.57731 0.47915 0.49844 0.0
C1475 C 0.56176 0.47739 0.52046 0.0
C1476 C 0.57515 0.50293 0.48672 0.0
C1477 C 0.61192 0.45923 0.46425 0.0
C1478 C 0.59883 0.51442 0.48534 0.0
C1479 C 0.59757 0.53606 0.47295 0.0
C1480 C 0.57253 0.54672 0.46169 0.0
C1481 C 0.54856 0.53544 0.46364 0.0
C1482 C 0.54982 0.51379 0.47617 0.0
H1483 H 0.6199 0.44097 0.4563 0.0
H1484 H 0.59861 0.47021 0.45091 0.0
H1485 H 0.63065 0.46779 0.46727 0.0
H1486 H 0.61849 0.50643 0.49355 0.0
H1487 H 0.61651 0.54411 0.47166 0.0
H1488 H 0.28698 0.3733 0.13735 0.0
H1489 H 0.31917 0.33486 0.14141 0.0
H1490 H 0.34821 0.36021 0.20795 0.0
H1491 H 0.315 0.39869 0.20447 0.0
H1492 H 0.37459 0.31825 0.14333 0.0
H1493 H 0.32292 0.30088 0.23227 0.0
H1494 H 0.30861 0.32599 0.21379 0.0
H1495 H 0.33848 0.32743 0.23216 0.0
C1496 C 0.30029 0.37092 0.15285 0.0
C1497 C 0.29788 0.38922 0.17079 0.0
C1498 C 0.31887 0.34875 0.15511 0.0
C1499 C 0.33577 0.34405 0.17535 0.0
C1500 C 0.33481 0.36285 0.19253 0.0
H1501 H 0.46225 0.20665 0.18258 0.0
H1502 H 0.44059 0.24908 0.17698 0.0
C1503 C 0.31595 0.38506 0.1904 0.0
C1504 C 0.35308 0.31918 0.17874 0.0
H1505 H 0.36182 0.27154 0.2176 0.0
C1506 C 0.37185 0.3081 0.15964 0.0
C1507 C 0.34946 0.30554 0.19984 0.0
C1508 C 0.3286 0.31542 0.22059 0.0
C1509 C 0.38661 0.28401 0.16091 0.0
C1510 C 0.38312 0.27045 0.18212 0.0
C1511 C 0.36472 0.2817 0.20132 0.0
C1512 C 0.39693 0.24432 0.18452 0.0
C1513 C 0.40493 0.27309 0.13906 0.0
C1514 C 0.38003 0.22716 0.19107 0.0
C1515 C 0.39246 0.20296 0.19468 0.0
C1516 C 0.42225 0.19504 0.19183 0.0
C1517 C 0.43923 0.21204 0.18487 0.0
C1518 C 0.42677 0.23638 0.18146 0.0
H1519 H 0.39915 0.28323 0.12226 0.0
H1520 H 0.42766 0.2736 0.1421 0.0
H1521 H 0.40292 0.25404 0.13608 0.0
H1522 H 0.35702 0.23253 0.19358 0.0
H1523 H 0.37867 0.19047 0.20004 0.0
H1524 H 0.86597 0.28664 0.87899 0.0
H1525 H 0.8412 0.25605 0.8969 0.0
H1526 H 0.87934 0.20553 0.84038 0.0
H1527 H 0.9045 0.2357 0.8226 0.0
H1528 H 0.82003 0.20559 0.85031 0.0
H1529 H 0.87883 0.19695 0.93531 0.0
H1530 H 0.8622 0.22698 0.9276 0.0
H1531 H 0.89128 0.21096 0.90849 0.0
C1532 C 0.86938 0.26898 0.87041 0.0
C1533 C 0.88759 0.26389 0.84925 0.0
C1534 C 0.85507 0.25142 0.88073 0.0
C1535 C 0.85856 0.22816 0.87029 0.0
C1536 C 0.87616 0.22321 0.84891 0.0
H1537 H 0.82411 0.09352 0.93457 0.0
H1538 H 0.84526 0.12789 0.92024 0.0
C1539 C 0.89051 0.24069 0.83864 0.0
C1540 C 0.84429 0.20887 0.88162 0.0
H1541 H 0.84255 0.17399 0.93227 0.0
C1542 C 0.82491 0.19875 0.86827 0.0
C1543 C 0.8507 0.19959 0.90498 0.0
C1544 C 0.87204 0.20896 0.91996 0.0
C1545 C 0.81189 0.17985 0.8775 0.0
C1546 C 0.81807 0.17067 0.90105 0.0
C1547 C 0.83755 0.18081 0.91434 0.0
C1548 C 0.805 0.15041 0.91198 0.0
C1549 C 0.79225 0.16951 0.86143 0.0
C1550 C 0.77519 0.15165 0.91334 0.0
C1551 C 0.7632 0.13198 0.92139 0.0
C1552 C 0.78043 0.1106 0.92912 0.0
C1553 C 0.81012 0.10981 0.92929 0.0
C1554 C 0.82223 0.12947 0.92081 0.0
H1555 H 0.79658 0.17314 0.84192 0.0
H1556 H 0.79446 0.14976 0.86366 0.0
H1557 H 0.76976 0.17806 0.86632 0.0
H1558 H 0.76106 0.16767 0.9076 0.0
H1559 H 0.74026 0.13323 0.92085 0.0
H1560 H 0.13053 0.51062 0.20325 0.0
H1561 H 0.08578 0.53724 0.19234 0.0
H1562 H 0.11127 0.52569 0.11628 0.0
H1563 H 0.15553 0.5003 0.12689 0.0
H1564 H 0.08553 0.5709 0.1239 0.0
H1565 H 0.01977 0.50959 0.16703 0.0
H1566 H 0.0423 0.52169 0.18713 0.0
H1567 H 0.05812 0.50162 0.16268 0.0
C1568 C 0.12674 0.51428 0.1843 0.0
C1569 C 0.14636 0.50302 0.16598 0.0
C1570 C 0.10104 0.52922 0.17802 0.0
C1571 C 0.09472 0.53303 0.1534 0.0
C1572 C 0.11532 0.52302 0.13535 0.0
H1573 H 0.93015 0.55905 0.08882 0.0
H1574 H 0.97638 0.54297 0.10567 0.0
C1575 C 0.14069 0.50833 0.14153 0.0
C1576 C 0.06637 0.54611 0.14576 0.0
H1577 H 0.99531 0.54313 0.1471 0.0
C1578 C 0.06572 0.56498 0.12915 0.0
C1579 C 0.0406 0.53796 0.15195 0.0
C1580 C 0.04007 0.51648 0.16798 0.0
C1581 C 0.04036 0.57556 0.11827 0.0
C1582 C 0.01437 0.56783 0.12496 0.0
C1583 C 0.01499 0.54926 0.14196 0.0
C1584 C 0.98655 0.57789 0.11399 0.0
C1585 C 0.04226 0.59396 0.09878 0.0
C1586 C 0.9765 0.6029 0.11289 0.0
C1587 C 0.95061 0.61202 0.10234 0.0
C1588 C 0.93357 0.59637 0.09368 0.0
C1589 C 0.94296 0.57146 0.09542 0.0
C1590 C 0.96936 0.56231 0.10514 0.0
H1591 H 0.06426 0.59185 0.0903 0.0
H1592 H 0.02734 0.59258 0.08421 0.0
H1593 H 0.03681 0.61229 0.10706 0.0
H1594 H 0.98848 0.61544 0.1204 0.0
H1595 H 0.94351 0.63134 0.10156 0.0
H1596 H 0.75294 0.86077 0.3887 0.0
H1597 H 0.72229 0.83108 0.38271 0.0
H1598 H 0.65678 0.87212 0.43071 0.0
H1599 H 0.68774 0.9018 0.43726 0.0
H1600 H 0.6942 0.80355 0.42223 0.0
H1601 H 0.61665 0.85994 0.36436 0.0
H1602 H 0.65248 0.86557 0.36722 0.0
H1603 H 0.6263 0.87311 0.39191 0.0
C1604 C 0.73207 0.86358 0.39814 0.0
C1605 C 0.72314 0.88394 0.41359 0.0
C1606 C 0.71443 0.84644 0.39464 0.0
C1607 C 0.68683 0.84917 0.40598 0.0
C1608 C 0.67776 0.86945 0.42148 0.0
H1609 H 0.5512 0.7603 0.38797 0.0
H1610 H 0.57651 0.79389 0.39538 0.0
C1611 C 0.69567 0.88644 0.42536 0.0
C1612 C 0.66808 0.8306 0.40179 0.0
H1613 H 0.60919 0.82065 0.37231 0.0
C1614 C 0.6756 0.80738 0.41133 0.0
C1615 C 0.64339 0.83532 0.38789 0.0
C1616 C 0.63407 0.85976 0.37708 0.0
C1617 C 0.65946 0.78908 0.40746 0.0
C1618 C 0.63542 0.79337 0.39259 0.0
C1619 C 0.62755 0.81684 0.38347 0.0
C1620 C 0.61898 0.77364 0.38594 0.0
C1621 C 0.66808 0.76545 0.42015 0.0
C1622 C 0.63362 0.75109 0.37692 0.0
C1623 C 0.61918 0.73194 0.3729 0.0
C1624 C 0.58927 0.7346 0.37687 0.0
C1625 C 0.57412 0.75757 0.38428 0.0
C1626 C 0.58876 0.7768 0.38875 0.0
H1627 H 0.67908 0.76788 0.43706 0.0
H1628 H 0.64932 0.75702 0.42496 0.0
H1629 H 0.68333 0.75292 0.40801 0.0
H1630 H 0.65658 0.74799 0.37344 0.0
H1631 H 0.63172 0.71461 0.36725 0.0
H1632 H 0.57597 0.3967 0.61848 0.0
H1633 H 0.53031 0.42507 0.61944 0.0
H1634 H 0.49284 0.37894 0.66844 0.0
H1635 H 0.53852 0.35033 0.66751 0.0
H1636 H 0.46424 0.40654 0.61509 0.0
H1637 H 0.49278 0.45634 0.69524 0.0
H1638 H 0.52048 0.44302 0.67306 0.0
H1639 H 0.50304 0.42403 0.69218 0.0
C1640 C 0.55811 0.39277 0.62969 0.0
C1641 C 0.56071 0.37159 0.64322 0.0
C1642 C 0.53203 0.40875 0.62993 0.0
C1643 C 0.50841 0.4038 0.64381 0.0
C1644 C 0.51093 0.38278 0.65746 0.0
H1645 H 0.36915 0.52145 0.68158 0.0
H1646 H 0.39836 0.48105 0.68146 0.0
C1647 C 0.53699 0.3667 0.65714 0.0
C1648 C 0.48185 0.42176 0.64547 0.0
H1649 H 0.45217 0.47395 0.67508 0.0
C1650 C 0.46118 0.42118 0.62836 0.0
C1651 C 0.47805 0.4404 0.66305 0.0
C1652 C 0.49963 0.44117 0.68206 0.0
C1653 C 0.43693 0.43956 0.62791 0.0
C1654 C 0.43402 0.45916 0.64459 0.0
C1655 C 0.4543 0.45899 0.66229 0.0
C1656 C 0.41161 0.48102 0.64323 0.0
C1657 C 0.41487 0.43774 0.60961 0.0
C1658 C 0.40854 0.49413 0.6216 0.0
C1659 C 0.39126 0.51697 0.62155 0.0
C1660 C 0.37768 0.52729 0.64329 0.0
C1661 C 0.37984 0.5139 0.66468 0.0
C1662 C 0.39637 0.49082 0.66457 0.0
H1663 H 0.41423 0.41863 0.6053 0.0
H1664 H 0.39318 0.44692 0.61627 0.0
H1665 H 0.42072 0.44625 0.59244 0.0
H1666 H 0.42068 0.48733 0.60507 0.0
H1667 H 0.38986 0.52709 0.60487 0.0
H1668 H 0.28455 0.67636 0.68788 0.0
H1669 H 0.24837 0.7131 0.69394 0.0
H1670 H 0.22638 0.70895 0.61924 0.0
H1671 H 0.26218 0.67223 0.61307 0.0
H1672 H 0.24267 0.75709 0.66958 0.0
H1673 H 0.14888 0.71401 0.65667 0.0
H1674 H 0.18386 0.69699 0.66235 0.0
H1675 H 0.17593 0.70786 0.63238 0.0
C1676 C 0.27218 0.68335 0.67269 0.0
C1677 C 0.27617 0.67125 0.65002 0.0
C1678 C 0.25141 0.70429 0.67623 0.0
C1679 C 0.23421 0.71342 0.65719 0.0
C1680 C 0.23885 0.70184 0.63436 0.0
H1681 H 0.10139 0.83882 0.63481 0.0
H1682 H 0.13461 0.79969 0.63133 0.0
C1683 C 0.25951 0.68094 0.63083 0.0
C1684 C 0.21185 0.73539 0.66087 0.0
H1685 H 0.14028 0.75692 0.65695 0.0
C1686 C 0.22025 0.75705 0.66699 0.0
C1687 C 0.18261 0.73526 0.65748 0.0
C1688 C 0.17216 0.71226 0.65208 0.0
C1689 C 0.20039 0.77877 0.66906 0.0
C1690 C 0.17114 0.77874 0.66538 0.0
C1691 C 0.16268 0.75698 0.65956 0.0
C1692 C 0.14912 0.80114 0.66788 0.0
C1693 C 0.21116 0.80163 0.6745 0.0
C1694 C 0.14541 0.8144 0.68976 0.0
C1695 C 0.12706 0.83669 0.69148 0.0
C1696 C 0.11138 0.84599 0.6717 0.0
C1697 C 0.11345 0.83207 0.65027 0.0
C1698 C 0.13237 0.80979 0.64832 0.0
H1699 H 0.23444 0.79972 0.66982 0.0
H1700 H 0.19961 0.81704 0.66435 0.0
H1701 H 0.20766 0.80589 0.69424 0.0
H1702 H 0.15719 0.80775 0.70541 0.0
H1703 H 0.12503 0.84673 0.70833 0.0
H1704 H 0.47576 0.91726 0.98061 0.0
H1705 H 0.51715 0.93752 0.98104 0.0
H1706 H 0.54073 0.91435 0.90693 0.0
H1707 H 0.4998 0.89412 0.90635 0.0
H1708 H 0.57578 0.91979 0.97348 0.0
H1709 H 0.53985 0.98624 0.90293 0.0
H1710 H 0.51624 0.96863 0.91777 0.0
H1711 H 0.54059 0.95581 0.89307 0.0
C1712 C 0.4898 0.91639 0.96441 0.0
C1713 C 0.48401 0.90421 0.94333 0.0
C1714 C 0.51346 0.92809 0.96466 0.0
C1715 C 0.53189 0.92798 0.94384 0.0
C1716 C 0.5265 0.91539 0.92303 0.0
H1717 H 0.68283 0.98401 0.89579 0.0
H1718 H 0.64155 0.96401 0.90089 0.0
C1719 C 0.50294 0.90377 0.92274 0.0
C1720 C 0.55708 0.9405 0.94377 0.0
H1721 H 0.58863 0.98178 0.91274 0.0
C1722 C 0.5785 0.93349 0.96033 0.0
C1723 C 0.56075 0.95849 0.92671 0.0
C1724 C 0.53801 0.96794 0.90928 0.0
C1725 C 0.60391 0.94305 0.95955 0.0
C1726 C 0.60792 0.96065 0.94204 0.0
C1727 C 0.58603 0.96813 0.92598 0.0
C1728 C 0.63461 0.97132 0.9396 0.0
C1729 C 0.62663 0.93341 0.97693 0.0
C1730 C 0.64506 0.98201 0.9596 0.0
C1731 C 0.66926 0.99286 0.9568 0.0
C1732 C 0.68318 0.99398 0.93378 0.0
C1733 C 0.6728 0.98331 0.9138 0.0
C1734 C 0.649 0.97199 0.9167 0.0
H1735 H 0.62428 0.91534 0.98362 0.0
H1736 H 0.64843 0.93208 0.96828 0.0
H1737 H 0.6245 0.94571 0.99297 0.0
H1738 H 0.63403 0.98265 0.97732 0.0
H1739 H 0.67623 1.00141 0.97249 0.0
H1740 H 0.82018 1.00759 0.45142 0.0
H1741 H 0.85193 0.03697 0.45391 0.0
H1742 H 0.8775 0.02457 0.37817 0.0
H1743 H 0.84611 0.99464 0.37562 0.0
H1744 H 0.91899 0.02756 0.43654 0.0
H1745 H 0.84827 0.10267 0.39253 0.0
H1746 H 0.8341 0.07959 0.40907 0.0
H1747 H 0.85203 0.07268 0.37981 0.0
C1748 C 0.83236 1.01109 0.43514 0.0
C1749 C 0.83011 0.99853 0.41322 0.0
C1750 C 0.85077 0.02798 0.43667 0.0
C1751 C 0.86739 0.03334 0.41627 0.0
C1752 C 0.86504 0.02102 0.39428 0.0
H1753 H 0.97426 0.1435 0.38717 0.0
H1754 H 0.9438 0.1133 0.38533 0.0
C1755 C 0.84693 1.00381 0.39281 0.0
C1756 C 0.88706 0.05165 0.41802 0.0
H1757 H 0.8931 0.10967 0.40356 0.0
C1758 C 0.91325 0.04552 0.42934 0.0
C1759 C 0.88004 0.07522 0.40869 0.0
C1760 C 0.85207 0.08321 0.39688 0.0
C1761 C 0.93252 0.06187 0.43112 0.0
C1762 C 0.92542 0.08567 0.42196 0.0
C1763 C 0.89908 0.09171 0.41069 0.0
C1764 C 0.94497 0.10432 0.42343 0.0
C1765 C 0.96085 0.053 0.44211 0.0
C1766 C 0.95622 0.11022 0.44548 0.0
C1767 C 0.97418 0.12758 0.44657 0.0
C1768 C 0.98162 0.14004 0.42569 0.0
C1769 C 0.96996 0.1343 0.40372 0.0
C1770 C 0.95205 0.11695 0.40266 0.0
H1771 H 0.96685 0.03305 0.44102 0.0
H1772 H 0.97823 0.06077 0.43287 0.0
H1773 H 0.95923 0.05838 0.46161 0.0
H1774 H 0.95088 0.10159 0.46211 0.0
H1775 H 0.98245 0.131 0.46393 0.0
loop_
_geom_bond_atom_site_label_1
_geom_bond_atom_site_label_2
_geom_bond_distance
_geom_bond_site_symmetry_2
_ccdc_geom_bond_type
Nd0 C2 2.836 . S
Nd0 O20 2.500 . S
Nd0 O21 2.492 . S
Nd0 O22 2.487 . S
Nd0 O23 2.682 . S
Nd0 O24 2.410 . S
Nd0 O29 2.414 . S
Nd0 O31 2.424 . S
Nd1 C11 2.836 . S
Nd1 O23 2.414 . S
Nd1 O25 2.424 . S
Nd1 O26 2.500 . S
Nd1 O27 2.492 . S
Nd1 O28 2.487 . S
Nd1 O29 2.682 . S
Nd1 O30 2.410 . S
C2 Nd0 2.836 . S
C2 C3 1.498 . S
C2 O20 1.258 . S
C2 O21 1.239 . S
C3 C2 1.498 . S
C3 C4 1.366 . S
C3 C8 1.407 . S
C4 C3 1.366 . S
C4 C5 1.392 . S
C4 H32 0.930 . S
C5 C4 1.392 . S
C5 C6 1.398 . S
C5 H33 0.929 1_455 S
C6 C5 1.398 . S
C6 C7 1.352 . S
C7 C6 1.352 . S
C7 C8 1.384 . S
C7 H34 0.930 . S
C8 C3 1.407 . S
C8 C7 1.384 . S
C8 H35 0.929 . S
C9 O22 1.241 . S
C9 O23 1.273 . S
C10 O24 1.251 . S
C10 O25 1.268 . S
C11 Nd1 2.836 . S
C11 C12 1.498 . S
C11 O26 1.258 . S
C11 O27 1.239 . S
C12 C11 1.498 . S
C12 C13 1.366 . S
C12 C17 1.407 . S
C13 C12 1.366 . S
C13 C14 1.392 . S
C13 H36 0.930 . S
C14 C13 1.392 . S
C14 C15 1.398 . S
C14 H37 0.929 . S
C15 C14 1.398 . S
C15 C16 1.352 . S
C16 C15 1.352 . S
C16 C17 1.384 . S
C16 H38 0.930 . S
C17 C12 1.407 . S
C17 C16 1.384 . S
C17 H39 0.929 . S
C18 O28 1.241 . S
C18 O29 1.273 . S
C19 O30 1.251 . S
C19 O31 1.268 . S
O20 Nd0 2.500 . S
O20 C2 1.258 . S
O21 Nd0 2.492 . S
O21 C2 1.239 . S
O22 Nd0 2.487 . S
O22 C9 1.241 . S
O23 Nd0 2.682 . S
O23 Nd1 2.414 . S
O23 C9 1.273 . S
O24 Nd0 2.410 . S
O24 C10 1.251 . S
O25 Nd1 2.424 . S
O25 C10 1.268 . S
O26 Nd1 2.500 . S
O26 C11 1.258 . S
O27 Nd1 2.492 . S
O27 C11 1.239 . S
O28 Nd1 2.487 . S
O28 C18 1.241 . S
O29 Nd0 2.414 . S
O29 Nd1 2.682 . S
O29 C18 1.273 . S
O30 Nd1 2.410 . S
O30 C19 1.251 . S
O31 Nd0 2.424 . S
O31 C19 1.268 . S
H32 C4 0.930 . S
H33 C5 0.929 1_655 S
H34 C7 0.930 . S
H35 C8 0.929 . S
H36 C13 0.930 . S
H37 C14 0.929 . S
H38 C16 0.930 . S
H39 C17 0.929 . S
Nd40 C42 2.836 . S
Nd40 O60 2.500 . S
Nd40 O61 2.492 . S
Nd40 O62 2.487 . S
Nd40 O63 2.682 . S
Nd40 O64 2.410 . S
Nd40 O69 2.414 . S
Nd40 O71 2.424 . S
Nd41 C51 2.836 . S
Nd41 O63 2.414 . S
Nd41 O65 2.424 . S
Nd41 O66 2.500 . S
Nd41 O67 2.492 . S
Nd41 O68 2.487 . S
Nd41 O69 2.682 . S
Nd41 O70 2.410 . S
C42 Nd40 2.836 . S
C42 C43 1.498 . S
C42 O60 1.258 . S
C42 O61 1.239 . S
C43 C42 1.498 . S
C43 C44 1.366 . S
C43 C48 1.407 . S
C44 C43 1.366 . S
C44 C45 1.392 . S
C44 H72 0.930 . S
C45 C44 1.392 . S
C45 C46 1.398 . S
C45 H73 0.929 . S
C46 C45 1.398 . S
C46 C47 1.352 . S
C47 C46 1.352 . S
C47 C48 1.384 . S
C47 H74 0.930 . S
C48 C43 1.407 . S
C48 C47 1.384 . S
C48 H75 0.929 . S
C49 O62 1.241 . S
C49 O63 1.273 . S
C50 O64 1.251 . S
C50 O65 1.268 . S
C51 Nd41 2.836 . S
C51 C52 1.498 . S
C51 O66 1.258 . S
C51 O67 1.239 . S
C52 C51 1.498 . S
C52 C53 1.366 . S
C52 C57 1.407 . S
C53 C52 1.366 . S
C53 C54 1.392 . S
C53 H76 0.930 . S
C54 C53 1.392 . S
C54 C55 1.398 . S
C54 H77 0.929 . S
C55 C54 1.398 . S
C55 C56 1.352 . S
C56 C55 1.352 . S
C56 C57 1.384 . S
C56 H78 0.930 . S
C57 C52 1.407 . S
C57 C56 1.384 . S
C57 H79 0.929 . S
C58 O68 1.241 . S
C58 O69 1.273 . S
C59 O70 1.251 . S
C59 O71 1.268 . S
O60 Nd40 2.500 . S
O60 C42 1.258 . S
O61 Nd40 2.492 . S
O61 C42 1.239 . S
O62 Nd40 2.487 . S
O62 C49 1.241 . S
O63 Nd40 2.682 . S
O63 Nd41 2.414 . S
O63 C49 1.273 . S
O64 Nd40 2.410 . S
O64 C50 1.251 . S
O65 Nd41 2.424 . S
O65 C50 1.268 . S
O66 Nd41 2.500 . S
O66 C51 1.258 . S
O67 Nd41 2.492 . S
O67 C51 1.239 . S
O68 Nd41 2.487 . S
O68 C58 1.241 . S
O69 Nd40 2.414 . S
O69 Nd41 2.682 . S
O69 C58 1.273 . S
O70 Nd41 2.410 . S
O70 C59 1.251 . S
O71 Nd40 2.424 . S
O71 C59 1.268 . S
H72 C44 0.930 . S
H73 C45 0.929 . S
H74 C47 0.930 . S
H75 C48 0.929 . S
H76 C53 0.930 . S
H77 C54 0.929 . S
H78 C56 0.930 . S
H79 C57 0.929 . S
Nd80 C82 2.836 . S
Nd80 O100 2.500 . S
Nd80 O101 2.492 . S
Nd80 O102 2.487 . S
Nd80 O103 2.682 . S
Nd80 O104 2.410 . S
Nd80 O109 2.414 . S
Nd80 O111 2.424 . S
Nd81 C91 2.836 . S
Nd81 O103 2.414 . S
Nd81 O105 2.424 . S
Nd81 O106 2.500 . S
Nd81 O107 2.492 . S
Nd81 O108 2.487 . S
Nd81 O109 2.682 . S
Nd81 O110 2.410 . S
C82 Nd80 2.836 . S
C82 C83 1.498 . S
C82 O100 1.258 . S
C82 O101 1.239 . S
C83 C82 1.498 . S
C83 C84 1.366 . S
C83 C88 1.407 . S
C84 C83 1.366 . S
C84 C85 1.392 . S
C84 H112 0.930 . S
C85 C84 1.392 . S
C85 C86 1.398 . S
C85 H113 0.929 . S
C86 C85 1.398 . S
C86 C87 1.352 . S
C87 C86 1.352 . S
C87 C88 1.384 . S
C87 H114 0.930 . S
C88 C83 1.407 . S
C88 C87 1.384 . S
C88 H115 0.929 . S
C89 O102 1.241 . S
C89 O103 1.273 . S
C90 O104 1.251 . S
C90 O105 1.268 . S
C91 Nd81 2.836 . S
C91 C92 1.498 . S
C91 O106 1.258 . S
C91 O107 1.239 . S
C92 C91 1.498 . S
C92 C93 1.366 . S
C92 C97 1.407 . S
C93 C92 1.366 . S
C93 C94 1.392 . S
C93 H116 0.930 . S
C94 C93 1.392 . S
C94 C95 1.398 . S
C94 H117 0.929 . S
C95 C94 1.398 . S
C95 C96 1.352 . S
C96 C95 1.352 . S
C96 C97 1.384 . S
C96 H118 0.930 1_556 S
C97 C92 1.407 . S
C97 C96 1.384 . S
C97 H119 0.906 1_556 S
C98 O108 1.241 . S
C98 O109 1.273 . S
C99 O110 1.251 . S
C99 O111 1.268 . S
O100 Nd80 2.500 . S
O100 C82 1.258 . S
O101 Nd80 2.492 . S
O101 C82 1.239 . S
O102 Nd80 2.487 . S
O102 C89 1.241 . S
O103 Nd80 2.682 . S
O103 Nd81 2.414 . S
O103 C89 1.273 . S
O104 Nd80 2.410 . S
O104 C90 1.251 . S
O105 Nd81 2.424 . S
O105 C90 1.268 . S
O106 Nd81 2.500 . S
O106 C91 1.258 . S
O107 Nd81 2.492 . S
O107 C91 1.239 . S
O108 Nd81 2.487 . S
O108 C98 1.241 . S
O109 Nd80 2.414 . S
O109 Nd81 2.682 . S
O109 C98 1.273 . S
O110 Nd81 2.410 . S
O110 C99 1.251 . S
O111 Nd80 2.424 . S
O111 C99 1.268 . S
H112 C84 0.930 . S
H113 C85 0.929 . S
H114 C87 0.930 . S
H115 C88 0.929 . S
H116 C93 0.930 . S
H117 C94 0.929 . S
H118 C96 0.930 1_554 S
H119 C97 0.906 1_554 S
Nd120 C122 2.836 . S
Nd120 O140 2.500 . S
Nd120 O141 2.492 . S
Nd120 O142 2.487 . S
Nd120 O143 2.682 . S
Nd120 O144 2.410 . S
Nd120 O149 2.414 . S
Nd120 O151 2.424 . S
Nd121 C131 2.836 . S
Nd121 O143 2.414 . S
Nd121 O145 2.424 . S
Nd121 O146 2.500 . S
Nd121 O147 2.492 . S
Nd121 O148 2.487 . S
Nd121 O149 2.682 . S
Nd121 O150 2.410 . S
C122 Nd120 2.836 . S
C122 C123 1.498 . S
C122 O140 1.258 . S
C122 O141 1.239 . S
C123 C122 1.498 . S
C123 C124 1.366 . S
C123 C128 1.407 . S
C124 C123 1.366 . S
C124 C125 1.392 . S
C124 H152 0.930 . S
C125 C124 1.392 . S
C125 C126 1.398 . S
C125 H153 0.929 . S
C126 C125 1.398 . S
C126 C127 1.352 . S
C127 C126 1.352 . S
C127 C128 1.384 . S
C127 H154 0.930 . S
C128 C123 1.407 . S
C128 C127 1.384 . S
C128 H155 0.929 . S
C129 O142 1.241 . S
C129 O143 1.273 . S
C130 O144 1.251 . S
C130 O145 1.268 . S
C131 Nd121 2.836 . S
C131 C132 1.498 . S
C131 O146 1.258 . S
C131 O147 1.239 . S
C132 C131 1.498 . S
C132 C133 1.366 . S
C132 C137 1.407 . S
C133 C132 1.366 . S
C133 C134 1.392 . S
C133 H156 0.930 . S
C134 C133 1.392 . S
C134 C135 1.398 . S
C134 H157 0.929 . S
C135 C134 1.398 . S
C135 C136 1.352 . S
C136 C135 1.352 . S
C136 C137 1.384 . S
C136 H158 0.930 . S
C137 C132 1.407 . S
C137 C136 1.384 . S
C137 H159 0.929 . S
C138 O148 1.241 . S
C138 O149 1.273 . S
C139 O150 1.251 . S
C139 O151 1.268 . S
O140 Nd120 2.500 . S
O140 C122 1.258 . S
O141 Nd120 2.492 . S
O141 C122 1.239 . S
O142 Nd120 2.487 . S
O142 C129 1.241 . S
O143 Nd120 2.682 . S
O143 Nd121 2.414 . S
O143 C129 1.273 . S
O144 Nd120 2.410 . S
O144 C130 1.251 . S
O145 Nd121 2.424 . S
O145 C130 1.268 . S
O146 Nd121 2.500 . S
O146 C131 1.258 . S
O147 Nd121 2.492 . S
O147 C131 1.239 . S
O148 Nd121 2.487 . S
O148 C138 1.241 . S
O149 Nd120 2.414 . S
O149 Nd121 2.682 . S
O149 C138 1.273 . S
O150 Nd121 2.410 . S
O150 C139 1.251 . S
O151 Nd120 2.424 . S
O151 C139 1.268 . S
H152 C124 0.930 . S
H153 C125 0.929 . S
H154 C127 0.930 . S
H155 C128 0.929 . S
H156 C133 0.930 . S
H157 C134 0.929 . S
H158 C136 0.930 . S
H159 C137 0.929 . S
Nd160 C162 2.836 . S
Nd160 O180 2.500 . S
Nd160 O181 2.492 . S
Nd160 O182 2.487 . S
Nd160 O183 2.682 . S
Nd160 O184 2.410 . S
Nd160 O189 2.414 . S
Nd160 O191 2.424 . S
Nd161 C171 2.836 . S
Nd161 O183 2.414 . S
Nd161 O185 2.424 . S
Nd161 O186 2.500 . S
Nd161 O187 2.492 . S
Nd161 O188 2.487 . S
Nd161 O189 2.682 . S
Nd161 O190 2.410 . S
C162 Nd160 2.836 . S
C162 C163 1.498 . S
C162 O180 1.258 . S
C162 O181 1.239 . S
C163 C162 1.498 . S
C163 C164 1.366 . S
C163 C168 1.407 . S
C164 C163 1.366 . S
C164 C165 1.392 . S
C164 H192 0.930 . S
C165 C164 1.392 . S
C165 C166 1.398 . S
C165 H193 0.929 . S
C166 C165 1.398 . S
C166 C167 1.352 . S
C167 C166 1.352 . S
C167 C168 1.384 . S
C167 H194 0.930 . S
C168 C163 1.407 . S
C168 C167 1.384 . S
C168 H195 0.929 . S
C169 O182 1.241 . S
C169 O183 1.273 . S
C170 O184 1.251 . S
C170 O185 1.268 . S
C171 Nd161 2.836 . S
C171 C172 1.498 . S
C171 O186 1.258 . S
C171 O187 1.239 . S
C172 C171 1.498 . S
C172 C173 1.366 . S
C172 C177 1.407 . S
C173 C172 1.366 . S
C173 C174 1.392 . S
C173 H196 0.930 . S
C174 C173 1.392 . S
C174 C175 1.398 . S
C174 H197 0.929 . S
C175 C174 1.398 . S
C175 C176 1.352 . S
C176 C175 1.352 . S
C176 C177 1.384 . S
C176 H198 0.930 . S
C177 C172 1.407 . S
C177 C176 1.384 . S
C177 H199 0.929 . S
C178 O188 1.241 . S
C178 O189 1.273 . S
C179 O190 1.251 . S
C179 O191 1.268 . S
O180 Nd160 2.500 . S
O180 C162 1.258 . S
O181 Nd160 2.492 . S
O181 C162 1.239 . S
O182 Nd160 2.487 . S
O182 C169 1.241 . S
O183 Nd160 2.682 . S
O183 Nd161 2.414 . S
O183 C169 1.273 . S
O184 Nd160 2.410 . S
O184 C170 1.251 . S
O185 Nd161 2.424 . S
O185 C170 1.268 . S
O186 Nd161 2.500 . S
O186 C171 1.258 . S
O187 Nd161 2.492 . S
O187 C171 1.239 . S
O188 Nd161 2.487 . S
O188 C178 1.241 . S
O189 Nd160 2.414 . S
O189 Nd161 2.682 . S
O189 C178 1.273 . S
O190 Nd161 2.410 . S
O190 C179 1.251 . S
O191 Nd160 2.424 . S
O191 C179 1.268 . S
H192 C164 0.930 . S
H193 C165 0.929 . S
H194 C167 0.930 . S
H195 C168 0.929 . S
H196 C173 0.930 . S
H197 C174 0.929 . S
H198 C176 0.930 . S
H199 C177 0.929 . S
Nd200 C202 2.836 . S
Nd200 O220 2.500 . S
Nd200 O221 2.492 . S
Nd200 O222 2.487 . S
Nd200 O223 2.682 . S
Nd200 O224 2.410 . S
Nd200 O229 2.414 . S
Nd200 O231 2.424 1_655 S
Nd201 C211 2.836 1_655 S
Nd201 O223 2.414 . S
Nd201 O225 2.424 . S
Nd201 O226 2.500 . S
Nd201 O227 2.492 1_655 S
Nd201 O228 2.487 1_655 S
Nd201 O229 2.682 . S
Nd201 O230 2.410 1_655 S
C202 Nd200 2.836 . S
C202 C203 1.498 . S
C202 O220 1.258 . S
C202 O221 1.239 . S
C203 C202 1.498 . S
C203 C204 1.366 . S
C203 C208 1.407 . S
C204 C203 1.366 . S
C204 C205 1.392 . S
C204 H232 0.930 . S
C205 C204 1.392 . S
C205 C206 1.398 . S
C205 H233 0.929 . S
C206 C205 1.398 . S
C206 C207 1.352 . S
C207 C206 1.352 . S
C207 C208 1.384 . S
C207 H234 0.930 . S
C208 C203 1.407 . S
C208 C207 1.384 . S
C208 H235 0.929 . S
C209 O222 1.241 . S
C209 O223 1.273 . S
C210 O224 1.251 . S
C210 O225 1.268 . S
C211 Nd201 2.836 1_455 S
C211 C212 1.498 . S
C211 O226 1.258 1_455 S
C211 O227 1.239 . S
C212 C211 1.498 . S
C212 C213 1.366 . S
C212 C217 1.407 . S
C213 C212 1.366 . S
C213 C214 1.392 . S
C213 H236 0.930 . S
C214 C213 1.392 . S
C214 C215 1.398 . S
C214 H237 0.929 . S
C215 C214 1.398 . S
C215 C216 1.352 . S
C216 C215 1.352 . S
C216 C217 1.384 . S
C216 H238 0.930 . S
C217 C212 1.407 . S
C217 C216 1.384 . S
C217 H239 0.929 . S
C218 O228 1.241 1_655 S
C218 O229 1.273 . S
C219 O230 1.251 . S
C219 O231 1.268 . S
O220 Nd200 2.500 . S
O220 C202 1.258 . S
O221 Nd200 2.492 . S
O221 C202 1.239 . S
O222 Nd200 2.487 . S
O222 C209 1.241 . S
O223 Nd200 2.682 . S
O223 Nd201 2.414 . S
O223 C209 1.273 . S
O224 Nd200 2.410 . S
O224 C210 1.251 . S
O225 Nd201 2.424 . S
O225 C210 1.268 . S
O226 Nd201 2.500 . S
O226 C211 1.258 1_655 S
O227 Nd201 2.492 1_455 S
O227 C211 1.239 . S
O228 Nd201 2.487 1_455 S
O228 C218 1.241 1_455 S
O229 Nd200 2.414 . S
O229 Nd201 2.682 . S
O229 C218 1.273 . S
O230 Nd201 2.410 1_455 S
O230 C219 1.251 . S
O231 Nd200 2.424 1_455 S
O231 C219 1.268 . S
H232 C204 0.930 . S
H233 C205 0.929 . S
H234 C207 0.930 . S
H235 C208 0.929 . S
H236 C213 0.930 . S
H237 C214 0.929 . S
H238 C216 0.930 . S
H239 C217 0.929 . S
Nd240 C242 2.836 . S
Nd240 O260 2.500 . S
Nd240 O261 2.492 . S
Nd240 O262 2.487 . S
Nd240 O263 2.682 . S
Nd240 O264 2.410 . S
Nd240 O269 2.414 . S
Nd240 O271 2.424 . S
Nd241 C251 2.836 1_554 S
Nd241 O263 2.414 . S
Nd241 O265 2.424 . S
Nd241 O266 2.500 . S
Nd241 O267 2.492 1_554 S
Nd241 O268 2.487 . S
Nd241 O269 2.682 . S
Nd241 O270 2.410 1_554 S
C242 Nd240 2.836 . S
C242 C243 1.498 . S
C242 O260 1.258 . S
C242 O261 1.239 . S
C243 C242 1.498 . S
C243 C244 1.366 . S
C243 C248 1.407 . S
C244 C243 1.366 . S
C244 C245 1.392 . S
C244 H272 0.930 . S
C245 C244 1.392 . S
C245 C246 1.398 . S
C245 H273 0.929 . S
C246 C245 1.398 . S
C246 C247 1.352 . S
C247 C246 1.352 . S
C247 C248 1.384 . S
C247 H274 0.930 . S
C248 C243 1.407 . S
C248 C247 1.384 . S
C248 H275 0.929 . S
C249 O262 1.241 . S
C249 O263 1.273 . S
C250 O264 1.251 . S
C250 O265 1.268 . S
C251 Nd241 2.836 1_556 S
C251 C252 1.498 . S
C251 O266 1.258 1_556 S
C251 O267 1.239 . S
C252 C251 1.498 . S
C252 C253 1.366 . S
C252 C257 1.407 . S
C253 C252 1.366 . S
C253 C254 1.392 . S
C253 H276 0.930 . S
C254 C253 1.392 . S
C254 C255 1.398 . S
C254 H277 0.929 . S
C255 C254 1.398 . S
C255 C256 1.352 . S
C256 C255 1.352 . S
C256 C257 1.384 . S
C256 H278 0.930 . S
C257 C252 1.407 . S
C257 C256 1.384 . S
C257 H279 0.929 . S
C258 O268 1.241 . S
C258 O269 1.273 . S
C259 O270 1.251 . S
C259 O271 1.268 1_556 S
O260 Nd240 2.500 . S
O260 C242 1.258 . S
O261 Nd240 2.492 . S
O261 C242 1.239 . S
O262 Nd240 2.487 . S
O262 C249 1.241 . S
O263 Nd240 2.682 . S
O263 Nd241 2.414 . S
O263 C249 1.273 . S
O264 Nd240 2.410 . S
O264 C250 1.251 . S
O265 Nd241 2.424 . S
O265 C250 1.268 . S
O266 Nd241 2.500 . S
O266 C251 1.258 1_554 S
O267 Nd241 2.492 1_556 S
O267 C251 1.239 . S
O268 Nd241 2.487 . S
O268 C258 1.241 . S
O269 Nd240 2.414 . S
O269 Nd241 2.682 . S
O269 C258 1.273 . S
O270 Nd241 2.410 1_556 S
O270 C259 1.251 . S
O271 Nd240 2.424 . S
O271 C259 1.268 1_554 S
H272 C244 0.930 . S
H273 C245 0.929 . S
H274 C247 0.930 . S
H275 C248 0.929 . S
H276 C253 0.930 . S
H277 C254 0.929 . S
H278 C256 0.930 . S
H279 C257 0.929 . S
Nd280 C282 2.836 . S
Nd280 O300 2.500 . S
Nd280 O301 2.492 . S
Nd280 O302 2.487 . S
Nd280 O303 2.682 . S
Nd280 O304 2.410 . S
Nd280 O309 2.414 . S
Nd280 O311 2.424 . S
Nd281 C291 2.836 . S
Nd281 O303 2.414 . S
Nd281 O305 2.424 . S
Nd281 O306 2.500 . S
Nd281 O307 2.492 . S
Nd281 O308 2.487 . S
Nd281 O309 2.682 . S
Nd281 O310 2.410 . S
C282 Nd280 2.836 . S
C282 C283 1.498 . S
C282 O300 1.258 . S
C282 O301 1.239 . S
C283 C282 1.498 . S
C283 C284 1.366 . S
C283 C288 1.407 . S
C284 C283 1.366 . S
C284 C285 1.392 . S
C284 H312 0.930 . S
C285 C284 1.392 . S
C285 C286 1.398 . S
C285 H313 0.929 . S
C286 C285 1.398 . S
C286 C287 1.352 . S
C287 C286 1.352 . S
C287 C288 1.384 . S
C287 H314 0.930 . S
C288 C283 1.407 . S
C288 C287 1.384 . S
C288 H315 0.929 . S
C289 O302 1.241 . S
C289 O303 1.273 . S
C290 O304 1.251 . S
C290 O305 1.268 . S
C291 Nd281 2.836 . S
C291 C292 1.498 . S
C291 O306 1.258 . S
C291 O307 1.239 . S
C292 C291 1.498 . S
C292 C293 1.366 . S
C292 C297 1.407 . S
C293 C292 1.366 . S
C293 C294 1.392 . S
C293 H316 0.930 . S
C294 C293 1.392 . S
C294 C295 1.398 . S
C294 H317 0.929 . S
C295 C294 1.398 . S
C295 C296 1.352 . S
C296 C295 1.352 . S
C296 C297 1.384 . S
C296 H318 0.930 . S
C297 C292 1.407 . S
C297 C296 1.384 . S
C297 H319 0.929 . S
C298 O308 1.241 . S
C298 O309 1.273 . S
C299 O310 1.251 . S
C299 O311 1.268 . S
O300 Nd280 2.500 . S
O300 C282 1.258 . S
O301 Nd280 2.492 . S
O301 C282 1.239 . S
O302 Nd280 2.487 . S
O302 C289 1.241 . S
O303 Nd280 2.682 . S
O303 Nd281 2.414 . S
O303 C289 1.273 . S
O304 Nd280 2.410 . S
O304 C290 1.251 . S
O305 Nd281 2.424 . S
O305 C290 1.268 . S
O306 Nd281 2.500 . S
O306 C291 1.258 . S
O307 Nd281 2.492 . S
O307 C291 1.239 . S
O308 Nd281 2.487 . S
O308 C298 1.241 . S
O309 Nd280 2.414 . S
O309 Nd281 2.682 . S
O309 C298 1.273 . S
O310 Nd281 2.410 . S
O310 C299 1.251 . S
O311 Nd280 2.424 . S
O311 C299 1.268 . S
H312 C284 0.930 . S
H313 C285 0.929 . S
H314 C287 0.930 . S
H315 C288 0.929 . S
H316 C293 0.930 . S
H317 C294 0.929 . S
H318 C296 0.930 . S
H319 C297 0.929 . S
Nd320 C322 2.836 . S
Nd320 O340 2.500 . S
Nd320 O341 2.492 . S
Nd320 O342 2.487 . S
Nd320 O343 2.682 . S
Nd320 O344 2.410 . S
Nd320 O349 2.414 . S
Nd320 O351 2.424 . S
Nd321 C331 2.836 . S
Nd321 O343 2.414 . S
Nd321 O345 2.424 . S
Nd321 O346 2.500 . S
Nd321 O347 2.492 . S
Nd321 O348 2.487 . S
Nd321 O349 2.682 . S
Nd321 O350 2.410 . S
C322 Nd320 2.836 . S
C322 C323 1.498 . S
C322 O340 1.258 . S
C322 O341 1.239 . S
C323 C322 1.498 . S
C323 C324 1.366 . S
C323 C328 1.407 . S
C324 C323 1.366 . S
C324 C325 1.392 . S
C324 H352 0.930 . S
C325 C324 1.392 . S
C325 C326 1.398 . S
C325 H353 0.929 . S
C326 C325 1.398 . S
C326 C327 1.352 . S
C327 C326 1.352 . S
C327 C328 1.384 . S
C327 H354 0.930 . S
C328 C323 1.407 . S
C328 C327 1.384 . S
C328 H355 0.929 . S
C329 O342 1.241 . S
C329 O343 1.273 . S
C330 O344 1.251 . S
C330 O345 1.268 . S
C331 Nd321 2.836 . S
C331 C332 1.498 . S
C331 O346 1.258 . S
C331 O347 1.239 . S
C332 C331 1.498 . S
C332 C333 1.366 . S
C332 C337 1.407 . S
C333 C332 1.366 . S
C333 C334 1.392 . S
C333 H356 0.930 . S
C334 C333 1.392 . S
C334 C335 1.398 . S
C334 H357 0.929 . S
C335 C334 1.398 . S
C335 C336 1.352 . S
C336 C335 1.352 . S
C336 C337 1.384 . S
C336 H358 0.930 . S
C337 C332 1.407 . S
C337 C336 1.384 . S
C337 H359 0.929 . S
C338 O348 1.241 . S
C338 O349 1.273 . S
C339 O350 1.251 . S
C339 O351 1.268 . S
O340 Nd320 2.500 . S
O340 C322 1.258 . S
O341 Nd320 2.492 . S
O341 C322 1.239 . S
O342 Nd320 2.487 . S
O342 C329 1.241 . S
O343 Nd320 2.682 . S
O343 Nd321 2.414 . S
O343 C329 1.273 . S
O344 Nd320 2.410 . S
O344 C330 1.251 . S
O345 Nd321 2.424 . S
O345 C330 1.268 . S
O346 Nd321 2.500 . S
O346 C331 1.258 . S
O347 Nd321 2.492 . S
O347 C331 1.239 . S
O348 Nd321 2.487 . S
O348 C338 1.241 . S
O349 Nd320 2.414 . S
O349 Nd321 2.682 . S
O349 C338 1.273 . S
O350 Nd321 2.410 . S
O350 C339 1.251 . S
O351 Nd320 2.424 . S
O351 C339 1.268 . S
H352 C324 0.930 . S
H353 C325 0.929 . S
H354 C327 0.930 . S
H355 C328 0.929 . S
H356 C333 0.930 . S
H357 C334 0.929 . S
H358 C336 0.930 . S
H359 C337 0.929 . S
Nd360 C362 2.836 . S
Nd360 O380 2.500 . S
Nd360 O381 2.492 . S
Nd360 O382 2.487 . S
Nd360 O383 2.682 . S
Nd360 O384 2.410 . S
Nd360 O389 2.414 . S
Nd360 O391 2.424 . S
Nd361 C371 2.836 1_545 S
Nd361 O383 2.414 . S
Nd361 O385 2.424 . S
Nd361 O386 2.500 . S
Nd361 O387 2.492 1_545 S
Nd361 O388 2.487 . S
Nd361 O389 2.682 . S
Nd361 O390 2.410 . S
C362 Nd360 2.836 . S
C362 C363 1.498 . S
C362 O380 1.258 . S
C362 O381 1.239 . S
C363 C362 1.498 . S
C363 C364 1.366 . S
C363 C368 1.407 . S
C364 C363 1.366 . S
C364 C365 1.392 . S
C364 H392 0.930 . S
C365 C364 1.392 . S
C365 C366 1.398 . S
C365 H393 0.929 . S
C366 C365 1.398 . S
C366 C367 1.352 . S
C367 C366 1.352 . S
C367 C368 1.384 . S
C367 H394 0.930 . S
C368 C363 1.407 . S
C368 C367 1.384 . S
C368 H395 0.929 . S
C369 O382 1.241 . S
C369 O383 1.273 . S
C370 O384 1.251 . S
C370 O385 1.268 . S
C371 Nd361 2.836 1_565 S
C371 C372 1.498 . S
C371 O386 1.258 1_565 S
C371 O387 1.239 . S
C372 C371 1.498 . S
C372 C373 1.366 . S
C372 C377 1.407 . S
C373 C372 1.366 . S
C373 C374 1.392 . S
C373 H396 0.930 . S
C374 C373 1.392 . S
C374 C375 1.398 . S
C374 H397 0.929 . S
C375 C374 1.398 . S
C375 C376 1.352 . S
C376 C375 1.352 . S
C376 C377 1.384 . S
C376 H398 0.930 . S
C377 C372 1.407 . S
C377 C376 1.384 . S
C377 H399 0.929 . S
C378 O388 1.241 . S
C378 O389 1.273 . S
C379 O390 1.251 . S
C379 O391 1.268 . S
O380 Nd360 2.500 . S
O380 C362 1.258 . S
O381 Nd360 2.492 . S
O381 C362 1.239 . S
O382 Nd360 2.487 . S
O382 C369 1.241 . S
O383 Nd360 2.682 . S
O383 Nd361 2.414 . S
O383 C369 1.273 . S
O384 Nd360 2.410 . S
O384 C370 1.251 . S
O385 Nd361 2.424 . S
O385 C370 1.268 . S
O386 Nd361 2.500 . S
O386 C371 1.258 1_545 S
O387 Nd361 2.492 1_565 S
O387 C371 1.239 . S
O388 Nd361 2.487 . S
O388 C378 1.241 . S
O389 Nd360 2.414 . S
O389 Nd361 2.682 . S
O389 C378 1.273 . S
O390 Nd361 2.410 . S
O390 C379 1.251 . S
O391 Nd360 2.424 . S
O391 C379 1.268 . S
H392 C364 0.930 . S
H393 C365 0.929 . S
H394 C367 0.930 . S
H395 C368 0.929 . S
H396 C373 0.930 . S
H397 C374 0.929 . S
H398 C376 0.930 . S
H399 C377 0.929 . S
Nd400 C402 2.836 . S
Nd400 O420 2.500 . S
Nd400 O421 2.492 . S
Nd400 O422 2.487 . S
Nd400 O423 2.682 . S
Nd400 O424 2.410 . S
Nd400 O429 2.414 . S
Nd400 O431 2.424 . S
Nd401 C411 2.836 . S
Nd401 O423 2.414 . S
Nd401 O425 2.424 . S
Nd401 O426 2.500 . S
Nd401 O427 2.492 . S
Nd401 O428 2.487 . S
Nd401 O429 2.682 . S
Nd401 O430 2.410 . S
C402 Nd400 2.836 . S
C402 C403 1.498 . S
C402 O420 1.258 . S
C402 O421 1.239 . S
C403 C402 1.498 . S
C403 C404 1.366 . S
C403 C408 1.407 . S
C404 C403 1.366 . S
C404 C405 1.392 . S
C404 H432 0.930 . S
C405 C404 1.392 . S
C405 C406 1.398 . S
C405 H433 0.929 . S
C406 C405 1.398 . S
C406 C407 1.352 . S
C407 C406 1.352 . S
C407 C408 1.384 . S
C407 H434 0.930 . S
C408 C403 1.407 . S
C408 C407 1.384 . S
C408 H435 0.929 . S
C409 O422 1.241 . S
C409 O423 1.273 . S
C410 O424 1.251 . S
C410 O425 1.268 . S
C411 Nd401 2.836 . S
C411 C412 1.498 1_565 S
C411 O426 1.258 . S
C411 O427 1.239 . S
C412 C411 1.498 1_545 S
C412 C413 1.366 . S
C412 C417 1.407 . S
C413 C412 1.366 . S
C413 C414 1.392 . S
C413 H436 0.930 1_545 S
C414 C413 1.392 . S
C414 C415 1.398 . S
C414 H437 0.929 . S
C415 C414 1.398 . S
C415 C416 1.352 . S
C416 C415 1.352 . S
C416 C417 1.384 . S
C416 H438 0.930 . S
C417 C412 1.407 . S
C417 C416 1.384 . S
C417 H439 0.929 . S
C418 O428 1.241 . S
C418 O429 1.273 . S
C419 O430 1.251 . S
C419 O431 1.268 . S
O420 Nd400 2.500 . S
O420 C402 1.258 . S
O421 Nd400 2.492 . S
O421 C402 1.239 . S
O422 Nd400 2.487 . S
O422 C409 1.241 . S
O423 Nd400 2.682 . S
O423 Nd401 2.414 . S
O423 C409 1.273 . S
O424 Nd400 2.410 . S
O424 C410 1.251 . S
O425 Nd401 2.424 . S
O425 C410 1.268 . S
O426 Nd401 2.500 . S
O426 C411 1.258 . S
O427 Nd401 2.492 . S
O427 C411 1.239 . S
O428 Nd401 2.487 . S
O428 C418 1.241 . S
O429 Nd400 2.414 . S
O429 Nd401 2.682 . S
O429 C418 1.273 . S
O430 Nd401 2.410 . S
O430 C419 1.251 . S
O431 Nd400 2.424 . S
O431 C419 1.268 . S
H432 C404 0.930 . S
H433 C405 0.929 . S
H434 C407 0.930 . S
H435 C408 0.929 . S
H436 C413 0.930 1_565 S
H437 C414 0.929 . S
H438 C416 0.930 . S
H439 C417 0.929 . S
Nd440 C442 2.836 . S
Nd440 O460 2.500 . S
Nd440 O461 2.492 . S
Nd440 O462 2.487 . S
Nd440 O463 2.682 . S
Nd440 O464 2.410 . S
Nd440 O469 2.414 . S
Nd440 O471 2.424 . S
Nd441 C451 2.836 . S
Nd441 O463 2.414 . S
Nd441 O465 2.424 . S
Nd441 O466 2.500 . S
Nd441 O467 2.492 . S
Nd441 O468 2.487 . S
Nd441 O469 2.682 . S
Nd441 O470 2.410 . S
C442 Nd440 2.836 . S
C442 C443 1.498 . S
C442 O460 1.258 . S
C442 O461 1.239 . S
C443 C442 1.498 . S
C443 C444 1.366 . S
C443 C448 1.407 . S
C444 C443 1.366 . S
C444 C445 1.392 . S
C444 H472 0.930 . S
C445 C444 1.392 . S
C445 C446 1.398 . S
C445 H473 0.929 . S
C446 C445 1.398 . S
C446 C447 1.352 . S
C447 C446 1.352 . S
C447 C448 1.384 . S
C447 H474 0.930 . S
C448 C443 1.407 . S
C448 C447 1.384 . S
C448 H475 0.929 . S
C449 O462 1.241 . S
C449 O463 1.273 . S
C450 O464 1.251 . S
C450 O465 1.268 . S
C451 Nd441 2.836 . S
C451 C452 1.498 . S
C451 O466 1.258 . S
C451 O467 1.239 . S
C452 C451 1.498 . S
C452 C453 1.366 . S
C452 C457 1.407 . S
C453 C452 1.366 . S
C453 C454 1.392 . S
C453 H476 0.930 . S
C454 C453 1.392 . S
C454 C455 1.398 . S
C454 H477 0.929 . S
C455 C454 1.398 . S
C455 C456 1.352 . S
C456 C455 1.352 . S
C456 C457 1.384 . S
C456 H478 0.930 . S
C457 C452 1.407 . S
C457 C456 1.384 . S
C457 H479 0.929 . S
C458 O468 1.241 . S
C458 O469 1.273 . S
C459 O470 1.251 . S
C459 O471 1.268 . S
O460 Nd440 2.500 . S
O460 C442 1.258 . S
O461 Nd440 2.492 . S
O461 C442 1.239 . S
O462 Nd440 2.487 . S
O462 C449 1.241 . S
O463 Nd440 2.682 . S
O463 Nd441 2.414 . S
O463 C449 1.273 . S
O464 Nd440 2.410 . S
O464 C450 1.251 . S
O465 Nd441 2.424 . S
O465 C450 1.268 . S
O466 Nd441 2.500 . S
O466 C451 1.258 . S
O467 Nd441 2.492 . S
O467 C451 1.239 . S
O468 Nd441 2.487 . S
O468 C458 1.241 . S
O469 Nd440 2.414 . S
O469 Nd441 2.682 . S
O469 C458 1.273 . S
O470 Nd441 2.410 . S
O470 C459 1.251 . S
O471 Nd440 2.424 . S
O471 C459 1.268 . S
H472 C444 0.930 . S
H473 C445 0.929 . S
H474 C447 0.930 . S
H475 C448 0.929 . S
H476 C453 0.930 . S
H477 C454 0.929 . S
H478 C456 0.930 . S
H479 C457 0.929 . S
H480 C488 0.929 . S
H481 C490 0.930 . S
H482 C492 0.930 . S
H483 C495 0.929 . S
H484 C498 0.930 . S
H485 C500 0.960 . S
H486 C500 0.960 . S
H487 C500 0.960 . S
C488 H480 0.929 . S
C488 C489 1.377 . S
C488 C490 1.384 . S
C489 C488 1.377 . S
C489 C495 1.390 . S
C490 H481 0.930 . S
C490 C488 1.384 . S
C490 C491 1.372 . S
C491 C490 1.372 . S
C491 C492 1.400 . S
C491 C496 1.490 . S
C492 H482 0.930 . S
C492 C491 1.400 . S
C492 C495 1.386 . S
H493 C509 0.930 . S
H494 C510 0.931 . S
C495 H483 0.929 . S
C495 C489 1.390 . S
C495 C492 1.386 . S
C496 C491 1.490 . S
C496 C498 1.395 . S
C496 C499 1.403 . S
H497 C503 0.930 . S
C498 H484 0.930 . S
C498 C496 1.395 . S
C498 C501 1.403 . S
C499 C496 1.403 . S
C499 C500 1.524 . S
C499 C503 1.400 . S
C500 H485 0.960 . S
C500 H486 0.960 . S
C500 H487 0.960 . S
C500 C499 1.524 . S
C501 C498 1.403 . S
C501 C502 1.392 . S
C501 C505 1.495 . S
C502 C501 1.392 . S
C502 C503 1.385 . S
C502 C504 1.478 . S
C503 H497 0.930 . S
C503 C499 1.400 . S
C503 C502 1.385 . S
C504 C502 1.478 . S
C504 C506 1.381 . S
C504 C510 1.383 . S
C505 C501 1.495 . S
C505 H511 0.959 . S
C505 H512 0.961 . S
C505 H513 0.960 . S
C506 C504 1.381 . S
C506 C507 1.394 . S
C506 H514 0.930 . S
C507 C506 1.394 . S
C507 C508 1.383 . S
C507 H515 0.929 . S
C508 C507 1.383 . S
C508 C509 1.377 . S
C509 H493 0.930 . S
C509 C508 1.377 . S
C509 C510 1.379 . S
C510 H494 0.931 . S
C510 C504 1.383 . S
C510 C509 1.379 . S
H511 C505 0.959 . S
H512 C505 0.961 . S
H513 C505 0.960 . S
H514 C506 0.930 . S
H515 C507 0.929 . S
H516 C524 0.929 . S
H517 C526 0.930 . S
H518 C528 0.930 . S
H519 C531 0.937 . S
H520 C534 0.930 . S
H521 C536 0.960 . S
H522 C536 0.960 . S
H523 C536 0.960 . S
C524 H516 0.929 . S
C524 C525 1.363 1_565 S
C524 C526 1.384 . S
C525 C524 1.363 1_545 S
C525 C531 1.392 . S
C526 H517 0.930 . S
C526 C524 1.384 . S
C526 C527 1.372 . S
C527 C526 1.372 . S
C527 C528 1.400 . S
C527 C532 1.490 . S
C528 H518 0.930 . S
C528 C527 1.400 . S
C528 C531 1.381 1_565 S
H529 C545 0.924 1_455 S
H530 C546 0.931 . S
C531 H519 0.937 . S
C531 C525 1.392 . S
C531 C528 1.381 1_545 S
C532 C527 1.490 . S
C532 C534 1.395 . S
C532 C535 1.403 . S
H533 C539 0.930 . S
C534 H520 0.930 . S
C534 C532 1.395 . S
C534 C537 1.403 . S
C535 C532 1.403 . S
C535 C536 1.524 . S
C535 C539 1.400 . S
C536 H521 0.960 . S
C536 H522 0.960 . S
C536 H523 0.960 . S
C536 C535 1.524 . S
C537 C534 1.403 . S
C537 C538 1.392 . S
C537 C541 1.495 . S
C538 C537 1.392 . S
C538 C539 1.385 . S
C538 C540 1.478 . S
C539 H533 0.930 . S
C539 C535 1.400 . S
C539 C538 1.385 . S
C540 C538 1.478 . S
C540 C542 1.381 . S
C540 C546 1.383 . S
C541 C537 1.495 . S
C541 H547 0.959 . S
C541 H548 0.961 . S
C541 H549 0.960 . S
C542 C540 1.381 . S
C542 C543 1.394 . S
C542 H550 0.930 . S
C543 C542 1.394 . S
C543 C544 1.383 . S
C543 H551 0.929 . S
C544 C543 1.383 . S
C544 C545 1.377 . S
C545 H529 0.924 1_655 S
C545 C544 1.377 . S
C545 C546 1.379 . S
C546 H530 0.931 . S
C546 C540 1.383 . S
C546 C545 1.379 . S
H547 C541 0.959 . S
H548 C541 0.961 . S
H549 C541 0.960 . S
H550 C542 0.930 . S
H551 C543 0.929 . S
H552 C560 0.929 . S
H553 C562 0.930 . S
H554 C564 0.930 . S
H555 C567 0.929 . S
H556 C570 0.930 . S
H557 C572 0.960 . S
H558 C572 0.960 1_556 S
H559 C572 0.960 . S
C560 H552 0.929 . S
C560 C561 1.377 . S
C560 C562 1.384 . S
C561 C560 1.377 . S
C561 C567 1.390 1_556 S
C562 H553 0.930 . S
C562 C560 1.384 . S
C562 C563 1.372 1_556 S
C563 C562 1.372 1_554 S
C563 C564 1.400 . S
C563 C568 1.490 . S
C564 H554 0.930 . S
C564 C563 1.400 . S
C564 C567 1.386 . S
H565 C581 0.930 . S
H566 C582 0.931 . S
C567 H555 0.929 . S
C567 C561 1.390 1_554 S
C567 C564 1.386 . S
C568 C563 1.490 . S
C568 C570 1.395 . S
C568 C571 1.403 . S
H569 C575 0.930 . S
C570 H556 0.930 . S
C570 C568 1.395 . S
C570 C573 1.403 . S
C571 C568 1.403 . S
C571 C572 1.524 . S
C571 C575 1.400 . S
C572 H557 0.960 . S
C572 H558 0.960 1_554 S
C572 H559 0.960 . S
C572 C571 1.524 . S
C573 C570 1.403 . S
C573 C574 1.392 . S
C573 C577 1.495 . S
C574 C573 1.392 . S
C574 C575 1.385 . S
C574 C576 1.478 . S
C575 H569 0.930 . S
C575 C571 1.400 . S
C575 C574 1.385 . S
C576 C574 1.478 . S
C576 C578 1.381 . S
C576 C582 1.383 . S
C577 C573 1.495 . S
C577 H583 0.959 . S
C577 H584 0.961 . S
C577 H585 0.960 . S
C578 C576 1.381 . S
C578 C579 1.394 . S
C578 H586 0.930 . S
C579 C578 1.394 . S
C579 C580 1.383 . S
C579 H587 0.929 . S
C580 C579 1.383 . S
C580 C581 1.377 . S
C581 H565 0.930 . S
C581 C580 1.377 . S
C581 C582 1.379 . S
C582 H566 0.931 . S
C582 C576 1.383 . S
C582 C581 1.379 . S
H583 C577 0.959 . S
H584 C577 0.961 . S
H585 C577 0.960 . S
H586 C578 0.930 . S
H587 C579 0.929 . S
H588 C596 0.929 . S
H589 C598 0.930 . S
H590 C600 0.930 . S
H591 C603 0.929 . S
H592 C606 0.930 . S
H593 C608 0.960 . S
H594 C608 0.960 . S
H595 C608 0.960 . S
C596 H588 0.929 . S
C596 C597 1.377 . S
C596 C598 1.384 . S
C597 C596 1.377 . S
C597 C603 1.390 . S
C598 H589 0.930 . S
C598 C596 1.384 . S
C598 C599 1.372 . S
C599 C598 1.372 . S
C599 C600 1.400 . S
C599 C604 1.490 . S
C600 H590 0.930 . S
C600 C599 1.400 . S
C600 C603 1.386 . S
H601 C617 0.930 . S
H602 C618 0.931 . S
C603 H591 0.929 . S
C603 C597 1.390 . S
C603 C600 1.386 . S
C604 C599 1.490 . S
C604 C606 1.395 . S
C604 C607 1.403 . S
H605 C611 0.930 . S
C606 H592 0.930 . S
C606 C604 1.395 . S
C606 C609 1.403 . S
C607 C604 1.403 . S
C607 C608 1.524 . S
C607 C611 1.400 . S
C608 H593 0.960 . S
C608 H594 0.960 . S
C608 H595 0.960 . S
C608 C607 1.524 . S
C609 C606 1.403 . S
C609 C610 1.392 . S
C609 C613 1.495 1_545 S
C610 C609 1.392 . S
C610 C611 1.385 . S
C610 C612 1.478 . S
C611 H605 0.930 . S
C611 C607 1.400 . S
C611 C610 1.385 . S
C612 C610 1.478 . S
C612 C614 1.381 1_545 S
C612 C618 1.383 . S
C613 C609 1.495 1_565 S
C613 H619 0.959 . S
C613 H620 0.961 . S
C613 H621 0.960 . S
C614 C612 1.381 1_565 S
C614 C615 1.394 . S
C614 H622 0.930 . S
C615 C614 1.394 . S
C615 C616 1.383 . S
C615 H623 0.929 . S
C616 C615 1.383 . S
C616 C617 1.377 . S
C617 H601 0.930 . S
C617 C616 1.377 . S
C617 C618 1.379 1_565 S
C618 H602 0.931 . S
C618 C612 1.383 . S
C618 C617 1.379 1_545 S
H619 C613 0.959 . S
H620 C613 0.961 . S
H621 C613 0.960 . S
H622 C614 0.930 . S
H623 C615 0.929 . S
H624 C632 0.929 . S
H625 C634 0.930 . S
H626 C636 0.930 . S
H627 C639 0.929 . S
H628 C642 0.930 . S
H629 C644 0.960 . S
H630 C644 0.960 . S
H631 C644 0.960 . S
C632 H624 0.929 . S
C632 C633 1.377 . S
C632 C634 1.384 . S
C633 C632 1.377 . S
C633 C639 1.390 . S
C634 H625 0.930 . S
C634 C632 1.384 . S
C634 C635 1.372 . S
C635 C634 1.372 . S
C635 C636 1.400 . S
C635 C640 1.490 . S
C636 H626 0.930 . S
C636 C635 1.400 . S
C636 C639 1.386 . S
H637 C653 0.930 . S
H638 C654 0.931 . S
C639 H627 0.929 . S
C639 C633 1.390 . S
C639 C636 1.386 . S
C640 C635 1.490 . S
C640 C642 1.395 . S
C640 C643 1.403 . S
H641 C647 0.930 . S
C642 H628 0.930 . S
C642 C640 1.395 . S
C642 C645 1.403 . S
C643 C640 1.403 . S
C643 C644 1.524 . S
C643 C647 1.400 . S
C644 H629 0.960 . S
C644 H630 0.960 . S
C644 H631 0.960 . S
C644 C643 1.524 . S
C645 C642 1.403 . S
C645 C646 1.392 . S
C645 C649 1.495 . S
C646 C645 1.392 . S
C646 C647 1.385 . S
C646 C648 1.478 . S
C647 H641 0.930 . S
C647 C643 1.400 . S
C647 C646 1.385 . S
C648 C646 1.478 . S
C648 C650 1.381 . S
C648 C654 1.383 . S
C649 C645 1.495 . S
C649 H655 0.959 . S
C649 H656 0.961 . S
C649 H657 0.960 . S
C650 C648 1.381 . S
C650 C651 1.394 . S
C650 H658 0.930 . S
C651 C650 1.394 . S
C651 C652 1.383 . S
C651 H659 0.929 . S
C652 C651 1.383 . S
C652 C653 1.377 . S
C653 H637 0.930 . S
C653 C652 1.377 . S
C653 C654 1.379 . S
C654 H638 0.931 . S
C654 C648 1.383 . S
C654 C653 1.379 . S
H655 C649 0.959 . S
H656 C649 0.961 . S
H657 C649 0.960 . S
H658 C650 0.930 . S
H659 C651 0.929 . S
H660 C668 0.929 . S
H661 C670 0.930 . S
H662 C672 0.930 . S
H663 C675 0.929 . S
H664 C678 0.930 . S
H665 C680 0.960 . S
H666 C680 0.960 . S
H667 C680 0.960 . S
C668 H660 0.929 . S
C668 C669 1.377 . S
C668 C670 1.384 . S
C669 C668 1.377 . S
C669 C675 1.390 . S
C670 H661 0.930 . S
C670 C668 1.384 . S
C670 C671 1.372 . S
C671 C670 1.372 . S
C671 C672 1.400 . S
C671 C676 1.490 . S
C672 H662 0.930 . S
C672 C671 1.400 . S
C672 C675 1.386 . S
H673 C689 0.930 . S
H674 C690 0.931 . S
C675 H663 0.929 . S
C675 C669 1.390 . S
C675 C672 1.386 . S
C676 C671 1.490 . S
C676 C678 1.395 . S
C676 C679 1.403 . S
H677 C683 0.930 . S
C678 H664 0.930 . S
C678 C676 1.395 . S
C678 C681 1.403 . S
C679 C676 1.403 . S
C679 C680 1.524 . S
C679 C683 1.400 . S
C680 H665 0.960 . S
C680 H666 0.960 . S
C680 H667 0.960 . S
C680 C679 1.524 . S
C681 C678 1.403 . S
C681 C682 1.392 . S
C681 C685 1.495 . S
C682 C681 1.392 . S
C682 C683 1.385 . S
C682 C684 1.478 . S
C683 H677 0.930 . S
C683 C679 1.400 . S
C683 C682 1.385 . S
C684 C682 1.478 . S
C684 C686 1.381 . S
C684 C690 1.383 . S
C685 C681 1.495 . S
C685 H691 0.959 . S
C685 H692 0.961 . S
C685 H693 0.960 . S
C686 C684 1.381 . S
C686 C687 1.394 . S
C686 H694 0.930 . S
C687 C686 1.394 . S
C687 C688 1.383 . S
C687 H695 0.929 . S
C688 C687 1.383 . S
C688 C689 1.377 . S
C689 H673 0.930 . S
C689 C688 1.377 . S
C689 C690 1.379 . S
C690 H674 0.931 . S
C690 C684 1.383 . S
C690 C689 1.379 . S
H691 C685 0.959 . S
H692 C685 0.961 . S
H693 C685 0.960 . S
H694 C686 0.930 . S
H695 C687 0.929 . S
H696 C704 0.929 . S
H697 C706 0.930 . S
H698 C708 0.930 . S
H699 C711 0.929 . S
H700 C714 0.930 . S
H701 C716 0.960 . S
H702 C716 0.960 . S
H703 C716 0.960 . S
C704 H696 0.929 . S
C704 C705 1.377 1_554 S
C704 C706 1.384 . S
C705 C704 1.377 1_556 S
C705 C711 1.390 . S
C706 H697 0.930 . S
C706 C704 1.384 . S
C706 C707 1.372 . S
C707 C706 1.372 . S
C707 C708 1.400 1_554 S
C707 C712 1.490 . S
C708 H698 0.930 . S
C708 C707 1.400 1_556 S
C708 C711 1.386 . S
H709 C725 0.930 . S
H710 C726 0.915 1_556 S
C711 H699 0.929 . S
C711 C705 1.390 . S
C711 C708 1.386 . S
C712 C707 1.490 . S
C712 C714 1.395 . S
C712 C715 1.403 1_554 S
H713 C719 0.930 . S
C714 H700 0.930 . S
C714 C712 1.395 . S
C714 C717 1.403 . S
C715 C712 1.403 1_556 S
C715 C716 1.524 . S
C715 C719 1.400 . S
C716 H701 0.960 . S
C716 H702 0.960 . S
C716 H703 0.960 . S
C716 C715 1.524 . S
C717 C714 1.403 . S
C717 C718 1.392 . S
C717 C721 1.495 . S
C718 C717 1.392 . S
C718 C719 1.385 1_554 S
C718 C720 1.478 . S
C719 H713 0.930 . S
C719 C715 1.400 . S
C719 C718 1.385 1_556 S
C720 C718 1.478 . S
C720 C722 1.381 . S
C720 C726 1.383 . S
C721 C717 1.495 . S
C721 H727 0.959 . S
C721 H728 0.961 . S
C721 H729 0.960 . S
C722 C720 1.381 . S
C722 C723 1.394 . S
C722 H730 0.930 . S
C723 C722 1.394 . S
C723 C724 1.383 . S
C723 H731 0.929 . S
C724 C723 1.383 . S
C724 C725 1.377 . S
C725 H709 0.930 . S
C725 C724 1.377 . S
C725 C726 1.379 . S
C726 H710 0.915 1_554 S
C726 C720 1.383 . S
C726 C725 1.379 . S
H727 C721 0.959 . S
H728 C721 0.961 . S
H729 C721 0.960 . S
H730 C722 0.930 . S
H731 C723 0.929 . S
H732 C740 0.929 . S
H733 C742 0.930 . S
H734 C744 0.930 . S
H735 C747 0.929 . S
H736 C750 0.930 . S
H737 C752 0.960 . S
H738 C752 0.960 . S
H739 C752 0.960 . S
C740 H732 0.929 . S
C740 C741 1.377 . S
C740 C742 1.384 . S
C741 C740 1.377 . S
C741 C747 1.390 . S
C742 H733 0.930 . S
C742 C740 1.384 . S
C742 C743 1.372 . S
C743 C742 1.372 . S
C743 C744 1.400 . S
C743 C748 1.490 . S
C744 H734 0.930 . S
C744 C743 1.400 . S
C744 C747 1.386 . S
H745 C761 0.930 . S
H746 C762 0.931 . S
C747 H735 0.929 . S
C747 C741 1.390 . S
C747 C744 1.386 . S
C748 C743 1.490 . S
C748 C750 1.395 . S
C748 C751 1.403 . S
H749 C755 0.930 . S
C750 H736 0.930 . S
C750 C748 1.395 . S
C750 C753 1.403 . S
C751 C748 1.403 . S
C751 C752 1.524 . S
C751 C755 1.400 . S
C752 H737 0.960 . S
C752 H738 0.960 . S
C752 H739 0.960 . S
C752 C751 1.524 . S
C753 C750 1.403 . S
C753 C754 1.392 . S
C753 C757 1.495 . S
C754 C753 1.392 . S
C754 C755 1.385 . S
C754 C756 1.478 . S
C755 H749 0.930 . S
C755 C751 1.400 . S
C755 C754 1.385 . S
C756 C754 1.478 . S
C756 C758 1.381 . S
C756 C762 1.383 . S
C757 C753 1.495 . S
C757 H763 0.959 . S
C757 H764 0.961 . S
C757 H765 0.960 . S
C758 C756 1.381 . S
C758 C759 1.394 . S
C758 H766 0.930 . S
C759 C758 1.394 . S
C759 C760 1.383 . S
C759 H767 0.929 . S
C760 C759 1.383 . S
C760 C761 1.377 . S
C761 H745 0.930 . S
C761 C760 1.377 . S
C761 C762 1.379 . S
C762 H746 0.931 . S
C762 C756 1.383 . S
C762 C761 1.379 . S
H763 C757 0.959 . S
H764 C757 0.961 . S
H765 C757 0.960 . S
H766 C758 0.930 . S
H767 C759 0.929 . S
H768 C776 0.929 . S
H769 C778 0.930 . S
H770 C780 0.930 . S
H771 C783 0.929 . S
H772 C786 0.930 . S
H773 C788 0.960 . S
H774 C788 0.960 . S
H775 C788 0.960 . S
C776 H768 0.929 . S
C776 C777 1.377 . S
C776 C778 1.384 . S
C777 C776 1.377 . S
C777 C783 1.390 . S
C778 H769 0.930 . S
C778 C776 1.384 . S
C778 C779 1.372 . S
C779 C778 1.372 . S
C779 C780 1.400 . S
C779 C784 1.490 . S
C780 H770 0.930 . S
C780 C779 1.400 . S
C780 C783 1.386 . S
H781 C797 0.930 . S
H782 C798 0.931 . S
C783 H771 0.929 . S
C783 C777 1.390 . S
C783 C780 1.386 . S
C784 C779 1.490 . S
C784 C786 1.395 . S
C784 C787 1.403 . S
H785 C791 0.930 . S
C786 H772 0.930 . S
C786 C784 1.395 . S
C786 C789 1.403 . S
C787 C784 1.403 . S
C787 C788 1.524 . S
C787 C791 1.400 . S
C788 H773 0.960 . S
C788 H774 0.960 . S
C788 H775 0.960 . S
C788 C787 1.524 . S
C789 C786 1.403 . S
C789 C790 1.392 . S
C789 C793 1.495 . S
C790 C789 1.392 . S
C790 C791 1.385 . S
C790 C792 1.478 . S
C791 H785 0.930 . S
C791 C787 1.400 . S
C791 C790 1.385 . S
C792 C790 1.478 . S
C792 C794 1.381 . S
C792 C798 1.383 . S
C793 C789 1.495 . S
C793 H799 0.959 . S
C793 H800 0.961 . S
C793 H801 0.960 . S
C794 C792 1.381 . S
C794 C795 1.394 . S
C794 H802 0.930 . S
C795 C794 1.394 . S
C795 C796 1.383 . S
C795 H803 0.929 . S
C796 C795 1.383 . S
C796 C797 1.377 . S
C797 H781 0.930 . S
C797 C796 1.377 . S
C797 C798 1.379 . S
C798 H782 0.931 . S
C798 C792 1.383 . S
C798 C797 1.379 . S
H799 C793 0.959 . S
H800 C793 0.961 . S
H801 C793 0.960 . S
H802 C794 0.930 . S
H803 C795 0.929 . S
H804 C812 0.929 . S
H805 C814 0.930 . S
H806 C816 0.930 . S
H807 C819 0.929 . S
H808 C822 0.930 . S
H809 C824 0.960 . S
H810 C824 0.960 1_455 S
H811 C824 0.960 . S
C812 H804 0.929 . S
C812 C813 1.377 . S
C812 C814 1.384 . S
C813 C812 1.377 . S
C813 C819 1.390 . S
C814 H805 0.930 . S
C814 C812 1.384 . S
C814 C815 1.372 . S
C815 C814 1.372 . S
C815 C816 1.400 . S
C815 C820 1.490 . S
C816 H806 0.930 . S
C816 C815 1.400 . S
C816 C819 1.386 . S
H817 C833 0.930 . S
H818 C834 0.931 1_655 S
C819 H807 0.929 . S
C819 C813 1.390 . S
C819 C816 1.386 . S
C820 C815 1.490 . S
C820 C822 1.395 . S
C820 C823 1.403 . S
H821 C827 0.930 1_655 S
C822 H808 0.930 . S
C822 C820 1.395 . S
C822 C825 1.403 . S
C823 C820 1.403 . S
C823 C824 1.524 1_455 S
C823 C827 1.400 . S
C824 H809 0.960 . S
C824 H810 0.960 1_655 S
C824 H811 0.960 . S
C824 C823 1.524 1_655 S
C825 C822 1.403 . S
C825 C826 1.392 . S
C825 C829 1.495 . S
C826 C825 1.392 . S
C826 C827 1.385 . S
C826 C828 1.478 . S
C827 H821 0.930 1_455 S
C827 C823 1.400 . S
C827 C826 1.385 . S
C828 C826 1.478 . S
C828 C830 1.381 . S
C828 C834 1.383 . S
C829 C825 1.495 . S
C829 H835 0.959 . S
C829 H836 0.961 . S
C829 H837 0.960 . S
C830 C828 1.381 . S
C830 C831 1.394 . S
C830 H838 0.930 . S
C831 C830 1.394 . S
C831 C832 1.383 . S
C831 H839 0.929 . S
C832 C831 1.383 . S
C832 C833 1.377 1_455 S
C833 H817 0.930 . S
C833 C832 1.377 1_655 S
C833 C834 1.379 1_655 S
C834 H818 0.931 1_455 S
C834 C828 1.383 . S
C834 C833 1.379 1_455 S
H835 C829 0.959 . S
H836 C829 0.961 . S
H837 C829 0.960 . S
H838 C830 0.930 . S
H839 C831 0.929 . S
H840 C848 0.929 . S
H841 C850 0.930 . S
H842 C852 0.930 . S
H843 C855 0.929 . S
H844 C858 0.930 . S
H845 C860 0.960 . S
H846 C860 0.960 . S
H847 C860 0.960 . S
C848 H840 0.929 . S
C848 C849 1.377 . S
C848 C850 1.384 . S
C849 C848 1.377 . S
C849 C855 1.390 . S
C850 H841 0.930 . S
C850 C848 1.384 . S
C850 C851 1.372 . S
C851 C850 1.372 . S
C851 C852 1.400 . S
C851 C856 1.490 . S
C852 H842 0.930 . S
C852 C851 1.400 . S
C852 C855 1.386 . S
H853 C869 0.930 . S
H854 C870 0.931 . S
C855 H843 0.929 . S
C855 C849 1.390 . S
C855 C852 1.386 . S
C856 C851 1.490 . S
C856 C858 1.395 1_455 S
C856 C859 1.403 . S
H857 C863 0.930 . S
C858 H844 0.930 . S
C858 C856 1.395 1_655 S
C858 C861 1.403 . S
C859 C856 1.403 . S
C859 C860 1.524 . S
C859 C863 1.400 . S
C860 H845 0.960 . S
C860 H846 0.960 . S
C860 H847 0.960 . S
C860 C859 1.524 . S
C861 C858 1.403 . S
C861 C862 1.392 1_655 S
C861 C865 1.495 . S
C862 C861 1.392 1_455 S
C862 C863 1.385 . S
C862 C864 1.478 1_455 S
C863 H857 0.930 . S
C863 C859 1.400 . S
C863 C862 1.385 . S
C864 C862 1.478 1_655 S
C864 C866 1.381 . S
C864 C870 1.383 1_655 S
C865 C861 1.495 . S
C865 H871 0.959 . S
C865 H872 0.961 . S
C865 H873 0.960 . S
C866 C864 1.381 . S
C866 C867 1.394 . S
C866 H874 0.930 . S
C867 C866 1.394 . S
C867 C868 1.383 . S
C867 H875 0.929 . S
C868 C867 1.383 . S
C868 C869 1.377 . S
C869 H853 0.930 . S
C869 C868 1.377 . S
C869 C870 1.379 1_655 S
C870 H854 0.931 . S
C870 C864 1.383 1_455 S
C870 C869 1.379 1_455 S
H871 C865 0.959 . S
H872 C865 0.961 . S
H873 C865 0.960 . S
H874 C866 0.930 . S
H875 C867 0.929 . S
H876 C884 0.929 . S
H877 C886 0.930 . S
H878 C888 0.930 . S
H879 C891 0.929 . S
H880 C894 0.930 . S
H881 C896 0.960 . S
H882 C896 0.960 . S
H883 C896 0.960 . S
C884 H876 0.929 . S
C884 C885 1.377 . S
C884 C886 1.384 . S
C885 C884 1.377 . S
C885 C891 1.390 . S
C886 H877 0.930 . S
C886 C884 1.384 . S
C886 C887 1.372 . S
C887 C886 1.372 . S
C887 C888 1.400 . S
C887 C892 1.490 . S
C888 H878 0.930 . S
C888 C887 1.400 . S
C888 C891 1.386 . S
H889 C905 0.930 . S
H890 C906 0.931 . S
C891 H879 0.929 . S
C891 C885 1.390 . S
C891 C888 1.386 . S
C892 C887 1.490 . S
C892 C894 1.395 . S
C892 C895 1.403 . S
H893 C899 0.930 . S
C894 H880 0.930 . S
C894 C892 1.395 . S
C894 C897 1.403 . S
C895 C892 1.403 . S
C895 C896 1.524 . S
C895 C899 1.400 . S
C896 H881 0.960 . S
C896 H882 0.960 . S
C896 H883 0.960 . S
C896 C895 1.524 . S
C897 C894 1.403 . S
C897 C898 1.392 . S
C897 C901 1.495 . S
C898 C897 1.392 . S
C898 C899 1.385 . S
C898 C900 1.478 . S
C899 H893 0.930 . S
C899 C895 1.400 . S
C899 C898 1.385 . S
C900 C898 1.478 . S
C900 C902 1.381 . S
C900 C906 1.383 . S
C901 C897 1.495 . S
C901 H907 0.959 . S
C901 H908 0.961 . S
C901 H909 0.960 . S
C902 C900 1.381 . S
C902 C903 1.394 . S
C902 H910 0.930 . S
C903 C902 1.394 . S
C903 C904 1.383 . S
C903 H911 0.929 . S
C904 C903 1.383 . S
C904 C905 1.377 . S
C905 H889 0.930 . S
C905 C904 1.377 . S
C905 C906 1.379 . S
C906 H890 0.931 . S
C906 C900 1.383 . S
C906 C905 1.379 . S
H907 C901 0.959 . S
H908 C901 0.961 . S
H909 C901 0.960 . S
H910 C902 0.930 . S
H911 C903 0.929 . S
H912 C920 0.929 . S
H913 C922 0.930 . S
H914 C924 0.930 . S
H915 C927 0.929 . S
H916 C930 0.930 . S
H917 C932 0.960 . S
H918 C932 0.960 . S
H919 C932 0.960 . S
C920 H912 0.929 . S
C920 C921 1.377 . S
C920 C922 1.384 . S
C921 C920 1.377 . S
C921 C927 1.390 . S
C922 H913 0.930 . S
C922 C920 1.384 . S
C922 C923 1.372 . S
C923 C922 1.372 . S
C923 C924 1.400 . S
C923 C928 1.490 . S
C924 H914 0.930 . S
C924 C923 1.400 . S
C924 C927 1.386 . S
H925 C941 0.930 . S
H926 C942 0.931 . S
C927 H915 0.929 . S
C927 C921 1.390 . S
C927 C924 1.386 . S
C928 C923 1.490 . S
C928 C930 1.395 . S
C928 C931 1.403 . S
H929 C935 0.930 . S
C930 H916 0.930 . S
C930 C928 1.395 . S
C930 C933 1.403 . S
C931 C928 1.403 . S
C931 C932 1.524 . S
C931 C935 1.400 . S
C932 H917 0.960 . S
C932 H918 0.960 . S
C932 H919 0.960 . S
C932 C931 1.524 . S
C933 C930 1.403 . S
C933 C934 1.392 . S
C933 C937 1.495 . S
C934 C933 1.392 . S
C934 C935 1.385 . S
C934 C936 1.478 . S
C935 H929 0.930 . S
C935 C931 1.400 . S
C935 C934 1.385 . S
C936 C934 1.478 . S
C936 C938 1.381 . S
C936 C942 1.383 . S
C937 C933 1.495 . S
C937 H943 0.959 . S
C937 H944 0.961 . S
C937 H945 0.960 . S
C938 C936 1.381 . S
C938 C939 1.394 . S
C938 H946 0.930 . S
C939 C938 1.394 . S
C939 C940 1.383 . S
C939 H947 0.929 . S
C940 C939 1.383 . S
C940 C941 1.377 . S
C941 H925 0.930 . S
C941 C940 1.377 . S
C941 C942 1.379 . S
C942 H926 0.931 . S
C942 C936 1.383 . S
C942 C941 1.379 . S
H943 C937 0.959 . S
H944 C937 0.961 . S
H945 C937 0.960 . S
H946 C938 0.930 . S
H947 C939 0.929 . S
H948 C956 0.929 . S
H949 C958 0.930 . S
H950 C960 0.930 . S
H951 C963 0.929 1_455 S
H952 C966 0.930 . S
H953 C968 0.960 . S
H954 C968 0.960 . S
H955 C968 0.960 . S
C956 H948 0.929 . S
C956 C957 1.377 . S
C956 C958 1.384 . S
C957 C956 1.377 . S
C957 C963 1.390 . S
C958 H949 0.930 . S
C958 C956 1.384 . S
C958 C959 1.372 . S
C959 C958 1.372 . S
C959 C960 1.400 . S
C959 C964 1.490 . S
C960 H950 0.930 . S
C960 C959 1.400 . S
C960 C963 1.386 . S
H961 C977 0.930 . S
H962 C978 0.931 . S
C963 H951 0.929 1_655 S
C963 C957 1.390 . S
C963 C960 1.386 . S
C964 C959 1.490 . S
C964 C966 1.395 . S
C964 C967 1.403 . S
H965 C971 0.930 . S
C966 H952 0.930 . S
C966 C964 1.395 . S
C966 C969 1.403 . S
C967 C964 1.403 . S
C967 C968 1.524 . S
C967 C971 1.400 . S
C968 H953 0.960 . S
C968 H954 0.960 . S
C968 H955 0.960 . S
C968 C967 1.524 . S
C969 C966 1.403 . S
C969 C970 1.392 . S
C969 C973 1.495 . S
C970 C969 1.392 . S
C970 C971 1.385 . S
C970 C972 1.478 . S
C971 H965 0.930 . S
C971 C967 1.400 . S
C971 C970 1.385 . S
C972 C970 1.478 . S
C972 C974 1.381 . S
C972 C978 1.383 . S
C973 C969 1.495 . S
C973 H979 0.959 . S
C973 H980 0.961 . S
C973 H981 0.960 . S
C974 C972 1.381 . S
C974 C975 1.394 . S
C974 H982 0.930 . S
C975 C974 1.394 . S
C975 C976 1.383 . S
C975 H983 0.929 . S
C976 C975 1.383 . S
C976 C977 1.377 . S
C977 H961 0.930 . S
C977 C976 1.377 . S
C977 C978 1.379 . S
C978 H962 0.931 . S
C978 C972 1.383 . S
C978 C977 1.379 . S
H979 C973 0.959 . S
H980 C973 0.961 . S
H981 C973 0.960 . S
H982 C974 0.930 . S
H983 C975 0.929 . S
H984 C992 0.929 . S
H985 C994 0.930 . S
H986 C996 0.930 . S
H987 C999 0.929 . S
H988 C1002 0.930 . S
H989 C1004 0.960 . S
H990 C1004 0.960 . S
H991 C1004 0.960 . S
C992 H984 0.929 . S
C992 C993 1.377 . S
C992 C994 1.384 . S
C993 C992 1.377 . S
C993 C999 1.390 . S
C994 H985 0.930 . S
C994 C992 1.384 . S
C994 C995 1.372 . S
C995 C994 1.372 . S
C995 C996 1.400 . S
C995 C1000 1.490 . S
C996 H986 0.930 . S
C996 C995 1.400 . S
C996 C999 1.386 . S
H997 C1013 0.930 . S
H998 C1014 0.931 . S
C999 H987 0.929 . S
C999 C993 1.390 . S
C999 C996 1.386 . S
C1000 C995 1.490 . S
C1000 C1002 1.395 . S
C1000 C1003 1.403 . S
H1001 C1007 0.930 . S
C1002 H988 0.930 . S
C1002 C1000 1.395 . S
C1002 C1005 1.403 . S
C1003 C1000 1.403 . S
C1003 C1004 1.524 . S
C1003 C1007 1.400 . S
C1004 H989 0.960 . S
C1004 H990 0.960 . S
C1004 H991 0.960 . S
C1004 C1003 1.524 . S
C1005 C1002 1.403 . S
C1005 C1006 1.392 . S
C1005 C1009 1.495 . S
C1006 C1005 1.392 . S
C1006 C1007 1.385 . S
C1006 C1008 1.478 . S
C1007 H1001 0.930 . S
C1007 C1003 1.400 . S
C1007 C1006 1.385 . S
C1008 C1006 1.478 . S
C1008 C1010 1.381 . S
C1008 C1014 1.383 . S
C1009 C1005 1.495 . S
C1009 H1015 0.959 . S
C1009 H1016 0.961 . S
C1009 H1017 0.960 . S
C1010 C1008 1.381 . S
C1010 C1011 1.394 . S
C1010 H1018 0.930 . S
C1011 C1010 1.394 . S
C1011 C1012 1.383 . S
C1011 H1019 0.929 . S
C1012 C1011 1.383 . S
C1012 C1013 1.377 . S
C1013 H997 0.930 . S
C1013 C1012 1.377 . S
C1013 C1014 1.379 . S
C1014 H998 0.931 . S
C1014 C1008 1.383 . S
C1014 C1013 1.379 . S
H1015 C1009 0.959 . S
H1016 C1009 0.961 . S
H1017 C1009 0.960 . S
H1018 C1010 0.930 . S
H1019 C1011 0.929 . S
H1020 C1028 0.929 . S
H1021 C1030 0.930 . S
H1022 C1032 0.930 . S
H1023 C1035 0.929 . S
H1024 C1038 0.930 . S
H1025 C1040 0.960 . S
H1026 C1040 0.960 . S
H1027 C1040 0.960 . S
C1028 H1020 0.929 . S
C1028 C1029 1.377 . S
C1028 C1030 1.384 . S
C1029 C1028 1.377 . S
C1029 C1035 1.390 . S
C1030 H1021 0.930 . S
C1030 C1028 1.384 . S
C1030 C1031 1.372 . S
C1031 C1030 1.372 . S
C1031 C1032 1.400 . S
C1031 C1036 1.490 . S
C1032 H1022 0.930 . S
C1032 C1031 1.400 . S
C1032 C1035 1.386 . S
H1033 C1049 0.930 . S
H1034 C1050 0.931 . S
C1035 H1023 0.929 . S
C1035 C1029 1.390 . S
C1035 C1032 1.386 . S
C1036 C1031 1.490 . S
C1036 C1038 1.395 . S
C1036 C1039 1.403 . S
H1037 C1043 0.930 . S
C1038 H1024 0.930 . S
C1038 C1036 1.395 . S
C1038 C1041 1.403 . S
C1039 C1036 1.403 . S
C1039 C1040 1.524 . S
C1039 C1043 1.400 . S
C1040 H1025 0.960 . S
C1040 H1026 0.960 . S
C1040 H1027 0.960 . S
C1040 C1039 1.524 . S
C1041 C1038 1.403 . S
C1041 C1042 1.392 . S
C1041 C1045 1.495 . S
C1042 C1041 1.392 . S
C1042 C1043 1.385 . S
C1042 C1044 1.478 1_554 S
C1043 H1037 0.930 . S
C1043 C1039 1.400 . S
C1043 C1042 1.385 . S
C1044 C1042 1.478 1_556 S
C1044 C1046 1.381 . S
C1044 C1050 1.383 . S
C1045 C1041 1.495 . S
C1045 H1051 0.959 . S
C1045 H1052 0.961 1_554 S
C1045 H1053 0.960 . S
C1046 C1044 1.381 . S
C1046 C1047 1.394 . S
C1046 H1054 0.930 1_556 S
C1047 C1046 1.394 . S
C1047 C1048 1.383 . S
C1047 H1055 0.929 . S
C1048 C1047 1.383 . S
C1048 C1049 1.377 . S
C1049 H1033 0.930 . S
C1049 C1048 1.377 . S
C1049 C1050 1.379 . S
C1050 H1034 0.931 . S
C1050 C1044 1.383 . S
C1050 C1049 1.379 . S
H1051 C1045 0.959 . S
H1052 C1045 0.961 1_556 S
H1053 C1045 0.960 . S
H1054 C1046 0.930 1_554 S
H1055 C1047 0.929 . S
H1056 C1064 0.929 . S
H1057 C1066 0.930 . S
H1058 C1068 0.930 . S
H1059 C1071 0.929 . S
H1060 C1074 0.930 . S
H1061 C1076 0.960 . S
H1062 C1076 0.960 . S
H1063 C1076 0.960 . S
C1064 H1056 0.929 . S
C1064 C1065 1.377 . S
C1064 C1066 1.384 . S
C1065 C1064 1.377 . S
C1065 C1071 1.390 . S
C1066 H1057 0.930 . S
C1066 C1064 1.384 . S
C1066 C1067 1.372 . S
C1067 C1066 1.372 . S
C1067 C1068 1.400 . S
C1067 C1072 1.490 . S
C1068 H1058 0.930 . S
C1068 C1067 1.400 . S
C1068 C1071 1.386 . S
H1069 C1085 0.930 . S
H1070 C1086 0.931 . S
C1071 H1059 0.929 . S
C1071 C1065 1.390 . S
C1071 C1068 1.386 . S
C1072 C1067 1.490 . S
C1072 C1074 1.395 . S
C1072 C1075 1.403 . S
H1073 C1079 0.930 . S
C1074 H1060 0.930 . S
C1074 C1072 1.395 . S
C1074 C1077 1.403 . S
C1075 C1072 1.403 . S
C1075 C1076 1.524 . S
C1075 C1079 1.400 . S
C1076 H1061 0.960 . S
C1076 H1062 0.960 . S
C1076 H1063 0.960 . S
C1076 C1075 1.524 . S
C1077 C1074 1.403 . S
C1077 C1078 1.392 . S
C1077 C1081 1.495 . S
C1078 C1077 1.392 . S
C1078 C1079 1.385 . S
C1078 C1080 1.478 . S
C1079 H1073 0.930 . S
C1079 C1075 1.400 . S
C1079 C1078 1.385 . S
C1080 C1078 1.478 . S
C1080 C1082 1.381 . S
C1080 C1086 1.383 . S
C1081 C1077 1.495 . S
C1081 H1087 0.959 . S
C1081 H1088 0.961 . S
C1081 H1089 0.960 . S
C1082 C1080 1.381 . S
C1082 C1083 1.394 . S
C1082 H1090 0.930 . S
C1083 C1082 1.394 . S
C1083 C1084 1.383 . S
C1083 H1091 0.929 . S
C1084 C1083 1.383 . S
C1084 C1085 1.377 . S
C1085 H1069 0.930 . S
C1085 C1084 1.377 . S
C1085 C1086 1.379 . S
C1086 H1070 0.931 . S
C1086 C1080 1.383 . S
C1086 C1085 1.379 . S
H1087 C1081 0.959 . S
H1088 C1081 0.961 . S
H1089 C1081 0.960 . S
H1090 C1082 0.930 . S
H1091 C1083 0.929 . S
H1092 C1100 0.929 . S
H1093 C1102 0.930 . S
H1094 C1104 0.930 . S
H1095 C1107 0.929 . S
H1096 C1110 0.930 . S
H1097 C1112 0.960 . S
H1098 C1112 0.960 . S
H1099 C1112 0.960 . S
C1100 H1092 0.929 . S
C1100 C1101 1.377 . S
C1100 C1102 1.384 . S
C1101 C1100 1.377 . S
C1101 C1107 1.390 . S
C1102 H1093 0.930 . S
C1102 C1100 1.384 . S
C1102 C1103 1.372 . S
C1103 C1102 1.372 . S
C1103 C1104 1.400 . S
C1103 C1108 1.490 . S
C1104 H1094 0.930 . S
C1104 C1103 1.400 . S
C1104 C1107 1.386 . S
H1105 C1121 0.930 . S
H1106 C1122 0.931 . S
C1107 H1095 0.929 . S
C1107 C1101 1.390 . S
C1107 C1104 1.386 . S
C1108 C1103 1.490 . S
C1108 C1110 1.395 . S
C1108 C1111 1.403 . S
H1109 C1115 0.930 . S
C1110 H1096 0.930 . S
C1110 C1108 1.395 . S
C1110 C1113 1.403 . S
C1111 C1108 1.403 . S
C1111 C1112 1.524 . S
C1111 C1115 1.400 . S
C1112 H1097 0.960 . S
C1112 H1098 0.960 . S
C1112 H1099 0.960 . S
C1112 C1111 1.524 . S
C1113 C1110 1.403 . S
C1113 C1114 1.392 . S
C1113 C1117 1.495 . S
C1114 C1113 1.392 . S
C1114 C1115 1.385 . S
C1114 C1116 1.478 . S
C1115 H1109 0.930 . S
C1115 C1111 1.400 . S
C1115 C1114 1.385 . S
C1116 C1114 1.478 . S
C1116 C1118 1.381 . S
C1116 C1122 1.383 . S
C1117 C1113 1.495 . S
C1117 H1123 0.959 . S
C1117 H1124 0.961 . S
C1117 H1125 0.960 . S
C1118 C1116 1.381 . S
C1118 C1119 1.394 . S
C1118 H1126 0.930 . S
C1119 C1118 1.394 . S
C1119 C1120 1.383 . S
C1119 H1127 0.929 . S
C1120 C1119 1.383 . S
C1120 C1121 1.377 . S
C1121 H1105 0.930 . S
C1121 C1120 1.377 . S
C1121 C1122 1.379 . S
C1122 H1106 0.931 . S
C1122 C1116 1.383 . S
C1122 C1121 1.379 . S
H1123 C1117 0.959 . S
H1124 C1117 0.961 . S
H1125 C1117 0.960 . S
H1126 C1118 0.930 . S
H1127 C1119 0.929 . S
H1128 C1136 0.929 . S
H1129 C1138 0.930 . S
H1130 C1140 0.930 . S
H1131 C1143 0.929 . S
H1132 C1146 0.930 . S
H1133 C1148 0.960 . S
H1134 C1148 0.960 . S
H1135 C1148 0.960 . S
C1136 H1128 0.929 . S
C1136 C1137 1.377 . S
C1136 C1138 1.384 . S
C1137 C1136 1.377 . S
C1137 C1143 1.390 . S
C1138 H1129 0.930 . S
C1138 C1136 1.384 . S
C1138 C1139 1.372 . S
C1139 C1138 1.372 . S
C1139 C1140 1.400 . S
C1139 C1144 1.490 . S
C1140 H1130 0.930 . S
C1140 C1139 1.400 . S
C1140 C1143 1.386 . S
H1141 C1157 0.930 . S
H1142 C1158 0.931 . S
C1143 H1131 0.929 . S
C1143 C1137 1.390 . S
C1143 C1140 1.386 . S
C1144 C1139 1.490 . S
C1144 C1146 1.395 . S
C1144 C1147 1.403 . S
H1145 C1151 0.930 . S
C1146 H1132 0.930 . S
C1146 C1144 1.395 . S
C1146 C1149 1.403 . S
C1147 C1144 1.403 . S
C1147 C1148 1.524 . S
C1147 C1151 1.400 . S
C1148 H1133 0.960 . S
C1148 H1134 0.960 . S
C1148 H1135 0.960 . S
C1148 C1147 1.524 . S
C1149 C1146 1.403 . S
C1149 C1150 1.392 . S
C1149 C1153 1.495 . S
C1150 C1149 1.392 . S
C1150 C1151 1.385 . S
C1150 C1152 1.478 . S
C1151 H1145 0.930 . S
C1151 C1147 1.400 . S
C1151 C1150 1.385 . S
C1152 C1150 1.478 . S
C1152 C1154 1.381 . S
C1152 C1158 1.383 . S
C1153 C1149 1.495 . S
C1153 H1159 0.959 . S
C1153 H1160 0.961 . S
C1153 H1161 0.960 . S
C1154 C1152 1.381 . S
C1154 C1155 1.394 . S
C1154 H1162 0.930 . S
C1155 C1154 1.394 . S
C1155 C1156 1.383 . S
C1155 H1163 0.929 . S
C1156 C1155 1.383 . S
C1156 C1157 1.377 . S
C1157 H1141 0.930 . S
C1157 C1156 1.377 . S
C1157 C1158 1.379 . S
C1158 H1142 0.931 . S
C1158 C1152 1.383 . S
C1158 C1157 1.379 . S
H1159 C1153 0.959 . S
H1160 C1153 0.961 . S
H1161 C1153 0.960 . S
H1162 C1154 0.930 . S
H1163 C1155 0.929 . S
H1164 C1172 0.929 . S
H1165 C1174 0.930 . S
H1166 C1176 0.930 . S
H1167 C1179 0.929 . S
H1168 C1182 0.930 . S
H1169 C1184 0.960 . S
H1170 C1184 0.960 . S
H1171 C1184 0.960 . S
C1172 H1164 0.929 . S
C1172 C1173 1.377 . S
C1172 C1174 1.384 . S
C1173 C1172 1.377 . S
C1173 C1179 1.390 . S
C1174 H1165 0.930 . S
C1174 C1172 1.384 . S
C1174 C1175 1.372 . S
C1175 C1174 1.372 . S
C1175 C1176 1.400 . S
C1175 C1180 1.490 . S
C1176 H1166 0.930 . S
C1176 C1175 1.400 . S
C1176 C1179 1.386 . S
H1177 C1193 0.930 . S
H1178 C1194 0.931 . S
C1179 H1167 0.929 . S
C1179 C1173 1.390 . S
C1179 C1176 1.386 . S
C1180 C1175 1.490 . S
C1180 C1182 1.395 . S
C1180 C1183 1.403 . S
H1181 C1187 0.930 . S
C1182 H1168 0.930 . S
C1182 C1180 1.395 . S
C1182 C1185 1.403 . S
C1183 C1180 1.403 . S
C1183 C1184 1.524 . S
C1183 C1187 1.400 . S
C1184 H1169 0.960 . S
C1184 H1170 0.960 . S
C1184 H1171 0.960 . S
C1184 C1183 1.524 . S
C1185 C1182 1.403 . S
C1185 C1186 1.392 . S
C1185 C1189 1.495 . S
C1186 C1185 1.392 . S
C1186 C1187 1.385 . S
C1186 C1188 1.478 . S
C1187 H1181 0.930 . S
C1187 C1183 1.400 . S
C1187 C1186 1.385 . S
C1188 C1186 1.478 . S
C1188 C1190 1.381 . S
C1188 C1194 1.383 . S
C1189 C1185 1.495 . S
C1189 H1195 0.959 . S
C1189 H1196 0.961 . S
C1189 H1197 0.960 . S
C1190 C1188 1.381 . S
C1190 C1191 1.394 . S
C1190 H1198 0.930 . S
C1191 C1190 1.394 . S
C1191 C1192 1.383 . S
C1191 H1199 0.929 . S
C1192 C1191 1.383 . S
C1192 C1193 1.377 . S
C1193 H1177 0.930 . S
C1193 C1192 1.377 . S
C1193 C1194 1.379 . S
C1194 H1178 0.931 . S
C1194 C1188 1.383 . S
C1194 C1193 1.379 . S
H1195 C1189 0.959 . S
H1196 C1189 0.961 . S
H1197 C1189 0.960 . S
H1198 C1190 0.930 . S
H1199 C1191 0.929 . S
H1200 C1208 0.929 . S
H1201 C1210 0.930 . S
H1202 C1212 0.930 . S
H1203 C1215 0.929 . S
H1204 C1218 0.930 . S
H1205 C1220 0.960 . S
H1206 C1220 0.960 . S
H1207 C1220 0.960 . S
C1208 H1200 0.929 . S
C1208 C1209 1.377 . S
C1208 C1210 1.384 . S
C1209 C1208 1.377 . S
C1209 C1215 1.390 . S
C1210 H1201 0.930 . S
C1210 C1208 1.384 . S
C1210 C1211 1.372 . S
C1211 C1210 1.372 . S
C1211 C1212 1.400 . S
C1211 C1216 1.490 . S
C1212 H1202 0.930 . S
C1212 C1211 1.400 . S
C1212 C1215 1.386 . S
H1213 C1229 0.930 . S
H1214 C1230 0.931 . S
C1215 H1203 0.929 . S
C1215 C1209 1.390 . S
C1215 C1212 1.386 . S
C1216 C1211 1.490 . S
C1216 C1218 1.395 . S
C1216 C1219 1.403 . S
H1217 C1223 0.930 . S
C1218 H1204 0.930 . S
C1218 C1216 1.395 . S
C1218 C1221 1.403 . S
C1219 C1216 1.403 . S
C1219 C1220 1.524 . S
C1219 C1223 1.400 . S
C1220 H1205 0.960 . S
C1220 H1206 0.960 . S
C1220 H1207 0.960 . S
C1220 C1219 1.524 . S
C1221 C1218 1.403 . S
C1221 C1222 1.392 . S
C1221 C1225 1.495 . S
C1222 C1221 1.392 . S
C1222 C1223 1.385 . S
C1222 C1224 1.478 . S
C1223 H1217 0.930 . S
C1223 C1219 1.400 . S
C1223 C1222 1.385 . S
C1224 C1222 1.478 . S
C1224 C1226 1.381 . S
C1224 C1230 1.383 . S
C1225 C1221 1.495 . S
C1225 H1231 0.959 . S
C1225 H1232 0.961 . S
C1225 H1233 0.960 . S
C1226 C1224 1.381 . S
C1226 C1227 1.394 . S
C1226 H1234 0.930 . S
C1227 C1226 1.394 . S
C1227 C1228 1.383 . S
C1227 H1235 0.929 . S
C1228 C1227 1.383 . S
C1228 C1229 1.377 . S
C1229 H1213 0.930 . S
C1229 C1228 1.377 . S
C1229 C1230 1.379 . S
C1230 H1214 0.931 . S
C1230 C1224 1.383 . S
C1230 C1229 1.379 . S
H1231 C1225 0.959 . S
H1232 C1225 0.961 . S
H1233 C1225 0.960 . S
H1234 C1226 0.930 . S
H1235 C1227 0.929 . S
H1236 C1244 0.929 . S
H1237 C1246 0.930 . S
H1238 C1248 0.930 . S
H1239 C1251 0.929 . S
H1240 C1254 0.930 . S
H1241 C1256 0.960 . S
H1242 C1256 0.960 . S
H1243 C1256 0.960 . S
C1244 H1236 0.929 . S
C1244 C1245 1.377 . S
C1244 C1246 1.384 . S
C1245 C1244 1.377 . S
C1245 C1251 1.390 . S
C1246 H1237 0.930 . S
C1246 C1244 1.384 . S
C1246 C1247 1.372 . S
C1247 C1246 1.372 . S
C1247 C1248 1.400 . S
C1247 C1252 1.490 . S
C1248 H1238 0.930 . S
C1248 C1247 1.400 . S
C1248 C1251 1.386 . S
H1249 C1265 0.929 1_565 S
H1250 C1266 0.931 . S
C1251 H1239 0.929 . S
C1251 C1245 1.390 . S
C1251 C1248 1.386 . S
C1252 C1247 1.490 . S
C1252 C1254 1.395 . S
C1252 C1255 1.403 . S
H1253 C1259 0.930 . S
C1254 H1240 0.930 . S
C1254 C1252 1.395 . S
C1254 C1257 1.403 . S
C1255 C1252 1.403 . S
C1255 C1256 1.524 . S
C1255 C1259 1.400 . S
C1256 H1241 0.960 . S
C1256 H1242 0.960 . S
C1256 H1243 0.960 . S
C1256 C1255 1.524 . S
C1257 C1254 1.403 . S
C1257 C1258 1.392 . S
C1257 C1261 1.495 . S
C1258 C1257 1.392 . S
C1258 C1259 1.385 . S
C1258 C1260 1.478 . S
C1259 H1253 0.930 . S
C1259 C1255 1.400 . S
C1259 C1258 1.385 . S
C1260 C1258 1.478 . S
C1260 C1262 1.381 . S
C1260 C1266 1.383 . S
C1261 C1257 1.495 . S
C1261 H1267 0.959 . S
C1261 H1268 0.961 . S
C1261 H1269 0.960 . S
C1262 C1260 1.381 . S
C1262 C1263 1.394 1_545 S
C1262 H1270 0.930 . S
C1263 C1262 1.394 1_565 S
C1263 C1264 1.383 . S
C1263 H1271 0.929 . S
C1264 C1263 1.383 . S
C1264 C1265 1.377 1_565 S
C1265 H1249 0.929 1_545 S
C1265 C1264 1.377 1_545 S
C1265 C1266 1.379 . S
C1266 H1250 0.931 . S
C1266 C1260 1.383 . S
C1266 C1265 1.379 . S
H1267 C1261 0.959 . S
H1268 C1261 0.961 . S
H1269 C1261 0.960 . S
H1270 C1262 0.930 . S
H1271 C1263 0.929 . S
H1272 C1280 0.929 . S
H1273 C1282 0.930 . S
H1274 C1284 0.930 . S
H1275 C1287 0.929 . S
H1276 C1290 0.930 . S
H1277 C1292 0.960 . S
H1278 C1292 0.960 . S
H1279 C1292 0.960 . S
C1280 H1272 0.929 . S
C1280 C1281 1.377 . S
C1280 C1282 1.384 . S
C1281 C1280 1.377 . S
C1281 C1287 1.390 . S
C1282 H1273 0.930 . S
C1282 C1280 1.384 . S
C1282 C1283 1.372 . S
C1283 C1282 1.372 . S
C1283 C1284 1.400 . S
C1283 C1288 1.490 . S
C1284 H1274 0.930 . S
C1284 C1283 1.400 . S
C1284 C1287 1.386 . S
H1285 C1301 0.930 . S
H1286 C1302 0.931 . S
C1287 H1275 0.929 . S
C1287 C1281 1.390 . S
C1287 C1284 1.386 . S
C1288 C1283 1.490 . S
C1288 C1290 1.395 . S
C1288 C1291 1.403 . S
H1289 C1295 0.930 . S
C1290 H1276 0.930 . S
C1290 C1288 1.395 . S
C1290 C1293 1.403 . S
C1291 C1288 1.403 . S
C1291 C1292 1.524 . S
C1291 C1295 1.400 . S
C1292 H1277 0.960 . S
C1292 H1278 0.960 . S
C1292 H1279 0.960 . S
C1292 C1291 1.524 . S
C1293 C1290 1.403 . S
C1293 C1294 1.392 . S
C1293 C1297 1.495 . S
C1294 C1293 1.392 . S
C1294 C1295 1.385 . S
C1294 C1296 1.478 . S
C1295 H1289 0.930 . S
C1295 C1291 1.400 . S
C1295 C1294 1.385 . S
C1296 C1294 1.478 . S
C1296 C1298 1.381 . S
C1296 C1302 1.383 . S
C1297 C1293 1.495 . S
C1297 H1303 0.959 . S
C1297 H1304 0.961 . S
C1297 H1305 0.960 . S
C1298 C1296 1.381 . S
C1298 C1299 1.394 . S
C1298 H1306 0.930 . S
C1299 C1298 1.394 . S
C1299 C1300 1.383 . S
C1299 H1307 0.929 . S
C1300 C1299 1.383 . S
C1300 C1301 1.377 . S
C1301 H1285 0.930 . S
C1301 C1300 1.377 . S
C1301 C1302 1.379 . S
C1302 H1286 0.931 . S
C1302 C1296 1.383 . S
C1302 C1301 1.379 . S
H1303 C1297 0.959 . S
H1304 C1297 0.961 . S
H1305 C1297 0.960 . S
H1306 C1298 0.930 . S
H1307 C1299 0.929 . S
H1308 C1316 0.929 . S
H1309 C1318 0.930 . S
H1310 C1320 0.930 . S
H1311 C1323 0.929 . S
H1312 C1326 0.930 . S
H1313 C1328 0.960 . S
H1314 C1328 0.960 . S
H1315 C1328 0.960 . S
C1316 H1308 0.929 . S
C1316 C1317 1.377 . S
C1316 C1318 1.384 . S
C1317 C1316 1.377 . S
C1317 C1323 1.390 . S
C1318 H1309 0.930 . S
C1318 C1316 1.384 . S
C1318 C1319 1.372 1_545 S
C1319 C1318 1.372 1_565 S
C1319 C1320 1.400 . S
C1319 C1324 1.490 . S
C1320 H1310 0.930 . S
C1320 C1319 1.400 . S
C1320 C1323 1.386 1_565 S
H1321 C1337 0.930 . S
H1322 C1338 0.931 . S
C1323 H1311 0.929 . S
C1323 C1317 1.390 . S
C1323 C1320 1.386 1_545 S
C1324 C1319 1.490 . S
C1324 C1326 1.395 . S
C1324 C1327 1.403 . S
H1325 C1331 0.930 . S
C1326 H1312 0.930 . S
C1326 C1324 1.395 . S
C1326 C1329 1.403 . S
C1327 C1324 1.403 . S
C1327 C1328 1.524 . S
C1327 C1331 1.400 . S
C1328 H1313 0.960 . S
C1328 H1314 0.960 . S
C1328 H1315 0.960 . S
C1328 C1327 1.524 . S
C1329 C1326 1.403 . S
C1329 C1330 1.392 . S
C1329 C1333 1.495 1_554 S
C1330 C1329 1.392 . S
C1330 C1331 1.385 . S
C1330 C1332 1.478 . S
C1331 H1325 0.930 . S
C1331 C1327 1.400 . S
C1331 C1330 1.385 . S
C1332 C1330 1.478 . S
C1332 C1334 1.381 . S
C1332 C1338 1.383 1_554 S
C1333 C1329 1.495 1_556 S
C1333 H1339 0.959 . S
C1333 H1340 0.961 . S
C1333 H1341 0.960 . S
C1334 C1332 1.381 . S
C1334 C1335 1.394 . S
C1334 H1342 0.930 . S
C1335 C1334 1.394 . S
C1335 C1336 1.383 1_554 S
C1335 H1343 0.929 . S
C1336 C1335 1.383 1_556 S
C1336 C1337 1.377 . S
C1337 H1321 0.930 . S
C1337 C1336 1.377 . S
C1337 C1338 1.379 . S
C1338 H1322 0.931 . S
C1338 C1332 1.383 1_556 S
C1338 C1337 1.379 . S
H1339 C1333 0.959 . S
H1340 C1333 0.961 . S
H1341 C1333 0.960 . S
H1342 C1334 0.930 . S
H1343 C1335 0.929 . S
H1344 C1352 0.929 . S
H1345 C1354 0.930 . S
H1346 C1356 0.930 . S
H1347 C1359 0.929 . S
H1348 C1362 0.930 . S
H1349 C1364 0.960 . S
H1350 C1364 0.960 . S
H1351 C1364 0.960 . S
C1352 H1344 0.929 . S
C1352 C1353 1.377 . S
C1352 C1354 1.384 . S
C1353 C1352 1.377 . S
C1353 C1359 1.390 . S
C1354 H1345 0.930 . S
C1354 C1352 1.384 . S
C1354 C1355 1.372 . S
C1355 C1354 1.372 . S
C1355 C1356 1.400 . S
C1355 C1360 1.490 . S
C1356 H1346 0.930 . S
C1356 C1355 1.400 . S
C1356 C1359 1.386 . S
H1357 C1373 0.930 . S
H1358 C1374 0.931 . S
C1359 H1347 0.929 . S
C1359 C1353 1.390 . S
C1359 C1356 1.386 . S
C1360 C1355 1.490 . S
C1360 C1362 1.395 . S
C1360 C1363 1.403 . S
H1361 C1367 0.930 . S
C1362 H1348 0.930 . S
C1362 C1360 1.395 . S
C1362 C1365 1.403 . S
C1363 C1360 1.403 . S
C1363 C1364 1.524 . S
C1363 C1367 1.400 . S
C1364 H1349 0.960 . S
C1364 H1350 0.960 . S
C1364 H1351 0.960 . S
C1364 C1363 1.524 . S
C1365 C1362 1.403 . S
C1365 C1366 1.392 . S
C1365 C1369 1.495 . S
C1366 C1365 1.392 . S
C1366 C1367 1.385 . S
C1366 C1368 1.478 . S
C1367 H1361 0.930 . S
C1367 C1363 1.400 . S
C1367 C1366 1.385 . S
C1368 C1366 1.478 . S
C1368 C1370 1.381 . S
C1368 C1374 1.383 . S
C1369 C1365 1.495 . S
C1369 H1375 0.959 . S
C1369 H1376 0.961 . S
C1369 H1377 0.960 . S
C1370 C1368 1.381 . S
C1370 C1371 1.394 . S
C1370 H1378 0.930 . S
C1371 C1370 1.394 . S
C1371 C1372 1.383 . S
C1371 H1379 0.929 . S
C1372 C1371 1.383 . S
C1372 C1373 1.377 . S
C1373 H1357 0.930 . S
C1373 C1372 1.377 . S
C1373 C1374 1.379 . S
C1374 H1358 0.931 . S
C1374 C1368 1.383 . S
C1374 C1373 1.379 . S
H1375 C1369 0.959 . S
H1376 C1369 0.961 . S
H1377 C1369 0.960 . S
H1378 C1370 0.930 . S
H1379 C1371 0.929 . S
H1380 C1388 0.929 . S
H1381 C1390 0.930 . S
H1382 C1392 0.930 . S
H1383 C1395 0.929 . S
H1384 C1398 0.930 . S
H1385 C1400 0.960 . S
H1386 C1400 0.960 . S
H1387 C1400 0.960 . S
C1388 H1380 0.929 . S
C1388 C1389 1.377 . S
C1388 C1390 1.384 . S
C1389 C1388 1.377 . S
C1389 C1395 1.390 . S
C1390 H1381 0.930 . S
C1390 C1388 1.384 . S
C1390 C1391 1.372 . S
C1391 C1390 1.372 . S
C1391 C1392 1.400 . S
C1391 C1396 1.490 . S
C1392 H1382 0.930 . S
C1392 C1391 1.400 . S
C1392 C1395 1.386 . S
H1393 C1409 0.930 . S
H1394 C1410 0.931 . S
C1395 H1383 0.929 . S
C1395 C1389 1.390 . S
C1395 C1392 1.386 . S
C1396 C1391 1.490 . S
C1396 C1398 1.395 . S
C1396 C1399 1.403 . S
H1397 C1403 0.930 . S
C1398 H1384 0.930 . S
C1398 C1396 1.395 . S
C1398 C1401 1.403 . S
C1399 C1396 1.403 . S
C1399 C1400 1.524 . S
C1399 C1403 1.400 . S
C1400 H1385 0.960 . S
C1400 H1386 0.960 . S
C1400 H1387 0.960 . S
C1400 C1399 1.524 . S
C1401 C1398 1.403 . S
C1401 C1402 1.392 . S
C1401 C1405 1.495 . S
C1402 C1401 1.392 . S
C1402 C1403 1.385 . S
C1402 C1404 1.478 . S
C1403 H1397 0.930 . S
C1403 C1399 1.400 . S
C1403 C1402 1.385 . S
C1404 C1402 1.478 . S
C1404 C1406 1.381 . S
C1404 C1410 1.383 . S
C1405 C1401 1.495 . S
C1405 H1411 0.959 . S
C1405 H1412 0.961 . S
C1405 H1413 0.960 . S
C1406 C1404 1.381 . S
C1406 C1407 1.394 . S
C1406 H1414 0.930 . S
C1407 C1406 1.394 . S
C1407 C1408 1.383 . S
C1407 H1415 0.929 . S
C1408 C1407 1.383 . S
C1408 C1409 1.377 . S
C1409 H1393 0.930 . S
C1409 C1408 1.377 . S
C1409 C1410 1.379 . S
C1410 H1394 0.931 . S
C1410 C1404 1.383 . S
C1410 C1409 1.379 . S
H1411 C1405 0.959 . S
H1412 C1405 0.961 . S
H1413 C1405 0.960 . S
H1414 C1406 0.930 . S
H1415 C1407 0.929 . S
H1416 C1424 0.929 . S
H1417 C1426 0.930 . S
H1418 C1428 0.930 . S
H1419 C1431 0.929 . S
H1420 C1434 0.930 . S
H1421 C1436 0.960 . S
H1422 C1436 0.960 . S
H1423 C1436 0.960 . S
C1424 H1416 0.929 . S
C1424 C1425 1.377 . S
C1424 C1426 1.384 . S
C1425 C1424 1.377 . S
C1425 C1431 1.390 . S
C1426 H1417 0.930 . S
C1426 C1424 1.384 . S
C1426 C1427 1.372 . S
C1427 C1426 1.372 . S
C1427 C1428 1.400 . S
C1427 C1432 1.490 . S
C1428 H1418 0.930 . S
C1428 C1427 1.400 . S
C1428 C1431 1.386 . S
H1429 C1445 0.930 . S
H1430 C1446 0.931 . S
C1431 H1419 0.929 . S
C1431 C1425 1.390 . S
C1431 C1428 1.386 . S
C1432 C1427 1.490 . S
C1432 C1434 1.395 . S
C1432 C1435 1.403 . S
H1433 C1439 0.930 . S
C1434 H1420 0.930 . S
C1434 C1432 1.395 . S
C1434 C1437 1.403 . S
C1435 C1432 1.403 . S
C1435 C1436 1.524 . S
C1435 C1439 1.400 . S
C1436 H1421 0.960 . S
C1436 H1422 0.960 . S
C1436 H1423 0.960 . S
C1436 C1435 1.524 . S
C1437 C1434 1.403 . S
C1437 C1438 1.392 . S
C1437 C1441 1.495 . S
C1438 C1437 1.392 . S
C1438 C1439 1.385 . S
C1438 C1440 1.478 . S
C1439 H1433 0.930 . S
C1439 C1435 1.400 . S
C1439 C1438 1.385 . S
C1440 C1438 1.478 . S
C1440 C1442 1.381 . S
C1440 C1446 1.383 . S
C1441 C1437 1.495 . S
C1441 H1447 0.959 . S
C1441 H1448 0.961 . S
C1441 H1449 0.960 . S
C1442 C1440 1.381 . S
C1442 C1443 1.394 . S
C1442 H1450 0.930 . S
C1443 C1442 1.394 . S
C1443 C1444 1.383 . S
C1443 H1451 0.929 . S
C1444 C1443 1.383 . S
C1444 C1445 1.377 . S
C1445 H1429 0.930 . S
C1445 C1444 1.377 . S
C1445 C1446 1.379 . S
C1446 H1430 0.931 . S
C1446 C1440 1.383 . S
C1446 C1445 1.379 . S
H1447 C1441 0.959 . S
H1448 C1441 0.961 . S
H1449 C1441 0.960 . S
H1450 C1442 0.930 . S
H1451 C1443 0.929 . S
H1452 C1460 0.929 . S
H1453 C1462 0.930 . S
H1454 C1464 0.930 . S
H1455 C1467 0.929 . S
H1456 C1470 0.930 . S
H1457 C1472 0.960 . S
H1458 C1472 0.960 . S
H1459 C1472 0.960 . S
C1460 H1452 0.929 . S
C1460 C1461 1.377 . S
C1460 C1462 1.384 . S
C1461 C1460 1.377 . S
C1461 C1467 1.390 . S
C1462 H1453 0.930 . S
C1462 C1460 1.384 . S
C1462 C1463 1.372 . S
C1463 C1462 1.372 . S
C1463 C1464 1.400 . S
C1463 C1468 1.490 . S
C1464 H1454 0.930 . S
C1464 C1463 1.400 . S
C1464 C1467 1.386 . S
H1465 C1481 0.930 . S
H1466 C1482 0.931 . S
C1467 H1455 0.929 . S
C1467 C1461 1.390 . S
C1467 C1464 1.386 . S
C1468 C1463 1.490 . S
C1468 C1470 1.395 . S
C1468 C1471 1.403 . S
H1469 C1475 0.930 . S
C1470 H1456 0.930 . S
C1470 C1468 1.395 . S
C1470 C1473 1.403 . S
C1471 C1468 1.403 . S
C1471 C1472 1.524 . S
C1471 C1475 1.400 . S
C1472 H1457 0.960 . S
C1472 H1458 0.960 . S
C1472 H1459 0.960 . S
C1472 C1471 1.524 . S
C1473 C1470 1.403 . S
C1473 C1474 1.392 . S
C1473 C1477 1.495 . S
C1474 C1473 1.392 . S
C1474 C1475 1.385 . S
C1474 C1476 1.478 . S
C1475 H1469 0.930 . S
C1475 C1471 1.400 . S
C1475 C1474 1.385 . S
C1476 C1474 1.478 . S
C1476 C1478 1.381 . S
C1476 C1482 1.383 . S
C1477 C1473 1.495 . S
C1477 H1483 0.959 . S
C1477 H1484 0.961 . S
C1477 H1485 0.960 . S
C1478 C1476 1.381 . S
C1478 C1479 1.394 . S
C1478 H1486 0.930 . S
C1479 C1478 1.394 . S
C1479 C1480 1.383 . S
C1479 H1487 0.929 . S
C1480 C1479 1.383 . S
C1480 C1481 1.377 . S
C1481 H1465 0.930 . S
C1481 C1480 1.377 . S
C1481 C1482 1.379 . S
C1482 H1466 0.931 . S
C1482 C1476 1.383 . S
C1482 C1481 1.379 . S
H1483 C1477 0.959 . S
H1484 C1477 0.961 . S
H1485 C1477 0.960 . S
H1486 C1478 0.930 . S
H1487 C1479 0.929 . S
H1488 C1496 0.929 . S
H1489 C1498 0.930 . S
H1490 C1500 0.930 . S
H1491 C1503 0.929 . S
H1492 C1506 0.930 . S
H1493 C1508 0.960 . S
H1494 C1508 0.960 . S
H1495 C1508 0.960 . S
C1496 H1488 0.929 . S
C1496 C1497 1.377 . S
C1496 C1498 1.384 . S
C1497 C1496 1.377 . S
C1497 C1503 1.390 . S
C1498 H1489 0.930 . S
C1498 C1496 1.384 . S
C1498 C1499 1.372 . S
C1499 C1498 1.372 . S
C1499 C1500 1.400 . S
C1499 C1504 1.490 . S
C1500 H1490 0.930 . S
C1500 C1499 1.400 . S
C1500 C1503 1.386 . S
H1501 C1517 0.930 . S
H1502 C1518 0.931 . S
C1503 H1491 0.929 . S
C1503 C1497 1.390 . S
C1503 C1500 1.386 . S
C1504 C1499 1.490 . S
C1504 C1506 1.395 . S
C1504 C1507 1.403 . S
H1505 C1511 0.930 . S
C1506 H1492 0.930 . S
C1506 C1504 1.395 . S
C1506 C1509 1.403 . S
C1507 C1504 1.403 . S
C1507 C1508 1.524 . S
C1507 C1511 1.400 . S
C1508 H1493 0.960 . S
C1508 H1494 0.960 . S
C1508 H1495 0.960 . S
C1508 C1507 1.524 . S
C1509 C1506 1.403 . S
C1509 C1510 1.392 . S
C1509 C1513 1.495 . S
C1510 C1509 1.392 . S
C1510 C1511 1.385 . S
C1510 C1512 1.478 . S
C1511 H1505 0.930 . S
C1511 C1507 1.400 . S
C1511 C1510 1.385 . S
C1512 C1510 1.478 . S
C1512 C1514 1.381 . S
C1512 C1518 1.383 . S
C1513 C1509 1.495 . S
C1513 H1519 0.959 . S
C1513 H1520 0.961 . S
C1513 H1521 0.960 . S
C1514 C1512 1.381 . S
C1514 C1515 1.394 . S
C1514 H1522 0.930 . S
C1515 C1514 1.394 . S
C1515 C1516 1.383 . S
C1515 H1523 0.929 . S
C1516 C1515 1.383 . S
C1516 C1517 1.377 . S
C1517 H1501 0.930 . S
C1517 C1516 1.377 . S
C1517 C1518 1.379 . S
C1518 H1502 0.931 . S
C1518 C1512 1.383 . S
C1518 C1517 1.379 . S
H1519 C1513 0.959 . S
H1520 C1513 0.961 . S
H1521 C1513 0.960 . S
H1522 C1514 0.930 . S
H1523 C1515 0.929 . S
H1524 C1532 0.929 . S
H1525 C1534 0.930 . S
H1526 C1536 0.930 . S
H1527 C1539 0.929 . S
H1528 C1542 0.930 . S
H1529 C1544 0.960 . S
H1530 C1544 0.960 . S
H1531 C1544 0.960 . S
C1532 H1524 0.929 . S
C1532 C1533 1.377 . S
C1532 C1534 1.384 . S
C1533 C1532 1.377 . S
C1533 C1539 1.390 . S
C1534 H1525 0.930 . S
C1534 C1532 1.384 . S
C1534 C1535 1.372 . S
C1535 C1534 1.372 . S
C1535 C1536 1.400 . S
C1535 C1540 1.490 . S
C1536 H1526 0.930 . S
C1536 C1535 1.400 . S
C1536 C1539 1.386 . S
H1537 C1553 0.930 . S
H1538 C1554 0.931 . S
C1539 H1527 0.929 . S
C1539 C1533 1.390 . S
C1539 C1536 1.386 . S
C1540 C1535 1.490 . S
C1540 C1542 1.395 . S
C1540 C1543 1.403 . S
H1541 C1547 0.930 . S
C1542 H1528 0.930 . S
C1542 C1540 1.395 . S
C1542 C1545 1.403 . S
C1543 C1540 1.403 . S
C1543 C1544 1.524 . S
C1543 C1547 1.400 . S
C1544 H1529 0.960 . S
C1544 H1530 0.960 . S
C1544 H1531 0.960 . S
C1544 C1543 1.524 . S
C1545 C1542 1.403 . S
C1545 C1546 1.392 . S
C1545 C1549 1.495 . S
C1546 C1545 1.392 . S
C1546 C1547 1.385 . S
C1546 C1548 1.478 . S
C1547 H1541 0.930 . S
C1547 C1543 1.400 . S
C1547 C1546 1.385 . S
C1548 C1546 1.478 . S
C1548 C1550 1.381 . S
C1548 C1554 1.383 . S
C1549 C1545 1.495 . S
C1549 H1555 0.959 . S
C1549 H1556 0.961 . S
C1549 H1557 0.960 . S
C1550 C1548 1.381 . S
C1550 C1551 1.394 . S
C1550 H1558 0.930 . S
C1551 C1550 1.394 . S
C1551 C1552 1.383 . S
C1551 H1559 0.929 . S
C1552 C1551 1.383 . S
C1552 C1553 1.377 . S
C1553 H1537 0.930 . S
C1553 C1552 1.377 . S
C1553 C1554 1.379 . S
C1554 H1538 0.931 . S
C1554 C1548 1.383 . S
C1554 C1553 1.379 . S
H1555 C1549 0.959 . S
H1556 C1549 0.961 . S
H1557 C1549 0.960 . S
H1558 C1550 0.930 . S
H1559 C1551 0.929 . S
H1560 C1568 0.929 . S
H1561 C1570 0.930 . S
H1562 C1572 0.930 . S
H1563 C1575 0.929 . S
H1564 C1578 0.930 . S
H1565 C1580 0.960 . S
H1566 C1580 0.960 . S
H1567 C1580 0.960 . S
C1568 H1560 0.929 . S
C1568 C1569 1.377 . S
C1568 C1570 1.384 . S
C1569 C1568 1.377 . S
C1569 C1575 1.390 . S
C1570 H1561 0.930 . S
C1570 C1568 1.384 . S
C1570 C1571 1.372 . S
C1571 C1570 1.372 . S
C1571 C1572 1.400 . S
C1571 C1576 1.490 . S
C1572 H1562 0.930 . S
C1572 C1571 1.400 . S
C1572 C1575 1.386 . S
H1573 C1589 0.930 . S
H1574 C1590 0.931 . S
C1575 H1563 0.929 . S
C1575 C1569 1.390 . S
C1575 C1572 1.386 . S
C1576 C1571 1.490 . S
C1576 C1578 1.395 . S
C1576 C1579 1.403 . S
H1577 C1583 0.930 1_655 S
C1578 H1564 0.930 . S
C1578 C1576 1.395 . S
C1578 C1581 1.403 . S
C1579 C1576 1.403 . S
C1579 C1580 1.524 . S
C1579 C1583 1.400 . S
C1580 H1565 0.960 . S
C1580 H1566 0.960 . S
C1580 H1567 0.960 . S
C1580 C1579 1.524 . S
C1581 C1578 1.403 . S
C1581 C1582 1.392 . S
C1581 C1585 1.495 . S
C1582 C1581 1.392 . S
C1582 C1583 1.385 . S
C1582 C1584 1.478 1_455 S
C1583 H1577 0.930 1_455 S
C1583 C1579 1.400 . S
C1583 C1582 1.385 . S
C1584 C1582 1.478 1_655 S
C1584 C1586 1.381 . S
C1584 C1590 1.383 . S
C1585 C1581 1.495 . S
C1585 H1591 0.959 . S
C1585 H1592 0.961 . S
C1585 H1593 0.960 . S
C1586 C1584 1.381 . S
C1586 C1587 1.394 . S
C1586 H1594 0.930 . S
C1587 C1586 1.394 . S
C1587 C1588 1.383 . S
C1587 H1595 0.929 . S
C1588 C1587 1.383 . S
C1588 C1589 1.377 . S
C1589 H1573 0.930 . S
C1589 C1588 1.377 . S
C1589 C1590 1.379 . S
C1590 H1574 0.931 . S
C1590 C1584 1.383 . S
C1590 C1589 1.379 . S
H1591 C1585 0.959 . S
H1592 C1585 0.961 . S
H1593 C1585 0.960 . S
H1594 C1586 0.930 . S
H1595 C1587 0.929 . S
H1596 C1604 0.929 . S
H1597 C1606 0.930 . S
H1598 C1608 0.930 . S
H1599 C1611 0.929 . S
H1600 C1614 0.930 . S
H1601 C1616 0.960 . S
H1602 C1616 0.960 . S
H1603 C1616 0.960 . S
C1604 H1596 0.929 . S
C1604 C1605 1.377 . S
C1604 C1606 1.384 . S
C1605 C1604 1.377 . S
C1605 C1611 1.390 . S
C1606 H1597 0.930 . S
C1606 C1604 1.384 . S
C1606 C1607 1.372 . S
C1607 C1606 1.372 . S
C1607 C1608 1.400 . S
C1607 C1612 1.490 . S
C1608 H1598 0.930 . S
C1608 C1607 1.400 . S
C1608 C1611 1.386 . S
H1609 C1625 0.930 . S
H1610 C1626 0.931 . S
C1611 H1599 0.929 . S
C1611 C1605 1.390 . S
C1611 C1608 1.386 . S
C1612 C1607 1.490 . S
C1612 C1614 1.395 . S
C1612 C1615 1.403 . S
H1613 C1619 0.930 . S
C1614 H1600 0.930 . S
C1614 C1612 1.395 . S
C1614 C1617 1.403 . S
C1615 C1612 1.403 . S
C1615 C1616 1.524 . S
C1615 C1619 1.400 . S
C1616 H1601 0.960 . S
C1616 H1602 0.960 . S
C1616 H1603 0.960 . S
C1616 C1615 1.524 . S
C1617 C1614 1.403 . S
C1617 C1618 1.392 . S
C1617 C1621 1.495 . S
C1618 C1617 1.392 . S
C1618 C1619 1.385 . S
C1618 C1620 1.478 . S
C1619 H1613 0.930 . S
C1619 C1615 1.400 . S
C1619 C1618 1.385 . S
C1620 C1618 1.478 . S
C1620 C1622 1.381 . S
C1620 C1626 1.383 . S
C1621 C1617 1.495 . S
C1621 H1627 0.959 . S
C1621 H1628 0.961 . S
C1621 H1629 0.960 . S
C1622 C1620 1.381 . S
C1622 C1623 1.394 . S
C1622 H1630 0.930 . S
C1623 C1622 1.394 . S
C1623 C1624 1.383 . S
C1623 H1631 0.929 . S
C1624 C1623 1.383 . S
C1624 C1625 1.377 . S
C1625 H1609 0.930 . S
C1625 C1624 1.377 . S
C1625 C1626 1.379 . S
C1626 H1610 0.931 . S
C1626 C1620 1.383 . S
C1626 C1625 1.379 . S
H1627 C1621 0.959 . S
H1628 C1621 0.961 . S
H1629 C1621 0.960 . S
H1630 C1622 0.930 . S
H1631 C1623 0.929 . S
H1632 C1640 0.929 . S
H1633 C1642 0.930 . S
H1634 C1644 0.930 . S
H1635 C1647 0.929 . S
H1636 C1650 0.930 . S
H1637 C1652 0.960 . S
H1638 C1652 0.960 . S
H1639 C1652 0.960 . S
C1640 H1632 0.929 . S
C1640 C1641 1.377 . S
C1640 C1642 1.384 . S
C1641 C1640 1.377 . S
C1641 C1647 1.390 . S
C1642 H1633 0.930 . S
C1642 C1640 1.384 . S
C1642 C1643 1.372 . S
C1643 C1642 1.372 . S
C1643 C1644 1.400 . S
C1643 C1648 1.490 . S
C1644 H1634 0.930 . S
C1644 C1643 1.400 . S
C1644 C1647 1.386 . S
H1645 C1661 0.930 . S
H1646 C1662 0.931 . S
C1647 H1635 0.929 . S
C1647 C1641 1.390 . S
C1647 C1644 1.386 . S
C1648 C1643 1.490 . S
C1648 C1650 1.395 . S
C1648 C1651 1.403 . S
H1649 C1655 0.930 . S
C1650 H1636 0.930 . S
C1650 C1648 1.395 . S
C1650 C1653 1.403 . S
C1651 C1648 1.403 . S
C1651 C1652 1.524 . S
C1651 C1655 1.400 . S
C1652 H1637 0.960 . S
C1652 H1638 0.960 . S
C1652 H1639 0.960 . S
C1652 C1651 1.524 . S
C1653 C1650 1.403 . S
C1653 C1654 1.392 . S
C1653 C1657 1.495 . S
C1654 C1653 1.392 . S
C1654 C1655 1.385 . S
C1654 C1656 1.478 . S
C1655 H1649 0.930 . S
C1655 C1651 1.400 . S
C1655 C1654 1.385 . S
C1656 C1654 1.478 . S
C1656 C1658 1.381 . S
C1656 C1662 1.383 . S
C1657 C1653 1.495 . S
C1657 H1663 0.959 . S
C1657 H1664 0.961 . S
C1657 H1665 0.960 . S
C1658 C1656 1.381 . S
C1658 C1659 1.394 . S
C1658 H1666 0.930 . S
C1659 C1658 1.394 . S
C1659 C1660 1.383 . S
C1659 H1667 0.929 . S
C1660 C1659 1.383 . S
C1660 C1661 1.377 . S
C1661 H1645 0.930 . S
C1661 C1660 1.377 . S
C1661 C1662 1.379 . S
C1662 H1646 0.931 . S
C1662 C1656 1.383 . S
C1662 C1661 1.379 . S
H1663 C1657 0.959 . S
H1664 C1657 0.961 . S
H1665 C1657 0.960 . S
H1666 C1658 0.930 . S
H1667 C1659 0.929 . S
H1668 C1676 0.929 . S
H1669 C1678 0.930 . S
H1670 C1680 0.930 . S
H1671 C1683 0.929 . S
H1672 C1686 0.930 . S
H1673 C1688 0.960 . S
H1674 C1688 0.960 . S
H1675 C1688 0.960 . S
C1676 H1668 0.929 . S
C1676 C1677 1.377 . S
C1676 C1678 1.384 . S
C1677 C1676 1.377 . S
C1677 C1683 1.390 . S
C1678 H1669 0.930 . S
C1678 C1676 1.384 . S
C1678 C1679 1.372 . S
C1679 C1678 1.372 . S
C1679 C1680 1.400 . S
C1679 C1684 1.490 . S
C1680 H1670 0.930 . S
C1680 C1679 1.400 . S
C1680 C1683 1.386 . S
H1681 C1697 0.930 . S
H1682 C1698 0.931 . S
C1683 H1671 0.929 . S
C1683 C1677 1.390 . S
C1683 C1680 1.386 . S
C1684 C1679 1.490 . S
C1684 C1686 1.395 . S
C1684 C1687 1.403 . S
H1685 C1691 0.930 . S
C1686 H1672 0.930 . S
C1686 C1684 1.395 . S
C1686 C1689 1.403 . S
C1687 C1684 1.403 . S
C1687 C1688 1.524 . S
C1687 C1691 1.400 . S
C1688 H1673 0.960 . S
C1688 H1674 0.960 . S
C1688 H1675 0.960 . S
C1688 C1687 1.524 . S
C1689 C1686 1.403 . S
C1689 C1690 1.392 . S
C1689 C1693 1.495 . S
C1690 C1689 1.392 . S
C1690 C1691 1.385 . S
C1690 C1692 1.478 . S
C1691 H1685 0.930 . S
C1691 C1687 1.400 . S
C1691 C1690 1.385 . S
C1692 C1690 1.478 . S
C1692 C1694 1.381 . S
C1692 C1698 1.383 . S
C1693 C1689 1.495 . S
C1693 H1699 0.959 . S
C1693 H1700 0.961 . S
C1693 H1701 0.960 . S
C1694 C1692 1.381 . S
C1694 C1695 1.394 . S
C1694 H1702 0.930 . S
C1695 C1694 1.394 . S
C1695 C1696 1.383 . S
C1695 H1703 0.929 . S
C1696 C1695 1.383 . S
C1696 C1697 1.377 . S
C1697 H1681 0.930 . S
C1697 C1696 1.377 . S
C1697 C1698 1.379 . S
C1698 H1682 0.931 . S
C1698 C1692 1.383 . S
C1698 C1697 1.379 . S
H1699 C1693 0.959 . S
H1700 C1693 0.961 . S
H1701 C1693 0.960 . S
H1702 C1694 0.930 . S
H1703 C1695 0.929 . S
H1704 C1712 0.929 . S
H1705 C1714 0.930 . S
H1706 C1716 0.930 . S
H1707 C1719 0.929 . S
H1708 C1722 0.930 . S
H1709 C1724 0.960 . S
H1710 C1724 0.960 . S
H1711 C1724 0.960 . S
C1712 H1704 0.929 . S
C1712 C1713 1.377 . S
C1712 C1714 1.384 . S
C1713 C1712 1.377 . S
C1713 C1719 1.390 . S
C1714 H1705 0.930 . S
C1714 C1712 1.384 . S
C1714 C1715 1.372 . S
C1715 C1714 1.372 . S
C1715 C1716 1.400 . S
C1715 C1720 1.490 . S
C1716 H1706 0.930 . S
C1716 C1715 1.400 . S
C1716 C1719 1.386 . S
H1717 C1733 0.930 . S
H1718 C1734 0.931 . S
C1719 H1707 0.929 . S
C1719 C1713 1.390 . S
C1719 C1716 1.386 . S
C1720 C1715 1.490 . S
C1720 C1722 1.395 . S
C1720 C1723 1.403 . S
H1721 C1727 0.930 . S
C1722 H1708 0.930 . S
C1722 C1720 1.395 . S
C1722 C1725 1.403 . S
C1723 C1720 1.403 . S
C1723 C1724 1.524 . S
C1723 C1727 1.400 . S
C1724 H1709 0.960 . S
C1724 H1710 0.960 . S
C1724 H1711 0.960 . S
C1724 C1723 1.524 . S
C1725 C1722 1.403 . S
C1725 C1726 1.392 . S
C1725 C1729 1.495 . S
C1726 C1725 1.392 . S
C1726 C1727 1.385 . S
C1726 C1728 1.478 . S
C1727 H1721 0.930 . S
C1727 C1723 1.400 . S
C1727 C1726 1.385 . S
C1728 C1726 1.478 . S
C1728 C1730 1.381 . S
C1728 C1734 1.383 . S
C1729 C1725 1.495 . S
C1729 H1735 0.959 . S
C1729 H1736 0.961 . S
C1729 H1737 0.960 . S
C1730 C1728 1.381 . S
C1730 C1731 1.394 1_565 S
C1730 H1738 0.930 . S
C1731 C1730 1.394 1_545 S
C1731 C1732 1.383 1_545 S
C1731 H1739 0.929 . S
C1732 C1731 1.383 1_565 S
C1732 C1733 1.377 . S
C1733 H1717 0.930 . S
C1733 C1732 1.377 . S
C1733 C1734 1.379 . S
C1734 H1718 0.931 . S
C1734 C1728 1.383 . S
C1734 C1733 1.379 . S
H1735 C1729 0.959 . S
H1736 C1729 0.961 . S
H1737 C1729 0.960 . S
H1738 C1730 0.930 . S
H1739 C1731 0.929 . S
H1740 C1748 0.929 . S
H1741 C1750 0.930 . S
H1742 C1752 0.930 . S
H1743 C1755 0.929 . S
H1744 C1758 0.930 . S
H1745 C1760 0.960 . S
H1746 C1760 0.960 . S
H1747 C1760 0.960 . S
C1748 H1740 0.929 . S
C1748 C1749 1.377 . S
C1748 C1750 1.384 1_565 S
C1749 C1748 1.377 . S
C1749 C1755 1.390 1_565 S
C1750 H1741 0.930 . S
C1750 C1748 1.384 1_545 S
C1750 C1751 1.372 . S
C1751 C1750 1.372 . S
C1751 C1752 1.400 . S
C1751 C1756 1.490 . S
C1752 H1742 0.930 . S
C1752 C1751 1.400 . S
C1752 C1755 1.386 . S
H1753 C1769 0.930 . S
H1754 C1770 0.931 . S
C1755 H1743 0.929 . S
C1755 C1749 1.390 1_545 S
C1755 C1752 1.386 . S
C1756 C1751 1.490 . S
C1756 C1758 1.395 . S
C1756 C1759 1.403 . S
H1757 C1763 0.930 . S
C1758 H1744 0.930 . S
C1758 C1756 1.395 . S
C1758 C1761 1.403 . S
C1759 C1756 1.403 . S
C1759 C1760 1.524 . S
C1759 C1763 1.400 . S
C1760 H1745 0.960 . S
C1760 H1746 0.960 . S
C1760 H1747 0.960 . S
C1760 C1759 1.524 . S
C1761 C1758 1.403 . S
C1761 C1762 1.392 . S
C1761 C1765 1.495 . S
C1762 C1761 1.392 . S
C1762 C1763 1.385 . S
C1762 C1764 1.478 . S
C1763 H1757 0.930 . S
C1763 C1759 1.400 . S
C1763 C1762 1.385 . S
C1764 C1762 1.478 . S
C1764 C1766 1.381 . S
C1764 C1770 1.383 . S
C1765 C1761 1.495 . S
C1765 H1771 0.959 . S
C1765 H1772 0.961 . S
C1765 H1773 0.960 . S
C1766 C1764 1.381 . S
C1766 C1767 1.394 . S
C1766 H1774 0.930 . S
C1767 C1766 1.394 . S
C1767 C1768 1.383 . S
C1767 H1775 0.929 . S
C1768 C1767 1.383 . S
C1768 C1769 1.377 . S
C1769 H1753 0.930 . S
C1769 C1768 1.377 . S
C1769 C1770 1.379 . S
C1770 H1754 0.931 . S
C1770 C1764 1.383 . S
C1770 C1769 1.379 . S
H1771 C1765 0.959 . S
H1772 C1765 0.961 . S
H1773 C1765 0.960 . S
H1774 C1766 0.930 . S
H1775 C1767 0.929 . S
C489 C15 0.393 . S
C508 C455 0.368 . S
C525 C378 2.774 . S
C544 C58 2.711 1_655 S
C561 C95 2.015 . S
C580 C338 1.991 . S
C597 C138 2.918 . S
C616 C418 2.994 . S
C633 C178 1.583 . S
C652 C415 1.702 . S
C669 C215 1.288 . S
C688 C458 1.240 . S
C705 C375 1.711 . S
C724 C258 1.522 . S
C741 C298 1.386 . S
C760 C335 1.388 . S
C777 C135 0.863 . S
C796 C175 0.782 . S
C813 C18 3.316 . S
C832 C218 3.391 1_455 S
C849 C55 0.317 . S
C868 C255 0.395 . S
C885 C295 1.775 . S
C904 C98 1.666 1_554 S
C921 C19 3.218 . S
C940 C329 3.242 . S
C957 C50 2.789 1_655 S
C976 C409 2.754 . S
C993 C446 0.693 . S
C1012 C99 0.742 . S
C1029 C130 1.879 . S
C1048 C369 1.835 . S
C1065 C170 0.817 . S
C1084 C366 0.845 . S
C1101 C326 1.203 1_556 S
C1120 C219 1.143 . S
C1137 C406 1.926 . S
C1156 C250 1.937 . S
C1173 C449 1.811 . S
C1192 C290 1.803 . S
C1209 C9 2.287 . S
C1228 C139 2.267 . S
C1245 C10 1.798 . S
C1264 C46 1.769 . S
C1281 C59 3.037 . S
C1300 C89 2.995 . S
C1317 C126 1.919 . S
C1336 C90 1.972 . S
C1353 C210 0.840 . S
C1372 C166 0.831 . S
C1389 C209 2.039 . S
C1408 C259 2.041 . S
C1425 C246 0.125 . S
C1444 C299 0.188 . S
C1461 C179 0.997 . S
C1480 C286 0.992 . S
C1497 C339 1.185 . S
C1516 C129 1.241 . S
C1533 C206 1.748 . S
C1552 C370 1.764 . S
C1569 C330 1.696 . S
C1588 C249 1.700 . S
C1605 C410 3.194 . S
C1624 C289 3.145 . S
C1641 C169 0.347 . S
C1660 C459 0.361 . S
C1677 C450 1.331 . S
C1696 C49 1.301 . S
C1713 C86 0.978 . S
C1732 C379 0.993 1_565 S
C1749 C419 2.035 . S
C1768 C6 2.049 1_655 S
