# Generated by pormake.
# Topology snp, (6)-cn, num edge types: 1
# Building blocks:
#     Node 0, Type 0, BuildingBlock: INOVEN_clean_sbu_0, # of connection points: 6
#     Node 1, Type 0, BuildingBlock: INOVEN_clean_sbu_0, # of connection points: 6
#     Node 2, Type 0, BuildingBlock: INOVEN_clean_sbu_0, # of connection points: 6
#     Node 3, Type 0, BuildingBlock: INOVEN_clean_sbu_0, # of connection points: 6
#     Edge 4, Type (0, 0), BuildingBlock: OJICUG_clean_linker_0, # of connection points: 2
#     Edge 5, Type (0, 0), BuildingBlock: OJICUG_clean_linker_0, # of connection points: 2
#     Edge 6, Type (0, 0), BuildingBlock: OJICUG_clean_linker_0, # of connection points: 2
#     Edge 7, Type (0, 0), BuildingBlock: OJICUG_clean_linker_0, # of connection points: 2
#     Edge 8, Type (0, 0), BuildingBlock: OJICUG_clean_linker_0, # of connection points: 2
#     Edge 9, Type (0, 0), BuildingBlock: OJICUG_clean_linker_0, # of connection points: 2
#     Edge 10, Type (0, 0), BuildingBlock: OJICUG_clean_linker_0, # of connection points: 2
#     Edge 11, Type (0, 0), BuildingBlock: OJICUG_clean_linker_0, # of connection points: 2
#     Edge 12, Type (0, 0), BuildingBlock: OJICUG_clean_linker_0, # of connection points: 2
#     Edge 13, Type (0, 0), BuildingBlock: OJICUG_clean_linker_0, # of connection points: 2
#     Edge 14, Type (0, 0), BuildingBlock: OJICUG_clean_linker_0, # of connection points: 2
#     Edge 15, Type (0, 0), BuildingBlock: OJICUG_clean_linker_0, # of connection points: 2
# Relax obj value: 0.234
# Max RMSD: 0.250
# Mean RMSD: 0.239
data_MOF--net-snp--node1-INOVEN_clean_sbu_0--edge1-OJICUG_clean_linker_0
_symmetry_space_group_name_H-M    P1
_symmetry_Int_Tables_number       1
_symmetry_cell_setting            triclinic
loop_
_symmetry_equiv_pos_as_xyz
'x, y, z'
_cell_length_a     18.793313
_cell_length_b     18.58579
_cell_length_c     28.770621
_cell_angle_alpha  81.500607
_cell_angle_beta   108.22001
_cell_angle_gamma 99.440335
loop_
_atom_site_label
_atom_site_type_symbol
_atom_site_fract_x
_atom_site_fract_y
_atom_site_fract_z
_atom_type_partial_charge
Gd0 Gd 0.27467 0.13527 0.14668 0.0
Gd1 Gd 0.26979 -0.01133 0.10383 0.0
C2 C 0.26084 -0.02006 0.21352 0.0
C3 C 0.2611 0.23659 0.19555 0.0
C4 C 0.25628 0.24461 0.24505 0.0
C5 C 0.30482 0.29979 0.27193 0.0
C6 C 0.20314 0.19995 0.26545 0.0
C7 C 0.24619 0.26737 0.33821 0.0
C8 C 0.19819 0.21118 0.3115 0.0
C9 C 0.30005 0.31094 0.31787 0.0
C10 C 0.40789 0.09022 0.15349 0.0
C11 C 0.25346 0.14728 1.03193 0.0
C12 C 0.30564 0.89319 0.06125 0.0
C13 C 0.28436 0.87514 1.00998 0.0
C14 C 0.20967 0.87579 0.97944 0.0
C15 C 0.33914 0.85816 0.99093 0.0
C16 C 0.24433 0.84037 0.91197 0.0
C17 C 0.31941 0.84122 0.94225 0.0
C18 C 0.18982 0.85821 0.93108 0.0
C19 C 0.13455 0.01686 0.10246 0.0
O20 O 0.24526 0.04819 0.20228 0.0
O21 O 0.28553 0.94702 0.18453 0.0
O22 O 0.32605 0.22353 0.19314 0.0
O23 O 0.20379 0.19977 0.166 0.0
O24 O 0.39609 0.15852 0.14354 0.0
O25 O 0.35049 0.05114 0.15999 0.0
O26 O 0.26679 0.07759 0.03875 0.0
O27 O 0.248 0.18105 0.06781 0.0
O28 O 0.25222 0.87875 0.08289 0.0
O29 O 0.347 0.95649 0.07038 0.0
O30 O 0.14923 0.9516 0.10046 0.0
O31 O 0.18848 0.06405 0.09621 0.0
H32 H 0.34642 0.33483 0.25717 0.0
H33 H 0.16487 0.15687 0.24567 0.0
H34 H 0.15562 0.17681 0.32564 0.0
H35 H 0.33906 0.35368 0.33759 0.0
H36 H 0.16648 0.88988 0.9929 0.0
H37 H 0.39718 0.85787 1.01376 0.0
H38 H 0.36255 0.82758 0.92857 0.0
H39 H 0.13179 0.85934 0.90841 0.0
Gd40 Gd 0.97718 0.25236 0.74319 0.0
Gd41 Gd 0.1239 0.30409 0.71752 0.0
C42 C 0.13961 0.26617 0.83038 0.0
C43 C 0.87394 0.18451 0.78124 0.0
C44 C 0.86099 0.17928 0.8297 0.0
C45 C 0.87778 0.24061 0.85637 0.0
C46 C 0.83284 0.11166 0.85006 0.0
C47 C 0.83697 0.16669 0.92297 0.0
C48 C 0.82118 0.10529 0.89623 0.0
C49 C 0.86563 0.23443 0.90247 0.0
C50 C 1.00987 0.3987 0.72831 0.0
C51 C 0.96324 0.28257 0.62989 0.0
C52 C 0.22161 0.36252 0.67214 0.0
C53 C 0.22763 0.35098 0.6233 0.0
C54 C 0.26144 0.29151 0.61818 0.0
C55 C 0.19646 0.39716 0.58083 0.0
C56 C 0.23086 0.32348 0.52927 0.0
C57 C 0.19792 0.38354 0.53448 0.0
C58 C 0.26288 0.2779 0.57187 0.0
C59 C 0.08355 0.15695 0.72143 0.0
O60 O 0.06786 0.23788 0.81607 0.0
O61 O 0.17388 0.30519 0.79937 0.0
O62 O 0.8683 0.24815 0.75481 0.0
O63 O 0.93111 0.15368 0.78001 0.0
O64 O 0.94187 0.36451 0.7178 0.0
O65 O 0.05677 0.35448 0.75075 0.0
O66 O 0.03203 0.31842 0.64463 0.0
O67 O 0.93224 0.24176 0.662 0.0
O68 O 0.2335 0.30756 0.70654 0.0
O69 O 0.16486 0.39522 0.67188 0.0
O70 O 0.15209 0.18842 0.73708 0.0
O71 O 0.04053 0.20559 0.70499 0.0
H72 H 0.90038 0.29334 0.84165 0.0
H73 H 0.82043 0.06349 0.83039 0.0
H74 H 0.80103 0.05176 0.91131 0.0
H75 H 0.87819 0.28284 0.92185 0.0
H76 H 0.28635 0.2548 0.64995 0.0
H77 H 0.16985 0.44338 0.58328 0.0
H78 H 0.17199 0.41948 0.50257 0.0
H79 H 0.28987 0.2319 0.56958 0.0
Gd80 Gd 0.82839 0.08192 0.23246 0.0
Gd81 Gd 0.82126 0.93642 0.18688 0.0
C82 C 0.85215 0.92336 0.30336 0.0
C83 C 0.79484 0.17683 0.27662 0.0
C84 C 0.81627 0.19584 0.32761 0.0
C85 C 0.89205 0.20221 0.35679 0.0
C86 C 0.7603 0.2071 0.34766 0.0
C87 C 0.85569 0.23229 0.42505 0.0
C88 C 0.77975 0.22485 0.39607 0.0
C89 C 0.91155 0.2206 0.40491 0.0
C90 C 0.96038 0.05797 0.22564 0.0
C91 C 0.8215 0.09255 0.11939 0.0
C92 C 0.83449 0.83721 0.13628 0.0
C93 C 0.84474 0.83247 0.08784 0.0
C94 C 0.81149 0.87808 0.04564 0.0
C95 C 0.88685 0.77949 0.08351 0.0
C96 C 0.85855 0.81409 0.99492 0.0
C97 C 0.89379 0.77041 0.03772 0.0
C98 C 0.81833 0.86899 0.99967 0.0
C99 C 0.68968 0.9774 0.18753 0.0
O100 O 0.83885 -0.00711 0.29796 0.0
O101 O 0.8536 0.89005 0.26607 0.0
O102 O 0.84771 0.19124 0.25452 0.0
O103 O 0.75356 0.11335 0.268 0.0
O104 O 0.94518 0.1227 0.22842 0.0
O105 O 0.90968 0.00922 0.23481 0.0
O106 O 0.84035 0.02536 0.12845 0.0
O107 O 0.8019 0.12368 0.15149 0.0
O108 O 0.76953 0.85388 0.13631 0.0
O109 O 0.8915 0.86934 0.16874 0.0
O110 O 0.70234 0.90925 0.19523 0.0
O111 O 0.74498 0.01751 0.17883 0.0
H112 H 0.93634 0.19285 0.34253 0.0
H113 H 0.70149 0.20215 0.32582 0.0
H114 H 0.73559 0.23369 0.41061 0.0
H115 H 0.9704 0.22465 0.42665 0.0
H116 H 0.77911 0.91982 0.04802 0.0
H117 H 0.91365 0.74421 0.11559 0.0
H118 H 0.9267 0.72881 1.03589 0.0
H119 H 0.79018 0.90357 0.96766 0.0
Gd120 Gd 0.9798 0.76575 0.61735 0.0
Gd121 Gd 0.12929 0.8063 0.59457 0.0
C122 C 0.13832 0.78517 0.7074 0.0
C123 C 0.87802 0.71535 0.66117 0.0
C124 C 0.8746 0.72989 0.70961 0.0
C125 C 0.92168 0.78886 0.7334 0.0
C126 C 0.82526 0.68502 0.73268 0.0
C127 C 0.86953 0.75834 0.8027 0.0
C128 C 0.8227 0.69905 0.77873 0.0
C129 C 0.91914 0.80298 0.77933 0.0
C130 C 0.02667 0.91153 0.61098 0.0
C131 C 0.96931 0.79928 0.50472 0.0
C132 C 0.23829 0.86273 0.55858 0.0
C133 C 0.24971 0.8689 0.50961 0.0
C134 C 0.22963 0.8089 0.48132 0.0
C135 C 0.27719 0.93716 0.48965 0.0
C136 C 0.25954 0.88709 0.41274 0.0
C137 C 0.28175 0.94627 0.4416 0.0
C138 C 0.23503 0.81789 0.43326 0.0
C139 C 0.09045 0.66191 0.61386 0.0
O140 O 0.06801 0.75301 0.69203 0.0
O141 O 0.17298 0.82057 0.67551 0.0
O142 O 0.87139 0.77142 0.62754 0.0
O143 O 0.93203 0.67833 0.66217 0.0
O144 O 0.95748 0.88241 0.59401 0.0
O145 O 0.06739 0.86131 0.6294 0.0
O146 O 0.04235 0.82269 0.52009 0.0
O147 O 0.93177 0.76465 0.53525 0.0
O148 O 0.23488 0.79696 0.58202 0.0
O149 O 0.18795 0.90107 0.56216 0.0
O150 O 0.15925 0.69405 0.62512 0.0
O151 O 0.04567 0.70669 0.5885 0.0
H152 H 0.96071 0.824 0.71644 0.0
H153 H 0.78857 0.63921 0.71507 0.0
H154 H 0.78327 0.6639 0.79527 0.0
H155 H 0.95691 0.84829 0.79686 0.0
H156 H 0.20768 0.75567 0.49574 0.0
H157 H 0.29288 -0.01592 0.51071 0.0
H158 H 0.30059 0.00026 0.42637 0.0
H159 H 0.2167 0.77184 0.41141 0.0
C160 C 0.02763 0.97895 0.19585 0.0
C161 C 1.00748 0.04805 0.19563 0.0
H162 H 0.0818 0.91431 0.16508 0.0
C163 C 0.02703 0.10679 0.16323 0.0
H164 H 0.01472 0.93358 0.22144 0.0
C165 C 0.06508 0.09605 0.13077 0.0
C166 C 0.08555 0.02695 0.13119 0.0
H167 H 0.01192 0.16081 0.16241 0.0
H168 H 0.07917 0.14172 0.10576 0.0
C169 C 0.06562 0.96815 0.16347 0.0
C170 C 0.11524 -0.00193 0.66672 0.0
C171 C 0.04261 0.9787 0.63532 0.0
H172 H 0.18467 0.06794 0.7206 0.0
C173 C 0.98307 0.01609 0.6344 0.0
H174 H 0.16195 0.96944 0.66849 0.0
C175 C 0.99568 0.07108 0.66502 0.0
C176 C 0.06827 0.09047 0.69643 0.0
H177 H 0.92625 0.00154 0.6111 0.0
H178 H 0.94879 0.09929 0.66341 0.0
C179 C 0.12793 0.05333 0.69723 0.0
C180 C 0.55305 0.95795 0.18415 0.0
C181 C 0.61762 0.00527 0.18053 0.0
H182 H 0.43551 0.94818 0.17804 0.0
C183 C 0.61276 0.08087 0.16782 0.0
H184 H 0.55522 0.89958 0.19364 0.0
C185 C 0.54454 0.10872 0.15862 0.0
C186 C 0.47991 0.06149 0.16201 0.0
H187 H 0.66171 0.11879 0.16463 0.0
H188 H 0.54246 0.16709 0.14895 0.0
C189 C 0.48469 -0.01411 0.175 0.0
C190 C 0.10347 0.50317 0.71283 0.0
C191 C 0.02916 0.46835 0.70078 0.0
H192 H 0.18123 0.59108 0.69397 0.0
C193 C 0.97443 0.49745 0.65969 0.0
H194 H 0.14656 0.48162 0.74423 0.0
C195 C 0.99424 0.55981 0.63054 0.0
C196 C 0.06882 0.59415 0.64237 0.0
H197 H 0.91665 0.47118 0.64941 0.0
H198 H 0.95139 0.58119 0.59892 0.0
C199 C 0.12324 0.56532 0.68374 0.0
C200 C 0.24641 0.367 0.44519 0.0
C201 C 0.23268 0.30885 0.47983 0.0
H202 H 0.26028 0.39991 0.37376 0.0
C203 C 0.22173 0.23668 0.467 0.0
H204 H 0.2558 0.42324 0.45374 0.0
C205 C 0.22531 0.22312 0.42112 0.0
C206 C 0.24009 0.28134 0.38675 0.0
H207 H 0.21001 0.19044 0.49236 0.0
H208 H 0.21785 0.16682 0.41299 0.0
C209 C 0.25 0.35348 0.3994 0.0
C210 C 0.87815 0.19486 1.01145 0.0
C211 C 0.82556 0.15888 0.97257 0.0
H212 H 0.91636 0.20385 0.08923 0.0
C213 C 0.76448 0.11108 0.98233 0.0
H214 H 0.92622 0.23159 1.00546 0.0
C215 C 0.75954 0.09505 1.03023 0.0
C216 C 0.81455 0.12748 0.06928 0.0
H217 H 0.72198 0.08366 0.95324 0.0
H218 H 0.715 0.05394 1.03724 0.0
C219 C 0.87256 0.17928 0.05946 0.0
C220 C 0.87138 0.86467 0.43924 0.0
C221 C 0.92932 0.81963 0.45219 0.0
H222 H 0.80255 0.93437 0.38221 0.0
C223 C 0.95789 0.80544 0.41525 0.0
H224 H 0.84968 0.87801 0.46723 0.0
C225 C 0.92976 0.83609 0.36652 0.0
C226 C 0.87444 0.88412 0.35387 0.0
H227 H 1.00365 0.77225 0.42439 0.0
H228 H 0.95428 0.8252 0.33923 0.0
C229 C 0.845 0.8975 0.39072 0.0
C230 C 0.2397 0.8374 0.77905 0.0
C231 C 0.17155 0.79219 0.76082 0.0
H232 H 0.31624 0.88828 0.84127 0.0
C233 C 0.13081 0.75908 0.79362 0.0
H234 H 0.27225 0.86404 0.75478 0.0
C235 C 0.15556 0.77345 0.84276 0.0
C236 C 0.22206 0.82081 0.86063 0.0
H237 H 0.07826 0.72363 0.78109 0.0
H238 H 0.12196 0.74816 0.86672 0.0
C239 C 0.26488 0.85133 0.82857 0.0
C240 C 0.85727 0.72844 0.93417 0.0
C241 C 0.86192 0.80052 0.9456 0.0
H242 H 0.85678 0.65876 0.88105 0.0
C243 C 0.86914 0.85884 0.90941 0.0
H244 H 0.85064 0.68196 0.96066 0.0
C245 C 0.87189 0.84534 0.86329 0.0
C246 C 0.86704 0.77315 0.85193 0.0
H247 H 0.87343 0.9151 0.91684 0.0
H248 H 0.87682 0.89158 0.83627 0.0
C249 C 0.85979 0.71499 0.88811 0.0
C250 C 0.29402 0.88791 0.28902 0.0
C251 C 0.25272 0.94462 0.26154 0.0
H252 H 0.32879 0.82451 0.35963 0.0
C253 C 0.2082 0.97535 0.28285 0.0
H254 H 0.32889 0.86337 0.27363 0.0
C255 C 0.20873 0.95402 0.33121 0.0
C256 C 0.25345 0.901 0.35979 0.0
H257 H 0.17492 0.01859 0.26281 0.0
H258 H 0.17578 -0.01919 0.34685 0.0
C259 C 0.29422 0.86601 0.33807 0.0
C260 C 0.161 0.27196 0.9197 0.0
C261 C 0.1818 0.24788 0.88241 0.0
H262 H 0.16895 0.26058 0.99621 0.0
C263 C 0.2314 0.19438 0.89503 0.0
H264 H 0.1213 0.31176 0.91066 0.0
C265 C 0.25703 0.16309 0.94392 0.0
C266 C 0.23455 0.18576 0.98119 0.0
H267 H 0.24657 0.17355 0.86664 0.0
H268 H 0.29258 0.1197 0.95227 0.0
C269 C 0.18807 0.24219 0.96865 0.0
C270 C 0.94 0.30327 0.49354 0.0
C271 C 0.87723 0.25127 0.47639 0.0
H272 H 0.01511 0.35531 0.55502 0.0
C273 C 0.83795 0.21509 0.50926 0.0
H274 H 0.97066 0.33288 0.46889 0.0
C275 C 0.86343 0.22788 0.55891 0.0
C276 C 0.92841 0.27742 0.57648 0.0
H277 H 0.78953 0.17451 0.49708 0.0
H278 H 0.83403 0.19674 0.5838 0.0
C279 C 0.96513 0.3164 0.54291 0.0
loop_
_geom_bond_atom_site_label_1
_geom_bond_atom_site_label_2
_geom_bond_distance
_geom_bond_site_symmetry_2
_ccdc_geom_bond_type
Gd0 C3 2.818 . S
Gd0 O20 2.377 . S
Gd0 O22 2.448 . S
Gd0 O23 2.506 . S
Gd0 O24 2.435 . S
Gd0 O25 2.717 . S
Gd0 O27 2.395 . S
Gd0 O31 2.327 . S
Gd1 C12 2.818 1_544 S
Gd1 O21 2.395 1_545 S
Gd1 O25 2.327 . S
Gd1 O26 2.377 . S
Gd1 O28 2.448 1_544 S
Gd1 O29 2.506 1_545 S
Gd1 O30 2.435 . S
Gd1 O31 2.717 . S
C2 O20 1.240 . S
C2 O21 1.240 1_545 S
C3 Gd0 2.818 . S
C3 C4 1.510 . S
C3 O22 1.249 . S
C3 O23 1.252 . S
C4 C3 1.510 . S
C4 C5 1.404 . S
C4 C6 1.352 . S
C5 C4 1.404 . S
C5 C9 1.389 . S
C5 H32 0.930 . S
C6 C4 1.352 . S
C6 C8 1.374 . S
C6 H33 0.931 . S
C7 C8 1.359 . S
C7 C9 1.364 . S
C8 C6 1.374 . S
C8 C7 1.359 . S
C8 H34 0.931 . S
C9 C5 1.389 . S
C9 C7 1.364 . S
C9 H35 0.931 . S
C10 O24 1.256 . S
C10 O25 1.257 . S
C11 O26 1.240 . S
C11 O27 1.240 . S
C12 Gd1 2.818 1_566 S
C12 C13 1.510 . S
C12 O28 1.249 . S
C12 O29 1.252 1_556 S
C13 C12 1.510 . S
C13 C14 1.404 . S
C13 C15 1.352 . S
C14 C13 1.404 . S
C14 C18 1.389 . S
C14 H36 0.930 . S
C15 C13 1.352 . S
C15 C17 1.374 . S
C15 H37 0.931 . S
C16 C17 1.359 . S
C16 C18 1.364 . S
C17 C15 1.374 . S
C17 C16 1.359 . S
C17 H38 0.931 . S
C18 C14 1.389 . S
C18 C16 1.364 . S
C18 H39 0.931 . S
C19 O30 1.256 . S
C19 O31 1.257 . S
O20 Gd0 2.377 . S
O20 C2 1.240 . S
O21 Gd1 2.395 1_565 S
O21 C2 1.240 1_565 S
O22 Gd0 2.448 . S
O22 C3 1.249 . S
O23 Gd0 2.506 . S
O23 C3 1.252 . S
O24 Gd0 2.435 . S
O24 C10 1.256 . S
O25 Gd0 2.717 . S
O25 Gd1 2.327 . S
O25 C10 1.257 . S
O26 Gd1 2.377 . S
O26 C11 1.240 . S
O27 Gd0 2.395 . S
O27 C11 1.240 . S
O28 Gd1 2.448 1_566 S
O28 C12 1.249 . S
O29 Gd1 2.506 1_565 S
O29 C12 1.252 1_554 S
O30 Gd1 2.435 . S
O30 C19 1.256 . S
O31 Gd0 2.327 . S
O31 Gd1 2.717 . S
O31 C19 1.257 . S
H32 C5 0.930 . S
H33 C6 0.931 . S
H34 C8 0.931 . S
H35 C9 0.931 . S
H36 C14 0.930 . S
H37 C15 0.931 . S
H38 C17 0.931 . S
H39 C18 0.931 . S
Gd40 C43 2.818 . S
Gd40 O60 2.377 1_655 S
Gd40 O62 2.448 . S
Gd40 O63 2.506 . S
Gd40 O64 2.435 . S
Gd40 O65 2.717 1_655 S
Gd40 O67 2.395 . S
Gd40 O71 2.327 1_655 S
Gd41 C52 2.818 . S
Gd41 O61 2.395 . S
Gd41 O65 2.327 . S
Gd41 O66 2.377 . S
Gd41 O68 2.448 . S
Gd41 O69 2.506 . S
Gd41 O70 2.435 . S
Gd41 O71 2.717 . S
C42 O60 1.240 . S
C42 O61 1.240 . S
C43 Gd40 2.818 . S
C43 C44 1.510 . S
C43 O62 1.249 . S
C43 O63 1.252 . S
C44 C43 1.510 . S
C44 C45 1.404 . S
C44 C46 1.352 . S
C45 C44 1.404 . S
C45 C49 1.389 . S
C45 H72 0.930 . S
C46 C44 1.352 . S
C46 C48 1.374 . S
C46 H73 0.931 . S
C47 C48 1.359 . S
C47 C49 1.364 . S
C48 C46 1.374 . S
C48 C47 1.359 . S
C48 H74 0.931 . S
C49 C45 1.389 . S
C49 C47 1.364 . S
C49 H75 0.931 . S
C50 O64 1.256 1_455 S
C50 O65 1.257 . S
C51 O66 1.240 1_655 S
C51 O67 1.240 . S
C52 Gd41 2.818 . S
C52 C53 1.510 . S
C52 O68 1.249 . S
C52 O69 1.252 . S
C53 C52 1.510 . S
C53 C54 1.404 . S
C53 C55 1.352 . S
C54 C53 1.404 . S
C54 C58 1.389 . S
C54 H76 0.930 . S
C55 C53 1.352 . S
C55 C57 1.374 . S
C55 H77 0.931 . S
C56 C57 1.359 . S
C56 C58 1.364 . S
C57 C55 1.374 . S
C57 C56 1.359 . S
C57 H78 0.931 . S
C58 C54 1.389 . S
C58 C56 1.364 . S
C58 H79 0.931 . S
C59 O70 1.256 . S
C59 O71 1.257 . S
O60 Gd40 2.377 1_455 S
O60 C42 1.240 . S
O61 Gd41 2.395 . S
O61 C42 1.240 . S
O62 Gd40 2.448 . S
O62 C43 1.249 . S
O63 Gd40 2.506 . S
O63 C43 1.252 . S
O64 Gd40 2.435 . S
O64 C50 1.256 1_655 S
O65 Gd40 2.717 1_455 S
O65 Gd41 2.327 . S
O65 C50 1.257 . S
O66 Gd41 2.377 . S
O66 C51 1.240 1_455 S
O67 Gd40 2.395 . S
O67 C51 1.240 . S
O68 Gd41 2.448 . S
O68 C52 1.249 . S
O69 Gd41 2.506 . S
O69 C52 1.252 . S
O70 Gd41 2.435 . S
O70 C59 1.256 . S
O71 Gd40 2.327 1_455 S
O71 Gd41 2.717 . S
O71 C59 1.257 . S
H72 C45 0.930 . S
H73 C46 0.931 . S
H74 C48 0.931 . S
H75 C49 0.931 . S
H76 C54 0.930 . S
H77 C55 0.931 . S
H78 C57 0.931 . S
H79 C58 0.931 . S
Gd80 C83 2.818 . S
Gd80 O100 2.377 1_545 S
Gd80 O102 2.448 . S
Gd80 O103 2.506 . S
Gd80 O104 2.435 . S
Gd80 O105 2.717 1_545 S
Gd80 O107 2.395 . S
Gd80 O111 2.327 . S
Gd81 C92 2.818 . S
Gd81 O101 2.395 . S
Gd81 O105 2.327 . S
Gd81 O106 2.377 1_565 S
Gd81 O108 2.448 . S
Gd81 O109 2.506 . S
Gd81 O110 2.435 . S
Gd81 O111 2.717 1_565 S
C82 O100 1.240 . S
C82 O101 1.240 . S
C83 Gd80 2.818 . S
C83 C84 1.510 . S
C83 O102 1.249 . S
C83 O103 1.252 . S
C84 C83 1.510 . S
C84 C85 1.404 . S
C84 C86 1.352 . S
C85 C84 1.404 . S
C85 C89 1.389 . S
C85 H112 0.930 . S
C86 C84 1.352 . S
C86 C88 1.374 . S
C86 H113 0.931 . S
C87 C88 1.359 . S
C87 C89 1.364 . S
C88 C86 1.374 . S
C88 C87 1.359 . S
C88 H114 0.931 . S
C89 C85 1.389 . S
C89 C87 1.364 . S
C89 H115 0.931 . S
C90 O104 1.256 . S
C90 O105 1.257 1_545 S
C91 O106 1.240 . S
C91 O107 1.240 . S
C92 Gd81 2.818 . S
C92 C93 1.510 . S
C92 O108 1.249 . S
C92 O109 1.252 . S
C93 C92 1.510 . S
C93 C94 1.404 1_554 S
C93 C95 1.352 1_554 S
C94 C93 1.404 1_556 S
C94 C98 1.389 . S
C94 H116 0.930 . S
C95 C93 1.352 1_556 S
C95 C97 1.374 . S
C95 H117 0.931 1_556 S
C96 C97 1.359 . S
C96 C98 1.364 . S
C97 C95 1.374 . S
C97 C96 1.359 . S
C97 H118 0.931 . S
C98 C94 1.389 . S
C98 C96 1.364 . S
C98 H119 0.931 . S
C99 O110 1.256 . S
C99 O111 1.257 1_565 S
O100 Gd80 2.377 1_565 S
O100 C82 1.240 . S
O101 Gd81 2.395 . S
O101 C82 1.240 . S
O102 Gd80 2.448 . S
O102 C83 1.249 . S
O103 Gd80 2.506 . S
O103 C83 1.252 . S
O104 Gd80 2.435 . S
O104 C90 1.256 . S
O105 Gd80 2.717 1_565 S
O105 Gd81 2.327 . S
O105 C90 1.257 1_565 S
O106 Gd81 2.377 1_545 S
O106 C91 1.240 . S
O107 Gd80 2.395 . S
O107 C91 1.240 . S
O108 Gd81 2.448 . S
O108 C92 1.249 . S
O109 Gd81 2.506 . S
O109 C92 1.252 . S
O110 Gd81 2.435 . S
O110 C99 1.256 . S
O111 Gd80 2.327 . S
O111 Gd81 2.717 1_545 S
O111 C99 1.257 1_545 S
H112 C85 0.930 . S
H113 C86 0.931 . S
H114 C88 0.931 . S
H115 C89 0.931 . S
H116 C94 0.930 . S
H117 C95 0.931 1_554 S
H118 C97 0.931 . S
H119 C98 0.931 . S
Gd120 C123 2.818 . S
Gd120 O140 2.377 1_655 S
Gd120 O142 2.448 . S
Gd120 O143 2.506 . S
Gd120 O144 2.435 . S
Gd120 O145 2.717 1_655 S
Gd120 O147 2.395 . S
Gd120 O151 2.327 1_655 S
Gd121 C132 2.818 . S
Gd121 O141 2.395 . S
Gd121 O145 2.327 . S
Gd121 O146 2.377 . S
Gd121 O148 2.448 . S
Gd121 O149 2.506 . S
Gd121 O150 2.435 . S
Gd121 O151 2.717 . S
C122 O140 1.240 . S
C122 O141 1.240 . S
C123 Gd120 2.818 . S
C123 C124 1.510 . S
C123 O142 1.249 . S
C123 O143 1.252 . S
C124 C123 1.510 . S
C124 C125 1.404 . S
C124 C126 1.352 . S
C125 C124 1.404 . S
C125 C129 1.389 . S
C125 H152 0.930 . S
C126 C124 1.352 . S
C126 C128 1.374 . S
C126 H153 0.931 . S
C127 C128 1.359 . S
C127 C129 1.364 . S
C128 C126 1.374 . S
C128 C127 1.359 . S
C128 H154 0.931 . S
C129 C125 1.389 . S
C129 C127 1.364 . S
C129 H155 0.931 . S
C130 O144 1.256 1_455 S
C130 O145 1.257 . S
C131 O146 1.240 1_655 S
C131 O147 1.240 . S
C132 Gd121 2.818 . S
C132 C133 1.510 . S
C132 O148 1.249 . S
C132 O149 1.252 . S
C133 C132 1.510 . S
C133 C134 1.404 . S
C133 C135 1.352 . S
C134 C133 1.404 . S
C134 C138 1.389 . S
C134 H156 0.930 . S
C135 C133 1.352 . S
C135 C137 1.374 . S
C135 H157 0.931 . S
C136 C137 1.359 . S
C136 C138 1.364 . S
C137 C135 1.374 . S
C137 C136 1.359 . S
C137 H158 0.931 1_565 S
C138 C134 1.389 . S
C138 C136 1.364 . S
C138 H159 0.931 . S
C139 O150 1.256 . S
C139 O151 1.257 . S
O140 Gd120 2.377 1_455 S
O140 C122 1.240 . S
O141 Gd121 2.395 . S
O141 C122 1.240 . S
O142 Gd120 2.448 . S
O142 C123 1.249 . S
O143 Gd120 2.506 . S
O143 C123 1.252 . S
O144 Gd120 2.435 . S
O144 C130 1.256 1_655 S
O145 Gd120 2.717 1_455 S
O145 Gd121 2.327 . S
O145 C130 1.257 . S
O146 Gd121 2.377 . S
O146 C131 1.240 1_455 S
O147 Gd120 2.395 . S
O147 C131 1.240 . S
O148 Gd121 2.448 . S
O148 C132 1.249 . S
O149 Gd121 2.506 . S
O149 C132 1.252 . S
O150 Gd121 2.435 . S
O150 C139 1.256 . S
O151 Gd120 2.327 1_455 S
O151 Gd121 2.717 . S
O151 C139 1.257 . S
H152 C125 0.930 . S
H153 C126 0.931 . S
H154 C128 0.931 . S
H155 C129 0.931 . S
H156 C134 0.930 . S
H157 C135 0.931 . S
H158 C137 0.931 1_545 S
H159 C138 0.931 . S
C160 C161 1.387 1_665 S
C160 H164 0.950 . S
C160 C169 1.390 1_665 S
C161 C160 1.387 1_445 S
C161 C163 1.387 . S
H162 C169 0.950 1_655 S
C163 C161 1.387 . S
C163 C165 1.390 . S
C163 H167 0.950 . S
H164 C160 0.950 . S
C165 C163 1.390 . S
C165 C166 1.387 . S
C165 H168 0.950 . S
C166 C165 1.387 . S
C166 C169 1.387 . S
H167 C163 0.950 . S
H168 C165 0.950 . S
C169 C160 1.390 1_445 S
C169 H162 0.950 1_455 S
C169 C166 1.387 . S
C170 C171 1.387 1_565 S
C170 H174 0.950 . S
C170 C179 1.390 1_565 S
C171 C170 1.387 1_545 S
C171 C173 1.387 . S
H172 C179 0.950 1_565 S
C173 C171 1.387 . S
C173 C175 1.390 . S
C173 H177 0.950 1_455 S
H174 C170 0.950 . S
C175 C173 1.390 . S
C175 C176 1.387 . S
C175 H178 0.958 . S
C176 C175 1.387 . S
C176 C179 1.387 . S
H177 C173 0.950 1_655 S
H178 C175 0.958 . S
C179 C170 1.390 1_545 S
C179 H172 0.950 1_545 S
C179 C176 1.387 . S
C180 C181 1.387 . S
C180 H184 0.950 1_545 S
C180 C189 1.390 . S
C181 C180 1.387 . S
C181 C183 1.387 . S
H182 C189 0.950 . S
C183 C181 1.387 . S
C183 C185 1.390 . S
C183 H187 0.950 . S
H184 C180 0.950 1_565 S
C185 C183 1.390 . S
C185 C186 1.387 . S
C185 H188 0.950 . S
C186 C185 1.387 . S
C186 C189 1.387 . S
H187 C183 0.950 . S
H188 C185 0.950 . S
C189 C180 1.390 . S
C189 H182 0.950 . S
C189 C186 1.387 . S
C190 C191 1.387 . S
C190 H194 0.950 . S
C190 C199 1.390 . S
C191 C190 1.387 . S
C191 C193 1.387 1_455 S
H192 C199 0.950 . S
C193 C191 1.387 1_655 S
C193 C195 1.390 . S
C193 H197 0.950 . S
H194 C190 0.950 . S
C195 C193 1.390 . S
C195 C196 1.387 1_655 S
C195 H198 0.950 . S
C196 C195 1.387 1_455 S
C196 C199 1.387 . S
H197 C193 0.950 . S
H198 C195 0.950 . S
C199 C190 1.390 . S
C199 H192 0.950 . S
C199 C196 1.387 . S
C200 C201 1.387 . S
C200 H204 0.950 . S
C200 C209 1.390 . S
C201 C200 1.387 . S
C201 C203 1.387 . S
H202 C209 0.950 . S
C203 C201 1.387 . S
C203 C205 1.390 . S
C203 H207 0.950 . S
H204 C200 0.950 . S
C205 C203 1.390 . S
C205 C206 1.387 . S
C205 H208 0.950 . S
C206 C205 1.387 . S
C206 C209 1.387 . S
H207 C203 0.950 . S
H208 C205 0.950 . S
C209 C200 1.390 . S
C209 H202 0.950 . S
C209 C206 1.387 . S
C210 C211 1.387 . S
C210 H214 0.950 . S
C210 C219 1.390 1_556 S
C211 C210 1.387 . S
C211 C213 1.387 . S
H212 C219 0.950 . S
C213 C211 1.387 . S
C213 C215 1.390 1_556 S
C213 H217 0.950 . S
H214 C210 0.950 . S
C215 C213 1.390 1_554 S
C215 C216 1.387 . S
C215 H218 0.950 . S
C216 C215 1.387 . S
C216 C219 1.387 . S
H217 C213 0.950 . S
H218 C215 0.950 . S
C219 C210 1.390 1_554 S
C219 H212 0.950 . S
C219 C216 1.387 . S
C220 C221 1.387 . S
C220 H224 0.950 . S
C220 C229 1.390 . S
C221 C220 1.387 . S
C221 C223 1.387 . S
H222 C229 0.950 . S
C223 C221 1.387 . S
C223 C225 1.390 . S
C223 H227 0.950 . S
H224 C220 0.950 . S
C225 C223 1.390 . S
C225 C226 1.387 . S
C225 H228 0.950 . S
C226 C225 1.387 . S
C226 C229 1.387 . S
H227 C223 0.950 . S
H228 C225 0.950 . S
C229 C220 1.390 . S
C229 H222 0.950 . S
C229 C226 1.387 . S
C230 C231 1.387 . S
C230 H234 0.950 . S
C230 C239 1.390 . S
C231 C230 1.387 . S
C231 C233 1.387 . S
H232 C239 0.950 . S
C233 C231 1.387 . S
C233 C235 1.390 . S
C233 H237 0.950 . S
H234 C230 0.950 . S
C235 C233 1.390 . S
C235 C236 1.387 . S
C235 H238 0.950 . S
C236 C235 1.387 . S
C236 C239 1.387 . S
H237 C233 0.950 . S
H238 C235 0.950 . S
C239 C230 1.390 . S
C239 H232 0.950 . S
C239 C236 1.387 . S
C240 C241 1.387 . S
C240 H244 0.950 . S
C240 C249 1.390 . S
C241 C240 1.387 . S
C241 C243 1.387 . S
H242 C249 0.950 . S
C243 C241 1.387 . S
C243 C245 1.390 . S
C243 H247 0.950 . S
H244 C240 0.950 . S
C245 C243 1.390 . S
C245 C246 1.387 . S
C245 H248 0.950 . S
C246 C245 1.387 . S
C246 C249 1.387 . S
H247 C243 0.950 . S
H248 C245 0.950 . S
C249 C240 1.390 . S
C249 H242 0.950 . S
C249 C246 1.387 . S
C250 C251 1.400 . S
C250 H254 0.950 . S
C250 C259 1.390 . S
C251 C250 1.400 . S
C251 C253 1.378 1_565 S
H252 C259 0.950 . S
C253 C251 1.378 1_545 S
C253 C255 1.390 . S
C253 H257 0.950 . S
H254 C250 0.950 . S
C255 C253 1.390 . S
C255 C256 1.387 1_545 S
C255 H258 0.950 . S
C256 C255 1.387 1_565 S
C256 C259 1.387 . S
H257 C253 0.950 . S
H258 C255 0.950 . S
C259 C250 1.390 . S
C259 H252 0.950 . S
C259 C256 1.387 . S
C260 C261 1.387 . S
C260 H264 0.950 . S
C260 C269 1.390 . S
C261 C260 1.387 . S
C261 C263 1.387 . S
H262 C269 0.950 . S
C263 C261 1.387 . S
C263 C265 1.390 . S
C263 H267 0.950 . S
H264 C260 0.950 . S
C265 C263 1.390 . S
C265 C266 1.387 . S
C265 H268 0.950 . S
C266 C265 1.387 . S
C266 C269 1.387 . S
H267 C263 0.950 . S
H268 C265 0.950 . S
C269 C260 1.390 . S
C269 H262 0.950 . S
C269 C266 1.387 . S
C270 C271 1.387 . S
C270 H274 0.950 . S
C270 C279 1.390 . S
C271 C270 1.387 . S
C271 C273 1.387 . S
H272 C279 0.950 . S
C273 C271 1.387 . S
C273 C275 1.390 . S
C273 H277 0.950 . S
H274 C270 0.950 . S
C275 C273 1.390 . S
C275 C276 1.387 . S
C275 H278 0.950 . S
C276 C275 1.387 . S
C276 C279 1.387 . S
H277 C273 0.950 . S
H278 C275 0.950 . S
C279 C270 1.390 . S
C279 H272 0.950 . S
C279 C276 1.387 . S
C161 C90 1.338 1_455 S
C166 C19 1.338 . S
C171 C130 1.260 1_545 S
C176 C59 1.260 . S
C181 C99 1.342 1_545 S
C186 C10 1.341 . S
C191 C50 1.194 . S
C196 C139 1.194 . S
C201 C56 1.131 . S
C206 C7 1.124 . S
C211 C47 1.656 . S
C216 C91 1.681 . S
C221 C131 2.147 . S
C226 C82 2.093 . S
C231 C122 1.365 . S
C236 C16 1.382 . S
C241 C96 1.120 . S
C246 C127 1.132 . S
C251 C2 1.678 1_565 S
C256 C136 1.657 . S
C261 C42 2.147 . S
C266 C11 2.092 1_556 S
C271 C87 1.382 . S
C276 C51 1.363 . S
