# Generated by pormake.
# Topology snl, (6)-cn, num edge types: 1
# Building blocks:
#     Node 0, Type 0, BuildingBlock: BETDAH_clean_sbu_0, # of connection points: 6
#     Node 1, Type 0, BuildingBlock: BETDAH_clean_sbu_0, # of connection points: 6
#     Node 2, Type 0, BuildingBlock: BETDAH_clean_sbu_0, # of connection points: 6
#     Node 3, Type 0, BuildingBlock: BETDAH_clean_sbu_0, # of connection points: 6
#     Node 4, Type 0, BuildingBlock: BETDAH_clean_sbu_0, # of connection points: 6
#     Node 5, Type 0, BuildingBlock: BETDAH_clean_sbu_0, # of connection points: 6
#     Node 6, Type 0, BuildingBlock: BETDAH_clean_sbu_0, # of connection points: 6
#     Node 7, Type 0, BuildingBlock: BETDAH_clean_sbu_0, # of connection points: 6
#     Node 8, Type 0, BuildingBlock: BETDAH_clean_sbu_0, # of connection points: 6
#     Node 9, Type 0, BuildingBlock: BETDAH_clean_sbu_0, # of connection points: 6
#     Node 10, Type 0, BuildingBlock: BETDAH_clean_sbu_0, # of connection points: 6
#     Node 11, Type 0, BuildingBlock: BETDAH_clean_sbu_0, # of connection points: 6
#     Node 12, Type 0, BuildingBlock: BETDAH_clean_sbu_0, # of connection points: 6
#     Node 13, Type 0, BuildingBlock: BETDAH_clean_sbu_0, # of connection points: 6
#     Node 14, Type 0, BuildingBlock: BETDAH_clean_sbu_0, # of connection points: 6
#     Node 15, Type 0, BuildingBlock: BETDAH_clean_sbu_0, # of connection points: 6
#     Edge 16, Type (0, 0), BuildingBlock: KIFKEQ_clean_linker_1, # of connection points: 2
#     Edge 17, Type (0, 0), BuildingBlock: KIFKEQ_clean_linker_1, # of connection points: 2
#     Edge 18, Type (0, 0), BuildingBlock: KIFKEQ_clean_linker_1, # of connection points: 2
#     Edge 19, Type (0, 0), BuildingBlock: KIFKEQ_clean_linker_1, # of connection points: 2
#     Edge 20, Type (0, 0), BuildingBlock: KIFKEQ_clean_linker_1, # of connection points: 2
#     Edge 21, Type (0, 0), BuildingBlock: KIFKEQ_clean_linker_1, # of connection points: 2
#     Edge 22, Type (0, 0), BuildingBlock: KIFKEQ_clean_linker_1, # of connection points: 2
#     Edge 23, Type (0, 0), BuildingBlock: KIFKEQ_clean_linker_1, # of connection points: 2
#     Edge 24, Type (0, 0), BuildingBlock: KIFKEQ_clean_linker_1, # of connection points: 2
#     Edge 25, Type (0, 0), BuildingBlock: KIFKEQ_clean_linker_1, # of connection points: 2
#     Edge 26, Type (0, 0), BuildingBlock: KIFKEQ_clean_linker_1, # of connection points: 2
#     Edge 27, Type (0, 0), BuildingBlock: KIFKEQ_clean_linker_1, # of connection points: 2
#     Edge 28, Type (0, 0), BuildingBlock: KIFKEQ_clean_linker_1, # of connection points: 2
#     Edge 29, Type (0, 0), BuildingBlock: KIFKEQ_clean_linker_1, # of connection points: 2
#     Edge 30, Type (0, 0), BuildingBlock: KIFKEQ_clean_linker_1, # of connection points: 2
#     Edge 31, Type (0, 0), BuildingBlock: KIFKEQ_clean_linker_1, # of connection points: 2
#     Edge 32, Type (0, 0), BuildingBlock: KIFKEQ_clean_linker_1, # of connection points: 2
#     Edge 33, Type (0, 0), BuildingBlock: KIFKEQ_clean_linker_1, # of connection points: 2
#     Edge 34, Type (0, 0), BuildingBlock: KIFKEQ_clean_linker_1, # of connection points: 2
#     Edge 35, Type (0, 0), BuildingBlock: KIFKEQ_clean_linker_1, # of connection points: 2
#     Edge 36, Type (0, 0), BuildingBlock: KIFKEQ_clean_linker_1, # of connection points: 2
#     Edge 37, Type (0, 0), BuildingBlock: KIFKEQ_clean_linker_1, # of connection points: 2
#     Edge 38, Type (0, 0), BuildingBlock: KIFKEQ_clean_linker_1, # of connection points: 2
#     Edge 39, Type (0, 0), BuildingBlock: KIFKEQ_clean_linker_1, # of connection points: 2
#     Edge 40, Type (0, 0), BuildingBlock: KIFKEQ_clean_linker_1, # of connection points: 2
#     Edge 41, Type (0, 0), BuildingBlock: KIFKEQ_clean_linker_1, # of connection points: 2
#     Edge 42, Type (0, 0), BuildingBlock: KIFKEQ_clean_linker_1, # of connection points: 2
#     Edge 43, Type (0, 0), BuildingBlock: KIFKEQ_clean_linker_1, # of connection points: 2
#     Edge 44, Type (0, 0), BuildingBlock: KIFKEQ_clean_linker_1, # of connection points: 2
#     Edge 45, Type (0, 0), BuildingBlock: KIFKEQ_clean_linker_1, # of connection points: 2
#     Edge 46, Type (0, 0), BuildingBlock: KIFKEQ_clean_linker_1, # of connection points: 2
#     Edge 47, Type (0, 0), BuildingBlock: KIFKEQ_clean_linker_1, # of connection points: 2
#     Edge 48, Type (0, 0), BuildingBlock: KIFKEQ_clean_linker_1, # of connection points: 2
#     Edge 49, Type (0, 0), BuildingBlock: KIFKEQ_clean_linker_1, # of connection points: 2
#     Edge 50, Type (0, 0), BuildingBlock: KIFKEQ_clean_linker_1, # of connection points: 2
#     Edge 51, Type (0, 0), BuildingBlock: KIFKEQ_clean_linker_1, # of connection points: 2
#     Edge 52, Type (0, 0), BuildingBlock: KIFKEQ_clean_linker_1, # of connection points: 2
#     Edge 53, Type (0, 0), BuildingBlock: KIFKEQ_clean_linker_1, # of connection points: 2
#     Edge 54, Type (0, 0), BuildingBlock: KIFKEQ_clean_linker_1, # of connection points: 2
#     Edge 55, Type (0, 0), BuildingBlock: KIFKEQ_clean_linker_1, # of connection points: 2
#     Edge 56, Type (0, 0), BuildingBlock: KIFKEQ_clean_linker_1, # of connection points: 2
#     Edge 57, Type (0, 0), BuildingBlock: KIFKEQ_clean_linker_1, # of connection points: 2
#     Edge 58, Type (0, 0), BuildingBlock: KIFKEQ_clean_linker_1, # of connection points: 2
#     Edge 59, Type (0, 0), BuildingBlock: KIFKEQ_clean_linker_1, # of connection points: 2
#     Edge 60, Type (0, 0), BuildingBlock: KIFKEQ_clean_linker_1, # of connection points: 2
#     Edge 61, Type (0, 0), BuildingBlock: KIFKEQ_clean_linker_1, # of connection points: 2
#     Edge 62, Type (0, 0), BuildingBlock: KIFKEQ_clean_linker_1, # of connection points: 2
#     Edge 63, Type (0, 0), BuildingBlock: KIFKEQ_clean_linker_1, # of connection points: 2
# Relax obj value: 0.195
# Max RMSD: 0.270
# Mean RMSD: 0.230
data_MOF--net-snl--node1-BETDAH_clean_sbu_0--edge1-KIFKEQ_clean_linker_1
_symmetry_space_group_name_H-M    P1
_symmetry_Int_Tables_number       1
_symmetry_cell_setting            triclinic
loop_
_symmetry_equiv_pos_as_xyz
'x, y, z'
_cell_length_a     56.842555
_cell_length_b     57.093414
_cell_length_c     25.910647
_cell_angle_alpha  100.69567
_cell_angle_beta   91.425802
_cell_angle_gamma 90.169874
loop_
_atom_site_label
_atom_site_type_symbol
_atom_site_fract_x
_atom_site_fract_y
_atom_site_fract_z
_atom_type_partial_charge
Ho0 Ho 0.16097 0.63607 0.12255 0.0
Ho1 Ho 0.1364 0.64204 0.22551 0.0
C2 C 0.10417 0.64467 0.12732 0.0
C3 C 0.17428 0.62293 0.0263 0.0
C4 C 0.16768 0.62557 0.97194 0.0
C5 C 0.16746 0.60536 0.93176 0.0
C6 C 0.16323 0.60746 0.87933 0.0
C7 C 0.15921 0.62989 0.86566 0.0
C8 C 0.1589 0.65009 0.90627 0.0
C9 C 0.16307 0.64796 0.95879 0.0
C10 C 0.15894 0.68197 0.17451 0.0
C11 C 0.1932 0.63575 0.22436 0.0
C12 C 0.12204 0.65281 0.32137 0.0
C13 C 0.12791 0.64879 0.37527 0.0
C14 C 0.1485 0.65818 0.40284 0.0
C15 C 0.15255 0.65575 0.45525 0.0
C16 C 0.13609 0.64392 0.48141 0.0
C17 C 0.11578 0.63413 0.45321 0.0
C18 C 0.11172 0.63663 0.40101 0.0
C19 C 0.13799 0.59683 0.16967 0.0
O20 O 0.12175 0.63438 0.09903 0.0
O21 O 0.10722 0.65379 0.17762 0.0
O22 O 0.18239 0.64182 0.05822 0.0
O23 O 0.16033 0.61013 0.04953 0.0
O24 O 0.17658 0.67276 0.14743 0.0
O25 O 0.14266 0.66664 0.1707 0.0
O26 O 0.17464 0.64436 0.25102 0.0
O27 O 0.19155 0.62756 0.17308 0.0
O28 O 0.11423 0.63445 0.28735 0.0
O29 O 0.1361 0.6664 0.30035 0.0
O30 O 0.11983 0.6059 0.19497 0.0
O31 O 0.15453 0.61185 0.17665 0.0
H32 H 0.17095 0.5879 0.94085 0.0
H33 H 0.16317 0.59144 0.84947 0.0
H34 H 0.1561 0.66769 0.89741 0.0
H35 H 0.16314 0.66389 0.98892 0.0
H36 H 0.16131 0.66779 0.38435 0.0
H37 H 0.16828 0.66374 0.47568 0.0
H38 H 0.1029 0.62452 0.47147 0.0
H39 H 0.09565 0.6293 0.3809 0.0
Ho40 Ho 0.66043 0.90456 0.42578 0.0
Ho41 Ho 0.63625 0.90183 0.3204 0.0
C42 C 0.60319 0.89676 0.41305 0.0
C43 C 0.67474 0.91593 0.52324 0.0
C44 C 0.66764 0.91477 0.57708 0.0
C45 C 0.67605 0.93233 0.61864 0.0
C46 C 0.67099 0.93107 0.67057 0.0
C47 C 0.65738 0.91216 0.68214 0.0
C48 C 0.64858 0.89478 0.64017 0.0
C49 C 0.65363 0.89609 0.58807 0.0
C50 C 0.6573 0.85981 0.3683 0.0
C51 C 0.69331 0.90513 0.32798 0.0
C52 C 0.62171 0.89279 0.22294 0.0
C53 C 0.62851 0.89602 0.16979 0.0
C54 C 0.63325 0.87589 0.13143 0.0
C55 C 0.6375 0.87815 0.07962 0.0
C56 C 0.63695 0.90062 0.06475 0.0
C57 C 0.63264 0.92085 0.10342 0.0
C58 C 0.62846 0.91859 0.15534 0.0
C59 C 0.63963 0.94609 0.38125 0.0
O60 O 0.62106 0.90548 0.44509 0.0
O61 O 0.60624 0.88988 0.36228 0.0
O62 O 0.67971 0.8958 0.49255 0.0
O63 O 0.66295 0.93032 0.49871 0.0
O64 O 0.67519 0.86815 0.39807 0.0
O65 O 0.64139 0.8754 0.37211 0.0
O66 O 0.67427 0.89855 0.2986 0.0
O67 O 0.69205 0.912 0.37961 0.0
O68 O 0.61565 0.91169 0.25655 0.0
O69 O 0.63414 0.87789 0.24494 0.0
O70 O 0.62137 0.93828 0.35218 0.0
O71 O 0.65541 0.93047 0.37468 0.0
H72 H 0.68695 0.94684 0.61097 0.0
H73 H 0.67832 0.94459 0.70176 0.0
H74 H 0.63779 0.88015 0.64759 0.0
H75 H 0.64686 0.88239 0.55651 0.0
H76 H 0.6331 0.85825 0.14124 0.0
H77 H 0.64046 0.86216 0.05082 0.0
H78 H 0.63238 0.93846 0.09349 0.0
H79 H 0.62479 0.93449 0.18383 0.0
Ho80 Ho 0.37672 0.39585 0.55643 0.0
Ho81 Ho 0.4014 0.40234 0.66972 0.0
C82 C 0.43339 0.3887 0.57061 0.0
C83 C 0.36099 0.40621 0.46908 0.0
C84 C 0.36371 0.3994 0.41174 0.0
C85 C 0.38594 0.3983 0.3889 0.0
C86 C 0.38783 0.39451 0.33423 0.0
C87 C 0.36754 0.3917 0.3013 0.0
C88 C 0.34538 0.39187 0.3244 0.0
C89 C 0.34351 0.39576 0.37901 0.0
C90 C 0.38284 0.35252 0.58425 0.0
C91 C 0.34442 0.40245 0.65928 0.0
C92 C 0.41619 0.40302 0.76518 0.0
C93 C 0.40755 0.40069 0.81725 0.0
C94 C 0.394 0.38103 0.82489 0.0
C95 C 0.38725 0.37892 0.87551 0.0
C96 C 0.3938 0.39649 0.91921 0.0
C97 C 0.4071 0.41623 0.91111 0.0
C98 C 0.41392 0.41826 0.86074 0.0
C99 C 0.39952 0.44042 0.62048 0.0
O100 O 0.41608 0.39522 0.54083 0.0
O101 O 0.43056 0.38647 0.61989 0.0
O102 O 0.3506 0.39078 0.49282 0.0
O103 O 0.37883 0.41722 0.49638 0.0
O104 O 0.37362 0.35562 0.53965 0.0
O105 O 0.38867 0.37273 0.61006 0.0
O106 O 0.3633 0.39992 0.68864 0.0
O107 O 0.3454 0.40358 0.60863 0.0
O108 O 0.40975 0.42214 0.74756 0.0
O109 O 0.41624 0.38387 0.7284 0.0
O110 O 0.41776 0.43543 0.64749 0.0
O111 O 0.38357 0.4253 0.62185 0.0
H112 H 0.40185 0.40105 0.41322 0.0
H113 H 0.40516 0.39472 0.31791 0.0
H114 H 0.32941 0.38935 0.30027 0.0
H115 H 0.32618 0.39652 0.39577 0.0
H116 H 0.38879 0.36722 0.79196 0.0
H117 H 0.37683 0.36361 0.88043 0.0
H118 H 0.41275 0.42989 0.94393 0.0
H119 H 0.4245 0.43347 0.85583 0.0
Ho120 Ho 0.88931 0.12607 0.85018 0.0
Ho121 Ho 0.89213 0.15253 0.97179 0.0
C122 C 0.89538 0.18396 0.88364 0.0
C123 C 0.87294 0.11012 0.75606 0.0
C124 C 0.8767 0.11329 0.7015 0.0
C125 C 0.85753 0.11047 0.66572 0.0
C126 C 0.86032 0.11367 0.61395 0.0
C127 C 0.88241 0.11978 0.59665 0.0
C128 C 0.90166 0.12252 0.63269 0.0
C129 C 0.89882 0.1194 0.68467 0.0
C130 C 0.93464 0.13683 0.88304 0.0
C131 C 0.88806 0.09451 0.94365 0.0
C132 C 0.90297 0.1674 0.07027 0.0
C133 C 0.90189 0.15964 0.12147 0.0
C134 C 0.91522 0.17202 0.16419 0.0
C135 C 0.91377 0.16593 0.21391 0.0
C136 C 0.89894 0.14723 0.22212 0.0
C137 C 0.8858 0.13461 0.17882 0.0
C138 C 0.88726 0.14077 0.12898 0.0
C139 C 0.8494 0.14843 0.9214 0.0
O140 O 0.88625 0.16577 0.84921 0.0
O141 O 0.90316 0.18171 0.93104 0.0
O142 O 0.88955 0.09942 0.7789 0.0
O143 O 0.86408 0.12842 0.78752 0.0
O144 O 0.92861 0.12689 0.83533 0.0
O145 O 0.9161 0.14047 0.90858 0.0
O146 O 0.89083 0.11419 0.97949 0.0
O147 O 0.88615 0.09451 0.89218 0.0
O148 O 0.88285 0.17179 0.04836 0.0
O149 O 0.91772 0.15621 0.03634 0.0
O150 O 0.85562 0.16644 0.95776 0.0
O151 O 0.86555 0.1332 0.91633 0.0
H152 H 0.84031 0.10578 0.67789 0.0
H153 H 0.84517 0.11109 0.58728 0.0
H154 H 0.91885 0.12749 0.62098 0.0
H155 H 0.91384 0.12188 0.71173 0.0
H156 H 0.92652 0.18673 0.15929 0.0
H157 H 0.92387 0.17632 0.24622 0.0
H158 H 0.87442 0.11993 0.18338 0.0
H159 H 0.87681 0.13098 0.09648 0.0
Ho160 Ho 0.1565 0.40156 0.93871 0.0
Ho161 Ho 0.13176 0.39999 0.83459 0.0
C162 C 0.09973 0.3926 0.92696 0.0
C163 C 0.17085 0.41095 0.03636 0.0
C164 C 0.16346 0.40905 0.09004 0.0
C165 C 0.15034 0.42717 0.12047 0.0
C166 C 0.14559 0.42638 0.17295 0.0
C167 C 0.15395 0.40752 0.19633 0.0
C168 C 0.16674 0.38924 0.16553 0.0
C169 C 0.1715 0.39005 0.11319 0.0
C170 C 0.15499 0.35765 0.87694 0.0
C171 C 0.18862 0.40639 0.84241 0.0
C172 C 0.11637 0.39239 0.73782 0.0
C173 C 0.12249 0.39685 0.68535 0.0
C174 C 0.14507 0.39235 0.66503 0.0
C175 C 0.14966 0.39504 0.61351 0.0
C176 C 0.1318 0.40238 0.58146 0.0
C177 C 0.10941 0.40737 0.60254 0.0
C178 C 0.10482 0.40458 0.65382 0.0
C179 C 0.13371 0.44323 0.89912 0.0
O180 O 0.11745 0.40174 0.95877 0.0
O181 O 0.10267 0.38605 0.87608 0.0
O182 O 0.17536 0.3911 1.00419 0.0
O183 O 0.16014 0.42643 1.01271 0.0
O184 O 0.17277 0.36627 0.90672 0.0
O185 O 0.13838 0.37249 0.88281 0.0
O186 O 0.16978 0.40009 0.81204 0.0
O187 O 0.18747 0.41109 0.89424 0.0
O188 O 0.11043 0.41086 0.7727 0.0
O189 O 0.12934 0.37727 0.75798 0.0
O190 O 0.11523 0.43497 0.87137 0.0
O191 O 0.15018 0.42851 0.89047 0.0
H192 H 0.1441 0.44223 0.10414 0.0
H193 H 0.13548 0.44063 0.1953 0.0
H194 H 0.17379 0.37464 0.18235 0.0
H195 H 0.18204 0.37603 0.09124 0.0
H196 H 0.15907 0.38645 0.6886 0.0
H197 H 0.16717 0.39132 0.59873 0.0
H198 H 0.09518 0.41276 0.57885 0.0
H199 H 0.08725 0.40802 0.66855 0.0
Ho200 Ho 0.88719 0.91299 0.19366 0.0
Ho201 Ho 0.88599 0.88534 0.07304 0.0
C202 C 0.89203 0.85502 0.16333 0.0
C203 C 0.87363 0.93009 0.28767 0.0
C204 C 0.87839 0.92657 0.34201 0.0
C205 C 0.88696 0.90483 0.35246 0.0
C206 C 0.88954 0.9012 0.40436 0.0
C207 C 0.88367 0.91926 0.44688 0.0
C208 C 0.87563 0.9412 0.43606 0.0
C209 C 0.87299 0.94477 0.38419 0.0
C210 C 0.93129 0.90122 0.15955 0.0
C211 C 0.88503 0.94349 0.09843 0.0
C212 C 0.89317 0.86939 0.97444 0.0
C213 C 0.89107 0.87676 0.9227 0.0
C214 C 0.89745 0.89973 0.91551 0.0
C215 C 0.89612 0.90565 0.86528 0.0
C216 C 0.88828 0.88877 0.82137 0.0
C217 C 0.88166 0.86593 0.82912 0.0
C218 C 0.88307 0.86002 0.87913 0.0
C219 C 0.84482 0.89066 0.1249 0.0
O220 O 0.88416 0.87356 0.19737 0.0
O221 O 0.89792 0.85658 0.11495 0.0
O222 O 0.89046 0.93983 0.26481 0.0
O223 O 0.86305 0.91235 0.2562 0.0
O224 O 0.92689 0.91171 0.20717 0.0
O225 O 0.91194 0.89762 0.13489 0.0
O226 O 0.88609 0.92345 0.06341 0.0
O227 O 0.88423 0.94407 0.15009 0.0
O228 O 0.87349 0.86603 0.99729 0.0
O229 O 0.90949 0.87979 1.00758 0.0
O230 O 0.84977 0.87217 0.08948 0.0
O231 O 0.86133 0.90569 0.12852 0.0
H232 H 0.89129 0.89053 0.32048 0.0
H233 H 0.8961 0.88422 0.41116 0.0
H234 H 0.87068 0.95541 0.46761 0.0
H235 H 0.86624 0.96162 0.37697 0.0
H236 H 0.90358 0.91304 0.94855 0.0
H237 H 0.9011 0.92348 0.86089 0.0
H238 H 0.87586 0.85236 0.79628 0.0
H239 H 0.87815 0.84218 0.88369 0.0
Ho240 Ho 0.38543 0.62011 0.36321 0.0
Ho241 Ho 0.38904 0.64484 0.4858 0.0
C242 C 0.39065 0.67784 0.3998 0.0
C243 C 0.3685 0.60416 0.26969 0.0
C244 C 0.37231 0.60742 0.2153 0.0
C245 C 0.35324 0.60459 0.17927 0.0
C246 C 0.35626 0.60762 0.12746 0.0
C247 C 0.37847 0.61353 0.11047 0.0
C248 C 0.39757 0.61644 0.14692 0.0
C249 C 0.3945 0.61346 0.19885 0.0
C250 C 0.43058 0.63239 0.39405 0.0
C251 C 0.38715 0.5868 0.45378 0.0
C252 C 0.40122 0.65925 0.58357 0.0
C253 C 0.39964 0.65224 0.63532 0.0
C254 C 0.41246 0.66533 0.67797 0.0
C255 C 0.41047 0.66009 0.72828 0.0
C256 C 0.39553 0.64161 0.73712 0.0
C257 C 0.38306 0.62812 0.69387 0.0
C258 C 0.38507 0.63342 0.64337 0.0
C259 C 0.34582 0.64037 0.438 0.0
O260 O 0.38128 0.65995 0.36487 0.0
O261 O 0.39911 0.67486 0.44624 0.0
O262 O 0.38519 0.59342 0.29214 0.0
O263 O 0.35975 0.62247 0.30137 0.0
O264 O 0.42434 0.62305 0.34608 0.0
O265 O 0.41235 0.63461 0.42072 0.0
O266 O 0.38838 0.60609 0.4912 0.0
O267 O 0.38535 0.58759 0.40269 0.0
O268 O 0.3815 0.6652 0.5624 0.0
O269 O 0.41484 0.64644 0.54936 0.0
O270 O 0.35192 0.65792 0.47556 0.0
O271 O 0.36233 0.62558 0.43066 0.0
H272 H 0.33592 0.60011 0.19131 0.0
H273 H 0.34105 0.60566 0.10095 0.0
H274 H 0.41497 0.62075 0.13522 0.0
H275 H 0.40947 0.61583 0.22608 0.0
H276 H 0.42388 0.67986 0.67247 0.0
H277 H 0.42068 0.67055 0.76032 0.0
H278 H 0.37129 0.61386 0.69926 0.0
H279 H 0.37501 0.6231 0.61084 0.0
Ho280 Ho 0.65981 0.13679 0.61566 0.0
Ho281 Ho 0.63724 0.14116 0.71989 0.0
C282 C 0.60271 0.14451 0.62524 0.0
C283 C 0.67236 0.12396 0.51898 0.0
C284 C 0.66585 0.1273 0.46509 0.0
C285 C 0.65545 0.1084 0.42926 0.0
C286 C 0.65119 0.11041 0.37687 0.0
C287 C 0.65739 0.13134 0.35895 0.0
C288 C 0.66745 0.15041 0.39508 0.0
C289 C 0.67167 0.14841 0.4475 0.0
C290 C 0.6573 0.18238 0.66845 0.0
C291 C 0.69398 0.13754 0.71555 0.0
C292 C 0.62331 0.15193 0.81583 0.0
C293 C 0.6298 0.14956 0.87006 0.0
C294 C 0.62605 0.16896 0.91076 0.0
C295 C 0.63008 0.16687 0.9631 0.0
C296 C 0.63789 0.14526 0.97592 0.0
C297 C 0.64233 0.12601 0.93488 0.0
C298 C 0.63831 0.12813 0.88236 0.0
C299 C 0.64018 0.09609 0.66277 0.0
O300 O 0.62008 0.13543 0.59437 0.0
O301 O 0.60667 0.15224 0.67578 0.0
O302 O 0.68142 0.14221 0.55141 0.0
O303 O 0.65786 0.11159 0.54194 0.0
O304 O 0.67463 0.17375 0.6396 0.0
O305 O 0.64146 0.16662 0.66579 0.0
O306 O 0.67555 0.14523 0.74368 0.0
O307 O 0.69165 0.12934 0.66433 0.0
O308 O 0.61679 0.13259 0.78314 0.0
O309 O 0.63641 0.16604 0.79402 0.0
O310 O 0.62215 0.10406 0.69007 0.0
O311 O 0.65584 0.112 0.66905 0.0
H312 H 0.65099 0.09183 0.44152 0.0
H313 H 0.64312 0.0955 0.35032 0.0
H314 H 0.67275 0.16667 0.38254 0.0
H315 H 0.67998 0.16324 0.47384 0.0
H316 H 0.61955 0.18567 0.9021 0.0
H317 H 0.62693 0.1822 0.99358 0.0
H318 H 0.64822 0.10907 0.94336 0.0
H319 H 0.64138 0.1129 0.85156 0.0
Ho320 Ho 0.89651 0.39846 0.84039 0.0
Ho321 Ho 0.8715 0.40328 0.94347 0.0
C322 C 0.83955 0.40343 0.8412 0.0
C323 C 0.91143 0.38779 0.74497 0.0
C324 C 0.90485 0.38957 0.69024 0.0
C325 C 0.91323 0.37237 0.64915 0.0
C326 C 0.90888 0.37435 0.59674 0.0
C327 C 0.89606 0.39367 0.58407 0.0
C328 C 0.88713 0.41061 0.62549 0.0
C329 C 0.89149 0.40859 0.67808 0.0
C330 C 0.89438 0.44319 0.89805 0.0
C331 C 0.92853 0.39552 0.93916 0.0
C332 C 0.8579 0.41562 0.03968 0.0
C333 C 0.86457 0.41278 0.09401 0.0
C334 C 0.86928 0.43312 0.13258 0.0
C335 C 0.87358 0.43116 0.1851 0.0
C336 C 0.87316 0.40878 0.20053 0.0
C337 C 0.86886 0.38836 0.1616 0.0
C338 C 0.86462 0.39033 0.10903 0.0
C339 C 0.87438 0.35784 0.88935 0.0
O340 O 0.85836 0.39549 0.81464 0.0
O341 O 0.84088 0.41139 0.8926 0.0
O342 O 0.91671 0.40764 0.77729 0.0
O343 O 0.89913 0.37314 0.76705 0.0
O344 O 0.91268 0.43457 0.87256 0.0
O345 O 0.87796 0.42801 0.89046 0.0
O346 O 0.91062 0.40482 0.9678 0.0
O347 O 0.92599 0.3874 0.88829 0.0
O348 O 0.85005 0.39678 1.00716 0.0
O349 O 0.87156 0.4289 1.01691 0.0
O350 O 0.85661 0.36631 0.91698 0.0
O351 O 0.89032 0.37355 0.89437 0.0
H352 H 0.9235 0.35751 0.65761 0.0
H353 H 0.91564 0.3607 0.56609 0.0
H354 H 0.87732 0.4258 0.61735 0.0
H355 H 0.88482 0.42209 0.70916 0.0
H356 H 0.86926 0.45066 0.12223 0.0
H357 H 0.8772 0.44725 0.21364 0.0
H358 H 0.86811 0.37085 0.1719 0.0
H359 H 0.86091 0.37427 0.08044 0.0
Ho360 Ho 0.39558 0.14343 0.6933 0.0
Ho361 Ho 0.3725 0.13548 0.5777 0.0
C362 C 0.33857 0.13657 0.67823 0.0
C363 C 0.40731 0.15766 0.79143 0.0
C364 C 0.40077 0.15359 0.84408 0.0
C365 C 0.39903 0.1732 0.88538 0.0
C366 C 0.39438 0.16989 0.93638 0.0
C367 C 0.39146 0.14683 0.94736 0.0
C368 C 0.3928 0.1272 0.90565 0.0
C369 C 0.39733 0.13054 0.85453 0.0
C370 C 0.39425 0.09824 0.63699 0.0
C371 C 0.42867 0.14564 0.59866 0.0
C372 C 0.3595 0.11548 0.48325 0.0
C373 C 0.36281 0.11933 0.42915 0.0
C374 C 0.35131 0.10428 0.38718 0.0
C375 C 0.3544 0.10739 0.33544 0.0
C376 C 0.36912 0.12565 0.32448 0.0
C377 C 0.38056 0.14081 0.36693 0.0
C378 C 0.37744 0.13766 0.41876 0.0
C379 C 0.37983 0.18285 0.6146 0.0
O380 O 0.35725 0.14033 0.71037 0.0
O381 O 0.33995 0.13334 0.62614 0.0
O382 O 0.41768 0.14016 0.76056 0.0
O383 O 0.39202 0.1688 0.76621 0.0
O384 O 0.41105 0.10644 0.6704 0.0
O385 O 0.3786 0.11384 0.638 0.0
O386 O 0.41225 0.13357 0.56694 0.0
O387 O 0.42438 0.15575 0.64762 0.0
O388 O 0.34685 0.13133 0.51346 0.0
O389 O 0.37823 0.10917 0.50768 0.0
O390 O 0.37017 0.1742 0.56921 0.0
O391 O 0.38476 0.16566 0.63703 0.0
H392 H 0.40171 0.19113 0.87836 0.0
H393 H 0.39373 0.1854 0.9675 0.0
H394 H 0.39032 0.10923 0.9125 0.0
H395 H 0.39844 0.11507 0.82339 0.0
H396 H 0.3399 0.09007 0.39444 0.0
H397 H 0.345 0.09562 0.30403 0.0
H398 H 0.39224 0.15487 0.36009 0.0
H399 H 0.38654 0.14944 0.4507 0.0
Ho400 Ho 0.64796 0.65587 0.46434 0.0
Ho401 Ho 0.64343 0.62912 0.35143 0.0
C402 C 0.65038 0.5978 0.44053 0.0
C403 C 0.64378 0.67239 0.56397 0.0
C404 C 0.64608 0.66526 0.61607 0.0
C405 C 0.63345 0.64584 0.62817 0.0
C406 C 0.63417 0.64107 0.67938 0.0
C407 C 0.6476 0.65553 0.71954 0.0
C408 C 0.66072 0.67452 0.70684 0.0
C409 C 0.65989 0.67936 0.65579 0.0
C410 C 0.68819 0.65138 0.40974 0.0
C411 C 0.64054 0.68728 0.37746 0.0
C412 C 0.64687 0.61164 0.2519 0.0
C413 C 0.64696 0.61795 0.19923 0.0
C414 C 0.64782 0.64167 0.19178 0.0
C415 C 0.6476 0.64675 0.14073 0.0
C416 C 0.64641 0.62819 0.09637 0.0
C417 C 0.64574 0.60451 0.10451 0.0
C418 C 0.64598 0.59949 0.15528 0.0
C419 C 0.60315 0.63326 0.40578 0.0
O420 O 0.64678 0.61756 0.47504 0.0
O421 O 0.65244 0.59793 0.38978 0.0
O422 O 0.66313 0.67419 0.53871 0.0
O423 O 0.62631 0.66321 0.5328 0.0
O424 O 0.68282 0.67022 0.44354 0.0
O425 O 0.67263 0.63554 0.4086 0.0
O426 O 0.64641 0.66812 0.34287 0.0
O427 O 0.63629 0.68603 0.4267 0.0
O428 O 0.62696 0.61392 0.27637 0.0
O429 O 0.66496 0.6184 0.28332 0.0
O430 O 0.60913 0.61435 0.373 0.0
O431 O 0.61846 0.64939 0.40665 0.0
H432 H 0.62268 0.63458 0.5984 0.0
H433 H 0.62412 0.6261 0.68758 0.0
H434 H 0.67105 0.68618 0.73677 0.0
H435 H 0.66963 0.69454 0.64762 0.0
H436 H 0.64855 0.65619 0.22529 0.0
H437 H 0.64796 0.6652 0.13601 0.0
H438 H 0.64528 0.58973 0.07155 0.0
H439 H 0.6454 0.58106 0.16023 0.0
Ho440 Ho 0.14757 0.88523 0.06837 0.0
Ho441 Ho 0.14568 0.91225 0.17984 0.0
C442 C 0.15061 0.94317 0.09014 0.0
C443 C 0.14148 0.86851 0.96867 0.0
C444 C 0.14423 0.87519 0.91651 0.0
C445 C 0.13438 0.89608 0.90403 0.0
C446 C 0.13557 0.90076 0.85286 0.0
C447 C 0.14658 0.88464 0.81303 0.0
C448 C 0.15694 0.86409 0.82622 0.0
C449 C 0.15571 0.85943 0.87724 0.0
C450 C 0.18947 0.89051 0.12209 0.0
C451 C 0.14227 0.85397 0.15506 0.0
C452 C 0.15093 0.92855 0.28017 0.0
C453 C 0.14944 0.92098 0.33197 0.0
C454 C 0.16914 0.91151 0.35466 0.0
C455 C 0.16843 0.90669 0.40571 0.0
C456 C 0.14805 0.91137 0.43562 0.0
C457 C 0.12824 0.92049 0.41255 0.0
C458 C 0.12896 0.9253 0.36152 0.0
C459 C 0.10359 0.90661 0.12708 0.0
O460 O 0.14509 0.92331 0.05693 0.0
O461 O 0.15498 0.94312 0.14064 0.0
O462 O 0.16072 0.86541 0.99518 0.0
O463 O 0.12501 0.87912 0.99866 0.0
O464 O 0.18323 0.87156 0.0887 0.0
O465 O 0.17378 0.90615 0.12322 0.0
O466 O 0.14899 0.87332 0.18911 0.0
O467 O 0.13657 0.85508 0.10595 0.0
O468 O 0.13132 0.92995 0.25358 0.0
O469 O 0.16811 0.92008 0.2498 0.0
O470 O 0.11042 0.92594 0.15844 0.0
O471 O 0.11929 0.89095 0.12617 0.0
H472 H 0.12534 0.90856 0.93344 0.0
H473 H 0.12723 0.91666 0.84418 0.0
H474 H 0.16596 0.85149 0.79702 0.0
H475 H 0.16344 0.8432 0.88581 0.0
H476 H 0.18537 0.90834 0.33349 0.0
H477 H 0.18413 0.89999 0.42233 0.0
H478 H 0.11215 0.92403 0.43403 0.0
H479 H 0.11355 0.93285 0.3456 0.0
Ho480 Ho 0.89865 0.64171 0.22632 0.0
Ho481 Ho 0.87499 0.63648 0.12039 0.0
C482 C 0.84187 0.63644 0.21716 0.0
C483 C 0.91276 0.65209 0.32398 0.0
C484 C 0.90576 0.64932 0.37713 0.0
C485 C 0.90822 0.66886 0.41863 0.0
C486 C 0.90342 0.6665 0.47011 0.0
C487 C 0.89612 0.64446 0.48136 0.0
C488 C 0.89325 0.62496 0.43951 0.0
C489 C 0.89797 0.62737 0.38787 0.0
C490 C 0.89634 0.59672 0.16912 0.0
C491 C 0.93198 0.64576 0.13403 0.0
C492 C 0.86194 0.62363 0.02241 0.0
C493 C 0.86825 0.62712 0.96901 0.0
C494 C 0.87963 0.60891 0.93473 0.0
C495 C 0.88351 0.61099 0.88256 0.0
C496 C 0.87589 0.63123 0.86324 0.0
C497 C 0.86492 0.64963 0.89787 0.0
C498 C 0.8611 0.64759 0.95001 0.0
C499 C 0.87712 0.68212 0.17392 0.0
O500 O 0.86044 0.64477 0.24655 0.0
O501 O 0.8438 0.62805 0.16626 0.0
O502 O 0.91903 0.63291 0.29155 0.0
O503 O 0.90018 0.66647 0.30085 0.0
O504 O 0.91475 0.60569 0.19615 0.0
O505 O 0.88012 0.6118 0.17436 0.0
O506 O 0.91445 0.63594 0.10228 0.0
O507 O 0.92851 0.65377 0.18425 0.0
O508 O 0.85322 0.64183 0.05411 0.0
O509 O 0.87626 0.61117 0.04677 0.0
O510 O 0.85964 0.673 0.1438 0.0
O511 O 0.89327 0.66689 0.17187 0.0
H512 H 0.91433 0.68592 0.41134 0.0
H513 H 0.9061 0.68182 0.50132 0.0
H514 H 0.88736 0.60781 0.44665 0.0
H515 H 0.89583 0.612 0.35656 0.0
H516 H 0.88504 0.59276 0.94787 0.0
H517 H 0.89178 0.59635 0.85691 0.0
H518 H 0.85912 0.66561 0.88459 0.0
H519 H 0.8521 0.6619 0.97506 0.0
Ho520 Ho 0.15471 0.15306 0.95914 0.0
Ho521 Ho 0.14745 0.12574 0.84834 0.0
C522 C 0.15397 0.09518 0.93839 0.0
C523 C 0.15511 0.17004 0.0595 0.0
C524 C 0.15435 0.16232 0.11132 0.0
C525 C 0.13304 0.16272 0.13791 0.0
C526 C 0.13253 0.15799 0.18905 0.0
C527 C 0.15335 0.15289 0.21528 0.0
C528 C 0.17462 0.15202 0.18825 0.0
C529 C 0.17512 0.15675 0.13707 0.0
C530 C 0.19316 0.14832 0.89793 0.0
C531 C 0.14477 0.18417 0.87338 0.0
C532 C 0.1493 0.10897 0.74816 0.0
C533 C 0.14932 0.11669 0.69646 0.0
C534 C 0.1674 0.13104 0.68248 0.0
C535 C 0.16784 0.13635 0.63172 0.0
C536 C 0.15023 0.12748 0.59381 0.0
C537 C 0.13202 0.11344 0.60832 0.0
C538 C 0.13163 0.10808 0.65886 0.0
C539 C 0.108 0.13075 0.90611 0.0
O540 O 0.15003 0.11531 0.97128 0.0
O541 O 0.15682 0.09479 0.88763 0.0
O542 O 0.17414 0.16553 0.03215 0.0
O543 O 0.13597 0.16727 0.02983 0.0
O544 O 0.18794 0.16777 0.92999 0.0
O545 O 0.17816 0.1324 0.90097 0.0
O546 O 0.14976 0.16477 0.83845 0.0
O547 O 0.14229 0.18335 0.92343 0.0
O548 O 0.12972 0.11158 0.77394 0.0
O549 O 0.16791 0.11373 0.77911 0.0
O550 O 0.11347 0.1116 0.87335 0.0
O551 O 0.12353 0.14657 0.9055 0.0
H552 H 0.11674 0.16719 0.11962 0.0
H553 H 0.11577 0.15849 0.20817 0.0
H554 H 0.19106 0.14846 0.20725 0.0
H555 H 0.19193 0.15664 0.11823 0.0
H556 H 0.18136 0.13792 0.71046 0.0
H557 H 0.18199 0.14743 0.62219 0.0
H558 H 0.11836 0.10599 0.58013 0.0
H559 H 0.11766 0.09675 0.66829 0.0
Ho560 Ho 0.65027 0.38483 0.55573 0.0
Ho561 Ho 0.64321 0.41154 0.6678 0.0
C562 C 0.6515 0.44302 0.58008 0.0
C563 C 0.64829 0.36785 0.45552 0.0
C564 C 0.64994 0.37508 0.40363 0.0
C565 C 0.6366 0.39389 0.39028 0.0
C566 C 0.63695 0.39877 0.33918 0.0
C567 C 0.65069 0.38502 0.30038 0.0
C568 C 0.66446 0.36662 0.31443 0.0
C569 C 0.66403 0.3617 0.36536 0.0
C570 C 0.68897 0.3894 0.61987 0.0
C571 C 0.64162 0.35342 0.64152 0.0
C572 C 0.64397 0.4291 0.76782 0.0
C573 C 0.646 0.42291 0.82055 0.0
C574 C 0.64727 0.39922 0.82817 0.0
C575 C 0.64804 0.3942 0.8793 0.0
C576 C 0.64743 0.41279 0.92354 0.0
C577 C 0.64656 0.43645 0.91525 0.0
C578 C 0.64584 0.4414 0.86441 0.0
C579 C 0.6044 0.40695 0.60391 0.0
O580 O 0.64918 0.4231 0.54485 0.0
O581 O 0.65211 0.44308 0.63124 0.0
O582 O 0.66762 0.36868 0.48423 0.0
O583 O 0.62983 0.37474 0.48345 0.0
O584 O 0.68418 0.37066 0.58443 0.0
O585 O 0.67374 0.40521 0.61766 0.0
O586 O 0.64697 0.37278 0.67693 0.0
O587 O 0.63814 0.35442 0.59142 0.0
O588 O 0.62477 0.42227 0.74032 0.0
O589 O 0.66274 0.42681 0.73918 0.0
O590 O 0.60955 0.42577 0.63874 0.0
O591 O 0.61959 0.39109 0.60634 0.0
H592 H 0.62562 0.40459 0.419 0.0
H593 H 0.62638 0.41328 0.33 0.0
H594 H 0.67505 0.35549 0.28559 0.0
H595 H 0.67433 0.347 0.37454 0.0
H596 H 0.64736 0.38467 0.79474 0.0
H597 H 0.64857 0.37578 0.88415 0.0
H598 H 0.64652 0.45123 0.94816 0.0
H599 H 0.64493 0.4598 0.85934 0.0
Ho600 Ho 0.39526 0.89135 0.33962 0.0
Ho601 Ho 0.37373 0.89971 0.44576 0.0
C602 C 0.339 0.89768 0.34736 0.0
C603 C 0.40794 0.87752 0.24318 0.0
C604 C 0.40212 0.88049 0.18895 0.0
C605 C 0.40881 0.86269 0.14719 0.0
C606 C 0.40513 0.86556 0.09518 0.0
C607 C 0.39468 0.88638 0.08368 0.0
C608 C 0.38742 0.90399 0.12577 0.0
C609 C 0.39113 0.90108 0.17797 0.0
C610 C 0.39348 0.93778 0.38966 0.0
C611 C 0.43034 0.89189 0.43456 0.0
C612 C 0.36229 0.91463 0.54271 0.0
C613 C 0.36824 0.91089 0.59663 0.0
C614 C 0.37461 0.93057 0.63555 0.0
C615 C 0.37841 0.92797 0.68778 0.0
C616 C 0.3758 0.90559 0.70249 0.0
C617 C 0.36986 0.88577 0.66315 0.0
C618 C 0.36614 0.88838 0.61085 0.0
C619 C 0.37531 0.85294 0.39884 0.0
O620 O 0.35642 0.88724 0.31936 0.0
O621 O 0.34249 0.90831 0.39692 0.0
O622 O 0.41698 0.89599 0.27493 0.0
O623 O 0.3928 0.86586 0.26618 0.0
O624 O 0.41084 0.92871 0.36148 0.0
O625 O 0.37764 0.92225 0.38749 0.0
O626 O 0.41345 0.90294 0.46396 0.0
O627 O 0.42582 0.8811 0.38584 0.0
O628 O 0.35142 0.8973 0.51093 0.0
O629 O 0.37811 0.92515 0.51899 0.0
O630 O 0.35842 0.86262 0.42769 0.0
O631 O 0.39133 0.86827 0.39876 0.0
H632 H 0.41725 0.84664 0.15483 0.0
H633 H 0.41054 0.85144 0.0639 0.0
H634 H 0.37945 0.9203 0.11843 0.0
H635 H 0.38583 0.91507 0.20968 0.0
H636 H 0.37629 0.94813 0.62569 0.0
H637 H 0.38336 0.94356 0.71668 0.0
H638 H 0.36743 0.86831 0.67294 0.0
H639 H 0.36116 0.87284 0.58184 0.0
H640 H 0.12924 0.65962 0.82358 0.0
H641 H 0.18175 0.60555 0.77953 0.0
H642 H 0.12439 0.66377 0.73201 0.0
H643 H 0.17606 0.60883 0.68777 0.0
H644 H 0.17745 0.6367 0.53381 0.0
H645 H 0.18322 0.63424 0.6262 0.0
H646 H 0.10861 0.64371 0.64947 0.0
H647 H 0.10303 0.64737 0.55797 0.0
C648 C 0.13977 0.6486 0.79446 0.0
C649 C 0.15587 0.63222 0.8093 0.0
C650 C 0.13678 0.65077 0.74168 0.0
C651 C 0.14978 0.6366 0.70211 0.0
C652 C 0.16591 0.62026 0.71699 0.0
C653 C 0.16893 0.61813 0.76975 0.0
C654 C 0.1623 0.63854 0.55872 0.0
C655 C 0.13975 0.64219 0.53803 0.0
C656 C 0.16557 0.63683 0.61172 0.0
C657 C 0.14639 0.6387 0.64562 0.0
C658 C 0.12387 0.64244 0.62495 0.0
C659 C 0.12062 0.6442 0.57205 0.0
H660 H 0.6684 0.87724 0.99491 0.0
H661 H 0.61234 0.92873 1.00764 0.0
H662 H 0.67261 0.87991 0.90274 0.0
H663 H 0.61646 0.93133 0.91545 0.0
H664 H 0.64723 0.94816 0.76427 0.0
H665 H 0.64271 0.9456 0.85632 0.0
H666 H 0.65248 0.86939 0.81827 0.0
H667 H 0.65795 0.8721 0.7265 0.0
C668 C 0.65687 0.88903 0.97798 0.0
C669 C 0.64005 0.90278 1.00881 0.0
C670 C 0.65924 0.89052 0.92503 0.0
C671 C 0.64483 0.90579 0.90145 0.0
C672 C 0.6281 0.91964 0.9324 0.0
C673 C 0.62575 0.91818 0.98536 0.0
C674 C 0.64855 0.93086 0.77554 0.0
C675 C 0.65306 0.91035 0.73786 0.0
C676 C 0.64571 0.92936 0.82833 0.0
C677 C 0.64729 0.90729 0.84492 0.0
C678 C 0.65146 0.88673 0.8071 0.0
C679 C 0.65428 0.88823 0.75428 0.0
H680 H 0.33943 0.4127 0.23594 0.0
H681 H 0.40003 0.36716 0.2356 0.0
H682 H 0.3435 0.41182 0.14238 0.0
H683 H 0.40471 0.36716 0.14222 0.0
H684 H 0.39546 0.35657 0.96392 0.0
H685 H 0.38721 0.35358 0.05464 0.0
H686 H 0.37034 0.42853 0.08794 0.0
H687 H 0.3778 0.43128 0.99716 0.0
C688 C 0.35349 0.40228 0.21585 0.0
C689 C 0.36941 0.39001 0.24346 0.0
C690 C 0.356 0.40204 0.16225 0.0
C691 C 0.37453 0.38956 0.1348 0.0
C692 C 0.39013 0.37679 0.16203 0.0
C693 C 0.38761 0.37703 0.21573 0.0
C694 C 0.38961 0.37229 0.99044 0.0
C695 C 0.38737 0.39418 0.97336 0.0
C696 C 0.38514 0.37065 0.04257 0.0
C697 C 0.3782 0.39083 0.07867 0.0
C698 C 0.37543 0.41256 0.06114 0.0
C699 C 0.37995 0.41421 1.00919 0.0
H700 H 0.85237 0.14232 0.53763 0.0
H701 H 0.91872 0.10538 0.53018 0.0
H702 H 0.85648 0.14782 0.44732 0.0
H703 H 0.92278 0.1107 0.4395 0.0
H704 H 0.93385 0.14686 0.29738 0.0
H705 H 0.92998 0.14023 0.38696 0.0
H706 H 0.85552 0.12697 0.35817 0.0
H707 H 0.85921 0.1347 0.26933 0.0
C708 C 0.86775 0.13515 0.51657 0.0
C709 C 0.88518 0.12335 0.54136 0.0
C710 C 0.87009 0.13826 0.46458 0.0
C711 C 0.88992 0.12963 0.4357 0.0
C712 C 0.90741 0.11789 0.46056 0.0
C713 C 0.90509 0.11483 0.51268 0.0
C714 C 0.9166 0.14269 0.31019 0.0
C715 C 0.89683 0.14149 0.27592 0.0
C716 C 0.91442 0.13859 0.36153 0.0
C717 C 0.89241 0.13313 0.3802 0.0
C718 C 0.87271 0.13147 0.34561 0.0
C719 C 0.87488 0.13559 0.29425 0.0
H720 H 0.15631 0.44512 0.27945 0.0
H721 H 0.1431 0.36923 0.24183 0.0
H722 H 0.15155 0.44437 0.37243 0.0
H723 H 0.13845 0.36849 0.3348 0.0
H724 H 0.15623 0.37143 0.50873 0.0
H725 H 0.16176 0.37316 0.41643 0.0
H726 H 0.12186 0.43832 0.43506 0.0
H727 H 0.11695 0.43697 0.52774 0.0
C728 C 0.15211 0.42831 0.29088 0.0
C729 C 0.15011 0.40723 0.25299 0.0
C730 C 0.14943 0.42788 0.34428 0.0
C731 C 0.14473 0.40635 0.36122 0.0
C732 C 0.1425 0.38532 0.3233 0.0
C733 C 0.14514 0.38575 0.26992 0.0
C734 C 0.14892 0.38631 0.49334 0.0
C735 C 0.13613 0.40405 0.52572 0.0
C736 C 0.15184 0.38714 0.44022 0.0
C737 C 0.14213 0.4058 0.41814 0.0
C738 C 0.12971 0.42378 0.45077 0.0
C739 C 0.1267 0.42288 0.50383 0.0
H740 H 0.92036 0.91417 0.77568 0.0
H741 H 0.854 0.87655 0.74463 0.0
H742 H 0.91968 0.92177 0.68597 0.0
H743 H 0.85327 0.88419 0.6552 0.0
H744 H 0.87154 0.87884 0.4833 0.0
H745 H 0.87304 0.87212 0.57344 0.0
H746 H 0.89966 0.9437 0.62649 0.0
H747 H 0.89899 0.95012 0.53592 0.0
C748 C 0.90547 0.90777 0.74998 0.0
C749 C 0.8873 0.89462 0.76746 0.0
C750 C 0.90509 0.91212 0.69843 0.0
C751 C 0.88651 0.90345 0.663 0.0
C752 C 0.86813 0.8907 0.68089 0.0
C753 C 0.86852 0.88635 0.73232 0.0
C754 C 0.87802 0.89307 0.51403 0.0
C755 C 0.88516 0.91503 0.50212 0.0
C756 C 0.87858 0.88932 0.56595 0.0
C757 C 0.88633 0.90741 0.60752 0.0
C758 C 0.89375 0.92929 0.59557 0.0
C759 C 0.89313 0.93306 0.5436 0.0
H760 H 0.39268 0.59839 0.76921 0.0
H761 H 0.39193 0.67425 0.82832 0.0
H762 H 0.38906 0.59106 0.85864 0.0
H763 H 0.38822 0.66698 0.91734 0.0
H764 H 0.40559 0.64698 0.07539 0.0
H765 H 0.4102 0.65282 0.98544 0.0
H766 H 0.36213 0.59428 0.93016 0.0
H767 H 0.35836 0.58774 0.01989 0.0
C768 C 0.39155 0.6135 0.80118 0.0
C769 C 0.39277 0.63691 0.79147 0.0
C770 C 0.38947 0.60931 0.85252 0.0
C771 C 0.38849 0.62843 0.89545 0.0
C772 C 0.38943 0.65181 0.88554 0.0
C773 C 0.39154 0.65598 0.83435 0.0
C774 C 0.39624 0.63512 0.04405 0.0
C775 C 0.38157 0.6169 0.05517 0.0
C776 C 0.39865 0.63867 0.9924 0.0
C777 C 0.38643 0.62413 0.95034 0.0
C778 C 0.37197 0.60572 0.96137 0.0
C779 C 0.36958 0.60215 1.01304 0.0
H780 H 0.60892 0.16212 0.05695 0.0
H781 H 0.67302 0.12255 0.02175 0.0
H782 H 0.61341 0.15851 0.14878 0.0
H783 H 0.67754 0.11893 0.11392 0.0
H784 H 0.66507 0.09686 0.27232 0.0
H785 H 0.65994 0.09975 0.18004 0.0
H786 H 0.63814 0.17295 0.22545 0.0
H787 H 0.6423 0.16976 0.31771 0.0
C788 C 0.62412 0.15284 0.06889 0.0
C789 C 0.64069 0.14275 0.03195 0.0
C790 C 0.62669 0.15077 0.12162 0.0
C791 C 0.64588 0.13852 0.13886 0.0
C792 C 0.66238 0.12824 0.10188 0.0
C793 C 0.6598 0.13032 0.04903 0.0
C794 C 0.65887 0.11348 0.26267 0.0
C795 C 0.65403 0.13306 0.30255 0.0
C796 C 0.65624 0.11523 0.20969 0.0
C797 C 0.64868 0.1366 0.19524 0.0
C798 C 0.64376 0.15614 0.23513 0.0
C799 C 0.6464 0.15439 0.28808 0.0
H800 H 0.85702 0.43862 0.28803 0.0
H801 H 0.8971 0.37433 0.24157 0.0
H802 H 0.86276 0.43547 0.37999 0.0
H803 H 0.90194 0.37061 0.33338 0.0
H804 H 0.92776 0.38486 0.50481 0.0
H805 H 0.92225 0.3886 0.41328 0.0
H806 H 0.85102 0.41231 0.44402 0.0
H807 H 0.85657 0.40858 0.53589 0.0
C808 C 0.86713 0.42383 0.29732 0.0
C809 C 0.87666 0.40678 0.25704 0.0
C810 C 0.87015 0.42185 0.35019 0.0
C811 C 0.8828 0.40276 0.36442 0.0
C812 C 0.89233 0.38571 0.32415 0.0
C813 C 0.88931 0.38769 0.27128 0.0
C814 C 0.91082 0.39065 0.49206 0.0
C815 C 0.89258 0.39628 0.52796 0.0
C816 C 0.90765 0.3928 0.43938 0.0
C817 C 0.88615 0.40067 0.42089 0.0
C818 C 0.86794 0.40649 0.45685 0.0
C819 C 0.87111 0.40434 0.50964 0.0
H820 H 0.37239 0.1674 0.28643 0.0
H821 H 0.37359 0.09092 0.23655 0.0
H822 H 0.37797 0.17233 0.19606 0.0
H823 H 0.37809 0.09583 0.14597 0.0
H824 H 0.41104 0.11314 0.99783 0.0
H825 H 0.40585 0.10814 0.08826 0.0
H826 H 0.35799 0.1676 0.11201 0.0
H827 H 0.36339 0.17271 0.02166 0.0
C828 C 0.37388 0.15162 0.25627 0.0
C829 C 0.37252 0.12875 0.26905 0.0
C830 C 0.37678 0.15445 0.2042 0.0
C831 C 0.37843 0.13449 0.16339 0.0
C832 C 0.37715 0.11163 0.17624 0.0
C833 C 0.37426 0.10881 0.22827 0.0
C834 C 0.39921 0.125 0.02215 0.0
C835 C 0.38764 0.14333 1.0023 0.0
C836 C 0.39622 0.12213 0.07414 0.0
C837 C 0.38151 0.13747 0.10776 0.0
C838 C 0.36979 0.1557 0.08773 0.0
C839 C 0.37285 0.1586 0.03578 0.0
H840 H 0.67137 0.66214 0.05726 0.0
H841 H 0.62017 0.60561 1.0113 0.0
H842 H 0.67123 0.66926 0.96719 0.0
H843 H 0.62081 0.61196 0.92112 0.0
H844 H 0.60983 0.64444 0.77445 0.0
H845 H 0.60908 0.63887 0.86538 0.0
H846 H 0.68409 0.65169 0.88102 0.0
H847 H 0.68474 0.65753 0.79015 0.0
C848 C 0.66001 0.65128 0.02807 0.0
C849 C 0.64586 0.63323 0.04172 0.0
C850 C 0.66015 0.65516 0.97617 0.0
C851 C 0.6461 0.64112 0.93653 0.0
C852 C 0.63171 0.6233 0.95046 0.0
C853 C 0.63156 0.61945 1.00223 0.0
C854 C 0.62621 0.64584 0.7971 0.0
C855 C 0.64736 0.65139 0.7748 0.0
C856 C 0.62579 0.64265 0.84939 0.0
C857 C 0.64653 0.64482 0.88086 0.0
C858 C 0.6677 0.65029 0.85844 0.0
C859 C 0.66809 0.65356 0.80618 0.0
H860 H 0.16726 0.87437 0.47643 0.0
H861 H 0.12814 0.93944 0.52083 0.0
H862 H 0.16737 0.86842 0.56723 0.0
H863 H 0.12749 0.933 0.6112 0.0
H864 H 0.1527 0.92696 0.77832 0.0
H865 H 0.15302 0.93344 0.68782 0.0
H866 H 0.14109 0.85819 0.63172 0.0
H867 H 0.14068 0.85172 0.72192 0.0
C868 C 0.15868 0.88743 0.5055 0.0
C869 C 0.14767 0.90738 0.49105 0.0
C870 C 0.15852 0.88387 0.55757 0.0
C871 C 0.1474 0.9002 0.59674 0.0
C872 C 0.13643 0.92017 0.58231 0.0
C873 C 0.13654 0.9237 0.53022 0.0
C874 C 0.14996 0.91182 0.74672 0.0
C875 C 0.14678 0.88879 0.75769 0.0
C876 C 0.15014 0.91553 0.69473 0.0
C877 C 0.14716 0.89633 0.65226 0.0
C878 C 0.14389 0.87335 0.66327 0.0
C879 C 0.14367 0.86964 0.71517 0.0
H880 H 0.91383 0.6181 0.80092 0.0
H881 H 0.84417 0.64786 0.79757 0.0
H882 H 0.91817 0.62074 0.70867 0.0
H883 H 0.84847 0.65045 0.70549 0.0
H884 H 0.87453 0.67569 0.55883 0.0
H885 H 0.86992 0.67238 0.65046 0.0
H886 H 0.90356 0.60361 0.62087 0.0
H887 H 0.90892 0.60732 0.52956 0.0
C888 C 0.89937 0.62504 0.78044 0.0
C889 C 0.8787 0.63287 0.80687 0.0
C890 C 0.90184 0.62653 0.72747 0.0
C891 C 0.88368 0.63585 0.69951 0.0
C892 C 0.86298 0.64356 0.72593 0.0
C893 C 0.86052 0.64209 0.77884 0.0
C894 C 0.88106 0.65991 0.57189 0.0
C895 C 0.89215 0.64181 0.53673 0.0
C896 C 0.8782 0.6579 0.62439 0.0
C897 C 0.88638 0.63773 0.64324 0.0
C898 C 0.89728 0.61952 0.60794 0.0
C899 C 0.90008 0.62151 0.55536 0.0
H900 H 0.18872 0.12786 0.53174 0.0
H901 H 0.11344 0.13783 0.53126 0.0
H902 H 0.18971 0.13449 0.44141 0.0
H903 H 0.11432 0.14361 0.44049 0.0
H904 H 0.1274 0.17692 0.2961 0.0
H905 H 0.12696 0.17144 0.38705 0.0
H906 H 0.17821 0.1154 0.35265 0.0
H907 H 0.17863 0.12084 0.26146 0.0
C908 C 0.17239 0.1316 0.51254 0.0
C909 C 0.151 0.13229 0.53901 0.0
C910 C 0.17291 0.1351 0.4604 0.0
C911 C 0.15209 0.13951 0.43333 0.0
C912 C 0.13075 0.14048 0.46006 0.0
C913 C 0.13021 0.13691 0.51208 0.0
C914 C 0.1384 0.16322 0.30764 0.0
C915 C 0.15298 0.14927 0.27106 0.0
C916 C 0.13817 0.1601 0.36 0.0
C917 C 0.15253 0.14295 0.37746 0.0
C918 C 0.16717 0.12903 0.34095 0.0
C919 C 0.16739 0.13214 0.28851 0.0
H920 H 0.61253 0.395 0.24147 0.0
H921 H 0.68763 0.3844 0.23368 0.0
H922 H 0.6114 0.40076 0.15058 0.0
H923 H 0.68656 0.39033 0.1428 0.0
H924 H 0.67302 0.37944 0.96488 0.0
H925 H 0.67345 0.37227 0.055 0.0
H926 H 0.62275 0.42839 0.09656 0.0
H927 H 0.62163 0.43485 1.00637 0.0
C928 C 0.62887 0.39419 0.2206 0.0
C929 C 0.65018 0.38928 0.24513 0.0
C930 C 0.62823 0.39747 0.16832 0.0
C931 C 0.64889 0.39601 0.13904 0.0
C932 C 0.67022 0.39118 0.16366 0.0
C933 C 0.67085 0.38784 0.21593 0.0
C934 C 0.66176 0.39004 0.9931 0.0
C935 C 0.64737 0.4078 0.97821 0.0
C936 C 0.66221 0.38613 0.04502 0.0
C937 C 0.64821 0.3998 0.08339 0.0
C938 C 0.63361 0.41733 0.0682 0.0
C939 C 0.63319 0.42125 1.01645 0.0
H940 H 0.35715 0.90532 0.03679 0.0
H941 H 0.42603 0.87524 1.00442 0.0
H942 H 0.35258 0.91005 0.94535 0.0
H943 H 0.42155 0.88007 0.91335 0.0
H944 H 0.39625 0.86883 0.74208 0.0
H945 H 0.40016 0.86427 0.83351 0.0
H946 H 0.36682 0.93241 0.88221 0.0
H947 H 0.36191 0.93646 0.79063 0.0
C948 C 0.37141 0.89991 1.01033 0.0
C949 C 0.3919 0.88976 0.02805 0.0
C950 C 0.3688 0.90263 0.95782 0.0
C951 C 0.38665 0.89535 0.92167 0.0
C952 C 0.40722 0.88544 0.93963 0.0
C953 C 0.4098 0.88268 0.99201 0.0
C954 C 0.38953 0.88275 0.77218 0.0
C955 C 0.37876 0.90303 0.75869 0.0
C956 C 0.39203 0.88027 0.8248 0.0
C957 C 0.38387 0.898 0.8655 0.0
C958 C 0.37311 0.91827 0.85202 0.0
C959 C 0.37058 0.92074 0.79939 0.0
H960 H 0.19234 0.71685 0.18692 0.0
H961 H 0.11721 0.70598 0.18858 0.0
H962 H 0.1864 0.75967 0.19353 0.0
H963 H 0.11123 0.74889 0.19483 0.0
H964 H 0.11536 0.81559 0.11164 0.0
H965 H 0.11795 0.77503 0.12812 0.0
H966 H 0.1711 0.79767 0.24918 0.0
H967 H 0.16835 0.8386 0.23285 0.0
C968 C 0.17457 0.7237 0.18969 0.0
C969 C 0.15524 0.70807 0.18684 0.0
C970 C 0.17117 0.74824 0.19376 0.0
C971 C 0.14834 0.75768 0.1944 0.0
C972 C 0.12903 0.74213 0.194 0.0
C973 C 0.13245 0.71759 0.19067 0.0
C974 C 0.12734 0.81203 0.14239 0.0
C975 C 0.14174 0.83028 0.17076 0.0
C976 C 0.1287 0.78879 0.15208 0.0
C977 C 0.14477 0.78309 0.18988 0.0
C978 C 0.15863 0.8015 0.21963 0.0
C979 C 0.15696 0.82494 0.21051 0.0
H980 H 0.5814 0.92255 0.49998 0.0
H981 H 0.57031 0.86464 0.36856 0.0
H982 H 0.53952 0.92051 0.5212 0.0
H983 H 0.52919 0.86299 0.38824 0.0
H984 H 0.45801 0.85343 0.43314 0.0
H985 H 0.50069 0.85309 0.44402 0.0
H986 H 0.50138 0.93001 0.4852 0.0
H987 H 0.45828 0.93 0.47719 0.0
C988 C 0.57017 0.90913 0.47632 0.0
C989 C 0.57916 0.89384 0.43246 0.0
C990 C 0.54614 0.90809 0.4881 0.0
C991 C 0.53079 0.89154 0.45658 0.0
C992 C 0.54029 0.87568 0.41425 0.0
C993 C 0.564 0.87679 0.40252 0.0
C994 C 0.46727 0.87018 0.44635 0.0
C995 C 0.45493 0.89171 0.45437 0.0
C996 C 0.49178 0.87006 0.452 0.0
C997 C 0.50471 0.89157 0.46403 0.0
C998 C 0.49213 0.91308 0.47604 0.0
C999 C 0.46742 0.91312 0.47151 0.0
H1000 H 0.40618 0.33938 0.67033 0.0
H1001 H 0.36205 0.31213 0.53434 0.0
H1002 H 0.40663 0.29924 0.69358 0.0
H1003 H 0.36228 0.27295 0.55743 0.0
H1004 H 0.34367 0.21307 0.62926 0.0
H1005 H 0.34541 0.25611 0.63447 0.0
H1006 H 0.4212 0.25423 0.64649 0.0
H1007 H 0.4193 0.21074 0.64216 0.0
C1008 C 0.39656 0.32495 0.64568 0.0
C1009 C 0.38399 0.32895 0.60065 0.0
C1010 C 0.39687 0.30202 0.65884 0.0
C1011 C 0.38421 0.28301 0.6277 0.0
C1012 C 0.37187 0.28724 0.58277 0.0
C1013 C 0.37185 0.30976 0.56938 0.0
C1014 C 0.36065 0.22198 0.6354 0.0
C1015 C 0.38131 0.20867 0.6358 0.0
C1016 C 0.36168 0.24661 0.63798 0.0
C1017 C 0.38345 0.25852 0.64011 0.0
C1018 C 0.40417 0.24556 0.64519 0.0
C1019 C 0.4031 0.22072 0.64295 0.0
H1020 H 0.96808 0.15524 0.83025 0.0
H1021 H 0.95663 0.13018 0.97473 0.0
H1022 H 1.01036 0.15799 0.85001 0.0
H1023 H 0.9994 0.13204 0.99376 0.0
H1024 H 0.0848 0.17329 0.91611 0.0
H1025 H 0.04216 0.17935 0.92266 0.0
H1026 H 0.0327 0.10565 0.9352 0.0
H1027 H 0.07517 0.09939 0.92698 0.0
C1028 C 0.97463 0.15086 0.86691 0.0
C1029 C 0.95916 0.14269 0.90119 0.0
C1030 C 0.99882 0.15247 0.87825 0.0
C1031 C 1.00818 0.14525 0.92341 0.0
C1032 C 0.99261 0.13782 0.95878 0.0
C1033 C 0.9682 0.13689 0.94812 0.0
C1034 C 0.07367 0.15856 0.92158 0.0
C1035 C 0.08325 0.13583 0.92079 0.0
C1036 C 0.04929 0.16202 0.92519 0.0
C1037 C 0.03413 0.14297 0.92951 0.0
C1038 C 0.04396 0.12069 0.93246 0.0
C1039 C 0.06823 0.11709 0.92755 0.0
H1040 H 0.18914 0.32417 0.85981 0.0
H1041 H 0.11372 0.33238 0.85412 0.0
H1042 H 0.18429 0.28091 0.84503 0.0
H1043 H 0.10882 0.28898 0.83944 0.0
H1044 H 0.169 0.20176 0.79817 0.0
H1045 H 0.16979 0.24332 0.785 0.0
H1046 H 0.1167 0.2612 0.90188 0.0
H1047 H 0.11609 0.2201 0.91511 0.0
C1048 C 0.17152 0.31667 0.85426 0.0
C1049 C 0.15181 0.33164 0.85866 0.0
C1050 C 0.16874 0.29187 0.84546 0.0
C1051 C 0.14616 0.28148 0.84142 0.0
C1052 C 0.12644 0.29645 0.84284 0.0
C1053 C 0.12924 0.32129 0.85102 0.0
C1054 C 0.15713 0.21451 0.81998 0.0
C1055 C 0.14258 0.20777 0.85784 0.0
C1056 C 0.15768 0.2383 0.81275 0.0
C1057 C 0.14334 0.25559 0.8425 0.0
C1058 C 0.12779 0.24836 0.87792 0.0
C1059 C 0.12755 0.22481 0.88577 0.0
H1060 H 0.08009 0.86408 0.11957 0.0
H1061 H 0.07008 0.9378 0.10777 0.0
H1062 H 0.03725 0.85796 0.11544 0.0
H1063 H 0.02739 0.93148 0.10191 0.0
H1064 H 0.95022 0.90686 0.06624 0.0
H1065 H 0.9923 0.90461 0.04501 0.0
H1066 H 1.00785 0.87987 0.18958 0.0
H1067 H 0.96628 0.88303 0.2115 0.0
C1068 C 0.06877 0.87875 0.11444 0.0
C1069 C 0.07835 0.90146 0.11424 0.0
C1070 C 0.04429 0.87526 0.11218 0.0
C1071 C 0.02902 0.89423 0.10822 0.0
C1072 C 0.03873 0.91648 0.10437 0.0
C1073 C 0.06313 0.92012 0.10795 0.0
C1074 C 0.96262 0.90032 0.09257 0.0
C1075 C 0.95512 0.89502 0.14036 0.0
C1076 C 0.98664 0.89917 0.08064 0.0
C1077 C 1.0033 0.89198 0.11562 0.0
C1078 C 0.99541 0.8852 0.16165 0.0
C1079 C 0.97164 0.88704 0.17423 0.0
H1080 H 0.36199 0.69662 0.33096 0.0
H1081 H 0.41926 0.715 0.44403 0.0
H1082 H 0.35935 0.73845 0.32117 0.0
H1083 H 0.41667 0.75654 0.4341 0.0
H1084 H 0.41647 0.82799 0.38024 0.0
H1085 H 0.4217 0.78479 0.37138 0.0
H1086 H 0.34663 0.77572 0.3816 0.0
H1087 H 0.34149 0.81873 0.39078 0.0
C1088 C 0.37427 0.70947 0.35301 0.0
C1089 C 0.39074 0.70246 0.3885 0.0
C1090 C 0.37267 0.73345 0.34765 0.0
C1091 C 0.38776 0.75088 0.37697 0.0
C1092 C 0.40492 0.74361 0.41057 0.0
C1093 C 0.40628 0.71977 0.41652 0.0
C1094 C 0.40109 0.81669 0.37973 0.0
C1095 C 0.37858 0.82674 0.38651 0.0
C1096 C 0.40408 0.79198 0.37495 0.0
C1097 C 0.38458 0.77677 0.37596 0.0
C1098 C 0.36199 0.78682 0.38018 0.0
C1099 C 0.35906 0.8115 0.38572 0.0
H1100 H 0.57911 0.11771 0.53881 0.0
H1101 H 0.57069 0.17673 0.66753 0.0
H1102 H 0.53674 0.11903 0.51729 0.0
H1103 H 0.52915 0.17752 0.64806 0.0
H1104 H 0.45622 0.18485 0.60454 0.0
H1105 H 0.49867 0.18623 0.59488 0.0
H1106 H 0.49963 0.10939 0.55074 0.0
H1107 H 0.4567 0.10844 0.55702 0.0
C1108 C 0.56836 0.1312 0.56181 0.0
C1109 C 0.57829 0.14702 0.60502 0.0
C1110 C 0.54402 0.13182 0.54994 0.0
C1111 C 0.52924 0.14839 0.58083 0.0
C1112 C 0.53968 0.16478 0.62242 0.0
C1113 C 0.56369 0.16415 0.63409 0.0
C1114 C 0.46547 0.16836 0.59117 0.0
C1115 C 0.45324 0.14657 0.58157 0.0
C1116 C 0.4899 0.16905 0.58622 0.0
C1117 C 0.50292 0.14785 0.57353 0.0
C1118 C 0.49038 0.12612 0.56041 0.0
C1119 C 0.46574 0.12552 0.56404 0.0
H1120 H 0.92333 0.22168 0.92717 0.0
H1121 H 0.86679 0.2015 0.81299 0.0
H1122 H 0.91948 0.26308 0.91719 0.0
H1123 H 0.86291 0.24318 0.80299 0.0
H1124 H 0.84173 0.32226 0.87662 0.0
H1125 H 0.84862 0.2794 0.86399 0.0
H1126 H 0.92329 0.2919 0.85611 0.0
H1127 H 0.91634 0.33489 0.86865 0.0
C1128 C 0.91031 0.22603 0.89926 0.0
C1129 C 0.89527 0.2083 0.87113 0.0
C1130 C 0.90821 0.24978 0.89327 0.0
C1131 C 0.89082 0.25648 0.85946 0.0
C1132 C 0.87638 0.2386 0.82964 0.0
C1133 C 0.87871 0.21472 0.8351 0.0
C1134 C 0.85958 0.31581 0.87125 0.0
C1135 C 0.8785 0.33191 0.87406 0.0
C1136 C 0.86352 0.29124 0.8637 0.0
C1137 C 0.88652 0.28222 0.85933 0.0
C1138 C 0.90539 0.29831 0.85982 0.0
C1139 C 0.9014 0.3229 0.86675 0.0
H1140 H 0.69001 0.82489 0.35196 0.0
H1141 H 0.61496 0.83607 0.35141 0.0
H1142 H 0.68354 0.78195 0.34181 0.0
H1143 H 0.60844 0.79299 0.34164 0.0
H1144 H 0.66437 0.70326 0.29959 0.0
H1145 H 0.66663 0.74443 0.28453 0.0
H1146 H 0.61664 0.76601 0.40673 0.0
H1147 H 0.61456 0.72525 0.42199 0.0
C1148 C 0.67211 0.81809 0.34856 0.0
C1149 C 0.653 0.83382 0.35287 0.0
C1150 C 0.6684 0.79347 0.34247 0.0
C1151 C 0.64548 0.78405 0.34126 0.0
C1152 C 0.62631 0.79973 0.34285 0.0
C1153 C 0.63003 0.82437 0.34817 0.0
C1154 C 0.65354 0.71675 0.32244 0.0
C1155 C 0.63944 0.71106 0.36224 0.0
C1156 C 0.65492 0.74031 0.31402 0.0
C1157 C 0.64184 0.7585 0.34451 0.0
C1158 C 0.62676 0.75244 0.38221 0.0
C1159 C 0.62571 0.72907 0.39121 0.0
H1160 H 0.8437 0.71635 0.18536 0.0
H1161 H 0.91891 0.70674 0.19284 0.0
H1162 H 0.84945 0.75934 0.19443 0.0
H1163 H 0.92472 0.74988 0.20158 0.0
H1164 H 0.91931 0.81755 0.12103 0.0
H1165 H 0.91741 0.7767 0.13585 0.0
H1166 H 0.86477 0.7971 0.2527 0.0
H1167 H 0.86676 0.83827 0.23802 0.0
C1168 C 0.86146 0.72352 0.18996 0.0
C1169 C 0.88085 0.70821 0.18801 0.0
C1170 C 0.86476 0.74816 0.19544 0.0
C1171 C 0.88754 0.75802 0.19842 0.0
C1172 C 0.90695 0.74278 0.19896 0.0
C1173 C 0.90363 0.71812 0.19423 0.0
C1174 C 0.90758 0.81345 0.1505 0.0
C1175 C 0.89305 0.83113 0.17806 0.0
C1176 C 0.90663 0.79004 0.15927 0.0
C1177 C 0.89089 0.78362 0.19533 0.0
C1178 C 0.87699 0.80148 0.22444 0.0
C1179 C 0.87821 0.82507 0.21623 0.0
H1180 H 0.69005 0.21772 0.68666 0.0
H1181 H 0.61498 0.20559 0.67524 0.0
H1182 H 0.68384 0.26037 0.69103 0.0
H1183 H 0.60873 0.24835 0.67884 0.0
H1184 H 0.61728 0.31415 0.59215 0.0
H1185 H 0.61893 0.27385 0.61074 0.0
H1186 H 0.66569 0.29835 0.74374 0.0
H1187 H 0.66379 0.339 0.7255 0.0
C1188 C 0.6722 0.22429 0.68619 0.0
C1189 C 0.65302 0.20836 0.68039 0.0
C1190 C 0.66864 0.24872 0.6889 0.0
C1191 C 0.64581 0.25771 0.68499 0.0
C1192 C 0.62653 0.2419 0.68166 0.0
C1193 C 0.63009 0.21747 0.67989 0.0
C1194 C 0.62764 0.31105 0.62587 0.0
C1195 C 0.64052 0.32974 0.65717 0.0
C1196 C 0.62844 0.28797 0.63674 0.0
C1197 C 0.64246 0.2829 0.67867 0.0
C1198 C 0.65479 0.30173 0.71106 0.0
C1199 C 0.65362 0.32499 0.70076 0.0
H1200 H 0.95757 0.43192 0.98466 0.0
H1201 H 0.95291 0.35539 0.94302 0.0
H1202 H 1.00028 0.42936 0.99672 0.0
H1203 H 0.99525 0.35249 0.95799 0.0
H1204 H 0.06637 0.36082 0.88311 0.0
H1205 H 0.02512 0.36044 0.90289 0.0
H1206 H 0.03688 0.41801 0.03523 0.0
H1207 H 0.07878 0.41871 1.01399 0.0
C1208 C 0.96562 0.41452 0.98059 0.0
C1209 C 0.95212 0.39385 0.96287 0.0
C1210 C 0.9901 0.413 0.98748 0.0
C1211 C 1.00139 0.39072 0.97715 0.0
C1212 C 0.98732 0.36998 0.96484 0.0
C1213 C 0.96302 0.37157 0.95688 0.0
C1214 C 0.06032 0.37316 0.91705 0.0
C1215 C 0.07582 0.38991 0.94672 0.0
C1216 C 0.03656 0.3728 0.92883 0.0
C1217 C 0.02746 0.38919 0.97081 0.0
C1218 C 0.04322 0.40524 1.00236 0.0
C1219 C 0.06724 0.40551 0.99057 0.0
H1220 H 0.46208 0.65331 0.34107 0.0
H1221 H 0.45389 0.62616 0.48423 0.0
H1222 H 0.50435 0.65817 0.35939 0.0
H1223 H 0.49667 0.63017 0.50178 0.0
H1224 H 0.572 0.60043 0.42637 0.0
H1225 H 0.52964 0.60537 0.43875 0.0
H1226 H 0.53632 0.68003 0.43205 0.0
H1227 H 0.57895 0.67526 0.42134 0.0
C1228 C 0.46934 0.64893 0.37715 0.0
C1229 C 0.45485 0.63948 0.4114 0.0
C1230 C 0.49348 0.65178 0.38771 0.0
C1231 C 0.50374 0.64457 0.432 0.0
C1232 C 0.48912 0.63598 0.46752 0.0
C1233 C 0.46473 0.6338 0.45768 0.0
C1234 C 0.5645 0.61803 0.42909 0.0
C1235 C 0.57865 0.63743 0.42265 0.0
C1236 C 0.54031 0.62088 0.43647 0.0
C1237 C 0.52975 0.64308 0.43635 0.0
C1238 C 0.54409 0.66277 0.43248 0.0
C1239 C 0.56843 0.66003 0.42642 0.0
H1240 H 0.45627 0.41573 0.51023 0.0
H1241 H 0.46572 0.35684 0.59146 0.0
H1242 H 0.49904 0.41824 0.50117 0.0
H1243 H 0.5081 0.35927 0.58275 0.0
H1244 H 0.58461 0.3643 0.55611 0.0
H1245 H 0.54326 0.35675 0.52891 0.0
H1246 H 0.52931 0.43216 0.57024 0.0
H1247 H 0.57046 0.4396 0.59687 0.0
C1248 C 0.46741 0.40277 0.52434 0.0
C1249 C 0.45774 0.38616 0.55171 0.0
C1250 C 0.4919 0.40435 0.5197 0.0
C1251 C 0.50705 0.38912 0.54176 0.0
C1252 C 0.49706 0.37117 0.56493 0.0
C1253 C 0.47273 0.36981 0.57012 0.0
C1254 C 0.57277 0.37927 0.55826 0.0
C1255 C 0.58064 0.4025 0.57931 0.0
C1256 C 0.54909 0.37496 0.54284 0.0
C1257 C 0.53289 0.39383 0.54772 0.0
C1258 C 0.54126 0.41722 0.56539 0.0
C1259 C 0.56484 0.42148 0.58113 0.0
H1260 H 0.07884 0.68426 0.12304 0.0
H1261 H 0.0756 0.60763 0.08279 0.0
H1262 H 0.03656 0.68632 0.10668 0.0
H1263 H 0.03288 0.60933 0.06988 0.0
H1264 H 0.95414 0.61823 0.05015 0.0
H1265 H 0.99627 0.61913 0.03092 0.0
H1266 H 1.00608 0.67896 0.15916 0.0
H1267 H 0.96468 0.6785 0.17652 0.0
C1268 C 0.06904 0.66786 0.10947 0.0
C1269 C 0.08036 0.64581 0.10411 0.0
C1270 C 0.04474 0.66896 0.10073 0.0
C1271 C 0.03101 0.64796 0.08847 0.0
C1272 C 0.04273 0.6259 0.07907 0.0
C1273 C 0.06724 0.62487 0.08652 0.0
C1274 C 0.96532 0.63194 0.07302 0.0
C1275 C 0.95611 0.64819 0.11504 0.0
C1276 C 0.98949 0.63232 0.06245 0.0
C1277 C 1.0048 0.64909 0.09346 0.0
C1278 C 0.99507 0.66603 0.13356 0.0
C1279 C 0.97118 0.66561 0.14402 0.0
H1280 H 0.17503 0.56791 0.13732 0.0
H1281 H 0.10032 0.57517 0.11391 0.0
H1282 H 0.17426 0.53036 0.07474 0.0
H1283 H 0.09954 0.53908 0.04761 0.0
H1284 H 0.09812 0.46358 0.95947 0.0
H1285 H 0.09953 0.49948 0.02661 0.0
H1286 H 0.17264 0.5099 0.9923 0.0
H1287 H 0.17141 0.47263 0.92894 0.0
C1288 C 0.15847 0.56153 0.11811 0.0
C1289 C 0.13771 0.57429 0.13074 0.0
C1290 C 0.15798 0.54004 0.08157 0.0
C1291 C 0.1368 0.53115 0.05527 0.0
C1292 C 0.11614 0.54451 0.06755 0.0
C1293 C 0.11655 0.5655 0.10537 0.0
C1294 C 0.11446 0.47362 0.96663 0.0
C1295 C 0.13461 0.46545 0.93896 0.0
C1296 C 0.11531 0.49447 1.00493 0.0
C1297 C 0.13616 0.50825 1.01538 0.0
C1298 C 0.15631 0.49989 0.98693 0.0
C1299 C 0.15562 0.47856 0.94994 0.0
H1300 H 0.73735 0.92138 0.36819 0.0
H1301 H 0.70146 0.88637 0.22554 0.0
H1302 H 0.77467 0.91834 0.32135 0.0
H1303 H 0.73825 0.88341 0.17967 0.0
H1304 H 0.83007 0.92998 0.19398 0.0
H1305 H 0.79448 0.93391 0.24653 0.0
H1306 H 0.77543 0.86109 0.18027 0.0
H1307 H 0.811 0.85714 0.12849 0.0
C1308 C 0.73735 0.91311 0.32705 0.0
C1309 C 0.71629 0.90412 0.30089 0.0
C1310 C 0.75871 0.91144 0.30016 0.0
C1311 C 0.75951 0.90044 0.24679 0.0
C1312 C 0.73842 0.89164 0.22087 0.0
C1313 C 0.7172 0.89352 0.24735 0.0
C1314 C 0.81836 0.91476 0.19111 0.0
C1315 C 0.8234 0.89321 0.15723 0.0
C1316 C 0.79802 0.917 0.22134 0.0
C1317 C 0.78204 0.89784 0.21762 0.0
C1318 C 0.78721 0.87629 0.18377 0.0
C1319 C 0.80762 0.874 0.15409 0.0
H1320 H 0.3595 0.4597 0.58713 0.0
H1321 H 0.43515 0.46616 0.58728 0.0
H1322 H 0.35581 0.49366 0.542 0.0
H1323 H 0.43141 0.49982 0.54054 0.0
H1324 H 0.40826 0.54479 0.40868 0.0
H1325 H 0.41165 0.50805 0.44548 0.0
H1326 H 0.36952 0.53973 0.57597 0.0
H1327 H 0.36679 0.57641 0.54051 0.0
C1328 C 0.37535 0.46826 0.57709 0.0
C1329 C 0.39762 0.4604 0.59113 0.0
C1330 C 0.37322 0.48767 0.55122 0.0
C1331 C 0.39331 0.49934 0.53761 0.0
C1332 C 0.41563 0.49105 0.55021 0.0
C1333 C 0.41776 0.47193 0.57725 0.0
C1334 C 0.39953 0.54374 0.44486 0.0
C1335 C 0.38721 0.56347 0.4716 0.0
C1336 C 0.40162 0.52282 0.4661 0.0
C1337 C 0.39085 0.52106 0.51362 0.0
C1338 C 0.37792 0.54052 0.53924 0.0
C1339 C 0.37637 0.56153 0.51888 0.0
H1340 H 0.81623 0.18268 0.91958 0.0
H1341 H 0.83242 0.11002 0.85055 0.0
H1342 H 0.7796 0.17985 0.86738 0.0
H1343 H 0.79573 0.10713 0.79796 0.0
H1344 H 0.73684 0.12016 0.67703 0.0
H1345 H 0.77494 0.12261 0.72473 0.0
H1346 H 0.74184 0.15916 0.8649 0.0
H1347 H 0.70426 0.1569 0.81792 0.0
C1348 C 0.81195 0.16609 0.8932 0.0
C1349 C 0.82725 0.14661 0.88915 0.0
C1350 C 0.79092 0.16442 0.8633 0.0
C1351 C 0.78461 0.14322 0.82842 0.0
C1352 C 0.8001 0.1238 0.82392 0.0
C1353 C 0.82108 0.12542 0.85422 0.0
C1354 C 0.73774 0.1287 0.71801 0.0
C1355 C 0.71738 0.13834 0.74339 0.0
C1356 C 0.75955 0.13003 0.74544 0.0
C1357 C 0.76154 0.14126 0.79866 0.0
C1358 C 0.74114 0.15074 0.82382 0.0
C1359 C 0.71945 0.14927 0.79674 0.0
H1360 H 0.85902 0.56692 0.13856 0.0
H1361 H 0.9326 0.57616 0.11114 0.0
H1362 H 0.85836 0.52952 0.07557 0.0
H1363 H 0.9318 0.54014 0.04438 0.0
H1364 H 0.93164 0.4647 0.95577 0.0
H1365 H 0.93192 0.50057 0.02274 0.0
H1366 H 0.85737 0.50915 0.99311 0.0
H1367 H 0.85708 0.47182 0.92984 0.0
C1368 C 0.87502 0.56097 0.11841 0.0
C1369 C 0.89591 0.57421 0.13013 0.0
C1370 C 0.87466 0.53958 0.0816 0.0
C1371 C 0.89504 0.53127 0.05401 0.0
C1372 C 0.91582 0.54512 0.06534 0.0
C1373 C 0.91633 0.56603 0.10348 0.0
C1374 C 0.91534 0.47429 0.96391 0.0
C1375 C 0.89436 0.46554 0.93759 0.0
C1376 C 0.91545 0.49516 1.00213 0.0
C1377 C 0.8947 0.50842 1.0139 0.0
C1378 C 0.87371 0.49954 0.98672 0.0
C1379 C 0.8735 0.47818 0.94977 0.0
H1380 H 0.21707 0.18342 0.86183 0.0
H1381 H 0.21374 0.1071 0.84983 0.0
H1382 H 0.25033 0.17894 0.80212 0.0
H1383 H 0.24746 0.10271 0.7915 0.0
H1384 H 0.32901 0.11703 0.76332 0.0
H1385 H 0.29239 0.11871 0.81134 0.0
H1386 H 0.25934 0.1568 0.7004 0.0
H1387 H 0.29601 0.1544 0.65092 0.0
C1388 C 0.22346 0.1657 0.84644 0.0
C1389 C 0.21292 0.14562 0.86081 0.0
C1390 C 0.24236 0.16314 0.81197 0.0
C1391 C 0.25148 0.14047 0.7921 0.0
C1392 C 0.24081 0.12038 0.80621 0.0
C1393 C 0.22155 0.1229 0.83961 0.0
C1394 C 0.31382 0.12542 0.74858 0.0
C1395 C 0.31538 0.13549 0.70315 0.0
C1396 C 0.29285 0.12634 0.77609 0.0
C1397 C 0.27302 0.13793 0.75975 0.0
C1398 C 0.27439 0.14778 0.71393 0.0
C1399 C 0.29528 0.14627 0.68543 0.0
H1400 H 0.66142 0.59176 0.54028 0.0
H1401 H 0.6432 0.55235 0.38562 0.0
H1402 H 0.66341 0.55482 0.57393 0.0
H1403 H 0.64379 0.51533 0.41969 0.0
H1404 H 0.66475 0.44977 0.48333 0.0
H1405 H 0.66614 0.48681 0.44998 0.0
H1406 H 0.64149 0.52493 0.59868 0.0
H1407 H 0.64148 0.48794 0.63275 0.0
C1408 C 0.65768 0.57515 0.51346 0.0
C1409 C 0.65218 0.57501 0.46018 0.0
C1410 C 0.65861 0.55388 0.53291 0.0
C1411 C 0.65361 0.53183 0.49989 0.0
C1412 C 0.64819 0.53177 0.44641 0.0
C1413 C 0.64771 0.55305 0.42674 0.0
C1414 C 0.65979 0.46611 0.50903 0.0
C1415 C 0.65306 0.46589 0.5608 0.0
C1416 C 0.66037 0.48742 0.4897 0.0
C1417 C 0.65379 0.50912 0.52124 0.0
C1418 C 0.64714 0.50882 0.57324 0.0
C1419 C 0.647 0.48753 0.59287 0.0
H1420 H 0.31352 0.93587 0.32832 0.0
H1421 H 0.31236 0.85925 0.30571 0.0
H1422 H 0.27777 0.93501 0.2736 0.0
H1423 H 0.27568 0.85805 0.25496 0.0
H1424 H 0.22437 0.85795 0.12096 0.0
H1425 H 0.2597 0.86055 0.17616 0.0
H1426 H 0.23847 0.9302 0.25735 0.0
H1427 H 0.20435 0.92831 0.19785 0.0
C1428 C 0.30515 0.91887 0.31272 0.0
C1429 C 0.31557 0.89764 0.32123 0.0
C1430 C 0.28453 0.91828 0.28133 0.0
C1431 C 0.27356 0.8964 0.25864 0.0
C1432 C 0.28371 0.87527 0.26968 0.0
C1433 C 0.30462 0.87588 0.29963 0.0
C1434 C 0.22736 0.87388 0.15041 0.0
C1435 C 0.21128 0.89272 0.15564 0.0
C1436 C 0.24758 0.8753 0.18291 0.0
C1437 C 0.25211 0.8954 0.22275 0.0
C1438 C 0.23601 0.91442 0.22732 0.0
C1439 C 0.2161 0.91323 0.19366 0.0
H1440 H 0.67701 0.96524 0.4441 0.0
H1441 H 0.60398 0.9774 0.40915 0.0
H1442 H 0.67743 1.00058 0.51369 0.0
H1443 H 0.60452 1.01328 0.47695 0.0
H1444 H 0.60507 0.06292 0.63589 0.0
H1445 H 0.60541 0.02673 0.56879 0.0
H1446 H 0.67679 0.04268 0.53208 0.0
H1447 H 0.67662 0.07828 0.60076 0.0
C1448 C 0.66107 0.97558 0.45111 0.0
C1449 C 0.64041 0.96838 0.42145 0.0
C1450 C 0.66133 0.996 0.4908 0.0
C1451 C 0.64097 1.00993 0.50154 0.0
C1452 C 0.62044 1.00287 0.47089 0.0
C1453 C 0.62016 0.98238 0.4315 0.0
C1454 C 0.62088 0.05856 0.61372 0.0
C1455 C 0.64077 0.07353 0.62349 0.0
C1456 C 0.62103 0.03789 0.57477 0.0
C1457 C 0.64107 0.03167 0.5443 0.0
C1458 C 0.6611 0.04657 0.55486 0.0
C1459 C 0.66097 0.06713 0.59409 0.0
H1460 H 0.23279 0.40156 0.88325 0.0
H1461 H 0.19604 0.41434 0.7435 0.0
H1462 H 0.27002 0.40081 0.83859 0.0
H1463 H 0.23326 0.41513 0.69962 0.0
H1464 H 0.30065 0.39072 0.61503 0.0
H1465 H 0.26325 0.39219 0.65959 0.0
H1466 H 0.29889 0.42195 0.80679 0.0
H1467 H 0.33621 0.41897 0.76263 0.0
C1468 C 0.23274 0.40468 0.84326 0.0
C1469 C 0.21149 0.40796 0.81693 0.0
C1470 C 0.25416 0.40438 0.81753 0.0
C1471 C 0.25492 0.40788 0.76507 0.0
C1472 C 0.23356 0.41179 0.7394 0.0
C1473 C 0.21214 0.41158 0.76478 0.0
C1474 C 0.30039 0.3976 0.65688 0.0
C1475 C 0.32139 0.40458 0.6853 0.0
C1476 C 0.2789 0.39862 0.68258 0.0
C1477 C 0.27779 0.40715 0.73721 0.0
C1478 C 0.29888 0.41469 0.76513 0.0
C1479 C 0.32036 0.41318 0.73965 0.0
H1480 H 0.87322 0.94836 0.99839 0.0
H1481 H 0.89515 0.98945 0.14913 0.0
H1482 H 0.87316 0.9841 0.9606 0.0
H1483 H 0.89605 0.0254 0.11064 0.0
H1484 H 0.87461 0.08931 0.04084 0.0
H1485 H 0.87315 0.05345 0.07795 0.0
H1486 H 0.89674 1.01236 0.93134 0.0
H1487 H 0.89725 0.04854 0.89338 0.0
C1488 C 0.87818 0.96506 0.02358 0.0
C1489 C 0.8842 0.96596 0.07702 0.0
C1490 C 0.87834 0.98564 1.00159 0.0
C1491 C 0.88476 1.00783 0.03213 0.0
C1492 C 0.89065 1.00877 0.0858 0.0
C1493 C 0.89022 0.98813 0.10804 0.0
C1494 C 0.87947 0.07264 1.01629 0.0
C1495 C 0.88616 0.07188 0.96404 0.0
C1496 C 0.8788 0.05198 0.03789 0.0
C1497 C 0.88508 0.02983 1.00818 0.0
C1498 C 0.89149 0.02898 0.95549 0.0
C1499 C 0.89187 0.04974 0.93358 0.0
H1500 H 0.20206 0.65306 0.32838 0.0
H1501 H 0.23612 0.61778 0.18806 0.0
H1502 H 0.23883 0.65356 0.37795 0.0
H1503 H 0.27339 0.61852 0.23832 0.0
H1504 H 0.31306 0.67509 0.43836 0.0
H1505 H 0.27695 0.67358 0.3848 0.0
H1506 H 0.29262 0.60137 0.31057 0.0
H1507 H 0.32884 0.60295 0.3645 0.0
C1508 C 0.2174 0.6454 0.30788 0.0
C1509 C 0.21602 0.63542 0.25392 0.0
C1510 C 0.23862 0.64584 0.33647 0.0
C1511 C 0.25918 0.63627 0.31218 0.0
C1512 C 0.25784 0.62595 0.25836 0.0
C1513 C 0.23651 0.62562 0.22948 0.0
C1514 C 0.30876 0.65888 0.41071 0.0
C1515 C 0.32381 0.63917 0.40555 0.0
C1516 C 0.28804 0.65797 0.38002 0.0
C1517 C 0.28179 0.63732 0.34333 0.0
C1518 C 0.29698 0.61763 0.33796 0.0
C1519 C 0.31767 0.6185 0.369 0.0
H1520 H 0.35785 0.95845 0.45043 0.0
H1521 H 0.42913 0.97081 0.40818 0.0
H1522 H 0.35811 0.99696 0.51018 0.0
H1523 H 0.42936 1.00959 0.46725 0.0
H1524 H 0.42987 0.06584 0.61995 0.0
H1525 H 0.42968 0.02731 0.55998 0.0
H1526 H 0.35821 0.03942 0.51128 0.0
H1527 H 0.35834 0.07766 0.57205 0.0
C1528 C 0.37354 0.9695 0.45366 0.0
C1529 C 0.39346 0.9616 0.42451 0.0
C1530 C 0.37367 0.99167 0.48776 0.0
C1531 C 0.39376 1.00653 0.49372 0.0
C1532 C 0.41367 0.99858 0.46428 0.0
C1533 C 0.4135 0.97641 0.43006 0.0
C1534 C 0.41411 0.0602 0.59651 0.0
C1535 C 0.39413 0.07479 0.60072 0.0
C1536 C 0.41405 0.03818 0.56178 0.0
C1537 C 0.39393 0.03013 0.53054 0.0
C1538 C 0.37392 0.0448 0.53505 0.0
C1539 C 0.37403 0.06683 0.56967 0.0
H1540 H 0.8325 0.65577 0.31863 0.0
H1541 H 0.79868 0.61895 0.17495 0.0
H1542 H 0.79506 0.65875 0.36191 0.0
H1543 H 0.76073 0.62207 0.21907 0.0
H1544 H 0.70362 0.61165 0.34318 0.0
H1545 H 0.73994 0.60737 0.29325 0.0
H1546 H 0.75798 0.68075 0.35669 0.0
H1547 H 0.72174 0.68503 0.40606 0.0
C1548 C 0.81708 0.64823 0.29609 0.0
C1549 C 0.81871 0.63715 0.24302 0.0
C1550 C 0.79551 0.65012 0.32102 0.0
C1551 C 0.77484 0.64089 0.29389 0.0
C1552 C 0.77638 0.62932 0.2411 0.0
C1553 C 0.79809 0.6276 0.21579 0.0
C1554 C 0.71525 0.62691 0.34595 0.0
C1555 C 0.70985 0.64868 0.37853 0.0
C1556 C 0.73601 0.62447 0.31726 0.0
C1557 C 0.75192 0.64368 0.32114 0.0
C1558 C 0.74627 0.66551 0.3533 0.0
C1559 C 0.72548 0.66799 0.38155 0.0
H1560 H 0.14482 0.0898 0.03858 0.0
H1561 H 0.16472 0.04965 0.88804 0.0
H1562 H 0.14491 0.05362 0.07494 0.0
H1563 H 0.16554 1.01328 0.92512 0.0
H1564 H 0.13857 0.94958 0.99104 0.0
H1565 H 0.14036 0.98574 0.95485 0.0
H1566 H 0.16854 0.02405 0.10318 0.0
H1567 H 0.16604 0.98772 0.14013 0.0
C1568 C 0.14943 0.07326 1.01316 0.0
C1569 C 0.15469 0.07274 0.9601 0.0
C1570 C 0.14966 0.05242 0.03433 0.0
C1571 C 0.15528 0.03035 1.00326 0.0
C1572 C 0.16079 0.02984 0.95023 0.0
C1573 C 0.16044 0.05075 0.9289 0.0
C1574 C 0.1452 0.96566 1.01617 0.0
C1575 C 0.15211 0.96563 0.06875 0.0
C1576 C 0.1464 0.98647 0.99509 0.0
C1577 C 0.15468 1.00798 0.02577 0.0
C1578 C 0.16175 1.00795 0.07838 0.0
C1579 C 0.16043 0.98707 0.09963 0.0
H1580 H 0.70396 0.429 0.69036 0.0
H1581 H 0.72145 0.35568 0.63019 0.0
H1582 H 0.7394 0.43306 0.74748 0.0
H1583 H 0.75678 0.35974 0.6866 0.0
H1584 H 0.79613 0.42069 0.87617 0.0
H1585 H 0.75879 0.41787 0.82534 0.0
H1586 H 0.79435 0.38191 0.68806 0.0
H1587 H 0.83118 0.3846 0.7379 0.0
C1588 C 0.71523 0.4137 0.68976 0.0
C1589 C 0.70994 0.39202 0.65577 0.0
C1590 C 0.73549 0.41602 0.72251 0.0
C1591 C 0.751 0.39677 0.72139 0.0
C1592 C 0.74539 0.37501 0.68794 0.0
C1593 C 0.72512 0.37266 0.65565 0.0
C1594 C 0.79594 0.41225 0.83512 0.0
C1595 C 0.81672 0.4028 0.81138 0.0
C1596 C 0.77458 0.41071 0.80598 0.0
C1597 C 0.77355 0.39944 0.75275 0.0
C1598 C 0.7944 0.39033 0.72913 0.0
C1599 C 0.81562 0.39203 0.75787 0.0
loop_
_geom_bond_atom_site_label_1
_geom_bond_atom_site_label_2
_geom_bond_distance
_geom_bond_site_symmetry_2
_ccdc_geom_bond_type
Ho0 C3 2.811 1_554 S
Ho0 O20 2.322 . S
Ho0 O22 2.378 . S
Ho0 O23 2.524 . S
Ho0 O24 2.381 . S
Ho0 O25 2.669 . S
Ho0 O27 2.346 . S
Ho0 O31 2.305 . S
Ho1 C12 2.811 . S
Ho1 O21 2.346 . S
Ho1 O25 2.305 . S
Ho1 O26 2.322 . S
Ho1 O28 2.378 . S
Ho1 O29 2.524 . S
Ho1 O30 2.381 . S
Ho1 O31 2.669 . S
C2 O20 1.259 . S
C2 O21 1.268 . S
C3 Ho0 2.811 1_556 S
C3 C4 1.488 . S
C3 O22 1.215 1_556 S
C3 O23 1.289 1_556 S
C4 C3 1.488 . S
C4 C5 1.348 . S
C4 C9 1.413 . S
C5 C4 1.348 . S
C5 C6 1.442 . S
C5 H32 0.930 . S
C6 C5 1.442 . S
C6 C7 1.381 . S
C6 H33 0.931 . S
C7 C6 1.381 . S
C7 C8 1.321 . S
C8 C7 1.321 . S
C8 C9 1.403 . S
C8 H34 0.934 . S
C9 C4 1.413 . S
C9 C8 1.403 . S
C9 H35 0.930 . S
C10 O24 1.275 . S
C10 O25 1.256 . S
C11 O26 1.259 . S
C11 O27 1.268 . S
C12 Ho1 2.811 . S
C12 C13 1.488 . S
C12 O28 1.215 . S
C12 O29 1.289 . S
C13 C12 1.488 . S
C13 C14 1.348 . S
C13 C18 1.413 . S
C14 C13 1.348 . S
C14 C15 1.442 . S
C14 H36 0.930 . S
C15 C14 1.442 . S
C15 C16 1.381 . S
C15 H37 0.931 . S
C16 C15 1.381 . S
C16 C17 1.321 . S
C17 C16 1.321 . S
C17 C18 1.403 . S
C17 H38 0.934 . S
C18 C13 1.413 . S
C18 C17 1.403 . S
C18 H39 0.930 . S
C19 O30 1.275 . S
C19 O31 1.256 . S
O20 Ho0 2.322 . S
O20 C2 1.259 . S
O21 Ho1 2.346 . S
O21 C2 1.268 . S
O22 Ho0 2.378 . S
O22 C3 1.215 1_554 S
O23 Ho0 2.524 . S
O23 C3 1.289 1_554 S
O24 Ho0 2.381 . S
O24 C10 1.275 . S
O25 Ho0 2.669 . S
O25 Ho1 2.305 . S
O25 C10 1.256 . S
O26 Ho1 2.322 . S
O26 C11 1.259 . S
O27 Ho0 2.346 . S
O27 C11 1.268 . S
O28 Ho1 2.378 . S
O28 C12 1.215 . S
O29 Ho1 2.524 . S
O29 C12 1.289 . S
O30 Ho1 2.381 . S
O30 C19 1.275 . S
O31 Ho0 2.305 . S
O31 Ho1 2.669 . S
O31 C19 1.256 . S
H32 C5 0.930 . S
H33 C6 0.931 . S
H34 C8 0.934 . S
H35 C9 0.930 . S
H36 C14 0.930 . S
H37 C15 0.931 . S
H38 C17 0.934 . S
H39 C18 0.930 . S
Ho40 C43 2.811 . S
Ho40 O60 2.322 . S
Ho40 O62 2.378 . S
Ho40 O63 2.524 . S
Ho40 O64 2.381 . S
Ho40 O65 2.669 . S
Ho40 O67 2.346 . S
Ho40 O71 2.305 . S
Ho41 C52 2.811 . S
Ho41 O61 2.346 . S
Ho41 O65 2.305 . S
Ho41 O66 2.322 . S
Ho41 O68 2.378 . S
Ho41 O69 2.524 . S
Ho41 O70 2.381 . S
Ho41 O71 2.669 . S
C42 O60 1.259 . S
C42 O61 1.268 . S
C43 Ho40 2.811 . S
C43 C44 1.488 . S
C43 O62 1.215 . S
C43 O63 1.289 . S
C44 C43 1.488 . S
C44 C45 1.348 . S
C44 C49 1.413 . S
C45 C44 1.348 . S
C45 C46 1.442 . S
C45 H72 0.930 . S
C46 C45 1.442 . S
C46 C47 1.381 . S
C46 H73 0.931 . S
C47 C46 1.381 . S
C47 C48 1.321 . S
C48 C47 1.321 . S
C48 C49 1.403 . S
C48 H74 0.934 . S
C49 C44 1.413 . S
C49 C48 1.403 . S
C49 H75 0.930 . S
C50 O64 1.275 . S
C50 O65 1.256 . S
C51 O66 1.259 . S
C51 O67 1.268 . S
C52 Ho41 2.811 . S
C52 C53 1.488 . S
C52 O68 1.215 . S
C52 O69 1.289 . S
C53 C52 1.488 . S
C53 C54 1.348 . S
C53 C58 1.413 . S
C54 C53 1.348 . S
C54 C55 1.442 . S
C54 H76 0.930 . S
C55 C54 1.442 . S
C55 C56 1.381 . S
C55 H77 0.931 . S
C56 C55 1.381 . S
C56 C57 1.321 . S
C57 C56 1.321 . S
C57 C58 1.403 . S
C57 H78 0.934 . S
C58 C53 1.413 . S
C58 C57 1.403 . S
C58 H79 0.930 . S
C59 O70 1.275 . S
C59 O71 1.256 . S
O60 Ho40 2.322 . S
O60 C42 1.259 . S
O61 Ho41 2.346 . S
O61 C42 1.268 . S
O62 Ho40 2.378 . S
O62 C43 1.215 . S
O63 Ho40 2.524 . S
O63 C43 1.289 . S
O64 Ho40 2.381 . S
O64 C50 1.275 . S
O65 Ho40 2.669 . S
O65 Ho41 2.305 . S
O65 C50 1.256 . S
O66 Ho41 2.322 . S
O66 C51 1.259 . S
O67 Ho40 2.346 . S
O67 C51 1.268 . S
O68 Ho41 2.378 . S
O68 C52 1.215 . S
O69 Ho41 2.524 . S
O69 C52 1.289 . S
O70 Ho41 2.381 . S
O70 C59 1.275 . S
O71 Ho40 2.305 . S
O71 Ho41 2.669 . S
O71 C59 1.256 . S
H72 C45 0.930 . S
H73 C46 0.931 . S
H74 C48 0.934 . S
H75 C49 0.930 . S
H76 C54 0.930 . S
H77 C55 0.931 . S
H78 C57 0.934 . S
H79 C58 0.930 . S
Ho80 C83 2.811 . S
Ho80 O100 2.322 . S
Ho80 O102 2.378 . S
Ho80 O103 2.524 . S
Ho80 O104 2.381 . S
Ho80 O105 2.669 . S
Ho80 O107 2.346 . S
Ho80 O111 2.305 . S
Ho81 C92 2.811 . S
Ho81 O101 2.346 . S
Ho81 O105 2.305 . S
Ho81 O106 2.322 . S
Ho81 O108 2.378 . S
Ho81 O109 2.524 . S
Ho81 O110 2.381 . S
Ho81 O111 2.669 . S
C82 O100 1.259 . S
C82 O101 1.268 . S
C83 Ho80 2.811 . S
C83 C84 1.488 . S
C83 O102 1.215 . S
C83 O103 1.289 . S
C84 C83 1.488 . S
C84 C85 1.348 . S
C84 C89 1.413 . S
C85 C84 1.348 . S
C85 C86 1.442 . S
C85 H112 0.930 . S
C86 C85 1.442 . S
C86 C87 1.381 . S
C86 H113 0.931 . S
C87 C86 1.381 . S
C87 C88 1.321 . S
C88 C87 1.321 . S
C88 C89 1.403 . S
C88 H114 0.934 . S
C89 C84 1.413 . S
C89 C88 1.403 . S
C89 H115 0.930 . S
C90 O104 1.275 . S
C90 O105 1.256 . S
C91 O106 1.259 . S
C91 O107 1.268 . S
C92 Ho81 2.811 . S
C92 C93 1.488 . S
C92 O108 1.215 . S
C92 O109 1.289 . S
C93 C92 1.488 . S
C93 C94 1.348 . S
C93 C98 1.413 . S
C94 C93 1.348 . S
C94 C95 1.442 . S
C94 H116 0.930 . S
C95 C94 1.442 . S
C95 C96 1.381 . S
C95 H117 0.931 . S
C96 C95 1.381 . S
C96 C97 1.321 . S
C97 C96 1.321 . S
C97 C98 1.403 . S
C97 H118 0.934 . S
C98 C93 1.413 . S
C98 C97 1.403 . S
C98 H119 0.930 . S
C99 O110 1.275 . S
C99 O111 1.256 . S
O100 Ho80 2.322 . S
O100 C82 1.259 . S
O101 Ho81 2.346 . S
O101 C82 1.268 . S
O102 Ho80 2.378 . S
O102 C83 1.215 . S
O103 Ho80 2.524 . S
O103 C83 1.289 . S
O104 Ho80 2.381 . S
O104 C90 1.275 . S
O105 Ho80 2.669 . S
O105 Ho81 2.305 . S
O105 C90 1.256 . S
O106 Ho81 2.322 . S
O106 C91 1.259 . S
O107 Ho80 2.346 . S
O107 C91 1.268 . S
O108 Ho81 2.378 . S
O108 C92 1.215 . S
O109 Ho81 2.524 . S
O109 C92 1.289 . S
O110 Ho81 2.381 . S
O110 C99 1.275 . S
O111 Ho80 2.305 . S
O111 Ho81 2.669 . S
O111 C99 1.256 . S
H112 C85 0.930 . S
H113 C86 0.931 . S
H114 C88 0.934 . S
H115 C89 0.930 . S
H116 C94 0.930 . S
H117 C95 0.931 . S
H118 C97 0.934 . S
H119 C98 0.930 . S
Ho120 C123 2.811 . S
Ho120 O140 2.322 . S
Ho120 O142 2.378 . S
Ho120 O143 2.524 . S
Ho120 O144 2.381 . S
Ho120 O145 2.669 . S
Ho120 O147 2.346 . S
Ho120 O151 2.305 . S
Ho121 C132 2.811 1_556 S
Ho121 O141 2.346 . S
Ho121 O145 2.305 . S
Ho121 O146 2.322 . S
Ho121 O148 2.378 1_556 S
Ho121 O149 2.524 1_556 S
Ho121 O150 2.381 . S
Ho121 O151 2.669 . S
C122 O140 1.259 . S
C122 O141 1.268 . S
C123 Ho120 2.811 . S
C123 C124 1.488 . S
C123 O142 1.215 . S
C123 O143 1.289 . S
C124 C123 1.488 . S
C124 C125 1.348 . S
C124 C129 1.413 . S
C125 C124 1.348 . S
C125 C126 1.442 . S
C125 H152 0.930 . S
C126 C125 1.442 . S
C126 C127 1.381 . S
C126 H153 0.931 . S
C127 C126 1.381 . S
C127 C128 1.321 . S
C128 C127 1.321 . S
C128 C129 1.403 . S
C128 H154 0.934 . S
C129 C124 1.413 . S
C129 C128 1.403 . S
C129 H155 0.930 . S
C130 O144 1.275 . S
C130 O145 1.256 . S
C131 O146 1.259 . S
C131 O147 1.268 . S
C132 Ho121 2.811 1_554 S
C132 C133 1.488 . S
C132 O148 1.215 . S
C132 O149 1.289 . S
C133 C132 1.488 . S
C133 C134 1.348 . S
C133 C138 1.413 . S
C134 C133 1.348 . S
C134 C135 1.442 . S
C134 H156 0.930 . S
C135 C134 1.442 . S
C135 C136 1.381 . S
C135 H157 0.931 . S
C136 C135 1.381 . S
C136 C137 1.321 . S
C137 C136 1.321 . S
C137 C138 1.403 . S
C137 H158 0.934 . S
C138 C133 1.413 . S
C138 C137 1.403 . S
C138 H159 0.930 . S
C139 O150 1.275 . S
C139 O151 1.256 . S
O140 Ho120 2.322 . S
O140 C122 1.259 . S
O141 Ho121 2.346 . S
O141 C122 1.268 . S
O142 Ho120 2.378 . S
O142 C123 1.215 . S
O143 Ho120 2.524 . S
O143 C123 1.289 . S
O144 Ho120 2.381 . S
O144 C130 1.275 . S
O145 Ho120 2.669 . S
O145 Ho121 2.305 . S
O145 C130 1.256 . S
O146 Ho121 2.322 . S
O146 C131 1.259 . S
O147 Ho120 2.346 . S
O147 C131 1.268 . S
O148 Ho121 2.378 1_554 S
O148 C132 1.215 . S
O149 Ho121 2.524 1_554 S
O149 C132 1.289 . S
O150 Ho121 2.381 . S
O150 C139 1.275 . S
O151 Ho120 2.305 . S
O151 Ho121 2.669 . S
O151 C139 1.256 . S
H152 C125 0.930 . S
H153 C126 0.931 . S
H154 C128 0.934 . S
H155 C129 0.930 . S
H156 C134 0.930 . S
H157 C135 0.931 . S
H158 C137 0.934 . S
H159 C138 0.930 . S
Ho160 C163 2.811 1_556 S
Ho160 O180 2.322 . S
Ho160 O182 2.378 1_556 S
Ho160 O183 2.524 1_556 S
Ho160 O184 2.381 . S
Ho160 O185 2.669 . S
Ho160 O187 2.346 . S
Ho160 O191 2.305 . S
Ho161 C172 2.811 . S
Ho161 O181 2.346 . S
Ho161 O185 2.305 . S
Ho161 O186 2.322 . S
Ho161 O188 2.378 . S
Ho161 O189 2.524 . S
Ho161 O190 2.381 . S
Ho161 O191 2.669 . S
C162 O180 1.259 . S
C162 O181 1.268 . S
C163 Ho160 2.811 1_554 S
C163 C164 1.488 . S
C163 O182 1.215 . S
C163 O183 1.289 . S
C164 C163 1.488 . S
C164 C165 1.348 . S
C164 C169 1.413 . S
C165 C164 1.348 . S
C165 C166 1.442 . S
C165 H192 0.930 . S
C166 C165 1.442 . S
C166 C167 1.381 . S
C166 H193 0.931 . S
C167 C166 1.381 . S
C167 C168 1.321 . S
C168 C167 1.321 . S
C168 C169 1.403 . S
C168 H194 0.934 . S
C169 C164 1.413 . S
C169 C168 1.403 . S
C169 H195 0.930 . S
C170 O184 1.275 . S
C170 O185 1.256 . S
C171 O186 1.259 . S
C171 O187 1.268 . S
C172 Ho161 2.811 . S
C172 C173 1.488 . S
C172 O188 1.215 . S
C172 O189 1.289 . S
C173 C172 1.488 . S
C173 C174 1.348 . S
C173 C178 1.413 . S
C174 C173 1.348 . S
C174 C175 1.442 . S
C174 H196 0.930 . S
C175 C174 1.442 . S
C175 C176 1.381 . S
C175 H197 0.931 . S
C176 C175 1.381 . S
C176 C177 1.321 . S
C177 C176 1.321 . S
C177 C178 1.403 . S
C177 H198 0.934 . S
C178 C173 1.413 . S
C178 C177 1.403 . S
C178 H199 0.930 . S
C179 O190 1.275 . S
C179 O191 1.256 . S
O180 Ho160 2.322 . S
O180 C162 1.259 . S
O181 Ho161 2.346 . S
O181 C162 1.268 . S
O182 Ho160 2.378 1_554 S
O182 C163 1.215 . S
O183 Ho160 2.524 1_554 S
O183 C163 1.289 . S
O184 Ho160 2.381 . S
O184 C170 1.275 . S
O185 Ho160 2.669 . S
O185 Ho161 2.305 . S
O185 C170 1.256 . S
O186 Ho161 2.322 . S
O186 C171 1.259 . S
O187 Ho160 2.346 . S
O187 C171 1.268 . S
O188 Ho161 2.378 . S
O188 C172 1.215 . S
O189 Ho161 2.524 . S
O189 C172 1.289 . S
O190 Ho161 2.381 . S
O190 C179 1.275 . S
O191 Ho160 2.305 . S
O191 Ho161 2.669 . S
O191 C179 1.256 . S
H192 C165 0.930 . S
H193 C166 0.931 . S
H194 C168 0.934 . S
H195 C169 0.930 . S
H196 C174 0.930 . S
H197 C175 0.931 . S
H198 C177 0.934 . S
H199 C178 0.930 . S
Ho200 C203 2.811 . S
Ho200 O220 2.322 . S
Ho200 O222 2.378 . S
Ho200 O223 2.524 . S
Ho200 O224 2.381 . S
Ho200 O225 2.669 . S
Ho200 O227 2.346 . S
Ho200 O231 2.305 . S
Ho201 C212 2.811 1_554 S
Ho201 O221 2.346 . S
Ho201 O225 2.305 . S
Ho201 O226 2.322 . S
Ho201 O228 2.378 1_554 S
Ho201 O229 2.524 1_554 S
Ho201 O230 2.381 . S
Ho201 O231 2.669 . S
C202 O220 1.259 . S
C202 O221 1.268 . S
C203 Ho200 2.811 . S
C203 C204 1.488 . S
C203 O222 1.215 . S
C203 O223 1.289 . S
C204 C203 1.488 . S
C204 C205 1.348 . S
C204 C209 1.413 . S
C205 C204 1.348 . S
C205 C206 1.442 . S
C205 H232 0.930 . S
C206 C205 1.442 . S
C206 C207 1.381 . S
C206 H233 0.931 . S
C207 C206 1.381 . S
C207 C208 1.321 . S
C208 C207 1.321 . S
C208 C209 1.403 . S
C208 H234 0.934 . S
C209 C204 1.413 . S
C209 C208 1.403 . S
C209 H235 0.930 . S
C210 O224 1.275 . S
C210 O225 1.256 . S
C211 O226 1.259 . S
C211 O227 1.268 . S
C212 Ho201 2.811 1_556 S
C212 C213 1.488 . S
C212 O228 1.215 . S
C212 O229 1.289 . S
C213 C212 1.488 . S
C213 C214 1.348 . S
C213 C218 1.413 . S
C214 C213 1.348 . S
C214 C215 1.442 . S
C214 H236 0.930 . S
C215 C214 1.442 . S
C215 C216 1.381 . S
C215 H237 0.931 . S
C216 C215 1.381 . S
C216 C217 1.321 . S
C217 C216 1.321 . S
C217 C218 1.403 . S
C217 H238 0.934 . S
C218 C213 1.413 . S
C218 C217 1.403 . S
C218 H239 0.930 . S
C219 O230 1.275 . S
C219 O231 1.256 . S
O220 Ho200 2.322 . S
O220 C202 1.259 . S
O221 Ho201 2.346 . S
O221 C202 1.268 . S
O222 Ho200 2.378 . S
O222 C203 1.215 . S
O223 Ho200 2.524 . S
O223 C203 1.289 . S
O224 Ho200 2.381 . S
O224 C210 1.275 . S
O225 Ho200 2.669 . S
O225 Ho201 2.305 . S
O225 C210 1.256 . S
O226 Ho201 2.322 . S
O226 C211 1.259 . S
O227 Ho200 2.346 . S
O227 C211 1.268 . S
O228 Ho201 2.378 1_556 S
O228 C212 1.215 . S
O229 Ho201 2.524 1_556 S
O229 C212 1.289 . S
O230 Ho201 2.381 . S
O230 C219 1.275 . S
O231 Ho200 2.305 . S
O231 Ho201 2.669 . S
O231 C219 1.256 . S
H232 C205 0.930 . S
H233 C206 0.931 . S
H234 C208 0.934 . S
H235 C209 0.930 . S
H236 C214 0.930 . S
H237 C215 0.931 . S
H238 C217 0.934 . S
H239 C218 0.930 . S
Ho240 C243 2.811 . S
Ho240 O260 2.322 . S
Ho240 O262 2.378 . S
Ho240 O263 2.524 . S
Ho240 O264 2.381 . S
Ho240 O265 2.669 . S
Ho240 O267 2.346 . S
Ho240 O271 2.305 . S
Ho241 C252 2.811 . S
Ho241 O261 2.346 . S
Ho241 O265 2.305 . S
Ho241 O266 2.322 . S
Ho241 O268 2.378 . S
Ho241 O269 2.524 . S
Ho241 O270 2.381 . S
Ho241 O271 2.669 . S
C242 O260 1.259 . S
C242 O261 1.268 . S
C243 Ho240 2.811 . S
C243 C244 1.488 . S
C243 O262 1.215 . S
C243 O263 1.289 . S
C244 C243 1.488 . S
C244 C245 1.348 . S
C244 C249 1.413 . S
C245 C244 1.348 . S
C245 C246 1.442 . S
C245 H272 0.930 . S
C246 C245 1.442 . S
C246 C247 1.381 . S
C246 H273 0.931 . S
C247 C246 1.381 . S
C247 C248 1.321 . S
C248 C247 1.321 . S
C248 C249 1.403 . S
C248 H274 0.934 . S
C249 C244 1.413 . S
C249 C248 1.403 . S
C249 H275 0.930 . S
C250 O264 1.275 . S
C250 O265 1.256 . S
C251 O266 1.259 . S
C251 O267 1.268 . S
C252 Ho241 2.811 . S
C252 C253 1.488 . S
C252 O268 1.215 . S
C252 O269 1.289 . S
C253 C252 1.488 . S
C253 C254 1.348 . S
C253 C258 1.413 . S
C254 C253 1.348 . S
C254 C255 1.442 . S
C254 H276 0.930 . S
C255 C254 1.442 . S
C255 C256 1.381 . S
C255 H277 0.931 . S
C256 C255 1.381 . S
C256 C257 1.321 . S
C257 C256 1.321 . S
C257 C258 1.403 . S
C257 H278 0.934 . S
C258 C253 1.413 . S
C258 C257 1.403 . S
C258 H279 0.930 . S
C259 O270 1.275 . S
C259 O271 1.256 . S
O260 Ho240 2.322 . S
O260 C242 1.259 . S
O261 Ho241 2.346 . S
O261 C242 1.268 . S
O262 Ho240 2.378 . S
O262 C243 1.215 . S
O263 Ho240 2.524 . S
O263 C243 1.289 . S
O264 Ho240 2.381 . S
O264 C250 1.275 . S
O265 Ho240 2.669 . S
O265 Ho241 2.305 . S
O265 C250 1.256 . S
O266 Ho241 2.322 . S
O266 C251 1.259 . S
O267 Ho240 2.346 . S
O267 C251 1.268 . S
O268 Ho241 2.378 . S
O268 C252 1.215 . S
O269 Ho241 2.524 . S
O269 C252 1.289 . S
O270 Ho241 2.381 . S
O270 C259 1.275 . S
O271 Ho240 2.305 . S
O271 Ho241 2.669 . S
O271 C259 1.256 . S
H272 C245 0.930 . S
H273 C246 0.931 . S
H274 C248 0.934 . S
H275 C249 0.930 . S
H276 C254 0.930 . S
H277 C255 0.931 . S
H278 C257 0.934 . S
H279 C258 0.930 . S
Ho280 C283 2.811 . S
Ho280 O300 2.322 . S
Ho280 O302 2.378 . S
Ho280 O303 2.524 . S
Ho280 O304 2.381 . S
Ho280 O305 2.669 . S
Ho280 O307 2.346 . S
Ho280 O311 2.305 . S
Ho281 C292 2.811 . S
Ho281 O301 2.346 . S
Ho281 O305 2.305 . S
Ho281 O306 2.322 . S
Ho281 O308 2.378 . S
Ho281 O309 2.524 . S
Ho281 O310 2.381 . S
Ho281 O311 2.669 . S
C282 O300 1.259 . S
C282 O301 1.268 . S
C283 Ho280 2.811 . S
C283 C284 1.488 . S
C283 O302 1.215 . S
C283 O303 1.289 . S
C284 C283 1.488 . S
C284 C285 1.348 . S
C284 C289 1.413 . S
C285 C284 1.348 . S
C285 C286 1.442 . S
C285 H312 0.930 . S
C286 C285 1.442 . S
C286 C287 1.381 . S
C286 H313 0.931 . S
C287 C286 1.381 . S
C287 C288 1.321 . S
C288 C287 1.321 . S
C288 C289 1.403 . S
C288 H314 0.934 . S
C289 C284 1.413 . S
C289 C288 1.403 . S
C289 H315 0.930 . S
C290 O304 1.275 . S
C290 O305 1.256 . S
C291 O306 1.259 . S
C291 O307 1.268 . S
C292 Ho281 2.811 . S
C292 C293 1.488 . S
C292 O308 1.215 . S
C292 O309 1.289 . S
C293 C292 1.488 . S
C293 C294 1.348 . S
C293 C298 1.413 . S
C294 C293 1.348 . S
C294 C295 1.442 . S
C294 H316 0.930 . S
C295 C294 1.442 . S
C295 C296 1.381 . S
C295 H317 0.931 . S
C296 C295 1.381 . S
C296 C297 1.321 . S
C297 C296 1.321 . S
C297 C298 1.403 . S
C297 H318 0.934 . S
C298 C293 1.413 . S
C298 C297 1.403 . S
C298 H319 0.930 . S
C299 O310 1.275 . S
C299 O311 1.256 . S
O300 Ho280 2.322 . S
O300 C282 1.259 . S
O301 Ho281 2.346 . S
O301 C282 1.268 . S
O302 Ho280 2.378 . S
O302 C283 1.215 . S
O303 Ho280 2.524 . S
O303 C283 1.289 . S
O304 Ho280 2.381 . S
O304 C290 1.275 . S
O305 Ho280 2.669 . S
O305 Ho281 2.305 . S
O305 C290 1.256 . S
O306 Ho281 2.322 . S
O306 C291 1.259 . S
O307 Ho280 2.346 . S
O307 C291 1.268 . S
O308 Ho281 2.378 . S
O308 C292 1.215 . S
O309 Ho281 2.524 . S
O309 C292 1.289 . S
O310 Ho281 2.381 . S
O310 C299 1.275 . S
O311 Ho280 2.305 . S
O311 Ho281 2.669 . S
O311 C299 1.256 . S
H312 C285 0.930 . S
H313 C286 0.931 . S
H314 C288 0.934 . S
H315 C289 0.930 . S
H316 C294 0.930 . S
H317 C295 0.931 . S
H318 C297 0.934 . S
H319 C298 0.930 . S
Ho320 C323 2.811 . S
Ho320 O340 2.322 . S
Ho320 O342 2.378 . S
Ho320 O343 2.524 . S
Ho320 O344 2.381 . S
Ho320 O345 2.669 . S
Ho320 O347 2.346 . S
Ho320 O351 2.305 . S
Ho321 C332 2.811 1_556 S
Ho321 O341 2.346 . S
Ho321 O345 2.305 . S
Ho321 O346 2.322 . S
Ho321 O348 2.378 1_556 S
Ho321 O349 2.524 1_556 S
Ho321 O350 2.381 . S
Ho321 O351 2.669 . S
C322 O340 1.259 . S
C322 O341 1.268 . S
C323 Ho320 2.811 . S
C323 C324 1.488 . S
C323 O342 1.215 . S
C323 O343 1.289 . S
C324 C323 1.488 . S
C324 C325 1.348 . S
C324 C329 1.413 . S
C325 C324 1.348 . S
C325 C326 1.442 . S
C325 H352 0.930 . S
C326 C325 1.442 . S
C326 C327 1.381 . S
C326 H353 0.931 . S
C327 C326 1.381 . S
C327 C328 1.321 . S
C328 C327 1.321 . S
C328 C329 1.403 . S
C328 H354 0.934 . S
C329 C324 1.413 . S
C329 C328 1.403 . S
C329 H355 0.930 . S
C330 O344 1.275 . S
C330 O345 1.256 . S
C331 O346 1.259 . S
C331 O347 1.268 . S
C332 Ho321 2.811 1_554 S
C332 C333 1.488 . S
C332 O348 1.215 . S
C332 O349 1.289 . S
C333 C332 1.488 . S
C333 C334 1.348 . S
C333 C338 1.413 . S
C334 C333 1.348 . S
C334 C335 1.442 . S
C334 H356 0.930 . S
C335 C334 1.442 . S
C335 C336 1.381 . S
C335 H357 0.931 . S
C336 C335 1.381 . S
C336 C337 1.321 . S
C337 C336 1.321 . S
C337 C338 1.403 . S
C337 H358 0.934 . S
C338 C333 1.413 . S
C338 C337 1.403 . S
C338 H359 0.930 . S
C339 O350 1.275 . S
C339 O351 1.256 . S
O340 Ho320 2.322 . S
O340 C322 1.259 . S
O341 Ho321 2.346 . S
O341 C322 1.268 . S
O342 Ho320 2.378 . S
O342 C323 1.215 . S
O343 Ho320 2.524 . S
O343 C323 1.289 . S
O344 Ho320 2.381 . S
O344 C330 1.275 . S
O345 Ho320 2.669 . S
O345 Ho321 2.305 . S
O345 C330 1.256 . S
O346 Ho321 2.322 . S
O346 C331 1.259 . S
O347 Ho320 2.346 . S
O347 C331 1.268 . S
O348 Ho321 2.378 1_554 S
O348 C332 1.215 . S
O349 Ho321 2.524 1_554 S
O349 C332 1.289 . S
O350 Ho321 2.381 . S
O350 C339 1.275 . S
O351 Ho320 2.305 . S
O351 Ho321 2.669 . S
O351 C339 1.256 . S
H352 C325 0.930 . S
H353 C326 0.931 . S
H354 C328 0.934 . S
H355 C329 0.930 . S
H356 C334 0.930 . S
H357 C335 0.931 . S
H358 C337 0.934 . S
H359 C338 0.930 . S
Ho360 C363 2.811 . S
Ho360 O380 2.322 . S
Ho360 O382 2.378 . S
Ho360 O383 2.524 . S
Ho360 O384 2.381 . S
Ho360 O385 2.669 . S
Ho360 O387 2.346 . S
Ho360 O391 2.305 . S
Ho361 C372 2.811 . S
Ho361 O381 2.346 . S
Ho361 O385 2.305 . S
Ho361 O386 2.322 . S
Ho361 O388 2.378 . S
Ho361 O389 2.524 . S
Ho361 O390 2.381 . S
Ho361 O391 2.669 . S
C362 O380 1.259 . S
C362 O381 1.268 . S
C363 Ho360 2.811 . S
C363 C364 1.488 . S
C363 O382 1.215 . S
C363 O383 1.289 . S
C364 C363 1.488 . S
C364 C365 1.348 . S
C364 C369 1.413 . S
C365 C364 1.348 . S
C365 C366 1.442 . S
C365 H392 0.930 . S
C366 C365 1.442 . S
C366 C367 1.381 . S
C366 H393 0.931 . S
C367 C366 1.381 . S
C367 C368 1.321 . S
C368 C367 1.321 . S
C368 C369 1.403 . S
C368 H394 0.934 . S
C369 C364 1.413 . S
C369 C368 1.403 . S
C369 H395 0.930 . S
C370 O384 1.275 . S
C370 O385 1.256 . S
C371 O386 1.259 . S
C371 O387 1.268 . S
C372 Ho361 2.811 . S
C372 C373 1.488 . S
C372 O388 1.215 . S
C372 O389 1.289 . S
C373 C372 1.488 . S
C373 C374 1.348 . S
C373 C378 1.413 . S
C374 C373 1.348 . S
C374 C375 1.442 . S
C374 H396 0.930 . S
C375 C374 1.442 . S
C375 C376 1.381 . S
C375 H397 0.931 . S
C376 C375 1.381 . S
C376 C377 1.321 . S
C377 C376 1.321 . S
C377 C378 1.403 . S
C377 H398 0.934 . S
C378 C373 1.413 . S
C378 C377 1.403 . S
C378 H399 0.930 . S
C379 O390 1.275 . S
C379 O391 1.256 . S
O380 Ho360 2.322 . S
O380 C362 1.259 . S
O381 Ho361 2.346 . S
O381 C362 1.268 . S
O382 Ho360 2.378 . S
O382 C363 1.215 . S
O383 Ho360 2.524 . S
O383 C363 1.289 . S
O384 Ho360 2.381 . S
O384 C370 1.275 . S
O385 Ho360 2.669 . S
O385 Ho361 2.305 . S
O385 C370 1.256 . S
O386 Ho361 2.322 . S
O386 C371 1.259 . S
O387 Ho360 2.346 . S
O387 C371 1.268 . S
O388 Ho361 2.378 . S
O388 C372 1.215 . S
O389 Ho361 2.524 . S
O389 C372 1.289 . S
O390 Ho361 2.381 . S
O390 C379 1.275 . S
O391 Ho360 2.305 . S
O391 Ho361 2.669 . S
O391 C379 1.256 . S
H392 C365 0.930 . S
H393 C366 0.931 . S
H394 C368 0.934 . S
H395 C369 0.930 . S
H396 C374 0.930 . S
H397 C375 0.931 . S
H398 C377 0.934 . S
H399 C378 0.930 . S
Ho400 C403 2.811 . S
Ho400 O420 2.322 . S
Ho400 O422 2.378 . S
Ho400 O423 2.524 . S
Ho400 O424 2.381 . S
Ho400 O425 2.669 . S
Ho400 O427 2.346 . S
Ho400 O431 2.305 . S
Ho401 C412 2.811 . S
Ho401 O421 2.346 . S
Ho401 O425 2.305 . S
Ho401 O426 2.322 . S
Ho401 O428 2.378 . S
Ho401 O429 2.524 . S
Ho401 O430 2.381 . S
Ho401 O431 2.669 . S
C402 O420 1.259 . S
C402 O421 1.268 . S
C403 Ho400 2.811 . S
C403 C404 1.488 . S
C403 O422 1.215 . S
C403 O423 1.289 . S
C404 C403 1.488 . S
C404 C405 1.348 . S
C404 C409 1.413 . S
C405 C404 1.348 . S
C405 C406 1.442 . S
C405 H432 0.930 . S
C406 C405 1.442 . S
C406 C407 1.381 . S
C406 H433 0.931 . S
C407 C406 1.381 . S
C407 C408 1.321 . S
C408 C407 1.321 . S
C408 C409 1.403 . S
C408 H434 0.934 . S
C409 C404 1.413 . S
C409 C408 1.403 . S
C409 H435 0.930 . S
C410 O424 1.275 . S
C410 O425 1.256 . S
C411 O426 1.259 . S
C411 O427 1.268 . S
C412 Ho401 2.811 . S
C412 C413 1.488 . S
C412 O428 1.215 . S
C412 O429 1.289 . S
C413 C412 1.488 . S
C413 C414 1.348 . S
C413 C418 1.413 . S
C414 C413 1.348 . S
C414 C415 1.442 . S
C414 H436 0.930 . S
C415 C414 1.442 . S
C415 C416 1.381 . S
C415 H437 0.931 . S
C416 C415 1.381 . S
C416 C417 1.321 . S
C417 C416 1.321 . S
C417 C418 1.403 . S
C417 H438 0.934 . S
C418 C413 1.413 . S
C418 C417 1.403 . S
C418 H439 0.930 . S
C419 O430 1.275 . S
C419 O431 1.256 . S
O420 Ho400 2.322 . S
O420 C402 1.259 . S
O421 Ho401 2.346 . S
O421 C402 1.268 . S
O422 Ho400 2.378 . S
O422 C403 1.215 . S
O423 Ho400 2.524 . S
O423 C403 1.289 . S
O424 Ho400 2.381 . S
O424 C410 1.275 . S
O425 Ho400 2.669 . S
O425 Ho401 2.305 . S
O425 C410 1.256 . S
O426 Ho401 2.322 . S
O426 C411 1.259 . S
O427 Ho400 2.346 . S
O427 C411 1.268 . S
O428 Ho401 2.378 . S
O428 C412 1.215 . S
O429 Ho401 2.524 . S
O429 C412 1.289 . S
O430 Ho401 2.381 . S
O430 C419 1.275 . S
O431 Ho400 2.305 . S
O431 Ho401 2.669 . S
O431 C419 1.256 . S
H432 C405 0.930 . S
H433 C406 0.931 . S
H434 C408 0.934 . S
H435 C409 0.930 . S
H436 C414 0.930 . S
H437 C415 0.931 . S
H438 C417 0.934 . S
H439 C418 0.930 . S
Ho440 C443 2.811 1_554 S
Ho440 O460 2.322 . S
Ho440 O462 2.378 1_554 S
Ho440 O463 2.524 1_554 S
Ho440 O464 2.381 . S
Ho440 O465 2.669 . S
Ho440 O467 2.346 . S
Ho440 O471 2.305 . S
Ho441 C452 2.811 . S
Ho441 O461 2.346 . S
Ho441 O465 2.305 . S
Ho441 O466 2.322 . S
Ho441 O468 2.378 . S
Ho441 O469 2.524 . S
Ho441 O470 2.381 . S
Ho441 O471 2.669 . S
C442 O460 1.259 . S
C442 O461 1.268 . S
C443 Ho440 2.811 1_556 S
C443 C444 1.488 . S
C443 O462 1.215 . S
C443 O463 1.289 . S
C444 C443 1.488 . S
C444 C445 1.348 . S
C444 C449 1.413 . S
C445 C444 1.348 . S
C445 C446 1.442 . S
C445 H472 0.930 . S
C446 C445 1.442 . S
C446 C447 1.381 . S
C446 H473 0.931 . S
C447 C446 1.381 . S
C447 C448 1.321 . S
C448 C447 1.321 . S
C448 C449 1.403 . S
C448 H474 0.934 . S
C449 C444 1.413 . S
C449 C448 1.403 . S
C449 H475 0.930 . S
C450 O464 1.275 . S
C450 O465 1.256 . S
C451 O466 1.259 . S
C451 O467 1.268 . S
C452 Ho441 2.811 . S
C452 C453 1.488 . S
C452 O468 1.215 . S
C452 O469 1.289 . S
C453 C452 1.488 . S
C453 C454 1.348 . S
C453 C458 1.413 . S
C454 C453 1.348 . S
C454 C455 1.442 . S
C454 H476 0.930 . S
C455 C454 1.442 . S
C455 C456 1.381 . S
C455 H477 0.931 . S
C456 C455 1.381 . S
C456 C457 1.321 . S
C457 C456 1.321 . S
C457 C458 1.403 . S
C457 H478 0.934 . S
C458 C453 1.413 . S
C458 C457 1.403 . S
C458 H479 0.930 . S
C459 O470 1.275 . S
C459 O471 1.256 . S
O460 Ho440 2.322 . S
O460 C442 1.259 . S
O461 Ho441 2.346 . S
O461 C442 1.268 . S
O462 Ho440 2.378 1_556 S
O462 C443 1.215 . S
O463 Ho440 2.524 1_556 S
O463 C443 1.289 . S
O464 Ho440 2.381 . S
O464 C450 1.275 . S
O465 Ho440 2.669 . S
O465 Ho441 2.305 . S
O465 C450 1.256 . S
O466 Ho441 2.322 . S
O466 C451 1.259 . S
O467 Ho440 2.346 . S
O467 C451 1.268 . S
O468 Ho441 2.378 . S
O468 C452 1.215 . S
O469 Ho441 2.524 . S
O469 C452 1.289 . S
O470 Ho441 2.381 . S
O470 C459 1.275 . S
O471 Ho440 2.305 . S
O471 Ho441 2.669 . S
O471 C459 1.256 . S
H472 C445 0.930 . S
H473 C446 0.931 . S
H474 C448 0.934 . S
H475 C449 0.930 . S
H476 C454 0.930 . S
H477 C455 0.931 . S
H478 C457 0.934 . S
H479 C458 0.930 . S
Ho480 C483 2.811 . S
Ho480 O500 2.322 . S
Ho480 O502 2.378 . S
Ho480 O503 2.524 . S
Ho480 O504 2.381 . S
Ho480 O505 2.669 . S
Ho480 O507 2.346 . S
Ho480 O511 2.305 . S
Ho481 C492 2.811 1_554 S
Ho481 O501 2.346 . S
Ho481 O505 2.305 . S
Ho481 O506 2.322 . S
Ho481 O508 2.378 1_554 S
Ho481 O509 2.524 1_554 S
Ho481 O510 2.381 . S
Ho481 O511 2.669 . S
C482 O500 1.259 . S
C482 O501 1.268 . S
C483 Ho480 2.811 . S
C483 C484 1.488 . S
C483 O502 1.215 . S
C483 O503 1.289 . S
C484 C483 1.488 . S
C484 C485 1.348 . S
C484 C489 1.413 . S
C485 C484 1.348 . S
C485 C486 1.442 . S
C485 H512 0.930 . S
C486 C485 1.442 . S
C486 C487 1.381 . S
C486 H513 0.931 . S
C487 C486 1.381 . S
C487 C488 1.321 . S
C488 C487 1.321 . S
C488 C489 1.403 . S
C488 H514 0.934 . S
C489 C484 1.413 . S
C489 C488 1.403 . S
C489 H515 0.930 . S
C490 O504 1.275 . S
C490 O505 1.256 . S
C491 O506 1.259 . S
C491 O507 1.268 . S
C492 Ho481 2.811 1_556 S
C492 C493 1.488 . S
C492 O508 1.215 . S
C492 O509 1.289 . S
C493 C492 1.488 . S
C493 C494 1.348 . S
C493 C498 1.413 . S
C494 C493 1.348 . S
C494 C495 1.442 . S
C494 H516 0.930 . S
C495 C494 1.442 . S
C495 C496 1.381 . S
C495 H517 0.931 . S
C496 C495 1.381 . S
C496 C497 1.321 . S
C497 C496 1.321 . S
C497 C498 1.403 . S
C497 H518 0.934 . S
C498 C493 1.413 . S
C498 C497 1.403 . S
C498 H519 0.930 . S
C499 O510 1.275 . S
C499 O511 1.256 . S
O500 Ho480 2.322 . S
O500 C482 1.259 . S
O501 Ho481 2.346 . S
O501 C482 1.268 . S
O502 Ho480 2.378 . S
O502 C483 1.215 . S
O503 Ho480 2.524 . S
O503 C483 1.289 . S
O504 Ho480 2.381 . S
O504 C490 1.275 . S
O505 Ho480 2.669 . S
O505 Ho481 2.305 . S
O505 C490 1.256 . S
O506 Ho481 2.322 . S
O506 C491 1.259 . S
O507 Ho480 2.346 . S
O507 C491 1.268 . S
O508 Ho481 2.378 1_556 S
O508 C492 1.215 . S
O509 Ho481 2.524 1_556 S
O509 C492 1.289 . S
O510 Ho481 2.381 . S
O510 C499 1.275 . S
O511 Ho480 2.305 . S
O511 Ho481 2.669 . S
O511 C499 1.256 . S
H512 C485 0.930 . S
H513 C486 0.931 . S
H514 C488 0.934 . S
H515 C489 0.930 . S
H516 C494 0.930 . S
H517 C495 0.931 . S
H518 C497 0.934 . S
H519 C498 0.930 . S
Ho520 C523 2.811 1_556 S
Ho520 O540 2.322 . S
Ho520 O542 2.378 1_556 S
Ho520 O543 2.524 1_556 S
Ho520 O544 2.381 . S
Ho520 O545 2.669 . S
Ho520 O547 2.346 . S
Ho520 O551 2.305 . S
Ho521 C532 2.811 . S
Ho521 O541 2.346 . S
Ho521 O545 2.305 . S
Ho521 O546 2.322 . S
Ho521 O548 2.378 . S
Ho521 O549 2.524 . S
Ho521 O550 2.381 . S
Ho521 O551 2.669 . S
C522 O540 1.259 . S
C522 O541 1.268 . S
C523 Ho520 2.811 1_554 S
C523 C524 1.488 . S
C523 O542 1.215 . S
C523 O543 1.289 . S
C524 C523 1.488 . S
C524 C525 1.348 . S
C524 C529 1.413 . S
C525 C524 1.348 . S
C525 C526 1.442 . S
C525 H552 0.930 . S
C526 C525 1.442 . S
C526 C527 1.381 . S
C526 H553 0.931 . S
C527 C526 1.381 . S
C527 C528 1.321 . S
C528 C527 1.321 . S
C528 C529 1.403 . S
C528 H554 0.934 . S
C529 C524 1.413 . S
C529 C528 1.403 . S
C529 H555 0.930 . S
C530 O544 1.275 . S
C530 O545 1.256 . S
C531 O546 1.259 . S
C531 O547 1.268 . S
C532 Ho521 2.811 . S
C532 C533 1.488 . S
C532 O548 1.215 . S
C532 O549 1.289 . S
C533 C532 1.488 . S
C533 C534 1.348 . S
C533 C538 1.413 . S
C534 C533 1.348 . S
C534 C535 1.442 . S
C534 H556 0.930 . S
C535 C534 1.442 . S
C535 C536 1.381 . S
C535 H557 0.931 . S
C536 C535 1.381 . S
C536 C537 1.321 . S
C537 C536 1.321 . S
C537 C538 1.403 . S
C537 H558 0.934 . S
C538 C533 1.413 . S
C538 C537 1.403 . S
C538 H559 0.930 . S
C539 O550 1.275 . S
C539 O551 1.256 . S
O540 Ho520 2.322 . S
O540 C522 1.259 . S
O541 Ho521 2.346 . S
O541 C522 1.268 . S
O542 Ho520 2.378 1_554 S
O542 C523 1.215 . S
O543 Ho520 2.524 1_554 S
O543 C523 1.289 . S
O544 Ho520 2.381 . S
O544 C530 1.275 . S
O545 Ho520 2.669 . S
O545 Ho521 2.305 . S
O545 C530 1.256 . S
O546 Ho521 2.322 . S
O546 C531 1.259 . S
O547 Ho520 2.346 . S
O547 C531 1.268 . S
O548 Ho521 2.378 . S
O548 C532 1.215 . S
O549 Ho521 2.524 . S
O549 C532 1.289 . S
O550 Ho521 2.381 . S
O550 C539 1.275 . S
O551 Ho520 2.305 . S
O551 Ho521 2.669 . S
O551 C539 1.256 . S
H552 C525 0.930 . S
H553 C526 0.931 . S
H554 C528 0.934 . S
H555 C529 0.930 . S
H556 C534 0.930 . S
H557 C535 0.931 . S
H558 C537 0.934 . S
H559 C538 0.930 . S
Ho560 C563 2.811 . S
Ho560 O580 2.322 . S
Ho560 O582 2.378 . S
Ho560 O583 2.524 . S
Ho560 O584 2.381 . S
Ho560 O585 2.669 . S
Ho560 O587 2.346 . S
Ho560 O591 2.305 . S
Ho561 C572 2.811 . S
Ho561 O581 2.346 . S
Ho561 O585 2.305 . S
Ho561 O586 2.322 . S
Ho561 O588 2.378 . S
Ho561 O589 2.524 . S
Ho561 O590 2.381 . S
Ho561 O591 2.669 . S
C562 O580 1.259 . S
C562 O581 1.268 . S
C563 Ho560 2.811 . S
C563 C564 1.488 . S
C563 O582 1.215 . S
C563 O583 1.289 . S
C564 C563 1.488 . S
C564 C565 1.348 . S
C564 C569 1.413 . S
C565 C564 1.348 . S
C565 C566 1.442 . S
C565 H592 0.930 . S
C566 C565 1.442 . S
C566 C567 1.381 . S
C566 H593 0.931 . S
C567 C566 1.381 . S
C567 C568 1.321 . S
C568 C567 1.321 . S
C568 C569 1.403 . S
C568 H594 0.934 . S
C569 C564 1.413 . S
C569 C568 1.403 . S
C569 H595 0.930 . S
C570 O584 1.275 . S
C570 O585 1.256 . S
C571 O586 1.259 . S
C571 O587 1.268 . S
C572 Ho561 2.811 . S
C572 C573 1.488 . S
C572 O588 1.215 . S
C572 O589 1.289 . S
C573 C572 1.488 . S
C573 C574 1.348 . S
C573 C578 1.413 . S
C574 C573 1.348 . S
C574 C575 1.442 . S
C574 H596 0.930 . S
C575 C574 1.442 . S
C575 C576 1.381 . S
C575 H597 0.931 . S
C576 C575 1.381 . S
C576 C577 1.321 . S
C577 C576 1.321 . S
C577 C578 1.403 . S
C577 H598 0.934 . S
C578 C573 1.413 . S
C578 C577 1.403 . S
C578 H599 0.930 . S
C579 O590 1.275 . S
C579 O591 1.256 . S
O580 Ho560 2.322 . S
O580 C562 1.259 . S
O581 Ho561 2.346 . S
O581 C562 1.268 . S
O582 Ho560 2.378 . S
O582 C563 1.215 . S
O583 Ho560 2.524 . S
O583 C563 1.289 . S
O584 Ho560 2.381 . S
O584 C570 1.275 . S
O585 Ho560 2.669 . S
O585 Ho561 2.305 . S
O585 C570 1.256 . S
O586 Ho561 2.322 . S
O586 C571 1.259 . S
O587 Ho560 2.346 . S
O587 C571 1.268 . S
O588 Ho561 2.378 . S
O588 C572 1.215 . S
O589 Ho561 2.524 . S
O589 C572 1.289 . S
O590 Ho561 2.381 . S
O590 C579 1.275 . S
O591 Ho560 2.305 . S
O591 Ho561 2.669 . S
O591 C579 1.256 . S
H592 C565 0.930 . S
H593 C566 0.931 . S
H594 C568 0.934 . S
H595 C569 0.930 . S
H596 C574 0.930 . S
H597 C575 0.931 . S
H598 C577 0.934 . S
H599 C578 0.930 . S
Ho600 C603 2.811 . S
Ho600 O620 2.322 . S
Ho600 O622 2.378 . S
Ho600 O623 2.524 . S
Ho600 O624 2.381 . S
Ho600 O625 2.669 . S
Ho600 O627 2.346 . S
Ho600 O631 2.305 . S
Ho601 C612 2.811 . S
Ho601 O621 2.346 . S
Ho601 O625 2.305 . S
Ho601 O626 2.322 . S
Ho601 O628 2.378 . S
Ho601 O629 2.524 . S
Ho601 O630 2.381 . S
Ho601 O631 2.669 . S
C602 O620 1.259 . S
C602 O621 1.268 . S
C603 Ho600 2.811 . S
C603 C604 1.488 . S
C603 O622 1.215 . S
C603 O623 1.289 . S
C604 C603 1.488 . S
C604 C605 1.348 . S
C604 C609 1.413 . S
C605 C604 1.348 . S
C605 C606 1.442 . S
C605 H632 0.930 . S
C606 C605 1.442 . S
C606 C607 1.381 . S
C606 H633 0.931 . S
C607 C606 1.381 . S
C607 C608 1.321 . S
C608 C607 1.321 . S
C608 C609 1.403 . S
C608 H634 0.934 . S
C609 C604 1.413 . S
C609 C608 1.403 . S
C609 H635 0.930 . S
C610 O624 1.275 . S
C610 O625 1.256 . S
C611 O626 1.259 . S
C611 O627 1.268 . S
C612 Ho601 2.811 . S
C612 C613 1.488 . S
C612 O628 1.215 . S
C612 O629 1.289 . S
C613 C612 1.488 . S
C613 C614 1.348 . S
C613 C618 1.413 . S
C614 C613 1.348 . S
C614 C615 1.442 . S
C614 H636 0.930 . S
C615 C614 1.442 . S
C615 C616 1.381 . S
C615 H637 0.931 . S
C616 C615 1.381 . S
C616 C617 1.321 . S
C617 C616 1.321 . S
C617 C618 1.403 . S
C617 H638 0.934 . S
C618 C613 1.413 . S
C618 C617 1.403 . S
C618 H639 0.930 . S
C619 O630 1.275 . S
C619 O631 1.256 . S
O620 Ho600 2.322 . S
O620 C602 1.259 . S
O621 Ho601 2.346 . S
O621 C602 1.268 . S
O622 Ho600 2.378 . S
O622 C603 1.215 . S
O623 Ho600 2.524 . S
O623 C603 1.289 . S
O624 Ho600 2.381 . S
O624 C610 1.275 . S
O625 Ho600 2.669 . S
O625 Ho601 2.305 . S
O625 C610 1.256 . S
O626 Ho601 2.322 . S
O626 C611 1.259 . S
O627 Ho600 2.346 . S
O627 C611 1.268 . S
O628 Ho601 2.378 . S
O628 C612 1.215 . S
O629 Ho601 2.524 . S
O629 C612 1.289 . S
O630 Ho601 2.381 . S
O630 C619 1.275 . S
O631 Ho600 2.305 . S
O631 Ho601 2.669 . S
O631 C619 1.256 . S
H632 C605 0.930 . S
H633 C606 0.931 . S
H634 C608 0.934 . S
H635 C609 0.930 . S
H636 C614 0.930 . S
H637 C615 0.931 . S
H638 C617 0.934 . S
H639 C618 0.930 . S
H640 C648 0.950 . S
H641 C653 0.950 . S
H642 C650 0.950 . S
H643 C652 0.950 . S
H644 C654 0.950 . S
H645 C656 0.950 . S
H646 C658 0.950 . S
H647 C659 0.950 . S
C648 H640 0.950 . S
C648 C649 1.386 . S
C648 C650 1.391 . S
C649 C648 1.386 . S
C649 C653 1.393 . S
C650 H642 0.950 . S
C650 C648 1.391 . S
C650 C651 1.400 . S
C651 C650 1.400 . S
C651 C652 1.398 . S
C651 C657 1.491 . S
C652 H643 0.950 . S
C652 C651 1.398 . S
C652 C653 1.391 . S
C653 H641 0.950 . S
C653 C649 1.393 . S
C653 C652 1.391 . S
C654 H644 0.950 . S
C654 C655 1.386 . S
C654 C656 1.391 . S
C655 C654 1.386 . S
C655 C659 1.393 . S
C656 H645 0.950 . S
C656 C654 1.391 . S
C656 C657 1.400 . S
C657 C651 1.491 . S
C657 C656 1.400 . S
C657 C658 1.398 . S
C658 H646 0.950 . S
C658 C657 1.398 . S
C658 C659 1.391 . S
C659 H647 0.950 . S
C659 C655 1.393 . S
C659 C658 1.391 . S
H660 C668 0.950 . S
H661 C673 0.950 1_554 S
H662 C670 0.950 . S
H663 C672 0.950 . S
H664 C674 0.950 . S
H665 C676 0.950 . S
H666 C678 0.950 . S
H667 C679 0.950 . S
C668 H660 0.950 . S
C668 C669 1.386 . S
C668 C670 1.391 . S
C669 C668 1.386 . S
C669 C673 1.393 . S
C670 H662 0.950 . S
C670 C668 1.391 . S
C670 C671 1.400 . S
C671 C670 1.400 . S
C671 C672 1.398 . S
C671 C677 1.491 . S
C672 H663 0.950 . S
C672 C671 1.398 . S
C672 C673 1.391 . S
C673 H661 0.950 1_556 S
C673 C669 1.393 . S
C673 C672 1.391 . S
C674 H664 0.950 . S
C674 C675 1.386 . S
C674 C676 1.391 . S
C675 C674 1.386 . S
C675 C679 1.393 . S
C676 H665 0.950 . S
C676 C674 1.391 . S
C676 C677 1.400 . S
C677 C671 1.491 . S
C677 C676 1.400 . S
C677 C678 1.398 . S
C678 H666 0.950 . S
C678 C677 1.398 . S
C678 C679 1.391 . S
C679 H667 0.950 . S
C679 C675 1.393 . S
C679 C678 1.391 . S
H680 C688 0.950 . S
H681 C693 0.950 . S
H682 C690 0.950 . S
H683 C692 0.950 . S
H684 C694 0.950 1_556 S
H685 C696 0.950 . S
H686 C698 0.950 . S
H687 C699 0.950 . S
C688 H680 0.950 . S
C688 C689 1.386 . S
C688 C690 1.391 . S
C689 C688 1.386 . S
C689 C693 1.393 . S
C690 H682 0.950 . S
C690 C688 1.391 . S
C690 C691 1.400 . S
C691 C690 1.400 . S
C691 C692 1.398 . S
C691 C697 1.491 . S
C692 H683 0.950 . S
C692 C691 1.398 . S
C692 C693 1.391 . S
C693 H681 0.950 . S
C693 C689 1.393 . S
C693 C692 1.391 . S
C694 H684 0.950 1_554 S
C694 C695 1.386 . S
C694 C696 1.391 . S
C695 C694 1.386 . S
C695 C699 1.393 . S
C696 H685 0.950 . S
C696 C694 1.391 . S
C696 C697 1.400 . S
C697 C691 1.491 . S
C697 C696 1.400 . S
C697 C698 1.398 . S
C698 H686 0.950 . S
C698 C697 1.398 . S
C698 C699 1.391 . S
C699 H687 0.950 . S
C699 C695 1.393 . S
C699 C698 1.391 . S
H700 C708 0.950 . S
H701 C713 0.950 . S
H702 C710 0.950 . S
H703 C712 0.950 . S
H704 C714 0.950 . S
H705 C716 0.950 . S
H706 C718 0.950 . S
H707 C719 0.950 . S
C708 H700 0.950 . S
C708 C709 1.386 . S
C708 C710 1.391 . S
C709 C708 1.386 . S
C709 C713 1.393 . S
C710 H702 0.950 . S
C710 C708 1.391 . S
C710 C711 1.400 . S
C711 C710 1.400 . S
C711 C712 1.398 . S
C711 C717 1.491 . S
C712 H703 0.950 . S
C712 C711 1.398 . S
C712 C713 1.391 . S
C713 H701 0.950 . S
C713 C709 1.393 . S
C713 C712 1.391 . S
C714 H704 0.950 . S
C714 C715 1.386 . S
C714 C716 1.391 . S
C715 C714 1.386 . S
C715 C719 1.393 . S
C716 H705 0.950 . S
C716 C714 1.391 . S
C716 C717 1.400 . S
C717 C711 1.491 . S
C717 C716 1.400 . S
C717 C718 1.398 . S
C718 H706 0.950 . S
C718 C717 1.398 . S
C718 C719 1.391 . S
C719 H707 0.950 . S
C719 C715 1.393 . S
C719 C718 1.391 . S
H720 C728 0.950 . S
H721 C733 0.950 . S
H722 C730 0.950 . S
H723 C732 0.950 . S
H724 C734 0.950 . S
H725 C736 0.950 . S
H726 C738 0.950 . S
H727 C739 0.950 . S
C728 H720 0.950 . S
C728 C729 1.386 . S
C728 C730 1.391 . S
C729 C728 1.386 . S
C729 C733 1.393 . S
C730 H722 0.950 . S
C730 C728 1.391 . S
C730 C731 1.400 . S
C731 C730 1.400 . S
C731 C732 1.398 . S
C731 C737 1.491 . S
C732 H723 0.950 . S
C732 C731 1.398 . S
C732 C733 1.391 . S
C733 H721 0.950 . S
C733 C729 1.393 . S
C733 C732 1.391 . S
C734 H724 0.950 . S
C734 C735 1.386 . S
C734 C736 1.391 . S
C735 C734 1.386 . S
C735 C739 1.393 . S
C736 H725 0.950 . S
C736 C734 1.391 . S
C736 C737 1.400 . S
C737 C731 1.491 . S
C737 C736 1.400 . S
C737 C738 1.398 . S
C738 H726 0.950 . S
C738 C737 1.398 . S
C738 C739 1.391 . S
C739 H727 0.950 . S
C739 C735 1.393 . S
C739 C738 1.391 . S
H740 C748 0.950 . S
H741 C753 0.950 . S
H742 C750 0.950 . S
H743 C752 0.950 . S
H744 C754 0.950 . S
H745 C756 0.950 . S
H746 C758 0.950 . S
H747 C759 0.950 . S
C748 H740 0.950 . S
C748 C749 1.386 . S
C748 C750 1.391 . S
C749 C748 1.386 . S
C749 C753 1.393 . S
C750 H742 0.950 . S
C750 C748 1.391 . S
C750 C751 1.400 . S
C751 C750 1.400 . S
C751 C752 1.398 . S
C751 C757 1.491 . S
C752 H743 0.950 . S
C752 C751 1.398 . S
C752 C753 1.391 . S
C753 H741 0.950 . S
C753 C749 1.393 . S
C753 C752 1.391 . S
C754 H744 0.950 . S
C754 C755 1.386 . S
C754 C756 1.391 . S
C755 C754 1.386 . S
C755 C759 1.393 . S
C756 H745 0.950 . S
C756 C754 1.391 . S
C756 C757 1.400 . S
C757 C751 1.491 . S
C757 C756 1.400 . S
C757 C758 1.398 . S
C758 H746 0.950 . S
C758 C757 1.398 . S
C758 C759 1.391 . S
C759 H747 0.950 . S
C759 C755 1.393 . S
C759 C758 1.391 . S
H760 C768 0.950 . S
H761 C773 0.950 . S
H762 C770 0.950 . S
H763 C772 0.950 . S
H764 C774 0.950 . S
H765 C776 0.950 . S
H766 C778 0.950 . S
H767 C779 0.950 . S
C768 H760 0.950 . S
C768 C769 1.386 . S
C768 C770 1.391 . S
C769 C768 1.386 . S
C769 C773 1.393 . S
C770 H762 0.950 . S
C770 C768 1.391 . S
C770 C771 1.400 . S
C771 C770 1.400 . S
C771 C772 1.398 . S
C771 C777 1.491 . S
C772 H763 0.950 . S
C772 C771 1.398 . S
C772 C773 1.391 . S
C773 H761 0.950 . S
C773 C769 1.393 . S
C773 C772 1.391 . S
C774 H764 0.950 . S
C774 C775 1.386 . S
C774 C776 1.391 1_554 S
C775 C774 1.386 . S
C775 C779 1.393 . S
C776 H765 0.950 . S
C776 C774 1.391 1_556 S
C776 C777 1.400 . S
C777 C771 1.491 . S
C777 C776 1.400 . S
C777 C778 1.398 . S
C778 H766 0.950 . S
C778 C777 1.398 . S
C778 C779 1.391 1_556 S
C779 H767 0.950 . S
C779 C775 1.393 . S
C779 C778 1.391 1_554 S
H780 C788 0.950 1_556 S
H781 C793 0.950 1_556 S
H782 C790 0.950 . S
H783 C792 0.950 . S
H784 C794 0.950 . S
H785 C796 0.950 . S
H786 C798 0.950 . S
H787 C799 0.950 . S
C788 H780 0.950 1_554 S
C788 C789 1.386 1_554 S
C788 C790 1.391 . S
C789 C788 1.386 1_556 S
C789 C793 1.393 1_556 S
C790 H782 0.950 . S
C790 C788 1.391 . S
C790 C791 1.400 . S
C791 C790 1.400 . S
C791 C792 1.398 . S
C791 C797 1.491 . S
C792 H783 0.950 . S
C792 C791 1.398 . S
C792 C793 1.391 . S
C793 H781 0.950 1_554 S
C793 C789 1.393 1_554 S
C793 C792 1.391 . S
C794 H784 0.950 . S
C794 C795 1.386 . S
C794 C796 1.391 . S
C795 C794 1.386 . S
C795 C799 1.393 . S
C796 H785 0.950 . S
C796 C794 1.391 . S
C796 C797 1.400 . S
C797 C791 1.491 . S
C797 C796 1.400 . S
C797 C798 1.398 . S
C798 H786 0.950 . S
C798 C797 1.398 . S
C798 C799 1.391 . S
C799 H787 0.950 . S
C799 C795 1.393 . S
C799 C798 1.391 . S
H800 C808 0.950 . S
H801 C813 0.950 . S
H802 C810 0.950 . S
H803 C812 0.950 . S
H804 C814 0.950 . S
H805 C816 0.950 . S
H806 C818 0.950 . S
H807 C819 0.950 . S
C808 H800 0.950 . S
C808 C809 1.386 . S
C808 C810 1.391 . S
C809 C808 1.386 . S
C809 C813 1.393 . S
C810 H802 0.950 . S
C810 C808 1.391 . S
C810 C811 1.400 . S
C811 C810 1.400 . S
C811 C812 1.398 . S
C811 C817 1.491 . S
C812 H803 0.950 . S
C812 C811 1.398 . S
C812 C813 1.391 . S
C813 H801 0.950 . S
C813 C809 1.393 . S
C813 C812 1.391 . S
C814 H804 0.950 . S
C814 C815 1.386 . S
C814 C816 1.391 . S
C815 C814 1.386 . S
C815 C819 1.393 . S
C816 H805 0.950 . S
C816 C814 1.391 . S
C816 C817 1.400 . S
C817 C811 1.491 . S
C817 C816 1.400 . S
C817 C818 1.398 . S
C818 H806 0.950 . S
C818 C817 1.398 . S
C818 C819 1.391 . S
C819 H807 0.950 . S
C819 C815 1.393 . S
C819 C818 1.391 . S
H820 C828 0.950 . S
H821 C833 0.950 . S
H822 C830 0.950 . S
H823 C832 0.950 . S
H824 C834 0.950 . S
H825 C836 0.950 . S
H826 C838 0.950 . S
H827 C839 0.950 . S
C828 H820 0.950 . S
C828 C829 1.386 . S
C828 C830 1.391 . S
C829 C828 1.386 . S
C829 C833 1.393 . S
C830 H822 0.950 . S
C830 C828 1.391 . S
C830 C831 1.400 . S
C831 C830 1.400 . S
C831 C832 1.398 . S
C831 C837 1.491 . S
C832 H823 0.950 . S
C832 C831 1.398 . S
C832 C833 1.391 . S
C833 H821 0.950 . S
C833 C829 1.393 . S
C833 C832 1.391 . S
C834 H824 0.950 . S
C834 C835 1.386 . S
C834 C836 1.391 1_556 S
C835 C834 1.386 . S
C835 C839 1.393 1_556 S
C836 H825 0.950 . S
C836 C834 1.391 1_554 S
C836 C837 1.400 . S
C837 C831 1.491 . S
C837 C836 1.400 . S
C837 C838 1.398 . S
C838 H826 0.950 . S
C838 C837 1.398 . S
C838 C839 1.391 . S
C839 H827 0.950 . S
C839 C835 1.393 1_554 S
C839 C838 1.391 . S
H840 C848 0.950 1_554 S
H841 C853 0.950 . S
H842 C850 0.950 . S
H843 C852 0.950 . S
H844 C854 0.950 . S
H845 C856 0.950 . S
H846 C858 0.950 . S
H847 C859 0.950 . S
C848 H840 0.950 1_556 S
C848 C849 1.386 1_556 S
C848 C850 1.391 . S
C849 C848 1.386 1_554 S
C849 C853 1.393 1_554 S
C850 H842 0.950 . S
C850 C848 1.391 . S
C850 C851 1.400 . S
C851 C850 1.400 . S
C851 C852 1.398 . S
C851 C857 1.491 . S
C852 H843 0.950 . S
C852 C851 1.398 . S
C852 C853 1.391 . S
C853 H841 0.950 . S
C853 C849 1.393 1_556 S
C853 C852 1.391 . S
C854 H844 0.950 . S
C854 C855 1.386 . S
C854 C856 1.391 . S
C855 C854 1.386 . S
C855 C859 1.393 . S
C856 H845 0.950 . S
C856 C854 1.391 . S
C856 C857 1.400 . S
C857 C851 1.491 . S
C857 C856 1.400 . S
C857 C858 1.398 . S
C858 H846 0.950 . S
C858 C857 1.398 . S
C858 C859 1.391 . S
C859 H847 0.950 . S
C859 C855 1.393 . S
C859 C858 1.391 . S
H860 C868 0.950 . S
H861 C873 0.950 . S
H862 C870 0.950 . S
H863 C872 0.950 . S
H864 C874 0.950 . S
H865 C876 0.950 . S
H866 C878 0.950 . S
H867 C879 0.950 . S
C868 H860 0.950 . S
C868 C869 1.386 . S
C868 C870 1.391 . S
C869 C868 1.386 . S
C869 C873 1.393 . S
C870 H862 0.950 . S
C870 C868 1.391 . S
C870 C871 1.400 . S
C871 C870 1.400 . S
C871 C872 1.398 . S
C871 C877 1.491 . S
C872 H863 0.950 . S
C872 C871 1.398 . S
C872 C873 1.391 . S
C873 H861 0.950 . S
C873 C869 1.393 . S
C873 C872 1.391 . S
C874 H864 0.950 . S
C874 C875 1.386 . S
C874 C876 1.391 . S
C875 C874 1.386 . S
C875 C879 1.393 . S
C876 H865 0.950 . S
C876 C874 1.391 . S
C876 C877 1.400 . S
C877 C871 1.491 . S
C877 C876 1.400 . S
C877 C878 1.398 . S
C878 H866 0.950 . S
C878 C877 1.398 . S
C878 C879 1.391 . S
C879 H867 0.950 . S
C879 C875 1.393 . S
C879 C878 1.391 . S
H880 C888 0.950 . S
H881 C893 0.950 . S
H882 C890 0.950 . S
H883 C892 0.950 . S
H884 C894 0.950 . S
H885 C896 0.950 . S
H886 C898 0.950 . S
H887 C899 0.950 . S
C888 H880 0.950 . S
C888 C889 1.386 . S
C888 C890 1.391 . S
C889 C888 1.386 . S
C889 C893 1.393 . S
C890 H882 0.950 . S
C890 C888 1.391 . S
C890 C891 1.400 . S
C891 C890 1.400 . S
C891 C892 1.398 . S
C891 C897 1.491 . S
C892 H883 0.950 . S
C892 C891 1.398 . S
C892 C893 1.391 . S
C893 H881 0.950 . S
C893 C889 1.393 . S
C893 C892 1.391 . S
C894 H884 0.950 . S
C894 C895 1.386 . S
C894 C896 1.391 . S
C895 C894 1.386 . S
C895 C899 1.393 . S
C896 H885 0.950 . S
C896 C894 1.391 . S
C896 C897 1.400 . S
C897 C891 1.491 . S
C897 C896 1.400 . S
C897 C898 1.398 . S
C898 H886 0.950 . S
C898 C897 1.398 . S
C898 C899 1.391 . S
C899 H887 0.950 . S
C899 C895 1.393 . S
C899 C898 1.391 . S
H900 C908 0.950 . S
H901 C913 0.950 . S
H902 C910 0.950 . S
H903 C912 0.950 . S
H904 C914 0.950 . S
H905 C916 0.950 . S
H906 C918 0.950 . S
H907 C919 0.950 . S
C908 H900 0.950 . S
C908 C909 1.386 . S
C908 C910 1.391 . S
C909 C908 1.386 . S
C909 C913 1.393 . S
C910 H902 0.950 . S
C910 C908 1.391 . S
C910 C911 1.400 . S
C911 C910 1.400 . S
C911 C912 1.398 . S
C911 C917 1.491 . S
C912 H903 0.950 . S
C912 C911 1.398 . S
C912 C913 1.391 . S
C913 H901 0.950 . S
C913 C909 1.393 . S
C913 C912 1.391 . S
C914 H904 0.950 . S
C914 C915 1.386 . S
C914 C916 1.391 . S
C915 C914 1.386 . S
C915 C919 1.393 . S
C916 H905 0.950 . S
C916 C914 1.391 . S
C916 C917 1.400 . S
C917 C911 1.491 . S
C917 C916 1.400 . S
C917 C918 1.398 . S
C918 H906 0.950 . S
C918 C917 1.398 . S
C918 C919 1.391 . S
C919 H907 0.950 . S
C919 C915 1.393 . S
C919 C918 1.391 . S
H920 C928 0.950 . S
H921 C933 0.950 . S
H922 C930 0.950 . S
H923 C932 0.950 . S
H924 C934 0.950 . S
H925 C936 0.950 . S
H926 C938 0.950 . S
H927 C939 0.950 . S
C928 H920 0.950 . S
C928 C929 1.386 . S
C928 C930 1.391 . S
C929 C928 1.386 . S
C929 C933 1.393 . S
C930 H922 0.950 . S
C930 C928 1.391 . S
C930 C931 1.400 . S
C931 C930 1.400 . S
C931 C932 1.398 . S
C931 C937 1.491 . S
C932 H923 0.950 . S
C932 C931 1.398 . S
C932 C933 1.391 . S
C933 H921 0.950 . S
C933 C929 1.393 . S
C933 C932 1.391 . S
C934 H924 0.950 . S
C934 C935 1.386 . S
C934 C936 1.391 1_556 S
C935 C934 1.386 . S
C935 C939 1.393 . S
C936 H925 0.950 . S
C936 C934 1.391 1_554 S
C936 C937 1.400 . S
C937 C931 1.491 . S
C937 C936 1.400 . S
C937 C938 1.398 . S
C938 H926 0.950 . S
C938 C937 1.398 . S
C938 C939 1.391 1_554 S
C939 H927 0.950 . S
C939 C935 1.393 . S
C939 C938 1.391 1_556 S
H940 C948 0.950 . S
H941 C953 0.950 1_554 S
H942 C950 0.950 . S
H943 C952 0.950 . S
H944 C954 0.950 . S
H945 C956 0.950 . S
H946 C958 0.950 . S
H947 C959 0.950 . S
C948 H940 0.950 . S
C948 C949 1.386 . S
C948 C950 1.391 . S
C949 C948 1.386 . S
C949 C953 1.393 . S
C950 H942 0.950 . S
C950 C948 1.391 . S
C950 C951 1.400 . S
C951 C950 1.400 . S
C951 C952 1.398 . S
C951 C957 1.491 . S
C952 H943 0.950 . S
C952 C951 1.398 . S
C952 C953 1.391 . S
C953 H941 0.950 1_556 S
C953 C949 1.393 . S
C953 C952 1.391 . S
C954 H944 0.950 . S
C954 C955 1.386 . S
C954 C956 1.391 . S
C955 C954 1.386 . S
C955 C959 1.393 . S
C956 H945 0.950 . S
C956 C954 1.391 . S
C956 C957 1.400 . S
C957 C951 1.491 . S
C957 C956 1.400 . S
C957 C958 1.398 . S
C958 H946 0.950 . S
C958 C957 1.398 . S
C958 C959 1.391 . S
C959 H947 0.950 . S
C959 C955 1.393 . S
C959 C958 1.391 . S
H960 C968 0.950 . S
H961 C973 0.950 . S
H962 C970 0.950 . S
H963 C972 0.950 . S
H964 C974 0.950 . S
H965 C976 0.950 . S
H966 C978 0.950 . S
H967 C979 0.950 . S
C968 H960 0.950 . S
C968 C969 1.386 . S
C968 C970 1.391 . S
C969 C968 1.386 . S
C969 C973 1.393 . S
C970 H962 0.950 . S
C970 C968 1.391 . S
C970 C971 1.400 . S
C971 C970 1.400 . S
C971 C972 1.398 . S
C971 C977 1.491 . S
C972 H963 0.950 . S
C972 C971 1.398 . S
C972 C973 1.391 . S
C973 H961 0.950 . S
C973 C969 1.393 . S
C973 C972 1.391 . S
C974 H964 0.950 . S
C974 C975 1.386 . S
C974 C976 1.391 . S
C975 C974 1.386 . S
C975 C979 1.393 . S
C976 H965 0.950 . S
C976 C974 1.391 . S
C976 C977 1.400 . S
C977 C971 1.491 . S
C977 C976 1.400 . S
C977 C978 1.398 . S
C978 H966 0.950 . S
C978 C977 1.398 . S
C978 C979 1.391 . S
C979 H967 0.950 . S
C979 C975 1.393 . S
C979 C978 1.391 . S
H980 C988 0.950 . S
H981 C993 0.950 . S
H982 C990 0.950 . S
H983 C992 0.950 . S
H984 C994 0.950 . S
H985 C996 0.950 . S
H986 C998 0.950 . S
H987 C999 0.950 . S
C988 H980 0.950 . S
C988 C989 1.386 . S
C988 C990 1.391 . S
C989 C988 1.386 . S
C989 C993 1.393 . S
C990 H982 0.950 . S
C990 C988 1.391 . S
C990 C991 1.400 . S
C991 C990 1.400 . S
C991 C992 1.398 . S
C991 C997 1.491 . S
C992 H983 0.950 . S
C992 C991 1.398 . S
C992 C993 1.391 . S
C993 H981 0.950 . S
C993 C989 1.393 . S
C993 C992 1.391 . S
C994 H984 0.950 . S
C994 C995 1.386 . S
C994 C996 1.391 . S
C995 C994 1.386 . S
C995 C999 1.393 . S
C996 H985 0.950 . S
C996 C994 1.391 . S
C996 C997 1.400 . S
C997 C991 1.491 . S
C997 C996 1.400 . S
C997 C998 1.398 . S
C998 H986 0.950 . S
C998 C997 1.398 . S
C998 C999 1.391 . S
C999 H987 0.950 . S
C999 C995 1.393 . S
C999 C998 1.391 . S
H1000 C1008 0.950 . S
H1001 C1013 0.950 . S
H1002 C1010 0.950 . S
H1003 C1012 0.950 . S
H1004 C1014 0.950 . S
H1005 C1016 0.950 . S
H1006 C1018 0.950 . S
H1007 C1019 0.950 . S
C1008 H1000 0.950 . S
C1008 C1009 1.386 . S
C1008 C1010 1.391 . S
C1009 C1008 1.386 . S
C1009 C1013 1.393 . S
C1010 H1002 0.950 . S
C1010 C1008 1.391 . S
C1010 C1011 1.400 . S
C1011 C1010 1.400 . S
C1011 C1012 1.398 . S
C1011 C1017 1.491 . S
C1012 H1003 0.950 . S
C1012 C1011 1.398 . S
C1012 C1013 1.391 . S
C1013 H1001 0.950 . S
C1013 C1009 1.393 . S
C1013 C1012 1.391 . S
C1014 H1004 0.950 . S
C1014 C1015 1.386 . S
C1014 C1016 1.391 . S
C1015 C1014 1.386 . S
C1015 C1019 1.393 . S
C1016 H1005 0.950 . S
C1016 C1014 1.391 . S
C1016 C1017 1.400 . S
C1017 C1011 1.491 . S
C1017 C1016 1.400 . S
C1017 C1018 1.398 . S
C1018 H1006 0.950 . S
C1018 C1017 1.398 . S
C1018 C1019 1.391 . S
C1019 H1007 0.950 . S
C1019 C1015 1.393 . S
C1019 C1018 1.391 . S
H1020 C1028 0.950 . S
H1021 C1033 0.950 . S
H1022 C1030 0.950 . S
H1023 C1032 0.950 . S
H1024 C1034 0.950 . S
H1025 C1036 0.950 . S
H1026 C1038 0.950 . S
H1027 C1039 0.950 . S
C1028 H1020 0.950 . S
C1028 C1029 1.386 . S
C1028 C1030 1.391 . S
C1029 C1028 1.386 . S
C1029 C1033 1.393 . S
C1030 H1022 0.950 . S
C1030 C1028 1.391 . S
C1030 C1031 1.400 . S
C1031 C1030 1.400 . S
C1031 C1032 1.398 . S
C1031 C1037 1.491 1_655 S
C1032 H1023 0.950 . S
C1032 C1031 1.398 . S
C1032 C1033 1.391 . S
C1033 H1021 0.950 . S
C1033 C1029 1.393 . S
C1033 C1032 1.391 . S
C1034 H1024 0.950 . S
C1034 C1035 1.386 . S
C1034 C1036 1.391 . S
C1035 C1034 1.386 . S
C1035 C1039 1.393 . S
C1036 H1025 0.950 . S
C1036 C1034 1.391 . S
C1036 C1037 1.400 . S
C1037 C1031 1.491 1_455 S
C1037 C1036 1.400 . S
C1037 C1038 1.398 . S
C1038 H1026 0.950 . S
C1038 C1037 1.398 . S
C1038 C1039 1.391 . S
C1039 H1027 0.950 . S
C1039 C1035 1.393 . S
C1039 C1038 1.391 . S
H1040 C1048 0.950 . S
H1041 C1053 0.950 . S
H1042 C1050 0.950 . S
H1043 C1052 0.950 . S
H1044 C1054 0.950 . S
H1045 C1056 0.950 . S
H1046 C1058 0.950 . S
H1047 C1059 0.950 . S
C1048 H1040 0.950 . S
C1048 C1049 1.386 . S
C1048 C1050 1.391 . S
C1049 C1048 1.386 . S
C1049 C1053 1.393 . S
C1050 H1042 0.950 . S
C1050 C1048 1.391 . S
C1050 C1051 1.400 . S
C1051 C1050 1.400 . S
C1051 C1052 1.398 . S
C1051 C1057 1.491 . S
C1052 H1043 0.950 . S
C1052 C1051 1.398 . S
C1052 C1053 1.391 . S
C1053 H1041 0.950 . S
C1053 C1049 1.393 . S
C1053 C1052 1.391 . S
C1054 H1044 0.950 . S
C1054 C1055 1.386 . S
C1054 C1056 1.391 . S
C1055 C1054 1.386 . S
C1055 C1059 1.393 . S
C1056 H1045 0.950 . S
C1056 C1054 1.391 . S
C1056 C1057 1.400 . S
C1057 C1051 1.491 . S
C1057 C1056 1.400 . S
C1057 C1058 1.398 . S
C1058 H1046 0.950 . S
C1058 C1057 1.398 . S
C1058 C1059 1.391 . S
C1059 H1047 0.950 . S
C1059 C1055 1.393 . S
C1059 C1058 1.391 . S
H1060 C1068 0.950 . S
H1061 C1073 0.950 . S
H1062 C1070 0.950 . S
H1063 C1072 0.950 . S
H1064 C1074 0.950 . S
H1065 C1076 0.950 . S
H1066 C1078 0.950 . S
H1067 C1079 0.950 . S
C1068 H1060 0.950 . S
C1068 C1069 1.386 . S
C1068 C1070 1.391 . S
C1069 C1068 1.386 . S
C1069 C1073 1.393 . S
C1070 H1062 0.950 . S
C1070 C1068 1.391 . S
C1070 C1071 1.400 . S
C1071 C1070 1.400 . S
C1071 C1072 1.398 . S
C1071 C1077 1.491 1_455 S
C1072 H1063 0.950 . S
C1072 C1071 1.398 . S
C1072 C1073 1.391 . S
C1073 H1061 0.950 . S
C1073 C1069 1.393 . S
C1073 C1072 1.391 . S
C1074 H1064 0.950 . S
C1074 C1075 1.386 . S
C1074 C1076 1.391 . S
C1075 C1074 1.386 . S
C1075 C1079 1.393 . S
C1076 H1065 0.950 . S
C1076 C1074 1.391 . S
C1076 C1077 1.400 . S
C1077 C1071 1.491 1_655 S
C1077 C1076 1.400 . S
C1077 C1078 1.398 . S
C1078 H1066 0.950 . S
C1078 C1077 1.398 . S
C1078 C1079 1.391 . S
C1079 H1067 0.950 . S
C1079 C1075 1.393 . S
C1079 C1078 1.391 . S
H1080 C1088 0.950 . S
H1081 C1093 0.950 . S
H1082 C1090 0.950 . S
H1083 C1092 0.950 . S
H1084 C1094 0.950 . S
H1085 C1096 0.950 . S
H1086 C1098 0.950 . S
H1087 C1099 0.950 . S
C1088 H1080 0.950 . S
C1088 C1089 1.386 . S
C1088 C1090 1.391 . S
C1089 C1088 1.386 . S
C1089 C1093 1.393 . S
C1090 H1082 0.950 . S
C1090 C1088 1.391 . S
C1090 C1091 1.400 . S
C1091 C1090 1.400 . S
C1091 C1092 1.398 . S
C1091 C1097 1.491 . S
C1092 H1083 0.950 . S
C1092 C1091 1.398 . S
C1092 C1093 1.391 . S
C1093 H1081 0.950 . S
C1093 C1089 1.393 . S
C1093 C1092 1.391 . S
C1094 H1084 0.950 . S
C1094 C1095 1.386 . S
C1094 C1096 1.391 . S
C1095 C1094 1.386 . S
C1095 C1099 1.393 . S
C1096 H1085 0.950 . S
C1096 C1094 1.391 . S
C1096 C1097 1.400 . S
C1097 C1091 1.491 . S
C1097 C1096 1.400 . S
C1097 C1098 1.398 . S
C1098 H1086 0.950 . S
C1098 C1097 1.398 . S
C1098 C1099 1.391 . S
C1099 H1087 0.950 . S
C1099 C1095 1.393 . S
C1099 C1098 1.391 . S
H1100 C1108 0.950 . S
H1101 C1113 0.950 . S
H1102 C1110 0.950 . S
H1103 C1112 0.950 . S
H1104 C1114 0.950 . S
H1105 C1116 0.950 . S
H1106 C1118 0.950 . S
H1107 C1119 0.950 . S
C1108 H1100 0.950 . S
C1108 C1109 1.386 . S
C1108 C1110 1.391 . S
C1109 C1108 1.386 . S
C1109 C1113 1.393 . S
C1110 H1102 0.950 . S
C1110 C1108 1.391 . S
C1110 C1111 1.400 . S
C1111 C1110 1.400 . S
C1111 C1112 1.398 . S
C1111 C1117 1.491 . S
C1112 H1103 0.950 . S
C1112 C1111 1.398 . S
C1112 C1113 1.391 . S
C1113 H1101 0.950 . S
C1113 C1109 1.393 . S
C1113 C1112 1.391 . S
C1114 H1104 0.950 . S
C1114 C1115 1.386 . S
C1114 C1116 1.391 . S
C1115 C1114 1.386 . S
C1115 C1119 1.393 . S
C1116 H1105 0.950 . S
C1116 C1114 1.391 . S
C1116 C1117 1.400 . S
C1117 C1111 1.491 . S
C1117 C1116 1.400 . S
C1117 C1118 1.398 . S
C1118 H1106 0.950 . S
C1118 C1117 1.398 . S
C1118 C1119 1.391 . S
C1119 H1107 0.950 . S
C1119 C1115 1.393 . S
C1119 C1118 1.391 . S
H1120 C1128 0.950 . S
H1121 C1133 0.950 . S
H1122 C1130 0.950 . S
H1123 C1132 0.950 . S
H1124 C1134 0.950 . S
H1125 C1136 0.950 . S
H1126 C1138 0.950 . S
H1127 C1139 0.950 . S
C1128 H1120 0.950 . S
C1128 C1129 1.386 . S
C1128 C1130 1.391 . S
C1129 C1128 1.386 . S
C1129 C1133 1.393 . S
C1130 H1122 0.950 . S
C1130 C1128 1.391 . S
C1130 C1131 1.400 . S
C1131 C1130 1.400 . S
C1131 C1132 1.398 . S
C1131 C1137 1.491 . S
C1132 H1123 0.950 . S
C1132 C1131 1.398 . S
C1132 C1133 1.391 . S
C1133 H1121 0.950 . S
C1133 C1129 1.393 . S
C1133 C1132 1.391 . S
C1134 H1124 0.950 . S
C1134 C1135 1.386 . S
C1134 C1136 1.391 . S
C1135 C1134 1.386 . S
C1135 C1139 1.393 . S
C1136 H1125 0.950 . S
C1136 C1134 1.391 . S
C1136 C1137 1.400 . S
C1137 C1131 1.491 . S
C1137 C1136 1.400 . S
C1137 C1138 1.398 . S
C1138 H1126 0.950 . S
C1138 C1137 1.398 . S
C1138 C1139 1.391 . S
C1139 H1127 0.950 . S
C1139 C1135 1.393 . S
C1139 C1138 1.391 . S
H1140 C1148 0.950 . S
H1141 C1153 0.950 . S
H1142 C1150 0.950 . S
H1143 C1152 0.950 . S
H1144 C1154 0.950 . S
H1145 C1156 0.950 . S
H1146 C1158 0.950 . S
H1147 C1159 0.950 . S
C1148 H1140 0.950 . S
C1148 C1149 1.386 . S
C1148 C1150 1.391 . S
C1149 C1148 1.386 . S
C1149 C1153 1.393 . S
C1150 H1142 0.950 . S
C1150 C1148 1.391 . S
C1150 C1151 1.400 . S
C1151 C1150 1.400 . S
C1151 C1152 1.398 . S
C1151 C1157 1.491 . S
C1152 H1143 0.950 . S
C1152 C1151 1.398 . S
C1152 C1153 1.391 . S
C1153 H1141 0.950 . S
C1153 C1149 1.393 . S
C1153 C1152 1.391 . S
C1154 H1144 0.950 . S
C1154 C1155 1.386 . S
C1154 C1156 1.391 . S
C1155 C1154 1.386 . S
C1155 C1159 1.393 . S
C1156 H1145 0.950 . S
C1156 C1154 1.391 . S
C1156 C1157 1.400 . S
C1157 C1151 1.491 . S
C1157 C1156 1.400 . S
C1157 C1158 1.398 . S
C1158 H1146 0.950 . S
C1158 C1157 1.398 . S
C1158 C1159 1.391 . S
C1159 H1147 0.950 . S
C1159 C1155 1.393 . S
C1159 C1158 1.391 . S
H1160 C1168 0.950 . S
H1161 C1173 0.950 . S
H1162 C1170 0.950 . S
H1163 C1172 0.950 . S
H1164 C1174 0.950 . S
H1165 C1176 0.950 . S
H1166 C1178 0.950 . S
H1167 C1179 0.950 . S
C1168 H1160 0.950 . S
C1168 C1169 1.386 . S
C1168 C1170 1.391 . S
C1169 C1168 1.386 . S
C1169 C1173 1.393 . S
C1170 H1162 0.950 . S
C1170 C1168 1.391 . S
C1170 C1171 1.400 . S
C1171 C1170 1.400 . S
C1171 C1172 1.398 . S
C1171 C1177 1.491 . S
C1172 H1163 0.950 . S
C1172 C1171 1.398 . S
C1172 C1173 1.391 . S
C1173 H1161 0.950 . S
C1173 C1169 1.393 . S
C1173 C1172 1.391 . S
C1174 H1164 0.950 . S
C1174 C1175 1.386 . S
C1174 C1176 1.391 . S
C1175 C1174 1.386 . S
C1175 C1179 1.393 . S
C1176 H1165 0.950 . S
C1176 C1174 1.391 . S
C1176 C1177 1.400 . S
C1177 C1171 1.491 . S
C1177 C1176 1.400 . S
C1177 C1178 1.398 . S
C1178 H1166 0.950 . S
C1178 C1177 1.398 . S
C1178 C1179 1.391 . S
C1179 H1167 0.950 . S
C1179 C1175 1.393 . S
C1179 C1178 1.391 . S
H1180 C1188 0.950 . S
H1181 C1193 0.950 . S
H1182 C1190 0.950 . S
H1183 C1192 0.950 . S
H1184 C1194 0.950 . S
H1185 C1196 0.950 . S
H1186 C1198 0.950 . S
H1187 C1199 0.950 . S
C1188 H1180 0.950 . S
C1188 C1189 1.386 . S
C1188 C1190 1.391 . S
C1189 C1188 1.386 . S
C1189 C1193 1.393 . S
C1190 H1182 0.950 . S
C1190 C1188 1.391 . S
C1190 C1191 1.400 . S
C1191 C1190 1.400 . S
C1191 C1192 1.398 . S
C1191 C1197 1.491 . S
C1192 H1183 0.950 . S
C1192 C1191 1.398 . S
C1192 C1193 1.391 . S
C1193 H1181 0.950 . S
C1193 C1189 1.393 . S
C1193 C1192 1.391 . S
C1194 H1184 0.950 . S
C1194 C1195 1.386 . S
C1194 C1196 1.391 . S
C1195 C1194 1.386 . S
C1195 C1199 1.393 . S
C1196 H1185 0.950 . S
C1196 C1194 1.391 . S
C1196 C1197 1.400 . S
C1197 C1191 1.491 . S
C1197 C1196 1.400 . S
C1197 C1198 1.398 . S
C1198 H1186 0.950 . S
C1198 C1197 1.398 . S
C1198 C1199 1.391 . S
C1199 H1187 0.950 . S
C1199 C1195 1.393 . S
C1199 C1198 1.391 . S
H1200 C1208 0.950 . S
H1201 C1213 0.950 . S
H1202 C1210 0.950 . S
H1203 C1212 0.950 1_554 S
H1204 C1214 0.950 1_554 S
H1205 C1216 0.950 1_554 S
H1206 C1218 0.950 . S
H1207 C1219 0.950 . S
C1208 H1200 0.950 . S
C1208 C1209 1.386 . S
C1208 C1210 1.391 . S
C1209 C1208 1.386 . S
C1209 C1213 1.393 . S
C1210 H1202 0.950 . S
C1210 C1208 1.391 . S
C1210 C1211 1.400 . S
C1211 C1210 1.400 . S
C1211 C1212 1.398 . S
C1211 C1217 1.491 1_655 S
C1212 H1203 0.950 1_556 S
C1212 C1211 1.398 . S
C1212 C1213 1.391 . S
C1213 H1201 0.950 . S
C1213 C1209 1.393 . S
C1213 C1212 1.391 . S
C1214 H1204 0.950 1_556 S
C1214 C1215 1.386 . S
C1214 C1216 1.391 . S
C1215 C1214 1.386 . S
C1215 C1219 1.393 . S
C1216 H1205 0.950 1_556 S
C1216 C1214 1.391 . S
C1216 C1217 1.400 . S
C1217 C1211 1.491 1_455 S
C1217 C1216 1.400 . S
C1217 C1218 1.398 . S
C1218 H1206 0.950 . S
C1218 C1217 1.398 . S
C1218 C1219 1.391 . S
C1219 H1207 0.950 . S
C1219 C1215 1.393 . S
C1219 C1218 1.391 . S
H1220 C1228 0.950 . S
H1221 C1233 0.950 . S
H1222 C1230 0.950 . S
H1223 C1232 0.950 . S
H1224 C1234 0.950 . S
H1225 C1236 0.950 . S
H1226 C1238 0.950 . S
H1227 C1239 0.950 . S
C1228 H1220 0.950 . S
C1228 C1229 1.386 . S
C1228 C1230 1.391 . S
C1229 C1228 1.386 . S
C1229 C1233 1.393 . S
C1230 H1222 0.950 . S
C1230 C1228 1.391 . S
C1230 C1231 1.400 . S
C1231 C1230 1.400 . S
C1231 C1232 1.398 . S
C1231 C1237 1.491 . S
C1232 H1223 0.950 . S
C1232 C1231 1.398 . S
C1232 C1233 1.391 . S
C1233 H1221 0.950 . S
C1233 C1229 1.393 . S
C1233 C1232 1.391 . S
C1234 H1224 0.950 . S
C1234 C1235 1.386 . S
C1234 C1236 1.391 . S
C1235 C1234 1.386 . S
C1235 C1239 1.393 . S
C1236 H1225 0.950 . S
C1236 C1234 1.391 . S
C1236 C1237 1.400 . S
C1237 C1231 1.491 . S
C1237 C1236 1.400 . S
C1237 C1238 1.398 . S
C1238 H1226 0.950 . S
C1238 C1237 1.398 . S
C1238 C1239 1.391 . S
C1239 H1227 0.950 . S
C1239 C1235 1.393 . S
C1239 C1238 1.391 . S
H1240 C1248 0.950 . S
H1241 C1253 0.950 . S
H1242 C1250 0.950 . S
H1243 C1252 0.950 . S
H1244 C1254 0.950 . S
H1245 C1256 0.950 . S
H1246 C1258 0.950 . S
H1247 C1259 0.950 . S
C1248 H1240 0.950 . S
C1248 C1249 1.386 . S
C1248 C1250 1.391 . S
C1249 C1248 1.386 . S
C1249 C1253 1.393 . S
C1250 H1242 0.950 . S
C1250 C1248 1.391 . S
C1250 C1251 1.400 . S
C1251 C1250 1.400 . S
C1251 C1252 1.398 . S
C1251 C1257 1.491 . S
C1252 H1243 0.950 . S
C1252 C1251 1.398 . S
C1252 C1253 1.391 . S
C1253 H1241 0.950 . S
C1253 C1249 1.393 . S
C1253 C1252 1.391 . S
C1254 H1244 0.950 . S
C1254 C1255 1.386 . S
C1254 C1256 1.391 . S
C1255 C1254 1.386 . S
C1255 C1259 1.393 . S
C1256 H1245 0.950 . S
C1256 C1254 1.391 . S
C1256 C1257 1.400 . S
C1257 C1251 1.491 . S
C1257 C1256 1.400 . S
C1257 C1258 1.398 . S
C1258 H1246 0.950 . S
C1258 C1257 1.398 . S
C1258 C1259 1.391 . S
C1259 H1247 0.950 . S
C1259 C1255 1.393 . S
C1259 C1258 1.391 . S
H1260 C1268 0.950 . S
H1261 C1273 0.950 . S
H1262 C1270 0.950 . S
H1263 C1272 0.950 . S
H1264 C1274 0.950 . S
H1265 C1276 0.950 . S
H1266 C1278 0.950 . S
H1267 C1279 0.950 . S
C1268 H1260 0.950 . S
C1268 C1269 1.386 . S
C1268 C1270 1.391 . S
C1269 C1268 1.386 . S
C1269 C1273 1.393 . S
C1270 H1262 0.950 . S
C1270 C1268 1.391 . S
C1270 C1271 1.400 . S
C1271 C1270 1.400 . S
C1271 C1272 1.398 . S
C1271 C1277 1.491 1_455 S
C1272 H1263 0.950 . S
C1272 C1271 1.398 . S
C1272 C1273 1.391 . S
C1273 H1261 0.950 . S
C1273 C1269 1.393 . S
C1273 C1272 1.391 . S
C1274 H1264 0.950 . S
C1274 C1275 1.386 . S
C1274 C1276 1.391 . S
C1275 C1274 1.386 . S
C1275 C1279 1.393 . S
C1276 H1265 0.950 . S
C1276 C1274 1.391 . S
C1276 C1277 1.400 . S
C1277 C1271 1.491 1_655 S
C1277 C1276 1.400 . S
C1277 C1278 1.398 . S
C1278 H1266 0.950 . S
C1278 C1277 1.398 . S
C1278 C1279 1.391 . S
C1279 H1267 0.950 . S
C1279 C1275 1.393 . S
C1279 C1278 1.391 . S
H1280 C1288 0.950 . S
H1281 C1293 0.950 . S
H1282 C1290 0.950 . S
H1283 C1292 0.950 1_556 S
H1284 C1294 0.950 . S
H1285 C1296 0.950 . S
H1286 C1298 0.950 . S
H1287 C1299 0.950 . S
C1288 H1280 0.950 . S
C1288 C1289 1.386 . S
C1288 C1290 1.391 . S
C1289 C1288 1.386 . S
C1289 C1293 1.393 . S
C1290 H1282 0.950 . S
C1290 C1288 1.391 . S
C1290 C1291 1.400 . S
C1291 C1290 1.400 . S
C1291 C1292 1.398 . S
C1291 C1297 1.491 . S
C1292 H1283 0.950 1_554 S
C1292 C1291 1.398 . S
C1292 C1293 1.391 . S
C1293 H1281 0.950 . S
C1293 C1289 1.393 . S
C1293 C1292 1.391 . S
C1294 H1284 0.950 . S
C1294 C1295 1.386 . S
C1294 C1296 1.391 . S
C1295 C1294 1.386 . S
C1295 C1299 1.393 1_556 S
C1296 H1285 0.950 . S
C1296 C1294 1.391 . S
C1296 C1297 1.400 1_556 S
C1297 C1291 1.491 . S
C1297 C1296 1.400 1_554 S
C1297 C1298 1.398 . S
C1298 H1286 0.950 . S
C1298 C1297 1.398 . S
C1298 C1299 1.391 . S
C1299 H1287 0.950 . S
C1299 C1295 1.393 1_554 S
C1299 C1298 1.391 . S
H1300 C1308 0.950 . S
H1301 C1313 0.950 . S
H1302 C1310 0.950 . S
H1303 C1312 0.950 . S
H1304 C1314 0.950 . S
H1305 C1316 0.950 . S
H1306 C1318 0.950 . S
H1307 C1319 0.950 . S
C1308 H1300 0.950 . S
C1308 C1309 1.386 . S
C1308 C1310 1.391 . S
C1309 C1308 1.386 . S
C1309 C1313 1.393 . S
C1310 H1302 0.950 . S
C1310 C1308 1.391 . S
C1310 C1311 1.400 . S
C1311 C1310 1.400 . S
C1311 C1312 1.398 . S
C1311 C1317 1.491 . S
C1312 H1303 0.950 . S
C1312 C1311 1.398 . S
C1312 C1313 1.391 . S
C1313 H1301 0.950 . S
C1313 C1309 1.393 . S
C1313 C1312 1.391 . S
C1314 H1304 0.950 . S
C1314 C1315 1.386 . S
C1314 C1316 1.391 . S
C1315 C1314 1.386 . S
C1315 C1319 1.393 . S
C1316 H1305 0.950 . S
C1316 C1314 1.391 . S
C1316 C1317 1.400 . S
C1317 C1311 1.491 . S
C1317 C1316 1.400 . S
C1317 C1318 1.398 . S
C1318 H1306 0.950 . S
C1318 C1317 1.398 . S
C1318 C1319 1.391 . S
C1319 H1307 0.950 . S
C1319 C1315 1.393 . S
C1319 C1318 1.391 . S
H1320 C1328 0.950 . S
H1321 C1333 0.950 . S
H1322 C1330 0.950 . S
H1323 C1332 0.950 . S
H1324 C1334 0.950 . S
H1325 C1336 0.950 . S
H1326 C1338 0.950 . S
H1327 C1339 0.950 . S
C1328 H1320 0.950 . S
C1328 C1329 1.386 . S
C1328 C1330 1.391 . S
C1329 C1328 1.386 . S
C1329 C1333 1.393 . S
C1330 H1322 0.950 . S
C1330 C1328 1.391 . S
C1330 C1331 1.400 . S
C1331 C1330 1.400 . S
C1331 C1332 1.398 . S
C1331 C1337 1.491 . S
C1332 H1323 0.950 . S
C1332 C1331 1.398 . S
C1332 C1333 1.391 . S
C1333 H1321 0.950 . S
C1333 C1329 1.393 . S
C1333 C1332 1.391 . S
C1334 H1324 0.950 . S
C1334 C1335 1.386 . S
C1334 C1336 1.391 . S
C1335 C1334 1.386 . S
C1335 C1339 1.393 . S
C1336 H1325 0.950 . S
C1336 C1334 1.391 . S
C1336 C1337 1.400 . S
C1337 C1331 1.491 . S
C1337 C1336 1.400 . S
C1337 C1338 1.398 . S
C1338 H1326 0.950 . S
C1338 C1337 1.398 . S
C1338 C1339 1.391 . S
C1339 H1327 0.950 . S
C1339 C1335 1.393 . S
C1339 C1338 1.391 . S
H1340 C1348 0.950 . S
H1341 C1353 0.950 . S
H1342 C1350 0.950 . S
H1343 C1352 0.950 . S
H1344 C1354 0.950 . S
H1345 C1356 0.950 . S
H1346 C1358 0.950 . S
H1347 C1359 0.950 . S
C1348 H1340 0.950 . S
C1348 C1349 1.386 . S
C1348 C1350 1.391 . S
C1349 C1348 1.386 . S
C1349 C1353 1.393 . S
C1350 H1342 0.950 . S
C1350 C1348 1.391 . S
C1350 C1351 1.400 . S
C1351 C1350 1.400 . S
C1351 C1352 1.398 . S
C1351 C1357 1.491 . S
C1352 H1343 0.950 . S
C1352 C1351 1.398 . S
C1352 C1353 1.391 . S
C1353 H1341 0.950 . S
C1353 C1349 1.393 . S
C1353 C1352 1.391 . S
C1354 H1344 0.950 . S
C1354 C1355 1.386 . S
C1354 C1356 1.391 . S
C1355 C1354 1.386 . S
C1355 C1359 1.393 . S
C1356 H1345 0.950 . S
C1356 C1354 1.391 . S
C1356 C1357 1.400 . S
C1357 C1351 1.491 . S
C1357 C1356 1.400 . S
C1357 C1358 1.398 . S
C1358 H1346 0.950 . S
C1358 C1357 1.398 . S
C1358 C1359 1.391 . S
C1359 H1347 0.950 . S
C1359 C1355 1.393 . S
C1359 C1358 1.391 . S
H1360 C1368 0.950 . S
H1361 C1373 0.950 . S
H1362 C1370 0.961 . S
H1363 C1372 0.950 . S
H1364 C1374 0.950 . S
H1365 C1376 0.950 . S
H1366 C1378 0.950 . S
H1367 C1379 0.950 . S
C1368 H1360 0.950 . S
C1368 C1369 1.386 . S
C1368 C1370 1.387 1_554 S
C1369 C1368 1.386 . S
C1369 C1373 1.393 . S
C1370 H1362 0.961 . S
C1370 C1368 1.387 1_556 S
C1370 C1371 1.394 1_556 S
C1371 C1370 1.394 1_554 S
C1371 C1372 1.398 . S
C1371 C1377 1.491 1_554 S
C1372 H1363 0.950 . S
C1372 C1371 1.398 . S
C1372 C1373 1.391 . S
C1373 H1361 0.950 . S
C1373 C1369 1.393 . S
C1373 C1372 1.391 . S
C1374 H1364 0.950 . S
C1374 C1375 1.386 . S
C1374 C1376 1.391 1_556 S
C1375 C1374 1.386 . S
C1375 C1379 1.393 . S
C1376 H1365 0.950 . S
C1376 C1374 1.391 1_554 S
C1376 C1377 1.400 1_554 S
C1377 C1371 1.491 1_556 S
C1377 C1376 1.400 1_556 S
C1377 C1378 1.398 . S
C1378 H1366 0.950 . S
C1378 C1377 1.398 . S
C1378 C1379 1.391 . S
C1379 H1367 0.950 . S
C1379 C1375 1.393 . S
C1379 C1378 1.391 . S
H1380 C1388 0.950 . S
H1381 C1393 0.950 . S
H1382 C1390 0.950 . S
H1383 C1392 0.950 . S
H1384 C1394 0.950 . S
H1385 C1396 0.950 . S
H1386 C1398 0.950 . S
H1387 C1399 0.950 . S
C1388 H1380 0.950 . S
C1388 C1389 1.386 . S
C1388 C1390 1.391 . S
C1389 C1388 1.386 . S
C1389 C1393 1.393 . S
C1390 H1382 0.950 . S
C1390 C1388 1.391 . S
C1390 C1391 1.400 . S
C1391 C1390 1.400 . S
C1391 C1392 1.398 . S
C1391 C1397 1.491 . S
C1392 H1383 0.950 . S
C1392 C1391 1.398 . S
C1392 C1393 1.391 . S
C1393 H1381 0.950 . S
C1393 C1389 1.393 . S
C1393 C1392 1.391 . S
C1394 H1384 0.950 . S
C1394 C1395 1.386 . S
C1394 C1396 1.391 . S
C1395 C1394 1.386 . S
C1395 C1399 1.393 . S
C1396 H1385 0.950 . S
C1396 C1394 1.391 . S
C1396 C1397 1.400 . S
C1397 C1391 1.491 . S
C1397 C1396 1.400 . S
C1397 C1398 1.398 . S
C1398 H1386 0.950 . S
C1398 C1397 1.398 . S
C1398 C1399 1.391 . S
C1399 H1387 0.950 . S
C1399 C1395 1.393 . S
C1399 C1398 1.391 . S
H1400 C1408 0.950 . S
H1401 C1413 0.950 . S
H1402 C1410 0.950 . S
H1403 C1412 0.950 . S
H1404 C1414 0.950 . S
H1405 C1416 0.950 . S
H1406 C1418 0.950 . S
H1407 C1419 0.950 . S
C1408 H1400 0.950 . S
C1408 C1409 1.386 . S
C1408 C1410 1.391 . S
C1409 C1408 1.386 . S
C1409 C1413 1.393 . S
C1410 H1402 0.950 . S
C1410 C1408 1.391 . S
C1410 C1411 1.400 . S
C1411 C1410 1.400 . S
C1411 C1412 1.398 . S
C1411 C1417 1.491 . S
C1412 H1403 0.950 . S
C1412 C1411 1.398 . S
C1412 C1413 1.391 . S
C1413 H1401 0.950 . S
C1413 C1409 1.393 . S
C1413 C1412 1.391 . S
C1414 H1404 0.950 . S
C1414 C1415 1.386 . S
C1414 C1416 1.391 . S
C1415 C1414 1.386 . S
C1415 C1419 1.393 . S
C1416 H1405 0.950 . S
C1416 C1414 1.391 . S
C1416 C1417 1.400 . S
C1417 C1411 1.491 . S
C1417 C1416 1.400 . S
C1417 C1418 1.398 . S
C1418 H1406 0.950 . S
C1418 C1417 1.398 . S
C1418 C1419 1.391 . S
C1419 H1407 0.950 . S
C1419 C1415 1.393 . S
C1419 C1418 1.391 . S
H1420 C1428 0.950 . S
H1421 C1433 0.950 . S
H1422 C1430 0.950 . S
H1423 C1432 0.950 . S
H1424 C1434 0.950 . S
H1425 C1436 0.950 . S
H1426 C1438 0.950 . S
H1427 C1439 0.950 . S
C1428 H1420 0.950 . S
C1428 C1429 1.386 . S
C1428 C1430 1.391 . S
C1429 C1428 1.386 . S
C1429 C1433 1.393 . S
C1430 H1422 0.950 . S
C1430 C1428 1.391 . S
C1430 C1431 1.400 . S
C1431 C1430 1.400 . S
C1431 C1432 1.398 . S
C1431 C1437 1.491 . S
C1432 H1423 0.950 . S
C1432 C1431 1.398 . S
C1432 C1433 1.391 . S
C1433 H1421 0.950 . S
C1433 C1429 1.393 . S
C1433 C1432 1.391 . S
C1434 H1424 0.950 . S
C1434 C1435 1.386 . S
C1434 C1436 1.391 . S
C1435 C1434 1.386 . S
C1435 C1439 1.393 . S
C1436 H1425 0.950 . S
C1436 C1434 1.391 . S
C1436 C1437 1.400 . S
C1437 C1431 1.491 . S
C1437 C1436 1.400 . S
C1437 C1438 1.398 . S
C1438 H1426 0.950 . S
C1438 C1437 1.398 . S
C1438 C1439 1.391 . S
C1439 H1427 0.950 . S
C1439 C1435 1.393 . S
C1439 C1438 1.391 . S
H1440 C1448 0.950 . S
H1441 C1453 0.950 . S
H1442 C1450 0.950 . S
H1443 C1452 0.950 . S
H1444 C1454 0.950 . S
H1445 C1456 0.950 . S
H1446 C1458 0.950 . S
H1447 C1459 0.950 . S
C1448 H1440 0.950 . S
C1448 C1449 1.386 . S
C1448 C1450 1.391 . S
C1449 C1448 1.386 . S
C1449 C1453 1.393 . S
C1450 H1442 0.950 . S
C1450 C1448 1.391 . S
C1450 C1451 1.400 . S
C1451 C1450 1.400 . S
C1451 C1452 1.398 . S
C1451 C1457 1.491 1_565 S
C1452 H1443 0.950 . S
C1452 C1451 1.398 . S
C1452 C1453 1.391 . S
C1453 H1441 0.950 . S
C1453 C1449 1.393 . S
C1453 C1452 1.391 . S
C1454 H1444 0.950 . S
C1454 C1455 1.386 . S
C1454 C1456 1.391 . S
C1455 C1454 1.386 . S
C1455 C1459 1.393 . S
C1456 H1445 0.950 . S
C1456 C1454 1.391 . S
C1456 C1457 1.400 . S
C1457 C1451 1.491 1_545 S
C1457 C1456 1.400 . S
C1457 C1458 1.398 . S
C1458 H1446 0.950 . S
C1458 C1457 1.398 . S
C1458 C1459 1.391 . S
C1459 H1447 0.950 . S
C1459 C1455 1.393 . S
C1459 C1458 1.391 . S
H1460 C1468 0.950 . S
H1461 C1473 0.950 . S
H1462 C1470 0.950 . S
H1463 C1472 0.950 . S
H1464 C1474 0.950 . S
H1465 C1476 0.950 . S
H1466 C1478 0.950 . S
H1467 C1479 0.950 . S
C1468 H1460 0.950 . S
C1468 C1469 1.386 . S
C1468 C1470 1.391 . S
C1469 C1468 1.386 . S
C1469 C1473 1.393 . S
C1470 H1462 0.950 . S
C1470 C1468 1.391 . S
C1470 C1471 1.400 . S
C1471 C1470 1.400 . S
C1471 C1472 1.398 . S
C1471 C1477 1.491 . S
C1472 H1463 0.950 . S
C1472 C1471 1.398 . S
C1472 C1473 1.391 . S
C1473 H1461 0.950 . S
C1473 C1469 1.393 . S
C1473 C1472 1.391 . S
C1474 H1464 0.950 . S
C1474 C1475 1.386 . S
C1474 C1476 1.391 . S
C1475 C1474 1.386 . S
C1475 C1479 1.393 . S
C1476 H1465 0.950 . S
C1476 C1474 1.391 . S
C1476 C1477 1.400 . S
C1477 C1471 1.491 . S
C1477 C1476 1.400 . S
C1477 C1478 1.398 . S
C1478 H1466 0.950 . S
C1478 C1477 1.398 . S
C1478 C1479 1.391 . S
C1479 H1467 0.950 . S
C1479 C1475 1.393 . S
C1479 C1478 1.391 . S
H1480 C1488 0.947 1_556 S
H1481 C1493 0.950 . S
H1482 C1490 0.950 . S
H1483 C1492 0.950 1_545 S
H1484 C1494 0.950 . S
H1485 C1496 0.950 . S
H1486 C1498 0.950 1_565 S
H1487 C1499 0.950 . S
C1488 H1480 0.947 1_554 S
C1488 C1489 1.386 . S
C1488 C1490 1.391 1_554 S
C1489 C1488 1.386 . S
C1489 C1493 1.393 . S
C1490 H1482 0.950 . S
C1490 C1488 1.391 1_556 S
C1490 C1491 1.400 1_556 S
C1491 C1490 1.400 1_554 S
C1491 C1492 1.398 . S
C1491 C1497 1.491 1_564 S
C1492 H1483 0.950 1_565 S
C1492 C1491 1.398 . S
C1492 C1493 1.391 . S
C1493 H1481 0.950 . S
C1493 C1489 1.393 . S
C1493 C1492 1.391 . S
C1494 H1484 0.950 . S
C1494 C1495 1.386 . S
C1494 C1496 1.391 1_556 S
C1495 C1494 1.386 . S
C1495 C1499 1.393 . S
C1496 H1485 0.950 . S
C1496 C1494 1.391 1_554 S
C1496 C1497 1.400 1_554 S
C1497 C1491 1.491 1_546 S
C1497 C1496 1.400 1_556 S
C1497 C1498 1.398 . S
C1498 H1486 0.950 1_545 S
C1498 C1497 1.398 . S
C1498 C1499 1.391 . S
C1499 H1487 0.950 . S
C1499 C1495 1.393 . S
C1499 C1498 1.391 . S
H1500 C1508 0.950 . S
H1501 C1513 0.950 . S
H1502 C1510 0.950 . S
H1503 C1512 0.950 . S
H1504 C1514 0.950 . S
H1505 C1516 0.950 . S
H1506 C1518 0.950 . S
H1507 C1519 0.950 . S
C1508 H1500 0.950 . S
C1508 C1509 1.386 . S
C1508 C1510 1.391 . S
C1509 C1508 1.386 . S
C1509 C1513 1.393 . S
C1510 H1502 0.950 . S
C1510 C1508 1.391 . S
C1510 C1511 1.400 . S
C1511 C1510 1.400 . S
C1511 C1512 1.398 . S
C1511 C1517 1.491 . S
C1512 H1503 0.950 . S
C1512 C1511 1.398 . S
C1512 C1513 1.391 . S
C1513 H1501 0.950 . S
C1513 C1509 1.393 . S
C1513 C1512 1.391 . S
C1514 H1504 0.950 . S
C1514 C1515 1.386 . S
C1514 C1516 1.391 . S
C1515 C1514 1.386 . S
C1515 C1519 1.393 . S
C1516 H1505 0.950 . S
C1516 C1514 1.391 . S
C1516 C1517 1.400 . S
C1517 C1511 1.491 . S
C1517 C1516 1.400 . S
C1517 C1518 1.398 . S
C1518 H1506 0.950 . S
C1518 C1517 1.398 . S
C1518 C1519 1.391 . S
C1519 H1507 0.950 . S
C1519 C1515 1.393 . S
C1519 C1518 1.391 . S
H1520 C1528 0.950 . S
H1521 C1533 0.950 . S
H1522 C1530 0.950 . S
H1523 C1532 0.950 . S
H1524 C1534 0.950 . S
H1525 C1536 0.950 . S
H1526 C1538 0.950 . S
H1527 C1539 0.950 . S
C1528 H1520 0.950 . S
C1528 C1529 1.386 . S
C1528 C1530 1.391 . S
C1529 C1528 1.386 . S
C1529 C1533 1.393 . S
C1530 H1522 0.950 . S
C1530 C1528 1.391 . S
C1530 C1531 1.400 . S
C1531 C1530 1.400 . S
C1531 C1532 1.398 . S
C1531 C1537 1.491 1_565 S
C1532 H1523 0.950 . S
C1532 C1531 1.398 . S
C1532 C1533 1.391 . S
C1533 H1521 0.950 . S
C1533 C1529 1.393 . S
C1533 C1532 1.391 . S
C1534 H1524 0.950 . S
C1534 C1535 1.386 . S
C1534 C1536 1.391 . S
C1535 C1534 1.386 . S
C1535 C1539 1.393 . S
C1536 H1525 0.950 . S
C1536 C1534 1.391 . S
C1536 C1537 1.400 . S
C1537 C1531 1.491 1_545 S
C1537 C1536 1.400 . S
C1537 C1538 1.398 . S
C1538 H1526 0.950 . S
C1538 C1537 1.398 . S
C1538 C1539 1.391 . S
C1539 H1527 0.950 . S
C1539 C1535 1.393 . S
C1539 C1538 1.391 . S
H1540 C1548 0.950 . S
H1541 C1553 0.950 . S
H1542 C1550 0.950 . S
H1543 C1552 0.950 . S
H1544 C1554 0.950 . S
H1545 C1556 0.950 . S
H1546 C1558 0.950 . S
H1547 C1559 0.950 . S
C1548 H1540 0.950 . S
C1548 C1549 1.386 . S
C1548 C1550 1.391 . S
C1549 C1548 1.386 . S
C1549 C1553 1.393 . S
C1550 H1542 0.950 . S
C1550 C1548 1.391 . S
C1550 C1551 1.400 . S
C1551 C1550 1.400 . S
C1551 C1552 1.398 . S
C1551 C1557 1.491 . S
C1552 H1543 0.950 . S
C1552 C1551 1.398 . S
C1552 C1553 1.391 . S
C1553 H1541 0.950 . S
C1553 C1549 1.393 . S
C1553 C1552 1.391 . S
C1554 H1544 0.950 . S
C1554 C1555 1.386 . S
C1554 C1556 1.391 . S
C1555 C1554 1.386 . S
C1555 C1559 1.393 . S
C1556 H1545 0.950 . S
C1556 C1554 1.391 . S
C1556 C1557 1.400 . S
C1557 C1551 1.491 . S
C1557 C1556 1.400 . S
C1557 C1558 1.398 . S
C1558 H1546 0.950 . S
C1558 C1557 1.398 . S
C1558 C1559 1.391 . S
C1559 H1547 0.950 . S
C1559 C1555 1.393 . S
C1559 C1558 1.391 . S
H1560 C1568 0.950 . S
H1561 C1573 0.950 . S
H1562 C1570 0.950 . S
H1563 C1572 0.950 . S
H1564 C1574 0.950 . S
H1565 C1576 0.950 . S
H1566 C1578 0.950 . S
H1567 C1579 0.950 . S
C1568 H1560 0.950 . S
C1568 C1569 1.386 . S
C1568 C1570 1.391 . S
C1569 C1568 1.386 . S
C1569 C1573 1.393 . S
C1570 H1562 0.950 . S
C1570 C1568 1.391 . S
C1570 C1571 1.400 . S
C1571 C1570 1.400 . S
C1571 C1572 1.398 . S
C1571 C1577 1.491 1_546 S
C1572 H1563 0.950 . S
C1572 C1571 1.398 . S
C1572 C1573 1.391 . S
C1573 H1561 0.950 . S
C1573 C1569 1.393 . S
C1573 C1572 1.391 . S
C1574 H1564 0.950 . S
C1574 C1575 1.386 . S
C1574 C1576 1.391 . S
C1575 C1574 1.386 . S
C1575 C1579 1.393 . S
C1576 H1565 0.950 . S
C1576 C1574 1.391 . S
C1576 C1577 1.400 . S
C1577 C1571 1.491 1_564 S
C1577 C1576 1.400 . S
C1577 C1578 1.398 . S
C1578 H1566 0.950 . S
C1578 C1577 1.398 . S
C1578 C1579 1.391 . S
C1579 H1567 0.950 . S
C1579 C1575 1.393 . S
C1579 C1578 1.391 . S
H1580 C1588 0.950 . S
H1581 C1593 0.950 . S
H1582 C1590 0.950 . S
H1583 C1592 0.950 . S
H1584 C1594 0.950 . S
H1585 C1596 0.950 . S
H1586 C1598 0.950 . S
H1587 C1599 0.950 . S
C1588 H1580 0.950 . S
C1588 C1589 1.386 . S
C1588 C1590 1.391 . S
C1589 C1588 1.386 . S
C1589 C1593 1.393 . S
C1590 H1582 0.950 . S
C1590 C1588 1.391 . S
C1590 C1591 1.400 . S
C1591 C1590 1.400 . S
C1591 C1592 1.398 . S
C1591 C1597 1.491 . S
C1592 H1583 0.950 . S
C1592 C1591 1.398 . S
C1592 C1593 1.391 . S
C1593 H1581 0.950 . S
C1593 C1589 1.393 . S
C1593 C1592 1.391 . S
C1594 H1584 0.950 . S
C1594 C1595 1.386 . S
C1594 C1596 1.391 . S
C1595 C1594 1.386 . S
C1595 C1599 1.393 . S
C1596 H1585 0.950 . S
C1596 C1594 1.391 . S
C1596 C1597 1.400 . S
C1597 C1591 1.491 . S
C1597 C1596 1.400 . S
C1597 C1598 1.398 . S
C1598 H1586 0.950 . S
C1598 C1597 1.398 . S
C1598 C1599 1.391 . S
C1599 H1587 0.950 . S
C1599 C1595 1.393 . S
C1599 C1598 1.391 . S
C649 C7 1.868 . S
C655 C16 1.868 . S
C669 C56 1.800 1_556 S
C675 C47 1.800 . S
C689 C87 1.851 . S
C695 C96 1.851 1_554 S
C709 C127 1.566 . S
C715 C136 1.566 . S
C729 C167 1.809 . S
C735 C176 1.809 . S
C749 C216 1.559 . S
C755 C207 1.559 . S
C769 C256 1.536 . S
C775 C247 1.536 . S
C789 C296 1.866 . S
C795 C287 1.866 . S
C809 C336 1.773 . S
C815 C327 1.773 . S
C829 C376 1.779 . S
C835 C367 1.779 . S
C849 C416 1.645 . S
C855 C407 1.645 . S
C869 C456 1.514 . S
C875 C447 1.514 . S
C889 C496 1.847 . S
C895 C487 1.847 . S
C909 C536 1.642 . S
C915 C527 1.642 . S
C929 C567 1.579 . S
C935 C576 1.579 . S
C949 C607 1.971 1_556 S
C955 C616 1.971 . S
C969 C10 1.630 . S
C975 C451 1.691 . S
C989 C42 1.684 . S
C995 C611 1.666 . S
C1009 C90 1.633 . S
C1015 C379 1.579 . S
C1029 C130 1.752 . S
C1035 C539 1.751 . S
C1049 C170 1.690 . S
C1055 C531 1.711 . S
C1069 C459 1.704 . S
C1075 C210 1.736 . S
C1089 C242 1.662 . S
C1095 C619 1.592 . S
C1109 C282 1.780 . S
C1115 C371 1.789 . S
C1129 C122 1.724 . S
C1135 C339 1.660 . S
C1149 C50 1.626 . S
C1155 C411 1.704 . S
C1169 C499 1.694 . S
C1175 C202 1.727 . S
C1189 C290 1.557 . S
C1195 C571 1.647 . S
C1209 C331 1.812 . S
C1215 C162 1.763 . S
C1229 C250 1.744 . S
C1235 C419 1.802 . S
C1249 C82 1.869 . S
C1255 C579 1.873 . S
C1269 C2 1.719 . S
C1275 C491 1.703 . S
C1289 C19 1.336 . S
C1295 C179 1.339 . S
C1309 C51 1.742 . S
C1315 C219 1.745 . S
C1329 C99 2.069 . S
C1335 C251 2.070 . S
C1349 C139 1.719 . S
C1355 C291 1.715 . S
C1369 C490 1.438 . S
C1375 C330 1.446 . S
C1389 C530 1.980 . S
C1395 C362 1.976 . S
C1409 C402 1.875 . S
C1415 C562 1.874 . S
C1429 C602 1.597 . S
C1435 C450 1.601 . S
C1449 C59 1.319 . S
C1455 C299 1.317 . S
C1469 C171 1.784 . S
C1475 C91 1.792 . S
C1489 C211 2.060 . S
C1495 C131 2.064 . S
C1509 C11 1.715 . S
C1515 C259 1.719 . S
C1529 C610 1.265 . S
C1535 C370 1.266 . S
C1549 C482 1.727 . S
C1555 C410 1.728 . S
C1569 C522 2.077 . S
C1575 C442 2.075 . S
C1589 C570 1.819 . S
C1595 C322 1.816 . S
