# Generated by pormake.
# Topology sxb, (6)-cn, num edge types: 1
# Building blocks:
#     Node 0, Type 0, BuildingBlock: KUMJIN_clean_sbu_1, # of connection points: 6
#     Node 1, Type 0, BuildingBlock: KUMJIN_clean_sbu_1, # of connection points: 6
#     Node 2, Type 0, BuildingBlock: KUMJIN_clean_sbu_1, # of connection points: 6
#     Node 3, Type 0, BuildingBlock: KUMJIN_clean_sbu_1, # of connection points: 6
#     Edge 4, Type (0, 0), BuildingBlock: MIFKUJ_clean_linker_0, # of connection points: 2
#     Edge 5, Type (0, 0), BuildingBlock: MIFKUJ_clean_linker_0, # of connection points: 2
#     Edge 6, Type (0, 0), BuildingBlock: MIFKUJ_clean_linker_0, # of connection points: 2
#     Edge 7, Type (0, 0), BuildingBlock: MIFKUJ_clean_linker_0, # of connection points: 2
#     Edge 8, Type (0, 0), BuildingBlock: MIFKUJ_clean_linker_0, # of connection points: 2
#     Edge 9, Type (0, 0), BuildingBlock: MIFKUJ_clean_linker_0, # of connection points: 2
#     Edge 10, Type (0, 0), BuildingBlock: MIFKUJ_clean_linker_0, # of connection points: 2
#     Edge 11, Type (0, 0), BuildingBlock: MIFKUJ_clean_linker_0, # of connection points: 2
#     Edge 12, Type (0, 0), BuildingBlock: MIFKUJ_clean_linker_0, # of connection points: 2
#     Edge 13, Type (0, 0), BuildingBlock: MIFKUJ_clean_linker_0, # of connection points: 2
#     Edge 14, Type (0, 0), BuildingBlock: MIFKUJ_clean_linker_0, # of connection points: 2
#     Edge 15, Type (0, 0), BuildingBlock: MIFKUJ_clean_linker_0, # of connection points: 2
# Relax obj value: 0.009
# Max RMSD: 0.046
# Mean RMSD: 0.046
data_MOF--net-sxb--node1-KUMJIN_clean_sbu_1--edge1-MIFKUJ_clean_linker_0
_symmetry_space_group_name_H-M    P1
_symmetry_Int_Tables_number       1
_symmetry_cell_setting            triclinic
loop_
_symmetry_equiv_pos_as_xyz
'x, y, z'
_cell_length_a     19.617306
_cell_length_b     55.775823
_cell_length_c     38.827041
_cell_angle_alpha  115.62735
_cell_angle_beta   90.094416
_cell_angle_gamma 90.176601
loop_
_atom_site_label
_atom_site_type_symbol
_atom_site_fract_x
_atom_site_fract_y
_atom_site_fract_z
_atom_type_partial_charge
Eu0 Eu 1.0223 0.96626 0.9754 0.0
C1 C 0.14728 0.08112 0.0637 0.0
N2 N 0.0874 0.07223 0.07159 0.0
C3 C 0.10905 0.09578 0.13875 0.0
C4 C 0.19125 0.09742 0.09346 0.0
C5 C 0.06706 0.07974 0.10834 0.0
C6 C 0.17164 0.10453 0.13129 0.0
C7 C 0.22689 0.08276 0.01685 0.0
C8 C 0.16505 0.07375 0.02567 0.0
C9 C 0.27086 0.09886 0.04646 0.0
C10 C 0.25314 0.10614 0.08461 0.0
Eu11 Eu 1.02011 0.04594 0.01832 0.0
N12 N 0.12241 0.05753 -0.00262 0.0
C13 C 0.24257 0.07545 0.97846 0.0
C14 C 0.13559 0.0517 0.96016 0.0
C15 C 0.1963 0.06013 0.95005 0.0
H16 H 1.0174 0.0742 0.11415 0.0
H17 H 0.20685 0.05515 0.92038 0.0
H18 H 0.06652 0.9396 0.88237 0.0
H19 H 0.8027 0.94653 0.04503 0.0
H20 H 0.09879 0.04132 0.93829 0.0
H21 H 0.28952 0.08202 0.97052 0.0
H22 H 0.913 0.96713 0.04201 0.0
H23 H 0.09273 0.10167 0.1679 0.0
H24 H 0.31867 0.10587 0.04016 0.0
H25 H 0.28758 0.11864 0.10711 0.0
H26 H 1.01639 0.90964 0.82034 0.0
H27 H 0.20401 0.11705 0.15493 0.0
H28 H 0.74418 0.91653 0.98524 0.0
N29 N 0.97981 0.93826 0.91435 0.0
C30 C 0.91808 0.92692 0.91378 0.0
C31 C 0.98767 0.91467 0.84627 0.0
C32 C 0.88812 0.90924 0.87893 0.0
C33 C 1.0156 0.93193 0.88145 0.0
C34 C 0.92335 0.90349 0.84491 0.0
N35 N 0.91506 0.94971 0.98151 0.0
C36 C 0.88741 0.95425 0.01597 0.0
C37 C 0.82273 0.9201 0.94856 0.0
C38 C 0.88555 0.93232 0.94826 0.0
C39 C 0.79243 0.92555 0.98382 0.0
C40 C 0.8252 0.94254 0.01766 0.0
H41 H 0.9021 0.88996 0.81757 0.0
H42 H 0.801 0.88387 0.85264 0.0
H43 H 0.74392 0.89333 0.9135 0.0
O44 O 0.06613 0.94757 0.00962 0.0
O45 O 0.91904 0.98582 0.97707 0.0
O46 O 0.91919 0.02887 0.02528 0.0
O47 O 0.05956 0.92551 0.94843 0.0
O48 O 0.04162 0.99187 0.03855 0.0
O49 O 0.98127 0.03096 0.06078 0.0
O50 O 0.97688 0.06916 0.99024 0.0
O51 O 0.11896 0.02502 0.02151 0.0
O52 O 0.1209 0.98476 0.96824 0.0
O53 O 0.98528 0.0865 0.05169 0.0
O54 O 0.99081 0.02037 0.95619 0.0
O55 O 0.06015 0.98383 0.93642 0.0
C56 C 0.88725 0.00745 0.00088 0.0
C57 C 0.14602 0.91326 0.97921 0.0
C58 C 0.21342 0.87662 0.97911 0.0
C59 C 0.27116 0.88719 0.96918 0.0
C60 C 0.20433 0.92381 0.9701 0.0
C61 C 0.26663 0.9108 0.96506 0.0
C62 C 0.15073 0.88988 0.98435 0.0
C63 C 1.00318 0.00985 0.06455 0.0
C64 C 0.07927 0.92521 0.98021 0.0
C65 C 0.82484 0.89746 0.87915 0.0
C66 C 0.79236 0.90281 0.91384 0.0
C67 C 0.15248 0.00496 0.99537 0.0
C68 C 0.89666 0.10211 0.02606 0.0
C69 C 0.82436 0.13653 0.02206 0.0
C70 C 0.77145 0.12845 0.0393 0.0
C71 C 0.84263 0.09412 0.04224 0.0
C72 C 0.88727 0.12302 0.01549 0.0
C73 C 0.78029 0.10718 0.04869 0.0
C74 C 0.0242 1.00092 0.9292 0.0
C75 C 0.96402 0.08978 0.02228 0.0
H76 H 0.31987 0.87723 0.96484 0.0
H77 H 0.20097 0.9417 0.966 0.0
H78 H 0.31128 0.91888 0.95745 0.0
H79 H 0.10542 0.88152 0.991 0.0
H80 H 0.72318 0.13876 0.04615 0.0
H81 H 0.84946 0.07825 0.05079 0.0
H82 H 0.92912 0.12873 0.00239 0.0
H83 H 0.73901 0.10111 0.06168 0.0
Eu84 Eu 0.03739 0.04734 0.51771 0.0
C85 C 0.15767 0.93686 0.42745 0.0
N86 N 0.09748 0.94708 0.4224 0.0
C87 C 0.12011 0.93054 0.35528 0.0
C88 C 0.20266 0.92402 0.39657 0.0
C89 C 0.07643 0.94241 0.38645 0.0
C90 C 0.18406 0.92174 0.36048 0.0
C91 C 0.23151 0.925 0.46809 0.0
C92 C 0.17246 0.93744 0.46292 0.0
C93 C 0.27743 0.91317 0.43776 0.0
C94 C 0.26325 0.91282 0.40219 0.0
Eu95 Eu 0.02874 0.9666 0.47782 0.0
N96 N 0.12826 0.94962 0.49224 0.0
C97 C 0.24218 0.92452 0.5035 0.0
C98 C 0.13675 0.94837 0.52633 0.0
C99 C 0.19424 0.93604 0.53263 0.0
H100 H 0.02525 0.94694 0.38111 0.0
H101 H 0.20153 0.93542 0.55987 0.0
H102 H 0.97668 0.06137 0.60531 0.0
H103 H 0.9507 0.07968 0.41131 0.0
H104 H 0.09918 0.9571 0.54862 0.0
H105 H 0.28681 0.91505 0.50849 0.0
H106 H 0.02679 0.05756 0.43872 0.0
H107 H 0.10363 0.92751 0.32706 0.0
H108 H 0.32349 0.90379 0.44132 0.0
H109 H 0.29847 0.90306 0.37882 0.0
H110 H 0.88091 0.08592 0.64624 0.0
H111 H 0.21726 0.91206 0.33609 0.0
H112 H 0.84888 0.10378 0.44728 0.0
N113 N 0.94625 0.06914 0.55854 0.0
C114 C 0.90321 0.08264 0.54578 0.0
C115 C 0.88623 0.08494 0.61793 0.0
C116 C 0.84821 0.09718 0.56841 0.0
C117 C 0.94005 0.07078 0.59449 0.0
C118 C 0.83982 0.09805 0.60475 0.0
N119 N 0.96651 0.06695 0.48816 0.0
C120 C 0.98092 0.06675 0.45372 0.0
C121 C 0.86896 0.0948 0.49531 0.0
C122 C 0.91337 0.08132 0.50951 0.0
C123 C 0.88164 0.09361 0.45912 0.0
C124 C 0.93846 0.07981 0.43851 0.0
H125 H 0.79819 0.10902 0.62301 0.0
H126 H 0.76089 0.1216 0.57109 0.0
H127 H 0.77912 0.11959 0.50722 0.0
O128 O 0.07851 0.08351 0.51606 0.0
O129 O 0.93128 0.02951 0.51672 0.0
O130 O 0.92715 0.98451 0.47372 0.0
O131 O 0.10339 0.07427 0.56393 0.0
O132 O 0.06077 0.02099 0.45548 0.0
O133 O 0.99253 0.98379 0.43735 0.0
O134 O 0.98174 0.94303 0.50417 0.0
O135 O 0.12675 0.98952 0.50513 0.0
O136 O 0.12511 0.0218 0.48426 0.0
O137 O 0.99569 0.92569 0.44319 0.0
O138 O 0.99484 0.99326 0.53782 0.0
O139 O 0.06316 0.03054 0.56014 0.0
C140 C 0.89782 0.00739 0.49536 0.0
C141 C 0.15107 0.11551 0.56608 0.0
C142 C 0.20262 0.15508 0.56436 0.0
C143 C 0.22931 0.16215 0.60112 0.0
C144 C 0.17862 0.12313 0.60273 0.0
C145 C 0.21718 0.14633 0.62011 0.0
C146 C 0.16255 0.1318 0.54703 0.0
C147 C 1.0209 1.00272 0.43051 0.0
C148 C 0.10991 0.09084 0.54854 0.0
C149 C 0.80352 0.11036 0.55413 0.0
C150 C 0.81386 0.10918 0.51772 0.0
C151 C 0.15916 0.00662 0.49605 0.0
C152 C 0.90609 0.90881 0.46679 0.0
C153 C 0.83472 0.8748 0.47248 0.0
C154 C 0.77856 0.88447 0.45978 0.0
C155 C 0.84993 0.91773 0.45333 0.0
C156 C 0.89868 0.88713 0.47591 0.0
C157 C 0.78631 0.90571 0.45016 0.0
C158 C 0.03173 0.01128 0.56494 0.0
C159 C 0.97238 0.92214 0.472 0.0
H160 H 0.25927 0.18015 0.61539 0.0
H161 H 0.17012 0.11119 0.61814 0.0
H162 H 0.23788 0.15209 0.64845 0.0
H163 H 0.14161 0.1262 0.51873 0.0
H164 H 0.72881 0.87527 0.45669 0.0
H165 H 0.85532 0.93403 0.44544 0.0
H166 H 0.94228 0.88016 0.48617 0.0
H167 H 0.74289 0.91285 0.44011 0.0
Eu168 Eu 0.53522 0.46542 0.97695 0.0
C169 C 0.64094 0.58375 0.07007 0.0
N170 N 0.58292 0.57152 0.07345 0.0
C171 C 0.59287 0.59313 0.14175 0.0
C172 C 0.6784 0.60059 0.10271 0.0
C173 C 0.5568 0.57704 0.10868 0.0
C174 C 0.65446 0.60466 0.13876 0.0
C175 C 0.71931 0.59401 0.02977 0.0
C176 C 0.66152 0.58043 0.03397 0.0
C177 C 0.75755 0.61024 0.06214 0.0
C178 C 0.73733 0.61342 0.09847 0.0
Eu179 Eu 0.5267 0.54508 0.01534 0.0
N180 N 0.6252 0.5639 0.0029 0.0
C181 C 0.73672 0.59097 0.99314 0.0
C182 C 0.63952 0.56196 0.96739 0.0
C183 C 0.69635 0.57503 0.96184 0.0
H184 H 0.50726 0.56972 0.11165 0.0
H185 H 0.70854 0.57304 0.93355 0.0
H186 H 0.48757 0.44815 0.88682 0.0
H187 H 0.41754 0.44353 0.08804 0.0
H188 H 0.60708 0.55021 0.94347 0.0
H189 H 0.78031 0.60132 0.98889 0.0
H190 H 0.50737 0.45987 0.05959 0.0
H191 H 0.57228 0.5971 0.16952 0.0
H192 H 0.80252 0.62061 0.05942 0.0
H193 H 0.76687 0.62632 0.12321 0.0
H194 H 0.39406 0.42316 0.8431 0.0
H195 H 0.68186 0.6174 0.1645 0.0
H196 H 0.31652 0.42064 0.04969 0.0
N197 N 0.44554 0.44426 0.93451 0.0
C198 C 0.39644 0.43312 0.94767 0.0
C199 C 0.39383 0.42601 0.8725 0.0
C200 C 0.34261 0.41844 0.92363 0.0
C201 C 0.44624 0.44039 0.89735 0.0
C202 C 0.3416 0.41509 0.88572 0.0
N203 N 0.45334 0.45035 0.00773 0.0
C204 C 0.46137 0.4519 0.04355 0.0
C205 C 0.3488 0.42565 -0.00012 0.0
C206 C 0.39961 0.43677 0.98549 0.0
C207 C 0.3545 0.42886 0.03756 0.0
C208 C 0.41132 0.44186 0.05938 0.0
H209 H 0.30111 0.40392 0.86637 0.0
H210 H 0.25004 0.3962 0.92003 0.0
H211 H 0.25648 0.40191 0.98629 0.0
O212 O 0.56655 0.42805 0.97898 0.0
O213 O 0.43521 0.48539 0.97212 0.0
O214 O 0.43316 0.52518 0.02571 0.0
O215 O 0.59636 0.43651 0.93104 0.0
O216 O 0.56242 0.49042 0.03936 0.0
O217 O 0.49655 0.52817 0.05709 0.0
O218 O 0.46897 0.5623 0.98332 0.0
O219 O 0.63113 0.52517 0.99614 0.0
O220 O 0.62958 0.48803 0.00793 0.0
O221 O 0.4888 0.58575 0.04336 0.0
O222 O 0.50184 0.51815 0.95373 0.0
O223 O 0.57255 0.48206 0.93626 0.0
C224 C 0.40124 0.50464 -0.00059 0.0
C225 C 0.63358 0.39404 0.92796 0.0
C226 C 0.68145 0.35395 0.92918 0.0
C227 C 0.70381 0.34579 0.89145 0.0
C228 C 0.65639 0.38527 0.89017 0.0
C229 C 0.69097 0.36127 0.87208 0.0
C230 C 0.64533 0.37803 0.94733 0.0
C231 C 0.53033 0.51095 0.06537 0.0
C232 C 0.59784 0.41982 0.94636 0.0
C233 C 0.29177 0.40757 0.93807 0.0
C234 C 0.29504 0.41107 0.97598 0.0
C235 C 0.66265 0.50658 0.00242 0.0
C236 C 0.39416 0.59782 0.01716 0.0
C237 C 0.32557 0.63468 0.01896 0.0
C238 C 0.26889 0.62411 0.02986 0.0
C239 C 0.33722 0.58746 0.02782 0.0
C240 C 0.38815 0.62125 0.01228 0.0
C241 C 0.27469 0.60051 0.03397 0.0
C242 C 0.54202 0.50032 0.92901 0.0
C243 C 0.46091 0.58519 0.01263 0.0
H244 H 0.73104 0.32724 0.87682 0.0
H245 H 0.64742 0.39697 0.87445 0.0
H246 H 0.70819 0.3547 0.84294 0.0
H247 H 0.62803 0.38447 0.97647 0.0
H248 H 0.22003 0.63404 0.03496 0.0
H249 H 0.34158 0.5695 0.03173 0.0
H250 H 0.43247 0.62939 0.00434 0.0
H251 H 0.23077 0.59245 0.04225 0.0
Eu252 Eu 0.53376 0.54408 0.51685 0.0
C253 C 0.64338 0.43163 0.42659 0.0
N254 N 0.58857 0.44469 0.42142 0.0
C255 C 0.61725 0.42926 0.35517 0.0
C256 C 0.68953 0.41823 0.39654 0.0
C257 C 0.57256 0.44198 0.38564 0.0
C258 C 0.67672 0.41779 0.36082 0.0
C259 C 0.70782 0.41693 0.46752 0.0
C260 C 0.65197 0.43053 0.46153 0.0
C261 C 0.75488 0.40436 0.43802 0.0
C262 C 0.7457 0.40496 0.40263 0.0
Eu263 Eu 0.5158 0.46453 0.47501 0.0
N264 N 0.60639 0.44325 0.48997 0.0
C265 C 0.71496 0.41654 0.50317 0.0
C266 C 0.61216 0.44253 0.52451 0.0
C267 C 0.6669 0.42938 0.5317 0.0
H268 H 0.52434 0.44867 0.37982 0.0
H269 H 0.67205 0.42914 0.55917 0.0
H270 H 0.50852 0.55808 0.61058 0.0
H271 H 0.39429 0.57877 0.42584 0.0
H272 H 0.57456 0.45218 0.54644 0.0
H273 H 0.75734 0.4064 0.50895 0.0
H274 H 0.48736 0.55605 0.44297 0.0
H275 H 0.60491 0.42776 0.32712 0.0
H276 H 0.79825 0.3939 0.44217 0.0
H277 H 0.78179 0.39472 0.37991 0.0
H278 H 0.42145 0.57886 0.65957 0.0
H279 H 0.71084 0.40765 0.33702 0.0
H280 H 0.30344 0.60162 0.47266 0.0
N281 N 0.45393 0.5635 0.567 0.0
C282 C 0.40185 0.57683 0.55972 0.0
C283 C 0.41447 0.5779 0.63134 0.0
C284 C 0.35197 0.59001 0.58764 0.0
C285 C 0.46293 0.56529 0.60292 0.0
C286 C 0.35814 0.58994 0.6235 0.0
N287 N 0.4475 0.56503 0.49795 0.0
C288 C 0.44703 0.56551 0.46315 0.0
C289 C 0.34555 0.5914 0.51617 0.0
C290 C 0.39905 0.57792 0.52452 0.0
C291 C 0.34384 0.59154 0.48017 0.0
C292 C 0.39489 0.57858 0.45359 0.0
H293 H 0.32101 0.59991 0.64572 0.0
H294 H 0.2596 0.61346 0.60038 0.0
H295 H 0.25357 0.6144 0.53774 0.0
O296 O 0.57391 0.57837 0.50895 0.0
O297 O 0.42879 0.52544 0.49446 0.0
O298 O 0.42701 0.48964 0.50854 0.0
O299 O 0.59747 0.57379 0.56082 0.0
O300 O 0.56024 0.52029 0.45475 0.0
O301 O 0.48593 0.48477 0.43698 0.0
O302 O 0.47741 0.42986 0.48319 0.0
O303 O 0.62104 0.48297 0.49751 0.0
O304 O 0.62379 0.51926 0.48443 0.0
O305 O 0.4485 0.43572 0.43301 0.0
O306 O 0.49276 0.48784 0.53774 0.0
O307 O 0.56341 0.52459 0.55595 0.0
C308 C 0.39499 0.50749 0.50114 0.0
C309 C 0.64539 0.61285 0.55691 0.0
C310 C 0.68687 0.65303 0.55326 0.0
C311 C 0.72261 0.65998 0.58757 0.0
C312 C 0.68178 0.62028 0.59125 0.0
C313 C 0.72 0.64369 0.60641 0.0
C314 C 0.64817 0.62938 0.53779 0.0
C315 C 0.52115 0.50204 0.42938 0.0
C316 C 0.60465 0.58804 0.54189 0.0
C317 C 0.29845 0.60335 0.5793 0.0
C318 C 0.29518 0.604 0.54368 0.0
C319 C 0.65523 0.50112 0.49145 0.0
C320 C 0.40221 0.39622 0.43566 0.0
C321 C 0.35091 0.35764 0.44031 0.0
C322 C 0.32132 0.3501 0.40409 0.0
C323 C 0.37158 0.38812 0.39956 0.0
C324 C 0.39239 0.38067 0.45594 0.0
C325 C 0.33182 0.36519 0.38391 0.0
C326 C 0.53138 0.5064 0.56316 0.0
C327 C 0.4438 0.42085 0.45111 0.0
H328 H 0.75256 0.67813 0.59981 0.0
H329 H 0.68077 0.60799 0.60652 0.0
H330 H 0.7478 0.64921 0.63287 0.0
H331 H 0.62026 0.62407 0.51135 0.0
H332 H 0.29023 0.3323 0.39115 0.0
H333 H 0.37837 0.3995 0.3832 0.0
H334 H 0.41558 0.38664 0.48381 0.0
H335 H 0.3087 0.35914 0.35605 0.0
H336 H 0.3597 0.64449 0.958 0.0
H337 H 0.34024 0.68541 0.95067 0.0
H338 H 0.26065 0.723 0.06546 0.0
H339 H 0.27672 0.68167 0.07188 0.0
H340 H 0.18204 0.73422 0.02283 0.0
H341 H 0.4274 0.73699 0.03667 0.0
H342 H 0.54384 0.7191 0.02024 0.0
H343 H 0.51798 0.71209 0.90639 0.0
H344 H 0.40117 0.72969 0.92207 0.0
H345 H 0.17842 0.86695 0.04007 0.0
H346 H 0.19778 0.82607 0.0476 0.0
H347 H 0.27781 0.78831 0.93292 0.0
H348 H 0.26179 0.82957 0.92631 0.0
H349 H 0.35631 0.77722 0.97564 0.0
H350 H 0.11094 0.77439 0.96176 0.0
H351 H 0.99433 0.7921 0.9781 0.0
H352 H 1.02009 0.79909 0.09194 0.0
H353 H 0.13709 0.78167 0.07636 0.0
C354 C 0.33847 0.6616 0.98166 0.0
C355 C 0.31922 0.65996 0.0154 0.0
C356 C 0.32772 0.68505 0.97759 0.0
C357 C 0.29956 0.70754 0.00769 0.0
C358 C 0.28204 0.70597 0.04173 0.0
C359 C 0.29135 0.6824 0.04545 0.0
C360 C 0.28565 0.7324 0.00348 0.0
C361 C 0.22057 0.74379 0.01299 0.0
C362 C 0.335 0.74465 0.9897 0.0
C363 C 0.40548 0.73444 0.98046 0.0
C364 C 0.44651 0.73151 0.0081 0.0
C365 C 0.51255 0.72144 -0.00108 0.0
C366 C 0.53823 0.7144 0.96227 0.0
C367 C 0.49802 0.71753 0.93476 0.0
C368 C 0.43195 0.72759 0.94379 0.0
C369 C 0.19957 0.84978 0.01646 0.0
C370 C 0.21889 0.85132 0.98267 0.0
C371 C 0.21034 0.82637 0.02065 0.0
C372 C 0.23867 0.80385 0.99066 0.0
C373 C 0.25625 0.80535 0.95657 0.0
C374 C 0.2469 0.82887 0.95272 0.0
C375 C 0.25267 0.77904 0.99499 0.0
C376 C 0.31778 0.76765 0.9855 0.0
C377 C 0.20335 0.76679 0.00879 0.0
C378 C 0.13284 0.77696 0.01799 0.0
C379 C 0.09179 0.77984 0.99032 0.0
C380 C 0.02564 0.7898 -0.00056 0.0
C381 C 0.99988 0.79678 0.03606 0.0
C382 C 0.04012 0.79371 0.0636 0.0
C383 C 0.10629 0.78376 0.05463 0.0
H384 H 0.94868 0.80452 0.04307 0.0
H385 H 0.58934 0.70657 0.95521 0.0
H386 H 0.59282 0.33025 0.95963 0.0
H387 H 0.62002 0.2953 0.97989 0.0
H388 H 0.83401 0.30438 0.9623 0.0
H389 H 0.80652 0.3385 0.94095 0.0
H390 H 0.80434 0.25496 0.9287 0.0
H391 H 0.76049 0.32343 0.05349 0.0
H392 H 0.69625 0.35919 0.10431 0.0
H393 H 0.5352 0.30419 0.09412 0.0
H394 H 0.59805 0.26815 0.04284 0.0
H395 H 0.91775 0.17428 0.02347 0.0
H396 H 0.89692 0.21255 0.00978 0.0
H397 H 0.68576 0.18984 0.98644 0.0
H398 H 0.70626 0.15083 -0.00239 0.0
H399 H 0.71782 0.24643 0.04283 0.0
H400 H 0.76484 0.17857 0.9153 0.0
H401 H 0.83429 0.14354 0.86656 0.0
H402 H 0.99735 0.19945 0.88571 0.0
H403 H 0.92921 0.23474 0.93505 0.0
C404 C 0.64566 0.32515 0.96103 0.0
C405 C 0.69764 0.33697 0.94873 0.0
C406 C 0.66129 0.30518 0.97258 0.0
C407 C 0.72925 0.2971 0.97264 0.0
C408 C 0.78124 0.31003 0.96224 0.0
C409 C 0.76558 0.32964 0.95029 0.0
C410 C 0.74619 0.27397 0.98069 0.0
C411 C 0.78621 0.25342 0.95405 0.0
C412 C 0.72178 0.27151 0.01334 0.0
C413 C 0.68365 0.29316 0.04401 0.0
C414 C 0.71108 0.31901 0.06183 0.0
C415 C 0.67498 0.33932 0.09078 0.0
C416 C 0.61159 0.33399 0.10235 0.0
C417 C 0.58425 0.3083 0.08507 0.0
C418 C 0.62011 0.28792 0.05608 0.0
C419 C 0.86713 0.17698 0.01465 0.0
C420 C 0.81364 0.1593 0.01201 0.0
C421 C 0.85527 0.19907 0.0072 0.0
C422 C 0.78967 0.20407 -0.0025 0.0
C423 C 0.73656 0.18644 0.99435 0.0
C424 C 0.74853 0.16415 0.001 0.0
C425 C 0.7757 0.22785 0.99098 0.0
C426 C 0.73616 0.24832 0.01777 0.0
C427 C 0.80125 0.23044 0.95879 0.0
C428 C 0.84229 0.2092 0.92924 0.0
C429 C 0.81581 0.18332 0.90946 0.0
C430 C 0.85486 0.16344 0.88163 0.0
C431 C 0.92029 0.16924 0.87313 0.0
C432 C 0.94673 0.19497 0.89238 0.0
C433 C 0.90791 0.21492 0.92027 0.0
H434 H 0.95039 0.15383 0.85154 0.0
H435 H 0.58373 0.34974 0.12477 0.0
H436 H 0.32672 0.17311 0.55515 0.0
H437 H 0.35187 0.20726 0.53349 0.0
H438 H 0.13864 0.21112 0.50913 0.0
H439 H 0.1133 0.17642 0.53045 0.0
H440 H 0.21865 0.21643 0.45586 0.0
H441 H 0.2088 0.25674 0.59267 0.0
H442 H 0.23747 0.26214 0.65751 0.0
H443 H 0.44803 0.27414 0.63895 0.0
H444 H 0.42073 0.26846 0.57379 0.0
H445 H 0.22756 0.34123 0.45344 0.0
H446 H 0.20401 0.30686 0.47491 0.0
H447 H 0.41883 0.30115 0.49384 0.0
H448 H 0.44274 0.33585 0.47226 0.0
H449 H 0.33857 0.29677 0.54961 0.0
H450 H 0.34712 0.25692 0.4126 0.0
H451 H 0.31712 0.25193 0.34814 0.0
H452 H 0.10719 0.23964 0.36754 0.0
H453 H 0.1358 0.2449 0.43235 0.0
C454 C 0.28526 0.18102 0.54476 0.0
C455 C 0.21793 0.1724 0.54503 0.0
C456 C 0.29965 0.20062 0.53254 0.0
C457 C 0.24696 0.21235 0.52073 0.0
C458 C 0.18008 0.20257 0.51853 0.0
C459 C 0.16564 0.18269 0.53056 0.0
C460 C 0.26182 0.23551 0.51237 0.0
C461 C 0.24401 0.23413 0.47655 0.0
C462 C 0.29627 0.25845 0.53905 0.0
C463 C 0.3128 0.26195 0.57825 0.0
C464 C 0.26129 0.26034 0.60233 0.0
C465 C 0.27728 0.26349 0.63915 0.0
C466 C 0.34455 0.26843 0.65231 0.0
C467 C 0.39595 0.27029 0.6287 0.0
C468 C 0.38024 0.26714 0.59184 0.0
C469 C 0.26973 0.33291 0.4627 0.0
C470 C 0.33705 0.34092 0.46069 0.0
C471 C 0.25623 0.31319 0.47478 0.0
C472 C 0.30976 0.30091 0.48497 0.0
C473 C 0.37679 0.31018 0.4857 0.0
C474 C 0.3904 0.33007 0.47359 0.0
C475 C 0.29542 0.27767 0.49314 0.0
C476 C 0.31329 0.27905 0.52891 0.0
C477 C 0.26084 0.25478 0.46647 0.0
C478 C 0.24353 0.25152 0.42745 0.0
C479 C 0.29447 0.25335 0.40323 0.0
C480 C 0.27774 0.25044 0.36661 0.0
C481 C 0.21027 0.24553 0.35378 0.0
C482 C 0.15942 0.24346 0.37753 0.0
C483 C 0.17588 0.24638 0.41419 0.0
H484 H 0.19742 0.24326 0.32541 0.0
H485 H 0.35683 0.27086 0.68083 0.0
H486 H 0.91227 0.82967 0.4489 0.0
H487 H 0.88949 0.79006 0.45956 0.0
H488 H 0.71366 0.8286 0.52726 0.0
H489 H 0.73661 0.86812 0.51703 0.0
H490 H 0.78512 0.80278 0.55963 0.0
H491 H 0.69866 0.78379 0.4341 0.0
H492 H 0.70527 0.77789 0.36749 0.0
H493 H 0.85339 0.71609 0.34237 0.0
H494 H 0.84854 0.72194 0.40905 0.0
H495 H 0.60947 0.69653 0.56847 0.0
H496 H 0.63481 0.73277 0.55066 0.0
H497 H 0.80313 0.68778 0.48179 0.0
H498 H 0.77671 0.65132 0.49913 0.0
H499 H 0.74243 0.7158 0.44899 0.0
H500 H 0.82781 0.73367 0.57322 0.0
H501 H 0.82279 0.73926 0.63972 0.0
H502 H 0.68016 0.80314 0.66744 0.0
H503 H 0.68333 0.79761 0.6009 0.0
C504 C 0.86933 0.82974 0.46644 0.0
C505 C 0.82568 0.85183 0.48179 0.0
C506 C 0.85603 0.80706 0.47224 0.0
C507 C 0.79913 0.80619 0.49364 0.0
C508 C 0.75749 0.82871 0.51039 0.0
C509 C 0.77044 0.85124 0.50439 0.0
C510 C 0.78169 0.78181 0.49831 0.0
C511 C 0.77511 0.78383 0.53543 0.0
C512 C 0.77044 0.75689 0.46671 0.0
C513 C 0.77389 0.75355 0.42672 0.0
C514 C 0.73321 0.76915 0.4145 0.0
C515 C 0.73653 0.76577 0.3767 0.0
C516 C 0.7799 0.74669 0.35075 0.0
C517 C 0.81997 0.73091 0.36253 0.0
C518 C 0.81696 0.73426 0.40033 0.0
C519 C 0.65033 0.69411 0.5485 0.0
C520 C 0.69086 0.67121 0.53482 0.0
C521 C 0.66533 0.71488 0.53869 0.0
C522 C 0.72191 0.71326 0.51561 0.0
C523 C 0.7595 0.68955 0.49979 0.0
C524 C 0.74426 0.6687 0.50949 0.0
C525 C 0.74469 0.73692 0.51033 0.0
C526 C 0.75259 0.73474 0.47317 0.0
C527 C 0.75752 0.76172 0.5419 0.0
C528 C 0.75525 0.76502 0.58194 0.0
C529 C 0.79487 0.74875 0.5934 0.0
C530 C 0.79243 0.75193 0.63112 0.0
C531 C 0.75105 0.7715 0.65777 0.0
C532 C 0.71208 0.78796 0.64675 0.0
C533 C 0.71417 0.7848 0.60903 0.0
H534 H 0.74931 0.77396 0.68697 0.0
H535 H 0.78229 0.74407 0.32148 0.0
H536 H 0.24109 0.97129 0.94157 0.0
H537 H 0.36573 0.97127 0.94474 0.0
H538 H 0.36088 0.04097 0.05252 0.0
H539 H 0.23653 0.03948 0.05165 0.0
H540 H 0.45492 0.0422 0.99262 0.0
H541 H 0.39531 0.99314 0.06204 0.0
H542 H 0.34262 0.95859 0.0768 0.0
H543 H 0.44803 0.89805 0.98262 0.0
H544 H 0.49961 0.93225 0.96642 0.0
H545 H 0.8005 0.04214 0.05474 0.0
H546 H 0.67586 0.04237 0.05301 0.0
H547 H 0.67721 0.97085 0.94743 0.0
H548 H 0.8016 0.97193 0.94696 0.0
H549 H 0.58501 0.97094 0.00724 0.0
H550 H 0.64339 0.02127 0.93807 0.0
H551 H 0.70047 0.05678 0.92716 0.0
H552 H 0.60004 0.11592 0.0251 0.0
H553 H 0.54348 0.08069 0.03715 0.0
C554 C 0.26632 0.98633 0.96635 0.0
C555 C 0.22832 0.00538 0.99642 0.0
C556 C 0.33762 0.98641 0.9679 0.0
C557 C 0.37238 0.00612 -0.00115 0.0
C558 C 0.33494 0.02561 0.02836 0.0
C559 C 0.26369 0.02487 0.02758 0.0
C560 C 0.4479 0.00634 0.00043 0.0
C561 C 0.48336 0.02679 0.99626 0.0
C562 C 0.48486 0.98603 0.00464 0.0
C563 C 0.45054 0.96526 0.01265 0.0
C564 C 0.40612 0.97244 0.04392 0.0
C565 C 0.37674 0.95292 0.0527 0.0
C566 C 0.39222 0.92615 0.03079 0.0
C567 C 0.43637 0.91881 -0.0003 0.0
C568 C 0.46538 0.93825 0.99056 0.0
C569 C 0.77451 0.02682 0.03065 0.0
C570 C 0.81148 0.00714 0.00083 0.0
C571 C 0.70319 0.02679 0.02999 0.0
C572 C 0.66744 0.00663 8e-05 0.0
C573 C 0.70392 0.98655 0.97082 0.0
C574 C 0.77516 0.98708 0.97081 0.0
C575 C 0.59188 0.00665 -0.00086 0.0
C576 C 0.55644 0.98627 0.00346 0.0
C577 C 0.55495 0.02711 0.99534 0.0
C578 C 0.58976 0.04835 0.98872 0.0
C579 C 0.63416 0.04184 0.95759 0.0
C580 C 0.66627 0.0619 0.95113 0.0
C581 C 0.65375 0.08856 0.97535 0.0
C582 C 0.60951 0.09524 0.0063 0.0
C583 C 0.57751 0.07523 0.013 0.0
H584 H 0.67835 0.10401 0.97007 0.0
H585 H 0.36975 0.91108 0.0378 0.0
H586 H 0.243 0.04002 0.48005 0.0
H587 H 0.36705 0.04219 0.48253 0.0
H588 H 0.37116 0.9777 0.51596 0.0
H589 H 0.24787 0.97897 0.51984 0.0
H590 H 0.4643 1.0048 0.54936 0.0
H591 H 0.40945 0.97454 0.41565 0.0
H592 H 0.35433 0.97652 0.35975 0.0
H593 H 0.45141 0.05165 0.38653 0.0
H594 H 0.50672 0.05018 0.4427 0.0
H595 H 0.81155 0.97069 0.50034 0.0
H596 H 0.68674 0.97061 0.49974 0.0
H597 H 0.68834 0.04633 0.4945 0.0
H598 H 0.8128 0.0452 0.49209 0.0
H599 H 0.59503 0.01396 0.44654 0.0
H600 H 0.65371 0.04009 0.58001 0.0
H601 H 0.7113 0.03364 0.63193 0.0
H602 H 0.60735 0.95902 0.59884 0.0
H603 H 0.54959 0.96495 0.54657 0.0
C604 C 0.27039 0.02638 0.48812 0.0
C605 C 0.23497 0.0083 0.49799 0.0
C606 C 0.34183 0.02731 0.48888 0.0
C607 C 0.3799 0.00925 0.49763 0.0
C608 C 0.34417 0.99169 0.50844 0.0
C609 C 0.27297 0.99183 0.50968 0.0
C610 C 0.45648 0.00904 0.49676 0.0
C611 C 0.4923 0.00632 0.52633 0.0
C612 C 0.49461 0.01156 0.4674 0.0
C613 C 0.4618 0.01233 0.43348 0.0
C614 C 0.41883 0.99151 0.40966 0.0
C615 C 0.38759 0.99254 0.37793 0.0
C616 C 0.39927 0.01422 0.36964 0.0
C617 C 0.4424 0.03487 0.39298 0.0
C618 C 0.4738 0.03393 0.42471 0.0
C619 C 0.78518 0.98702 0.49832 0.0
C620 C 0.82217 0.00798 0.49628 0.0
C621 C 0.71378 0.98723 0.49866 0.0
C622 C 0.67774 0.0087 0.49771 0.0
C623 C 0.71472 0.02961 0.49552 0.0
C624 C 0.78609 0.02921 0.49477 0.0
C625 C 0.60167 0.00928 0.4986 0.0
C626 C 0.5663 0.01221 0.4692 0.0
C627 C 0.56391 0.00615 0.52742 0.0
C628 C 0.59767 1.00291 0.55931 0.0
C629 C 0.64333 0.02229 0.58377 0.0
C630 C 0.67597 0.01872 0.61326 0.0
C631 C 0.66306 0.99592 0.61865 0.0
C632 C 0.61729 0.97668 0.59465 0.0
C633 C 0.58449 0.98015 0.56516 0.0
H634 H 0.68848 0.99318 0.64144 0.0
H635 H 0.37498 0.01499 0.34509 0.0
H636 H 0.75218 0.54785 0.03722 0.0
H637 H 0.87598 0.54716 0.0349 0.0
H638 H 0.8703 0.46215 0.96723 0.0
H639 H 0.74516 0.46317 0.96934 0.0
H640 H 0.96705 0.4731 0.01677 0.0
H641 H 0.90885 0.50797 0.92799 0.0
H642 H 0.85186 0.53779 0.90519 0.0
H643 H 0.95325 0.60514 0.9922 0.0
H644 H 1.01024 0.57575 0.01584 0.0
H645 H 0.31362 0.4722 0.94275 0.0
H646 H 0.18882 0.47128 0.94407 0.0
H647 H 0.19057 0.53788 0.05518 0.0
H648 H 0.31529 0.53712 0.05585 0.0
H649 H 0.09798 0.53537 0.9814 0.0
H650 H 0.15085 0.49808 0.07114 0.0
H651 H 0.20649 0.46637 0.09077 0.0
H652 H 0.11286 0.40114 0.99641 0.0
H653 H 0.05843 0.43249 0.97551 0.0
C654 C 0.7769 0.52924 0.02071 0.0
C655 C 0.73847 0.50586 0.00213 0.0
C656 C 0.8482 0.52872 0.01975 0.0
C657 C 0.88324 0.50469 -7e-05 0.0
C658 C 0.8449 0.48105 0.98237 0.0
C659 C 0.77331 0.48163 0.98355 0.0
C660 C 0.95959 0.50428 -0.00175 0.0
C661 C 0.99531 0.48653 0.00852 0.0
C662 C 0.99742 0.52193 0.98795 0.0
C663 C 0.96354 0.53967 0.97377 0.0
C664 C 0.91874 0.52915 0.94237 0.0
C665 C 0.88653 0.54597 0.92926 0.0
C666 C 0.89921 0.57331 0.94711 0.0
C667 C 0.94378 0.58393 0.97828 0.0
C668 C 0.97609 0.56721 0.99153 0.0
C669 C 0.28775 0.48606 0.96801 0.0
C670 C 0.32507 0.50433 -0.00055 0.0
C671 C 0.21623 0.48581 0.96845 0.0
C672 C 0.18039 0.50447 -0.00022 0.0
C673 C 0.2172 0.52323 0.03077 0.0
C674 C 0.28864 0.52282 0.03096 0.0
C675 C 0.10451 0.5044 0.00018 0.0
C676 C 0.0692 0.52198 0.98953 0.0
C677 C 0.06704 0.48643 0.00967 0.0
C678 C 0.10141 0.46759 0.02147 0.0
C679 C 0.14316 0.47696 0.05417 0.0
C680 C 0.17419 0.45907 0.06564 0.0
C681 C 0.1629 0.43178 0.04497 0.0
C682 C 0.12125 0.4223 0.01251 0.0
C683 C 0.09057 0.44011 0.00074 0.0
H684 H 0.18658 0.41794 0.05402 0.0
H685 H 0.87433 0.58629 0.93686 0.0
H686 H 0.30864 0.47773 0.52262 0.0
H687 H 0.1843 0.47674 0.52104 0.0
H688 H 0.18359 0.53519 0.47606 0.0
H689 H 0.30826 0.53608 0.47729 0.0
H690 H 0.08771 0.54674 0.52869 0.0
H691 H 0.15186 0.46747 0.41872 0.0
H692 H 0.21223 0.42497 0.38433 0.0
H693 H 0.11112 0.39251 0.45278 0.0
H694 H 0.05078 0.43493 0.48792 0.0
H695 H 0.74196 0.53053 0.46957 0.0
H696 H 0.86626 0.53128 0.47099 0.0
H697 H 0.86633 0.473 0.51627 0.0
H698 H 0.74161 0.47235 0.5152 0.0
H699 H 0.9625 0.46132 0.46353 0.0
H700 H 0.8982 0.5406 0.57342 0.0
H701 H 0.83797 0.58312 0.60783 0.0
H702 H 0.93947 0.61559 0.5395 0.0
H703 H 0.99964 0.57314 0.50433 0.0
C704 C 0.28223 0.49043 0.5124 0.0
C705 C 0.31891 0.50725 0.5005 0.0
C706 C 0.21082 0.48975 0.51134 0.0
C707 C 0.17401 0.50564 0.49798 0.0
C708 C 0.21046 0.52271 0.48652 0.0
C709 C 0.282 0.52335 0.48748 0.0
C710 C 0.09773 0.50442 0.49594 0.0
C711 C 0.06047 0.52808 0.51397 0.0
C712 C 0.06157 0.48005 0.47753 0.0
C713 C 0.09724 0.45444 0.45615 0.0
C714 C 0.14282 0.45132 0.42659 0.0
C715 C 0.17698 0.42724 0.40694 0.0
C716 C 0.16557 0.40608 0.41641 0.0
C717 C 0.1199 0.40893 0.4455 0.0
C718 C 0.08565 0.43297 0.46525 0.0
C719 C 0.7682 0.5178 0.47982 0.0
C720 C 0.73132 0.50112 0.49189 0.0
C721 C 0.8396 0.51835 0.48077 0.0
C722 C 0.87622 0.50246 0.4942 0.0
C723 C 0.83959 0.48548 0.50576 0.0
C724 C 0.76804 0.48498 0.50491 0.0
C725 C 0.9525 0.50365 0.49627 0.0
C726 C 0.98976 0.47998 0.47826 0.0
C727 C 0.98867 0.52801 0.51468 0.0
C728 C 0.95301 0.55362 0.53605 0.0
C729 C 0.90736 0.55676 0.56558 0.0
C730 C 0.87327 0.58085 0.58524 0.0
C731 C 0.88484 0.60202 0.57581 0.0
C732 C 0.93056 0.59916 0.54675 0.0
C733 C 0.96472 0.57511 0.52698 0.0
H734 H 0.8586 0.62067 0.59111 0.0
H735 H 0.19191 0.38744 0.40114 0.0
H736 H 0.11286 0.02113 0.39519 0.0
H737 H 0.10271 0.02129 0.33263 0.0
H738 H 0.91012 0.98001 0.31445 0.0
H739 H 0.91875 0.98073 0.37794 0.0
H740 H 0.09407 0.98086 0.26185 0.0
H741 H 0.81949 0.99694 0.28037 0.0
H742 H 0.73152 0.02203 0.32768 0.0
H743 H 0.86282 0.09054 0.37296 0.0
H744 H 0.95252 0.06539 0.327 0.0
H745 H 1.02142 0.96634 0.07823 0.0
H746 H 1.01318 0.9631 0.13824 0.0
H747 H 0.96158 0.04634 0.1956 0.0
H748 H 0.96029 0.04863 0.13433 0.0
H749 H 0.90044 0.02478 0.22995 0.0
H750 H 0.13657 0.01757 0.19149 0.0
H751 H 0.23189 0.99844 0.14652 0.0
H752 H 0.19412 0.92204 0.14474 0.0
H753 H 0.09835 0.94068 0.18949 0.0
C754 C 0.06799 0.01229 0.37801 0.0
C755 C 1.01599 1.00131 0.39168 0.0
C756 C 0.06242 0.01231 0.34221 0.0
C757 C 1.00495 1.00121 0.3192 0.0
C758 C 0.95393 0.98941 0.3322 0.0
C759 C 0.95928 0.98953 0.36823 0.0
C760 C 0.99944 1.00175 0.28142 0.0
C761 C 0.05155 0.99028 0.25467 0.0
C762 C 0.94512 0.01459 0.2724 0.0
C763 C 0.89253 0.02929 0.30071 0.0
C764 C 0.82962 0.01727 0.30074 0.0
C765 C 0.77972 0.03143 0.32741 0.0
C766 C 0.79183 0.05779 0.35355 0.0
C767 C 0.85385 0.07002 0.35304 0.0
C768 C 0.90444 0.05576 0.32696 0.0
C769 C 1.00785 0.98399 0.10344 0.0
C770 C 0.9944 0.00811 0.10142 0.0
C771 C 1.0038 0.98215 0.13804 0.0
C772 C 0.99024 1.00477 0.17207 0.0
C773 C 0.97358 0.02863 0.16998 0.0
C774 C 0.9742 0.0301 0.13488 0.0
C775 C 0.99499 1.00363 0.2097 0.0
C776 C 0.94294 0.01512 0.23664 0.0
C777 C 0.05073 0.99142 0.21927 0.0
C778 C 0.11005 0.98048 0.1936 0.0
C779 C 0.14866 0.9967 0.1815 0.0
C780 C 0.2027 0.98594 0.15603 0.0
C781 C 0.21892 0.95903 0.14271 0.0
C782 C 0.18149 0.94287 0.15507 0.0
C783 C 0.12745 0.95354 0.18055 0.0
H784 H 0.26054 0.95069 0.12287 0.0
H785 H 0.75305 0.06879 0.37406 0.0
H786 H 0.92937 0.0212 0.89799 0.0
H787 H 0.93212 0.02172 0.83551 0.0
H788 H 0.1234 0.97958 0.81095 0.0
H789 H 0.11956 0.97826 0.87306 0.0
H790 H 1.01068 0.0445 0.80765 0.0
H791 H 0.1478 0.94521 0.7179 0.0
H792 H 0.154 0.89935 0.71182 0.0
H793 H 0.95407 0.90727 0.76038 0.0
H794 H 0.94708 0.95322 0.76708 0.0
H795 H 0.10488 0.04348 0.62898 0.0
H796 H 0.10666 0.04169 0.69097 0.0
H797 H 0.96202 0.97682 0.64849 0.0
H798 H 0.96112 0.97804 0.58675 0.0
H799 H 0.05494 0.96575 0.68542 0.0
H800 H 0.91757 0.04157 0.7088 0.0
H801 H 0.88657 0.08551 0.71292 0.0
H802 H 0.04808 0.12188 0.79382 0.0
H803 H 0.0809 0.07804 0.78966 0.0
C804 C 0.97161 0.01176 0.87907 0.0
C805 C 0.02397 0.9995 0.89028 0.0
C806 C 0.9733 0.01216 0.84339 0.0
C807 C 0.02775 1.00057 0.81825 0.0
C808 C 0.08005 0.98818 0.82937 0.0
C809 C 0.07787 0.98744 0.86492 0.0
C810 C 0.03061 1.00238 0.78113 0.0
C811 C 1.02049 0.02726 0.78093 0.0
C812 C 0.04252 0.97993 0.74609 0.0
C813 C 0.04734 0.9527 0.74341 0.0
C814 C 0.10538 0.93717 0.72745 0.0
C815 C 0.10905 0.91119 0.72395 0.0
C816 C 0.05464 0.90045 0.73593 0.0
C817 C 0.99643 0.91568 0.75141 0.0
C818 C 0.99274 0.94174 0.75528 0.0
C819 C 0.07346 0.02886 0.63291 0.0
C820 C 0.03285 0.01093 0.60287 0.0
C821 C 0.07433 0.02792 0.6684 0.0
C822 C 0.03414 0.00921 0.67452 0.0
C823 C 0.99371 0.99136 0.6445 0.0
C824 C 0.99309 0.99217 0.60914 0.0
C825 C 0.03414 0.00779 0.71188 0.0
C826 C 0.04555 0.98304 0.71216 0.0
C827 C 1.02063 0.03018 0.74677 0.0
C828 C 1.00238 0.05645 0.74844 0.0
C829 C 0.94713 0.05887 0.72704 0.0
C830 C 0.92912 0.08378 0.72945 0.0
C831 C 0.96556 0.10646 0.75346 0.0
C832 C 1.0201 0.10428 0.77511 0.0
C833 C 0.03847 0.0794 0.7727 0.0
H834 H 0.95135 0.12574 0.75541 0.0
H835 H 0.05746 0.8803 0.73309 0.0
H836 H 0.40825 0.50744 0.39268 0.0
H837 H 0.40443 0.51129 0.33219 0.0
H838 H 0.62146 0.49706 0.31901 0.0
H839 H 0.62563 0.4959 0.3812 0.0
H840 H 0.59938 0.53284 0.30015 0.0
H841 H 0.48328 0.4491 0.26472 0.0
H842 H 0.39571 0.41899 0.2699 0.0
H843 H 0.23797 0.46683 0.25475 0.0
H844 H 0.32463 0.49736 0.24986 0.0
H845 H 0.62564 0.49409 0.10069 0.0
H846 H 0.61869 0.49449 0.16382 0.0
H847 H 0.42253 0.53266 0.18169 0.0
H848 H 0.42916 0.53227 0.11827 0.0
H849 H 0.42738 0.48767 0.19859 0.0
H850 H 0.55348 0.5693 0.22934 0.0
H851 H 0.64708 0.59589 0.22079 0.0
H852 H 0.79421 0.54598 0.23969 0.0
H853 H 0.70158 0.5191 0.24837 0.0
C854 C 0.45476 0.50493 0.37648 0.0
C855 C 0.51715 0.50128 0.39115 0.0
C856 C 0.45265 0.50694 0.34178 0.0
C857 C 0.5125 0.50403 0.32033 0.0
C858 C 0.57453 0.49957 0.33485 0.0
C859 C 0.57697 0.4987 0.37022 0.0
C860 C 0.51172 0.50673 0.28369 0.0
C861 C 0.56212 0.52258 0.27789 0.0
C862 C 0.46232 0.49405 0.25464 0.0
C863 C 0.41033 0.47562 0.25729 0.0
C864 C 0.42989 0.45325 0.2627 0.0
C865 C 0.38043 0.43611 0.26555 0.0
C866 C 0.31132 0.44103 0.26275 0.0
C867 C 0.29151 0.46306 0.25695 0.0
C868 C 0.34075 0.48027 0.25409 0.0
C869 C 0.5813 0.50278 0.11822 0.0
C870 C 0.52808 0.51326 0.10471 0.0
C871 C 0.57745 0.50303 0.15426 0.0
C872 C 0.52026 0.51372 0.17746 0.0
C873 C 0.46714 0.52437 0.16419 0.0
C874 C 0.47123 0.52433 0.12818 0.0
C875 C 0.51573 0.51313 0.2152 0.0
C876 C 0.46427 0.49784 0.22114 0.0
C877 C 0.5651 0.52573 0.24399 0.0
C878 C 0.62065 0.54213 0.23929 0.0
C879 C 0.60581 0.56394 0.2315 0.0
C880 C 0.65865 0.57906 0.22664 0.0
C881 C 0.72649 0.57254 0.22949 0.0
C882 C 0.74165 0.55099 0.23745 0.0
C883 C 0.68902 0.53587 0.24248 0.0
H884 H 0.7673 0.58424 0.22562 0.0
H885 H 0.2731 0.42775 0.265 0.0
H886 H 0.63523 0.52709 0.61522 0.0
H887 H 0.64433 0.52712 0.67845 0.0
H888 H 0.44924 0.48782 0.66121 0.0
H889 H 0.44031 0.48719 0.59794 0.0
H890 H 0.48406 0.5403 0.73835 0.0
H891 H 0.54821 0.44574 0.65536 0.0
H892 H 0.61831 0.41178 0.6053 0.0
H893 H 0.80061 0.45337 0.66125 0.0
H894 H 0.73134 0.4873 0.71197 0.0
H895 H 0.43621 0.50168 0.88529 0.0
H896 H 0.44092 0.50311 0.82337 0.0
H897 H 0.6608 0.49968 0.82555 0.0
H898 H 0.65536 0.49619 0.88642 0.0
H899 H 0.62377 0.47299 0.75754 0.0
H900 H 0.56421 0.55979 0.84926 0.0
H901 H 0.49889 0.59305 0.9027 0.0
H902 H 0.31741 0.57199 0.8338 0.0
H903 H 0.38132 0.53826 0.78015 0.0
C904 C 0.59428 0.51851 0.62499 0.0
C905 C 0.53713 0.50708 0.60162 0.0
C906 C 0.5996 0.51851 0.661 0.0
C907 C 0.54735 0.50751 0.67436 0.0
C908 C 0.48997 0.49643 0.65133 0.0
C909 C 0.48515 0.496 0.61517 0.0
C910 C 0.55238 0.50726 0.71224 0.0
C911 C 0.51432 0.52559 0.74272 0.0
C912 C 0.59358 0.48869 0.71812 0.0
C913 C 0.63485 0.46902 0.6871 0.0
C914 C 0.60324 0.44765 0.65678 0.0
C915 C 0.64278 0.42834 0.62851 0.0
C916 C 0.71389 0.43042 0.6301 0.0
C917 C 0.74558 0.45178 0.66006 0.0
C918 C 0.70624 0.47097 0.68866 0.0
C919 C 0.48541 0.50094 0.87222 0.0
C920 C 0.54548 0.49894 0.8904 0.0
C921 C 0.48822 0.50207 0.83706 0.0
C922 C 0.55136 0.50247 0.82022 0.0
C923 C 0.61144 0.49963 0.83798 0.0
C924 C 0.60844 0.49759 0.87265 0.0
C925 C 0.55431 0.5058 0.78417 0.0
C926 C 0.59404 0.48809 0.75384 0.0
C927 C 0.51571 0.52547 0.77888 0.0
C928 C 0.47755 0.54638 0.8107 0.0
C929 C 0.51033 0.56221 0.84551 0.0
C930 C 0.47354 0.58112 0.87587 0.0
C931 C 0.40404 0.58462 0.87166 0.0
C932 C 0.37126 0.56927 0.83702 0.0
C933 C 0.40776 0.55026 0.80661 0.0
H934 H 0.3756 0.59923 0.89521 0.0
H935 H 0.74442 0.41551 0.60806 0.0
loop_
_geom_bond_atom_site_label_1
_geom_bond_atom_site_label_2
_geom_bond_distance
_geom_bond_site_symmetry_2
_ccdc_geom_bond_type
Eu0 N29 2.600 . S
Eu0 N35 2.562 . S
Eu0 O44 2.462 1_655 S
Eu0 O45 2.373 . S
Eu0 O47 2.432 1_655 S
Eu0 O48 2.291 1_556 S
Eu0 O52 2.335 1_655 S
Eu0 O55 2.372 1_655 S
Eu0 C64 2.787 1_655 S
C1 N2 1.365 . S
C1 C4 1.405 . S
C1 C8 1.448 . S
N2 C1 1.365 . S
N2 C5 1.319 . S
N2 Eu11 2.600 . S
C3 C5 1.397 . S
C3 C6 1.367 . S
C3 H23 0.931 . S
C4 C1 1.405 . S
C4 C6 1.403 . S
C4 C10 1.439 . S
C5 N2 1.319 . S
C5 C3 1.397 . S
C5 H16 0.930 . S
C6 C3 1.367 . S
C6 C4 1.403 . S
C6 H27 0.929 . S
C7 C8 1.430 . S
C7 C9 1.387 . S
C7 C13 1.404 . S
C8 C1 1.448 . S
C8 C7 1.430 . S
C8 N12 1.351 . S
C9 C7 1.387 . S
C9 C10 1.374 . S
C9 H24 0.931 . S
C10 C4 1.439 . S
C10 C9 1.374 . S
C10 H25 0.931 . S
Eu11 N2 2.600 . S
Eu11 N12 2.562 . S
Eu11 O46 2.335 1_455 S
Eu11 O49 2.372 1_455 S
Eu11 O50 2.462 1_455 S
Eu11 O51 2.373 . S
Eu11 O53 2.432 1_455 S
Eu11 O54 2.291 1_554 S
Eu11 C75 2.787 1_455 S
N12 C8 1.351 . S
N12 Eu11 2.562 . S
N12 C14 1.325 1_554 S
C13 C7 1.404 . S
C13 C15 1.366 1_554 S
C13 H21 0.930 1_554 S
C14 N12 1.325 1_556 S
C14 C15 1.416 . S
C14 H20 0.929 . S
C15 C13 1.366 1_556 S
C15 C14 1.416 . S
C15 H17 0.930 . S
H16 C5 0.930 . S
H17 C15 0.930 . S
H18 C33 0.930 . S
H19 C40 0.930 . S
H20 C14 0.929 . S
H21 C13 0.930 1_556 S
H22 C36 0.929 . S
H23 C3 0.931 . S
H24 C9 0.931 . S
H25 C10 0.931 . S
H26 C31 0.931 . S
H27 C6 0.929 . S
H28 C39 0.930 1_554 S
N29 Eu0 2.600 . S
N29 C30 1.365 . S
N29 C33 1.319 . S
C30 N29 1.365 . S
C30 C32 1.405 . S
C30 C38 1.448 . S
C31 H26 0.931 . S
C31 C33 1.397 . S
C31 C34 1.367 . S
C32 C30 1.405 . S
C32 C34 1.403 . S
C32 C65 1.439 . S
C33 H18 0.930 . S
C33 N29 1.319 . S
C33 C31 1.397 . S
C34 C31 1.367 . S
C34 C32 1.403 . S
C34 H41 0.929 . S
N35 Eu0 2.562 . S
N35 C36 1.325 1_556 S
N35 C38 1.351 . S
C36 H22 0.929 . S
C36 N35 1.325 1_554 S
C36 C40 1.416 . S
C37 C38 1.430 . S
C37 C39 1.404 . S
C37 C66 1.387 . S
C38 C30 1.448 . S
C38 N35 1.351 . S
C38 C37 1.430 . S
C39 H28 0.930 1_556 S
C39 C37 1.404 . S
C39 C40 1.366 1_556 S
C40 H19 0.930 . S
C40 C36 1.416 . S
C40 C39 1.366 1_554 S
H41 C34 0.929 . S
H42 C65 0.931 . S
H43 C66 0.931 . S
O44 Eu0 2.462 1_455 S
O44 C64 1.252 . S
O45 Eu0 2.373 . S
O45 C56 1.249 1_565 S
O46 Eu11 2.335 1_655 S
O46 C56 1.264 1_554 S
O47 Eu0 2.432 1_455 S
O47 C64 1.268 . S
O48 Eu0 2.291 1_554 S
O48 C63 1.255 1_565 S
O49 Eu11 2.372 1_655 S
O49 C63 1.257 . S
O50 Eu11 2.462 1_655 S
O50 C75 1.252 . S
O51 Eu11 2.373 . S
O51 C67 1.249 1_545 S
O52 Eu0 2.335 1_455 S
O52 C67 1.264 1_556 S
O53 Eu11 2.432 1_655 S
O53 C75 1.268 . S
O54 Eu11 2.291 1_556 S
O54 C74 1.255 1_545 S
O55 Eu0 2.372 1_455 S
O55 C74 1.257 . S
C56 O45 1.249 1_545 S
C56 O46 1.264 1_556 S
C57 C60 1.382 . S
C57 C62 1.390 . S
C57 C64 1.506 . S
C58 C59 1.398 . S
C58 C62 1.392 . S
C59 C58 1.398 . S
C59 C61 1.372 . S
C59 H76 0.931 . S
C60 C57 1.382 . S
C60 C61 1.390 . S
C60 H77 0.931 . S
C61 C59 1.372 . S
C61 C60 1.390 . S
C61 H78 0.929 . S
C62 C57 1.390 . S
C62 C58 1.392 . S
C62 H79 0.930 1_556 S
C63 O48 1.255 1_545 S
C63 O49 1.257 . S
C64 Eu0 2.787 1_455 S
C64 O44 1.252 . S
C64 O47 1.268 . S
C64 C57 1.506 . S
C65 C32 1.439 . S
C65 H42 0.931 . S
C65 C66 1.374 . S
C66 C37 1.387 . S
C66 H43 0.931 . S
C66 C65 1.374 . S
C67 O51 1.249 1_565 S
C67 O52 1.264 1_554 S
C68 C71 1.382 . S
C68 C72 1.390 . S
C68 C75 1.506 . S
C69 C70 1.398 . S
C69 C72 1.392 . S
C70 C69 1.398 . S
C70 C73 1.372 . S
C70 H80 0.931 . S
C71 C68 1.382 . S
C71 C73 1.390 . S
C71 H81 0.931 . S
C72 C68 1.390 . S
C72 C69 1.392 . S
C72 H82 0.930 1_554 S
C73 C70 1.372 . S
C73 C71 1.390 . S
C73 H83 0.929 . S
C74 O54 1.255 1_565 S
C74 O55 1.257 . S
C75 Eu11 2.787 1_655 S
C75 O50 1.252 . S
C75 O53 1.268 . S
C75 C68 1.506 . S
H76 C59 0.931 . S
H77 C60 0.931 . S
H78 C61 0.929 . S
H79 C62 0.930 1_554 S
H80 C70 0.931 . S
H81 C71 0.931 . S
H82 C72 0.930 1_556 S
H83 C73 0.929 . S
Eu84 N113 2.600 . S
Eu84 N119 2.562 . S
Eu84 O128 2.462 1_655 S
Eu84 O129 2.373 . S
Eu84 O131 2.432 1_655 S
Eu84 O132 2.291 . S
Eu84 O136 2.335 1_655 S
Eu84 O139 2.372 1_655 S
Eu84 C148 2.787 1_655 S
C85 N86 1.365 . S
C85 C88 1.405 . S
C85 C92 1.448 . S
N86 C85 1.365 . S
N86 C89 1.319 . S
N86 Eu95 2.600 . S
C87 C89 1.397 . S
C87 C90 1.367 . S
C87 H107 0.931 . S
C88 C85 1.405 . S
C88 C90 1.403 . S
C88 C94 1.439 . S
C89 N86 1.319 . S
C89 C87 1.397 . S
C89 H100 0.930 . S
C90 C87 1.367 . S
C90 C88 1.403 . S
C90 H111 0.929 . S
C91 C92 1.430 . S
C91 C93 1.387 . S
C91 C97 1.404 . S
C92 C85 1.448 . S
C92 C91 1.430 . S
C92 N96 1.351 . S
C93 C91 1.387 . S
C93 C94 1.374 . S
C93 H108 0.931 . S
C94 C88 1.439 . S
C94 C93 1.374 . S
C94 H109 0.931 . S
Eu95 N86 2.600 . S
Eu95 N96 2.562 . S
Eu95 O130 2.335 1_455 S
Eu95 O133 2.372 1_455 S
Eu95 O134 2.462 1_455 S
Eu95 O135 2.373 . S
Eu95 O137 2.432 1_455 S
Eu95 O138 2.291 . S
Eu95 C159 2.787 1_455 S
N96 C92 1.351 . S
N96 Eu95 2.562 . S
N96 C98 1.325 . S
C97 C91 1.404 . S
C97 C99 1.366 . S
C97 H105 0.930 . S
C98 N96 1.325 . S
C98 C99 1.416 . S
C98 H104 0.929 . S
C99 C97 1.366 . S
C99 C98 1.416 . S
C99 H101 0.930 . S
H100 C89 0.930 . S
H101 C99 0.930 . S
H102 C117 0.930 . S
H103 C124 0.930 . S
H104 C98 0.929 . S
H105 C97 0.930 . S
H106 C120 0.929 . S
H107 C87 0.931 . S
H108 C93 0.931 . S
H109 C94 0.931 . S
H110 C115 0.931 . S
H111 C90 0.929 . S
H112 C123 0.930 . S
N113 Eu84 2.600 . S
N113 C114 1.365 . S
N113 C117 1.319 . S
C114 N113 1.365 . S
C114 C116 1.405 . S
C114 C122 1.448 . S
C115 H110 0.931 . S
C115 C117 1.397 . S
C115 C118 1.367 . S
C116 C114 1.405 . S
C116 C118 1.403 . S
C116 C149 1.439 . S
C117 H102 0.930 . S
C117 N113 1.319 . S
C117 C115 1.397 . S
C118 C115 1.367 . S
C118 C116 1.403 . S
C118 H125 0.929 . S
N119 Eu84 2.562 . S
N119 C120 1.325 . S
N119 C122 1.351 . S
C120 H106 0.929 . S
C120 N119 1.325 . S
C120 C124 1.416 . S
C121 C122 1.430 . S
C121 C123 1.404 . S
C121 C150 1.387 . S
C122 C114 1.448 . S
C122 N119 1.351 . S
C122 C121 1.430 . S
C123 H112 0.930 . S
C123 C121 1.404 . S
C123 C124 1.366 . S
C124 H103 0.930 . S
C124 C120 1.416 . S
C124 C123 1.366 . S
H125 C118 0.929 . S
H126 C149 0.931 . S
H127 C150 0.931 . S
O128 Eu84 2.462 1_455 S
O128 C148 1.252 . S
O129 Eu84 2.373 . S
O129 C140 1.249 1_545 S
O130 Eu95 2.335 1_655 S
O130 C140 1.264 . S
O131 Eu84 2.432 1_455 S
O131 C148 1.268 . S
O132 Eu84 2.291 . S
O132 C147 1.255 1_545 S
O133 Eu95 2.372 1_655 S
O133 C147 1.257 . S
O134 Eu95 2.462 1_655 S
O134 C159 1.252 . S
O135 Eu95 2.373 . S
O135 C151 1.249 1_565 S
O136 Eu84 2.335 1_455 S
O136 C151 1.264 . S
O137 Eu95 2.432 1_655 S
O137 C159 1.268 . S
O138 Eu95 2.291 . S
O138 C158 1.255 1_565 S
O139 Eu84 2.372 1_455 S
O139 C158 1.257 . S
C140 O129 1.249 1_565 S
C140 O130 1.264 . S
C141 C144 1.382 . S
C141 C146 1.390 . S
C141 C148 1.506 . S
C142 C143 1.398 . S
C142 C146 1.392 . S
C143 C142 1.398 . S
C143 C145 1.372 . S
C143 H160 0.931 . S
C144 C141 1.382 . S
C144 C145 1.390 . S
C144 H161 0.931 . S
C145 C143 1.372 . S
C145 C144 1.390 . S
C145 H162 0.929 . S
C146 C141 1.390 . S
C146 C142 1.392 . S
C146 H163 0.930 . S
C147 O132 1.255 1_565 S
C147 O133 1.257 . S
C148 Eu84 2.787 1_455 S
C148 O128 1.252 . S
C148 O131 1.268 . S
C148 C141 1.506 . S
C149 C116 1.439 . S
C149 H126 0.931 . S
C149 C150 1.374 . S
C150 C121 1.387 . S
C150 H127 0.931 . S
C150 C149 1.374 . S
C151 O135 1.249 1_545 S
C151 O136 1.264 . S
C152 C155 1.382 . S
C152 C156 1.390 . S
C152 C159 1.506 . S
C153 C154 1.398 . S
C153 C156 1.392 . S
C154 C153 1.398 . S
C154 C157 1.372 . S
C154 H164 0.931 . S
C155 C152 1.382 . S
C155 C157 1.390 . S
C155 H165 0.931 . S
C156 C152 1.390 . S
C156 C153 1.392 . S
C156 H166 0.930 . S
C157 C154 1.372 . S
C157 C155 1.390 . S
C157 H167 0.929 . S
C158 O138 1.255 1_545 S
C158 O139 1.257 . S
C159 Eu95 2.787 1_655 S
C159 O134 1.252 . S
C159 O137 1.268 . S
C159 C152 1.506 . S
H160 C143 0.931 . S
H161 C144 0.931 . S
H162 C145 0.929 . S
H163 C146 0.930 . S
H164 C154 0.931 . S
H165 C155 0.931 . S
H166 C156 0.930 . S
H167 C157 0.929 . S
Eu168 N197 2.600 . S
Eu168 N203 2.562 . S
Eu168 O212 2.462 . S
Eu168 O213 2.373 . S
Eu168 O215 2.432 . S
Eu168 O216 2.291 1_556 S
Eu168 O220 2.335 . S
Eu168 O223 2.372 . S
Eu168 C232 2.787 . S
C169 N170 1.365 . S
C169 C172 1.405 . S
C169 C176 1.448 . S
N170 C169 1.365 . S
N170 C173 1.319 . S
N170 Eu179 2.600 . S
C171 C173 1.397 . S
C171 C174 1.367 . S
C171 H191 0.931 . S
C172 C169 1.405 . S
C172 C174 1.403 . S
C172 C178 1.439 . S
C173 N170 1.319 . S
C173 C171 1.397 . S
C173 H184 0.930 . S
C174 C171 1.367 . S
C174 C172 1.403 . S
C174 H195 0.929 . S
C175 C176 1.430 . S
C175 C177 1.387 . S
C175 C181 1.404 . S
C176 C169 1.448 . S
C176 C175 1.430 . S
C176 N180 1.351 . S
C177 C175 1.387 . S
C177 C178 1.374 . S
C177 H192 0.931 . S
C178 C172 1.439 . S
C178 C177 1.374 . S
C178 H193 0.931 . S
Eu179 N170 2.600 . S
Eu179 N180 2.562 . S
Eu179 O214 2.335 . S
Eu179 O217 2.372 . S
Eu179 O218 2.462 . S
Eu179 O219 2.373 . S
Eu179 O221 2.432 . S
Eu179 O222 2.291 1_554 S
Eu179 C243 2.787 . S
N180 C176 1.351 . S
N180 Eu179 2.562 . S
N180 C182 1.325 1_554 S
C181 C175 1.404 . S
C181 C183 1.366 1_554 S
C181 H189 0.930 1_554 S
C182 N180 1.325 1_556 S
C182 C183 1.416 . S
C182 H188 0.929 . S
C183 C181 1.366 1_556 S
C183 C182 1.416 . S
C183 H185 0.930 . S
H184 C173 0.930 . S
H185 C183 0.930 . S
H186 C201 0.930 . S
H187 C208 0.930 . S
H188 C182 0.929 . S
H189 C181 0.930 1_556 S
H190 C204 0.929 . S
H191 C171 0.931 . S
H192 C177 0.931 . S
H193 C178 0.931 . S
H194 C199 0.931 . S
H195 C174 0.929 . S
H196 C207 0.930 1_554 S
N197 Eu168 2.600 . S
N197 C198 1.365 . S
N197 C201 1.319 . S
C198 N197 1.365 . S
C198 C200 1.405 . S
C198 C206 1.448 . S
C199 H194 0.931 . S
C199 C201 1.397 . S
C199 C202 1.367 . S
C200 C198 1.405 . S
C200 C202 1.403 . S
C200 C233 1.439 . S
C201 H186 0.930 . S
C201 N197 1.319 . S
C201 C199 1.397 . S
C202 C199 1.367 . S
C202 C200 1.403 . S
C202 H209 0.929 . S
N203 Eu168 2.562 . S
N203 C204 1.325 1_556 S
N203 C206 1.351 . S
C204 H190 0.929 . S
C204 N203 1.325 1_554 S
C204 C208 1.416 . S
C205 C206 1.430 . S
C205 C207 1.404 . S
C205 C234 1.387 . S
C206 C198 1.448 . S
C206 N203 1.351 . S
C206 C205 1.430 . S
C207 H196 0.930 1_556 S
C207 C205 1.404 . S
C207 C208 1.366 1_556 S
C208 H187 0.930 . S
C208 C204 1.416 . S
C208 C207 1.366 1_554 S
H209 C202 0.929 . S
H210 C233 0.931 . S
H211 C234 0.931 . S
O212 Eu168 2.462 . S
O212 C232 1.252 . S
O213 Eu168 2.373 . S
O213 C224 1.249 . S
O214 Eu179 2.335 . S
O214 C224 1.264 1_554 S
O215 Eu168 2.432 . S
O215 C232 1.268 . S
O216 Eu168 2.291 1_554 S
O216 C231 1.255 . S
O217 Eu179 2.372 . S
O217 C231 1.257 . S
O218 Eu179 2.462 . S
O218 C243 1.252 . S
O219 Eu179 2.373 . S
O219 C235 1.249 . S
O220 Eu168 2.335 . S
O220 C235 1.264 1_556 S
O221 Eu179 2.432 . S
O221 C243 1.268 . S
O222 Eu179 2.291 1_556 S
O222 C242 1.255 . S
O223 Eu168 2.372 . S
O223 C242 1.257 . S
C224 O213 1.249 . S
C224 O214 1.264 1_556 S
C225 C228 1.382 . S
C225 C230 1.390 . S
C225 C232 1.506 . S
C226 C227 1.398 . S
C226 C230 1.392 . S
C227 C226 1.398 . S
C227 C229 1.372 . S
C227 H244 0.931 . S
C228 C225 1.382 . S
C228 C229 1.390 . S
C228 H245 0.931 . S
C229 C227 1.372 . S
C229 C228 1.390 . S
C229 H246 0.929 . S
C230 C225 1.390 . S
C230 C226 1.392 . S
C230 H247 0.930 1_556 S
C231 O216 1.255 . S
C231 O217 1.257 . S
C232 Eu168 2.787 . S
C232 O212 1.252 . S
C232 O215 1.268 . S
C232 C225 1.506 . S
C233 C200 1.439 . S
C233 H210 0.931 . S
C233 C234 1.374 . S
C234 C205 1.387 . S
C234 H211 0.931 . S
C234 C233 1.374 . S
C235 O219 1.249 . S
C235 O220 1.264 1_554 S
C236 C239 1.382 . S
C236 C240 1.390 . S
C236 C243 1.506 . S
C237 C238 1.398 . S
C237 C240 1.392 . S
C238 C237 1.398 . S
C238 C241 1.372 . S
C238 H248 0.931 . S
C239 C236 1.382 . S
C239 C241 1.390 . S
C239 H249 0.931 . S
C240 C236 1.390 . S
C240 C237 1.392 . S
C240 H250 0.930 1_554 S
C241 C238 1.372 . S
C241 C239 1.390 . S
C241 H251 0.929 . S
C242 O222 1.255 . S
C242 O223 1.257 . S
C243 Eu179 2.787 . S
C243 O218 1.252 . S
C243 O221 1.268 . S
C243 C236 1.506 . S
H244 C227 0.931 . S
H245 C228 0.931 . S
H246 C229 0.929 . S
H247 C230 0.930 1_554 S
H248 C238 0.931 . S
H249 C239 0.931 . S
H250 C240 0.930 1_556 S
H251 C241 0.929 . S
Eu252 N281 2.600 . S
Eu252 N287 2.562 . S
Eu252 O296 2.462 . S
Eu252 O297 2.373 . S
Eu252 O299 2.432 . S
Eu252 O300 2.291 . S
Eu252 O304 2.335 . S
Eu252 O307 2.372 . S
Eu252 C316 2.787 . S
C253 N254 1.365 . S
C253 C256 1.405 . S
C253 C260 1.448 . S
N254 C253 1.365 . S
N254 C257 1.319 . S
N254 Eu263 2.600 . S
C255 C257 1.397 . S
C255 C258 1.367 . S
C255 H275 0.931 . S
C256 C253 1.405 . S
C256 C258 1.403 . S
C256 C262 1.439 . S
C257 N254 1.319 . S
C257 C255 1.397 . S
C257 H268 0.930 . S
C258 C255 1.367 . S
C258 C256 1.403 . S
C258 H279 0.929 . S
C259 C260 1.430 . S
C259 C261 1.387 . S
C259 C265 1.404 . S
C260 C253 1.448 . S
C260 C259 1.430 . S
C260 N264 1.351 . S
C261 C259 1.387 . S
C261 C262 1.374 . S
C261 H276 0.931 . S
C262 C256 1.439 . S
C262 C261 1.374 . S
C262 H277 0.931 . S
Eu263 N254 2.600 . S
Eu263 N264 2.562 . S
Eu263 O298 2.335 . S
Eu263 O301 2.372 . S
Eu263 O302 2.462 . S
Eu263 O303 2.373 . S
Eu263 O305 2.432 . S
Eu263 O306 2.291 . S
Eu263 C327 2.787 . S
N264 C260 1.351 . S
N264 Eu263 2.562 . S
N264 C266 1.325 . S
C265 C259 1.404 . S
C265 C267 1.366 . S
C265 H273 0.930 . S
C266 N264 1.325 . S
C266 C267 1.416 . S
C266 H272 0.929 . S
C267 C265 1.366 . S
C267 C266 1.416 . S
C267 H269 0.930 . S
H268 C257 0.930 . S
H269 C267 0.930 . S
H270 C285 0.930 . S
H271 C292 0.930 . S
H272 C266 0.929 . S
H273 C265 0.930 . S
H274 C288 0.929 . S
H275 C255 0.931 . S
H276 C261 0.931 . S
H277 C262 0.931 . S
H278 C283 0.931 . S
H279 C258 0.929 . S
H280 C291 0.930 . S
N281 Eu252 2.600 . S
N281 C282 1.365 . S
N281 C285 1.319 . S
C282 N281 1.365 . S
C282 C284 1.405 . S
C282 C290 1.448 . S
C283 H278 0.931 . S
C283 C285 1.397 . S
C283 C286 1.367 . S
C284 C282 1.405 . S
C284 C286 1.403 . S
C284 C317 1.439 . S
C285 H270 0.930 . S
C285 N281 1.319 . S
C285 C283 1.397 . S
C286 C283 1.367 . S
C286 C284 1.403 . S
C286 H293 0.929 . S
N287 Eu252 2.562 . S
N287 C288 1.325 . S
N287 C290 1.351 . S
C288 H274 0.929 . S
C288 N287 1.325 . S
C288 C292 1.416 . S
C289 C290 1.430 . S
C289 C291 1.404 . S
C289 C318 1.387 . S
C290 C282 1.448 . S
C290 N287 1.351 . S
C290 C289 1.430 . S
C291 H280 0.930 . S
C291 C289 1.404 . S
C291 C292 1.366 . S
C292 H271 0.930 . S
C292 C288 1.416 . S
C292 C291 1.366 . S
H293 C286 0.929 . S
H294 C317 0.931 . S
H295 C318 0.931 . S
O296 Eu252 2.462 . S
O296 C316 1.252 . S
O297 Eu252 2.373 . S
O297 C308 1.249 . S
O298 Eu263 2.335 . S
O298 C308 1.264 . S
O299 Eu252 2.432 . S
O299 C316 1.268 . S
O300 Eu252 2.291 . S
O300 C315 1.255 . S
O301 Eu263 2.372 . S
O301 C315 1.257 . S
O302 Eu263 2.462 . S
O302 C327 1.252 . S
O303 Eu263 2.373 . S
O303 C319 1.249 . S
O304 Eu252 2.335 . S
O304 C319 1.264 . S
O305 Eu263 2.432 . S
O305 C327 1.268 . S
O306 Eu263 2.291 . S
O306 C326 1.255 . S
O307 Eu252 2.372 . S
O307 C326 1.257 . S
C308 O297 1.249 . S
C308 O298 1.264 . S
C309 C312 1.382 . S
C309 C314 1.390 . S
C309 C316 1.506 . S
C310 C311 1.398 . S
C310 C314 1.392 . S
C311 C310 1.398 . S
C311 C313 1.372 . S
C311 H328 0.931 . S
C312 C309 1.382 . S
C312 C313 1.390 . S
C312 H329 0.931 . S
C313 C311 1.372 . S
C313 C312 1.390 . S
C313 H330 0.929 . S
C314 C309 1.390 . S
C314 C310 1.392 . S
C314 H331 0.930 . S
C315 O300 1.255 . S
C315 O301 1.257 . S
C316 Eu252 2.787 . S
C316 O296 1.252 . S
C316 O299 1.268 . S
C316 C309 1.506 . S
C317 C284 1.439 . S
C317 H294 0.931 . S
C317 C318 1.374 . S
C318 C289 1.387 . S
C318 H295 0.931 . S
C318 C317 1.374 . S
C319 O303 1.249 . S
C319 O304 1.264 . S
C320 C323 1.382 . S
C320 C324 1.390 . S
C320 C327 1.506 . S
C321 C322 1.398 . S
C321 C324 1.392 . S
C322 C321 1.398 . S
C322 C325 1.372 . S
C322 H332 0.931 . S
C323 C320 1.382 . S
C323 C325 1.390 . S
C323 H333 0.931 . S
C324 C320 1.390 . S
C324 C321 1.392 . S
C324 H334 0.930 . S
C325 C322 1.372 . S
C325 C323 1.390 . S
C325 H335 0.929 . S
C326 O306 1.255 . S
C326 O307 1.257 . S
C327 Eu263 2.787 . S
C327 O302 1.252 . S
C327 O305 1.268 . S
C327 C320 1.506 . S
H328 C311 0.931 . S
H329 C312 0.931 . S
H330 C313 0.929 . S
H331 C314 0.930 . S
H332 C322 0.931 . S
H333 C323 0.931 . S
H334 C324 0.930 . S
H335 C325 0.929 . S
H336 C354 0.951 . S
H337 C356 0.951 . S
H338 C358 0.950 . S
H339 C359 0.950 . S
H340 C361 0.950 . S
H341 C364 0.950 1_554 S
H342 C365 0.950 . S
H343 C367 0.950 . S
H344 C368 0.950 . S
H345 C369 0.951 . S
H346 C371 0.951 . S
H347 C373 0.950 . S
H348 C374 0.950 . S
H349 C376 0.950 . S
H350 C379 0.950 1_556 S
H351 C380 0.950 1_655 S
H352 C382 0.950 . S
H353 C383 0.950 . S
C354 H336 0.951 . S
C354 C355 1.399 . S
C354 C356 1.388 . S
C355 C354 1.399 . S
C355 C359 1.366 1_556 S
C356 H337 0.951 . S
C356 C354 1.388 . S
C356 C357 1.367 1_556 S
C357 C356 1.367 1_554 S
C357 C358 1.411 . S
C357 C360 1.500 . S
C358 H338 0.950 . S
C358 C357 1.411 . S
C358 C359 1.374 . S
C359 H339 0.950 . S
C359 C355 1.366 1_554 S
C359 C358 1.374 . S
C360 C357 1.500 . S
C360 C361 1.373 . S
C360 C362 1.389 1_554 S
C361 H340 0.950 . S
C361 C360 1.373 . S
C361 C377 1.377 . S
C362 C360 1.389 1_556 S
C362 C363 1.524 . S
C362 C376 1.377 . S
C363 C362 1.524 . S
C363 C364 1.397 . S
C363 C368 1.363 . S
C364 H341 0.950 1_556 S
C364 C363 1.397 . S
C364 C365 1.334 . S
C365 H342 0.950 . S
C365 C364 1.334 . S
C365 C366 1.287 . S
C366 C365 1.287 . S
C366 C367 1.524 . S
C366 H385 0.913 . S
C367 H343 0.950 . S
C367 C366 1.524 . S
C367 C368 1.415 . S
C368 H344 0.950 . S
C368 C363 1.363 . S
C368 C367 1.415 . S
C369 H345 0.951 . S
C369 C370 1.366 . S
C369 C371 1.388 . S
C370 C369 1.366 . S
C370 C374 1.385 1_554 S
C371 H346 0.951 . S
C371 C369 1.388 . S
C371 C372 1.376 . S
C372 C371 1.376 . S
C372 C373 1.395 1_554 S
C372 C375 1.520 1_554 S
C373 H347 0.950 . S
C373 C372 1.395 1_556 S
C373 C374 1.374 . S
C374 H348 0.950 . S
C374 C370 1.385 1_556 S
C374 C373 1.374 . S
C375 C372 1.520 1_556 S
C375 C376 1.383 . S
C375 C377 1.365 1_556 S
C376 H349 0.950 . S
C376 C362 1.377 . S
C376 C375 1.383 . S
C377 C361 1.377 . S
C377 C375 1.365 1_554 S
C377 C378 1.524 . S
C378 C377 1.524 . S
C378 C379 1.397 . S
C378 C383 1.363 . S
C379 H350 0.950 1_554 S
C379 C378 1.397 . S
C379 C380 1.334 . S
C380 H351 0.950 1_455 S
C380 C379 1.334 . S
C380 C381 1.287 . S
C381 C380 1.287 . S
C381 C382 1.524 . S
C381 H384 0.999 1_455 S
C382 H352 0.950 . S
C382 C381 1.524 . S
C382 C383 1.415 . S
C383 H353 0.950 . S
C383 C378 1.363 . S
C383 C382 1.415 . S
H384 C381 0.999 1_655 S
H385 C366 0.913 . S
H386 C404 0.951 . S
H387 C406 0.951 . S
H388 C408 0.950 . S
H389 C409 0.950 . S
H390 C411 0.950 . S
H391 C414 0.950 . S
H392 C415 0.950 . S
H393 C417 0.950 . S
H394 C418 0.950 . S
H395 C419 0.951 . S
H396 C421 0.951 . S
H397 C423 0.950 . S
H398 C424 0.950 . S
H399 C426 0.950 . S
H400 C429 0.950 . S
H401 C430 0.950 . S
H402 C432 0.950 . S
H403 C433 0.950 . S
C404 H386 0.951 . S
C404 C405 1.366 . S
C404 C406 1.388 . S
C405 C404 1.366 . S
C405 C409 1.385 1_554 S
C406 H387 0.951 . S
C406 C404 1.388 . S
C406 C407 1.366 . S
C407 C406 1.366 . S
C407 C408 1.414 1_554 S
C407 C410 1.499 . S
C408 H388 0.950 . S
C408 C407 1.414 1_556 S
C408 C409 1.374 . S
C409 H389 0.950 . S
C409 C405 1.385 1_556 S
C409 C408 1.374 . S
C410 C407 1.499 . S
C410 C411 1.373 1_554 S
C410 C412 1.389 . S
C411 H390 0.950 . S
C411 C410 1.373 1_556 S
C411 C427 1.377 . S
C412 C410 1.389 . S
C412 C413 1.524 . S
C412 C426 1.377 . S
C413 C412 1.524 . S
C413 C414 1.397 . S
C413 C418 1.363 . S
C414 H391 0.950 . S
C414 C413 1.397 . S
C414 C415 1.334 . S
C415 H392 0.950 . S
C415 C414 1.334 . S
C415 C416 1.287 . S
C416 C415 1.287 . S
C416 C417 1.524 . S
C416 H435 0.913 . S
C417 H393 0.950 . S
C417 C416 1.524 . S
C417 C418 1.415 . S
C418 H394 0.950 . S
C418 C413 1.363 . S
C418 C417 1.415 . S
C419 H395 0.951 . S
C419 C420 1.382 . S
C419 C421 1.388 . S
C420 C419 1.382 . S
C420 C424 1.383 1_556 S
C421 H396 0.951 . S
C421 C419 1.388 . S
C421 C422 1.366 . S
C422 C421 1.366 . S
C422 C423 1.414 1_556 S
C422 C425 1.499 . S
C423 H397 0.950 . S
C423 C422 1.414 1_554 S
C423 C424 1.374 . S
C424 H398 0.950 . S
C424 C420 1.383 1_554 S
C424 C423 1.374 . S
C425 C422 1.499 . S
C425 C426 1.373 1_556 S
C425 C427 1.389 . S
C426 H399 0.950 . S
C426 C412 1.377 . S
C426 C425 1.373 1_554 S
C427 C411 1.377 . S
C427 C425 1.389 . S
C427 C428 1.524 . S
C428 C427 1.524 . S
C428 C429 1.397 . S
C428 C433 1.363 . S
C429 H400 0.950 . S
C429 C428 1.397 . S
C429 C430 1.334 . S
C430 H401 0.950 . S
C430 C429 1.334 . S
C430 C431 1.287 . S
C431 C430 1.287 . S
C431 C432 1.524 . S
C431 H434 0.999 . S
C432 H402 0.950 . S
C432 C431 1.524 . S
C432 C433 1.415 . S
C433 H403 0.950 . S
C433 C428 1.363 . S
C433 C432 1.415 . S
H434 C431 0.999 . S
H435 C416 0.913 . S
H436 C454 0.951 . S
H437 C456 0.951 . S
H438 C458 0.950 . S
H439 C459 0.950 . S
H440 C461 0.950 . S
H441 C464 0.950 . S
H442 C465 0.950 . S
H443 C467 0.950 . S
H444 C468 0.950 . S
H445 C469 0.951 . S
H446 C471 0.951 . S
H447 C473 0.950 . S
H448 C474 0.950 . S
H449 C476 0.950 . S
H450 C479 0.950 . S
H451 C480 0.950 . S
H452 C482 0.950 . S
H453 C483 0.950 . S
C454 H436 0.951 . S
C454 C455 1.366 . S
C454 C456 1.388 . S
C455 C454 1.366 . S
C455 C459 1.385 . S
C456 H437 0.951 . S
C456 C454 1.388 . S
C456 C457 1.366 . S
C457 C456 1.366 . S
C457 C458 1.414 . S
C457 C460 1.499 . S
C458 H438 0.950 . S
C458 C457 1.414 . S
C458 C459 1.374 . S
C459 H439 0.950 . S
C459 C455 1.385 . S
C459 C458 1.374 . S
C460 C457 1.499 . S
C460 C461 1.373 . S
C460 C462 1.389 . S
C461 H440 0.950 . S
C461 C460 1.373 . S
C461 C477 1.377 . S
C462 C460 1.389 . S
C462 C463 1.524 . S
C462 C476 1.377 . S
C463 C462 1.524 . S
C463 C464 1.397 . S
C463 C468 1.363 . S
C464 H441 0.950 . S
C464 C463 1.397 . S
C464 C465 1.334 . S
C465 H442 0.950 . S
C465 C464 1.334 . S
C465 C466 1.287 . S
C466 C465 1.287 . S
C466 C467 1.524 . S
C466 H485 0.913 . S
C467 H443 0.950 . S
C467 C466 1.524 . S
C467 C468 1.415 . S
C468 H444 0.950 . S
C468 C463 1.363 . S
C468 C467 1.415 . S
C469 H445 0.951 . S
C469 C470 1.366 . S
C469 C471 1.388 . S
C470 C469 1.366 . S
C470 C474 1.385 . S
C471 H446 0.951 . S
C471 C469 1.388 . S
C471 C472 1.366 . S
C472 C471 1.366 . S
C472 C473 1.414 . S
C472 C475 1.499 . S
C473 H447 0.950 . S
C473 C472 1.414 . S
C473 C474 1.374 . S
C474 H448 0.950 . S
C474 C470 1.385 . S
C474 C473 1.374 . S
C475 C472 1.499 . S
C475 C476 1.373 . S
C475 C477 1.389 . S
C476 H449 0.950 . S
C476 C462 1.377 . S
C476 C475 1.373 . S
C477 C461 1.377 . S
C477 C475 1.389 . S
C477 C478 1.524 . S
C478 C477 1.524 . S
C478 C479 1.397 . S
C478 C483 1.363 . S
C479 H450 0.950 . S
C479 C478 1.397 . S
C479 C480 1.334 . S
C480 H451 0.950 . S
C480 C479 1.334 . S
C480 C481 1.287 . S
C481 C480 1.287 . S
C481 C482 1.524 . S
C481 H484 0.999 . S
C482 H452 0.950 . S
C482 C481 1.524 . S
C482 C483 1.415 . S
C483 H453 0.950 . S
C483 C478 1.363 . S
C483 C482 1.415 . S
H484 C481 0.999 . S
H485 C466 0.913 . S
H486 C504 0.951 . S
H487 C506 0.951 . S
H488 C508 0.950 . S
H489 C509 0.950 . S
H490 C511 0.950 . S
H491 C514 0.950 . S
H492 C515 0.950 . S
H493 C517 0.950 . S
H494 C518 0.950 . S
H495 C519 0.951 . S
H496 C521 0.951 . S
H497 C523 0.950 . S
H498 C524 0.950 . S
H499 C526 0.950 . S
H500 C529 0.950 . S
H501 C530 0.950 . S
H502 C532 0.950 . S
H503 C533 0.950 . S
C504 H486 0.951 . S
C504 C505 1.366 . S
C504 C506 1.388 . S
C505 C504 1.366 . S
C505 C509 1.385 . S
C506 H487 0.951 . S
C506 C504 1.388 . S
C506 C507 1.366 . S
C507 C506 1.366 . S
C507 C508 1.414 . S
C507 C510 1.499 . S
C508 H488 0.950 . S
C508 C507 1.414 . S
C508 C509 1.374 . S
C509 H489 0.950 . S
C509 C505 1.385 . S
C509 C508 1.374 . S
C510 C507 1.499 . S
C510 C511 1.373 . S
C510 C512 1.389 . S
C511 H490 0.950 . S
C511 C510 1.373 . S
C511 C527 1.377 . S
C512 C510 1.389 . S
C512 C513 1.524 . S
C512 C526 1.377 . S
C513 C512 1.524 . S
C513 C514 1.397 . S
C513 C518 1.363 . S
C514 H491 0.950 . S
C514 C513 1.397 . S
C514 C515 1.334 . S
C515 H492 0.950 . S
C515 C514 1.334 . S
C515 C516 1.287 . S
C516 C515 1.287 . S
C516 C517 1.524 . S
C516 H535 0.913 . S
C517 H493 0.950 . S
C517 C516 1.524 . S
C517 C518 1.415 . S
C518 H494 0.950 . S
C518 C513 1.363 . S
C518 C517 1.415 . S
C519 H495 0.951 . S
C519 C520 1.366 . S
C519 C521 1.388 . S
C520 C519 1.366 . S
C520 C524 1.385 . S
C521 H496 0.951 . S
C521 C519 1.388 . S
C521 C522 1.366 . S
C522 C521 1.366 . S
C522 C523 1.414 . S
C522 C525 1.499 . S
C523 H497 0.950 . S
C523 C522 1.414 . S
C523 C524 1.374 . S
C524 H498 0.950 . S
C524 C520 1.385 . S
C524 C523 1.374 . S
C525 C522 1.499 . S
C525 C526 1.373 . S
C525 C527 1.389 . S
C526 H499 0.950 . S
C526 C512 1.377 . S
C526 C525 1.373 . S
C527 C511 1.377 . S
C527 C525 1.389 . S
C527 C528 1.524 . S
C528 C527 1.524 . S
C528 C529 1.397 . S
C528 C533 1.363 . S
C529 H500 0.950 . S
C529 C528 1.397 . S
C529 C530 1.334 . S
C530 H501 0.950 . S
C530 C529 1.334 . S
C530 C531 1.287 . S
C531 C530 1.287 . S
C531 C532 1.524 . S
C531 H534 0.999 . S
C532 H502 0.950 . S
C532 C531 1.524 . S
C532 C533 1.415 . S
C533 H503 0.950 . S
C533 C528 1.363 . S
C533 C532 1.415 . S
H534 C531 0.999 . S
H535 C516 0.913 . S
H536 C554 0.951 . S
H537 C556 0.951 . S
H538 C558 0.950 . S
H539 C559 0.950 . S
H540 C561 0.950 . S
H541 C564 0.950 1_545 S
H542 C565 0.950 . S
H543 C567 0.950 . S
H544 C568 0.950 . S
H545 C569 0.951 . S
H546 C571 0.951 . S
H547 C573 0.950 . S
H548 C574 0.950 . S
H549 C576 0.950 . S
H550 C579 0.950 1_565 S
H551 C580 0.950 . S
H552 C582 0.950 . S
H553 C583 0.950 . S
C554 H536 0.951 . S
C554 C555 1.366 . S
C554 C556 1.388 . S
C555 C554 1.366 . S
C555 C559 1.384 1_566 S
C556 H537 0.951 . S
C556 C554 1.388 . S
C556 C557 1.369 1_556 S
C557 C556 1.369 1_554 S
C557 C558 1.411 1_565 S
C557 C560 1.498 1_565 S
C558 H538 0.950 . S
C558 C557 1.411 1_545 S
C558 C559 1.374 . S
C559 H539 0.950 . S
C559 C555 1.384 1_544 S
C559 C558 1.374 . S
C560 C557 1.498 1_545 S
C560 C561 1.373 1_554 S
C560 C562 1.389 1_545 S
C561 H540 0.950 . S
C561 C560 1.373 1_556 S
C561 C577 1.377 . S
C562 C560 1.389 1_565 S
C562 C563 1.524 . S
C562 C576 1.377 . S
C563 C562 1.524 . S
C563 C564 1.397 . S
C563 C568 1.363 . S
C564 H541 0.950 1_565 S
C564 C563 1.397 . S
C564 C565 1.334 . S
C565 H542 0.950 . S
C565 C564 1.334 . S
C565 C566 1.287 . S
C566 C565 1.287 . S
C566 C567 1.524 . S
C566 H585 0.913 . S
C567 H543 0.950 . S
C567 C566 1.524 . S
C567 C568 1.415 . S
C568 H544 0.950 . S
C568 C563 1.363 . S
C568 C567 1.415 . S
C569 H545 0.951 . S
C569 C570 1.363 . S
C569 C571 1.388 . S
C570 C569 1.363 . S
C570 C574 1.387 1_544 S
C571 H546 0.951 . S
C571 C569 1.388 . S
C571 C572 1.366 1_554 S
C572 C571 1.366 1_556 S
C572 C573 1.414 1_545 S
C572 C575 1.500 . S
C573 H547 0.950 . S
C573 C572 1.414 1_565 S
C573 C574 1.374 . S
C574 H548 0.950 . S
C574 C570 1.387 1_566 S
C574 C573 1.374 . S
C575 C572 1.500 . S
C575 C576 1.353 1_546 S
C575 C577 1.410 . S
C576 H549 0.950 . S
C576 C562 1.377 . S
C576 C575 1.353 1_564 S
C577 C561 1.377 . S
C577 C575 1.410 . S
C577 C578 1.524 . S
C578 C577 1.524 . S
C578 C579 1.397 . S
C578 C583 1.363 . S
C579 H550 0.950 1_545 S
C579 C578 1.397 . S
C579 C580 1.334 . S
C580 H551 0.950 . S
C580 C579 1.334 . S
C580 C581 1.287 . S
C581 C580 1.287 . S
C581 C582 1.524 . S
C581 H584 0.999 . S
C582 H552 0.950 . S
C582 C581 1.524 . S
C582 C583 1.415 . S
C583 H553 0.950 . S
C583 C578 1.363 . S
C583 C582 1.415 . S
H584 C581 0.999 . S
H585 C566 0.913 . S
H586 C604 0.951 . S
H587 C606 0.951 . S
H588 C608 0.950 . S
H589 C609 0.950 . S
H590 C611 0.950 . S
H591 C614 0.950 1_565 S
H592 C615 0.958 . S
H593 C617 0.950 . S
H594 C618 0.950 . S
H595 C619 0.951 . S
H596 C621 0.951 . S
H597 C623 0.950 . S
H598 C624 0.950 . S
H599 C626 0.950 . S
H600 C629 0.950 1_545 S
H601 C630 0.950 1_545 S
H602 C632 0.950 . S
H603 C633 0.950 . S
C604 H586 0.951 . S
C604 C605 1.366 . S
C604 C606 1.388 . S
C605 C604 1.366 . S
C605 C609 1.385 1_545 S
C606 H587 0.951 . S
C606 C604 1.388 . S
C606 C607 1.366 . S
C607 C606 1.366 . S
C607 C608 1.414 1_545 S
C607 C610 1.500 . S
C608 H588 0.950 . S
C608 C607 1.414 1_565 S
C608 C609 1.374 . S
C609 H589 0.950 . S
C609 C605 1.385 1_565 S
C609 C608 1.374 . S
C610 C607 1.500 . S
C610 C611 1.358 1_545 S
C610 C612 1.404 . S
C611 H590 0.950 . S
C611 C610 1.358 1_565 S
C611 C627 1.377 . S
C612 C610 1.404 . S
C612 C613 1.524 . S
C612 C626 1.377 . S
C613 C612 1.524 . S
C613 C614 1.397 . S
C613 C618 1.363 . S
C614 H591 0.950 1_545 S
C614 C613 1.397 . S
C614 C615 1.334 . S
C615 H592 0.958 . S
C615 C614 1.334 . S
C615 C616 1.287 . S
C616 C615 1.287 . S
C616 C617 1.524 . S
C616 H635 0.913 . S
C617 H593 0.950 . S
C617 C616 1.524 . S
C617 C618 1.415 . S
C618 H594 0.950 . S
C618 C613 1.363 . S
C618 C617 1.415 . S
C619 H595 0.951 . S
C619 C620 1.366 . S
C619 C621 1.388 . S
C620 C619 1.366 . S
C620 C624 1.385 1_565 S
C621 H596 0.951 . S
C621 C619 1.388 . S
C621 C622 1.364 . S
C622 C621 1.364 . S
C622 C623 1.415 1_565 S
C622 C625 1.499 1_565 S
C623 H597 0.950 . S
C623 C622 1.415 1_545 S
C623 C624 1.374 . S
C624 H598 0.950 . S
C624 C620 1.385 1_545 S
C624 C623 1.374 . S
C625 C622 1.499 1_545 S
C625 C626 1.373 . S
C625 C627 1.389 1_545 S
C626 H599 0.950 . S
C626 C612 1.377 . S
C626 C625 1.373 . S
C627 C611 1.377 . S
C627 C625 1.389 1_565 S
C627 C628 1.524 . S
C628 C627 1.524 . S
C628 C629 1.397 . S
C628 C633 1.363 . S
C629 H600 0.950 1_565 S
C629 C628 1.397 . S
C629 C630 1.334 . S
C630 H601 0.950 1_565 S
C630 C629 1.334 . S
C630 C631 1.287 . S
C631 C630 1.287 . S
C631 C632 1.524 . S
C631 H634 0.999 . S
C632 H602 0.950 . S
C632 C631 1.524 . S
C632 C633 1.415 . S
C633 H603 0.950 . S
C633 C628 1.363 . S
C633 C632 1.415 . S
H634 C631 0.999 . S
H635 C616 0.913 . S
H636 C654 0.951 . S
H637 C656 0.951 . S
H638 C658 0.950 . S
H639 C659 0.950 . S
H640 C661 0.950 . S
H641 C664 0.950 . S
H642 C665 0.950 . S
H643 C667 0.950 . S
H644 C668 0.950 . S
H645 C669 0.951 . S
H646 C671 0.951 . S
H647 C673 0.950 . S
H648 C674 0.950 . S
H649 C676 0.950 . S
H650 C679 0.950 . S
H651 C680 0.950 . S
H652 C682 0.950 . S
H653 C683 0.950 . S
C654 H636 0.951 . S
C654 C655 1.366 . S
C654 C656 1.388 . S
C655 C654 1.366 . S
C655 C659 1.385 1_554 S
C656 H637 0.951 . S
C656 C654 1.388 . S
C656 C657 1.366 1_554 S
C657 C656 1.366 1_556 S
C657 C658 1.414 . S
C657 C660 1.499 . S
C658 H638 0.950 . S
C658 C657 1.414 . S
C658 C659 1.374 . S
C659 H639 0.950 . S
C659 C655 1.385 1_556 S
C659 C658 1.374 . S
C660 C657 1.499 . S
C660 C661 1.373 1_556 S
C660 C662 1.389 . S
C661 H640 0.950 . S
C661 C660 1.373 1_554 S
C661 C677 1.377 1_655 S
C662 C660 1.389 . S
C662 C663 1.524 . S
C662 C676 1.377 1_655 S
C663 C662 1.524 . S
C663 C664 1.397 . S
C663 C668 1.363 . S
C664 H641 0.950 . S
C664 C663 1.397 . S
C664 C665 1.334 . S
C665 H642 0.950 . S
C665 C664 1.334 . S
C665 C666 1.287 . S
C666 C665 1.287 . S
C666 C667 1.524 . S
C666 H685 0.913 . S
C667 H643 0.950 . S
C667 C666 1.524 . S
C667 C668 1.415 . S
C668 H644 0.950 . S
C668 C663 1.363 . S
C668 C667 1.415 . S
C669 H645 0.951 . S
C669 C670 1.368 1_556 S
C669 C671 1.388 . S
C670 C669 1.368 1_554 S
C670 C674 1.383 . S
C671 H646 0.951 . S
C671 C669 1.388 . S
C671 C672 1.366 1_556 S
C672 C671 1.366 1_554 S
C672 C673 1.414 . S
C672 C675 1.499 . S
C673 H647 0.950 . S
C673 C672 1.414 . S
C673 C674 1.374 . S
C674 H648 0.950 . S
C674 C670 1.383 . S
C674 C673 1.374 . S
C675 C672 1.499 . S
C675 C676 1.373 1_554 S
C675 C677 1.389 . S
C676 H649 0.950 . S
C676 C662 1.377 1_455 S
C676 C675 1.373 1_556 S
C677 C661 1.377 1_455 S
C677 C675 1.389 . S
C677 C678 1.524 . S
C678 C677 1.524 . S
C678 C679 1.397 . S
C678 C683 1.363 . S
C679 H650 0.950 . S
C679 C678 1.397 . S
C679 C680 1.334 . S
C680 H651 0.950 . S
C680 C679 1.334 . S
C680 C681 1.287 . S
C681 C680 1.287 . S
C681 C682 1.524 . S
C681 H684 0.999 . S
C682 H652 0.950 . S
C682 C681 1.524 . S
C682 C683 1.415 . S
C683 H653 0.950 . S
C683 C678 1.363 . S
C683 C682 1.415 . S
H684 C681 0.999 . S
H685 C666 0.913 . S
H686 C704 0.951 . S
H687 C706 0.951 . S
H688 C708 0.950 . S
H689 C709 0.950 . S
H690 C711 0.950 . S
H691 C714 0.950 . S
H692 C715 0.950 . S
H693 C717 0.950 . S
H694 C718 0.950 . S
H695 C719 0.951 . S
H696 C721 0.951 . S
H697 C723 0.950 . S
H698 C724 0.950 . S
H699 C726 0.950 . S
H700 C729 0.950 . S
H701 C730 0.950 . S
H702 C732 0.950 . S
H703 C733 0.950 . S
C704 H686 0.951 . S
C704 C705 1.366 . S
C704 C706 1.388 . S
C705 C704 1.366 . S
C705 C709 1.385 . S
C706 H687 0.951 . S
C706 C704 1.388 . S
C706 C707 1.366 . S
C707 C706 1.366 . S
C707 C708 1.414 . S
C707 C710 1.499 . S
C708 H688 0.950 . S
C708 C707 1.414 . S
C708 C709 1.374 . S
C709 H689 0.950 . S
C709 C705 1.385 . S
C709 C708 1.374 . S
C710 C707 1.499 . S
C710 C711 1.373 . S
C710 C712 1.389 . S
C711 H690 0.950 . S
C711 C710 1.373 . S
C711 C727 1.377 1_455 S
C712 C710 1.389 . S
C712 C713 1.524 . S
C712 C726 1.377 1_455 S
C713 C712 1.524 . S
C713 C714 1.397 . S
C713 C718 1.363 . S
C714 H691 0.950 . S
C714 C713 1.397 . S
C714 C715 1.334 . S
C715 H692 0.950 . S
C715 C714 1.334 . S
C715 C716 1.287 . S
C716 C715 1.287 . S
C716 C717 1.524 . S
C716 H735 0.913 . S
C717 H693 0.950 . S
C717 C716 1.524 . S
C717 C718 1.415 . S
C718 H694 0.950 . S
C718 C713 1.363 . S
C718 C717 1.415 . S
C719 H695 0.951 . S
C719 C720 1.366 . S
C719 C721 1.388 . S
C720 C719 1.366 . S
C720 C724 1.385 . S
C721 H696 0.951 . S
C721 C719 1.388 . S
C721 C722 1.366 . S
C722 C721 1.366 . S
C722 C723 1.414 . S
C722 C725 1.499 . S
C723 H697 0.950 . S
C723 C722 1.414 . S
C723 C724 1.374 . S
C724 H698 0.950 . S
C724 C720 1.385 . S
C724 C723 1.374 . S
C725 C722 1.499 . S
C725 C726 1.373 . S
C725 C727 1.389 . S
C726 H699 0.950 . S
C726 C712 1.377 1_655 S
C726 C725 1.373 . S
C727 C711 1.377 1_655 S
C727 C725 1.389 . S
C727 C728 1.524 . S
C728 C727 1.524 . S
C728 C729 1.397 . S
C728 C733 1.363 . S
C729 H700 0.950 . S
C729 C728 1.397 . S
C729 C730 1.334 . S
C730 H701 0.950 . S
C730 C729 1.334 . S
C730 C731 1.287 . S
C731 C730 1.287 . S
C731 C732 1.524 . S
C731 H734 0.999 . S
C732 H702 0.950 . S
C732 C731 1.524 . S
C732 C733 1.415 . S
C733 H703 0.950 . S
C733 C728 1.363 . S
C733 C732 1.415 . S
H734 C731 0.999 . S
H735 C716 0.913 . S
H736 C754 0.951 . S
H737 C756 0.951 . S
H738 C758 0.950 . S
H739 C759 0.950 . S
H740 C761 0.950 . S
H741 C764 0.950 . S
H742 C765 0.950 . S
H743 C767 0.950 . S
H744 C768 0.950 . S
H745 C769 0.951 . S
H746 C771 0.951 . S
H747 C773 0.950 . S
H748 C774 0.950 . S
H749 C776 0.950 . S
H750 C779 0.950 . S
H751 C780 0.950 . S
H752 C782 0.950 . S
H753 C783 0.950 . S
C754 H736 0.951 . S
C754 C755 1.366 1_455 S
C754 C756 1.388 . S
C755 C754 1.366 1_655 S
C755 C759 1.384 1_545 S
C756 H737 0.951 . S
C756 C754 1.388 . S
C756 C757 1.366 1_455 S
C757 C756 1.366 1_655 S
C757 C758 1.414 1_545 S
C757 C760 1.487 . S
C758 H738 0.950 . S
C758 C757 1.414 1_565 S
C758 C759 1.374 . S
C759 H739 0.950 . S
C759 C755 1.384 1_565 S
C759 C758 1.374 . S
C760 C757 1.487 . S
C760 C761 1.362 1_645 S
C760 C762 1.414 . S
C761 H740 0.950 . S
C761 C760 1.362 1_465 S
C761 C777 1.377 . S
C762 C760 1.414 . S
C762 C763 1.524 . S
C762 C776 1.377 . S
C763 C762 1.524 . S
C763 C764 1.397 . S
C763 C768 1.363 . S
C764 H741 0.950 . S
C764 C763 1.397 . S
C764 C765 1.334 . S
C765 H742 0.950 . S
C765 C764 1.334 . S
C765 C766 1.287 . S
C766 C765 1.287 . S
C766 C767 1.524 . S
C766 H785 0.913 . S
C767 H743 0.950 . S
C767 C766 1.524 . S
C767 C768 1.415 . S
C768 H744 0.950 . S
C768 C763 1.363 . S
C768 C767 1.415 . S
C769 H745 0.951 . S
C769 C770 1.333 1_565 S
C769 C771 1.388 . S
C770 C769 1.333 1_545 S
C770 C774 1.402 1_655 S
C771 H746 0.951 . S
C771 C769 1.388 . S
C771 C772 1.353 1_665 S
C772 C771 1.353 1_445 S
C772 C773 1.439 . S
C772 C775 1.488 . S
C773 H747 0.950 . S
C773 C772 1.439 . S
C773 C774 1.374 . S
C774 H748 0.950 . S
C774 C770 1.402 1_455 S
C774 C773 1.374 . S
C775 C772 1.488 . S
C775 C776 1.373 1_455 S
C775 C777 1.389 1_545 S
C776 H749 0.950 . S
C776 C762 1.377 . S
C776 C775 1.373 1_655 S
C777 C761 1.377 . S
C777 C775 1.389 1_565 S
C777 C778 1.524 . S
C778 C777 1.524 . S
C778 C779 1.397 . S
C778 C783 1.363 . S
C779 H750 0.950 . S
C779 C778 1.397 . S
C779 C780 1.334 . S
C780 H751 0.950 . S
C780 C779 1.334 . S
C780 C781 1.287 . S
C781 C780 1.287 . S
C781 C782 1.524 . S
C781 H784 0.999 . S
C782 H752 0.950 . S
C782 C781 1.524 . S
C782 C783 1.415 . S
C783 H753 0.950 . S
C783 C778 1.363 . S
C783 C782 1.415 . S
H784 C781 0.999 . S
H785 C766 0.913 . S
H786 C804 0.951 . S
H787 C806 0.951 . S
H788 C808 0.950 . S
H789 C809 0.950 . S
H790 C811 0.950 . S
H791 C814 0.950 . S
H792 C815 0.950 . S
H793 C817 0.950 1_655 S
H794 C818 0.950 . S
H795 C819 0.951 . S
H796 C821 0.951 . S
H797 C823 0.950 . S
H798 C824 0.950 . S
H799 C826 0.950 . S
H800 C829 0.950 . S
H801 C830 0.950 . S
H802 C832 0.950 1_455 S
H803 C833 0.950 . S
C804 H786 0.951 . S
C804 C805 1.364 1_665 S
C804 C806 1.388 . S
C805 C804 1.364 1_445 S
C805 C809 1.386 . S
C806 H787 0.951 . S
C806 C804 1.388 . S
C806 C807 1.357 1_665 S
C807 C806 1.357 1_445 S
C807 C808 1.418 . S
C807 C810 1.487 . S
C808 H788 0.950 . S
C808 C807 1.418 . S
C808 C809 1.374 . S
C809 H789 0.950 . S
C809 C805 1.386 . S
C809 C808 1.374 . S
C810 C807 1.487 . S
C810 C811 1.408 1_455 S
C810 C812 1.372 1_545 S
C811 H790 0.950 . S
C811 C810 1.408 1_655 S
C811 C827 1.377 . S
C812 C810 1.372 1_565 S
C812 C813 1.524 . S
C812 C826 1.377 . S
C813 C812 1.524 . S
C813 C814 1.397 . S
C813 C818 1.363 1_455 S
C814 H791 0.950 . S
C814 C813 1.397 . S
C814 C815 1.334 . S
C815 H792 0.950 . S
C815 C814 1.334 . S
C815 C816 1.287 . S
C816 C815 1.287 . S
C816 C817 1.524 . S
C816 H835 0.913 . S
C817 H793 0.950 1_455 S
C817 C816 1.524 . S
C817 C818 1.415 1_455 S
C818 H794 0.950 . S
C818 C813 1.363 1_655 S
C818 C817 1.415 1_655 S
C819 H795 0.951 . S
C819 C820 1.380 . S
C819 C821 1.388 . S
C820 C819 1.380 . S
C820 C824 1.357 1_445 S
C821 H796 0.951 . S
C821 C819 1.388 . S
C821 C822 1.366 1_455 S
C822 C821 1.366 1_655 S
C822 C823 1.414 1_545 S
C822 C825 1.499 . S
C823 H797 0.950 . S
C823 C822 1.414 1_565 S
C823 C824 1.374 . S
C824 H798 0.950 . S
C824 C820 1.357 1_665 S
C824 C823 1.374 . S
C825 C822 1.499 . S
C825 C826 1.373 1_645 S
C825 C827 1.389 . S
C826 H799 0.950 . S
C826 C812 1.377 . S
C826 C825 1.373 1_465 S
C827 C811 1.377 . S
C827 C825 1.389 . S
C827 C828 1.524 . S
C828 C827 1.524 . S
C828 C829 1.397 . S
C828 C833 1.363 1_655 S
C829 H800 0.950 . S
C829 C828 1.397 . S
C829 C830 1.334 . S
C830 H801 0.950 . S
C830 C829 1.334 . S
C830 C831 1.287 . S
C831 C830 1.287 . S
C831 C832 1.524 . S
C831 H834 0.999 . S
C832 H802 0.950 1_655 S
C832 C831 1.524 . S
C832 C833 1.415 1_655 S
C833 H803 0.950 . S
C833 C828 1.363 1_455 S
C833 C832 1.415 1_455 S
H834 C831 0.999 . S
H835 C816 0.913 . S
H836 C854 0.951 . S
H837 C856 0.951 . S
H838 C858 0.950 . S
H839 C859 0.950 . S
H840 C861 0.950 . S
H841 C864 0.950 . S
H842 C865 0.950 . S
H843 C867 0.950 . S
H844 C868 0.950 . S
H845 C869 0.951 . S
H846 C871 0.951 . S
H847 C873 0.950 . S
H848 C874 0.950 . S
H849 C876 0.950 . S
H850 C879 0.950 . S
H851 C880 0.950 . S
H852 C882 0.950 . S
H853 C883 0.950 . S
C854 H836 0.951 . S
C854 C855 1.366 . S
C854 C856 1.388 . S
C855 C854 1.366 . S
C855 C859 1.385 . S
C856 H837 0.951 . S
C856 C854 1.388 . S
C856 C857 1.366 . S
C857 C856 1.366 . S
C857 C858 1.414 . S
C857 C860 1.499 . S
C858 H838 0.950 . S
C858 C857 1.414 . S
C858 C859 1.374 . S
C859 H839 0.950 . S
C859 C855 1.385 . S
C859 C858 1.374 . S
C860 C857 1.499 . S
C860 C861 1.373 . S
C860 C862 1.389 . S
C861 H840 0.950 . S
C861 C860 1.373 . S
C861 C877 1.377 . S
C862 C860 1.389 . S
C862 C863 1.524 . S
C862 C876 1.377 . S
C863 C862 1.524 . S
C863 C864 1.397 . S
C863 C868 1.363 . S
C864 H841 0.950 . S
C864 C863 1.397 . S
C864 C865 1.334 . S
C865 H842 0.950 . S
C865 C864 1.334 . S
C865 C866 1.287 . S
C866 C865 1.287 . S
C866 C867 1.524 . S
C866 H885 0.913 . S
C867 H843 0.950 . S
C867 C866 1.524 . S
C867 C868 1.415 . S
C868 H844 0.950 . S
C868 C863 1.363 . S
C868 C867 1.415 . S
C869 H845 0.951 . S
C869 C870 1.366 . S
C869 C871 1.388 . S
C870 C869 1.366 . S
C870 C874 1.385 . S
C871 H846 0.951 . S
C871 C869 1.388 . S
C871 C872 1.366 . S
C872 C871 1.366 . S
C872 C873 1.414 . S
C872 C875 1.499 . S
C873 H847 0.950 . S
C873 C872 1.414 . S
C873 C874 1.374 . S
C874 H848 0.950 . S
C874 C870 1.385 . S
C874 C873 1.374 . S
C875 C872 1.499 . S
C875 C876 1.373 . S
C875 C877 1.389 . S
C876 H849 0.950 . S
C876 C862 1.377 . S
C876 C875 1.373 . S
C877 C861 1.377 . S
C877 C875 1.389 . S
C877 C878 1.524 . S
C878 C877 1.524 . S
C878 C879 1.397 . S
C878 C883 1.363 . S
C879 H850 0.950 . S
C879 C878 1.397 . S
C879 C880 1.334 . S
C880 H851 0.950 . S
C880 C879 1.334 . S
C880 C881 1.287 . S
C881 C880 1.287 . S
C881 C882 1.524 . S
C881 H884 0.999 . S
C882 H852 0.950 . S
C882 C881 1.524 . S
C882 C883 1.415 . S
C883 H853 0.950 . S
C883 C878 1.363 . S
C883 C882 1.415 . S
H884 C881 0.999 . S
H885 C866 0.913 . S
H886 C904 0.951 . S
H887 C906 0.951 . S
H888 C908 0.950 . S
H889 C909 0.950 . S
H890 C911 0.950 . S
H891 C914 0.950 . S
H892 C915 0.950 . S
H893 C917 0.950 . S
H894 C918 0.950 . S
H895 C919 0.951 . S
H896 C921 0.951 . S
H897 C923 0.950 . S
H898 C924 0.950 . S
H899 C926 0.950 . S
H900 C929 0.950 . S
H901 C930 0.950 . S
H902 C932 0.950 . S
H903 C933 0.950 . S
C904 H886 0.951 . S
C904 C905 1.366 . S
C904 C906 1.388 . S
C905 C904 1.366 . S
C905 C909 1.385 . S
C906 H887 0.951 . S
C906 C904 1.388 . S
C906 C907 1.366 . S
C907 C906 1.366 . S
C907 C908 1.414 . S
C907 C910 1.499 . S
C908 H888 0.950 . S
C908 C907 1.414 . S
C908 C909 1.374 . S
C909 H889 0.950 . S
C909 C905 1.385 . S
C909 C908 1.374 . S
C910 C907 1.499 . S
C910 C911 1.373 . S
C910 C912 1.389 . S
C911 H890 0.950 . S
C911 C910 1.373 . S
C911 C927 1.377 . S
C912 C910 1.389 . S
C912 C913 1.524 . S
C912 C926 1.377 . S
C913 C912 1.524 . S
C913 C914 1.397 . S
C913 C918 1.363 . S
C914 H891 0.950 . S
C914 C913 1.397 . S
C914 C915 1.334 . S
C915 H892 0.950 . S
C915 C914 1.334 . S
C915 C916 1.287 . S
C916 C915 1.287 . S
C916 C917 1.524 . S
C916 H935 0.913 . S
C917 H893 0.950 . S
C917 C916 1.524 . S
C917 C918 1.415 . S
C918 H894 0.950 . S
C918 C913 1.363 . S
C918 C917 1.415 . S
C919 H895 0.951 . S
C919 C920 1.366 . S
C919 C921 1.388 . S
C920 C919 1.366 . S
C920 C924 1.385 . S
C921 H896 0.951 . S
C921 C919 1.388 . S
C921 C922 1.366 . S
C922 C921 1.366 . S
C922 C923 1.414 . S
C922 C925 1.499 . S
C923 H897 0.950 . S
C923 C922 1.414 . S
C923 C924 1.374 . S
C924 H898 0.950 . S
C924 C920 1.385 . S
C924 C923 1.374 . S
C925 C922 1.499 . S
C925 C926 1.373 . S
C925 C927 1.389 . S
C926 H899 0.950 . S
C926 C912 1.377 . S
C926 C925 1.373 . S
C927 C911 1.377 . S
C927 C925 1.389 . S
C927 C928 1.524 . S
C928 C927 1.524 . S
C928 C929 1.397 . S
C928 C933 1.363 . S
C929 H900 0.950 . S
C929 C928 1.397 . S
C929 C930 1.334 . S
C930 H901 0.950 . S
C930 C929 1.334 . S
C930 C931 1.287 . S
C931 C930 1.287 . S
C931 C932 1.524 . S
C931 H934 0.999 . S
C932 H902 0.950 . S
C932 C931 1.524 . S
C932 C933 1.415 . S
C933 H903 0.950 . S
C933 C928 1.363 . S
C933 C932 1.415 . S
H934 C931 0.999 . S
H935 C916 0.913 . S
C355 C237 1.357 1_556 S
C370 C58 1.382 1_554 S
C405 C226 1.382 1_554 S
C420 C69 1.358 1_556 S
C455 C142 1.383 . S
C470 C321 1.383 . S
C505 C153 1.383 . S
C520 C310 1.383 . S
C555 C67 1.931 1_556 S
C570 C56 1.929 1_554 S
C605 C151 1.931 . S
C620 C140 1.931 . S
C655 C235 1.930 . S
C670 C224 1.929 1_554 S
C705 C308 1.930 . S
C720 C319 1.930 . S
C755 C147 1.480 1_545 S
C770 C63 1.499 . S
C805 C74 1.481 1_545 S
C820 C158 1.498 . S
C855 C315 1.481 . S
C870 C231 1.480 . S
C905 C326 1.481 . S
C920 C242 1.480 . S
