# Generated by pormake.
# Topology irl, (4)-cn, num edge types: 1
# Building blocks:
#     Node 0, Type 0, BuildingBlock: QUQFOY_clean_sbu_1, # of connection points: 4
#     Node 1, Type 0, BuildingBlock: QUQFOY_clean_sbu_1, # of connection points: 4
#     Node 2, Type 0, BuildingBlock: QUQFOY_clean_sbu_1, # of connection points: 4
#     Node 3, Type 0, BuildingBlock: QUQFOY_clean_sbu_1, # of connection points: 4
#     Node 4, Type 0, BuildingBlock: QUQFOY_clean_sbu_1, # of connection points: 4
#     Node 5, Type 0, BuildingBlock: QUQFOY_clean_sbu_1, # of connection points: 4
#     Node 6, Type 0, BuildingBlock: QUQFOY_clean_sbu_1, # of connection points: 4
#     Node 7, Type 0, BuildingBlock: QUQFOY_clean_sbu_1, # of connection points: 4
#     Edge 8, Type (0, 0), BuildingBlock: XIVTED_clean_linker_0, # of connection points: 2
#     Edge 9, Type (0, 0), BuildingBlock: XIVTED_clean_linker_0, # of connection points: 2
#     Edge 10, Type (0, 0), BuildingBlock: XIVTED_clean_linker_0, # of connection points: 2
#     Edge 11, Type (0, 0), BuildingBlock: XIVTED_clean_linker_0, # of connection points: 2
#     Edge 12, Type (0, 0), BuildingBlock: XIVTED_clean_linker_0, # of connection points: 2
#     Edge 13, Type (0, 0), BuildingBlock: XIVTED_clean_linker_0, # of connection points: 2
#     Edge 14, Type (0, 0), BuildingBlock: XIVTED_clean_linker_0, # of connection points: 2
#     Edge 15, Type (0, 0), BuildingBlock: XIVTED_clean_linker_0, # of connection points: 2
#     Edge 16, Type (0, 0), BuildingBlock: XIVTED_clean_linker_0, # of connection points: 2
#     Edge 17, Type (0, 0), BuildingBlock: XIVTED_clean_linker_0, # of connection points: 2
#     Edge 18, Type (0, 0), BuildingBlock: XIVTED_clean_linker_0, # of connection points: 2
#     Edge 19, Type (0, 0), BuildingBlock: XIVTED_clean_linker_0, # of connection points: 2
#     Edge 20, Type (0, 0), BuildingBlock: XIVTED_clean_linker_0, # of connection points: 2
#     Edge 21, Type (0, 0), BuildingBlock: XIVTED_clean_linker_0, # of connection points: 2
#     Edge 22, Type (0, 0), BuildingBlock: XIVTED_clean_linker_0, # of connection points: 2
#     Edge 23, Type (0, 0), BuildingBlock: XIVTED_clean_linker_0, # of connection points: 2
# Relax obj value: 0.045
# Max RMSD: 0.084
# Mean RMSD: 0.084
data_MOF--net-irl--node1-QUQFOY_clean_sbu_1--edge1-XIVTED_clean_linker_0
_symmetry_space_group_name_H-M    P1
_symmetry_Int_Tables_number       1
_symmetry_cell_setting            triclinic
loop_
_symmetry_equiv_pos_as_xyz
'x, y, z'
_cell_length_a     36.692874
_cell_length_b     44.329273
_cell_length_c     29.046063
_cell_angle_alpha  89.994124
_cell_angle_beta   89.995505
_cell_angle_gamma 89.952161
loop_
_atom_site_label
_atom_site_type_symbol
_atom_site_fract_x
_atom_site_fract_y
_atom_site_fract_z
_atom_type_partial_charge
O0 O 0.07523 0.18733 0.08399 0.0
Cd1 Cd 0.09977 0.16766 0.02793 0.0
Cd2 Cd 0.03456 0.17995 0.98994 0.0
O3 O 0.02275 0.20023 0.05268 0.0
O4 O 0.15275 0.17081 0.04286 0.0
O5 O 0.12744 0.19428 0.98375 0.0
C6 C 0.15579 0.18954 1.00908 0.0
C7 C 0.02883 0.20412 0.91901 0.0
C8 C 0.04402 0.19953 0.08727 0.0
C9 C 0.05528 0.11436 0.99915 0.0
O10 O 0.03128 0.13353 0.98728 0.0
O11 O 0.08582 0.12294 0.01539 0.0
O12 O 1.00052 0.1954 0.94178 0.0
O13 O 0.06044 0.20056 0.93786 0.0
O14 O 0.94943 0.82813 0.08774 0.0
Cd15 Cd 0.92596 0.84738 0.03064 0.0
Cd16 Cd 0.99181 0.83402 0.99471 0.0
O17 O 1.00211 0.81401 0.05819 0.0
O18 O 0.87286 0.84527 0.04516 0.0
O19 O 0.89794 0.82041 0.98725 0.0
C20 C 0.86958 0.82597 0.01219 0.0
C21 C 0.9978 0.80974 0.92392 0.0
C22 C 0.98026 0.81543 0.09216 0.0
C23 C 0.97161 0.89987 1.00141 0.0
O24 O 0.99567 0.88038 0.99112 0.0
O25 O 0.94065 0.8918 0.01692 0.0
O26 O 0.02605 0.81811 0.94711 0.0
O27 O 0.9661 0.81348 0.94246 0.0
O28 O 0.07991 0.83116 0.42659 0.0
Cd29 Cd 0.1004 0.84816 0.4875 0.0
Cd30 Cd 0.03334 0.83264 0.51511 0.0
O31 O 0.02849 0.8115 0.45184 0.0
O32 O 0.15426 0.84704 0.47687 0.0
O33 O 0.12678 0.81942 0.52988 0.0
C34 C 0.1562 0.82627 0.50789 0.0
C35 C 0.02727 0.80917 0.5865 0.0
C36 C 0.05108 0.81601 0.41933 0.0
C37 C 0.05088 0.89896 0.51337 0.0
O38 O 0.02636 0.87876 0.51569 0.0
O39 O 0.08395 0.89158 0.50587 0.0
O40 O 0.999 0.81555 0.56182 0.0
O41 O 0.05905 0.81453 0.56919 0.0
O42 O 0.94587 0.18276 0.42189 0.0
Cd43 Cd 0.92669 0.16758 0.48456 0.0
Cd44 Cd 0.99421 0.1838 0.51073 0.0
O45 O 0.99623 0.20454 0.44686 0.0
O46 O 0.87197 0.16964 0.48219 0.0
O47 O 0.90573 0.19968 0.52542 0.0
C48 C 0.874 0.19229 0.51002 0.0
C49 C 1.00228 0.2075 0.58169 0.0
C50 C 0.97399 0.19879 0.41435 0.0
C51 C 0.97726 0.1176 0.51167 0.0
O52 O 1.00183 0.13781 0.51162 0.0
O53 O 0.94396 0.12489 0.50579 0.0
O54 O 0.02988 0.2015 0.5556 0.0
O55 O 0.97015 0.20168 0.56601 0.0
O56 O 0.57425 0.68612 0.08752 0.0
Cd57 Cd 0.59571 0.66888 0.02722 0.0
Cd58 Cd 0.52889 0.68378 0.99828 0.0
O59 O 0.52275 0.70497 0.06107 0.0
O60 O 0.64938 0.66997 0.03912 0.0
O61 O 0.62272 0.69747 0.98528 0.0
C62 C 0.65181 0.69062 1.00797 0.0
C63 C 0.5234 0.70754 0.92724 0.0
C64 C 0.54504 0.70095 0.09401 0.0
C65 C 0.54707 0.61768 1.00049 0.0
O66 O 0.52231 0.63767 0.99756 0.0
O67 O 0.57992 0.62534 1.00871 0.0
O68 O 0.49493 0.70084 0.9513 0.0
O69 O 0.55507 0.70218 0.94491 0.0
O70 O 0.45295 0.32896 0.08198 0.0
Cd71 Cd 0.43031 0.34646 0.02259 0.0
Cd72 Cd 0.49664 0.33212 0.99161 0.0
O73 O 0.50453 0.31103 0.05425 0.0
O74 O 0.37696 0.34552 0.03658 0.0
O75 O 0.40206 0.31814 0.98146 0.0
C76 C 0.37359 0.32501 1.00537 0.0
C77 C 0.50034 0.3086 0.92014 0.0
C78 C 0.48261 0.31462 0.08772 0.0
C79 C 0.47819 0.39811 0.99546 0.0
O80 O 0.50296 0.37825 0.99112 0.0
O81 O 0.44557 0.39024 1.00465 0.0
O82 O 0.52939 0.31526 0.94311 0.0
O83 O 0.46913 0.31384 0.93914 0.0
O84 O 0.581 0.33247 0.42309 0.0
Cd85 Cd 0.6006 0.34798 0.48538 0.0
Cd86 Cd 0.53279 0.33219 0.51203 0.0
O87 O 0.52991 0.3118 0.44804 0.0
O88 O 0.65534 0.346 0.4822 0.0
O89 O 0.62207 0.31619 0.5264 0.0
C90 C 0.65363 0.32353 0.51042 0.0
C91 C 0.52572 0.30803 0.58275 0.0
C92 C 0.5524 0.31701 0.4156 0.0
C93 C 0.5504 0.39827 0.5129 0.0
O94 O 0.52569 0.3782 0.51345 0.0
O95 O 0.58358 0.39083 0.50635 0.0
O96 O 0.49772 0.31443 0.55759 0.0
O97 O 0.55763 0.31378 0.56629 0.0
O98 O 0.45154 0.686 0.42901 0.0
Cd99 Cd 0.42984 0.66852 0.48896 0.0
Cd100 Cd 0.49637 0.68349 0.51865 0.0
O101 O 0.5029 0.70475 0.45597 0.0
O102 O 0.37628 0.66953 0.47638 0.0
O103 O 0.40232 0.69695 0.53073 0.0
C104 C 0.37347 0.69013 0.50756 0.0
C105 C 0.50149 0.70723 0.58976 0.0
C106 C 0.48077 0.70083 0.42283 0.0
C107 C 0.4786 0.61731 0.51573 0.0
O108 O 0.50317 0.63738 0.5193 0.0
O109 O 0.44577 0.6249 0.50709 0.0
O110 O 0.53008 0.70055 0.56587 0.0
O111 O 0.46991 0.70184 0.57189 0.0
H112 H 1.00199 0.92904 0.92835 0.0
H113 H 0.06969 0.07091 0.06319 0.0
H114 H 0.96449 0.94321 0.06731 0.0
H115 H 0.01868 0.08469 0.93111 0.0
H116 H 0.04738 0.01851 0.06306 0.0
H117 H 0.02322 0.98174 0.92596 0.0
C118 C 0.998 0.94338 0.95814 0.0
C119 C 0.98112 0.93209 0.99789 0.0
C120 C 0.04145 0.03306 0.03404 0.0
C121 C 1.00664 0.99139 0.99605 0.0
C122 C 0.05441 0.06271 0.03384 0.0
C123 C 0.04605 0.08198 0.99702 0.0
C124 C 0.02105 0.02247 0.99653 0.0
C125 C 0.02567 0.07045 0.9601 0.0
C126 C 1.01013 0.97324 0.95677 0.0
C127 C 0.9769 0.95133 0.03584 0.0
N128 N 0.01413 0.04129 0.96052 0.0
N129 N 0.99013 0.97999 0.03429 0.0
H130 H 0.98223 0.92208 0.52454 0.0
H131 H 0.04622 0.09463 0.52014 0.0
H132 H 0.09465 0.94948 0.51148 0.0
H133 H 0.93348 0.0671 0.51396 0.0
H134 H 0.06439 0.04177 0.52384 0.0
H135 H 0.96417 0.97499 0.52751 0.0
C136 C 1.00322 0.93919 0.52252 0.0
C137 C 0.04011 0.93118 0.51758 0.0
C138 C 0.03567 0.04725 0.52182 0.0
C139 C 0.01938 0.9921 0.52095 0.0
C140 C 0.02519 0.0775 0.5198 0.0
C141 C 0.98817 0.08546 0.51656 0.0
C142 C 1.00902 0.02458 0.52075 0.0
C143 C 0.9623 0.06212 0.51632 0.0
C144 C 0.9928 0.96947 0.52413 0.0
C145 C 0.06593 0.9545 0.51519 0.0
N146 N 0.97322 0.03278 0.51828 0.0
N147 N 0.05507 0.98387 0.51682 0.0
H148 H 0.47869 0.59385 0.99091 0.0
H149 H 0.54619 0.42225 0.98363 0.0
H150 H 0.59185 0.56772 1.00004 0.0
H151 H 0.43338 0.44798 0.99967 0.0
H152 H 0.56311 0.47542 0.98208 0.0
H153 H 0.46166 0.54076 0.98672 0.0
C154 C 0.50005 0.57698 0.99182 0.0
C155 C 0.53685 0.58538 0.99596 0.0
C156 C 0.53465 0.46947 0.98582 0.0
C157 C 0.51731 0.52428 0.99114 0.0
C158 C 0.52487 0.43905 0.98657 0.0
C159 C 0.48822 0.4305 0.99193 0.0
C160 C 0.50764 0.4917 0.9902 0.0
C161 C 0.46195 0.45343 0.99558 0.0
C162 C 0.49022 0.54661 0.98954 0.0
C163 C 0.56318 0.56238 0.99698 0.0
N164 N 0.47218 0.48295 0.9947 0.0
N165 N 0.55289 0.53291 0.99461 0.0
H166 H 0.48163 0.42162 0.52138 0.0
H167 H 0.5469 0.59377 0.52811 0.0
H168 H 0.5946 0.44853 0.51531 0.0
H169 H 0.43447 0.56705 0.51219 0.0
H170 H 0.56452 0.54075 0.5307 0.0
H171 H 0.46389 0.47457 0.52528 0.0
C172 C 0.5028 0.43863 0.52111 0.0
C173 C 0.53976 0.43047 0.51785 0.0
C174 C 0.53598 0.54645 0.52677 0.0
C175 C 0.51939 0.49145 0.52229 0.0
C176 C 0.52581 0.57679 0.52539 0.0
C177 C 0.48906 0.58502 0.51976 0.0
C178 C 0.50928 0.52397 0.5227 0.0
C179 C 0.4631 0.56185 0.51646 0.0
C180 C 0.49256 0.46893 0.52323 0.0
C181 C 0.56581 0.45367 0.51768 0.0
N182 N 0.47372 0.53242 0.51792 0.0
N183 N 0.55512 0.48307 0.51979 0.0
H184 H 0.97388 0.20812 0.11789 0.0
H185 H 0.03751 0.22294 0.38059 0.0
H186 H 0.08609 0.21387 0.16152 0.0
H187 H 0.92924 0.19636 0.33898 0.0
H188 H 0.05294 0.23171 0.29976 0.0
H189 H 0.95469 0.21601 0.19787 0.0
C190 C 0.99445 0.21168 0.14407 0.0
C191 C 0.03164 0.20991 0.13313 0.0
C192 C 0.02567 0.22431 0.30841 0.0
C193 C 1.00993 0.21876 0.22453 0.0
C194 C 0.0168 0.21938 0.35459 0.0
C195 C 0.98219 0.20845 0.36659 0.0
C196 C 0.99973 0.21839 0.27398 0.0
C197 C 0.95643 0.20438 0.33132 0.0
C198 C 0.98349 0.21599 0.18974 0.0
C199 C 0.05712 0.21464 0.1685 0.0
N200 N 0.96581 0.20908 0.28662 0.0
N201 N 0.04581 0.21856 0.21261 0.0
H202 H 0.09744 0.81368 0.34569 0.0
H203 H 0.9362 0.802 0.16495 0.0
H204 H 0.98573 0.79644 0.384 0.0
H205 H 0.04948 0.80601 0.12557 0.0
H206 H 0.9545 0.79392 0.24468 0.0
H207 H 0.08149 0.80513 0.26521 0.0
C208 C 0.0696 0.80771 0.33726 0.0
C209 C 0.04276 0.80618 0.37168 0.0
C210 C 0.97543 0.7961 0.21861 0.0
C211 C 0.02423 0.79664 0.27925 0.0
C212 C 0.96499 0.80073 0.17299 0.0
C213 C 0.99137 0.80507 0.13858 0.0
C214 C 1.01256 0.79624 0.23022 0.0
C215 C 0.02824 0.80289 0.15099 0.0
C216 C 0.06054 0.80278 0.29121 0.0
C217 C 1.00727 0.79804 0.35866 0.0
N218 N 0.03775 0.79914 0.19594 0.0
N219 N 0.99893 0.79403 0.31342 0.0
H220 H 0.08129 0.79689 0.64892 0.0
H221 H 0.94356 0.79683 0.86195 0.0
H222 H 0.96422 0.79944 0.63491 0.0
H223 H 0.06065 0.79998 0.8753 0.0
H224 H 0.95056 0.78862 0.77915 0.0
H225 H 0.07413 0.78886 0.73164 0.0
C226 C 0.05405 0.79527 0.66309 0.0
C227 C 0.02331 0.79921 0.63495 0.0
C228 C 0.97474 0.79069 0.80029 0.0
C229 C 0.01491 0.79033 0.72988 0.0
C230 C 0.97076 0.79527 0.84764 0.0
C231 C 1.00156 0.79947 0.87559 0.0
C232 C 1.00976 0.79037 0.78068 0.0
C233 C 0.03611 0.79715 0.85508 0.0
C234 C 0.04998 0.79077 0.71042 0.0
C235 C 0.9887 0.79677 0.6553 0.0
N236 N 0.03926 0.7931 0.80885 0.0
N237 N 0.98545 0.79285 0.70156 0.0
H238 H 0.96621 0.21698 0.87182 0.0
H239 H 0.06639 0.21652 0.62838 0.0
H240 H 0.08316 0.21494 0.85622 0.0
H241 H 0.94963 0.22028 0.64549 0.0
H242 H 0.07361 0.22396 0.71132 0.0
H243 H 0.96018 0.22623 0.78937 0.0
C244 C 0.99068 0.21893 0.85117 0.0
C245 C 0.02524 0.21481 0.87091 0.0
C246 C 0.04642 0.22361 0.69684 0.0
C247 C 0.0185 0.22502 0.77613 0.0
C248 C 0.04228 0.21945 0.64942 0.0
C249 C 1.00733 0.21739 0.62999 0.0
C250 C 0.0154 0.22557 0.72508 0.0
C251 C 0.9771 0.22142 0.65898 0.0
C252 C 0.98721 0.22417 0.80399 0.0
C253 C 0.05596 0.21778 0.84243 0.0
N254 N 0.98182 0.22493 0.70507 0.0
N255 N 0.05186 0.22228 0.79638 0.0
H256 H 0.47848 0.71864 0.12783 0.0
H257 H 0.54763 0.71784 0.38923 0.0
H258 H 0.59065 0.70562 0.16807 0.0
H259 H 0.43528 0.70636 0.34883 0.0
H260 H 0.5637 0.72634 0.3084 0.0
H261 H 0.46259 0.72712 0.20871 0.0
C262 C 0.49987 0.7181 0.15351 0.0
C263 C 0.53586 0.71096 0.14124 0.0
C264 C 0.53546 0.72237 0.31739 0.0
C265 C 0.51785 0.72056 0.23371 0.0
C266 C 0.52624 0.71765 0.36353 0.0
C267 C 0.49014 0.71093 0.37572 0.0
C268 C 0.50834 0.72056 0.28333 0.0
C269 C 0.46355 0.71102 0.34092 0.0
C270 C 0.49076 0.7228 0.19968 0.0
C271 C 0.56246 0.71061 0.17603 0.0
N272 N 0.47323 0.71547 0.29629 0.0
N273 N 0.55288 0.71506 0.22069 0.0
H274 H 0.59852 0.31526 0.34161 0.0
H275 H 0.43753 0.30604 0.16132 0.0
H276 H 0.4871 0.29738 0.38059 0.0
H277 H 0.55077 0.30198 0.12169 0.0
H278 H 0.45531 0.2987 0.24148 0.0
H279 H 0.58231 0.30651 0.2612 0.0
C280 C 0.57071 0.30913 0.33333 0.0
C281 C 0.54402 0.30743 0.36789 0.0
C282 C 0.47628 0.29893 0.21525 0.0
C283 C 0.52519 0.29768 0.27567 0.0
C284 C 0.46614 0.30316 0.16942 0.0
C285 C 0.49275 0.30498 0.1348 0.0
C286 C 0.51337 0.29701 0.22677 0.0
C287 C 0.52937 0.30083 0.14728 0.0
C288 C 0.5615 0.30406 0.28737 0.0
C289 C 0.50853 0.29911 0.35511 0.0
N290 N 0.53866 0.29756 0.19237 0.0
N291 N 0.50002 0.29501 0.30997 0.0
H292 H 0.44453 0.29836 0.85932 0.0
H293 H 0.57936 0.29266 0.64385 0.0
H294 H 0.56182 0.29614 0.87019 0.0
H295 H 0.46249 0.30053 0.63187 0.0
H296 H 0.5726 0.28445 0.7265 0.0
H297 H 0.44984 0.28984 0.77641 0.0
C298 C 0.47139 0.29558 0.84443 0.0
C299 C 0.50281 0.29836 0.8717 0.0
C300 C 0.54836 0.28756 0.70575 0.0
C301 C 0.50908 0.28886 0.77669 0.0
C302 C 0.5522 0.29218 0.65846 0.0
C303 C 0.52146 0.29769 0.63094 0.0
C304 C 0.51355 0.28863 0.72583 0.0
C305 C 0.48696 0.29661 0.6518 0.0
C306 C 0.4744 0.2908 0.79703 0.0
C307 C 0.53687 0.29445 0.85049 0.0
N308 N 0.48397 0.2926 0.69808 0.0
N309 N 0.5391 0.29025 0.80422 0.0
H310 H 0.46072 0.71926 0.87923 0.0
H311 H 0.56396 0.71953 0.63779 0.0
H312 H 0.57781 0.71878 0.86494 0.0
H313 H 0.44688 0.71803 0.652 0.0
H314 H 0.56941 0.72816 0.72053 0.0
H315 H 0.45511 0.72772 0.79645 0.0
C316 C 0.48528 0.72142 0.85883 0.0
C317 C 0.51979 0.71789 0.879 0.0
C318 C 0.54249 0.72636 0.70549 0.0
C319 C 0.51354 0.72726 0.784 0.0
C320 C 0.53935 0.72149 0.65817 0.0
C321 C 0.50491 0.71764 0.63799 0.0
C322 C 0.51098 0.7272 0.73295 0.0
C323 C 0.474 0.7206 0.66612 0.0
C324 C 0.48205 0.72619 0.81148 0.0
C325 C 0.55064 0.72108 0.85083 0.0
N326 N 0.47778 0.7248 0.71224 0.0
N327 N 0.54678 0.72519 0.8047 0.0
H328 H 0.3198 0.31958 0.06919 0.0
H329 H 0.18028 0.21942 0.93178 0.0
H330 H 0.34995 0.28997 0.93285 0.0
H331 H 0.2072 0.20153 0.0738 0.0
H332 H 0.23339 0.25342 0.92696 0.0
H333 H 0.2673 0.28572 0.0669 0.0
C334 C 0.31504 0.30637 0.03841 0.0
C335 C 0.33935 0.30756 1.00117 0.0
C336 C 0.22764 0.24175 0.9589 0.0
C337 C 0.27917 0.26892 0.99841 0.0
C338 C 0.1975 0.22241 0.96172 0.0
C339 C 0.18945 0.20753 1.00321 0.0
C340 C 0.24893 0.24688 0.99827 0.0
C341 C 0.21252 0.21232 0.04105 0.0
C342 C 0.28527 0.28689 0.03735 0.0
C343 C 0.33191 0.28965 0.96234 0.0
N344 N 0.24083 0.23191 0.03788 0.0
N345 N 0.30229 0.27107 0.96182 0.0
H346 H 0.67432 0.72458 0.93374 0.0
H347 H 0.81714 0.81687 0.07672 0.0
H348 H 0.70585 0.69785 0.07094 0.0
H349 H 0.84522 0.79403 0.93669 0.0
H350 H 0.76501 0.78274 0.07215 0.0
H351 H 0.72776 0.75831 0.93076 0.0
C352 C 0.69264 0.72555 0.96294 0.0
C353 C 0.68575 0.70831 1.0026 0.0
C354 C 0.78245 0.78544 0.04233 0.0
C355 C 0.74563 0.74732 0.99988 0.0
C356 C 0.812 0.80509 0.0447 0.0
C357 C 0.83561 0.80828 1.00701 0.0
C358 C 0.77582 0.76935 1.00166 0.0
C359 C 0.82771 0.79214 0.96654 0.0
C360 C 0.72297 0.74474 0.96117 0.0
C361 C 0.71023 0.71053 0.03957 0.0
N362 N 0.79827 0.77341 0.96478 0.0
N363 N 0.73869 0.73004 0.03761 0.0
H364 H 0.17827 0.79298 0.58304 0.0
H365 H 0.31997 0.69726 0.4438 0.0
H366 H 0.21022 0.81791 0.44523 0.0
H367 H 0.35003 0.72399 0.58152 0.0
H368 H 0.2678 0.73154 0.44739 0.0
H369 H 0.23148 0.75895 0.58708 0.0
C370 C 0.19664 0.79154 0.55393 0.0
C371 C 0.18998 0.80839 0.51381 0.0
C372 C 0.28567 0.72962 0.47694 0.0
C373 C 0.24952 0.76901 0.51771 0.0
C374 C 0.31523 0.70991 0.47514 0.0
C375 C 0.33941 0.70779 0.51243 0.0
C376 C 0.27961 0.74683 0.51668 0.0
C377 C 0.33206 0.72503 0.552 0.0
C378 C 0.22682 0.77219 0.55629 0.0
C379 C 0.21447 0.80557 0.47695 0.0
N380 N 0.30259 0.7438 0.55326 0.0
N381 N 0.24277 0.78588 0.47949 0.0
H382 H 0.65567 0.26536 0.54129 0.0
H383 H 0.87236 0.25077 0.53951 0.0
H384 H 0.72566 0.33909 0.50161 0.0
H385 H 0.80189 0.17669 0.50291 0.0
H386 H 0.81869 0.28343 0.54689 0.0
H387 H 0.70943 0.23282 0.5485 0.0
C388 C 0.68238 0.27486 0.53488 0.0
C389 C 0.68621 0.30497 0.52062 0.0
C390 C 0.81505 0.25993 0.53776 0.0
C391 C 0.74765 0.26791 0.52921 0.0
C392 C 0.84557 0.24123 0.53383 0.0
C393 C 0.84156 0.21098 0.52038 0.0
C394 C 0.78025 0.24815 0.52915 0.0
C395 C 0.8062 0.1999 0.51312 0.0
C396 C 0.71295 0.25621 0.53873 0.0
C397 C 0.72148 0.31599 0.51246 0.0
N398 N 0.77686 0.21848 0.51765 0.0
N399 N 0.75088 0.29747 0.51692 0.0
loop_
_geom_bond_atom_site_label_1
_geom_bond_atom_site_label_2
_geom_bond_distance
_geom_bond_site_symmetry_2
_ccdc_geom_bond_type
O0 Cd1 2.223 . S
O0 C8 1.315 . S
Cd1 O0 2.223 . S
Cd1 O4 2.297 . S
Cd1 O5 2.439 . S
Cd1 O11 2.240 . S
Cd2 O3 2.240 1_556 S
Cd2 O10 2.222 1_456 S
Cd2 O12 2.297 1_455 S
Cd2 O13 2.439 . S
O3 Cd2 2.240 1_554 S
O3 C8 1.279 . S
O4 Cd1 2.297 . S
O4 C6 1.247 . S
O5 Cd1 2.439 . S
O5 C6 1.208 . S
C6 O4 1.247 . S
C6 O5 1.208 . S
C7 O12 1.247 1_455 S
C7 O13 1.208 . S
C8 O0 1.315 . S
C8 O3 1.279 . S
C9 O10 1.309 1_455 S
C9 O11 1.279 . S
O10 Cd2 2.222 1_654 S
O10 C9 1.309 1_655 S
O11 Cd1 2.240 . S
O11 C9 1.279 . S
O12 Cd2 2.297 1_655 S
O12 C7 1.247 1_655 S
O13 Cd2 2.439 . S
O13 C7 1.208 . S
O14 Cd15 2.223 . S
O14 C22 1.315 . S
Cd15 O14 2.223 . S
Cd15 O18 2.297 . S
Cd15 O19 2.439 . S
Cd15 O25 2.240 . S
Cd16 O17 2.240 1_556 S
Cd16 O24 2.222 1_656 S
Cd16 O26 2.297 1_655 S
Cd16 O27 2.439 . S
O17 Cd16 2.240 1_554 S
O17 C22 1.279 . S
O18 Cd15 2.297 . S
O18 C20 1.247 . S
O19 Cd15 2.439 . S
O19 C20 1.208 . S
C20 O18 1.247 . S
C20 O19 1.208 . S
C21 O26 1.247 1_655 S
C21 O27 1.208 . S
C22 O14 1.315 . S
C22 O17 1.279 . S
C23 O24 1.309 1_655 S
C23 O25 1.279 . S
O24 Cd16 2.222 1_454 S
O24 C23 1.309 1_455 S
O25 Cd15 2.240 . S
O25 C23 1.279 . S
O26 Cd16 2.297 1_455 S
O26 C21 1.247 1_455 S
O27 Cd16 2.439 . S
O27 C21 1.208 . S
O28 Cd29 2.223 . S
O28 C36 1.315 . S
Cd29 O28 2.223 . S
Cd29 O32 2.297 . S
Cd29 O33 2.439 . S
Cd29 O39 2.240 . S
Cd30 O31 2.240 . S
Cd30 O38 2.222 1_455 S
Cd30 O40 2.297 1_455 S
Cd30 O41 2.439 . S
O31 Cd30 2.240 . S
O31 C36 1.279 . S
O32 Cd29 2.297 . S
O32 C34 1.247 . S
O33 Cd29 2.439 . S
O33 C34 1.208 . S
C34 O32 1.247 . S
C34 O33 1.208 . S
C35 O40 1.247 1_455 S
C35 O41 1.208 . S
C36 O28 1.315 . S
C36 O31 1.279 . S
C37 O38 1.309 1_455 S
C37 O39 1.279 . S
O38 Cd30 2.222 1_655 S
O38 C37 1.309 1_655 S
O39 Cd29 2.240 . S
O39 C37 1.279 . S
O40 Cd30 2.297 1_655 S
O40 C35 1.247 1_655 S
O41 Cd30 2.439 . S
O41 C35 1.208 . S
O42 Cd43 2.223 . S
O42 C50 1.315 . S
Cd43 O42 2.223 . S
Cd43 O46 2.297 . S
Cd43 O47 2.439 . S
Cd43 O53 2.240 . S
Cd44 O45 2.240 . S
Cd44 O52 2.222 1_655 S
Cd44 O54 2.297 1_655 S
Cd44 O55 2.439 . S
O45 Cd44 2.240 . S
O45 C50 1.279 . S
O46 Cd43 2.297 . S
O46 C48 1.247 . S
O47 Cd43 2.439 . S
O47 C48 1.208 . S
C48 O46 1.247 . S
C48 O47 1.208 . S
C49 O54 1.247 1_655 S
C49 O55 1.208 . S
C50 O42 1.315 . S
C50 O45 1.279 . S
C51 O52 1.309 1_655 S
C51 O53 1.279 . S
O52 Cd44 2.222 1_455 S
O52 C51 1.309 1_455 S
O53 Cd43 2.240 . S
O53 C51 1.279 . S
O54 Cd44 2.297 1_455 S
O54 C49 1.247 1_455 S
O55 Cd44 2.439 . S
O55 C49 1.208 . S
O56 Cd57 2.223 . S
O56 C64 1.315 . S
Cd57 O56 2.223 . S
Cd57 O60 2.297 . S
Cd57 O61 2.439 . S
Cd57 O67 2.240 . S
Cd58 O59 2.240 1_556 S
Cd58 O66 2.223 1_556 S
Cd58 O68 2.297 . S
Cd58 O69 2.439 . S
O59 Cd58 2.240 1_554 S
O59 C64 1.279 . S
O60 Cd57 2.297 . S
O60 C62 1.247 . S
O61 Cd57 2.439 . S
O61 C62 1.208 . S
C62 O60 1.247 . S
C62 O61 1.208 . S
C63 O68 1.247 . S
C63 O69 1.208 . S
C64 O56 1.315 . S
C64 O59 1.279 . S
C65 O66 1.315 . S
C65 O67 1.279 . S
O66 Cd58 2.223 1_554 S
O66 C65 1.315 . S
O67 Cd57 2.240 . S
O67 C65 1.279 . S
O68 Cd58 2.297 . S
O68 C63 1.247 . S
O69 Cd58 2.439 . S
O69 C63 1.208 . S
O70 Cd71 2.223 . S
O70 C78 1.315 . S
Cd71 O70 2.223 . S
Cd71 O74 2.297 . S
Cd71 O75 2.439 . S
Cd71 O81 2.240 . S
Cd72 O73 2.240 1_556 S
Cd72 O80 2.223 1_556 S
Cd72 O82 2.297 . S
Cd72 O83 2.439 . S
O73 Cd72 2.240 1_554 S
O73 C78 1.279 . S
O74 Cd71 2.297 . S
O74 C76 1.247 . S
O75 Cd71 2.439 . S
O75 C76 1.208 . S
C76 O74 1.247 . S
C76 O75 1.208 . S
C77 O82 1.247 . S
C77 O83 1.208 . S
C78 O70 1.315 . S
C78 O73 1.279 . S
C79 O80 1.315 . S
C79 O81 1.279 . S
O80 Cd72 2.223 1_554 S
O80 C79 1.315 . S
O81 Cd71 2.240 . S
O81 C79 1.279 . S
O82 Cd72 2.297 . S
O82 C77 1.247 . S
O83 Cd72 2.439 . S
O83 C77 1.208 . S
O84 Cd85 2.223 . S
O84 C92 1.315 . S
Cd85 O84 2.223 . S
Cd85 O88 2.297 . S
Cd85 O89 2.439 . S
Cd85 O95 2.240 . S
Cd86 O87 2.240 . S
Cd86 O94 2.223 . S
Cd86 O96 2.297 . S
Cd86 O97 2.439 . S
O87 Cd86 2.240 . S
O87 C92 1.279 . S
O88 Cd85 2.297 . S
O88 C90 1.247 . S
O89 Cd85 2.439 . S
O89 C90 1.208 . S
C90 O88 1.247 . S
C90 O89 1.208 . S
C91 O96 1.247 . S
C91 O97 1.208 . S
C92 O84 1.315 . S
C92 O87 1.279 . S
C93 O94 1.315 . S
C93 O95 1.279 . S
O94 Cd86 2.223 . S
O94 C93 1.315 . S
O95 Cd85 2.240 . S
O95 C93 1.279 . S
O96 Cd86 2.297 . S
O96 C91 1.247 . S
O97 Cd86 2.439 . S
O97 C91 1.208 . S
O98 Cd99 2.223 . S
O98 C106 1.315 . S
Cd99 O98 2.223 . S
Cd99 O102 2.297 . S
Cd99 O103 2.439 . S
Cd99 O109 2.240 . S
Cd100 O101 2.240 . S
Cd100 O108 2.223 . S
Cd100 O110 2.297 . S
Cd100 O111 2.439 . S
O101 Cd100 2.240 . S
O101 C106 1.279 . S
O102 Cd99 2.297 . S
O102 C104 1.247 . S
O103 Cd99 2.439 . S
O103 C104 1.208 . S
C104 O102 1.247 . S
C104 O103 1.208 . S
C105 O110 1.247 . S
C105 O111 1.208 . S
C106 O98 1.315 . S
C106 O101 1.279 . S
C107 O108 1.315 . S
C107 O109 1.279 . S
O108 Cd100 2.223 . S
O108 C107 1.315 . S
O109 Cd99 2.240 . S
O109 C107 1.279 . S
O110 Cd100 2.297 . S
O110 C105 1.247 . S
O111 Cd100 2.439 . S
O111 C105 1.208 . S
H112 C118 0.930 . S
H113 C122 0.930 . S
H114 C127 0.929 . S
H115 C125 0.929 . S
H116 C120 0.929 . S
H117 C126 0.929 . S
C118 H112 0.930 . S
C118 C119 1.367 1_556 S
C118 C126 1.378 . S
C119 C118 1.367 1_554 S
C119 C127 1.433 . S
C120 H116 0.929 . S
C120 C122 1.378 . S
C120 C124 1.350 . S
C121 C124 1.463 1_665 S
C121 C126 1.350 1_554 S
C121 N129 1.427 . S
C122 H113 0.930 . S
C122 C120 1.378 . S
C122 C123 1.367 . S
C123 C122 1.367 . S
C123 C125 1.433 1_554 S
C124 C120 1.350 . S
C124 C121 1.463 1_445 S
C124 N128 1.427 1_554 S
C125 H115 0.929 . S
C125 C123 1.433 1_556 S
C125 N128 1.384 . S
C126 H117 0.929 . S
C126 C118 1.378 . S
C126 C121 1.350 1_556 S
C127 H114 0.929 . S
C127 C119 1.433 . S
C127 N129 1.384 . S
N128 C124 1.427 1_556 S
N128 C125 1.384 . S
N129 C121 1.427 . S
N129 C127 1.384 . S
H130 C136 0.930 . S
H131 C140 0.930 . S
H132 C145 0.929 . S
H133 C143 0.929 . S
H134 C138 0.929 . S
H135 C144 0.929 . S
C136 H130 0.930 . S
C136 C137 1.367 1_655 S
C136 C144 1.378 . S
C137 C136 1.367 1_455 S
C137 C145 1.433 . S
C138 H134 0.929 . S
C138 C140 1.378 . S
C138 C142 1.350 1_455 S
C139 C142 1.463 1_465 S
C139 C144 1.350 1_455 S
C139 N147 1.427 . S
C140 H131 0.930 . S
C140 C138 1.378 . S
C140 C141 1.367 1_455 S
C141 C140 1.367 1_655 S
C141 C143 1.433 . S
C142 C138 1.350 1_655 S
C142 C139 1.463 1_645 S
C142 N146 1.427 . S
C143 H133 0.929 . S
C143 C141 1.433 . S
C143 N146 1.384 . S
C144 H135 0.929 . S
C144 C136 1.378 . S
C144 C139 1.350 1_655 S
C145 H132 0.929 . S
C145 C137 1.433 . S
C145 N147 1.384 . S
N146 C142 1.427 . S
N146 C143 1.384 . S
N147 C139 1.427 . S
N147 C145 1.384 . S
H148 C154 0.930 . S
H149 C158 0.930 1_556 S
H150 C163 0.922 1_556 S
H151 C161 0.929 . S
H152 C156 0.929 1_556 S
H153 C162 0.929 . S
C154 H148 0.930 . S
C154 C155 1.367 . S
C154 C162 1.378 . S
C155 C154 1.367 . S
C155 C163 1.441 . S
C156 H152 0.929 1_554 S
C156 C158 1.378 . S
C156 C160 1.350 . S
C157 C160 1.463 . S
C157 C162 1.350 . S
C157 N165 1.440 . S
C158 H149 0.930 1_554 S
C158 C156 1.378 . S
C158 C159 1.367 . S
C159 C158 1.367 . S
C159 C161 1.433 . S
C160 C156 1.350 . S
C160 C157 1.463 . S
C160 N164 1.427 . S
C161 H151 0.929 . S
C161 C159 1.433 . S
C161 N164 1.384 . S
C162 H153 0.929 . S
C162 C154 1.378 . S
C162 C157 1.350 . S
C163 H150 0.922 1_554 S
C163 C155 1.441 . S
C163 N165 1.384 . S
N164 C160 1.427 . S
N164 C161 1.384 . S
N165 C157 1.440 . S
N165 C163 1.384 . S
H166 C172 0.930 . S
H167 C176 0.930 . S
H168 C181 0.929 . S
H169 C179 0.929 . S
H170 C174 0.929 . S
H171 C180 0.929 . S
C172 H166 0.930 . S
C172 C173 1.367 . S
C172 C180 1.378 . S
C173 C172 1.367 . S
C173 C181 1.433 . S
C174 H170 0.929 . S
C174 C176 1.378 . S
C174 C178 1.350 . S
C175 C178 1.463 . S
C175 C180 1.350 . S
C175 N183 1.427 . S
C176 H167 0.930 . S
C176 C174 1.378 . S
C176 C177 1.367 . S
C177 C176 1.367 . S
C177 C179 1.433 . S
C178 C174 1.350 . S
C178 C175 1.463 . S
C178 N182 1.427 . S
C179 H169 0.929 . S
C179 C177 1.433 . S
C179 N182 1.384 . S
C180 H171 0.929 . S
C180 C172 1.378 . S
C180 C175 1.350 . S
C181 H168 0.929 . S
C181 C173 1.433 . S
C181 N183 1.384 . S
N182 C178 1.427 . S
N182 C179 1.384 . S
N183 C175 1.427 . S
N183 C181 1.384 . S
H184 C190 0.930 . S
H185 C194 0.930 . S
H186 C199 0.929 . S
H187 C197 0.929 . S
H188 C192 0.929 . S
H189 C198 0.929 . S
C190 H184 0.930 . S
C190 C191 1.367 1_655 S
C190 C198 1.378 . S
C191 C190 1.367 1_455 S
C191 C199 1.433 . S
C192 H188 0.929 . S
C192 C194 1.378 . S
C192 C196 1.350 1_455 S
C193 C196 1.463 1_455 S
C193 C198 1.350 1_455 S
C193 N201 1.427 . S
C194 H185 0.930 . S
C194 C192 1.378 . S
C194 C195 1.367 1_455 S
C195 C194 1.367 1_655 S
C195 C197 1.433 . S
C196 C192 1.350 1_655 S
C196 C193 1.463 1_655 S
C196 N200 1.427 . S
C197 H187 0.929 . S
C197 C195 1.433 . S
C197 N200 1.384 . S
C198 H189 0.929 . S
C198 C190 1.378 . S
C198 C193 1.350 1_655 S
C199 H186 0.929 . S
C199 C191 1.433 . S
C199 N201 1.384 . S
N200 C196 1.427 . S
N200 C197 1.384 . S
N201 C193 1.427 . S
N201 C199 1.384 . S
H202 C208 0.930 . S
H203 C212 0.930 . S
H204 C217 0.929 . S
H205 C215 0.929 . S
H206 C210 0.929 . S
H207 C216 0.929 . S
C208 H202 0.930 . S
C208 C209 1.367 . S
C208 C216 1.378 . S
C209 C208 1.367 . S
C209 C217 1.433 1_455 S
C210 H206 0.929 . S
C210 C212 1.378 . S
C210 C214 1.350 . S
C211 C214 1.463 1_455 S
C211 C216 1.350 . S
C211 N219 1.427 1_455 S
C212 H203 0.930 . S
C212 C210 1.378 . S
C212 C213 1.367 . S
C213 C212 1.367 . S
C213 C215 1.433 1_655 S
C214 C210 1.350 . S
C214 C211 1.463 1_655 S
C214 N218 1.427 1_655 S
C215 H205 0.929 . S
C215 C213 1.433 1_455 S
C215 N218 1.384 . S
C216 H207 0.929 . S
C216 C208 1.378 . S
C216 C211 1.350 . S
C217 H204 0.929 . S
C217 C209 1.433 1_655 S
C217 N219 1.384 . S
N218 C214 1.427 1_455 S
N218 C215 1.384 . S
N219 C211 1.427 1_655 S
N219 C217 1.384 . S
H220 C226 0.930 . S
H221 C230 0.930 . S
H222 C235 0.929 . S
H223 C233 0.929 . S
H224 C228 0.929 . S
H225 C234 0.929 . S
C226 H220 0.930 . S
C226 C227 1.367 . S
C226 C234 1.378 . S
C227 C226 1.367 . S
C227 C235 1.433 1_455 S
C228 H224 0.929 . S
C228 C230 1.378 . S
C228 C232 1.350 . S
C229 C232 1.463 1_455 S
C229 C234 1.350 . S
C229 N237 1.427 1_455 S
C230 H221 0.930 . S
C230 C228 1.378 . S
C230 C231 1.367 . S
C231 C230 1.367 . S
C231 C233 1.433 1_655 S
C232 C228 1.350 . S
C232 C229 1.463 1_655 S
C232 N236 1.427 1_655 S
C233 H223 0.929 . S
C233 C231 1.433 1_455 S
C233 N236 1.384 . S
C234 H225 0.929 . S
C234 C226 1.378 . S
C234 C229 1.350 . S
C235 H222 0.929 . S
C235 C227 1.433 1_655 S
C235 N237 1.384 . S
N236 C232 1.427 1_455 S
N236 C233 1.384 . S
N237 C229 1.427 1_655 S
N237 C235 1.384 . S
H238 C244 0.930 . S
H239 C248 0.930 . S
H240 C253 0.929 . S
H241 C251 0.929 . S
H242 C246 0.929 . S
H243 C252 0.929 . S
C244 H238 0.930 . S
C244 C245 1.367 1_655 S
C244 C252 1.378 . S
C245 C244 1.367 1_455 S
C245 C253 1.433 . S
C246 H242 0.929 . S
C246 C248 1.378 . S
C246 C250 1.350 1_455 S
C247 C250 1.463 1_455 S
C247 C252 1.350 1_455 S
C247 N255 1.427 . S
C248 H239 0.930 . S
C248 C246 1.378 . S
C248 C249 1.367 1_455 S
C249 C248 1.367 1_655 S
C249 C251 1.433 . S
C250 C246 1.350 1_655 S
C250 C247 1.463 1_655 S
C250 N254 1.427 . S
C251 H241 0.929 . S
C251 C249 1.433 . S
C251 N254 1.384 . S
C252 H243 0.929 . S
C252 C244 1.378 . S
C252 C247 1.350 1_655 S
C253 H240 0.929 . S
C253 C245 1.433 . S
C253 N255 1.384 . S
N254 C250 1.427 . S
N254 C251 1.384 . S
N255 C247 1.427 . S
N255 C253 1.384 . S
H256 C262 0.930 . S
H257 C266 0.930 . S
H258 C271 0.929 . S
H259 C269 0.929 . S
H260 C264 0.929 . S
H261 C270 0.929 . S
C262 H256 0.930 . S
C262 C263 1.367 . S
C262 C270 1.378 . S
C263 C262 1.367 . S
C263 C271 1.433 . S
C264 H260 0.929 . S
C264 C266 1.378 . S
C264 C268 1.350 . S
C265 C268 1.463 . S
C265 C270 1.350 . S
C265 N273 1.427 . S
C266 H257 0.930 . S
C266 C264 1.378 . S
C266 C267 1.367 . S
C267 C266 1.367 . S
C267 C269 1.433 . S
C268 C264 1.350 . S
C268 C265 1.463 . S
C268 N272 1.427 . S
C269 H259 0.929 . S
C269 C267 1.433 . S
C269 N272 1.384 . S
C270 H261 0.929 . S
C270 C262 1.378 . S
C270 C265 1.350 . S
C271 H258 0.929 . S
C271 C263 1.433 . S
C271 N273 1.384 . S
N272 C268 1.427 . S
N272 C269 1.384 . S
N273 C265 1.427 . S
N273 C271 1.384 . S
H274 C280 0.930 . S
H275 C284 0.930 . S
H276 C289 0.929 . S
H277 C287 0.929 . S
H278 C282 0.929 . S
H279 C288 0.929 . S
C280 H274 0.930 . S
C280 C281 1.367 . S
C280 C288 1.378 . S
C281 C280 1.367 . S
C281 C289 1.433 . S
C282 H278 0.929 . S
C282 C284 1.378 . S
C282 C286 1.350 . S
C283 C286 1.463 . S
C283 C288 1.350 . S
C283 N291 1.427 . S
C284 H275 0.930 . S
C284 C282 1.378 . S
C284 C285 1.367 . S
C285 C284 1.367 . S
C285 C287 1.433 . S
C286 C282 1.350 . S
C286 C283 1.463 . S
C286 N290 1.427 . S
C287 H277 0.929 . S
C287 C285 1.433 . S
C287 N290 1.384 . S
C288 H279 0.929 . S
C288 C280 1.378 . S
C288 C283 1.350 . S
C289 H276 0.929 . S
C289 C281 1.433 . S
C289 N291 1.384 . S
N290 C286 1.427 . S
N290 C287 1.384 . S
N291 C283 1.427 . S
N291 C289 1.384 . S
H292 C298 0.930 . S
H293 C302 0.930 . S
H294 C307 0.929 . S
H295 C305 0.929 . S
H296 C300 0.929 . S
H297 C306 0.929 . S
C298 H292 0.930 . S
C298 C299 1.367 . S
C298 C306 1.378 . S
C299 C298 1.367 . S
C299 C307 1.433 . S
C300 H296 0.929 . S
C300 C302 1.378 . S
C300 C304 1.350 . S
C301 C304 1.463 . S
C301 C306 1.350 . S
C301 N309 1.427 . S
C302 H293 0.930 . S
C302 C300 1.378 . S
C302 C303 1.367 . S
C303 C302 1.367 . S
C303 C305 1.433 . S
C304 C300 1.350 . S
C304 C301 1.463 . S
C304 N308 1.427 . S
C305 H295 0.929 . S
C305 C303 1.433 . S
C305 N308 1.384 . S
C306 H297 0.929 . S
C306 C298 1.378 . S
C306 C301 1.350 . S
C307 H294 0.929 . S
C307 C299 1.433 . S
C307 N309 1.384 . S
N308 C304 1.427 . S
N308 C305 1.384 . S
N309 C301 1.427 . S
N309 C307 1.384 . S
H310 C316 0.930 . S
H311 C320 0.930 . S
H312 C325 0.929 . S
H313 C323 0.929 . S
H314 C318 0.929 . S
H315 C324 0.929 . S
C316 H310 0.930 . S
C316 C317 1.367 . S
C316 C324 1.378 . S
C317 C316 1.367 . S
C317 C325 1.433 . S
C318 H314 0.929 . S
C318 C320 1.378 . S
C318 C322 1.350 . S
C319 C322 1.463 . S
C319 C324 1.350 . S
C319 N327 1.427 . S
C320 H311 0.930 . S
C320 C318 1.378 . S
C320 C321 1.367 . S
C321 C320 1.367 . S
C321 C323 1.433 . S
C322 C318 1.350 . S
C322 C319 1.463 . S
C322 N326 1.427 . S
C323 H313 0.929 . S
C323 C321 1.433 . S
C323 N326 1.384 . S
C324 H315 0.929 . S
C324 C316 1.378 . S
C324 C319 1.350 . S
C325 H312 0.929 . S
C325 C317 1.433 . S
C325 N327 1.384 . S
N326 C322 1.427 . S
N326 C323 1.384 . S
N327 C319 1.427 . S
N327 C325 1.384 . S
H328 C334 0.930 . S
H329 C338 0.930 . S
H330 C343 0.929 . S
H331 C341 0.929 . S
H332 C336 0.929 . S
H333 C342 0.929 . S
C334 H328 0.930 . S
C334 C335 1.367 . S
C334 C342 1.378 . S
C335 C334 1.367 . S
C335 C343 1.433 1_554 S
C336 H332 0.929 . S
C336 C338 1.378 . S
C336 C340 1.350 1_556 S
C337 C340 1.463 . S
C337 C342 1.350 . S
C337 N345 1.427 1_554 S
C338 H329 0.930 . S
C338 C336 1.378 . S
C338 C339 1.367 1_556 S
C339 C338 1.367 1_554 S
C339 C341 1.433 . S
C340 C336 1.350 1_554 S
C340 C337 1.463 . S
C340 N344 1.427 . S
C341 H331 0.929 . S
C341 C339 1.433 . S
C341 N344 1.384 . S
C342 H333 0.929 . S
C342 C334 1.378 . S
C342 C337 1.350 . S
C343 H330 0.929 . S
C343 C335 1.433 1_556 S
C343 N345 1.384 . S
N344 C340 1.427 . S
N344 C341 1.384 . S
N345 C337 1.427 1_556 S
N345 C343 1.384 . S
H346 C352 0.946 . S
H347 C356 0.930 . S
H348 C361 0.929 . S
H349 C359 0.929 . S
H350 C354 0.929 . S
H351 C360 0.945 . S
C352 H346 0.946 . S
C352 C353 1.351 1_556 S
C352 C360 1.378 . S
C353 C352 1.351 1_554 S
C353 C361 1.433 . S
C354 H350 0.929 . S
C354 C356 1.378 . S
C354 C358 1.350 . S
C355 C358 1.463 . S
C355 C360 1.334 1_554 S
C355 N363 1.427 . S
C356 H347 0.930 . S
C356 C354 1.378 . S
C356 C357 1.367 . S
C357 C356 1.367 . S
C357 C359 1.433 1_554 S
C358 C354 1.350 . S
C358 C355 1.463 . S
C358 N362 1.427 1_554 S
C359 H349 0.929 . S
C359 C357 1.433 1_556 S
C359 N362 1.384 . S
C360 H351 0.945 . S
C360 C352 1.378 . S
C360 C355 1.334 1_556 S
C361 H348 0.929 . S
C361 C353 1.433 . S
C361 N363 1.384 . S
N362 C358 1.427 1_556 S
N362 C359 1.384 . S
N363 C355 1.427 . S
N363 C361 1.384 . S
H364 C370 0.930 . S
H365 C374 0.930 . S
H366 C379 0.929 . S
H367 C377 0.929 . S
H368 C372 0.929 . S
H369 C378 0.929 . S
C370 H364 0.930 . S
C370 C371 1.367 . S
C370 C378 1.378 . S
C371 C370 1.367 . S
C371 C379 1.433 . S
C372 H368 0.929 . S
C372 C374 1.378 . S
C372 C376 1.350 . S
C373 C376 1.463 . S
C373 C378 1.350 . S
C373 N381 1.427 . S
C374 H365 0.930 . S
C374 C372 1.378 . S
C374 C375 1.367 . S
C375 C374 1.367 . S
C375 C377 1.433 . S
C376 C372 1.350 . S
C376 C373 1.463 . S
C376 N380 1.427 . S
C377 H367 0.929 . S
C377 C375 1.433 . S
C377 N380 1.384 . S
C378 H369 0.929 . S
C378 C370 1.378 . S
C378 C373 1.350 . S
C379 H366 0.929 . S
C379 C371 1.433 . S
C379 N381 1.384 . S
N380 C376 1.427 . S
N380 C377 1.384 . S
N381 C373 1.427 . S
N381 C379 1.384 . S
H382 C388 0.930 . S
H383 C392 0.930 . S
H384 C397 0.929 . S
H385 C395 0.929 . S
H386 C390 0.929 . S
H387 C396 0.929 . S
C388 H382 0.930 . S
C388 C389 1.367 . S
C388 C396 1.378 . S
C389 C388 1.367 . S
C389 C397 1.433 . S
C390 H386 0.929 . S
C390 C392 1.378 . S
C390 C394 1.350 . S
C391 C394 1.463 . S
C391 C396 1.350 . S
C391 N399 1.427 . S
C392 H383 0.930 . S
C392 C390 1.378 . S
C392 C393 1.367 . S
C393 C392 1.367 . S
C393 C395 1.433 . S
C394 C390 1.350 . S
C394 C391 1.463 . S
C394 N398 1.427 . S
C395 H385 0.929 . S
C395 C393 1.433 . S
C395 N398 1.384 . S
C396 H387 0.929 . S
C396 C388 1.378 . S
C396 C391 1.350 . S
C397 H384 0.929 . S
C397 C389 1.433 . S
C397 N399 1.384 . S
N398 C394 1.427 . S
N398 C395 1.384 . S
N399 C391 1.427 . S
N399 C397 1.384 . S
C119 C23 1.481 . S
C123 C9 1.488 . S
C137 C37 1.480 . S
C141 C51 1.480 . S
C155 C65 1.483 . S
C159 C79 1.479 . S
C173 C93 1.479 . S
C177 C107 1.481 . S
C191 C8 1.307 . S
C195 C50 1.306 . S
C209 C36 1.293 . S
C213 C22 1.295 . S
C227 C35 1.451 . S
C231 C21 1.448 . S
C245 C7 1.446 . S
C249 C49 1.448 . S
C263 C64 1.306 . S
C267 C106 1.301 . S
C281 C92 1.296 . S
C285 C78 1.302 . S
C299 C77 1.450 . S
C303 C91 1.448 . S
C317 C63 1.446 . S
C321 C105 1.447 . S
C335 C76 1.522 . S
C339 C6 1.524 . S
C353 C62 1.524 . S
C357 C20 1.522 . S
C371 C34 1.519 . S
C375 C104 1.517 . S
C389 C90 1.525 . S
C393 C48 1.524 . S
