# Generated by pormake.
# Topology smu, (6)-cn, num edge types: 1
# Building blocks:
#     Node 0, Type 0, BuildingBlock: BETGAK_clean_sbu_0, # of connection points: 6
#     Node 1, Type 0, BuildingBlock: BETGAK_clean_sbu_0, # of connection points: 6
#     Node 2, Type 0, BuildingBlock: BETGAK_clean_sbu_0, # of connection points: 6
#     Node 3, Type 0, BuildingBlock: BETGAK_clean_sbu_0, # of connection points: 6
#     Node 4, Type 0, BuildingBlock: BETGAK_clean_sbu_0, # of connection points: 6
#     Node 5, Type 0, BuildingBlock: BETGAK_clean_sbu_0, # of connection points: 6
#     Edge 6, Type (0, 0), BuildingBlock: ZUJKAS_clean_linker_0, # of connection points: 2
#     Edge 7, Type (0, 0), BuildingBlock: ZUJKAS_clean_linker_0, # of connection points: 2
#     Edge 8, Type (0, 0), BuildingBlock: ZUJKAS_clean_linker_0, # of connection points: 2
#     Edge 9, Type (0, 0), BuildingBlock: ZUJKAS_clean_linker_0, # of connection points: 2
#     Edge 10, Type (0, 0), BuildingBlock: ZUJKAS_clean_linker_0, # of connection points: 2
#     Edge 11, Type (0, 0), BuildingBlock: ZUJKAS_clean_linker_0, # of connection points: 2
#     Edge 12, Type (0, 0), BuildingBlock: ZUJKAS_clean_linker_0, # of connection points: 2
#     Edge 13, Type (0, 0), BuildingBlock: ZUJKAS_clean_linker_0, # of connection points: 2
#     Edge 14, Type (0, 0), BuildingBlock: ZUJKAS_clean_linker_0, # of connection points: 2
#     Edge 15, Type (0, 0), BuildingBlock: ZUJKAS_clean_linker_0, # of connection points: 2
#     Edge 16, Type (0, 0), BuildingBlock: ZUJKAS_clean_linker_0, # of connection points: 2
#     Edge 17, Type (0, 0), BuildingBlock: ZUJKAS_clean_linker_0, # of connection points: 2
#     Edge 18, Type (0, 0), BuildingBlock: ZUJKAS_clean_linker_0, # of connection points: 2
#     Edge 19, Type (0, 0), BuildingBlock: ZUJKAS_clean_linker_0, # of connection points: 2
#     Edge 20, Type (0, 0), BuildingBlock: ZUJKAS_clean_linker_0, # of connection points: 2
#     Edge 21, Type (0, 0), BuildingBlock: ZUJKAS_clean_linker_0, # of connection points: 2
#     Edge 22, Type (0, 0), BuildingBlock: ZUJKAS_clean_linker_0, # of connection points: 2
#     Edge 23, Type (0, 0), BuildingBlock: ZUJKAS_clean_linker_0, # of connection points: 2
# Relax obj value: 0.209
# Max RMSD: 0.297
# Mean RMSD: 0.297
data_MOF--net-smu--node1-BETGAK_clean_sbu_0--edge1-ZUJKAS_clean_linker_0
_symmetry_space_group_name_H-M    P1
_symmetry_Int_Tables_number       1
_symmetry_cell_setting            triclinic
loop_
_symmetry_equiv_pos_as_xyz
'x, y, z'
_cell_length_a     47.53791
_cell_length_b     47.43108
_cell_length_c     34.743069
_cell_angle_alpha  89.841641
_cell_angle_beta   90.058152
_cell_angle_gamma 119.9933
loop_
_atom_site_label
_atom_site_type_symbol
_atom_site_fract_x
_atom_site_fract_y
_atom_site_fract_z
_atom_type_partial_charge
La0 La 0.39347 0.09891 0.28756 0.0
La1 La 0.35215 0.12864 0.30254 0.0
C2 C 0.43639 0.08423 0.27051 0.0
C3 C 0.47162 0.10067 0.26192 0.0
C4 C 0.4886 0.08436 0.27076 0.0
C5 C 0.52255 0.10044 0.2687 0.0
C6 C 0.54057 0.13345 0.25782 0.0
C7 C 0.52336 0.14957 0.24794 0.0
C8 C 0.48923 0.13331 0.24994 0.0
C9 C 0.36889 0.08831 0.35791 0.0
C10 C 0.42761 0.17559 0.30045 0.0
C11 C 0.32325 0.1583 0.32422 0.0
C12 C 0.29528 0.1627 0.31422 0.0
C13 C 0.29533 0.17895 0.28022 0.0
C14 C 0.27157 0.18762 0.27384 0.0
C15 C 0.24697 0.18019 0.30117 0.0
C16 C 0.24618 0.1627 0.33441 0.0
C17 C 0.27014 0.15424 0.34093 0.0
C18 C 0.35255 0.11257 0.22917 0.0
C19 C 0.31797 0.05397 0.2892 0.0
O20 O 0.42945 0.0887 0.30548 0.0
O21 O 0.41661 0.0856 0.24515 0.0
O22 O 0.37199 0.06755 0.33711 0.0
O23 O 0.37993 0.11505 0.3396 0.0
O24 O 0.43072 0.15095 0.28811 0.0
O25 O 0.39935 0.17127 0.31168 0.0
O26 O 0.34743 0.17 0.29977 0.0
O27 O 0.31748 0.13041 0.33908 0.0
O28 O 0.32865 0.11284 0.24633 0.0
O29 O 0.37633 0.12401 0.25221 0.0
O30 O 0.31749 0.07721 0.3097 0.0
O31 O 0.3449 0.0586 0.27166 0.0
H32 H 0.4756 0.05932 0.28066 0.0
H33 H 0.53469 0.08724 0.27716 0.0
H34 H 0.53626 0.17483 0.23897 0.0
H35 H 0.47666 0.14641 0.24303 0.0
H36 H 0.31444 0.18613 0.25905 0.0
H37 H 0.2734 0.2014 0.24815 0.0
H38 H 0.22732 0.15596 0.35581 0.0
H39 H 0.26957 0.14193 0.36748 0.0
La40 La 0.75395 0.66812 0.28815 0.0
La41 La 0.8249 0.71083 0.304 0.0
C42 C 0.69717 0.62454 0.26911 0.0
C43 C 0.67941 0.58923 0.26051 0.0
C44 C 0.64587 0.57144 0.26741 0.0
C45 C 0.62887 0.53739 0.26549 0.0
C46 C 0.64505 0.52012 0.25683 0.0
C47 C 0.67863 0.53813 0.2488 0.0
C48 C 0.6956 0.57234 0.25049 0.0
C49 C 0.76722 0.6921 0.35866 0.0
C50 C 0.7976 0.63534 0.30164 0.0
C51 C 0.88332 0.74048 0.32607 0.0
C52 C 0.91552 0.76843 0.31539 0.0
C53 C 0.93159 0.76759 0.28177 0.0
C54 C 0.9639 0.79136 0.27485 0.0
C55 C 0.98108 0.81678 0.30122 0.0
C56 C 0.96449 0.81837 0.33403 0.0
C57 C 0.93218 0.79437 0.34112 0.0
C58 C 0.80861 0.71043 0.2306 0.0
C59 C 0.78316 0.74359 0.2904 0.0
O60 O 0.70747 0.63165 0.30452 0.0
O61 O 0.71885 0.64466 0.2444 0.0
O62 O 0.7431 0.68844 0.33791 0.0
O63 O 0.78345 0.68185 0.3403 0.0
O64 O 0.7694 0.63143 0.28996 0.0
O65 O 0.82132 0.66396 0.31238 0.0
O66 O 0.87096 0.71577 0.3024 0.0
O67 O 0.86111 0.74632 0.34018 0.0
O68 O 0.83248 0.73459 0.24786 0.0
O69 O 0.7966 0.68654 0.25359 0.0
O70 O 0.80696 0.7445 0.31121 0.0
O71 O 0.76137 0.71654 0.27258 0.0
H72 H 0.63292 0.58388 0.27571 0.0
H73 H 0.60322 0.52456 0.27238 0.0
H74 H 0.69187 0.52578 0.24156 0.0
H75 H 0.72145 0.58555 0.2449 0.0
H76 H 0.91969 0.74787 0.26133 0.0
H77 H 0.97576 0.78889 0.24955 0.0
H78 H 0.97662 0.83787 0.35468 0.0
H79 H 0.92053 0.79557 0.36736 0.0
La80 La 0.96185 0.30679 0.2847 0.0
La81 La 0.93534 0.23674 0.30298 0.0
C82 C 0.97227 0.36272 0.26526 0.0
C83 C 0.95265 0.37827 0.25608 0.0
C84 C 0.9672 0.40853 0.2373 0.0
C85 C 0.95111 0.42651 0.23488 0.0
C86 C 0.92004 0.41457 0.25121 0.0
C87 C 0.90493 0.38352 0.26839 0.0
C88 C 0.9211 0.3657 0.27098 0.0
C89 C 0.97362 0.29617 0.35627 0.0
C90 C 0.8858 0.26183 0.29856 0.0
C91 C 0.90779 0.17856 0.32639 0.0
C92 C 0.90353 0.14643 0.31555 0.0
C93 C 0.88865 0.13151 0.28057 0.0
C94 C 0.87969 0.09909 0.27335 0.0
C95 C 0.88559 0.08074 0.30073 0.0
C96 C 0.90202 0.09629 0.33488 0.0
C97 C 0.91068 0.12868 0.34228 0.0
C98 C 0.95012 0.25143 0.22886 0.0
C99 C 1.00947 0.27968 0.28884 0.0
O100 O 0.9695 0.35245 0.3007 0.0
O101 O 0.97271 0.34195 0.24074 0.0
O102 O 0.99319 0.31999 0.33445 0.0
O103 O 0.94715 0.2786 0.33826 0.0
O104 O 0.90939 0.28917 0.28395 0.0
O105 O 0.89168 0.23952 0.31246 0.0
O106 O 0.89441 0.19044 0.30347 0.0
O107 O 0.93622 0.20115 0.33913 0.0
O108 O 0.95133 0.22839 0.24716 0.0
O109 O 0.93801 0.26345 0.2513 0.0
O110 O 0.98714 0.25625 0.31064 0.0
O111 O 1.0034 0.30042 0.26964 0.0
H112 H 0.99162 0.41894 0.22594 0.0
H113 H 0.96334 0.45012 0.22096 0.0
H114 H 0.88126 0.37364 0.28171 0.0
H115 H 0.90952 0.34286 0.28647 0.0
H116 H 0.88266 0.14439 0.25927 0.0
H117 H 0.8668 0.08808 0.24693 0.0
H118 H 0.90767 0.08327 0.35634 0.0
H119 H 0.92203 0.13951 0.36949 0.0
La120 La 0.13124 0.33155 0.80735 0.0
La121 La 0.10787 0.38073 0.78461 0.0
C122 C 0.15776 0.30099 0.83425 0.0
C123 C 0.16409 0.2741 0.82508 0.0
C124 C 0.18026 0.27435 0.79105 0.0
C125 C 0.19109 0.25206 0.78581 0.0
C126 C 0.18594 0.22882 0.81436 0.0
C127 C 0.1683 0.22764 0.84752 0.0
C128 C 0.15768 0.25011 0.85287 0.0
C129 C 0.1123 0.32841 0.73459 0.0
C130 C 0.05795 0.30712 0.80368 0.0
C131 C 0.09679 0.42043 0.74848 0.0
C132 C 0.10812 0.45587 0.75262 0.0
C133 C 0.09559 0.46751 0.78125 0.0
C134 C 0.10708 0.501 0.78512 0.0
C135 C 0.13142 0.52385 0.76049 0.0
C136 C 0.1437 0.51206 0.7317 0.0
C137 C 0.13213 0.47861 0.72774 0.0
C138 C 0.10869 0.37438 0.86148 0.0
C139 C 0.18243 0.40817 0.80246 0.0
O140 O 0.17256 0.3271 0.81273 0.0
O141 O 0.12807 0.29382 0.84312 0.0
O142 O 0.1119 0.30465 0.75339 0.0
O143 O 0.12641 0.35354 0.75534 0.0
O144 O 0.08087 0.30656 0.82483 0.0
O145 O 0.06429 0.33182 0.77995 0.0
O146 O 0.0774 0.40051 0.77508 0.0
O147 O 0.11886 0.41309 0.73825 0.0
O148 O 0.10031 0.39308 0.84365 0.0
O149 O 0.11803 0.36254 0.83544 0.0
O150 O 0.16007 0.41446 0.78899 0.0
O151 O 0.17547 0.37877 0.81406 0.0
H152 H 0.18572 0.2926 0.76904 0.0
H153 H 0.20477 0.25405 0.76005 0.0
H154 H 0.16317 0.20969 0.8698 0.0
H155 H 0.14539 0.24942 0.8794 0.0
H156 H 0.07692 0.45079 0.8008 0.0
H157 H 0.09655 0.50892 0.80724 0.0
H158 H 0.16272 0.5287 0.71246 0.0
H159 H 0.14227 0.47055 0.70528 0.0
La160 La 0.24301 0.93092 0.80918 0.0
La161 La 0.31326 0.9454 0.78726 0.0
C162 C 0.1899 0.91509 0.84262 0.0
C163 C 0.15461 0.89695 0.83494 0.0
C164 C 0.14098 0.87363 0.80556 0.0
C165 C 0.10732 0.85733 0.7988 0.0
C166 C 0.08671 0.86408 0.8213 0.0
C167 C 0.10075 0.88767 0.8505 0.0
C168 C 0.13423 0.90382 0.85721 0.0
C169 C 0.25929 0.9474 0.73599 0.0
C170 C 0.29884 1.00143 0.80415 0.0
C171 C 0.36162 0.94922 0.75217 0.0
C172 C 0.38339 0.93573 0.75919 0.0
C173 C 0.37373 0.90848 0.78316 0.0
C174 C 0.39383 0.89493 0.78825 0.0
C175 C 0.42421 0.90842 0.76968 0.0
C176 C 0.43394 0.93603 0.74612 0.0
C177 C 0.41372 0.94945 0.74089 0.0
C178 C 0.30683 0.94753 0.86398 0.0
C179 C 0.25571 0.87172 0.79638 0.0
O180 O 0.20492 0.89832 0.84518 0.0
O181 O 0.20678 0.94216 0.82326 0.0
O182 O 0.23612 0.94895 0.75364 0.0
O183 O 0.26877 0.93238 0.75775 0.0
O184 O 0.27589 0.98037 0.8274 0.0
O185 O 0.31401 0.99198 0.77961 0.0
O186 O 0.36368 0.97136 0.77634 0.0
O187 O 0.33137 0.92786 0.74416 0.0
O188 O 0.33292 0.95233 0.84648 0.0
O189 O 0.28597 0.93997 0.83778 0.0
O190 O 0.28743 0.89226 0.79336 0.0
O191 O 0.23419 0.88157 0.80034 0.0
H192 H 0.15632 0.86806 0.78787 0.0
H193 H 0.09742 0.83922 0.77624 0.0
H194 H 0.08594 0.89412 0.8679 0.0
H195 H 0.14428 0.92194 0.87978 0.0
H196 H 0.35049 0.89749 0.79776 0.0
H197 H 0.38566 0.87401 0.80702 0.0
H198 H 0.45694 0.94692 0.73102 0.0
H199 H 0.42165 0.97038 0.72216 0.0
La200 La 0.72506 0.81022 0.80826 0.0
La201 La 0.67735 0.74145 0.78688 0.0
C202 C 0.75701 0.86664 0.83707 0.0
C203 C 0.78439 0.89957 0.82775 0.0
C204 C 0.78432 0.91582 0.79384 0.0
C205 C 0.80704 0.94881 0.78845 0.0
C206 C 0.83067 0.96644 0.81664 0.0
C207 C 0.83169 0.9496 0.84966 0.0
C208 C 0.8087 0.91663 0.85522 0.0
C209 C 0.72956 0.79704 0.7349 0.0
C210 C 0.7501 0.76204 0.798 0.0
C211 C 0.63184 0.69107 0.75509 0.0
C212 C 0.59621 0.67101 0.76017 0.0
C213 C 0.58081 0.67328 0.79355 0.0
C214 C 0.54702 0.65387 0.79793 0.0
C215 C 0.52782 0.6318 0.76896 0.0
C216 C 0.5435 0.62999 0.7354 0.0
C217 C 0.57725 0.64934 0.73112 0.0
C218 C 0.69326 0.74774 0.86041 0.0
C219 C 0.65037 0.78915 0.80323 0.0
O220 O 0.73093 0.85644 0.81611 0.0
O221 O 0.7632 0.84322 0.84467 0.0
O222 O 0.75299 0.81956 0.75467 0.0
O223 O 0.70407 0.78563 0.75507 0.0
O224 O 0.75136 0.78489 0.82084 0.0
O225 O 0.72459 0.74473 0.77529 0.0
O226 O 0.64978 0.69038 0.78312 0.0
O227 O 0.64274 0.72067 0.74243 0.0
O228 O 0.68471 0.72206 0.83982 0.0
O229 O 0.68983 0.76854 0.84075 0.0
O230 O 0.64312 0.75848 0.79992 0.0
O231 O 0.68074 0.81295 0.80548 0.0
H232 H 0.76587 0.90346 0.77205 0.0
H233 H 0.80505 0.96075 0.76284 0.0
H234 H 0.84989 0.96201 0.87166 0.0
H235 H 0.80926 0.90475 0.88166 0.0
H236 H 0.59495 0.68992 0.81634 0.0
H237 H 0.53604 0.65581 0.82434 0.0
H238 H 0.52966 0.61385 0.71212 0.0
H239 H 0.58857 0.64736 0.705 0.0
H240 H 0.35537 0.9677 0.91575 0.0
H241 H 0.36096 0.99398 0.97771 0.0
H242 H 0.26536 0.98188 0.96478 0.0
H243 H 0.25956 0.95524 0.90201 0.0
H244 H 0.35837 0.05221 0.98936 0.0
H245 H 0.26567 0.94898 0.07638 0.0
H246 H 0.28174 0.94293 1.03203 0.0
H247 H 0.2525 0.95631 1.03076 0.0
C248 C 0.33523 0.97015 0.9262 0.0
C249 C 0.30699 0.95931 0.9038 0.0
C250 C 0.33857 0.98536 0.9617 0.0
C251 C 0.31366 0.98999 0.97619 0.0
C252 C 0.28486 0.97835 0.9545 0.0
H253 H 0.29756 0.07969 0.18717 0.0
H254 H 0.28934 0.05124 0.12632 0.0
C255 C 0.28153 0.96311 0.9186 0.0
C256 C 0.31892 1.00827 1.0131 0.0
H257 H 0.2937 1.00014 0.10675 0.0
C258 C 0.34419 0.04083 1.01503 0.0
C259 C 0.30052 0.99354 0.04669 0.0
C260 C 0.2737 0.95845 0.04675 0.0
C261 C 0.35124 0.05913 0.04924 0.0
C262 C 0.33317 0.04428 0.08312 0.0
C263 C 0.30779 1.01167 0.08107 0.0
C264 C 0.33915 0.06234 0.12049 0.0
C265 C 0.3774 0.0945 0.04828 0.0
C266 C 0.37 0.07829 0.13823 0.0
C267 C 0.37492 0.09512 0.17324 0.0
C268 C 0.34898 0.09593 0.19156 0.0
C269 C 0.31821 0.07976 0.17389 0.0
C270 C 0.31337 0.06324 0.13901 0.0
H271 H 0.38214 0.1044 1.01849 0.0
H272 H 0.37072 0.10956 0.06631 0.0
H273 H 0.40033 0.0969 0.0596 0.0
H274 H 0.39027 0.07751 0.12521 0.0
H275 H 0.39893 0.10747 0.18587 0.0
H276 H 0.68972 0.73848 0.69892 0.0
H277 H 0.69957 0.71844 0.63852 0.0
H278 H 0.78962 0.8089 0.62435 0.0
H279 H 0.78031 0.82825 0.6855 0.0
H280 H 0.70359 0.7362 0.56845 0.0
H281 H 0.82264 0.74889 0.60292 0.0
H282 H 0.79802 0.75367 0.63889 0.0
H283 H 0.82415 0.7872 0.60786 0.0
C284 C 0.71148 0.7541 0.68292 0.0
C285 C 0.73404 0.78502 0.69707 0.0
C286 C 0.71729 0.74256 0.64834 0.0
C287 C 0.74579 0.76174 0.62686 0.0
C288 C 0.76801 0.79297 0.64067 0.0
H289 H 0.7576 0.74041 0.38219 0.0
H290 H 0.7552 0.75706 0.44777 0.0
C291 C 0.76241 0.80425 0.67552 0.0
C292 C 0.75141 0.74979 0.5892 0.0
H293 H 0.80848 0.74331 0.53558 0.0
C294 C 0.72647 0.73751 0.5616 0.0
C295 C 0.78093 0.75059 0.58003 0.0
C296 C 0.80777 0.76044 0.60919 0.0
C297 C 0.73052 0.72727 0.52507 0.0
C298 C 0.76089 0.73048 0.51481 0.0
C299 C 0.78543 0.74145 0.54287 0.0
C300 C 0.76758 0.72352 0.47477 0.0
C301 C 0.70182 0.71268 0.49803 0.0
C302 C 0.7781 0.701 0.46745 0.0
C303 C 0.7807 0.69222 0.42937 0.0
C304 C 0.77256 0.7057 0.39817 0.0
C305 C 0.76402 0.72958 0.40562 0.0
C306 C 0.76215 0.73878 0.44326 0.0
H307 H 0.67849 0.70158 0.51411 0.0
H308 H 0.70273 0.73216 0.4794 0.0
H309 H 0.7019 0.69372 0.47942 0.0
H310 H 0.78287 0.68911 0.49117 0.0
H311 H 0.78702 0.67352 0.42449 0.0
H312 H 0.95215 0.30082 0.18376 0.0
H313 H 0.98146 0.32209 0.12245 0.0
H314 H 1.01313 0.25141 0.12672 0.0
H315 H 0.9847 0.2307 0.18775 0.0
H316 H 0.05178 0.34679 0.10747 0.0
H317 H 0.97133 0.23934 1.01791 0.0
H318 H 0.95851 0.24742 0.06348 0.0
H319 H 0.98506 0.23071 0.06229 0.0
C320 C 0.96555 0.29004 0.17172 0.0
C321 C 0.96622 0.26423 0.19088 0.0
C322 C 0.98218 0.30207 0.13658 0.0
C323 C 0.99931 0.28816 0.11965 0.0
C324 C 0.99977 0.2623 0.13874 0.0
H325 H 0.10537 0.32119 0.89991 0.0
H326 H 0.08147 0.3005 0.964 0.0
C327 C 0.98346 0.2505 0.17378 0.0
C328 C 1.01734 0.30084 0.08252 0.0
H329 H 1.01987 0.2798 0.98887 0.0
C330 C 0.04469 0.33221 0.08149 0.0
C331 C 1.00855 0.28166 0.0487 0.0
C332 C 0.97914 0.24798 0.04782 0.0
C333 C 0.06352 0.3448 0.0478 0.0
C334 C 0.05434 0.32591 1.01363 0.0
C335 C 1.02715 0.29436 1.01486 0.0
C336 C 0.07115 0.33926 0.97582 0.0
C337 C 0.09353 0.37805 0.04955 0.0
C338 C 0.07351 0.36789 0.9609 0.0
C339 C 0.08724 0.3797 0.92468 0.0
C340 C 0.09877 0.36313 0.90187 0.0
C341 C 0.09701 0.3347 0.91684 0.0
C342 C 0.08316 0.32279 0.95341 0.0
H343 H 0.10343 0.38399 0.07926 0.0
H344 H 0.11284 0.37979 1.03006 0.0
H345 H 0.08716 0.39667 1.04074 0.0
H346 H 0.06375 0.38071 0.97676 0.0
H347 H 0.08788 0.40149 0.91396 0.0
H348 H 0.3218 0.03008 0.38248 0.0
H349 H 0.30514 1.01132 0.44816 0.0
H350 H 0.37168 0.10772 0.49026 0.0
H351 H 0.38729 0.12703 0.42345 0.0
H352 H 0.34027 1.00664 0.50146 0.0
H353 H 0.29544 0.08636 0.55749 0.0
H354 H 0.30328 0.08463 0.50703 0.0
H355 H 0.33629 0.10817 0.53955 0.0
C356 C 0.3322 0.04761 0.40562 0.0
C357 C 0.35556 0.08015 0.39768 0.0
C358 C 0.32286 0.03674 0.44337 0.0
C359 C 0.33699 0.05788 0.4747 0.0
C360 C 0.35977 0.09086 0.46686 0.0
H361 H 0.3191 0.96548 0.70332 0.0
H362 H 0.34086 0.99421 0.64217 0.0
C363 C 0.36873 0.10199 0.42862 0.0
C364 C 0.32907 0.04424 0.51493 0.0
H365 H 0.29937 0.05075 0.60221 0.0
C366 C 0.33134 1.01639 0.52344 0.0
C367 C 0.31722 0.05662 0.5439 0.0
C368 C 0.31259 0.08539 0.53656 0.0
C369 C 0.32147 1.00022 0.5592 0.0
C370 C 0.30996 1.01277 0.58837 0.0
C371 C 0.30831 0.04105 0.58019 0.0
C372 C 0.29757 0.99589 0.62649 0.0
C373 C 0.32212 0.96895 0.56451 0.0
C374 C 0.26641 0.98799 0.63923 0.0
C375 C 0.25424 0.972 0.67445 0.0
C376 C 0.27266 0.96307 0.69794 0.0
C377 C 0.30392 0.9711 0.68551 0.0
C378 C 0.31637 0.9876 0.65039 0.0
H379 H 0.32252 0.95795 0.53646 0.0
H380 H 0.34442 0.97412 0.58046 0.0
H381 H 0.3007 0.9508 0.5811 0.0
H382 H 0.25126 0.99401 0.62173 0.0
H383 H 0.23016 0.9665 0.68327 0.0
H384 H 0.73399 0.80002 0.90715 0.0
H385 H 0.75291 0.79632 0.97236 0.0
H386 H 0.68826 0.69246 0.97191 0.0
H387 H 0.67003 0.69591 0.90754 0.0
H388 H 0.72056 0.76895 0.04559 0.0
H389 H 0.77776 0.70106 0.98714 0.0
H390 H 0.76458 0.72318 0.95675 0.0
H391 H 0.73568 0.68334 0.9745 0.0
C392 C 0.72342 0.7766 0.92142 0.0
C393 C 0.70067 0.74826 0.90209 0.0
C394 C 0.73435 0.77443 0.95856 0.0
C395 C 0.72261 0.74393 0.97675 0.0
C396 C 0.69835 0.71612 0.95828 0.0
H397 H 0.76074 0.66295 0.18464 0.0
H398 H 0.73867 0.67134 0.12413 0.0
C399 C 0.68776 0.71822 0.92145 0.0
C400 C 0.73621 0.74025 1.01409 0.0
H401 H 0.7725 0.70077 0.05528 0.0
C402 C 0.7322 0.75432 0.04766 0.0
C403 C 0.75133 0.72102 1.017 0.0
C404 C 0.75791 0.70652 0.98189 0.0
C405 C 0.74205 0.74894 0.084 0.0
C406 C 0.75668 0.72925 0.08691 0.0
C407 C 0.76096 0.7155 0.05328 0.0
C408 C 0.76907 0.72384 0.12423 0.0
C409 C 0.73595 0.76373 0.11915 0.0
C410 C 0.79378 0.75034 0.14419 0.0
C411 C 0.80634 0.74555 0.17844 0.0
C412 C 0.79458 0.71412 0.19384 0.0
C413 C 0.76998 0.68745 0.17383 0.0
C414 C 0.75747 0.69226 0.1392 0.0
H415 H 0.71677 0.77015 0.11386 0.0
H416 H 0.72863 0.74683 0.14412 0.0
H417 H 0.75862 0.78638 0.12689 0.0
H418 H 0.80374 0.77483 0.13299 0.0
H419 H 0.82533 0.76669 0.19301 0.0
H420 H 1.01989 0.3457 0.39739 0.0
H421 H 0.03638 0.34628 0.4637 0.0
H422 H 0.96174 0.24591 0.47695 0.0
H423 H 0.94458 0.2452 0.40944 0.0
H424 H 0.99757 0.33095 0.53443 0.0
H425 H 0.05056 0.25115 0.50885 0.0
H426 H 0.04308 0.27188 0.46993 0.0
H427 H 1.00972 0.23738 0.49259 0.0
C428 C 1.00665 0.32364 0.41426 0.0
C429 C 0.98083 0.29534 0.39793 0.0
C430 C 1.01619 0.32411 0.45238 0.0
C431 C 1.00057 0.29619 0.47543 0.0
C432 C 0.97436 0.26777 0.45964 0.0
H433 H 0.06724 0.27162 0.70215 0.0
H434 H 0.03797 0.2631 0.64159 0.0
C435 C 0.96442 0.26739 0.42117 0.0
C436 C 1.01278 0.2975 0.5155 0.0
H437 H 0.05832 0.27492 0.56992 0.0
C438 C 1.01053 0.31839 0.54238 0.0
C439 C 1.02988 0.28132 0.52591 0.0
C440 C 1.03376 0.25924 0.49793 0.0
C441 C 1.02495 0.32364 0.57913 0.0
C442 C 0.04312 0.30839 0.58911 0.0
C443 C 0.04468 0.28687 0.56247 0.0
C444 C 0.06058 0.31421 0.62691 0.0
C445 C 1.02015 0.3452 0.60701 0.0
C446 C 0.08345 0.34585 0.63931 0.0
C447 C 0.10012 0.35083 0.67442 0.0
C448 C 0.09462 0.32426 0.69766 0.0
C449 C 0.07208 0.29269 0.685 0.0
C450 C 0.05527 0.28774 0.65024 0.0
H451 H 0.99795 0.34641 0.60008 0.0
H452 H 1.0182 0.33643 0.63709 0.0
H453 H 0.04121 0.37028 0.60512 0.0
H454 H 0.0889 0.36675 0.62152 0.0
H455 H 0.11784 0.37534 0.68284 0.0
H456 H 0.58311 0.19627 0.28109 0.0
H457 H 0.6424 0.22343 0.28569 0.0
H458 H 0.64008 0.13714 0.24271 0.0
H459 H 0.58111 0.1103 0.23664 0.0
H460 H 0.67951 0.20689 0.32951 0.0
H461 H 0.71041 0.20639 0.17609 0.0
H462 H 0.67063 0.1978 0.19148 0.0
H463 H 0.6816 0.16658 0.19351 0.0
C464 C 0.5952 0.18325 0.2718 0.0
C465 C 0.57704 0.15098 0.25839 0.0
C466 C 0.62919 0.19878 0.27477 0.0
C467 C 0.64597 0.18259 0.26412 0.0
C468 C 0.62796 0.15051 0.25042 0.0
H469 H 0.83298 0.21297 0.33546 0.0
H470 H 0.77591 0.19721 0.3279 0.0
C471 C 0.59404 0.13499 0.24741 0.0
C472 C 0.68203 0.19853 0.26904 0.0
H473 H 0.75246 0.21732 0.2217 0.0
C474 C 0.69544 0.20942 0.30581 0.0
C475 C 0.70313 0.20235 0.23814 0.0
C476 C 0.69078 0.19298 0.19751 0.0
C477 C 0.72895 0.22281 0.31275 0.0
C478 C 0.74975 0.2251 0.28226 0.0
C479 C 0.73657 0.21534 0.24521 0.0
C480 C 0.78491 0.23624 0.2885 0.0
C481 C 0.74181 0.23445 0.35275 0.0
C482 C 0.80927 0.26343 0.26875 0.0
C483 C 0.84217 0.27264 0.27311 0.0
C484 C 0.85141 0.25457 0.29694 0.0
C485 C 0.82693 0.22761 0.317 0.0
C486 C 0.79416 0.21859 0.31284 0.0
H487 H 0.72513 0.23963 0.36973 0.0
H488 H 0.74426 0.21522 0.36805 0.0
H489 H 0.7661 0.25678 0.35174 0.0
H490 H 0.8028 0.27735 0.24961 0.0
H491 H 0.86023 0.29328 0.25683 0.0
H492 H 0.66556 0.47931 0.28582 0.0
H493 H 0.63454 0.41985 0.2915 0.0
H494 H 0.5522 0.4187 0.23783 0.0
H495 H 0.58324 0.47789 0.23106 0.0
H496 H 0.57814 0.38242 0.33186 0.0
H497 H 0.55774 0.34818 0.178 0.0
H498 H 0.58748 0.38851 0.19381 0.0
H499 H 0.54527 0.37697 0.19059 0.0
C500 C 0.64108 0.46639 0.27446 0.0
C501 C 0.62702 0.4836 0.25788 0.0
C502 C 0.62326 0.43233 0.27802 0.0
C503 C 0.59106 0.41456 0.2647 0.0
C504 C 0.57713 0.43163 0.2477 0.0
H505 H 0.43135 0.22969 0.33313 0.0
H506 H 0.47383 0.28629 0.32557 0.0
C507 C 0.59487 0.46564 0.24424 0.0
C508 C 0.57141 0.37848 0.27041 0.0
H509 H 0.52385 0.30671 0.22318 0.0
C510 C 0.56658 0.36587 0.30802 0.0
C511 C 0.5566 0.35661 0.23938 0.0
C512 C 0.56227 0.36817 0.19814 0.0
C513 C 0.54635 0.33239 0.31552 0.0
C514 C 0.53008 0.31079 0.28468 0.0
C515 C 0.53602 0.32318 0.24693 0.0
C516 C 0.50536 0.27578 0.29117 0.0
C517 C 0.54252 0.32046 0.35652 0.0
C518 C 0.5086 0.25064 0.27419 0.0
C519 C 0.48413 0.2179 0.27851 0.0
C520 C 0.45566 0.20964 0.29944 0.0
C521 C 0.45287 0.23492 0.31689 0.0
C522 C 0.47732 0.26746 0.31277 0.0
H523 H 0.56355 0.33736 0.37454 0.0
H524 H 0.52037 0.319 0.36907 0.0
H525 H 0.53992 0.29588 0.35793 0.0
H526 H 0.52991 0.25638 0.25721 0.0
H527 H 0.48708 0.19925 0.2644 0.0
H528 H 0.85551 0.396 0.24103 0.0
H529 H 0.83 0.42971 0.2471 0.0
H530 H 0.92331 0.51321 0.27243 0.0
H531 H 0.94891 0.47987 0.26632 0.0
H532 H 0.82661 0.46385 0.30831 0.0
H533 H 0.89128 0.54923 0.1888 0.0
H534 H 0.8918 0.51171 0.1951 0.0
H535 H 0.91887 0.54729 0.22249 0.0
C536 C 0.87064 0.42158 0.24774 0.0
C537 C 0.9044 0.43522 0.25276 0.0
C538 C 0.856 0.44085 0.25116 0.0
C539 C 0.87474 0.47421 0.25955 0.0
C540 C 0.90837 0.48779 0.26484 0.0
H541 H 0.85427 0.63706 0.32007 0.0
H542 H 0.86889 0.59531 0.30973 0.0
C543 C 0.92303 0.46863 0.26128 0.0
C544 C 0.85924 0.49474 0.26403 0.0
H545 H 0.86489 0.56621 0.23434 0.0
C546 C 0.83465 0.48599 0.29175 0.0
C547 C 0.86947 0.52356 0.24226 0.0
C548 C 0.89405 0.53334 0.21022 0.0
C549 C 0.82126 0.50603 0.29949 0.0
C550 C 0.83259 0.53551 0.27888 0.0
C551 C 0.85636 0.54371 0.25034 0.0
C552 C 0.82186 0.55937 0.288 0.0
C553 C 0.79602 0.4963 0.33069 0.0
C554 C 0.79021 0.55294 0.27982 0.0
C555 C 0.78161 0.57701 0.28568 0.0
C556 C 0.80454 0.60795 0.29976 0.0
C557 C 0.83583 0.61368 0.30913 0.0
C558 C 0.84437 0.5898 0.30315 0.0
H559 H 0.79289 0.47493 0.34744 0.0
H560 H 0.8028 0.51692 0.35073 0.0
H561 H 0.77234 0.49005 0.3175 0.0
H562 H 0.77247 0.52969 0.26783 0.0
H563 H 0.75734 0.57163 0.27823 0.0
H564 H 0.14177 0.55916 0.8272 0.0
H565 H 0.16188 0.61748 0.8339 0.0
H566 H 0.17169 0.62892 0.71068 0.0
H567 H 0.15013 0.57048 0.70355 0.0
H568 H 0.21899 0.66977 0.81514 0.0
H569 H 0.12163 0.67463 0.73313 0.0
H570 H 0.11867 0.63673 0.74777 0.0
H571 H 0.14163 0.65783 0.70561 0.0
C572 C 0.14763 0.57389 0.8014 0.0
C573 C 0.14398 0.55973 0.76478 0.0
C574 C 0.15946 0.60742 0.80533 0.0
C575 C 0.16788 0.62776 0.7728 0.0
C576 C 0.16473 0.61382 0.73626 0.0
H577 H 0.28935 0.84066 0.77627 0.0
H578 H 0.26865 0.78212 0.77108 0.0
C579 C 0.15277 0.58029 0.73227 0.0
C580 C 0.18049 0.66353 0.77717 0.0
H581 H 0.16812 0.72555 0.74834 0.0
C582 C 0.20777 0.68192 0.80064 0.0
C583 C 0.16567 0.67952 0.75879 0.0
C584 C 0.13509 0.66113 0.73524 0.0
C585 C 0.22085 0.71568 0.80573 0.0
C586 C 0.20681 0.7319 0.7861 0.0
C587 C 0.17923 0.7134 0.76311 0.0
C588 C 0.2198 0.76783 0.78952 0.0
C589 C 0.24913 0.73342 0.83289 0.0
C590 C 0.1992 0.77972 0.80052 0.0
C591 C 0.21087 0.81329 0.80294 0.0
C592 C 0.24354 0.83597 0.79447 0.0
C593 C 0.26416 0.82404 0.78343 0.0
C594 C 0.25237 0.79043 0.78068 0.0
H595 H 0.25048 0.71652 0.85404 0.0
H596 H 0.27207 0.74494 0.81612 0.0
H597 H 0.24745 0.75276 0.84889 0.0
H598 H 0.17397 0.76296 0.80739 0.0
H599 H 0.19419 0.82142 0.81154 0.0
H600 H 0.4906 0.93974 0.77844 0.0
H601 H 0.52533 0.91557 0.78581 0.0
H602 H 0.44113 0.81958 0.78055 0.0
H603 H 0.40624 0.84352 0.77238 0.0
H604 H 0.52332 0.87237 0.8442 0.0
H605 H 0.5024 0.81574 0.69945 0.0
H606 H 0.49234 0.84681 0.71069 0.0
H607 H 0.46647 0.80569 0.72675 0.0
C608 C 0.47942 0.91348 0.77842 0.0
C609 C 0.44551 0.89366 0.77462 0.0
C610 C 0.49935 0.89967 0.78289 0.0
C611 C 0.48598 0.86571 0.78326 0.0
C612 C 0.45215 0.84583 0.77976 0.0
H613 H 0.58389 0.74894 0.7955 0.0
H614 H 0.54216 0.76512 0.79325 0.0
C615 C 0.43217 0.85961 0.7755 0.0
C616 C 0.50747 0.85128 0.78805 0.0
H617 H 0.53487 0.80567 0.74245 0.0
C618 C 0.52579 0.85775 0.82196 0.0
C619 C 0.51053 0.83189 0.75925 0.0
C620 C 0.49213 0.82473 0.72181 0.0
C621 C 0.54708 0.84555 0.82779 0.0
C622 C 0.55092 0.82696 0.79851 0.0
C623 C 0.53203 0.81986 0.76495 0.0
C624 C 0.57586 0.81654 0.80115 0.0
C625 C 0.565 0.85246 0.86556 0.0
C626 C 0.60875 0.83992 0.806 0.0
C627 C 0.63252 0.83077 0.80747 0.0
C628 C 0.62422 0.79792 0.80373 0.0
C629 C 0.59123 0.77441 0.79876 0.0
C630 C 0.56733 0.78365 0.79734 0.0
H631 H 0.55176 0.85694 0.88889 0.0
H632 H 0.56866 0.83199 0.87434 0.0
H633 H 0.58917 0.87469 0.8625 0.0
H634 H 0.61623 0.8655 0.80799 0.0
H635 H 0.65759 0.84973 0.81099 0.0
H636 H 0.23433 0.40609 0.83378 0.0
H637 H 0.29174 0.44728 0.83019 0.0
H638 H 0.26759 0.51139 0.76875 0.0
H639 H 0.20979 0.47007 0.77192 0.0
H640 H 0.31733 0.50542 0.7338 0.0
H641 H 0.3434 0.53279 0.88894 0.0
H642 H 0.32414 0.49014 0.87817 0.0
H643 H 0.30257 0.51177 0.86997 0.0
C644 C 0.24102 0.42906 0.81987 0.0
C645 C 0.21718 0.43465 0.80323 0.0
C646 C 0.274 0.45274 0.81803 0.0
C647 C 0.28412 0.48269 0.79962 0.0
C648 C 0.26043 0.48856 0.78331 0.0
H649 H 0.48456 0.64699 0.80282 0.0
H650 H 0.4257 0.61224 0.81001 0.0
C651 C 0.22732 0.4649 0.78528 0.0
C652 C 0.31947 0.50699 0.79569 0.0
H653 H 0.38936 0.55162 0.84735 0.0
C654 C 0.33301 0.51571 0.75864 0.0
C655 C 0.34002 0.52076 0.82804 0.0
C656 C 0.3268 0.51368 0.86854 0.0
C657 C 0.36653 0.53691 0.75311 0.0
C658 C 0.38729 0.54956 0.78547 0.0
C659 C 0.3736 0.54169 0.82251 0.0
C660 C 0.42326 0.57063 0.78143 0.0
C661 C 0.37942 0.54572 0.71258 0.0
C662 C 0.44173 0.55874 0.76356 0.0
C663 C 0.47547 0.57845 0.75968 0.0
C664 C 0.49173 0.61064 0.77365 0.0
C665 C 0.47313 0.62232 0.79202 0.0
C666 C 0.43935 0.6025 0.79599 0.0
H667 H 0.35989 0.54131 0.69176 0.0
H668 H 0.39877 0.57167 0.71062 0.0
H669 H 0.39001 0.53049 0.70392 0.0
H670 H 0.43006 0.53401 0.75288 0.0
H671 H 0.48886 0.56822 0.74617 0.0
H672 H 0.22174 0.20273 0.35634 0.0
H673 H 0.18479 0.22391 0.34759 0.0
H674 H 0.18385 0.20884 0.22517 0.0
H675 H 0.21926 0.18575 0.23384 0.0
H676 H 0.19316 0.27648 0.30879 0.0
H677 H 0.08831 0.16654 0.24619 0.0
H678 H 0.12222 0.16551 0.26803 0.0
H679 H 0.12539 0.18067 0.21976 0.0
C680 C 0.21312 0.20312 0.3276 0.0
C681 C 0.22343 0.19216 0.29587 0.0
C682 C 0.19224 0.21566 0.32259 0.0
C683 C 0.18113 0.21767 0.28577 0.0
C684 C 0.19147 0.20696 0.25398 0.0
H685 H 0.0459 0.28787 0.22417 0.0
H686 H 0.09171 0.27752 0.21903 0.0
C687 C 0.21214 0.19413 0.25898 0.0
C688 C 0.15931 0.23159 0.28089 0.0
H689 H 0.08418 0.2141 0.24899 0.0
C690 C 0.1694 0.26284 0.29555 0.0
C691 C 0.12827 0.21393 0.26347 0.0
C692 C 0.11521 0.1797 0.24877 0.0
C693 C 0.14916 0.27655 0.29392 0.0
C694 C 0.11801 0.25865 0.2772 0.0
C695 C 0.10826 0.22792 0.2614 0.0
C696 C 0.0937 0.26949 0.28009 0.0
C697 C 0.16097 0.30992 0.31066 0.0
C698 C 0.0801 0.26892 0.31607 0.0
C699 C 0.05396 0.27444 0.31893 0.0
C700 C 0.04111 0.28105 0.28594 0.0
C701 C 0.05577 0.28339 0.25008 0.0
C702 C 0.0817 0.27724 0.24712 0.0
H703 H 0.1878 0.32362 0.31403 0.0
H704 H 0.15357 0.32426 0.29222 0.0
H705 H 0.14988 0.30735 0.33949 0.0
H706 H 0.08869 0.26261 0.34178 0.0
H707 H 0.04291 0.27225 0.34687 0.0
H708 H 1.02898 0.84399 0.35611 0.0
H709 H 0.08699 0.88072 0.34668 0.0
H710 H 0.07244 0.87765 0.22391 0.0
H711 H 1.01405 0.84254 0.23317 0.0
H712 H 0.1308 0.87099 0.30993 0.0
H713 H 0.126 0.97394 0.24004 0.0
H714 H 0.09107 0.94074 0.26294 0.0
H715 H 0.10303 0.93589 0.21542 0.0
C716 C 0.03786 0.8517 0.32711 0.0
C717 C 1.0165 0.84033 0.29547 0.0
C718 C 0.07122 0.87245 0.32172 0.0
C719 C 0.0842 0.88235 0.2846 0.0
C720 C 0.06306 0.87098 0.25291 0.0
H721 H 0.29183 1.01422 0.22617 0.0
H722 H 0.23566 0.96832 0.22018 0.0
C723 C 1.02961 0.85047 0.25827 0.0
C724 C 0.1199 0.90399 0.27939 0.0
H725 H 0.17761 0.97842 0.24508 0.0
C726 C 0.14096 0.89437 0.29551 0.0
C727 C 0.13332 0.93454 0.26044 0.0
C728 C 0.11224 0.94709 0.24402 0.0
C729 C 0.17486 0.91471 0.29405 0.0
C730 C 0.18814 0.94541 0.27591 0.0
C731 C 0.16729 0.95462 0.25853 0.0
C732 C 0.22305 0.97013 0.27961 0.0
C733 C 0.19638 0.9037 0.31279 0.0
C734 C 0.23448 0.98591 0.31496 0.0
C735 C 0.26605 1.01208 0.31824 0.0
C736 C 0.28709 1.02278 0.28638 0.0
C737 C 0.27625 1.00606 0.2513 0.0
C738 C 0.2442 0.98007 0.24781 0.0
H739 H 0.18317 0.87707 0.31842 0.0
H740 H 0.21784 0.90998 0.29441 0.0
H741 H 0.20535 0.9165 0.34067 0.0
H742 H 0.21848 0.97884 0.33969 0.0
H743 H 0.27365 0.0247 0.34552 0.0
H744 H 0.86069 0.03167 0.3546 0.0
H745 H 0.83849 0.97353 0.34451 0.0
H746 H 0.8566 0.99015 0.22267 0.0
H747 H 0.8809 0.04866 0.23277 0.0
H748 H 0.78667 0.93102 0.30431 0.0
H749 H 0.89657 0.93477 0.24359 0.0
H750 H 0.8979 0.96973 0.26578 0.0
H751 H 0.88335 0.95863 0.21725 0.0
C752 C 0.86079 1.02321 0.32573 0.0
C753 C 0.873 0.04519 0.2946 0.0
C754 C 0.84762 0.98978 0.31993 0.0
C755 C 0.84614 0.97735 0.28288 0.0
C756 C 0.85803 0.99909 0.25165 0.0
H757 H 0.76757 0.76827 0.22729 0.0
H758 H 0.77783 0.82442 0.21986 0.0
C759 C 0.87157 0.03262 0.25747 0.0
C760 C 0.83173 0.94161 0.27728 0.0
H761 H 0.84894 0.88339 0.24668 0.0
C762 C 0.80024 0.92068 0.29138 0.0
C763 C 0.84933 0.92797 0.26032 0.0
C764 C 0.88375 0.94887 0.24617 0.0
C765 C 0.78637 0.88667 0.29005 0.0
C766 C 0.80427 0.8732 0.27399 0.0
C767 C 0.83514 0.89392 0.25846 0.0
C768 C 0.79377 0.83826 0.27866 0.0
C769 C 0.75311 0.86522 0.30699 0.0
C770 C 0.79886 0.82753 0.31417 0.0
C771 C 0.79353 0.796 0.31825 0.0
C772 C 0.78251 0.7743 0.28705 0.0
C773 C 0.77567 0.7844 0.25191 0.0
C774 C 0.78167 0.81642 0.2476 0.0
H775 H 0.74002 0.8788 0.31212 0.0
H776 H 0.73831 0.84436 0.28762 0.0
H777 H 0.75559 0.8552 0.33489 0.0
H778 H 0.8084 0.84409 0.33835 0.0
H779 H 0.79922 0.78898 0.34558 0.0
H780 H 0.21215 0.20846 0.87107 0.0
H781 H 0.23624 0.17374 0.86476 0.0
H782 H 0.21795 0.1661 0.7427 0.0
H783 H 0.19277 0.20004 0.74874 0.0
H784 H 0.20422 0.10784 0.83192 0.0
H785 H 0.31714 0.19488 0.75409 0.0
H786 H 0.29362 0.2081 0.78167 0.0
H787 H 0.27928 0.18929 0.73563 0.0
C788 C 0.21276 0.19912 0.84287 0.0
C789 C 0.20027 0.20711 0.81045 0.0
C790 C 0.2269 0.17951 0.8393 0.0
C791 C 0.22932 0.1677 0.80321 0.0
C792 C 0.21689 0.17545 0.77074 0.0
H793 H 0.29939 0.03468 0.73949 0.0
H794 H 0.28524 0.07797 0.73722 0.0
C795 C 0.2025 0.19491 0.7743 0.0
C796 C 0.2436 0.14614 0.80008 0.0
H797 H 0.30921 0.14233 0.76619 0.0
C798 C 0.22717 0.11538 0.81756 0.0
C799 C 0.27337 0.1559 0.78094 0.0
C800 C 0.29213 0.1889 0.76213 0.0
C801 C 0.23965 0.09409 0.81654 0.0
C802 C 0.26999 0.10419 0.79852 0.0
C803 C 0.28616 0.13473 0.78029 0.0
C804 C 0.28509 0.0832 0.79908 0.0
C805 C 0.21989 0.0607 0.83432 0.0
C806 C 0.29175 0.0733 0.83439 0.0
C807 C 0.29966 0.04863 0.83571 0.0
C808 C 0.30183 0.03389 0.80169 0.0
C809 C 0.29844 0.04605 0.7661 0.0
C810 C 0.29004 0.07054 0.76481 0.0
H811 H 0.19382 0.05345 0.83679 0.0
H812 H 0.2218 0.04201 0.81717 0.0
H813 H 0.2291 0.06091 0.86374 0.0
H814 H 0.28885 0.08323 0.86115 0.0
H815 H 0.30196 0.03956 0.86351 0.0
H816 H 0.03802 0.84268 0.87507 0.0
H817 H 0.97982 0.81926 0.86425 0.0
H818 H 0.99507 0.82278 0.74169 0.0
H819 H 0.0537 0.84698 0.75216 0.0
H820 H 0.95243 0.85141 0.81947 0.0
H821 H 0.91735 0.72847 0.7628 0.0
H822 H 0.95394 0.75219 0.79056 0.0
H823 H 0.95208 0.76291 0.74147 0.0
C824 C 1.02915 0.83857 0.84573 0.0
C825 C 0.0508 0.84709 0.8145 0.0
C826 C 0.99575 0.82492 0.83963 0.0
C827 C 0.98299 0.81903 0.80219 0.0
C828 C 1.00428 0.82661 0.77087 0.0
H829 H 0.78103 0.75691 0.73386 0.0
H830 H 0.83761 0.76829 0.73123 0.0
C831 C 0.03784 0.84045 0.77694 0.0
C832 C 0.94779 0.80726 0.79636 0.0
H833 H 0.87572 0.7417 0.76807 0.0
C834 C 0.93571 0.82748 0.80807 0.0
C835 C 0.92602 0.77618 0.78104 0.0
C836 C 0.93776 0.75345 0.76837 0.0
C837 C 0.90251 0.81734 0.80555 0.0
C838 C 0.88046 0.78572 0.7918 0.0
C839 C 0.89258 0.76581 0.77883 0.0
C840 C 0.84474 0.77283 0.79294 0.0
C841 C 0.89131 0.84067 0.81774 0.0
C842 C 0.82949 0.76991 0.82847 0.0
C843 C 0.79751 0.76359 0.82998 0.0
C844 C 0.77979 0.75943 0.79602 0.0
C845 C 0.794 0.75954 0.76049 0.0
C846 C 0.82637 0.76628 0.75897 0.0
H847 H 0.9115 0.86633 0.81701 0.0
H848 H 0.8714 0.83846 0.79894 0.0
H849 H 0.88205 0.83496 0.84771 0.0
H850 H 0.84296 0.77429 0.85507 0.0
H851 H 0.78714 0.76366 0.85773 0.0
H852 H 1.01836 0.27744 0.7418 0.0
H853 H 0.97388 0.22054 0.73903 0.0
H854 H 0.98255 0.21093 0.86125 0.0
H855 H 1.02721 0.26722 0.86401 0.0
H856 H 0.98684 0.1677 0.76795 0.0
H857 H 0.88157 0.16677 0.83854 0.0
H858 H 0.91359 0.20249 0.81503 0.0
H859 H 0.92031 0.19065 0.8617 0.0
C860 C 1.00999 0.26348 0.76822 0.0
C861 C 1.02613 0.27673 0.80314 0.0
C862 C 0.98478 0.23095 0.76657 0.0
C863 C 0.97486 0.21156 0.79998 0.0
C864 C 0.98956 0.22551 0.83523 0.0
H865 H 0.85339 1.0131 0.87334 0.0
H866 H 0.88828 0.07181 0.86645 0.0
C867 C 1.01504 0.25769 0.83676 0.0
C868 C 0.95201 0.17591 0.79786 0.0
H869 H 0.87856 0.11562 0.83046 0.0
C870 C 0.96293 0.15623 0.78107 0.0
C871 C 0.92113 0.16111 0.81554 0.0
C872 C 0.9082 0.18124 0.83355 0.0
C873 C 0.94431 0.12206 0.78277 0.0
C874 C 0.91339 0.10709 0.80075 0.0
C875 C 0.9022 0.12693 0.81671 0.0
C876 C 0.89274 0.07099 0.80455 0.0
C877 C 0.95876 0.10246 0.76695 0.0
C878 C 0.88348 0.05068 0.77209 0.0
C879 C 0.8641 1.01685 0.77602 0.0
C880 C 0.8529 1.00244 0.81248 0.0
C881 C 0.86201 1.02297 0.84487 0.0
C882 C 0.88169 0.05675 0.84094 0.0
H883 H 0.98564 0.11728 0.76468 0.0
H884 H 0.95249 0.0809 0.78528 0.0
H885 H 0.94904 0.09387 0.73762 0.0
H886 H 0.89099 0.06099 0.74357 0.0
H887 H 0.85794 1.00202 0.75037 0.0
loop_
_geom_bond_atom_site_label_1
_geom_bond_atom_site_label_2
_geom_bond_distance
_geom_bond_site_symmetry_2
_ccdc_geom_bond_type
La0 C2 2.928 . S
La0 O20 2.521 . S
La0 O21 2.628 . S
La0 O22 2.554 . S
La0 O23 2.757 . S
La0 O24 2.470 . S
La0 O29 2.482 . S
La0 O31 2.503 . S
La1 C11 2.928 . S
La1 O23 2.482 . S
La1 O25 2.503 . S
La1 O26 2.521 . S
La1 O27 2.628 . S
La1 O28 2.554 . S
La1 O29 2.757 . S
La1 O30 2.470 . S
C2 La0 2.928 . S
C2 C3 1.503 . S
C2 O20 1.261 . S
C2 O21 1.243 . S
C3 C2 1.503 . S
C3 C4 1.394 . S
C3 C8 1.373 . S
C4 C3 1.394 . S
C4 C5 1.380 . S
C4 H32 0.930 . S
C5 C4 1.380 . S
C5 C6 1.376 . S
C5 H33 0.930 . S
C6 C5 1.376 . S
C6 C7 1.370 . S
C7 C6 1.370 . S
C7 C8 1.396 . S
C7 H34 0.929 . S
C8 C3 1.373 . S
C8 C7 1.396 . S
C8 H35 0.929 . S
C9 O22 1.240 . S
C9 O23 1.289 . S
C10 O24 1.258 . S
C10 O25 1.256 . S
C11 La1 2.928 . S
C11 C12 1.503 . S
C11 O26 1.261 . S
C11 O27 1.243 . S
C12 C11 1.503 . S
C12 C13 1.394 . S
C12 C17 1.373 . S
C13 C12 1.394 . S
C13 C14 1.380 . S
C13 H36 0.930 . S
C14 C13 1.380 . S
C14 C15 1.376 . S
C14 H37 0.930 . S
C15 C14 1.376 . S
C15 C16 1.370 . S
C16 C15 1.370 . S
C16 C17 1.396 . S
C16 H38 0.929 . S
C17 C12 1.373 . S
C17 C16 1.396 . S
C17 H39 0.929 . S
C18 O28 1.240 . S
C18 O29 1.289 . S
C19 O30 1.258 . S
C19 O31 1.256 . S
O20 La0 2.521 . S
O20 C2 1.261 . S
O21 La0 2.628 . S
O21 C2 1.243 . S
O22 La0 2.554 . S
O22 C9 1.240 . S
O23 La0 2.757 . S
O23 La1 2.482 . S
O23 C9 1.289 . S
O24 La0 2.470 . S
O24 C10 1.258 . S
O25 La1 2.503 . S
O25 C10 1.256 . S
O26 La1 2.521 . S
O26 C11 1.261 . S
O27 La1 2.628 . S
O27 C11 1.243 . S
O28 La1 2.554 . S
O28 C18 1.240 . S
O29 La0 2.482 . S
O29 La1 2.757 . S
O29 C18 1.289 . S
O30 La1 2.470 . S
O30 C19 1.258 . S
O31 La0 2.503 . S
O31 C19 1.256 . S
H32 C4 0.930 . S
H33 C5 0.930 . S
H34 C7 0.929 . S
H35 C8 0.929 . S
H36 C13 0.930 . S
H37 C14 0.930 . S
H38 C16 0.929 . S
H39 C17 0.929 . S
La40 C42 2.928 . S
La40 O60 2.521 . S
La40 O61 2.628 . S
La40 O62 2.554 . S
La40 O63 2.757 . S
La40 O64 2.470 . S
La40 O69 2.482 . S
La40 O71 2.503 . S
La41 C51 2.928 . S
La41 O63 2.482 . S
La41 O65 2.503 . S
La41 O66 2.521 . S
La41 O67 2.628 . S
La41 O68 2.554 . S
La41 O69 2.757 . S
La41 O70 2.470 . S
C42 La40 2.928 . S
C42 C43 1.503 . S
C42 O60 1.261 . S
C42 O61 1.243 . S
C43 C42 1.503 . S
C43 C44 1.394 . S
C43 C48 1.373 . S
C44 C43 1.394 . S
C44 C45 1.380 . S
C44 H72 0.930 . S
C45 C44 1.380 . S
C45 C46 1.376 . S
C45 H73 0.930 . S
C46 C45 1.376 . S
C46 C47 1.370 . S
C47 C46 1.370 . S
C47 C48 1.396 . S
C47 H74 0.929 . S
C48 C43 1.373 . S
C48 C47 1.396 . S
C48 H75 0.929 . S
C49 O62 1.240 . S
C49 O63 1.289 . S
C50 O64 1.258 . S
C50 O65 1.256 . S
C51 La41 2.928 . S
C51 C52 1.503 . S
C51 O66 1.261 . S
C51 O67 1.243 . S
C52 C51 1.503 . S
C52 C53 1.394 . S
C52 C57 1.373 . S
C53 C52 1.394 . S
C53 C54 1.380 . S
C53 H76 0.930 . S
C54 C53 1.380 . S
C54 C55 1.376 . S
C54 H77 0.930 . S
C55 C54 1.376 . S
C55 C56 1.370 . S
C56 C55 1.370 . S
C56 C57 1.396 . S
C56 H78 0.929 . S
C57 C52 1.373 . S
C57 C56 1.396 . S
C57 H79 0.929 . S
C58 O68 1.240 . S
C58 O69 1.289 . S
C59 O70 1.258 . S
C59 O71 1.256 . S
O60 La40 2.521 . S
O60 C42 1.261 . S
O61 La40 2.628 . S
O61 C42 1.243 . S
O62 La40 2.554 . S
O62 C49 1.240 . S
O63 La40 2.757 . S
O63 La41 2.482 . S
O63 C49 1.289 . S
O64 La40 2.470 . S
O64 C50 1.258 . S
O65 La41 2.503 . S
O65 C50 1.256 . S
O66 La41 2.521 . S
O66 C51 1.261 . S
O67 La41 2.628 . S
O67 C51 1.243 . S
O68 La41 2.554 . S
O68 C58 1.240 . S
O69 La40 2.482 . S
O69 La41 2.757 . S
O69 C58 1.289 . S
O70 La41 2.470 . S
O70 C59 1.258 . S
O71 La40 2.503 . S
O71 C59 1.256 . S
H72 C44 0.930 . S
H73 C45 0.930 . S
H74 C47 0.929 . S
H75 C48 0.929 . S
H76 C53 0.930 . S
H77 C54 0.930 . S
H78 C56 0.929 . S
H79 C57 0.929 . S
La80 C82 2.928 . S
La80 O100 2.521 . S
La80 O101 2.628 . S
La80 O102 2.554 . S
La80 O103 2.757 . S
La80 O104 2.470 . S
La80 O109 2.482 . S
La80 O111 2.503 . S
La81 C91 2.928 . S
La81 O103 2.482 . S
La81 O105 2.503 . S
La81 O106 2.521 . S
La81 O107 2.628 . S
La81 O108 2.554 . S
La81 O109 2.757 . S
La81 O110 2.470 . S
C82 La80 2.928 . S
C82 C83 1.503 . S
C82 O100 1.261 . S
C82 O101 1.243 . S
C83 C82 1.503 . S
C83 C84 1.394 . S
C83 C88 1.373 . S
C84 C83 1.394 . S
C84 C85 1.380 . S
C84 H112 0.930 . S
C85 C84 1.380 . S
C85 C86 1.376 . S
C85 H113 0.930 . S
C86 C85 1.376 . S
C86 C87 1.370 . S
C87 C86 1.370 . S
C87 C88 1.396 . S
C87 H114 0.929 . S
C88 C83 1.373 . S
C88 C87 1.396 . S
C88 H115 0.929 . S
C89 O102 1.240 . S
C89 O103 1.289 . S
C90 O104 1.258 . S
C90 O105 1.256 . S
C91 La81 2.928 . S
C91 C92 1.503 . S
C91 O106 1.261 . S
C91 O107 1.243 . S
C92 C91 1.503 . S
C92 C93 1.394 . S
C92 C97 1.373 . S
C93 C92 1.394 . S
C93 C94 1.380 . S
C93 H116 0.930 . S
C94 C93 1.380 . S
C94 C95 1.376 . S
C94 H117 0.930 . S
C95 C94 1.376 . S
C95 C96 1.370 . S
C96 C95 1.370 . S
C96 C97 1.396 . S
C96 H118 0.929 . S
C97 C92 1.373 . S
C97 C96 1.396 . S
C97 H119 0.929 . S
C98 O108 1.240 . S
C98 O109 1.289 . S
C99 O110 1.258 . S
C99 O111 1.256 . S
O100 La80 2.521 . S
O100 C82 1.261 . S
O101 La80 2.628 . S
O101 C82 1.243 . S
O102 La80 2.554 . S
O102 C89 1.240 . S
O103 La80 2.757 . S
O103 La81 2.482 . S
O103 C89 1.289 . S
O104 La80 2.470 . S
O104 C90 1.258 . S
O105 La81 2.503 . S
O105 C90 1.256 . S
O106 La81 2.521 . S
O106 C91 1.261 . S
O107 La81 2.628 . S
O107 C91 1.243 . S
O108 La81 2.554 . S
O108 C98 1.240 . S
O109 La80 2.482 . S
O109 La81 2.757 . S
O109 C98 1.289 . S
O110 La81 2.470 . S
O110 C99 1.258 . S
O111 La80 2.503 . S
O111 C99 1.256 . S
H112 C84 0.930 . S
H113 C85 0.930 . S
H114 C87 0.929 . S
H115 C88 0.929 . S
H116 C93 0.930 . S
H117 C94 0.930 . S
H118 C96 0.929 . S
H119 C97 0.929 . S
La120 C122 2.928 . S
La120 O140 2.521 . S
La120 O141 2.628 . S
La120 O142 2.554 . S
La120 O143 2.757 . S
La120 O144 2.470 . S
La120 O149 2.482 . S
La120 O151 2.503 . S
La121 C131 2.928 . S
La121 O143 2.482 . S
La121 O145 2.503 . S
La121 O146 2.521 . S
La121 O147 2.628 . S
La121 O148 2.554 . S
La121 O149 2.757 . S
La121 O150 2.470 . S
C122 La120 2.928 . S
C122 C123 1.503 . S
C122 O140 1.261 . S
C122 O141 1.243 . S
C123 C122 1.503 . S
C123 C124 1.394 . S
C123 C128 1.373 . S
C124 C123 1.394 . S
C124 C125 1.380 . S
C124 H152 0.930 . S
C125 C124 1.380 . S
C125 C126 1.376 . S
C125 H153 0.930 . S
C126 C125 1.376 . S
C126 C127 1.370 . S
C127 C126 1.370 . S
C127 C128 1.396 . S
C127 H154 0.929 . S
C128 C123 1.373 . S
C128 C127 1.396 . S
C128 H155 0.929 . S
C129 O142 1.240 . S
C129 O143 1.289 . S
C130 O144 1.258 . S
C130 O145 1.256 . S
C131 La121 2.928 . S
C131 C132 1.503 . S
C131 O146 1.261 . S
C131 O147 1.243 . S
C132 C131 1.503 . S
C132 C133 1.394 . S
C132 C137 1.373 . S
C133 C132 1.394 . S
C133 C134 1.380 . S
C133 H156 0.930 . S
C134 C133 1.380 . S
C134 C135 1.376 . S
C134 H157 0.930 . S
C135 C134 1.376 . S
C135 C136 1.370 . S
C136 C135 1.370 . S
C136 C137 1.396 . S
C136 H158 0.929 . S
C137 C132 1.373 . S
C137 C136 1.396 . S
C137 H159 0.929 . S
C138 O148 1.240 . S
C138 O149 1.289 . S
C139 O150 1.258 . S
C139 O151 1.256 . S
O140 La120 2.521 . S
O140 C122 1.261 . S
O141 La120 2.628 . S
O141 C122 1.243 . S
O142 La120 2.554 . S
O142 C129 1.240 . S
O143 La120 2.757 . S
O143 La121 2.482 . S
O143 C129 1.289 . S
O144 La120 2.470 . S
O144 C130 1.258 . S
O145 La121 2.503 . S
O145 C130 1.256 . S
O146 La121 2.521 . S
O146 C131 1.261 . S
O147 La121 2.628 . S
O147 C131 1.243 . S
O148 La121 2.554 . S
O148 C138 1.240 . S
O149 La120 2.482 . S
O149 La121 2.757 . S
O149 C138 1.289 . S
O150 La121 2.470 . S
O150 C139 1.258 . S
O151 La120 2.503 . S
O151 C139 1.256 . S
H152 C124 0.930 . S
H153 C125 0.930 . S
H154 C127 0.929 . S
H155 C128 0.929 . S
H156 C133 0.930 . S
H157 C134 0.930 . S
H158 C136 0.929 . S
H159 C137 0.929 . S
La160 C162 2.928 . S
La160 O180 2.521 . S
La160 O181 2.628 . S
La160 O182 2.554 . S
La160 O183 2.757 . S
La160 O184 2.470 . S
La160 O189 2.482 . S
La160 O191 2.503 . S
La161 C171 2.928 . S
La161 O183 2.482 . S
La161 O185 2.503 . S
La161 O186 2.521 . S
La161 O187 2.628 . S
La161 O188 2.554 . S
La161 O189 2.757 . S
La161 O190 2.470 . S
C162 La160 2.928 . S
C162 C163 1.503 . S
C162 O180 1.261 . S
C162 O181 1.243 . S
C163 C162 1.503 . S
C163 C164 1.394 . S
C163 C168 1.373 . S
C164 C163 1.394 . S
C164 C165 1.380 . S
C164 H192 0.930 . S
C165 C164 1.380 . S
C165 C166 1.376 . S
C165 H193 0.930 . S
C166 C165 1.376 . S
C166 C167 1.370 . S
C167 C166 1.370 . S
C167 C168 1.396 . S
C167 H194 0.929 . S
C168 C163 1.373 . S
C168 C167 1.396 . S
C168 H195 0.929 . S
C169 O182 1.240 . S
C169 O183 1.289 . S
C170 O184 1.258 . S
C170 O185 1.256 . S
C171 La161 2.928 . S
C171 C172 1.503 . S
C171 O186 1.261 . S
C171 O187 1.243 . S
C172 C171 1.503 . S
C172 C173 1.394 . S
C172 C177 1.373 . S
C173 C172 1.394 . S
C173 C174 1.380 . S
C173 H196 0.930 . S
C174 C173 1.380 . S
C174 C175 1.376 . S
C174 H197 0.930 . S
C175 C174 1.376 . S
C175 C176 1.370 . S
C176 C175 1.370 . S
C176 C177 1.396 . S
C176 H198 0.929 . S
C177 C172 1.373 . S
C177 C176 1.396 . S
C177 H199 0.929 . S
C178 O188 1.240 . S
C178 O189 1.289 . S
C179 O190 1.258 . S
C179 O191 1.256 . S
O180 La160 2.521 . S
O180 C162 1.261 . S
O181 La160 2.628 . S
O181 C162 1.243 . S
O182 La160 2.554 . S
O182 C169 1.240 . S
O183 La160 2.757 . S
O183 La161 2.482 . S
O183 C169 1.289 . S
O184 La160 2.470 . S
O184 C170 1.258 . S
O185 La161 2.503 . S
O185 C170 1.256 . S
O186 La161 2.521 . S
O186 C171 1.261 . S
O187 La161 2.628 . S
O187 C171 1.243 . S
O188 La161 2.554 . S
O188 C178 1.240 . S
O189 La160 2.482 . S
O189 La161 2.757 . S
O189 C178 1.289 . S
O190 La161 2.470 . S
O190 C179 1.258 . S
O191 La160 2.503 . S
O191 C179 1.256 . S
H192 C164 0.930 . S
H193 C165 0.930 . S
H194 C167 0.929 . S
H195 C168 0.929 . S
H196 C173 0.930 . S
H197 C174 0.930 . S
H198 C176 0.929 . S
H199 C177 0.929 . S
La200 C202 2.928 . S
La200 O220 2.521 . S
La200 O221 2.628 . S
La200 O222 2.554 . S
La200 O223 2.757 . S
La200 O224 2.470 . S
La200 O229 2.482 . S
La200 O231 2.503 . S
La201 C211 2.928 . S
La201 O223 2.482 . S
La201 O225 2.503 . S
La201 O226 2.521 . S
La201 O227 2.628 . S
La201 O228 2.554 . S
La201 O229 2.757 . S
La201 O230 2.470 . S
C202 La200 2.928 . S
C202 C203 1.503 . S
C202 O220 1.261 . S
C202 O221 1.243 . S
C203 C202 1.503 . S
C203 C204 1.394 . S
C203 C208 1.373 . S
C204 C203 1.394 . S
C204 C205 1.380 . S
C204 H232 0.930 . S
C205 C204 1.380 . S
C205 C206 1.376 . S
C205 H233 0.930 . S
C206 C205 1.376 . S
C206 C207 1.370 . S
C207 C206 1.370 . S
C207 C208 1.396 . S
C207 H234 0.929 . S
C208 C203 1.373 . S
C208 C207 1.396 . S
C208 H235 0.929 . S
C209 O222 1.240 . S
C209 O223 1.289 . S
C210 O224 1.258 . S
C210 O225 1.256 . S
C211 La201 2.928 . S
C211 C212 1.503 . S
C211 O226 1.261 . S
C211 O227 1.243 . S
C212 C211 1.503 . S
C212 C213 1.394 . S
C212 C217 1.373 . S
C213 C212 1.394 . S
C213 C214 1.380 . S
C213 H236 0.930 . S
C214 C213 1.380 . S
C214 C215 1.376 . S
C214 H237 0.930 . S
C215 C214 1.376 . S
C215 C216 1.370 . S
C216 C215 1.370 . S
C216 C217 1.396 . S
C216 H238 0.929 . S
C217 C212 1.373 . S
C217 C216 1.396 . S
C217 H239 0.929 . S
C218 O228 1.240 . S
C218 O229 1.289 . S
C219 O230 1.258 . S
C219 O231 1.256 . S
O220 La200 2.521 . S
O220 C202 1.261 . S
O221 La200 2.628 . S
O221 C202 1.243 . S
O222 La200 2.554 . S
O222 C209 1.240 . S
O223 La200 2.757 . S
O223 La201 2.482 . S
O223 C209 1.289 . S
O224 La200 2.470 . S
O224 C210 1.258 . S
O225 La201 2.503 . S
O225 C210 1.256 . S
O226 La201 2.521 . S
O226 C211 1.261 . S
O227 La201 2.628 . S
O227 C211 1.243 . S
O228 La201 2.554 . S
O228 C218 1.240 . S
O229 La200 2.482 . S
O229 La201 2.757 . S
O229 C218 1.289 . S
O230 La201 2.470 . S
O230 C219 1.258 . S
O231 La200 2.503 . S
O231 C219 1.256 . S
H232 C204 0.930 . S
H233 C205 0.930 . S
H234 C207 0.929 . S
H235 C208 0.929 . S
H236 C213 0.930 . S
H237 C214 0.930 . S
H238 C216 0.929 . S
H239 C217 0.929 . S
H240 C248 0.929 . S
H241 C250 0.930 . S
H242 C252 0.930 . S
H243 C255 0.929 . S
H244 C258 0.930 . S
H245 C260 0.960 . S
H246 C260 0.960 . S
H247 C260 0.960 1_556 S
C248 H240 0.929 . S
C248 C249 1.377 . S
C248 C250 1.384 . S
C249 C248 1.377 . S
C249 C255 1.390 . S
C250 H241 0.930 . S
C250 C248 1.384 . S
C250 C251 1.372 . S
C251 C250 1.372 . S
C251 C252 1.400 . S
C251 C256 1.490 . S
C252 H242 0.930 . S
C252 C251 1.400 . S
C252 C255 1.386 . S
H253 C269 0.930 . S
H254 C270 0.931 . S
C255 H243 0.929 . S
C255 C249 1.390 . S
C255 C252 1.386 . S
C256 C251 1.490 . S
C256 C258 1.395 1_565 S
C256 C259 1.403 1_556 S
H257 C263 0.930 . S
C258 H244 0.930 . S
C258 C256 1.395 1_545 S
C258 C261 1.403 . S
C259 C256 1.403 1_554 S
C259 C260 1.524 . S
C259 C263 1.400 . S
C260 H245 0.960 . S
C260 H246 0.960 . S
C260 H247 0.960 1_554 S
C260 C259 1.524 . S
C261 C258 1.403 . S
C261 C262 1.392 1_556 S
C261 C265 1.495 . S
C262 C261 1.392 1_554 S
C262 C263 1.385 1_545 S
C262 C264 1.478 . S
C263 H257 0.930 . S
C263 C259 1.400 . S
C263 C262 1.385 1_565 S
C264 C262 1.478 . S
C264 C266 1.381 . S
C264 C270 1.383 . S
C265 C261 1.495 . S
C265 H271 0.959 . S
C265 H272 0.961 . S
C265 H273 0.960 1_556 S
C266 C264 1.381 . S
C266 C267 1.394 . S
C266 H274 0.930 . S
C267 C266 1.394 . S
C267 C268 1.383 . S
C267 H275 0.929 . S
C268 C267 1.383 . S
C268 C269 1.377 . S
C269 H253 0.930 . S
C269 C268 1.377 . S
C269 C270 1.379 . S
C270 H254 0.931 . S
C270 C264 1.383 . S
C270 C269 1.379 . S
H271 C265 0.959 . S
H272 C265 0.961 . S
H273 C265 0.960 1_554 S
H274 C266 0.930 . S
H275 C267 0.929 . S
H276 C284 0.929 . S
H277 C286 0.930 . S
H278 C288 0.930 . S
H279 C291 0.929 . S
H280 C294 0.930 . S
H281 C296 0.960 . S
H282 C296 0.960 . S
H283 C296 0.960 . S
C284 H276 0.929 . S
C284 C285 1.377 . S
C284 C286 1.384 . S
C285 C284 1.377 . S
C285 C291 1.390 . S
C286 H277 0.930 . S
C286 C284 1.384 . S
C286 C287 1.372 . S
C287 C286 1.372 . S
C287 C288 1.400 . S
C287 C292 1.490 . S
C288 H278 0.930 . S
C288 C287 1.400 . S
C288 C291 1.386 . S
H289 C305 0.930 . S
H290 C306 0.931 . S
C291 H279 0.929 . S
C291 C285 1.390 . S
C291 C288 1.386 . S
C292 C287 1.490 . S
C292 C294 1.395 . S
C292 C295 1.403 . S
H293 C299 0.930 . S
C294 H280 0.930 . S
C294 C292 1.395 . S
C294 C297 1.403 . S
C295 C292 1.403 . S
C295 C296 1.524 . S
C295 C299 1.400 . S
C296 H281 0.960 . S
C296 H282 0.960 . S
C296 H283 0.960 . S
C296 C295 1.524 . S
C297 C294 1.403 . S
C297 C298 1.392 . S
C297 C301 1.495 . S
C298 C297 1.392 . S
C298 C299 1.385 . S
C298 C300 1.478 . S
C299 H293 0.930 . S
C299 C295 1.400 . S
C299 C298 1.385 . S
C300 C298 1.478 . S
C300 C302 1.381 . S
C300 C306 1.383 . S
C301 C297 1.495 . S
C301 H307 0.959 . S
C301 H308 0.961 . S
C301 H309 0.960 . S
C302 C300 1.381 . S
C302 C303 1.394 . S
C302 H310 0.930 . S
C303 C302 1.394 . S
C303 C304 1.383 . S
C303 H311 0.929 . S
C304 C303 1.383 . S
C304 C305 1.377 . S
C305 H289 0.930 . S
C305 C304 1.377 . S
C305 C306 1.379 . S
C306 H290 0.931 . S
C306 C300 1.383 . S
C306 C305 1.379 . S
H307 C301 0.959 . S
H308 C301 0.961 . S
H309 C301 0.960 . S
H310 C302 0.930 . S
H311 C303 0.929 . S
H312 C320 0.929 . S
H313 C322 0.930 . S
H314 C324 0.930 . S
H315 C327 0.929 . S
H316 C330 0.930 . S
H317 C332 0.960 . S
H318 C332 0.960 . S
H319 C332 0.960 1_554 S
C320 H312 0.929 . S
C320 C321 1.377 . S
C320 C322 1.384 . S
C321 C320 1.377 . S
C321 C327 1.390 . S
C322 H313 0.930 . S
C322 C320 1.384 . S
C322 C323 1.372 . S
C323 C322 1.372 . S
C323 C324 1.400 . S
C323 C328 1.490 . S
C324 H314 0.930 . S
C324 C323 1.400 . S
C324 C327 1.386 . S
H325 C341 0.930 . S
H326 C342 0.931 . S
C327 H315 0.929 . S
C327 C321 1.390 . S
C327 C324 1.386 . S
C328 C323 1.490 . S
C328 C330 1.395 1_655 S
C328 C331 1.403 1_554 S
H329 C335 0.930 . S
C330 H316 0.930 . S
C330 C328 1.395 1_455 S
C330 C333 1.403 . S
C331 C328 1.403 1_556 S
C331 C332 1.524 . S
C331 C335 1.400 . S
C332 H317 0.960 . S
C332 H318 0.960 . S
C332 H319 0.960 1_556 S
C332 C331 1.524 . S
C333 C330 1.403 . S
C333 C334 1.392 1_554 S
C333 C337 1.495 . S
C334 C333 1.392 1_556 S
C334 C335 1.385 1_455 S
C334 C336 1.478 . S
C335 H329 0.930 . S
C335 C331 1.400 . S
C335 C334 1.385 1_655 S
C336 C334 1.478 . S
C336 C338 1.381 . S
C336 C342 1.383 . S
C337 C333 1.495 . S
C337 H343 0.959 . S
C337 H344 0.961 . S
C337 H345 0.960 1_554 S
C338 C336 1.381 . S
C338 C339 1.394 . S
C338 H346 0.930 . S
C339 C338 1.394 . S
C339 C340 1.383 . S
C339 H347 0.929 . S
C340 C339 1.383 . S
C340 C341 1.377 . S
C341 H325 0.930 . S
C341 C340 1.377 . S
C341 C342 1.379 . S
C342 H326 0.931 . S
C342 C336 1.383 . S
C342 C341 1.379 . S
H343 C337 0.959 . S
H344 C337 0.961 . S
H345 C337 0.960 1_556 S
H346 C338 0.930 . S
H347 C339 0.929 . S
H348 C356 0.929 . S
H349 C358 0.930 . S
H350 C360 0.930 . S
H351 C363 0.929 . S
H352 C366 0.930 . S
H353 C368 0.960 . S
H354 C368 0.960 . S
H355 C368 0.960 . S
C356 H348 0.929 . S
C356 C357 1.377 . S
C356 C358 1.384 . S
C357 C356 1.377 . S
C357 C363 1.390 . S
C358 H349 0.930 . S
C358 C356 1.384 . S
C358 C359 1.372 . S
C359 C358 1.372 . S
C359 C360 1.400 . S
C359 C364 1.490 . S
C360 H350 0.930 . S
C360 C359 1.400 . S
C360 C363 1.386 . S
H361 C377 0.930 . S
H362 C378 0.931 . S
C363 H351 0.929 . S
C363 C357 1.390 . S
C363 C360 1.386 . S
C364 C359 1.490 . S
C364 C366 1.395 1_545 S
C364 C367 1.403 . S
H365 C371 0.930 . S
C366 H352 0.930 . S
C366 C364 1.395 1_565 S
C366 C369 1.403 . S
C367 C364 1.403 . S
C367 C368 1.524 . S
C367 C371 1.400 . S
C368 H353 0.960 . S
C368 H354 0.960 . S
C368 H355 0.960 . S
C368 C367 1.524 . S
C369 C366 1.403 . S
C369 C370 1.392 . S
C369 C373 1.495 . S
C370 C369 1.392 . S
C370 C371 1.385 1_565 S
C370 C372 1.478 . S
C371 H365 0.930 . S
C371 C367 1.400 . S
C371 C370 1.385 1_545 S
C372 C370 1.478 . S
C372 C374 1.381 . S
C372 C378 1.383 . S
C373 C369 1.495 . S
C373 H379 0.959 . S
C373 H380 0.961 . S
C373 H381 0.960 . S
C374 C372 1.381 . S
C374 C375 1.394 . S
C374 H382 0.930 . S
C375 C374 1.394 . S
C375 C376 1.383 . S
C375 H383 0.929 . S
C376 C375 1.383 . S
C376 C377 1.377 . S
C377 H361 0.930 . S
C377 C376 1.377 . S
C377 C378 1.379 . S
C378 H362 0.931 . S
C378 C372 1.383 . S
C378 C377 1.379 . S
H379 C373 0.959 . S
H380 C373 0.961 . S
H381 C373 0.960 . S
H382 C374 0.930 . S
H383 C375 0.929 . S
H384 C392 0.929 . S
H385 C394 0.930 . S
H386 C396 0.930 . S
H387 C399 0.929 . S
H388 C402 0.930 . S
H389 C404 0.960 . S
H390 C404 0.960 . S
H391 C404 0.960 . S
C392 H384 0.929 . S
C392 C393 1.377 . S
C392 C394 1.384 . S
C393 C392 1.377 . S
C393 C399 1.390 . S
C394 H385 0.930 . S
C394 C392 1.384 . S
C394 C395 1.372 . S
C395 C394 1.372 . S
C395 C396 1.400 . S
C395 C400 1.490 . S
C396 H386 0.930 . S
C396 C395 1.400 . S
C396 C399 1.386 . S
H397 C413 0.930 . S
H398 C414 0.931 . S
C399 H387 0.929 . S
C399 C393 1.390 . S
C399 C396 1.386 . S
C400 C395 1.490 . S
C400 C402 1.395 1_556 S
C400 C403 1.403 . S
H401 C407 0.930 . S
C402 H388 0.930 . S
C402 C400 1.395 1_554 S
C402 C405 1.403 . S
C403 C400 1.403 . S
C403 C404 1.524 . S
C403 C407 1.400 1_556 S
C404 H389 0.960 . S
C404 H390 0.960 . S
C404 H391 0.960 . S
C404 C403 1.524 . S
C405 C402 1.403 . S
C405 C406 1.392 . S
C405 C409 1.495 . S
C406 C405 1.392 . S
C406 C407 1.385 . S
C406 C408 1.478 . S
C407 H401 0.930 . S
C407 C403 1.400 1_554 S
C407 C406 1.385 . S
C408 C406 1.478 . S
C408 C410 1.381 . S
C408 C414 1.383 . S
C409 C405 1.495 . S
C409 H415 0.959 . S
C409 H416 0.961 . S
C409 H417 0.960 . S
C410 C408 1.381 . S
C410 C411 1.394 . S
C410 H418 0.930 . S
C411 C410 1.394 . S
C411 C412 1.383 . S
C411 H419 0.929 . S
C412 C411 1.383 . S
C412 C413 1.377 . S
C413 H397 0.930 . S
C413 C412 1.377 . S
C413 C414 1.379 . S
C414 H398 0.931 . S
C414 C408 1.383 . S
C414 C413 1.379 . S
H415 C409 0.959 . S
H416 C409 0.961 . S
H417 C409 0.960 . S
H418 C410 0.930 . S
H419 C411 0.929 . S
H420 C428 0.929 . S
H421 C430 0.930 . S
H422 C432 0.930 . S
H423 C435 0.929 . S
H424 C438 0.930 . S
H425 C440 0.960 . S
H426 C440 0.960 . S
H427 C440 0.960 . S
C428 H420 0.929 . S
C428 C429 1.377 . S
C428 C430 1.384 . S
C429 C428 1.377 . S
C429 C435 1.390 . S
C430 H421 0.930 . S
C430 C428 1.384 . S
C430 C431 1.372 . S
C431 C430 1.372 . S
C431 C432 1.400 . S
C431 C436 1.490 . S
C432 H422 0.930 . S
C432 C431 1.400 . S
C432 C435 1.386 . S
H433 C449 0.930 . S
H434 C450 0.931 . S
C435 H423 0.929 . S
C435 C429 1.390 . S
C435 C432 1.386 . S
C436 C431 1.490 . S
C436 C438 1.395 . S
C436 C439 1.403 1_655 S
H437 C443 0.930 . S
C438 H424 0.930 . S
C438 C436 1.395 . S
C438 C441 1.403 . S
C439 C436 1.403 1_455 S
C439 C440 1.524 . S
C439 C443 1.400 . S
C440 H425 0.960 . S
C440 H426 0.960 . S
C440 H427 0.960 . S
C440 C439 1.524 . S
C441 C438 1.403 . S
C441 C442 1.392 1_655 S
C441 C445 1.495 . S
C442 C441 1.392 1_455 S
C442 C443 1.385 . S
C442 C444 1.478 . S
C443 H437 0.930 . S
C443 C439 1.400 . S
C443 C442 1.385 . S
C444 C442 1.478 . S
C444 C446 1.381 . S
C444 C450 1.383 . S
C445 C441 1.495 . S
C445 H451 0.959 . S
C445 H452 0.961 . S
C445 H453 0.960 . S
C446 C444 1.381 . S
C446 C447 1.394 . S
C446 H454 0.930 . S
C447 C446 1.394 . S
C447 C448 1.383 . S
C447 H455 0.929 . S
C448 C447 1.383 . S
C448 C449 1.377 . S
C449 H433 0.930 . S
C449 C448 1.377 . S
C449 C450 1.379 . S
C450 H434 0.931 . S
C450 C444 1.383 . S
C450 C449 1.379 . S
H451 C445 0.959 . S
H452 C445 0.961 . S
H453 C445 0.960 . S
H454 C446 0.930 . S
H455 C447 0.929 . S
H456 C464 0.929 . S
H457 C466 0.930 . S
H458 C468 0.930 . S
H459 C471 0.929 . S
H460 C474 0.930 . S
H461 C476 0.960 . S
H462 C476 0.960 . S
H463 C476 0.960 . S
C464 H456 0.929 . S
C464 C465 1.377 . S
C464 C466 1.384 . S
C465 C464 1.377 . S
C465 C471 1.390 . S
C466 H457 0.930 . S
C466 C464 1.384 . S
C466 C467 1.372 . S
C467 C466 1.372 . S
C467 C468 1.400 . S
C467 C472 1.490 . S
C468 H458 0.930 . S
C468 C467 1.400 . S
C468 C471 1.386 . S
H469 C485 0.930 . S
H470 C486 0.931 . S
C471 H459 0.929 . S
C471 C465 1.390 . S
C471 C468 1.386 . S
C472 C467 1.490 . S
C472 C474 1.395 . S
C472 C475 1.403 . S
H473 C479 0.930 . S
C474 H460 0.930 . S
C474 C472 1.395 . S
C474 C477 1.403 . S
C475 C472 1.403 . S
C475 C476 1.524 . S
C475 C479 1.400 . S
C476 H461 0.960 . S
C476 H462 0.960 . S
C476 H463 0.960 . S
C476 C475 1.524 . S
C477 C474 1.403 . S
C477 C478 1.392 . S
C477 C481 1.495 . S
C478 C477 1.392 . S
C478 C479 1.385 . S
C478 C480 1.478 . S
C479 H473 0.930 . S
C479 C475 1.400 . S
C479 C478 1.385 . S
C480 C478 1.478 . S
C480 C482 1.381 . S
C480 C486 1.383 . S
C481 C477 1.495 . S
C481 H487 0.959 . S
C481 H488 0.961 . S
C481 H489 0.960 . S
C482 C480 1.381 . S
C482 C483 1.394 . S
C482 H490 0.930 . S
C483 C482 1.394 . S
C483 C484 1.383 . S
C483 H491 0.929 . S
C484 C483 1.383 . S
C484 C485 1.377 . S
C485 H469 0.930 . S
C485 C484 1.377 . S
C485 C486 1.379 . S
C486 H470 0.931 . S
C486 C480 1.383 . S
C486 C485 1.379 . S
H487 C481 0.959 . S
H488 C481 0.961 . S
H489 C481 0.960 . S
H490 C482 0.930 . S
H491 C483 0.929 . S
H492 C500 0.929 . S
H493 C502 0.930 . S
H494 C504 0.930 . S
H495 C507 0.929 . S
H496 C510 0.930 . S
H497 C512 0.960 . S
H498 C512 0.960 . S
H499 C512 0.960 . S
C500 H492 0.929 . S
C500 C501 1.377 . S
C500 C502 1.384 . S
C501 C500 1.377 . S
C501 C507 1.390 . S
C502 H493 0.930 . S
C502 C500 1.384 . S
C502 C503 1.372 . S
C503 C502 1.372 . S
C503 C504 1.400 . S
C503 C508 1.490 . S
C504 H494 0.930 . S
C504 C503 1.400 . S
C504 C507 1.386 . S
H505 C521 0.930 . S
H506 C522 0.931 . S
C507 H495 0.929 . S
C507 C501 1.390 . S
C507 C504 1.386 . S
C508 C503 1.490 . S
C508 C510 1.395 . S
C508 C511 1.403 . S
H509 C515 0.930 . S
C510 H496 0.930 . S
C510 C508 1.395 . S
C510 C513 1.403 . S
C511 C508 1.403 . S
C511 C512 1.524 . S
C511 C515 1.400 . S
C512 H497 0.960 . S
C512 H498 0.960 . S
C512 H499 0.960 . S
C512 C511 1.524 . S
C513 C510 1.403 . S
C513 C514 1.392 . S
C513 C517 1.495 . S
C514 C513 1.392 . S
C514 C515 1.385 . S
C514 C516 1.478 . S
C515 H509 0.930 . S
C515 C511 1.400 . S
C515 C514 1.385 . S
C516 C514 1.478 . S
C516 C518 1.381 . S
C516 C522 1.383 . S
C517 C513 1.495 . S
C517 H523 0.959 . S
C517 H524 0.961 . S
C517 H525 0.960 . S
C518 C516 1.381 . S
C518 C519 1.394 . S
C518 H526 0.930 . S
C519 C518 1.394 . S
C519 C520 1.383 . S
C519 H527 0.929 . S
C520 C519 1.383 . S
C520 C521 1.377 . S
C521 H505 0.930 . S
C521 C520 1.377 . S
C521 C522 1.379 . S
C522 H506 0.931 . S
C522 C516 1.383 . S
C522 C521 1.379 . S
H523 C517 0.959 . S
H524 C517 0.961 . S
H525 C517 0.960 . S
H526 C518 0.930 . S
H527 C519 0.929 . S
H528 C536 0.929 . S
H529 C538 0.930 . S
H530 C540 0.930 . S
H531 C543 0.929 . S
H532 C546 0.930 . S
H533 C548 0.960 . S
H534 C548 0.960 . S
H535 C548 0.960 . S
C536 H528 0.929 . S
C536 C537 1.377 . S
C536 C538 1.384 . S
C537 C536 1.377 . S
C537 C543 1.390 . S
C538 H529 0.930 . S
C538 C536 1.384 . S
C538 C539 1.372 . S
C539 C538 1.372 . S
C539 C540 1.400 . S
C539 C544 1.490 . S
C540 H530 0.930 . S
C540 C539 1.400 . S
C540 C543 1.386 . S
H541 C557 0.930 . S
H542 C558 0.931 . S
C543 H531 0.929 . S
C543 C537 1.390 . S
C543 C540 1.386 . S
C544 C539 1.490 . S
C544 C546 1.395 . S
C544 C547 1.403 . S
H545 C551 0.930 . S
C546 H532 0.930 . S
C546 C544 1.395 . S
C546 C549 1.403 . S
C547 C544 1.403 . S
C547 C548 1.524 . S
C547 C551 1.400 . S
C548 H533 0.960 . S
C548 H534 0.960 . S
C548 H535 0.960 . S
C548 C547 1.524 . S
C549 C546 1.403 . S
C549 C550 1.392 . S
C549 C553 1.495 . S
C550 C549 1.392 . S
C550 C551 1.385 . S
C550 C552 1.478 . S
C551 H545 0.930 . S
C551 C547 1.400 . S
C551 C550 1.385 . S
C552 C550 1.478 . S
C552 C554 1.381 . S
C552 C558 1.383 . S
C553 C549 1.495 . S
C553 H559 0.959 . S
C553 H560 0.961 . S
C553 H561 0.960 . S
C554 C552 1.381 . S
C554 C555 1.394 . S
C554 H562 0.930 . S
C555 C554 1.394 . S
C555 C556 1.383 . S
C555 H563 0.929 . S
C556 C555 1.383 . S
C556 C557 1.377 . S
C557 H541 0.930 . S
C557 C556 1.377 . S
C557 C558 1.379 . S
C558 H542 0.931 . S
C558 C552 1.383 . S
C558 C557 1.379 . S
H559 C553 0.959 . S
H560 C553 0.961 . S
H561 C553 0.960 . S
H562 C554 0.930 . S
H563 C555 0.929 . S
H564 C572 0.929 . S
H565 C574 0.930 . S
H566 C576 0.930 . S
H567 C579 0.929 . S
H568 C582 0.930 . S
H569 C584 0.960 . S
H570 C584 0.960 . S
H571 C584 0.960 . S
C572 H564 0.929 . S
C572 C573 1.377 . S
C572 C574 1.384 . S
C573 C572 1.377 . S
C573 C579 1.390 . S
C574 H565 0.930 . S
C574 C572 1.384 . S
C574 C575 1.372 . S
C575 C574 1.372 . S
C575 C576 1.400 . S
C575 C580 1.490 . S
C576 H566 0.930 . S
C576 C575 1.400 . S
C576 C579 1.386 . S
H577 C593 0.930 . S
H578 C594 0.931 . S
C579 H567 0.929 . S
C579 C573 1.390 . S
C579 C576 1.386 . S
C580 C575 1.490 . S
C580 C582 1.395 . S
C580 C583 1.403 . S
H581 C587 0.930 . S
C582 H568 0.930 . S
C582 C580 1.395 . S
C582 C585 1.403 . S
C583 C580 1.403 . S
C583 C584 1.524 . S
C583 C587 1.400 . S
C584 H569 0.960 . S
C584 H570 0.960 . S
C584 H571 0.960 . S
C584 C583 1.524 . S
C585 C582 1.403 . S
C585 C586 1.392 . S
C585 C589 1.495 . S
C586 C585 1.392 . S
C586 C587 1.385 . S
C586 C588 1.478 . S
C587 H581 0.930 . S
C587 C583 1.400 . S
C587 C586 1.385 . S
C588 C586 1.478 . S
C588 C590 1.381 . S
C588 C594 1.383 . S
C589 C585 1.495 . S
C589 H595 0.959 . S
C589 H596 0.961 . S
C589 H597 0.960 . S
C590 C588 1.381 . S
C590 C591 1.394 . S
C590 H598 0.930 . S
C591 C590 1.394 . S
C591 C592 1.383 . S
C591 H599 0.929 . S
C592 C591 1.383 . S
C592 C593 1.377 . S
C593 H577 0.930 . S
C593 C592 1.377 . S
C593 C594 1.379 . S
C594 H578 0.931 . S
C594 C588 1.383 . S
C594 C593 1.379 . S
H595 C589 0.959 . S
H596 C589 0.961 . S
H597 C589 0.960 . S
H598 C590 0.930 . S
H599 C591 0.929 . S
H600 C608 0.929 . S
H601 C610 0.930 . S
H602 C612 0.930 . S
H603 C615 0.929 . S
H604 C618 0.930 . S
H605 C620 0.960 . S
H606 C620 0.960 . S
H607 C620 0.960 . S
C608 H600 0.929 . S
C608 C609 1.377 . S
C608 C610 1.384 . S
C609 C608 1.377 . S
C609 C615 1.390 . S
C610 H601 0.930 . S
C610 C608 1.384 . S
C610 C611 1.372 . S
C611 C610 1.372 . S
C611 C612 1.400 . S
C611 C616 1.490 . S
C612 H602 0.930 . S
C612 C611 1.400 . S
C612 C615 1.386 . S
H613 C629 0.930 . S
H614 C630 0.931 . S
C615 H603 0.929 . S
C615 C609 1.390 . S
C615 C612 1.386 . S
C616 C611 1.490 . S
C616 C618 1.395 . S
C616 C619 1.403 . S
H617 C623 0.930 . S
C618 H604 0.930 . S
C618 C616 1.395 . S
C618 C621 1.403 . S
C619 C616 1.403 . S
C619 C620 1.524 . S
C619 C623 1.400 . S
C620 H605 0.960 . S
C620 H606 0.960 . S
C620 H607 0.960 . S
C620 C619 1.524 . S
C621 C618 1.403 . S
C621 C622 1.392 . S
C621 C625 1.495 . S
C622 C621 1.392 . S
C622 C623 1.385 . S
C622 C624 1.478 . S
C623 H617 0.930 . S
C623 C619 1.400 . S
C623 C622 1.385 . S
C624 C622 1.478 . S
C624 C626 1.381 . S
C624 C630 1.383 . S
C625 C621 1.495 . S
C625 H631 0.959 . S
C625 H632 0.961 . S
C625 H633 0.960 . S
C626 C624 1.381 . S
C626 C627 1.394 . S
C626 H634 0.930 . S
C627 C626 1.394 . S
C627 C628 1.383 . S
C627 H635 0.929 . S
C628 C627 1.383 . S
C628 C629 1.377 . S
C629 H613 0.930 . S
C629 C628 1.377 . S
C629 C630 1.379 . S
C630 H614 0.931 . S
C630 C624 1.383 . S
C630 C629 1.379 . S
H631 C625 0.959 . S
H632 C625 0.961 . S
H633 C625 0.960 . S
H634 C626 0.930 . S
H635 C627 0.929 . S
H636 C644 0.929 . S
H637 C646 0.930 . S
H638 C648 0.930 . S
H639 C651 0.929 . S
H640 C654 0.930 . S
H641 C656 0.960 . S
H642 C656 0.960 . S
H643 C656 0.960 . S
C644 H636 0.929 . S
C644 C645 1.377 . S
C644 C646 1.384 . S
C645 C644 1.377 . S
C645 C651 1.390 . S
C646 H637 0.930 . S
C646 C644 1.384 . S
C646 C647 1.372 . S
C647 C646 1.372 . S
C647 C648 1.400 . S
C647 C652 1.490 . S
C648 H638 0.930 . S
C648 C647 1.400 . S
C648 C651 1.386 . S
H649 C665 0.930 . S
H650 C666 0.931 . S
C651 H639 0.929 . S
C651 C645 1.390 . S
C651 C648 1.386 . S
C652 C647 1.490 . S
C652 C654 1.395 . S
C652 C655 1.403 . S
H653 C659 0.930 . S
C654 H640 0.930 . S
C654 C652 1.395 . S
C654 C657 1.403 . S
C655 C652 1.403 . S
C655 C656 1.524 . S
C655 C659 1.400 . S
C656 H641 0.960 . S
C656 H642 0.960 . S
C656 H643 0.960 . S
C656 C655 1.524 . S
C657 C654 1.403 . S
C657 C658 1.392 . S
C657 C661 1.495 . S
C658 C657 1.392 . S
C658 C659 1.385 . S
C658 C660 1.478 . S
C659 H653 0.930 . S
C659 C655 1.400 . S
C659 C658 1.385 . S
C660 C658 1.478 . S
C660 C662 1.381 . S
C660 C666 1.383 . S
C661 C657 1.495 . S
C661 H667 0.959 . S
C661 H668 0.961 . S
C661 H669 0.960 . S
C662 C660 1.381 . S
C662 C663 1.394 . S
C662 H670 0.930 . S
C663 C662 1.394 . S
C663 C664 1.383 . S
C663 H671 0.929 . S
C664 C663 1.383 . S
C664 C665 1.377 . S
C665 H649 0.930 . S
C665 C664 1.377 . S
C665 C666 1.379 . S
C666 H650 0.931 . S
C666 C660 1.383 . S
C666 C665 1.379 . S
H667 C661 0.959 . S
H668 C661 0.961 . S
H669 C661 0.960 . S
H670 C662 0.930 . S
H671 C663 0.929 . S
H672 C680 0.929 . S
H673 C682 0.930 . S
H674 C684 0.930 . S
H675 C687 0.929 . S
H676 C690 0.930 . S
H677 C692 0.960 1_655 S
H678 C692 0.960 . S
H679 C692 0.960 . S
C680 H672 0.929 . S
C680 C681 1.377 . S
C680 C682 1.384 . S
C681 C680 1.377 . S
C681 C687 1.390 . S
C682 H673 0.930 . S
C682 C680 1.384 . S
C682 C683 1.372 . S
C683 C682 1.372 . S
C683 C684 1.400 . S
C683 C688 1.490 . S
C684 H674 0.930 . S
C684 C683 1.400 . S
C684 C687 1.386 . S
H685 C701 0.930 . S
H686 C702 0.931 . S
C687 H675 0.929 . S
C687 C681 1.390 . S
C687 C684 1.386 . S
C688 C683 1.490 . S
C688 C690 1.395 . S
C688 C691 1.403 . S
H689 C695 0.930 1_655 S
C690 H676 0.930 . S
C690 C688 1.395 . S
C690 C693 1.403 . S
C691 C688 1.403 . S
C691 C692 1.524 . S
C691 C695 1.400 . S
C692 H677 0.960 1_455 S
C692 H678 0.960 . S
C692 H679 0.960 . S
C692 C691 1.524 . S
C693 C690 1.403 . S
C693 C694 1.392 . S
C693 C697 1.495 . S
C694 C693 1.392 . S
C694 C695 1.385 . S
C694 C696 1.478 . S
C695 H689 0.930 1_455 S
C695 C691 1.400 . S
C695 C694 1.385 . S
C696 C694 1.478 . S
C696 C698 1.381 . S
C696 C702 1.383 1_455 S
C697 C693 1.495 . S
C697 H703 0.959 . S
C697 H704 0.961 . S
C697 H705 0.960 . S
C698 C696 1.381 . S
C698 C699 1.394 1_455 S
C698 H706 0.930 . S
C699 C698 1.394 1_655 S
C699 C700 1.383 . S
C699 H707 0.929 . S
C700 C699 1.383 . S
C700 C701 1.377 . S
C701 H685 0.930 . S
C701 C700 1.377 . S
C701 C702 1.379 . S
C702 H686 0.931 . S
C702 C696 1.383 1_655 S
C702 C701 1.379 . S
H703 C697 0.959 . S
H704 C697 0.961 . S
H705 C697 0.960 . S
H706 C698 0.930 . S
H707 C699 0.929 . S
H708 C716 0.929 . S
H709 C718 0.930 . S
H710 C720 0.930 . S
H711 C723 0.929 . S
H712 C726 0.930 . S
H713 C728 0.960 1_545 S
H714 C728 0.960 . S
H715 C728 0.960 . S
C716 H708 0.929 . S
C716 C717 1.377 . S
C716 C718 1.384 1_655 S
C717 C716 1.377 . S
C717 C723 1.390 . S
C718 H709 0.930 . S
C718 C716 1.384 1_455 S
C718 C719 1.372 . S
C719 C718 1.372 . S
C719 C720 1.400 . S
C719 C724 1.490 . S
C720 H710 0.930 . S
C720 C719 1.400 . S
C720 C723 1.386 1_455 S
H721 C737 0.930 . S
H722 C738 0.931 . S
C723 H711 0.929 . S
C723 C717 1.390 . S
C723 C720 1.386 1_655 S
C724 C719 1.490 . S
C724 C726 1.395 . S
C724 C727 1.403 . S
H725 C731 0.930 1_545 S
C726 H712 0.930 . S
C726 C724 1.395 . S
C726 C729 1.403 . S
C727 C724 1.403 . S
C727 C728 1.524 . S
C727 C731 1.400 . S
C728 H713 0.960 1_565 S
C728 H714 0.960 . S
C728 H715 0.960 . S
C728 C727 1.524 . S
C729 C726 1.403 . S
C729 C730 1.392 . S
C729 C733 1.495 . S
C730 C729 1.392 . S
C730 C731 1.385 . S
C730 C732 1.478 . S
C731 H725 0.930 1_565 S
C731 C727 1.400 . S
C731 C730 1.385 . S
C732 C730 1.478 . S
C732 C734 1.381 . S
C732 C738 1.382 . S
C733 C729 1.495 . S
C733 H739 0.959 . S
C733 H740 0.961 . S
C733 H741 0.960 . S
C734 C732 1.381 . S
C734 C735 1.394 1_565 S
C734 H742 0.930 . S
C735 C734 1.394 1_545 S
C735 C736 1.383 . S
C735 H743 0.929 . S
C736 C735 1.383 . S
C736 C737 1.377 . S
C737 H721 0.930 . S
C737 C736 1.377 . S
C737 C738 1.380 1_545 S
C738 H722 0.931 . S
C738 C732 1.382 . S
C738 C737 1.380 1_565 S
H739 C733 0.959 . S
H740 C733 0.961 . S
H741 C733 0.960 . S
H742 C734 0.930 . S
H743 C735 0.929 . S
H744 C752 0.929 . S
H745 C754 0.930 . S
H746 C756 0.930 . S
H747 C759 0.929 . S
H748 C762 0.930 . S
H749 C764 0.960 . S
H750 C764 0.960 . S
H751 C764 0.960 . S
C752 H744 0.929 . S
C752 C753 1.377 . S
C752 C754 1.384 1_545 S
C753 C752 1.377 . S
C753 C759 1.390 . S
C754 H745 0.930 . S
C754 C752 1.384 1_565 S
C754 C755 1.372 . S
C755 C754 1.372 . S
C755 C756 1.400 . S
C755 C760 1.490 . S
C756 H746 0.930 . S
C756 C755 1.400 . S
C756 C759 1.386 1_565 S
H757 C773 0.930 . S
H758 C774 0.931 . S
C759 H747 0.929 . S
C759 C753 1.390 . S
C759 C756 1.386 1_545 S
C760 C755 1.490 . S
C760 C762 1.395 . S
C760 C763 1.403 . S
H761 C767 0.930 . S
C762 H748 0.930 . S
C762 C760 1.395 . S
C762 C765 1.403 . S
C763 C760 1.403 . S
C763 C764 1.524 . S
C763 C767 1.400 . S
C764 H749 0.960 . S
C764 H750 0.960 . S
C764 H751 0.960 . S
C764 C763 1.524 . S
C765 C762 1.403 . S
C765 C766 1.392 . S
C765 C769 1.495 . S
C766 C765 1.392 . S
C766 C767 1.385 . S
C766 C768 1.478 . S
C767 H761 0.930 . S
C767 C763 1.400 . S
C767 C766 1.385 . S
C768 C766 1.478 . S
C768 C770 1.381 . S
C768 C774 1.383 . S
C769 C765 1.495 . S
C769 H775 0.959 . S
C769 H776 0.961 . S
C769 H777 0.960 . S
C770 C768 1.381 . S
C770 C771 1.394 . S
C770 H778 0.930 . S
C771 C770 1.394 . S
C771 C772 1.383 . S
C771 H779 0.929 . S
C772 C771 1.383 . S
C772 C773 1.377 . S
C773 H757 0.930 . S
C773 C772 1.377 . S
C773 C774 1.379 . S
C774 H758 0.931 . S
C774 C768 1.383 . S
C774 C773 1.379 . S
H775 C769 0.959 . S
H776 C769 0.961 . S
H777 C769 0.960 . S
H778 C770 0.930 . S
H779 C771 0.929 . S
H780 C788 0.929 . S
H781 C790 0.930 . S
H782 C792 0.930 . S
H783 C795 0.929 . S
H784 C798 0.930 . S
H785 C800 0.960 . S
H786 C800 0.960 . S
H787 C800 0.960 . S
C788 H780 0.929 . S
C788 C789 1.377 . S
C788 C790 1.384 . S
C789 C788 1.377 . S
C789 C795 1.390 . S
C790 H781 0.930 . S
C790 C788 1.384 . S
C790 C791 1.372 . S
C791 C790 1.372 . S
C791 C792 1.400 . S
C791 C796 1.490 . S
C792 H782 0.930 . S
C792 C791 1.400 . S
C792 C795 1.386 . S
H793 C809 0.930 . S
H794 C810 0.931 . S
C795 H783 0.929 . S
C795 C789 1.390 . S
C795 C792 1.386 . S
C796 C791 1.490 . S
C796 C798 1.395 . S
C796 C799 1.403 . S
H797 C803 0.930 . S
C798 H784 0.930 . S
C798 C796 1.395 . S
C798 C801 1.403 . S
C799 C796 1.403 . S
C799 C800 1.524 . S
C799 C803 1.400 . S
C800 H785 0.960 . S
C800 H786 0.960 . S
C800 H787 0.960 . S
C800 C799 1.524 . S
C801 C798 1.403 . S
C801 C802 1.392 . S
C801 C805 1.495 . S
C802 C801 1.392 . S
C802 C803 1.385 . S
C802 C804 1.478 . S
C803 H797 0.930 . S
C803 C799 1.400 . S
C803 C802 1.385 . S
C804 C802 1.478 . S
C804 C806 1.381 . S
C804 C810 1.383 1_545 S
C805 C801 1.495 . S
C805 H811 0.959 . S
C805 H812 0.961 1_545 S
C805 H813 0.960 . S
C806 C804 1.381 . S
C806 C807 1.394 1_545 S
C806 H814 0.930 . S
C807 C806 1.394 1_565 S
C807 C808 1.383 . S
C807 H815 0.929 . S
C808 C807 1.383 . S
C808 C809 1.377 . S
C809 H793 0.930 . S
C809 C808 1.377 . S
C809 C810 1.379 . S
C810 H794 0.931 . S
C810 C804 1.383 1_565 S
C810 C809 1.379 . S
H811 C805 0.959 . S
H812 C805 0.961 1_565 S
H813 C805 0.960 . S
H814 C806 0.930 . S
H815 C807 0.929 . S
H816 C824 0.929 . S
H817 C826 0.930 . S
H818 C828 0.930 . S
H819 C831 0.929 . S
H820 C834 0.930 . S
H821 C836 0.960 . S
H822 C836 0.960 . S
H823 C836 0.960 . S
C824 H816 0.929 . S
C824 C825 1.377 . S
C824 C826 1.384 1_455 S
C825 C824 1.377 . S
C825 C831 1.390 . S
C826 H817 0.930 . S
C826 C824 1.384 1_655 S
C826 C827 1.372 . S
C827 C826 1.372 . S
C827 C828 1.400 . S
C827 C832 1.490 . S
C828 H818 0.930 . S
C828 C827 1.400 . S
C828 C831 1.386 1_655 S
H829 C845 0.930 . S
H830 C846 0.931 . S
C831 H819 0.929 . S
C831 C825 1.390 . S
C831 C828 1.386 1_455 S
C832 C827 1.490 . S
C832 C834 1.395 . S
C832 C835 1.403 . S
H833 C839 0.930 . S
C834 H820 0.930 . S
C834 C832 1.395 . S
C834 C837 1.403 . S
C835 C832 1.403 . S
C835 C836 1.524 . S
C835 C839 1.400 . S
C836 H821 0.960 . S
C836 H822 0.960 . S
C836 H823 0.960 . S
C836 C835 1.524 . S
C837 C834 1.403 . S
C837 C838 1.392 . S
C837 C841 1.495 . S
C838 C837 1.392 . S
C838 C839 1.385 . S
C838 C840 1.478 . S
C839 H833 0.930 . S
C839 C835 1.400 . S
C839 C838 1.385 . S
C840 C838 1.478 . S
C840 C842 1.381 . S
C840 C846 1.383 . S
C841 C837 1.495 . S
C841 H847 0.959 . S
C841 H848 0.961 . S
C841 H849 0.960 . S
C842 C840 1.381 . S
C842 C843 1.394 . S
C842 H850 0.930 . S
C843 C842 1.394 . S
C843 C844 1.383 . S
C843 H851 0.929 . S
C844 C843 1.383 . S
C844 C845 1.377 . S
C845 H829 0.930 . S
C845 C844 1.377 . S
C845 C846 1.379 . S
C846 H830 0.931 . S
C846 C840 1.383 . S
C846 C845 1.379 . S
H847 C841 0.959 . S
H848 C841 0.961 . S
H849 C841 0.960 . S
H850 C842 0.930 . S
H851 C843 0.929 . S
H852 C860 0.929 . S
H853 C862 0.930 . S
H854 C864 0.930 . S
H855 C867 0.929 . S
H856 C870 0.930 1_455 S
H857 C872 0.960 . S
H858 C872 0.960 . S
H859 C872 0.960 . S
C860 H852 0.929 . S
C860 C861 1.377 . S
C860 C862 1.384 . S
C861 C860 1.377 . S
C861 C867 1.390 . S
C862 H853 0.930 . S
C862 C860 1.384 . S
C862 C863 1.372 1_455 S
C863 C862 1.372 1_655 S
C863 C864 1.400 . S
C863 C868 1.490 . S
C864 H854 0.930 . S
C864 C863 1.400 . S
C864 C867 1.386 1_655 S
H865 C881 0.930 . S
H866 C882 0.931 . S
C867 H855 0.929 . S
C867 C861 1.390 . S
C867 C864 1.386 1_455 S
C868 C863 1.490 . S
C868 C870 1.395 . S
C868 C871 1.403 . S
H869 C875 0.930 . S
C870 H856 0.930 1_655 S
C870 C868 1.395 . S
C870 C873 1.403 . S
C871 C868 1.403 . S
C871 C872 1.524 . S
C871 C875 1.400 . S
C872 H857 0.960 . S
C872 H858 0.960 . S
C872 H859 0.960 . S
C872 C871 1.524 . S
C873 C870 1.403 . S
C873 C874 1.392 . S
C873 C877 1.495 . S
C874 C873 1.392 . S
C874 C875 1.385 . S
C874 C876 1.478 . S
C875 H869 0.930 . S
C875 C871 1.400 . S
C875 C874 1.385 . S
C876 C874 1.478 . S
C876 C878 1.381 . S
C876 C882 1.383 . S
C877 C873 1.495 . S
C877 H883 0.959 1_655 S
C877 H884 0.961 . S
C877 H885 0.960 . S
C878 C876 1.381 . S
C878 C879 1.394 1_545 S
C878 H886 0.930 . S
C879 C878 1.394 1_565 S
C879 C880 1.383 . S
C879 H887 0.929 . S
C880 C879 1.383 . S
C880 C881 1.377 . S
C881 H865 0.930 . S
C881 C880 1.377 . S
C881 C882 1.379 1_565 S
C882 H866 0.931 . S
C882 C876 1.383 . S
C882 C881 1.379 1_545 S
H883 C877 0.959 1_455 S
H884 C877 0.961 . S
H885 C877 0.960 . S
H886 C878 0.930 . S
H887 C879 0.929 . S
C249 C178 2.326 . S
C268 C18 2.505 . S
C285 C209 2.493 . S
C304 C49 2.312 . S
C321 C98 2.499 . S
C340 C138 2.334 . S
C357 C9 2.326 . S
C376 C169 2.508 . S
C393 C218 2.326 . S
C412 C58 2.485 . S
C429 C89 2.319 . S
C448 C129 2.486 . S
C465 C6 1.894 . S
C484 C90 1.843 . S
C501 C46 1.892 . S
C520 C10 1.830 . S
C537 C86 1.895 . S
C556 C50 1.850 . S
C573 C135 1.894 . S
C592 C179 1.842 . S
C609 C175 1.893 . S
C628 C219 1.805 . S
C645 C139 1.825 . S
C664 C215 1.891 . S
C681 C15 1.006 . S
C700 C99 1.033 . S
C717 C55 1.007 . S
C736 C19 1.036 . S
C753 C95 1.007 . S
C772 C59 1.037 . S
C789 C126 0.993 . S
C808 C170 1.020 . S
C825 C166 0.993 . S
C844 C210 1.017 . S
C861 C130 1.014 . S
C880 C206 1.037 . S
