# Generated by pormake.
# Topology ato, (4)-cn, num edge types: 1
# Building blocks:
#     Node 0, Type 0, BuildingBlock: NAHDIM_clean_sbu_0, # of connection points: 4
#     Node 1, Type 0, BuildingBlock: NAHDIM_clean_sbu_0, # of connection points: 4
#     Node 2, Type 0, BuildingBlock: NAHDIM_clean_sbu_0, # of connection points: 4
#     Node 3, Type 0, BuildingBlock: NAHDIM_clean_sbu_0, # of connection points: 4
#     Node 4, Type 0, BuildingBlock: NAHDIM_clean_sbu_0, # of connection points: 4
#     Node 5, Type 0, BuildingBlock: NAHDIM_clean_sbu_0, # of connection points: 4
#     Node 6, Type 0, BuildingBlock: NAHDIM_clean_sbu_0, # of connection points: 4
#     Node 7, Type 0, BuildingBlock: NAHDIM_clean_sbu_0, # of connection points: 4
#     Node 8, Type 0, BuildingBlock: NAHDIM_clean_sbu_0, # of connection points: 4
#     Node 9, Type 0, BuildingBlock: NAHDIM_clean_sbu_0, # of connection points: 4
#     Node 10, Type 0, BuildingBlock: NAHDIM_clean_sbu_0, # of connection points: 4
#     Node 11, Type 0, BuildingBlock: NAHDIM_clean_sbu_0, # of connection points: 4
#     Node 12, Type 0, BuildingBlock: NAHDIM_clean_sbu_0, # of connection points: 4
#     Node 13, Type 0, BuildingBlock: NAHDIM_clean_sbu_0, # of connection points: 4
#     Node 14, Type 0, BuildingBlock: NAHDIM_clean_sbu_0, # of connection points: 4
#     Node 15, Type 0, BuildingBlock: NAHDIM_clean_sbu_0, # of connection points: 4
#     Node 16, Type 0, BuildingBlock: NAHDIM_clean_sbu_0, # of connection points: 4
#     Node 17, Type 0, BuildingBlock: NAHDIM_clean_sbu_0, # of connection points: 4
#     Node 18, Type 0, BuildingBlock: NAHDIM_clean_sbu_0, # of connection points: 4
#     Node 19, Type 0, BuildingBlock: NAHDIM_clean_sbu_0, # of connection points: 4
#     Node 20, Type 0, BuildingBlock: NAHDIM_clean_sbu_0, # of connection points: 4
#     Node 21, Type 0, BuildingBlock: NAHDIM_clean_sbu_0, # of connection points: 4
#     Node 22, Type 0, BuildingBlock: NAHDIM_clean_sbu_0, # of connection points: 4
#     Node 23, Type 0, BuildingBlock: NAHDIM_clean_sbu_0, # of connection points: 4
#     Node 24, Type 0, BuildingBlock: NAHDIM_clean_sbu_0, # of connection points: 4
#     Node 25, Type 0, BuildingBlock: NAHDIM_clean_sbu_0, # of connection points: 4
#     Node 26, Type 0, BuildingBlock: NAHDIM_clean_sbu_0, # of connection points: 4
#     Node 27, Type 0, BuildingBlock: NAHDIM_clean_sbu_0, # of connection points: 4
#     Node 28, Type 0, BuildingBlock: NAHDIM_clean_sbu_0, # of connection points: 4
#     Node 29, Type 0, BuildingBlock: NAHDIM_clean_sbu_0, # of connection points: 4
#     Node 30, Type 0, BuildingBlock: NAHDIM_clean_sbu_0, # of connection points: 4
#     Node 31, Type 0, BuildingBlock: NAHDIM_clean_sbu_0, # of connection points: 4
#     Node 32, Type 0, BuildingBlock: NAHDIM_clean_sbu_0, # of connection points: 4
#     Node 33, Type 0, BuildingBlock: NAHDIM_clean_sbu_0, # of connection points: 4
#     Node 34, Type 0, BuildingBlock: NAHDIM_clean_sbu_0, # of connection points: 4
#     Node 35, Type 0, BuildingBlock: NAHDIM_clean_sbu_0, # of connection points: 4
#     Edge 36, Type (0, 0), BuildingBlock: UVAHIK_clean_linker_0, # of connection points: 2
#     Edge 37, Type (0, 0), BuildingBlock: UVAHIK_clean_linker_0, # of connection points: 2
#     Edge 38, Type (0, 0), BuildingBlock: UVAHIK_clean_linker_0, # of connection points: 2
#     Edge 39, Type (0, 0), BuildingBlock: UVAHIK_clean_linker_0, # of connection points: 2
#     Edge 40, Type (0, 0), BuildingBlock: UVAHIK_clean_linker_0, # of connection points: 2
#     Edge 41, Type (0, 0), BuildingBlock: UVAHIK_clean_linker_0, # of connection points: 2
#     Edge 42, Type (0, 0), BuildingBlock: UVAHIK_clean_linker_0, # of connection points: 2
#     Edge 43, Type (0, 0), BuildingBlock: UVAHIK_clean_linker_0, # of connection points: 2
#     Edge 44, Type (0, 0), BuildingBlock: UVAHIK_clean_linker_0, # of connection points: 2
#     Edge 45, Type (0, 0), BuildingBlock: UVAHIK_clean_linker_0, # of connection points: 2
#     Edge 46, Type (0, 0), BuildingBlock: UVAHIK_clean_linker_0, # of connection points: 2
#     Edge 47, Type (0, 0), BuildingBlock: UVAHIK_clean_linker_0, # of connection points: 2
#     Edge 48, Type (0, 0), BuildingBlock: UVAHIK_clean_linker_0, # of connection points: 2
#     Edge 49, Type (0, 0), BuildingBlock: UVAHIK_clean_linker_0, # of connection points: 2
#     Edge 50, Type (0, 0), BuildingBlock: UVAHIK_clean_linker_0, # of connection points: 2
#     Edge 51, Type (0, 0), BuildingBlock: UVAHIK_clean_linker_0, # of connection points: 2
#     Edge 52, Type (0, 0), BuildingBlock: UVAHIK_clean_linker_0, # of connection points: 2
#     Edge 53, Type (0, 0), BuildingBlock: UVAHIK_clean_linker_0, # of connection points: 2
#     Edge 54, Type (0, 0), BuildingBlock: UVAHIK_clean_linker_0, # of connection points: 2
#     Edge 55, Type (0, 0), BuildingBlock: UVAHIK_clean_linker_0, # of connection points: 2
#     Edge 56, Type (0, 0), BuildingBlock: UVAHIK_clean_linker_0, # of connection points: 2
#     Edge 57, Type (0, 0), BuildingBlock: UVAHIK_clean_linker_0, # of connection points: 2
#     Edge 58, Type (0, 0), BuildingBlock: UVAHIK_clean_linker_0, # of connection points: 2
#     Edge 59, Type (0, 0), BuildingBlock: UVAHIK_clean_linker_0, # of connection points: 2
#     Edge 60, Type (0, 0), BuildingBlock: UVAHIK_clean_linker_0, # of connection points: 2
#     Edge 61, Type (0, 0), BuildingBlock: UVAHIK_clean_linker_0, # of connection points: 2
#     Edge 62, Type (0, 0), BuildingBlock: UVAHIK_clean_linker_0, # of connection points: 2
#     Edge 63, Type (0, 0), BuildingBlock: UVAHIK_clean_linker_0, # of connection points: 2
#     Edge 64, Type (0, 0), BuildingBlock: UVAHIK_clean_linker_0, # of connection points: 2
#     Edge 65, Type (0, 0), BuildingBlock: UVAHIK_clean_linker_0, # of connection points: 2
#     Edge 66, Type (0, 0), BuildingBlock: UVAHIK_clean_linker_0, # of connection points: 2
#     Edge 67, Type (0, 0), BuildingBlock: UVAHIK_clean_linker_0, # of connection points: 2
#     Edge 68, Type (0, 0), BuildingBlock: UVAHIK_clean_linker_0, # of connection points: 2
#     Edge 69, Type (0, 0), BuildingBlock: UVAHIK_clean_linker_0, # of connection points: 2
#     Edge 70, Type (0, 0), BuildingBlock: UVAHIK_clean_linker_0, # of connection points: 2
#     Edge 71, Type (0, 0), BuildingBlock: UVAHIK_clean_linker_0, # of connection points: 2
#     Edge 72, Type (0, 0), BuildingBlock: UVAHIK_clean_linker_0, # of connection points: 2
#     Edge 73, Type (0, 0), BuildingBlock: UVAHIK_clean_linker_0, # of connection points: 2
#     Edge 74, Type (0, 0), BuildingBlock: UVAHIK_clean_linker_0, # of connection points: 2
#     Edge 75, Type (0, 0), BuildingBlock: UVAHIK_clean_linker_0, # of connection points: 2
#     Edge 76, Type (0, 0), BuildingBlock: UVAHIK_clean_linker_0, # of connection points: 2
#     Edge 77, Type (0, 0), BuildingBlock: UVAHIK_clean_linker_0, # of connection points: 2
#     Edge 78, Type (0, 0), BuildingBlock: UVAHIK_clean_linker_0, # of connection points: 2
#     Edge 79, Type (0, 0), BuildingBlock: UVAHIK_clean_linker_0, # of connection points: 2
#     Edge 80, Type (0, 0), BuildingBlock: UVAHIK_clean_linker_0, # of connection points: 2
#     Edge 81, Type (0, 0), BuildingBlock: UVAHIK_clean_linker_0, # of connection points: 2
#     Edge 82, Type (0, 0), BuildingBlock: UVAHIK_clean_linker_0, # of connection points: 2
#     Edge 83, Type (0, 0), BuildingBlock: UVAHIK_clean_linker_0, # of connection points: 2
#     Edge 84, Type (0, 0), BuildingBlock: UVAHIK_clean_linker_0, # of connection points: 2
#     Edge 85, Type (0, 0), BuildingBlock: UVAHIK_clean_linker_0, # of connection points: 2
#     Edge 86, Type (0, 0), BuildingBlock: UVAHIK_clean_linker_0, # of connection points: 2
#     Edge 87, Type (0, 0), BuildingBlock: UVAHIK_clean_linker_0, # of connection points: 2
#     Edge 88, Type (0, 0), BuildingBlock: UVAHIK_clean_linker_0, # of connection points: 2
#     Edge 89, Type (0, 0), BuildingBlock: UVAHIK_clean_linker_0, # of connection points: 2
#     Edge 90, Type (0, 0), BuildingBlock: UVAHIK_clean_linker_0, # of connection points: 2
#     Edge 91, Type (0, 0), BuildingBlock: UVAHIK_clean_linker_0, # of connection points: 2
#     Edge 92, Type (0, 0), BuildingBlock: UVAHIK_clean_linker_0, # of connection points: 2
#     Edge 93, Type (0, 0), BuildingBlock: UVAHIK_clean_linker_0, # of connection points: 2
#     Edge 94, Type (0, 0), BuildingBlock: UVAHIK_clean_linker_0, # of connection points: 2
#     Edge 95, Type (0, 0), BuildingBlock: UVAHIK_clean_linker_0, # of connection points: 2
#     Edge 96, Type (0, 0), BuildingBlock: UVAHIK_clean_linker_0, # of connection points: 2
#     Edge 97, Type (0, 0), BuildingBlock: UVAHIK_clean_linker_0, # of connection points: 2
#     Edge 98, Type (0, 0), BuildingBlock: UVAHIK_clean_linker_0, # of connection points: 2
#     Edge 99, Type (0, 0), BuildingBlock: UVAHIK_clean_linker_0, # of connection points: 2
#     Edge 100, Type (0, 0), BuildingBlock: UVAHIK_clean_linker_0, # of connection points: 2
#     Edge 101, Type (0, 0), BuildingBlock: UVAHIK_clean_linker_0, # of connection points: 2
#     Edge 102, Type (0, 0), BuildingBlock: UVAHIK_clean_linker_0, # of connection points: 2
#     Edge 103, Type (0, 0), BuildingBlock: UVAHIK_clean_linker_0, # of connection points: 2
#     Edge 104, Type (0, 0), BuildingBlock: UVAHIK_clean_linker_0, # of connection points: 2
#     Edge 105, Type (0, 0), BuildingBlock: UVAHIK_clean_linker_0, # of connection points: 2
#     Edge 106, Type (0, 0), BuildingBlock: UVAHIK_clean_linker_0, # of connection points: 2
#     Edge 107, Type (0, 0), BuildingBlock: UVAHIK_clean_linker_0, # of connection points: 2
# Relax obj value: 0.060
# Max RMSD: 0.066
# Mean RMSD: 0.066
data_MOF--net-ato--node1-NAHDIM_clean_sbu_0--edge1-UVAHIK_clean_linker_0
_symmetry_space_group_name_H-M    P1
_symmetry_Int_Tables_number       1
_symmetry_cell_setting            triclinic
loop_
_symmetry_equiv_pos_as_xyz
'x, y, z'
_cell_length_a     130.25216
_cell_length_b     130.23708
_cell_length_c     31.365946
_cell_angle_alpha  90.025809
_cell_angle_beta   89.996555
_cell_angle_gamma 119.9973
loop_
_atom_site_label
_atom_site_type_symbol
_atom_site_fract_x
_atom_site_fract_y
_atom_site_fract_z
_atom_type_partial_charge
C0 C 0.23032 0.03113 0.29801 0.0
O1 O 0.22222 0.02912 0.26914 0.0
O2 O 0.23867 0.06252 0.25639 0.0
Zn3 Zn 0.2439 0.05076 0.24352 0.0
O4 O 0.23493 0.04057 0.19358 0.0
C5 C 0.2664 0.06963 0.21409 0.0
O6 O 0.26009 0.07476 0.20652 0.0
O7 O 0.24058 0.04017 0.29419 0.0
C8 C 0.23698 0.04396 0.15502 0.0
O9 O 0.24535 0.05482 0.14625 0.0
C10 C 0.22857 0.06103 0.24624 0.0
O11 O 0.22093 0.05128 0.22643 0.0
O12 O 0.26137 0.05932 0.23039 0.0
C13 C 0.95658 0.19713 0.30912 0.0
O14 O 0.954 0.18705 0.29086 0.0
O15 O 0.93312 0.18133 0.23715 0.0
Zn16 Zn 0.94504 0.19876 0.23495 0.0
O17 O 0.95715 0.20219 0.18967 0.0
C18 C 0.92635 0.20431 0.2377 0.0
O19 O 0.92145 0.19488 0.26228 0.0
O20 O 0.95345 0.20387 0.29106 0.0
C21 C 0.95443 0.20081 0.1504 0.0
O22 O 0.94338 0.19699 0.1392 0.0
C23 C 0.93432 0.17327 0.21894 0.0
O24 O 0.9439 0.17618 0.19649 0.0
O25 O 0.93662 0.20779 0.22251 0.0
C26 C 0.79265 0.76133 0.3005 0.0
O27 O 0.79845 0.76983 0.27261 0.0
O28 O 0.81385 0.7517 0.24523 0.0
Zn29 Zn 0.79701 0.74785 0.23856 0.0
O30 O 0.79566 0.75744 0.19133 0.0
C31 C 0.78889 0.72315 0.2443 0.0
O32 O 0.79677 0.72692 0.27517 0.0
O33 O 0.79104 0.75104 0.29297 0.0
C34 C 0.79928 0.75714 0.15403 0.0
O35 O 0.80407 0.7505 0.14665 0.0
C36 C 0.82289 0.76178 0.23813 0.0
O37 O 0.82146 0.77067 0.2264 0.0
O38 O 0.78723 0.7306 0.22385 0.0
C39 C 0.03371 0.23264 0.67289 0.0
O40 O 0.03474 0.2245 0.69411 0.0
O41 O 0.06164 0.24129 0.72538 0.0
Zn42 Zn 0.04987 0.24666 0.73649 0.0
O43 O 0.03911 0.23793 0.78541 0.0
C44 C 0.06868 0.26892 0.76736 0.0
O45 O 0.07358 0.26243 0.77546 0.0
O46 O 0.03968 0.24338 0.68487 0.0
C47 C 0.0427 0.2388 0.82359 0.0
O48 O 0.05406 0.24538 0.83196 0.0
C49 C 0.06109 0.23202 0.74102 0.0
O50 O 0.0522 0.22512 0.76609 0.0
O51 O 0.05851 0.2641 0.7499 0.0
C52 C 0.74965 0.78802 0.6823 0.0
O53 O 0.74564 0.78068 0.71482 0.0
O54 O 0.75443 0.82137 0.73897 0.0
Zn55 Zn 0.74903 0.80404 0.7433 0.0
O56 O 0.75846 0.80113 0.78729 0.0
C57 C 0.72715 0.79983 0.78114 0.0
O58 O 0.73376 0.81101 0.79218 0.0
O59 O 0.75156 0.79851 0.68688 0.0
C60 C 0.75877 0.80415 0.82597 0.0
O61 O 0.75294 0.80951 0.83744 0.0
C62 C 0.76468 0.82961 0.74973 0.0
O63 O 0.77245 0.8269 0.76462 0.0
O64 O 0.73174 0.79491 0.7594 0.0
C65 C 0.19726 0.95227 0.65605 0.0
O66 O 0.18758 0.94183 0.65458 0.0
O67 O 0.17899 0.93529 0.73975 0.0
Zn68 Zn 0.19631 0.94711 0.74601 0.0
O69 O 0.199 0.95879 0.79256 0.0
C70 C 0.20094 0.93036 0.78789 0.0
O71 O 0.19104 0.92784 0.80746 0.0
O72 O 0.20253 0.95617 0.69147 0.0
C73 C 0.19298 0.95609 0.82676 0.0
O74 O 0.18446 0.94512 0.83279 0.0
C75 C 0.17084 0.93793 0.74158 0.0
O76 O 0.1736 0.94897 0.74851 0.0
O77 O 0.20505 0.93844 0.75969 0.0
C78 C 0.76417 0.96375 0.69545 0.0
O79 O 0.77189 0.96206 0.71672 0.0
O80 O 0.7547 0.93667 0.75404 0.0
Zn81 Zn 0.74916 0.94848 0.76025 0.0
O82 O 0.7566 0.95899 0.81076 0.0
C83 C 0.72481 0.92975 0.75214 0.0
O84 O 0.72941 0.92507 0.72685 0.0
O85 O 0.75347 0.95863 0.70798 0.0
C86 C 0.75493 0.95473 0.84817 0.0
O87 O 0.74861 0.94319 0.85342 0.0
C88 C 0.76414 0.93774 0.77011 0.0
O89 O 0.77108 0.94718 0.79287 0.0
O90 O 0.73155 0.93979 0.76909 0.0
C91 C 0.03197 0.80234 0.6979 0.0
O92 O 0.03157 0.8101 0.7236 0.0
O93 O 0.06201 0.82252 0.74608 0.0
Zn94 Zn 0.04986 0.80548 0.75664 0.0
O95 O 0.03957 0.80384 0.80676 0.0
C96 C 0.06786 0.80084 0.78793 0.0
O97 O 0.07255 0.81186 0.80112 0.0
O98 O 0.03939 0.79893 0.70533 0.0
C99 C 0.04353 0.808 0.84357 0.0
O100 O 0.05503 0.81391 0.85007 0.0
C101 C 0.06082 0.8313 0.75638 0.0
O102 O 0.05103 0.82945 0.7752 0.0
O103 O 0.05812 0.79617 0.76761 0.0
C104 C 0.20186 0.23381 0.71185 0.0
O105 O 0.19608 0.226 0.74189 0.0
O106 O 0.17828 0.24042 0.75635 0.0
Zn107 Zn 0.1958 0.24779 0.76449 0.0
O108 O 0.19926 0.24151 0.81771 0.0
C109 C 0.21342 0.27154 0.78521 0.0
O110 O 0.2194 0.26622 0.79535 0.0
O111 O 0.2029 0.24402 0.71435 0.0
C112 C 0.19167 0.23202 0.83609 0.0
O113 O 0.18092 0.22593 0.82025 0.0
C114 C 0.17427 0.24314 0.72403 0.0
O115 O 0.18175 0.25069 0.69611 0.0
O116 O 0.20299 0.2654 0.77041 0.0
C117 C 0.95488 0.76097 0.33353 0.0
O118 O 0.9497 0.76696 0.32182 0.0
O119 O 0.93282 0.75294 0.25333 0.0
Zn120 Zn 0.94628 0.74955 0.25207 0.0
O121 O 0.95845 0.75962 0.20833 0.0
C122 C 0.93103 0.72731 0.21147 0.0
O123 O 0.92671 0.73356 0.19441 0.0
O124 O 0.95437 0.75295 0.3091 0.0
C125 C 0.95577 0.76077 0.17038 0.0
O126 O 0.94458 0.75532 0.15883 0.0
C127 C 0.93354 0.76273 0.24319 0.0
O128 O 0.94382 0.77172 0.23169 0.0
O129 O 0.93961 0.73228 0.23759 0.0
C130 C 0.24413 0.19733 0.35261 0.0
O131 O 0.24437 0.18737 0.35421 0.0
O132 O 0.24183 0.1784 0.26974 0.0
Zn133 Zn 0.24766 0.19577 0.26243 0.0
O134 O 0.23839 0.19832 0.21683 0.0
C135 C 0.2691 0.19892 0.2242 0.0
O136 O 0.26212 0.18777 0.21349 0.0
O137 O 0.24555 0.20253 0.31701 0.0
C138 C 0.23684 0.19368 0.18008 0.0
O139 O 0.24131 0.18683 0.17151 0.0
C140 C 0.23114 0.1703 0.26396 0.0
O141 O 0.22322 0.17317 0.25231 0.0
O142 O 0.26489 0.20422 0.24581 0.0
C143 C 0.80271 0.04065 0.33018 0.0
O144 O 0.81234 0.04252 0.31007 0.0
O145 O 0.81914 0.06502 0.26061 0.0
Zn146 Zn 0.80167 0.05342 0.25903 0.0
O147 O 0.79777 0.04149 0.21256 0.0
C148 C 0.79516 0.06787 0.21252 0.0
O149 O 0.80265 0.06742 0.1856 0.0
O150 O 0.79649 0.04474 0.3145 0.0
C151 C 0.78703 0.03509 0.20129 0.0
O152 O 0.77884 0.03653 0.22031 0.0
C153 C 0.82669 0.06416 0.23751 0.0
O154 O 0.82312 0.05517 0.21115 0.0
O155 O 0.79313 0.06239 0.24777 0.0
C156 C 0.9043 0.36442 0.63275 0.0
O157 O 0.89547 0.36164 0.60628 0.0
O158 O 0.9097 0.39426 0.58632 0.0
Zn159 Zn 0.91592 0.38327 0.57361 0.0
O160 O 0.90672 0.37244 0.52556 0.0
C161 C 0.9396 0.40338 0.5684 0.0
O162 O 0.93515 0.40826 0.59347 0.0
O163 O 0.91426 0.37359 0.62544 0.0
C164 C 0.90669 0.37649 0.48879 0.0
O165 O 0.91284 0.38799 0.48227 0.0
C166 C 0.89912 0.39177 0.57854 0.0
O167 O 0.89165 0.38145 0.56166 0.0
O168 O 0.93304 0.39272 0.55632 0.0
C169 C 0.63021 0.53383 0.62787 0.0
O170 O 0.63202 0.52831 0.59624 0.0
O171 O 0.59907 0.51177 0.58401 0.0
Zn172 Zn 0.6107 0.52907 0.57515 0.0
O173 O 0.62087 0.53189 0.52344 0.0
C174 C 0.59307 0.53317 0.54014 0.0
O175 O 0.59043 0.52314 0.52119 0.0
O176 O 0.62133 0.53538 0.62636 0.0
C177 C 0.61813 0.52532 0.49064 0.0
O178 O 0.60774 0.5156 0.48859 0.0
C179 C 0.60128 0.50336 0.5796 0.0
O180 O 0.61194 0.50573 0.56811 0.0
O181 O 0.60165 0.53767 0.56639 0.0
C182 C 0.46309 0.09725 0.6357 0.0
O183 O 0.46801 0.10484 0.60428 0.0
O184 O 0.48442 0.08728 0.58045 0.0
Zn185 Zn 0.46732 0.08294 0.57808 0.0
O186 O 0.46474 0.09162 0.53029 0.0
C187 C 0.46046 0.06151 0.53426 0.0
O188 O 0.46982 0.06884 0.5119 0.0
O189 O 0.46205 0.08704 0.63256 0.0
C190 C 0.47159 0.09611 0.49847 0.0
O191 O 0.48111 0.09511 0.49529 0.0
C192 C 0.4924 0.09542 0.60326 0.0
O193 O 0.48963 0.10174 0.6284 0.0
O194 O 0.45746 0.0655 0.56598 0.0
C195 C 0.70879 0.57153 0.98883 0.0
O196 O 0.7176 0.56935 0.99043 0.0
O197 O 0.72766 0.57424 0.07391 0.0
Zn198 Zn 0.71512 0.5789 0.07706 0.0
O199 O 0.70309 0.56996 0.12253 0.0
C200 C 0.73084 0.60035 0.12004 0.0
O201 O 0.7336 0.59313 0.13955 0.0
O202 O 0.70641 0.57576 0.02142 0.0
C203 C 0.70511 0.56643 0.15761 0.0
O204 O 0.71583 0.56838 0.16589 0.0
C205 C 0.72603 0.56384 0.07865 0.0
O206 O 0.71532 0.555 0.0864 0.0
O207 O 0.72299 0.59626 0.09095 0.0
C208 C 0.41765 0.13115 0.99326 0.0
O209 O 0.4172 0.14099 0.99163 0.0
O210 O 0.41811 0.14924 0.07673 0.0
Zn211 Zn 0.41288 0.13197 0.08276 0.0
O212 O 0.42221 0.12993 0.12923 0.0
C213 C 0.38867 0.12649 0.08344 0.0
O214 O 0.39301 0.13586 0.05859 0.0
O215 O 0.41586 0.12573 0.02855 0.0
C216 C 0.42055 0.13144 0.16806 0.0
O217 O 0.41244 0.13423 0.17783 0.0
C218 C 0.4283 0.15758 0.08757 0.0
O219 O 0.43605 0.15501 0.1037 0.0
O220 O 0.39554 0.12296 0.09744 0.0
C221 C 0.87513 0.29647 0.01672 0.0
O222 O 0.88218 0.29921 0.04991 0.0
O223 O 0.84064 0.26869 0.06884 0.0
Zn224 Zn 0.8579 0.28047 0.07622 0.0
O225 O 0.86044 0.29271 0.12006 0.0
C226 C 0.86152 0.26237 0.1145 0.0
O227 O 0.85025 0.2577 0.12425 0.0
O228 O 0.8643 0.28857 0.02051 0.0
C229 C 0.85723 0.28988 0.15853 0.0
O230 O 0.85188 0.27866 0.1696 0.0
C231 C 0.83225 0.27065 0.07757 0.0
O232 O 0.8347 0.28102 0.09289 0.0
O233 O 0.86664 0.27207 0.09388 0.0
C234 C 0.42944 0.29216 0.01916 0.0
O235 O 0.43713 0.28993 0.03795 0.0
O236 O 0.42024 0.26619 0.08317 0.0
Zn237 Zn 0.41548 0.27861 0.08915 0.0
O238 O 0.42435 0.28974 0.13685 0.0
C239 C 0.3909 0.26048 0.08708 0.0
O240 O 0.39496 0.2552 0.06219 0.0
O241 O 0.41917 0.28802 0.03521 0.0
C242 C 0.42279 0.28616 0.17521 0.0
O243 O 0.4154 0.27492 0.18338 0.0
C244 C 0.42971 0.26708 0.09816 0.0
O245 O 0.43716 0.27669 0.11914 0.0
O246 O 0.39806 0.27069 0.10187 0.0
C247 C 0.71166 0.13475 0.98336 0.0
O248 O 0.72221 0.14428 0.98124 0.0
O249 O 0.72852 0.15341 0.06651 0.0
Zn250 Zn 0.71705 0.13603 0.07309 0.0
O251 O 0.70553 0.13322 0.12002 0.0
C252 C 0.73547 0.13241 0.10739 0.0
O253 O 0.73967 0.14338 0.12045 0.0
O254 O 0.7078 0.1297 0.0191 0.0
C255 C 0.70865 0.13792 0.15667 0.0
O256 O 0.71995 0.14503 0.16481 0.0
C257 C 0.72583 0.16142 0.07258 0.0
O258 O 0.715 0.15842 0.08435 0.0
O259 O 0.72587 0.1274 0.08621 0.0
C260 C 0.86075 0.56613 0.01056 0.0
O261 O 0.85082 0.55864 0.02973 0.0
O262 O 0.84516 0.57574 0.07882 0.0
Zn263 Zn 0.86229 0.58006 0.08257 0.0
O264 O 0.86477 0.57073 0.12826 0.0
C265 C 0.86834 0.60268 0.11839 0.0
O266 O 0.85757 0.59651 0.13394 0.0
O267 O 0.86732 0.57627 0.02706 0.0
C268 C 0.86186 0.57062 0.16697 0.0
O269 O 0.85681 0.57676 0.17839 0.0
C270 C 0.83649 0.56614 0.09266 0.0
O271 O 0.8385 0.55823 0.11082 0.0
O272 O 0.87235 0.59752 0.09497 0.0
C273 C 0.63319 0.09673 0.62235 0.0
O274 O 0.63593 0.10357 0.5886 0.0
O275 O 0.60053 0.08549 0.57296 0.0
Zn276 Zn 0.61332 0.08119 0.57012 0.0
O277 O 0.62327 0.08827 0.51792 0.0
C278 C 0.59667 0.05629 0.58511 0.0
O279 O 0.59186 0.06035 0.61223 0.0
O280 O 0.62372 0.0867 0.62219 0.0
C281 C 0.62457 0.09746 0.49896 0.0
O282 O 0.61911 0.10291 0.51362 0.0
C283 C 0.60084 0.09347 0.5972 0.0
O284 O 0.60998 0.09941 0.62251 0.0
O285 O 0.60585 0.06356 0.56452 0.0
C286 C 0.89671 0.52541 0.64438 0.0
O287 O 0.88858 0.51635 0.62272 0.0
O288 O 0.90538 0.50659 0.58877 0.0
Zn289 Zn 0.91077 0.52382 0.57931 0.0
O290 O 0.90199 0.52595 0.53076 0.0
C291 C 0.9331 0.52744 0.54842 0.0
O292 O 0.92664 0.51608 0.53979 0.0
O293 O 0.90741 0.53038 0.63194 0.0
C294 C 0.90257 0.52286 0.49283 0.0
O295 O 0.90893 0.51781 0.48479 0.0
C296 C 0.89566 0.49802 0.57526 0.0
O297 O 0.88833 0.50021 0.55365 0.0
O298 O 0.92824 0.53272 0.56611 0.0
C299 C 0.46713 0.36945 0.65492 0.0
O300 O 0.47619 0.37064 0.63262 0.0
O301 O 0.48418 0.39584 0.59201 0.0
Zn302 Zn 0.4669 0.3836 0.58727 0.0
O303 O 0.46399 0.37188 0.54077 0.0
C304 C 0.4619 0.40096 0.55231 0.0
O305 O 0.47265 0.40516 0.53695 0.0
O306 O 0.46152 0.37451 0.64202 0.0
C307 C 0.4671 0.37468 0.50221 0.0
O308 O 0.47273 0.38592 0.49121 0.0
C309 C 0.49268 0.39465 0.57794 0.0
O310 O 0.49039 0.38478 0.55857 0.0
O311 O 0.45748 0.39171 0.57545 0.0
C312 C 0.56717 0.70409 0.98998 0.0
O313 O 0.55952 0.706 0.96922 0.0
O314 O 0.57631 0.72967 0.92455 0.0
Zn315 Zn 0.58113 0.71724 0.92007 0.0
O316 O 0.57189 0.70552 0.87432 0.0
C317 C 0.60566 0.73532 0.92103 0.0
O318 O 0.60159 0.74052 0.94632 0.0
O319 O 0.5776 0.70833 0.97525 0.0
C320 C 0.57268 0.70844 0.83534 0.0
O321 O 0.57971 0.71955 0.82437 0.0
C322 C 0.56666 0.72852 0.91032 0.0
O323 O 0.5591 0.71868 0.89078 0.0
O324 O 0.59851 0.7251 0.90628 0.0
C325 C 0.2915 0.85946 0.98668 0.0
O326 O 0.29057 0.85059 0.96378 0.0
O327 O 0.26497 0.84212 0.92428 0.0
Zn328 Zn 0.277 0.85946 0.91988 0.0
O329 O 0.28867 0.86258 0.87305 0.0
C330 C 0.25919 0.86418 0.88706 0.0
O331 O 0.25481 0.85333 0.87237 0.0
O332 O 0.28614 0.86483 0.97445 0.0
C333 C 0.2858 0.86003 0.83418 0.0
O334 O 0.27458 0.85491 0.82322 0.0
C335 C 0.26616 0.83381 0.9083 0.0
O336 O 0.27588 0.83637 0.8873 0.0
O337 O 0.26869 0.86872 0.90886 0.0
C338 C 0.12826 0.41662 0.99328 0.0
O339 O 0.1357 0.4126 0.99573 0.0
O340 O 0.14787 0.42098 0.90136 0.0
Zn341 Zn 0.13032 0.4149 0.90149 0.0
O342 O 0.12606 0.42264 0.85503 0.0
C343 C 0.12593 0.39088 0.90167 0.0
O344 O 0.13604 0.39566 0.92238 0.0
O345 O 0.12493 0.41816 0.95696 0.0
C346 C 0.13277 0.43326 0.84284 0.0
O347 O 0.14319 0.43967 0.86081 0.0
C348 C 0.15551 0.42979 0.92275 0.0
O349 O 0.15208 0.43577 0.94688 0.0
O350 O 0.12171 0.39739 0.89022 0.0
C351 C 0.36943 0.89943 0.34934 0.0
O352 O 0.37251 0.89225 0.36714 0.0
O353 O 0.39507 0.91033 0.41866 0.0
Zn354 Zn 0.38157 0.91361 0.4218 0.0
O355 O 0.37042 0.90423 0.4687 0.0
C356 C 0.39697 0.93856 0.41248 0.0
O357 O 0.40119 0.93497 0.38141 0.0
O358 O 0.37253 0.90937 0.36679 0.0
C359 C 0.37403 0.90531 0.50691 0.0
O360 O 0.3853 0.91252 0.51532 0.0
C361 C 0.39452 0.90076 0.43085 0.0
O362 O 0.38452 0.89215 0.44621 0.0
O363 O 0.38827 0.9309 0.43419 0.0
C364 C 0.09654 0.46318 0.35307 0.0
O365 O 0.10384 0.46763 0.38556 0.0
O366 O 0.0895 0.48811 0.3917 0.0
Zn367 Zn 0.08332 0.47086 0.40289 0.0
O368 O 0.09086 0.46861 0.45504 0.0
C369 C 0.06116 0.46816 0.43077 0.0
O370 O 0.06803 0.47931 0.44166 0.0
O371 O 0.08701 0.4636 0.35301 0.0
C372 C 0.09169 0.47353 0.49082 0.0
O373 O 0.08749 0.48078 0.49516 0.0
C374 C 0.09987 0.49627 0.4015 0.0
O375 O 0.10728 0.49349 0.41934 0.0
O376 O 0.06571 0.46265 0.41262 0.0
C377 C 0.52535 0.62695 0.35434 0.0
O378 O 0.51586 0.62555 0.37422 0.0
O379 O 0.50756 0.60024 0.41565 0.0
Zn380 Zn 0.52471 0.61257 0.423 0.0
O381 O 0.52684 0.62375 0.47031 0.0
C382 C 0.5314 0.59467 0.41962 0.0
O383 O 0.52273 0.58997 0.39165 0.0
O384 O 0.53084 0.62198 0.36922 0.0
C385 C 0.52414 0.62019 0.5085 0.0
O386 O 0.51955 0.60885 0.51694 0.0
C387 C 0.49885 0.6012 0.42876 0.0
O388 O 0.50082 0.61087 0.44886 0.0
O389 O 0.53398 0.60449 0.43694 0.0
C390 C 0.09338 0.62589 0.34981 0.0
O391 O 0.10135 0.62426 0.36949 0.0
O392 O 0.08552 0.59997 0.41097 0.0
Zn393 Zn 0.07959 0.61147 0.41808 0.0
O394 O 0.08794 0.62259 0.46634 0.0
C395 C 0.05551 0.59193 0.41884 0.0
O396 O 0.06016 0.5866 0.39726 0.0
O397 O 0.08292 0.62107 0.36473 0.0
C398 C 0.08628 0.61896 0.50464 0.0
O399 O 0.07908 0.60766 0.51254 0.0
C400 C 0.0952 0.60147 0.42638 0.0
O401 O 0.10194 0.61101 0.44898 0.0
O402 O 0.06211 0.60262 0.43045 0.0
C403 C 0.37601 0.46601 0.3183 0.0
O404 O 0.38632 0.47585 0.31764 0.0
O405 O 0.39325 0.4833 0.40372 0.0
Zn406 Zn 0.38109 0.46603 0.40822 0.0
O407 O 0.36916 0.46342 0.45359 0.0
C408 C 0.39796 0.46113 0.44792 0.0
O409 O 0.40153 0.47164 0.4645 0.0
O410 O 0.37225 0.46032 0.35303 0.0
C411 C 0.37191 0.46803 0.49049 0.0
O412 O 0.38312 0.47493 0.50036 0.0
C413 C 0.39104 0.49165 0.40987 0.0
O414 O 0.38024 0.48911 0.42004 0.0
O415 O 0.38923 0.45678 0.42226 0.0
C416 C 0.52978 0.90916 0.32075 0.0
O417 O 0.51945 0.90864 0.32121 0.0
O418 O 0.51296 0.90948 0.40917 0.0
Zn419 Zn 0.52982 0.91308 0.41228 0.0
O420 O 0.53173 0.90241 0.45362 0.0
C421 C 0.53606 0.93342 0.46332 0.0
O422 O 0.52589 0.92596 0.4812 0.0
O423 O 0.53559 0.91112 0.35524 0.0
C424 C 0.52545 0.89788 0.48672 0.0
O425 O 0.5168 0.89998 0.49536 0.0
C426 C 0.50377 0.89925 0.40824 0.0
O427 O 0.5049 0.88978 0.40873 0.0
O428 O 0.53979 0.9299 0.43231 0.0
C429 C 0.29686 0.43376 0.96043 0.0
O430 O 0.29969 0.44102 0.92789 0.0
O431 O 0.26487 0.42333 0.90804 0.0
Zn432 Zn 0.27759 0.41895 0.90532 0.0
O433 O 0.28822 0.42724 0.85577 0.0
C434 C 0.26033 0.3954 0.8776 0.0
O435 O 0.25461 0.40078 0.86504 0.0
O436 O 0.28745 0.4237 0.95868 0.0
C437 C 0.28427 0.42717 0.81871 0.0
O438 O 0.27276 0.42147 0.81216 0.0
C439 C 0.2654 0.43182 0.92972 0.0
O440 O 0.27477 0.43835 0.95336 0.0
O441 O 0.27028 0.40137 0.89621 0.0
C442 C 0.56606 0.86796 0.95786 0.0
O443 O 0.55856 0.86276 0.92639 0.0
O444 O 0.57466 0.84414 0.92029 0.0
Zn445 Zn 0.57995 0.86116 0.90765 0.0
O446 O 0.57223 0.86292 0.85495 0.0
C447 C 0.6016 0.86538 0.87105 0.0
O448 O 0.59428 0.85524 0.85262 0.0
O449 O 0.57601 0.86836 0.95707 0.0
C450 C 0.56779 0.85554 0.8245 0.0
O451 O 0.56793 0.84553 0.826 0.0
C452 C 0.56398 0.83571 0.91993 0.0
O453 O 0.55543 0.83792 0.91079 0.0
O454 O 0.5975 0.86983 0.89741 0.0
C455 C 0.13063 0.70285 0.98485 0.0
O456 O 0.13978 0.70407 0.96301 0.0
O457 O 0.1481 0.7284 0.92079 0.0
Zn458 Zn 0.13059 0.7169 0.91666 0.0
O459 O 0.12693 0.705 0.87002 0.0
C460 C 0.12682 0.73514 0.88247 0.0
O461 O 0.1374 0.73873 0.86654 0.0
O462 O 0.12502 0.70786 0.97145 0.0
C463 C 0.12978 0.70771 0.83123 0.0
O464 O 0.13557 0.71893 0.82002 0.0
C465 C 0.15617 0.72683 0.90477 0.0
O466 O 0.15325 0.71702 0.88372 0.0
O467 O 0.12201 0.7259 0.90566 0.0
C468 C 0.1947 0.95656 0.58026 0.0
C469 C 0.20161 0.95976 0.61751 0.0
C470 C 0.19848 0.96404 0.54479 0.0
C471 C 0.21824 0.99538 0.51567 0.0
H472 H 0.21248 0.98298 0.40036 0.0
C473 C 0.23573 0.02555 0.36738 0.0
C474 C 0.22755 0.02287 0.3341 0.0
C475 C 0.23306 0.01773 0.40149 0.0
C476 C 0.21408 0.98655 0.43242 0.0
H477 H 0.2181 0.97308 0.64627 0.0
H478 H 0.2248 0.98599 0.58411 0.0
H479 H 0.20714 0.96938 0.46057 0.0
H480 H 0.21019 0.00984 0.31032 0.0
H481 H 0.20554 0.9962 0.36989 0.0
H482 H 0.22521 0.01255 0.48743 0.0
C483 C 0.21633 0.97785 0.58261 0.0
C484 C 0.211 0.97877 0.46689 0.0
C485 C 0.21252 0.97041 0.61816 0.0
C486 C 0.21668 0.01217 0.33548 0.0
C487 C 0.21404 0.00432 0.36943 0.0
C488 C 0.22138 0.00316 0.48121 0.0
C489 C 0.20928 0.97483 0.54572 0.0
C490 C 0.21297 0.9831 0.50893 0.0
C491 C 0.22219 0.00703 0.40282 0.0
C492 C 0.21925 -0.00119 0.43926 0.0
H493 H 0.18624 0.94842 0.57881 0.0
H494 H 0.19276 0.96151 0.51708 0.0
H495 H 0.21969 -0.001 0.54763 0.0
H496 H 0.24419 0.03372 0.3672 0.0
H497 H 0.23954 0.01999 0.42666 0.0
C498 C 0.02336 0.2377 0.6165 0.0
C499 C 0.0255 0.22928 0.63638 0.0
C500 C 0.0154 0.23442 0.58252 0.0
C501 C 0.99044 0.20816 0.53161 0.0
H502 H -0.00173 0.22899 0.43385 0.0
C503 C 0.96619 0.19298 0.37048 0.0
C504 C 0.96348 0.20081 0.34911 0.0
C505 C 0.97314 0.19658 0.40728 0.0
C506 C 0.9959 0.22316 0.46118 0.0
H507 H 0.02106 0.21085 0.63594 0.0
H508 H 0.00737 0.20519 0.57619 0.0
H509 H 0.01179 0.2351 0.49445 0.0
H510 H 0.96576 0.21849 0.34995 0.0
H511 H 0.97795 0.22479 0.41429 0.0
H512 H 0.97465 0.19613 0.49785 0.0
C513 C 0.01165 0.21427 0.58737 0.0
C514 C 0.00363 0.22665 0.4959 0.0
C515 C 0.01957 0.21754 0.62144 0.0
C516 C 0.96771 0.21226 0.36566 0.0
C517 C 0.97474 0.21589 0.40234 0.0
C518 C 0.98274 0.20465 0.49681 0.0
C519 C 0.00945 0.22266 0.56762 0.0
C520 C 0.00103 0.21915 0.53137 0.0
C521 C 0.97757 0.20811 0.42333 0.0
C522 C 0.98544 0.21207 0.46113 0.0
H523 H 0.02775 0.24681 0.62742 0.0
H524 H 0.01379 0.24107 0.56831 0.0
H525 H 0.98807 0.20228 0.55879 0.0
H526 H 0.96305 0.18409 0.35857 0.0
H527 H 0.97529 0.19043 0.42257 0.0
C528 C 0.78879 0.77473 0.34655 0.0
C529 C 0.78776 0.76359 0.33959 0.0
C530 C 0.78395 0.7768 0.38305 0.0
C531 C 0.77433 0.76605 0.49222 0.0
H532 H 0.75741 0.78342 0.48292 0.0
C533 C 0.75096 0.77293 0.63658 0.0
C534 C 0.75263 0.78438 0.64162 0.0
C535 C 0.75439 0.76975 0.59888 0.0
C536 C 0.76219 0.77864 0.48609 0.0
H537 H 0.78089 0.7459 0.36556 0.0
H538 H 0.77244 0.74953 0.42924 0.0
H539 H 0.76531 0.77923 0.41891 0.0
H540 H 0.759 0.80143 0.61076 0.0
H541 H 0.7651 0.79594 0.5454 0.0
H542 H 0.77137 0.7656 0.55944 0.0
C543 C 0.77705 0.75668 0.40659 0.0
C544 C 0.76671 0.77625 0.44944 0.0
C545 C 0.78185 0.75459 0.37002 0.0
C546 C 0.75757 0.79252 0.60789 0.0
C547 C 0.76101 0.78935 0.57028 0.0
C548 C 0.76983 0.76847 0.5289 0.0
C549 C 0.77802 0.76779 0.41341 0.0
C550 C 0.77291 0.77001 0.45217 0.0
C551 C 0.75956 0.77797 0.56548 0.0
C552 C 0.76379 0.77487 0.52627 0.0
H553 H 0.7933 0.78186 0.32376 0.0
H554 H 0.78497 0.7855 0.38774 0.0
H555 H 0.77918 0.76135 0.49537 0.0
H556 H 0.74712 0.76644 0.6619 0.0
H557 H 0.75301 0.76086 0.59591 0.0
C558 C 0.76014 0.97472 0.63842 0.0
C559 C 0.76797 0.97171 0.6581 0.0
C560 C 0.76385 0.98245 0.60367 0.0
C561 C 0.79092 0.00546 0.54993 0.0
H562 H 0.7696 -0.00071 0.45474 0.0
C563 C 0.80623 0.02972 0.38861 0.0
C564 C 0.7989 0.03345 0.36949 0.0
C565 C 0.80247 0.02257 0.42491 0.0
C566 C 0.7756 0.00119 0.48132 0.0
H567 H 0.78577 0.97431 0.65641 0.0
H568 H 0.79216 0.98759 0.5953 0.0
H569 H 0.76295 0.98586 0.51563 0.0
H570 H 0.78191 0.03273 0.3737 0.0
H571 H 0.77535 0.02021 0.43712 0.0
H572 H 0.80363 0.02069 0.51516 0.0
C573 C 0.78323 0.98418 0.60723 0.0
C574 C 0.7718 0.99351 0.51621 0.0
C575 C 0.77954 0.9765 0.6421 0.0
C576 C 0.78777 0.02999 0.38767 0.0
C577 C 0.78398 0.02277 0.42382 0.0
C578 C 0.79474 0.01309 0.51492 0.0
C579 C 0.77545 0.98729 0.58772 0.0
C580 C 0.77942 0.99554 0.55087 0.0
C581 C 0.79127 0.01895 0.44266 0.0
C582 C 0.78713 0.01102 0.48024 0.0
H583 H 0.75118 0.97121 0.65013 0.0
H584 H 0.75768 0.98478 0.58972 0.0
H585 H 0.79695 0.00739 0.57644 0.0
H586 H 0.81486 0.03224 0.37537 0.0
H587 H 0.80823 0.01967 0.43856 0.0
C588 C 0.016 0.80175 0.65198 0.0
C589 C 0.02376 0.79751 0.66132 0.0
C590 C 0.00816 0.79714 0.61765 0.0
C591 C 0.00335 0.78095 0.51638 0.0
H592 H 0.97136 0.77554 0.52746 0.0
C593 C 0.96838 0.75848 0.38398 0.0
C594 C 0.96182 0.76402 0.37346 0.0
C595 C 0.97547 0.76186 0.42046 0.0
C596 C 0.98029 0.77708 0.52384 0.0
H597 H 0.02937 0.78505 0.64208 0.0
H598 H 0.01558 0.77691 0.58246 0.0
H599 H 0.98475 0.78284 0.58849 0.0
H600 H 0.95734 0.77725 0.39351 0.0
H601 H 0.96975 0.78316 0.45711 0.0
H602 H -0.00112 0.77522 0.45169 0.0
C603 C 0.01567 0.78392 0.60132 0.0
C604 C 0.98797 0.78128 0.55873 0.0
C605 C 0.02353 0.78855 0.63561 0.0
C606 C 0.96229 0.77281 0.4007 0.0
C607 C 0.96934 0.77616 0.43727 0.0
C608 C 0.99566 0.77672 0.48155 0.0
C609 C 0.00789 0.78817 0.59196 0.0
C610 C -0.00039 0.78335 0.5553 0.0
C611 C 0.97611 0.77081 0.44727 0.0
C612 C 0.98408 0.77482 0.48483 0.0
H613 H 0.01599 0.80868 0.67107 0.0
H614 H 0.00243 0.80074 0.61089 0.0
H615 H 0.01232 0.78261 0.5125 0.0
H616 H 0.96818 0.75165 0.36371 0.0
H617 H 0.98047 0.75748 0.42767 0.0
C618 C 0.24203 0.21314 0.39014 0.0
C619 C 0.24147 0.20208 0.39122 0.0
C620 C 0.23882 0.21731 0.42578 0.0
C621 C 0.23333 0.2128 0.54209 0.0
H622 H 0.21406 0.22737 0.52222 0.0
C623 C 0.20691 0.21986 0.67516 0.0
C624 C 0.20713 0.23076 0.67578 0.0
C625 C 0.21186 0.21693 0.64108 0.0
C626 C 0.21956 0.22345 0.52825 0.0
H627 H 0.23733 0.18684 0.43082 0.0
H628 H 0.2315 0.19401 0.49276 0.0
H629 H 0.2215 0.22128 0.46176 0.0
H630 H 0.21275 0.24715 0.64121 0.0
H631 H 0.22136 0.24199 0.5816 0.0
H632 H 0.23114 0.21478 0.60871 0.0
C633 C 0.2346 0.19955 0.4646 0.0
C634 C 0.22385 0.21998 0.49363 0.0
C635 C 0.23789 0.19541 0.42901 0.0
C636 C 0.21242 0.23868 0.64164 0.0
C637 C 0.21731 0.23571 0.60743 0.0
C638 C 0.22898 0.21622 0.57673 0.0
C639 C 0.2349 0.21049 0.46322 0.0
C640 C 0.23074 0.21457 0.50013 0.0
C641 C 0.21706 0.2248 0.6068 0.0
C642 C 0.22201 0.22153 0.57014 0.0
H643 H 0.24485 0.21854 0.3616 0.0
H644 H 0.23935 0.22587 0.42392 0.0
H645 H 0.23876 0.20882 0.54819 0.0
H646 H 0.2029 0.21356 0.70097 0.0
H647 H 0.21142 0.2084 0.6412 0.0
C648 C 0.89169 0.34667 0.67783 0.0
C649 C 0.90261 0.35703 0.67071 0.0
C650 C 0.88998 0.33978 0.71403 0.0
C651 C 0.9009 0.34163 0.82299 0.0
H652 H 0.88307 0.3073 0.81651 0.0
C653 C 0.89133 0.31209 0.97183 0.0
C654 C 0.87957 0.30279 0.97582 0.0
C655 C 0.8953 0.31838 0.93359 0.0
C656 C 0.88802 0.31688 0.81884 0.0
H657 H 0.92035 0.3682 0.69573 0.0
H658 H 0.91734 0.35611 0.75902 0.0
H659 H 0.88789 0.31898 0.75122 0.0
H660 H 0.86281 0.29263 0.94255 0.0
H661 H 0.86969 0.30364 0.87623 0.0
H662 H 0.90081 0.33954 0.89066 0.0
C663 C 0.91009 0.3534 0.73669 0.0
C664 C 0.89078 0.32356 0.78148 0.0
C665 C 0.91182 0.36028 0.70037 0.0
C666 C 0.87193 0.29975 0.94056 0.0
C667 C 0.8759 0.30601 0.9024 0.0
C668 C 0.89814 0.33494 0.86038 0.0
C669 C 0.89914 0.3431 0.74395 0.0
C670 C 0.89707 0.336 0.78323 0.0
C671 C 0.88759 0.31545 0.89858 0.0
C672 C 0.89149 0.3225 0.85874 0.0
H673 H 0.88441 0.34392 0.65561 0.0
H674 H 0.88138 0.33198 0.71906 0.0
H675 H 0.90566 0.35121 0.82538 0.0
H676 H 0.89744 0.31462 -0.00162 0.0
H677 H 0.90439 0.32554 0.93144 0.0
C678 C 0.64801 0.53603 0.66626 0.0
C679 C 0.6384 0.53808 0.66465 0.0
C680 C 0.65573 0.53994 0.70099 0.0
C681 C 0.66624 0.56129 0.7898 0.0
H682 H 0.67666 0.54049 0.83698 0.0
C683 C 0.69191 0.57093 0.94855 0.0
C684 C 0.70128 0.5685 0.95035 0.0
C685 C 0.68446 0.56758 0.91305 0.0
C686 C 0.67394 0.54646 0.82383 0.0
H687 H 0.62936 0.54586 0.69818 0.0
H688 H 0.64284 0.55261 0.75909 0.0
H689 H 0.66304 0.53383 0.77666 0.0
H690 H 0.7103 0.56085 0.91594 0.0
H691 H 0.69733 0.55508 0.85382 0.0
H692 H 0.67713 0.5739 0.83714 0.0
C693 C 0.64445 0.54808 0.73322 0.0
C694 C 0.66614 0.54264 0.78932 0.0
C695 C 0.6367 0.54416 0.69846 0.0
C696 C 0.70315 0.56283 0.9156 0.0
C697 C 0.69567 0.55945 0.88013 0.0
C698 C 0.67405 0.56511 0.82436 0.0
C699 C 0.65403 0.54598 0.73489 0.0
C700 C 0.66222 0.55002 0.77187 0.0
C701 C 0.6862 0.56171 0.87863 0.0
C702 C 0.678 0.55774 0.84169 0.0
H703 H 0.64959 0.5314 0.64068 0.0
H704 H 0.66312 0.53832 0.70107 0.0
H705 H 0.6635 0.56723 0.77668 0.0
H706 H 0.69022 0.57529 0.97482 0.0
H707 H 0.67716 0.56934 0.91302 0.0
C708 C 0.45345 0.09255 0.70769 0.0
C709 C 0.45836 0.1004 0.67315 0.0
C710 C 0.4486 0.09542 0.74229 0.0
C711 C 0.43588 0.11406 0.77177 0.0
H712 H 0.44303 0.10924 0.88753 0.0
C713 C 0.42476 0.13364 0.91781 0.0
C714 C 0.42101 0.1268 0.9552 0.0
C715 C 0.42867 0.12988 0.88283 0.0
C716 C 0.44079 0.11048 0.85541 0.0
H717 H 0.46215 0.11748 0.64804 0.0
H718 H 0.45372 0.12247 0.70843 0.0
H719 H 0.45126 0.10371 0.82788 0.0
H720 H 0.41802 0.11046 0.98475 0.0
H721 H 0.42462 0.10381 0.92347 0.0
H722 H 0.4254 0.12081 0.79918 0.0
C723 C 0.45352 0.11405 0.70855 0.0
C724 C 0.44554 0.10733 0.82127 0.0
C725 C 0.45842 0.11122 0.6741 0.0
C726 C 0.42094 0.11598 0.9565 0.0
C727 C 0.4248 0.1122 0.92148 0.0
C728 C 0.43109 0.11716 0.80589 0.0
C729 C 0.44851 0.10617 0.74288 0.0
C730 C 0.4432 0.10917 0.77912 0.0
C731 C 0.42885 0.11918 0.88444 0.0
C732 C 0.43356 0.11548 0.8481 0.0
H733 H 0.45326 0.08414 0.70788 0.0
H734 H 0.44473 0.08914 0.76823 0.0
H735 H 0.43378 0.1154 0.73957 0.0
H736 H 0.42495 0.14203 0.91584 0.0
H737 H 0.43186 0.13553 0.85496 0.0
C738 C 0.47002 0.35708 0.70913 0.0
C739 C 0.46323 0.36188 0.69332 0.0
C740 C 0.46616 0.34955 0.7444 0.0
C741 C 0.44571 0.34034 0.8364 0.0
H742 H 0.44993 0.31289 0.83528 0.0
C743 C 0.42525 0.30341 0.96373 0.0
C744 C 0.43284 0.29969 0.9807 0.0
C745 C 0.42866 0.31085 0.92817 0.0
C746 C 0.44878 0.32057 0.83615 0.0
H747 H 0.44711 0.36264 0.70231 0.0
H748 H 0.44026 0.34933 0.76352 0.0
H749 H 0.45649 0.32631 0.77443 0.0
H750 H 0.4499 0.30073 0.97339 0.0
H751 H 0.45584 0.31368 0.91125 0.0
H752 H 0.43791 0.33449 0.89811 0.0
C753 C 0.44866 0.35153 0.74903 0.0
C754 C 0.45256 0.32828 0.80138 0.0
C755 C 0.45256 0.35911 0.71384 0.0
C756 C 0.44385 0.30344 0.96108 0.0
C757 C 0.44723 0.3108 0.92537 0.0
C758 C 0.44187 0.33258 0.8711 0.0
C759 C 0.45538 0.34659 0.76452 0.0
C760 C 0.45114 0.3383 0.80122 0.0
C761 C 0.4397 0.31463 0.90871 0.0
C762 C 0.44344 0.32266 0.8714 0.0
H763 H 0.47832 0.3591 0.69422 0.0
H764 H 0.47166 0.34609 0.75602 0.0
H765 H 0.44463 0.34806 0.83753 0.0
H766 H 0.4167 0.30067 0.97813 0.0
H767 H 0.42264 0.31358 0.9157 0.0
C768 C 0.70751 0.13672 0.90677 0.0
C769 C 0.70405 0.13031 0.94514 0.0
C770 C 0.69999 0.13283 0.8714 0.0
C771 C 0.66845 0.11407 0.84304 0.0
H772 H 0.68069 0.11644 0.72857 0.0
C773 C 0.63809 0.09355 0.69661 0.0
C774 C 0.64119 0.10055 0.65961 0.0
C775 C 0.64579 0.09708 0.73145 0.0
C776 C 0.67716 0.11583 0.76034 0.0
H777 H 0.69013 0.1146 0.97616 0.0
H778 H 0.67711 0.10772 0.9143 0.0
H779 H 0.69424 0.12261 0.78917 0.0
H780 H 0.65477 0.11679 0.63022 0.0
H781 H 0.66817 0.12296 0.69112 0.0
H782 H 0.65137 0.10725 0.81418 0.0
C783 C 0.68553 0.11588 0.91177 0.0
C784 C 0.68492 0.11937 0.79502 0.0
C785 C 0.69303 0.11979 0.94714 0.0
C786 C 0.65212 0.11118 0.65824 0.0
C787 C 0.65984 0.11469 0.69299 0.0
C788 C 0.66069 0.1105 0.80839 0.0
C789 C 0.68886 0.12243 0.87366 0.0
C790 C 0.68064 0.11854 0.83676 0.0
C791 C 0.65676 0.10766 0.72991 0.0
C792 C 0.66498 0.11137 0.76669 0.0
H793 H 0.71594 0.14487 0.90425 0.0
H794 H 0.70276 0.13813 0.84264 0.0
H795 H 0.6649 0.11352 0.87472 0.0
H796 H 0.62973 0.0853 0.69864 0.0
H797 H 0.64323 0.09144 0.75937 0.0
C798 C 0.90168 0.54033 0.70271 0.0
C799 C 0.89336 0.52982 0.68226 0.0
C800 C 0.8984 0.54454 0.73816 0.0
C801 C 0.87635 0.53478 0.82405 0.0
H802 H 0.88535 0.56797 0.83125 0.0
C803 C 0.85678 0.55168 0.9517 0.0
C804 C 0.86448 0.56253 0.97152 0.0
C805 C 0.86044 0.54798 0.91594 0.0
C806 C 0.88289 0.55871 0.82998 0.0
H807 H 0.8751 0.51545 0.68305 0.0
H808 H 0.8694 0.52278 0.74491 0.0
H809 H 0.89172 0.5609 0.77021 0.0
H810 H 0.88203 0.5781 0.96906 0.0
H811 H 0.88849 0.57154 0.907 0.0
H812 H 0.86761 0.53255 0.88383 0.0
C813 C 0.87847 0.52773 0.73366 0.0
C814 C 0.88653 0.55467 0.79502 0.0
C815 C 0.88172 0.52357 0.6981 0.0
C816 C 0.87587 0.5697 0.95442 0.0
C817 C 0.87956 0.56596 0.91874 0.0
C818 C 0.87276 0.53882 0.85906 0.0
C819 C 0.88676 0.53826 0.754 0.0
C820 C 0.88322 0.54265 0.7916 0.0
C821 C 0.87191 0.55501 0.89932 0.0
C822 C 0.87592 0.55081 0.86231 0.0
H823 H 0.91072 0.54535 0.69124 0.0
H824 H 0.90499 0.55263 0.75347 0.0
H825 H 0.87383 0.5255 0.82256 0.0
H826 H 0.84791 0.54599 0.9639 0.0
H827 H 0.85424 0.5396 0.90125 0.0
C828 C 0.54068 0.63724 0.29762 0.0
C829 C 0.52976 0.63451 0.316 0.0
C830 C 0.54497 0.64467 0.26208 0.0
C831 C 0.53537 0.65603 0.17258 0.0
H832 H 0.5681 0.68152 0.17069 0.0
C833 C 0.55221 0.69282 0.04644 0.0
C834 C 0.56344 0.69663 0.02864 0.0
C835 C 0.54839 0.68532 0.08176 0.0
C836 C 0.55898 0.67435 0.17048 0.0
H837 H 0.51472 0.63732 0.3113 0.0
H838 H 0.52221 0.65026 0.24926 0.0
H839 H 0.56081 0.66795 0.23127 0.0
H840 H 0.57955 0.69569 0.03423 0.0
H841 H 0.57279 0.68241 0.0956 0.0
H842 H 0.53352 0.66233 0.1118 0.0
C843 C 0.52742 0.64661 0.26221 0.0
C844 C 0.55481 0.6666 0.20517 0.0
C845 C 0.52317 0.63925 0.29787 0.0
C846 C 0.57086 0.69293 0.04732 0.0
C847 C 0.567 0.68536 0.08258 0.0
C848 C 0.53955 0.66374 0.13783 0.0
C849 C 0.53838 0.64944 0.24407 0.0
C850 C 0.54294 0.65742 0.20668 0.0
C851 C 0.55568 0.68139 0.09995 0.0
C852 C 0.55137 0.67305 0.13653 0.0
H853 H 0.54597 0.63372 0.31085 0.0
H854 H 0.5534 0.64662 0.24847 0.0
H855 H 0.52623 0.64892 0.1726 0.0
H856 H 0.54632 0.69559 0.033 0.0
H857 H 0.53971 0.68262 0.09489 0.0
C858 C 0.35733 0.90269 0.29474 0.0
C859 C 0.3619 0.89572 0.3108 0.0
C860 C 0.34975 0.89888 0.25953 0.0
C861 C 0.32956 0.87178 0.19958 0.0
H862 H 0.33191 0.89401 0.11261 0.0
C863 C 0.30441 0.85701 0.03983 0.0
C864 C 0.29908 0.86342 0.02507 0.0
C865 C 0.31189 0.86094 0.07527 0.0
C866 C 0.33107 0.88773 0.1369 0.0
H867 H 0.36236 0.87943 0.3019 0.0
H868 H 0.34932 0.8729 0.24003 0.0
H869 H 0.34567 0.90103 0.17261 0.0
H870 H 0.2973 0.87892 0.03613 0.0
H871 H 0.31038 0.88576 0.09812 0.0
H872 H 0.31504 0.85846 0.16358 0.0
C873 C 0.35139 0.88119 0.25516 0.0
C874 C 0.33895 0.89174 0.17126 0.0
C875 C 0.35893 0.88497 0.29046 0.0
C876 C 0.30129 0.87379 0.0467 0.0
C877 C 0.30883 0.87775 0.08202 0.0
C878 C 0.32173 0.86776 0.16514 0.0
C879 C 0.34662 0.88804 0.23955 0.0
C880 C 0.33829 0.88381 0.20295 0.0
C881 C 0.31423 0.87138 0.09654 0.0
C882 C 0.32242 0.87569 0.13344 0.0
H883 H 0.35943 0.91101 0.30979 0.0
H884 H 0.34613 0.90431 0.24859 0.0
H885 H 0.32867 0.86547 0.22386 0.0
H886 H 0.30288 0.849 0.02385 0.0
H887 H 0.31602 0.85592 0.08552 0.0
C888 C 0.10919 0.45594 0.31958 0.0
C889 C 0.09941 0.45771 0.31714 0.0
C890 C 0.11195 0.45083 0.28555 0.0
C891 C 0.10829 0.44655 0.17026 0.0
H892 H 0.1162 0.42186 0.18867 0.0
C893 C 0.11481 0.42231 0.02968 0.0
C894 C 0.12425 0.42001 0.03205 0.0
C895 C 0.1114 0.42621 0.06546 0.0
C896 C 0.11414 0.42884 0.18306 0.0
H897 H 0.0848 0.45545 0.27726 0.0
H898 H 0.08968 0.44659 0.21774 0.0
H899 H 0.11105 0.43016 0.24943 0.0
H900 H 0.13736 0.41977 0.07397 0.0
H901 H 0.13157 0.42687 0.13644 0.0
H902 H 0.11157 0.44547 0.1042 0.0
C903 C 0.09523 0.4492 0.24594 0.0
C904 C 0.11118 0.43357 0.21782 0.0
C905 C 0.09241 0.45423 0.28008 0.0
C906 C 0.13003 0.42144 0.07123 0.0
C907 C 0.12668 0.42546 0.10704 0.0
C908 C 0.11133 0.44191 0.13561 0.0
C909 C 0.10504 0.44748 0.24832 0.0
C910 C 0.10818 0.44243 0.21168 0.0
C911 C 0.11742 0.42804 0.10438 0.0
C912 C 0.11424 0.43296 0.14153 0.0
H913 H 0.11474 0.45851 0.34775 0.0
H914 H 0.11962 0.4497 0.28805 0.0
H915 H 0.10621 0.45352 0.16471 0.0
H916 H 0.11009 0.42116 4e-05 0.0
H917 H 0.10406 0.42785 0.06254 0.0
C918 C 0.08876 0.63669 0.29377 0.0
C919 C 0.09665 0.63344 0.31143 0.0
C920 C 0.09204 0.64408 0.25807 0.0
C921 C 0.11238 0.65422 0.16682 0.0
H922 H 0.10733 0.68115 0.1664 0.0
C923 C 0.13354 0.69071 0.03996 0.0
C924 C 0.12666 0.6953 0.02329 0.0
C925 C 0.12962 0.68319 0.07524 0.0
C926 C 0.10866 0.67358 0.16576 0.0
H927 H 0.11409 0.63528 0.3053 0.0
H928 H 0.11976 0.64812 0.24293 0.0
H929 H 0.10067 0.66764 0.22719 0.0
H930 H 0.11031 0.69571 0.03076 0.0
H931 H 0.10335 0.68239 0.09198 0.0
H932 H 0.12027 0.66004 0.10541 0.0
C933 C 0.11104 0.64492 0.25661 0.0
C934 C 0.10485 0.66586 0.20058 0.0
C935 C 0.10781 0.63762 0.29245 0.0
C936 C 0.11583 0.69234 0.04297 0.0
C937 C 0.11187 0.68475 0.07816 0.0
C938 C 0.11611 0.66188 0.13193 0.0
C939 C 0.10321 0.64826 0.23917 0.0
C940 C 0.10678 0.65617 0.20158 0.0
C941 C 0.11869 0.68002 0.09449 0.0
C942 C 0.11439 0.67171 0.13116 0.0
H943 H 0.0801 0.63361 0.30771 0.0
H944 H 0.08579 0.64644 0.24502 0.0
H945 H 0.11381 0.64671 0.16648 0.0
H946 H 0.14197 0.69289 0.02572 0.0
H947 H 0.1352 0.67989 0.08753 0.0
C948 C 0.3717 0.46909 0.24307 0.0
C949 C 0.3684 0.46203 0.27994 0.0
C950 C 0.3641 0.4657 0.20793 0.0
C951 C 0.33253 0.44717 0.17984 0.0
H952 H 0.34445 0.45189 0.064 0.0
C953 C 0.30179 0.4294 0.03295 0.0
C954 C 0.30482 0.43704 -0.00228 0.0
C955 C 0.30954 0.43233 0.06745 0.0
C956 C 0.34101 0.45062 0.09619 0.0
H957 H 0.35474 0.44567 0.30833 0.0
H958 H 0.3416 0.43967 0.24682 0.0
H959 H 0.35819 0.45697 0.12362 0.0
H960 H 0.31831 0.45382 0.97129 0.0
H961 H 0.33179 0.45894 0.03161 0.0
H962 H 0.31536 0.4408 0.15237 0.0
C963 C 0.34994 0.44795 0.24536 0.0
C964 C 0.34887 0.45353 0.13031 0.0
C965 C 0.35751 0.45135 0.28051 0.0
C966 C 0.31571 0.44772 -0.0021 0.0
C967 C 0.32348 0.45063 0.03231 0.0
C968 C 0.32467 0.44423 0.14572 0.0
C969 C 0.35307 0.45516 0.2089 0.0
C970 C 0.34472 0.45186 0.17252 0.0
C971 C 0.3205 0.44294 0.06734 0.0
C972 C 0.32883 0.44596 0.10355 0.0
H973 H 0.38002 0.47739 0.24165 0.0
H974 H 0.36673 0.47151 0.18047 0.0
H975 H 0.32908 0.44597 0.21198 0.0
H976 H 0.29347 0.42109 0.03376 0.0
H977 H 0.30705 0.42618 0.09386 0.0
C978 C 0.52726 0.90272 0.24432 0.0
C979 C 0.53432 0.90667 0.28119 0.0
C980 C 0.53126 0.89955 0.20802 0.0
C981 C 0.55202 0.88949 0.17649 0.0
H982 H 0.54605 0.89645 0.06196 0.0
C983 C 0.57077 0.87847 0.02816 0.0
C984 C 0.56293 0.87322 0.99378 0.0
C985 C 0.5677 0.88327 0.06237 0.0
C986 C 0.5477 0.89437 0.09377 0.0
H987 H 0.55131 0.91085 0.30832 0.0
H988 H 0.55832 0.90549 0.24489 0.0
H989 H 0.54002 0.9038 0.12311 0.0
H990 H 0.54578 0.86899 0.96812 0.0
H991 H 0.54041 0.87728 0.028 0.0
H992 H 0.55963 0.88001 0.14727 0.0
C993 C 0.5496 0.9046 0.24429 0.0
C994 C 0.54424 0.89858 0.12875 0.0
C995 C 0.5456 0.90774 0.28056 0.0
C996 C 0.55202 0.87297 0.99412 0.0
C997 C 0.54897 0.8778 0.02828 0.0
C998 C 0.55549 0.88532 0.14156 0.0
C999 C 0.5424 0.90029 0.20785 0.0
C1000 C 0.54634 0.89615 0.1705 0.0
C1001 C 0.55675 0.88293 0.06287 0.0
C1002 C 0.55333 0.88767 0.09984 0.0
H1003 H 0.51852 0.90179 0.2438 0.0
H1004 H 0.52545 0.89616 0.18057 0.0
H1005 H 0.55356 0.88728 0.20823 0.0
H1006 H 0.57926 0.87884 0.02879 0.0
H1007 H 0.57394 0.8873 0.08836 0.0
C1008 C 0.20444 0.97709 0.8521 0.0
C1009 C 0.19574 0.96523 0.85968 0.0
C1010 C 0.20739 0.98567 0.88366 0.0
C1011 C 0.20723 0.98879 -0.00056 0.0
H1012 H 0.21372 0.02058 0.97309 0.0
C1013 C 0.22096 0.02412 0.13019 0.0
C1014 C 0.23051 0.03542 0.12049 0.0
C1015 C 0.21538 0.0157 0.09812 0.0
C1016 C 0.21201 0.01176 0.98087 0.0
H1017 H 0.18311 0.95314 0.90598 0.0
H1018 H 0.18828 0.96817 0.96116 0.0
H1019 H 0.20634 0.00547 0.9173 0.0
H1020 H 0.24145 0.04688 0.06937 0.0
H1021 H 0.23184 0.03208 0.01343 0.0
H1022 H 0.21316 0.99509 0.06261 0.0
C1023 C 0.19288 0.97077 0.93087 0.0
C1024 C 0.20777 0.00312 0.94897 0.0
C1025 C 0.18989 0.96218 0.89922 0.0
C1026 C 0.23411 0.03825 0.07785 0.0
C1027 C 0.22856 0.02979 0.04575 0.0
C1028 C 0.2115 0.99743 0.03127 0.0
C1029 C 0.20172 0.98259 0.92351 0.0
C1030 C 0.20545 0.99157 0.95785 0.0
C1031 C 0.21926 0.01835 0.05566 0.0
C1032 C 0.21404 0.00905 0.02227 0.0
H1033 H 0.2091 0.97974 0.82194 0.0
H1034 H 0.21434 0.99467 0.87723 0.0
H1035 H 0.2057 0.98002 0.00709 0.0
H1036 H 0.21788 0.02171 0.1627 0.0
H1037 H 0.20809 0.00705 0.10668 0.0
C1038 C 0.96071 0.20165 0.0744 0.0
C1039 C 0.96364 0.20348 0.1179 0.0
C1040 C 0.9695 0.2044 0.04377 0.0
C1041 C 0.00151 0.22324 0.02709 0.0
H1042 H 0.99611 0.20274 0.92986 0.0
C1043 C 0.03775 0.2344 0.90105 0.0
C1044 C 0.03401 0.23309 0.85839 0.0
C1045 C 0.02943 0.22972 0.93401 0.0
C1046 C -0.00228 0.20859 0.95671 0.0
H1047 H 0.97806 0.20943 0.16346 0.0
H1048 H 0.99336 0.21419 0.11001 0.0
H1049 H 0.98092 0.19667 0.98492 0.0
H1050 H 0.01864 0.2255 0.81674 0.0
H1051 H 0.00419 0.21752 0.8741 0.0
H1052 H 0.01818 0.23528 -0.00141 0.0
C1053 C 0.98429 0.21075 0.09958 0.0
C1054 C 0.98902 0.20511 0.98819 0.0
C1055 C 0.97551 0.20797 0.13018 0.0
C1056 C 0.02182 0.22669 0.84929 0.0
C1057 C 0.01352 0.22203 0.88218 0.0
C1058 C 0.01019 0.22673 0.99557 0.0
C1059 C 0.98139 0.20905 0.05605 0.0
C1060 C 0.99079 0.21245 0.02351 0.0
C1061 C 0.01722 0.22364 0.92494 0.0
C1062 C 0.00834 0.2195 0.95982 0.0
H1063 H 0.95164 0.19819 0.06392 0.0
H1064 H 0.96702 0.20311 0.0104 0.0
H1065 H 0.00306 0.22916 0.05366 0.0
H1066 H 0.04708 0.23923 0.9091 0.0
H1067 H 0.03257 0.23095 0.96662 0.0
C1068 C 0.76479 0.80359 0.90134 0.0
C1069 C 0.76524 0.80121 0.85791 0.0
C1070 C 0.77033 0.80016 0.93174 0.0
C1071 C 0.78021 0.77851 0.94777 0.0
H1072 H 0.79566 0.79752 0.04782 0.0
C1073 C 0.80058 0.76267 0.07693 0.0
C1074 C 0.79761 0.76376 0.11908 0.0
C1075 C 0.7983 0.76838 0.04366 0.0
C1076 C 0.79133 0.7921 0.0201 0.0
H1077 H 0.77222 0.79375 0.81212 0.0
H1078 H 0.78198 0.7879 0.86513 0.0
H1079 H 0.78863 0.80553 0.99186 0.0
H1080 H 0.79026 0.77202 0.1596 0.0
H1081 H 0.78618 0.78186 0.1016 0.0
H1082 H 0.7827 0.765 0.97627 0.0
C1083 C 0.77718 0.79223 0.87576 0.0
C1084 C 0.7873 0.79668 0.98811 0.0
C1085 C 0.77162 0.79563 0.84538 0.0
C1086 C 0.79263 0.77096 0.12745 0.0
C1087 C 0.79037 0.77669 0.09424 0.0
C1088 C 0.78425 0.77395 0.9797 0.0
C1089 C 0.77646 0.79431 0.91932 0.0
C1090 C 0.78155 0.78987 0.95186 0.0
C1091 C 0.79303 0.77533 0.05192 0.0
C1092 C 0.7897 0.78062 0.01648 0.0
H1093 H 0.75995 0.80787 0.91202 0.0
H1094 H 0.76949 0.80177 0.96509 0.0
H1095 H 0.77565 0.77296 0.92057 0.0
H1096 H 0.80449 0.75724 0.06947 0.0
H1097 H 0.80057 0.76729 0.0114 0.0
C1098 C 0.76464 0.97508 0.87955 0.0
C1099 C 0.75932 0.96276 0.88534 0.0
C1100 C 0.76801 0.98266 0.91461 0.0
C1101 C 0.77536 0.98524 0.02835 0.0
H1102 H 0.76578 0.00906 0.02758 0.0
C1103 C 0.79231 0.02379 0.14976 0.0
C1104 C 0.78381 0.02629 0.1668 0.0
C1105 C 0.78931 0.01561 0.11662 0.0
C1106 C 0.76845 0.00241 0.02834 0.0
H1107 H 0.75377 0.94877 0.93244 0.0
H1108 H 0.75975 0.9621 0.99386 0.0
H1109 H 0.76083 0.9956 0.96715 0.0
H1110 H 0.76549 0.0221 0.16276 0.0
H1111 H 0.76029 0.00788 0.10467 0.0
H1112 H 0.78297 0.99208 0.08969 0.0
C1113 C 0.76128 0.96584 0.96208 0.0
C1114 C 0.76573 0.99479 0.99361 0.0
C1115 C 0.75781 0.95822 0.92695 0.0
C1116 C 0.77224 0.02039 0.15027 0.0
C1117 C 0.76927 0.01229 0.1169 0.0
C1118 C 0.77818 0.99295 0.06299 0.0
C1119 C 0.76623 0.97811 0.95621 0.0
C1120 C 0.76916 0.98614 0.99324 0.0
C1121 C 0.77779 0.00986 0.09965 0.0
C1122 C 0.77474 0.00159 0.06329 0.0
H1123 H 0.76598 0.97887 0.84791 0.0
H1124 H 0.77197 0.99211 0.90919 0.0
H1125 H 0.77815 0.97868 0.02875 0.0
H1126 H 0.8013 0.02818 0.16189 0.0
H1127 H 0.79607 0.01398 0.10364 0.0
C1128 C 0.02295 0.80022 0.87107 0.0
C1129 C 0.03519 0.80569 0.87903 0.0
C1130 C 0.01495 0.79736 0.90466 0.0
C1131 C 0.01186 0.79011 0.01796 0.0
H1132 H 0.98397 0.79345 0.00957 0.0
C1133 C 0.97713 0.77424 0.15221 0.0
C1134 C 0.96521 0.76787 0.13926 0.0
C1135 C 0.98611 0.78047 0.12246 0.0
C1136 C 0.99168 0.7924 0.01226 0.0
H1137 H 0.04866 0.81277 0.92836 0.0
H1138 H 0.03464 0.80771 0.98716 0.0
H1139 H -0.00097 0.80165 0.95374 0.0
H1140 H 0.95334 0.76325 0.08511 0.0
H1141 H 0.96902 0.77392 0.03309 0.0
H1142 H 0.00441 0.78056 0.07572 0.0
C1143 C 0.03126 0.80559 0.95488 0.0
C1144 C 0.0003 0.79711 0.98037 0.0
C1145 C 0.03928 0.80852 0.92121 0.0
C1146 C 0.96244 0.76808 0.09611 0.0
C1147 C 0.97143 0.77427 0.06633 0.0
C1148 C 0.00323 0.78535 0.04976 0.0
C1149 C 0.01901 0.79986 0.94695 0.0
C1150 C 0.0104 0.79586 0.9826 0.0
C1151 C 0.98338 0.78043 0.0791 0.0
C1152 C 0.99295 0.7863 0.04697 0.0
H1153 H 0.0195 0.79796 0.83891 0.0
H1154 H 0.00555 0.79283 0.89757 0.0
H1155 H 0.01947 0.78886 0.02025 0.0
H1156 H 0.97955 0.77434 0.18531 0.0
H1157 H 0.99521 0.78528 0.13342 0.0
C1158 C 0.22546 0.20346 0.15667 0.0
C1159 C 0.23046 0.19636 0.14695 0.0
C1160 C 0.21999 0.20656 0.12497 0.0
C1161 C 0.20723 0.19883 0.01647 0.0
H1162 H 0.2152 0.23178 0.01351 0.0
C1163 C 0.1871 0.21684 0.89308 0.0
C1164 C 0.19513 0.2277 0.8739 0.0
C1165 C 0.19056 0.21265 0.92811 0.0
C1166 C 0.21291 0.22256 0.01385 0.0
H1167 H 0.23336 0.18667 0.09659 0.0
H1168 H 0.22395 0.19221 0.04108 0.0
H1169 H 0.22272 0.22484 0.07109 0.0
H1170 H 0.21305 0.2427 0.8766 0.0
H1171 H 0.21908 0.23536 0.93733 0.0
H1172 H 0.19772 0.19667 0.95836 0.0
C1173 C 0.22414 0.19528 0.07334 0.0
C1174 C 0.21711 0.21855 0.0471 0.0
C1175 C 0.2296 0.19216 0.10509 0.0
C1176 C 0.20664 0.23432 0.89069 0.0
C1177 C 0.21008 0.23014 0.92567 0.0
C1178 C 0.20301 0.20285 0.98318 0.0
C1179 C 0.21942 0.20264 0.08284 0.0
C1180 C 0.2144 0.20667 0.04859 0.0
C1181 C 0.20209 0.21926 0.9447 0.0
C1182 C 0.20593 0.21479 0.98128 0.0
H1183 H 0.22589 0.20677 0.1887 0.0
H1184 H 0.21627 0.21209 0.13342 0.0
H1185 H 0.2049 0.1896 0.01699 0.0
H1186 H 0.17817 0.21154 0.88092 0.0
H1187 H 0.18419 0.20429 0.94238 0.0
C1188 C 0.90068 0.37251 0.41199 0.0
C1189 C 0.89997 0.36828 0.45373 0.0
C1190 C 0.89471 0.36462 0.37865 0.0
C1191 C 0.87072 0.33409 0.35532 0.0
H1192 H 0.88886 0.33771 0.25279 0.0
C1193 C 0.85804 0.2963 0.23426 0.0
C1194 C 0.86018 0.29921 0.19082 0.0
C1195 C 0.86165 0.30521 0.265 0.0
C1196 C 0.88358 0.33668 0.28085 0.0
H1197 H 0.89217 0.35252 0.49344 0.0
H1198 H 0.88187 0.33881 0.4353 0.0
H1199 H 0.89742 0.35255 0.30892 0.0
H1200 H 0.86733 0.31372 0.14538 0.0
H1201 H 0.8735 0.32924 0.19899 0.0
H1202 H 0.85695 0.31809 0.32749 0.0
C1203 C 0.88695 0.3482 0.42836 0.0
C1204 C 0.88849 0.34519 0.31303 0.0
C1205 C 0.89294 0.35606 0.46162 0.0
C1206 C 0.86564 0.31119 0.17864 0.0
C1207 C 0.86923 0.32009 0.20936 0.0
C1208 C 0.86578 0.32558 0.32307 0.0
C1209 C 0.88787 0.35238 0.38646 0.0
C1210 C 0.88219 0.34389 0.35087 0.0
C1211 C 0.86746 0.31722 0.25292 0.0
C1212 C 0.87223 0.32669 0.28574 0.0
H1213 H 0.90598 0.38188 0.40492 0.0
H1214 H 0.89549 0.3681 0.34672 0.0
H1215 H 0.86559 0.33295 0.38391 0.0
H1216 H 0.85385 0.28716 0.24468 0.0
H1217 H 0.86028 0.3027 0.29832 0.0
C1218 C 0.69721 0.55583 0.22707 0.0
C1219 C 0.69556 0.56074 0.18959 0.0
C1220 C 0.68831 0.55099 0.25806 0.0
C1221 C 0.66368 0.55381 0.29886 0.0
H1222 H 0.65378 0.52372 0.35479 0.0
C1223 C 0.63668 0.54014 0.45395 0.0
C1224 C 0.62667 0.52872 0.45515 0.0
C1225 C 0.64476 0.54349 0.42049 0.0
C1226 C 0.65643 0.5321 0.33921 0.0
H1227 H 0.68316 0.56417 0.1548 0.0
H1228 H 0.66775 0.55584 0.20903 0.0
H1229 H 0.66854 0.53039 0.29742 0.0
H1230 H 0.61738 0.51178 0.42253 0.0
H1231 H 0.63168 0.51765 0.36401 0.0
H1232 H 0.65173 0.55562 0.3408 0.0
C1233 C 0.67593 0.55577 0.21445 0.0
C1234 C 0.66491 0.53595 0.30672 0.0
C1235 C 0.68475 0.5605 0.18336 0.0
C1236 C 0.62499 0.52066 0.42237 0.0
C1237 C 0.63318 0.52398 0.38907 0.0
C1238 C 0.65534 0.55004 0.33159 0.0
C1239 C 0.67767 0.55109 0.25226 0.0
C1240 C 0.6686 0.54684 0.28629 0.0
C1241 C 0.64309 0.53546 0.38774 0.0
C1242 C 0.65166 0.53918 0.35215 0.0
H1243 H 0.70543 0.55586 0.23271 0.0
H1244 H 0.6899 0.5475 0.28709 0.0
H1245 H 0.66645 0.56229 0.28387 0.0
H1246 H 0.63824 0.54656 0.47873 0.0
H1247 H 0.6524 0.55236 0.42041 0.0
C1248 C 0.42464 0.12968 0.24488 0.0
C1249 C 0.42758 0.12987 0.2017 0.0
C1250 C 0.43101 0.1277 0.27647 0.0
C1251 C 0.45 0.11444 0.29137 0.0
H1252 H 0.456 0.12971 0.40197 0.0
C1253 C 0.47441 0.10483 0.42528 0.0
C1254 C 0.46854 0.10204 0.46479 0.0
C1255 C 0.47093 0.10977 0.3927 0.0
C1256 C 0.45437 0.12538 0.37121 0.0
H1257 H 0.43977 0.12858 0.15782 0.0
H1258 H 0.451 0.12535 0.21292 0.0
H1259 H 0.44708 0.13558 0.34549 0.0
H1260 H 0.45476 0.10265 0.50172 0.0
H1261 H 0.44873 0.11125 0.44497 0.0
H1262 H 0.45718 0.10417 0.31728 0.0
C1263 C 0.44362 0.12645 0.22238 0.0
C1264 C 0.44923 0.1287 0.33894 0.0
C1265 C 0.4372 0.12835 0.19081 0.0
C1266 C 0.45941 0.10464 0.47155 0.0
C1267 C 0.45602 0.10966 0.43917 0.0
C1268 C 0.4552 0.11118 0.32355 0.0
C1269 C 0.44051 0.12596 0.26554 0.0
C1270 C 0.4468 0.12313 0.29886 0.0
C1271 C 0.46163 0.11212 0.39924 0.0
C1272 C 0.45726 0.11647 0.36399 0.0
H1273 H 0.41726 0.13081 0.25428 0.0
H1274 H 0.42828 0.12721 0.30936 0.0
H1275 H 0.44809 0.10984 0.26111 0.0
H1276 H 0.48149 0.10296 0.41918 0.0
H1277 H 0.47546 0.11167 0.36228 0.0
C1278 C 0.42684 0.29095 0.25289 0.0
C1279 C 0.42884 0.29469 0.21018 0.0
C1280 C 0.43206 0.29917 0.2859 0.0
C1281 C 0.45586 0.32985 0.30954 0.0
H1282 H 0.4355 0.32719 0.40413 0.0
C1283 C 0.46683 0.3682 0.4268 0.0
C1284 C 0.46405 0.36531 0.47 0.0
C1285 C 0.46342 0.35927 0.39624 0.0
C1286 C 0.44136 0.32797 0.37828 0.0
H1287 H 0.43815 0.30994 0.16856 0.0
H1288 H 0.4471 0.32426 0.22608 0.0
H1289 H 0.42803 0.31202 0.34894 0.0
H1290 H 0.45583 0.35078 0.51523 0.0
H1291 H 0.44998 0.33523 0.46198 0.0
H1292 H 0.46912 0.34594 0.33864 0.0
C1293 C 0.44162 0.31497 0.23411 0.0
C1294 C 0.43708 0.31926 0.34667 0.0
C1295 C 0.43641 0.30677 0.20114 0.0
C1296 C 0.45804 0.35331 0.48215 0.0
C1297 C 0.45464 0.34439 0.45164 0.0
C1298 C 0.46013 0.33857 0.34117 0.0
C1299 C 0.43938 0.31129 0.27686 0.0
C1300 C 0.44424 0.32016 0.31175 0.0
C1301 C 0.45717 0.34727 0.40831 0.0
C1302 C 0.45289 0.33777 0.37568 0.0
H1303 H 0.42111 0.2817 0.26089 0.0
H1304 H 0.4303 0.29604 0.31854 0.0
H1305 H 0.46164 0.3307 0.28332 0.0
H1306 H 0.47145 0.37736 0.41642 0.0
H1307 H 0.4654 0.36175 0.36303 0.0
C1308 C 0.70292 0.13937 0.23176 0.0
C1309 C 0.6996 0.13509 0.18997 0.0
C1310 C 0.69433 0.13613 0.26359 0.0
C1311 C 0.66432 0.11235 0.29004 0.0
H1312 H 0.66595 0.13401 0.37817 0.0
C1313 C 0.63805 0.09602 0.44581 0.0
C1314 C 0.63257 0.10216 0.46179 0.0
C1315 C 0.64579 0.10047 0.41128 0.0
C1316 C 0.66532 0.1279 0.35351 0.0
H1317 H 0.68465 0.12442 0.14841 0.0
H1318 H 0.66972 0.11887 0.20377 0.0
H1319 H 0.6803 0.14139 0.31974 0.0
H1320 H 0.63088 0.11781 0.45398 0.0
H1321 H 0.64443 0.12558 0.39325 0.0
H1322 H 0.64936 0.09886 0.32356 0.0
C1323 C 0.67896 0.12456 0.21213 0.0
C1324 C 0.6736 0.13209 0.32036 0.0
C1325 C 0.68752 0.12778 0.18039 0.0
C1326 C 0.63497 0.11286 0.44238 0.0
C1327 C 0.64277 0.11735 0.4078 0.0
C1328 C 0.65609 0.10816 0.32314 0.0
C1329 C 0.68227 0.12855 0.25419 0.0
C1330 C 0.67323 0.12433 0.28845 0.0
C1331 C 0.64824 0.11118 0.3919 0.0
C1332 C 0.65657 0.11585 0.35547 0.0
H1333 H 0.71215 0.14503 0.24014 0.0
H1334 H 0.69717 0.13926 0.29581 0.0
H1335 H 0.66388 0.10611 0.2662 0.0
H1336 H 0.63643 0.08777 0.46009 0.0
H1337 H 0.65001 0.0956 0.40015 0.0
C1338 C 0.89792 0.52299 0.41539 0.0
C1339 C 0.8966 0.52548 0.45796 0.0
C1340 C 0.8929 0.5262 0.38233 0.0
C1341 C 0.87066 0.53525 0.35912 0.0
H1342 H 0.89101 0.55131 0.26256 0.0
C1343 C 0.86195 0.56425 0.24223 0.0
C1344 C 0.8644 0.56384 0.19885 0.0
C1345 C 0.86485 0.55825 0.27249 0.0
C1346 C 0.88514 0.54668 0.28894 0.0
H1347 H 0.88865 0.53296 0.49935 0.0
H1348 H 0.88002 0.53866 0.44175 0.0
H1349 H 0.89778 0.54292 0.31765 0.0
H1350 H 0.87151 0.55652 0.15303 0.0
H1351 H 0.87648 0.54598 0.20577 0.0
H1352 H 0.8581 0.53921 0.33067 0.0
C1353 C 0.88483 0.53413 0.43388 0.0
C1354 C 0.88901 0.54186 0.32051 0.0
C1355 C 0.88986 0.53093 0.46688 0.0
C1356 C 0.86958 0.55709 0.18625 0.0
C1357 C 0.87247 0.55109 0.21647 0.0
C1358 C 0.86678 0.54007 0.32751 0.0
C1359 C 0.88643 0.53194 0.39122 0.0
C1360 C 0.88188 0.53622 0.35619 0.0
C1361 C 0.87026 0.5517 0.25997 0.0
C1362 C 0.87403 0.54595 0.29232 0.0
H1363 H 0.90301 0.51874 0.40748 0.0
H1364 H 0.89416 0.52427 0.34978 0.0
H1365 H 0.8649 0.5308 0.38596 0.0
H1366 H 0.85797 0.56937 0.25297 0.0
H1367 H 0.86316 0.55901 0.30582 0.0
C1368 C 0.5243 0.62513 0.58579 0.0
C1369 C 0.52683 0.62886 0.54316 0.0
C1370 C 0.52762 0.63344 0.61866 0.0
C1371 C 0.53748 0.66502 0.64102 0.0
H1372 H 0.55269 0.66011 0.73889 0.0
C1373 C 0.56691 0.70226 0.75938 0.0
C1374 C 0.56593 0.69929 0.80282 0.0
C1375 C 0.56089 0.69348 0.72869 0.0
C1376 C 0.54831 0.66153 0.71208 0.0
H1377 H 0.53449 0.64422 0.50147 0.0
H1378 H 0.54044 0.65867 0.55872 0.0
H1379 H 0.54413 0.64496 0.68377 0.0
H1380 H 0.55758 0.68483 0.84824 0.0
H1381 H 0.54706 0.66955 0.79473 0.0
H1382 H 0.54193 0.68175 0.66908 0.0
C1383 C 0.53576 0.64934 0.56681 0.0
C1384 C 0.54338 0.65284 0.68052 0.0
C1385 C 0.53242 0.64104 0.53399 0.0
C1386 C 0.5586 0.68741 0.81501 0.0
C1387 C 0.55261 0.67864 0.78436 0.0
C1388 C 0.54244 0.67374 0.67258 0.0
C1389 C 0.53355 0.64564 0.60955 0.0
C1390 C 0.53801 0.65453 0.64443 0.0
C1391 C 0.55378 0.68156 0.74086 0.0
C1392 C 0.548 0.67212 0.70825 0.0
H1393 H 0.51992 0.6158 0.59388 0.0
H1394 H 0.52564 0.63031 0.65125 0.0
H1395 H 0.53325 0.66652 0.61388 0.0
H1396 H 0.57248 0.71134 0.74898 0.0
H1397 H 0.56206 0.69597 0.69535 0.0
C1398 C 0.29215 0.86083 0.75828 0.0
C1399 C 0.2951 0.86309 0.80168 0.0
C1400 C 0.30104 0.86423 0.72754 0.0
C1401 C 0.33255 0.88563 0.71061 0.0
H1402 H 0.32908 0.86604 0.61246 0.0
C1403 C 0.36929 0.90044 0.58421 0.0
C1404 C 0.3655 0.89898 0.54158 0.0
C1405 C 0.36108 0.89503 0.61709 0.0
C1406 C 0.33014 0.87163 0.63959 0.0
H1407 H 0.30966 0.87039 0.84698 0.0
H1408 H 0.32511 0.87626 0.79339 0.0
H1409 H 0.31387 0.85845 0.66786 0.0
H1410 H 0.35017 0.89041 0.49991 0.0
H1411 H 0.33586 0.88113 0.55722 0.0
H1412 H 0.34866 0.8989 0.68211 0.0
C1413 C 0.31595 0.872 0.78308 0.0
C1414 C 0.32144 0.86729 0.67126 0.0
C1415 C 0.30709 0.86859 0.81378 0.0
C1416 C 0.35338 0.89173 0.53243 0.0
C1417 C 0.34518 0.88634 0.56528 0.0
C1418 C 0.34123 0.88998 0.67896 0.0
C1419 C 0.31303 0.86998 0.73961 0.0
C1420 C 0.3225 0.87429 0.70691 0.0
C1421 C 0.34892 0.88805 0.608 0.0
C1422 C 0.34007 0.88307 0.6429 0.0
H1423 H 0.283 0.8566 0.74794 0.0
H1424 H 0.29852 0.86266 0.69424 0.0
H1425 H 0.33353 0.89131 0.73738 0.0
H1426 H 0.37858 0.90592 0.59228 0.0
H1427 H 0.36424 0.89639 0.64968 0.0
C1428 C 0.11722 0.43175 0.79253 0.0
C1429 C 0.12883 0.43824 0.80844 0.0
C1430 C 0.1135 0.43625 0.75937 0.0
C1431 C 0.12057 0.46373 0.70179 0.0
H1432 H 0.10155 0.44169 0.61286 0.0
C1433 C 0.09702 0.4751 0.56834 0.0
C1434 C 0.09701 0.47072 0.52737 0.0
C1435 C 0.10148 0.47183 0.60309 0.0
C1436 C 0.10694 0.44799 0.63723 0.0
H1437 H 0.14563 0.45462 0.80244 0.0
H1438 H 0.13918 0.46241 0.74386 0.0
H1439 H 0.10825 0.43469 0.67262 0.0
H1440 H 0.10209 0.45986 0.49043 0.0
H1441 H 0.10995 0.45429 0.55078 0.0
H1442 H 0.11941 0.47708 0.66566 0.0
C1443 C 0.1329 0.45391 0.75751 0.0
C1444 C 0.11066 0.44394 0.67178 0.0
C1445 C 0.13662 0.44942 0.79088 0.0
C1446 C 0.10185 0.4633 0.52164 0.0
C1447 C 0.10631 0.46005 0.55626 0.0
C1448 C 0.11685 0.46779 0.66712 0.0
C1449 C 0.12134 0.44731 0.74117 0.0
C1450 C 0.11749 0.45175 0.70449 0.0
C1451 C 0.10601 0.46413 0.59746 0.0
C1452 C 0.11001 0.45995 0.63444 0.0
H1453 H 0.11096 0.42316 0.80563 0.0
H1454 H 0.10447 0.43105 0.74803 0.0
H1455 H 0.12575 0.46994 0.72669 0.0
H1456 H 0.09336 0.48085 0.57374 0.0
H1457 H 0.10107 0.47505 0.63452 0.0
C1458 C 0.12933 0.70109 0.75593 0.0
C1459 C 0.1265 0.69827 0.79914 0.0
C1460 C 0.12589 0.69211 0.72556 0.0
C1461 C 0.10383 0.66081 0.70756 0.0
H1462 H 0.12448 0.66344 0.61403 0.0
C1463 C 0.08988 0.62374 0.58249 0.0
C1464 C 0.09207 0.6275 0.53981 0.0
C1465 C 0.09491 0.63196 0.61562 0.0
C1466 C 0.11859 0.66262 0.63985 0.0
H1467 H 0.11807 0.6838 0.84453 0.0
H1468 H 0.11214 0.66817 0.79157 0.0
H1469 H 0.13175 0.67871 0.66919 0.0
H1470 H 0.1015 0.64277 0.49839 0.0
H1471 H 0.11013 0.65708 0.55607 0.0
H1472 H 0.0906 0.64484 0.67796 0.0
C1473 C 0.11688 0.67732 0.7811 0.0
C1474 C 0.12275 0.67136 0.67138 0.0
C1475 C 0.12033 0.68629 0.81145 0.0
C1476 C 0.09962 0.63959 0.53094 0.0
C1477 C 0.10464 0.64779 0.56401 0.0
C1478 C 0.09967 0.65208 0.67604 0.0
C1479 C 0.11954 0.68013 0.7378 0.0
C1480 C 0.11537 0.6706 0.70535 0.0
C1481 C 0.10224 0.64409 0.60671 0.0
C1482 C 0.10696 0.65295 0.64162 0.0
H1483 H 0.13407 0.71024 0.74543 0.0
H1484 H 0.12795 0.69455 0.69234 0.0
H1485 H 0.09787 0.66006 0.73302 0.0
H1486 H 0.08415 0.61448 0.59037 0.0
H1487 H 0.09302 0.62883 0.64823 0.0
C1488 C 0.30483 0.44006 0.79129 0.0
C1489 C 0.29262 0.43305 0.78318 0.0
C1490 C 0.31285 0.44511 0.75774 0.0
C1491 C 0.31628 0.44034 0.64541 0.0
H1492 H 0.34348 0.47211 0.65131 0.0
C1493 C 0.35053 0.45921 0.5099 0.0
C1494 C 0.36251 0.46542 0.5221 0.0
C1495 C 0.3416 0.4563 0.53998 0.0
C1496 C 0.33597 0.46319 0.64935 0.0
H1497 H 0.27921 0.4261 0.7336 0.0
H1498 H 0.29329 0.4349 0.67485 0.0
H1499 H 0.32843 0.46522 0.70722 0.0
H1500 H 0.37454 0.47366 0.57525 0.0
H1501 H 0.35894 0.46835 0.62799 0.0
H1502 H 0.32393 0.43813 0.58838 0.0
C1503 C 0.29662 0.43642 0.70723 0.0
C1504 C 0.32735 0.45926 0.68127 0.0
C1505 C 0.28857 0.43142 0.74086 0.0
C1506 C 0.36539 0.46888 0.56485 0.0
C1507 C 0.35644 0.4659 0.59502 0.0
C1508 C 0.32492 0.44423 0.61363 0.0
C1509 C 0.30885 0.4432 0.71536 0.0
C1510 C 0.31749 0.44775 0.67985 0.0
C1511 C 0.34444 0.45947 0.58299 0.0
C1512 C 0.33493 0.45565 0.61547 0.0
H1513 H 0.30824 0.44152 0.82357 0.0
H1514 H 0.32224 0.45019 0.76495 0.0
H1515 H 0.30887 0.43136 0.64382 0.0
H1516 H 0.34802 0.45652 0.4771 0.0
H1517 H 0.33245 0.45152 0.52952 0.0
C1518 C 0.55599 0.84982 0.75666 0.0
C1519 C 0.56277 0.85846 0.78733 0.0
C1520 C 0.55135 0.85276 0.72151 0.0
C1521 C 0.55664 0.87805 0.6557 0.0
H1522 H 0.52337 0.85972 0.62515 0.0
C1523 C 0.53843 0.88979 0.509 0.0
C1524 C 0.52848 0.89105 0.51667 0.0
C1525 C 0.54199 0.88429 0.53893 0.0
C1526 C 0.53268 0.86489 0.63333 0.0
H1527 H 0.56999 0.87691 0.80529 0.0
H1528 H 0.56204 0.88201 0.74388 0.0
H1529 H 0.53102 0.85315 0.68426 0.0
H1530 H 0.51411 0.88697 0.5608 0.0
H1531 H 0.52038 0.87734 0.61325 0.0
H1532 H 0.55832 0.8899 0.60559 0.0
C1533 C 0.56031 0.873 0.74697 0.0
C1534 C 0.53706 0.86109 0.66683 0.0
C1535 C 0.56481 0.87005 0.78223 0.0
C1536 C 0.52185 0.88619 0.55407 0.0
C1537 C 0.52539 0.88062 0.58396 0.0
C1538 C 0.5523 0.88176 0.62205 0.0
C1539 C 0.55358 0.86441 0.71622 0.0
C1540 C 0.54904 0.86776 0.67871 0.0
C1541 C 0.53565 0.87986 0.57707 0.0
C1542 C 0.54026 0.87531 0.61086 0.0
H1543 H 0.55424 0.84081 0.75985 0.0
H1544 H 0.5462 0.846 0.6981 0.0
H1545 H 0.56593 0.8833 0.66406 0.0
H1546 H 0.54369 0.89334 0.48036 0.0
H1547 H 0.54985 0.88368 0.53259 0.0
C1548 C 0.36875 0.12499 0.0841 0.0
C1549 C 0.37604 0.12038 0.0961 0.0
C1550 C 0.3569 0.11942 0.09695 0.0
C1551 C 0.33625 0.09852 0.17733 0.0
H1552 H 0.31219 0.09641 0.09926 0.0
C1553 C 0.28602 0.07042 0.21199 0.0
C1554 C 0.27907 0.07559 0.20212 0.0
C1555 C 0.29791 0.07591 0.19963 0.0
C1556 C 0.31883 0.09704 0.12155 0.0
H1557 H 0.37658 0.10622 0.13059 0.0
H1558 H 0.35585 0.09638 0.15236 0.0
H1559 H 0.33277 0.10575 0.07593 0.0
H1560 H 0.2792 0.09063 0.17186 0.0
H1561 H 0.29994 0.10021 0.15035 0.0
H1562 H 0.32225 0.0897 0.22281 0.0
C1563 C 0.35934 0.10442 0.13366 0.0
C1564 C 0.33062 0.1024 0.10822 0.0
C1565 C 0.37121 0.11002 0.12094 0.0
C1566 C 0.28429 0.08641 0.17991 0.0
C1567 C 0.29616 0.09186 0.16735 0.0
C1568 C 0.32444 0.09311 0.19059 0.0
C1569 C 0.35206 0.10908 0.12196 0.0
C1570 C 0.33949 0.10323 0.13598 0.0
C1571 C 0.30308 0.08665 0.17693 0.0
C1572 C 0.31561 0.09235 0.16288 0.0
H1573 H 0.37221 0.13299 0.06515 0.0
H1574 H 0.35159 0.12334 0.08788 0.0
H1575 H 0.34288 0.09918 0.19976 0.0
H1576 H 0.28226 0.06209 0.22906 0.0
H1577 H 0.30299 0.07164 0.20713 0.0
C1578 C 0.88013 0.2612 0.11575 0.0
C1579 C 0.8682 0.25647 0.12761 0.0
C1580 C 0.88644 0.25562 0.12815 0.0
C1581 C 0.88667 0.23491 0.20752 0.0
H1582 H 0.90701 0.2314 0.12563 0.0
C1583 C 0.90816 0.2062 0.24076 0.0
C1584 C 0.91986 0.21056 0.22669 0.0
C1585 C 0.9019 0.21192 0.22932 0.0
C1586 C 0.90149 0.23245 0.14905 0.0
H1587 H 0.85355 0.24219 0.16186 0.0
H1588 H 0.86456 0.23244 0.18334 0.0
H1589 H 0.89599 0.24115 0.1043 0.0
H1590 H 0.93424 0.22444 0.19012 0.0
H1591 H 0.92339 0.2345 0.17072 0.0
H1592 H 0.89219 0.22625 0.25233 0.0
C1593 C 0.86906 0.24052 0.16475 0.0
C1594 C 0.89517 0.23801 0.13679 0.0
C1595 C 0.86273 0.24607 0.15223 0.0
C1596 C 0.92522 0.22083 0.20134 0.0
C1597 C 0.91897 0.22655 0.18999 0.0
C1598 C 0.89302 0.22937 0.21982 0.0
C1599 C 0.88098 0.24523 0.1528 0.0
C1600 C 0.88769 0.23931 0.16588 0.0
C1601 C 0.90722 0.22213 0.20364 0.0
C1602 C 0.9005 0.22807 0.19072 0.0
H1603 H 0.88462 0.26922 0.09687 0.0
H1604 H 0.89566 0.25954 0.11887 0.0
H1605 H 0.8811 0.23592 0.23082 0.0
H1606 H 0.90375 0.19829 0.26022 0.0
H1607 H 0.89282 0.2082 0.23995 0.0
C1608 C 0.73375 0.62078 0.11163 0.0
C1609 C 0.73664 0.61299 0.13234 0.0
C1610 C 0.73915 0.63268 0.12375 0.0
C1611 C 0.7549 0.65275 0.21347 0.0
H1612 H 0.76575 0.67736 0.12737 0.0
C1613 C 0.78469 0.70231 0.25365 0.0
C1614 C 0.78237 0.71045 0.23253 0.0
C1615 C 0.77879 0.69038 0.24172 0.0
C1616 C 0.76263 0.67058 0.15181 0.0
H1617 H 0.74754 0.61162 0.18181 0.0
H1618 H 0.75702 0.63239 0.20268 0.0
H1619 H 0.7561 0.65661 0.10566 0.0
H1620 H 0.77194 0.71243 0.18264 0.0
H1621 H 0.76156 0.69157 0.16219 0.0
H1622 H 0.76144 0.66671 0.25962 0.0
C1623 C 0.75047 0.62926 0.17744 0.0
C1624 C 0.75711 0.6587 0.13937 0.0
C1625 C 0.74508 0.61737 0.16529 0.0
C1626 C 0.77396 0.70639 0.19948 0.0
C1627 C 0.76806 0.69445 0.18757 0.0
C1628 C 0.76041 0.66463 0.22591 0.0
C1629 C 0.74754 0.63704 0.15689 0.0
C1630 C 0.75323 0.64966 0.17006 0.0
C1631 C 0.77045 0.68632 0.20844 0.0
C1632 C 0.76437 0.67368 0.19523 0.0
H1633 H 0.72726 0.61767 0.08617 0.0
H1634 H 0.73663 0.63844 0.1076 0.0
H1635 H 0.75184 0.64598 0.23789 0.0
H1636 H 0.79115 0.70516 0.27915 0.0
H1637 H 0.78095 0.68438 0.25807 0.0
C1638 C 0.08562 0.28665 0.80163 0.0
C1639 C 0.07471 0.28154 0.78008 0.0
C1640 C 0.09116 0.29846 0.8149 0.0
C1641 C 0.09211 0.32679 0.79492 0.0
H1642 H 0.10596 0.3349 0.90801 0.0
C1643 C 0.10893 0.37309 0.8678 0.0
C1644 C 0.11976 0.37818 0.88991 0.0
C1645 C 0.10334 0.36123 0.85512 0.0
C1646 C 0.10225 0.3328 0.87618 0.0
H1647 H 0.06108 0.28485 0.75521 0.0
H1648 H 0.07073 0.30546 0.77854 0.0
H1649 H 0.09651 0.31438 0.88372 0.0
H1650 H 0.13314 0.37477 0.91652 0.0
H1651 H 0.12342 0.35409 0.894 0.0
H1652 H 0.09788 0.34521 0.78727 0.0
C1653 C 0.07505 0.30035 0.78485 0.0
C1654 C 0.09684 0.32105 0.86227 0.0
C1655 C 0.0695 0.28853 0.77167 0.0
C1656 C 0.12479 0.37111 0.89961 0.0
C1657 C 0.1192 0.35924 0.88688 0.0
C1658 C 0.09753 0.33855 0.8088 0.0
C1659 C 0.08591 0.30543 0.80681 0.0
C1660 C 0.0917 0.31792 0.8215 0.0
C1661 C 0.10845 0.35419 0.86422 0.0
C1662 C 0.10266 0.34169 0.8496 0.0
H1663 H 0.08989 0.28152 0.80853 0.0
H1664 H 0.0996 0.30217 0.83124 0.0
H1665 H 0.08838 0.32469 0.76311 0.0
H1666 H 0.10479 0.37828 0.86 0.0
H1667 H 0.09497 0.35756 0.83833 0.0
C1668 C 0.70742 0.7811 0.78269 0.0
C1669 C 0.71463 0.793 0.795 0.0
C1670 C 0.69566 0.77462 0.79656 0.0
C1671 C 0.67562 0.77393 0.88087 0.0
H1672 H 0.65073 0.75367 0.802 0.0
C1673 C 0.62601 0.75316 0.92216 0.0
C1674 C 0.61829 0.74151 0.90839 0.0
C1675 C 0.63784 0.75917 0.90901 0.0
C1676 C 0.6576 0.75916 0.82458 0.0
H1677 H 0.71514 0.80743 0.83132 0.0
H1678 H 0.69463 0.79613 0.85528 0.0
H1679 H 0.67121 0.76468 0.77734 0.0
H1680 H 0.61699 0.72695 0.87052 0.0
H1681 H 0.63767 0.73739 0.84807 0.0
H1682 H 0.66203 0.76841 0.92814 0.0
C1683 C 0.6981 0.79178 0.83529 0.0
C1684 C 0.66933 0.76548 0.81042 0.0
C1685 C 0.70983 0.79828 0.82131 0.0
C1686 C 0.6227 0.73594 0.88159 0.0
C1687 C 0.63453 0.74195 0.8685 0.0
C1688 C 0.6639 0.76759 0.89506 0.0
C1689 C 0.6909 0.77987 0.82317 0.0
C1690 C 0.67846 0.77298 0.83836 0.0
C1691 C 0.64223 0.75366 0.88185 0.0
C1692 C 0.65474 0.76017 0.86704 0.0
H1693 H 0.71086 0.77676 0.76249 0.0
H1694 H 0.69036 0.76542 0.78701 0.0
H1695 H 0.68249 0.77949 0.90334 0.0
H1696 H 0.6229 0.75772 0.9427 0.0
H1697 H 0.64349 0.76823 0.91944 0.0
C1698 C 0.21696 0.92545 0.77429 0.0
C1699 C 0.20717 0.92381 0.79844 0.0
C1700 C 0.22274 0.91914 0.78409 0.0
C1701 C 0.2277 0.90325 0.87112 0.0
H1702 H 0.23577 0.88838 0.78005 0.0
C1703 C 0.25717 0.88219 0.8967 0.0
C1704 C 0.25326 0.87107 0.87761 0.0
C1705 C 0.25161 0.88873 0.88738 0.0
C1706 C 0.23352 0.89245 0.80582 0.0
H1707 H 0.1958 0.91434 0.852 0.0
H1708 H 0.20592 0.90337 0.8691 0.0
H1709 H 0.22589 0.89963 0.76314 0.0
H1710 H 0.24044 0.8581 0.83377 0.0
H1711 H 0.23077 0.86954 0.81747 0.0
H1712 H 0.23525 0.89599 0.91383 0.0
C1713 C 0.20916 0.90957 0.84273 0.0
C1714 C 0.22798 0.89897 0.79611 0.0
C1715 C 0.20332 0.9158 0.83276 0.0
C1716 C 0.24367 0.86663 0.84902 0.0
C1717 C 0.23817 0.87321 0.83947 0.0
C1718 C 0.23333 0.8968 0.8808 0.0
C1719 C 0.2189 0.91115 0.81842 0.0
C1720 C 0.22497 0.9044 0.82868 0.0
C1721 C 0.24209 0.88432 0.85853 0.0
C1722 C 0.23625 0.8913 0.84826 0.0
H1723 H 0.22015 0.93156 0.74766 0.0
H1724 H 0.2303 0.92062 0.76505 0.0
H1725 H 0.22556 0.90742 0.89684 0.0
H1726 H 0.26454 0.88586 0.91886 0.0
H1727 H 0.25487 0.89731 0.90226 0.0
C1728 C 0.70453 0.91191 0.74528 0.0
C1729 C 0.71203 0.92319 0.76267 0.0
C1730 C 0.69256 0.90554 0.75668 0.0
C1731 C 0.67199 0.90329 0.84165 0.0
H1732 H 0.64773 0.88613 0.75659 0.0
C1733 C 0.6221 0.88286 0.87765 0.0
C1734 C 0.61434 0.87169 0.85999 0.0
C1735 C 0.63406 0.88897 0.86608 0.0
C1736 C 0.65441 0.89076 0.78081 0.0
H1737 H 0.71279 0.93673 0.80514 0.0
H1738 H 0.69191 0.92567 0.82464 0.0
H1739 H 0.6685 0.89719 0.73515 0.0
H1740 H 0.61309 0.85808 0.81683 0.0
H1741 H 0.63398 0.86867 0.79708 0.0
H1742 H 0.65793 0.89686 0.88732 0.0
C1743 C 0.69532 0.92167 0.80267 0.0
C1744 C 0.6663 0.8971 0.76851 0.0
C1745 C 0.70727 0.92804 0.79125 0.0
C1746 C 0.61882 0.86669 0.8309 0.0
C1747 C 0.63078 0.87279 0.81936 0.0
C1748 C 0.66011 0.89694 0.85396 0.0
C1749 C 0.68785 0.91032 0.78575 0.0
C1750 C 0.67522 0.90347 0.79878 0.0
C1751 C 0.63852 0.88403 0.83664 0.0
C1752 C 0.65118 0.89063 0.82367 0.0
H1753 H 0.70793 0.90792 0.72324 0.0
H1754 H 0.68705 0.89678 0.74338 0.0
H1755 H 0.67868 0.90795 0.86584 0.0
H1756 H 0.61893 0.88697 0.90006 0.0
H1757 H 0.63976 0.89766 0.87959 0.0
C1758 C 0.08325 0.79827 0.82635 0.0
C1759 C 0.07378 0.79393 0.7973 0.0
C1760 C 0.08875 0.79168 0.83575 0.0
C1761 C 0.0943 0.76881 0.79281 0.0
H1762 H 0.10057 0.76459 0.91055 0.0
C1763 C 0.12484 0.75048 0.84122 0.0
C1764 C 0.12055 0.7417 0.87298 0.0
C1765 C 0.11889 0.75663 0.83184 0.0
C1766 C 0.09882 0.76566 0.87756 0.0
H1767 H 0.0627 0.77933 0.75504 0.0
H1768 H 0.07243 0.76789 0.77117 0.0
H1769 H 0.09054 0.77577 0.89431 0.0
H1770 H 0.10669 0.73252 0.92002 0.0
H1771 H 0.09637 0.7434 0.90388 0.0
H1772 H 0.10263 0.75876 0.77605 0.0
C1773 C 0.07557 0.77638 0.78665 0.0
C1774 C 0.09318 0.77212 0.86827 0.0
C1775 C 0.06997 0.78291 0.77759 0.0
C1776 C 0.11021 0.73924 0.89535 0.0
C1777 C 0.10434 0.74549 0.88628 0.0
C1778 C 0.10006 0.76246 0.80208 0.0
C1779 C 0.08497 0.78069 0.81595 0.0
C1780 C 0.09086 0.77375 0.82581 0.0
C1781 C 0.1086 0.75421 0.85433 0.0
C1782 C 0.10237 0.76083 0.84454 0.0
H1783 H 0.08638 0.80672 0.84211 0.0
H1784 H 0.09606 0.79525 0.85816 0.0
H1785 H 0.09269 0.77 0.75979 0.0
H1786 H 0.13277 0.75258 0.82337 0.0
H1787 H 0.12243 0.76339 0.80733 0.0
C1788 C 0.22979 0.29106 0.8116 0.0
C1789 C 0.21856 0.2844 0.79267 0.0
C1790 C 0.23445 0.30311 0.82014 0.0
C1791 C 0.23174 0.32907 0.7906 0.0
H1792 H 0.2469 0.34138 0.89984 0.0
C1793 C 0.24444 0.37601 0.84842 0.0
C1794 C 0.25545 0.38263 0.86885 0.0
C1795 C 0.23997 0.36402 0.83915 0.0
C1796 C 0.24282 0.33811 0.869 0.0
H1797 H 0.20349 0.28523 0.76733 0.0
H1798 H 0.21161 0.30625 0.78243 0.0
H1799 H 0.23922 0.32053 0.88277 0.0
H1800 H 0.27039 0.38183 0.89575 0.0
H1801 H 0.26264 0.36095 0.87919 0.0
H1802 H 0.23535 0.34666 0.77679 0.0
C1803 C 0.21685 0.30216 0.79035 0.0
C1804 C 0.23842 0.32617 0.85922 0.0
C1805 C 0.21217 0.2901 0.7819 0.0
C1806 C 0.26186 0.37698 0.8801 0.0
C1807 C 0.25739 0.36499 0.8708 0.0
C1808 C 0.23616 0.34102 0.80035 0.0
C1809 C 0.22801 0.30878 0.80983 0.0
C1810 C 0.23282 0.32151 0.81993 0.0
C1811 C 0.24641 0.35838 0.85008 0.0
C1812 C 0.24173 0.34568 0.83969 0.0
H1813 H 0.23496 0.28695 0.82018 0.0
H1814 H 0.24314 0.30801 0.83466 0.0
H1815 H 0.22762 0.32578 0.75982 0.0
H1816 H 0.23926 0.38008 0.83945 0.0
H1817 H 0.2314 0.35914 0.82373 0.0
C1818 C 0.91736 0.70957 0.16805 0.0
C1819 C 0.92577 0.71459 0.20091 0.0
C1820 C 0.91213 0.69751 0.15859 0.0
C1821 C 0.90469 0.66906 0.20657 0.0
H1822 H 0.90001 0.65803 0.08944 0.0
C1823 C 0.87186 0.62074 0.15859 0.0
C1824 C 0.87568 0.61545 0.12819 0.0
C1825 C 0.87873 0.63281 0.16786 0.0
C1826 C 0.90134 0.66098 0.1223 0.0
H1827 H 0.93539 0.71093 0.2494 0.0
H1828 H 0.92615 0.6898 0.23301 0.0
H1829 H 0.91092 0.6793 0.10436 0.0
H1830 H 0.88974 0.61868 0.08368 0.0
H1831 H 0.90171 0.63982 0.0997 0.0
H1832 H 0.895 0.65075 0.22449 0.0
C1833 C 0.92361 0.69522 0.21468 0.0
C1834 C 0.90749 0.67314 0.13082 0.0
C1835 C 0.92892 0.70732 0.22391 0.0
C1836 C 0.88655 0.6225 0.10726 0.0
C1837 C 0.89338 0.6346 0.11627 0.0
C1838 C 0.89844 0.65691 0.19804 0.0
C1839 C 0.91513 0.69019 0.182 0.0
C1840 C 0.90915 0.6773 0.17302 0.0
C1841 C 0.88954 0.63987 0.14668 0.0
C1842 C 0.89663 0.65275 0.15581 0.0
H1843 H 0.91475 0.71493 0.14968 0.0
H1844 H 0.90553 0.69385 0.13353 0.0
H1845 H 0.90576 0.67202 0.23939 0.0
H1846 H 0.86354 0.61557 0.17531 0.0
H1847 H 0.87549 0.63667 0.19109 0.0
C1848 C 0.37388 0.26011 0.12558 0.0
C1849 C 0.37824 0.25441 0.09928 0.0
C1850 C 0.36202 0.25424 0.13836 0.0
C1851 C 0.33255 0.22886 0.11165 0.0
H1852 H 0.32521 0.23223 0.22888 0.0
C1853 C 0.28611 0.1996 0.18451 0.0
C1854 C 0.28163 0.20528 0.21036 0.0
C1855 C 0.29788 0.20565 0.17075 0.0
C1856 C 0.32711 0.2313 0.19593 0.0
H1857 H 0.37354 0.23811 0.06544 0.0
H1858 H 0.35288 0.22782 0.08815 0.0
H1859 H 0.34575 0.24274 0.20473 0.0
H1860 H 0.28604 0.22178 0.24219 0.0
H1861 H 0.30658 0.23236 0.21802 0.0
H1862 H 0.3139 0.21735 0.10298 0.0
C1863 C 0.35859 0.23688 0.09846 0.0
C1864 C 0.33887 0.23733 0.18207 0.0
C1865 C 0.37045 0.24276 0.08562 0.0
C1866 C 0.28921 0.21714 0.22237 0.0
C1867 C 0.301 0.22318 0.2087 0.0
C1868 C 0.32079 0.22281 0.12555 0.0
C1869 C 0.35426 0.24253 0.12519 0.0
C1870 C 0.34173 0.23618 0.13977 0.0
C1871 C 0.30545 0.21752 0.18264 0.0
C1872 C 0.31794 0.22396 0.16785 0.0
H1873 H 0.37963 0.2691 0.13653 0.0
H1874 H 0.35892 0.25891 0.15841 0.0
H1875 H 0.33443 0.22792 0.0787 0.0
H1876 H 0.28051 0.19046 0.17474 0.0
H1877 H 0.30109 0.201 0.15114 0.0
C1878 C 0.73735 0.1142 0.10349 0.0
C1879 C 0.74177 0.12591 0.11765 0.0
C1880 C 0.74324 0.10803 0.11352 0.0
C1881 C 0.76445 0.10756 0.19013 0.0
H1882 H 0.7678 0.08794 0.10453 0.0
C1883 C 0.78115 0.07515 0.23053 0.0
C1884 C 0.78914 0.07461 0.2018 0.0
C1885 C 0.77546 0.08151 0.22024 0.0
C1886 C 0.76701 0.09345 0.1287 0.0
H1887 H 0.7559 0.14035 0.15327 0.0
H1888 H 0.76623 0.1296 0.17049 0.0
H1889 H 0.75792 0.09905 0.08619 0.0
H1890 H 0.79747 0.08036 0.13978 0.0
H1891 H 0.78761 0.09152 0.12202 0.0
H1892 H 0.7737 0.1021 0.23246 0.0
C1893 C 0.75812 0.12515 0.15204 0.0
C1894 C 0.76123 0.09971 0.11833 0.0
C1895 C 0.75224 0.13133 0.14195 0.0
C1896 C 0.79134 0.08057 0.16259 0.0
C1897 C 0.78564 0.08691 0.15229 0.0
C1898 C 0.7702 0.10128 0.20053 0.0
C1899 C 0.75368 0.11343 0.13798 0.0
C1900 C 0.75988 0.10683 0.14893 0.0
C1901 C 0.77763 0.08745 0.18099 0.0
C1902 C 0.77154 0.09415 0.16994 0.0
H1903 H 0.72929 0.10976 0.08478 0.0
H1904 H 0.73952 0.09896 0.10265 0.0
H1905 H 0.76345 0.11289 0.21453 0.0
H1906 H 0.77924 0.07064 0.26096 0.0
H1907 H 0.76923 0.08164 0.24281 0.0
C1908 C 0.04361 0.46777 0.46494 0.0
C1909 C 0.04841 0.46194 0.44167 0.0
C1910 C 0.0317 0.46175 0.47718 0.0
C1911 C 0.00278 0.4354 0.4532 0.0
H1912 H 0.9952 0.43936 0.56947 0.0
C1913 C 0.95683 0.40497 0.52739 0.0
C1914 C 0.95202 0.41026 0.55363 0.0
C1915 C 0.96852 0.41149 0.51301 0.0
C1916 C -0.00286 0.43827 0.53674 0.0
H1917 H 0.04441 0.44526 0.41226 0.0
H1918 H 0.02364 0.43474 0.43376 0.0
H1919 H 0.01567 0.45046 0.54487 0.0
H1920 H 0.95572 0.42658 0.58525 0.0
H1921 H 0.97608 0.438 0.55977 0.0
H1922 H 0.98425 0.4232 0.44508 0.0
C1923 C 0.02907 0.444 0.44229 0.0
C1924 C 0.00887 0.44463 0.52265 0.0
C1925 C 0.04099 0.45001 0.43016 0.0
C1926 C 0.95916 0.42222 0.56522 0.0
C1927 C 0.97085 0.42876 0.55078 0.0
C1928 C 0.99104 0.42906 0.46726 0.0
C1929 C 0.02433 0.44977 0.46628 0.0
C1930 C 0.01182 0.44323 0.48079 0.0
C1931 C 0.97566 0.42347 0.52448 0.0
C1932 C 0.9881 0.43038 0.50925 0.0
H1933 H 0.04907 0.47697 0.47422 0.0
H1934 H 0.02826 0.46647 0.49516 0.0
H1935 H 0.00476 0.43426 0.42059 0.0
H1936 H 0.95158 0.39576 0.51796 0.0
H1937 H 0.972 0.40711 0.49332 0.0
C1938 C 0.57706 0.5343 0.50013 0.0
C1939 C 0.58642 0.5393 0.52967 0.0
C1940 C 0.57102 0.54023 0.48891 0.0
C1941 C 0.56486 0.56362 0.52455 0.0
H1942 H 0.55734 0.56432 0.40531 0.0
C1943 C 0.54704 0.59342 0.46196 0.0
C1944 C 0.53785 0.58845 0.43173 0.0
C1945 C 0.55298 0.58744 0.47406 0.0
C1946 C 0.55926 0.5641 0.43879 0.0
H1947 H 0.59669 0.5544 0.57102 0.0
H1948 H 0.58619 0.56481 0.55117 0.0
H1949 H 0.56757 0.55378 0.4267 0.0
H1950 H 0.5277 0.5733 0.39044 0.0
H1951 H 0.53799 0.56282 0.41182 0.0
H1952 H 0.55654 0.57394 0.53661 0.0
C1953 C 0.58345 0.55624 0.53699 0.0
C1954 C 0.56511 0.55806 0.45105 0.0
C1955 C 0.58951 0.5503 0.54821 0.0
C1956 C 0.53476 0.57739 0.41371 0.0
C1957 C 0.54071 0.57141 0.4258 0.0
C1958 C 0.55899 0.56966 0.51228 0.0
C1959 C 0.5742 0.55131 0.50698 0.0
C1960 C 0.56797 0.55774 0.49407 0.0
C1961 C 0.54986 0.57636 0.45619 0.0
C1962 C 0.55612 0.56996 0.46925 0.0
H1963 H 0.57442 0.52581 0.48539 0.0
H1964 H 0.56381 0.53611 0.4662 0.0
H1965 H 0.56679 0.5634 0.55801 0.0
H1966 H 0.54966 0.60194 0.4764 0.0
H1967 H 0.5601 0.59156 0.49711 0.0
C1968 C 0.44328 0.04097 0.54512 0.0
C1969 C 0.45345 0.04887 0.52202 0.0
C1970 C 0.43663 0.02906 0.53302 0.0
C1971 C 0.43081 0.00907 0.44127 0.0
H1972 H 0.41936 0.98447 0.52751 0.0
C1973 C 0.4125 0.95975 0.40041 0.0
C1974 C 0.40262 0.95129 0.42342 0.0
C1975 C 0.41814 0.97171 0.41187 0.0
C1976 C 0.42236 0.99124 0.50308 0.0
H1977 H 0.46464 0.05045 0.46825 0.0
H1978 H 0.45312 0.0297 0.4475 0.0
H1979 H 0.43029 0.00524 0.54898 0.0
H1980 H 0.39077 0.9488 0.47605 0.0
H1981 H 0.40057 0.96969 0.49577 0.0
H1982 H 0.42295 0.99507 0.39535 0.0
C1983 C 0.45019 0.03273 0.47458 0.0
C1984 C 0.42862 0.00314 0.51539 0.0
C1985 C 0.45683 0.04461 0.48667 0.0
C1986 C 0.39839 0.95508 0.45774 0.0
C1987 C 0.40404 0.96704 0.46922 0.0
C1988 C 0.42454 0.99718 0.42897 0.0
C1989 C 0.44 0.02482 0.49754 0.0
C1990 C 0.43299 0.01219 0.4846 0.0
C1991 C 0.41403 0.97548 0.4466 0.0
C1992 C 0.42032 0.98813 0.45971 0.0
H1993 H 0.44042 0.04398 0.57245 0.0
H1994 H 0.42876 0.02322 0.55111 0.0
H1995 H 0.43388 0.01584 0.41682 0.0
H1996 H 0.41599 0.95712 0.37385 0.0
H1997 H 0.4259 0.97797 0.3941 0.0
C1998 C 0.59629 0.03923 0.54704 0.0
C1999 C 0.59114 0.04343 0.57662 0.0
C2000 C 0.59079 0.02719 0.53703 0.0
C2001 C 0.56852 0.99738 0.57454 0.0
H2002 H 0.56685 0.98918 0.45486 0.0
C2003 C 0.5384 0.94983 0.51121 0.0
C2004 C 0.54289 0.94582 0.47846 0.0
C2005 C 0.54466 0.96162 0.52476 0.0
C2006 C 0.56738 0.99131 0.48846 0.0
H2007 H 0.57631 0.03822 0.61968 0.0
H2008 H 0.56665 0.01717 0.60192 0.0
H2009 H 0.57711 0.00994 0.47609 0.0
H2010 H 0.55759 0.95097 0.43482 0.0
H2011 H 0.56858 0.97151 0.45881 0.0
H2012 H 0.55872 0.97872 0.58682 0.0
C2013 C 0.575 0.0232 0.58673 0.0
C2014 C 0.57325 0.00321 0.50063 0.0
C2015 C 0.58051 0.03527 0.59675 0.0
C2016 C 0.55386 0.9538 0.45996 0.0
C2017 C 0.56013 0.96559 0.47356 0.0
C2018 C 0.56265 0.98546 0.56235 0.0
C2019 C 0.58002 0.01906 0.55635 0.0
C2020 C 0.57388 0.00638 0.54378 0.0
C2021 C 0.55556 0.96965 0.5059 0.0
C2022 C 0.562 0.98229 0.51915 0.0
H2023 H 0.60452 0.04526 0.53114 0.0
H2024 H 0.59498 0.02425 0.51403 0.0
H2025 H 0.56897 -0.00045 0.60808 0.0
H2026 H 0.52996 0.94391 0.5261 0.0
H2027 H 0.54083 0.9645 0.54938 0.0
C2028 C 0.95092 0.52833 0.51446 0.0
C2029 C 0.94576 0.53407 0.53624 0.0
C2030 C 0.96278 0.53463 0.50183 0.0
C2031 C 0.99113 0.56178 0.52404 0.0
H2032 H -0.00042 0.55648 0.41087 0.0
C2033 C 0.03784 0.59117 0.45367 0.0
C2034 C 0.04283 0.58544 0.43087 0.0
C2035 C 0.02595 0.58496 0.46611 0.0
C2036 C -0.00261 0.55797 0.44274 0.0
H2037 H 0.94907 0.5509 0.56218 0.0
H2038 H 0.96978 0.56189 0.53997 0.0
H2039 H 0.97896 0.54547 0.43399 0.0
H2040 H 0.03923 0.5687 0.40305 0.0
H2041 H 0.01853 0.55785 0.42518 0.0
H2042 H 0.00956 0.57424 0.5329 0.0
C2043 C 0.96465 0.5525 0.53297 0.0
C2044 C 0.98558 0.55166 0.45597 0.0
C2045 C 0.95277 0.54621 0.54551 0.0
C2046 C 0.03565 0.57339 0.42046 0.0
C2047 C 0.02377 0.56718 0.43296 0.0
C2048 C 0.00295 0.56807 0.51084 0.0
C2049 C 0.96977 0.54679 0.51079 0.0
C2050 C 0.98232 0.5535 0.49678 0.0
C2051 C 0.01879 0.57289 0.45609 0.0
C2052 C 0.00622 0.56624 0.47003 0.0
H2053 H 0.94578 0.51898 0.50691 0.0
H2054 H 0.96651 0.52994 0.4853 0.0
H2055 H 0.98893 0.56327 0.55588 0.0
H2056 H 0.04311 0.60046 0.46208 0.0
H2057 H 0.02235 0.58966 0.48334 0.0
C2058 C 0.40142 0.44402 0.43717 0.0
C2059 C 0.40403 0.45447 0.45906 0.0
C2060 C 0.4073 0.43785 0.4475 0.0
C2061 C 0.4238 0.43339 0.5336 0.0
H2062 H 0.43671 0.423 0.4428 0.0
C2063 C 0.44412 0.40335 0.56253 0.0
C2064 C 0.45498 0.40682 0.54211 0.0
C2065 C 0.4376 0.4089 0.55265 0.0
C2066 C 0.43318 0.42588 0.46847 0.0
H2067 H 0.41477 0.46657 0.50924 0.0
H2068 H 0.42497 0.45576 0.52732 0.0
H2069 H 0.42583 0.43321 0.42519 0.0
H2070 H 0.46749 0.41879 0.49522 0.0
H2071 H 0.45606 0.42841 0.4779 0.0
H2072 H 0.43124 0.42615 0.57688 0.0
C2073 C 0.41836 0.45233 0.50229 0.0
C2074 C 0.42686 0.43162 0.45839 0.0
C2075 C 0.41256 0.45856 0.49173 0.0
C2076 C 0.45916 0.41591 0.51155 0.0
C2077 C 0.45259 0.42138 0.50141 0.0
C2078 C 0.43002 0.42755 0.54366 0.0
C2079 C 0.41582 0.44194 0.48018 0.0
C2080 C 0.42218 0.43551 0.49086 0.0
C2081 C 0.44175 0.41794 0.52188 0.0
C2082 C 0.43485 0.42382 0.51121 0.0
H2083 H 0.39489 0.44064 0.41186 0.0
H2084 H 0.40511 0.42981 0.43018 0.0
H2085 H 0.42021 0.43622 0.55925 0.0
H2086 H 0.44066 0.39637 0.58623 0.0
H2087 H 0.42923 0.40601 0.56868 0.0
C2088 C 0.21528 0.06976 0.23966 0.0
C2089 C 0.22575 0.07049 0.2552 0.0
C2090 C 0.21307 0.07911 0.24616 0.0
C2091 C 0.22262 0.10631 0.31062 0.0
H2092 H 0.21414 0.11792 0.21049 0.0
C2093 C 0.23582 0.1549 0.28861 0.0
C2094 C 0.22785 0.15775 0.26926 0.0
C2095 C 0.23309 0.14313 0.29194 0.0
C2096 C 0.21627 0.11466 0.23898 0.0
H2097 H 0.24192 0.08143 0.29081 0.0
H2098 H 0.23812 0.09768 0.30175 0.0
H2099 H 0.21371 0.09899 0.20735 0.0
H2100 H 0.21063 0.15049 0.23898 0.0
H2101 H 0.2059 0.12982 0.2444 0.0
H2102 H 0.22567 0.12224 0.34164 0.0
C2103 C 0.23155 0.08987 0.28497 0.0
C2104 C 0.21602 0.10381 0.23721 0.0
C2105 C 0.23378 0.08058 0.27836 0.0
C2106 C 0.21695 0.14856 0.25404 0.0
C2107 C 0.21426 0.13675 0.25701 0.0
C2108 C 0.2229 0.11715 0.31235 0.0
C2109 C 0.22124 0.08931 0.26856 0.0
C2110 C 0.21956 0.09972 0.27259 0.0
C2111 C 0.22235 0.13394 0.27574 0.0
C2112 C 0.22009 0.12161 0.27614 0.0
H2113 H 0.20891 0.06209 0.22178 0.0
H2114 H 0.20502 0.07841 0.23338 0.0
H2115 H 0.22516 0.10327 0.33867 0.0
H2116 H 0.24428 0.16177 0.30079 0.0
H2117 H 0.23958 0.14126 0.30597 0.0
C2118 C 0.84759 0.07347 0.21064 0.0
C2119 C 0.83928 0.07355 0.23904 0.0
C2120 C 0.85933 0.08281 0.2105 0.0
C2121 C 0.88112 0.1086 0.2741 0.0
H2122 H 0.89418 0.12252 0.16393 0.0
C2123 C 0.9157 0.15756 0.25268 0.0
C2124 C 0.92495 0.16074 0.22329 0.0
C2125 C 0.90664 0.14581 0.25626 0.0
C2126 C 0.89077 0.11861 0.19489 0.0
H2127 H 0.83686 0.08329 0.29047 0.0
H2128 H 0.85718 0.09956 0.28988 0.0
H2129 H 0.87567 0.10362 0.16751 0.0
H2130 H 0.93203 0.15406 0.17496 0.0
H2131 H 0.91602 0.13345 0.18095 0.0
H2132 H 0.89597 0.12386 0.30144 0.0
C2133 C 0.85472 0.09225 0.26804 0.0
C2134 C 0.88018 0.10778 0.19696 0.0
C2135 C 0.84302 0.08296 0.26812 0.0
C2136 C 0.92501 0.15188 0.19788 0.0
C2137 C 0.91586 0.1401 0.2012 0.0
C2138 C 0.89168 0.11944 0.27202 0.0
C2139 C 0.86297 0.09237 0.2389 0.0
C2140 C 0.87507 0.10284 0.23662 0.0
C2141 C 0.90656 0.13698 0.23034 0.0
C2142 C 0.89642 0.12471 0.23242 0.0
H2143 H 0.845 0.06632 0.18795 0.0
H2144 H 0.86552 0.08261 0.18792 0.0
H2145 H 0.87753 0.1049 0.30512 0.0
H2146 H 0.9154 0.16417 0.27281 0.0
H2147 H 0.8995 0.1437 0.27855 0.0
C2148 C 0.92318 0.77438 0.23133 0.0
C2149 C 0.92275 0.76377 0.24338 0.0
C2150 C 0.91282 0.77509 0.23022 0.0
C2151 C 0.88047 0.75602 0.22109 0.0
H2152 H 0.87898 0.78284 0.26768 0.0
C2153 C 0.83614 0.75349 0.25305 0.0
C2154 C 0.83484 0.76315 0.24057 0.0
C2155 C 0.84725 0.75439 0.25294 0.0
C2156 C 0.87931 0.77536 0.2541 0.0
H2157 H 0.91115 0.74569 0.26459 0.0
H2158 H 0.89319 0.74698 0.26295 0.0
H2159 H 0.89783 0.78294 0.26794 0.0
H2160 H 0.84428 0.78145 0.21934 0.0
H2161 H 0.8638 0.78299 0.21902 0.0
H2162 H 0.86201 0.74838 0.20752 0.0
C2163 C 0.90148 0.75469 0.25373 0.0
C2164 C 0.89009 0.77542 0.25423 0.0
C2165 C 0.9118 0.75398 0.25491 0.0
C2166 C 0.84499 0.77385 0.22907 0.0
C2167 C 0.85616 0.77475 0.22902 0.0
C2168 C 0.86975 0.75596 0.22097 0.0
C2169 C 0.90184 0.7652 0.24095 0.0
C2170 C 0.89071 0.76564 0.23838 0.0
C2171 C 0.85736 0.76496 0.24031 0.0
C2172 C 0.86899 0.76552 0.23814 0.0
H2173 H 0.93149 0.78208 0.2223 0.0
H2174 H 0.91335 0.78329 0.22007 0.0
H2175 H 0.88073 0.74848 0.20773 0.0
H2176 H 0.82853 0.74514 0.26245 0.0
H2177 H 0.84792 0.74677 0.26265 0.0
C2178 C 0.07185 0.22103 0.75727 0.0
C2179 C 0.07083 0.22957 0.73312 0.0
C2180 C 0.0817 0.21955 0.75232 0.0
C2181 C 0.10706 0.22638 0.68142 0.0
H2182 H 0.12349 0.22827 0.78673 0.0
C2183 C 0.15706 0.24313 0.68861 0.0
C2184 C 0.1614 0.23851 0.7197 0.0
C2185 C 0.14501 0.23952 0.687 0.0
C2186 C 0.11893 0.22747 0.75699 0.0
H2187 H 0.07903 0.24282 0.68339 0.0
H2188 H 0.09616 0.24023 0.67485 0.0
H2189 H 0.10387 0.22615 0.7894 0.0
H2190 H 0.15642 0.22601 0.772 0.0
H2191 H 0.13536 0.21957 0.7687 0.0
H2192 H 0.12224 0.22798 0.64898 0.0
C2193 C 0.08935 0.23466 0.69748 0.0
C2194 C 0.10767 0.22626 0.75856 0.0
C2195 C 0.07958 0.23621 0.70265 0.0
C2196 C 0.15337 0.22983 0.74795 0.0
C2197 C 0.1413 0.22617 0.74617 0.0
C2198 C 0.1183 0.22752 0.67982 0.0
C2199 C 0.09063 0.22649 0.72284 0.0
C2200 C 0.10175 0.226 0.72082 0.0
C2201 C 0.13702 0.23116 0.71627 0.0
C2202 C 0.12449 0.22839 0.71761 0.0
H2203 H 0.06523 0.21575 0.78092 0.0
H2204 H 0.08243 0.21312 0.77206 0.0
H2205 H 0.10261 0.22604 0.65182 0.0
H2206 H 0.16302 0.24982 0.66637 0.0
H2207 H 0.14205 0.24367 0.66391 0.0
C2208 C 0.77779 0.8512 0.76634 0.0
C2209 C 0.7676 0.84209 0.74662 0.0
C2210 C 0.7801 0.86291 0.76518 0.0
C2211 C 0.77229 0.88284 0.70795 0.0
H2212 H 0.77784 0.89909 0.81641 0.0
C2213 C 0.75984 0.91851 0.73756 0.0
C2214 C 0.76709 0.92828 0.76355 0.0
C2215 C 0.76228 0.90932 0.73228 0.0
C2216 C 0.77655 0.8948 0.78571 0.0
H2217 H 0.75204 0.83816 0.70916 0.0
H2218 H 0.75608 0.8585 0.70709 0.0
H2219 H 0.77802 0.88047 0.81247 0.0
H2220 H 0.78275 0.93618 0.80375 0.0
H2221 H 0.78701 0.92004 0.79446 0.0
H2222 H 0.77047 0.89696 0.68137 0.0
C2223 C 0.76231 0.85663 0.72327 0.0
C2224 C 0.77665 0.88414 0.78348 0.0
C2225 C 0.75995 0.84496 0.72476 0.0
C2226 C 0.77697 0.92875 0.78361 0.0
C2227 C 0.7794 0.9195 0.77841 0.0
C2228 C 0.77223 0.8935 0.71014 0.0
C2229 C 0.77233 0.86571 0.74382 0.0
C2230 C 0.77415 0.87787 0.74483 0.0
C2231 C 0.77203 0.90966 0.75287 0.0
C2232 C 0.77397 0.8994 0.7493 0.0
H2233 H 0.78385 0.84926 0.78343 0.0
H2234 H 0.78791 0.86975 0.78115 0.0
H2235 H 0.77055 0.8783 0.67759 0.0
H2236 H 0.75216 0.91785 0.72163 0.0
H2237 H 0.7563 0.90176 0.713 0.0
C2238 C 0.15569 0.91742 0.72008 0.0
C2239 C 0.15835 0.92851 0.7365 0.0
C2240 C 0.14397 0.9083 0.71657 0.0
C2241 C 0.11505 0.89713 0.76498 0.0
H2242 H 0.10451 0.87609 0.66713 0.0
C2243 C 0.06993 0.85338 0.76249 0.0
C2244 C 0.0706 0.84349 0.74835 0.0
C2245 C 0.07948 0.86486 0.75641 0.0
C2246 C 0.10732 0.88188 0.69469 0.0
H2247 H 0.15082 0.93883 0.76159 0.0
H2248 H 0.13021 0.92271 0.75602 0.0
H2249 H 0.12355 0.89446 0.66466 0.0
H2250 H 0.0817 0.83788 0.71593 0.0
H2251 H 0.09831 0.85777 0.70583 0.0
H2252 H 0.09907 0.88429 0.79576 0.0
C2253 C 0.13725 0.92115 0.74575 0.0
C2254 C 0.1182 0.8924 0.69322 0.0
C2255 C 0.14902 0.93036 0.74879 0.0
C2256 C 0.08089 0.84531 0.72722 0.0
C2257 C 0.09038 0.85673 0.72108 0.0
C2258 C 0.10417 0.88656 0.76654 0.0
C2259 C 0.13464 0.91002 0.72973 0.0
C2260 C 0.12233 0.89994 0.7288 0.0
C2261 C 0.08984 0.86663 0.73588 0.0
C2262 C 0.10038 0.87865 0.73188 0.0
H2263 H 0.16268 0.91573 0.71019 0.0
H2264 H 0.14223 0.89976 0.70468 0.0
H2265 H 0.11806 0.90275 0.79297 0.0
H2266 H 0.06211 0.85227 0.77879 0.0
H2267 H 0.07879 0.87233 0.76792 0.0
C2268 C 0.88488 0.39928 0.56977 0.0
C2269 C 0.89557 0.40076 0.58623 0.0
C2270 C 0.88206 0.40827 0.57428 0.0
C2271 C 0.88992 0.43573 0.63426 0.0
H2272 H 0.88196 0.44593 0.5294 0.0
C2273 C 0.90069 0.48347 0.6067 0.0
C2274 C 0.89291 0.48569 0.58263 0.0
C2275 C 0.89853 0.47193 0.61193 0.0
C2276 C 0.88392 0.44306 0.5592 0.0
H2277 H 0.91145 0.41258 0.62183 0.0
H2278 H 0.90655 0.4282 0.6296 0.0
H2279 H 0.88246 0.42747 0.53056 0.0
H2280 H 0.87656 0.4775 0.5462 0.0
H2281 H 0.87278 0.45726 0.55541 0.0
H2282 H 0.89177 0.45152 0.66254 0.0
C2283 C 0.90031 0.4201 0.61342 0.0
C2284 C 0.88421 0.43248 0.55985 0.0
C2285 C 0.90316 0.41119 0.60864 0.0
C2286 C 0.88275 0.47608 0.56478 0.0
C2287 C 0.8806 0.4645 0.56994 0.0
C2288 C 0.88961 0.44628 0.63364 0.0
C2289 C 0.88982 0.41883 0.59571 0.0
C2290 C 0.88758 0.42891 0.59703 0.0
C2291 C 0.88854 0.46232 0.59321 0.0
C2292 C 0.88698 0.45025 0.59575 0.0
H2293 H 0.87884 0.39132 0.55241 0.0
H2294 H 0.87389 0.40703 0.56054 0.0
H2295 H 0.89235 0.43307 0.66356 0.0
H2296 H 0.9086 0.49067 0.62093 0.0
H2297 H 0.90493 0.47059 0.62945 0.0
C2298 C 0.51456 0.4036 0.56588 0.0
C2299 C 0.50503 0.40442 0.5831 0.0
C2300 C 0.52617 0.41305 0.56988 0.0
C2301 C 0.54455 0.44067 0.63117 0.0
H2302 H 0.564 0.4512 0.52929 0.0
C2303 C 0.58102 0.48868 0.60511 0.0
C2304 C 0.59168 0.491 0.58565 0.0
C2305 C 0.57166 0.47709 0.6091 0.0
C2306 C 0.55878 0.44824 0.55823 0.0
H2307 H 0.50022 0.41572 0.61854 0.0
H2308 H 0.52036 0.43216 0.62505 0.0
H2309 H 0.54519 0.43253 0.52824 0.0
H2310 H 0.60098 0.48297 0.55576 0.0
H2311 H 0.58445 0.4626 0.56233 0.0
H2312 H 0.55791 0.45662 0.66059 0.0
C2313 C 0.51893 0.42418 0.609 0.0
C2314 C 0.54801 0.43755 0.55765 0.0
C2315 C 0.50736 0.41478 0.60493 0.0
C2316 C 0.59286 0.48145 0.57093 0.0
C2317 C 0.58342 0.46981 0.57453 0.0
C2318 C 0.55528 0.45136 0.63169 0.0
C2319 C 0.52846 0.42346 0.59135 0.0
C2320 C 0.54062 0.43384 0.59375 0.0
C2321 C 0.5727 0.46755 0.59345 0.0
C2322 C 0.56233 0.45541 0.59487 0.0
H2323 H 0.51305 0.39571 0.54896 0.0
H2324 H 0.53335 0.41222 0.55617 0.0
H2325 H 0.53917 0.43791 0.65977 0.0
H2326 H 0.57983 0.49584 0.61688 0.0
H2327 H 0.56345 0.47563 0.62329 0.0
C2328 C 0.59071 0.10418 0.62517 0.0
C2329 C 0.59092 0.09592 0.59684 0.0
C2330 C 0.58114 0.10622 0.62521 0.0
C2331 C 0.5559 0.10234 0.55926 0.0
H2332 H 0.54132 0.10202 0.66745 0.0
C2333 C 0.50763 0.0913 0.57227 0.0
C2334 C 0.50466 0.09757 0.60154 0.0
C2335 C 0.51907 0.09301 0.57101 0.0
C2336 C 0.54541 0.10235 0.63702 0.0
H2337 H 0.58133 0.08344 0.54598 0.0
H2338 H 0.56468 0.08694 0.5463 0.0
H2339 H 0.55986 0.10161 0.66648 0.0
H2340 H 0.51146 0.11071 0.65208 0.0
H2341 H 0.53155 0.1137 0.64985 0.0
H2342 H 0.54132 0.10277 0.52975 0.0
C2343 C 0.57194 0.09194 0.56815 0.0
C2344 C 0.55602 0.10211 0.63647 0.0
C2345 C 0.58146 0.08987 0.56822 0.0
C2346 C 0.51346 0.10572 0.62923 0.0
C2347 C 0.52494 0.1074 0.62807 0.0
C2348 C 0.54531 0.10258 0.55981 0.0
C2349 C 0.57165 0.1001 0.59673 0.0
C2350 C 0.56121 0.1018 0.59755 0.0
C2351 C 0.52784 0.10103 0.599 0.0
C2352 C 0.5398 0.10229 0.59866 0.0
H2353 H 0.59788 0.109 0.64756 0.0
H2354 H 0.58118 0.11262 0.6474 0.0
H2355 H 0.55982 0.10236 0.52879 0.0
H2356 H 0.50107 0.08496 0.55046 0.0
H2357 H 0.52098 0.08783 0.54871 0.0
C2358 C 0.74711 0.57091 0.05972 0.0
C2359 C 0.73625 0.5619 0.07575 0.0
C2360 C 0.75695 0.56937 0.05796 0.0
C2361 C 0.77009 0.55359 0.10886 0.0
H2362 H 0.79112 0.56484 0.01108 0.0
C2363 C 0.81454 0.55345 0.10349 0.0
C2364 C 0.82426 0.56394 0.08801 0.0
C2365 C 0.80301 0.55152 0.09931 0.0
C2366 C 0.78536 0.5617 0.03868 0.0
H2367 H 0.72713 0.54414 0.10223 0.0
H2368 H 0.74448 0.54149 0.09953 0.0
H2369 H 0.77217 0.56434 0.00818 0.0
H2370 H 0.82951 0.58061 0.05592 0.0
H2371 H 0.80951 0.57731 0.04911 0.0
H2372 H 0.78347 0.55132 0.1399 0.0
C2373 C 0.74531 0.54973 0.08829 0.0
C2374 C 0.77451 0.56139 0.03697 0.0
C2375 C 0.73539 0.55124 0.08966 0.0
C2376 C 0.82222 0.57241 0.06808 0.0
C2377 C 0.81073 0.57048 0.06387 0.0
C2378 C 0.78099 0.55394 0.11064 0.0
C2379 C 0.75618 0.55881 0.07245 0.0
C2380 C 0.7669 0.55761 0.07239 0.0
C2381 C 0.80099 0.56002 0.07944 0.0
C2382 C 0.78887 0.55829 0.07594 0.0
H2383 H 0.74807 0.57923 0.04868 0.0
H2384 H 0.76525 0.57658 0.04616 0.0
H2385 H 0.76443 0.55071 0.13674 0.0
H2386 H 0.81582 0.54674 0.11894 0.0
H2387 H 0.79568 0.54334 0.11139 0.0
C2388 C 0.44143 0.1793 0.10182 0.0
C2389 C 0.43115 0.17002 0.08322 0.0
C2390 C 0.44369 0.19098 0.09952 0.0
C2391 C 0.43535 0.21037 0.04102 0.0
H2392 H 0.44235 0.22783 0.14732 0.0
C2393 C 0.42437 0.24724 0.06833 0.0
C2394 C 0.43216 0.25724 0.09239 0.0
C2395 C 0.42637 0.23774 0.06386 0.0
C2396 C 0.44063 0.22319 0.11719 0.0
H2397 H 0.41538 0.16573 0.04652 0.0
H2398 H 0.41931 0.18602 0.04262 0.0
H2399 H 0.4422 0.20903 0.14506 0.0
H2400 H 0.44831 0.26521 0.13002 0.0
H2401 H 0.4518 0.24853 0.12215 0.0
H2402 H 0.43344 0.22434 0.0134 0.0
C2403 C 0.42566 0.18432 0.05875 0.0
C2404 C 0.44055 0.21242 0.1159 0.0
C2405 C 0.42336 0.17268 0.0613 0.0
C2406 C 0.44212 0.25761 0.11136 0.0
C2407 C 0.4441 0.24805 0.10699 0.0
C2408 C 0.43545 0.22113 0.04228 0.0
C2409 C 0.43578 0.19358 0.0782 0.0
C2410 C 0.43758 0.20575 0.07808 0.0
C2411 C 0.43621 0.23799 0.08337 0.0
C2412 C 0.43776 0.22748 0.08066 0.0
H2413 H 0.44761 0.17753 0.11888 0.0
H2414 H 0.45159 0.19796 0.11459 0.0
H2415 H 0.43324 0.20552 0.01123 0.0
H2416 H 0.41661 0.24667 0.05329 0.0
H2417 H 0.42001 0.23004 0.04605 0.0
C2418 C 0.74569 0.17694 0.04675 0.0
C2419 C 0.73493 0.17399 0.06687 0.0
C2420 C 0.75455 0.18874 0.04255 0.0
C2421 C 0.76621 0.21742 0.09364 0.0
H2422 H 0.78567 0.22834 0.99181 0.0
C2423 C 0.81033 0.26225 0.08675 0.0
C2424 C 0.81985 0.26116 0.07098 0.0
C2425 C 0.79866 0.25295 0.08191 0.0
C2426 C 0.7803 0.22543 0.02041 0.0
H2427 H 0.72493 0.18112 0.09778 0.0
H2428 H 0.74061 0.20188 0.09087 0.0
H2429 H 0.76721 0.20935 0.99092 0.0
H2430 H 0.82458 0.24962 0.03684 0.0
H2431 H 0.80436 0.23349 0.02859 0.0
H2432 H 0.77958 0.23327 0.12369 0.0
C2433 C 0.7421 0.19499 0.0783 0.0
C2434 C 0.76974 0.21459 0.01989 0.0
C2435 C 0.73314 0.18313 0.08213 0.0
C2436 C 0.81746 0.25074 0.04944 0.0
C2437 C 0.80585 0.24153 0.04435 0.0
C2438 C 0.7768 0.22829 0.09419 0.0
C2439 C 0.75291 0.19788 0.05861 0.0
C2440 C 0.76282 0.21028 0.05693 0.0
C2441 C 0.79633 0.24248 0.06081 0.0
C2442 C 0.78415 0.23218 0.05802 0.0
H2443 H 0.74733 0.17011 0.03452 0.0
H2444 H 0.76286 0.19069 0.02784 0.0
H2445 H 0.76108 0.21428 0.12271 0.0
H2446 H 0.8119 0.27018 0.10348 0.0
H2447 H 0.79148 0.25392 0.09481 0.0
C2448 C 0.57211 0.74865 0.93747 0.0
C2449 C 0.56398 0.7382 0.91629 0.0
C2450 C 0.56973 0.75788 0.94284 0.0
C2451 C 0.55269 0.77056 0.89661 0.0
H2452 H 0.56277 0.78963 -0.00047 0.0
C2453 C 0.55056 0.8137 0.9144 0.0
C2454 C 0.56143 0.82345 0.927 0.0
C2455 C 0.54867 0.80217 0.91792 0.0
C2456 C 0.55987 0.78435 0.97067 0.0
H2457 H 0.54689 0.72918 0.88458 0.0
H2458 H 0.54272 0.74537 0.89414 0.0
H2459 H 0.56345 0.77126 0.99639 0.0
H2460 H 0.57863 0.82876 0.95479 0.0
H2461 H 0.57531 0.80872 0.96113 0.0
H2462 H 0.54941 0.78385 0.87057 0.0
C2463 C 0.55098 0.74642 0.90628 0.0
C2464 C 0.5603 0.77387 0.96881 0.0
C2465 C 0.55335 0.73714 0.90092 0.0
C2466 C 0.57018 0.82144 0.94464 0.0
C2467 C 0.56824 0.80995 0.9486 0.0
C2468 C 0.55222 0.78103 0.89856 0.0
C2469 C 0.55916 0.7569 0.92723 0.0
C2470 C 0.55706 0.76705 0.93129 0.0
C2471 C 0.55755 0.80021 0.93468 0.0
C2472 C 0.55615 0.78821 0.93515 0.0
H2473 H 0.58039 0.74977 0.94964 0.0
H2474 H 0.57633 0.76592 0.95839 0.0
H2475 H 0.55022 0.76554 0.86715 0.0
H2476 H 0.54366 0.81499 0.90065 0.0
H2477 H 0.54033 0.7948 0.90711 0.0
C2478 C 0.1718 0.74604 0.93532 0.0
C2479 C 0.16873 0.73612 0.90936 0.0
C2480 C 0.18357 0.75509 0.93859 0.0
C2481 C 0.21135 0.76907 0.87932 0.0
H2482 H 0.22404 0.78554 0.98631 0.0
C2483 C 0.2568 0.81221 0.89008 0.0
C2484 C 0.25647 0.8214 0.91245 0.0
C2485 C 0.24729 0.80059 0.8925 0.0
C2486 C 0.22062 0.78102 0.95621 0.0
H2487 H 0.17562 0.7278 0.8671 0.0
H2488 H 0.19626 0.74373 0.87271 0.0
H2489 H 0.20504 0.7671 0.98557 0.0
H2490 H 0.24606 0.82556 0.95579 0.0
H2491 H 0.22952 0.80539 0.95979 0.0
H2492 H 0.22674 0.78322 0.84977 0.0
C2493 C 0.18951 0.74447 0.89039 0.0
C2494 C 0.20976 0.77047 0.95579 0.0
C2495 C 0.17771 0.73535 0.8873 0.0
C2496 C 0.2466 0.81869 0.9381 0.0
C2497 C 0.23715 0.80711 0.94069 0.0
C2498 C 0.22223 0.77963 0.87974 0.0
C2499 C 0.19254 0.75446 0.91589 0.0
C2500 C 0.20484 0.76458 0.91718 0.0
C2501 C 0.23733 0.79795 0.91761 0.0
C2502 C 0.22679 0.78589 0.91803 0.0
H2503 H 0.1651 0.7469 0.95279 0.0
H2504 H 0.18559 0.76276 0.95796 0.0
H2505 H 0.20774 0.76477 0.84903 0.0
H2506 H 0.26431 0.81402 0.8701 0.0
H2507 H 0.24768 0.79369 0.87456 0.0
C2508 C 0.17175 0.42708 0.89278 0.0
C2509 C 0.1681 0.43297 0.92122 0.0
C2510 C 0.18347 0.42958 0.89238 0.0
C2511 C 0.20951 0.44034 0.96078 0.0
H2512 H 0.22485 0.44044 0.85468 0.0
C2513 C 0.2552 0.44277 0.95472 0.0
C2514 C 0.25548 0.43427 0.92787 0.0
C2515 C 0.24563 0.44482 0.95317 0.0
C2516 C 0.22068 0.44044 0.88456 0.0
H2517 H 0.17397 0.4463 0.971 0.0
H2518 H 0.19455 0.45067 0.97032 0.0
H2519 H 0.20606 0.44028 0.85295 0.0
H2520 H 0.24606 0.42139 0.87793 0.0
H2521 H 0.22944 0.42492 0.87542 0.0
H2522 H 0.22398 0.44013 0.99235 0.0
C2523 C 0.18827 0.44407 0.9485 0.0
C2524 C 0.20993 0.44035 0.88358 0.0
C2525 C 0.17651 0.4416 0.94876 0.0
C2526 C 0.24612 0.42799 0.89909 0.0
C2527 C 0.23663 0.43009 0.89737 0.0
C2528 C 0.22029 0.44044 0.96177 0.0
C2529 C 0.19184 0.43803 0.92045 0.0
C2530 C 0.20406 0.43994 0.92165 0.0
C2531 C 0.23625 0.43848 0.92446 0.0
C2532 C 0.22579 0.44013 0.92364 0.0
H2533 H 0.1655 0.42038 0.87113 0.0
H2534 H 0.1859 0.42464 0.87086 0.0
H2535 H 0.20515 0.43994 0.99065 0.0
H2536 H 0.2623 0.44776 0.9772 0.0
H2537 H 0.24558 0.45137 0.9743 0.0
C2538 C 0.41617 0.90934 0.41741 0.0
C2539 C 0.40518 0.89953 0.42854 0.0
C2540 C 0.42635 0.90838 0.41625 0.0
C2541 C 0.43708 0.88741 0.4049 0.0
H2542 H 0.46548 0.91266 0.45741 0.0
C2543 C 0.48163 0.88727 0.41605 0.0
C2544 C 0.49195 0.89822 0.40881 0.0
C2545 C 0.47059 0.8866 0.41917 0.0
C2546 C 0.45766 0.90559 0.44223 0.0
H2547 H 0.39622 0.88095 0.4464 0.0
H2548 H 0.41411 0.87928 0.44407 0.0
H2549 H 0.447 0.913 0.46166 0.0
H2550 H 0.49873 0.91697 0.39748 0.0
H2551 H 0.47957 0.91577 0.40209 0.0
H2552 H 0.44786 0.88013 0.38474 0.0
C2553 C 0.41478 0.88769 0.43632 0.0
C2554 C 0.44708 0.90578 0.44477 0.0
C2555 C 0.40456 0.88867 0.43783 0.0
C2556 C 0.49098 0.90841 0.40356 0.0
C2557 C 0.47999 0.90774 0.40648 0.0
C2558 C 0.44773 0.88725 0.40213 0.0
C2559 C 0.42578 0.89758 0.42593 0.0
C2560 C 0.43673 0.89681 0.42557 0.0
C2561 C 0.4697 0.89688 0.41502 0.0
C2562 C 0.45817 0.89647 0.42016 0.0
H2563 H 0.41695 0.91782 0.40995 0.0
H2564 H 0.43469 0.9161 0.40754 0.0
H2565 H 0.42923 0.88041 0.38967 0.0
H2566 H 0.48211 0.87926 0.42026 0.0
H2567 H 0.46282 0.87811 0.42592 0.0
C2568 C 0.09193 0.58278 0.39199 0.0
C2569 C 0.0988 0.59252 0.41865 0.0
C2570 C 0.09507 0.57412 0.38534 0.0
C2571 C 0.11064 0.56066 0.43628 0.0
H2572 H 0.10567 0.5451 0.3266 0.0
C2573 C 0.11318 0.51795 0.41601 0.0
C2574 C 0.1031 0.50879 0.39594 0.0
C2575 C 0.11545 0.52964 0.41417 0.0
C2576 C 0.10714 0.54939 0.35738 0.0
H2577 H 0.11448 0.60094 0.45865 0.0
H2578 H 0.11994 0.58571 0.44708 0.0
H2579 H 0.1045 0.56317 0.33235 0.0
H2580 H 0.08786 0.50475 0.35643 0.0
H2581 H 0.0918 0.52504 0.3533 0.0
H2582 H 0.11283 0.54662 0.46161 0.0
C2583 C 0.1121 0.58479 0.4315 0.0
C2584 C 0.10646 0.55971 0.36069 0.0
C2585 C 0.10899 0.59351 0.43803 0.0
C2586 C 0.09567 0.5116 0.37241 0.0
C2587 C 0.09799 0.52326 0.3703 0.0
C2588 C 0.11133 0.55033 0.43296 0.0
C2589 C 0.10513 0.57498 0.40525 0.0
C2590 C 0.1078 0.56523 0.40044 0.0
C2591 C 0.10776 0.53236 0.39183 0.0
C2592 C 0.1092 0.54438 0.39374 0.0
H2593 H 0.08403 0.58175 0.37653 0.0
H2594 H 0.08939 0.56656 0.36552 0.0
H2595 H 0.11164 0.56467 0.4674 0.0
H2596 H 0.11908 0.51605 0.43433 0.0
H2597 H 0.12309 0.5365 0.43083 0.0
C2598 C 0.48466 0.58123 0.3992 0.0
C2599 C 0.48662 0.59136 0.42184 0.0
C2600 C 0.47321 0.57173 0.3936 0.0
C2601 C 0.44367 0.55754 0.44174 0.0
H2602 H 0.43495 0.53923 0.33704 0.0
C2603 C 0.39926 0.51343 0.42174 0.0
C2604 C 0.40068 0.50408 0.40628 0.0
C2605 C 0.40868 0.52512 0.41998 0.0
C2606 C 0.43725 0.54428 0.36642 0.0
H2607 H 0.47805 0.59956 0.45572 0.0
H2608 H 0.45794 0.58289 0.44579 0.0
H2609 H 0.45349 0.5581 0.34044 0.0
H2610 H 0.41295 0.49968 0.37577 0.0
H2611 H 0.42928 0.51999 0.37261 0.0
H2612 H 0.42755 0.54353 0.46798 0.0
C2613 C 0.46533 0.58231 0.43268 0.0
C2614 C 0.44787 0.55506 0.36842 0.0
C2615 C 0.47683 0.59186 0.43822 0.0
C2616 C 0.41157 0.50667 0.38809 0.0
C2617 C 0.42091 0.51833 0.38594 0.0
C2618 C 0.43302 0.54676 0.43968 0.0
C2619 C 0.46341 0.57212 0.41046 0.0
C2620 C 0.45137 0.56163 0.40649 0.0
C2621 C 0.4196 0.52766 0.40219 0.0
C2622 C 0.42989 0.53987 0.40239 0.0
H2623 H 0.492 0.58054 0.38618 0.0
H2624 H 0.47206 0.56393 0.37699 0.0
H2625 H 0.44616 0.56236 0.47162 0.0
H2626 H 0.39097 0.5117 0.43594 0.0
H2627 H 0.40744 0.53217 0.4326 0.0
loop_
_geom_bond_atom_site_label_1
_geom_bond_atom_site_label_2
_geom_bond_distance
_geom_bond_site_symmetry_2
_ccdc_geom_bond_type
C0 O1 1.160 . S
C0 O7 1.185 . S
O1 C0 1.160 . S
O2 Zn3 1.899 . S
O2 C10 1.284 . S
Zn3 O2 1.899 . S
Zn3 O4 2.032 . S
Zn3 O7 2.086 . S
Zn3 O12 1.977 . S
O4 Zn3 2.032 . S
O4 C8 1.278 . S
C5 O6 1.203 . S
C5 O12 1.267 . S
O6 C5 1.203 . S
O7 C0 1.185 . S
O7 Zn3 2.086 . S
C8 O4 1.278 . S
C8 O9 1.211 . S
O9 C8 1.211 . S
C10 O2 1.284 . S
C10 O11 1.273 . S
O11 C10 1.273 . S
O12 Zn3 1.977 . S
O12 C5 1.267 . S
C13 O14 1.160 . S
C13 O20 1.185 . S
O14 C13 1.160 . S
O15 Zn16 1.899 . S
O15 C23 1.284 . S
Zn16 O15 1.899 . S
Zn16 O17 2.032 . S
Zn16 O20 2.086 . S
Zn16 O25 1.977 . S
O17 Zn16 2.032 . S
O17 C21 1.278 . S
C18 O19 1.203 . S
C18 O25 1.267 . S
O19 C18 1.203 . S
O20 C13 1.185 . S
O20 Zn16 2.086 . S
C21 O17 1.278 . S
C21 O22 1.211 . S
O22 C21 1.211 . S
C23 O15 1.284 . S
C23 O24 1.273 . S
O24 C23 1.273 . S
O25 Zn16 1.977 . S
O25 C18 1.267 . S
C26 O27 1.160 . S
C26 O33 1.185 . S
O27 C26 1.160 . S
O28 Zn29 1.899 . S
O28 C36 1.284 . S
Zn29 O28 1.899 . S
Zn29 O30 2.032 . S
Zn29 O33 2.086 . S
Zn29 O38 1.977 . S
O30 Zn29 2.032 . S
O30 C34 1.278 . S
C31 O32 1.203 . S
C31 O38 1.267 . S
O32 C31 1.203 . S
O33 C26 1.185 . S
O33 Zn29 2.086 . S
C34 O30 1.278 . S
C34 O35 1.211 . S
O35 C34 1.211 . S
C36 O28 1.284 . S
C36 O37 1.273 . S
O37 C36 1.273 . S
O38 Zn29 1.977 . S
O38 C31 1.267 . S
C39 O40 1.160 . S
C39 O46 1.185 . S
O40 C39 1.160 . S
O41 Zn42 1.899 . S
O41 C49 1.284 . S
Zn42 O41 1.899 . S
Zn42 O43 2.032 . S
Zn42 O46 2.086 . S
Zn42 O51 1.977 . S
O43 Zn42 2.032 . S
O43 C47 1.278 . S
C44 O45 1.203 . S
C44 O51 1.267 . S
O45 C44 1.203 . S
O46 C39 1.185 . S
O46 Zn42 2.086 . S
C47 O43 1.278 . S
C47 O48 1.211 . S
O48 C47 1.211 . S
C49 O41 1.284 . S
C49 O50 1.273 . S
O50 C49 1.273 . S
O51 Zn42 1.977 . S
O51 C44 1.267 . S
C52 O53 1.160 . S
C52 O59 1.185 . S
O53 C52 1.160 . S
O54 Zn55 1.899 . S
O54 C62 1.284 . S
Zn55 O54 1.899 . S
Zn55 O56 2.032 . S
Zn55 O59 2.086 . S
Zn55 O64 1.977 . S
O56 Zn55 2.032 . S
O56 C60 1.278 . S
C57 O58 1.203 . S
C57 O64 1.267 . S
O58 C57 1.203 . S
O59 C52 1.185 . S
O59 Zn55 2.086 . S
C60 O56 1.278 . S
C60 O61 1.211 . S
O61 C60 1.211 . S
C62 O54 1.284 . S
C62 O63 1.273 . S
O63 C62 1.273 . S
O64 Zn55 1.977 . S
O64 C57 1.267 . S
C65 O66 1.160 . S
C65 O72 1.185 . S
O66 C65 1.160 . S
O67 Zn68 1.899 . S
O67 C75 1.284 . S
Zn68 O67 1.899 . S
Zn68 O69 2.032 . S
Zn68 O72 2.086 . S
Zn68 O77 1.977 . S
O69 Zn68 2.032 . S
O69 C73 1.278 . S
C70 O71 1.203 . S
C70 O77 1.267 . S
O71 C70 1.203 . S
O72 C65 1.185 . S
O72 Zn68 2.086 . S
C73 O69 1.278 . S
C73 O74 1.211 . S
O74 C73 1.211 . S
C75 O67 1.284 . S
C75 O76 1.273 . S
O76 C75 1.273 . S
O77 Zn68 1.977 . S
O77 C70 1.267 . S
C78 O79 1.160 . S
C78 O85 1.185 . S
O79 C78 1.160 . S
O80 Zn81 1.899 . S
O80 C88 1.284 . S
Zn81 O80 1.899 . S
Zn81 O82 2.032 . S
Zn81 O85 2.086 . S
Zn81 O90 1.977 . S
O82 Zn81 2.032 . S
O82 C86 1.278 . S
C83 O84 1.203 . S
C83 O90 1.267 . S
O84 C83 1.203 . S
O85 C78 1.185 . S
O85 Zn81 2.086 . S
C86 O82 1.278 . S
C86 O87 1.211 . S
O87 C86 1.211 . S
C88 O80 1.284 . S
C88 O89 1.273 . S
O89 C88 1.273 . S
O90 Zn81 1.977 . S
O90 C83 1.267 . S
C91 O92 1.160 . S
C91 O98 1.185 . S
O92 C91 1.160 . S
O93 Zn94 1.899 . S
O93 C101 1.284 . S
Zn94 O93 1.899 . S
Zn94 O95 2.032 . S
Zn94 O98 2.086 . S
Zn94 O103 1.977 . S
O95 Zn94 2.032 . S
O95 C99 1.278 . S
C96 O97 1.203 . S
C96 O103 1.267 . S
O97 C96 1.203 . S
O98 C91 1.185 . S
O98 Zn94 2.086 . S
C99 O95 1.278 . S
C99 O100 1.211 . S
O100 C99 1.211 . S
C101 O93 1.284 . S
C101 O102 1.273 . S
O102 C101 1.273 . S
O103 Zn94 1.977 . S
O103 C96 1.267 . S
C104 O105 1.160 . S
C104 O111 1.185 . S
O105 C104 1.160 . S
O106 Zn107 1.899 . S
O106 C114 1.284 . S
Zn107 O106 1.899 . S
Zn107 O108 2.032 . S
Zn107 O111 2.086 . S
Zn107 O116 1.977 . S
O108 Zn107 2.032 . S
O108 C112 1.278 . S
C109 O110 1.203 . S
C109 O116 1.267 . S
O110 C109 1.203 . S
O111 C104 1.185 . S
O111 Zn107 2.086 . S
C112 O108 1.278 . S
C112 O113 1.211 . S
O113 C112 1.211 . S
C114 O106 1.284 . S
C114 O115 1.273 . S
O115 C114 1.273 . S
O116 Zn107 1.977 . S
O116 C109 1.267 . S
C117 O118 1.160 . S
C117 O124 1.185 . S
O118 C117 1.160 . S
O119 Zn120 1.899 . S
O119 C127 1.284 . S
Zn120 O119 1.899 . S
Zn120 O121 2.032 . S
Zn120 O124 2.086 . S
Zn120 O129 1.977 . S
O121 Zn120 2.032 . S
O121 C125 1.278 . S
C122 O123 1.203 . S
C122 O129 1.267 . S
O123 C122 1.203 . S
O124 C117 1.185 . S
O124 Zn120 2.086 . S
C125 O121 1.278 . S
C125 O126 1.211 . S
O126 C125 1.211 . S
C127 O119 1.284 . S
C127 O128 1.273 . S
O128 C127 1.273 . S
O129 Zn120 1.977 . S
O129 C122 1.267 . S
C130 O131 1.160 . S
C130 O137 1.185 . S
O131 C130 1.160 . S
O132 Zn133 1.899 . S
O132 C140 1.284 . S
Zn133 O132 1.899 . S
Zn133 O134 2.032 . S
Zn133 O137 2.086 . S
Zn133 O142 1.977 . S
O134 Zn133 2.032 . S
O134 C138 1.278 . S
C135 O136 1.203 . S
C135 O142 1.267 . S
O136 C135 1.203 . S
O137 C130 1.185 . S
O137 Zn133 2.086 . S
C138 O134 1.278 . S
C138 O139 1.211 . S
O139 C138 1.211 . S
C140 O132 1.284 . S
C140 O141 1.273 . S
O141 C140 1.273 . S
O142 Zn133 1.977 . S
O142 C135 1.267 . S
C143 O144 1.160 . S
C143 O150 1.185 . S
O144 C143 1.160 . S
O145 Zn146 1.899 . S
O145 C153 1.284 . S
Zn146 O145 1.899 . S
Zn146 O147 2.032 . S
Zn146 O150 2.086 . S
Zn146 O155 1.977 . S
O147 Zn146 2.032 . S
O147 C151 1.278 . S
C148 O149 1.203 . S
C148 O155 1.267 . S
O149 C148 1.203 . S
O150 C143 1.185 . S
O150 Zn146 2.086 . S
C151 O147 1.278 . S
C151 O152 1.211 . S
O152 C151 1.211 . S
C153 O145 1.284 . S
C153 O154 1.273 . S
O154 C153 1.273 . S
O155 Zn146 1.977 . S
O155 C148 1.267 . S
C156 O157 1.160 . S
C156 O163 1.185 . S
O157 C156 1.160 . S
O158 Zn159 1.899 . S
O158 C166 1.284 . S
Zn159 O158 1.899 . S
Zn159 O160 2.032 . S
Zn159 O163 2.086 . S
Zn159 O168 1.977 . S
O160 Zn159 2.032 . S
O160 C164 1.278 . S
C161 O162 1.203 . S
C161 O168 1.267 . S
O162 C161 1.203 . S
O163 C156 1.185 . S
O163 Zn159 2.086 . S
C164 O160 1.278 . S
C164 O165 1.211 . S
O165 C164 1.211 . S
C166 O158 1.284 . S
C166 O167 1.273 . S
O167 C166 1.273 . S
O168 Zn159 1.977 . S
O168 C161 1.267 . S
C169 O170 1.160 . S
C169 O176 1.185 . S
O170 C169 1.160 . S
O171 Zn172 1.899 . S
O171 C179 1.284 . S
Zn172 O171 1.899 . S
Zn172 O173 2.032 . S
Zn172 O176 2.086 . S
Zn172 O181 1.977 . S
O173 Zn172 2.032 . S
O173 C177 1.278 . S
C174 O175 1.203 . S
C174 O181 1.267 . S
O175 C174 1.203 . S
O176 C169 1.185 . S
O176 Zn172 2.086 . S
C177 O173 1.278 . S
C177 O178 1.211 . S
O178 C177 1.211 . S
C179 O171 1.284 . S
C179 O180 1.273 . S
O180 C179 1.273 . S
O181 Zn172 1.977 . S
O181 C174 1.267 . S
C182 O183 1.160 . S
C182 O189 1.185 . S
O183 C182 1.160 . S
O184 Zn185 1.899 . S
O184 C192 1.284 . S
Zn185 O184 1.899 . S
Zn185 O186 2.032 . S
Zn185 O189 2.086 . S
Zn185 O194 1.977 . S
O186 Zn185 2.032 . S
O186 C190 1.278 . S
C187 O188 1.203 . S
C187 O194 1.267 . S
O188 C187 1.203 . S
O189 C182 1.185 . S
O189 Zn185 2.086 . S
C190 O186 1.278 . S
C190 O191 1.211 . S
O191 C190 1.211 . S
C192 O184 1.284 . S
C192 O193 1.273 . S
O193 C192 1.273 . S
O194 Zn185 1.977 . S
O194 C187 1.267 . S
C195 O196 1.160 . S
C195 O202 1.185 . S
O196 C195 1.160 . S
O197 Zn198 1.899 . S
O197 C205 1.284 . S
Zn198 O197 1.899 . S
Zn198 O199 2.032 . S
Zn198 O202 2.086 . S
Zn198 O207 1.977 . S
O199 Zn198 2.032 . S
O199 C203 1.278 . S
C200 O201 1.203 . S
C200 O207 1.267 . S
O201 C200 1.203 . S
O202 C195 1.185 . S
O202 Zn198 2.086 . S
C203 O199 1.278 . S
C203 O204 1.211 . S
O204 C203 1.211 . S
C205 O197 1.284 . S
C205 O206 1.273 . S
O206 C205 1.273 . S
O207 Zn198 1.977 . S
O207 C200 1.267 . S
C208 O209 1.160 . S
C208 O215 1.185 . S
O209 C208 1.160 . S
O210 Zn211 1.899 . S
O210 C218 1.284 . S
Zn211 O210 1.899 . S
Zn211 O212 2.032 . S
Zn211 O215 2.086 . S
Zn211 O220 1.977 . S
O212 Zn211 2.032 . S
O212 C216 1.278 . S
C213 O214 1.203 . S
C213 O220 1.267 . S
O214 C213 1.203 . S
O215 C208 1.185 . S
O215 Zn211 2.086 . S
C216 O212 1.278 . S
C216 O217 1.211 . S
O217 C216 1.211 . S
C218 O210 1.284 . S
C218 O219 1.273 . S
O219 C218 1.273 . S
O220 Zn211 1.977 . S
O220 C213 1.267 . S
C221 O222 1.160 . S
C221 O228 1.185 . S
O222 C221 1.160 . S
O223 Zn224 1.899 . S
O223 C231 1.284 . S
Zn224 O223 1.899 . S
Zn224 O225 2.032 . S
Zn224 O228 2.086 . S
Zn224 O233 1.977 . S
O225 Zn224 2.032 . S
O225 C229 1.278 . S
C226 O227 1.203 . S
C226 O233 1.267 . S
O227 C226 1.203 . S
O228 C221 1.185 . S
O228 Zn224 2.086 . S
C229 O225 1.278 . S
C229 O230 1.211 . S
O230 C229 1.211 . S
C231 O223 1.284 . S
C231 O232 1.273 . S
O232 C231 1.273 . S
O233 Zn224 1.977 . S
O233 C226 1.267 . S
C234 O235 1.160 . S
C234 O241 1.185 . S
O235 C234 1.160 . S
O236 Zn237 1.899 . S
O236 C244 1.284 . S
Zn237 O236 1.899 . S
Zn237 O238 2.032 . S
Zn237 O241 2.086 . S
Zn237 O246 1.977 . S
O238 Zn237 2.032 . S
O238 C242 1.278 . S
C239 O240 1.203 . S
C239 O246 1.267 . S
O240 C239 1.203 . S
O241 C234 1.185 . S
O241 Zn237 2.086 . S
C242 O238 1.278 . S
C242 O243 1.211 . S
O243 C242 1.211 . S
C244 O236 1.284 . S
C244 O245 1.273 . S
O245 C244 1.273 . S
O246 Zn237 1.977 . S
O246 C239 1.267 . S
C247 O248 1.160 . S
C247 O254 1.185 . S
O248 C247 1.160 . S
O249 Zn250 1.899 . S
O249 C257 1.284 . S
Zn250 O249 1.899 . S
Zn250 O251 2.032 . S
Zn250 O254 2.086 . S
Zn250 O259 1.977 . S
O251 Zn250 2.032 . S
O251 C255 1.278 . S
C252 O253 1.203 . S
C252 O259 1.267 . S
O253 C252 1.203 . S
O254 C247 1.185 . S
O254 Zn250 2.086 . S
C255 O251 1.278 . S
C255 O256 1.211 . S
O256 C255 1.211 . S
C257 O249 1.284 . S
C257 O258 1.273 . S
O258 C257 1.273 . S
O259 Zn250 1.977 . S
O259 C252 1.267 . S
C260 O261 1.160 . S
C260 O267 1.185 . S
O261 C260 1.160 . S
O262 Zn263 1.899 . S
O262 C270 1.284 . S
Zn263 O262 1.899 . S
Zn263 O264 2.032 . S
Zn263 O267 2.086 . S
Zn263 O272 1.977 . S
O264 Zn263 2.032 . S
O264 C268 1.278 . S
C265 O266 1.203 . S
C265 O272 1.267 . S
O266 C265 1.203 . S
O267 C260 1.185 . S
O267 Zn263 2.086 . S
C268 O264 1.278 . S
C268 O269 1.211 . S
O269 C268 1.211 . S
C270 O262 1.284 . S
C270 O271 1.273 . S
O271 C270 1.273 . S
O272 Zn263 1.977 . S
O272 C265 1.267 . S
C273 O274 1.160 . S
C273 O280 1.185 . S
O274 C273 1.160 . S
O275 Zn276 1.899 . S
O275 C283 1.284 . S
Zn276 O275 1.899 . S
Zn276 O277 2.032 . S
Zn276 O280 2.086 . S
Zn276 O285 1.977 . S
O277 Zn276 2.032 . S
O277 C281 1.278 . S
C278 O279 1.203 . S
C278 O285 1.267 . S
O279 C278 1.203 . S
O280 C273 1.185 . S
O280 Zn276 2.086 . S
C281 O277 1.278 . S
C281 O282 1.211 . S
O282 C281 1.211 . S
C283 O275 1.284 . S
C283 O284 1.273 . S
O284 C283 1.273 . S
O285 Zn276 1.977 . S
O285 C278 1.267 . S
C286 O287 1.160 . S
C286 O293 1.185 . S
O287 C286 1.160 . S
O288 Zn289 1.899 . S
O288 C296 1.284 . S
Zn289 O288 1.899 . S
Zn289 O290 2.032 . S
Zn289 O293 2.086 . S
Zn289 O298 1.977 . S
O290 Zn289 2.032 . S
O290 C294 1.278 . S
C291 O292 1.203 . S
C291 O298 1.267 . S
O292 C291 1.203 . S
O293 C286 1.185 . S
O293 Zn289 2.086 . S
C294 O290 1.278 . S
C294 O295 1.211 . S
O295 C294 1.211 . S
C296 O288 1.284 . S
C296 O297 1.273 . S
O297 C296 1.273 . S
O298 Zn289 1.977 . S
O298 C291 1.267 . S
C299 O300 1.160 . S
C299 O306 1.185 . S
O300 C299 1.160 . S
O301 Zn302 1.899 . S
O301 C309 1.284 . S
Zn302 O301 1.899 . S
Zn302 O303 2.032 . S
Zn302 O306 2.086 . S
Zn302 O311 1.977 . S
O303 Zn302 2.032 . S
O303 C307 1.278 . S
C304 O305 1.203 . S
C304 O311 1.267 . S
O305 C304 1.203 . S
O306 C299 1.185 . S
O306 Zn302 2.086 . S
C307 O303 1.278 . S
C307 O308 1.211 . S
O308 C307 1.211 . S
C309 O301 1.284 . S
C309 O310 1.273 . S
O310 C309 1.273 . S
O311 Zn302 1.977 . S
O311 C304 1.267 . S
C312 O313 1.160 . S
C312 O319 1.185 . S
O313 C312 1.160 . S
O314 Zn315 1.899 . S
O314 C322 1.284 . S
Zn315 O314 1.899 . S
Zn315 O316 2.032 . S
Zn315 O319 2.086 . S
Zn315 O324 1.977 . S
O316 Zn315 2.032 . S
O316 C320 1.278 . S
C317 O318 1.203 . S
C317 O324 1.267 . S
O318 C317 1.203 . S
O319 C312 1.185 . S
O319 Zn315 2.086 . S
C320 O316 1.278 . S
C320 O321 1.211 . S
O321 C320 1.211 . S
C322 O314 1.284 . S
C322 O323 1.273 . S
O323 C322 1.273 . S
O324 Zn315 1.977 . S
O324 C317 1.267 . S
C325 O326 1.160 . S
C325 O332 1.185 . S
O326 C325 1.160 . S
O327 Zn328 1.899 . S
O327 C335 1.284 . S
Zn328 O327 1.899 . S
Zn328 O329 2.032 . S
Zn328 O332 2.086 . S
Zn328 O337 1.977 . S
O329 Zn328 2.032 . S
O329 C333 1.278 . S
C330 O331 1.203 . S
C330 O337 1.267 . S
O331 C330 1.203 . S
O332 C325 1.185 . S
O332 Zn328 2.086 . S
C333 O329 1.278 . S
C333 O334 1.211 . S
O334 C333 1.211 . S
C335 O327 1.284 . S
C335 O336 1.273 . S
O336 C335 1.273 . S
O337 Zn328 1.977 . S
O337 C330 1.267 . S
C338 O339 1.160 . S
C338 O345 1.185 . S
O339 C338 1.160 . S
O340 Zn341 1.899 . S
O340 C348 1.284 . S
Zn341 O340 1.899 . S
Zn341 O342 2.032 . S
Zn341 O345 2.086 . S
Zn341 O350 1.977 . S
O342 Zn341 2.032 . S
O342 C346 1.278 . S
C343 O344 1.203 . S
C343 O350 1.267 . S
O344 C343 1.203 . S
O345 C338 1.185 . S
O345 Zn341 2.086 . S
C346 O342 1.278 . S
C346 O347 1.211 . S
O347 C346 1.211 . S
C348 O340 1.284 . S
C348 O349 1.273 . S
O349 C348 1.273 . S
O350 Zn341 1.977 . S
O350 C343 1.267 . S
C351 O352 1.160 . S
C351 O358 1.185 . S
O352 C351 1.160 . S
O353 Zn354 1.899 . S
O353 C361 1.284 . S
Zn354 O353 1.899 . S
Zn354 O355 2.032 . S
Zn354 O358 2.086 . S
Zn354 O363 1.977 . S
O355 Zn354 2.032 . S
O355 C359 1.278 . S
C356 O357 1.203 . S
C356 O363 1.267 . S
O357 C356 1.203 . S
O358 C351 1.185 . S
O358 Zn354 2.086 . S
C359 O355 1.278 . S
C359 O360 1.211 . S
O360 C359 1.211 . S
C361 O353 1.284 . S
C361 O362 1.273 . S
O362 C361 1.273 . S
O363 Zn354 1.977 . S
O363 C356 1.267 . S
C364 O365 1.160 . S
C364 O371 1.185 . S
O365 C364 1.160 . S
O366 Zn367 1.899 . S
O366 C374 1.284 . S
Zn367 O366 1.899 . S
Zn367 O368 2.032 . S
Zn367 O371 2.086 . S
Zn367 O376 1.977 . S
O368 Zn367 2.032 . S
O368 C372 1.278 . S
C369 O370 1.203 . S
C369 O376 1.267 . S
O370 C369 1.203 . S
O371 C364 1.185 . S
O371 Zn367 2.086 . S
C372 O368 1.278 . S
C372 O373 1.211 . S
O373 C372 1.211 . S
C374 O366 1.284 . S
C374 O375 1.273 . S
O375 C374 1.273 . S
O376 Zn367 1.977 . S
O376 C369 1.267 . S
C377 O378 1.160 . S
C377 O384 1.185 . S
O378 C377 1.160 . S
O379 Zn380 1.899 . S
O379 C387 1.284 . S
Zn380 O379 1.899 . S
Zn380 O381 2.032 . S
Zn380 O384 2.086 . S
Zn380 O389 1.977 . S
O381 Zn380 2.032 . S
O381 C385 1.278 . S
C382 O383 1.203 . S
C382 O389 1.267 . S
O383 C382 1.203 . S
O384 C377 1.185 . S
O384 Zn380 2.086 . S
C385 O381 1.278 . S
C385 O386 1.211 . S
O386 C385 1.211 . S
C387 O379 1.284 . S
C387 O388 1.273 . S
O388 C387 1.273 . S
O389 Zn380 1.977 . S
O389 C382 1.267 . S
C390 O391 1.160 . S
C390 O397 1.185 . S
O391 C390 1.160 . S
O392 Zn393 1.899 . S
O392 C400 1.284 . S
Zn393 O392 1.899 . S
Zn393 O394 2.032 . S
Zn393 O397 2.086 . S
Zn393 O402 1.977 . S
O394 Zn393 2.032 . S
O394 C398 1.278 . S
C395 O396 1.203 . S
C395 O402 1.267 . S
O396 C395 1.203 . S
O397 C390 1.185 . S
O397 Zn393 2.086 . S
C398 O394 1.278 . S
C398 O399 1.211 . S
O399 C398 1.211 . S
C400 O392 1.284 . S
C400 O401 1.273 . S
O401 C400 1.273 . S
O402 Zn393 1.977 . S
O402 C395 1.267 . S
C403 O404 1.160 . S
C403 O410 1.185 . S
O404 C403 1.160 . S
O405 Zn406 1.899 . S
O405 C413 1.284 . S
Zn406 O405 1.899 . S
Zn406 O407 2.032 . S
Zn406 O410 2.086 . S
Zn406 O415 1.977 . S
O407 Zn406 2.032 . S
O407 C411 1.278 . S
C408 O409 1.203 . S
C408 O415 1.267 . S
O409 C408 1.203 . S
O410 C403 1.185 . S
O410 Zn406 2.086 . S
C411 O407 1.278 . S
C411 O412 1.211 . S
O412 C411 1.211 . S
C413 O405 1.284 . S
C413 O414 1.273 . S
O414 C413 1.273 . S
O415 Zn406 1.977 . S
O415 C408 1.267 . S
C416 O417 1.160 . S
C416 O423 1.185 . S
O417 C416 1.160 . S
O418 Zn419 1.899 . S
O418 C426 1.284 . S
Zn419 O418 1.899 . S
Zn419 O420 2.032 . S
Zn419 O423 2.086 . S
Zn419 O428 1.977 . S
O420 Zn419 2.032 . S
O420 C424 1.278 . S
C421 O422 1.203 . S
C421 O428 1.267 . S
O422 C421 1.203 . S
O423 C416 1.185 . S
O423 Zn419 2.086 . S
C424 O420 1.278 . S
C424 O425 1.211 . S
O425 C424 1.211 . S
C426 O418 1.284 . S
C426 O427 1.273 . S
O427 C426 1.273 . S
O428 Zn419 1.977 . S
O428 C421 1.267 . S
C429 O430 1.160 . S
C429 O436 1.185 . S
O430 C429 1.160 . S
O431 Zn432 1.899 . S
O431 C439 1.284 . S
Zn432 O431 1.899 . S
Zn432 O433 2.032 . S
Zn432 O436 2.086 . S
Zn432 O441 1.977 . S
O433 Zn432 2.032 . S
O433 C437 1.278 . S
C434 O435 1.203 . S
C434 O441 1.267 . S
O435 C434 1.203 . S
O436 C429 1.185 . S
O436 Zn432 2.086 . S
C437 O433 1.278 . S
C437 O438 1.211 . S
O438 C437 1.211 . S
C439 O431 1.284 . S
C439 O440 1.273 . S
O440 C439 1.273 . S
O441 Zn432 1.977 . S
O441 C434 1.267 . S
C442 O443 1.160 . S
C442 O449 1.185 . S
O443 C442 1.160 . S
O444 Zn445 1.899 . S
O444 C452 1.284 . S
Zn445 O444 1.899 . S
Zn445 O446 2.032 . S
Zn445 O449 2.086 . S
Zn445 O454 1.977 . S
O446 Zn445 2.032 . S
O446 C450 1.278 . S
C447 O448 1.203 . S
C447 O454 1.267 . S
O448 C447 1.203 . S
O449 C442 1.185 . S
O449 Zn445 2.086 . S
C450 O446 1.278 . S
C450 O451 1.211 . S
O451 C450 1.211 . S
C452 O444 1.284 . S
C452 O453 1.273 . S
O453 C452 1.273 . S
O454 Zn445 1.977 . S
O454 C447 1.267 . S
C455 O456 1.160 . S
C455 O462 1.185 . S
O456 C455 1.160 . S
O457 Zn458 1.899 . S
O457 C465 1.284 . S
Zn458 O457 1.899 . S
Zn458 O459 2.032 . S
Zn458 O462 2.086 . S
Zn458 O467 1.977 . S
O459 Zn458 2.032 . S
O459 C463 1.278 . S
C460 O461 1.203 . S
C460 O467 1.267 . S
O461 C460 1.203 . S
O462 C455 1.185 . S
O462 Zn458 2.086 . S
C463 O459 1.278 . S
C463 O464 1.211 . S
O464 C463 1.211 . S
C465 O457 1.284 . S
C465 O466 1.273 . S
O466 C465 1.273 . S
O467 Zn458 1.977 . S
O467 C460 1.267 . S
C468 C469 1.349 . S
C468 C470 1.327 . S
C468 H493 0.950 . S
C469 C468 1.349 . S
C469 C485 1.349 . S
C470 C468 1.327 . S
C470 C489 1.429 . S
C470 H494 0.950 . S
C471 C488 1.574 . S
C471 C490 1.368 1_545 S
C471 H495 0.949 . S
H472 C476 0.949 . S
C473 C474 1.349 . S
C473 C475 1.327 . S
C473 H496 0.950 . S
C474 C473 1.349 . S
C474 C486 1.349 . S
C475 C473 1.327 . S
C475 C491 1.429 . S
C475 H497 0.950 . S
C476 H472 0.949 . S
C476 C484 1.574 . S
C476 C492 1.368 1_565 S
H477 C485 0.950 . S
H478 C483 0.950 . S
H479 C484 0.949 . S
H480 C486 0.950 . S
H481 C487 0.950 . S
H482 C488 0.949 . S
C483 H478 0.950 . S
C483 C485 1.327 . S
C483 C489 1.429 . S
C484 C476 1.574 . S
C484 H479 0.949 . S
C484 C490 1.368 . S
C485 C469 1.349 . S
C485 H477 0.950 . S
C485 C483 1.327 . S
C486 C474 1.349 . S
C486 H480 0.950 . S
C486 C487 1.327 . S
C487 H481 0.950 . S
C487 C486 1.327 . S
C487 C491 1.429 . S
C488 C471 1.574 . S
C488 H482 0.949 . S
C488 C492 1.368 . S
C489 C470 1.429 . S
C489 C483 1.429 . S
C489 C490 1.523 . S
C490 C471 1.368 1_565 S
C490 C484 1.368 . S
C490 C489 1.523 . S
C491 C475 1.429 . S
C491 C487 1.429 . S
C491 C492 1.523 . S
C492 C476 1.368 1_545 S
C492 C488 1.368 . S
C492 C491 1.523 . S
H493 C468 0.950 . S
H494 C470 0.950 . S
H495 C471 0.949 . S
H496 C473 0.950 . S
H497 C475 0.950 . S
C498 C499 1.349 . S
C498 C500 1.327 . S
C498 H523 0.950 . S
C499 C498 1.349 . S
C499 C515 1.349 . S
C500 C498 1.327 . S
C500 C519 1.429 . S
C500 H524 0.950 . S
C501 C518 1.574 . S
C501 C520 1.368 1_655 S
C501 H525 0.949 . S
H502 C506 0.949 . S
C503 C504 1.349 . S
C503 C505 1.327 . S
C503 H526 0.950 . S
C504 C503 1.349 . S
C504 C516 1.349 . S
C505 C503 1.327 . S
C505 C521 1.429 . S
C505 H527 0.950 . S
C506 H502 0.949 . S
C506 C514 1.574 . S
C506 C522 1.368 1_455 S
H507 C515 0.950 . S
H508 C513 0.950 . S
H509 C514 0.949 . S
H510 C516 0.950 . S
H511 C517 0.950 . S
H512 C518 0.949 . S
C513 H508 0.950 . S
C513 C515 1.327 . S
C513 C519 1.429 . S
C514 C506 1.574 . S
C514 H509 0.949 . S
C514 C520 1.368 . S
C515 C499 1.349 . S
C515 H507 0.950 . S
C515 C513 1.327 . S
C516 C504 1.349 . S
C516 H510 0.950 . S
C516 C517 1.327 . S
C517 H511 0.950 . S
C517 C516 1.327 . S
C517 C521 1.429 . S
C518 C501 1.574 . S
C518 H512 0.949 . S
C518 C522 1.368 . S
C519 C500 1.429 . S
C519 C513 1.429 . S
C519 C520 1.523 . S
C520 C501 1.368 1_455 S
C520 C514 1.368 . S
C520 C519 1.523 . S
C521 C505 1.429 . S
C521 C517 1.429 . S
C521 C522 1.523 . S
C522 C506 1.368 1_655 S
C522 C518 1.368 . S
C522 C521 1.523 . S
H523 C498 0.950 . S
H524 C500 0.950 . S
H525 C501 0.949 . S
H526 C503 0.950 . S
H527 C505 0.950 . S
C528 C529 1.349 . S
C528 C530 1.327 . S
C528 H553 0.950 . S
C529 C528 1.349 . S
C529 C545 1.349 . S
C530 C528 1.327 . S
C530 C549 1.429 . S
C530 H554 0.950 . S
C531 C548 1.574 . S
C531 C550 1.368 . S
C531 H555 0.949 . S
H532 C536 0.949 . S
C533 C534 1.349 . S
C533 C535 1.327 . S
C533 H556 0.950 . S
C534 C533 1.349 . S
C534 C546 1.349 . S
C535 C533 1.327 . S
C535 C551 1.429 . S
C535 H557 0.950 . S
C536 H532 0.949 . S
C536 C544 1.574 . S
C536 C552 1.368 . S
H537 C545 0.950 . S
H538 C543 0.950 . S
H539 C544 0.949 . S
H540 C546 0.950 . S
H541 C547 0.950 . S
H542 C548 0.949 . S
C543 H538 0.950 . S
C543 C545 1.327 . S
C543 C549 1.429 . S
C544 C536 1.574 . S
C544 H539 0.949 . S
C544 C550 1.368 . S
C545 C529 1.349 . S
C545 H537 0.950 . S
C545 C543 1.327 . S
C546 C534 1.349 . S
C546 H540 0.950 . S
C546 C547 1.327 . S
C547 H541 0.950 . S
C547 C546 1.327 . S
C547 C551 1.429 . S
C548 C531 1.574 . S
C548 H542 0.949 . S
C548 C552 1.368 . S
C549 C530 1.429 . S
C549 C543 1.429 . S
C549 C550 1.523 . S
C550 C531 1.368 . S
C550 C544 1.368 . S
C550 C549 1.523 . S
C551 C535 1.429 . S
C551 C547 1.429 . S
C551 C552 1.523 . S
C552 C536 1.368 . S
C552 C548 1.368 . S
C552 C551 1.523 . S
H553 C528 0.950 . S
H554 C530 0.950 . S
H555 C531 0.949 . S
H556 C533 0.950 . S
H557 C535 0.950 . S
C558 C559 1.349 . S
C558 C560 1.327 . S
C558 H583 0.950 . S
C559 C558 1.349 . S
C559 C575 1.349 . S
C560 C558 1.327 . S
C560 C579 1.429 . S
C560 H584 0.950 . S
C561 C578 1.627 . S
C561 C580 1.358 1_545 S
C561 H585 0.922 . S
H562 C566 0.922 . S
C563 C564 1.349 . S
C563 C565 1.327 . S
C563 H586 0.950 . S
C564 C563 1.349 . S
C564 C576 1.349 . S
C565 C563 1.327 . S
C565 C581 1.429 . S
C565 H587 0.950 . S
C566 H562 0.922 . S
C566 C574 1.626 . S
C566 C582 1.358 1_565 S
H567 C575 0.950 . S
H568 C573 0.950 . S
H569 C574 0.949 . S
H570 C576 0.950 . S
H571 C577 0.950 . S
H572 C578 0.949 . S
C573 H568 0.950 . S
C573 C575 1.327 . S
C573 C579 1.429 . S
C574 C566 1.626 . S
C574 H569 0.949 . S
C574 C580 1.368 . S
C575 C559 1.349 . S
C575 H567 0.950 . S
C575 C573 1.327 . S
C576 C564 1.349 . S
C576 H570 0.950 . S
C576 C577 1.327 . S
C577 H571 0.950 . S
C577 C576 1.327 . S
C577 C581 1.429 . S
C578 C561 1.627 . S
C578 H572 0.949 . S
C578 C582 1.368 . S
C579 C560 1.429 . S
C579 C573 1.429 . S
C579 C580 1.523 . S
C580 C561 1.358 1_565 S
C580 C574 1.368 . S
C580 C579 1.523 . S
C581 C565 1.429 . S
C581 C577 1.429 . S
C581 C582 1.523 . S
C582 C566 1.358 1_545 S
C582 C578 1.368 . S
C582 C581 1.523 . S
H583 C558 0.950 . S
H584 C560 0.950 . S
H585 C561 0.922 . S
H586 C563 0.950 . S
H587 C565 0.950 . S
C588 C589 1.349 . S
C588 C590 1.327 . S
C588 H613 0.950 . S
C589 C588 1.349 . S
C589 C605 1.349 . S
C590 C588 1.327 . S
C590 C609 1.429 . S
C590 H614 0.950 . S
C591 C608 1.574 1_455 S
C591 C610 1.368 . S
C591 H615 0.949 . S
H592 C596 0.949 . S
C593 C594 1.349 . S
C593 C595 1.327 . S
C593 H616 0.950 . S
C594 C593 1.349 . S
C594 C606 1.349 . S
C595 C593 1.327 . S
C595 C611 1.429 . S
C595 H617 0.950 . S
C596 H592 0.949 . S
C596 C604 1.574 1_655 S
C596 C612 1.368 . S
H597 C605 0.950 . S
H598 C603 0.950 . S
H599 C604 0.949 . S
H600 C606 0.950 . S
H601 C607 0.950 . S
H602 C608 0.949 . S
C603 H598 0.950 . S
C603 C605 1.327 . S
C603 C609 1.429 . S
C604 C596 1.574 1_455 S
C604 H599 0.949 . S
C604 C610 1.368 . S
C605 C589 1.349 . S
C605 H597 0.950 . S
C605 C603 1.327 . S
C606 C594 1.349 . S
C606 H600 0.950 . S
C606 C607 1.327 . S
C607 H601 0.950 . S
C607 C606 1.327 . S
C607 C611 1.429 . S
C608 C591 1.574 1_655 S
C608 H602 0.949 . S
C608 C612 1.368 . S
C609 C590 1.429 . S
C609 C603 1.429 . S
C609 C610 1.523 . S
C610 C591 1.368 . S
C610 C604 1.368 . S
C610 C609 1.523 . S
C611 C595 1.429 . S
C611 C607 1.429 . S
C611 C612 1.523 . S
C612 C596 1.368 . S
C612 C608 1.368 . S
C612 C611 1.523 . S
H613 C588 0.950 . S
H614 C590 0.950 . S
H615 C591 0.949 . S
H616 C593 0.950 . S
H617 C595 0.950 . S
C618 C619 1.349 . S
C618 C620 1.327 . S
C618 H643 0.950 . S
C619 C618 1.349 . S
C619 C635 1.349 . S
C620 C618 1.327 . S
C620 C639 1.429 . S
C620 H644 0.950 . S
C621 C638 1.574 . S
C621 C640 1.368 . S
C621 H645 0.949 . S
H622 C626 0.949 . S
C623 C624 1.349 . S
C623 C625 1.327 . S
C623 H646 0.950 . S
C624 C623 1.349 . S
C624 C636 1.349 . S
C625 C623 1.327 . S
C625 C641 1.429 . S
C625 H647 0.950 . S
C626 H622 0.949 . S
C626 C634 1.574 . S
C626 C642 1.368 . S
H627 C635 0.950 . S
H628 C633 0.950 . S
H629 C634 0.949 . S
H630 C636 0.950 . S
H631 C637 0.950 . S
H632 C638 0.949 . S
C633 H628 0.950 . S
C633 C635 1.327 . S
C633 C639 1.429 . S
C634 C626 1.574 . S
C634 H629 0.949 . S
C634 C640 1.368 . S
C635 C619 1.349 . S
C635 H627 0.950 . S
C635 C633 1.327 . S
C636 C624 1.349 . S
C636 H630 0.950 . S
C636 C637 1.327 . S
C637 H631 0.950 . S
C637 C636 1.327 . S
C637 C641 1.429 . S
C638 C621 1.574 . S
C638 H632 0.949 . S
C638 C642 1.368 . S
C639 C620 1.429 . S
C639 C633 1.429 . S
C639 C640 1.523 . S
C640 C621 1.368 . S
C640 C634 1.368 . S
C640 C639 1.523 . S
C641 C625 1.429 . S
C641 C637 1.429 . S
C641 C642 1.523 . S
C642 C626 1.368 . S
C642 C638 1.368 . S
C642 C641 1.523 . S
H643 C618 0.950 . S
H644 C620 0.950 . S
H645 C621 0.949 . S
H646 C623 0.950 . S
H647 C625 0.950 . S
C648 C649 1.349 . S
C648 C650 1.327 . S
C648 H673 0.950 . S
C649 C648 1.349 . S
C649 C665 1.349 . S
C650 C648 1.327 . S
C650 C669 1.429 . S
C650 H674 0.950 . S
C651 C668 1.574 . S
C651 C670 1.368 . S
C651 H675 0.949 . S
H652 C656 0.949 . S
C653 C654 1.349 . S
C653 C655 1.327 . S
C653 H676 0.950 1_556 S
C654 C653 1.349 . S
C654 C666 1.349 . S
C655 C653 1.327 . S
C655 C671 1.429 . S
C655 H677 0.950 . S
C656 H652 0.949 . S
C656 C664 1.574 . S
C656 C672 1.368 . S
H657 C665 0.950 . S
H658 C663 0.950 . S
H659 C664 0.949 . S
H660 C666 0.950 . S
H661 C667 0.950 . S
H662 C668 0.949 . S
C663 H658 0.950 . S
C663 C665 1.327 . S
C663 C669 1.429 . S
C664 C656 1.574 . S
C664 H659 0.949 . S
C664 C670 1.368 . S
C665 C649 1.349 . S
C665 H657 0.950 . S
C665 C663 1.327 . S
C666 C654 1.349 . S
C666 H660 0.950 . S
C666 C667 1.327 . S
C667 H661 0.950 . S
C667 C666 1.327 . S
C667 C671 1.429 . S
C668 C651 1.574 . S
C668 H662 0.949 . S
C668 C672 1.368 . S
C669 C650 1.429 . S
C669 C663 1.429 . S
C669 C670 1.523 . S
C670 C651 1.368 . S
C670 C664 1.368 . S
C670 C669 1.523 . S
C671 C655 1.429 . S
C671 C667 1.429 . S
C671 C672 1.523 . S
C672 C656 1.368 . S
C672 C668 1.368 . S
C672 C671 1.523 . S
H673 C648 0.950 . S
H674 C650 0.950 . S
H675 C651 0.949 . S
H676 C653 0.950 1_554 S
H677 C655 0.950 . S
C678 C679 1.349 . S
C678 C680 1.327 . S
C678 H703 0.950 . S
C679 C678 1.349 . S
C679 C695 1.349 . S
C680 C678 1.327 . S
C680 C699 1.429 . S
C680 H704 0.950 . S
C681 C698 1.574 . S
C681 C700 1.368 . S
C681 H705 0.949 . S
H682 C686 0.949 . S
C683 C684 1.349 . S
C683 C685 1.327 . S
C683 H706 0.950 . S
C684 C683 1.349 . S
C684 C696 1.349 . S
C685 C683 1.327 . S
C685 C701 1.429 . S
C685 H707 0.950 . S
C686 H682 0.949 . S
C686 C694 1.574 . S
C686 C702 1.368 . S
H687 C695 0.950 . S
H688 C693 0.950 . S
H689 C694 0.949 . S
H690 C696 0.950 . S
H691 C697 0.950 . S
H692 C698 0.949 . S
C693 H688 0.950 . S
C693 C695 1.327 . S
C693 C699 1.429 . S
C694 C686 1.574 . S
C694 H689 0.949 . S
C694 C700 1.368 . S
C695 C679 1.349 . S
C695 H687 0.950 . S
C695 C693 1.327 . S
C696 C684 1.349 . S
C696 H690 0.950 . S
C696 C697 1.327 . S
C697 H691 0.950 . S
C697 C696 1.327 . S
C697 C701 1.429 . S
C698 C681 1.574 . S
C698 H692 0.949 . S
C698 C702 1.368 . S
C699 C680 1.429 . S
C699 C693 1.429 . S
C699 C700 1.523 . S
C700 C681 1.368 . S
C700 C694 1.368 . S
C700 C699 1.523 . S
C701 C685 1.429 . S
C701 C697 1.429 . S
C701 C702 1.523 . S
C702 C686 1.368 . S
C702 C698 1.368 . S
C702 C701 1.523 . S
H703 C678 0.950 . S
H704 C680 0.950 . S
H705 C681 0.949 . S
H706 C683 0.950 . S
H707 C685 0.950 . S
C708 C709 1.349 . S
C708 C710 1.327 . S
C708 H733 0.950 . S
C709 C708 1.349 . S
C709 C725 1.349 . S
C710 C708 1.327 . S
C710 C729 1.429 . S
C710 H734 0.950 . S
C711 C728 1.574 . S
C711 C730 1.368 . S
C711 H735 0.949 . S
H712 C716 0.949 . S
C713 C714 1.349 . S
C713 C715 1.327 . S
C713 H736 0.950 . S
C714 C713 1.349 . S
C714 C726 1.349 . S
C715 C713 1.327 . S
C715 C731 1.429 . S
C715 H737 0.950 . S
C716 H712 0.949 . S
C716 C724 1.574 . S
C716 C732 1.368 . S
H717 C725 0.950 . S
H718 C723 0.950 . S
H719 C724 0.949 . S
H720 C726 0.950 1_554 S
H721 C727 0.950 . S
H722 C728 0.949 . S
C723 H718 0.950 . S
C723 C725 1.327 . S
C723 C729 1.429 . S
C724 C716 1.574 . S
C724 H719 0.949 . S
C724 C730 1.368 . S
C725 C709 1.349 . S
C725 H717 0.950 . S
C725 C723 1.327 . S
C726 C714 1.349 . S
C726 H720 0.950 1_556 S
C726 C727 1.327 . S
C727 H721 0.950 . S
C727 C726 1.327 . S
C727 C731 1.429 . S
C728 C711 1.574 . S
C728 H722 0.949 . S
C728 C732 1.368 . S
C729 C710 1.429 . S
C729 C723 1.429 . S
C729 C730 1.523 . S
C730 C711 1.368 . S
C730 C724 1.368 . S
C730 C729 1.523 . S
C731 C715 1.429 . S
C731 C727 1.429 . S
C731 C732 1.523 . S
C732 C716 1.368 . S
C732 C728 1.368 . S
C732 C731 1.523 . S
H733 C708 0.950 . S
H734 C710 0.950 . S
H735 C711 0.949 . S
H736 C713 0.950 . S
H737 C715 0.950 . S
C738 C739 1.349 . S
C738 C740 1.327 . S
C738 H763 0.950 . S
C739 C738 1.349 . S
C739 C755 1.349 . S
C740 C738 1.327 . S
C740 C759 1.429 . S
C740 H764 0.950 . S
C741 C758 1.574 . S
C741 C760 1.368 . S
C741 H765 0.949 . S
H742 C746 0.949 . S
C743 C744 1.349 . S
C743 C745 1.327 . S
C743 H766 0.945 1_556 S
C744 C743 1.349 . S
C744 C756 1.349 . S
C745 C743 1.327 . S
C745 C761 1.429 . S
C745 H767 0.950 . S
C746 H742 0.949 . S
C746 C754 1.574 . S
C746 C762 1.368 . S
H747 C755 0.950 . S
H748 C753 0.950 . S
H749 C754 0.949 . S
H750 C756 0.950 . S
H751 C757 0.950 . S
H752 C758 0.949 . S
C753 H748 0.950 . S
C753 C755 1.327 . S
C753 C759 1.429 . S
C754 C746 1.574 . S
C754 H749 0.949 . S
C754 C760 1.368 . S
C755 C739 1.349 . S
C755 H747 0.950 . S
C755 C753 1.327 . S
C756 C744 1.349 . S
C756 H750 0.950 . S
C756 C757 1.327 . S
C757 H751 0.950 . S
C757 C756 1.327 . S
C757 C761 1.429 . S
C758 C741 1.574 . S
C758 H752 0.949 . S
C758 C762 1.368 . S
C759 C740 1.429 . S
C759 C753 1.429 . S
C759 C760 1.523 . S
C760 C741 1.368 . S
C760 C754 1.368 . S
C760 C759 1.523 . S
C761 C745 1.429 . S
C761 C757 1.429 . S
C761 C762 1.523 . S
C762 C746 1.368 . S
C762 C758 1.368 . S
C762 C761 1.523 . S
H763 C738 0.950 . S
H764 C740 0.950 . S
H765 C741 0.949 . S
H766 C743 0.945 1_554 S
H767 C745 0.950 . S
C768 C769 1.349 . S
C768 C770 1.327 . S
C768 H793 0.950 . S
C769 C768 1.349 . S
C769 C785 1.349 . S
C770 C768 1.327 . S
C770 C789 1.429 . S
C770 H794 0.950 . S
C771 C788 1.574 . S
C771 C790 1.368 . S
C771 H795 0.949 . S
H772 C776 0.949 . S
C773 C774 1.349 . S
C773 C775 1.327 . S
C773 H796 0.950 . S
C774 C773 1.349 . S
C774 C786 1.349 . S
C775 C773 1.327 . S
C775 C791 1.429 . S
C775 H797 0.950 . S
C776 H772 0.949 . S
C776 C784 1.574 . S
C776 C792 1.368 . S
H777 C785 0.950 1_554 S
H778 C783 0.950 . S
H779 C784 0.949 . S
H780 C786 0.950 . S
H781 C787 0.950 . S
H782 C788 0.949 . S
C783 H778 0.950 . S
C783 C785 1.327 . S
C783 C789 1.429 . S
C784 C776 1.574 . S
C784 H779 0.949 . S
C784 C790 1.368 . S
C785 C769 1.349 . S
C785 H777 0.950 1_556 S
C785 C783 1.327 . S
C786 C774 1.349 . S
C786 H780 0.950 . S
C786 C787 1.327 . S
C787 H781 0.950 . S
C787 C786 1.327 . S
C787 C791 1.429 . S
C788 C771 1.574 . S
C788 H782 0.949 . S
C788 C792 1.368 . S
C789 C770 1.429 . S
C789 C783 1.429 . S
C789 C790 1.523 . S
C790 C771 1.368 . S
C790 C784 1.368 . S
C790 C789 1.523 . S
C791 C775 1.429 . S
C791 C787 1.429 . S
C791 C792 1.523 . S
C792 C776 1.368 . S
C792 C788 1.368 . S
C792 C791 1.523 . S
H793 C768 0.950 . S
H794 C770 0.950 . S
H795 C771 0.949 . S
H796 C773 0.950 . S
H797 C775 0.950 . S
C798 C799 1.349 . S
C798 C800 1.327 . S
C798 H823 0.950 . S
C799 C798 1.349 . S
C799 C815 1.349 . S
C800 C798 1.327 . S
C800 C819 1.429 . S
C800 H824 0.950 . S
C801 C818 1.574 . S
C801 C820 1.368 . S
C801 H825 0.949 . S
H802 C806 0.949 . S
C803 C804 1.349 . S
C803 C805 1.327 . S
C803 H826 0.950 1_556 S
C804 C803 1.349 . S
C804 C816 1.349 . S
C805 C803 1.327 . S
C805 C821 1.429 . S
C805 H827 0.950 . S
C806 H802 0.949 . S
C806 C814 1.574 . S
C806 C822 1.368 . S
H807 C815 0.950 . S
H808 C813 0.950 . S
H809 C814 0.949 . S
H810 C816 0.950 . S
H811 C817 0.950 . S
H812 C818 0.949 . S
C813 H808 0.950 . S
C813 C815 1.327 . S
C813 C819 1.429 . S
C814 C806 1.574 . S
C814 H809 0.949 . S
C814 C820 1.368 . S
C815 C799 1.349 . S
C815 H807 0.950 . S
C815 C813 1.327 . S
C816 C804 1.349 . S
C816 H810 0.950 . S
C816 C817 1.327 . S
C817 H811 0.950 . S
C817 C816 1.327 . S
C817 C821 1.429 . S
C818 C801 1.574 . S
C818 H812 0.949 . S
C818 C822 1.368 . S
C819 C800 1.429 . S
C819 C813 1.429 . S
C819 C820 1.523 . S
C820 C801 1.368 . S
C820 C814 1.368 . S
C820 C819 1.523 . S
C821 C805 1.429 . S
C821 C817 1.429 . S
C821 C822 1.523 . S
C822 C806 1.368 . S
C822 C818 1.368 . S
C822 C821 1.523 . S
H823 C798 0.950 . S
H824 C800 0.950 . S
H825 C801 0.949 . S
H826 C803 0.950 1_554 S
H827 C805 0.950 . S
C828 C829 1.349 . S
C828 C830 1.327 . S
C828 H853 0.950 . S
C829 C828 1.349 . S
C829 C845 1.349 . S
C830 C828 1.327 . S
C830 C849 1.429 . S
C830 H854 0.950 . S
C831 C848 1.574 . S
C831 C850 1.368 . S
C831 H855 0.949 . S
H832 C836 0.949 . S
C833 C834 1.349 . S
C833 C835 1.327 . S
C833 H856 0.950 . S
C834 C833 1.349 . S
C834 C846 1.349 . S
C835 C833 1.327 . S
C835 C851 1.429 . S
C835 H857 0.950 . S
C836 H832 0.949 . S
C836 C844 1.574 . S
C836 C852 1.368 . S
H837 C845 0.950 . S
H838 C843 0.950 . S
H839 C844 0.949 . S
H840 C846 0.950 . S
H841 C847 0.950 . S
H842 C848 0.949 . S
C843 H838 0.950 . S
C843 C845 1.327 . S
C843 C849 1.429 . S
C844 C836 1.574 . S
C844 H839 0.949 . S
C844 C850 1.368 . S
C845 C829 1.349 . S
C845 H837 0.950 . S
C845 C843 1.327 . S
C846 C834 1.349 . S
C846 H840 0.950 . S
C846 C847 1.327 . S
C847 H841 0.950 . S
C847 C846 1.327 . S
C847 C851 1.429 . S
C848 C831 1.574 . S
C848 H842 0.949 . S
C848 C852 1.368 . S
C849 C830 1.429 . S
C849 C843 1.429 . S
C849 C850 1.523 . S
C850 C831 1.368 . S
C850 C844 1.368 . S
C850 C849 1.523 . S
C851 C835 1.429 . S
C851 C847 1.429 . S
C851 C852 1.523 . S
C852 C836 1.368 . S
C852 C848 1.368 . S
C852 C851 1.523 . S
H853 C828 0.950 . S
H854 C830 0.950 . S
H855 C831 0.949 . S
H856 C833 0.950 . S
H857 C835 0.950 . S
C858 C859 1.349 . S
C858 C860 1.327 . S
C858 H883 0.950 . S
C859 C858 1.349 . S
C859 C875 1.349 . S
C860 C858 1.327 . S
C860 C879 1.429 . S
C860 H884 0.950 . S
C861 C878 1.574 . S
C861 C880 1.368 . S
C861 H885 0.949 . S
H862 C866 0.949 . S
C863 C864 1.349 . S
C863 C865 1.327 . S
C863 H886 0.950 . S
C864 C863 1.349 . S
C864 C876 1.349 . S
C865 C863 1.327 . S
C865 C881 1.429 . S
C865 H887 0.950 . S
C866 H862 0.949 . S
C866 C874 1.574 . S
C866 C882 1.368 . S
H867 C875 0.950 . S
H868 C873 0.950 . S
H869 C874 0.949 . S
H870 C876 0.950 . S
H871 C877 0.950 . S
H872 C878 0.949 . S
C873 H868 0.950 . S
C873 C875 1.327 . S
C873 C879 1.429 . S
C874 C866 1.574 . S
C874 H869 0.949 . S
C874 C880 1.368 . S
C875 C859 1.349 . S
C875 H867 0.950 . S
C875 C873 1.327 . S
C876 C864 1.349 . S
C876 H870 0.950 . S
C876 C877 1.327 . S
C877 H871 0.950 . S
C877 C876 1.327 . S
C877 C881 1.429 . S
C878 C861 1.574 . S
C878 H872 0.949 . S
C878 C882 1.368 . S
C879 C860 1.429 . S
C879 C873 1.429 . S
C879 C880 1.523 . S
C880 C861 1.368 . S
C880 C874 1.368 . S
C880 C879 1.523 . S
C881 C865 1.429 . S
C881 C877 1.429 . S
C881 C882 1.523 . S
C882 C866 1.368 . S
C882 C878 1.368 . S
C882 C881 1.523 . S
H883 C858 0.950 . S
H884 C860 0.950 . S
H885 C861 0.949 . S
H886 C863 0.950 . S
H887 C865 0.950 . S
C888 C889 1.349 . S
C888 C890 1.327 . S
C888 H913 0.950 . S
C889 C888 1.349 . S
C889 C905 1.349 . S
C890 C888 1.327 . S
C890 C909 1.429 . S
C890 H914 0.950 . S
C891 C908 1.574 . S
C891 C910 1.368 . S
C891 H915 0.949 . S
H892 C896 0.949 . S
C893 C894 1.349 . S
C893 C895 1.327 . S
C893 H916 0.950 . S
C894 C893 1.349 . S
C894 C906 1.349 . S
C895 C893 1.327 . S
C895 C911 1.429 . S
C895 H917 0.950 . S
C896 H892 0.949 . S
C896 C904 1.574 . S
C896 C912 1.368 . S
H897 C905 0.950 . S
H898 C903 0.950 . S
H899 C904 0.949 . S
H900 C906 0.950 . S
H901 C907 0.950 . S
H902 C908 0.949 . S
C903 H898 0.950 . S
C903 C905 1.327 . S
C903 C909 1.429 . S
C904 C896 1.574 . S
C904 H899 0.949 . S
C904 C910 1.368 . S
C905 C889 1.349 . S
C905 H897 0.950 . S
C905 C903 1.327 . S
C906 C894 1.349 . S
C906 H900 0.950 . S
C906 C907 1.327 . S
C907 H901 0.950 . S
C907 C906 1.327 . S
C907 C911 1.429 . S
C908 C891 1.574 . S
C908 H902 0.949 . S
C908 C912 1.368 . S
C909 C890 1.429 . S
C909 C903 1.429 . S
C909 C910 1.523 . S
C910 C891 1.368 . S
C910 C904 1.368 . S
C910 C909 1.523 . S
C911 C895 1.429 . S
C911 C907 1.429 . S
C911 C912 1.523 . S
C912 C896 1.368 . S
C912 C908 1.368 . S
C912 C911 1.523 . S
H913 C888 0.950 . S
H914 C890 0.950 . S
H915 C891 0.949 . S
H916 C893 0.950 . S
H917 C895 0.950 . S
C918 C919 1.349 . S
C918 C920 1.327 . S
C918 H943 0.950 . S
C919 C918 1.349 . S
C919 C935 1.349 . S
C920 C918 1.327 . S
C920 C939 1.429 . S
C920 H944 0.950 . S
C921 C938 1.574 . S
C921 C940 1.368 . S
C921 H945 0.949 . S
H922 C926 0.949 . S
C923 C924 1.349 . S
C923 C925 1.327 . S
C923 H946 0.950 1_554 S
C924 C923 1.349 . S
C924 C936 1.349 . S
C925 C923 1.327 . S
C925 C941 1.429 . S
C925 H947 0.950 . S
C926 H922 0.949 . S
C926 C934 1.574 . S
C926 C942 1.368 . S
H927 C935 0.950 . S
H928 C933 0.950 . S
H929 C934 0.949 . S
H930 C936 0.950 . S
H931 C937 0.950 . S
H932 C938 0.949 . S
C933 H928 0.950 . S
C933 C935 1.327 . S
C933 C939 1.429 . S
C934 C926 1.574 . S
C934 H929 0.949 . S
C934 C940 1.368 . S
C935 C919 1.349 . S
C935 H927 0.950 . S
C935 C933 1.327 . S
C936 C924 1.349 . S
C936 H930 0.950 . S
C936 C937 1.327 . S
C937 H931 0.950 . S
C937 C936 1.327 . S
C937 C941 1.429 . S
C938 C921 1.574 . S
C938 H932 0.949 . S
C938 C942 1.368 . S
C939 C920 1.429 . S
C939 C933 1.429 . S
C939 C940 1.523 . S
C940 C921 1.368 . S
C940 C934 1.368 . S
C940 C939 1.523 . S
C941 C925 1.429 . S
C941 C937 1.429 . S
C941 C942 1.523 . S
C942 C926 1.368 . S
C942 C938 1.368 . S
C942 C941 1.523 . S
H943 C918 0.950 . S
H944 C920 0.950 . S
H945 C921 0.949 . S
H946 C923 0.950 1_556 S
H947 C925 0.950 . S
C948 C949 1.349 . S
C948 C950 1.327 . S
C948 H973 0.950 . S
C949 C948 1.349 . S
C949 C965 1.349 . S
C950 C948 1.327 . S
C950 C969 1.429 . S
C950 H974 0.950 . S
C951 C968 1.574 . S
C951 C970 1.368 . S
C951 H975 0.949 . S
H952 C956 0.949 . S
C953 C954 1.349 . S
C953 C955 1.327 . S
C953 H976 0.950 . S
C954 C953 1.349 . S
C954 C966 1.349 . S
C955 C953 1.327 . S
C955 C971 1.429 . S
C955 H977 0.950 . S
C956 H952 0.949 . S
C956 C964 1.574 . S
C956 C972 1.368 . S
H957 C965 0.950 . S
H958 C963 0.950 . S
H959 C964 0.949 . S
H960 C966 0.950 1_556 S
H961 C967 0.950 . S
H962 C968 0.949 . S
C963 H958 0.950 . S
C963 C965 1.327 . S
C963 C969 1.429 . S
C964 C956 1.574 . S
C964 H959 0.949 . S
C964 C970 1.368 . S
C965 C949 1.349 . S
C965 H957 0.950 . S
C965 C963 1.327 . S
C966 C954 1.349 . S
C966 H960 0.950 1_554 S
C966 C967 1.327 . S
C967 H961 0.950 . S
C967 C966 1.327 . S
C967 C971 1.429 . S
C968 C951 1.574 . S
C968 H962 0.949 . S
C968 C972 1.368 . S
C969 C950 1.429 . S
C969 C963 1.429 . S
C969 C970 1.523 . S
C970 C951 1.368 . S
C970 C964 1.368 . S
C970 C969 1.523 . S
C971 C955 1.429 . S
C971 C967 1.429 . S
C971 C972 1.523 . S
C972 C956 1.368 . S
C972 C968 1.368 . S
C972 C971 1.523 . S
H973 C948 0.950 . S
H974 C950 0.950 . S
H975 C951 0.949 . S
H976 C953 0.950 . S
H977 C955 0.950 . S
C978 C979 1.349 . S
C978 C980 1.327 . S
C978 H1003 0.950 . S
C979 C978 1.349 . S
C979 C995 1.349 . S
C980 C978 1.327 . S
C980 C999 1.429 . S
C980 H1004 0.950 . S
C981 C998 1.574 . S
C981 C1000 1.368 . S
C981 H1005 0.949 . S
H982 C986 0.949 . S
C983 C984 1.349 . S
C983 C985 1.327 . S
C983 H1006 0.950 . S
C984 C983 1.349 . S
C984 C996 1.349 . S
C985 C983 1.327 . S
C985 C1001 1.429 . S
C985 H1007 0.950 . S
C986 H982 0.949 . S
C986 C994 1.574 . S
C986 C1002 1.368 . S
H987 C995 0.950 . S
H988 C993 0.950 . S
H989 C994 0.949 . S
H990 C996 0.950 . S
H991 C997 0.950 . S
H992 C998 0.949 . S
C993 H988 0.950 . S
C993 C995 1.327 . S
C993 C999 1.429 . S
C994 C986 1.574 . S
C994 H989 0.949 . S
C994 C1000 1.368 . S
C995 C979 1.349 . S
C995 H987 0.950 . S
C995 C993 1.327 . S
C996 C984 1.349 . S
C996 H990 0.950 . S
C996 C997 1.327 . S
C997 H991 0.950 . S
C997 C996 1.327 . S
C997 C1001 1.429 . S
C998 C981 1.574 . S
C998 H992 0.949 . S
C998 C1002 1.368 . S
C999 C980 1.429 . S
C999 C993 1.429 . S
C999 C1000 1.523 . S
C1000 C981 1.368 . S
C1000 C994 1.368 . S
C1000 C999 1.523 . S
C1001 C985 1.429 . S
C1001 C997 1.429 . S
C1001 C1002 1.523 . S
C1002 C986 1.368 . S
C1002 C998 1.368 . S
C1002 C1001 1.523 . S
H1003 C978 0.950 . S
H1004 C980 0.950 . S
H1005 C981 0.949 . S
H1006 C983 0.950 . S
H1007 C985 0.950 . S
C1008 C1009 1.349 . S
C1008 C1010 1.327 . S
C1008 H1033 0.950 . S
C1009 C1008 1.349 . S
C1009 C1025 1.349 . S
C1010 C1008 1.327 . S
C1010 C1029 1.429 . S
C1010 H1034 0.950 . S
C1011 C1028 1.574 . S
C1011 C1030 1.368 1_554 S
C1011 H1035 0.949 . S
H1012 C1016 0.949 . S
C1013 C1014 1.349 . S
C1013 C1015 1.327 . S
C1013 H1036 0.950 . S
C1014 C1013 1.349 . S
C1014 C1026 1.349 . S
C1015 C1013 1.327 . S
C1015 C1031 1.429 . S
C1015 H1037 0.950 . S
C1016 H1012 0.949 . S
C1016 C1024 1.574 . S
C1016 C1032 1.368 1_556 S
H1017 C1025 0.950 . S
H1018 C1023 0.950 . S
H1019 C1024 0.949 . S
H1020 C1026 0.950 . S
H1021 C1027 0.950 . S
H1022 C1028 0.949 . S
C1023 H1018 0.950 . S
C1023 C1025 1.327 . S
C1023 C1029 1.429 . S
C1024 C1016 1.574 . S
C1024 H1019 0.949 . S
C1024 C1030 1.368 1_545 S
C1025 C1009 1.349 . S
C1025 H1017 0.950 . S
C1025 C1023 1.327 . S
C1026 C1014 1.349 . S
C1026 H1020 0.950 . S
C1026 C1027 1.327 . S
C1027 H1021 0.950 . S
C1027 C1026 1.327 . S
C1027 C1031 1.429 . S
C1028 C1011 1.574 . S
C1028 H1022 0.949 . S
C1028 C1032 1.368 1_565 S
C1029 C1010 1.429 . S
C1029 C1023 1.429 . S
C1029 C1030 1.523 . S
C1030 C1011 1.368 1_556 S
C1030 C1024 1.368 1_565 S
C1030 C1029 1.523 . S
C1031 C1015 1.429 . S
C1031 C1027 1.429 . S
C1031 C1032 1.523 . S
C1032 C1016 1.368 1_554 S
C1032 C1028 1.368 1_545 S
C1032 C1031 1.523 . S
H1033 C1008 0.950 . S
H1034 C1010 0.950 . S
H1035 C1011 0.949 . S
H1036 C1013 0.950 . S
H1037 C1015 0.950 . S
C1038 C1039 1.349 . S
C1038 C1040 1.327 . S
C1038 H1063 0.950 . S
C1039 C1038 1.349 . S
C1039 C1055 1.349 . S
C1040 C1038 1.327 . S
C1040 C1059 1.429 . S
C1040 H1064 0.950 . S
C1041 C1058 1.574 . S
C1041 C1060 1.368 1_455 S
C1041 H1065 0.949 . S
H1042 C1046 0.949 . S
C1043 C1044 1.349 . S
C1043 C1045 1.327 . S
C1043 H1066 0.950 . S
C1044 C1043 1.349 . S
C1044 C1056 1.349 . S
C1045 C1043 1.327 . S
C1045 C1061 1.429 . S
C1045 H1067 0.950 . S
C1046 H1042 0.949 . S
C1046 C1054 1.574 . S
C1046 C1062 1.368 1_655 S
H1047 C1055 0.950 . S
H1048 C1053 0.950 . S
H1049 C1054 0.949 . S
H1050 C1056 0.950 . S
H1051 C1057 0.950 . S
H1052 C1058 0.949 . S
C1053 H1048 0.950 . S
C1053 C1055 1.327 . S
C1053 C1059 1.429 . S
C1054 C1046 1.574 . S
C1054 H1049 0.949 . S
C1054 C1060 1.368 1_556 S
C1055 C1039 1.349 . S
C1055 H1047 0.950 . S
C1055 C1053 1.327 . S
C1056 C1044 1.349 . S
C1056 H1050 0.950 . S
C1056 C1057 1.327 . S
C1057 H1051 0.950 . S
C1057 C1056 1.327 . S
C1057 C1061 1.429 . S
C1058 C1041 1.574 . S
C1058 H1052 0.949 . S
C1058 C1062 1.368 1_554 S
C1059 C1040 1.429 . S
C1059 C1053 1.429 . S
C1059 C1060 1.523 . S
C1060 C1041 1.368 1_655 S
C1060 C1054 1.368 1_554 S
C1060 C1059 1.523 . S
C1061 C1045 1.429 . S
C1061 C1057 1.429 . S
C1061 C1062 1.523 . S
C1062 C1046 1.368 1_455 S
C1062 C1058 1.368 1_556 S
C1062 C1061 1.523 . S
H1063 C1038 0.950 . S
H1064 C1040 0.950 . S
H1065 C1041 0.949 . S
H1066 C1043 0.950 . S
H1067 C1045 0.950 . S
C1068 C1069 1.349 . S
C1068 C1070 1.327 . S
C1068 H1093 0.950 . S
C1069 C1068 1.349 . S
C1069 C1085 1.349 . S
C1070 C1068 1.327 . S
C1070 C1089 1.429 . S
C1070 H1094 0.950 . S
C1071 C1088 1.574 1_556 S
C1071 C1090 1.368 . S
C1071 H1095 0.949 . S
H1072 C1076 0.949 . S
C1073 C1074 1.349 . S
C1073 C1075 1.327 . S
C1073 H1096 0.950 . S
C1074 C1073 1.349 . S
C1074 C1086 1.349 . S
C1075 C1073 1.327 . S
C1075 C1091 1.429 . S
C1075 H1097 0.950 . S
C1076 H1072 0.949 . S
C1076 C1084 1.574 1_554 S
C1076 C1092 1.368 . S
H1077 C1085 0.950 . S
H1078 C1083 0.950 . S
H1079 C1084 0.949 . S
H1080 C1086 0.950 . S
H1081 C1087 0.950 . S
H1082 C1088 0.949 . S
C1083 H1078 0.950 . S
C1083 C1085 1.327 . S
C1083 C1089 1.429 . S
C1084 C1076 1.574 1_556 S
C1084 H1079 0.949 . S
C1084 C1090 1.368 . S
C1085 C1069 1.349 . S
C1085 H1077 0.950 . S
C1085 C1083 1.327 . S
C1086 C1074 1.349 . S
C1086 H1080 0.950 . S
C1086 C1087 1.327 . S
C1087 H1081 0.950 . S
C1087 C1086 1.327 . S
C1087 C1091 1.429 . S
C1088 C1071 1.574 1_554 S
C1088 H1082 0.949 . S
C1088 C1092 1.368 . S
C1089 C1070 1.429 . S
C1089 C1083 1.429 . S
C1089 C1090 1.523 . S
C1090 C1071 1.368 . S
C1090 C1084 1.368 . S
C1090 C1089 1.523 . S
C1091 C1075 1.429 . S
C1091 C1087 1.429 . S
C1091 C1092 1.523 . S
C1092 C1076 1.368 . S
C1092 C1088 1.368 . S
C1092 C1091 1.523 . S
H1093 C1068 0.950 . S
H1094 C1070 0.950 . S
H1095 C1071 0.949 . S
H1096 C1073 0.950 . S
H1097 C1075 0.950 . S
C1098 C1099 1.349 . S
C1098 C1100 1.327 . S
C1098 H1123 0.950 . S
C1099 C1098 1.349 . S
C1099 C1115 1.349 . S
C1100 C1098 1.327 . S
C1100 C1119 1.429 . S
C1100 H1124 0.950 . S
C1101 C1118 1.574 1_566 S
C1101 C1120 1.368 . S
C1101 H1125 0.949 . S
H1102 C1106 0.949 . S
C1103 C1104 1.349 . S
C1103 C1105 1.327 . S
C1103 H1126 0.950 . S
C1104 C1103 1.349 . S
C1104 C1116 1.349 . S
C1105 C1103 1.327 . S
C1105 C1121 1.429 . S
C1105 H1127 0.950 . S
C1106 H1102 0.949 . S
C1106 C1114 1.574 1_544 S
C1106 C1122 1.368 . S
H1107 C1115 0.950 . S
H1108 C1113 0.950 . S
H1109 C1114 0.949 . S
H1110 C1116 0.950 . S
H1111 C1117 0.950 . S
H1112 C1118 0.949 . S
C1113 H1108 0.950 . S
C1113 C1115 1.327 . S
C1113 C1119 1.429 . S
C1114 C1106 1.574 1_566 S
C1114 H1109 0.949 . S
C1114 C1120 1.368 . S
C1115 C1099 1.349 . S
C1115 H1107 0.950 . S
C1115 C1113 1.327 . S
C1116 C1104 1.349 . S
C1116 H1110 0.950 . S
C1116 C1117 1.327 . S
C1117 H1111 0.950 . S
C1117 C1116 1.327 . S
C1117 C1121 1.429 . S
C1118 C1101 1.574 1_544 S
C1118 H1112 0.949 . S
C1118 C1122 1.368 . S
C1119 C1100 1.429 . S
C1119 C1113 1.429 . S
C1119 C1120 1.523 . S
C1120 C1101 1.368 . S
C1120 C1114 1.368 . S
C1120 C1119 1.523 . S
C1121 C1105 1.429 . S
C1121 C1117 1.429 . S
C1121 C1122 1.523 . S
C1122 C1106 1.368 . S
C1122 C1118 1.368 . S
C1122 C1121 1.523 . S
H1123 C1098 0.950 . S
H1124 C1100 0.950 . S
H1125 C1101 0.949 . S
H1126 C1103 0.950 . S
H1127 C1105 0.950 . S
C1128 C1129 1.349 . S
C1128 C1130 1.327 . S
C1128 H1153 0.950 . S
C1129 C1128 1.349 . S
C1129 C1145 1.349 . S
C1130 C1128 1.327 . S
C1130 C1149 1.429 . S
C1130 H1154 0.950 . S
C1131 C1148 1.574 1_556 S
C1131 C1150 1.368 . S
C1131 H1155 0.949 . S
H1132 C1136 0.949 . S
C1133 C1134 1.349 . S
C1133 C1135 1.327 . S
C1133 H1156 0.950 . S
C1134 C1133 1.349 . S
C1134 C1146 1.349 . S
C1135 C1133 1.327 . S
C1135 C1151 1.429 . S
C1135 H1157 0.950 . S
C1136 H1132 0.949 . S
C1136 C1144 1.574 1_554 S
C1136 C1152 1.368 . S
H1137 C1145 0.950 . S
H1138 C1143 0.950 . S
H1139 C1144 0.949 . S
H1140 C1146 0.950 . S
H1141 C1147 0.950 . S
H1142 C1148 0.949 . S
C1143 H1138 0.950 . S
C1143 C1145 1.327 . S
C1143 C1149 1.429 . S
C1144 C1136 1.574 1_556 S
C1144 H1139 0.949 . S
C1144 C1150 1.368 1_655 S
C1145 C1129 1.349 . S
C1145 H1137 0.950 . S
C1145 C1143 1.327 . S
C1146 C1134 1.349 . S
C1146 H1140 0.950 . S
C1146 C1147 1.327 . S
C1147 H1141 0.950 . S
C1147 C1146 1.327 . S
C1147 C1151 1.429 . S
C1148 C1131 1.574 1_554 S
C1148 H1142 0.949 . S
C1148 C1152 1.368 1_455 S
C1149 C1130 1.429 . S
C1149 C1143 1.429 . S
C1149 C1150 1.523 . S
C1150 C1131 1.368 . S
C1150 C1144 1.368 1_455 S
C1150 C1149 1.523 . S
C1151 C1135 1.429 . S
C1151 C1147 1.429 . S
C1151 C1152 1.523 . S
C1152 C1136 1.368 . S
C1152 C1148 1.368 1_655 S
C1152 C1151 1.523 . S
H1153 C1128 0.950 . S
H1154 C1130 0.950 . S
H1155 C1131 0.949 . S
H1156 C1133 0.950 . S
H1157 C1135 0.950 . S
C1158 C1159 1.349 . S
C1158 C1160 1.327 . S
C1158 H1183 0.950 . S
C1159 C1158 1.349 . S
C1159 C1175 1.349 . S
C1160 C1158 1.327 . S
C1160 C1179 1.429 . S
C1160 H1184 0.950 . S
C1161 C1178 1.574 1_554 S
C1161 C1180 1.368 . S
C1161 H1185 0.949 . S
H1162 C1166 0.949 . S
C1163 C1164 1.349 . S
C1163 C1165 1.327 . S
C1163 H1186 0.950 . S
C1164 C1163 1.349 . S
C1164 C1176 1.349 . S
C1165 C1163 1.327 . S
C1165 C1181 1.429 . S
C1165 H1187 0.950 . S
C1166 H1162 0.949 . S
C1166 C1174 1.574 1_556 S
C1166 C1182 1.368 . S
H1167 C1175 0.950 . S
H1168 C1173 0.950 . S
H1169 C1174 0.949 . S
H1170 C1176 0.950 . S
H1171 C1177 0.950 . S
H1172 C1178 0.949 . S
C1173 H1168 0.950 . S
C1173 C1175 1.327 . S
C1173 C1179 1.429 . S
C1174 C1166 1.574 1_554 S
C1174 H1169 0.949 . S
C1174 C1180 1.368 . S
C1175 C1159 1.349 . S
C1175 H1167 0.950 . S
C1175 C1173 1.327 . S
C1176 C1164 1.349 . S
C1176 H1170 0.950 . S
C1176 C1177 1.327 . S
C1177 H1171 0.950 . S
C1177 C1176 1.327 . S
C1177 C1181 1.429 . S
C1178 C1161 1.574 1_556 S
C1178 H1172 0.949 . S
C1178 C1182 1.368 . S
C1179 C1160 1.429 . S
C1179 C1173 1.429 . S
C1179 C1180 1.523 . S
C1180 C1161 1.368 . S
C1180 C1174 1.368 . S
C1180 C1179 1.523 . S
C1181 C1165 1.429 . S
C1181 C1177 1.429 . S
C1181 C1182 1.523 . S
C1182 C1166 1.368 . S
C1182 C1178 1.368 . S
C1182 C1181 1.523 . S
H1183 C1158 0.950 . S
H1184 C1160 0.950 . S
H1185 C1161 0.949 . S
H1186 C1163 0.950 . S
H1187 C1165 0.950 . S
C1188 C1189 1.349 . S
C1188 C1190 1.327 . S
C1188 H1213 0.950 . S
C1189 C1188 1.349 . S
C1189 C1205 1.349 . S
C1190 C1188 1.327 . S
C1190 C1209 1.429 . S
C1190 H1214 0.950 . S
C1191 C1208 1.574 . S
C1191 C1210 1.368 . S
C1191 H1215 0.949 . S
H1192 C1196 0.949 . S
C1193 C1194 1.349 . S
C1193 C1195 1.327 . S
C1193 H1216 0.950 . S
C1194 C1193 1.349 . S
C1194 C1206 1.349 . S
C1195 C1193 1.327 . S
C1195 C1211 1.429 . S
C1195 H1217 0.950 . S
C1196 H1192 0.949 . S
C1196 C1204 1.574 . S
C1196 C1212 1.368 . S
H1197 C1205 0.950 . S
H1198 C1203 0.950 . S
H1199 C1204 0.949 . S
H1200 C1206 0.950 . S
H1201 C1207 0.950 . S
H1202 C1208 0.949 . S
C1203 H1198 0.950 . S
C1203 C1205 1.327 . S
C1203 C1209 1.429 . S
C1204 C1196 1.574 . S
C1204 H1199 0.949 . S
C1204 C1210 1.368 . S
C1205 C1189 1.349 . S
C1205 H1197 0.950 . S
C1205 C1203 1.327 . S
C1206 C1194 1.349 . S
C1206 H1200 0.950 . S
C1206 C1207 1.327 . S
C1207 H1201 0.950 . S
C1207 C1206 1.327 . S
C1207 C1211 1.429 . S
C1208 C1191 1.574 . S
C1208 H1202 0.949 . S
C1208 C1212 1.368 . S
C1209 C1190 1.429 . S
C1209 C1203 1.429 . S
C1209 C1210 1.523 . S
C1210 C1191 1.368 . S
C1210 C1204 1.368 . S
C1210 C1209 1.523 . S
C1211 C1195 1.429 . S
C1211 C1207 1.429 . S
C1211 C1212 1.523 . S
C1212 C1196 1.368 . S
C1212 C1208 1.368 . S
C1212 C1211 1.523 . S
H1213 C1188 0.950 . S
H1214 C1190 0.950 . S
H1215 C1191 0.949 . S
H1216 C1193 0.950 . S
H1217 C1195 0.950 . S
C1218 C1219 1.349 . S
C1218 C1220 1.327 . S
C1218 H1243 0.950 . S
C1219 C1218 1.349 . S
C1219 C1235 1.349 . S
C1220 C1218 1.327 . S
C1220 C1239 1.429 . S
C1220 H1244 0.950 . S
C1221 C1238 1.574 . S
C1221 C1240 1.368 . S
C1221 H1245 0.949 . S
H1222 C1226 0.949 . S
C1223 C1224 1.349 . S
C1223 C1225 1.327 . S
C1223 H1246 0.950 . S
C1224 C1223 1.349 . S
C1224 C1236 1.349 . S
C1225 C1223 1.327 . S
C1225 C1241 1.429 . S
C1225 H1247 0.950 . S
C1226 H1222 0.949 . S
C1226 C1234 1.574 . S
C1226 C1242 1.368 . S
H1227 C1235 0.950 . S
H1228 C1233 0.950 . S
H1229 C1234 0.949 . S
H1230 C1236 0.950 . S
H1231 C1237 0.950 . S
H1232 C1238 0.949 . S
C1233 H1228 0.950 . S
C1233 C1235 1.327 . S
C1233 C1239 1.429 . S
C1234 C1226 1.574 . S
C1234 H1229 0.949 . S
C1234 C1240 1.368 . S
C1235 C1219 1.349 . S
C1235 H1227 0.950 . S
C1235 C1233 1.327 . S
C1236 C1224 1.349 . S
C1236 H1230 0.950 . S
C1236 C1237 1.327 . S
C1237 H1231 0.950 . S
C1237 C1236 1.327 . S
C1237 C1241 1.429 . S
C1238 C1221 1.574 . S
C1238 H1232 0.949 . S
C1238 C1242 1.368 . S
C1239 C1220 1.429 . S
C1239 C1233 1.429 . S
C1239 C1240 1.523 . S
C1240 C1221 1.368 . S
C1240 C1234 1.368 . S
C1240 C1239 1.523 . S
C1241 C1225 1.429 . S
C1241 C1237 1.429 . S
C1241 C1242 1.523 . S
C1242 C1226 1.368 . S
C1242 C1238 1.368 . S
C1242 C1241 1.523 . S
H1243 C1218 0.950 . S
H1244 C1220 0.950 . S
H1245 C1221 0.949 . S
H1246 C1223 0.950 . S
H1247 C1225 0.950 . S
C1248 C1249 1.349 . S
C1248 C1250 1.327 . S
C1248 H1273 0.950 . S
C1249 C1248 1.349 . S
C1249 C1265 1.349 . S
C1250 C1248 1.327 . S
C1250 C1269 1.429 . S
C1250 H1274 0.950 . S
C1251 C1268 1.574 . S
C1251 C1270 1.368 . S
C1251 H1275 0.949 . S
H1252 C1256 0.949 . S
C1253 C1254 1.349 . S
C1253 C1255 1.327 . S
C1253 H1276 0.950 . S
C1254 C1253 1.349 . S
C1254 C1266 1.349 . S
C1255 C1253 1.327 . S
C1255 C1271 1.429 . S
C1255 H1277 0.950 . S
C1256 H1252 0.949 . S
C1256 C1264 1.574 . S
C1256 C1272 1.368 . S
H1257 C1265 0.950 . S
H1258 C1263 0.950 . S
H1259 C1264 0.949 . S
H1260 C1266 0.950 . S
H1261 C1267 0.950 . S
H1262 C1268 0.949 . S
C1263 H1258 0.950 . S
C1263 C1265 1.327 . S
C1263 C1269 1.429 . S
C1264 C1256 1.574 . S
C1264 H1259 0.949 . S
C1264 C1270 1.368 . S
C1265 C1249 1.349 . S
C1265 H1257 0.950 . S
C1265 C1263 1.327 . S
C1266 C1254 1.349 . S
C1266 H1260 0.950 . S
C1266 C1267 1.327 . S
C1267 H1261 0.950 . S
C1267 C1266 1.327 . S
C1267 C1271 1.429 . S
C1268 C1251 1.574 . S
C1268 H1262 0.949 . S
C1268 C1272 1.368 . S
C1269 C1250 1.429 . S
C1269 C1263 1.429 . S
C1269 C1270 1.523 . S
C1270 C1251 1.368 . S
C1270 C1264 1.368 . S
C1270 C1269 1.523 . S
C1271 C1255 1.429 . S
C1271 C1267 1.429 . S
C1271 C1272 1.523 . S
C1272 C1256 1.368 . S
C1272 C1268 1.368 . S
C1272 C1271 1.523 . S
H1273 C1248 0.950 . S
H1274 C1250 0.950 . S
H1275 C1251 0.949 . S
H1276 C1253 0.950 . S
H1277 C1255 0.950 . S
C1278 C1279 1.349 . S
C1278 C1280 1.327 . S
C1278 H1303 0.950 . S
C1279 C1278 1.349 . S
C1279 C1295 1.349 . S
C1280 C1278 1.327 . S
C1280 C1299 1.429 . S
C1280 H1304 0.950 . S
C1281 C1298 1.574 . S
C1281 C1300 1.368 . S
C1281 H1305 0.949 . S
H1282 C1286 0.949 . S
C1283 C1284 1.349 . S
C1283 C1285 1.327 . S
C1283 H1306 0.950 . S
C1284 C1283 1.349 . S
C1284 C1296 1.349 . S
C1285 C1283 1.327 . S
C1285 C1301 1.429 . S
C1285 H1307 0.950 . S
C1286 H1282 0.949 . S
C1286 C1294 1.574 . S
C1286 C1302 1.368 . S
H1287 C1295 0.950 . S
H1288 C1293 0.950 . S
H1289 C1294 0.949 . S
H1290 C1296 0.950 . S
H1291 C1297 0.950 . S
H1292 C1298 0.949 . S
C1293 H1288 0.950 . S
C1293 C1295 1.327 . S
C1293 C1299 1.429 . S
C1294 C1286 1.574 . S
C1294 H1289 0.949 . S
C1294 C1300 1.368 . S
C1295 C1279 1.349 . S
C1295 H1287 0.950 . S
C1295 C1293 1.327 . S
C1296 C1284 1.349 . S
C1296 H1290 0.950 . S
C1296 C1297 1.327 . S
C1297 H1291 0.950 . S
C1297 C1296 1.327 . S
C1297 C1301 1.429 . S
C1298 C1281 1.574 . S
C1298 H1292 0.949 . S
C1298 C1302 1.368 . S
C1299 C1280 1.429 . S
C1299 C1293 1.429 . S
C1299 C1300 1.523 . S
C1300 C1281 1.368 . S
C1300 C1294 1.368 . S
C1300 C1299 1.523 . S
C1301 C1285 1.429 . S
C1301 C1297 1.429 . S
C1301 C1302 1.523 . S
C1302 C1286 1.368 . S
C1302 C1298 1.368 . S
C1302 C1301 1.523 . S
H1303 C1278 0.950 . S
H1304 C1280 0.950 . S
H1305 C1281 0.949 . S
H1306 C1283 0.950 . S
H1307 C1285 0.950 . S
C1308 C1309 1.349 . S
C1308 C1310 1.327 . S
C1308 H1333 0.950 . S
C1309 C1308 1.349 . S
C1309 C1325 1.349 . S
C1310 C1308 1.327 . S
C1310 C1329 1.429 . S
C1310 H1334 0.950 . S
C1311 C1328 1.574 . S
C1311 C1330 1.368 . S
C1311 H1335 0.949 . S
H1312 C1316 0.949 . S
C1313 C1314 1.349 . S
C1313 C1315 1.327 . S
C1313 H1336 0.950 . S
C1314 C1313 1.349 . S
C1314 C1326 1.349 . S
C1315 C1313 1.327 . S
C1315 C1331 1.429 . S
C1315 H1337 0.950 . S
C1316 H1312 0.949 . S
C1316 C1324 1.574 . S
C1316 C1332 1.368 . S
H1317 C1325 0.950 . S
H1318 C1323 0.950 . S
H1319 C1324 0.949 . S
H1320 C1326 0.950 . S
H1321 C1327 0.950 . S
H1322 C1328 0.949 . S
C1323 H1318 0.950 . S
C1323 C1325 1.327 . S
C1323 C1329 1.429 . S
C1324 C1316 1.574 . S
C1324 H1319 0.949 . S
C1324 C1330 1.368 . S
C1325 C1309 1.349 . S
C1325 H1317 0.950 . S
C1325 C1323 1.327 . S
C1326 C1314 1.349 . S
C1326 H1320 0.950 . S
C1326 C1327 1.327 . S
C1327 H1321 0.950 . S
C1327 C1326 1.327 . S
C1327 C1331 1.429 . S
C1328 C1311 1.574 . S
C1328 H1322 0.949 . S
C1328 C1332 1.368 . S
C1329 C1310 1.429 . S
C1329 C1323 1.429 . S
C1329 C1330 1.523 . S
C1330 C1311 1.368 . S
C1330 C1324 1.368 . S
C1330 C1329 1.523 . S
C1331 C1315 1.429 . S
C1331 C1327 1.429 . S
C1331 C1332 1.523 . S
C1332 C1316 1.368 . S
C1332 C1328 1.368 . S
C1332 C1331 1.523 . S
H1333 C1308 0.950 . S
H1334 C1310 0.950 . S
H1335 C1311 0.949 . S
H1336 C1313 0.950 . S
H1337 C1315 0.950 . S
C1338 C1339 1.349 . S
C1338 C1340 1.327 . S
C1338 H1363 0.950 . S
C1339 C1338 1.349 . S
C1339 C1355 1.349 . S
C1340 C1338 1.327 . S
C1340 C1359 1.429 . S
C1340 H1364 0.950 . S
C1341 C1358 1.574 . S
C1341 C1360 1.368 . S
C1341 H1365 0.949 . S
H1342 C1346 0.949 . S
C1343 C1344 1.349 . S
C1343 C1345 1.327 . S
C1343 H1366 0.950 . S
C1344 C1343 1.349 . S
C1344 C1356 1.349 . S
C1345 C1343 1.327 . S
C1345 C1361 1.429 . S
C1345 H1367 0.950 . S
C1346 H1342 0.949 . S
C1346 C1354 1.574 . S
C1346 C1362 1.368 . S
H1347 C1355 0.950 . S
H1348 C1353 0.950 . S
H1349 C1354 0.949 . S
H1350 C1356 0.950 . S
H1351 C1357 0.950 . S
H1352 C1358 0.949 . S
C1353 H1348 0.950 . S
C1353 C1355 1.327 . S
C1353 C1359 1.429 . S
C1354 C1346 1.574 . S
C1354 H1349 0.949 . S
C1354 C1360 1.368 . S
C1355 C1339 1.349 . S
C1355 H1347 0.950 . S
C1355 C1353 1.327 . S
C1356 C1344 1.349 . S
C1356 H1350 0.950 . S
C1356 C1357 1.327 . S
C1357 H1351 0.950 . S
C1357 C1356 1.327 . S
C1357 C1361 1.429 . S
C1358 C1341 1.574 . S
C1358 H1352 0.949 . S
C1358 C1362 1.368 . S
C1359 C1340 1.429 . S
C1359 C1353 1.429 . S
C1359 C1360 1.523 . S
C1360 C1341 1.368 . S
C1360 C1354 1.368 . S
C1360 C1359 1.523 . S
C1361 C1345 1.429 . S
C1361 C1357 1.429 . S
C1361 C1362 1.523 . S
C1362 C1346 1.368 . S
C1362 C1358 1.368 . S
C1362 C1361 1.523 . S
H1363 C1338 0.950 . S
H1364 C1340 0.950 . S
H1365 C1341 0.949 . S
H1366 C1343 0.950 . S
H1367 C1345 0.950 . S
C1368 C1369 1.349 . S
C1368 C1370 1.327 . S
C1368 H1393 0.950 . S
C1369 C1368 1.349 . S
C1369 C1385 1.349 . S
C1370 C1368 1.327 . S
C1370 C1389 1.429 . S
C1370 H1394 0.950 . S
C1371 C1388 1.574 . S
C1371 C1390 1.368 . S
C1371 H1395 0.949 . S
H1372 C1376 0.949 . S
C1373 C1374 1.349 . S
C1373 C1375 1.327 . S
C1373 H1396 0.950 . S
C1374 C1373 1.349 . S
C1374 C1386 1.349 . S
C1375 C1373 1.327 . S
C1375 C1391 1.429 . S
C1375 H1397 0.950 . S
C1376 H1372 0.949 . S
C1376 C1384 1.574 . S
C1376 C1392 1.368 . S
H1377 C1385 0.950 . S
H1378 C1383 0.950 . S
H1379 C1384 0.949 . S
H1380 C1386 0.950 . S
H1381 C1387 0.950 . S
H1382 C1388 0.949 . S
C1383 H1378 0.950 . S
C1383 C1385 1.327 . S
C1383 C1389 1.429 . S
C1384 C1376 1.574 . S
C1384 H1379 0.949 . S
C1384 C1390 1.368 . S
C1385 C1369 1.349 . S
C1385 H1377 0.950 . S
C1385 C1383 1.327 . S
C1386 C1374 1.349 . S
C1386 H1380 0.950 . S
C1386 C1387 1.327 . S
C1387 H1381 0.950 . S
C1387 C1386 1.327 . S
C1387 C1391 1.429 . S
C1388 C1371 1.574 . S
C1388 H1382 0.949 . S
C1388 C1392 1.368 . S
C1389 C1370 1.429 . S
C1389 C1383 1.429 . S
C1389 C1390 1.523 . S
C1390 C1371 1.368 . S
C1390 C1384 1.368 . S
C1390 C1389 1.523 . S
C1391 C1375 1.429 . S
C1391 C1387 1.429 . S
C1391 C1392 1.523 . S
C1392 C1376 1.368 . S
C1392 C1388 1.368 . S
C1392 C1391 1.523 . S
H1393 C1368 0.950 . S
H1394 C1370 0.950 . S
H1395 C1371 0.949 . S
H1396 C1373 0.950 . S
H1397 C1375 0.950 . S
C1398 C1399 1.349 . S
C1398 C1400 1.327 . S
C1398 H1423 0.950 . S
C1399 C1398 1.349 . S
C1399 C1415 1.349 . S
C1400 C1398 1.327 . S
C1400 C1419 1.429 . S
C1400 H1424 0.950 . S
C1401 C1418 1.574 . S
C1401 C1420 1.368 . S
C1401 H1425 0.949 . S
H1402 C1406 0.949 . S
C1403 C1404 1.349 . S
C1403 C1405 1.327 . S
C1403 H1426 0.950 . S
C1404 C1403 1.349 . S
C1404 C1416 1.349 . S
C1405 C1403 1.327 . S
C1405 C1421 1.429 . S
C1405 H1427 0.950 . S
C1406 H1402 0.949 . S
C1406 C1414 1.574 . S
C1406 C1422 1.368 . S
H1407 C1415 0.950 . S
H1408 C1413 0.950 . S
H1409 C1414 0.949 . S
H1410 C1416 0.950 . S
H1411 C1417 0.950 . S
H1412 C1418 0.949 . S
C1413 H1408 0.950 . S
C1413 C1415 1.327 . S
C1413 C1419 1.429 . S
C1414 C1406 1.574 . S
C1414 H1409 0.949 . S
C1414 C1420 1.368 . S
C1415 C1399 1.349 . S
C1415 H1407 0.950 . S
C1415 C1413 1.327 . S
C1416 C1404 1.349 . S
C1416 H1410 0.950 . S
C1416 C1417 1.327 . S
C1417 H1411 0.950 . S
C1417 C1416 1.327 . S
C1417 C1421 1.429 . S
C1418 C1401 1.574 . S
C1418 H1412 0.949 . S
C1418 C1422 1.368 . S
C1419 C1400 1.429 . S
C1419 C1413 1.429 . S
C1419 C1420 1.523 . S
C1420 C1401 1.368 . S
C1420 C1414 1.368 . S
C1420 C1419 1.523 . S
C1421 C1405 1.429 . S
C1421 C1417 1.429 . S
C1421 C1422 1.523 . S
C1422 C1406 1.368 . S
C1422 C1418 1.368 . S
C1422 C1421 1.523 . S
H1423 C1398 0.950 . S
H1424 C1400 0.950 . S
H1425 C1401 0.949 . S
H1426 C1403 0.950 . S
H1427 C1405 0.950 . S
C1428 C1429 1.349 . S
C1428 C1430 1.327 . S
C1428 H1453 0.950 . S
C1429 C1428 1.349 . S
C1429 C1445 1.349 . S
C1430 C1428 1.327 . S
C1430 C1449 1.429 . S
C1430 H1454 0.950 . S
C1431 C1448 1.574 . S
C1431 C1450 1.368 . S
C1431 H1455 0.949 . S
H1432 C1436 0.949 . S
C1433 C1434 1.349 . S
C1433 C1435 1.327 . S
C1433 H1456 0.950 . S
C1434 C1433 1.349 . S
C1434 C1446 1.349 . S
C1435 C1433 1.327 . S
C1435 C1451 1.429 . S
C1435 H1457 0.950 . S
C1436 H1432 0.949 . S
C1436 C1444 1.574 . S
C1436 C1452 1.368 . S
H1437 C1445 0.950 . S
H1438 C1443 0.950 . S
H1439 C1444 0.949 . S
H1440 C1446 0.950 . S
H1441 C1447 0.950 . S
H1442 C1448 0.949 . S
C1443 H1438 0.950 . S
C1443 C1445 1.327 . S
C1443 C1449 1.429 . S
C1444 C1436 1.574 . S
C1444 H1439 0.949 . S
C1444 C1450 1.368 . S
C1445 C1429 1.349 . S
C1445 H1437 0.950 . S
C1445 C1443 1.327 . S
C1446 C1434 1.349 . S
C1446 H1440 0.950 . S
C1446 C1447 1.327 . S
C1447 H1441 0.950 . S
C1447 C1446 1.327 . S
C1447 C1451 1.429 . S
C1448 C1431 1.574 . S
C1448 H1442 0.949 . S
C1448 C1452 1.368 . S
C1449 C1430 1.429 . S
C1449 C1443 1.429 . S
C1449 C1450 1.523 . S
C1450 C1431 1.368 . S
C1450 C1444 1.368 . S
C1450 C1449 1.523 . S
C1451 C1435 1.429 . S
C1451 C1447 1.429 . S
C1451 C1452 1.523 . S
C1452 C1436 1.368 . S
C1452 C1448 1.368 . S
C1452 C1451 1.523 . S
H1453 C1428 0.950 . S
H1454 C1430 0.950 . S
H1455 C1431 0.949 . S
H1456 C1433 0.950 . S
H1457 C1435 0.950 . S
C1458 C1459 1.349 . S
C1458 C1460 1.327 . S
C1458 H1483 0.950 . S
C1459 C1458 1.349 . S
C1459 C1475 1.349 . S
C1460 C1458 1.327 . S
C1460 C1479 1.429 . S
C1460 H1484 0.950 . S
C1461 C1478 1.574 . S
C1461 C1480 1.368 . S
C1461 H1485 0.949 . S
H1462 C1466 0.949 . S
C1463 C1464 1.349 . S
C1463 C1465 1.327 . S
C1463 H1486 0.950 . S
C1464 C1463 1.349 . S
C1464 C1476 1.349 . S
C1465 C1463 1.327 . S
C1465 C1481 1.429 . S
C1465 H1487 0.950 . S
C1466 H1462 0.949 . S
C1466 C1474 1.574 . S
C1466 C1482 1.368 . S
H1467 C1475 0.950 . S
H1468 C1473 0.950 . S
H1469 C1474 0.949 . S
H1470 C1476 0.950 . S
H1471 C1477 0.950 . S
H1472 C1478 0.949 . S
C1473 H1468 0.950 . S
C1473 C1475 1.327 . S
C1473 C1479 1.429 . S
C1474 C1466 1.574 . S
C1474 H1469 0.949 . S
C1474 C1480 1.368 . S
C1475 C1459 1.349 . S
C1475 H1467 0.950 . S
C1475 C1473 1.327 . S
C1476 C1464 1.349 . S
C1476 H1470 0.950 . S
C1476 C1477 1.327 . S
C1477 H1471 0.950 . S
C1477 C1476 1.327 . S
C1477 C1481 1.429 . S
C1478 C1461 1.574 . S
C1478 H1472 0.949 . S
C1478 C1482 1.368 . S
C1479 C1460 1.429 . S
C1479 C1473 1.429 . S
C1479 C1480 1.523 . S
C1480 C1461 1.368 . S
C1480 C1474 1.368 . S
C1480 C1479 1.523 . S
C1481 C1465 1.429 . S
C1481 C1477 1.429 . S
C1481 C1482 1.523 . S
C1482 C1466 1.368 . S
C1482 C1478 1.368 . S
C1482 C1481 1.523 . S
H1483 C1458 0.950 . S
H1484 C1460 0.950 . S
H1485 C1461 0.949 . S
H1486 C1463 0.950 . S
H1487 C1465 0.950 . S
C1488 C1489 1.349 . S
C1488 C1490 1.327 . S
C1488 H1513 0.950 . S
C1489 C1488 1.349 . S
C1489 C1505 1.349 . S
C1490 C1488 1.327 . S
C1490 C1509 1.429 . S
C1490 H1514 0.950 . S
C1491 C1508 1.574 . S
C1491 C1510 1.368 . S
C1491 H1515 0.949 . S
H1492 C1496 0.949 . S
C1493 C1494 1.349 . S
C1493 C1495 1.327 . S
C1493 H1516 0.950 . S
C1494 C1493 1.349 . S
C1494 C1506 1.349 . S
C1495 C1493 1.327 . S
C1495 C1511 1.429 . S
C1495 H1517 0.950 . S
C1496 H1492 0.949 . S
C1496 C1504 1.574 . S
C1496 C1512 1.368 . S
H1497 C1505 0.950 . S
H1498 C1503 0.950 . S
H1499 C1504 0.949 . S
H1500 C1506 0.950 . S
H1501 C1507 0.950 . S
H1502 C1508 0.949 . S
C1503 H1498 0.950 . S
C1503 C1505 1.327 . S
C1503 C1509 1.429 . S
C1504 C1496 1.574 . S
C1504 H1499 0.949 . S
C1504 C1510 1.368 . S
C1505 C1489 1.349 . S
C1505 H1497 0.950 . S
C1505 C1503 1.327 . S
C1506 C1494 1.349 . S
C1506 H1500 0.950 . S
C1506 C1507 1.327 . S
C1507 H1501 0.950 . S
C1507 C1506 1.327 . S
C1507 C1511 1.429 . S
C1508 C1491 1.574 . S
C1508 H1502 0.949 . S
C1508 C1512 1.368 . S
C1509 C1490 1.429 . S
C1509 C1503 1.429 . S
C1509 C1510 1.523 . S
C1510 C1491 1.368 . S
C1510 C1504 1.368 . S
C1510 C1509 1.523 . S
C1511 C1495 1.429 . S
C1511 C1507 1.429 . S
C1511 C1512 1.523 . S
C1512 C1496 1.368 . S
C1512 C1508 1.368 . S
C1512 C1511 1.523 . S
H1513 C1488 0.950 . S
H1514 C1490 0.950 . S
H1515 C1491 0.949 . S
H1516 C1493 0.950 . S
H1517 C1495 0.950 . S
C1518 C1519 1.349 . S
C1518 C1520 1.327 . S
C1518 H1543 0.950 . S
C1519 C1518 1.349 . S
C1519 C1535 1.349 . S
C1520 C1518 1.327 . S
C1520 C1539 1.429 . S
C1520 H1544 0.950 . S
C1521 C1538 1.574 . S
C1521 C1540 1.368 . S
C1521 H1545 0.949 . S
H1522 C1526 0.949 . S
C1523 C1524 1.349 . S
C1523 C1525 1.327 . S
C1523 H1546 0.950 . S
C1524 C1523 1.349 . S
C1524 C1536 1.349 . S
C1525 C1523 1.327 . S
C1525 C1541 1.429 . S
C1525 H1547 0.950 . S
C1526 H1522 0.949 . S
C1526 C1534 1.574 . S
C1526 C1542 1.368 . S
H1527 C1535 0.950 . S
H1528 C1533 0.950 . S
H1529 C1534 0.949 . S
H1530 C1536 0.950 . S
H1531 C1537 0.950 . S
H1532 C1538 0.949 . S
C1533 H1528 0.950 . S
C1533 C1535 1.327 . S
C1533 C1539 1.429 . S
C1534 C1526 1.574 . S
C1534 H1529 0.949 . S
C1534 C1540 1.368 . S
C1535 C1519 1.349 . S
C1535 H1527 0.950 . S
C1535 C1533 1.327 . S
C1536 C1524 1.349 . S
C1536 H1530 0.950 . S
C1536 C1537 1.327 . S
C1537 H1531 0.950 . S
C1537 C1536 1.327 . S
C1537 C1541 1.429 . S
C1538 C1521 1.574 . S
C1538 H1532 0.949 . S
C1538 C1542 1.368 . S
C1539 C1520 1.429 . S
C1539 C1533 1.429 . S
C1539 C1540 1.523 . S
C1540 C1521 1.368 . S
C1540 C1534 1.368 . S
C1540 C1539 1.523 . S
C1541 C1525 1.429 . S
C1541 C1537 1.429 . S
C1541 C1542 1.523 . S
C1542 C1526 1.368 . S
C1542 C1538 1.368 . S
C1542 C1541 1.523 . S
H1543 C1518 0.950 . S
H1544 C1520 0.950 . S
H1545 C1521 0.949 . S
H1546 C1523 0.950 . S
H1547 C1525 0.950 . S
C1548 C1549 1.349 . S
C1548 C1550 1.327 . S
C1548 H1573 0.950 . S
C1549 C1548 1.349 . S
C1549 C1565 1.349 . S
C1550 C1548 1.327 . S
C1550 C1569 1.429 . S
C1550 H1574 0.950 . S
C1551 C1568 1.574 . S
C1551 C1570 1.368 . S
C1551 H1575 0.949 . S
H1552 C1556 0.949 . S
C1553 C1554 1.349 . S
C1553 C1555 1.327 . S
C1553 H1576 0.950 . S
C1554 C1553 1.349 . S
C1554 C1566 1.349 . S
C1555 C1553 1.327 . S
C1555 C1571 1.429 . S
C1555 H1577 0.950 . S
C1556 H1552 0.949 . S
C1556 C1564 1.574 . S
C1556 C1572 1.368 . S
H1557 C1565 0.950 . S
H1558 C1563 0.950 . S
H1559 C1564 0.949 . S
H1560 C1566 0.950 . S
H1561 C1567 0.950 . S
H1562 C1568 0.949 . S
C1563 H1558 0.950 . S
C1563 C1565 1.327 . S
C1563 C1569 1.429 . S
C1564 C1556 1.574 . S
C1564 H1559 0.949 . S
C1564 C1570 1.368 . S
C1565 C1549 1.349 . S
C1565 H1557 0.950 . S
C1565 C1563 1.327 . S
C1566 C1554 1.349 . S
C1566 H1560 0.950 . S
C1566 C1567 1.327 . S
C1567 H1561 0.950 . S
C1567 C1566 1.327 . S
C1567 C1571 1.429 . S
C1568 C1551 1.574 . S
C1568 H1562 0.949 . S
C1568 C1572 1.368 . S
C1569 C1550 1.429 . S
C1569 C1563 1.429 . S
C1569 C1570 1.523 . S
C1570 C1551 1.368 . S
C1570 C1564 1.368 . S
C1570 C1569 1.523 . S
C1571 C1555 1.429 . S
C1571 C1567 1.429 . S
C1571 C1572 1.523 . S
C1572 C1556 1.368 . S
C1572 C1568 1.368 . S
C1572 C1571 1.523 . S
H1573 C1548 0.950 . S
H1574 C1550 0.950 . S
H1575 C1551 0.949 . S
H1576 C1553 0.950 . S
H1577 C1555 0.950 . S
C1578 C1579 1.349 . S
C1578 C1580 1.327 . S
C1578 H1603 0.950 . S
C1579 C1578 1.349 . S
C1579 C1595 1.349 . S
C1580 C1578 1.327 . S
C1580 C1599 1.429 . S
C1580 H1604 0.950 . S
C1581 C1598 1.574 . S
C1581 C1600 1.368 . S
C1581 H1605 0.949 . S
H1582 C1586 0.949 . S
C1583 C1584 1.349 . S
C1583 C1585 1.327 . S
C1583 H1606 0.950 . S
C1584 C1583 1.349 . S
C1584 C1596 1.349 . S
C1585 C1583 1.327 . S
C1585 C1601 1.429 . S
C1585 H1607 0.950 . S
C1586 H1582 0.949 . S
C1586 C1594 1.574 . S
C1586 C1602 1.368 . S
H1587 C1595 0.950 . S
H1588 C1593 0.950 . S
H1589 C1594 0.949 . S
H1590 C1596 0.950 . S
H1591 C1597 0.950 . S
H1592 C1598 0.949 . S
C1593 H1588 0.950 . S
C1593 C1595 1.327 . S
C1593 C1599 1.429 . S
C1594 C1586 1.574 . S
C1594 H1589 0.949 . S
C1594 C1600 1.368 . S
C1595 C1579 1.349 . S
C1595 H1587 0.950 . S
C1595 C1593 1.327 . S
C1596 C1584 1.349 . S
C1596 H1590 0.950 . S
C1596 C1597 1.327 . S
C1597 H1591 0.950 . S
C1597 C1596 1.327 . S
C1597 C1601 1.429 . S
C1598 C1581 1.574 . S
C1598 H1592 0.949 . S
C1598 C1602 1.368 . S
C1599 C1580 1.429 . S
C1599 C1593 1.429 . S
C1599 C1600 1.523 . S
C1600 C1581 1.368 . S
C1600 C1594 1.368 . S
C1600 C1599 1.523 . S
C1601 C1585 1.429 . S
C1601 C1597 1.429 . S
C1601 C1602 1.523 . S
C1602 C1586 1.368 . S
C1602 C1598 1.368 . S
C1602 C1601 1.523 . S
H1603 C1578 0.950 . S
H1604 C1580 0.950 . S
H1605 C1581 0.949 . S
H1606 C1583 0.950 . S
H1607 C1585 0.950 . S
C1608 C1609 1.349 . S
C1608 C1610 1.327 . S
C1608 H1633 0.950 . S
C1609 C1608 1.349 . S
C1609 C1625 1.349 . S
C1610 C1608 1.327 . S
C1610 C1629 1.429 . S
C1610 H1634 0.950 . S
C1611 C1628 1.574 . S
C1611 C1630 1.368 . S
C1611 H1635 0.949 . S
H1612 C1616 0.949 . S
C1613 C1614 1.349 . S
C1613 C1615 1.327 . S
C1613 H1636 0.950 . S
C1614 C1613 1.349 . S
C1614 C1626 1.349 . S
C1615 C1613 1.327 . S
C1615 C1631 1.429 . S
C1615 H1637 0.950 . S
C1616 H1612 0.949 . S
C1616 C1624 1.574 . S
C1616 C1632 1.368 . S
H1617 C1625 0.950 . S
H1618 C1623 0.950 . S
H1619 C1624 0.949 . S
H1620 C1626 0.950 . S
H1621 C1627 0.950 . S
H1622 C1628 0.949 . S
C1623 H1618 0.950 . S
C1623 C1625 1.327 . S
C1623 C1629 1.429 . S
C1624 C1616 1.574 . S
C1624 H1619 0.949 . S
C1624 C1630 1.368 . S
C1625 C1609 1.349 . S
C1625 H1617 0.950 . S
C1625 C1623 1.327 . S
C1626 C1614 1.349 . S
C1626 H1620 0.950 . S
C1626 C1627 1.327 . S
C1627 H1621 0.950 . S
C1627 C1626 1.327 . S
C1627 C1631 1.429 . S
C1628 C1611 1.574 . S
C1628 H1622 0.949 . S
C1628 C1632 1.368 . S
C1629 C1610 1.429 . S
C1629 C1623 1.429 . S
C1629 C1630 1.523 . S
C1630 C1611 1.368 . S
C1630 C1624 1.368 . S
C1630 C1629 1.523 . S
C1631 C1615 1.429 . S
C1631 C1627 1.429 . S
C1631 C1632 1.523 . S
C1632 C1616 1.368 . S
C1632 C1628 1.368 . S
C1632 C1631 1.523 . S
H1633 C1608 0.950 . S
H1634 C1610 0.950 . S
H1635 C1611 0.949 . S
H1636 C1613 0.950 . S
H1637 C1615 0.950 . S
C1638 C1639 1.349 . S
C1638 C1640 1.327 . S
C1638 H1663 0.950 . S
C1639 C1638 1.349 . S
C1639 C1655 1.349 . S
C1640 C1638 1.327 . S
C1640 C1659 1.429 . S
C1640 H1664 0.950 . S
C1641 C1658 1.574 . S
C1641 C1660 1.368 . S
C1641 H1665 0.949 . S
H1642 C1646 0.949 . S
C1643 C1644 1.349 . S
C1643 C1645 1.327 . S
C1643 H1666 0.950 . S
C1644 C1643 1.349 . S
C1644 C1656 1.349 . S
C1645 C1643 1.327 . S
C1645 C1661 1.429 . S
C1645 H1667 0.950 . S
C1646 H1642 0.949 . S
C1646 C1654 1.574 . S
C1646 C1662 1.368 . S
H1647 C1655 0.950 . S
H1648 C1653 0.950 . S
H1649 C1654 0.949 . S
H1650 C1656 0.950 . S
H1651 C1657 0.950 . S
H1652 C1658 0.949 . S
C1653 H1648 0.950 . S
C1653 C1655 1.327 . S
C1653 C1659 1.429 . S
C1654 C1646 1.574 . S
C1654 H1649 0.949 . S
C1654 C1660 1.368 . S
C1655 C1639 1.349 . S
C1655 H1647 0.950 . S
C1655 C1653 1.327 . S
C1656 C1644 1.349 . S
C1656 H1650 0.950 . S
C1656 C1657 1.327 . S
C1657 H1651 0.950 . S
C1657 C1656 1.327 . S
C1657 C1661 1.429 . S
C1658 C1641 1.574 . S
C1658 H1652 0.949 . S
C1658 C1662 1.368 . S
C1659 C1640 1.429 . S
C1659 C1653 1.429 . S
C1659 C1660 1.523 . S
C1660 C1641 1.368 . S
C1660 C1654 1.368 . S
C1660 C1659 1.523 . S
C1661 C1645 1.429 . S
C1661 C1657 1.429 . S
C1661 C1662 1.523 . S
C1662 C1646 1.368 . S
C1662 C1658 1.368 . S
C1662 C1661 1.523 . S
H1663 C1638 0.950 . S
H1664 C1640 0.950 . S
H1665 C1641 0.949 . S
H1666 C1643 0.950 . S
H1667 C1645 0.950 . S
C1668 C1669 1.349 . S
C1668 C1670 1.327 . S
C1668 H1693 0.950 . S
C1669 C1668 1.349 . S
C1669 C1685 1.349 . S
C1670 C1668 1.327 . S
C1670 C1689 1.429 . S
C1670 H1694 0.950 . S
C1671 C1688 1.574 . S
C1671 C1690 1.368 . S
C1671 H1695 0.949 . S
H1672 C1676 0.949 . S
C1673 C1674 1.349 . S
C1673 C1675 1.327 . S
C1673 H1696 0.950 . S
C1674 C1673 1.349 . S
C1674 C1686 1.349 . S
C1675 C1673 1.327 . S
C1675 C1691 1.429 . S
C1675 H1697 0.950 . S
C1676 H1672 0.949 . S
C1676 C1684 1.574 . S
C1676 C1692 1.368 . S
H1677 C1685 0.950 . S
H1678 C1683 0.950 . S
H1679 C1684 0.949 . S
H1680 C1686 0.950 . S
H1681 C1687 0.950 . S
H1682 C1688 0.949 . S
C1683 H1678 0.950 . S
C1683 C1685 1.327 . S
C1683 C1689 1.429 . S
C1684 C1676 1.574 . S
C1684 H1679 0.949 . S
C1684 C1690 1.368 . S
C1685 C1669 1.349 . S
C1685 H1677 0.950 . S
C1685 C1683 1.327 . S
C1686 C1674 1.349 . S
C1686 H1680 0.950 . S
C1686 C1687 1.327 . S
C1687 H1681 0.950 . S
C1687 C1686 1.327 . S
C1687 C1691 1.429 . S
C1688 C1671 1.574 . S
C1688 H1682 0.949 . S
C1688 C1692 1.368 . S
C1689 C1670 1.429 . S
C1689 C1683 1.429 . S
C1689 C1690 1.523 . S
C1690 C1671 1.368 . S
C1690 C1684 1.368 . S
C1690 C1689 1.523 . S
C1691 C1675 1.429 . S
C1691 C1687 1.429 . S
C1691 C1692 1.523 . S
C1692 C1676 1.368 . S
C1692 C1688 1.368 . S
C1692 C1691 1.523 . S
H1693 C1668 0.950 . S
H1694 C1670 0.950 . S
H1695 C1671 0.949 . S
H1696 C1673 0.950 . S
H1697 C1675 0.950 . S
C1698 C1699 1.349 . S
C1698 C1700 1.327 . S
C1698 H1723 0.950 . S
C1699 C1698 1.349 . S
C1699 C1715 1.349 . S
C1700 C1698 1.327 . S
C1700 C1719 1.429 . S
C1700 H1724 0.950 . S
C1701 C1718 1.574 . S
C1701 C1720 1.368 . S
C1701 H1725 0.949 . S
H1702 C1706 0.949 . S
C1703 C1704 1.349 . S
C1703 C1705 1.327 . S
C1703 H1726 0.950 . S
C1704 C1703 1.349 . S
C1704 C1716 1.349 . S
C1705 C1703 1.327 . S
C1705 C1721 1.429 . S
C1705 H1727 0.950 . S
C1706 H1702 0.949 . S
C1706 C1714 1.574 . S
C1706 C1722 1.368 . S
H1707 C1715 0.950 . S
H1708 C1713 0.950 . S
H1709 C1714 0.949 . S
H1710 C1716 0.950 . S
H1711 C1717 0.950 . S
H1712 C1718 0.949 . S
C1713 H1708 0.950 . S
C1713 C1715 1.327 . S
C1713 C1719 1.429 . S
C1714 C1706 1.574 . S
C1714 H1709 0.949 . S
C1714 C1720 1.368 . S
C1715 C1699 1.349 . S
C1715 H1707 0.950 . S
C1715 C1713 1.327 . S
C1716 C1704 1.349 . S
C1716 H1710 0.950 . S
C1716 C1717 1.327 . S
C1717 H1711 0.950 . S
C1717 C1716 1.327 . S
C1717 C1721 1.429 . S
C1718 C1701 1.574 . S
C1718 H1712 0.949 . S
C1718 C1722 1.368 . S
C1719 C1700 1.429 . S
C1719 C1713 1.429 . S
C1719 C1720 1.523 . S
C1720 C1701 1.368 . S
C1720 C1714 1.368 . S
C1720 C1719 1.523 . S
C1721 C1705 1.429 . S
C1721 C1717 1.429 . S
C1721 C1722 1.523 . S
C1722 C1706 1.368 . S
C1722 C1718 1.368 . S
C1722 C1721 1.523 . S
H1723 C1698 0.950 . S
H1724 C1700 0.950 . S
H1725 C1701 0.949 . S
H1726 C1703 0.950 . S
H1727 C1705 0.950 . S
C1728 C1729 1.349 . S
C1728 C1730 1.327 . S
C1728 H1753 0.950 . S
C1729 C1728 1.349 . S
C1729 C1745 1.349 . S
C1730 C1728 1.327 . S
C1730 C1749 1.429 . S
C1730 H1754 0.950 . S
C1731 C1748 1.574 . S
C1731 C1750 1.368 . S
C1731 H1755 0.949 . S
H1732 C1736 0.949 . S
C1733 C1734 1.349 . S
C1733 C1735 1.327 . S
C1733 H1756 0.950 . S
C1734 C1733 1.349 . S
C1734 C1746 1.349 . S
C1735 C1733 1.327 . S
C1735 C1751 1.429 . S
C1735 H1757 0.950 . S
C1736 H1732 0.949 . S
C1736 C1744 1.574 . S
C1736 C1752 1.368 . S
H1737 C1745 0.950 . S
H1738 C1743 0.950 . S
H1739 C1744 0.949 . S
H1740 C1746 0.950 . S
H1741 C1747 0.950 . S
H1742 C1748 0.949 . S
C1743 H1738 0.950 . S
C1743 C1745 1.327 . S
C1743 C1749 1.429 . S
C1744 C1736 1.574 . S
C1744 H1739 0.949 . S
C1744 C1750 1.368 . S
C1745 C1729 1.349 . S
C1745 H1737 0.950 . S
C1745 C1743 1.327 . S
C1746 C1734 1.349 . S
C1746 H1740 0.950 . S
C1746 C1747 1.327 . S
C1747 H1741 0.950 . S
C1747 C1746 1.327 . S
C1747 C1751 1.429 . S
C1748 C1731 1.574 . S
C1748 H1742 0.949 . S
C1748 C1752 1.368 . S
C1749 C1730 1.429 . S
C1749 C1743 1.429 . S
C1749 C1750 1.523 . S
C1750 C1731 1.368 . S
C1750 C1744 1.368 . S
C1750 C1749 1.523 . S
C1751 C1735 1.429 . S
C1751 C1747 1.429 . S
C1751 C1752 1.523 . S
C1752 C1736 1.368 . S
C1752 C1748 1.368 . S
C1752 C1751 1.523 . S
H1753 C1728 0.950 . S
H1754 C1730 0.950 . S
H1755 C1731 0.949 . S
H1756 C1733 0.950 . S
H1757 C1735 0.950 . S
C1758 C1759 1.349 . S
C1758 C1760 1.327 . S
C1758 H1783 0.950 . S
C1759 C1758 1.349 . S
C1759 C1775 1.349 . S
C1760 C1758 1.327 . S
C1760 C1779 1.429 . S
C1760 H1784 0.950 . S
C1761 C1778 1.574 . S
C1761 C1780 1.368 . S
C1761 H1785 0.949 . S
H1762 C1766 0.949 . S
C1763 C1764 1.349 . S
C1763 C1765 1.327 . S
C1763 H1786 0.950 . S
C1764 C1763 1.349 . S
C1764 C1776 1.349 . S
C1765 C1763 1.327 . S
C1765 C1781 1.429 . S
C1765 H1787 0.950 . S
C1766 H1762 0.949 . S
C1766 C1774 1.574 . S
C1766 C1782 1.368 . S
H1767 C1775 0.950 . S
H1768 C1773 0.950 . S
H1769 C1774 0.949 . S
H1770 C1776 0.950 . S
H1771 C1777 0.950 . S
H1772 C1778 0.949 . S
C1773 H1768 0.950 . S
C1773 C1775 1.327 . S
C1773 C1779 1.429 . S
C1774 C1766 1.574 . S
C1774 H1769 0.949 . S
C1774 C1780 1.368 . S
C1775 C1759 1.349 . S
C1775 H1767 0.950 . S
C1775 C1773 1.327 . S
C1776 C1764 1.349 . S
C1776 H1770 0.950 . S
C1776 C1777 1.327 . S
C1777 H1771 0.950 . S
C1777 C1776 1.327 . S
C1777 C1781 1.429 . S
C1778 C1761 1.574 . S
C1778 H1772 0.949 . S
C1778 C1782 1.368 . S
C1779 C1760 1.429 . S
C1779 C1773 1.429 . S
C1779 C1780 1.523 . S
C1780 C1761 1.368 . S
C1780 C1774 1.368 . S
C1780 C1779 1.523 . S
C1781 C1765 1.429 . S
C1781 C1777 1.429 . S
C1781 C1782 1.523 . S
C1782 C1766 1.368 . S
C1782 C1778 1.368 . S
C1782 C1781 1.523 . S
H1783 C1758 0.950 . S
H1784 C1760 0.950 . S
H1785 C1761 0.949 . S
H1786 C1763 0.950 . S
H1787 C1765 0.950 . S
C1788 C1789 1.349 . S
C1788 C1790 1.327 . S
C1788 H1813 0.950 . S
C1789 C1788 1.349 . S
C1789 C1805 1.349 . S
C1790 C1788 1.327 . S
C1790 C1809 1.429 . S
C1790 H1814 0.950 . S
C1791 C1808 1.574 . S
C1791 C1810 1.368 . S
C1791 H1815 0.949 . S
H1792 C1796 0.949 . S
C1793 C1794 1.349 . S
C1793 C1795 1.327 . S
C1793 H1816 0.950 . S
C1794 C1793 1.349 . S
C1794 C1806 1.349 . S
C1795 C1793 1.327 . S
C1795 C1811 1.429 . S
C1795 H1817 0.950 . S
C1796 H1792 0.949 . S
C1796 C1804 1.574 . S
C1796 C1812 1.368 . S
H1797 C1805 0.950 . S
H1798 C1803 0.950 . S
H1799 C1804 0.949 . S
H1800 C1806 0.950 . S
H1801 C1807 0.950 . S
H1802 C1808 0.949 . S
C1803 H1798 0.950 . S
C1803 C1805 1.327 . S
C1803 C1809 1.429 . S
C1804 C1796 1.574 . S
C1804 H1799 0.949 . S
C1804 C1810 1.368 . S
C1805 C1789 1.349 . S
C1805 H1797 0.950 . S
C1805 C1803 1.327 . S
C1806 C1794 1.349 . S
C1806 H1800 0.950 . S
C1806 C1807 1.327 . S
C1807 H1801 0.950 . S
C1807 C1806 1.327 . S
C1807 C1811 1.429 . S
C1808 C1791 1.574 . S
C1808 H1802 0.949 . S
C1808 C1812 1.368 . S
C1809 C1790 1.429 . S
C1809 C1803 1.429 . S
C1809 C1810 1.523 . S
C1810 C1791 1.368 . S
C1810 C1804 1.368 . S
C1810 C1809 1.523 . S
C1811 C1795 1.429 . S
C1811 C1807 1.429 . S
C1811 C1812 1.523 . S
C1812 C1796 1.368 . S
C1812 C1808 1.368 . S
C1812 C1811 1.523 . S
H1813 C1788 0.950 . S
H1814 C1790 0.950 . S
H1815 C1791 0.949 . S
H1816 C1793 0.950 . S
H1817 C1795 0.950 . S
C1818 C1819 1.349 . S
C1818 C1820 1.327 . S
C1818 H1843 0.950 . S
C1819 C1818 1.349 . S
C1819 C1835 1.349 . S
C1820 C1818 1.327 . S
C1820 C1839 1.429 . S
C1820 H1844 0.950 . S
C1821 C1838 1.574 . S
C1821 C1840 1.368 . S
C1821 H1845 0.949 . S
H1822 C1826 0.949 . S
C1823 C1824 1.349 . S
C1823 C1825 1.327 . S
C1823 H1846 0.950 . S
C1824 C1823 1.349 . S
C1824 C1836 1.349 . S
C1825 C1823 1.327 . S
C1825 C1841 1.429 . S
C1825 H1847 0.950 . S
C1826 H1822 0.949 . S
C1826 C1834 1.574 . S
C1826 C1842 1.368 . S
H1827 C1835 0.950 . S
H1828 C1833 0.950 . S
H1829 C1834 0.949 . S
H1830 C1836 0.950 . S
H1831 C1837 0.950 . S
H1832 C1838 0.949 . S
C1833 H1828 0.950 . S
C1833 C1835 1.327 . S
C1833 C1839 1.429 . S
C1834 C1826 1.574 . S
C1834 H1829 0.949 . S
C1834 C1840 1.368 . S
C1835 C1819 1.349 . S
C1835 H1827 0.950 . S
C1835 C1833 1.327 . S
C1836 C1824 1.349 . S
C1836 H1830 0.950 . S
C1836 C1837 1.327 . S
C1837 H1831 0.950 . S
C1837 C1836 1.327 . S
C1837 C1841 1.429 . S
C1838 C1821 1.574 . S
C1838 H1832 0.949 . S
C1838 C1842 1.368 . S
C1839 C1820 1.429 . S
C1839 C1833 1.429 . S
C1839 C1840 1.523 . S
C1840 C1821 1.368 . S
C1840 C1834 1.368 . S
C1840 C1839 1.523 . S
C1841 C1825 1.429 . S
C1841 C1837 1.429 . S
C1841 C1842 1.523 . S
C1842 C1826 1.368 . S
C1842 C1838 1.368 . S
C1842 C1841 1.523 . S
H1843 C1818 0.950 . S
H1844 C1820 0.950 . S
H1845 C1821 0.949 . S
H1846 C1823 0.950 . S
H1847 C1825 0.950 . S
C1848 C1849 1.349 . S
C1848 C1850 1.327 . S
C1848 H1873 0.950 . S
C1849 C1848 1.349 . S
C1849 C1865 1.349 . S
C1850 C1848 1.327 . S
C1850 C1869 1.429 . S
C1850 H1874 0.950 . S
C1851 C1868 1.574 . S
C1851 C1870 1.368 . S
C1851 H1875 0.949 . S
H1852 C1856 0.949 . S
C1853 C1854 1.349 . S
C1853 C1855 1.327 . S
C1853 H1876 0.950 . S
C1854 C1853 1.349 . S
C1854 C1866 1.349 . S
C1855 C1853 1.327 . S
C1855 C1871 1.429 . S
C1855 H1877 0.950 . S
C1856 H1852 0.949 . S
C1856 C1864 1.574 . S
C1856 C1872 1.368 . S
H1857 C1865 0.950 . S
H1858 C1863 0.950 . S
H1859 C1864 0.949 . S
H1860 C1866 0.950 . S
H1861 C1867 0.950 . S
H1862 C1868 0.949 . S
C1863 H1858 0.950 . S
C1863 C1865 1.327 . S
C1863 C1869 1.429 . S
C1864 C1856 1.574 . S
C1864 H1859 0.949 . S
C1864 C1870 1.368 . S
C1865 C1849 1.349 . S
C1865 H1857 0.950 . S
C1865 C1863 1.327 . S
C1866 C1854 1.349 . S
C1866 H1860 0.950 . S
C1866 C1867 1.327 . S
C1867 H1861 0.950 . S
C1867 C1866 1.327 . S
C1867 C1871 1.429 . S
C1868 C1851 1.574 . S
C1868 H1862 0.949 . S
C1868 C1872 1.368 . S
C1869 C1850 1.429 . S
C1869 C1863 1.429 . S
C1869 C1870 1.523 . S
C1870 C1851 1.368 . S
C1870 C1864 1.368 . S
C1870 C1869 1.523 . S
C1871 C1855 1.429 . S
C1871 C1867 1.429 . S
C1871 C1872 1.523 . S
C1872 C1856 1.368 . S
C1872 C1868 1.368 . S
C1872 C1871 1.523 . S
H1873 C1848 0.950 . S
H1874 C1850 0.950 . S
H1875 C1851 0.949 . S
H1876 C1853 0.950 . S
H1877 C1855 0.950 . S
C1878 C1879 1.349 . S
C1878 C1880 1.327 . S
C1878 H1903 0.950 . S
C1879 C1878 1.349 . S
C1879 C1895 1.349 . S
C1880 C1878 1.327 . S
C1880 C1899 1.429 . S
C1880 H1904 0.950 . S
C1881 C1898 1.574 . S
C1881 C1900 1.368 . S
C1881 H1905 0.949 . S
H1882 C1886 0.949 . S
C1883 C1884 1.349 . S
C1883 C1885 1.327 . S
C1883 H1906 0.950 . S
C1884 C1883 1.349 . S
C1884 C1896 1.349 . S
C1885 C1883 1.327 . S
C1885 C1901 1.429 . S
C1885 H1907 0.950 . S
C1886 H1882 0.949 . S
C1886 C1894 1.574 . S
C1886 C1902 1.368 . S
H1887 C1895 0.950 . S
H1888 C1893 0.950 . S
H1889 C1894 0.949 . S
H1890 C1896 0.950 . S
H1891 C1897 0.950 . S
H1892 C1898 0.949 . S
C1893 H1888 0.950 . S
C1893 C1895 1.327 . S
C1893 C1899 1.429 . S
C1894 C1886 1.574 . S
C1894 H1889 0.949 . S
C1894 C1900 1.368 . S
C1895 C1879 1.349 . S
C1895 H1887 0.950 . S
C1895 C1893 1.327 . S
C1896 C1884 1.349 . S
C1896 H1890 0.950 . S
C1896 C1897 1.327 . S
C1897 H1891 0.950 . S
C1897 C1896 1.327 . S
C1897 C1901 1.429 . S
C1898 C1881 1.574 . S
C1898 H1892 0.949 . S
C1898 C1902 1.368 . S
C1899 C1880 1.429 . S
C1899 C1893 1.429 . S
C1899 C1900 1.523 . S
C1900 C1881 1.368 . S
C1900 C1894 1.368 . S
C1900 C1899 1.523 . S
C1901 C1885 1.429 . S
C1901 C1897 1.429 . S
C1901 C1902 1.523 . S
C1902 C1886 1.368 . S
C1902 C1898 1.368 . S
C1902 C1901 1.523 . S
H1903 C1878 0.950 . S
H1904 C1880 0.950 . S
H1905 C1881 0.949 . S
H1906 C1883 0.950 . S
H1907 C1885 0.950 . S
C1908 C1909 1.349 . S
C1908 C1910 1.327 . S
C1908 H1933 0.950 . S
C1909 C1908 1.349 . S
C1909 C1925 1.349 . S
C1910 C1908 1.327 . S
C1910 C1929 1.429 . S
C1910 H1934 0.950 . S
C1911 C1928 1.574 1_455 S
C1911 C1930 1.368 . S
C1911 H1935 0.949 . S
H1912 C1916 0.949 . S
C1913 C1914 1.349 . S
C1913 C1915 1.327 . S
C1913 H1936 0.950 . S
C1914 C1913 1.349 . S
C1914 C1926 1.349 . S
C1915 C1913 1.327 . S
C1915 C1931 1.429 . S
C1915 H1937 0.950 . S
C1916 H1912 0.949 . S
C1916 C1924 1.574 1_655 S
C1916 C1932 1.368 . S
H1917 C1925 0.950 . S
H1918 C1923 0.950 . S
H1919 C1924 0.949 . S
H1920 C1926 0.950 . S
H1921 C1927 0.950 . S
H1922 C1928 0.949 . S
C1923 H1918 0.950 . S
C1923 C1925 1.327 . S
C1923 C1929 1.429 . S
C1924 C1916 1.574 1_455 S
C1924 H1919 0.949 . S
C1924 C1930 1.368 . S
C1925 C1909 1.349 . S
C1925 H1917 0.950 . S
C1925 C1923 1.327 . S
C1926 C1914 1.349 . S
C1926 H1920 0.950 . S
C1926 C1927 1.327 . S
C1927 H1921 0.950 . S
C1927 C1926 1.327 . S
C1927 C1931 1.429 . S
C1928 C1911 1.574 1_655 S
C1928 H1922 0.949 . S
C1928 C1932 1.368 . S
C1929 C1910 1.429 . S
C1929 C1923 1.429 . S
C1929 C1930 1.523 . S
C1930 C1911 1.368 . S
C1930 C1924 1.368 . S
C1930 C1929 1.523 . S
C1931 C1915 1.429 . S
C1931 C1927 1.429 . S
C1931 C1932 1.523 . S
C1932 C1916 1.368 . S
C1932 C1928 1.368 . S
C1932 C1931 1.523 . S
H1933 C1908 0.950 . S
H1934 C1910 0.950 . S
H1935 C1911 0.949 . S
H1936 C1913 0.950 . S
H1937 C1915 0.950 . S
C1938 C1939 1.349 . S
C1938 C1940 1.327 . S
C1938 H1963 0.950 . S
C1939 C1938 1.349 . S
C1939 C1955 1.349 . S
C1940 C1938 1.327 . S
C1940 C1959 1.429 . S
C1940 H1964 0.950 . S
C1941 C1958 1.574 . S
C1941 C1960 1.368 . S
C1941 H1965 0.949 . S
H1942 C1946 0.949 . S
C1943 C1944 1.349 . S
C1943 C1945 1.327 . S
C1943 H1966 0.950 . S
C1944 C1943 1.349 . S
C1944 C1956 1.349 . S
C1945 C1943 1.327 . S
C1945 C1961 1.429 . S
C1945 H1967 0.950 . S
C1946 H1942 0.949 . S
C1946 C1954 1.574 . S
C1946 C1962 1.368 . S
H1947 C1955 0.950 . S
H1948 C1953 0.950 . S
H1949 C1954 0.949 . S
H1950 C1956 0.950 . S
H1951 C1957 0.950 . S
H1952 C1958 0.949 . S
C1953 H1948 0.950 . S
C1953 C1955 1.327 . S
C1953 C1959 1.429 . S
C1954 C1946 1.574 . S
C1954 H1949 0.949 . S
C1954 C1960 1.368 . S
C1955 C1939 1.349 . S
C1955 H1947 0.950 . S
C1955 C1953 1.327 . S
C1956 C1944 1.349 . S
C1956 H1950 0.950 . S
C1956 C1957 1.327 . S
C1957 H1951 0.950 . S
C1957 C1956 1.327 . S
C1957 C1961 1.429 . S
C1958 C1941 1.574 . S
C1958 H1952 0.949 . S
C1958 C1962 1.368 . S
C1959 C1940 1.429 . S
C1959 C1953 1.429 . S
C1959 C1960 1.523 . S
C1960 C1941 1.368 . S
C1960 C1954 1.368 . S
C1960 C1959 1.523 . S
C1961 C1945 1.429 . S
C1961 C1957 1.429 . S
C1961 C1962 1.523 . S
C1962 C1946 1.368 . S
C1962 C1958 1.368 . S
C1962 C1961 1.523 . S
H1963 C1938 0.950 . S
H1964 C1940 0.950 . S
H1965 C1941 0.949 . S
H1966 C1943 0.950 . S
H1967 C1945 0.950 . S
C1968 C1969 1.349 . S
C1968 C1970 1.327 . S
C1968 H1993 0.950 . S
C1969 C1968 1.349 . S
C1969 C1985 1.349 . S
C1970 C1968 1.327 . S
C1970 C1989 1.429 . S
C1970 H1994 0.950 . S
C1971 C1988 1.574 1_545 S
C1971 C1990 1.368 . S
C1971 H1995 0.949 . S
H1972 C1976 0.949 . S
C1973 C1974 1.349 . S
C1973 C1975 1.327 . S
C1973 H1996 0.950 . S
C1974 C1973 1.349 . S
C1974 C1986 1.349 . S
C1975 C1973 1.327 . S
C1975 C1991 1.429 . S
C1975 H1997 0.950 . S
C1976 H1972 0.949 . S
C1976 C1984 1.574 1_565 S
C1976 C1992 1.368 . S
H1977 C1985 0.950 . S
H1978 C1983 0.950 . S
H1979 C1984 0.949 . S
H1980 C1986 0.950 . S
H1981 C1987 0.950 . S
H1982 C1988 0.949 . S
C1983 H1978 0.950 . S
C1983 C1985 1.327 . S
C1983 C1989 1.429 . S
C1984 C1976 1.574 1_545 S
C1984 H1979 0.949 . S
C1984 C1990 1.368 . S
C1985 C1969 1.349 . S
C1985 H1977 0.950 . S
C1985 C1983 1.327 . S
C1986 C1974 1.349 . S
C1986 H1980 0.950 . S
C1986 C1987 1.327 . S
C1987 H1981 0.950 . S
C1987 C1986 1.327 . S
C1987 C1991 1.429 . S
C1988 C1971 1.574 1_565 S
C1988 H1982 0.949 . S
C1988 C1992 1.368 . S
C1989 C1970 1.429 . S
C1989 C1983 1.429 . S
C1989 C1990 1.523 . S
C1990 C1971 1.368 . S
C1990 C1984 1.368 . S
C1990 C1989 1.523 . S
C1991 C1975 1.429 . S
C1991 C1987 1.429 . S
C1991 C1992 1.523 . S
C1992 C1976 1.368 . S
C1992 C1988 1.368 . S
C1992 C1991 1.523 . S
H1993 C1968 0.950 . S
H1994 C1970 0.950 . S
H1995 C1971 0.949 . S
H1996 C1973 0.950 . S
H1997 C1975 0.950 . S
C1998 C1999 1.349 . S
C1998 C2000 1.327 . S
C1998 H2023 0.950 . S
C1999 C1998 1.349 . S
C1999 C2015 1.349 . S
C2000 C1998 1.327 . S
C2000 C2019 1.429 . S
C2000 H2024 0.950 . S
C2001 C2018 1.574 1_545 S
C2001 C2020 1.368 . S
C2001 H2025 0.949 . S
H2002 C2006 0.949 . S
C2003 C2004 1.349 . S
C2003 C2005 1.327 . S
C2003 H2026 0.950 . S
C2004 C2003 1.349 . S
C2004 C2016 1.349 . S
C2005 C2003 1.327 . S
C2005 C2021 1.429 . S
C2005 H2027 0.950 . S
C2006 H2002 0.949 . S
C2006 C2014 1.574 1_565 S
C2006 C2022 1.368 . S
H2007 C2015 0.950 . S
H2008 C2013 0.950 . S
H2009 C2014 0.949 . S
H2010 C2016 0.950 . S
H2011 C2017 0.950 . S
H2012 C2018 0.949 . S
C2013 H2008 0.950 . S
C2013 C2015 1.327 . S
C2013 C2019 1.429 . S
C2014 C2006 1.574 1_545 S
C2014 H2009 0.949 . S
C2014 C2020 1.368 . S
C2015 C1999 1.349 . S
C2015 H2007 0.950 . S
C2015 C2013 1.327 . S
C2016 C2004 1.349 . S
C2016 H2010 0.950 . S
C2016 C2017 1.327 . S
C2017 H2011 0.950 . S
C2017 C2016 1.327 . S
C2017 C2021 1.429 . S
C2018 C2001 1.574 1_565 S
C2018 H2012 0.949 . S
C2018 C2022 1.368 . S
C2019 C2000 1.429 . S
C2019 C2013 1.429 . S
C2019 C2020 1.523 . S
C2020 C2001 1.368 . S
C2020 C2014 1.368 . S
C2020 C2019 1.523 . S
C2021 C2005 1.429 . S
C2021 C2017 1.429 . S
C2021 C2022 1.523 . S
C2022 C2006 1.368 . S
C2022 C2018 1.368 . S
C2022 C2021 1.523 . S
H2023 C1998 0.950 . S
H2024 C2000 0.950 . S
H2025 C2001 0.949 . S
H2026 C2003 0.950 . S
H2027 C2005 0.950 . S
C2028 C2029 1.349 . S
C2028 C2030 1.327 . S
C2028 H2053 0.950 . S
C2029 C2028 1.349 . S
C2029 C2045 1.349 . S
C2030 C2028 1.327 . S
C2030 C2049 1.429 . S
C2030 H2054 0.950 . S
C2031 C2048 1.574 1_655 S
C2031 C2050 1.368 . S
C2031 H2055 0.949 . S
H2032 C2036 0.949 . S
C2033 C2034 1.349 . S
C2033 C2035 1.327 . S
C2033 H2056 0.950 . S
C2034 C2033 1.349 . S
C2034 C2046 1.349 . S
C2035 C2033 1.327 . S
C2035 C2051 1.429 . S
C2035 H2057 0.950 . S
C2036 H2032 0.949 . S
C2036 C2044 1.574 1_455 S
C2036 C2052 1.368 . S
H2037 C2045 0.950 . S
H2038 C2043 0.950 . S
H2039 C2044 0.949 . S
H2040 C2046 0.950 . S
H2041 C2047 0.950 . S
H2042 C2048 0.949 . S
C2043 H2038 0.950 . S
C2043 C2045 1.327 . S
C2043 C2049 1.429 . S
C2044 C2036 1.574 1_655 S
C2044 H2039 0.949 . S
C2044 C2050 1.368 . S
C2045 C2029 1.349 . S
C2045 H2037 0.950 . S
C2045 C2043 1.327 . S
C2046 C2034 1.349 . S
C2046 H2040 0.950 . S
C2046 C2047 1.327 . S
C2047 H2041 0.950 . S
C2047 C2046 1.327 . S
C2047 C2051 1.429 . S
C2048 C2031 1.574 1_455 S
C2048 H2042 0.949 . S
C2048 C2052 1.368 . S
C2049 C2030 1.429 . S
C2049 C2043 1.429 . S
C2049 C2050 1.523 . S
C2050 C2031 1.368 . S
C2050 C2044 1.368 . S
C2050 C2049 1.523 . S
C2051 C2035 1.429 . S
C2051 C2047 1.429 . S
C2051 C2052 1.523 . S
C2052 C2036 1.368 . S
C2052 C2048 1.368 . S
C2052 C2051 1.523 . S
H2053 C2028 0.950 . S
H2054 C2030 0.950 . S
H2055 C2031 0.949 . S
H2056 C2033 0.950 . S
H2057 C2035 0.950 . S
C2058 C2059 1.349 . S
C2058 C2060 1.327 . S
C2058 H2083 0.950 . S
C2059 C2058 1.349 . S
C2059 C2075 1.349 . S
C2060 C2058 1.327 . S
C2060 C2079 1.429 . S
C2060 H2084 0.950 . S
C2061 C2078 1.574 . S
C2061 C2080 1.368 . S
C2061 H2085 0.949 . S
H2062 C2066 0.949 . S
C2063 C2064 1.349 . S
C2063 C2065 1.327 . S
C2063 H2086 0.950 . S
C2064 C2063 1.349 . S
C2064 C2076 1.349 . S
C2065 C2063 1.327 . S
C2065 C2081 1.429 . S
C2065 H2087 0.950 . S
C2066 H2062 0.949 . S
C2066 C2074 1.574 . S
C2066 C2082 1.368 . S
H2067 C2075 0.950 . S
H2068 C2073 0.950 . S
H2069 C2074 0.949 . S
H2070 C2076 0.950 . S
H2071 C2077 0.950 . S
H2072 C2078 0.949 . S
C2073 H2068 0.950 . S
C2073 C2075 1.327 . S
C2073 C2079 1.429 . S
C2074 C2066 1.574 . S
C2074 H2069 0.949 . S
C2074 C2080 1.368 . S
C2075 C2059 1.349 . S
C2075 H2067 0.950 . S
C2075 C2073 1.327 . S
C2076 C2064 1.349 . S
C2076 H2070 0.950 . S
C2076 C2077 1.327 . S
C2077 H2071 0.950 . S
C2077 C2076 1.327 . S
C2077 C2081 1.429 . S
C2078 C2061 1.574 . S
C2078 H2072 0.949 . S
C2078 C2082 1.368 . S
C2079 C2060 1.429 . S
C2079 C2073 1.429 . S
C2079 C2080 1.523 . S
C2080 C2061 1.368 . S
C2080 C2074 1.368 . S
C2080 C2079 1.523 . S
C2081 C2065 1.429 . S
C2081 C2077 1.429 . S
C2081 C2082 1.523 . S
C2082 C2066 1.368 . S
C2082 C2078 1.368 . S
C2082 C2081 1.523 . S
H2083 C2058 0.950 . S
H2084 C2060 0.950 . S
H2085 C2061 0.949 . S
H2086 C2063 0.950 . S
H2087 C2065 0.950 . S
C2088 C2089 1.349 . S
C2088 C2090 1.327 . S
C2088 H2113 0.950 . S
C2089 C2088 1.349 . S
C2089 C2105 1.349 . S
C2090 C2088 1.327 . S
C2090 C2109 1.429 . S
C2090 H2114 0.950 . S
C2091 C2108 1.574 . S
C2091 C2110 1.368 . S
C2091 H2115 0.949 . S
H2092 C2096 0.949 . S
C2093 C2094 1.349 . S
C2093 C2095 1.327 . S
C2093 H2116 0.950 . S
C2094 C2093 1.349 . S
C2094 C2106 1.349 . S
C2095 C2093 1.327 . S
C2095 C2111 1.429 . S
C2095 H2117 0.950 . S
C2096 H2092 0.949 . S
C2096 C2104 1.574 . S
C2096 C2112 1.368 . S
H2097 C2105 0.950 . S
H2098 C2103 0.950 . S
H2099 C2104 0.949 . S
H2100 C2106 0.950 . S
H2101 C2107 0.950 . S
H2102 C2108 0.949 . S
C2103 H2098 0.950 . S
C2103 C2105 1.327 . S
C2103 C2109 1.429 . S
C2104 C2096 1.574 . S
C2104 H2099 0.949 . S
C2104 C2110 1.368 . S
C2105 C2089 1.349 . S
C2105 H2097 0.950 . S
C2105 C2103 1.327 . S
C2106 C2094 1.349 . S
C2106 H2100 0.950 . S
C2106 C2107 1.327 . S
C2107 H2101 0.950 . S
C2107 C2106 1.327 . S
C2107 C2111 1.429 . S
C2108 C2091 1.574 . S
C2108 H2102 0.949 . S
C2108 C2112 1.368 . S
C2109 C2090 1.429 . S
C2109 C2103 1.429 . S
C2109 C2110 1.523 . S
C2110 C2091 1.368 . S
C2110 C2104 1.368 . S
C2110 C2109 1.523 . S
C2111 C2095 1.429 . S
C2111 C2107 1.429 . S
C2111 C2112 1.523 . S
C2112 C2096 1.368 . S
C2112 C2108 1.368 . S
C2112 C2111 1.523 . S
H2113 C2088 0.950 . S
H2114 C2090 0.950 . S
H2115 C2091 0.949 . S
H2116 C2093 0.950 . S
H2117 C2095 0.950 . S
C2118 C2119 1.349 . S
C2118 C2120 1.327 . S
C2118 H2143 0.950 . S
C2119 C2118 1.349 . S
C2119 C2135 1.349 . S
C2120 C2118 1.327 . S
C2120 C2139 1.429 . S
C2120 H2144 0.950 . S
C2121 C2138 1.574 . S
C2121 C2140 1.368 . S
C2121 H2145 0.949 . S
H2122 C2126 0.949 . S
C2123 C2124 1.349 . S
C2123 C2125 1.327 . S
C2123 H2146 0.950 . S
C2124 C2123 1.349 . S
C2124 C2136 1.349 . S
C2125 C2123 1.327 . S
C2125 C2141 1.429 . S
C2125 H2147 0.950 . S
C2126 H2122 0.949 . S
C2126 C2134 1.574 . S
C2126 C2142 1.368 . S
H2127 C2135 0.950 . S
H2128 C2133 0.950 . S
H2129 C2134 0.949 . S
H2130 C2136 0.950 . S
H2131 C2137 0.950 . S
H2132 C2138 0.949 . S
C2133 H2128 0.950 . S
C2133 C2135 1.327 . S
C2133 C2139 1.429 . S
C2134 C2126 1.574 . S
C2134 H2129 0.949 . S
C2134 C2140 1.368 . S
C2135 C2119 1.349 . S
C2135 H2127 0.950 . S
C2135 C2133 1.327 . S
C2136 C2124 1.349 . S
C2136 H2130 0.950 . S
C2136 C2137 1.327 . S
C2137 H2131 0.950 . S
C2137 C2136 1.327 . S
C2137 C2141 1.429 . S
C2138 C2121 1.574 . S
C2138 H2132 0.949 . S
C2138 C2142 1.368 . S
C2139 C2120 1.429 . S
C2139 C2133 1.429 . S
C2139 C2140 1.523 . S
C2140 C2121 1.368 . S
C2140 C2134 1.368 . S
C2140 C2139 1.523 . S
C2141 C2125 1.429 . S
C2141 C2137 1.429 . S
C2141 C2142 1.523 . S
C2142 C2126 1.368 . S
C2142 C2138 1.368 . S
C2142 C2141 1.523 . S
H2143 C2118 0.950 . S
H2144 C2120 0.950 . S
H2145 C2121 0.949 . S
H2146 C2123 0.950 . S
H2147 C2125 0.950 . S
C2148 C2149 1.349 . S
C2148 C2150 1.327 . S
C2148 H2173 0.950 . S
C2149 C2148 1.349 . S
C2149 C2165 1.349 . S
C2150 C2148 1.327 . S
C2150 C2169 1.429 . S
C2150 H2174 0.950 . S
C2151 C2168 1.574 . S
C2151 C2170 1.368 . S
C2151 H2175 0.949 . S
H2152 C2156 0.949 . S
C2153 C2154 1.349 . S
C2153 C2155 1.327 . S
C2153 H2176 0.950 . S
C2154 C2153 1.349 . S
C2154 C2166 1.349 . S
C2155 C2153 1.327 . S
C2155 C2171 1.429 . S
C2155 H2177 0.950 . S
C2156 H2152 0.949 . S
C2156 C2164 1.574 . S
C2156 C2172 1.368 . S
H2157 C2165 0.950 . S
H2158 C2163 0.950 . S
H2159 C2164 0.949 . S
H2160 C2166 0.950 . S
H2161 C2167 0.950 . S
H2162 C2168 0.949 . S
C2163 H2158 0.950 . S
C2163 C2165 1.327 . S
C2163 C2169 1.429 . S
C2164 C2156 1.574 . S
C2164 H2159 0.949 . S
C2164 C2170 1.368 . S
C2165 C2149 1.349 . S
C2165 H2157 0.950 . S
C2165 C2163 1.327 . S
C2166 C2154 1.349 . S
C2166 H2160 0.950 . S
C2166 C2167 1.327 . S
C2167 H2161 0.950 . S
C2167 C2166 1.327 . S
C2167 C2171 1.429 . S
C2168 C2151 1.574 . S
C2168 H2162 0.949 . S
C2168 C2172 1.368 . S
C2169 C2150 1.429 . S
C2169 C2163 1.429 . S
C2169 C2170 1.523 . S
C2170 C2151 1.368 . S
C2170 C2164 1.368 . S
C2170 C2169 1.523 . S
C2171 C2155 1.429 . S
C2171 C2167 1.429 . S
C2171 C2172 1.523 . S
C2172 C2156 1.368 . S
C2172 C2168 1.368 . S
C2172 C2171 1.523 . S
H2173 C2148 0.950 . S
H2174 C2150 0.950 . S
H2175 C2151 0.949 . S
H2176 C2153 0.950 . S
H2177 C2155 0.950 . S
C2178 C2179 1.349 . S
C2178 C2180 1.327 . S
C2178 H2203 0.950 . S
C2179 C2178 1.349 . S
C2179 C2195 1.349 . S
C2180 C2178 1.327 . S
C2180 C2199 1.429 . S
C2180 H2204 0.950 . S
C2181 C2198 1.574 . S
C2181 C2200 1.368 . S
C2181 H2205 0.949 . S
H2182 C2186 0.949 . S
C2183 C2184 1.349 . S
C2183 C2185 1.327 . S
C2183 H2206 0.950 . S
C2184 C2183 1.349 . S
C2184 C2196 1.349 . S
C2185 C2183 1.327 . S
C2185 C2201 1.429 . S
C2185 H2207 0.950 . S
C2186 H2182 0.949 . S
C2186 C2194 1.574 . S
C2186 C2202 1.368 . S
H2187 C2195 0.950 . S
H2188 C2193 0.950 . S
H2189 C2194 0.949 . S
H2190 C2196 0.950 . S
H2191 C2197 0.950 . S
H2192 C2198 0.949 . S
C2193 H2188 0.950 . S
C2193 C2195 1.327 . S
C2193 C2199 1.429 . S
C2194 C2186 1.574 . S
C2194 H2189 0.949 . S
C2194 C2200 1.368 . S
C2195 C2179 1.349 . S
C2195 H2187 0.950 . S
C2195 C2193 1.327 . S
C2196 C2184 1.349 . S
C2196 H2190 0.950 . S
C2196 C2197 1.327 . S
C2197 H2191 0.950 . S
C2197 C2196 1.327 . S
C2197 C2201 1.429 . S
C2198 C2181 1.574 . S
C2198 H2192 0.949 . S
C2198 C2202 1.368 . S
C2199 C2180 1.429 . S
C2199 C2193 1.429 . S
C2199 C2200 1.523 . S
C2200 C2181 1.368 . S
C2200 C2194 1.368 . S
C2200 C2199 1.523 . S
C2201 C2185 1.429 . S
C2201 C2197 1.429 . S
C2201 C2202 1.523 . S
C2202 C2186 1.368 . S
C2202 C2198 1.368 . S
C2202 C2201 1.523 . S
H2203 C2178 0.950 . S
H2204 C2180 0.950 . S
H2205 C2181 0.949 . S
H2206 C2183 0.950 . S
H2207 C2185 0.950 . S
C2208 C2209 1.349 . S
C2208 C2210 1.327 . S
C2208 H2233 0.950 . S
C2209 C2208 1.349 . S
C2209 C2225 1.349 . S
C2210 C2208 1.327 . S
C2210 C2229 1.429 . S
C2210 H2234 0.950 . S
C2211 C2228 1.574 . S
C2211 C2230 1.368 . S
C2211 H2235 0.949 . S
H2212 C2216 0.949 . S
C2213 C2214 1.349 . S
C2213 C2215 1.327 . S
C2213 H2236 0.950 . S
C2214 C2213 1.349 . S
C2214 C2226 1.349 . S
C2215 C2213 1.327 . S
C2215 C2231 1.429 . S
C2215 H2237 0.950 . S
C2216 H2212 0.949 . S
C2216 C2224 1.574 . S
C2216 C2232 1.368 . S
H2217 C2225 0.950 . S
H2218 C2223 0.950 . S
H2219 C2224 0.949 . S
H2220 C2226 0.950 . S
H2221 C2227 0.950 . S
H2222 C2228 0.949 . S
C2223 H2218 0.950 . S
C2223 C2225 1.327 . S
C2223 C2229 1.429 . S
C2224 C2216 1.574 . S
C2224 H2219 0.949 . S
C2224 C2230 1.368 . S
C2225 C2209 1.349 . S
C2225 H2217 0.950 . S
C2225 C2223 1.327 . S
C2226 C2214 1.349 . S
C2226 H2220 0.950 . S
C2226 C2227 1.327 . S
C2227 H2221 0.950 . S
C2227 C2226 1.327 . S
C2227 C2231 1.429 . S
C2228 C2211 1.574 . S
C2228 H2222 0.949 . S
C2228 C2232 1.368 . S
C2229 C2210 1.429 . S
C2229 C2223 1.429 . S
C2229 C2230 1.523 . S
C2230 C2211 1.368 . S
C2230 C2224 1.368 . S
C2230 C2229 1.523 . S
C2231 C2215 1.429 . S
C2231 C2227 1.429 . S
C2231 C2232 1.523 . S
C2232 C2216 1.368 . S
C2232 C2228 1.368 . S
C2232 C2231 1.523 . S
H2233 C2208 0.950 . S
H2234 C2210 0.950 . S
H2235 C2211 0.949 . S
H2236 C2213 0.950 . S
H2237 C2215 0.950 . S
C2238 C2239 1.349 . S
C2238 C2240 1.327 . S
C2238 H2263 0.950 . S
C2239 C2238 1.349 . S
C2239 C2255 1.349 . S
C2240 C2238 1.327 . S
C2240 C2259 1.429 . S
C2240 H2264 0.950 . S
C2241 C2258 1.574 . S
C2241 C2260 1.368 . S
C2241 H2265 0.949 . S
H2242 C2246 0.949 . S
C2243 C2244 1.349 . S
C2243 C2245 1.327 . S
C2243 H2266 0.950 . S
C2244 C2243 1.349 . S
C2244 C2256 1.349 . S
C2245 C2243 1.327 . S
C2245 C2261 1.429 . S
C2245 H2267 0.950 . S
C2246 H2242 0.949 . S
C2246 C2254 1.574 . S
C2246 C2262 1.368 . S
H2247 C2255 0.950 . S
H2248 C2253 0.950 . S
H2249 C2254 0.949 . S
H2250 C2256 0.950 . S
H2251 C2257 0.950 . S
H2252 C2258 0.949 . S
C2253 H2248 0.950 . S
C2253 C2255 1.327 . S
C2253 C2259 1.429 . S
C2254 C2246 1.574 . S
C2254 H2249 0.949 . S
C2254 C2260 1.368 . S
C2255 C2239 1.349 . S
C2255 H2247 0.950 . S
C2255 C2253 1.327 . S
C2256 C2244 1.349 . S
C2256 H2250 0.950 . S
C2256 C2257 1.327 . S
C2257 H2251 0.950 . S
C2257 C2256 1.327 . S
C2257 C2261 1.429 . S
C2258 C2241 1.574 . S
C2258 H2252 0.949 . S
C2258 C2262 1.368 . S
C2259 C2240 1.429 . S
C2259 C2253 1.429 . S
C2259 C2260 1.523 . S
C2260 C2241 1.368 . S
C2260 C2254 1.368 . S
C2260 C2259 1.523 . S
C2261 C2245 1.429 . S
C2261 C2257 1.429 . S
C2261 C2262 1.523 . S
C2262 C2246 1.368 . S
C2262 C2258 1.368 . S
C2262 C2261 1.523 . S
H2263 C2238 0.950 . S
H2264 C2240 0.950 . S
H2265 C2241 0.949 . S
H2266 C2243 0.950 . S
H2267 C2245 0.950 . S
C2268 C2269 1.349 . S
C2268 C2270 1.327 . S
C2268 H2293 0.950 . S
C2269 C2268 1.349 . S
C2269 C2285 1.349 . S
C2270 C2268 1.327 . S
C2270 C2289 1.429 . S
C2270 H2294 0.950 . S
C2271 C2288 1.574 . S
C2271 C2290 1.368 . S
C2271 H2295 0.949 . S
H2272 C2276 0.949 . S
C2273 C2274 1.349 . S
C2273 C2275 1.327 . S
C2273 H2296 0.950 . S
C2274 C2273 1.349 . S
C2274 C2286 1.349 . S
C2275 C2273 1.327 . S
C2275 C2291 1.429 . S
C2275 H2297 0.950 . S
C2276 H2272 0.949 . S
C2276 C2284 1.574 . S
C2276 C2292 1.368 . S
H2277 C2285 0.950 . S
H2278 C2283 0.950 . S
H2279 C2284 0.949 . S
H2280 C2286 0.950 . S
H2281 C2287 0.950 . S
H2282 C2288 0.949 . S
C2283 H2278 0.950 . S
C2283 C2285 1.327 . S
C2283 C2289 1.429 . S
C2284 C2276 1.574 . S
C2284 H2279 0.949 . S
C2284 C2290 1.368 . S
C2285 C2269 1.349 . S
C2285 H2277 0.950 . S
C2285 C2283 1.327 . S
C2286 C2274 1.349 . S
C2286 H2280 0.950 . S
C2286 C2287 1.327 . S
C2287 H2281 0.950 . S
C2287 C2286 1.327 . S
C2287 C2291 1.429 . S
C2288 C2271 1.574 . S
C2288 H2282 0.949 . S
C2288 C2292 1.368 . S
C2289 C2270 1.429 . S
C2289 C2283 1.429 . S
C2289 C2290 1.523 . S
C2290 C2271 1.368 . S
C2290 C2284 1.368 . S
C2290 C2289 1.523 . S
C2291 C2275 1.429 . S
C2291 C2287 1.429 . S
C2291 C2292 1.523 . S
C2292 C2276 1.368 . S
C2292 C2288 1.368 . S
C2292 C2291 1.523 . S
H2293 C2268 0.950 . S
H2294 C2270 0.950 . S
H2295 C2271 0.949 . S
H2296 C2273 0.950 . S
H2297 C2275 0.950 . S
C2298 C2299 1.349 . S
C2298 C2300 1.327 . S
C2298 H2323 0.950 . S
C2299 C2298 1.349 . S
C2299 C2315 1.349 . S
C2300 C2298 1.327 . S
C2300 C2319 1.429 . S
C2300 H2324 0.950 . S
C2301 C2318 1.574 . S
C2301 C2320 1.368 . S
C2301 H2325 0.949 . S
H2302 C2306 0.949 . S
C2303 C2304 1.349 . S
C2303 C2305 1.327 . S
C2303 H2326 0.950 . S
C2304 C2303 1.349 . S
C2304 C2316 1.349 . S
C2305 C2303 1.327 . S
C2305 C2321 1.429 . S
C2305 H2327 0.950 . S
C2306 H2302 0.949 . S
C2306 C2314 1.574 . S
C2306 C2322 1.368 . S
H2307 C2315 0.950 . S
H2308 C2313 0.950 . S
H2309 C2314 0.949 . S
H2310 C2316 0.950 . S
H2311 C2317 0.950 . S
H2312 C2318 0.949 . S
C2313 H2308 0.950 . S
C2313 C2315 1.327 . S
C2313 C2319 1.429 . S
C2314 C2306 1.574 . S
C2314 H2309 0.949 . S
C2314 C2320 1.368 . S
C2315 C2299 1.349 . S
C2315 H2307 0.950 . S
C2315 C2313 1.327 . S
C2316 C2304 1.349 . S
C2316 H2310 0.950 . S
C2316 C2317 1.327 . S
C2317 H2311 0.950 . S
C2317 C2316 1.327 . S
C2317 C2321 1.429 . S
C2318 C2301 1.574 . S
C2318 H2312 0.949 . S
C2318 C2322 1.368 . S
C2319 C2300 1.429 . S
C2319 C2313 1.429 . S
C2319 C2320 1.523 . S
C2320 C2301 1.368 . S
C2320 C2314 1.368 . S
C2320 C2319 1.523 . S
C2321 C2305 1.429 . S
C2321 C2317 1.429 . S
C2321 C2322 1.523 . S
C2322 C2306 1.368 . S
C2322 C2318 1.368 . S
C2322 C2321 1.523 . S
H2323 C2298 0.950 . S
H2324 C2300 0.950 . S
H2325 C2301 0.949 . S
H2326 C2303 0.950 . S
H2327 C2305 0.950 . S
C2328 C2329 1.349 . S
C2328 C2330 1.327 . S
C2328 H2353 0.950 . S
C2329 C2328 1.349 . S
C2329 C2345 1.349 . S
C2330 C2328 1.327 . S
C2330 C2349 1.429 . S
C2330 H2354 0.950 . S
C2331 C2348 1.574 . S
C2331 C2350 1.368 . S
C2331 H2355 0.949 . S
H2332 C2336 0.949 . S
C2333 C2334 1.349 . S
C2333 C2335 1.327 . S
C2333 H2356 0.950 . S
C2334 C2333 1.349 . S
C2334 C2346 1.349 . S
C2335 C2333 1.327 . S
C2335 C2351 1.429 . S
C2335 H2357 0.950 . S
C2336 H2332 0.949 . S
C2336 C2344 1.574 . S
C2336 C2352 1.368 . S
H2337 C2345 0.950 . S
H2338 C2343 0.950 . S
H2339 C2344 0.949 . S
H2340 C2346 0.950 . S
H2341 C2347 0.950 . S
H2342 C2348 0.949 . S
C2343 H2338 0.950 . S
C2343 C2345 1.327 . S
C2343 C2349 1.429 . S
C2344 C2336 1.574 . S
C2344 H2339 0.949 . S
C2344 C2350 1.368 . S
C2345 C2329 1.349 . S
C2345 H2337 0.950 . S
C2345 C2343 1.327 . S
C2346 C2334 1.349 . S
C2346 H2340 0.950 . S
C2346 C2347 1.327 . S
C2347 H2341 0.950 . S
C2347 C2346 1.327 . S
C2347 C2351 1.429 . S
C2348 C2331 1.574 . S
C2348 H2342 0.949 . S
C2348 C2352 1.368 . S
C2349 C2330 1.429 . S
C2349 C2343 1.429 . S
C2349 C2350 1.523 . S
C2350 C2331 1.368 . S
C2350 C2344 1.368 . S
C2350 C2349 1.523 . S
C2351 C2335 1.429 . S
C2351 C2347 1.429 . S
C2351 C2352 1.523 . S
C2352 C2336 1.368 . S
C2352 C2348 1.368 . S
C2352 C2351 1.523 . S
H2353 C2328 0.950 . S
H2354 C2330 0.950 . S
H2355 C2331 0.949 . S
H2356 C2333 0.950 . S
H2357 C2335 0.950 . S
C2358 C2359 1.349 . S
C2358 C2360 1.327 . S
C2358 H2383 0.950 . S
C2359 C2358 1.349 . S
C2359 C2375 1.349 . S
C2360 C2358 1.327 . S
C2360 C2379 1.429 . S
C2360 H2384 0.950 . S
C2361 C2378 1.574 . S
C2361 C2380 1.368 . S
C2361 H2385 0.949 . S
H2362 C2366 0.949 . S
C2363 C2364 1.349 . S
C2363 C2365 1.327 . S
C2363 H2386 0.950 . S
C2364 C2363 1.349 . S
C2364 C2376 1.349 . S
C2365 C2363 1.327 . S
C2365 C2381 1.429 . S
C2365 H2387 0.950 . S
C2366 H2362 0.949 . S
C2366 C2374 1.574 . S
C2366 C2382 1.368 . S
H2367 C2375 0.950 . S
H2368 C2373 0.950 . S
H2369 C2374 0.949 . S
H2370 C2376 0.950 . S
H2371 C2377 0.950 . S
H2372 C2378 0.949 . S
C2373 H2368 0.950 . S
C2373 C2375 1.327 . S
C2373 C2379 1.429 . S
C2374 C2366 1.574 . S
C2374 H2369 0.949 . S
C2374 C2380 1.368 . S
C2375 C2359 1.349 . S
C2375 H2367 0.950 . S
C2375 C2373 1.327 . S
C2376 C2364 1.349 . S
C2376 H2370 0.950 . S
C2376 C2377 1.327 . S
C2377 H2371 0.950 . S
C2377 C2376 1.327 . S
C2377 C2381 1.429 . S
C2378 C2361 1.574 . S
C2378 H2372 0.949 . S
C2378 C2382 1.368 . S
C2379 C2360 1.429 . S
C2379 C2373 1.429 . S
C2379 C2380 1.523 . S
C2380 C2361 1.368 . S
C2380 C2374 1.368 . S
C2380 C2379 1.523 . S
C2381 C2365 1.429 . S
C2381 C2377 1.429 . S
C2381 C2382 1.523 . S
C2382 C2366 1.368 . S
C2382 C2378 1.368 . S
C2382 C2381 1.523 . S
H2383 C2358 0.950 . S
H2384 C2360 0.950 . S
H2385 C2361 0.949 . S
H2386 C2363 0.950 . S
H2387 C2365 0.950 . S
C2388 C2389 1.349 . S
C2388 C2390 1.327 . S
C2388 H2413 0.950 . S
C2389 C2388 1.349 . S
C2389 C2405 1.349 . S
C2390 C2388 1.327 . S
C2390 C2409 1.429 . S
C2390 H2414 0.950 . S
C2391 C2408 1.574 . S
C2391 C2410 1.368 . S
C2391 H2415 0.949 . S
H2392 C2396 0.949 . S
C2393 C2394 1.349 . S
C2393 C2395 1.327 . S
C2393 H2416 0.950 . S
C2394 C2393 1.349 . S
C2394 C2406 1.349 . S
C2395 C2393 1.327 . S
C2395 C2411 1.429 . S
C2395 H2417 0.950 . S
C2396 H2392 0.949 . S
C2396 C2404 1.574 . S
C2396 C2412 1.368 . S
H2397 C2405 0.950 . S
H2398 C2403 0.950 . S
H2399 C2404 0.949 . S
H2400 C2406 0.950 . S
H2401 C2407 0.950 . S
H2402 C2408 0.949 . S
C2403 H2398 0.950 . S
C2403 C2405 1.327 . S
C2403 C2409 1.429 . S
C2404 C2396 1.574 . S
C2404 H2399 0.949 . S
C2404 C2410 1.368 . S
C2405 C2389 1.349 . S
C2405 H2397 0.950 . S
C2405 C2403 1.327 . S
C2406 C2394 1.349 . S
C2406 H2400 0.950 . S
C2406 C2407 1.327 . S
C2407 H2401 0.950 . S
C2407 C2406 1.327 . S
C2407 C2411 1.429 . S
C2408 C2391 1.574 . S
C2408 H2402 0.949 . S
C2408 C2412 1.368 . S
C2409 C2390 1.429 . S
C2409 C2403 1.429 . S
C2409 C2410 1.523 . S
C2410 C2391 1.368 . S
C2410 C2404 1.368 . S
C2410 C2409 1.523 . S
C2411 C2395 1.429 . S
C2411 C2407 1.429 . S
C2411 C2412 1.523 . S
C2412 C2396 1.368 . S
C2412 C2408 1.368 . S
C2412 C2411 1.523 . S
H2413 C2388 0.950 . S
H2414 C2390 0.950 . S
H2415 C2391 0.949 . S
H2416 C2393 0.950 . S
H2417 C2395 0.950 . S
C2418 C2419 1.349 . S
C2418 C2420 1.327 . S
C2418 H2443 0.950 . S
C2419 C2418 1.349 . S
C2419 C2435 1.349 . S
C2420 C2418 1.327 . S
C2420 C2439 1.429 . S
C2420 H2444 0.950 . S
C2421 C2438 1.574 . S
C2421 C2440 1.368 . S
C2421 H2445 0.949 . S
H2422 C2426 0.949 . S
C2423 C2424 1.349 . S
C2423 C2425 1.327 . S
C2423 H2446 0.950 . S
C2424 C2423 1.349 . S
C2424 C2436 1.349 . S
C2425 C2423 1.327 . S
C2425 C2441 1.429 . S
C2425 H2447 0.950 . S
C2426 H2422 0.949 . S
C2426 C2434 1.574 . S
C2426 C2442 1.368 . S
H2427 C2435 0.950 . S
H2428 C2433 0.950 . S
H2429 C2434 0.949 . S
H2430 C2436 0.950 . S
H2431 C2437 0.950 . S
H2432 C2438 0.949 . S
C2433 H2428 0.950 . S
C2433 C2435 1.327 . S
C2433 C2439 1.429 . S
C2434 C2426 1.574 . S
C2434 H2429 0.949 . S
C2434 C2440 1.368 . S
C2435 C2419 1.349 . S
C2435 H2427 0.950 . S
C2435 C2433 1.327 . S
C2436 C2424 1.349 . S
C2436 H2430 0.950 . S
C2436 C2437 1.327 . S
C2437 H2431 0.950 . S
C2437 C2436 1.327 . S
C2437 C2441 1.429 . S
C2438 C2421 1.574 . S
C2438 H2432 0.949 . S
C2438 C2442 1.368 . S
C2439 C2420 1.429 . S
C2439 C2433 1.429 . S
C2439 C2440 1.523 . S
C2440 C2421 1.368 . S
C2440 C2434 1.368 . S
C2440 C2439 1.523 . S
C2441 C2425 1.429 . S
C2441 C2437 1.429 . S
C2441 C2442 1.523 . S
C2442 C2426 1.368 . S
C2442 C2438 1.368 . S
C2442 C2441 1.523 . S
H2443 C2418 0.950 . S
H2444 C2420 0.950 . S
H2445 C2421 0.949 . S
H2446 C2423 0.950 . S
H2447 C2425 0.950 . S
C2448 C2449 1.349 . S
C2448 C2450 1.327 . S
C2448 H2473 0.950 . S
C2449 C2448 1.349 . S
C2449 C2465 1.349 . S
C2450 C2448 1.327 . S
C2450 C2469 1.429 . S
C2450 H2474 0.950 . S
C2451 C2468 1.574 . S
C2451 C2470 1.368 . S
C2451 H2475 0.949 . S
H2452 C2456 0.949 . S
C2453 C2454 1.349 . S
C2453 C2455 1.327 . S
C2453 H2476 0.950 . S
C2454 C2453 1.349 . S
C2454 C2466 1.349 . S
C2455 C2453 1.327 . S
C2455 C2471 1.429 . S
C2455 H2477 0.950 . S
C2456 H2452 0.949 . S
C2456 C2464 1.574 . S
C2456 C2472 1.368 . S
H2457 C2465 0.950 . S
H2458 C2463 0.950 . S
H2459 C2464 0.949 . S
H2460 C2466 0.950 . S
H2461 C2467 0.950 . S
H2462 C2468 0.949 . S
C2463 H2458 0.950 . S
C2463 C2465 1.327 . S
C2463 C2469 1.429 . S
C2464 C2456 1.574 . S
C2464 H2459 0.949 . S
C2464 C2470 1.368 . S
C2465 C2449 1.349 . S
C2465 H2457 0.950 . S
C2465 C2463 1.327 . S
C2466 C2454 1.349 . S
C2466 H2460 0.950 . S
C2466 C2467 1.327 . S
C2467 H2461 0.950 . S
C2467 C2466 1.327 . S
C2467 C2471 1.429 . S
C2468 C2451 1.574 . S
C2468 H2462 0.949 . S
C2468 C2472 1.368 . S
C2469 C2450 1.429 . S
C2469 C2463 1.429 . S
C2469 C2470 1.523 . S
C2470 C2451 1.368 . S
C2470 C2464 1.368 . S
C2470 C2469 1.523 . S
C2471 C2455 1.429 . S
C2471 C2467 1.429 . S
C2471 C2472 1.523 . S
C2472 C2456 1.368 . S
C2472 C2468 1.368 . S
C2472 C2471 1.523 . S
H2473 C2448 0.950 . S
H2474 C2450 0.950 . S
H2475 C2451 0.949 . S
H2476 C2453 0.950 . S
H2477 C2455 0.950 . S
C2478 C2479 1.349 . S
C2478 C2480 1.327 . S
C2478 H2503 0.950 . S
C2479 C2478 1.349 . S
C2479 C2495 1.349 . S
C2480 C2478 1.327 . S
C2480 C2499 1.429 . S
C2480 H2504 0.950 . S
C2481 C2498 1.574 . S
C2481 C2500 1.368 . S
C2481 H2505 0.949 . S
H2482 C2486 0.949 . S
C2483 C2484 1.349 . S
C2483 C2485 1.327 . S
C2483 H2506 0.950 . S
C2484 C2483 1.349 . S
C2484 C2496 1.349 . S
C2485 C2483 1.327 . S
C2485 C2501 1.429 . S
C2485 H2507 0.950 . S
C2486 H2482 0.949 . S
C2486 C2494 1.574 . S
C2486 C2502 1.368 . S
H2487 C2495 0.950 . S
H2488 C2493 0.950 . S
H2489 C2494 0.949 . S
H2490 C2496 0.950 . S
H2491 C2497 0.950 . S
H2492 C2498 0.949 . S
C2493 H2488 0.950 . S
C2493 C2495 1.327 . S
C2493 C2499 1.429 . S
C2494 C2486 1.574 . S
C2494 H2489 0.949 . S
C2494 C2500 1.368 . S
C2495 C2479 1.349 . S
C2495 H2487 0.950 . S
C2495 C2493 1.327 . S
C2496 C2484 1.349 . S
C2496 H2490 0.950 . S
C2496 C2497 1.327 . S
C2497 H2491 0.950 . S
C2497 C2496 1.327 . S
C2497 C2501 1.429 . S
C2498 C2481 1.574 . S
C2498 H2492 0.949 . S
C2498 C2502 1.368 . S
C2499 C2480 1.429 . S
C2499 C2493 1.429 . S
C2499 C2500 1.523 . S
C2500 C2481 1.368 . S
C2500 C2494 1.368 . S
C2500 C2499 1.523 . S
C2501 C2485 1.429 . S
C2501 C2497 1.429 . S
C2501 C2502 1.523 . S
C2502 C2486 1.368 . S
C2502 C2498 1.368 . S
C2502 C2501 1.523 . S
H2503 C2478 0.950 . S
H2504 C2480 0.950 . S
H2505 C2481 0.949 . S
H2506 C2483 0.950 . S
H2507 C2485 0.950 . S
C2508 C2509 1.349 . S
C2508 C2510 1.327 . S
C2508 H2533 0.950 . S
C2509 C2508 1.349 . S
C2509 C2525 1.349 . S
C2510 C2508 1.327 . S
C2510 C2529 1.429 . S
C2510 H2534 0.950 . S
C2511 C2528 1.574 . S
C2511 C2530 1.368 . S
C2511 H2535 0.949 . S
H2512 C2516 0.949 . S
C2513 C2514 1.349 . S
C2513 C2515 1.327 . S
C2513 H2536 0.950 . S
C2514 C2513 1.349 . S
C2514 C2526 1.349 . S
C2515 C2513 1.327 . S
C2515 C2531 1.429 . S
C2515 H2537 0.950 . S
C2516 H2512 0.949 . S
C2516 C2524 1.574 . S
C2516 C2532 1.368 . S
H2517 C2525 0.950 . S
H2518 C2523 0.950 . S
H2519 C2524 0.949 . S
H2520 C2526 0.950 . S
H2521 C2527 0.950 . S
H2522 C2528 0.949 . S
C2523 H2518 0.950 . S
C2523 C2525 1.327 . S
C2523 C2529 1.429 . S
C2524 C2516 1.574 . S
C2524 H2519 0.949 . S
C2524 C2530 1.368 . S
C2525 C2509 1.349 . S
C2525 H2517 0.950 . S
C2525 C2523 1.327 . S
C2526 C2514 1.349 . S
C2526 H2520 0.950 . S
C2526 C2527 1.327 . S
C2527 H2521 0.950 . S
C2527 C2526 1.327 . S
C2527 C2531 1.429 . S
C2528 C2511 1.574 . S
C2528 H2522 0.949 . S
C2528 C2532 1.368 . S
C2529 C2510 1.429 . S
C2529 C2523 1.429 . S
C2529 C2530 1.523 . S
C2530 C2511 1.368 . S
C2530 C2524 1.368 . S
C2530 C2529 1.523 . S
C2531 C2515 1.429 . S
C2531 C2527 1.429 . S
C2531 C2532 1.523 . S
C2532 C2516 1.368 . S
C2532 C2528 1.368 . S
C2532 C2531 1.523 . S
H2533 C2508 0.950 . S
H2534 C2510 0.950 . S
H2535 C2511 0.949 . S
H2536 C2513 0.950 . S
H2537 C2515 0.950 . S
C2538 C2539 1.349 . S
C2538 C2540 1.327 . S
C2538 H2563 0.950 . S
C2539 C2538 1.349 . S
C2539 C2555 1.349 . S
C2540 C2538 1.327 . S
C2540 C2559 1.429 . S
C2540 H2564 0.950 . S
C2541 C2558 1.574 . S
C2541 C2560 1.368 . S
C2541 H2565 0.949 . S
H2542 C2546 0.949 . S
C2543 C2544 1.349 . S
C2543 C2545 1.327 . S
C2543 H2566 0.950 . S
C2544 C2543 1.349 . S
C2544 C2556 1.349 . S
C2545 C2543 1.327 . S
C2545 C2561 1.429 . S
C2545 H2567 0.950 . S
C2546 H2542 0.949 . S
C2546 C2554 1.574 . S
C2546 C2562 1.368 . S
H2547 C2555 0.950 . S
H2548 C2553 0.950 . S
H2549 C2554 0.949 . S
H2550 C2556 0.950 . S
H2551 C2557 0.950 . S
H2552 C2558 0.949 . S
C2553 H2548 0.950 . S
C2553 C2555 1.327 . S
C2553 C2559 1.429 . S
C2554 C2546 1.574 . S
C2554 H2549 0.949 . S
C2554 C2560 1.368 . S
C2555 C2539 1.349 . S
C2555 H2547 0.950 . S
C2555 C2553 1.327 . S
C2556 C2544 1.349 . S
C2556 H2550 0.950 . S
C2556 C2557 1.327 . S
C2557 H2551 0.950 . S
C2557 C2556 1.327 . S
C2557 C2561 1.429 . S
C2558 C2541 1.574 . S
C2558 H2552 0.949 . S
C2558 C2562 1.368 . S
C2559 C2540 1.429 . S
C2559 C2553 1.429 . S
C2559 C2560 1.523 . S
C2560 C2541 1.368 . S
C2560 C2554 1.368 . S
C2560 C2559 1.523 . S
C2561 C2545 1.429 . S
C2561 C2557 1.429 . S
C2561 C2562 1.523 . S
C2562 C2546 1.368 . S
C2562 C2558 1.368 . S
C2562 C2561 1.523 . S
H2563 C2538 0.950 . S
H2564 C2540 0.950 . S
H2565 C2541 0.949 . S
H2566 C2543 0.950 . S
H2567 C2545 0.950 . S
C2568 C2569 1.349 . S
C2568 C2570 1.327 . S
C2568 H2593 0.950 . S
C2569 C2568 1.349 . S
C2569 C2585 1.349 . S
C2570 C2568 1.327 . S
C2570 C2589 1.429 . S
C2570 H2594 0.950 . S
C2571 C2588 1.574 . S
C2571 C2590 1.368 . S
C2571 H2595 0.949 . S
H2572 C2576 0.949 . S
C2573 C2574 1.349 . S
C2573 C2575 1.327 . S
C2573 H2596 0.950 . S
C2574 C2573 1.349 . S
C2574 C2586 1.349 . S
C2575 C2573 1.327 . S
C2575 C2591 1.429 . S
C2575 H2597 0.950 . S
C2576 H2572 0.949 . S
C2576 C2584 1.574 . S
C2576 C2592 1.368 . S
H2577 C2585 0.950 . S
H2578 C2583 0.950 . S
H2579 C2584 0.949 . S
H2580 C2586 0.950 . S
H2581 C2587 0.950 . S
H2582 C2588 0.949 . S
C2583 H2578 0.950 . S
C2583 C2585 1.327 . S
C2583 C2589 1.429 . S
C2584 C2576 1.574 . S
C2584 H2579 0.949 . S
C2584 C2590 1.368 . S
C2585 C2569 1.349 . S
C2585 H2577 0.950 . S
C2585 C2583 1.327 . S
C2586 C2574 1.349 . S
C2586 H2580 0.950 . S
C2586 C2587 1.327 . S
C2587 H2581 0.950 . S
C2587 C2586 1.327 . S
C2587 C2591 1.429 . S
C2588 C2571 1.574 . S
C2588 H2582 0.949 . S
C2588 C2592 1.368 . S
C2589 C2570 1.429 . S
C2589 C2583 1.429 . S
C2589 C2590 1.523 . S
C2590 C2571 1.368 . S
C2590 C2584 1.368 . S
C2590 C2589 1.523 . S
C2591 C2575 1.429 . S
C2591 C2587 1.429 . S
C2591 C2592 1.523 . S
C2592 C2576 1.368 . S
C2592 C2588 1.368 . S
C2592 C2591 1.523 . S
H2593 C2568 0.950 . S
H2594 C2570 0.950 . S
H2595 C2571 0.949 . S
H2596 C2573 0.950 . S
H2597 C2575 0.950 . S
C2598 C2599 1.349 . S
C2598 C2600 1.327 . S
C2598 H2623 0.950 . S
C2599 C2598 1.349 . S
C2599 C2615 1.349 . S
C2600 C2598 1.327 . S
C2600 C2619 1.429 . S
C2600 H2624 0.950 . S
C2601 C2618 1.574 . S
C2601 C2620 1.368 . S
C2601 H2625 0.949 . S
H2602 C2606 0.949 . S
C2603 C2604 1.349 . S
C2603 C2605 1.327 . S
C2603 H2626 0.950 . S
C2604 C2603 1.349 . S
C2604 C2616 1.349 . S
C2605 C2603 1.327 . S
C2605 C2621 1.429 . S
C2605 H2627 0.950 . S
C2606 H2602 0.949 . S
C2606 C2614 1.574 . S
C2606 C2622 1.368 . S
H2607 C2615 0.950 . S
H2608 C2613 0.950 . S
H2609 C2614 0.949 . S
H2610 C2616 0.950 . S
H2611 C2617 0.950 . S
H2612 C2618 0.949 . S
C2613 H2608 0.950 . S
C2613 C2615 1.327 . S
C2613 C2619 1.429 . S
C2614 C2606 1.574 . S
C2614 H2609 0.949 . S
C2614 C2620 1.368 . S
C2615 C2599 1.349 . S
C2615 H2607 0.950 . S
C2615 C2613 1.327 . S
C2616 C2604 1.349 . S
C2616 H2610 0.950 . S
C2616 C2617 1.327 . S
C2617 H2611 0.950 . S
C2617 C2616 1.327 . S
C2617 C2621 1.429 . S
C2618 C2601 1.574 . S
C2618 H2612 0.949 . S
C2618 C2622 1.368 . S
C2619 C2600 1.429 . S
C2619 C2613 1.429 . S
C2619 C2620 1.523 . S
C2620 C2601 1.368 . S
C2620 C2614 1.368 . S
C2620 C2619 1.523 . S
C2621 C2605 1.429 . S
C2621 C2617 1.429 . S
C2621 C2622 1.523 . S
C2622 C2606 1.368 . S
C2622 C2618 1.368 . S
C2622 C2621 1.523 . S
H2623 C2598 0.950 . S
H2624 C2600 0.950 . S
H2625 C2601 0.949 . S
H2626 C2603 0.950 . S
H2627 C2605 0.950 . S
C469 C65 1.556 . S
C474 C0 1.556 . S
C499 C39 1.556 . S
C504 C13 1.556 . S
C529 C26 1.556 . S
C534 C52 1.556 . S
C559 C78 1.556 . S
C564 C143 1.556 . S
C589 C91 1.556 . S
C594 C117 1.556 . S
C619 C130 1.556 . S
C624 C104 1.556 . S
C649 C156 1.556 . S
C654 C221 1.556 1_556 S
C679 C169 1.556 . S
C684 C195 1.556 1_556 S
C709 C182 1.556 . S
C714 C208 1.556 1_556 S
C739 C299 1.556 . S
C744 C234 1.556 1_556 S
C769 C247 1.556 1_556 S
C774 C273 1.556 . S
C799 C286 1.556 . S
C804 C260 1.556 1_556 S
C829 C377 1.556 . S
C834 C312 1.556 1_554 S
C859 C351 1.556 . S
C864 C325 1.556 1_554 S
C889 C364 1.556 . S
C894 C338 1.556 1_554 S
C919 C390 1.556 . S
C924 C455 1.556 1_554 S
C949 C403 1.556 . S
C954 C429 1.556 1_554 S
C979 C416 1.556 . S
C984 C442 1.556 1_554 S
C1009 C73 1.093 . S
C1014 C8 1.093 . S
C1039 C21 1.093 . S
C1044 C47 1.093 . S
C1069 C60 1.094 . S
C1074 C34 1.094 . S
C1099 C86 1.093 . S
C1104 C151 1.093 . S
C1129 C99 1.093 . S
C1134 C125 1.093 . S
C1159 C138 1.093 . S
C1164 C112 1.093 . S
C1189 C164 1.093 . S
C1194 C229 1.093 . S
C1219 C203 1.093 . S
C1224 C177 1.093 . S
C1249 C216 1.093 . S
C1254 C190 1.093 . S
C1279 C242 1.093 . S
C1284 C307 1.093 . S
C1309 C255 1.093 . S
C1314 C281 1.093 . S
C1339 C294 1.093 . S
C1344 C268 1.093 . S
C1369 C385 1.093 . S
C1374 C320 1.093 . S
C1399 C333 1.093 . S
C1404 C359 1.093 . S
C1429 C346 1.093 . S
C1434 C372 1.093 . S
C1459 C463 1.093 . S
C1464 C398 1.093 . S
C1489 C437 1.093 . S
C1494 C411 1.093 . S
C1519 C450 1.093 . S
C1524 C424 1.093 . S
C1549 C213 1.603 . S
C1554 C5 1.603 . S
C1579 C226 1.603 . S
C1584 C18 1.603 . S
C1609 C200 1.603 . S
C1614 C31 1.603 . S
C1639 C44 1.603 . S
C1644 C343 1.603 . S
C1669 C57 1.603 . S
C1674 C317 1.603 . S
C1699 C70 1.603 . S
C1704 C330 1.603 . S
C1729 C83 1.603 . S
C1734 C447 1.603 . S
C1759 C96 1.603 . S
C1764 C460 1.603 . S
C1789 C109 1.603 . S
C1794 C434 1.603 . S
C1819 C122 1.603 . S
C1824 C265 1.603 . S
C1849 C239 1.603 . S
C1854 C135 1.603 . S
C1879 C252 1.603 . S
C1884 C148 1.603 . S
C1909 C369 1.603 . S
C1914 C161 1.603 . S
C1939 C174 1.603 . S
C1944 C382 1.603 . S
C1969 C187 1.603 . S
C1974 C356 1.603 . S
C1999 C278 1.603 . S
C2004 C421 1.603 . S
C2029 C291 1.603 . S
C2034 C395 1.603 . S
C2059 C408 1.603 . S
C2064 C304 1.603 . S
C2089 C10 1.222 . S
C2094 C140 1.222 . S
C2119 C153 1.222 . S
C2124 C23 1.222 . S
C2149 C127 1.222 . S
C2154 C36 1.222 . S
C2179 C49 1.222 . S
C2184 C114 1.222 . S
C2209 C62 1.222 . S
C2214 C88 1.222 . S
C2239 C75 1.222 . S
C2244 C101 1.222 . S
C2269 C166 1.222 . S
C2274 C296 1.222 . S
C2299 C309 1.222 . S
C2304 C179 1.222 . S
C2329 C283 1.222 . S
C2334 C192 1.222 . S
C2359 C205 1.222 . S
C2364 C270 1.222 . S
C2389 C218 1.222 . S
C2394 C244 1.222 . S
C2419 C257 1.222 . S
C2424 C231 1.222 . S
C2449 C322 1.222 . S
C2454 C452 1.222 . S
C2479 C465 1.222 . S
C2484 C335 1.222 . S
C2509 C348 1.222 . S
C2514 C439 1.222 . S
C2539 C361 1.222 . S
C2544 C426 1.222 . S
C2569 C400 1.222 . S
C2574 C374 1.222 . S
C2599 C387 1.222 . S
C2604 C413 1.222 . S
