# Generated by pormake.
# Topology uov, (4)-cn, num edge types: 1
# Building blocks:
#     Node 0, Type 0, BuildingBlock: NAHDIM_clean_sbu_0, # of connection points: 4
#     Node 1, Type 0, BuildingBlock: NAHDIM_clean_sbu_0, # of connection points: 4
#     Node 2, Type 0, BuildingBlock: NAHDIM_clean_sbu_0, # of connection points: 4
#     Node 3, Type 0, BuildingBlock: NAHDIM_clean_sbu_0, # of connection points: 4
#     Node 4, Type 0, BuildingBlock: NAHDIM_clean_sbu_0, # of connection points: 4
#     Node 5, Type 0, BuildingBlock: NAHDIM_clean_sbu_0, # of connection points: 4
#     Node 6, Type 0, BuildingBlock: NAHDIM_clean_sbu_0, # of connection points: 4
#     Node 7, Type 0, BuildingBlock: NAHDIM_clean_sbu_0, # of connection points: 4
#     Edge 8, Type (0, 0), BuildingBlock: CIFDUS_clean_linker_0, # of connection points: 2
#     Edge 9, Type (0, 0), BuildingBlock: CIFDUS_clean_linker_0, # of connection points: 2
#     Edge 10, Type (0, 0), BuildingBlock: CIFDUS_clean_linker_0, # of connection points: 2
#     Edge 11, Type (0, 0), BuildingBlock: CIFDUS_clean_linker_0, # of connection points: 2
#     Edge 12, Type (0, 0), BuildingBlock: CIFDUS_clean_linker_0, # of connection points: 2
#     Edge 13, Type (0, 0), BuildingBlock: CIFDUS_clean_linker_0, # of connection points: 2
#     Edge 14, Type (0, 0), BuildingBlock: CIFDUS_clean_linker_0, # of connection points: 2
#     Edge 15, Type (0, 0), BuildingBlock: CIFDUS_clean_linker_0, # of connection points: 2
#     Edge 16, Type (0, 0), BuildingBlock: CIFDUS_clean_linker_0, # of connection points: 2
#     Edge 17, Type (0, 0), BuildingBlock: CIFDUS_clean_linker_0, # of connection points: 2
#     Edge 18, Type (0, 0), BuildingBlock: CIFDUS_clean_linker_0, # of connection points: 2
#     Edge 19, Type (0, 0), BuildingBlock: CIFDUS_clean_linker_0, # of connection points: 2
#     Edge 20, Type (0, 0), BuildingBlock: CIFDUS_clean_linker_0, # of connection points: 2
#     Edge 21, Type (0, 0), BuildingBlock: CIFDUS_clean_linker_0, # of connection points: 2
#     Edge 22, Type (0, 0), BuildingBlock: CIFDUS_clean_linker_0, # of connection points: 2
#     Edge 23, Type (0, 0), BuildingBlock: CIFDUS_clean_linker_0, # of connection points: 2
# Relax obj value: 0.256
# Max RMSD: 0.233
# Mean RMSD: 0.233
data_MOF--net-uov--node1-NAHDIM_clean_sbu_0--edge1-CIFDUS_clean_linker_0
_symmetry_space_group_name_H-M    P1
_symmetry_Int_Tables_number       1
_symmetry_cell_setting            triclinic
loop_
_symmetry_equiv_pos_as_xyz
'x, y, z'
_cell_length_a     26.848415
_cell_length_b     26.647758
_cell_length_c     36.284425
_cell_angle_alpha  90.175289
_cell_angle_beta   90.031839
_cell_angle_gamma 90.068024
loop_
_atom_site_label
_atom_site_type_symbol
_atom_site_fract_x
_atom_site_fract_y
_atom_site_fract_z
_atom_type_partial_charge
C0 C 0.00852 0.37383 0.58048 0.0
O1 O 0.97475 0.34983 0.561 0.0
O2 O 0.98074 0.24681 0.57588 0.0
Zn3 Zn 0.04837 0.27433 0.58841 0.0
O4 O 0.07449 0.24414 0.63523 0.0
C5 C 0.08019 0.25187 0.51415 0.0
O6 O 0.03545 0.2683 0.50585 0.0
O7 O 0.04467 0.34939 0.59416 0.0
C8 C 0.06762 0.19839 0.64367 0.0
O9 O 0.04136 0.1694 0.62167 0.0
C10 C 0.94603 0.23372 0.59761 0.0
O11 O 0.95249 0.23718 0.63342 0.0
O12 O 0.09463 0.25357 0.54751 0.0
C13 C 0.33353 -0.0007 0.35667 0.0
O14 O 0.31466 0.04438 0.35241 0.0
O15 O 0.20823 0.03642 0.37435 0.0
Zn16 Zn 0.23021 0.96846 0.35584 0.0
O17 O 0.20714 0.95115 0.30471 0.0
C18 C 0.20455 0.92201 0.42445 0.0
O19 O 0.22872 0.96075 0.43809 0.0
O20 O 0.30445 0.96179 0.35854 0.0
C21 C 0.16134 0.94404 0.2975 0.0
O22 O 0.12791 0.95259 0.32318 0.0
C23 C 0.17973 0.06786 0.35866 0.0
O24 O 0.1629 0.0584 0.32537 0.0
O25 O 0.20082 0.91727 0.38971 0.0
C26 C 0.01636 0.66378 0.6362 0.0
O27 O 0.05438 0.69058 0.64781 0.0
O28 O 0.03361 0.79159 0.60702 0.0
Zn29 Zn 0.9702 0.76085 0.62549 0.0
O30 O 0.94966 0.7908 0.67398 0.0
C31 C 0.87502 0.79392 0.59507 0.0
O32 O 0.86056 0.79582 0.62962 0.0
O33 O 0.97642 0.68586 0.62681 0.0
C34 C 0.97427 0.79076 0.70388 0.0
O35 O 0.01785 0.76846 0.7051 0.0
C36 C 0.04634 0.77658 0.57512 0.0
O37 O 0.02023 0.74068 0.55937 0.0
O38 O 0.91876 0.77894 0.58755 0.0
C39 C 0.62792 0.00608 0.38666 0.0
O40 O 0.64754 0.96094 0.38738 0.0
O41 O 0.74266 0.97374 0.4328 0.0
Zn42 Zn 0.72805 0.03691 0.40461 0.0
O43 O 0.76896 0.04163 0.35827 0.0
C44 C 0.75057 0.09301 0.47129 0.0
O45 O 0.73218 0.05357 0.48816 0.0
O46 O 0.65543 0.04388 0.39314 0.0
C47 C 0.81431 0.05479 0.36159 0.0
O48 O 0.83301 0.06093 0.39477 0.0
C49 C 0.77052 0.93855 0.42126 0.0
O50 O 0.78871 0.94076 0.38771 0.0
O51 O 0.74977 0.09462 0.43631 0.0
C52 C 0.00223 0.32811 0.13494 0.0
O53 O 0.04302 0.30456 0.12498 0.0
O54 O 0.02517 0.20638 0.10687 0.0
Zn55 Zn 0.96009 0.22919 0.12792 0.0
O56 O 0.94088 0.18887 0.17255 0.0
C57 C 0.92105 0.22723 0.05461 0.0
O58 O 0.96276 0.25136 0.04788 0.0
O59 O 0.96218 0.30324 0.13901 0.0
C60 C 0.91692 0.14808 0.16815 0.0
O61 O 0.90674 0.13249 0.1346 0.0
C62 C 0.05465 0.17287 0.11866 0.0
O63 O 0.04448 0.14941 0.14955 0.0
O64 O 0.91022 0.21626 0.08772 0.0
C65 C 0.33967 0.02339 0.86184 0.0
O66 O 0.31672 0.98184 0.85212 0.0
O67 O 0.22539 0.98325 0.89852 0.0
Zn68 Zn 0.24056 0.05229 0.87929 0.0
O69 O 0.20623 0.06877 0.83173 0.0
C70 C 0.2253 0.08895 0.95183 0.0
O71 O 0.25255 0.04938 0.95942 0.0
O72 O 0.31423 0.06008 0.87383 0.0
C73 C 0.16124 0.0577 0.82442 0.0
O74 O 0.13489 0.03197 0.84831 0.0
C75 C 0.20901 0.94357 0.88326 0.0
O76 O 0.19913 0.94318 0.8478 0.0
O77 O 0.21643 0.09958 0.91833 0.0
C78 C 0.02741 0.62348 0.11095 0.0
O79 O 0.99057 0.64826 0.12629 0.0
O80 O 0.97324 0.72631 0.0581 0.0
Zn81 Zn 0.04319 0.71841 0.07691 0.0
O82 O 0.05722 0.76253 0.12088 0.0
C83 C 0.07727 0.73371 0.00237 0.0
O84 O 0.03806 0.70633 0.99413 0.0
O85 O 0.05621 0.64621 0.08879 0.0
C86 C 0.0373 0.80528 0.12586 0.0
O87 O 0.00424 0.822 0.10222 0.0
C88 C 0.93314 0.7353 0.07546 0.0
O89 O 0.9339 0.73987 0.11152 0.0
O90 O 0.08792 0.74156 0.03606 0.0
C91 C 0.63212 0.98658 0.88256 0.0
O92 O 0.65675 0.02918 0.88383 0.0
O93 O 0.74363 0.00932 0.93239 0.0
Zn94 Zn 0.72648 0.94657 0.90428 0.0
O95 O 0.7688 0.93733 0.85913 0.0
C96 C 0.72931 0.89147 0.97228 0.0
O97 O 0.70385 0.9301 0.98461 0.0
O98 O 0.65455 0.94603 0.89024 0.0
C99 C 0.81258 0.91962 0.86202 0.0
O100 O 0.83074 0.91065 0.89498 0.0
C101 C 0.77263 0.04412 0.9219 0.0
O102 O 0.79269 0.04174 0.88892 0.0
O103 O 0.74066 0.88943 0.93832 0.0
H104 H 0.95229 0.6019 0.60027 0.0
H105 H 0.09206 0.60276 0.65913 0.0
H106 H 0.10209 0.51304 0.64704 0.0
H107 H 0.07172 0.43474 0.61885 0.0
H108 H 0.93266 0.43504 0.55893 0.0
H109 H 0.92205 0.52409 0.57223 0.0
C110 C 0.98482 0.58247 0.6107 0.0
C111 C 0.02131 0.609 0.63066 0.0
C112 C 0.99067 0.53116 0.60324 0.0
C113 C 0.0634 0.58324 0.6437 0.0
C114 C 0.06921 0.53195 0.63674 0.0
C115 C 0.03912 0.45428 0.60865 0.0
C116 C 0.00309 0.42818 0.58788 0.0
C117 C 0.03322 0.50561 0.61633 0.0
C118 C 0.96107 0.45414 0.57489 0.0
C119 C 0.95487 0.50509 0.58255 0.0
H120 H 0.55725 0.93368 0.37861 0.0
H121 H 0.57789 0.09441 0.37821 0.0
H122 H 0.48897 0.10639 0.36777 0.0
H123 H 0.40505 0.07147 0.36029 0.0
H124 H 0.38415 0.91079 0.36181 0.0
H125 H 0.47347 0.8987 0.37017 0.0
C126 C 0.54236 0.97133 0.37611 0.0
C127 C 0.5742 0.01303 0.37929 0.0
C128 C 0.4911 0.97804 0.37037 0.0
C129 C 0.55422 0.06159 0.37601 0.0
C130 C 0.50334 0.06853 0.37002 0.0
C131 C 0.42001 0.03379 0.3623 0.0
C132 C 0.3879 0.99216 0.3605 0.0
C133 C 0.47139 0.02705 0.36739 0.0
C134 C 0.40798 0.94357 0.3632 0.0
C135 C 0.45909 0.93657 0.36799 0.0
H136 H 0.07506 0.39235 0.11373 0.0
H137 H 0.92806 0.38812 0.1618 0.0
H138 H 0.92456 0.47972 0.16113 0.0
H139 H 0.96094 0.56049 0.14307 0.0
H140 H 0.10623 0.56414 0.09219 0.0
H141 H 0.11278 0.47314 0.09799 0.0
C142 C 0.04244 0.41142 0.12443 0.0
C143 C 0.0018 0.38344 0.13764 0.0
C144 C 0.04026 0.46395 0.12326 0.0
C145 C 0.95976 0.40878 0.1513 0.0
C146 C 0.95771 0.46115 0.1509 0.0
C147 C -0.00574 0.54145 0.13358 0.0
C148 C 0.03293 0.569 0.11706 0.0
C149 C -0.00262 0.48905 0.13635 0.0
C150 C 0.07578 0.54375 0.1048 0.0
C151 C 0.07957 0.49173 0.1081 0.0
H152 H 0.40425 0.94597 0.85449 0.0
H153 H 0.39821 0.10647 0.87031 0.0
H154 H 0.48883 0.10962 0.87574 0.0
H155 H 0.56915 0.06612 0.87964 0.0
H156 H 0.57441 0.90509 0.86673 0.0
H157 H 0.48465 0.9029 0.85638 0.0
C158 C 0.42277 0.98172 0.85875 0.0
C159 C 0.39457 0.02587 0.86211 0.0
C160 C 0.4747 0.98314 0.86259 0.0
C161 C 0.4191 0.07188 0.86781 0.0
C162 C 0.4709 0.07373 0.87094 0.0
C163 C 0.55072 0.03061 0.87425 0.0
C164 C 0.57835 0.98585 0.87412 0.0
C165 C 0.49898 0.02948 0.86896 0.0
C166 C 0.55392 0.94008 0.86722 0.0
C167 C 0.5026 0.93876 0.86127 0.0
H168 H 0.215 0.10342 0.42376 0.0
H169 H 0.10137 0.12939 0.34182 0.0
H170 H 0.06305 0.19276 0.38151 0.0
H171 H 0.05711 0.23432 0.44204 0.0
H172 H 0.17051 0.20689 0.524 0.0
H173 H 0.2138 0.151 0.48152 0.0
C174 C 0.18216 0.12332 0.41436 0.0
C175 C 0.16072 0.11118 0.38008 0.0
C176 C 0.16007 0.15928 0.43742 0.0
C177 C 0.11855 0.13782 0.36814 0.0
C178 C 0.09648 0.17395 0.3909 0.0
C179 C 0.09167 0.2167 0.45045 0.0
C180 C 0.1101 0.22434 0.48638 0.0
C181 C 0.11619 0.18403 0.426 0.0
C182 C 0.15518 0.20145 0.49666 0.0
C183 C 0.17996 0.16932 0.4724 0.0
H184 H 0.19382 0.92811 0.49897 0.0
H185 H 0.15756 0.83519 0.40494 0.0
H186 H 0.10941 0.77931 0.44426 0.0
H187 H 0.07254 0.76035 0.50407 0.0
H188 H 0.10554 0.85453 0.598 0.0
H189 H 0.16066 0.90597 0.56001 0.0
C190 C 0.17578 0.89537 0.48714 0.0
C191 C 0.17896 0.88613 0.44901 0.0
C192 C 0.1475 0.86366 0.50984 0.0
C193 C 0.15544 0.84346 0.43415 0.0
C194 C 0.12788 0.81142 0.45661 0.0
C195 C 0.0922 0.79175 0.51643 0.0
C196 C 0.0846 0.8038 0.55375 0.0
C197 C 0.12291 0.82169 0.49432 0.0
C198 C 0.11055 0.84456 0.56928 0.0
C199 C 0.14194 0.8741 0.54755 0.0
H200 H 0.73872 0.92292 0.49138 0.0
H201 H 0.84324 0.86837 0.41024 0.0
H202 H 0.88188 0.81468 0.45651 0.0
H203 H 0.89165 0.79039 0.52124 0.0
H204 H 0.78803 0.8461 0.60259 0.0
H205 H 0.74309 0.89179 0.5548 0.0
C206 C 0.76953 0.8988 0.48365 0.0
C207 C 0.78851 0.90024 0.44751 0.0
C208 C 0.792 0.86852 0.51048 0.0
C209 C 0.82806 0.86828 0.43789 0.0
C210 C 0.85034 0.83769 0.46438 0.0
C211 C 0.85887 0.81203 0.52849 0.0
C212 C 0.84367 0.8154 0.56553 0.0
C213 C 0.83352 0.83864 0.50097 0.0
C214 C 0.80075 0.84309 0.57435 0.0
C215 C 0.7751 0.86939 0.54705 0.0
H216 H 0.76891 0.09643 0.54526 0.0
H217 H 0.79918 0.1742 0.44337 0.0
H218 H 0.85926 0.22777 0.47471 0.0
H219 H 0.90976 0.24629 0.52902 0.0
H220 H 0.88097 0.1692 0.63119 0.0
H221 H 0.81328 0.12201 0.60184 0.0
C222 C 0.78803 0.12564 0.53005 0.0
C223 C 0.78005 0.13071 0.4919 0.0
C224 C 0.82311 0.15614 0.54818 0.0
C225 C 0.80486 0.16908 0.47267 0.0
C226 C 0.8394 0.19971 0.49054 0.0
C227 C 0.88831 0.21952 0.54499 0.0
C228 C 0.90073 0.21059 0.582 0.0
C229 C 0.84989 0.19251 0.52795 0.0
C230 C 0.87215 0.17655 0.60258 0.0
C231 C 0.83364 0.14942 0.58577 0.0
H232 H 0.84221 0.11766 0.9124 0.0
H233 H 0.73828 0.05797 0.99186 0.0
H234 H 0.77154 0.11388 0.03902 0.0
H235 H 0.83572 0.17286 0.05944 0.0
H236 H 0.94129 0.23144 0.98081 0.0
H237 H 0.90124 0.18346 0.93159 0.0
C238 C 0.82636 0.11738 0.93988 0.0
C239 C 0.78831 0.08311 0.94864 0.0
C240 C 0.84611 0.14926 0.96715 0.0
C241 C 0.76795 0.08355 0.98437 0.0
C242 C 0.78698 0.1155 0.01145 0.0
C243 C 0.84957 0.17577 0.03145 0.0
C244 C 0.89186 0.20517 0.02396 0.0
C245 C 0.82695 0.14746 0.00342 0.0
C246 C 0.90899 0.20883 0.98744 0.0
C247 C 0.88623 0.18122 0.95926 0.0
H248 H 0.21678 0.06171 0.02371 0.0
H249 H 0.17495 0.17739 0.94659 0.0
H250 H 0.12254 0.21665 0.99335 0.0
H251 H 0.08237 0.21331 0.05348 0.0
H252 H 0.12019 0.09549 0.12997 0.0
H253 H 0.1811 0.06225 0.08615 0.0
C254 C 0.19682 0.09595 0.0173 0.0
C255 C 0.19937 0.11633 0.98161 0.0
C256 C 0.16582 0.1177 0.04407 0.0
C257 C 0.17328 0.1607 0.97375 0.0
C258 C 0.14325 0.18314 0.00045 0.0
C259 C 0.10425 0.18064 0.06085 0.0
C260 C 0.09625 0.15651 0.09479 0.0
C261 C 0.13822 0.16118 0.0353 0.0
C262 C 0.12536 0.11457 0.10394 0.0
C263 C 0.16008 0.09547 0.07885 0.0
H264 H 0.15748 0.79445 0.01089 0.0
H265 H 0.05645 0.73662 0.92845 0.0
H266 H 0.09238 0.79308 0.88261 0.0
H267 H 0.14622 0.86551 0.86795 0.0
H268 H 0.24415 0.92478 0.95193 0.0
H269 H 0.21594 0.8609 0.99495 0.0
C270 C 0.14369 0.79363 0.98278 0.0
C271 C 0.10392 0.7618 0.97328 0.0
C272 C 0.16374 0.82681 0.95683 0.0
C273 C 0.08687 0.76097 0.93661 0.0
C274 C 0.10728 0.79339 0.91038 0.0
C275 C 0.16197 0.86382 0.89544 0.0
C276 C 0.19678 0.90017 0.90683 0.0
C277 C 0.14479 0.82749 0.92046 0.0
C278 C 0.21684 0.89759 0.94259 0.0
C279 C 0.20075 0.86108 0.96726 0.0
H280 H 0.7846 0.8097 0.95529 0.0
H281 H 0.72839 0.89472 0.04775 0.0
H282 H 0.78202 0.84745 0.08951 0.0
H283 H 0.854 0.79135 0.09806 0.0
H284 H 0.91274 0.7105 0.00444 0.0
H285 H 0.84864 0.74635 0.96497 0.0
C286 C 0.78336 0.81736 0.98466 0.0
C287 C 0.75326 0.85633 -0.00173 0.0
C288 C 0.8152 0.79108 0.0083 0.0
C289 C 0.7516 0.86523 0.03647 0.0
C290 C 0.78245 0.83837 0.06037 0.0
C291 C 0.85198 0.78069 0.06922 0.0
C292 C 0.88845 0.74895 0.05406 0.0
C293 C 0.81582 0.80259 0.04637 0.0
C294 C 0.88544 0.73543 0.01665 0.0
C295 C 0.84887 0.75596 0.99403 0.0
H296 H 0.03941 0.1153 0.68174 0.0
H297 H 0.1471 0.2357 0.68123 0.0
H298 H 0.18647 0.20154 0.7363 0.0
H299 H 0.19025 0.138 0.78463 0.0
H300 H 0.07992 0.02032 0.78816 0.0
H301 H 0.04158 0.0528 0.73178 0.0
C302 C 0.07155 0.13392 0.69369 0.0
C303 C 0.09046 0.17781 0.67739 0.0
C304 C 0.0935 0.11458 0.7258 0.0
C305 C 0.13175 0.20196 0.69336 0.0
C306 C 0.15438 0.18239 0.72477 0.0
C307 C 0.15797 0.11927 0.77294 0.0
C308 C 0.13815 0.07662 0.79027 0.0
C309 C 0.13559 0.13877 0.74118 0.0
C310 C 0.09583 0.05323 0.77522 0.0
C311 C 0.07396 0.07175 0.74302 0.0
H312 H 0.12892 0.81074 0.15602 0.0
H313 H 0.98044 0.87073 0.16547 0.0
H314 H 0.00591 0.92061 0.21917 0.0
H315 H 0.0701 0.94446 0.26478 0.0
H316 H 0.21987 0.88834 0.25201 0.0
H317 H 0.19441 0.84013 0.19797 0.0
C318 C 0.1022 0.83474 0.16992 0.0
C319 C 0.0528 0.83664 0.15735 0.0
C320 C 0.11742 0.86411 0.20001 0.0
C321 C 0.01867 0.86862 0.17491 0.0
C322 C 0.0332 0.89704 0.20556 0.0
C323 C 0.09717 0.92197 0.24995 0.0
C324 C 0.14666 0.91966 0.26253 0.0
C325 C 0.08242 0.89475 0.21854 0.0
C326 C 0.18155 0.89086 0.24284 0.0
C327 C 0.16699 0.86302 0.21205 0.0
H328 H 0.89224 0.84966 0.70717 0.0
H329 H 0.00874 0.78716 0.77496 0.0
H330 H 0.97066 0.82446 0.8298 0.0
H331 H 0.90176 0.87106 0.85869 0.0
H332 H 0.78536 0.93271 0.79025 0.0
H333 H 0.82636 0.89978 0.73538 0.0
C334 C 0.90947 0.84422 0.7339 0.0
C335 C 0.95302 0.81522 0.73699 0.0
C336 C 0.88741 0.86564 0.7652 0.0
C337 C 0.9751 0.80912 0.77182 0.0
C338 C 0.95332 0.83041 0.80319 0.0
C339 C 0.88558 0.87772 0.83175 0.0
C340 C 0.84031 0.90401 0.82866 0.0
C341 C 0.90913 0.85824 0.80024 0.0
C342 C 0.82 0.9124 0.7935 0.0
C343 C 0.84336 0.89348 0.76207 0.0
H344 H 0.79365 0.03449 0.28967 0.0
H345 H 0.90083 0.10828 0.36015 0.0
H346 H 0.94382 0.14162 0.30632 0.0
H347 H 0.94704 0.15539 0.23945 0.0
H348 H 0.84129 0.07986 0.16883 0.0
H349 H 0.80196 0.04144 0.22243 0.0
C350 C 0.82668 0.05748 0.29321 0.0
C351 C 0.84359 0.0694 0.32885 0.0
C352 C 0.85133 0.07652 0.26213 0.0
C353 C 0.88687 0.09866 0.33302 0.0
C354 C 0.91141 0.11795 0.30225 0.0
C355 C 0.9156 0.13024 0.23581 0.0
C356 C 0.89669 0.12103 0.20031 0.0
C357 C 0.89332 0.10804 0.26672 0.0
C358 C 0.85646 0.08773 0.19591 0.0
C359 C 0.83383 0.06584 0.22655 0.0
loop_
_geom_bond_atom_site_label_1
_geom_bond_atom_site_label_2
_geom_bond_distance
_geom_bond_site_symmetry_2
_ccdc_geom_bond_type
C0 O1 1.160 1_455 S
C0 O7 1.185 . S
O1 C0 1.160 1_655 S
O2 Zn3 1.899 1_655 S
O2 C10 1.284 . S
Zn3 O2 1.899 1_455 S
Zn3 O4 2.032 . S
Zn3 O7 2.086 . S
Zn3 O12 1.977 . S
O4 Zn3 2.032 . S
O4 C8 1.278 . S
C5 O6 1.203 . S
C5 O12 1.267 . S
O6 C5 1.203 . S
O7 C0 1.185 . S
O7 Zn3 2.086 . S
C8 O4 1.278 . S
C8 O9 1.211 . S
O9 C8 1.211 . S
C10 O2 1.284 . S
C10 O11 1.273 . S
O11 C10 1.273 . S
O12 Zn3 1.977 . S
O12 C5 1.267 . S
C13 O14 1.160 1_565 S
C13 O20 1.185 . S
O14 C13 1.160 1_545 S
O15 Zn16 1.899 1_545 S
O15 C23 1.284 . S
Zn16 O15 1.899 1_565 S
Zn16 O17 2.032 . S
Zn16 O20 2.086 . S
Zn16 O25 1.977 . S
O17 Zn16 2.032 . S
O17 C21 1.278 . S
C18 O19 1.203 . S
C18 O25 1.267 . S
O19 C18 1.203 . S
O20 C13 1.185 . S
O20 Zn16 2.086 . S
C21 O17 1.278 . S
C21 O22 1.211 . S
O22 C21 1.211 . S
C23 O15 1.284 . S
C23 O24 1.273 . S
O24 C23 1.273 . S
O25 Zn16 1.977 . S
O25 C18 1.267 . S
C26 O27 1.160 1_655 S
C26 O33 1.185 . S
O27 C26 1.160 1_455 S
O28 Zn29 1.899 1_455 S
O28 C36 1.284 . S
Zn29 O28 1.899 1_655 S
Zn29 O30 2.032 . S
Zn29 O33 2.086 . S
Zn29 O38 1.977 . S
O30 Zn29 2.032 . S
O30 C34 1.278 . S
C31 O32 1.203 . S
C31 O38 1.267 . S
O32 C31 1.203 . S
O33 C26 1.185 . S
O33 Zn29 2.086 . S
C34 O30 1.278 . S
C34 O35 1.211 . S
O35 C34 1.211 . S
C36 O28 1.284 . S
C36 O37 1.273 . S
O37 C36 1.273 . S
O38 Zn29 1.977 . S
O38 C31 1.267 . S
C39 O40 1.160 1_545 S
C39 O46 1.185 . S
O40 C39 1.160 1_565 S
O41 Zn42 1.899 1_565 S
O41 C49 1.284 . S
Zn42 O41 1.899 1_545 S
Zn42 O43 2.032 . S
Zn42 O46 2.086 . S
Zn42 O51 1.977 . S
O43 Zn42 2.032 . S
O43 C47 1.278 . S
C44 O45 1.203 . S
C44 O51 1.267 . S
O45 C44 1.203 . S
O46 C39 1.185 . S
O46 Zn42 2.086 . S
C47 O43 1.278 . S
C47 O48 1.211 . S
O48 C47 1.211 . S
C49 O41 1.284 . S
C49 O50 1.273 . S
O50 C49 1.273 . S
O51 Zn42 1.977 . S
O51 C44 1.267 . S
C52 O53 1.160 1_655 S
C52 O59 1.185 . S
O53 C52 1.160 1_455 S
O54 Zn55 1.899 1_455 S
O54 C62 1.284 . S
Zn55 O54 1.899 1_655 S
Zn55 O56 2.032 . S
Zn55 O59 2.086 . S
Zn55 O64 1.977 . S
O56 Zn55 2.032 . S
O56 C60 1.278 . S
C57 O58 1.203 . S
C57 O64 1.267 . S
O58 C57 1.203 . S
O59 C52 1.185 . S
O59 Zn55 2.086 . S
C60 O56 1.278 . S
C60 O61 1.211 . S
O61 C60 1.211 . S
C62 O54 1.284 . S
C62 O63 1.273 . S
O63 C62 1.273 . S
O64 Zn55 1.977 . S
O64 C57 1.267 . S
C65 O66 1.160 1_545 S
C65 O72 1.185 . S
O66 C65 1.160 1_565 S
O67 Zn68 1.899 1_565 S
O67 C75 1.284 . S
Zn68 O67 1.899 1_545 S
Zn68 O69 2.032 . S
Zn68 O72 2.086 . S
Zn68 O77 1.977 . S
O69 Zn68 2.032 . S
O69 C73 1.278 . S
C70 O71 1.203 . S
C70 O77 1.267 . S
O71 C70 1.203 . S
O72 C65 1.185 . S
O72 Zn68 2.086 . S
C73 O69 1.278 . S
C73 O74 1.211 . S
O74 C73 1.211 . S
C75 O67 1.284 . S
C75 O76 1.273 . S
O76 C75 1.273 . S
O77 Zn68 1.977 . S
O77 C70 1.267 . S
C78 O79 1.160 1_455 S
C78 O85 1.185 . S
O79 C78 1.160 1_655 S
O80 Zn81 1.899 1_655 S
O80 C88 1.284 . S
Zn81 O80 1.899 1_455 S
Zn81 O82 2.032 . S
Zn81 O85 2.086 . S
Zn81 O90 1.977 . S
O82 Zn81 2.032 . S
O82 C86 1.278 . S
C83 O84 1.203 . S
C83 O90 1.267 . S
O84 C83 1.203 . S
O85 C78 1.185 . S
O85 Zn81 2.086 . S
C86 O82 1.278 . S
C86 O87 1.211 . S
O87 C86 1.211 . S
C88 O80 1.284 . S
C88 O89 1.273 . S
O89 C88 1.273 . S
O90 Zn81 1.977 . S
O90 C83 1.267 . S
C91 O92 1.160 1_565 S
C91 O98 1.185 . S
O92 C91 1.160 1_545 S
O93 Zn94 1.899 1_545 S
O93 C101 1.284 . S
Zn94 O93 1.899 1_565 S
Zn94 O95 2.032 . S
Zn94 O98 2.086 . S
Zn94 O103 1.977 . S
O95 Zn94 2.032 . S
O95 C99 1.278 . S
C96 O97 1.203 . S
C96 O103 1.267 . S
O97 C96 1.203 . S
O98 C91 1.185 . S
O98 Zn94 2.086 . S
C99 O95 1.278 . S
C99 O100 1.211 . S
O100 C99 1.211 . S
C101 O93 1.284 . S
C101 O102 1.273 . S
O102 C101 1.273 . S
O103 Zn94 1.977 . S
O103 C96 1.267 . S
H104 C110 0.930 . S
H105 C113 0.930 . S
H106 C114 0.930 . S
H107 C115 0.930 . S
H108 C118 0.930 . S
H109 C119 0.930 . S
C110 H104 0.930 . S
C110 C111 1.355 . S
C110 C112 1.415 . S
C111 C110 1.355 . S
C111 C113 1.419 1_655 S
C112 C110 1.415 . S
C112 C117 1.425 1_655 S
C112 C119 1.409 . S
C113 H105 0.930 . S
C113 C111 1.419 1_455 S
C113 C114 1.362 . S
C114 H106 0.930 . S
C114 C113 1.362 . S
C114 C117 1.409 . S
C115 H107 0.930 . S
C115 C116 1.355 . S
C115 C117 1.415 . S
C116 C115 1.355 . S
C116 C118 1.419 1_455 S
C117 C112 1.425 1_455 S
C117 C114 1.409 . S
C117 C115 1.415 . S
C118 H108 0.930 . S
C118 C116 1.419 1_655 S
C118 C119 1.362 . S
C119 H109 0.930 . S
C119 C112 1.409 . S
C119 C118 1.362 . S
H120 C126 0.930 . S
H121 C129 0.930 . S
H122 C130 0.930 . S
H123 C131 0.930 . S
H124 C134 0.930 . S
H125 C135 0.930 . S
C126 H120 0.930 . S
C126 C127 1.355 1_565 S
C126 C128 1.415 . S
C127 C126 1.355 1_545 S
C127 C129 1.419 . S
C128 C126 1.415 . S
C128 C133 1.425 1_565 S
C128 C135 1.409 . S
C129 H121 0.930 . S
C129 C127 1.419 . S
C129 C130 1.362 . S
C130 H122 0.930 . S
C130 C129 1.362 . S
C130 C133 1.409 . S
C131 H123 0.930 . S
C131 C132 1.355 1_545 S
C131 C133 1.415 . S
C132 C131 1.355 1_565 S
C132 C134 1.419 . S
C133 C128 1.425 1_545 S
C133 C130 1.409 . S
C133 C131 1.415 . S
C134 H124 0.930 . S
C134 C132 1.419 . S
C134 C135 1.362 . S
C135 H125 0.930 . S
C135 C128 1.409 . S
C135 C134 1.362 . S
H136 C142 0.930 . S
H137 C145 0.930 . S
H138 C146 0.930 . S
H139 C147 0.930 . S
H140 C150 0.930 . S
H141 C151 0.930 . S
C142 H136 0.930 . S
C142 C143 1.355 1_455 S
C142 C144 1.415 . S
C143 C142 1.355 1_655 S
C143 C145 1.419 . S
C144 C142 1.415 . S
C144 C149 1.425 1_455 S
C144 C151 1.409 . S
C145 H137 0.930 . S
C145 C143 1.419 . S
C145 C146 1.362 . S
C146 H138 0.930 . S
C146 C145 1.362 . S
C146 C149 1.409 . S
C147 H139 0.930 . S
C147 C148 1.355 1_655 S
C147 C149 1.415 . S
C148 C147 1.355 1_455 S
C148 C150 1.419 . S
C149 C144 1.425 1_655 S
C149 C146 1.409 . S
C149 C147 1.415 . S
C150 H140 0.930 . S
C150 C148 1.419 . S
C150 C151 1.362 . S
C151 H141 0.930 . S
C151 C144 1.409 . S
C151 C150 1.362 . S
H152 C158 0.930 . S
H153 C161 0.930 . S
H154 C162 0.930 . S
H155 C163 0.930 . S
H156 C166 0.930 . S
H157 C167 0.930 . S
C158 H152 0.930 . S
C158 C159 1.355 1_565 S
C158 C160 1.415 . S
C159 C158 1.355 1_545 S
C159 C161 1.419 . S
C160 C158 1.415 . S
C160 C165 1.425 1_565 S
C160 C167 1.409 . S
C161 H153 0.930 . S
C161 C159 1.419 . S
C161 C162 1.362 . S
C162 H154 0.930 . S
C162 C161 1.362 . S
C162 C165 1.409 . S
C163 H155 0.930 . S
C163 C164 1.355 1_545 S
C163 C165 1.415 . S
C164 C163 1.355 1_565 S
C164 C166 1.419 . S
C165 C160 1.425 1_545 S
C165 C162 1.409 . S
C165 C163 1.415 . S
C166 H156 0.930 . S
C166 C164 1.419 . S
C166 C167 1.362 . S
C167 H157 0.930 . S
C167 C160 1.409 . S
C167 C166 1.362 . S
H168 C174 0.930 . S
H169 C177 0.930 . S
H170 C178 0.930 . S
H171 C179 0.930 . S
H172 C182 0.930 . S
H173 C183 0.930 . S
C174 H168 0.930 . S
C174 C175 1.355 . S
C174 C176 1.415 . S
C175 C174 1.355 . S
C175 C177 1.419 . S
C176 C174 1.415 . S
C176 C181 1.425 . S
C176 C183 1.409 . S
C177 H169 0.930 . S
C177 C175 1.419 . S
C177 C178 1.362 . S
C178 H170 0.930 . S
C178 C177 1.362 . S
C178 C181 1.409 . S
C179 H171 0.930 . S
C179 C180 1.355 . S
C179 C181 1.415 . S
C180 C179 1.355 . S
C180 C182 1.419 . S
C181 C176 1.425 . S
C181 C178 1.409 . S
C181 C179 1.415 . S
C182 H172 0.930 . S
C182 C180 1.419 . S
C182 C183 1.362 . S
C183 H173 0.930 . S
C183 C176 1.409 . S
C183 C182 1.362 . S
H184 C190 0.930 . S
H185 C193 0.930 . S
H186 C194 0.930 . S
H187 C195 0.930 . S
H188 C198 0.930 1_655 S
H189 C199 0.930 . S
C190 H184 0.930 . S
C190 C191 1.355 . S
C190 C192 1.415 . S
C191 C190 1.355 . S
C191 C193 1.419 . S
C192 C190 1.415 . S
C192 C197 1.425 . S
C192 C199 1.409 . S
C193 H185 0.930 . S
C193 C191 1.419 . S
C193 C194 1.362 . S
C194 H186 0.930 . S
C194 C193 1.362 . S
C194 C197 1.409 . S
C195 H187 0.930 . S
C195 C196 1.355 . S
C195 C197 1.415 . S
C196 C195 1.355 . S
C196 C198 1.419 . S
C197 C192 1.425 . S
C197 C194 1.409 . S
C197 C195 1.415 . S
C198 H188 0.930 1_455 S
C198 C196 1.419 . S
C198 C199 1.362 . S
C199 H189 0.930 . S
C199 C192 1.409 . S
C199 C198 1.362 . S
H200 C206 0.930 . S
H201 C209 0.930 . S
H202 C210 0.930 . S
H203 C211 0.930 . S
H204 C214 0.930 . S
H205 C215 0.930 . S
C206 H200 0.930 . S
C206 C207 1.355 . S
C206 C208 1.415 . S
C207 C206 1.355 . S
C207 C209 1.419 . S
C208 C206 1.415 . S
C208 C213 1.425 . S
C208 C215 1.409 . S
C209 H201 0.930 . S
C209 C207 1.419 . S
C209 C210 1.362 . S
C210 H202 0.930 . S
C210 C209 1.362 . S
C210 C213 1.409 . S
C211 H203 0.930 . S
C211 C212 1.355 . S
C211 C213 1.415 . S
C212 C211 1.355 . S
C212 C214 1.419 . S
C213 C208 1.425 . S
C213 C210 1.409 . S
C213 C211 1.415 . S
C214 H204 0.930 . S
C214 C212 1.419 . S
C214 C215 1.362 . S
C215 H205 0.930 . S
C215 C208 1.409 . S
C215 C214 1.362 . S
H216 C222 0.930 . S
H217 C225 0.930 . S
H218 C226 0.930 . S
H219 C227 0.930 . S
H220 C230 0.930 . S
H221 C231 0.930 . S
C222 H216 0.930 . S
C222 C223 1.355 . S
C222 C224 1.415 . S
C223 C222 1.355 . S
C223 C225 1.419 . S
C224 C222 1.415 . S
C224 C229 1.425 . S
C224 C231 1.409 . S
C225 H217 0.930 . S
C225 C223 1.419 . S
C225 C226 1.362 . S
C226 H218 0.930 . S
C226 C225 1.362 . S
C226 C229 1.409 . S
C227 H219 0.930 . S
C227 C228 1.355 . S
C227 C229 1.415 . S
C228 C227 1.355 . S
C228 C230 1.419 . S
C229 C224 1.425 . S
C229 C226 1.409 . S
C229 C227 1.415 . S
C230 H220 0.930 . S
C230 C228 1.419 . S
C230 C231 1.362 . S
C231 H221 0.930 . S
C231 C224 1.409 . S
C231 C230 1.362 . S
H232 C238 0.930 . S
H233 C241 0.930 . S
H234 C242 0.930 1_554 S
H235 C243 0.930 . S
H236 C246 0.930 . S
H237 C247 0.930 . S
C238 H232 0.930 . S
C238 C239 1.355 . S
C238 C240 1.415 . S
C239 C238 1.355 . S
C239 C241 1.419 . S
C240 C238 1.415 . S
C240 C245 1.425 . S
C240 C247 1.409 . S
C241 H233 0.930 . S
C241 C239 1.419 . S
C241 C242 1.362 . S
C242 H234 0.930 1_556 S
C242 C241 1.362 . S
C242 C245 1.409 . S
C243 H235 0.930 . S
C243 C244 1.355 . S
C243 C245 1.415 1_554 S
C244 C243 1.355 . S
C244 C246 1.419 . S
C245 C240 1.425 . S
C245 C242 1.409 . S
C245 C243 1.415 1_556 S
C246 H236 0.930 . S
C246 C244 1.419 . S
C246 C247 1.362 1_554 S
C247 H237 0.930 . S
C247 C240 1.409 . S
C247 C246 1.362 1_556 S
H248 C254 0.930 . S
H249 C257 0.930 . S
H250 C258 0.930 . S
H251 C259 0.930 . S
H252 C262 0.930 . S
H253 C263 0.930 . S
C254 H248 0.930 . S
C254 C255 1.355 . S
C254 C256 1.415 1_556 S
C255 C254 1.355 . S
C255 C257 1.419 . S
C256 C254 1.415 1_554 S
C256 C261 1.425 . S
C256 C263 1.409 . S
C257 H249 0.930 . S
C257 C255 1.419 . S
C257 C258 1.362 1_556 S
C258 H250 0.930 . S
C258 C257 1.362 1_554 S
C258 C261 1.409 . S
C259 H251 0.930 . S
C259 C260 1.355 . S
C259 C261 1.415 . S
C260 C259 1.355 . S
C260 C262 1.419 . S
C261 C256 1.425 . S
C261 C258 1.409 . S
C261 C259 1.415 . S
C262 H252 0.930 . S
C262 C260 1.419 . S
C262 C263 1.362 . S
C263 H253 0.930 . S
C263 C256 1.409 . S
C263 C262 1.362 . S
H264 C270 0.930 . S
H265 C273 0.930 . S
H266 C274 0.926 1_556 S
H267 C275 0.930 . S
H268 C278 0.930 . S
H269 C279 0.930 . S
C270 H264 0.930 . S
C270 C271 1.355 . S
C270 C272 1.415 1_554 S
C271 C270 1.355 . S
C271 C273 1.419 . S
C272 C270 1.415 1_556 S
C272 C277 1.425 . S
C272 C279 1.409 . S
C273 H265 0.930 . S
C273 C271 1.419 . S
C273 C274 1.383 . S
C274 H266 0.926 1_554 S
C274 C273 1.383 . S
C274 C277 1.394 1_554 S
C275 H267 0.930 . S
C275 C276 1.355 . S
C275 C277 1.415 . S
C276 C275 1.355 . S
C276 C278 1.419 . S
C277 C272 1.425 . S
C277 C274 1.394 1_556 S
C277 C275 1.415 . S
C278 H268 0.930 . S
C278 C276 1.419 . S
C278 C279 1.362 . S
C279 H269 0.930 . S
C279 C272 1.409 . S
C279 C278 1.362 . S
H280 C286 0.930 . S
H281 C289 0.930 . S
H282 C290 0.930 . S
H283 C291 0.930 . S
H284 C294 0.930 1_455 S
H285 C295 0.930 . S
C286 H280 0.930 . S
C286 C287 1.355 . S
C286 C288 1.415 . S
C287 C286 1.355 . S
C287 C289 1.419 1_556 S
C288 C286 1.415 . S
C288 C293 1.425 1_556 S
C288 C295 1.409 . S
C289 H281 0.930 . S
C289 C287 1.419 1_554 S
C289 C290 1.362 . S
C290 H282 0.930 . S
C290 C289 1.362 . S
C290 C293 1.409 . S
C291 H283 0.930 . S
C291 C292 1.355 . S
C291 C293 1.415 . S
C292 C291 1.355 . S
C292 C294 1.419 . S
C293 C288 1.425 1_554 S
C293 C290 1.409 . S
C293 C291 1.415 . S
C294 H284 0.930 1_655 S
C294 C292 1.419 . S
C294 C295 1.362 1_554 S
C295 H285 0.930 . S
C295 C288 1.409 . S
C295 C294 1.362 1_556 S
H296 C302 0.930 . S
H297 C305 0.930 . S
H298 C306 0.930 . S
H299 C307 0.930 . S
H300 C310 0.930 . S
H301 C311 0.930 . S
C302 H296 0.930 . S
C302 C303 1.355 . S
C302 C304 1.415 . S
C303 C302 1.355 . S
C303 C305 1.419 . S
C304 C302 1.415 . S
C304 C309 1.425 . S
C304 C311 1.409 . S
C305 H297 0.930 . S
C305 C303 1.419 . S
C305 C306 1.362 . S
C306 H298 0.930 . S
C306 C305 1.362 . S
C306 C309 1.409 . S
C307 H299 0.930 . S
C307 C308 1.355 . S
C307 C309 1.415 . S
C308 C307 1.355 . S
C308 C310 1.419 . S
C309 C304 1.425 . S
C309 C306 1.409 . S
C309 C307 1.415 . S
C310 H300 0.930 . S
C310 C308 1.419 . S
C310 C311 1.362 . S
C311 H301 0.930 . S
C311 C304 1.409 . S
C311 C310 1.362 . S
H312 C318 0.930 . S
H313 C321 0.930 . S
H314 C322 0.930 . S
H315 C323 0.930 . S
H316 C326 0.930 . S
H317 C327 0.930 . S
C318 H312 0.930 . S
C318 C319 1.355 . S
C318 C320 1.415 . S
C319 C318 1.355 . S
C319 C321 1.419 . S
C320 C318 1.415 . S
C320 C325 1.425 . S
C320 C327 1.409 . S
C321 H313 0.930 . S
C321 C319 1.419 . S
C321 C322 1.362 . S
C322 H314 0.930 . S
C322 C321 1.362 . S
C322 C325 1.409 . S
C323 H315 0.930 . S
C323 C324 1.355 . S
C323 C325 1.415 . S
C324 C323 1.355 . S
C324 C326 1.419 . S
C325 C320 1.425 . S
C325 C322 1.409 . S
C325 C323 1.415 . S
C326 H316 0.930 . S
C326 C324 1.419 . S
C326 C327 1.362 . S
C327 H317 0.930 . S
C327 C320 1.409 . S
C327 C326 1.362 . S
H328 C334 0.930 . S
H329 C337 0.930 . S
H330 C338 0.930 . S
H331 C339 0.930 . S
H332 C342 0.930 . S
H333 C343 0.930 . S
C334 H328 0.930 . S
C334 C335 1.355 . S
C334 C336 1.415 . S
C335 C334 1.355 . S
C335 C337 1.419 . S
C336 C334 1.415 . S
C336 C341 1.425 . S
C336 C343 1.409 . S
C337 H329 0.930 . S
C337 C335 1.419 . S
C337 C338 1.362 . S
C338 H330 0.930 . S
C338 C337 1.362 . S
C338 C341 1.409 . S
C339 H331 0.930 . S
C339 C340 1.355 . S
C339 C341 1.415 . S
C340 C339 1.355 . S
C340 C342 1.419 . S
C341 C336 1.425 . S
C341 C338 1.409 . S
C341 C339 1.415 . S
C342 H332 0.930 . S
C342 C340 1.419 . S
C342 C343 1.362 . S
C343 H333 0.930 . S
C343 C336 1.409 . S
C343 C342 1.362 . S
H344 C350 0.930 . S
H345 C353 0.930 . S
H346 C354 0.930 . S
H347 C355 0.930 . S
H348 C358 0.930 . S
H349 C359 0.930 . S
C350 H344 0.930 . S
C350 C351 1.355 . S
C350 C352 1.415 . S
C351 C350 1.355 . S
C351 C353 1.419 . S
C352 C350 1.415 . S
C352 C357 1.425 . S
C352 C359 1.409 . S
C353 H345 0.930 . S
C353 C351 1.419 . S
C353 C354 1.362 . S
C354 H346 0.930 . S
C354 C353 1.362 . S
C354 C357 1.409 . S
C355 H347 0.930 . S
C355 C356 1.355 . S
C355 C357 1.415 . S
C356 C355 1.355 . S
C356 C358 1.419 . S
C357 C352 1.425 . S
C357 C354 1.409 . S
C357 C355 1.415 . S
C358 H348 0.930 . S
C358 C356 1.419 . S
C358 C359 1.362 . S
C359 H349 0.930 . S
C359 C352 1.409 . S
C359 C358 1.362 . S
C111 C26 1.253 . S
C116 C0 1.238 . S
C127 C39 1.334 . S
C132 C13 1.316 . S
C143 C52 1.339 . S
C148 C78 1.331 . S
C159 C65 1.309 . S
C164 C91 1.330 . S
C175 C23 0.987 . S
C180 C5 0.934 . S
C191 C18 0.941 . S
C196 C36 0.942 . S
C207 C49 0.985 . S
C212 C31 0.944 . S
C223 C44 0.989 . S
C228 C10 0.966 . S
C239 C101 0.954 . S
C244 C57 0.880 . S
C255 C70 0.997 . S
C260 C62 0.954 . S
C271 C83 0.837 . S
C276 C75 0.987 . S
C287 C96 0.976 . S
C292 C88 0.942 . S
C303 C8 1.600 . S
C308 C73 1.608 . S
C319 C86 1.595 . S
C324 C21 1.588 . S
C335 C34 1.652 . S
C340 C99 1.648 . S
C351 C47 1.566 . S
C356 C60 1.566 . S
