# Generated by pormake.
# Topology sml, (6)-cn, num edge types: 1
# Building blocks:
#     Node 0, Type 0, BuildingBlock: MIFKUJ_clean_sbu_0, # of connection points: 6
#     Node 1, Type 0, BuildingBlock: MIFKUJ_clean_sbu_0, # of connection points: 6
#     Node 2, Type 0, BuildingBlock: MIFKUJ_clean_sbu_0, # of connection points: 6
#     Node 3, Type 0, BuildingBlock: MIFKUJ_clean_sbu_0, # of connection points: 6
#     Node 4, Type 0, BuildingBlock: MIFKUJ_clean_sbu_0, # of connection points: 6
#     Node 5, Type 0, BuildingBlock: MIFKUJ_clean_sbu_0, # of connection points: 6
#     Edge 6, Type (0, 0), BuildingBlock: OJICUG_clean_linker_0, # of connection points: 2
#     Edge 7, Type (0, 0), BuildingBlock: OJICUG_clean_linker_0, # of connection points: 2
#     Edge 8, Type (0, 0), BuildingBlock: OJICUG_clean_linker_0, # of connection points: 2
#     Edge 9, Type (0, 0), BuildingBlock: OJICUG_clean_linker_0, # of connection points: 2
#     Edge 10, Type (0, 0), BuildingBlock: OJICUG_clean_linker_0, # of connection points: 2
#     Edge 11, Type (0, 0), BuildingBlock: OJICUG_clean_linker_0, # of connection points: 2
#     Edge 12, Type (0, 0), BuildingBlock: OJICUG_clean_linker_0, # of connection points: 2
#     Edge 13, Type (0, 0), BuildingBlock: OJICUG_clean_linker_0, # of connection points: 2
#     Edge 14, Type (0, 0), BuildingBlock: OJICUG_clean_linker_0, # of connection points: 2
#     Edge 15, Type (0, 0), BuildingBlock: OJICUG_clean_linker_0, # of connection points: 2
#     Edge 16, Type (0, 0), BuildingBlock: OJICUG_clean_linker_0, # of connection points: 2
#     Edge 17, Type (0, 0), BuildingBlock: OJICUG_clean_linker_0, # of connection points: 2
#     Edge 18, Type (0, 0), BuildingBlock: OJICUG_clean_linker_0, # of connection points: 2
#     Edge 19, Type (0, 0), BuildingBlock: OJICUG_clean_linker_0, # of connection points: 2
#     Edge 20, Type (0, 0), BuildingBlock: OJICUG_clean_linker_0, # of connection points: 2
#     Edge 21, Type (0, 0), BuildingBlock: OJICUG_clean_linker_0, # of connection points: 2
#     Edge 22, Type (0, 0), BuildingBlock: OJICUG_clean_linker_0, # of connection points: 2
#     Edge 23, Type (0, 0), BuildingBlock: OJICUG_clean_linker_0, # of connection points: 2
# Relax obj value: 0.139
# Max RMSD: 0.181
# Mean RMSD: 0.181
data_MOF--net-sml--node1-MIFKUJ_clean_sbu_0--edge1-OJICUG_clean_linker_0
_symmetry_space_group_name_H-M    P1
_symmetry_Int_Tables_number       1
_symmetry_cell_setting            triclinic
loop_
_symmetry_equiv_pos_as_xyz
'x, y, z'
_cell_length_a     28.343336
_cell_length_b     28.248978
_cell_length_c     14.254784
_cell_angle_alpha  89.221764
_cell_angle_beta   90.311944
_cell_angle_gamma 120.02333
loop_
_atom_site_label
_atom_site_type_symbol
_atom_site_fract_x
_atom_site_fract_y
_atom_site_fract_z
_atom_type_partial_charge
Zn0 Zn 0.22863 0.46458 0.10452 0.0
Zn1 Zn 0.19821 0.41527 0.87747 0.0
C2 C 0.25878 0.57046 0.16794 0.0
O3 O 0.29723 0.56367 0.20644 0.0
C4 C 0.22307 0.33112 0.85229 0.0
O5 O 0.16983 0.30241 0.84378 0.0
O6 O 0.24566 0.45138 0.23486 0.0
O7 O 0.15277 0.40073 0.08525 0.0
O8 O 0.1276 0.36807 0.94288 0.0
C9 C 0.20818 0.44582 0.29032 0.0
O10 O 0.16651 0.44866 0.25619 0.0
O11 O 0.22402 0.53359 0.11465 0.0
C12 C 0.22542 0.43638 0.69058 0.0
O13 O 0.27351 0.45605 0.73008 0.0
O14 O 0.18312 0.41632 0.74199 0.0
O15 O 0.24204 0.49465 0.9105 0.0
O16 O 0.29096 0.48199 0.01575 0.0
O17 O 0.24501 0.38049 0.87844 0.0
C18 C 0.11714 0.36722 0.02935 0.0
C19 C 0.28844 0.50716 0.94325 0.0
Zn20 Zn 0.77165 0.20285 0.44242 0.0
Zn21 Zn 0.7959 0.17434 0.21575 0.0
C22 C 0.69437 0.23469 0.48158 0.0
O23 O 0.74003 0.2816 0.4885 0.0
C24 C 0.90398 0.20826 0.16937 0.0
O25 O 0.87766 0.15963 0.1314 0.0
O26 O 0.80194 0.2225 0.57154 0.0
O27 O 0.76263 0.12793 0.42338 0.0
O28 O 0.77282 0.10328 0.2823 0.0
C29 C 0.77107 0.18479 0.62872 0.0
O30 O 0.72733 0.14176 0.5966 0.0
O31 O 0.69635 0.19269 0.45687 0.0
C32 C 0.80214 0.20224 0.02772 0.0
O33 O 0.82951 0.25057 0.06646 0.0
O34 O 0.78132 0.15965 0.07974 0.0
O35 O 0.75593 0.21469 0.24372 0.0
O36 O 0.81261 0.26669 0.35115 0.0
O37 O 0.87768 0.22369 0.22068 0.0
C38 C 0.76228 0.09262 0.36889 0.0
C39 C 0.78486 0.2618 0.27807 0.0
Zn40 Zn 0.58426 0.78497 0.77528 0.0
Zn41 Zn 0.60075 0.77015 0.56088 0.0
C42 C 0.4799 0.70204 0.81471 0.0
O43 O 0.47819 0.74699 0.8291 0.0
C44 C 0.69075 0.8735 0.5067 0.0
O45 O 0.70306 0.84123 0.46039 0.0
O46 O 0.59007 0.80759 0.91087 0.0
O47 O 0.65733 0.79138 0.74633 0.0
O48 O 0.62893 0.72892 0.63712 0.0
C49 C 0.59987 0.77728 0.96513 0.0
O50 O 0.60854 0.74004 0.92771 0.0
O51 O 0.52413 0.70578 0.78611 0.0
C52 C 0.58415 0.78144 0.36939 0.0
O53 O 0.57035 0.81478 0.40793 0.0
O54 O 0.59759 0.75346 0.42256 0.0
O55 O 0.5256 0.75306 0.59405 0.0
O56 O 0.55322 0.82203 0.69075 0.0
O57 O 0.651 0.85229 0.56423 0.0
C58 C 0.65859 0.75169 0.70814 0.0
C59 C 0.51873 0.78971 0.63134 0.0
Zn60 Zn 0.76305 0.54149 0.12293 0.0
Zn61 Zn 0.79904 0.56998 0.90675 0.0
C62 C 0.75341 0.43923 0.15277 0.0
O63 O 0.70305 0.42922 0.16033 0.0
C64 C 0.78097 0.66092 0.88137 0.0
O65 O 0.83419 0.68828 0.87156 0.0
O66 O 0.74315 0.54222 0.25896 0.0
O67 O 0.82382 0.61956 0.09891 0.0
O68 O 0.86745 0.60652 0.98376 0.0
C69 C 0.78463 0.55681 0.3116 0.0
O70 O 0.83168 0.57061 0.27226 0.0
O71 O 0.79084 0.48751 0.13133 0.0
C72 C 0.77173 0.55159 0.7172 0.0
O73 O 0.72418 0.53335 0.75802 0.0
O74 O 0.81422 0.56962 0.76835 0.0
O75 O 0.7493 0.49233 0.94179 0.0
O76 O 0.69734 0.50834 0.03418 0.0
O77 O 0.75761 0.61094 0.90682 0.0
C78 C 0.86807 0.63084 0.05842 0.0
C79 C 0.70213 0.48107 0.96815 0.0
Zn80 Zn 0.24111 0.80799 0.46385 0.0
Zn81 Zn 0.18794 0.82124 0.22712 0.0
C82 C 0.31673 0.78256 0.54144 0.0
O83 O 0.27036 0.73731 0.55734 0.0
C84 C 0.07415 0.78275 0.22401 0.0
O85 O 0.09162 0.83485 0.20815 0.0
O86 O 0.20001 0.78807 0.5852 0.0
O87 O 0.24766 0.87917 0.42445 0.0
O88 O 0.21551 0.89299 0.29191 0.0
C89 C 0.22042 0.8274 0.64265 0.0
O90 O 0.26271 0.87402 0.61623 0.0
O91 O 0.31602 0.82218 0.49953 0.0
C92 C 0.16958 0.79777 0.03568 0.0
O93 O 0.14417 0.74814 0.07188 0.0
O94 O 0.19217 0.83841 0.09022 0.0
O95 O 0.23126 0.78242 0.23526 0.0
O96 O 0.21066 0.74364 0.37661 0.0
O97 O 0.10832 0.76795 0.24671 0.0
C98 C 0.23967 0.91015 0.36972 0.0
C99 C 0.22546 0.74491 0.29218 0.0
Zn100 Zn 0.42182 0.2187 0.73331 0.0
Zn101 Zn 0.40748 0.23847 0.51724 0.0
C102 C 0.5206 0.29871 0.79086 0.0
O103 O 0.52138 0.25273 0.79922 0.0
C104 C 0.31794 0.13342 0.47876 0.0
O105 O 0.30218 0.16366 0.43255 0.0
O106 O 0.4117 0.19105 0.86864 0.0
O107 O 0.34905 0.21033 0.6956 0.0
O108 O 0.37782 0.27746 0.59227 0.0
C109 C 0.39822 0.21867 0.92111 0.0
O110 O 0.3873 0.25435 0.88143 0.0
O111 O 0.47872 0.29766 0.75566 0.0
C112 C 0.42008 0.2227 0.32606 0.0
O113 O 0.4362 0.19147 0.36778 0.0
O114 O 0.40697 0.25131 0.37659 0.0
O115 O 0.48358 0.25932 0.55033 0.0
O116 O 0.45971 0.18963 0.64784 0.0
O117 O 0.3604 0.15678 0.5296 0.0
C118 C 0.34767 0.25138 0.66171 0.0
C119 C 0.49309 0.22399 0.58805 0.0
C120 C 0.3347 0.32796 0.71429 0.0
C121 C 0.31559 0.27163 0.71023 0.0
H122 H 0.32141 0.39108 0.76601 0.0
C123 C 0.26738 0.23507 0.75788 0.0
H124 H 0.37226 0.35702 0.67946 0.0
C125 C 0.23778 0.25445 0.80624 0.0
C126 C 0.25689 0.3108 0.81032 0.0
H127 H 0.2521 0.19144 0.75642 0.0
H128 H 0.19986 0.22541 0.84009 0.0
C129 C 0.30601 0.34743 0.76496 0.0
C130 C 0.03086 0.27719 0.01875 0.0
C131 C 0.06309 0.32618 0.0666 0.0
H132 H 0.95602 0.20106 0.01506 0.0
C133 C 0.04351 0.33524 0.15108 0.0
H134 H 0.045 0.26886 0.95394 0.0
C135 C 0.99219 0.29657 0.18585 0.0
C136 C 0.95995 0.24763 0.13776 0.0
H137 H 0.06736 0.3727 0.18942 0.0
H138 H 0.97762 0.30513 0.24993 0.0
C139 C 0.98009 0.23813 0.05438 0.0
C140 C 0.72163 0.02033 0.49508 0.0
C141 C 0.74757 0.03784 0.40723 0.0
H142 H 0.68347 0.95482 0.5957 0.0
C143 C 0.75824 0.00208 0.35602 0.0
H144 H 0.71271 0.04673 0.53643 0.0
C145 C 0.74221 0.94962 0.39084 0.0
C146 C 0.71444 0.93145 0.47702 0.0
H147 H 0.77847 0.01438 0.2885 0.0
H148 H 0.74986 0.92265 0.34837 0.0
C149 C 0.70491 0.96762 0.52927 0.0
C150 C 0.67043 0.67231 0.75135 0.0
C151 C 0.69019 0.72885 0.7527 0.0
H152 H 0.6827 0.60635 0.79422 0.0
C153 C 0.73882 0.76279 0.80087 0.0
H154 H 0.63264 0.64513 0.71588 0.0
C155 C 0.76809 0.74071 0.84431 0.0
C156 C 0.74817 0.68411 0.84321 0.0
H157 H 0.75472 0.8065 0.80345 0.0
H158 H 0.80628 0.76784 0.87871 0.0
C159 C 0.69872 0.65007 0.79726 0.0
C160 C 0.01157 0.69291 0.15086 0.0
C161 C 0.01948 0.74158 0.19089 0.0
H162 H 0.95795 0.6208 0.07432 0.0
C163 C 0.97668 0.7531 0.18853 0.0
H164 H 0.04387 0.683 0.15105 0.0
C165 C 0.92698 0.7167 0.1464 0.0
C166 C 0.92015 0.66936 0.1029 0.0
H167 H 0.98184 0.79045 0.21842 0.0
H168 H 0.89441 0.72623 0.14563 0.0
C169 C 0.9627 0.65761 0.10591 0.0
C170 C 0.31181 0.04274 0.50356 0.0
C171 C 0.29376 0.07481 0.45679 0.0
H172 H 0.30963 0.9662 0.51179 0.0
C173 C 0.25647 0.05181 0.38251 0.0
H174 H 0.34077 0.05931 0.56065 0.0
C175 C 0.23878 0.99833 0.35395 0.0
C176 C 0.25769 0.96665 0.39964 0.0
H177 H 0.24204 0.07558 0.34455 0.0
H178 H 0.21054 0.98196 0.29586 0.0
C179 C 0.29394 0.98929 0.47538 0.0
C180 C 0.26639 0.45115 0.53095 0.0
C181 C 0.2208 0.43697 0.588 0.0
H182 H 0.29802 0.46446 0.39105 0.0
C183 C 0.17077 0.4234 0.5462 0.0
H184 H 0.3054 0.46138 0.56144 0.0
C185 C 0.16666 0.42528 0.4491 0.0
C186 C 0.21239 0.44033 0.39206 0.0
H187 H 0.13493 0.4121 0.58845 0.0
H188 H 0.12768 0.41534 0.41883 0.0
C189 C 0.26215 0.45258 0.43355 0.0
C190 C 0.8257 0.2438 0.86707 0.0
C191 C 0.79608 0.19766 0.92532 0.0
H192 H 0.84147 0.27585 0.72653 0.0
C193 C 0.76023 0.14713 0.88494 0.0
H194 H 0.85395 0.28322 0.89643 0.0
C195 C 0.75301 0.14304 0.78819 0.0
C196 C 0.78184 0.18929 0.72998 0.0
H197 H 0.73704 0.11085 0.92807 0.0
H198 H 0.72447 0.10361 0.75914 0.0
C199 C 0.81882 0.23959 0.76995 0.0
C200 C 0.60428 0.74616 0.22339 0.0
C201 C 0.58796 0.78018 0.26595 0.0
H202 H 0.62127 0.71901 0.09544 0.0
C203 C 0.57677 0.81441 0.20873 0.0
H204 H 0.61349 0.71955 0.26535 0.0
C205 C 0.5815 0.81437 0.11107 0.0
C206 C 0.59744 0.78003 0.06855 0.0
H207 H 0.56436 0.84139 0.23928 0.0
H208 H 0.57215 0.84083 0.06896 0.0
C209 C 0.60892 0.74606 0.12586 0.0
C210 C 0.82537 0.57272 0.56791 0.0
C211 C 0.77509 0.55282 0.61346 0.0
H212 H 0.86772 0.58984 0.43728 0.0
C213 C 0.7277 0.53483 0.55879 0.0
H214 H 0.86261 0.58703 0.60781 0.0
C215 C 0.73056 0.53659 0.46072 0.0
C216 C 0.78085 0.55628 0.41525 0.0
H217 H 0.68824 0.51937 0.59168 0.0
H218 H 0.69336 0.52219 0.42068 0.0
C219 C 0.82821 0.57439 0.46999 0.0
C220 C 0.22177 0.86541 0.7997 0.0
C221 C 0.20135 0.82001 0.74047 0.0
H222 H 0.22727 0.89406 0.93942 0.0
C223 C 0.16612 0.76766 0.77753 0.0
H224 H 0.24858 0.90638 0.7729 0.0
C225 C 0.154 0.76059 0.87329 0.0
C226 C 0.17676 0.80578 0.9333 0.0
H227 H 0.14964 0.73195 0.73342 0.0
H228 H 0.12824 0.71954 0.90063 0.0
C229 C 0.2095 0.85839 0.89515 0.0
C230 C 0.42755 0.18832 0.16832 0.0
C231 C 0.41391 0.22115 0.22249 0.0
H232 H 0.43291 0.16121 0.03089 0.0
C233 C 0.39308 0.2511 0.17686 0.0
H234 H 0.44344 0.16442 0.20126 0.0
C235 C 0.38671 0.24888 0.0794 0.0
C236 C 0.40104 0.21669 0.02498 0.0
H237 H 0.38178 0.27642 0.21634 0.0
H238 H 0.37106 0.27306 0.04666 0.0
C239 C 0.42121 0.18613 0.07063 0.0
C240 C 0.26617 0.63648 0.28881 0.0
C241 C 0.2518 0.61639 0.19729 0.0
H242 H 0.26796 0.69215 0.39093 0.0
C243 C 0.22932 0.63929 0.13639 0.0
H244 H 0.28321 0.61922 0.33743 0.0
C245 C 0.22181 0.68204 0.1665 0.0
C246 C 0.23494 0.70115 0.2589 0.0
H247 H 0.21799 0.62445 0.06548 0.0
H248 H 0.20466 0.69931 0.11823 0.0
C249 C 0.2571 0.67792 0.31971 0.0
C250 C 0.63793 0.27813 0.5079 0.0
C251 C 0.64222 0.23079 0.50789 0.0
H252 H 0.58744 0.3128 0.53337 0.0
C253 C 0.59724 0.18074 0.53693 0.0
H254 H 0.67191 0.31727 0.48619 0.0
C255 C 0.54887 0.17831 0.5659 0.0
C256 C 0.54452 0.22569 0.56424 0.0
H257 H 0.59971 0.14369 0.5385 0.0
H258 H 0.51464 0.13937 0.58765 0.0
C259 C 0.58952 0.27552 0.53496 0.0
C260 C 0.33322 0.59547 0.85444 0.0
C261 C 0.33785 0.55483 0.90453 0.0
H262 H 0.37497 0.67408 0.78723 0.0
C263 C 0.38976 0.56085 0.91796 0.0
H264 H 0.29379 0.59194 0.84273 0.0
C265 C 0.43633 0.60745 0.88363 0.0
C266 C 0.43153 0.64908 0.83756 0.0
H267 H 0.39436 0.52984 0.95562 0.0
H268 H 0.4761 0.61208 0.89687 0.0
C269 C 0.37963 0.64242 0.82245 0.0
C270 C 0.73325 0.29788 0.18889 0.0
C271 C 0.77942 0.30821 0.2416 0.0
H272 H 0.68909 0.33141 0.11987 0.0
C273 C 0.81936 0.36276 0.25912 0.0
H274 H 0.70175 0.25639 0.17399 0.0
C275 C 0.81266 0.40602 0.22572 0.0
C276 C 0.76534 0.39523 0.17629 0.0
H277 H 0.85554 0.37193 0.29898 0.0
H278 H 0.84329 0.44766 0.24188 0.0
C279 C 0.726 0.34083 0.15768 0.0
C280 C 0.4161 0.83594 0.58385 0.0
C281 C 0.36858 0.78554 0.56774 0.0
H282 H 0.50128 0.87684 0.61949 0.0
C283 C 0.3707 0.73711 0.5764 0.0
H284 H 0.41538 0.87385 0.57812 0.0
C285 C 0.41956 0.73895 0.59806 0.0
C286 C 0.46716 0.78915 0.61381 0.0
H287 H 0.33481 0.6977 0.56431 0.0
H288 H 0.42006 0.70088 0.60264 0.0
C289 C 0.46498 0.83767 0.60805 0.0
C290 C 0.66194 0.39713 0.87262 0.0
C291 C 0.65453 0.43561 0.92211 0.0
H292 H 0.62539 0.32442 0.79148 0.0
C293 C 0.60274 0.4309 0.92299 0.0
H294 H 0.70132 0.39961 0.87021 0.0
C295 C 0.55903 0.38785 0.87573 0.0
C296 C 0.56667 0.34877 0.82867 0.0
H297 H 0.59612 0.46039 0.95974 0.0
H298 H 0.51906 0.38397 0.87888 0.0
C299 C 0.61851 0.35411 0.82709 0.0
loop_
_geom_bond_atom_site_label_1
_geom_bond_atom_site_label_2
_geom_bond_distance
_geom_bond_site_symmetry_2
_ccdc_geom_bond_type
Zn0 O6 1.969 . S
Zn0 O7 1.965 . S
Zn0 O11 2.024 . S
Zn0 O16 1.969 . S
Zn1 O8 1.969 . S
Zn1 O14 1.969 . S
Zn1 O15 1.965 . S
Zn1 O17 2.024 . S
C2 O3 1.229 . S
C2 O11 1.058 . S
O3 C2 1.229 . S
C4 O5 1.229 . S
C4 O17 1.058 . S
O5 C4 1.229 . S
O6 Zn0 1.969 . S
O6 C9 1.267 . S
O7 Zn0 1.965 . S
O7 C18 1.260 . S
O8 Zn1 1.969 . S
O8 C18 1.258 1_556 S
C9 O6 1.267 . S
C9 O10 1.228 . S
O10 C9 1.228 . S
O11 Zn0 2.024 . S
O11 C2 1.058 . S
C12 O13 1.228 . S
C12 O14 1.267 . S
O13 C12 1.228 . S
O14 Zn1 1.969 . S
O14 C12 1.267 . S
O15 Zn1 1.965 . S
O15 C19 1.260 . S
O16 Zn0 1.969 . S
O16 C19 1.258 1_554 S
O17 Zn1 2.024 . S
O17 C4 1.058 . S
C18 O7 1.260 . S
C18 O8 1.258 1_554 S
C19 O15 1.260 . S
C19 O16 1.258 1_556 S
Zn20 O26 1.969 . S
Zn20 O27 1.965 . S
Zn20 O31 2.024 . S
Zn20 O36 1.969 . S
Zn21 O28 1.969 . S
Zn21 O34 1.969 . S
Zn21 O35 1.965 . S
Zn21 O37 2.024 . S
C22 O23 1.229 . S
C22 O31 1.058 . S
O23 C22 1.229 . S
C24 O25 1.229 . S
C24 O37 1.058 . S
O25 C24 1.229 . S
O26 Zn20 1.969 . S
O26 C29 1.267 . S
O27 Zn20 1.965 . S
O27 C38 1.260 . S
O28 Zn21 1.969 . S
O28 C38 1.258 . S
C29 O26 1.267 . S
C29 O30 1.228 . S
O30 C29 1.228 . S
O31 Zn20 2.024 . S
O31 C22 1.058 . S
C32 O33 1.228 . S
C32 O34 1.267 . S
O33 C32 1.228 . S
O34 Zn21 1.969 . S
O34 C32 1.267 . S
O35 Zn21 1.965 . S
O35 C39 1.260 . S
O36 Zn20 1.969 . S
O36 C39 1.258 . S
O37 Zn21 2.024 . S
O37 C24 1.058 . S
C38 O27 1.260 . S
C38 O28 1.258 . S
C39 O35 1.260 . S
C39 O36 1.258 . S
Zn40 O46 1.969 . S
Zn40 O47 1.965 . S
Zn40 O51 2.024 . S
Zn40 O56 1.969 . S
Zn41 O48 1.969 . S
Zn41 O54 1.969 . S
Zn41 O55 1.965 . S
Zn41 O57 2.024 . S
C42 O43 1.229 . S
C42 O51 1.058 . S
O43 C42 1.229 . S
C44 O45 1.229 . S
C44 O57 1.058 . S
O45 C44 1.229 . S
O46 Zn40 1.969 . S
O46 C49 1.267 . S
O47 Zn40 1.965 . S
O47 C58 1.260 . S
O48 Zn41 1.969 . S
O48 C58 1.258 . S
C49 O46 1.267 . S
C49 O50 1.228 . S
O50 C49 1.228 . S
O51 Zn40 2.024 . S
O51 C42 1.058 . S
C52 O53 1.228 . S
C52 O54 1.267 . S
O53 C52 1.228 . S
O54 Zn41 1.969 . S
O54 C52 1.267 . S
O55 Zn41 1.965 . S
O55 C59 1.260 . S
O56 Zn40 1.969 . S
O56 C59 1.258 . S
O57 Zn41 2.024 . S
O57 C44 1.058 . S
C58 O47 1.260 . S
C58 O48 1.258 . S
C59 O55 1.260 . S
C59 O56 1.258 . S
Zn60 O66 1.969 . S
Zn60 O67 1.965 . S
Zn60 O71 2.024 . S
Zn60 O76 1.969 . S
Zn61 O68 1.969 . S
Zn61 O74 1.969 . S
Zn61 O75 1.965 . S
Zn61 O77 2.024 . S
C62 O63 1.229 . S
C62 O71 1.058 . S
O63 C62 1.229 . S
C64 O65 1.229 . S
C64 O77 1.058 . S
O65 C64 1.229 . S
O66 Zn60 1.969 . S
O66 C69 1.267 . S
O67 Zn60 1.965 . S
O67 C78 1.260 . S
O68 Zn61 1.969 . S
O68 C78 1.258 1_556 S
C69 O66 1.267 . S
C69 O70 1.228 . S
O70 C69 1.228 . S
O71 Zn60 2.024 . S
O71 C62 1.058 . S
C72 O73 1.228 . S
C72 O74 1.267 . S
O73 C72 1.228 . S
O74 Zn61 1.969 . S
O74 C72 1.267 . S
O75 Zn61 1.965 . S
O75 C79 1.260 . S
O76 Zn60 1.969 . S
O76 C79 1.258 1_554 S
O77 Zn61 2.024 . S
O77 C64 1.058 . S
C78 O67 1.260 . S
C78 O68 1.258 1_554 S
C79 O75 1.260 . S
C79 O76 1.258 1_556 S
Zn80 O86 1.969 . S
Zn80 O87 1.965 . S
Zn80 O91 2.024 . S
Zn80 O96 1.969 . S
Zn81 O88 1.969 . S
Zn81 O94 1.969 . S
Zn81 O95 1.965 . S
Zn81 O97 2.024 . S
C82 O83 1.229 . S
C82 O91 1.058 . S
O83 C82 1.229 . S
C84 O85 1.229 . S
C84 O97 1.058 . S
O85 C84 1.229 . S
O86 Zn80 1.969 . S
O86 C89 1.267 . S
O87 Zn80 1.965 . S
O87 C98 1.260 . S
O88 Zn81 1.969 . S
O88 C98 1.258 . S
C89 O86 1.267 . S
C89 O90 1.228 . S
O90 C89 1.228 . S
O91 Zn80 2.024 . S
O91 C82 1.058 . S
C92 O93 1.228 . S
C92 O94 1.267 . S
O93 C92 1.228 . S
O94 Zn81 1.969 . S
O94 C92 1.267 . S
O95 Zn81 1.965 . S
O95 C99 1.260 . S
O96 Zn80 1.969 . S
O96 C99 1.258 . S
O97 Zn81 2.024 . S
O97 C84 1.058 . S
C98 O87 1.260 . S
C98 O88 1.258 . S
C99 O95 1.260 . S
C99 O96 1.258 . S
Zn100 O106 1.969 . S
Zn100 O107 1.965 . S
Zn100 O111 2.024 . S
Zn100 O116 1.969 . S
Zn101 O108 1.969 . S
Zn101 O114 1.969 . S
Zn101 O115 1.965 . S
Zn101 O117 2.024 . S
C102 O103 1.229 . S
C102 O111 1.058 . S
O103 C102 1.229 . S
C104 O105 1.229 . S
C104 O117 1.058 . S
O105 C104 1.229 . S
O106 Zn100 1.969 . S
O106 C109 1.267 . S
O107 Zn100 1.965 . S
O107 C118 1.260 . S
O108 Zn101 1.969 . S
O108 C118 1.258 . S
C109 O106 1.267 . S
C109 O110 1.228 . S
O110 C109 1.228 . S
O111 Zn100 2.024 . S
O111 C102 1.058 . S
C112 O113 1.228 . S
C112 O114 1.267 . S
O113 C112 1.228 . S
O114 Zn101 1.969 . S
O114 C112 1.267 . S
O115 Zn101 1.965 . S
O115 C119 1.260 . S
O116 Zn100 1.969 . S
O116 C119 1.258 . S
O117 Zn101 2.024 . S
O117 C104 1.058 . S
C118 O107 1.260 . S
C118 O108 1.258 . S
C119 O115 1.260 . S
C119 O116 1.258 . S
C120 C121 1.387 . S
C120 H124 0.950 . S
C120 C129 1.390 . S
C121 C120 1.387 . S
C121 C123 1.387 . S
H122 C129 0.950 . S
C123 C121 1.387 . S
C123 C125 1.390 . S
C123 H127 0.950 . S
H124 C120 0.950 . S
C125 C123 1.390 . S
C125 C126 1.387 . S
C125 H128 0.950 . S
C126 C125 1.387 . S
C126 C129 1.387 . S
H127 C123 0.950 . S
H128 C125 0.950 . S
C129 C120 1.390 . S
C129 H122 0.950 . S
C129 C126 1.387 . S
C130 C131 1.387 . S
C130 H134 0.950 1_554 S
C130 C139 1.390 1_455 S
C131 C130 1.387 . S
C131 C133 1.387 . S
H132 C139 0.950 . S
C133 C131 1.387 . S
C133 C135 1.390 . S
C133 H137 0.950 . S
H134 C130 0.950 1_556 S
C135 C133 1.390 . S
C135 C136 1.387 1_455 S
C135 H138 0.950 . S
C136 C135 1.387 1_655 S
C136 C139 1.387 . S
H137 C133 0.950 . S
H138 C135 0.950 . S
C139 C130 1.390 1_655 S
C139 H132 0.950 . S
C139 C136 1.387 . S
C140 C141 1.387 . S
C140 H144 0.950 . S
C140 C149 1.390 . S
C141 C140 1.387 . S
C141 C143 1.387 . S
H142 C149 0.950 . S
C143 C141 1.387 . S
C143 C145 1.390 1_545 S
C143 H147 0.950 . S
H144 C140 0.950 . S
C145 C143 1.390 1_565 S
C145 C146 1.387 . S
C145 H148 0.950 . S
C146 C145 1.387 . S
C146 C149 1.387 1_565 S
H147 C143 0.950 . S
H148 C145 0.950 . S
C149 C140 1.390 . S
C149 H142 0.950 . S
C149 C146 1.387 1_545 S
C150 C151 1.387 . S
C150 H154 0.950 . S
C150 C159 1.390 . S
C151 C150 1.387 . S
C151 C153 1.387 . S
H152 C159 0.950 . S
C153 C151 1.387 . S
C153 C155 1.390 . S
C153 H157 0.950 . S
H154 C150 0.950 . S
C155 C153 1.390 . S
C155 C156 1.387 . S
C155 H158 0.950 . S
C156 C155 1.387 . S
C156 C159 1.387 . S
H157 C153 0.950 . S
H158 C155 0.950 . S
C159 C150 1.390 . S
C159 H152 0.950 . S
C159 C156 1.387 . S
C160 C161 1.387 1_655 S
C160 H164 0.950 1_655 S
C160 C169 1.390 . S
C161 C160 1.387 1_455 S
C161 C163 1.387 1_455 S
H162 C169 0.950 . S
C163 C161 1.387 1_655 S
C163 C165 1.391 . S
C163 H167 0.950 1_655 S
H164 C160 0.950 1_455 S
C165 C163 1.391 . S
C165 C166 1.387 . S
C165 H168 0.950 . S
C166 C165 1.387 . S
C166 C169 1.387 . S
H167 C163 0.950 1_455 S
H168 C165 0.950 . S
C169 C160 1.390 . S
C169 H162 0.950 . S
C169 C166 1.387 . S
C170 C171 1.387 1_565 S
C170 H174 0.950 . S
C170 C179 1.390 . S
C171 C170 1.387 1_545 S
C171 C173 1.387 . S
H172 C179 0.950 . S
C173 C171 1.387 . S
C173 C175 1.390 1_545 S
C173 H177 0.950 . S
H174 C170 0.950 . S
C175 C173 1.390 1_565 S
C175 C176 1.387 . S
C175 H178 0.950 . S
C176 C175 1.387 . S
C176 C179 1.387 . S
H177 C173 0.950 . S
H178 C175 0.950 . S
C179 C170 1.390 . S
C179 H172 0.950 . S
C179 C176 1.387 . S
C180 C181 1.387 . S
C180 H184 0.950 . S
C180 C189 1.390 . S
C181 C180 1.387 . S
C181 C183 1.387 . S
H182 C189 0.950 . S
C183 C181 1.387 . S
C183 C185 1.390 . S
C183 H187 0.950 . S
H184 C180 0.950 . S
C185 C183 1.390 . S
C185 C186 1.387 . S
C185 H188 0.950 . S
C186 C185 1.387 . S
C186 C189 1.387 . S
H187 C183 0.950 . S
H188 C185 0.950 . S
C189 C180 1.390 . S
C189 H182 0.950 . S
C189 C186 1.387 . S
C190 C191 1.387 . S
C190 H194 0.950 . S
C190 C199 1.390 . S
C191 C190 1.387 . S
C191 C193 1.387 . S
H192 C199 0.950 . S
C193 C191 1.387 . S
C193 C195 1.390 . S
C193 H197 0.950 . S
H194 C190 0.950 . S
C195 C193 1.390 . S
C195 C196 1.387 . S
C195 H198 0.950 . S
C196 C195 1.387 . S
C196 C199 1.387 . S
H197 C193 0.950 . S
H198 C195 0.950 . S
C199 C190 1.390 . S
C199 H192 0.950 . S
C199 C196 1.387 . S
C200 C201 1.387 . S
C200 H204 0.950 . S
C200 C209 1.390 . S
C201 C200 1.387 . S
C201 C203 1.387 . S
H202 C209 0.950 . S
C203 C201 1.387 . S
C203 C205 1.390 . S
C203 H207 0.950 . S
H204 C200 0.950 . S
C205 C203 1.390 . S
C205 C206 1.387 . S
C205 H208 0.950 . S
C206 C205 1.387 . S
C206 C209 1.387 . S
H207 C203 0.950 . S
H208 C205 0.950 . S
C209 C200 1.390 . S
C209 H202 0.950 . S
C209 C206 1.387 . S
C210 C211 1.387 . S
C210 H214 0.950 . S
C210 C219 1.390 . S
C211 C210 1.387 . S
C211 C213 1.387 . S
H212 C219 0.950 . S
C213 C211 1.387 . S
C213 C215 1.390 . S
C213 H217 0.950 . S
H214 C210 0.950 . S
C215 C213 1.390 . S
C215 C216 1.387 . S
C215 H218 0.950 . S
C216 C215 1.387 . S
C216 C219 1.387 . S
H217 C213 0.950 . S
H218 C215 0.950 . S
C219 C210 1.390 . S
C219 H212 0.950 . S
C219 C216 1.387 . S
C220 C221 1.387 . S
C220 H224 0.950 . S
C220 C229 1.390 . S
C221 C220 1.387 . S
C221 C223 1.387 . S
H222 C229 0.950 . S
C223 C221 1.387 . S
C223 C225 1.390 . S
C223 H227 0.950 . S
H224 C220 0.950 . S
C225 C223 1.390 . S
C225 C226 1.387 . S
C225 H228 0.950 . S
C226 C225 1.387 . S
C226 C229 1.387 . S
H227 C223 0.950 . S
H228 C225 0.950 . S
C229 C220 1.390 . S
C229 H222 0.950 . S
C229 C226 1.387 . S
C230 C231 1.387 . S
C230 H234 0.950 . S
C230 C239 1.390 . S
C231 C230 1.387 . S
C231 C233 1.387 . S
H232 C239 0.950 . S
C233 C231 1.387 . S
C233 C235 1.390 . S
C233 H237 0.950 . S
H234 C230 0.950 . S
C235 C233 1.390 . S
C235 C236 1.387 . S
C235 H238 0.950 . S
C236 C235 1.387 . S
C236 C239 1.387 . S
H237 C233 0.950 . S
H238 C235 0.950 . S
C239 C230 1.390 . S
C239 H232 0.950 . S
C239 C236 1.387 . S
C240 C241 1.387 . S
C240 H244 0.950 . S
C240 C249 1.390 . S
C241 C240 1.387 . S
C241 C243 1.387 . S
H242 C249 0.950 . S
C243 C241 1.387 . S
C243 C245 1.390 . S
C243 H247 0.950 . S
H244 C240 0.950 . S
C245 C243 1.390 . S
C245 C246 1.387 . S
C245 H248 0.950 . S
C246 C245 1.387 . S
C246 C249 1.387 . S
H247 C243 0.950 . S
H248 C245 0.950 . S
C249 C240 1.390 . S
C249 H242 0.950 . S
C249 C246 1.387 . S
C250 C251 1.387 . S
C250 H254 0.950 . S
C250 C259 1.390 . S
C251 C250 1.387 . S
C251 C253 1.387 . S
H252 C259 0.950 . S
C253 C251 1.387 . S
C253 C255 1.390 . S
C253 H257 0.950 . S
H254 C250 0.950 . S
C255 C253 1.390 . S
C255 C256 1.387 . S
C255 H258 0.950 . S
C256 C255 1.387 . S
C256 C259 1.387 . S
H257 C253 0.950 . S
H258 C255 0.950 . S
C259 C250 1.390 . S
C259 H252 0.950 . S
C259 C256 1.387 . S
C260 C261 1.387 . S
C260 H264 0.950 . S
C260 C269 1.390 . S
C261 C260 1.387 . S
C261 C263 1.387 . S
H262 C269 0.950 . S
C263 C261 1.387 . S
C263 C265 1.390 . S
C263 H267 0.950 1_556 S
H264 C260 0.950 . S
C265 C263 1.390 . S
C265 C266 1.387 . S
C265 H268 0.950 . S
C266 C265 1.387 . S
C266 C269 1.387 . S
H267 C263 0.950 1_554 S
H268 C265 0.950 . S
C269 C260 1.390 . S
C269 H262 0.950 . S
C269 C266 1.387 . S
C270 C271 1.387 . S
C270 H274 0.950 . S
C270 C279 1.390 . S
C271 C270 1.387 . S
C271 C273 1.387 . S
H272 C279 0.950 . S
C273 C271 1.387 . S
C273 C275 1.390 . S
C273 H277 0.950 . S
H274 C270 0.950 . S
C275 C273 1.390 . S
C275 C276 1.387 . S
C275 H278 0.950 . S
C276 C275 1.387 . S
C276 C279 1.387 . S
H277 C273 0.950 . S
H278 C275 0.950 . S
C279 C270 1.390 . S
C279 H272 0.950 . S
C279 C276 1.387 . S
C280 C281 1.387 . S
C280 H284 0.950 . S
C280 C289 1.390 . S
C281 C280 1.387 . S
C281 C283 1.387 . S
H282 C289 0.950 . S
C283 C281 1.387 . S
C283 C285 1.390 . S
C283 H287 0.950 . S
H284 C280 0.950 . S
C285 C283 1.390 . S
C285 C286 1.387 . S
C285 H288 0.950 . S
C286 C285 1.387 . S
C286 C289 1.387 . S
H287 C283 0.950 . S
H288 C285 0.950 . S
C289 C280 1.390 . S
C289 H282 0.950 . S
C289 C286 1.387 . S
C290 C291 1.387 . S
C290 H294 0.950 . S
C290 C299 1.390 . S
C291 C290 1.387 . S
C291 C293 1.387 . S
H292 C299 0.950 . S
C293 C291 1.387 . S
C293 C295 1.390 . S
C293 H297 0.950 1_556 S
H294 C290 0.950 . S
C295 C293 1.390 . S
C295 C296 1.387 . S
C295 H298 0.950 . S
C296 C295 1.387 . S
C296 C299 1.387 . S
H297 C293 0.950 1_554 S
H298 C295 0.950 . S
C299 C290 1.390 . S
C299 H292 0.950 . S
C299 C296 1.387 . S
C121 C118 1.486 . S
C126 C4 1.394 . S
C131 C18 1.487 . S
C136 C24 1.397 . S
C141 C38 1.486 . S
C146 C44 1.393 . S
C151 C58 1.486 . S
C156 C64 1.394 . S
C161 C84 1.393 . S
C166 C78 1.486 . S
C171 C104 1.395 . S
C176 C98 1.486 . S
C181 C12 1.289 . S
C186 C9 1.289 . S
C191 C32 1.290 1_556 S
C196 C29 1.290 . S
C201 C52 1.293 . S
C206 C49 1.293 1_554 S
C211 C72 1.290 . S
C216 C69 1.290 . S
C221 C89 1.293 . S
C226 C92 1.293 1_556 S
C231 C112 1.290 . S
C236 C109 1.290 1_554 S
C241 C2 1.429 . S
C246 C99 1.531 . S
C251 C22 1.425 . S
C256 C119 1.532 . S
C261 C19 1.533 . S
C266 C42 1.427 . S
C271 C39 1.534 . S
C276 C62 1.426 . S
C281 C82 1.429 . S
C286 C59 1.532 . S
C291 C79 1.534 . S
C296 C102 1.426 . S
