# Generated by pormake.
# Topology yfq, (5)-cn, num edge types: 1
# Building blocks:
#     Node 0, Type 0, BuildingBlock: BEQFEK_clean_sbu_0, # of connection points: 5
#     Node 1, Type 0, BuildingBlock: BEQFEK_clean_sbu_0, # of connection points: 5
#     Node 2, Type 0, BuildingBlock: BEQFEK_clean_sbu_0, # of connection points: 5
#     Node 3, Type 0, BuildingBlock: BEQFEK_clean_sbu_0, # of connection points: 5
#     Node 4, Type 0, BuildingBlock: BEQFEK_clean_sbu_0, # of connection points: 5
#     Node 5, Type 0, BuildingBlock: BEQFEK_clean_sbu_0, # of connection points: 5
#     Node 6, Type 0, BuildingBlock: BEQFEK_clean_sbu_0, # of connection points: 5
#     Node 7, Type 0, BuildingBlock: BEQFEK_clean_sbu_0, # of connection points: 5
#     Node 8, Type 0, BuildingBlock: BEQFEK_clean_sbu_0, # of connection points: 5
#     Node 9, Type 0, BuildingBlock: BEQFEK_clean_sbu_0, # of connection points: 5
#     Node 10, Type 0, BuildingBlock: BEQFEK_clean_sbu_0, # of connection points: 5
#     Node 11, Type 0, BuildingBlock: BEQFEK_clean_sbu_0, # of connection points: 5
#     Node 12, Type 0, BuildingBlock: BEQFEK_clean_sbu_0, # of connection points: 5
#     Node 13, Type 0, BuildingBlock: BEQFEK_clean_sbu_0, # of connection points: 5
#     Node 14, Type 0, BuildingBlock: BEQFEK_clean_sbu_0, # of connection points: 5
#     Node 15, Type 0, BuildingBlock: BEQFEK_clean_sbu_0, # of connection points: 5
#     Node 16, Type 0, BuildingBlock: BEQFEK_clean_sbu_0, # of connection points: 5
#     Node 17, Type 0, BuildingBlock: BEQFEK_clean_sbu_0, # of connection points: 5
#     Node 18, Type 0, BuildingBlock: BEQFEK_clean_sbu_0, # of connection points: 5
#     Node 19, Type 0, BuildingBlock: BEQFEK_clean_sbu_0, # of connection points: 5
#     Node 20, Type 0, BuildingBlock: BEQFEK_clean_sbu_0, # of connection points: 5
#     Node 21, Type 0, BuildingBlock: BEQFEK_clean_sbu_0, # of connection points: 5
#     Node 22, Type 0, BuildingBlock: BEQFEK_clean_sbu_0, # of connection points: 5
#     Node 23, Type 0, BuildingBlock: BEQFEK_clean_sbu_0, # of connection points: 5
#     Node 24, Type 0, BuildingBlock: BEQFEK_clean_sbu_0, # of connection points: 5
#     Node 25, Type 0, BuildingBlock: BEQFEK_clean_sbu_0, # of connection points: 5
#     Node 26, Type 0, BuildingBlock: BEQFEK_clean_sbu_0, # of connection points: 5
#     Node 27, Type 0, BuildingBlock: BEQFEK_clean_sbu_0, # of connection points: 5
#     Node 28, Type 0, BuildingBlock: BEQFEK_clean_sbu_0, # of connection points: 5
#     Node 29, Type 0, BuildingBlock: BEQFEK_clean_sbu_0, # of connection points: 5
#     Node 30, Type 0, BuildingBlock: BEQFEK_clean_sbu_0, # of connection points: 5
#     Node 31, Type 0, BuildingBlock: BEQFEK_clean_sbu_0, # of connection points: 5
#     Edge 32, Type (0, 0), BuildingBlock: XUDNAN_clean_linker_2, # of connection points: 2
#     Edge 33, Type (0, 0), BuildingBlock: XUDNAN_clean_linker_2, # of connection points: 2
#     Edge 34, Type (0, 0), BuildingBlock: XUDNAN_clean_linker_2, # of connection points: 2
#     Edge 35, Type (0, 0), BuildingBlock: XUDNAN_clean_linker_2, # of connection points: 2
#     Edge 36, Type (0, 0), BuildingBlock: XUDNAN_clean_linker_2, # of connection points: 2
#     Edge 37, Type (0, 0), BuildingBlock: XUDNAN_clean_linker_2, # of connection points: 2
#     Edge 38, Type (0, 0), BuildingBlock: XUDNAN_clean_linker_2, # of connection points: 2
#     Edge 39, Type (0, 0), BuildingBlock: XUDNAN_clean_linker_2, # of connection points: 2
#     Edge 40, Type (0, 0), BuildingBlock: XUDNAN_clean_linker_2, # of connection points: 2
#     Edge 41, Type (0, 0), BuildingBlock: XUDNAN_clean_linker_2, # of connection points: 2
#     Edge 42, Type (0, 0), BuildingBlock: XUDNAN_clean_linker_2, # of connection points: 2
#     Edge 43, Type (0, 0), BuildingBlock: XUDNAN_clean_linker_2, # of connection points: 2
#     Edge 44, Type (0, 0), BuildingBlock: XUDNAN_clean_linker_2, # of connection points: 2
#     Edge 45, Type (0, 0), BuildingBlock: XUDNAN_clean_linker_2, # of connection points: 2
#     Edge 46, Type (0, 0), BuildingBlock: XUDNAN_clean_linker_2, # of connection points: 2
#     Edge 47, Type (0, 0), BuildingBlock: XUDNAN_clean_linker_2, # of connection points: 2
#     Edge 48, Type (0, 0), BuildingBlock: XUDNAN_clean_linker_2, # of connection points: 2
#     Edge 49, Type (0, 0), BuildingBlock: XUDNAN_clean_linker_2, # of connection points: 2
#     Edge 50, Type (0, 0), BuildingBlock: XUDNAN_clean_linker_2, # of connection points: 2
#     Edge 51, Type (0, 0), BuildingBlock: XUDNAN_clean_linker_2, # of connection points: 2
#     Edge 52, Type (0, 0), BuildingBlock: XUDNAN_clean_linker_2, # of connection points: 2
#     Edge 53, Type (0, 0), BuildingBlock: XUDNAN_clean_linker_2, # of connection points: 2
#     Edge 54, Type (0, 0), BuildingBlock: XUDNAN_clean_linker_2, # of connection points: 2
#     Edge 55, Type (0, 0), BuildingBlock: XUDNAN_clean_linker_2, # of connection points: 2
#     Edge 56, Type (0, 0), BuildingBlock: XUDNAN_clean_linker_2, # of connection points: 2
#     Edge 57, Type (0, 0), BuildingBlock: XUDNAN_clean_linker_2, # of connection points: 2
#     Edge 58, Type (0, 0), BuildingBlock: XUDNAN_clean_linker_2, # of connection points: 2
#     Edge 59, Type (0, 0), BuildingBlock: XUDNAN_clean_linker_2, # of connection points: 2
#     Edge 60, Type (0, 0), BuildingBlock: XUDNAN_clean_linker_2, # of connection points: 2
#     Edge 61, Type (0, 0), BuildingBlock: XUDNAN_clean_linker_2, # of connection points: 2
#     Edge 62, Type (0, 0), BuildingBlock: XUDNAN_clean_linker_2, # of connection points: 2
#     Edge 63, Type (0, 0), BuildingBlock: XUDNAN_clean_linker_2, # of connection points: 2
#     Edge 64, Type (0, 0), BuildingBlock: XUDNAN_clean_linker_2, # of connection points: 2
#     Edge 65, Type (0, 0), BuildingBlock: XUDNAN_clean_linker_2, # of connection points: 2
#     Edge 66, Type (0, 0), BuildingBlock: XUDNAN_clean_linker_2, # of connection points: 2
#     Edge 67, Type (0, 0), BuildingBlock: XUDNAN_clean_linker_2, # of connection points: 2
#     Edge 68, Type (0, 0), BuildingBlock: XUDNAN_clean_linker_2, # of connection points: 2
#     Edge 69, Type (0, 0), BuildingBlock: XUDNAN_clean_linker_2, # of connection points: 2
#     Edge 70, Type (0, 0), BuildingBlock: XUDNAN_clean_linker_2, # of connection points: 2
#     Edge 71, Type (0, 0), BuildingBlock: XUDNAN_clean_linker_2, # of connection points: 2
#     Edge 72, Type (0, 0), BuildingBlock: XUDNAN_clean_linker_2, # of connection points: 2
#     Edge 73, Type (0, 0), BuildingBlock: XUDNAN_clean_linker_2, # of connection points: 2
#     Edge 74, Type (0, 0), BuildingBlock: XUDNAN_clean_linker_2, # of connection points: 2
#     Edge 75, Type (0, 0), BuildingBlock: XUDNAN_clean_linker_2, # of connection points: 2
#     Edge 76, Type (0, 0), BuildingBlock: XUDNAN_clean_linker_2, # of connection points: 2
#     Edge 77, Type (0, 0), BuildingBlock: XUDNAN_clean_linker_2, # of connection points: 2
#     Edge 78, Type (0, 0), BuildingBlock: XUDNAN_clean_linker_2, # of connection points: 2
#     Edge 79, Type (0, 0), BuildingBlock: XUDNAN_clean_linker_2, # of connection points: 2
#     Edge 80, Type (0, 0), BuildingBlock: XUDNAN_clean_linker_2, # of connection points: 2
#     Edge 81, Type (0, 0), BuildingBlock: XUDNAN_clean_linker_2, # of connection points: 2
#     Edge 82, Type (0, 0), BuildingBlock: XUDNAN_clean_linker_2, # of connection points: 2
#     Edge 83, Type (0, 0), BuildingBlock: XUDNAN_clean_linker_2, # of connection points: 2
#     Edge 84, Type (0, 0), BuildingBlock: XUDNAN_clean_linker_2, # of connection points: 2
#     Edge 85, Type (0, 0), BuildingBlock: XUDNAN_clean_linker_2, # of connection points: 2
#     Edge 86, Type (0, 0), BuildingBlock: XUDNAN_clean_linker_2, # of connection points: 2
#     Edge 87, Type (0, 0), BuildingBlock: XUDNAN_clean_linker_2, # of connection points: 2
#     Edge 88, Type (0, 0), BuildingBlock: XUDNAN_clean_linker_2, # of connection points: 2
#     Edge 89, Type (0, 0), BuildingBlock: XUDNAN_clean_linker_2, # of connection points: 2
#     Edge 90, Type (0, 0), BuildingBlock: XUDNAN_clean_linker_2, # of connection points: 2
#     Edge 91, Type (0, 0), BuildingBlock: XUDNAN_clean_linker_2, # of connection points: 2
#     Edge 92, Type (0, 0), BuildingBlock: XUDNAN_clean_linker_2, # of connection points: 2
#     Edge 93, Type (0, 0), BuildingBlock: XUDNAN_clean_linker_2, # of connection points: 2
#     Edge 94, Type (0, 0), BuildingBlock: XUDNAN_clean_linker_2, # of connection points: 2
#     Edge 95, Type (0, 0), BuildingBlock: XUDNAN_clean_linker_2, # of connection points: 2
#     Edge 96, Type (0, 0), BuildingBlock: XUDNAN_clean_linker_2, # of connection points: 2
#     Edge 97, Type (0, 0), BuildingBlock: XUDNAN_clean_linker_2, # of connection points: 2
#     Edge 98, Type (0, 0), BuildingBlock: XUDNAN_clean_linker_2, # of connection points: 2
#     Edge 99, Type (0, 0), BuildingBlock: XUDNAN_clean_linker_2, # of connection points: 2
#     Edge 100, Type (0, 0), BuildingBlock: XUDNAN_clean_linker_2, # of connection points: 2
#     Edge 101, Type (0, 0), BuildingBlock: XUDNAN_clean_linker_2, # of connection points: 2
#     Edge 102, Type (0, 0), BuildingBlock: XUDNAN_clean_linker_2, # of connection points: 2
#     Edge 103, Type (0, 0), BuildingBlock: XUDNAN_clean_linker_2, # of connection points: 2
#     Edge 104, Type (0, 0), BuildingBlock: XUDNAN_clean_linker_2, # of connection points: 2
#     Edge 105, Type (0, 0), BuildingBlock: XUDNAN_clean_linker_2, # of connection points: 2
#     Edge 106, Type (0, 0), BuildingBlock: XUDNAN_clean_linker_2, # of connection points: 2
#     Edge 107, Type (0, 0), BuildingBlock: XUDNAN_clean_linker_2, # of connection points: 2
#     Edge 108, Type (0, 0), BuildingBlock: XUDNAN_clean_linker_2, # of connection points: 2
#     Edge 109, Type (0, 0), BuildingBlock: XUDNAN_clean_linker_2, # of connection points: 2
#     Edge 110, Type (0, 0), BuildingBlock: XUDNAN_clean_linker_2, # of connection points: 2
#     Edge 111, Type (0, 0), BuildingBlock: XUDNAN_clean_linker_2, # of connection points: 2
# Relax obj value: 0.339
# Max RMSD: 0.196
# Mean RMSD: 0.196
data_MOF--net-yfq--node1-BEQFEK_clean_sbu_0--edge1-XUDNAN_clean_linker_2
_symmetry_space_group_name_H-M    P1
_symmetry_Int_Tables_number       1
_symmetry_cell_setting            triclinic
loop_
_symmetry_equiv_pos_as_xyz
'x, y, z'
_cell_length_a     56.908071
_cell_length_b     56.877225
_cell_length_c     62.034593
_cell_angle_alpha  89.998823
_cell_angle_beta   89.984441
_cell_angle_gamma 89.977028
loop_
_atom_site_label
_atom_site_type_symbol
_atom_site_fract_x
_atom_site_fract_y
_atom_site_fract_z
_atom_type_partial_charge
Co0 Co 0.11454 0.20933 0.3082 0.0
Co1 Co 0.11294 0.1773 0.26632 0.0
C2 C 0.07584 0.21265 0.27522 0.0
O3 O 0.08541 0.21838 0.29299 0.0
O4 O 0.08483 0.19725 0.26289 0.0
C5 C 0.1173 0.25423 0.32685 0.0
O6 O 0.11314 0.26 0.30669 0.0
C7 C 0.11002 0.16581 0.22015 0.0
C8 C 0.13353 0.13511 0.21715 0.0
C9 C 0.12013 0.15071 0.20518 0.0
N10 N 0.11761 0.15988 0.23997 0.0
N11 N 0.13136 0.14124 0.23808 0.0
C12 C 0.09267 0.18507 0.21591 0.0
H13 H 0.07673 0.18193 0.22576 0.0
H14 H 0.10033 0.2022 0.2208 0.0
H15 H 0.08715 0.18579 0.1988 0.0
C16 C 0.16007 0.22243 0.28961 0.0
N17 N 0.14044 0.20933 0.28942 0.0
N18 N 0.13957 0.19714 0.27138 0.0
C19 C 0.1583 0.20304 0.25911 0.0
C20 C 0.17169 0.21937 0.27029 0.0
C21 C 0.16818 0.23722 0.30815 0.0
H22 H 0.16231 0.22948 0.32363 0.0
H23 H 0.16095 0.25522 0.3065 0.0
H24 H 0.18764 0.23861 0.30822 0.0
O25 O 0.11018 0.17814 0.32012 0.0
O26 O 0.10669 0.15504 0.29121 0.0
H27 H 0.16506 0.17595 0.23609 0.0
H28 H 0.17709 0.20418 0.22871 0.0
C29 C 0.16193 0.19518 0.23633 0.0
H30 H 0.1459 0.19893 0.22681 0.0
H31 H 0.13999 0.13324 0.25099 0.0
O32 O 0.11877 0.23259 0.3318 0.0
C33 C 0.10672 0.15811 0.31163 0.0
Co34 Co 0.03024 0.85965 0.55408 0.0
Co35 Co 0.06492 0.85486 0.5146 0.0
C36 C 0.02662 0.82007 0.52228 0.0
O37 O 0.02013 0.83052 0.53941 0.0
O38 O 0.04334 0.82787 0.51072 0.0
C39 C 0.98524 0.86486 0.57354 0.0
O40 O 0.97814 0.859 0.55412 0.0
C41 C 0.07507 0.85534 0.46866 0.0
C42 C 0.11343 0.86098 0.46718 0.0
C43 C 0.09361 0.85835 0.45442 0.0
N44 N 0.08344 0.85644 0.48889 0.0
N45 N 0.10643 0.85962 0.48792 0.0
C46 C 0.04991 0.85016 0.46339 0.0
H47 H 0.03818 0.8575 0.476 0.0
H48 H 0.04482 0.85708 0.44737 0.0
H49 H 0.04745 0.83081 0.46315 0.0
C50 C 0.02186 0.90603 0.53404 0.0
N51 N 0.03292 0.88511 0.53474 0.0
N52 N 0.04755 0.88348 0.51833 0.0
C53 C 0.04598 0.90341 0.50657 0.0
C54 C 0.02958 0.91815 0.51605 0.0
C55 C 0.00307 0.91355 0.5495 0.0
H56 H 0.0085 0.9094 0.56622 0.0
H57 H 0.98666 0.90392 0.54575 0.0
H58 H -0.00078 0.93258 0.54841 0.0
O59 O 0.0607 0.85372 0.56755 0.0
O60 O 0.08551 0.848 0.54022 0.0
H61 H 0.06052 0.92795 0.48362 0.0
H62 H 0.05202 0.89997 0.47272 0.0
C63 C 0.06012 0.90875 0.48682 0.0
H64 H 0.07836 0.90231 0.48881 0.0
H65 H 0.11728 0.86122 0.5014 0.0
O66 O 0.00714 0.86629 0.57733 0.0
C67 C 0.08106 0.8489 0.56038 0.0
Co68 Co 0.37825 0.78157 0.80714 0.0
Co69 Co 0.3803 0.81657 0.76755 0.0
C70 C 0.41545 0.77823 0.77308 0.0
O71 O 0.40562 0.77067 0.79014 0.0
O72 O 0.40784 0.79606 0.76292 0.0
C73 C 0.3739 0.7364 0.82616 0.0
O74 O 0.37753 0.72969 0.80616 0.0
C75 C 0.38819 0.83568 0.72392 0.0
C76 C 0.36049 0.86276 0.72135 0.0
C77 C 0.37868 0.85227 0.7101 0.0
N78 N 0.37621 0.83629 0.74263 0.0
N79 N 0.35979 0.85266 0.74102 0.0
C80 C 0.40719 0.81834 0.71886 0.0
H81 H 0.4007 0.80029 0.72208 0.0
H82 H 0.41289 0.81943 0.70179 0.0
H83 H 0.4225 0.82166 0.7295 0.0
C84 C 0.33175 0.77194 0.78906 0.0
N85 N 0.35175 0.78444 0.78935 0.0
N86 N 0.35297 0.7975 0.77185 0.0
C87 C 0.33411 0.79272 0.75935 0.0
C88 C 0.32021 0.77629 0.7699 0.0
C89 C 0.32362 0.75599 0.80675 0.0
H90 H 0.32959 0.76268 0.82261 0.0
H91 H 0.33081 0.73811 0.80411 0.0
H92 H 0.30415 0.75468 0.80681 0.0
O93 O 0.38568 0.81169 0.82034 0.0
O94 O 0.38756 0.83707 0.79313 0.0
H95 H 0.32427 0.81972 0.73726 0.0
H96 H 0.31819 0.79044 0.72774 0.0
C97 C 0.33096 0.80141 0.73677 0.0
H98 H 0.34807 0.80137 0.72822 0.0
H99 H 0.34782 0.85667 0.75323 0.0
O100 O 0.37325 0.75824 0.83046 0.0
C101 C 0.38912 0.83236 0.81321 0.0
Co102 Co 0.45329 0.13539 0.05307 0.0
Co103 Co 0.42027 0.14085 0.01247 0.0
C104 C 0.45889 0.17471 0.02083 0.0
O105 O 0.46412 0.16415 0.03829 0.0
O106 O 0.44267 0.16727 0.00844 0.0
C107 C 0.49711 0.13293 0.07562 0.0
O108 O 0.50516 0.14309 0.05809 0.0
C109 C 0.40632 0.14088 0.9664 0.0
C110 C 0.36897 0.13074 0.9688 0.0
C111 C 0.38654 0.13576 0.95399 0.0
N112 N 0.40058 0.13873 0.98741 0.0
N113 N 0.37814 0.13296 0.98867 0.0
C114 C 0.43073 0.1458 0.95866 0.0
H115 H 0.4437 0.14223 0.97161 0.0
H116 H 0.43489 0.13492 0.9443 0.0
H117 H 0.43209 0.1646 0.95408 0.0
C118 C 0.46238 0.08959 0.03334 0.0
N119 N 0.45074 0.11015 0.03383 0.0
N120 N 0.43711 0.1119 0.01674 0.0
C121 C 0.43994 0.09229 0.0047 0.0
C122 C 0.45605 0.07765 0.01483 0.0
C123 C 0.48124 0.08293 0.04905 0.0
H124 H 0.47443 0.08461 0.06573 0.0
H125 H 0.4963 0.0951 0.0471 0.0
H126 H 0.4877 0.06477 0.04662 0.0
O127 O 0.42296 0.14198 0.0661 0.0
O128 O 0.39968 0.14903 0.03799 0.0
H129 H 0.4094 0.09299 0.98447 0.0
H130 H 0.42916 0.06876 0.97927 0.0
C131 C 0.4281 0.08766 0.98361 0.0
H132 H 0.43692 0.09798 0.97081 0.0
H133 H 0.36927 0.12988 0.00312 0.0
O134 O 0.47539 0.12797 0.07687 0.0
C135 C 0.40321 0.1479 0.05829 0.0
Co136 Co 0.11564 0.78014 0.20287 0.0
Co137 Co 0.11001 0.81699 0.2404 0.0
C138 C 0.0776 0.77604 0.23633 0.0
O139 O 0.08828 0.7689 0.21953 0.0
O140 O 0.08417 0.79444 0.24632 0.0
C141 C 0.12127 0.73428 0.18476 0.0
O142 O 0.11617 0.72753 0.20447 0.0
C143 C 0.1075 0.83364 0.28519 0.0
C144 C 0.11335 0.87182 0.28154 0.0
C145 C 0.10868 0.85454 0.29669 0.0
N146 N 0.11145 0.83835 0.26424 0.0
N147 N 0.11513 0.86118 0.2622 0.0
C148 C 0.10025 0.80999 0.29345 0.0
H149 H 0.08079 0.80929 0.29427 0.0
H150 H 0.10651 0.79592 0.28249 0.0
H151 H 0.10716 0.80674 0.30986 0.0
C152 C 0.16266 0.7753 0.22209 0.0
N153 N 0.14154 0.78585 0.22094 0.0
N154 N 0.13922 0.80062 0.23716 0.0
C155 C 0.15872 0.79935 0.24949 0.0
C156 C 0.17413 0.78327 0.24034 0.0
C157 C 0.17052 0.75595 0.20739 0.0
H158 H 0.16561 0.76015 0.19054 0.0
H159 H 0.16177 0.73935 0.21223 0.0
H160 H 0.18976 0.75318 0.20817 0.0
O161 O 0.1068 0.80885 0.18781 0.0
O162 O 0.1015 0.83533 0.21368 0.0
H163 H 0.15748 0.83095 0.26824 0.0
H164 H 0.18059 0.8108 0.27596 0.0
C165 C 0.16213 0.81216 0.27031 0.0
H166 H 0.15042 0.80447 0.28273 0.0
H167 H 0.11829 0.86959 0.24753 0.0
O168 O 0.12249 0.75612 0.18058 0.0
C169 C 0.10127 0.82949 0.1938 0.0
Co170 Co 0.46105 0.86152 0.45063 0.0
Co171 Co 0.43055 0.85872 0.49331 0.0
C172 C 0.46949 0.82506 0.48505 0.0
O173 O 0.47375 0.83448 0.46687 0.0
O174 O 0.45364 0.83305 0.49751 0.0
C175 C 0.50448 0.86938 0.42974 0.0
O176 O 0.51187 0.86829 0.44978 0.0
C177 C 0.42041 0.85887 0.53984 0.0
C178 C 0.38458 0.87377 0.54113 0.0
C179 C 0.40289 0.86603 0.55404 0.0
N180 N 0.413 0.86277 0.51955 0.0
N181 N 0.39146 0.87143 0.52044 0.0
C182 C 0.44321 0.84702 0.5451 0.0
H183 H 0.44377 0.82973 0.5369 0.0
H184 H 0.45801 0.85776 0.53888 0.0
H185 H 0.44543 0.84379 0.56258 0.0
C186 C 0.46524 0.91076 0.46454 0.0
N187 N 0.45776 0.8886 0.4677 0.0
N188 N 0.44592 0.8875 0.48593 0.0
C189 C 0.44639 0.9089 0.49535 0.0
C190 C 0.45842 0.92423 0.48196 0.0
C191 C 0.47879 0.9189 0.44523 0.0
H192 H 0.4721 0.91016 0.4305 0.0
H193 H 0.49758 0.91434 0.4474 0.0
H194 H 0.47762 0.9382 0.44306 0.0
O195 O 0.43027 0.85236 0.43994 0.0
O196 O 0.40864 0.8483 0.46967 0.0
H197 H 0.41587 0.91245 0.5151 0.0
H198 H 0.43889 0.93312 0.5214 0.0
C199 C 0.43514 0.91474 0.51647 0.0
H200 H 0.44171 0.90256 0.52905 0.0
H201 H 0.38164 0.87621 0.50693 0.0
O202 O 0.48266 0.86701 0.42593 0.0
C203 C 0.41103 0.84704 0.44921 0.0
Co204 Co 0.39109 0.21543 0.70193 0.0
Co205 Co 0.3922 0.17591 0.73797 0.0
C206 C 0.42847 0.21419 0.73565 0.0
O207 O 0.4188 0.22412 0.71951 0.0
O208 O 0.4199 0.19568 0.74406 0.0
C209 C 0.38501 0.26196 0.68357 0.0
O210 O 0.38784 0.26917 0.70353 0.0
C211 C 0.39023 0.15969 0.783 0.0
C212 C 0.38155 0.12211 0.77923 0.0
C213 C 0.38564 0.13928 0.79469 0.0
N214 N 0.38878 0.15469 0.76181 0.0
N215 N 0.38382 0.13214 0.75969 0.0
C216 C 0.39403 0.18402 0.7915 0.0
H217 H 0.39005 0.19727 0.77889 0.0
H218 H 0.3828 0.18724 0.80584 0.0
H219 H 0.4127 0.18602 0.79629 0.0
C220 C 0.34284 0.22084 0.71846 0.0
N221 N 0.36425 0.21084 0.71919 0.0
N222 N 0.36442 0.19441 0.73419 0.0
C223 C 0.34302 0.19361 0.74356 0.0
C224 C 0.32883 0.21048 0.73398 0.0
C225 C 0.33517 0.23836 0.70187 0.0
H226 H 0.3425 0.23361 0.68591 0.0
H227 H 0.34165 0.25603 0.70649 0.0
H228 H 0.31574 0.23912 0.70053 0.0
O229 O 0.39795 0.18606 0.68649 0.0
O230 O 0.39936 0.15763 0.71122 0.0
H231 H 0.34106 0.15894 0.75688 0.0
H232 H 0.31743 0.17816 0.76532 0.0
C233 C 0.33641 0.17721 0.76142 0.0
H234 H 0.34642 0.18194 0.77609 0.0
H235 H 0.38155 0.12369 0.7449 0.0
O236 O 0.38586 0.24006 0.67952 0.0
C237 C 0.40082 0.16463 0.69174 0.0
Co238 Co 0.0406 0.13375 0.94762 0.0
Co239 Co 0.0728 0.13641 0.98923 0.0
C240 C 0.03718 0.17288 0.98055 0.0
O241 O 0.03169 0.16295 0.96287 0.0
O242 O 0.05263 0.16429 0.99307 0.0
C243 C 0.99514 0.13089 0.93014 0.0
O244 O 0.99002 0.13568 0.95032 0.0
C245 C 0.08866 0.14245 0.03413 0.0
C246 C 0.11837 0.11758 0.03633 0.0
C247 C 0.1055 0.13372 0.04815 0.0
N248 N 0.09145 0.13208 0.0148 0.0
N249 N 0.10931 0.11726 0.01623 0.0
C250 C 0.06906 0.15902 0.03947 0.0
H251 H 0.0523 0.15205 0.03296 0.0
H252 H 0.0672 0.16154 0.05712 0.0
H253 H 0.07256 0.17628 0.03177 0.0
C254 C 0.02829 0.08831 0.96694 0.0
N255 N 0.04114 0.10812 0.96667 0.0
N256 N 0.05343 0.10952 0.98462 0.0
C257 C 0.04787 0.09102 0.99727 0.0
C258 C 0.03181 0.07714 0.98636 0.0
C259 C 0.01245 0.08014 0.9492 0.0
H260 H 0.01937 0.08574 0.93332 0.0
H261 H 0.99464 0.08756 0.95167 0.0
H262 H 0.01085 0.06068 0.94941 0.0
O263 O 0.07155 0.13829 0.93498 0.0
O264 O 0.09425 0.14304 0.96398 0.0
H265 H 0.07497 0.08334 0.01995 0.0
H266 H 0.0462 0.07357 0.02823 0.0
C267 C 0.05602 0.08784 0.02 0.0
H268 H 0.05375 0.10452 0.02902 0.0
H269 H 0.11515 0.10672 0.00354 0.0
O270 O 0.01662 0.12909 0.92469 0.0
C271 C 0.09139 0.14257 0.94355 0.0
Co272 Co 0.876 0.79254 0.6987 0.0
Co273 Co 0.87834 0.82622 0.73909 0.0
C274 C 0.91278 0.7868 0.7324 0.0
O275 O 0.90329 0.78081 0.71469 0.0
O276 O 0.90468 0.80361 0.74372 0.0
C277 C 0.87381 0.74931 0.67528 0.0
O278 O 0.88283 0.7407 0.69311 0.0
C279 C 0.87278 0.83447 0.78524 0.0
C280 C 0.8757 0.87307 0.78808 0.0
C281 C 0.87273 0.85273 0.80008 0.0
N282 N 0.87543 0.84359 0.76539 0.0
N283 N 0.87712 0.86669 0.76717 0.0
C284 C 0.87251 0.80864 0.78995 0.0
H285 H 0.87512 0.79826 0.77502 0.0
H286 H 0.85545 0.80355 0.79715 0.0
H287 H 0.88647 0.80437 0.80181 0.0
C288 C 0.82793 0.78623 0.7139 0.0
N289 N 0.84943 0.79559 0.71622 0.0
N290 N 0.84947 0.81033 0.73259 0.0
C291 C 0.82758 0.81093 0.74109 0.0
C292 C 0.81336 0.79572 0.72943 0.0
C293 C 0.82179 0.76786 0.69754 0.0
H294 H 0.83385 0.75272 0.69941 0.0
H295 H 0.80355 0.76134 0.69938 0.0
H296 H 0.82405 0.7752 0.68111 0.0
O297 O 0.88423 0.82319 0.68681 0.0
O298 O 0.88787 0.84761 0.71475 0.0
H299 H 0.80065 0.83004 0.75816 0.0
H300 H 0.82377 0.81829 0.77463 0.0
C301 C 0.81987 0.82679 0.75897 0.0
H302 H 0.82938 0.84376 0.75813 0.0
H303 H 0.87962 0.87806 0.75417 0.0
O304 O 0.86951 0.77119 0.67414 0.0
C305 C 0.88881 0.84336 0.69455 0.0
Co306 Co 0.97023 0.13579 0.45385 0.0
Co307 Co 0.93216 0.13646 0.49103 0.0
C308 C 0.97141 0.17239 0.48749 0.0
O309 O 0.98113 0.16237 0.47148 0.0
O310 O 0.95269 0.16423 0.49584 0.0
C311 C 0.01537 0.13064 0.4342 0.0
O312 O 0.0227 0.1344 0.45399 0.0
C313 C 0.92279 0.13084 0.53708 0.0
C314 C 0.8841 0.12925 0.53891 0.0
C315 C 0.90422 0.1284 0.55155 0.0
N316 N 0.91404 0.13269 0.51699 0.0
N317 N 0.89088 0.13174 0.51819 0.0
C318 C 0.94848 0.13256 0.54215 0.0
H319 H 0.95834 0.1404 0.52859 0.0
H320 H 0.95574 0.11471 0.54484 0.0
H321 H 0.95129 0.14315 0.55695 0.0
C322 C 0.97467 0.08671 0.46804 0.0
N323 N 0.96566 0.10844 0.47024 0.0
N324 N 0.94954 0.10829 0.48549 0.0
C325 C 0.94786 0.08624 0.49346 0.0
C326 C 0.96377 0.07205 0.48268 0.0
C327 C 0.99313 0.08 0.45196 0.0
H328 H 0.00982 0.08885 0.45624 0.0
H329 H 0.9964 0.06079 0.45169 0.0
H330 H 0.98772 0.08582 0.43565 0.0
O331 O 0.94026 0.14496 0.44048 0.0
O332 O 0.91221 0.14498 0.46558 0.0
H333 H 0.92746 0.05895 0.50884 0.0
H334 H 0.936 0.08292 0.52599 0.0
C335 C 0.92996 0.07829 0.50955 0.0
H336 H 0.91294 0.08717 0.50651 0.0
H337 H 0.8797 0.13289 0.5049 0.0
O338 O 0.99342 0.1305 0.4304 0.0
C339 C 0.91894 0.14805 0.44611 0.0
Co340 Co 0.61714 0.21137 0.19522 0.0
Co341 Co 0.61312 0.17792 0.23594 0.0
C342 C 0.58011 0.21798 0.22907 0.0
O343 O 0.58991 0.22362 0.21139 0.0
O344 O 0.58759 0.20098 0.24044 0.0
C345 C 0.62592 0.25585 0.17685 0.0
O346 O 0.62441 0.26198 0.19723 0.0
C347 C 0.61066 0.16643 0.282 0.0
C348 C 0.62899 0.13229 0.28395 0.0
C349 C 0.61897 0.14979 0.2965 0.0
N350 N 0.61617 0.15951 0.26188 0.0
N351 N 0.62676 0.13885 0.26314 0.0
C352 C 0.59682 0.18818 0.28694 0.0
H353 H 0.57996 0.18746 0.27805 0.0
H354 H 0.60669 0.20388 0.28139 0.0
H355 H 0.59255 0.18985 0.30429 0.0
C356 C 0.66561 0.21554 0.21109 0.0
N357 N 0.64364 0.20704 0.21278 0.0
N358 N 0.64209 0.19378 0.23014 0.0
C359 C 0.66301 0.19413 0.24041 0.0
C360 C 0.67847 0.20792 0.22862 0.0
C361 C 0.67479 0.22913 0.1922 0.0
H362 H 0.66614 0.22322 0.17715 0.0
H363 H 0.6712 0.2481 0.19467 0.0
H364 H 0.69407 0.22682 0.19048 0.0
O365 O 0.60786 0.18136 0.18284 0.0
O366 O 0.60325 0.15741 0.21097 0.0
H367 H 0.66789 0.16339 0.25965 0.0
H368 H 0.68475 0.1884 0.26863 0.0
C369 C 0.6677 0.18274 0.26172 0.0
H370 H 0.65354 0.18741 0.2732 0.0
H371 H 0.63329 0.12967 0.24987 0.0
O372 O 0.6235 0.23431 0.17184 0.0
C373 C 0.60228 0.16145 0.1907 0.0
Co374 Co 0.53157 0.86932 0.95237 0.0
Co375 Co 0.56758 0.8655 0.99089 0.0
C376 C 0.5276 0.83181 0.98608 0.0
O377 O 0.52076 0.84198 0.96892 0.0
O378 O 0.5452 0.83928 0.99675 0.0
C379 C 0.48695 0.87154 0.93108 0.0
O380 O 0.47927 0.86202 0.94905 0.0
C381 C 0.582 0.86607 0.03634 0.0
C382 C 0.61861 0.87872 0.03434 0.0
C383 C 0.60122 0.87229 0.04883 0.0
N384 N 0.58776 0.86868 0.01542 0.0
N385 N 0.60979 0.87595 0.01435 0.0
C386 C 0.55782 0.86011 0.04408 0.0
H387 H 0.5445 0.86607 0.03221 0.0
H388 H 0.55426 0.86829 0.06 0.0
H389 H 0.55637 0.84075 0.04579 0.0
C390 C 0.52725 0.91721 0.96834 0.0
N391 N 0.5363 0.89549 0.96984 0.0
N392 N 0.55127 0.89456 0.986 0.0
C393 C 0.55193 0.91595 0.9955 0.0
C394 C 0.53688 0.93088 0.98444 0.0
C395 C 0.50935 0.92451 0.95197 0.0
H396 H 0.51639 0.92139 0.93554 0.0
H397 H 0.49334 0.91363 0.95401 0.0
H398 H 0.50436 0.94327 0.95359 0.0
O399 O 0.5609 0.86065 0.93848 0.0
O400 O 0.58688 0.85603 0.96491 0.0
H401 H 0.58569 0.91809 0.01047 0.0
H402 H 0.56557 0.94115 0.01843 0.0
C403 C 0.56712 0.92223 0.0143 0.0
H404 H 0.56185 0.91156 0.02845 0.0
H405 H 0.61852 0.8798 0.99998 0.0
O406 O 0.50866 0.87626 0.92919 0.0
C407 C 0.58141 0.85532 0.94493 0.0
Co408 Co 0.88963 0.21087 0.80518 0.0
Co409 Co 0.88991 0.17446 0.76639 0.0
C410 C 0.92884 0.20879 0.77282 0.0
O411 O 0.91886 0.21791 0.78919 0.0
O412 O 0.91968 0.19173 0.76257 0.0
C413 C 0.88827 0.25699 0.82295 0.0
O414 O 0.89372 0.26275 0.80306 0.0
C415 C 0.89597 0.15512 0.72251 0.0
C416 C 0.867 0.12939 0.72045 0.0
C417 C 0.88516 0.1393 0.70874 0.0
N418 N 0.88469 0.15473 0.7416 0.0
N419 N 0.86752 0.13912 0.74028 0.0
C420 C 0.91566 0.17151 0.7171 0.0
H421 H 0.91049 0.18977 0.72123 0.0
H422 H 0.92037 0.17064 0.69976 0.0
H423 H 0.93127 0.16681 0.7269 0.0
C424 C 0.84513 0.22445 0.78503 0.0
N425 N 0.86397 0.21027 0.78627 0.0
N426 N 0.86449 0.19635 0.7693 0.0
C427 C 0.84632 0.20205 0.75627 0.0
C428 C 0.83369 0.22009 0.76586 0.0
C429 C 0.83768 0.24157 0.80204 0.0
H430 H 0.84251 0.23497 0.81824 0.0
H431 H 0.84635 0.25873 0.79913 0.0
H432 H 0.81839 0.24445 0.80147 0.0
O433 O 0.89312 0.1805 0.81934 0.0
O434 O 0.89435 0.15422 0.79271 0.0
H435 H 0.8351 0.17422 0.73566 0.0
H436 H 0.83004 0.20313 0.72476 0.0
C437 C 0.84248 0.19218 0.7342 0.0
H438 H 0.85945 0.19108 0.72548 0.0
H439 H 0.85577 0.13552 0.75277 0.0
O440 O 0.88571 0.23541 0.82772 0.0
C441 C 0.89508 0.15946 0.81272 0.0
Co442 Co 0.53943 0.1303 0.55204 0.0
Co443 Co 0.57227 0.13529 0.5113 0.0
C444 C 0.53408 0.16933 0.5191 0.0
O445 O 0.52882 0.15878 0.53654 0.0
O446 O 0.55045 0.16195 0.50689 0.0
C447 C 0.49412 0.12577 0.56997 0.0
O448 O 0.48829 0.12983 0.54981 0.0
C449 C 0.58995 0.14238 0.46709 0.0
C450 C 0.62005 0.11786 0.46579 0.0
C451 C 0.60735 0.13379 0.45361 0.0
N452 N 0.59214 0.13198 0.48646 0.0
N453 N 0.61031 0.11749 0.48561 0.0
C454 C 0.57056 0.15896 0.46121 0.0
H455 H 0.57287 0.17564 0.47025 0.0
H456 H 0.55344 0.15122 0.46596 0.0
H457 H 0.57033 0.1628 0.44368 0.0
C458 C 0.53114 0.08372 0.53282 0.0
N459 N 0.54228 0.10456 0.53324 0.0
N460 N 0.55469 0.10706 0.51547 0.0
C461 C 0.55079 0.08829 0.50267 0.0
C462 C 0.53592 0.07288 0.51335 0.0
C463 C 0.51445 0.07531 0.54982 0.0
H464 H 0.52023 0.08143 0.56592 0.0
H465 H 0.49666 0.08232 0.54638 0.0
H466 H 0.51329 0.05586 0.55001 0.0
O467 O 0.56955 0.13733 0.56529 0.0
O468 O 0.59267 0.14325 0.5369 0.0
H469 H 0.57912 0.08233 0.48083 0.0
H470 H 0.55146 0.07103 0.47151 0.0
C471 C 0.55998 0.0858 0.48018 0.0
H472 H 0.55711 0.10239 0.47117 0.0
H473 H 0.61578 0.10698 0.49846 0.0
O474 O 0.51577 0.12463 0.57494 0.0
C475 C 0.58932 0.14299 0.55726 0.0
Co476 Co 0.61356 0.78991 0.30538 0.0
Co477 Co 0.60583 0.81964 0.26318 0.0
C478 C 0.57257 0.78266 0.27359 0.0
O479 O 0.58379 0.77861 0.29108 0.0
O480 O 0.5795 0.79796 0.26002 0.0
C481 C 0.62018 0.74596 0.32708 0.0
O482 O 0.61255 0.73721 0.30878 0.0
C483 C 0.60003 0.84054 0.21902 0.0
C484 C 0.6292 0.86613 0.21968 0.0
C485 C 0.61174 0.85719 0.20645 0.0
N486 N 0.61046 0.83961 0.23854 0.0
N487 N 0.62774 0.85509 0.23877 0.0
C488 C 0.57885 0.82639 0.21307 0.0
H489 H 0.56786 0.82312 0.22751 0.0
H490 H 0.5846 0.80917 0.20652 0.0
H491 H 0.56814 0.83562 0.20075 0.0
C492 C 0.6592 0.7812 0.28483 0.0
N493 N 0.63819 0.79195 0.28553 0.0
N494 N 0.63359 0.80141 0.26678 0.0
C495 C 0.65038 0.79497 0.2527 0.0
C496 C 0.66776 0.78219 0.26368 0.0
C497 C 0.67101 0.77178 0.3046 0.0
H498 H 0.66432 0.78093 0.31915 0.0
H499 H 0.6671 0.75276 0.30627 0.0
H500 H 0.69031 0.77439 0.30371 0.0
O501 O 0.60739 0.82039 0.31786 0.0
O502 O 0.59813 0.84088 0.28853 0.0
H503 H 0.65583 0.81407 0.22336 0.0
H504 H 0.65486 0.78244 0.22002 0.0
C505 C 0.64725 0.79761 0.22883 0.0
H506 H 0.6283 0.79866 0.2248 0.0
H507 H 0.63887 0.8578 0.25191 0.0
O508 O 0.62197 0.76811 0.32911 0.0
C509 C 0.60027 0.83915 0.30896 0.0
Co510 Co 0.9653 0.86639 0.04742 0.0
Co511 Co 0.92468 0.86219 0.01282 0.0
C512 C 0.96671 0.82973 0.01369 0.0
O513 O 0.97658 0.84047 0.02921 0.0
O514 O 0.94664 0.83575 0.00648 0.0
C515 C 0.01042 0.86806 0.06914 0.0
O516 O 0.01827 0.8566 0.05222 0.0
C517 C 0.90587 0.8621 0.96841 0.0
C518 C 0.86766 0.86384 0.9744 0.0
C519 C 0.88419 0.86201 0.95807 0.0
N520 N 0.90224 0.86394 0.98981 0.0
N521 N 0.87935 0.86519 0.99322 0.0
C522 C 0.92952 0.85866 0.95831 0.0
H523 H 0.94324 0.85597 0.97071 0.0
H524 H 0.93429 0.8745 0.94887 0.0
H525 H 0.92906 0.84346 0.94709 0.0
C526 C 0.96735 0.91408 0.03062 0.0
N527 N 0.95796 0.89248 0.03057 0.0
N528 N 0.9411 0.89132 0.01607 0.0
C529 C 0.93922 0.9125 0.00639 0.0
C530 C 0.95598 0.92744 0.01521 0.0
C531 C 0.98605 0.92192 0.04602 0.0
H532 H 0.98067 0.9175 0.06272 0.0
H533 H 0.0026 0.91236 0.04244 0.0
H534 H 0.98927 0.94112 0.04514 0.0
O535 O 0.93732 0.85628 0.06313 0.0
O536 O 0.90771 0.85385 0.03992 0.0
H537 H 0.90445 0.91213 0.99324 0.0
H538 H 0.92207 0.93701 0.98474 0.0
C539 C 0.92234 0.91798 0.98861 0.0
H540 H 0.92762 0.90818 0.97396 0.0
H541 H 0.87168 0.86631 0.00847 0.0
O542 O 0.98894 0.87409 0.06989 0.0
C543 C 0.91584 0.85211 0.05899 0.0
Co544 Co 0.60987 0.71199 0.8009 0.0
Co545 Co 0.60807 0.67334 0.76428 0.0
C546 C 0.57127 0.71114 0.76841 0.0
O547 O 0.58134 0.72061 0.78458 0.0
O548 O 0.57974 0.69296 0.75923 0.0
C549 C 0.60912 0.75647 0.82394 0.0
O550 O 0.59628 0.76398 0.80775 0.0
C551 C 0.60904 0.65666 0.7192 0.0
C552 C 0.61992 0.61968 0.72334 0.0
C553 C 0.6145 0.6363 0.70772 0.0
N554 N 0.61131 0.65215 0.74043 0.0
N555 N 0.61757 0.62994 0.74276 0.0
C556 C 0.60357 0.68054 0.71039 0.0
H557 H 0.60693 0.69426 0.72274 0.0
H558 H 0.61429 0.68415 0.69581 0.0
H559 H 0.58473 0.68127 0.70587 0.0
C560 C 0.65497 0.72217 0.78065 0.0
N561 N 0.63553 0.70891 0.7823 0.0
N562 N 0.63546 0.69281 0.76704 0.0
C563 C 0.65522 0.6954 0.75518 0.0
C564 C 0.66809 0.71406 0.76344 0.0
C565 C 0.65923 0.74389 0.79374 0.0
H566 H 0.64401 0.7559 0.79195 0.0
H567 H 0.6753 0.75341 0.78872 0.0
H568 H 0.66078 0.73904 0.811 0.0
O569 O 0.60418 0.68238 0.81602 0.0
O570 O 0.60199 0.65443 0.79102 0.0
H571 H 0.68079 0.68191 0.73268 0.0
H572 H 0.65198 0.68703 0.72177 0.0
C573 C 0.66168 0.68067 0.73611 0.0
H574 H 0.65696 0.66205 0.73907 0.0
H575 H 0.62076 0.62193 0.75761 0.0
O576 O 0.61656 0.73541 0.82387 0.0
C577 C 0.60125 0.66105 0.81064 0.0
Co578 Co 0.5443 0.36665 0.0546 0.0
Co579 Co 0.57662 0.36139 0.01349 0.0
C580 C 0.53857 0.32713 0.02244 0.0
O581 O 0.53338 0.33764 0.03995 0.0
O582 O 0.55469 0.33466 0.01 0.0
C583 C 0.50057 0.36895 0.07713 0.0
O584 O 0.4926 0.35915 0.0594 0.0
C585 C 0.59296 0.35405 0.96887 0.0
C586 C 0.62343 0.37804 0.96698 0.0
C587 C 0.61014 0.3624 0.95504 0.0
N588 N 0.59583 0.36435 0.98821 0.0
N589 N 0.61421 0.37851 0.987 0.0
C590 C 0.57321 0.33775 0.96341 0.0
H591 H 0.55633 0.34565 0.96869 0.0
H592 H 0.57241 0.33406 0.94586 0.0
H593 H 0.57563 0.32098 0.97227 0.0
C594 C 0.53424 0.4122 0.03448 0.0
N595 N 0.54619 0.39183 0.03518 0.0
N596 N 0.55892 0.3896 0.01758 0.0
C597 C 0.55475 0.40828 0.00472 0.0
C598 C 0.53917 0.42323 0.01513 0.0
C599 C 0.51641 0.41956 0.05091 0.0
H600 H 0.52375 0.41728 0.06733 0.0
H601 H 0.50065 0.40824 0.04933 0.0
H602 H 0.51088 0.4381 0.04881 0.0
O603 O 0.57497 0.36047 0.06719 0.0
O604 O 0.59773 0.35388 0.03863 0.0
H605 H 0.58362 0.41414 0.98345 0.0
H606 H 0.55635 0.42627 0.97393 0.0
C607 C 0.56442 0.41113 0.98244 0.0
H608 H 0.56136 0.39483 0.97305 0.0
H609 H 0.6202 0.38887 0.99976 0.0
O610 O 0.5223 0.37386 0.07853 0.0
C611 C 0.59465 0.35493 0.05898 0.0
Co612 Co 0.88259 0.29269 0.30405 0.0
Co613 Co 0.88625 0.32405 0.26197 0.0
C614 C 0.92124 0.28716 0.27064 0.0
O615 O 0.91114 0.28264 0.28849 0.0
O616 O 0.91318 0.30251 0.25764 0.0
C617 C 0.8836 0.24914 0.32712 0.0
O618 O 0.89398 0.2417 0.30948 0.0
C619 C 0.89084 0.34328 0.21721 0.0
C620 C 0.86296 0.37029 0.21781 0.0
C621 C 0.87954 0.36001 0.20442 0.0
N622 N 0.88097 0.34351 0.237 0.0
N623 N 0.86447 0.35985 0.2372 0.0
C624 C 0.91152 0.32836 0.2113 0.0
H625 H 0.92368 0.32699 0.22519 0.0
H626 H 0.90534 0.31042 0.20715 0.0
H627 H 0.92128 0.33585 0.19744 0.0
C628 C 0.83788 0.27995 0.28476 0.0
N629 N 0.85712 0.29355 0.28522 0.0
N630 N 0.85871 0.30553 0.26713 0.0
C631 C 0.84065 0.29923 0.25422 0.0
C632 C 0.82701 0.28277 0.26503 0.0
C633 C 0.83074 0.26351 0.30243 0.0
H634 H 0.83365 0.27191 0.31833 0.0
H635 H 0.84157 0.24732 0.30148 0.0
H636 H 0.81194 0.25855 0.30097 0.0
O637 O 0.88865 0.32346 0.31609 0.0
O638 O 0.89479 0.34537 0.28698 0.0
H639 H 0.83198 0.32453 0.2301 0.0
H640 H 0.82595 0.29463 0.22229 0.0
C641 C 0.83844 0.30617 0.23104 0.0
H642 H 0.8559 0.30533 0.22312 0.0
H643 H 0.85396 0.36362 0.25055 0.0
O644 O 0.87701 0.27047 0.32829 0.0
C645 C 0.89446 0.34285 0.30746 0.0
Co646 Co 0.94847 0.62678 0.55531 0.0
Co647 Co 0.91515 0.63141 0.51481 0.0
C648 C 0.95562 0.6637 0.52104 0.0
O649 O 0.96067 0.65371 0.53881 0.0
O650 O 0.93878 0.65649 0.50923 0.0
C651 C 0.9924 0.62377 0.57762 0.0
O652 O 0.00069 0.63249 0.55954 0.0
C653 C 0.8997 0.63291 0.46941 0.0
C654 C 0.86185 0.62489 0.47253 0.0
C655 C 0.87906 0.63057 0.45761 0.0
N656 N 0.89483 0.62871 0.4903 0.0
N657 N 0.87223 0.62372 0.492 0.0
C658 C 0.92308 0.64141 0.46162 0.0
H659 H 0.93736 0.63237 0.47057 0.0
H660 H 0.92537 0.63865 0.44407 0.0
H661 H 0.92451 0.66053 0.46495 0.0
C662 C 0.95226 0.57867 0.53956 0.0
N663 N 0.94363 0.60053 0.53786 0.0
N664 N 0.93011 0.60201 0.52069 0.0
C665 C 0.93016 0.58096 0.51063 0.0
C666 C 0.94398 0.56553 0.52246 0.0
C667 C 0.9693 0.57104 0.55659 0.0
H668 H 0.98582 0.58117 0.55475 0.0
H669 H 0.97352 0.55206 0.55553 0.0
H670 H 0.96189 0.57492 0.57274 0.0
O671 O 0.91893 0.63655 0.5681 0.0
O672 O 0.89552 0.6424 0.53993 0.0
H673 H 0.91973 0.55719 0.48513 0.0
H674 H 0.92416 0.5875 0.47718 0.0
C675 C 0.91743 0.5758 0.49009 0.0
H676 H 0.89845 0.57957 0.49223 0.0
H677 H 0.86377 0.62009 0.50655 0.0
O678 O 0.97052 0.61966 0.57922 0.0
C679 C 0.89937 0.64303 0.5602 0.0
Co680 Co 0.62134 0.28445 0.69796 0.0
Co681 Co 0.61698 0.32052 0.7367 0.0
C682 C 0.58503 0.27851 0.73138 0.0
O683 O 0.59573 0.27041 0.71501 0.0
O684 O 0.59106 0.29767 0.74034 0.0
C685 C 0.62711 0.24084 0.67552 0.0
O686 O 0.62018 0.23183 0.69396 0.0
C687 C 0.61388 0.33088 0.78287 0.0
C688 C 0.63046 0.36584 0.78553 0.0
C689 C 0.62128 0.3476 0.79772 0.0
N690 N 0.61914 0.33854 0.76291 0.0
N691 N 0.62868 0.35965 0.7646 0.0
C692 C 0.60105 0.30838 0.78728 0.0
H693 H 0.58414 0.30854 0.77843 0.0
H694 H 0.61162 0.29331 0.78133 0.0
H695 H 0.59684 0.306 0.80456 0.0
C696 C 0.66951 0.28126 0.71392 0.0
N697 N 0.64767 0.29008 0.71511 0.0
N698 N 0.64621 0.30471 0.73151 0.0
C699 C 0.66727 0.30531 0.74153 0.0
C700 C 0.6826 0.29044 0.73067 0.0
C701 C 0.678 0.26536 0.69631 0.0
H702 H 0.67178 0.27197 0.6805 0.0
H703 H 0.67072 0.24749 0.69887 0.0
H704 H 0.69745 0.26426 0.69589 0.0
O705 O 0.61031 0.31417 0.6856 0.0
O706 O 0.60791 0.34086 0.71177 0.0
H707 H 0.67095 0.33786 0.75835 0.0
H708 H 0.68998 0.31482 0.76822 0.0
C709 C 0.67226 0.31876 0.76174 0.0
H710 H 0.65903 0.31417 0.77414 0.0
H711 H 0.63479 0.36945 0.75153 0.0
O712 O 0.62897 0.26301 0.67372 0.0
C713 C 0.60577 0.33495 0.69201 0.0
Co714 Co 0.96115 0.36697 0.94864 0.0
Co715 Co 0.92662 0.36354 0.98858 0.0
C716 C 0.96353 0.32794 0.9817 0.0
O717 O 0.96969 0.33815 0.96435 0.0
O718 O 0.9473 0.3361 0.99367 0.0
C719 C 0.00708 0.37 0.93106 0.0
O720 O 0.01275 0.36561 0.9512 0.0
C721 C 0.91103 0.36334 0.03412 0.0
C722 C 0.87666 0.38115 0.03168 0.0
C723 C 0.89246 0.37186 0.04639 0.0
N724 N 0.90642 0.36754 0.01315 0.0
N725 N 0.88565 0.37783 0.01183 0.0
C726 C 0.93381 0.35364 0.04227 0.0
H727 H 0.94822 0.35748 0.03075 0.0
H728 H 0.9382 0.36108 0.05831 0.0
H729 H 0.9322 0.33428 0.04389 0.0
C730 C 0.9713 0.41277 0.96811 0.0
N731 N 0.95903 0.39261 0.96747 0.0
N732 N 0.94521 0.39137 0.98449 0.0
C733 C 0.94879 0.41073 0.99672 0.0
C734 C 0.96554 0.42464 0.98673 0.0
C735 C 0.98864 0.4206 0.95145 0.0
H736 H 0.98277 0.41513 0.93517 0.0
H737 H 0.006 0.41262 0.95495 0.0
H738 H 0.99072 0.44 0.95175 0.0
O739 O 0.9311 0.36174 0.93478 0.0
O740 O 0.9067 0.35594 0.9624 0.0
H741 H 0.91855 0.41364 0.01702 0.0
H742 H 0.94251 0.43275 0.02457 0.0
C743 C 0.93791 0.41507 0.01829 0.0
H744 H 0.94422 0.40164 0.02985 0.0
H745 H 0.87806 0.3835 0.99743 0.0
O746 O 0.98549 0.37169 0.92603 0.0
C747 C 0.91091 0.35672 0.94217 0.0
Co748 Co 0.88433 0.71355 0.20621 0.0
Co749 Co 0.88171 0.67329 0.24067 0.0
C750 C 0.92069 0.71027 0.23912 0.0
O751 O 0.91221 0.72062 0.22275 0.0
O752 O 0.91069 0.69247 0.24761 0.0
C753 C 0.88794 0.75756 0.18326 0.0
O754 O 0.90172 0.76404 0.19917 0.0
C755 C 0.87178 0.66201 0.28534 0.0
C756 C 0.87722 0.62363 0.28716 0.0
C757 C 0.87192 0.64321 0.2996 0.0
N758 N 0.87657 0.65395 0.26545 0.0
N759 N 0.87969 0.63095 0.26659 0.0
C760 C 0.86955 0.68758 0.29072 0.0
H761 H 0.87682 0.69861 0.27757 0.0
H762 H 0.85072 0.69208 0.29272 0.0
H763 H 0.87873 0.69154 0.30608 0.0
C764 C 0.83796 0.72367 0.2222 0.0
N765 N 0.85786 0.71128 0.22361 0.0
N766 N 0.85454 0.69254 0.23556 0.0
C767 C 0.83152 0.69164 0.24106 0.0
C768 C 0.82014 0.71131 0.23245 0.0
C769 C 0.83674 0.74768 0.21228 0.0
H770 H 0.85338 0.75723 0.21536 0.0
H771 H 0.82204 0.75811 0.21912 0.0
H772 H 0.83436 0.74606 0.19459 0.0
O773 O 0.89004 0.68383 0.19112 0.0
O774 O 0.88958 0.65417 0.21446 0.0
H775 H 0.80258 0.66783 0.24568 0.0
H776 H 0.81843 0.67551 0.26971 0.0
C777 C 0.82034 0.67128 0.25235 0.0
H778 H 0.83138 0.6553 0.25072 0.0
H779 H 0.88421 0.62038 0.25349 0.0
O780 O 0.87906 0.7371 0.18336 0.0
C781 C 0.89216 0.66204 0.19532 0.0
Co782 Co 0.54126 0.62887 0.45133 0.0
Co783 Co 0.57594 0.63346 0.49083 0.0
C784 C 0.53568 0.66651 0.48489 0.0
O785 O 0.52956 0.6564 0.46745 0.0
O786 O 0.55288 0.65908 0.49614 0.0
C787 C 0.49708 0.62311 0.42916 0.0
O788 O 0.48792 0.6305 0.44738 0.0
C789 C 0.59058 0.63271 0.53653 0.0
C790 C 0.62849 0.62509 0.53361 0.0
C791 C 0.61083 0.62884 0.54866 0.0
N792 N 0.59616 0.6312 0.51546 0.0
N793 N 0.61889 0.62687 0.51386 0.0
C794 C 0.566 0.63594 0.54456 0.0
H795 H 0.55314 0.63123 0.53182 0.0
H796 H 0.56287 0.625 0.55909 0.0
H797 H 0.56331 0.65467 0.54891 0.0
C798 C 0.53627 0.58121 0.46847 0.0
N799 N 0.54574 0.60281 0.46931 0.0
N800 N 0.56034 0.60411 0.48574 0.0
C801 C 0.56053 0.58309 0.49592 0.0
C802 C 0.54507 0.56809 0.48537 0.0
C803 C 0.51994 0.57289 0.45113 0.0
H804 H 0.52668 0.5784 0.43515 0.0
H805 H 0.50239 0.5809 0.45364 0.0
H806 H 0.51809 0.55347 0.45119 0.0
O807 O 0.57087 0.63795 0.43797 0.0
O808 O 0.59547 0.64341 0.46532 0.0
H809 H 0.59303 0.58319 0.5133 0.0
H810 H 0.57389 0.55881 0.5199 0.0
C811 C 0.57451 0.57776 0.51574 0.0
H812 H 0.56726 0.5879 0.52946 0.0
H813 H 0.62777 0.62467 0.49928 0.0
O814 O 0.51925 0.62131 0.42752 0.0
C815 C 0.5909 0.64394 0.44517 0.0
Co816 Co 0.38294 0.28727 0.19959 0.0
Co817 Co 0.38782 0.32147 0.23975 0.0
C818 C 0.42109 0.28213 0.23321 0.0
O819 O 0.41082 0.27643 0.21573 0.0
O820 O 0.41361 0.29885 0.245 0.0
C821 C 0.3742 0.24218 0.18072 0.0
O822 O 0.37579 0.23515 0.20085 0.0
C823 C 0.39301 0.34137 0.28411 0.0
C824 C 0.36946 0.37213 0.28186 0.0
C825 C 0.3836 0.35983 0.29615 0.0
N826 N 0.38429 0.34252 0.2639 0.0
N827 N 0.37048 0.36114 0.26269 0.0
C828 C 0.41114 0.32388 0.29109 0.0
H829 H 0.42419 0.32131 0.27805 0.0
H830 H 0.4025 0.30676 0.29434 0.0
H831 H 0.42065 0.32984 0.30569 0.0
C832 C 0.33506 0.28277 0.21677 0.0
N833 N 0.35694 0.29161 0.21772 0.0
N834 N 0.35897 0.305 0.23495 0.0
C835 C 0.33849 0.30435 0.24593 0.0
C836 C 0.32277 0.29032 0.23469 0.0
C837 C 0.32546 0.26892 0.19823 0.0
H838 H 0.33372 0.27468 0.18294 0.0
H839 H 0.32923 0.25 0.2008 0.0
H840 H 0.30613 0.27113 0.19691 0.0
O841 O 0.39128 0.31688 0.18605 0.0
O842 O 0.39723 0.34082 0.21386 0.0
H843 H 0.33042 0.3345 0.26505 0.0
H844 H 0.31951 0.3073 0.276 0.0
C845 C 0.33447 0.3156 0.26742 0.0
H846 H 0.35046 0.31403 0.2775 0.0
H847 H 0.36134 0.36608 0.24882 0.0
O848 O 0.37651 0.26392 0.17647 0.0
C849 C 0.39738 0.33674 0.1936 0.0
Co850 Co 0.46191 0.63438 0.95199 0.0
Co851 Co 0.42793 0.63555 0.99241 0.0
C852 C 0.46408 0.67247 0.98569 0.0
O853 O 0.47052 0.66304 0.96805 0.0
O854 O 0.44814 0.6634 0.99739 0.0
C855 C 0.50751 0.63083 0.93384 0.0
O856 O 0.51353 0.63418 0.95406 0.0
C857 C 0.41134 0.64018 0.03721 0.0
C858 C 0.38005 0.61722 0.03769 0.0
C859 C 0.39364 0.63181 0.05046 0.0
N860 N 0.40848 0.63095 0.0174 0.0
N861 N 0.38964 0.61733 0.0178 0.0
C862 C 0.43132 0.65579 0.04356 0.0
H863 H 0.44803 0.64851 0.03719 0.0
H864 H 0.43263 0.65759 0.06134 0.0
H865 H 0.42865 0.67346 0.03637 0.0
C866 C 0.46961 0.58633 0.96761 0.0
N867 N 0.46003 0.60779 0.96981 0.0
N868 N 0.44659 0.60817 0.98712 0.0
C869 C 0.44802 0.587 0.99692 0.0
C870 C 0.46241 0.57256 0.9847 0.0
C871 C 0.48504 0.57899 0.94923 0.0
H872 H 0.47802 0.58606 0.93388 0.0
H873 H 0.50293 0.58613 0.95183 0.0
H874 H 0.48651 0.5596 0.94798 0.0
O875 O 0.43137 0.63971 0.93878 0.0
O876 O 0.40713 0.64288 0.96693 0.0
H877 H 0.41636 0.57755 0.01314 0.0
H878 H 0.44229 0.56388 0.02407 0.0
C879 C 0.43516 0.58035 0.01703 0.0
H880 H 0.43649 0.59473 0.02903 0.0
H881 H 0.38342 0.60796 0.00451 0.0
O882 O 0.48583 0.6301 0.92898 0.0
C883 C 0.41105 0.64329 0.94665 0.0
Co884 Co 0.10694 0.71126 0.7013 0.0
Co885 Co 0.10264 0.67715 0.74142 0.0
C886 C 0.06937 0.71655 0.73555 0.0
O887 O 0.07942 0.72202 0.71791 0.0
O888 O 0.0769 0.69984 0.74733 0.0
C889 C 0.11482 0.75655 0.68294 0.0
O890 O 0.1132 0.76322 0.70317 0.0
C891 C 0.09899 0.65673 0.7857 0.0
C892 C 0.12294 0.62638 0.78251 0.0
C893 C 0.10924 0.6384 0.79735 0.0
N894 N 0.1069 0.6558 0.76521 0.0
N895 N 0.1209 0.63738 0.76342 0.0
C896 C 0.08094 0.67395 0.79337 0.0
H897 H 0.06787 0.67721 0.7805 0.0
H898 H 0.08965 0.69085 0.79734 0.0
H899 H 0.07145 0.66729 0.80774 0.0
C900 C 0.15507 0.71586 0.7177 0.0
N901 N 0.13321 0.70702 0.71901 0.0
N902 N 0.13149 0.69362 0.73625 0.0
C903 C 0.15221 0.6942 0.74685 0.0
C904 C 0.16771 0.70824 0.73536 0.0
C905 C 0.16428 0.72981 0.69905 0.0
H906 H 0.1558 0.72403 0.68387 0.0
H907 H 0.16041 0.7487 0.7017 0.0
H908 H 0.1836 0.72774 0.69745 0.0
O909 O 0.09854 0.68172 0.68766 0.0
O910 O 0.09284 0.65789 0.71559 0.0
H911 H 0.1608 0.66392 0.76559 0.0
H912 H 0.1719 0.69105 0.77649 0.0
C913 C 0.15675 0.68278 0.76817 0.0
H914 H 0.141 0.68424 0.77858 0.0
H915 H 0.12959 0.63269 0.74924 0.0
O916 O 0.11289 0.73485 0.6784 0.0
C917 C 0.09252 0.66189 0.69532 0.0
Co918 Co 0.03837 0.36894 0.44894 0.0
Co919 Co 0.07274 0.36447 0.48904 0.0
C920 C 0.03324 0.33057 0.48125 0.0
O921 O 0.02581 0.34126 0.46457 0.0
O922 O 0.05122 0.33741 0.49165 0.0
C923 C 0.9953 0.37237 0.42483 0.0
O924 O 0.98617 0.36277 0.44218 0.0
C925 C 0.08437 0.35777 0.5347 0.0
C926 C 0.11893 0.37503 0.53786 0.0
C927 C 0.10197 0.36293 0.54941 0.0
N928 N 0.09062 0.36627 0.51529 0.0
N929 N 0.11135 0.37655 0.51729 0.0
C930 C 0.06117 0.34644 0.53934 0.0
H931 H 0.04712 0.35513 0.52985 0.0
H932 H 0.05674 0.34749 0.55674 0.0
H933 H 0.06195 0.32767 0.53452 0.0
C934 C 0.02931 0.41479 0.4687 0.0
N935 N 0.04154 0.39459 0.46773 0.0
N936 N 0.05507 0.39276 0.48487 0.0
C937 C 0.0513 0.41163 0.4976 0.0
C938 C 0.03495 0.42618 0.4877 0.0
C939 C 0.01016 0.42126 0.45323 0.0
H940 H 0.99517 0.40907 0.45548 0.0
H941 H 0.00376 0.43945 0.45567 0.0
H942 H 0.01668 0.41952 0.43646 0.0
O943 O 0.06894 0.36061 0.43673 0.0
O944 O 0.09401 0.35717 0.46414 0.0
H945 H 0.05663 0.432 0.52667 0.0
H946 H 0.05568 0.40045 0.53024 0.0
C947 C 0.06172 0.41484 0.51954 0.0
H948 H 0.08113 0.41395 0.51841 0.0
H949 H 0.12025 0.38474 0.50465 0.0
O950 O 0.01723 0.37661 0.42434 0.0
C951 C 0.08936 0.35635 0.44404 0.0
Co952 Co 0.37972 0.70096 0.31207 0.0
Co953 Co 0.38325 0.67025 0.26961 0.0
C954 C 0.41695 0.70956 0.27899 0.0
O955 O 0.4072 0.71416 0.29695 0.0
O956 O 0.40917 0.69347 0.26666 0.0
C957 C 0.37554 0.74331 0.33575 0.0
O958 O 0.38255 0.75229 0.31732 0.0
C959 C 0.38562 0.66166 0.22289 0.0
C960 C 0.36774 0.62745 0.21932 0.0
C961 C 0.37774 0.64562 0.2076 0.0
N962 N 0.37995 0.65368 0.24264 0.0
N963 N 0.36956 0.63303 0.2404 0.0
C964 C 0.39986 0.6834 0.21913 0.0
H965 H 0.4165 0.68189 0.22828 0.0
H966 H 0.39013 0.69895 0.22523 0.0
H967 H 0.40457 0.68592 0.20197 0.0
C968 C 0.33171 0.70772 0.29635 0.0
N969 N 0.35333 0.69852 0.29418 0.0
N970 N 0.3544 0.68607 0.27631 0.0
C971 C 0.33339 0.68754 0.26623 0.0
C972 C 0.31838 0.70107 0.27877 0.0
C973 C 0.32438 0.72357 0.31443 0.0
H974 H 0.32881 0.71528 0.33009 0.0
H975 H 0.3341 0.74038 0.31309 0.0
H976 H 0.30535 0.72763 0.31408 0.0
O977 O 0.3885 0.66998 0.32249 0.0
O978 O 0.39293 0.64775 0.29322 0.0
H979 H 0.32901 0.65675 0.247 0.0
H980 H 0.30966 0.68057 0.2397 0.0
C981 C 0.32767 0.67608 0.24519 0.0
H982 H 0.34054 0.68176 0.23281 0.0
H983 H 0.36309 0.62307 0.25321 0.0
O984 O 0.37295 0.72119 0.3373 0.0
C985 C 0.39383 0.65051 0.31367 0.0
Co986 Co 0.03425 0.63867 0.04967 0.0
Co987 Co 0.07331 0.63867 0.01335 0.0
C988 C 0.03528 0.67556 0.01573 0.0
O989 O 0.0254 0.66621 0.03205 0.0
O990 O 0.05378 0.66682 0.00739 0.0
C991 C 0.98911 0.63908 0.07195 0.0
O992 O 0.98133 0.6508 0.05516 0.0
C993 C 0.08856 0.63736 0.96823 0.0
C994 C 0.12351 0.62067 0.97046 0.0
C995 C 0.10709 0.62907 0.95586 0.0
N996 N 0.09375 0.63401 0.98917 0.0
N997 N 0.11485 0.62438 0.9904 0.0
C998 C 0.06514 0.64571 0.96034 0.0
H999 H 0.05112 0.64038 0.97177 0.0
H1000 H 0.06121 0.6386 0.94407 0.0
H1001 H 0.06534 0.66519 0.95942 0.0
C1002 C 0.02669 0.59113 0.03315 0.0
N1003 N 0.03774 0.61198 0.03237 0.0
N1004 N 0.05409 0.61145 0.01735 0.0
C1005 C 0.05389 0.59001 0.00804 0.0
C1006 C 0.03648 0.57657 0.01772 0.0
C1007 C 0.00855 0.58477 0.04965 0.0
H1008 H 0.0154 0.58874 0.06598 0.0
H1009 H 0.99257 0.59555 0.04697 0.0
H1010 H 0.00376 0.56589 0.04902 0.0
O1011 O 0.06403 0.64501 0.06455 0.0
O1012 O 0.09238 0.64524 0.03974 0.0
H1013 H 0.08832 0.58419 0.99532 0.0
H1014 H 0.06632 0.56432 0.98481 0.0
C1015 C 0.06978 0.58263 0.99004 0.0
H1016 H 0.06707 0.59443 0.97606 0.0
H1017 H 0.12291 0.61942 0.00481 0.0
O1018 O 0.01052 0.63278 0.07258 0.0
C1019 C 0.08551 0.6471 0.05923 0.0
Co1020 Co 0.12233 0.28527 0.80875 0.0
Co1021 Co 0.11568 0.31884 0.76815 0.0
C1022 C 0.08404 0.27816 0.77634 0.0
O1023 O 0.09513 0.27192 0.79316 0.0
O1024 O 0.08981 0.29615 0.76548 0.0
C1025 C 0.13002 0.24068 0.82729 0.0
O1026 O 0.12627 0.2344 0.8072 0.0
C1027 C 0.10605 0.33248 0.72313 0.0
C1028 C 0.13286 0.3597 0.7171 0.0
C1029 C 0.11595 0.34615 0.70689 0.0
N1030 N 0.11725 0.337 0.74181 0.0
N1031 N 0.13285 0.35376 0.73816 0.0
C1032 C 0.08549 0.31618 0.72123 0.0
H1033 H 0.07334 0.31908 0.73494 0.0
H1034 H 0.09176 0.29771 0.72174 0.0
H1035 H 0.07553 0.31922 0.70612 0.0
C1036 C 0.16854 0.27847 0.78886 0.0
N1037 N 0.14769 0.28954 0.78978 0.0
N1038 N 0.14458 0.30184 0.77199 0.0
C1039 C 0.16301 0.29778 0.75873 0.0
C1040 C 0.1787 0.28302 0.76914 0.0
C1041 C 0.17828 0.26268 0.80595 0.0
H1042 H 0.17254 0.26862 0.82213 0.0
H1043 H 0.17216 0.24444 0.80309 0.0
H1044 H 0.19778 0.26256 0.80532 0.0
O1045 O 0.11333 0.3154 0.82141 0.0
O1046 O 0.10791 0.33963 0.79352 0.0
H1047 H 0.16926 0.32397 0.73481 0.0
H1048 H 0.17753 0.29483 0.7266 0.0
C1049 C 0.16422 0.30518 0.73562 0.0
H1050 H 0.14682 0.30293 0.72787 0.0
H1051 H 0.14439 0.36024 0.7498 0.0
O1052 O 0.12969 0.26242 0.83209 0.0
C1053 C 0.10792 0.33544 0.81377 0.0
Co1054 Co 0.45688 0.3628 0.55351 0.0
Co1055 Co 0.42333 0.36107 0.51307 0.0
C1056 C 0.45906 0.32392 0.52052 0.0
O1057 O 0.46536 0.33367 0.53808 0.0
O1058 O 0.44329 0.33283 0.50846 0.0
C1059 C 0.50094 0.36228 0.57578 0.0
O1060 O 0.50852 0.35207 0.55809 0.0
C1061 C 0.40906 0.36145 0.46721 0.0
C1062 C 0.37598 0.38169 0.4687 0.0
C1063 C 0.39152 0.37118 0.45445 0.0
N1064 N 0.40412 0.36608 0.48803 0.0
N1065 N 0.38409 0.37783 0.48879 0.0
C1066 C 0.43136 0.35016 0.45967 0.0
H1067 H 0.44584 0.35385 0.47113 0.0
H1068 H 0.43628 0.35649 0.44335 0.0
H1069 H 0.42876 0.33085 0.45893 0.0
C1070 C 0.47027 0.40763 0.53435 0.0
N1071 N 0.45646 0.3885 0.53479 0.0
N1072 N 0.44301 0.38816 0.51753 0.0
C1073 C 0.4483 0.40718 0.50534 0.0
C1074 C 0.46588 0.41987 0.5156 0.0
C1075 C 0.48806 0.41378 0.55121 0.0
H1076 H 0.48053 0.411 0.56748 0.0
H1077 H 0.5037 0.40233 0.54924 0.0
H1078 H 0.49373 0.43238 0.54978 0.0
O1079 O 0.42637 0.35829 0.56657 0.0
O1080 O 0.40215 0.35398 0.53869 0.0
H1081 H 0.41898 0.41187 0.4842 0.0
H1082 H 0.44439 0.42932 0.4772 0.0
C1083 C 0.43843 0.41204 0.48345 0.0
H1084 H 0.44421 0.39811 0.47216 0.0
H1085 H 0.37652 0.38414 0.50297 0.0
O1086 O 0.47946 0.36809 0.57722 0.0
C1087 C 0.40611 0.3542 0.55897 0.0
H1088 H 0.1091 0.10488 0.08338 0.0
H1089 H 0.11104 0.17798 0.06373 0.0
H1090 H 0.11679 0.19004 0.10167 0.0
H1091 H 0.07603 0.11448 0.13153 0.0
H1092 H 0.09117 0.09242 0.14711 0.0
H1093 H 0.08889 0.08935 0.1183 0.0
H1094 H 0.1342 0.08612 0.11543 0.0
H1095 H 0.13662 0.08916 0.14426 0.0
H1096 H 0.15232 0.10899 0.12676 0.0
H1097 H 0.12219 0.19417 0.1414 0.0
H1098 H 0.12443 0.19052 0.18095 0.0
H1099 H 0.11656 0.1149 0.17563 0.0
C1100 C 0.111 0.12338 0.08715 0.0
C1101 C 0.10963 0.14059 0.07078 0.0
C1102 C 0.11189 0.16464 0.07616 0.0
C1103 C 0.11526 0.1716 0.0976 0.0
C1104 C 0.11621 0.15427 0.11346 0.0
C1105 C 0.11402 0.13066 0.10857 0.0
C1106 C 0.11445 0.11577 0.12887 0.0
C1107 C 0.09125 0.10221 0.13161 0.0
C1108 C 0.13566 0.09902 0.12882 0.0
C1109 C 0.11709 0.13471 0.14591 0.0
C1110 C 0.11831 0.15675 0.13659 0.0
C1111 C 0.12091 0.17705 0.1489 0.0
C1112 C 0.12189 0.17482 0.17136 0.0
C1113 C 0.11973 0.15254 0.18136 0.0
C1114 C 0.11785 0.13219 0.1684 0.0
H1115 H 0.11913 0.8345 0.42409 0.0
H1116 H 0.06668 0.88913 0.43173 0.0
H1117 H 0.06497 0.8942 0.39217 0.0
H1118 H 0.14999 0.86126 0.37948 0.0
H1119 H 0.15563 0.83378 0.36596 0.0
H1120 H 0.15277 0.83451 0.39487 0.0
H1121 H 0.1198 0.80318 0.39285 0.0
H1122 H 0.12252 0.80239 0.36393 0.0
H1123 H 0.09444 0.80854 0.37614 0.0
H1124 H 0.06934 0.89369 0.35194 0.0
H1125 H 0.07854 0.88666 0.31347 0.0
H1126 H 0.12818 0.83239 0.33178 0.0
C1127 C 0.10729 0.84746 0.41734 0.0
C1128 C 0.09263 0.86109 0.43078 0.0
C1129 C 0.07752 0.87808 0.42156 0.0
C1130 C 0.07659 0.8812 0.39916 0.0
C1131 C 0.09097 0.86724 0.38625 0.0
C1132 C 0.10602 0.85068 0.39496 0.0
C1133 C 0.11946 0.83784 0.37743 0.0
C1134 C 0.14604 0.84211 0.37957 0.0
C1135 C 0.1137 0.81142 0.37761 0.0
C1136 C 0.10958 0.84975 0.35755 0.0
C1137 C 0.09327 0.86675 0.36301 0.0
C1138 C 0.08197 0.88033 0.34745 0.0
C1139 C 0.08733 0.87627 0.32569 0.0
C1140 C 0.10359 0.85863 0.31973 0.0
C1141 C 0.11506 0.84543 0.33589 0.0
H1142 H 0.3523 0.84945 0.67343 0.0
H1143 H 0.42185 0.86669 0.69698 0.0
H1144 H 0.43515 0.87415 0.65956 0.0
H1145 H 0.37184 0.81782 0.62736 0.0
H1146 H 0.34833 0.82756 0.61004 0.0
H1147 H 0.34373 0.82564 0.6387 0.0
H1148 H 0.33111 0.86941 0.63962 0.0
H1149 H 0.33562 0.87145 0.61092 0.0
H1150 H 0.35052 0.8915 0.62879 0.0
H1151 H 0.44078 0.87953 0.61975 0.0
H1152 H 0.43938 0.87976 0.57998 0.0
H1153 H 0.36702 0.85593 0.58194 0.0
C1154 C 0.37021 0.85513 0.67062 0.0
C1155 C 0.38611 0.8577 0.68789 0.0
C1156 C 0.40952 0.86472 0.6838 0.0
C1157 C 0.41715 0.86903 0.66268 0.0
C1158 C 0.40116 0.86605 0.64588 0.0
C1159 C 0.37822 0.85912 0.64957 0.0
C1160 C 0.36504 0.85577 0.62855 0.0
C1161 C 0.35676 0.83018 0.62602 0.0
C1162 C 0.34435 0.87307 0.62688 0.0
C1163 C 0.3842 0.86172 0.61248 0.0
C1164 C 0.40479 0.86789 0.62284 0.0
C1165 C 0.42487 0.87435 0.61145 0.0
C1166 C 0.42401 0.87411 0.58887 0.0
C1167 C 0.40343 0.86686 0.57791 0.0
C1168 C 0.38313 0.86113 0.58992 0.0
H1169 H 0.40914 0.16187 0.82831 0.0
H1170 H 0.35705 0.10804 0.81485 0.0
H1171 H 0.35228 0.10118 0.85379 0.0
H1172 H 0.43572 0.13349 0.87379 0.0
H1173 H 0.44002 0.16023 0.88888 0.0
H1174 H 0.43972 0.16102 0.85985 0.0
H1175 H 0.40645 0.1921 0.86061 0.0
H1176 H 0.40679 0.19156 0.88965 0.0
H1177 H 0.37982 0.18596 0.87531 0.0
H1178 H 0.35248 0.10035 0.89388 0.0
H1179 H 0.35797 0.10525 0.93297 0.0
H1180 H 0.40886 0.16064 0.92106 0.0
C1181 C 0.39637 0.14899 0.83347 0.0
C1182 C 0.38314 0.13581 0.81837 0.0
C1183 C 0.36736 0.11843 0.82602 0.0
C1184 C 0.36446 0.11442 0.84814 0.0
C1185 C 0.37753 0.12786 0.86254 0.0
C1186 C 0.39317 0.1448 0.85559 0.0
C1187 C 0.405 0.15677 0.87461 0.0
C1188 C 0.4317 0.15262 0.87425 0.0
C1189 C 0.39916 0.18316 0.87507 0.0
C1190 C 0.39351 0.14388 0.89328 0.0
C1191 C 0.37776 0.12728 0.88587 0.0
C1192 C 0.3648 0.11326 0.89989 0.0
C1193 C 0.36801 0.11626 0.9221 0.0
C1194 C 0.38412 0.13307 0.93023 0.0
C1195 C 0.39694 0.14715 0.91551 0.0
H1196 H 0.90657 0.88066 0.9224 0.0
H1197 H 0.84906 0.83519 0.94155 0.0
H1198 H 0.83971 0.82794 0.90323 0.0
H1199 H 0.87781 0.9065 0.87681 0.0
H1200 H 0.90398 0.90757 0.86046 0.0
H1201 H 0.90625 0.90911 0.88938 0.0
H1202 H 0.93453 0.8734 0.88928 0.0
H1203 H 0.93242 0.8718 0.86034 0.0
H1204 H 0.92548 0.8464 0.87652 0.0
H1205 H 0.83695 0.82516 0.86294 0.0
H1206 H 0.84025 0.82802 0.82333 0.0
H1207 H 0.89974 0.87502 0.83024 0.0
C1208 C 0.89234 0.86881 0.91858 0.0
C1209 C 0.87886 0.85807 0.93498 0.0
C1210 C 0.85968 0.84351 0.92922 0.0
C1211 C 0.85428 0.83923 0.90752 0.0
C1212 C 0.86809 0.84984 0.89174 0.0
C1213 C 0.88665 0.86442 0.89697 0.0
C1214 C 0.89848 0.87393 0.87688 0.0
C1215 C 0.8965 0.90088 0.87583 0.0
C1216 C 0.92426 0.86589 0.87569 0.0
C1217 C 0.88374 0.86231 0.85955 0.0
C1218 C 0.86635 0.84843 0.86849 0.0
C1219 C 0.85061 0.83583 0.85575 0.0
C1220 C 0.85278 0.83733 0.83328 0.0
C1221 C 0.87058 0.85128 0.82379 0.0
C1222 C 0.88604 0.86414 0.83713 0.0
H1223 H 0.85947 0.14914 0.67265 0.0
H1224 H 0.92502 0.11848 0.69428 0.0
H1225 H 0.93623 0.11043 0.65637 0.0
H1226 H 0.84922 0.11044 0.62678 0.0
H1227 H 0.83813 0.13362 0.60978 0.0
H1228 H 0.83455 0.13541 0.63859 0.0
H1229 H 0.85528 0.17596 0.63874 0.0
H1230 H 0.85891 0.1743 0.60995 0.0
H1231 H 0.88415 0.1787 0.62703 0.0
H1232 H 0.93981 0.10517 0.61631 0.0
H1233 H 0.93762 0.10627 0.57681 0.0
H1234 H 0.8714 0.14394 0.58066 0.0
C1235 C 0.87603 0.14048 0.66928 0.0
C1236 C 0.89135 0.13409 0.68618 0.0
C1237 C 0.91309 0.12328 0.68141 0.0
C1238 C 0.91953 0.11863 0.65999 0.0
C1239 C 0.90411 0.12522 0.6436 0.0
C1240 C 0.88291 0.13614 0.64795 0.0
C1241 C 0.87027 0.14273 0.62728 0.0
C1242 C 0.84664 0.12977 0.62551 0.0
C1243 C 0.86697 0.16951 0.62566 0.0
C1244 C 0.88768 0.13386 0.61064 0.0
C1245 C 0.9069 0.12356 0.62043 0.0
C1246 C 0.92509 0.11365 0.60847 0.0
C1247 C 0.92386 0.11473 0.58592 0.0
C1248 C 0.9049 0.12618 0.57546 0.0
C1249 C 0.88634 0.13539 0.58811 0.0
H1250 H 0.61166 0.11461 0.32605 0.0
H1251 H 0.63035 0.18829 0.32066 0.0
H1252 H 0.62993 0.19196 0.36025 0.0
H1253 H 0.57322 0.11944 0.37097 0.0
H1254 H 0.5828 0.09267 0.3838 0.0
H1255 H 0.58478 0.09564 0.35496 0.0
H1256 H 0.62929 0.08619 0.35656 0.0
H1257 H 0.62743 0.08312 0.38542 0.0
H1258 H 0.64814 0.10343 0.37374 0.0
H1259 H 0.62448 0.18852 0.40009 0.0
H1260 H 0.61795 0.17709 0.43816 0.0
H1261 H 0.60616 0.105 0.41836 0.0
C1262 C 0.61572 0.13146 0.33327 0.0
C1263 C 0.62 0.15143 0.32031 0.0
C1264 C 0.62583 0.17306 0.33028 0.0
C1265 C 0.62594 0.17525 0.35276 0.0
C1266 C 0.62082 0.15547 0.36509 0.0
C1267 C 0.61621 0.13388 0.35577 0.0
C1268 C 0.6115 0.11537 0.37284 0.0
C1269 C 0.58659 0.10519 0.3705 0.0
C1270 C 0.63021 0.09588 0.37209 0.0
C1271 C 0.61377 0.13006 0.39314 0.0
C1272 C 0.61904 0.15318 0.38825 0.0
C1273 C 0.62071 0.17041 0.40416 0.0
C1274 C 0.61692 0.16383 0.42566 0.0
C1275 C 0.61181 0.14023 0.43099 0.0
C1276 C 0.61041 0.1231 0.41458 0.0
H1277 H 0.58898 0.83977 0.07966 0.0
H1278 H 0.61708 0.91 0.07121 0.0
H1279 H 0.61992 0.91458 0.11075 0.0
H1280 H 0.55536 0.85081 0.12879 0.0
H1281 H 0.56278 0.82293 0.14083 0.0
H1282 H 0.56122 0.82567 0.11191 0.0
H1283 H 0.60383 0.81002 0.10855 0.0
H1284 H 0.60544 0.80708 0.1374 0.0
H1285 H 0.62707 0.82435 0.12328 0.0
H1286 H 0.62029 0.91145 0.1508 0.0
H1287 H 0.62141 0.89982 0.189 0.0
H1288 H 0.59586 0.83038 0.17176 0.0
C1289 C 0.59542 0.85619 0.08624 0.0
C1290 C 0.60253 0.8747 0.07252 0.0
C1291 C 0.61148 0.8957 0.08154 0.0
C1292 C 0.61303 0.89848 0.10394 0.0
C1293 C 0.60587 0.87995 0.11708 0.0
C1294 C 0.59751 0.85909 0.10862 0.0
C1295 C 0.59263 0.84136 0.12637 0.0
C1296 C 0.56644 0.83481 0.12701 0.0
C1297 C 0.60818 0.81941 0.12374 0.0
C1298 C 0.59962 0.85552 0.14608 0.0
C1299 C 0.60688 0.87783 0.14031 0.0
C1300 C 0.61457 0.89406 0.15553 0.0
C1301 C 0.61517 0.88724 0.17721 0.0
C1302 C 0.60829 0.86432 0.1836 0.0
C1303 C 0.60037 0.84829 0.16771 0.0
H1304 H 0.58753 0.65293 0.58143 0.0
H1305 H 0.64176 0.60074 0.56972 0.0
H1306 H 0.64837 0.59724 0.60881 0.0
H1307 H 0.61566 0.68133 0.62584 0.0
H1308 H 0.58898 0.68617 0.64087 0.0
H1309 H 0.58807 0.68461 0.61187 0.0
H1310 H 0.55718 0.65125 0.61394 0.0
H1311 H 0.55783 0.65286 0.64295 0.0
H1312 H 0.5635 0.62529 0.62959 0.0
H1313 H 0.64931 0.59915 0.64885 0.0
H1314 H 0.64481 0.60664 0.6877 0.0
H1315 H 0.58902 0.65662 0.6741 0.0
C1316 C 0.60042 0.64039 0.58704 0.0
C1317 C 0.61385 0.6268 0.5724 0.0
C1318 C 0.63121 0.61131 0.58055 0.0
C1319 C 0.63507 0.60913 0.60276 0.0
C1320 C 0.62149 0.62263 0.61672 0.0
C1321 C 0.60449 0.63795 0.60926 0.0
C1322 C 0.59255 0.65055 0.62787 0.0
C1323 C 0.59656 0.67725 0.62652 0.0
C1324 C 0.5662 0.64463 0.62863 0.0
C1325 C 0.60556 0.63993 0.64689 0.0
C1326 C 0.62216 0.62387 0.64001 0.0
C1327 C 0.63638 0.6117 0.65444 0.0
C1328 C 0.63362 0.61605 0.67652 0.0
C1329 C 0.61685 0.63253 0.68409 0.0
C1330 C 0.60251 0.64447 0.66897 0.0
H1331 H 0.60775 0.39121 0.9199 0.0
H1332 H 0.62059 0.31918 0.9393 0.0
H1333 H 0.62678 0.30797 0.90112 0.0
H1334 H 0.57442 0.37651 0.87275 0.0
H1335 H 0.58545 0.40062 0.85683 0.0
H1336 H 0.58374 0.4033 0.88571 0.0
H1337 H 0.6281 0.41344 0.8872 0.0
H1338 H 0.62995 0.41075 0.8583 0.0
H1339 H 0.6491 0.39358 0.87527 0.0
H1340 H 0.63262 0.30499 0.86123 0.0
H1341 H 0.63344 0.30909 0.82169 0.0
H1342 H 0.61289 0.38225 0.82754 0.0
C1343 C 0.61209 0.37316 0.91599 0.0
C1344 C 0.61396 0.35599 0.93232 0.0
C1345 C 0.61921 0.33246 0.92685 0.0
C1346 C 0.6228 0.32601 0.90529 0.0
C1347 C 0.62075 0.3433 0.88947 0.0
C1348 C 0.61523 0.36633 0.89449 0.0
C1349 C 0.61266 0.3811 0.87426 0.0
C1350 C 0.58757 0.39096 0.87228 0.0
C1351 C 0.63105 0.40089 0.87373 0.0
C1352 C 0.61756 0.36277 0.85711 0.0
C1353 C 0.62252 0.34119 0.86629 0.0
C1354 C 0.62823 0.32165 0.85384 0.0
C1355 C 0.62834 0.32408 0.83137 0.0
C1356 C 0.62206 0.34566 0.82153 0.0
C1357 C 0.61721 0.3654 0.83463 0.0
H1358 H 0.89243 0.33118 0.17009 0.0
H1359 H 0.87291 0.40286 0.18621 0.0
H1360 H 0.87507 0.41366 0.14781 0.0
H1361 H 0.93468 0.34712 0.12729 0.0
H1362 H 0.92686 0.3223 0.11072 0.0
H1363 H 0.9246 0.32027 0.13965 0.0
H1364 H 0.88088 0.30829 0.13604 0.0
H1365 H 0.88293 0.31047 0.10714 0.0
H1366 H 0.86096 0.32713 0.12146 0.0
H1367 H 0.87659 0.41625 0.10777 0.0
H1368 H 0.87987 0.41104 0.06836 0.0
H1369 H 0.90096 0.33849 0.07778 0.0
C1370 C 0.88943 0.34933 0.16571 0.0
C1371 C 0.88301 0.3663 0.18136 0.0
C1372 C 0.87801 0.38958 0.1746 0.0
C1373 C 0.87923 0.39592 0.15281 0.0
C1374 C 0.88559 0.37882 0.13785 0.0
C1375 C 0.89086 0.35607 0.14396 0.0
C1376 C 0.89676 0.34104 0.12444 0.0
C1377 C 0.92224 0.33216 0.1256 0.0
C1378 C 0.87934 0.32052 0.12214 0.0
C1379 C 0.89367 0.35886 0.10644 0.0
C1380 C 0.8871 0.38051 0.1146 0.0
C1381 C 0.88203 0.39949 0.10119 0.0
C1382 C 0.88383 0.39634 0.07885 0.0
C1383 C 0.89093 0.37448 0.0701 0.0
C1384 C 0.89595 0.35552 0.0841 0.0
H1385 H 0.89757 0.61953 0.32999 0.0
H1386 H 0.83904 0.66772 0.32263 0.0
H1387 H 0.8348 0.66983 0.3622 0.0
H1388 H 0.87426 0.58772 0.37589 0.0
H1389 H 0.90247 0.58451 0.38876 0.0
H1390 H 0.90064 0.58651 0.35983 0.0
H1391 H 0.92948 0.62175 0.36036 0.0
H1392 H 0.93128 0.61995 0.3893 0.0
H1393 H 0.9227 0.64714 0.37662 0.0
H1394 H 0.83666 0.66648 0.40246 0.0
H1395 H 0.84507 0.65852 0.44089 0.0
H1396 H 0.90259 0.61277 0.4224 0.0
C1397 C 0.88379 0.63041 0.33675 0.0
C1398 C 0.86884 0.64376 0.32329 0.0
C1399 C 0.85105 0.65783 0.33266 0.0
C1400 C 0.84839 0.65899 0.35512 0.0
C1401 C 0.86367 0.64595 0.36797 0.0
C1402 C 0.88104 0.63192 0.35917 0.0
C1403 C 0.89535 0.61997 0.37665 0.0
C1404 C 0.89303 0.59308 0.37519 0.0
C1405 C 0.92124 0.62767 0.37567 0.0
C1406 C 0.88333 0.62949 0.39664 0.0
C1407 C 0.86502 0.64435 0.39124 0.0
C1408 C 0.85103 0.65499 0.40689 0.0
C1409 C 0.85591 0.65036 0.42863 0.0
C1410 C 0.87477 0.63549 0.43454 0.0
C1411 C 0.88853 0.6248 0.41831 0.0
H1412 H 0.39658 0.33682 0.4235 0.0
H1413 H 0.3848 0.41153 0.43211 0.0
H1414 H 0.38355 0.41685 0.39259 0.0
H1415 H 0.43264 0.34037 0.37516 0.0
H1416 H 0.41953 0.31495 0.36267 0.0
H1417 H 0.4209 0.31706 0.39164 0.0
H1418 H 0.37581 0.3113 0.39397 0.0
H1419 H 0.37434 0.30903 0.36505 0.0
H1420 H 0.35673 0.33058 0.37894 0.0
H1421 H 0.38345 0.41417 0.35243 0.0
H1422 H 0.38174 0.4034 0.31397 0.0
H1423 H 0.39033 0.32988 0.33112 0.0
C1424 C 0.394 0.35428 0.41697 0.0
C1425 C 0.39104 0.37385 0.43074 0.0
C1426 C 0.38714 0.39638 0.42176 0.0
C1427 C 0.38652 0.39956 0.39936 0.0
C1428 C 0.38949 0.37997 0.38617 0.0
C1429 C 0.39288 0.35771 0.39457 0.0
C1430 C 0.39415 0.33949 0.37673 0.0
C1431 C 0.41824 0.32725 0.37655 0.0
C1432 C 0.37406 0.32155 0.3788 0.0
C1433 C 0.391 0.355 0.35703 0.0
C1434 C 0.38862 0.37831 0.36288 0.0
C1435 C 0.38536 0.39597 0.34764 0.0
C1436 C 0.38437 0.38966 0.32582 0.0
C1437 C 0.38652 0.36586 0.31933 0.0
C1438 C 0.38969 0.34832 0.33529 0.0
H1439 H 0.39308 0.60248 0.0854 0.0
H1440 H 0.38463 0.67527 0.06634 0.0
H1441 H 0.37763 0.6864 0.1044 0.0
H1442 H 0.35006 0.60185 0.12887 0.0
H1443 H 0.36773 0.58356 0.1462 0.0
H1444 H 0.3704 0.58104 0.11735 0.0
H1445 H 0.41515 0.58884 0.12015 0.0
H1446 H 0.41262 0.59137 0.149 0.0
H1447 H 0.4254 0.615 0.13359 0.0
H1448 H 0.37079 0.68938 0.14417 0.0
H1449 H 0.36856 0.685 0.18366 0.0
H1450 H 0.38521 0.61087 0.17767 0.0
C1451 C 0.3895 0.62068 0.08934 0.0
C1452 C 0.38914 0.63808 0.07313 0.0
C1453 C 0.38487 0.66179 0.07868 0.0
C1454 C 0.38082 0.66822 0.10018 0.0
C1455 C 0.38142 0.65071 0.1159 0.0
C1456 C 0.38591 0.62746 0.11082 0.0
C1457 C 0.38705 0.61241 0.13098 0.0
C1458 C 0.36765 0.5936 0.13083 0.0
C1459 C 0.41151 0.60125 0.13358 0.0
C1460 C 0.38252 0.63083 0.14817 0.0
C1461 C 0.37901 0.65272 0.13905 0.0
C1462 C 0.37401 0.67243 0.15153 0.0
C1463 C 0.3731 0.66983 0.17397 0.0
C1464 C 0.37784 0.64785 0.18378 0.0
C1465 C 0.38202 0.62799 0.17063 0.0
H1466 H 0.09948 0.66244 0.92466 0.0
H1467 H 0.11703 0.58898 0.934 0.0
H1468 H 0.11774 0.58311 0.89448 0.0
H1469 H 0.0626 0.65562 0.87771 0.0
H1470 H 0.0734 0.68168 0.86447 0.0
H1471 H 0.07327 0.68 0.89348 0.0
H1472 H 0.11792 0.6889 0.8943 0.0
H1473 H 0.11812 0.69084 0.86532 0.0
H1474 H 0.13774 0.67079 0.87884 0.0
H1475 H 0.11578 0.58507 0.85416 0.0
H1476 H 0.11482 0.59529 0.81556 0.0
H1477 H 0.10231 0.66837 0.83231 0.0
C1478 C 0.10333 0.64513 0.91829 0.0
C1479 C 0.10797 0.62606 0.93223 0.0
C1480 C 0.11341 0.60375 0.92348 0.0
C1481 C 0.11374 0.60025 0.90111 0.0
C1482 C 0.10896 0.61935 0.88774 0.0
C1483 C 0.10422 0.64145 0.89596 0.0
C1484 C 0.10097 0.65924 0.87799 0.0
C1485 C 0.07608 0.66975 0.87845 0.0
C1486 C 0.11981 0.67858 0.87919 0.0
C1487 C 0.10447 0.64366 0.8584 0.0
C1488 C 0.10877 0.62067 0.86442 0.0
C1489 C 0.11245 0.60302 0.84925 0.0
C1490 C 0.11188 0.60903 0.82734 0.0
C1491 C 0.10784 0.63253 0.82069 0.0
C1492 C 0.10432 0.65006 0.83658 0.0
H1493 H 0.11957 0.38121 0.67652 0.0
H1494 H 0.10699 0.30632 0.6833 0.0
H1495 H 0.10109 0.30298 0.6442 0.0
H1496 H 0.07878 0.39237 0.6332 0.0
H1497 H 0.09791 0.4125 0.61922 0.0
H1498 H 0.09999 0.40944 0.64806 0.0
H1499 H 0.14426 0.39953 0.64456 0.0
H1500 H 0.14231 0.40254 0.6157 0.0
H1501 H 0.15333 0.37566 0.62733 0.0
H1502 H 0.09576 0.30758 0.60453 0.0
H1503 H 0.09401 0.31953 0.56626 0.0
H1504 H 0.11309 0.39071 0.58411 0.0
C1505 C 0.11537 0.36416 0.66976 0.0
C1506 C 0.11251 0.34426 0.68319 0.0
C1507 C 0.10781 0.32212 0.67363 0.0
C1508 C 0.1048 0.31995 0.65132 0.0
C1509 C 0.10716 0.33996 0.63861 0.0
C1510 C 0.11264 0.3616 0.64738 0.0
C1511 C 0.11514 0.38009 0.62988 0.0
C1512 C 0.09686 0.39976 0.63277 0.0
C1513 C 0.14026 0.39003 0.62934 0.0
C1514 C 0.11001 0.36545 0.60998 0.0
C1515 C 0.1053 0.34238 0.61546 0.0
C1516 C 0.09948 0.32557 0.60001 0.0
C1517 C 0.09841 0.33253 0.57837 0.0
C1518 C 0.10326 0.35602 0.57235 0.0
C1519 C 0.10939 0.37262 0.58834 0.0
H1520 H 0.95073 0.2672 0.29967 0.0
H1521 H 0.9428 0.28111 0.23126 0.0
H1522 H 0.98141 0.26223 0.22445 0.0
H1523 H 0.01117 0.28092 0.30223 0.0
H1524 H 0.01776 0.25868 0.32202 0.0
H1525 H 0.98891 0.27159 0.32105 0.0
H1526 H 0.97033 0.23019 0.31703 0.0
H1527 H -0.00086 0.21711 0.31808 0.0
H1528 H 0.98004 0.21115 0.29556 0.0
H1529 H 0.0211 0.24134 0.22559 0.0
H1530 H 0.05937 0.22306 0.23479 0.0
H1531 H 0.04128 0.22602 0.30265 0.0
C1532 C 0.95691 0.26602 0.28318 0.0
C1533 C 0.94371 0.27533 0.26593 0.0
C1534 C 0.95266 0.27394 0.24467 0.0
C1535 C 0.97449 0.26323 0.24067 0.0
C1536 C 0.98712 0.25435 0.25815 0.0
C1537 C 0.97867 0.25586 0.27899 0.0
C1538 C 0.996 0.24628 0.29519 0.0
C1539 C 0.00393 0.26552 0.31105 0.0
C1540 C 0.98577 0.22491 0.30716 0.0
C1541 C 0.01567 0.23917 0.28025 0.0
C1542 C 0.01018 0.2436 0.25892 0.0
C1543 C 0.0256 0.23791 0.24224 0.0
C1544 C 0.04722 0.22751 0.24759 0.0
C1545 C 0.05322 0.22338 0.26941 0.0
C1546 C 0.03723 0.22932 0.28585 0.0
H1547 H 0.97476 0.69441 0.5493 0.0
H1548 H 0.96261 0.68356 0.481 0.0
H1549 H 0.98059 0.72245 0.47329 0.0
H1550 H 0.95858 0.75416 0.54951 0.0
H1551 H 0.97988 0.76253 0.5696 0.0
H1552 H 0.96831 0.73309 0.56931 0.0
H1553 H 0.01055 0.71616 0.56686 0.0
H1554 H 0.02229 0.74555 0.56735 0.0
H1555 H 0.02981 0.72594 0.5456 0.0
H1556 H 0.00053 0.7629 0.47362 0.0
H1557 H 0.01762 0.802 0.48209 0.0
H1558 H 0.01242 0.78655 0.55035 0.0
C1559 C 0.97628 0.69996 0.53265 0.0
C1560 C 0.9677 0.68587 0.51568 0.0
C1561 C 0.96931 0.69407 0.49419 0.0
C1562 C 0.97949 0.71608 0.48969 0.0
C1563 C 0.98751 0.72968 0.50693 0.0
C1564 C 0.98578 0.72193 0.52798 0.0
C1565 C 0.99405 0.74029 0.54383 0.0
C1566 C 0.97401 0.74796 0.55894 0.0
C1567 C 0.01545 0.73146 0.55666 0.0
C1568 C 0.00076 0.75971 0.52846 0.0
C1569 C 0.99727 0.75323 0.50721 0.0
C1570 C 0.00312 0.7682 0.49021 0.0
C1571 C 0.01278 0.7903 0.49513 0.0
C1572 C 0.01591 0.79729 0.51684 0.0
C1573 C 0.00973 0.7818 0.53362 0.0
H1574 H 0.45968 0.79302 0.78072 0.0
H1575 H 0.41944 0.73766 0.75029 0.0
H1576 H 0.45639 0.71686 0.74083 0.0
H1577 H 0.51176 0.79103 0.74407 0.0
H1578 H 0.53191 0.796 0.76601 0.0
H1579 H 0.50273 0.8083 0.76698 0.0
H1580 H 0.49549 0.7878 0.80372 0.0
H1581 H 0.52457 0.7755 0.80285 0.0
H1582 H 0.49948 0.75643 0.80585 0.0
H1583 H 0.49727 0.70068 0.73775 0.0
H1584 H 0.5383 0.6884 0.74398 0.0
H1585 H 0.55152 0.75369 0.77813 0.0
C1586 C 0.45884 0.77683 0.77156 0.0
C1587 C 0.43708 0.76694 0.76581 0.0
C1588 C 0.4362 0.74545 0.75446 0.0
C1589 C 0.45702 0.73367 0.74899 0.0
C1590 C 0.47838 0.74369 0.75512 0.0
C1591 C 0.47941 0.76476 0.76624 0.0
C1592 C 0.50426 0.77043 0.77316 0.0
C1593 C 0.51319 0.79277 0.76188 0.0
C1594 C 0.50604 0.77265 0.79785 0.0
C1595 C 0.51692 0.74882 0.76498 0.0
C1596 C 0.50183 0.73392 0.75411 0.0
C1597 C 0.50931 0.71233 0.74601 0.0
C1598 C 0.53266 0.70552 0.74961 0.0
C1599 C 0.54808 0.72008 0.76159 0.0
C1600 C 0.54017 0.74222 0.76888 0.0
H1601 H 0.47644 0.2059 0.04966 0.0
H1602 H 0.46765 0.19412 0.98105 0.0
H1603 H 0.48749 0.23212 0.97355 0.0
H1604 H 0.46382 0.26749 0.04802 0.0
H1605 H 0.48457 0.27469 0.06894 0.0
H1606 H 0.47076 0.24621 0.06859 0.0
H1607 H 0.5117 0.22614 0.06855 0.0
H1608 H 0.52564 0.25455 0.06897 0.0
H1609 H 0.53276 0.23379 0.048 0.0
H1610 H 0.50991 0.27098 0.97402 0.0
H1611 H 0.52985 0.30865 0.98236 0.0
H1612 H 0.52045 0.29547 0.05069 0.0
C1613 C 0.47889 0.21119 0.03303 0.0
C1614 C 0.47087 0.19702 0.01589 0.0
C1615 C 0.47383 0.20476 0.99438 0.0
C1616 C 0.48508 0.22624 0.99 0.0
C1617 C 0.49278 0.23983 0.00735 0.0
C1618 C 0.48952 0.23268 0.02843 0.0
C1619 C 0.49836 0.25079 0.04428 0.0
C1620 C 0.47817 0.26036 0.05828 0.0
C1621 C 0.5183 0.24071 0.05827 0.0
C1622 C 0.50736 0.26924 0.02886 0.0
C1623 C 0.50427 0.26256 0.00762 0.0
C1624 C 0.51219 0.27648 0.99059 0.0
C1625 C 0.52352 0.29777 0.99546 0.0
C1626 C 0.5264 0.30501 0.01714 0.0
C1627 C 0.5181 0.29056 0.03396 0.0
H1628 H 0.95815 0.7108 0.21322 0.0
H1629 H 0.93664 0.72475 0.27893 0.0
H1630 H 0.9766 0.74034 0.287 0.0
H1631 H 0.01927 0.69315 0.22582 0.0
H1632 H 0.03029 0.70658 0.20152 0.0
H1633 H 0.00099 0.69457 0.20213 0.0
H1634 H 0.98425 0.73477 0.18973 0.0
H1635 H 0.01339 0.74692 0.1892 0.0
H1636 H 0.99084 0.7608 0.20516 0.0
H1637 H 0.0174 0.75953 0.28559 0.0
H1638 H 0.05571 0.77742 0.27594 0.0
H1639 H 0.05005 0.74788 0.21169 0.0
C1640 C 0.96206 0.71672 0.22944 0.0
C1641 C 0.94462 0.71673 0.24551 0.0
C1642 C 0.95004 0.72457 0.26653 0.0
C1643 C 0.97259 0.73343 0.27118 0.0
C1644 C 0.98937 0.7337 0.25469 0.0
C1645 C 0.98439 0.72509 0.23436 0.0
C1646 C 0.00479 0.72814 0.21907 0.0
C1647 C 0.0144 0.70418 0.21171 0.0
C1648 C 0.9979 0.74358 0.19966 0.0
C1649 C 0.02191 0.74057 0.23368 0.0
C1650 C 0.01285 0.74369 0.25418 0.0
C1651 C 0.02485 0.7567 0.26974 0.0
C1652 C 0.04652 0.76687 0.26411 0.0
C1653 C 0.05596 0.76378 0.24315 0.0
C1654 C 0.04358 0.75012 0.22799 0.0
H1655 H 0.51656 0.6978 0.45707 0.0
H1656 H 0.53112 0.68685 0.52496 0.0
H1657 H 0.51548 0.72667 0.53303 0.0
H1658 H 0.53562 0.75683 0.45588 0.0
H1659 H 0.51389 0.76609 0.43654 0.0
H1660 H 0.52409 0.73613 0.43658 0.0
H1661 H 0.48128 0.72116 0.44069 0.0
H1662 H 0.4709 0.75107 0.44035 0.0
H1663 H 0.4634 0.73202 0.46253 0.0
H1664 H 0.49747 0.76807 0.53313 0.0
H1665 H 0.48097 0.80754 0.52506 0.0
H1666 H 0.48254 0.79132 0.45678 0.0
C1667 C 0.51603 0.70354 0.47372 0.0
C1668 C 0.5246 0.68915 0.49047 0.0
C1669 C 0.52435 0.69759 0.51195 0.0
C1670 C 0.51555 0.72014 0.51664 0.0
C1671 C 0.50756 0.73404 0.49961 0.0
C1672 C 0.50793 0.72604 0.47857 0.0
C1673 C 0.49983 0.74468 0.46292 0.0
C1674 C 0.51954 0.75132 0.44705 0.0
C1675 C 0.47753 0.73676 0.45092 0.0
C1676 C 0.49469 0.76449 0.47839 0.0
C1677 C 0.49892 0.75805 0.49952 0.0
C1678 C 0.49433 0.77334 0.51662 0.0
C1679 C 0.48501 0.79567 0.51192 0.0
C1680 C 0.48091 0.80252 0.4903 0.0
C1681 C 0.48605 0.78675 0.47343 0.0
H1682 H 0.44846 0.25732 0.72869 0.0
H1683 H 0.46131 0.18937 0.75828 0.0
H1684 H 0.50268 0.2003 0.76432 0.0
H1685 H 0.49919 0.26118 0.70021 0.0
H1686 H 0.50426 0.29216 0.70417 0.0
H1687 H 0.47485 0.28072 0.70531 0.0
H1688 H 0.46935 0.29823 0.74354 0.0
H1689 H 0.49872 0.31004 0.74244 0.0
H1690 H 0.4902 0.29119 0.76445 0.0
H1691 H 0.54382 0.21527 0.7603 0.0
H1692 H 0.58094 0.23575 0.7508 0.0
H1693 H 0.54099 0.29498 0.72676 0.0
C1694 C 0.45982 0.24503 0.73703 0.0
C1695 C 0.4517 0.22251 0.74297 0.0
C1696 C 0.4671 0.20681 0.75371 0.0
C1697 C 0.49066 0.21283 0.75719 0.0
C1698 C 0.49836 0.23483 0.75034 0.0
C1699 C 0.48326 0.25093 0.74098 0.0
C1700 C 0.49624 0.2728 0.73385 0.0
C1701 C 0.49347 0.27693 0.70944 0.0
C1702 C 0.48814 0.29434 0.74685 0.0
C1703 C 0.52113 0.26594 0.7396 0.0
C1704 C 0.52203 0.24399 0.74915 0.0
C1705 C 0.54334 0.23279 0.75352 0.0
C1706 C 0.56425 0.24439 0.748 0.0
C1707 C 0.5635 0.26695 0.73856 0.0
C1708 C 0.54179 0.27796 0.73458 0.0
H1709 H 0.02151 0.20567 0.95239 0.0
H1710 H 0.02841 0.19118 0.02073 0.0
H1711 H 0.00974 0.22954 0.02908 0.0
H1712 H 0.03604 0.26662 0.95601 0.0
H1713 H 0.01593 0.27517 0.93499 0.0
H1714 H 0.02883 0.24627 0.93475 0.0
H1715 H 0.98725 0.22759 0.9336 0.0
H1716 H 0.97422 0.25643 0.9338 0.0
H1717 H 0.96607 0.23523 0.95406 0.0
H1718 H 0.98858 0.26927 0.02939 0.0
H1719 H 0.97022 0.308 0.02166 0.0
H1720 H 0.98068 0.29637 0.95322 0.0
C1721 C 0.01892 0.21047 0.96912 0.0
C1722 C 0.0261 0.19548 0.98594 0.0
C1723 C 0.02293 0.20252 0.00764 0.0
C1724 C 0.01231 0.22418 0.0125 0.0
C1725 C 0.0054 0.2386 0.99545 0.0
C1726 C 0.00887 0.23208 0.97421 0.0
C1727 C 0.00092 0.25094 0.95876 0.0
C1728 C 0.02167 0.2603 0.94535 0.0
C1729 C 0.98093 0.24201 0.94421 0.0
C1730 C 0.99225 0.26911 0.97458 0.0
C1731 C 0.99465 0.26168 0.99567 0.0
C1732 C 0.98686 0.27536 0.01294 0.0
C1733 C 0.97645 0.29723 0.00844 0.0
C1734 C 0.97441 0.30519 0.9869 0.0
C1735 C 0.98245 0.2909 0.96988 0.0
H1736 H 0.9463 0.77151 0.70504 0.0
H1737 H 0.93031 0.77837 0.77308 0.0
H1738 H 0.96921 0.76102 0.78209 0.0
H1739 H 0.97825 0.71743 0.70709 0.0
H1740 H -0.0007 0.72669 0.6871 0.0
H1741 H 0.96989 0.73832 0.68662 0.0
H1742 H 0.98664 0.78072 0.68805 0.0
H1743 H 0.0161 0.7692 0.68871 0.0
H1744 H 0.00622 0.78885 0.70963 0.0
H1745 H 0.00991 0.74097 0.78289 0.0
H1746 H 0.04913 0.72346 0.7755 0.0
H1747 H 0.03825 0.73431 0.70702 0.0
C1748 C 0.95082 0.76907 0.72186 0.0
C1749 C 0.93526 0.7758 0.7384 0.0
C1750 C 0.94203 0.77305 0.76021 0.0
C1751 C 0.96402 0.76325 0.76544 0.0
C1752 C 0.97906 0.75688 0.74862 0.0
C1753 C 0.97274 0.75999 0.72729 0.0
C1754 C 0.99221 0.753 0.71209 0.0
C1755 C 0.98444 0.73265 0.69737 0.0
C1756 C 0.0008 0.77421 0.69885 0.0
C1757 C 0.01049 0.74513 0.72813 0.0
C1758 C 0.00265 0.74717 0.74913 0.0
C1759 C 0.01632 0.73964 0.76651 0.0
C1760 C 0.03851 0.72974 0.7622 0.0
C1761 C 0.04683 0.72799 0.74074 0.0
C1762 C 0.03262 0.73596 0.72364 0.0
H1763 H 0.04855 0.28682 0.47229 0.0
H1764 H 0.99276 0.32527 0.50407 0.0
H1765 H 0.97353 0.2876 0.51402 0.0
H1766 H 0.01249 0.24489 0.44837 0.0
H1767 H 0.03289 0.22081 0.45113 0.0
H1768 H 0.04366 0.25046 0.44941 0.0
H1769 H 0.0659 0.24484 0.48551 0.0
H1770 H 0.05501 0.21515 0.48742 0.0
H1771 H 0.04997 0.23557 0.50915 0.0
H1772 H 0.95938 0.24606 0.51823 0.0
H1773 H 0.94868 0.20448 0.51293 0.0
H1774 H 0.01317 0.19338 0.47689 0.0
C1775 C 0.03248 0.28714 0.48166 0.0
C1776 C 0.02205 0.30858 0.48768 0.0
C1777 C 0.00087 0.30876 0.49952 0.0
C1778 C 0.99002 0.28754 0.50532 0.0
C1779 C 0.00067 0.26651 0.49906 0.0
C1780 C 0.02135 0.26617 0.48733 0.0
C1781 C 0.02793 0.24146 0.48065 0.0
C1782 C 0.0293 0.23929 0.45593 0.0
C1783 C 0.05108 0.23381 0.49133 0.0
C1784 C 0.00729 0.22799 0.48976 0.0
C1785 C 0.99209 0.24264 0.50081 0.0
C1786 C 0.97124 0.23437 0.50979 0.0
C1787 C 0.96536 0.21068 0.50673 0.0
C1788 C 0.98007 0.19568 0.49444 0.0
C1789 C 0.00161 0.20437 0.48644 0.0
H1790 H 0.45222 0.26486 0.20433 0.0
H1791 H 0.44211 0.27632 0.27284 0.0
H1792 H 0.48232 0.26114 0.2798 0.0
H1793 H 0.48731 0.21218 0.20738 0.0
H1794 H 0.50588 0.22092 0.18524 0.0
H1795 H 0.47585 0.23083 0.18636 0.0
H1796 H 0.49012 0.27403 0.18362 0.0
H1797 H 0.52021 0.26428 0.18282 0.0
H1798 H 0.51093 0.28504 0.20306 0.0
H1799 H 0.52387 0.24379 0.27872 0.0
H1800 H 0.56329 0.22795 0.26957 0.0
H1801 H 0.54613 0.23218 0.20161 0.0
C1802 C 0.45824 0.26375 0.22087 0.0
C1803 C 0.44399 0.2713 0.23811 0.0
C1804 C 0.45276 0.27033 0.25945 0.0
C1805 C 0.47553 0.26179 0.26352 0.0
C1806 C 0.48928 0.25481 0.24602 0.0
C1807 C 0.48095 0.25591 0.22512 0.0
C1808 C 0.49943 0.24877 0.20893 0.0
C1809 C 0.49165 0.22687 0.19624 0.0
C1810 C 0.50553 0.26926 0.19372 0.0
C1811 C 0.51953 0.24328 0.22395 0.0
C1812 C 0.51338 0.24656 0.2453 0.0
C1813 C 0.52893 0.2414 0.26204 0.0
C1814 C 0.55121 0.23245 0.25674 0.0
C1815 C 0.55774 0.22925 0.23491 0.0
C1816 C 0.54177 0.23502 0.21841 0.0
H1817 H 0.50729 0.80108 0.95862 0.0
H1818 H 0.5245 0.81091 0.02612 0.0
H1819 H 0.50853 0.77121 0.03422 0.0
H1820 H 0.45391 0.76714 0.96519 0.0
H1821 H 0.46062 0.74839 0.94258 0.0
H1822 H 0.47104 0.77828 0.94298 0.0
H1823 H 0.51371 0.7634 0.93748 0.0
H1824 H 0.50348 0.73347 0.93727 0.0
H1825 H 0.52586 0.74235 0.95614 0.0
H1826 H 0.49015 0.72982 0.03429 0.0
H1827 H 0.47456 0.69001 0.02589 0.0
H1828 H 0.47398 0.70753 0.9579 0.0
C1829 C 0.50726 0.79515 0.97521 0.0
C1830 C 0.51668 0.80917 0.99184 0.0
C1831 C 0.51708 0.80045 0.01321 0.0
C1832 C 0.50805 0.778 0.01793 0.0
C1833 C 0.49915 0.76449 1.001 0.0
C1834 C 0.49895 0.77276 0.98005 0.0
C1835 C 0.49032 0.75443 0.96436 0.0
C1836 C 0.46762 0.76255 0.95313 0.0
C1837 C 0.50949 0.74804 0.94785 0.0
C1838 C 0.48569 0.73439 0.97969 0.0
C1839 C 0.49042 0.74051 1.00082 0.0
C1840 C 0.4866 0.72482 0.01778 0.0
C1841 C 0.47779 0.70232 0.0129 0.0
C1842 C 0.47355 0.69573 0.99125 0.0
C1843 C 0.47758 0.712 0.97455 0.0
H1844 H 0.94811 0.25186 0.78066 0.0
H1845 H 0.96306 0.18384 0.75209 0.0
H1846 H 0.0044 0.19563 0.74669 0.0
H1847 H 0.98875 0.28611 0.74526 0.0
H1848 H 0.99666 0.30562 0.76697 0.0
H1849 H 0.96773 0.29276 0.76614 0.0
H1850 H 0.97395 0.27602 0.80458 0.0
H1851 H 0.00291 0.28859 0.80546 0.0
H1852 H -0.00098 0.25751 0.80987 0.0
H1853 H 0.04505 0.21236 0.74995 0.0
H1854 H 0.08141 0.23479 0.75812 0.0
H1855 H 0.03943 0.29263 0.78213 0.0
C1856 C 0.95998 0.23966 0.77283 0.0
C1857 C 0.95248 0.21698 0.76678 0.0
C1858 C 0.96845 0.20141 0.75664 0.0
C1859 C 0.99196 0.20792 0.75356 0.0
C1860 C -0.00101 0.2302 0.76029 0.0
C1861 C 0.98336 0.24602 0.76931 0.0
C1862 C 0.99553 0.26845 0.77608 0.0
C1863 C 0.98664 0.28948 0.76281 0.0
C1864 C 0.99268 0.27288 0.80044 0.0
C1865 C 0.02062 0.26238 0.77035 0.0
C1866 C 0.02228 0.24025 0.76122 0.0
C1867 C 0.04394 0.22995 0.75652 0.0
C1868 C 0.06441 0.24266 0.76126 0.0
C1869 C 0.06285 0.26536 0.77032 0.0
C1870 C 0.0408 0.27544 0.77471 0.0
H1871 H 0.4733 0.29037 0.54851 0.0
H1872 H 0.46759 0.30564 0.48023 0.0
H1873 H 0.48584 0.26702 0.47181 0.0
H1874 H 0.52809 0.26082 0.54753 0.0
H1875 H 0.51967 0.23936 0.56746 0.0
H1876 H 0.50644 0.2681 0.56767 0.0
H1877 H 0.46504 0.24916 0.56561 0.0
H1878 H 0.47816 0.22034 0.56538 0.0
H1879 H 0.45842 0.22894 0.54407 0.0
H1880 H 0.50738 0.22744 0.47154 0.0
H1881 H 0.52681 0.18928 0.47924 0.0
H1882 H 0.51475 0.19984 0.54761 0.0
C1883 C 0.47598 0.28564 0.53177 0.0
C1884 C 0.4694 0.30098 0.51498 0.0
C1885 C 0.47266 0.29405 0.49328 0.0
C1886 C 0.48301 0.27223 0.48838 0.0
C1887 C 0.48944 0.25752 0.50541 0.0
C1888 C 0.4857 0.26388 0.52665 0.0
C1889 C 0.49347 0.24489 0.54207 0.0
C1890 C 0.51309 0.25383 0.55706 0.0
C1891 C 0.47252 0.23526 0.55504 0.0
C1892 C 0.50261 0.22691 0.52627 0.0
C1893 C 0.50038 0.23449 0.50519 0.0
C1894 C 0.5089 0.2212 0.48796 0.0
C1895 C 0.51994 0.19964 0.49247 0.0
C1896 C 0.52196 0.19154 0.51397 0.0
C1897 C 0.51302 0.20536 0.53097 0.0
H1898 H 0.44992 0.72631 0.30677 0.0
H1899 H 0.43406 0.71942 0.23867 0.0
H1900 H 0.47258 0.73709 0.22966 0.0
H1901 H 0.48134 0.78155 0.30378 0.0
H1902 H 0.50258 0.77304 0.32387 0.0
H1903 H 0.47329 0.76107 0.32469 0.0
H1904 H 0.4906 0.7189 0.32411 0.0
H1905 H 0.51992 0.73072 0.32304 0.0
H1906 H 0.51017 0.71044 0.3026 0.0
H1907 H 0.51271 0.756 0.22833 0.0
H1908 H 0.55184 0.77364 0.2347 0.0
H1909 H 0.54208 0.76548 0.30367 0.0
C1910 C 0.45441 0.72883 0.28995 0.0
C1911 C 0.43903 0.72164 0.27337 0.0
C1912 C 0.44568 0.72475 0.25158 0.0
C1913 C 0.46746 0.73481 0.24633 0.0
C1914 C 0.4824 0.74136 0.2631 0.0
C1915 C 0.47618 0.73843 0.28447 0.0
C1916 C 0.49571 0.74604 0.29946 0.0
C1917 C 0.48775 0.76665 0.31379 0.0
C1918 C 0.50462 0.72528 0.3131 0.0
C1919 C 0.51392 0.75377 0.2832 0.0
C1920 C 0.50585 0.75115 0.26232 0.0
C1921 C 0.51928 0.75796 0.2446 0.0
C1922 C 0.54145 0.76792 0.24836 0.0
C1923 C 0.55005 0.7706 0.26965 0.0
C1924 C 0.53615 0.7632 0.28722 0.0
H1925 H 0.99175 0.69467 0.02233 0.0
H1926 H 0.05872 0.70778 0.99109 0.0
H1927 H 0.04589 0.74807 0.98224 0.0
H1928 H 0.95557 0.73185 0.98441 0.0
H1929 H 0.93676 0.74145 0.00609 0.0
H1930 H 0.94978 0.71255 0.00685 0.0
H1931 H 0.96779 0.72188 0.04425 0.0
H1932 H 0.955 0.75075 0.04357 0.0
H1933 H 0.98624 0.74743 0.04729 0.0
H1934 H 0.02925 0.7887 0.98364 0.0
H1935 H 0.00808 0.82571 0.99204 0.0
H1936 H 0.95077 0.78562 0.01943 0.0
C1937 C 0.00347 0.70581 0.01312 0.0
C1938 C 0.02624 0.69815 0.00746 0.0
C1939 C 0.04114 0.71325 0.9955 0.0
C1940 C 0.034 0.73617 0.99038 0.0
C1941 C 0.01173 0.74347 0.99687 0.0
C1942 C 0.99647 0.72857 0.00757 0.0
C1943 C 0.97419 0.74119 0.01416 0.0
C1944 C 0.95281 0.73116 0.00215 0.0
C1945 C 0.97062 0.74026 0.03877 0.0
C1946 C 0.97985 0.76582 0.00656 0.0
C1947 C 0.00154 0.76677 0.99651 0.0
C1948 C 0.01189 0.7881 0.99074 0.0
C1949 C -0.00014 0.80897 0.99558 0.0
C1950 C 0.97766 0.80817 0.00571 0.0
C1951 C 0.96736 0.78641 0.01089 0.0
H1952 H 0.116 0.24982 0.37089 0.0
H1953 H 0.1266 0.30059 0.31962 0.0
H1954 H 0.12993 0.33227 0.34653 0.0
H1955 H 0.07871 0.28376 0.40071 0.0
H1956 H 0.08907 0.2744 0.4268 0.0
H1957 H 0.09233 0.25534 0.40394 0.0
H1958 H 0.13716 0.25297 0.41114 0.0
H1959 H 0.13398 0.2724 0.43393 0.0
H1960 H 0.1542 0.27964 0.41256 0.0
H1961 H 0.12491 0.35894 0.37755 0.0
H1962 H 0.10946 0.37858 0.41013 0.0
H1963 H 0.10342 0.31125 0.44202 0.0
C1964 C 0.11969 0.26752 0.3654 0.0
C1965 C 0.12114 0.27275 0.34319 0.0
C1966 C 0.1254 0.29618 0.33656 0.0
C1967 C 0.12756 0.31427 0.35176 0.0
C1968 C 0.12557 0.30866 0.37354 0.0
C1969 C 0.12173 0.28584 0.38039 0.0
C1970 C 0.11708 0.28497 0.40444 0.0
C1971 C 0.09287 0.27399 0.40924 0.0
C1972 C 0.13679 0.27171 0.41621 0.0
C1973 C 0.11761 0.31098 0.4098 0.0
C1974 C 0.12311 0.3243 0.39183 0.0
C1975 C 0.1214 0.34877 0.39194 0.0
C1976 C 0.11279 0.35983 0.41052 0.0
C1977 C 0.10625 0.34643 0.42872 0.0
C1978 C 0.10957 0.32186 0.42866 0.0
H1979 H 0.93427 0.85553 0.69104 0.0
H1980 H 0.8658 0.86577 0.66244 0.0
H1981 H 0.8844 0.88033 0.62907 0.0
H1982 H 0.96713 0.9049 0.65969 0.0
H1983 H 0.9926 0.88622 0.65735 0.0
H1984 H 0.97425 0.88459 0.68102 0.0
H1985 H 0.96939 0.83987 0.67475 0.0
H1986 H 0.98701 0.84135 0.65081 0.0
H1987 H 0.95765 0.82957 0.64946 0.0
H1988 H 0.90939 0.8829 0.59666 0.0
H1989 H 0.93916 0.87686 0.56828 0.0
H1990 H 0.99209 0.86433 0.61723 0.0
C1991 C 0.92333 0.86252 0.67828 0.0
C1992 C 0.89868 0.8605 0.67945 0.0
C1993 C 0.88469 0.86812 0.662 0.0
C1994 C 0.89515 0.87623 0.64296 0.0
C1995 C 0.91962 0.87649 0.64166 0.0
C1996 C 0.93361 0.87028 0.65903 0.0
C1997 C 0.95916 0.86803 0.65235 0.0
C1998 C 0.97417 0.88708 0.66325 0.0
C1999 C 0.96884 0.84324 0.65712 0.0
C2000 C 0.95712 0.87238 0.62834 0.0
C2001 C 0.93425 0.87767 0.62257 0.0
C2002 C 0.92748 0.87951 0.60104 0.0
C2003 C 0.94446 0.87582 0.58502 0.0
C2004 C 0.96793 0.87029 0.59058 0.0
C2005 C 0.97437 0.86902 0.61254 0.0
H2006 H 0.39446 0.68737 0.94309 0.0
H2007 H 0.39065 0.61804 0.91478 0.0
H2008 H 0.37243 0.6348 0.88208 0.0
H2009 H 0.34041 0.71448 0.91408 0.0
H2010 H 0.35599 0.74185 0.91089 0.0
H2011 H 0.36098 0.7239 0.93441 0.0
H2012 H 0.40554 0.72387 0.92602 0.0
H2013 H 0.40075 0.74121 0.90228 0.0
H2014 H 0.41561 0.71331 0.9002 0.0
H2015 H 0.36462 0.65923 0.85001 0.0
H2016 H 0.3658 0.68933 0.82143 0.0
H2017 H 0.37583 0.7435 0.86979 0.0
C2018 C 0.38823 0.67568 0.93055 0.0
C2019 C 0.39299 0.6514 0.93159 0.0
C2020 C 0.38626 0.63658 0.91442 0.0
C2021 C 0.37603 0.646 0.89579 0.0
C2022 C 0.37286 0.67029 0.89459 0.0
C2023 C 0.37843 0.68496 0.91167 0.0
C2024 C 0.37745 0.71058 0.90496 0.0
C2025 C 0.35751 0.72346 0.91678 0.0
C2026 C 0.40125 0.72294 0.90857 0.0
C2027 C 0.372 0.70796 0.8812 0.0
C2028 C 0.36888 0.68463 0.87565 0.0
C2029 C 0.36636 0.67761 0.85424 0.0
C2030 C 0.36726 0.69481 0.83809 0.0
C2031 C 0.37081 0.71875 0.84341 0.0
C2032 C 0.37268 0.72538 0.86528 0.0
H2033 H 0.54325 0.1453 0.07957 0.0
H2034 H 0.48673 0.10962 0.11319 0.0
H2035 H 0.51231 0.10484 0.14504 0.0
H2036 H 0.59345 0.11189 0.10513 0.0
H2037 H 0.61119 0.13811 0.10622 0.0
H2038 H 0.59033 0.13416 0.08465 0.0
H2039 H 0.57073 0.17401 0.09424 0.0
H2040 H 0.59161 0.17812 0.11555 0.0
H2041 H 0.56059 0.17896 0.12141 0.0
H2042 H 0.5414 0.11008 0.17505 0.0
H2043 H 0.56959 0.12765 0.2007 0.0
H2044 H 0.60733 0.15912 0.1473 0.0
C2045 C 0.53645 0.13587 0.09339 0.0
C2046 C 0.51303 0.12779 0.09387 0.0
C2047 C 0.50466 0.11593 0.11244 0.0
C2048 C 0.51914 0.11295 0.13055 0.0
C2049 C 0.54202 0.12167 0.12976 0.0
C2050 C 0.55064 0.13281 0.11157 0.0
C2051 C 0.57454 0.14347 0.11568 0.0
C2052 C 0.5935 0.13116 0.10211 0.0
C2053 C 0.57433 0.17021 0.11149 0.0
C2054 C 0.57742 0.13788 0.13937 0.0
C2055 C 0.55884 0.1247 0.14712 0.0
C2056 C 0.55633 0.11989 0.16908 0.0
C2057 C 0.57252 0.12983 0.18356 0.0
C2058 C 0.59066 0.14468 0.17596 0.0
C2059 C 0.59379 0.14759 0.15353 0.0
H2060 H 0.10452 0.68996 0.06568 0.0
H2061 H 0.10013 0.61986 0.09231 0.0
H2062 H 0.11689 0.63417 0.12664 0.0
H2063 H 0.15842 0.71097 0.09831 0.0
H2064 H 0.14543 0.73969 0.10135 0.0
H2065 H 0.14021 0.72286 0.07718 0.0
H2066 H 0.09537 0.72699 0.08324 0.0
H2067 H 0.10036 0.74336 0.10754 0.0
H2068 H 0.08274 0.71704 0.1083 0.0
H2069 H 0.12493 0.65705 0.15973 0.0
H2070 H 0.12492 0.68652 0.1889 0.0
H2071 H 0.12323 0.7424 0.1413 0.0
C2072 C 0.10854 0.67749 0.07835 0.0
C2073 C 0.10197 0.65373 0.0763 0.0
C2074 C 0.10589 0.63797 0.09352 0.0
C2075 C 0.11531 0.64599 0.11304 0.0
C2076 C 0.12055 0.66984 0.11505 0.0
C2077 C 0.1176 0.68537 0.09806 0.0
C2078 C 0.12066 0.7106 0.1054 0.0
C2079 C 0.14249 0.72168 0.09494 0.0
C2080 C 0.09846 0.72533 0.10086 0.0
C2081 C 0.1243 0.70692 0.12934 0.0
C2082 C 0.12472 0.68328 0.13451 0.0
C2083 C 0.12527 0.6756 0.15584 0.0
C2084 C 0.12509 0.69247 0.17232 0.0
C2085 C 0.12419 0.71675 0.16737 0.0
C2086 C 0.12435 0.72398 0.14558 0.0
H2087 H 0.55445 0.84991 0.31258 0.0
H2088 H 0.62295 0.86453 0.33954 0.0
H2089 H 0.60427 0.88153 0.37192 0.0
H2090 H 0.52035 0.90062 0.3403 0.0
H2091 H 0.49557 0.88142 0.3445 0.0
H2092 H 0.51369 0.87803 0.32085 0.0
H2093 H 0.52023 0.83431 0.33077 0.0
H2094 H 0.50278 0.83761 0.35466 0.0
H2095 H 0.53254 0.82699 0.3567 0.0
H2096 H 0.57941 0.88735 0.40413 0.0
H2097 H 0.55013 0.8837 0.43321 0.0
H2098 H 0.49724 0.86377 0.38628 0.0
C2099 C 0.56535 0.85825 0.32468 0.0
C2100 C 0.59004 0.85687 0.32334 0.0
C2101 C 0.604 0.86631 0.34005 0.0
C2102 C 0.5935 0.87585 0.35853 0.0
C2103 C 0.56904 0.87557 0.36008 0.0
C2104 C 0.55506 0.86732 0.34345 0.0
C2105 C 0.52967 0.86492 0.35059 0.0
C2106 C 0.51389 0.88229 0.33833 0.0
C2107 C 0.52082 0.83945 0.34803 0.0
C2108 C 0.53181 0.87172 0.37412 0.0
C2109 C 0.55455 0.87829 0.37913 0.0
C2110 C 0.56141 0.88286 0.40029 0.0
C2111 C 0.54469 0.88053 0.41674 0.0
C2112 C 0.52138 0.87354 0.41201 0.0
C2113 C 0.51482 0.86953 0.39035 0.0
H2114 H 0.38604 0.25406 0.63996 0.0
H2115 H 0.37388 0.30861 0.68755 0.0
H2116 H 0.36831 0.33758 0.65837 0.0
H2117 H 0.42075 0.28729 0.60664 0.0
H2118 H 0.41027 0.27475 0.58175 0.0
H2119 H 0.40886 0.25792 0.60618 0.0
H2120 H 0.36408 0.25217 0.60039 0.0
H2121 H 0.36538 0.26949 0.57606 0.0
H2122 H 0.34536 0.27753 0.59735 0.0
H2123 H 0.37064 0.36156 0.62491 0.0
H2124 H 0.38416 0.37876 0.59052 0.0
H2125 H 0.39349 0.30906 0.56412 0.0
C2126 C 0.38162 0.27199 0.64423 0.0
C2127 C 0.38027 0.27904 0.66605 0.0
C2128 C 0.37498 0.30277 0.67096 0.0
C2129 C 0.37156 0.31932 0.65447 0.0
C2130 C 0.37332 0.31187 0.63311 0.0
C2131 C 0.37828 0.28874 0.62796 0.0
C2132 C 0.38229 0.28584 0.60395 0.0
C2133 C 0.407 0.27589 0.59938 0.0
C2134 C 0.36313 0.27034 0.59385 0.0
C2135 C 0.37999 0.31114 0.59652 0.0
C2136 C 0.37424 0.32581 0.61353 0.0
C2137 C 0.37436 0.35023 0.61132 0.0
C2138 C 0.3818 0.3599 0.59166 0.0
C2139 C 0.38885 0.34519 0.57448 0.0
C2140 C 0.38689 0.32058 0.57664 0.0
H2141 H -0.00111 0.12754 0.88611 0.0
H2142 H 0.94824 0.12631 0.93838 0.0
H2143 H 0.91599 0.12348 0.91205 0.0
H2144 H 0.96845 0.16486 0.85387 0.0
H2145 H 0.97628 0.15132 0.82859 0.0
H2146 H 0.99527 0.14817 0.85148 0.0
H2147 H 0.99296 0.10281 0.84765 0.0
H2148 H 0.97357 0.10594 0.82483 0.0
H2149 H 0.9647 0.08851 0.8477 0.0
H2150 H 0.88946 0.12882 0.88099 0.0
H2151 H 0.87111 0.14407 0.84774 0.0
H2152 H 0.938 0.14 0.81491 0.0
C2153 C 0.98105 0.12598 0.892 0.0
C2154 C 0.97609 0.12708 0.91429 0.0
C2155 C 0.95249 0.12551 0.92138 0.0
C2156 C 0.93403 0.12366 0.90653 0.0
C2157 C 0.93943 0.12315 0.88463 0.0
C2158 C 0.96239 0.12419 0.87736 0.0
C2159 C 0.9633 0.1266 0.85305 0.0
C2160 C 0.97659 0.14907 0.84638 0.0
C2161 C 0.97428 0.10465 0.8427 0.0
C2162 C 0.9373 0.12825 0.84793 0.0
C2163 C 0.9238 0.12561 0.86634 0.0
C2164 C 0.89968 0.13004 0.86632 0.0
C2165 C 0.88932 0.13852 0.84735 0.0
C2166 C 0.90303 0.14222 0.82868 0.0
C2167 C 0.92701 0.13602 0.8287 0.0
H2168 H 0.88471 0.70278 0.67127 0.0
H2169 H 0.85172 0.76076 0.63737 0.0
H2170 H 0.84632 0.7354 0.60545 0.0
H2171 H 0.91809 0.68399 0.62963 0.0
H2172 H 0.91589 0.65303 0.63551 0.0
H2173 H 0.91248 0.67411 0.65677 0.0
H2174 H 0.87178 0.65623 0.66608 0.0
H2175 H 0.87503 0.63518 0.64455 0.0
H2176 H 0.84959 0.65404 0.64545 0.0
H2177 H 0.8505 0.70605 0.57553 0.0
H2178 H 0.86703 0.67708 0.55001 0.0
H2179 H 0.89657 0.63812 0.6036 0.0
C2180 C 0.87576 0.70998 0.65735 0.0
C2181 C 0.8686 0.73371 0.65683 0.0
C2182 C 0.85734 0.74259 0.63815 0.0
C2183 C 0.854 0.72825 0.62 0.0
C2184 C 0.86175 0.70501 0.62086 0.0
C2185 C 0.87235 0.69594 0.63913 0.0
C2186 C 0.88202 0.67157 0.63512 0.0
C2187 C 0.90868 0.67065 0.63949 0.0
C2188 C 0.86881 0.65317 0.6486 0.0
C2189 C 0.87652 0.66891 0.61139 0.0
C2190 C 0.8642 0.68804 0.60354 0.0
C2191 C 0.85964 0.69072 0.58156 0.0
C2192 C 0.86898 0.67409 0.56716 0.0
C2193 C 0.88303 0.65535 0.57486 0.0
C2194 C 0.88566 0.65213 0.5973 0.0
H2195 H 0.00728 0.1313 0.39068 0.0
H2196 H 0.06209 0.12028 0.4382 0.0
H2197 H 0.09118 0.11566 0.40904 0.0
H2198 H 0.0326 0.09193 0.34721 0.0
H2199 H 0.02383 0.11218 0.32635 0.0
H2200 H 0.00643 0.10943 0.35053 0.0
H2201 H 0.01011 0.15427 0.35736 0.0
H2202 H 0.02705 0.15711 0.33312 0.0
H2203 H 0.0389 0.16744 0.35834 0.0
H2204 H 0.1151 0.11983 0.37605 0.0
H2205 H 0.13198 0.13591 0.34249 0.0
H2206 H 0.06228 0.14302 0.31563 0.0
C2207 C 0.02529 0.12722 0.39491 0.0
C2208 C 0.03241 0.12602 0.4167 0.0
C2209 C 0.05622 0.12125 0.42162 0.0
C2210 C 0.07284 0.11835 0.40514 0.0
C2211 C 0.06536 0.1201 0.3838 0.0
C2212 C 0.04212 0.12445 0.37864 0.0
C2213 C 0.03921 0.12902 0.35473 0.0
C2214 C 0.02465 0.10947 0.34408 0.0
C2215 C 0.0282 0.1534 0.35067 0.0
C2216 C 0.06463 0.12802 0.34745 0.0
C2217 C 0.07938 0.12216 0.36437 0.0
C2218 C 0.10376 0.1236 0.36247 0.0
C2219 C 0.11326 0.13253 0.3433 0.0
C2220 C 0.09841 0.13973 0.3263 0.0
C2221 C 0.07394 0.13636 0.32801 0.0
H2222 H 0.60891 0.30998 0.06124 0.0
H2223 H 0.61633 0.37794 0.09166 0.0
H2224 H 0.63348 0.35903 0.12386 0.0
H2225 H 0.58587 0.28405 0.10331 0.0
H2226 H 0.59897 0.25535 0.1005 0.0
H2227 H 0.59542 0.27374 0.07724 0.0
H2228 H 0.63994 0.2712 0.06899 0.0
H2229 H 0.64365 0.25219 0.09201 0.0
H2230 H 0.66093 0.27862 0.08966 0.0
H2231 H 0.64007 0.33305 0.15515 0.0
H2232 H 0.63707 0.30213 0.18284 0.0
H2233 H 0.62351 0.25038 0.13297 0.0
C2234 C 0.61573 0.32087 0.07413 0.0
C2235 C 0.61227 0.3454 0.07381 0.0
C2236 C 0.61971 0.35919 0.09145 0.0
C2237 C 0.62934 0.34855 0.10981 0.0
C2238 C 0.63114 0.32409 0.11028 0.0
C2239 C 0.62482 0.31038 0.09277 0.0
C2240 C 0.62415 0.28453 0.09875 0.0
C2241 C 0.59965 0.27382 0.09472 0.0
C2242 C 0.64332 0.27083 0.08663 0.0
C2243 C 0.62961 0.28599 0.1226 0.0
C2244 C 0.63417 0.30888 0.12881 0.0
C2245 C 0.63716 0.31498 0.1504 0.0
C2246 C 0.63522 0.2973 0.16604 0.0
C2247 C 0.63011 0.27383 0.16006 0.0
C2248 C 0.62778 0.2681 0.13801 0.0
H2249 H 0.44259 0.85422 0.92622 0.0
H2250 H 0.49536 0.89669 0.89418 0.0
H2251 H 0.47026 0.89877 0.86177 0.0
H2252 H 0.43119 0.81907 0.88395 0.0
H2253 H 0.40012 0.81579 0.88876 0.0
H2254 H 0.41943 0.82245 0.91077 0.0
H2255 H 0.39451 0.85936 0.91979 0.0
H2256 H 0.37514 0.85283 0.89759 0.0
H2257 H 0.38923 0.88115 0.89925 0.0
H2258 H 0.44295 0.89045 0.83105 0.0
H2259 H 0.41796 0.86985 0.80451 0.0
H2260 H 0.38314 0.83283 0.85657 0.0
C2261 C 0.44852 0.86463 0.91266 0.0
C2262 C 0.47083 0.87539 0.91275 0.0
C2263 C 0.47826 0.88834 0.89447 0.0
C2264 C 0.46403 0.88979 0.87605 0.0
C2265 C 0.44236 0.87835 0.87622 0.0
C2266 C 0.43463 0.86607 0.89413 0.0
C2267 C 0.41249 0.85237 0.88926 0.0
C2268 C 0.41604 0.82587 0.89342 0.0
C2269 C 0.3916 0.86201 0.90225 0.0
C2270 C 0.40977 0.85769 0.8655 0.0
C2271 C 0.4267 0.87328 0.85836 0.0
C2272 C 0.42926 0.87867 0.83652 0.0
C2273 C 0.41491 0.86698 0.82154 0.0
C2274 C 0.3986 0.84982 0.82852 0.0
C2275 C 0.3953 0.84608 0.85082 0.0
H2276 H 0.89578 0.31204 0.93937 0.0
H2277 H 0.89199 0.37994 0.90827 0.0
H2278 H 0.8782 0.36105 0.87477 0.0
H2279 H 0.92259 0.28548 0.89971 0.0
H2280 H 0.90884 0.25699 0.90133 0.0
H2281 H 0.91016 0.27538 0.9248 0.0
H2282 H 0.86496 0.27367 0.92907 0.0
H2283 H 0.86342 0.25456 0.90591 0.0
H2284 H 0.84637 0.28127 0.90659 0.0
H2285 H 0.8755 0.33501 0.84302 0.0
H2286 H 0.88042 0.30374 0.81584 0.0
H2287 H 0.88701 0.25203 0.8669 0.0
C2288 C 0.89034 0.32294 0.92595 0.0
C2289 C 0.89401 0.34745 0.92649 0.0
C2290 C 0.88841 0.36123 0.90827 0.0
C2291 C 0.88075 0.35059 0.88915 0.0
C2292 C 0.87893 0.32615 0.88855 0.0
C2293 C 0.88313 0.31245 0.90661 0.0
C2294 C 0.88402 0.28655 0.9008 0.0
C2295 C 0.90781 0.27549 0.90702 0.0
C2296 C 0.86346 0.27323 0.91121 0.0
C2297 C 0.88115 0.28795 0.87656 0.0
C2298 C 0.87781 0.31089 0.86987 0.0
C2299 C 0.8774 0.3169 0.84809 0.0
C2300 C 0.88046 0.29905 0.83277 0.0
C2301 C 0.88397 0.27545 0.83927 0.0
C2302 C 0.88393 0.26986 0.86146 0.0
H2303 H 0.5 0.12472 0.61383 0.0
H2304 H 0.44665 0.12302 0.56389 0.0
H2305 H 0.41574 0.12441 0.59167 0.0
H2306 H 0.46555 0.09099 0.65597 0.0
H2307 H 0.4768 0.10937 0.67727 0.0
H2308 H 0.49465 0.1033 0.65389 0.0
H2309 H 0.49968 0.14801 0.64726 0.0
H2310 H 0.48203 0.15416 0.67057 0.0
H2311 H 0.47391 0.16628 0.64476 0.0
H2312 H 0.39131 0.1338 0.62349 0.0
H2313 H 0.37542 0.15097 0.65708 0.0
H2314 H 0.44382 0.14519 0.68701 0.0
C2315 C 0.48181 0.12389 0.60878 0.0
C2316 C 0.47574 0.12368 0.5867 0.0
C2317 C 0.45174 0.12314 0.58071 0.0
C2318 C 0.43403 0.12375 0.5964 0.0
C2319 C 0.44059 0.12465 0.61802 0.0
C2320 C 0.46391 0.12454 0.62426 0.0
C2321 C 0.46633 0.12862 0.64829 0.0
C2322 C 0.47643 0.10676 0.65952 0.0
C2323 C 0.48136 0.15057 0.65297 0.0
C2324 C 0.44082 0.1324 0.65438 0.0
C2325 C 0.4262 0.12954 0.63674 0.0
C2326 C 0.40239 0.13528 0.6376 0.0
C2327 C 0.39347 0.14493 0.65671 0.0
C2328 C 0.40828 0.14848 0.67467 0.0
C2329 C 0.43201 0.14148 0.67374 0.0
H2330 H 0.60719 0.70008 0.33204 0.0
H2331 H 0.64367 0.757 0.36429 0.0
H2332 H 0.64795 0.7323 0.39681 0.0
H2333 H 0.57304 0.685 0.37442 0.0
H2334 H 0.57307 0.65376 0.36952 0.0
H2335 H 0.5777 0.67376 0.34757 0.0
H2336 H 0.61702 0.65287 0.33855 0.0
H2337 H 0.61253 0.63284 0.3607 0.0
H2338 H 0.63919 0.64986 0.35912 0.0
H2339 H 0.6426 0.70404 0.42748 0.0
H2340 H 0.62502 0.6767 0.45391 0.0
H2341 H 0.59193 0.63838 0.40169 0.0
C2342 C 0.61676 0.70707 0.34569 0.0
C2343 C 0.62522 0.73038 0.3456 0.0
C2344 C 0.63708 0.73914 0.364 0.0
C2345 C 0.63978 0.72516 0.38248 0.0
C2346 C 0.63064 0.70242 0.38228 0.0
C2347 C 0.61939 0.69344 0.3643 0.0
C2348 C 0.60812 0.66993 0.36911 0.0
C2349 C 0.58142 0.67069 0.36492 0.0
C2350 C 0.61993 0.65021 0.3561 0.0
C2351 C 0.61362 0.6677 0.39288 0.0
C2352 C 0.62724 0.68623 0.4001 0.0
C2353 C 0.63238 0.68918 0.42194 0.0
C2354 C 0.62243 0.67348 0.43686 0.0
C2355 C 0.60717 0.65539 0.42983 0.0
C2356 C 0.60374 0.65189 0.40751 0.0
H2357 H 0.1076 0.82654 0.15047 0.0
H2358 H 0.07216 0.86763 0.19958 0.0
H2359 H 0.04891 0.88752 0.17125 0.0
H2360 H 0.10596 0.87266 0.10616 0.0
H2361 H 0.10083 0.85027 0.08614 0.0
H2362 H 0.11839 0.84374 0.10958 0.0
H2363 H 0.09112 0.80854 0.11832 0.0
H2364 H 0.07332 0.81509 0.09522 0.0
H2365 H 0.06002 0.81354 0.12155 0.0
H2366 H 0.02407 0.89642 0.13867 0.0
H2367 H 0.00133 0.89509 0.10479 0.0
H2368 H 0.05327 0.84812 0.07708 0.0
C2369 C 0.09558 0.84036 0.15524 0.0
C2370 C 0.0917 0.84558 0.17722 0.0
C2371 C 0.07562 0.86355 0.18283 0.0
C2372 C 0.0623 0.8749 0.16682 0.0
C2373 C 0.06563 0.86834 0.14533 0.0
C2374 C 0.08224 0.85177 0.13952 0.0
C2375 C 0.08058 0.84562 0.11583 0.0
C2376 C 0.10276 0.85355 0.10371 0.0
C2377 C 0.07597 0.81914 0.11256 0.0
C2378 C 0.05952 0.86023 0.10942 0.0
C2379 C 0.05138 0.87356 0.12652 0.0
C2380 C 0.03065 0.88653 0.12504 0.0
C2381 C 0.01778 0.88556 0.10576 0.0
C2382 C 0.0256 0.87159 0.08825 0.0
C2383 C 0.04705 0.8593 0.09002 0.0
H2384 H 0.59333 0.80132 0.83063 0.0
H2385 H 0.63568 0.74637 0.85968 0.0
H2386 H 0.64035 0.7706 0.8924 0.0
H2387 H 0.62452 0.85263 0.85651 0.0
H2388 H 0.59723 0.86833 0.85979 0.0
H2389 H 0.60118 0.84879 0.83719 0.0
H2390 H 0.5636 0.8259 0.84814 0.0
H2391 H 0.55949 0.84543 0.87053 0.0
H2392 H 0.56129 0.81417 0.87507 0.0
H2393 H 0.63475 0.79773 0.92404 0.0
H2394 H 0.61742 0.82385 0.95171 0.0
H2395 H 0.57988 0.86147 0.90163 0.0
C2396 C 0.60414 0.79464 0.84362 0.0
C2397 C 0.61415 0.77197 0.84256 0.0
C2398 C 0.62785 0.76372 0.86008 0.0
C2399 C 0.63076 0.77744 0.8787 0.0
C2400 C 0.62013 0.79951 0.87946 0.0
C2401 C 0.60722 0.8081 0.86227 0.0
C2402 C 0.59518 0.83097 0.86798 0.0
C2403 C 0.60513 0.85139 0.85457 0.0
C2404 C 0.56832 0.82897 0.86529 0.0
C2405 C 0.60216 0.83319 0.89143 0.0
C2406 C 0.61704 0.81524 0.89769 0.0
C2407 C 0.62357 0.8122 0.91923 0.0
C2408 C 0.61375 0.82721 0.93485 0.0
C2409 C 0.59737 0.84472 0.9288 0.0
C2410 C 0.59255 0.84839 0.90671 0.0
H2411 H 0.39247 0.33782 0.15009 0.0
H2412 H 0.42901 0.37178 0.2029 0.0
H2413 H 0.45629 0.39014 0.1769 0.0
H2414 H 0.43962 0.31985 0.12423 0.0
H2415 H 0.4293 0.32399 0.09702 0.0
H2416 H 0.40858 0.31934 0.11838 0.0
H2417 H 0.38729 0.35827 0.10899 0.0
H2418 H 0.40767 0.36288 0.08714 0.0
H2419 H 0.40383 0.38524 0.10743 0.0
H2420 H 0.48484 0.39649 0.14663 0.0
H2421 H 0.51025 0.39286 0.11452 0.0
H2422 H 0.45516 0.35429 0.08161 0.0
C2423 C 0.40554 0.34998 0.15612 0.0
C2424 C 0.40861 0.35341 0.17849 0.0
C2425 C 0.42613 0.36915 0.18581 0.0
C2426 C 0.44178 0.37958 0.17113 0.0
C2427 C 0.43934 0.3744 0.14924 0.0
C2428 C 0.42127 0.36036 0.14172 0.0
C2429 C 0.42428 0.35466 0.11805 0.0
C2430 C 0.42553 0.32789 0.11423 0.0
C2431 C 0.4046 0.36594 0.10461 0.0
C2432 C 0.44764 0.36635 0.11371 0.0
C2433 C 0.45586 0.37806 0.13174 0.0
C2434 C 0.47827 0.38795 0.13226 0.0
C2435 C 0.49266 0.38564 0.11399 0.0
C2436 C 0.48464 0.37336 0.09553 0.0
C2437 C 0.46165 0.3641 0.09533 0.0
H2438 H 0.92284 0.14514 0.40261 0.0
H2439 H 0.88052 0.1763 0.45321 0.0
H2440 H 0.86192 0.20253 0.42636 0.0
H2441 H 0.93742 0.1951 0.3781 0.0
H2442 H 0.9366 0.18455 0.35072 0.0
H2443 H 0.94214 0.16437 0.37237 0.0
H2444 H 0.90692 0.13858 0.36053 0.0
H2445 H 0.9015 0.15845 0.33843 0.0
H2446 H 0.87833 0.15177 0.35728 0.0
H2447 H 0.85473 0.23083 0.3957 0.0
H2448 H 0.85695 0.25629 0.36345 0.0
H2449 H 0.90395 0.20619 0.33307 0.0
C2450 C 0.90895 0.1568 0.40791 0.0
C2451 C 0.90305 0.15865 0.42996 0.0
C2452 C 0.88505 0.17436 0.43635 0.0
C2453 C 0.87448 0.1894 0.4212 0.0
C2454 C 0.88183 0.18815 0.39974 0.0
C2455 C 0.8983 0.17183 0.39304 0.0
C2456 C 0.90531 0.17569 0.36977 0.0
C2457 C 0.93193 0.1802 0.36764 0.0
C2458 C 0.89754 0.15489 0.35567 0.0
C2459 C 0.89123 0.19753 0.36472 0.0
C2460 C 0.87753 0.20431 0.38206 0.0
C2461 C 0.8649 0.22533 0.38185 0.0
C2462 C 0.8664 0.23976 0.36352 0.0
C2463 C 0.8805 0.23314 0.3457 0.0
C2464 C 0.89269 0.21154 0.34627 0.0
H2465 H 0.03731 0.63966 0.5825 0.0
H2466 H 0.98248 0.6007 0.61538 0.0
H2467 H 0.00711 0.59896 0.64813 0.0
H2468 H 0.08904 0.61149 0.61048 0.0
H2469 H 0.10446 0.63914 0.61144 0.0
H2470 H 0.08485 0.63285 0.58936 0.0
H2471 H 0.06169 0.67117 0.59735 0.0
H2472 H 0.08125 0.67758 0.61925 0.0
H2473 H 0.05005 0.67594 0.62404 0.0
H2474 H 0.03479 0.60699 0.67878 0.0
H2475 H 0.06116 0.62665 0.70479 0.0
H2476 H 0.09775 0.66031 0.65181 0.0
C2477 C 0.03078 0.6301 0.59635 0.0
C2478 C 0.00806 0.6202 0.59636 0.0
C2479 C -0.00011 0.60836 0.615 0.0
C2480 C 0.01384 0.60712 0.63363 0.0
C2481 C 0.03596 0.61766 0.6333 0.0
C2482 C 0.04439 0.62888 0.61507 0.0
C2483 C 0.06715 0.64163 0.61964 0.0
C2484 C 0.08759 0.63061 0.60698 0.0
C2485 C 0.06488 0.66813 0.6148 0.0
C2486 C 0.06957 0.63695 0.64354 0.0
C2487 C 0.05181 0.62254 0.65106 0.0
C2488 C 0.04907 0.61785 0.67302 0.0
C2489 C 0.06421 0.62902 0.6877 0.0
C2490 C 0.08151 0.64497 0.68031 0.0
C2491 C 0.08482 0.64802 0.65792 0.0
H2492 H 0.6133 0.19527 0.67047 0.0
H2493 H 0.64918 0.2522 0.63765 0.0
H2494 H 0.65153 0.22804 0.60464 0.0
H2495 H 0.64286 0.14488 0.64101 0.0
H2496 H 0.61574 0.12853 0.64034 0.0
H2497 H 0.62194 0.14787 0.66266 0.0
H2498 H 0.58268 0.16988 0.65596 0.0
H2499 H 0.57636 0.15058 0.63385 0.0
H2500 H 0.57682 0.18194 0.62961 0.0
H2501 H 0.64397 0.20071 0.5738 0.0
H2502 H 0.62402 0.17478 0.54765 0.0
H2503 H 0.59275 0.13587 0.60046 0.0
C2504 C 0.62238 0.20235 0.65657 0.0
C2505 C 0.6312 0.22551 0.65665 0.0
C2506 C 0.64236 0.23443 0.63795 0.0
C2507 C 0.64396 0.22075 0.61918 0.0
C2508 C 0.63443 0.19816 0.6194 0.0
C2509 C 0.62387 0.18903 0.63767 0.0
C2510 C 0.61177 0.16593 0.63293 0.0
C2511 C 0.6238 0.1456 0.64495 0.0
C2512 C 0.58536 0.16719 0.63839 0.0
C2513 C 0.61592 0.16419 0.60889 0.0
C2514 C 0.62967 0.18252 0.60146 0.0
C2515 C 0.63364 0.18598 0.57947 0.0
C2516 C 0.62232 0.17109 0.5647 0.0
C2517 C 0.60688 0.1533 0.57205 0.0
C2518 C 0.60467 0.14917 0.5944 0.0
H2519 H 0.06298 0.35035 0.81603 0.0
H2520 H 0.13064 0.35548 0.84738 0.0
H2521 H 0.11169 0.37235 0.87969 0.0
H2522 H 0.03323 0.4031 0.8443 0.0
H2523 H 0.00605 0.38696 0.84618 0.0
H2524 H 0.02534 0.38244 0.82348 0.0
H2525 H 0.02585 0.33783 0.8317 0.0
H2526 H 0.00712 0.34216 0.85464 0.0
H2527 H 0.03515 0.32784 0.85793 0.0
H2528 H 0.08539 0.37935 0.91073 0.0
H2529 H 0.05376 0.37812 0.93787 0.0
H2530 H 0.00244 0.36751 0.8871 0.0
C2531 C 0.07383 0.35654 0.8292 0.0
C2532 C 0.09829 0.35256 0.82907 0.0
C2533 C 0.11198 0.35924 0.84704 0.0
C2534 C 0.10131 0.36871 0.86546 0.0
C2535 C 0.07693 0.37118 0.86566 0.0
C2536 C 0.06333 0.36561 0.84787 0.0
C2537 C 0.03736 0.36607 0.85344 0.0
C2538 C 0.02475 0.38583 0.84112 0.0
C2539 C 0.02572 0.34205 0.84918 0.0
C2540 C 0.03857 0.37143 0.87733 0.0
C2541 C 0.06152 0.37476 0.88396 0.0
C2542 C 0.06731 0.37741 0.90566 0.0
C2543 C 0.04923 0.37649 0.92098 0.0
C2544 C 0.02564 0.37286 0.91458 0.0
C2545 C 0.02026 0.37076 0.89242 0.0
H2546 H 0.90904 0.79967 0.17475 0.0
H2547 H 0.85693 0.75098 0.15005 0.0
H2548 H 0.85248 0.77542 0.11745 0.0
H2549 H 0.88312 0.85474 0.1504 0.0
H2550 H 0.91197 0.86625 0.14468 0.0
H2551 H 0.90742 0.84775 0.16791 0.0
H2552 H 0.94018 0.81957 0.15453 0.0
H2553 H 0.94485 0.83798 0.13145 0.0
H2554 H 0.93817 0.80725 0.12781 0.0
H2555 H 0.85846 0.80131 0.08523 0.0
H2556 H 0.87606 0.82489 0.05587 0.0
H2557 H 0.92382 0.85672 0.10186 0.0
C2558 C 0.89619 0.79452 0.16279 0.0
C2559 C 0.88332 0.77349 0.16495 0.0
C2560 C 0.86699 0.76707 0.14873 0.0
C2561 C 0.86419 0.78094 0.13023 0.0
C2562 C 0.87765 0.80129 0.12829 0.0
C2563 C 0.89325 0.80811 0.14423 0.0
C2564 C 0.90785 0.8289 0.13715 0.0
C2565 C 0.90224 0.8507 0.15085 0.0
C2566 C 0.93431 0.82305 0.13776 0.0
C2567 C 0.89904 0.83182 0.11432 0.0
C2568 C 0.88117 0.81619 0.10963 0.0
C2569 C 0.87206 0.81401 0.08883 0.0
C2570 C 0.8821 0.82751 0.07225 0.0
C2571 C 0.90127 0.8426 0.07663 0.0
C2572 C 0.90905 0.84544 0.09807 0.0
H2573 H 0.38677 0.64427 0.35642 0.0
H2574 H 0.42837 0.61907 0.30269 0.0
H2575 H 0.45681 0.6017 0.3282 0.0
H2576 H 0.43014 0.66578 0.38404 0.0
H2577 H 0.42029 0.65857 0.41086 0.0
H2578 H 0.39928 0.66175 0.38954 0.0
H2579 H 0.38336 0.61979 0.39647 0.0
H2580 H 0.40395 0.6166 0.41838 0.0
H2581 H 0.40339 0.59523 0.39693 0.0
H2582 H 0.48547 0.59725 0.35848 0.0
H2583 H 0.51 0.60271 0.3909 0.0
H2584 H 0.45 0.63155 0.42498 0.0
C2585 C 0.40121 0.63397 0.35005 0.0
C2586 C 0.40535 0.6329 0.32763 0.0
C2587 C 0.42464 0.61974 0.3198 0.0
C2588 C 0.44098 0.60994 0.33422 0.0
C2589 C 0.43745 0.61313 0.35632 0.0
C2590 C 0.41765 0.62432 0.36422 0.0
C2591 C 0.41962 0.6289 0.38821 0.0
C2592 C 0.4172 0.6553 0.39344 0.0
C2593 C 0.40151 0.61425 0.40074 0.0
C2594 C 0.4443 0.62018 0.39232 0.0
C2595 C 0.45413 0.61064 0.37388 0.0
C2596 C 0.47771 0.60401 0.37315 0.0
C2597 C 0.49157 0.60738 0.39161 0.0
C2598 C 0.48187 0.6175 0.4105 0.0
C2599 C 0.45781 0.62343 0.41091 0.0
H2600 H 0.39074 0.19326 0.06278 0.0
H2601 H 0.38074 0.12399 0.08993 0.0
H2602 H 0.36464 0.14169 0.12317 0.0
H2603 H 0.41469 0.21619 0.10615 0.0
H2604 H 0.40249 0.2454 0.1046 0.0
H2605 H 0.40558 0.22814 0.08056 0.0
H2606 H 0.36119 0.23249 0.07235 0.0
H2607 H 0.35797 0.25038 0.09618 0.0
H2608 H 0.33989 0.22465 0.09264 0.0
H2609 H 0.35905 0.16624 0.15578 0.0
H2610 H 0.36239 0.19575 0.18476 0.0
H2611 H 0.37747 0.24954 0.13713 0.0
C2612 C 0.38359 0.18192 0.07519 0.0
C2613 C 0.38599 0.15731 0.07362 0.0
C2614 C 0.37813 0.14284 0.09065 0.0
C2615 C 0.36912 0.15279 0.10961 0.0
C2616 C 0.36831 0.17724 0.11128 0.0
C2617 C 0.37501 0.19167 0.09439 0.0
C2618 C 0.37644 0.21714 0.10152 0.0
C2619 C 0.40127 0.22728 0.098 0.0
C2620 C 0.35775 0.23205 0.08999 0.0
C2621 C 0.37085 0.2146 0.12527 0.0
C2622 C 0.36572 0.19153 0.13049 0.0
C2623 C 0.36242 0.18446 0.1518 0.0
C2624 C 0.36454 0.20132 0.16818 0.0
C2625 C 0.3701 0.22497 0.16321 0.0
C2626 C 0.37284 0.23168 0.14142 0.0
H2627 H 0.55785 0.64301 0.81579 0.0
H2628 H 0.62673 0.64655 0.84499 0.0
H2629 H 0.61034 0.63169 0.87927 0.0
H2630 H 0.52977 0.66766 0.85648 0.0
H2631 H 0.50289 0.65095 0.85544 0.0
H2632 H 0.52042 0.65425 0.83157 0.0
H2633 H 0.52324 0.60906 0.82728 0.0
H2634 H 0.50515 0.60551 0.85093 0.0
H2635 H 0.53347 0.59139 0.84951 0.0
H2636 H 0.58571 0.62554 0.9117 0.0
H2637 H 0.55499 0.62694 0.93969 0.0
H2638 H 0.50136 0.6289 0.88999 0.0
C2639 C 0.56961 0.63911 0.82904 0.0
C2640 C 0.59364 0.64494 0.82769 0.0
C2641 C 0.60844 0.6413 0.84565 0.0
C2642 C 0.59923 0.63299 0.86517 0.0
C2643 C 0.57515 0.62864 0.86644 0.0
C2644 C 0.56053 0.63127 0.84876 0.0
C2645 C 0.5349 0.62942 0.85524 0.0
C2646 C 0.52122 0.65191 0.84934 0.0
C2647 C 0.52352 0.60754 0.84514 0.0
C2648 C 0.53734 0.62672 0.87942 0.0
C2649 C 0.56069 0.62579 0.8855 0.0
C2650 C 0.56737 0.62566 0.90711 0.0
C2651 C 0.54978 0.62664 0.92291 0.0
C2652 C 0.52576 0.62796 0.91704 0.0
C2653 C 0.51955 0.62757 0.89499 0.0
H2654 H 0.09699 0.80465 0.56507 0.0
H2655 H 0.10035 0.87429 0.59279 0.0
H2656 H 0.11735 0.85779 0.62617 0.0
H2657 H 0.07427 0.77939 0.60795 0.0
H2658 H 0.08896 0.75136 0.6064 0.0
H2659 H 0.08484 0.76851 0.58242 0.0
H2660 H 0.12959 0.76803 0.57489 0.0
H2661 H 0.1339 0.7503 0.59867 0.0
H2662 H 0.14975 0.77752 0.59554 0.0
H2663 H 0.12467 0.83357 0.65865 0.0
H2664 H 0.12311 0.8037 0.68743 0.0
H2665 H 0.11336 0.74921 0.6393 0.0
C2666 C 0.10284 0.81645 0.57767 0.0
C2667 C 0.09833 0.84076 0.57623 0.0
C2668 C 0.10455 0.85572 0.59346 0.0
C2669 C 0.11409 0.84645 0.61248 0.0
C2670 C 0.11706 0.82216 0.614 0.0
C2671 C 0.1119 0.80733 0.59693 0.0
C2672 C 0.11254 0.78179 0.60389 0.0
C2673 C 0.08874 0.76957 0.59994 0.0
C2674 C 0.13265 0.76863 0.59258 0.0
C2675 C 0.11745 0.78463 0.62773 0.0
C2676 C 0.12056 0.808 0.63315 0.0
C2677 C 0.12288 0.81517 0.65453 0.0
C2678 C 0.1218 0.79808 0.6708 0.0
C2679 C 0.11818 0.77411 0.66562 0.0
C2680 C 0.11648 0.76735 0.64376 0.0
H2681 H 0.88687 0.34835 0.35029 0.0
H2682 H 0.92844 0.37521 0.29723 0.0
H2683 H 0.95612 0.39298 0.32318 0.0
H2684 H 0.90153 0.39732 0.39128 0.0
H2685 H 0.90242 0.3758 0.4126 0.0
H2686 H 0.88227 0.37218 0.39041 0.0
H2687 H 0.89957 0.33077 0.38338 0.0
H2688 H 0.92013 0.33439 0.40501 0.0
H2689 H 0.93062 0.3277 0.37828 0.0
H2690 H 0.9842 0.39823 0.35399 0.0
H2691 H 0.00829 0.3935 0.38682 0.0
H2692 H 0.94868 0.36231 0.41972 0.0
C2693 C 0.90112 0.35904 0.34415 0.0
C2694 C 0.90547 0.36048 0.32177 0.0
C2695 C 0.92454 0.37421 0.31429 0.0
C2696 C 0.94045 0.38424 0.32897 0.0
C2697 C 0.93675 0.38073 0.351 0.0
C2698 C 0.91716 0.36893 0.35857 0.0
C2699 C 0.91891 0.36422 0.38255 0.0
C2700 C 0.90017 0.37822 0.39494 0.0
C2701 C 0.91722 0.33772 0.38757 0.0
C2702 C 0.94325 0.37364 0.38703 0.0
C2703 C 0.95309 0.3836 0.3688 0.0
C2704 C 0.97642 0.39109 0.3685 0.0
C2705 C 0.99003 0.38816 0.38719 0.0
C2706 C 0.98035 0.37756 0.40587 0.0
C2707 C 0.95652 0.37074 0.40582 0.0
H2708 H 0.38539 0.79002 0.33917 0.0
H2709 H 0.35655 0.73117 0.37488 0.0
H2710 H 0.3534 0.75619 0.40729 0.0
H2711 H 0.42217 0.80836 0.37786 0.0
H2712 H 0.41929 0.83942 0.37271 0.0
H2713 H 0.41382 0.81876 0.35149 0.0
H2714 H 0.37229 0.83662 0.34599 0.0
H2715 H 0.37763 0.85727 0.3675 0.0
H2716 H 0.35227 0.83833 0.36846 0.0
H2717 H 0.36008 0.78507 0.43707 0.0
H2718 H 0.37946 0.81327 0.46157 0.0
H2719 H 0.40372 0.85327 0.40646 0.0
C2720 C 0.37771 0.78259 0.35361 0.0
C2721 C 0.37114 0.75871 0.3545 0.0
C2722 C 0.36166 0.74948 0.37383 0.0
C2723 C 0.35959 0.76363 0.39227 0.0
C2724 C 0.36685 0.787 0.39104 0.0
C2725 C 0.37568 0.79642 0.37212 0.0
C2726 C 0.38565 0.82073 0.37569 0.0
C2727 C 0.41176 0.82185 0.36907 0.0
C2728 C 0.37108 0.83934 0.3637 0.0
C2729 C 0.38254 0.82291 0.39982 0.0
C2730 C 0.37095 0.80367 0.40833 0.0
C2731 C 0.36865 0.8005 0.43056 0.0
C2732 C 0.3796 0.81668 0.44439 0.0
C2733 C 0.39301 0.83544 0.43585 0.0
C2734 C 0.39331 0.83923 0.41338 0.0
H2735 H 0.88639 0.66864 0.1524 0.0
H2736 H 0.92052 0.62314 0.19886 0.0
H2737 H 0.94567 0.60705 0.16985 0.0
H2738 H 0.89236 0.62797 0.1035 0.0
H2739 H 0.89779 0.65294 0.08631 0.0
H2740 H 0.87848 0.65578 0.10922 0.0
H2741 H 0.9036 0.69064 0.123 0.0
H2742 H 0.92328 0.68762 0.10056 0.0
H2743 H 0.93458 0.68635 0.12768 0.0
H2744 H 0.97288 0.60319 0.13808 0.0
H2745 H 0.99748 0.6092 0.10575 0.0
H2746 H 0.94559 0.65759 0.08013 0.0
C2747 C 0.8984 0.65448 0.15628 0.0
C2748 C 0.90145 0.64701 0.17783 0.0
C2749 C 0.91762 0.6288 0.1824 0.0
C2750 C 0.93208 0.61968 0.16602 0.0
C2751 C 0.92977 0.62869 0.14517 0.0
C2752 C 0.9129 0.64532 0.14018 0.0
C2753 C 0.91587 0.6545 0.11741 0.0
C2754 C 0.89488 0.64736 0.10327 0.0
C2755 C 0.91956 0.68135 0.11718 0.0
C2756 C 0.93791 0.64156 0.11076 0.0
C2757 C 0.94546 0.62644 0.12681 0.0
C2758 C 0.96678 0.61448 0.1252 0.0
C2759 C 0.98073 0.61816 0.10684 0.0
C2760 C 0.9734 0.6338 0.09036 0.0
C2761 C 0.95149 0.64524 0.09226 0.0
H2762 H 0.1082 0.18668 0.94201 0.0
H2763 H 0.11246 0.11877 0.91097 0.0
H2764 H 0.13165 0.13701 0.87942 0.0
H2765 H 0.08798 0.21449 0.89978 0.0
H2766 H 0.10267 0.24231 0.90324 0.0
H2767 H 0.0974 0.22386 0.92617 0.0
H2768 H 0.14176 0.22364 0.9354 0.0
H2769 H 0.14722 0.24265 0.91268 0.0
H2770 H 0.16283 0.2152 0.91512 0.0
H2771 H 0.14052 0.16287 0.84862 0.0
H2772 H 0.13949 0.19412 0.82114 0.0
H2773 H 0.12788 0.24611 0.87119 0.0
C2774 C 0.11472 0.17557 0.92915 0.0
C2775 C 0.10981 0.15128 0.92911 0.0
C2776 C 0.11692 0.13728 0.91148 0.0
C2777 C 0.12773 0.14755 0.8935 0.0
C2778 C 0.13103 0.17186 0.89336 0.0
C2779 C 0.12499 0.18572 0.91087 0.0
C2780 C 0.12603 0.21164 0.90516 0.0
C2781 C 0.1021 0.22375 0.90879 0.0
C2782 C 0.14564 0.22401 0.91784 0.0
C2783 C 0.13204 0.21014 0.88142 0.0
C2784 C 0.13546 0.18708 0.87508 0.0
C2785 C 0.13852 0.18103 0.85349 0.0
C2786 C 0.13772 0.1989 0.83796 0.0
C2787 C 0.13369 0.22255 0.84405 0.0
C2788 C 0.13142 0.22824 0.86611 0.0
H2789 H 0.60988 0.3334 0.64854 0.0
H2790 H 0.57482 0.37089 0.70018 0.0
H2791 H 0.54726 0.38814 0.67376 0.0
H2792 H 0.59824 0.37856 0.60379 0.0
H2793 H 0.59379 0.35511 0.58468 0.0
H2794 H 0.61456 0.35153 0.60638 0.0
H2795 H 0.59308 0.31344 0.61797 0.0
H2796 H 0.57196 0.3171 0.59679 0.0
H2797 H 0.56218 0.31463 0.62433 0.0
H2798 H 0.51824 0.39306 0.64375 0.0
H2799 H 0.4922 0.38803 0.61228 0.0
H2800 H 0.54612 0.34682 0.58033 0.0
C2801 C 0.59708 0.34611 0.65415 0.0
C2802 C 0.59448 0.35089 0.67635 0.0
C2803 C 0.57733 0.36728 0.6832 0.0
C2804 C 0.56154 0.37707 0.66829 0.0
C2805 C 0.5635 0.37059 0.64664 0.0
C2806 C 0.58124 0.35589 0.63952 0.0
C2807 C 0.57772 0.34886 0.61621 0.0
C2808 C 0.59723 0.35914 0.60192 0.0
C2809 C 0.57613 0.32193 0.61371 0.0
C2810 C 0.5544 0.36055 0.61172 0.0
C2811 C 0.54668 0.3734 0.62928 0.0
C2812 C 0.52441 0.3836 0.62971 0.0
C2813 C 0.50966 0.38047 0.61182 0.0
C2814 C 0.51718 0.36707 0.59383 0.0
C2815 C 0.54001 0.35743 0.5937 0.0
H2816 H 0.2145 0.20467 0.2555 0.0
H2817 H 0.17263 0.26683 0.2681 0.0
H2818 H 0.20672 0.29208 0.25967 0.0
H2819 H 0.26663 0.22504 0.27899 0.0
H2820 H 0.28615 0.21222 0.25935 0.0
H2821 H 0.258 0.19894 0.26452 0.0
H2822 H 0.2473 0.20205 0.224 0.0
H2823 H 0.27556 0.21508 0.21864 0.0
H2824 H 0.24909 0.23016 0.21067 0.0
H2825 H 0.24587 0.31031 0.25284 0.0
H2826 H 0.28736 0.32053 0.24513 0.0
H2827 H 0.30364 0.24663 0.23671 0.0
C2828 C 0.21251 0.2236 0.25595 0.0
C2829 C 0.19118 0.23397 0.26241 0.0
C2830 C 0.18904 0.25873 0.26326 0.0
C2831 C 0.20822 0.27316 0.25848 0.0
C2832 C 0.22929 0.26246 0.25275 0.0
C2833 C 0.23151 0.23828 0.25118 0.0
C2834 C 0.25637 0.23131 0.24539 0.0
C2835 C 0.26743 0.21598 0.26312 0.0
C2836 C 0.25712 0.21892 0.22336 0.0
C2837 C 0.26779 0.2553 0.24437 0.0
C2838 C 0.25187 0.27303 0.24864 0.0
C2839 C 0.25849 0.29662 0.24927 0.0
C2840 C 0.28202 0.30225 0.24507 0.0
C2841 C 0.29841 0.28433 0.24032 0.0
C2842 C 0.29124 0.26062 0.24009 0.0
H2843 H 0.02738 0.96163 0.53452 0.0
H2844 H 0.00815 0.92253 0.47723 0.0
H2845 H 0.98687 0.95733 0.46323 0.0
H2846 H 0.97275 0.99233 0.54051 0.0
H2847 H 0.98607 0.01936 0.54948 0.0
H2848 H 0.00038 0.99168 0.5547 0.0
H2849 H 0.0381 0.00643 0.53554 0.0
H2850 H 0.02405 0.03428 0.5306 0.0
H2851 H 0.03612 0.0177 0.50844 0.0
H2852 H 0.96735 0.99597 0.4559 0.0
H2853 H 0.9538 0.03734 0.45419 0.0
H2854 H 0.98477 0.0508 0.51674 0.0
C2855 C 0.01872 0.96054 0.519 0.0
C2856 C 0.01916 0.9396 0.5069 0.0
C2857 C 0.00797 0.93862 0.48659 0.0
C2858 C 0.99573 0.95816 0.47864 0.0
C2859 C 0.99495 0.97839 0.49128 0.0
C2860 C 0.00634 0.97982 0.51092 0.0
C2861 C 0.003 0.00369 0.52122 0.0
C2862 C 0.98976 0.00163 0.54275 0.0
C2863 C 0.02673 0.01627 0.52411 0.0
C2864 C 0.98806 0.01554 0.50425 0.0
C2865 C 0.98349 0.00059 0.48717 0.0
C2866 C 0.97069 0.00781 0.46921 0.0
C2867 C 0.96297 0.03117 0.46841 0.0
C2868 C 0.96814 0.04682 0.48544 0.0
C2869 C 0.98034 0.03885 0.50376 0.0
H2870 H 0.18736 0.75169 0.73778 0.0
H2871 H 0.2031 0.67744 0.74402 0.0
H2872 H 0.24498 0.68699 0.75057 0.0
H2873 H 0.24125 0.76865 0.71073 0.0
H2874 H 0.24362 0.79625 0.72484 0.0
H2875 H 0.21512 0.78355 0.71988 0.0
H2876 H 0.20574 0.78494 0.76077 0.0
H2877 H 0.23408 0.79787 0.76581 0.0
H2878 H 0.22566 0.77126 0.77957 0.0
H2879 H 0.28449 0.70452 0.7566 0.0
H2880 H 0.31897 0.72905 0.76538 0.0
H2881 H 0.27749 0.79211 0.75582 0.0
C2882 C 0.19973 0.73751 0.74044 0.0
C2883 C 0.19231 0.71387 0.74038 0.0
C2884 C 0.20866 0.69565 0.74417 0.0
C2885 C 0.2324 0.70091 0.74769 0.0
C2886 C 0.23926 0.72443 0.74738 0.0
C2887 C 0.2234 0.74246 0.74408 0.0
C2888 C 0.23512 0.76629 0.74558 0.0
C2889 C 0.23369 0.77946 0.72397 0.0
C2890 C 0.22452 0.78094 0.76403 0.0
C2891 C 0.26006 0.75887 0.75054 0.0
C2892 C 0.26207 0.73462 0.75121 0.0
C2893 C 0.28316 0.72349 0.7561 0.0
C2894 C 0.30257 0.73752 0.76108 0.0
C2895 C 0.30062 0.76231 0.76131 0.0
C2896 C 0.27932 0.77316 0.75549 0.0
H2897 H 0.51089 0.94903 0.01711 0.0
H2898 H 0.54913 0.96766 0.95925 0.0
H2899 H 0.53215 0.00773 0.96051 0.0
H2900 H 0.45906 0.97736 0.00385 0.0
H2901 H 0.45204 0.9876 0.03059 0.0
H2902 H 0.46952 0.96149 0.02711 0.0
H2903 H 0.5029 0.97933 0.05035 0.0
H2904 H 0.48524 0.00525 0.05446 0.0
H2905 H 0.51448 0.00789 0.04358 0.0
H2906 H 0.50794 0.044 0.96595 0.0
H2907 H 0.4818 0.07627 0.97804 0.0
H2908 H 0.45874 0.03367 0.03193 0.0
C2909 C 0.51631 0.96193 0.00527 0.0
C2910 C 0.53152 0.95574 0.98832 0.0
C2911 C 0.53778 0.97253 0.97256 0.0
C2912 C 0.52809 0.99515 0.97305 0.0
C2913 C 0.51226 0.00051 0.98946 0.0
C2914 C 0.50673 0.98456 0.00552 0.0
C2915 C 0.48837 0.99438 0.02071 0.0
C2916 C 0.46593 0.97931 0.02054 0.0
C2917 C 0.49835 0.99687 0.04363 0.0
C2918 C 0.48415 0.01813 0.01045 0.0
C2919 C 0.49808 0.02132 0.99243 0.0
C2920 C 0.49708 0.0418 0.98013 0.0
C2921 C 0.48205 0.05987 0.98692 0.0
C2922 C 0.46837 0.05719 0.00577 0.0
C2923 C 0.46905 0.03593 0.01739 0.0
H2924 H 0.30293 0.72905 0.24614 0.0
H2925 H 0.27983 0.69024 0.30235 0.0
H2926 H 0.24035 0.70825 0.29929 0.0
H2927 H 0.27358 0.78171 0.25785 0.0
H2928 H 0.26544 0.78844 0.23046 0.0
H2929 H 0.29131 0.77114 0.23579 0.0
H2930 H 0.27549 0.73752 0.21158 0.0
H2931 H 0.24985 0.75497 0.20573 0.0
H2932 H 0.24658 0.72576 0.21659 0.0
H2933 H 0.20475 0.73266 0.29182 0.0
H2934 H 0.17316 0.75814 0.27738 0.0
H2935 H 0.21935 0.78103 0.22598 0.0
C2936 C 0.28928 0.72394 0.25737 0.0
C2937 C 0.29406 0.70828 0.27439 0.0
C2938 C 0.27616 0.70215 0.28914 0.0
C2939 C 0.25385 0.71238 0.2876 0.0
C2940 C 0.24986 0.72852 0.27113 0.0
C2941 C 0.26689 0.73395 0.25601 0.0
C2942 C 0.25813 0.75214 0.24012 0.0
C2943 C 0.273 0.77469 0.24113 0.0
C2944 C 0.25747 0.74199 0.21715 0.0
C2945 C 0.23363 0.75627 0.24882 0.0
C2946 C 0.22927 0.74257 0.26678 0.0
C2947 C 0.20789 0.74339 0.27771 0.0
C2948 C 0.19019 0.75803 0.26958 0.0
C2949 C 0.19409 0.77147 0.25076 0.0
C2950 C 0.21616 0.77094 0.2405 0.0
H2951 H 0.53767 0.02764 0.52731 0.0
H2952 H 0.50487 0.07327 0.4802 0.0
H2953 H 0.47951 0.04037 0.46817 0.0
H2954 H 0.53763 0.97474 0.49473 0.0
H2955 H 0.53141 0.95578 0.51731 0.0
H2956 H 0.54722 0.98282 0.52142 0.0
H2957 H 0.51631 0.99548 0.54988 0.0
H2958 H 0.50015 0.96867 0.54553 0.0
H2959 H 0.4857 0.99668 0.54245 0.0
H2960 H 0.45733 0.00289 0.46205 0.0
H2961 H 0.44217 0.9621 0.45994 0.0
H2962 H 0.48905 0.94127 0.5115 0.0
C2963 C 0.52531 0.03049 0.51428 0.0
C2964 C 0.52316 0.05267 0.50445 0.0
C2965 C 0.50682 0.05613 0.4876 0.0
C2966 C 0.49228 0.03768 0.48086 0.0
C2967 C 0.49439 0.01606 0.49124 0.0
C2968 C 0.51066 0.0123 0.50743 0.0
C2969 C 0.50945 0.98741 0.51591 0.0
C2970 C 0.53281 0.97442 0.5121 0.0
C2971 C 0.50248 0.98705 0.53986 0.0
C2972 C 0.49004 0.97769 0.50188 0.0
C2973 C 0.48146 0.99455 0.48787 0.0
C2974 C 0.46384 0.98956 0.47297 0.0
C2975 C 0.45527 0.96651 0.47194 0.0
C2976 C 0.46443 0.94895 0.48569 0.0
C2977 C 0.48163 0.95466 0.5011 0.0
H2978 H 0.22362 0.2973 0.76192 0.0
H2979 H 0.17676 0.23762 0.75667 0.0
H2980 H 0.2102 0.21219 0.74619 0.0
H2981 H 0.26332 0.28079 0.71704 0.0
H2982 H 0.28904 0.29103 0.73114 0.0
H2983 H 0.261 0.30483 0.73587 0.0
H2984 H 0.26542 0.29667 0.77679 0.0
H2985 H 0.29326 0.28251 0.77217 0.0
H2986 H 0.27011 0.26696 0.78596 0.0
H2987 H 0.24899 0.19288 0.73894 0.0
H2988 H 0.29062 0.18143 0.7334 0.0
H2989 H 0.3121 0.25351 0.74446 0.0
C2990 C 0.22047 0.27903 0.75793 0.0
C2991 C 0.19787 0.26927 0.75966 0.0
C2992 C 0.19412 0.24524 0.75502 0.0
C2993 C 0.21294 0.23073 0.74917 0.0
C2994 C 0.23526 0.24067 0.74812 0.0
C2995 C 0.2391 0.2643 0.75216 0.0
C2996 C 0.26495 0.27027 0.75103 0.0
C2997 C 0.26986 0.28776 0.73267 0.0
C2998 C 0.27395 0.27965 0.77278 0.0
C2999 C 0.27503 0.24628 0.74609 0.0
C3000 C 0.25764 0.22944 0.74438 0.0
C3001 C 0.26278 0.20591 0.74017 0.0
C3002 C 0.28637 0.19951 0.73728 0.0
C3003 C 0.30429 0.2166 0.73879 0.0
C3004 C 0.29856 0.24018 0.74333 0.0
H3005 H -0.00165 0.94334 0.00234 0.0
H3006 H 0.92715 0.96585 0.01595 0.0
H3007 H 0.93925 0.00746 0.01124 0.0
H3008 H 0.02643 0.98842 0.03172 0.0
H3009 H 0.05063 0.99164 0.0132 0.0
H3010 H 0.03594 0.96373 0.01572 0.0
H3011 H 0.02731 0.96327 0.97467 0.0
H3012 H 0.04244 0.9909 0.97193 0.0
H3013 H 0.01262 0.98804 0.96251 0.0
H3014 H 0.95971 0.0463 0.00627 0.0
H3015 H 0.98644 0.07972 0.99882 0.0
H3016 H 0.04455 0.03142 0.99052 0.0
C3017 C 0.98528 0.95709 0.00393 0.0
C3018 C 0.96185 0.9517 0.00927 0.0
C3019 C 0.9451 0.96987 0.01149 0.0
C3020 C 0.95188 0.99343 0.00907 0.0
C3021 C 0.97542 0.99824 0.00457 0.0
C3022 C 0.9918 0.98055 0.00183 0.0
C3023 C 0.01609 0.99027 0.99768 0.0
C3024 C 0.03328 0.98308 0.01565 0.0
C3025 C 0.02514 0.98268 0.97537 0.0
C3026 C 0.01088 0.01627 0.99842 0.0
C3027 C 0.98732 0.02052 0.00246 0.0
C3028 C 0.97819 0.04321 0.00325 0.0
C3029 C 0.99343 0.062 0.99919 0.0
C3030 C 0.0174 0.05785 0.99462 0.0
C3031 C 0.02634 0.03484 0.99455 0.0
H3032 H 0.79377 0.77509 0.76461 0.0
H3033 H 0.77787 0.80183 0.70089 0.0
H3034 H 0.73847 0.7835 0.70256 0.0
H3035 H 0.76827 0.7205 0.75821 0.0
H3036 H 0.75629 0.71805 0.78501 0.0
H3037 H 0.78196 0.73581 0.78034 0.0
H3038 H 0.76125 0.77215 0.79693 0.0
H3039 H 0.73573 0.75433 0.80226 0.0
H3040 H 0.7329 0.78103 0.78682 0.0
H3041 H 0.70309 0.75848 0.70939 0.0
H3042 H 0.67118 0.73303 0.72335 0.0
H3043 H 0.71018 0.72259 0.78255 0.0
C3044 C 0.78158 0.77775 0.75142 0.0
C3045 C 0.78849 0.78986 0.73269 0.0
C3046 C 0.77254 0.79268 0.71542 0.0
C3047 C 0.75029 0.78223 0.71618 0.0
C3048 C 0.74435 0.76929 0.73443 0.0
C3049 C 0.75929 0.76744 0.75195 0.0
C3050 C 0.74901 0.75171 0.76921 0.0
C3051 C 0.76483 0.73025 0.77342 0.0
C3052 C 0.74445 0.76564 0.79004 0.0
C3053 C 0.72627 0.74459 0.75843 0.0
C3054 C 0.72392 0.75487 0.73836 0.0
C3055 C 0.70458 0.7505 0.72517 0.0
C3056 C 0.68674 0.73586 0.73306 0.0
C3057 C 0.6885 0.72596 0.75388 0.0
C3058 C 0.70865 0.73 0.76653 0.0
H3059 H 0.78421 0.29625 0.24972 0.0
H3060 H 0.82804 0.23532 0.26157 0.0
H3061 H 0.79498 0.20909 0.25212 0.0
H3062 H 0.73317 0.27378 0.27273 0.0
H3063 H 0.71308 0.28634 0.25344 0.0
H3064 H 0.74082 0.30043 0.25863 0.0
H3065 H 0.75132 0.29844 0.21801 0.0
H3066 H 0.72344 0.28462 0.21262 0.0
H3067 H 0.75031 0.27056 0.20422 0.0
H3068 H 0.75637 0.1897 0.24488 0.0
H3069 H 0.715 0.17842 0.23771 0.0
H3070 H 0.69647 0.25195 0.2308 0.0
C3071 C 0.78688 0.2774 0.24973 0.0
C3072 C 0.80841 0.26762 0.2563 0.0
C3073 C 0.81146 0.24294 0.25658 0.0
C3074 C 0.79287 0.22798 0.25124 0.0
C3075 C 0.77149 0.23807 0.24552 0.0
C3076 C 0.76845 0.2622 0.24445 0.0
C3077 C 0.74335 0.26849 0.23896 0.0
C3078 C 0.73194 0.28312 0.25702 0.0
C3079 C 0.74203 0.28128 0.21715 0.0
C3080 C 0.7327 0.24419 0.23761 0.0
C3081 C 0.74922 0.22687 0.24135 0.0
C3082 C 0.74329 0.20307 0.2417 0.0
C3083 C 0.71985 0.19684 0.23782 0.0
C3084 C 0.70284 0.21437 0.23374 0.0
C3085 C 0.70933 0.23827 0.2337 0.0
H3086 H 0.7902 0.20498 0.75387 0.0
H3087 H 0.83401 0.26701 0.75881 0.0
H3088 H 0.80008 0.29215 0.74936 0.0
H3089 H 0.75292 0.22633 0.7088 0.0
H3090 H 0.72687 0.21289 0.7198 0.0
H3091 H 0.75523 0.19978 0.72455 0.0
H3092 H 0.74754 0.2014 0.76572 0.0
H3093 H 0.71936 0.21485 0.76113 0.0
H3094 H 0.74061 0.22918 0.7782 0.0
H3095 H 0.76092 0.31059 0.74245 0.0
H3096 H 0.71914 0.32091 0.73606 0.0
H3097 H 0.7009 0.24694 0.73652 0.0
C3098 C 0.79265 0.22379 0.75233 0.0
C3099 C 0.81448 0.23424 0.75688 0.0
C3100 C 0.81723 0.25889 0.75528 0.0
C3101 C 0.79814 0.27323 0.74995 0.0
C3102 C 0.77654 0.26253 0.74625 0.0
C3103 C 0.77372 0.23837 0.74712 0.0
C3104 C 0.74836 0.23147 0.7436 0.0
C3105 C 0.7457 0.21675 0.72296 0.0
C3106 C 0.73839 0.21846 0.76334 0.0
C3107 C 0.73737 0.2555 0.74107 0.0
C3108 C 0.7539 0.2732 0.74253 0.0
C3109 C 0.7478 0.2969 0.74111 0.0
C3110 C 0.72413 0.30261 0.7377 0.0
C3111 C 0.7071 0.28467 0.73588 0.0
C3112 C 0.71377 0.2609 0.73777 0.0
H3113 H 0.69377 0.74386 0.27922 0.0
H3114 H 0.69315 0.79609 0.22798 0.0
H3115 H 0.72647 0.77627 0.21105 0.0
H3116 H 0.75592 0.75254 0.28511 0.0
H3117 H 0.76131 0.72296 0.2943 0.0
H3118 H 0.73337 0.73669 0.29942 0.0
H3119 H 0.71254 0.7017 0.2807 0.0
H3120 H 0.74052 0.68815 0.27506 0.0
H3121 H 0.72029 0.69413 0.25339 0.0
H3122 H 0.75824 0.74902 0.19861 0.0
H3123 H 0.79625 0.72869 0.19796 0.0
H3124 H 0.7858 0.706 0.26409 0.0
C3125 C 0.70055 0.75173 0.26473 0.0
C3126 C 0.68946 0.77113 0.25453 0.0
C3127 C 0.69964 0.7802 0.23538 0.0
C3128 C 0.71892 0.7692 0.2257 0.0
C3129 C 0.729 0.75005 0.23609 0.0
C3130 C 0.72108 0.74232 0.25582 0.0
C3131 C 0.73839 0.72526 0.26598 0.0
C3132 C 0.74781 0.73495 0.28747 0.0
C3133 C 0.72726 0.70086 0.26895 0.0
C3134 C 0.75732 0.72477 0.24877 0.0
C3135 C 0.75068 0.73813 0.2312 0.0
C3136 C 0.76416 0.73934 0.21261 0.0
C3137 C 0.78587 0.72798 0.21255 0.0
C3138 C 0.79474 0.7172 0.23148 0.0
C3139 C 0.77978 0.71455 0.24953 0.0
H3140 H 0.49185 0.55476 0.01496 0.0
H3141 H 0.44727 0.53537 0.96128 0.0
H3142 H 0.46245 0.49456 0.96292 0.0
H3143 H 0.54109 0.52212 0.9992 0.0
H3144 H 0.5496 0.51323 0.02597 0.0
H3145 H 0.53369 0.54026 0.02206 0.0
H3146 H 0.50135 0.52639 0.04861 0.0
H3147 H 0.51743 0.49951 0.05299 0.0
H3148 H 0.48722 0.49841 0.04432 0.0
H3149 H 0.48453 0.45696 0.9688 0.0
H3150 H 0.50953 0.42375 0.98084 0.0
H3151 H 0.54003 0.46797 0.03031 0.0
C3152 C 0.48491 0.54166 0.004 0.0
C3153 C 0.46834 0.54777 0.98815 0.0
C3154 C 0.45984 0.53061 0.97366 0.0
C3155 C 0.46843 0.50756 0.97441 0.0
C3156 C 0.48542 0.50215 0.98979 0.0
C3157 C 0.49333 0.5186 0.00454 0.0
C3158 C 0.51219 0.50846 0.01898 0.0
C3159 C 0.53552 0.52182 0.01638 0.0
C3160 C 0.50405 0.50817 0.04262 0.0
C3161 C 0.51386 0.48386 0.00987 0.0
C3162 C 0.49829 0.48057 0.99303 0.0
C3163 C 0.49673 0.45928 0.98201 0.0
C3164 C 0.51107 0.44066 0.98877 0.0
C3165 C 0.52665 0.44363 0.00628 0.0
C3166 C 0.52829 0.46551 0.01675 0.0
H3167 H 0.97317 0.55145 0.49045 0.0
H3168 H 0.93222 0.52625 0.54453 0.0
H3169 H 0.95171 0.48741 0.54188 0.0
H3170 H 0.97505 0.4948 0.46023 0.0
H3171 H 0.00477 0.49996 0.45138 0.0
H3172 H 0.98532 0.52443 0.45603 0.0
H3173 H 0.01589 0.5422 0.48237 0.0
H3174 H 0.03511 0.51745 0.47834 0.0
H3175 H 0.02564 0.52513 0.50517 0.0
H3176 H 0.97834 0.45304 0.53562 0.0
H3177 H 0.00697 0.42323 0.52299 0.0
H3178 H 0.0311 0.47122 0.47349 0.0
C3179 C 0.96774 0.53738 0.50111 0.0
C3180 C 0.95103 0.54136 0.51742 0.0
C3181 C 0.94474 0.52307 0.53169 0.0
C3182 C 0.95584 0.50114 0.53042 0.0
C3183 C 0.97309 0.49799 0.51475 0.0
C3184 C 0.97872 0.51543 0.50008 0.0
C3185 C -0.00135 0.5079 0.48548 0.0
C3186 C 0.99045 0.50669 0.46188 0.0
C3187 C 0.02008 0.52414 0.48801 0.0
C3188 C 0.00357 0.48367 0.49445 0.0
C3189 C 0.98868 0.47831 0.51136 0.0
C3190 C 0.99001 0.45696 0.52232 0.0
C3191 C 0.00643 0.4403 0.51526 0.0
C3192 C 0.02117 0.44523 0.49749 0.0
C3193 C 0.02007 0.46729 0.48726 0.0
H3194 H 0.99353 0.55934 0.00729 0.0
H3195 H 0.06554 0.53862 0.01976 0.0
H3196 H 0.05439 0.49674 0.01557 0.0
H3197 H 0.96607 0.51156 0.03596 0.0
H3198 H 0.94238 0.50842 0.0169 0.0
H3199 H 0.95604 0.53668 0.02081 0.0
H3200 H 0.96523 0.53933 0.97994 0.0
H3201 H 0.95133 0.51126 0.97587 0.0
H3202 H 0.98118 0.51578 0.96709 0.0
H3203 H 0.03554 0.45768 0.00963 0.0
H3204 H 0.01062 0.42364 0.99998 0.0
H3205 H 0.95064 0.46976 0.99227 0.0
C3206 C 0.00689 0.5459 0.00905 0.0
C3207 C 0.03035 0.55189 0.01371 0.0
C3208 C 0.04752 0.53412 0.01593 0.0
C3209 C 0.04131 0.51041 0.01378 0.0
C3210 C 0.01788 0.505 0.00952 0.0
C3211 C 0.00096 0.52222 0.00704 0.0
C3212 C 0.97713 0.51175 0.00208 0.0
C3213 C 0.95936 0.51744 0.02001 0.0
C3214 C 0.96821 0.52002 0.97993 0.0
C3215 C 0.98333 0.48591 0.0019 0.0
C3216 C 0.0069 0.48241 0.0064 0.0
C3217 C 0.01704 0.46015 0.00629 0.0
C3218 C 0.00282 0.44099 1.00089 0.0
C3219 C 0.97885 0.44434 0.99578 0.0
C3220 C 0.96885 0.46692 0.99662 0.0
H3221 H 0.45342 0.46544 0.50791 0.0
H3222 H 0.51192 0.41678 0.50543 0.0
H3223 H 0.53908 0.44963 0.49759 0.0
H3224 H 0.47491 0.50538 0.4649 0.0
H3225 H 0.46419 0.53117 0.47863 0.0
H3226 H 0.44928 0.50346 0.48191 0.0
H3227 H 0.454 0.50709 0.52334 0.0
H3228 H 0.46937 0.53453 0.52018 0.0
H3229 H 0.48294 0.51067 0.53469 0.0
H3230 H 0.56018 0.488 0.49292 0.0
H3231 H 0.57319 0.52931 0.4881 0.0
H3232 H 0.50107 0.55283 0.49412 0.0
C3233 C 0.47184 0.46177 0.50505 0.0
C3234 C 0.48073 0.43879 0.50697 0.0
C3235 C 0.50495 0.43441 0.50374 0.0
C3236 C 0.52045 0.45291 0.49941 0.0
C3237 C 0.51135 0.47559 0.49833 0.0
C3238 C 0.48757 0.48008 0.50072 0.0
C3239 C 0.4825 0.50615 0.49957 0.0
C3240 C 0.46679 0.51187 0.48009 0.0
C3241 C 0.47156 0.51513 0.52071 0.0
C3242 C 0.50713 0.51557 0.49651 0.0
C3243 C 0.52354 0.49769 0.49585 0.0
C3244 C 0.54749 0.50217 0.49332 0.0
C3245 C 0.55476 0.52558 0.49084 0.0
C3246 C 0.53809 0.54397 0.49096 0.0
C3247 C 0.51409 0.53892 0.49411 0.0
loop_
_geom_bond_atom_site_label_1
_geom_bond_atom_site_label_2
_geom_bond_distance
_geom_bond_site_symmetry_2
_ccdc_geom_bond_type
Co0 O3 1.970 . S
Co0 N17 1.989 . S
Co0 O25 1.967 . S
Co0 O32 1.920 . S
Co1 O4 1.966 . S
Co1 N10 2.022 . S
Co1 N18 1.993 . S
Co1 O26 1.941 . S
C2 O3 1.258 . S
C2 O4 1.263 . S
O3 Co0 1.970 . S
O3 C2 1.258 . S
O4 Co1 1.966 . S
O4 C2 1.263 . S
C5 O6 1.235 . S
C5 O32 1.289 . S
O6 C5 1.235 . S
C7 C9 1.400 . S
C7 N10 1.351 . S
C7 C12 1.501 . S
C8 C9 1.387 . S
C8 N11 1.341 . S
C9 C7 1.400 . S
C9 C8 1.387 . S
N10 Co1 2.022 . S
N10 C7 1.351 . S
N10 N11 1.365 . S
N11 C8 1.341 . S
N11 N10 1.365 . S
N11 H31 0.862 . S
C12 C7 1.501 . S
C12 H13 0.961 . S
C12 H14 0.961 . S
C12 H15 0.960 . S
H13 C12 0.961 . S
H14 C12 0.961 . S
H15 C12 0.960 . S
C16 N17 1.342 . S
C16 C20 1.401 . S
C16 C21 1.499 . S
N17 Co0 1.989 . S
N17 C16 1.342 . S
N17 N18 1.388 . S
N18 Co1 1.993 . S
N18 N17 1.388 . S
N18 C19 1.346 . S
C19 N18 1.346 . S
C19 C20 1.396 . S
C19 C29 1.510 . S
C20 C16 1.401 . S
C20 C19 1.396 . S
C21 C16 1.499 . S
C21 H22 0.959 . S
C21 H23 0.960 . S
C21 H24 0.961 . S
H22 C21 0.959 . S
H23 C21 0.960 . S
H24 C21 0.961 . S
O25 Co0 1.967 . S
O25 C33 1.258 . S
O26 Co1 1.941 . S
O26 C33 1.266 . S
H27 C29 0.959 . S
H28 C29 0.961 . S
C29 C19 1.510 . S
C29 H27 0.959 . S
C29 H28 0.961 . S
C29 H30 0.960 . S
H30 C29 0.960 . S
H31 N11 0.862 . S
O32 Co0 1.920 . S
O32 C5 1.289 . S
C33 O25 1.258 . S
C33 O26 1.266 . S
Co34 O37 1.970 . S
Co34 N51 1.989 . S
Co34 O59 1.967 . S
Co34 O66 1.920 . S
Co35 O38 1.966 . S
Co35 N44 2.022 . S
Co35 N52 1.993 . S
Co35 O60 1.941 . S
C36 O37 1.258 . S
C36 O38 1.263 . S
O37 Co34 1.970 . S
O37 C36 1.258 . S
O38 Co35 1.966 . S
O38 C36 1.263 . S
C39 O40 1.235 . S
C39 O66 1.289 1_655 S
O40 C39 1.235 . S
C41 C43 1.400 . S
C41 N44 1.351 . S
C41 C46 1.501 . S
C42 C43 1.387 . S
C42 N45 1.341 . S
C43 C41 1.400 . S
C43 C42 1.387 . S
N44 Co35 2.022 . S
N44 C41 1.351 . S
N44 N45 1.365 . S
N45 C42 1.341 . S
N45 N44 1.365 . S
N45 H65 0.862 . S
C46 C41 1.501 . S
C46 H47 0.961 . S
C46 H48 0.961 . S
C46 H49 0.960 . S
H47 C46 0.961 . S
H48 C46 0.961 . S
H49 C46 0.960 . S
C50 N51 1.342 . S
C50 C54 1.401 . S
C50 C55 1.499 . S
N51 Co34 1.989 . S
N51 C50 1.342 . S
N51 N52 1.388 . S
N52 Co35 1.993 . S
N52 N51 1.388 . S
N52 C53 1.346 . S
C53 N52 1.346 . S
C53 C54 1.396 . S
C53 C63 1.510 . S
C54 C50 1.401 . S
C54 C53 1.396 . S
C55 C50 1.499 . S
C55 H56 0.959 . S
C55 H57 0.960 . S
C55 H58 0.961 . S
H56 C55 0.959 . S
H57 C55 0.960 . S
H58 C55 0.961 . S
O59 Co34 1.967 . S
O59 C67 1.258 . S
O60 Co35 1.941 . S
O60 C67 1.266 . S
H61 C63 0.959 . S
H62 C63 0.961 . S
C63 C53 1.510 . S
C63 H61 0.959 . S
C63 H62 0.961 . S
C63 H64 0.960 . S
H64 C63 0.960 . S
H65 N45 0.862 . S
O66 Co34 1.920 . S
O66 C39 1.289 1_455 S
C67 O59 1.258 . S
C67 O60 1.266 . S
Co68 O71 1.970 . S
Co68 N85 1.989 . S
Co68 O93 1.967 . S
Co68 O100 1.920 . S
Co69 O72 1.966 . S
Co69 N78 2.022 . S
Co69 N86 1.993 . S
Co69 O94 1.941 . S
C70 O71 1.258 . S
C70 O72 1.263 . S
O71 Co68 1.970 . S
O71 C70 1.258 . S
O72 Co69 1.966 . S
O72 C70 1.263 . S
C73 O74 1.235 . S
C73 O100 1.289 . S
O74 C73 1.235 . S
C75 C77 1.400 . S
C75 N78 1.351 . S
C75 C80 1.501 . S
C76 C77 1.387 . S
C76 N79 1.341 . S
C77 C75 1.400 . S
C77 C76 1.387 . S
N78 Co69 2.022 . S
N78 C75 1.351 . S
N78 N79 1.365 . S
N79 C76 1.341 . S
N79 N78 1.365 . S
N79 H99 0.862 . S
C80 C75 1.501 . S
C80 H81 0.961 . S
C80 H82 0.961 . S
C80 H83 0.960 . S
H81 C80 0.961 . S
H82 C80 0.961 . S
H83 C80 0.960 . S
C84 N85 1.342 . S
C84 C88 1.401 . S
C84 C89 1.499 . S
N85 Co68 1.989 . S
N85 C84 1.342 . S
N85 N86 1.388 . S
N86 Co69 1.993 . S
N86 N85 1.388 . S
N86 C87 1.346 . S
C87 N86 1.346 . S
C87 C88 1.396 . S
C87 C97 1.510 . S
C88 C84 1.401 . S
C88 C87 1.396 . S
C89 C84 1.499 . S
C89 H90 0.959 . S
C89 H91 0.960 . S
C89 H92 0.961 . S
H90 C89 0.959 . S
H91 C89 0.960 . S
H92 C89 0.961 . S
O93 Co68 1.967 . S
O93 C101 1.258 . S
O94 Co69 1.941 . S
O94 C101 1.266 . S
H95 C97 0.959 . S
H96 C97 0.961 . S
C97 C87 1.510 . S
C97 H95 0.959 . S
C97 H96 0.961 . S
C97 H98 0.960 . S
H98 C97 0.960 . S
H99 N79 0.862 . S
O100 Co68 1.920 . S
O100 C73 1.289 . S
C101 O93 1.258 . S
C101 O94 1.266 . S
Co102 O105 1.970 . S
Co102 N119 1.989 . S
Co102 O127 1.967 . S
Co102 O134 1.920 . S
Co103 O106 1.966 . S
Co103 N112 2.022 1_554 S
Co103 N120 1.993 . S
Co103 O128 1.941 . S
C104 O105 1.258 . S
C104 O106 1.263 . S
O105 Co102 1.970 . S
O105 C104 1.258 . S
O106 Co103 1.966 . S
O106 C104 1.263 . S
C107 O108 1.235 . S
C107 O134 1.289 . S
O108 C107 1.235 . S
C109 C111 1.400 . S
C109 N112 1.351 . S
C109 C114 1.501 . S
C110 C111 1.387 . S
C110 N113 1.341 . S
C111 C109 1.400 . S
C111 C110 1.387 . S
N112 Co103 2.022 1_556 S
N112 C109 1.351 . S
N112 N113 1.365 . S
N113 C110 1.341 . S
N113 N112 1.365 . S
N113 H133 0.862 . S
C114 C109 1.501 . S
C114 H115 0.961 . S
C114 H116 0.961 . S
C114 H117 0.960 . S
H115 C114 0.961 . S
H116 C114 0.961 . S
H117 C114 0.960 . S
C118 N119 1.342 . S
C118 C122 1.401 . S
C118 C123 1.499 . S
N119 Co102 1.989 . S
N119 C118 1.342 . S
N119 N120 1.388 . S
N120 Co103 1.993 . S
N120 N119 1.388 . S
N120 C121 1.346 . S
C121 N120 1.346 . S
C121 C122 1.396 . S
C121 C131 1.510 1_554 S
C122 C118 1.401 . S
C122 C121 1.396 . S
C123 C118 1.499 . S
C123 H124 0.959 . S
C123 H125 0.960 . S
C123 H126 0.961 . S
H124 C123 0.959 . S
H125 C123 0.960 . S
H126 C123 0.961 . S
O127 Co102 1.967 . S
O127 C135 1.258 . S
O128 Co103 1.941 . S
O128 C135 1.266 . S
H129 C131 0.959 . S
H130 C131 0.961 . S
C131 C121 1.510 1_556 S
C131 H129 0.959 . S
C131 H130 0.961 . S
C131 H132 0.960 . S
H132 C131 0.960 . S
H133 N113 0.862 . S
O134 Co102 1.920 . S
O134 C107 1.289 . S
C135 O127 1.258 . S
C135 O128 1.266 . S
Co136 O139 1.970 . S
Co136 N153 1.989 . S
Co136 O161 1.967 . S
Co136 O168 1.920 . S
Co137 O140 1.966 . S
Co137 N146 2.022 . S
Co137 N154 1.993 . S
Co137 O162 1.941 . S
C138 O139 1.258 . S
C138 O140 1.263 . S
O139 Co136 1.970 . S
O139 C138 1.258 . S
O140 Co137 1.966 . S
O140 C138 1.263 . S
C141 O142 1.235 . S
C141 O168 1.289 . S
O142 C141 1.235 . S
C143 C145 1.400 . S
C143 N146 1.351 . S
C143 C148 1.501 . S
C144 C145 1.387 . S
C144 N147 1.341 . S
C145 C143 1.400 . S
C145 C144 1.387 . S
N146 Co137 2.022 . S
N146 C143 1.351 . S
N146 N147 1.365 . S
N147 C144 1.341 . S
N147 N146 1.365 . S
N147 H167 0.862 . S
C148 C143 1.501 . S
C148 H149 0.961 . S
C148 H150 0.961 . S
C148 H151 0.960 . S
H149 C148 0.961 . S
H150 C148 0.961 . S
H151 C148 0.960 . S
C152 N153 1.342 . S
C152 C156 1.401 . S
C152 C157 1.499 . S
N153 Co136 1.989 . S
N153 C152 1.342 . S
N153 N154 1.388 . S
N154 Co137 1.993 . S
N154 N153 1.388 . S
N154 C155 1.346 . S
C155 N154 1.346 . S
C155 C156 1.396 . S
C155 C165 1.510 . S
C156 C152 1.401 . S
C156 C155 1.396 . S
C157 C152 1.499 . S
C157 H158 0.959 . S
C157 H159 0.960 . S
C157 H160 0.961 . S
H158 C157 0.959 . S
H159 C157 0.960 . S
H160 C157 0.961 . S
O161 Co136 1.967 . S
O161 C169 1.258 . S
O162 Co137 1.941 . S
O162 C169 1.266 . S
H163 C165 0.959 . S
H164 C165 0.961 . S
C165 C155 1.510 . S
C165 H163 0.959 . S
C165 H164 0.961 . S
C165 H166 0.960 . S
H166 C165 0.960 . S
H167 N147 0.862 . S
O168 Co136 1.920 . S
O168 C141 1.289 . S
C169 O161 1.258 . S
C169 O162 1.266 . S
Co170 O173 1.970 . S
Co170 N187 1.989 . S
Co170 O195 1.967 . S
Co170 O202 1.920 . S
Co171 O174 1.966 . S
Co171 N180 2.022 . S
Co171 N188 1.993 . S
Co171 O196 1.941 . S
C172 O173 1.258 . S
C172 O174 1.263 . S
O173 Co170 1.970 . S
O173 C172 1.258 . S
O174 Co171 1.966 . S
O174 C172 1.263 . S
C175 O176 1.235 . S
C175 O202 1.289 . S
O176 C175 1.235 . S
C177 C179 1.400 . S
C177 N180 1.351 . S
C177 C182 1.501 . S
C178 C179 1.387 . S
C178 N181 1.341 . S
C179 C177 1.400 . S
C179 C178 1.387 . S
N180 Co171 2.022 . S
N180 C177 1.351 . S
N180 N181 1.365 . S
N181 C178 1.341 . S
N181 N180 1.365 . S
N181 H201 0.862 . S
C182 C177 1.501 . S
C182 H183 0.961 . S
C182 H184 0.961 . S
C182 H185 0.960 . S
H183 C182 0.961 . S
H184 C182 0.961 . S
H185 C182 0.960 . S
C186 N187 1.342 . S
C186 C190 1.401 . S
C186 C191 1.499 . S
N187 Co170 1.989 . S
N187 C186 1.342 . S
N187 N188 1.388 . S
N188 Co171 1.993 . S
N188 N187 1.388 . S
N188 C189 1.346 . S
C189 N188 1.346 . S
C189 C190 1.396 . S
C189 C199 1.510 . S
C190 C186 1.401 . S
C190 C189 1.396 . S
C191 C186 1.499 . S
C191 H192 0.959 . S
C191 H193 0.960 . S
C191 H194 0.961 . S
H192 C191 0.959 . S
H193 C191 0.960 . S
H194 C191 0.961 . S
O195 Co170 1.967 . S
O195 C203 1.258 . S
O196 Co171 1.941 . S
O196 C203 1.266 . S
H197 C199 0.959 . S
H198 C199 0.961 . S
C199 C189 1.510 . S
C199 H197 0.959 . S
C199 H198 0.961 . S
C199 H200 0.960 . S
H200 C199 0.960 . S
H201 N181 0.862 . S
O202 Co170 1.920 . S
O202 C175 1.289 . S
C203 O195 1.258 . S
C203 O196 1.266 . S
Co204 O207 1.970 . S
Co204 N221 1.989 . S
Co204 O229 1.967 . S
Co204 O236 1.920 . S
Co205 O208 1.966 . S
Co205 N214 2.022 . S
Co205 N222 1.993 . S
Co205 O230 1.941 . S
C206 O207 1.258 . S
C206 O208 1.263 . S
O207 Co204 1.970 . S
O207 C206 1.258 . S
O208 Co205 1.966 . S
O208 C206 1.263 . S
C209 O210 1.235 . S
C209 O236 1.289 . S
O210 C209 1.235 . S
C211 C213 1.400 . S
C211 N214 1.351 . S
C211 C216 1.501 . S
C212 C213 1.387 . S
C212 N215 1.341 . S
C213 C211 1.400 . S
C213 C212 1.387 . S
N214 Co205 2.022 . S
N214 C211 1.351 . S
N214 N215 1.365 . S
N215 C212 1.341 . S
N215 N214 1.365 . S
N215 H235 0.862 . S
C216 C211 1.501 . S
C216 H217 0.961 . S
C216 H218 0.961 . S
C216 H219 0.960 . S
H217 C216 0.961 . S
H218 C216 0.961 . S
H219 C216 0.960 . S
C220 N221 1.342 . S
C220 C224 1.401 . S
C220 C225 1.499 . S
N221 Co204 1.989 . S
N221 C220 1.342 . S
N221 N222 1.388 . S
N222 Co205 1.993 . S
N222 N221 1.388 . S
N222 C223 1.346 . S
C223 N222 1.346 . S
C223 C224 1.396 . S
C223 C233 1.510 . S
C224 C220 1.401 . S
C224 C223 1.396 . S
C225 C220 1.499 . S
C225 H226 0.959 . S
C225 H227 0.960 . S
C225 H228 0.961 . S
H226 C225 0.959 . S
H227 C225 0.960 . S
H228 C225 0.961 . S
O229 Co204 1.967 . S
O229 C237 1.258 . S
O230 Co205 1.941 . S
O230 C237 1.266 . S
H231 C233 0.959 . S
H232 C233 0.961 . S
C233 C223 1.510 . S
C233 H231 0.959 . S
C233 H232 0.961 . S
C233 H234 0.960 . S
H234 C233 0.960 . S
H235 N215 0.862 . S
O236 Co204 1.920 . S
O236 C209 1.289 . S
C237 O229 1.258 . S
C237 O230 1.266 . S
Co238 O241 1.970 . S
Co238 N255 1.989 . S
Co238 O263 1.967 . S
Co238 O270 1.920 . S
Co239 O242 1.966 . S
Co239 N248 2.022 1_556 S
Co239 N256 1.993 . S
Co239 O264 1.941 . S
C240 O241 1.258 . S
C240 O242 1.263 . S
O241 Co238 1.970 . S
O241 C240 1.258 . S
O242 Co239 1.966 . S
O242 C240 1.263 . S
C243 O244 1.235 . S
C243 O270 1.289 1_655 S
O244 C243 1.235 . S
C245 C247 1.400 . S
C245 N248 1.351 . S
C245 C250 1.501 . S
C246 C247 1.387 . S
C246 N249 1.341 . S
C247 C245 1.400 . S
C247 C246 1.387 . S
N248 Co239 2.022 1_554 S
N248 C245 1.351 . S
N248 N249 1.365 . S
N249 C246 1.341 . S
N249 N248 1.365 . S
N249 H269 0.862 . S
C250 C245 1.501 . S
C250 H251 0.961 . S
C250 H252 0.961 . S
C250 H253 0.960 . S
H251 C250 0.961 . S
H252 C250 0.961 . S
H253 C250 0.960 . S
C254 N255 1.342 . S
C254 C258 1.401 . S
C254 C259 1.499 . S
N255 Co238 1.989 . S
N255 C254 1.342 . S
N255 N256 1.388 . S
N256 Co239 1.993 . S
N256 N255 1.388 . S
N256 C257 1.346 . S
C257 N256 1.346 . S
C257 C258 1.396 . S
C257 C267 1.510 1_556 S
C258 C254 1.401 . S
C258 C257 1.396 . S
C259 C254 1.499 . S
C259 H260 0.959 . S
C259 H261 0.960 . S
C259 H262 0.961 . S
H260 C259 0.959 . S
H261 C259 0.960 . S
H262 C259 0.961 . S
O263 Co238 1.967 . S
O263 C271 1.258 . S
O264 Co239 1.941 . S
O264 C271 1.266 . S
H265 C267 0.959 . S
H266 C267 0.961 . S
C267 C257 1.510 1_554 S
C267 H265 0.959 . S
C267 H266 0.961 . S
C267 H268 0.960 . S
H268 C267 0.960 . S
H269 N249 0.862 . S
O270 Co238 1.920 . S
O270 C243 1.289 1_455 S
C271 O263 1.258 . S
C271 O264 1.266 . S
Co272 O275 1.970 . S
Co272 N289 1.989 . S
Co272 O297 1.967 . S
Co272 O304 1.920 . S
Co273 O276 1.966 . S
Co273 N282 2.022 . S
Co273 N290 1.993 . S
Co273 O298 1.941 . S
C274 O275 1.258 . S
C274 O276 1.263 . S
O275 Co272 1.970 . S
O275 C274 1.258 . S
O276 Co273 1.966 . S
O276 C274 1.263 . S
C277 O278 1.235 . S
C277 O304 1.289 . S
O278 C277 1.235 . S
C279 C281 1.400 . S
C279 N282 1.351 . S
C279 C284 1.501 . S
C280 C281 1.387 . S
C280 N283 1.341 . S
C281 C279 1.400 . S
C281 C280 1.387 . S
N282 Co273 2.022 . S
N282 C279 1.351 . S
N282 N283 1.365 . S
N283 C280 1.341 . S
N283 N282 1.365 . S
N283 H303 0.862 . S
C284 C279 1.501 . S
C284 H285 0.961 . S
C284 H286 0.961 . S
C284 H287 0.960 . S
H285 C284 0.961 . S
H286 C284 0.961 . S
H287 C284 0.960 . S
C288 N289 1.342 . S
C288 C292 1.401 . S
C288 C293 1.499 . S
N289 Co272 1.989 . S
N289 C288 1.342 . S
N289 N290 1.388 . S
N290 Co273 1.993 . S
N290 N289 1.388 . S
N290 C291 1.346 . S
C291 N290 1.346 . S
C291 C292 1.396 . S
C291 C301 1.510 . S
C292 C288 1.401 . S
C292 C291 1.396 . S
C293 C288 1.499 . S
C293 H294 0.959 . S
C293 H295 0.960 . S
C293 H296 0.961 . S
H294 C293 0.959 . S
H295 C293 0.960 . S
H296 C293 0.961 . S
O297 Co272 1.967 . S
O297 C305 1.258 . S
O298 Co273 1.941 . S
O298 C305 1.266 . S
H299 C301 0.959 . S
H300 C301 0.961 . S
C301 C291 1.510 . S
C301 H299 0.959 . S
C301 H300 0.961 . S
C301 H302 0.960 . S
H302 C301 0.960 . S
H303 N283 0.862 . S
O304 Co272 1.920 . S
O304 C277 1.289 . S
C305 O297 1.258 . S
C305 O298 1.266 . S
Co306 O309 1.970 . S
Co306 N323 1.989 . S
Co306 O331 1.967 . S
Co306 O338 1.920 . S
Co307 O310 1.966 . S
Co307 N316 2.022 . S
Co307 N324 1.993 . S
Co307 O332 1.941 . S
C308 O309 1.258 . S
C308 O310 1.263 . S
O309 Co306 1.970 . S
O309 C308 1.258 . S
O310 Co307 1.966 . S
O310 C308 1.263 . S
C311 O312 1.235 . S
C311 O338 1.289 1_455 S
O312 C311 1.235 . S
C313 C315 1.400 . S
C313 N316 1.351 . S
C313 C318 1.501 . S
C314 C315 1.387 . S
C314 N317 1.341 . S
C315 C313 1.400 . S
C315 C314 1.387 . S
N316 Co307 2.022 . S
N316 C313 1.351 . S
N316 N317 1.365 . S
N317 C314 1.341 . S
N317 N316 1.365 . S
N317 H337 0.862 . S
C318 C313 1.501 . S
C318 H319 0.961 . S
C318 H320 0.961 . S
C318 H321 0.960 . S
H319 C318 0.961 . S
H320 C318 0.961 . S
H321 C318 0.960 . S
C322 N323 1.342 . S
C322 C326 1.401 . S
C322 C327 1.499 . S
N323 Co306 1.989 . S
N323 C322 1.342 . S
N323 N324 1.388 . S
N324 Co307 1.993 . S
N324 N323 1.388 . S
N324 C325 1.346 . S
C325 N324 1.346 . S
C325 C326 1.396 . S
C325 C335 1.510 . S
C326 C322 1.401 . S
C326 C325 1.396 . S
C327 C322 1.499 . S
C327 H328 0.959 . S
C327 H329 0.960 . S
C327 H330 0.961 . S
H328 C327 0.959 . S
H329 C327 0.960 . S
H330 C327 0.961 . S
O331 Co306 1.967 . S
O331 C339 1.258 . S
O332 Co307 1.941 . S
O332 C339 1.266 . S
H333 C335 0.959 . S
H334 C335 0.961 . S
C335 C325 1.510 . S
C335 H333 0.959 . S
C335 H334 0.961 . S
C335 H336 0.960 . S
H336 C335 0.960 . S
H337 N317 0.862 . S
O338 Co306 1.920 . S
O338 C311 1.289 1_655 S
C339 O331 1.258 . S
C339 O332 1.266 . S
Co340 O343 1.970 . S
Co340 N357 1.989 . S
Co340 O365 1.967 . S
Co340 O372 1.920 . S
Co341 O344 1.966 . S
Co341 N350 2.022 . S
Co341 N358 1.993 . S
Co341 O366 1.941 . S
C342 O343 1.258 . S
C342 O344 1.263 . S
O343 Co340 1.970 . S
O343 C342 1.258 . S
O344 Co341 1.966 . S
O344 C342 1.263 . S
C345 O346 1.235 . S
C345 O372 1.289 . S
O346 C345 1.235 . S
C347 C349 1.400 . S
C347 N350 1.351 . S
C347 C352 1.501 . S
C348 C349 1.387 . S
C348 N351 1.341 . S
C349 C347 1.400 . S
C349 C348 1.387 . S
N350 Co341 2.022 . S
N350 C347 1.351 . S
N350 N351 1.365 . S
N351 C348 1.341 . S
N351 N350 1.365 . S
N351 H371 0.862 . S
C352 C347 1.501 . S
C352 H353 0.961 . S
C352 H354 0.961 . S
C352 H355 0.960 . S
H353 C352 0.961 . S
H354 C352 0.961 . S
H355 C352 0.960 . S
C356 N357 1.342 . S
C356 C360 1.401 . S
C356 C361 1.499 . S
N357 Co340 1.989 . S
N357 C356 1.342 . S
N357 N358 1.388 . S
N358 Co341 1.993 . S
N358 N357 1.388 . S
N358 C359 1.346 . S
C359 N358 1.346 . S
C359 C360 1.396 . S
C359 C369 1.510 . S
C360 C356 1.401 . S
C360 C359 1.396 . S
C361 C356 1.499 . S
C361 H362 0.959 . S
C361 H363 0.960 . S
C361 H364 0.961 . S
H362 C361 0.959 . S
H363 C361 0.960 . S
H364 C361 0.961 . S
O365 Co340 1.967 . S
O365 C373 1.258 . S
O366 Co341 1.941 . S
O366 C373 1.266 . S
H367 C369 0.959 . S
H368 C369 0.961 . S
C369 C359 1.510 . S
C369 H367 0.959 . S
C369 H368 0.961 . S
C369 H370 0.960 . S
H370 C369 0.960 . S
H371 N351 0.862 . S
O372 Co340 1.920 . S
O372 C345 1.289 . S
C373 O365 1.258 . S
C373 O366 1.266 . S
Co374 O377 1.970 . S
Co374 N391 1.989 . S
Co374 O399 1.967 . S
Co374 O406 1.920 . S
Co375 O378 1.966 . S
Co375 N384 2.022 1_556 S
Co375 N392 1.993 . S
Co375 O400 1.941 . S
C376 O377 1.258 . S
C376 O378 1.263 . S
O377 Co374 1.970 . S
O377 C376 1.258 . S
O378 Co375 1.966 . S
O378 C376 1.263 . S
C379 O380 1.235 . S
C379 O406 1.289 . S
O380 C379 1.235 . S
C381 C383 1.400 . S
C381 N384 1.351 . S
C381 C386 1.501 . S
C382 C383 1.387 . S
C382 N385 1.341 . S
C383 C381 1.400 . S
C383 C382 1.387 . S
N384 Co375 2.022 1_554 S
N384 C381 1.351 . S
N384 N385 1.365 . S
N385 C382 1.341 . S
N385 N384 1.365 . S
N385 H405 0.862 . S
C386 C381 1.501 . S
C386 H387 0.961 . S
C386 H388 0.961 . S
C386 H389 0.960 . S
H387 C386 0.961 . S
H388 C386 0.961 . S
H389 C386 0.960 . S
C390 N391 1.342 . S
C390 C394 1.401 . S
C390 C395 1.499 . S
N391 Co374 1.989 . S
N391 C390 1.342 . S
N391 N392 1.388 . S
N392 Co375 1.993 . S
N392 N391 1.388 . S
N392 C393 1.346 . S
C393 N392 1.346 . S
C393 C394 1.396 . S
C393 C403 1.510 1_556 S
C394 C390 1.401 . S
C394 C393 1.396 . S
C395 C390 1.499 . S
C395 H396 0.959 . S
C395 H397 0.960 . S
C395 H398 0.961 . S
H396 C395 0.959 . S
H397 C395 0.960 . S
H398 C395 0.961 . S
O399 Co374 1.967 . S
O399 C407 1.258 . S
O400 Co375 1.941 . S
O400 C407 1.266 . S
H401 C403 0.959 . S
H402 C403 0.961 . S
C403 C393 1.510 1_554 S
C403 H401 0.959 . S
C403 H402 0.961 . S
C403 H404 0.960 . S
H404 C403 0.960 . S
H405 N385 0.862 . S
O406 Co374 1.920 . S
O406 C379 1.289 . S
C407 O399 1.258 . S
C407 O400 1.266 . S
Co408 O411 1.970 . S
Co408 N425 1.989 . S
Co408 O433 1.967 . S
Co408 O440 1.920 . S
Co409 O412 1.966 . S
Co409 N418 2.022 . S
Co409 N426 1.993 . S
Co409 O434 1.941 . S
C410 O411 1.258 . S
C410 O412 1.263 . S
O411 Co408 1.970 . S
O411 C410 1.258 . S
O412 Co409 1.966 . S
O412 C410 1.263 . S
C413 O414 1.235 . S
C413 O440 1.289 . S
O414 C413 1.235 . S
C415 C417 1.400 . S
C415 N418 1.351 . S
C415 C420 1.501 . S
C416 C417 1.387 . S
C416 N419 1.341 . S
C417 C415 1.400 . S
C417 C416 1.387 . S
N418 Co409 2.022 . S
N418 C415 1.351 . S
N418 N419 1.365 . S
N419 C416 1.341 . S
N419 N418 1.365 . S
N419 H439 0.862 . S
C420 C415 1.501 . S
C420 H421 0.961 . S
C420 H422 0.961 . S
C420 H423 0.960 . S
H421 C420 0.961 . S
H422 C420 0.961 . S
H423 C420 0.960 . S
C424 N425 1.342 . S
C424 C428 1.401 . S
C424 C429 1.499 . S
N425 Co408 1.989 . S
N425 C424 1.342 . S
N425 N426 1.388 . S
N426 Co409 1.993 . S
N426 N425 1.388 . S
N426 C427 1.346 . S
C427 N426 1.346 . S
C427 C428 1.396 . S
C427 C437 1.510 . S
C428 C424 1.401 . S
C428 C427 1.396 . S
C429 C424 1.499 . S
C429 H430 0.959 . S
C429 H431 0.960 . S
C429 H432 0.961 . S
H430 C429 0.959 . S
H431 C429 0.960 . S
H432 C429 0.961 . S
O433 Co408 1.967 . S
O433 C441 1.258 . S
O434 Co409 1.941 . S
O434 C441 1.266 . S
H435 C437 0.959 . S
H436 C437 0.961 . S
C437 C427 1.510 . S
C437 H435 0.959 . S
C437 H436 0.961 . S
C437 H438 0.960 . S
H438 C437 0.960 . S
H439 N419 0.862 . S
O440 Co408 1.920 . S
O440 C413 1.289 . S
C441 O433 1.258 . S
C441 O434 1.266 . S
Co442 O445 1.970 . S
Co442 N459 1.989 . S
Co442 O467 1.967 . S
Co442 O474 1.920 . S
Co443 O446 1.966 . S
Co443 N452 2.022 . S
Co443 N460 1.993 . S
Co443 O468 1.941 . S
C444 O445 1.258 . S
C444 O446 1.263 . S
O445 Co442 1.970 . S
O445 C444 1.258 . S
O446 Co443 1.966 . S
O446 C444 1.263 . S
C447 O448 1.235 . S
C447 O474 1.289 . S
O448 C447 1.235 . S
C449 C451 1.400 . S
C449 N452 1.351 . S
C449 C454 1.501 . S
C450 C451 1.387 . S
C450 N453 1.341 . S
C451 C449 1.400 . S
C451 C450 1.387 . S
N452 Co443 2.022 . S
N452 C449 1.351 . S
N452 N453 1.365 . S
N453 C450 1.341 . S
N453 N452 1.365 . S
N453 H473 0.862 . S
C454 C449 1.501 . S
C454 H455 0.961 . S
C454 H456 0.961 . S
C454 H457 0.960 . S
H455 C454 0.961 . S
H456 C454 0.961 . S
H457 C454 0.960 . S
C458 N459 1.342 . S
C458 C462 1.401 . S
C458 C463 1.499 . S
N459 Co442 1.989 . S
N459 C458 1.342 . S
N459 N460 1.388 . S
N460 Co443 1.993 . S
N460 N459 1.388 . S
N460 C461 1.346 . S
C461 N460 1.346 . S
C461 C462 1.396 . S
C461 C471 1.510 . S
C462 C458 1.401 . S
C462 C461 1.396 . S
C463 C458 1.499 . S
C463 H464 0.959 . S
C463 H465 0.960 . S
C463 H466 0.961 . S
H464 C463 0.959 . S
H465 C463 0.960 . S
H466 C463 0.961 . S
O467 Co442 1.967 . S
O467 C475 1.258 . S
O468 Co443 1.941 . S
O468 C475 1.266 . S
H469 C471 0.959 . S
H470 C471 0.961 . S
C471 C461 1.510 . S
C471 H469 0.959 . S
C471 H470 0.961 . S
C471 H472 0.960 . S
H472 C471 0.960 . S
H473 N453 0.862 . S
O474 Co442 1.920 . S
O474 C447 1.289 . S
C475 O467 1.258 . S
C475 O468 1.266 . S
Co476 O479 1.970 . S
Co476 N493 1.989 . S
Co476 O501 1.967 . S
Co476 O508 1.920 . S
Co477 O480 1.966 . S
Co477 N486 2.022 . S
Co477 N494 1.993 . S
Co477 O502 1.941 . S
C478 O479 1.258 . S
C478 O480 1.263 . S
O479 Co476 1.970 . S
O479 C478 1.258 . S
O480 Co477 1.966 . S
O480 C478 1.263 . S
C481 O482 1.235 . S
C481 O508 1.289 . S
O482 C481 1.235 . S
C483 C485 1.400 . S
C483 N486 1.351 . S
C483 C488 1.501 . S
C484 C485 1.387 . S
C484 N487 1.341 . S
C485 C483 1.400 . S
C485 C484 1.387 . S
N486 Co477 2.022 . S
N486 C483 1.351 . S
N486 N487 1.365 . S
N487 C484 1.341 . S
N487 N486 1.365 . S
N487 H507 0.862 . S
C488 C483 1.501 . S
C488 H489 0.961 . S
C488 H490 0.961 . S
C488 H491 0.960 . S
H489 C488 0.961 . S
H490 C488 0.961 . S
H491 C488 0.960 . S
C492 N493 1.342 . S
C492 C496 1.401 . S
C492 C497 1.499 . S
N493 Co476 1.989 . S
N493 C492 1.342 . S
N493 N494 1.388 . S
N494 Co477 1.993 . S
N494 N493 1.388 . S
N494 C495 1.346 . S
C495 N494 1.346 . S
C495 C496 1.396 . S
C495 C505 1.510 . S
C496 C492 1.401 . S
C496 C495 1.396 . S
C497 C492 1.499 . S
C497 H498 0.959 . S
C497 H499 0.960 . S
C497 H500 0.961 . S
H498 C497 0.959 . S
H499 C497 0.960 . S
H500 C497 0.961 . S
O501 Co476 1.967 . S
O501 C509 1.258 . S
O502 Co477 1.941 . S
O502 C509 1.266 . S
H503 C505 0.959 . S
H504 C505 0.961 . S
C505 C495 1.510 . S
C505 H503 0.959 . S
C505 H504 0.961 . S
C505 H506 0.960 . S
H506 C505 0.960 . S
H507 N487 0.862 . S
O508 Co476 1.920 . S
O508 C481 1.289 . S
C509 O501 1.258 . S
C509 O502 1.266 . S
Co510 O513 1.970 . S
Co510 N527 1.989 . S
Co510 O535 1.967 . S
Co510 O542 1.920 . S
Co511 O514 1.966 . S
Co511 N520 2.022 1_554 S
Co511 N528 1.993 . S
Co511 O536 1.941 . S
C512 O513 1.258 . S
C512 O514 1.263 . S
O513 Co510 1.970 . S
O513 C512 1.258 . S
O514 Co511 1.966 . S
O514 C512 1.263 . S
C515 O516 1.235 . S
C515 O542 1.289 1_455 S
O516 C515 1.235 . S
C517 C519 1.400 . S
C517 N520 1.351 . S
C517 C522 1.501 . S
C518 C519 1.387 . S
C518 N521 1.341 . S
C519 C517 1.400 . S
C519 C518 1.387 . S
N520 Co511 2.022 1_556 S
N520 C517 1.351 . S
N520 N521 1.365 . S
N521 C518 1.341 . S
N521 N520 1.365 . S
N521 H541 0.862 . S
C522 C517 1.501 . S
C522 H523 0.961 . S
C522 H524 0.961 . S
C522 H525 0.960 . S
H523 C522 0.961 . S
H524 C522 0.961 . S
H525 C522 0.960 . S
C526 N527 1.342 . S
C526 C530 1.401 . S
C526 C531 1.499 . S
N527 Co510 1.989 . S
N527 C526 1.342 . S
N527 N528 1.388 . S
N528 Co511 1.993 . S
N528 N527 1.388 . S
N528 C529 1.346 . S
C529 N528 1.346 . S
C529 C530 1.396 . S
C529 C539 1.510 1_554 S
C530 C526 1.401 . S
C530 C529 1.396 . S
C531 C526 1.499 . S
C531 H532 0.959 . S
C531 H533 0.960 . S
C531 H534 0.961 . S
H532 C531 0.959 . S
H533 C531 0.960 . S
H534 C531 0.961 . S
O535 Co510 1.967 . S
O535 C543 1.258 . S
O536 Co511 1.941 . S
O536 C543 1.266 . S
H537 C539 0.959 . S
H538 C539 0.961 . S
C539 C529 1.510 1_556 S
C539 H537 0.959 . S
C539 H538 0.961 . S
C539 H540 0.960 . S
H540 C539 0.960 . S
H541 N521 0.862 . S
O542 Co510 1.920 . S
O542 C515 1.289 1_655 S
C543 O535 1.258 . S
C543 O536 1.266 . S
Co544 O547 1.970 . S
Co544 N561 1.989 . S
Co544 O569 1.967 . S
Co544 O576 1.920 . S
Co545 O548 1.966 . S
Co545 N554 2.022 . S
Co545 N562 1.993 . S
Co545 O570 1.941 . S
C546 O547 1.258 . S
C546 O548 1.263 . S
O547 Co544 1.970 . S
O547 C546 1.258 . S
O548 Co545 1.966 . S
O548 C546 1.263 . S
C549 O550 1.235 . S
C549 O576 1.289 . S
O550 C549 1.235 . S
C551 C553 1.400 . S
C551 N554 1.351 . S
C551 C556 1.501 . S
C552 C553 1.387 . S
C552 N555 1.341 . S
C553 C551 1.400 . S
C553 C552 1.387 . S
N554 Co545 2.022 . S
N554 C551 1.351 . S
N554 N555 1.365 . S
N555 C552 1.341 . S
N555 N554 1.365 . S
N555 H575 0.862 . S
C556 C551 1.501 . S
C556 H557 0.961 . S
C556 H558 0.961 . S
C556 H559 0.960 . S
H557 C556 0.961 . S
H558 C556 0.961 . S
H559 C556 0.960 . S
C560 N561 1.342 . S
C560 C564 1.401 . S
C560 C565 1.499 . S
N561 Co544 1.989 . S
N561 C560 1.342 . S
N561 N562 1.388 . S
N562 Co545 1.993 . S
N562 N561 1.388 . S
N562 C563 1.346 . S
C563 N562 1.346 . S
C563 C564 1.396 . S
C563 C573 1.510 . S
C564 C560 1.401 . S
C564 C563 1.396 . S
C565 C560 1.499 . S
C565 H566 0.959 . S
C565 H567 0.960 . S
C565 H568 0.961 . S
H566 C565 0.959 . S
H567 C565 0.960 . S
H568 C565 0.961 . S
O569 Co544 1.967 . S
O569 C577 1.258 . S
O570 Co545 1.941 . S
O570 C577 1.266 . S
H571 C573 0.959 . S
H572 C573 0.961 . S
C573 C563 1.510 . S
C573 H571 0.959 . S
C573 H572 0.961 . S
C573 H574 0.960 . S
H574 C573 0.960 . S
H575 N555 0.862 . S
O576 Co544 1.920 . S
O576 C549 1.289 . S
C577 O569 1.258 . S
C577 O570 1.266 . S
Co578 O581 1.970 . S
Co578 N595 1.989 . S
Co578 O603 1.967 . S
Co578 O610 1.920 . S
Co579 O582 1.966 . S
Co579 N588 2.022 1_554 S
Co579 N596 1.993 . S
Co579 O604 1.941 . S
C580 O581 1.258 . S
C580 O582 1.263 . S
O581 Co578 1.970 . S
O581 C580 1.258 . S
O582 Co579 1.966 . S
O582 C580 1.263 . S
C583 O584 1.235 . S
C583 O610 1.289 . S
O584 C583 1.235 . S
C585 C587 1.400 . S
C585 N588 1.351 . S
C585 C590 1.501 . S
C586 C587 1.387 . S
C586 N589 1.341 . S
C587 C585 1.400 . S
C587 C586 1.387 . S
N588 Co579 2.022 1_556 S
N588 C585 1.351 . S
N588 N589 1.365 . S
N589 C586 1.341 . S
N589 N588 1.365 . S
N589 H609 0.862 . S
C590 C585 1.501 . S
C590 H591 0.961 . S
C590 H592 0.961 . S
C590 H593 0.960 . S
H591 C590 0.961 . S
H592 C590 0.961 . S
H593 C590 0.960 . S
C594 N595 1.342 . S
C594 C598 1.401 . S
C594 C599 1.499 . S
N595 Co578 1.989 . S
N595 C594 1.342 . S
N595 N596 1.388 . S
N596 Co579 1.993 . S
N596 N595 1.388 . S
N596 C597 1.346 . S
C597 N596 1.346 . S
C597 C598 1.396 . S
C597 C607 1.510 1_554 S
C598 C594 1.401 . S
C598 C597 1.396 . S
C599 C594 1.499 . S
C599 H600 0.959 . S
C599 H601 0.960 . S
C599 H602 0.961 . S
H600 C599 0.959 . S
H601 C599 0.960 . S
H602 C599 0.961 . S
O603 Co578 1.967 . S
O603 C611 1.258 . S
O604 Co579 1.941 . S
O604 C611 1.266 . S
H605 C607 0.959 . S
H606 C607 0.961 . S
C607 C597 1.510 1_556 S
C607 H605 0.959 . S
C607 H606 0.961 . S
C607 H608 0.960 . S
H608 C607 0.960 . S
H609 N589 0.862 . S
O610 Co578 1.920 . S
O610 C583 1.289 . S
C611 O603 1.258 . S
C611 O604 1.266 . S
Co612 O615 1.970 . S
Co612 N629 1.989 . S
Co612 O637 1.967 . S
Co612 O644 1.920 . S
Co613 O616 1.966 . S
Co613 N622 2.022 . S
Co613 N630 1.993 . S
Co613 O638 1.941 . S
C614 O615 1.258 . S
C614 O616 1.263 . S
O615 Co612 1.970 . S
O615 C614 1.258 . S
O616 Co613 1.966 . S
O616 C614 1.263 . S
C617 O618 1.235 . S
C617 O644 1.289 . S
O618 C617 1.235 . S
C619 C621 1.400 . S
C619 N622 1.351 . S
C619 C624 1.501 . S
C620 C621 1.387 . S
C620 N623 1.341 . S
C621 C619 1.400 . S
C621 C620 1.387 . S
N622 Co613 2.022 . S
N622 C619 1.351 . S
N622 N623 1.365 . S
N623 C620 1.341 . S
N623 N622 1.365 . S
N623 H643 0.862 . S
C624 C619 1.501 . S
C624 H625 0.961 . S
C624 H626 0.961 . S
C624 H627 0.960 . S
H625 C624 0.961 . S
H626 C624 0.961 . S
H627 C624 0.960 . S
C628 N629 1.342 . S
C628 C632 1.401 . S
C628 C633 1.499 . S
N629 Co612 1.989 . S
N629 C628 1.342 . S
N629 N630 1.388 . S
N630 Co613 1.993 . S
N630 N629 1.388 . S
N630 C631 1.346 . S
C631 N630 1.346 . S
C631 C632 1.396 . S
C631 C641 1.510 . S
C632 C628 1.401 . S
C632 C631 1.396 . S
C633 C628 1.499 . S
C633 H634 0.959 . S
C633 H635 0.960 . S
C633 H636 0.961 . S
H634 C633 0.959 . S
H635 C633 0.960 . S
H636 C633 0.961 . S
O637 Co612 1.967 . S
O637 C645 1.258 . S
O638 Co613 1.941 . S
O638 C645 1.266 . S
H639 C641 0.959 . S
H640 C641 0.961 . S
C641 C631 1.510 . S
C641 H639 0.959 . S
C641 H640 0.961 . S
C641 H642 0.960 . S
H642 C641 0.960 . S
H643 N623 0.862 . S
O644 Co612 1.920 . S
O644 C617 1.289 . S
C645 O637 1.258 . S
C645 O638 1.266 . S
Co646 O649 1.970 . S
Co646 N663 1.989 . S
Co646 O671 1.967 . S
Co646 O678 1.920 . S
Co647 O650 1.966 . S
Co647 N656 2.022 . S
Co647 N664 1.993 . S
Co647 O672 1.941 . S
C648 O649 1.258 . S
C648 O650 1.263 . S
O649 Co646 1.970 . S
O649 C648 1.258 . S
O650 Co647 1.966 . S
O650 C648 1.263 . S
C651 O652 1.235 . S
C651 O678 1.289 1_455 S
O652 C651 1.235 . S
C653 C655 1.400 . S
C653 N656 1.351 . S
C653 C658 1.501 . S
C654 C655 1.387 . S
C654 N657 1.341 . S
C655 C653 1.400 . S
C655 C654 1.387 . S
N656 Co647 2.022 . S
N656 C653 1.351 . S
N656 N657 1.365 . S
N657 C654 1.341 . S
N657 N656 1.365 . S
N657 H677 0.862 . S
C658 C653 1.501 . S
C658 H659 0.961 . S
C658 H660 0.961 . S
C658 H661 0.960 . S
H659 C658 0.961 . S
H660 C658 0.961 . S
H661 C658 0.960 . S
C662 N663 1.342 . S
C662 C666 1.401 . S
C662 C667 1.499 . S
N663 Co646 1.989 . S
N663 C662 1.342 . S
N663 N664 1.388 . S
N664 Co647 1.993 . S
N664 N663 1.388 . S
N664 C665 1.346 . S
C665 N664 1.346 . S
C665 C666 1.396 . S
C665 C675 1.510 . S
C666 C662 1.401 . S
C666 C665 1.396 . S
C667 C662 1.499 . S
C667 H668 0.959 . S
C667 H669 0.960 . S
C667 H670 0.961 . S
H668 C667 0.959 . S
H669 C667 0.960 . S
H670 C667 0.961 . S
O671 Co646 1.967 . S
O671 C679 1.258 . S
O672 Co647 1.941 . S
O672 C679 1.266 . S
H673 C675 0.959 . S
H674 C675 0.961 . S
C675 C665 1.510 . S
C675 H673 0.959 . S
C675 H674 0.961 . S
C675 H676 0.960 . S
H676 C675 0.960 . S
H677 N657 0.862 . S
O678 Co646 1.920 . S
O678 C651 1.289 1_655 S
C679 O671 1.258 . S
C679 O672 1.266 . S
Co680 O683 1.970 . S
Co680 N697 1.989 . S
Co680 O705 1.967 . S
Co680 O712 1.920 . S
Co681 O684 1.966 . S
Co681 N690 2.022 . S
Co681 N698 1.993 . S
Co681 O706 1.941 . S
C682 O683 1.258 . S
C682 O684 1.263 . S
O683 Co680 1.970 . S
O683 C682 1.258 . S
O684 Co681 1.966 . S
O684 C682 1.263 . S
C685 O686 1.235 . S
C685 O712 1.289 . S
O686 C685 1.235 . S
C687 C689 1.400 . S
C687 N690 1.351 . S
C687 C692 1.501 . S
C688 C689 1.387 . S
C688 N691 1.341 . S
C689 C687 1.400 . S
C689 C688 1.387 . S
N690 Co681 2.022 . S
N690 C687 1.351 . S
N690 N691 1.365 . S
N691 C688 1.341 . S
N691 N690 1.365 . S
N691 H711 0.862 . S
C692 C687 1.501 . S
C692 H693 0.961 . S
C692 H694 0.961 . S
C692 H695 0.960 . S
H693 C692 0.961 . S
H694 C692 0.961 . S
H695 C692 0.960 . S
C696 N697 1.342 . S
C696 C700 1.401 . S
C696 C701 1.499 . S
N697 Co680 1.989 . S
N697 C696 1.342 . S
N697 N698 1.388 . S
N698 Co681 1.993 . S
N698 N697 1.388 . S
N698 C699 1.346 . S
C699 N698 1.346 . S
C699 C700 1.396 . S
C699 C709 1.510 . S
C700 C696 1.401 . S
C700 C699 1.396 . S
C701 C696 1.499 . S
C701 H702 0.959 . S
C701 H703 0.960 . S
C701 H704 0.961 . S
H702 C701 0.959 . S
H703 C701 0.960 . S
H704 C701 0.961 . S
O705 Co680 1.967 . S
O705 C713 1.258 . S
O706 Co681 1.941 . S
O706 C713 1.266 . S
H707 C709 0.959 . S
H708 C709 0.961 . S
C709 C699 1.510 . S
C709 H707 0.959 . S
C709 H708 0.961 . S
C709 H710 0.960 . S
H710 C709 0.960 . S
H711 N691 0.862 . S
O712 Co680 1.920 . S
O712 C685 1.289 . S
C713 O705 1.258 . S
C713 O706 1.266 . S
Co714 O717 1.970 . S
Co714 N731 1.989 . S
Co714 O739 1.967 . S
Co714 O746 1.920 . S
Co715 O718 1.966 . S
Co715 N724 2.022 1_556 S
Co715 N732 1.993 . S
Co715 O740 1.941 . S
C716 O717 1.258 . S
C716 O718 1.263 . S
O717 Co714 1.970 . S
O717 C716 1.258 . S
O718 Co715 1.966 . S
O718 C716 1.263 . S
C719 O720 1.235 . S
C719 O746 1.289 1_455 S
O720 C719 1.235 . S
C721 C723 1.400 . S
C721 N724 1.351 . S
C721 C726 1.501 . S
C722 C723 1.387 . S
C722 N725 1.341 . S
C723 C721 1.400 . S
C723 C722 1.387 . S
N724 Co715 2.022 1_554 S
N724 C721 1.351 . S
N724 N725 1.365 . S
N725 C722 1.341 . S
N725 N724 1.365 . S
N725 H745 0.862 . S
C726 C721 1.501 . S
C726 H727 0.961 . S
C726 H728 0.961 . S
C726 H729 0.960 . S
H727 C726 0.961 . S
H728 C726 0.961 . S
H729 C726 0.960 . S
C730 N731 1.342 . S
C730 C734 1.401 . S
C730 C735 1.499 . S
N731 Co714 1.989 . S
N731 C730 1.342 . S
N731 N732 1.388 . S
N732 Co715 1.993 . S
N732 N731 1.388 . S
N732 C733 1.346 . S
C733 N732 1.346 . S
C733 C734 1.396 . S
C733 C743 1.510 1_556 S
C734 C730 1.401 . S
C734 C733 1.396 . S
C735 C730 1.499 . S
C735 H736 0.959 . S
C735 H737 0.960 . S
C735 H738 0.961 . S
H736 C735 0.959 . S
H737 C735 0.960 . S
H738 C735 0.961 . S
O739 Co714 1.967 . S
O739 C747 1.258 . S
O740 Co715 1.941 . S
O740 C747 1.266 . S
H741 C743 0.959 . S
H742 C743 0.961 . S
C743 C733 1.510 1_554 S
C743 H741 0.959 . S
C743 H742 0.961 . S
C743 H744 0.960 . S
H744 C743 0.960 . S
H745 N725 0.862 . S
O746 Co714 1.920 . S
O746 C719 1.289 1_655 S
C747 O739 1.258 . S
C747 O740 1.266 . S
Co748 O751 1.970 . S
Co748 N765 1.989 . S
Co748 O773 1.967 . S
Co748 O780 1.920 . S
Co749 O752 1.966 . S
Co749 N758 2.022 . S
Co749 N766 1.993 . S
Co749 O774 1.941 . S
C750 O751 1.258 . S
C750 O752 1.263 . S
O751 Co748 1.970 . S
O751 C750 1.258 . S
O752 Co749 1.966 . S
O752 C750 1.263 . S
C753 O754 1.235 . S
C753 O780 1.289 . S
O754 C753 1.235 . S
C755 C757 1.400 . S
C755 N758 1.351 . S
C755 C760 1.501 . S
C756 C757 1.387 . S
C756 N759 1.341 . S
C757 C755 1.400 . S
C757 C756 1.387 . S
N758 Co749 2.022 . S
N758 C755 1.351 . S
N758 N759 1.365 . S
N759 C756 1.341 . S
N759 N758 1.365 . S
N759 H779 0.862 . S
C760 C755 1.501 . S
C760 H761 0.961 . S
C760 H762 0.961 . S
C760 H763 0.960 . S
H761 C760 0.961 . S
H762 C760 0.961 . S
H763 C760 0.960 . S
C764 N765 1.342 . S
C764 C768 1.401 . S
C764 C769 1.499 . S
N765 Co748 1.989 . S
N765 C764 1.342 . S
N765 N766 1.388 . S
N766 Co749 1.993 . S
N766 N765 1.388 . S
N766 C767 1.346 . S
C767 N766 1.346 . S
C767 C768 1.396 . S
C767 C777 1.510 . S
C768 C764 1.401 . S
C768 C767 1.396 . S
C769 C764 1.499 . S
C769 H770 0.959 . S
C769 H771 0.960 . S
C769 H772 0.961 . S
H770 C769 0.959 . S
H771 C769 0.960 . S
H772 C769 0.961 . S
O773 Co748 1.967 . S
O773 C781 1.258 . S
O774 Co749 1.941 . S
O774 C781 1.266 . S
H775 C777 0.959 . S
H776 C777 0.961 . S
C777 C767 1.510 . S
C777 H775 0.959 . S
C777 H776 0.961 . S
C777 H778 0.960 . S
H778 C777 0.960 . S
H779 N759 0.862 . S
O780 Co748 1.920 . S
O780 C753 1.289 . S
C781 O773 1.258 . S
C781 O774 1.266 . S
Co782 O785 1.970 . S
Co782 N799 1.989 . S
Co782 O807 1.967 . S
Co782 O814 1.920 . S
Co783 O786 1.966 . S
Co783 N792 2.022 . S
Co783 N800 1.993 . S
Co783 O808 1.941 . S
C784 O785 1.258 . S
C784 O786 1.263 . S
O785 Co782 1.970 . S
O785 C784 1.258 . S
O786 Co783 1.966 . S
O786 C784 1.263 . S
C787 O788 1.235 . S
C787 O814 1.289 . S
O788 C787 1.235 . S
C789 C791 1.400 . S
C789 N792 1.351 . S
C789 C794 1.501 . S
C790 C791 1.387 . S
C790 N793 1.341 . S
C791 C789 1.400 . S
C791 C790 1.387 . S
N792 Co783 2.022 . S
N792 C789 1.351 . S
N792 N793 1.365 . S
N793 C790 1.341 . S
N793 N792 1.365 . S
N793 H813 0.862 . S
C794 C789 1.501 . S
C794 H795 0.961 . S
C794 H796 0.961 . S
C794 H797 0.960 . S
H795 C794 0.961 . S
H796 C794 0.961 . S
H797 C794 0.960 . S
C798 N799 1.342 . S
C798 C802 1.401 . S
C798 C803 1.499 . S
N799 Co782 1.989 . S
N799 C798 1.342 . S
N799 N800 1.388 . S
N800 Co783 1.993 . S
N800 N799 1.388 . S
N800 C801 1.346 . S
C801 N800 1.346 . S
C801 C802 1.396 . S
C801 C811 1.510 . S
C802 C798 1.401 . S
C802 C801 1.396 . S
C803 C798 1.499 . S
C803 H804 0.959 . S
C803 H805 0.960 . S
C803 H806 0.961 . S
H804 C803 0.959 . S
H805 C803 0.960 . S
H806 C803 0.961 . S
O807 Co782 1.967 . S
O807 C815 1.258 . S
O808 Co783 1.941 . S
O808 C815 1.266 . S
H809 C811 0.959 . S
H810 C811 0.961 . S
C811 C801 1.510 . S
C811 H809 0.959 . S
C811 H810 0.961 . S
C811 H812 0.960 . S
H812 C811 0.960 . S
H813 N793 0.862 . S
O814 Co782 1.920 . S
O814 C787 1.289 . S
C815 O807 1.258 . S
C815 O808 1.266 . S
Co816 O819 1.970 . S
Co816 N833 1.989 . S
Co816 O841 1.967 . S
Co816 O848 1.920 . S
Co817 O820 1.966 . S
Co817 N826 2.022 . S
Co817 N834 1.993 . S
Co817 O842 1.941 . S
C818 O819 1.258 . S
C818 O820 1.263 . S
O819 Co816 1.970 . S
O819 C818 1.258 . S
O820 Co817 1.966 . S
O820 C818 1.263 . S
C821 O822 1.235 . S
C821 O848 1.289 . S
O822 C821 1.235 . S
C823 C825 1.400 . S
C823 N826 1.351 . S
C823 C828 1.501 . S
C824 C825 1.387 . S
C824 N827 1.341 . S
C825 C823 1.400 . S
C825 C824 1.387 . S
N826 Co817 2.022 . S
N826 C823 1.351 . S
N826 N827 1.365 . S
N827 C824 1.341 . S
N827 N826 1.365 . S
N827 H847 0.862 . S
C828 C823 1.501 . S
C828 H829 0.961 . S
C828 H830 0.961 . S
C828 H831 0.960 . S
H829 C828 0.961 . S
H830 C828 0.961 . S
H831 C828 0.960 . S
C832 N833 1.342 . S
C832 C836 1.401 . S
C832 C837 1.499 . S
N833 Co816 1.989 . S
N833 C832 1.342 . S
N833 N834 1.388 . S
N834 Co817 1.993 . S
N834 N833 1.388 . S
N834 C835 1.346 . S
C835 N834 1.346 . S
C835 C836 1.396 . S
C835 C845 1.510 . S
C836 C832 1.401 . S
C836 C835 1.396 . S
C837 C832 1.499 . S
C837 H838 0.959 . S
C837 H839 0.960 . S
C837 H840 0.961 . S
H838 C837 0.959 . S
H839 C837 0.960 . S
H840 C837 0.961 . S
O841 Co816 1.967 . S
O841 C849 1.258 . S
O842 Co817 1.941 . S
O842 C849 1.266 . S
H843 C845 0.959 . S
H844 C845 0.961 . S
C845 C835 1.510 . S
C845 H843 0.959 . S
C845 H844 0.961 . S
C845 H846 0.960 . S
H846 C845 0.960 . S
H847 N827 0.862 . S
O848 Co816 1.920 . S
O848 C821 1.289 . S
C849 O841 1.258 . S
C849 O842 1.266 . S
Co850 O853 1.970 . S
Co850 N867 1.989 . S
Co850 O875 1.967 . S
Co850 O882 1.920 . S
Co851 O854 1.966 . S
Co851 N860 2.022 1_556 S
Co851 N868 1.993 . S
Co851 O876 1.941 . S
C852 O853 1.258 . S
C852 O854 1.263 . S
O853 Co850 1.970 . S
O853 C852 1.258 . S
O854 Co851 1.966 . S
O854 C852 1.263 . S
C855 O856 1.235 . S
C855 O882 1.289 . S
O856 C855 1.235 . S
C857 C859 1.400 . S
C857 N860 1.351 . S
C857 C862 1.501 . S
C858 C859 1.387 . S
C858 N861 1.341 . S
C859 C857 1.400 . S
C859 C858 1.387 . S
N860 Co851 2.022 1_554 S
N860 C857 1.351 . S
N860 N861 1.365 . S
N861 C858 1.341 . S
N861 N860 1.365 . S
N861 H881 0.862 . S
C862 C857 1.501 . S
C862 H863 0.961 . S
C862 H864 0.961 . S
C862 H865 0.960 . S
H863 C862 0.961 . S
H864 C862 0.961 . S
H865 C862 0.960 . S
C866 N867 1.342 . S
C866 C870 1.401 . S
C866 C871 1.499 . S
N867 Co850 1.989 . S
N867 C866 1.342 . S
N867 N868 1.388 . S
N868 Co851 1.993 . S
N868 N867 1.388 . S
N868 C869 1.346 . S
C869 N868 1.346 . S
C869 C870 1.396 . S
C869 C879 1.510 1_556 S
C870 C866 1.401 . S
C870 C869 1.396 . S
C871 C866 1.499 . S
C871 H872 0.959 . S
C871 H873 0.960 . S
C871 H874 0.961 . S
H872 C871 0.959 . S
H873 C871 0.960 . S
H874 C871 0.961 . S
O875 Co850 1.967 . S
O875 C883 1.258 . S
O876 Co851 1.941 . S
O876 C883 1.266 . S
H877 C879 0.959 . S
H878 C879 0.961 . S
C879 C869 1.510 1_554 S
C879 H877 0.959 . S
C879 H878 0.961 . S
C879 H880 0.960 . S
H880 C879 0.960 . S
H881 N861 0.862 . S
O882 Co850 1.920 . S
O882 C855 1.289 . S
C883 O875 1.258 . S
C883 O876 1.266 . S
Co884 O887 1.970 . S
Co884 N901 1.989 . S
Co884 O909 1.967 . S
Co884 O916 1.920 . S
Co885 O888 1.966 . S
Co885 N894 2.022 . S
Co885 N902 1.993 . S
Co885 O910 1.941 . S
C886 O887 1.258 . S
C886 O888 1.263 . S
O887 Co884 1.970 . S
O887 C886 1.258 . S
O888 Co885 1.966 . S
O888 C886 1.263 . S
C889 O890 1.235 . S
C889 O916 1.289 . S
O890 C889 1.235 . S
C891 C893 1.400 . S
C891 N894 1.351 . S
C891 C896 1.501 . S
C892 C893 1.387 . S
C892 N895 1.341 . S
C893 C891 1.400 . S
C893 C892 1.387 . S
N894 Co885 2.022 . S
N894 C891 1.351 . S
N894 N895 1.365 . S
N895 C892 1.341 . S
N895 N894 1.365 . S
N895 H915 0.862 . S
C896 C891 1.501 . S
C896 H897 0.961 . S
C896 H898 0.961 . S
C896 H899 0.960 . S
H897 C896 0.961 . S
H898 C896 0.961 . S
H899 C896 0.960 . S
C900 N901 1.342 . S
C900 C904 1.401 . S
C900 C905 1.499 . S
N901 Co884 1.989 . S
N901 C900 1.342 . S
N901 N902 1.388 . S
N902 Co885 1.993 . S
N902 N901 1.388 . S
N902 C903 1.346 . S
C903 N902 1.346 . S
C903 C904 1.396 . S
C903 C913 1.510 . S
C904 C900 1.401 . S
C904 C903 1.396 . S
C905 C900 1.499 . S
C905 H906 0.959 . S
C905 H907 0.960 . S
C905 H908 0.961 . S
H906 C905 0.959 . S
H907 C905 0.960 . S
H908 C905 0.961 . S
O909 Co884 1.967 . S
O909 C917 1.258 . S
O910 Co885 1.941 . S
O910 C917 1.266 . S
H911 C913 0.959 . S
H912 C913 0.961 . S
C913 C903 1.510 . S
C913 H911 0.959 . S
C913 H912 0.961 . S
C913 H914 0.960 . S
H914 C913 0.960 . S
H915 N895 0.862 . S
O916 Co884 1.920 . S
O916 C889 1.289 . S
C917 O909 1.258 . S
C917 O910 1.266 . S
Co918 O921 1.970 . S
Co918 N935 1.989 . S
Co918 O943 1.967 . S
Co918 O950 1.920 . S
Co919 O922 1.966 . S
Co919 N928 2.022 . S
Co919 N936 1.993 . S
Co919 O944 1.941 . S
C920 O921 1.258 . S
C920 O922 1.263 . S
O921 Co918 1.970 . S
O921 C920 1.258 . S
O922 Co919 1.966 . S
O922 C920 1.263 . S
C923 O924 1.235 . S
C923 O950 1.289 1_655 S
O924 C923 1.235 . S
C925 C927 1.400 . S
C925 N928 1.351 . S
C925 C930 1.501 . S
C926 C927 1.387 . S
C926 N929 1.341 . S
C927 C925 1.400 . S
C927 C926 1.387 . S
N928 Co919 2.022 . S
N928 C925 1.351 . S
N928 N929 1.365 . S
N929 C926 1.341 . S
N929 N928 1.365 . S
N929 H949 0.862 . S
C930 C925 1.501 . S
C930 H931 0.961 . S
C930 H932 0.961 . S
C930 H933 0.960 . S
H931 C930 0.961 . S
H932 C930 0.961 . S
H933 C930 0.960 . S
C934 N935 1.342 . S
C934 C938 1.401 . S
C934 C939 1.499 . S
N935 Co918 1.989 . S
N935 C934 1.342 . S
N935 N936 1.388 . S
N936 Co919 1.993 . S
N936 N935 1.388 . S
N936 C937 1.346 . S
C937 N936 1.346 . S
C937 C938 1.396 . S
C937 C947 1.510 . S
C938 C934 1.401 . S
C938 C937 1.396 . S
C939 C934 1.499 . S
C939 H940 0.959 . S
C939 H941 0.960 . S
C939 H942 0.961 . S
H940 C939 0.959 . S
H941 C939 0.960 . S
H942 C939 0.961 . S
O943 Co918 1.967 . S
O943 C951 1.258 . S
O944 Co919 1.941 . S
O944 C951 1.266 . S
H945 C947 0.959 . S
H946 C947 0.961 . S
C947 C937 1.510 . S
C947 H945 0.959 . S
C947 H946 0.961 . S
C947 H948 0.960 . S
H948 C947 0.960 . S
H949 N929 0.862 . S
O950 Co918 1.920 . S
O950 C923 1.289 1_455 S
C951 O943 1.258 . S
C951 O944 1.266 . S
Co952 O955 1.970 . S
Co952 N969 1.989 . S
Co952 O977 1.967 . S
Co952 O984 1.920 . S
Co953 O956 1.966 . S
Co953 N962 2.022 . S
Co953 N970 1.993 . S
Co953 O978 1.941 . S
C954 O955 1.258 . S
C954 O956 1.263 . S
O955 Co952 1.970 . S
O955 C954 1.258 . S
O956 Co953 1.966 . S
O956 C954 1.263 . S
C957 O958 1.235 . S
C957 O984 1.289 . S
O958 C957 1.235 . S
C959 C961 1.400 . S
C959 N962 1.351 . S
C959 C964 1.501 . S
C960 C961 1.387 . S
C960 N963 1.341 . S
C961 C959 1.400 . S
C961 C960 1.387 . S
N962 Co953 2.022 . S
N962 C959 1.351 . S
N962 N963 1.365 . S
N963 C960 1.341 . S
N963 N962 1.365 . S
N963 H983 0.862 . S
C964 C959 1.501 . S
C964 H965 0.961 . S
C964 H966 0.961 . S
C964 H967 0.960 . S
H965 C964 0.961 . S
H966 C964 0.961 . S
H967 C964 0.960 . S
C968 N969 1.342 . S
C968 C972 1.401 . S
C968 C973 1.499 . S
N969 Co952 1.989 . S
N969 C968 1.342 . S
N969 N970 1.388 . S
N970 Co953 1.993 . S
N970 N969 1.388 . S
N970 C971 1.346 . S
C971 N970 1.346 . S
C971 C972 1.396 . S
C971 C981 1.510 . S
C972 C968 1.401 . S
C972 C971 1.396 . S
C973 C968 1.499 . S
C973 H974 0.959 . S
C973 H975 0.960 . S
C973 H976 0.961 . S
H974 C973 0.959 . S
H975 C973 0.960 . S
H976 C973 0.961 . S
O977 Co952 1.967 . S
O977 C985 1.258 . S
O978 Co953 1.941 . S
O978 C985 1.266 . S
H979 C981 0.959 . S
H980 C981 0.961 . S
C981 C971 1.510 . S
C981 H979 0.959 . S
C981 H980 0.961 . S
C981 H982 0.960 . S
H982 C981 0.960 . S
H983 N963 0.862 . S
O984 Co952 1.920 . S
O984 C957 1.289 . S
C985 O977 1.258 . S
C985 O978 1.266 . S
Co986 O989 1.970 . S
Co986 N1003 1.989 . S
Co986 O1011 1.967 . S
Co986 O1018 1.920 . S
Co987 O990 1.966 . S
Co987 N996 2.022 1_554 S
Co987 N1004 1.993 . S
Co987 O1012 1.941 . S
C988 O989 1.258 . S
C988 O990 1.263 . S
O989 Co986 1.970 . S
O989 C988 1.258 . S
O990 Co987 1.966 . S
O990 C988 1.263 . S
C991 O992 1.235 . S
C991 O1018 1.289 1_655 S
O992 C991 1.235 . S
C993 C995 1.400 . S
C993 N996 1.351 . S
C993 C998 1.501 . S
C994 C995 1.387 . S
C994 N997 1.341 . S
C995 C993 1.400 . S
C995 C994 1.387 . S
N996 Co987 2.022 1_556 S
N996 C993 1.351 . S
N996 N997 1.365 . S
N997 C994 1.341 . S
N997 N996 1.365 . S
N997 H1017 0.862 . S
C998 C993 1.501 . S
C998 H999 0.961 . S
C998 H1000 0.961 . S
C998 H1001 0.960 . S
H999 C998 0.961 . S
H1000 C998 0.961 . S
H1001 C998 0.960 . S
C1002 N1003 1.342 . S
C1002 C1006 1.401 . S
C1002 C1007 1.499 . S
N1003 Co986 1.989 . S
N1003 C1002 1.342 . S
N1003 N1004 1.388 . S
N1004 Co987 1.993 . S
N1004 N1003 1.388 . S
N1004 C1005 1.346 . S
C1005 N1004 1.346 . S
C1005 C1006 1.396 . S
C1005 C1015 1.510 1_554 S
C1006 C1002 1.401 . S
C1006 C1005 1.396 . S
C1007 C1002 1.499 . S
C1007 H1008 0.959 . S
C1007 H1009 0.960 . S
C1007 H1010 0.961 . S
H1008 C1007 0.959 . S
H1009 C1007 0.960 . S
H1010 C1007 0.961 . S
O1011 Co986 1.967 . S
O1011 C1019 1.258 . S
O1012 Co987 1.941 . S
O1012 C1019 1.266 . S
H1013 C1015 0.959 . S
H1014 C1015 0.961 . S
C1015 C1005 1.510 1_556 S
C1015 H1013 0.959 . S
C1015 H1014 0.961 . S
C1015 H1016 0.960 . S
H1016 C1015 0.960 . S
H1017 N997 0.862 . S
O1018 Co986 1.920 . S
O1018 C991 1.289 1_455 S
C1019 O1011 1.258 . S
C1019 O1012 1.266 . S
Co1020 O1023 1.970 . S
Co1020 N1037 1.989 . S
Co1020 O1045 1.967 . S
Co1020 O1052 1.920 . S
Co1021 O1024 1.966 . S
Co1021 N1030 2.022 . S
Co1021 N1038 1.993 . S
Co1021 O1046 1.941 . S
C1022 O1023 1.258 . S
C1022 O1024 1.263 . S
O1023 Co1020 1.970 . S
O1023 C1022 1.258 . S
O1024 Co1021 1.966 . S
O1024 C1022 1.263 . S
C1025 O1026 1.235 . S
C1025 O1052 1.289 . S
O1026 C1025 1.235 . S
C1027 C1029 1.400 . S
C1027 N1030 1.351 . S
C1027 C1032 1.501 . S
C1028 C1029 1.387 . S
C1028 N1031 1.341 . S
C1029 C1027 1.400 . S
C1029 C1028 1.387 . S
N1030 Co1021 2.022 . S
N1030 C1027 1.351 . S
N1030 N1031 1.365 . S
N1031 C1028 1.341 . S
N1031 N1030 1.365 . S
N1031 H1051 0.862 . S
C1032 C1027 1.501 . S
C1032 H1033 0.961 . S
C1032 H1034 0.961 . S
C1032 H1035 0.960 . S
H1033 C1032 0.961 . S
H1034 C1032 0.961 . S
H1035 C1032 0.960 . S
C1036 N1037 1.342 . S
C1036 C1040 1.401 . S
C1036 C1041 1.499 . S
N1037 Co1020 1.989 . S
N1037 C1036 1.342 . S
N1037 N1038 1.388 . S
N1038 Co1021 1.993 . S
N1038 N1037 1.388 . S
N1038 C1039 1.346 . S
C1039 N1038 1.346 . S
C1039 C1040 1.396 . S
C1039 C1049 1.510 . S
C1040 C1036 1.401 . S
C1040 C1039 1.396 . S
C1041 C1036 1.499 . S
C1041 H1042 0.959 . S
C1041 H1043 0.960 . S
C1041 H1044 0.961 . S
H1042 C1041 0.959 . S
H1043 C1041 0.960 . S
H1044 C1041 0.961 . S
O1045 Co1020 1.967 . S
O1045 C1053 1.258 . S
O1046 Co1021 1.941 . S
O1046 C1053 1.266 . S
H1047 C1049 0.959 . S
H1048 C1049 0.961 . S
C1049 C1039 1.510 . S
C1049 H1047 0.959 . S
C1049 H1048 0.961 . S
C1049 H1050 0.960 . S
H1050 C1049 0.960 . S
H1051 N1031 0.862 . S
O1052 Co1020 1.920 . S
O1052 C1025 1.289 . S
C1053 O1045 1.258 . S
C1053 O1046 1.266 . S
Co1054 O1057 1.970 . S
Co1054 N1071 1.989 . S
Co1054 O1079 1.967 . S
Co1054 O1086 1.920 . S
Co1055 O1058 1.966 . S
Co1055 N1064 2.022 . S
Co1055 N1072 1.993 . S
Co1055 O1080 1.941 . S
C1056 O1057 1.258 . S
C1056 O1058 1.263 . S
O1057 Co1054 1.970 . S
O1057 C1056 1.258 . S
O1058 Co1055 1.966 . S
O1058 C1056 1.263 . S
C1059 O1060 1.235 . S
C1059 O1086 1.289 . S
O1060 C1059 1.235 . S
C1061 C1063 1.400 . S
C1061 N1064 1.351 . S
C1061 C1066 1.501 . S
C1062 C1063 1.387 . S
C1062 N1065 1.341 . S
C1063 C1061 1.400 . S
C1063 C1062 1.387 . S
N1064 Co1055 2.022 . S
N1064 C1061 1.351 . S
N1064 N1065 1.365 . S
N1065 C1062 1.341 . S
N1065 N1064 1.365 . S
N1065 H1085 0.862 . S
C1066 C1061 1.501 . S
C1066 H1067 0.961 . S
C1066 H1068 0.961 . S
C1066 H1069 0.960 . S
H1067 C1066 0.961 . S
H1068 C1066 0.961 . S
H1069 C1066 0.960 . S
C1070 N1071 1.342 . S
C1070 C1074 1.401 . S
C1070 C1075 1.499 . S
N1071 Co1054 1.989 . S
N1071 C1070 1.342 . S
N1071 N1072 1.388 . S
N1072 Co1055 1.993 . S
N1072 N1071 1.388 . S
N1072 C1073 1.346 . S
C1073 N1072 1.346 . S
C1073 C1074 1.396 . S
C1073 C1083 1.510 . S
C1074 C1070 1.401 . S
C1074 C1073 1.396 . S
C1075 C1070 1.499 . S
C1075 H1076 0.959 . S
C1075 H1077 0.960 . S
C1075 H1078 0.961 . S
H1076 C1075 0.959 . S
H1077 C1075 0.960 . S
H1078 C1075 0.961 . S
O1079 Co1054 1.967 . S
O1079 C1087 1.258 . S
O1080 Co1055 1.941 . S
O1080 C1087 1.266 . S
H1081 C1083 0.959 . S
H1082 C1083 0.961 . S
C1083 C1073 1.510 . S
C1083 H1081 0.959 . S
C1083 H1082 0.961 . S
C1083 H1084 0.960 . S
H1084 C1083 0.960 . S
H1085 N1065 0.862 . S
O1086 Co1054 1.920 . S
O1086 C1059 1.289 . S
C1087 O1079 1.258 . S
C1087 O1080 1.266 . S
H1088 C1100 0.930 . S
H1089 C1102 0.930 . S
H1090 C1103 0.930 . S
H1091 C1107 0.959 . S
H1092 C1107 0.959 . S
H1093 C1107 0.961 . S
H1094 C1108 0.960 . S
H1095 C1108 0.961 . S
H1096 C1108 0.959 . S
H1097 C1111 0.929 . S
H1098 C1112 0.931 . S
H1099 C1114 0.930 . S
C1100 H1088 0.930 . S
C1100 C1101 1.399 . S
C1100 C1105 1.399 . S
C1101 C1100 1.399 . S
C1101 C1102 1.376 . S
C1102 H1089 0.930 . S
C1102 C1101 1.376 . S
C1102 C1103 1.388 . S
C1103 H1090 0.930 . S
C1103 C1102 1.388 . S
C1103 C1104 1.390 . S
C1104 C1103 1.390 . S
C1104 C1105 1.394 . S
C1104 C1110 1.465 . S
C1105 C1100 1.399 . S
C1105 C1104 1.394 . S
C1105 C1106 1.516 . S
C1106 C1105 1.516 . S
C1106 C1107 1.502 . S
C1106 C1108 1.561 . S
C1106 C1109 1.526 . S
C1107 H1091 0.959 . S
C1107 H1092 0.959 . S
C1107 H1093 0.961 . S
C1107 C1106 1.502 . S
C1108 H1094 0.960 . S
C1108 H1095 0.961 . S
C1108 H1096 0.959 . S
C1108 C1106 1.561 . S
C1109 C1106 1.526 . S
C1109 C1110 1.396 . S
C1109 C1114 1.390 . S
C1110 C1104 1.465 . S
C1110 C1109 1.396 . S
C1110 C1111 1.399 . S
C1111 H1097 0.929 . S
C1111 C1110 1.399 . S
C1111 C1112 1.385 . S
C1112 H1098 0.931 . S
C1112 C1111 1.385 . S
C1112 C1113 1.389 . S
C1113 C1112 1.389 . S
C1113 C1114 1.387 . S
C1114 H1099 0.930 . S
C1114 C1109 1.390 . S
C1114 C1113 1.387 . S
H1115 C1127 0.930 . S
H1116 C1129 0.930 . S
H1117 C1130 0.930 . S
H1118 C1134 0.959 . S
H1119 C1134 0.959 . S
H1120 C1134 0.961 . S
H1121 C1135 0.960 . S
H1122 C1135 0.961 . S
H1123 C1135 0.959 . S
H1124 C1138 0.929 . S
H1125 C1139 0.931 . S
H1126 C1141 0.930 . S
C1127 H1115 0.930 . S
C1127 C1128 1.399 . S
C1127 C1132 1.399 . S
C1128 C1127 1.399 . S
C1128 C1129 1.376 . S
C1129 H1116 0.930 . S
C1129 C1128 1.376 . S
C1129 C1130 1.388 . S
C1130 H1117 0.930 . S
C1130 C1129 1.388 . S
C1130 C1131 1.390 . S
C1131 C1130 1.390 . S
C1131 C1132 1.394 . S
C1131 C1137 1.465 . S
C1132 C1127 1.399 . S
C1132 C1131 1.394 . S
C1132 C1133 1.516 . S
C1133 C1132 1.516 . S
C1133 C1134 1.502 . S
C1133 C1135 1.561 . S
C1133 C1136 1.526 . S
C1134 H1118 0.959 . S
C1134 H1119 0.959 . S
C1134 H1120 0.961 . S
C1134 C1133 1.502 . S
C1135 H1121 0.960 . S
C1135 H1122 0.961 . S
C1135 H1123 0.959 . S
C1135 C1133 1.561 . S
C1136 C1133 1.526 . S
C1136 C1137 1.396 . S
C1136 C1141 1.390 . S
C1137 C1131 1.465 . S
C1137 C1136 1.396 . S
C1137 C1138 1.399 . S
C1138 H1124 0.929 . S
C1138 C1137 1.399 . S
C1138 C1139 1.385 . S
C1139 H1125 0.931 . S
C1139 C1138 1.385 . S
C1139 C1140 1.389 . S
C1140 C1139 1.389 . S
C1140 C1141 1.387 . S
C1141 H1126 0.930 . S
C1141 C1136 1.390 . S
C1141 C1140 1.387 . S
H1142 C1154 0.930 . S
H1143 C1156 0.930 . S
H1144 C1157 0.930 . S
H1145 C1161 0.959 . S
H1146 C1161 0.959 . S
H1147 C1161 0.961 . S
H1148 C1162 0.960 . S
H1149 C1162 0.961 . S
H1150 C1162 0.959 . S
H1151 C1165 0.929 . S
H1152 C1166 0.931 . S
H1153 C1168 0.930 . S
C1154 H1142 0.930 . S
C1154 C1155 1.399 . S
C1154 C1159 1.399 . S
C1155 C1154 1.399 . S
C1155 C1156 1.376 . S
C1156 H1143 0.930 . S
C1156 C1155 1.376 . S
C1156 C1157 1.388 . S
C1157 H1144 0.930 . S
C1157 C1156 1.388 . S
C1157 C1158 1.390 . S
C1158 C1157 1.390 . S
C1158 C1159 1.394 . S
C1158 C1164 1.465 . S
C1159 C1154 1.399 . S
C1159 C1158 1.394 . S
C1159 C1160 1.516 . S
C1160 C1159 1.516 . S
C1160 C1161 1.502 . S
C1160 C1162 1.561 . S
C1160 C1163 1.526 . S
C1161 H1145 0.959 . S
C1161 H1146 0.959 . S
C1161 H1147 0.961 . S
C1161 C1160 1.502 . S
C1162 H1148 0.960 . S
C1162 H1149 0.961 . S
C1162 H1150 0.959 . S
C1162 C1160 1.561 . S
C1163 C1160 1.526 . S
C1163 C1164 1.396 . S
C1163 C1168 1.390 . S
C1164 C1158 1.465 . S
C1164 C1163 1.396 . S
C1164 C1165 1.399 . S
C1165 H1151 0.929 . S
C1165 C1164 1.399 . S
C1165 C1166 1.385 . S
C1166 H1152 0.931 . S
C1166 C1165 1.385 . S
C1166 C1167 1.389 . S
C1167 C1166 1.389 . S
C1167 C1168 1.387 . S
C1168 H1153 0.930 . S
C1168 C1163 1.390 . S
C1168 C1167 1.387 . S
H1169 C1181 0.930 . S
H1170 C1183 0.930 . S
H1171 C1184 0.930 . S
H1172 C1188 0.959 . S
H1173 C1188 0.959 . S
H1174 C1188 0.961 . S
H1175 C1189 0.960 . S
H1176 C1189 0.961 . S
H1177 C1189 0.959 . S
H1178 C1192 0.929 . S
H1179 C1193 0.931 . S
H1180 C1195 0.930 . S
C1181 H1169 0.930 . S
C1181 C1182 1.399 . S
C1181 C1186 1.399 . S
C1182 C1181 1.399 . S
C1182 C1183 1.376 . S
C1183 H1170 0.930 . S
C1183 C1182 1.376 . S
C1183 C1184 1.388 . S
C1184 H1171 0.930 . S
C1184 C1183 1.388 . S
C1184 C1185 1.390 . S
C1185 C1184 1.390 . S
C1185 C1186 1.394 . S
C1185 C1191 1.465 . S
C1186 C1181 1.399 . S
C1186 C1185 1.394 . S
C1186 C1187 1.516 . S
C1187 C1186 1.516 . S
C1187 C1188 1.502 . S
C1187 C1189 1.561 . S
C1187 C1190 1.526 . S
C1188 H1172 0.959 . S
C1188 H1173 0.959 . S
C1188 H1174 0.961 . S
C1188 C1187 1.502 . S
C1189 H1175 0.960 . S
C1189 H1176 0.961 . S
C1189 H1177 0.959 . S
C1189 C1187 1.561 . S
C1190 C1187 1.526 . S
C1190 C1191 1.396 . S
C1190 C1195 1.390 . S
C1191 C1185 1.465 . S
C1191 C1190 1.396 . S
C1191 C1192 1.399 . S
C1192 H1178 0.929 . S
C1192 C1191 1.399 . S
C1192 C1193 1.385 . S
C1193 H1179 0.931 . S
C1193 C1192 1.385 . S
C1193 C1194 1.389 . S
C1194 C1193 1.389 . S
C1194 C1195 1.387 . S
C1195 H1180 0.930 . S
C1195 C1190 1.390 . S
C1195 C1194 1.387 . S
H1196 C1208 0.930 . S
H1197 C1210 0.930 . S
H1198 C1211 0.930 . S
H1199 C1215 0.959 . S
H1200 C1215 0.959 . S
H1201 C1215 0.961 . S
H1202 C1216 0.960 . S
H1203 C1216 0.961 . S
H1204 C1216 0.959 . S
H1205 C1219 0.929 . S
H1206 C1220 0.931 . S
H1207 C1222 0.930 . S
C1208 H1196 0.930 . S
C1208 C1209 1.399 . S
C1208 C1213 1.399 . S
C1209 C1208 1.399 . S
C1209 C1210 1.376 . S
C1210 H1197 0.930 . S
C1210 C1209 1.376 . S
C1210 C1211 1.388 . S
C1211 H1198 0.930 . S
C1211 C1210 1.388 . S
C1211 C1212 1.390 . S
C1212 C1211 1.390 . S
C1212 C1213 1.394 . S
C1212 C1218 1.465 . S
C1213 C1208 1.399 . S
C1213 C1212 1.394 . S
C1213 C1214 1.516 . S
C1214 C1213 1.516 . S
C1214 C1215 1.502 . S
C1214 C1216 1.561 . S
C1214 C1217 1.526 . S
C1215 H1199 0.959 . S
C1215 H1200 0.959 . S
C1215 H1201 0.961 . S
C1215 C1214 1.502 . S
C1216 H1202 0.960 . S
C1216 H1203 0.961 . S
C1216 H1204 0.959 . S
C1216 C1214 1.561 . S
C1217 C1214 1.526 . S
C1217 C1218 1.396 . S
C1217 C1222 1.390 . S
C1218 C1212 1.465 . S
C1218 C1217 1.396 . S
C1218 C1219 1.399 . S
C1219 H1205 0.929 . S
C1219 C1218 1.399 . S
C1219 C1220 1.385 . S
C1220 H1206 0.931 . S
C1220 C1219 1.385 . S
C1220 C1221 1.389 . S
C1221 C1220 1.389 . S
C1221 C1222 1.387 . S
C1222 H1207 0.930 . S
C1222 C1217 1.390 . S
C1222 C1221 1.387 . S
H1223 C1235 0.930 . S
H1224 C1237 0.930 . S
H1225 C1238 0.930 . S
H1226 C1242 0.959 . S
H1227 C1242 0.959 . S
H1228 C1242 0.961 . S
H1229 C1243 0.960 . S
H1230 C1243 0.961 . S
H1231 C1243 0.959 . S
H1232 C1246 0.929 . S
H1233 C1247 0.931 . S
H1234 C1249 0.930 . S
C1235 H1223 0.930 . S
C1235 C1236 1.399 . S
C1235 C1240 1.399 . S
C1236 C1235 1.399 . S
C1236 C1237 1.376 . S
C1237 H1224 0.930 . S
C1237 C1236 1.376 . S
C1237 C1238 1.388 . S
C1238 H1225 0.930 . S
C1238 C1237 1.388 . S
C1238 C1239 1.390 . S
C1239 C1238 1.390 . S
C1239 C1240 1.394 . S
C1239 C1245 1.465 . S
C1240 C1235 1.399 . S
C1240 C1239 1.394 . S
C1240 C1241 1.516 . S
C1241 C1240 1.516 . S
C1241 C1242 1.502 . S
C1241 C1243 1.561 . S
C1241 C1244 1.526 . S
C1242 H1226 0.959 . S
C1242 H1227 0.959 . S
C1242 H1228 0.961 . S
C1242 C1241 1.502 . S
C1243 H1229 0.960 . S
C1243 H1230 0.961 . S
C1243 H1231 0.959 . S
C1243 C1241 1.561 . S
C1244 C1241 1.526 . S
C1244 C1245 1.396 . S
C1244 C1249 1.390 . S
C1245 C1239 1.465 . S
C1245 C1244 1.396 . S
C1245 C1246 1.399 . S
C1246 H1232 0.929 . S
C1246 C1245 1.399 . S
C1246 C1247 1.385 . S
C1247 H1233 0.931 . S
C1247 C1246 1.385 . S
C1247 C1248 1.389 . S
C1248 C1247 1.389 . S
C1248 C1249 1.387 . S
C1249 H1234 0.930 . S
C1249 C1244 1.390 . S
C1249 C1248 1.387 . S
H1250 C1262 0.930 . S
H1251 C1264 0.930 . S
H1252 C1265 0.930 . S
H1253 C1269 0.959 . S
H1254 C1269 0.959 . S
H1255 C1269 0.961 . S
H1256 C1270 0.960 . S
H1257 C1270 0.961 . S
H1258 C1270 0.959 . S
H1259 C1273 0.929 . S
H1260 C1274 0.931 . S
H1261 C1276 0.930 . S
C1262 H1250 0.930 . S
C1262 C1263 1.399 . S
C1262 C1267 1.399 . S
C1263 C1262 1.399 . S
C1263 C1264 1.376 . S
C1264 H1251 0.930 . S
C1264 C1263 1.376 . S
C1264 C1265 1.388 . S
C1265 H1252 0.930 . S
C1265 C1264 1.388 . S
C1265 C1266 1.390 . S
C1266 C1265 1.390 . S
C1266 C1267 1.394 . S
C1266 C1272 1.465 . S
C1267 C1262 1.399 . S
C1267 C1266 1.394 . S
C1267 C1268 1.516 . S
C1268 C1267 1.516 . S
C1268 C1269 1.502 . S
C1268 C1270 1.561 . S
C1268 C1271 1.526 . S
C1269 H1253 0.959 . S
C1269 H1254 0.959 . S
C1269 H1255 0.961 . S
C1269 C1268 1.502 . S
C1270 H1256 0.960 . S
C1270 H1257 0.961 . S
C1270 H1258 0.959 . S
C1270 C1268 1.561 . S
C1271 C1268 1.526 . S
C1271 C1272 1.396 . S
C1271 C1276 1.390 . S
C1272 C1266 1.465 . S
C1272 C1271 1.396 . S
C1272 C1273 1.399 . S
C1273 H1259 0.929 . S
C1273 C1272 1.399 . S
C1273 C1274 1.385 . S
C1274 H1260 0.931 . S
C1274 C1273 1.385 . S
C1274 C1275 1.389 . S
C1275 C1274 1.389 . S
C1275 C1276 1.387 . S
C1276 H1261 0.930 . S
C1276 C1271 1.390 . S
C1276 C1275 1.387 . S
H1277 C1289 0.930 . S
H1278 C1291 0.930 . S
H1279 C1292 0.930 . S
H1280 C1296 0.959 . S
H1281 C1296 0.959 . S
H1282 C1296 0.961 . S
H1283 C1297 0.960 . S
H1284 C1297 0.961 . S
H1285 C1297 0.959 . S
H1286 C1300 0.929 . S
H1287 C1301 0.931 . S
H1288 C1303 0.930 . S
C1289 H1277 0.930 . S
C1289 C1290 1.399 . S
C1289 C1294 1.399 . S
C1290 C1289 1.399 . S
C1290 C1291 1.376 . S
C1291 H1278 0.930 . S
C1291 C1290 1.376 . S
C1291 C1292 1.388 . S
C1292 H1279 0.930 . S
C1292 C1291 1.388 . S
C1292 C1293 1.390 . S
C1293 C1292 1.390 . S
C1293 C1294 1.394 . S
C1293 C1299 1.465 . S
C1294 C1289 1.399 . S
C1294 C1293 1.394 . S
C1294 C1295 1.516 . S
C1295 C1294 1.516 . S
C1295 C1296 1.502 . S
C1295 C1297 1.561 . S
C1295 C1298 1.526 . S
C1296 H1280 0.959 . S
C1296 H1281 0.959 . S
C1296 H1282 0.961 . S
C1296 C1295 1.502 . S
C1297 H1283 0.960 . S
C1297 H1284 0.961 . S
C1297 H1285 0.959 . S
C1297 C1295 1.561 . S
C1298 C1295 1.526 . S
C1298 C1299 1.396 . S
C1298 C1303 1.390 . S
C1299 C1293 1.465 . S
C1299 C1298 1.396 . S
C1299 C1300 1.399 . S
C1300 H1286 0.929 . S
C1300 C1299 1.399 . S
C1300 C1301 1.385 . S
C1301 H1287 0.931 . S
C1301 C1300 1.385 . S
C1301 C1302 1.389 . S
C1302 C1301 1.389 . S
C1302 C1303 1.387 . S
C1303 H1288 0.930 . S
C1303 C1298 1.390 . S
C1303 C1302 1.387 . S
H1304 C1316 0.930 . S
H1305 C1318 0.930 . S
H1306 C1319 0.930 . S
H1307 C1323 0.959 . S
H1308 C1323 0.959 . S
H1309 C1323 0.961 . S
H1310 C1324 0.960 . S
H1311 C1324 0.961 . S
H1312 C1324 0.959 . S
H1313 C1327 0.929 . S
H1314 C1328 0.931 . S
H1315 C1330 0.930 . S
C1316 H1304 0.930 . S
C1316 C1317 1.399 . S
C1316 C1321 1.399 . S
C1317 C1316 1.399 . S
C1317 C1318 1.376 . S
C1318 H1305 0.930 . S
C1318 C1317 1.376 . S
C1318 C1319 1.388 . S
C1319 H1306 0.930 . S
C1319 C1318 1.388 . S
C1319 C1320 1.390 . S
C1320 C1319 1.390 . S
C1320 C1321 1.394 . S
C1320 C1326 1.465 . S
C1321 C1316 1.399 . S
C1321 C1320 1.394 . S
C1321 C1322 1.516 . S
C1322 C1321 1.516 . S
C1322 C1323 1.502 . S
C1322 C1324 1.561 . S
C1322 C1325 1.526 . S
C1323 H1307 0.959 . S
C1323 H1308 0.959 . S
C1323 H1309 0.961 . S
C1323 C1322 1.502 . S
C1324 H1310 0.960 . S
C1324 H1311 0.961 . S
C1324 H1312 0.959 . S
C1324 C1322 1.561 . S
C1325 C1322 1.526 . S
C1325 C1326 1.396 . S
C1325 C1330 1.390 . S
C1326 C1320 1.465 . S
C1326 C1325 1.396 . S
C1326 C1327 1.399 . S
C1327 H1313 0.929 . S
C1327 C1326 1.399 . S
C1327 C1328 1.385 . S
C1328 H1314 0.931 . S
C1328 C1327 1.385 . S
C1328 C1329 1.389 . S
C1329 C1328 1.389 . S
C1329 C1330 1.387 . S
C1330 H1315 0.930 . S
C1330 C1325 1.390 . S
C1330 C1329 1.387 . S
H1331 C1343 0.930 . S
H1332 C1345 0.930 . S
H1333 C1346 0.930 . S
H1334 C1350 0.959 . S
H1335 C1350 0.959 . S
H1336 C1350 0.961 . S
H1337 C1351 0.960 . S
H1338 C1351 0.961 . S
H1339 C1351 0.959 . S
H1340 C1354 0.929 . S
H1341 C1355 0.931 . S
H1342 C1357 0.930 . S
C1343 H1331 0.930 . S
C1343 C1344 1.399 . S
C1343 C1348 1.399 . S
C1344 C1343 1.399 . S
C1344 C1345 1.376 . S
C1345 H1332 0.930 . S
C1345 C1344 1.376 . S
C1345 C1346 1.388 . S
C1346 H1333 0.930 . S
C1346 C1345 1.388 . S
C1346 C1347 1.390 . S
C1347 C1346 1.390 . S
C1347 C1348 1.394 . S
C1347 C1353 1.465 . S
C1348 C1343 1.399 . S
C1348 C1347 1.394 . S
C1348 C1349 1.516 . S
C1349 C1348 1.516 . S
C1349 C1350 1.502 . S
C1349 C1351 1.561 . S
C1349 C1352 1.526 . S
C1350 H1334 0.959 . S
C1350 H1335 0.959 . S
C1350 H1336 0.961 . S
C1350 C1349 1.502 . S
C1351 H1337 0.960 . S
C1351 H1338 0.961 . S
C1351 H1339 0.959 . S
C1351 C1349 1.561 . S
C1352 C1349 1.526 . S
C1352 C1353 1.396 . S
C1352 C1357 1.390 . S
C1353 C1347 1.465 . S
C1353 C1352 1.396 . S
C1353 C1354 1.399 . S
C1354 H1340 0.929 . S
C1354 C1353 1.399 . S
C1354 C1355 1.385 . S
C1355 H1341 0.931 . S
C1355 C1354 1.385 . S
C1355 C1356 1.389 . S
C1356 C1355 1.389 . S
C1356 C1357 1.387 . S
C1357 H1342 0.930 . S
C1357 C1352 1.390 . S
C1357 C1356 1.387 . S
H1358 C1370 0.930 . S
H1359 C1372 0.930 . S
H1360 C1373 0.930 . S
H1361 C1377 0.959 . S
H1362 C1377 0.959 . S
H1363 C1377 0.961 . S
H1364 C1378 0.960 . S
H1365 C1378 0.961 . S
H1366 C1378 0.959 . S
H1367 C1381 0.929 . S
H1368 C1382 0.931 . S
H1369 C1384 0.930 . S
C1370 H1358 0.930 . S
C1370 C1371 1.399 . S
C1370 C1375 1.399 . S
C1371 C1370 1.399 . S
C1371 C1372 1.376 . S
C1372 H1359 0.930 . S
C1372 C1371 1.376 . S
C1372 C1373 1.388 . S
C1373 H1360 0.930 . S
C1373 C1372 1.388 . S
C1373 C1374 1.390 . S
C1374 C1373 1.390 . S
C1374 C1375 1.394 . S
C1374 C1380 1.465 . S
C1375 C1370 1.399 . S
C1375 C1374 1.394 . S
C1375 C1376 1.516 . S
C1376 C1375 1.516 . S
C1376 C1377 1.502 . S
C1376 C1378 1.561 . S
C1376 C1379 1.526 . S
C1377 H1361 0.959 . S
C1377 H1362 0.959 . S
C1377 H1363 0.961 . S
C1377 C1376 1.502 . S
C1378 H1364 0.960 . S
C1378 H1365 0.961 . S
C1378 H1366 0.959 . S
C1378 C1376 1.561 . S
C1379 C1376 1.526 . S
C1379 C1380 1.396 . S
C1379 C1384 1.390 . S
C1380 C1374 1.465 . S
C1380 C1379 1.396 . S
C1380 C1381 1.399 . S
C1381 H1367 0.929 . S
C1381 C1380 1.399 . S
C1381 C1382 1.385 . S
C1382 H1368 0.931 . S
C1382 C1381 1.385 . S
C1382 C1383 1.389 . S
C1383 C1382 1.389 . S
C1383 C1384 1.387 . S
C1384 H1369 0.930 . S
C1384 C1379 1.390 . S
C1384 C1383 1.387 . S
H1385 C1397 0.930 . S
H1386 C1399 0.930 . S
H1387 C1400 0.930 . S
H1388 C1404 0.959 . S
H1389 C1404 0.959 . S
H1390 C1404 0.961 . S
H1391 C1405 0.960 . S
H1392 C1405 0.961 . S
H1393 C1405 0.959 . S
H1394 C1408 0.929 . S
H1395 C1409 0.931 . S
H1396 C1411 0.930 . S
C1397 H1385 0.930 . S
C1397 C1398 1.399 . S
C1397 C1402 1.399 . S
C1398 C1397 1.399 . S
C1398 C1399 1.376 . S
C1399 H1386 0.930 . S
C1399 C1398 1.376 . S
C1399 C1400 1.388 . S
C1400 H1387 0.930 . S
C1400 C1399 1.388 . S
C1400 C1401 1.390 . S
C1401 C1400 1.390 . S
C1401 C1402 1.394 . S
C1401 C1407 1.465 . S
C1402 C1397 1.399 . S
C1402 C1401 1.394 . S
C1402 C1403 1.516 . S
C1403 C1402 1.516 . S
C1403 C1404 1.502 . S
C1403 C1405 1.561 . S
C1403 C1406 1.526 . S
C1404 H1388 0.959 . S
C1404 H1389 0.959 . S
C1404 H1390 0.961 . S
C1404 C1403 1.502 . S
C1405 H1391 0.960 . S
C1405 H1392 0.961 . S
C1405 H1393 0.959 . S
C1405 C1403 1.561 . S
C1406 C1403 1.526 . S
C1406 C1407 1.396 . S
C1406 C1411 1.390 . S
C1407 C1401 1.465 . S
C1407 C1406 1.396 . S
C1407 C1408 1.399 . S
C1408 H1394 0.929 . S
C1408 C1407 1.399 . S
C1408 C1409 1.385 . S
C1409 H1395 0.931 . S
C1409 C1408 1.385 . S
C1409 C1410 1.389 . S
C1410 C1409 1.389 . S
C1410 C1411 1.387 . S
C1411 H1396 0.930 . S
C1411 C1406 1.390 . S
C1411 C1410 1.387 . S
H1412 C1424 0.930 . S
H1413 C1426 0.930 . S
H1414 C1427 0.930 . S
H1415 C1431 0.959 . S
H1416 C1431 0.959 . S
H1417 C1431 0.961 . S
H1418 C1432 0.960 . S
H1419 C1432 0.961 . S
H1420 C1432 0.959 . S
H1421 C1435 0.929 . S
H1422 C1436 0.931 . S
H1423 C1438 0.930 . S
C1424 H1412 0.930 . S
C1424 C1425 1.399 . S
C1424 C1429 1.399 . S
C1425 C1424 1.399 . S
C1425 C1426 1.376 . S
C1426 H1413 0.930 . S
C1426 C1425 1.376 . S
C1426 C1427 1.388 . S
C1427 H1414 0.930 . S
C1427 C1426 1.388 . S
C1427 C1428 1.390 . S
C1428 C1427 1.390 . S
C1428 C1429 1.394 . S
C1428 C1434 1.465 . S
C1429 C1424 1.399 . S
C1429 C1428 1.394 . S
C1429 C1430 1.516 . S
C1430 C1429 1.516 . S
C1430 C1431 1.502 . S
C1430 C1432 1.561 . S
C1430 C1433 1.526 . S
C1431 H1415 0.959 . S
C1431 H1416 0.959 . S
C1431 H1417 0.961 . S
C1431 C1430 1.502 . S
C1432 H1418 0.960 . S
C1432 H1419 0.961 . S
C1432 H1420 0.959 . S
C1432 C1430 1.561 . S
C1433 C1430 1.526 . S
C1433 C1434 1.396 . S
C1433 C1438 1.390 . S
C1434 C1428 1.465 . S
C1434 C1433 1.396 . S
C1434 C1435 1.399 . S
C1435 H1421 0.929 . S
C1435 C1434 1.399 . S
C1435 C1436 1.385 . S
C1436 H1422 0.931 . S
C1436 C1435 1.385 . S
C1436 C1437 1.389 . S
C1437 C1436 1.389 . S
C1437 C1438 1.387 . S
C1438 H1423 0.930 . S
C1438 C1433 1.390 . S
C1438 C1437 1.387 . S
H1439 C1451 0.930 . S
H1440 C1453 0.930 . S
H1441 C1454 0.930 . S
H1442 C1458 0.959 . S
H1443 C1458 0.959 . S
H1444 C1458 0.961 . S
H1445 C1459 0.960 . S
H1446 C1459 0.961 . S
H1447 C1459 0.959 . S
H1448 C1462 0.929 . S
H1449 C1463 0.931 . S
H1450 C1465 0.930 . S
C1451 H1439 0.930 . S
C1451 C1452 1.399 . S
C1451 C1456 1.399 . S
C1452 C1451 1.399 . S
C1452 C1453 1.376 . S
C1453 H1440 0.930 . S
C1453 C1452 1.376 . S
C1453 C1454 1.388 . S
C1454 H1441 0.930 . S
C1454 C1453 1.388 . S
C1454 C1455 1.390 . S
C1455 C1454 1.390 . S
C1455 C1456 1.394 . S
C1455 C1461 1.465 . S
C1456 C1451 1.399 . S
C1456 C1455 1.394 . S
C1456 C1457 1.516 . S
C1457 C1456 1.516 . S
C1457 C1458 1.502 . S
C1457 C1459 1.561 . S
C1457 C1460 1.526 . S
C1458 H1442 0.959 . S
C1458 H1443 0.959 . S
C1458 H1444 0.961 . S
C1458 C1457 1.502 . S
C1459 H1445 0.960 . S
C1459 H1446 0.961 . S
C1459 H1447 0.959 . S
C1459 C1457 1.561 . S
C1460 C1457 1.526 . S
C1460 C1461 1.396 . S
C1460 C1465 1.390 . S
C1461 C1455 1.465 . S
C1461 C1460 1.396 . S
C1461 C1462 1.399 . S
C1462 H1448 0.929 . S
C1462 C1461 1.399 . S
C1462 C1463 1.385 . S
C1463 H1449 0.931 . S
C1463 C1462 1.385 . S
C1463 C1464 1.389 . S
C1464 C1463 1.389 . S
C1464 C1465 1.387 . S
C1465 H1450 0.930 . S
C1465 C1460 1.390 . S
C1465 C1464 1.387 . S
H1466 C1478 0.930 . S
H1467 C1480 0.930 . S
H1468 C1481 0.930 . S
H1469 C1485 0.959 . S
H1470 C1485 0.959 . S
H1471 C1485 0.961 . S
H1472 C1486 0.960 . S
H1473 C1486 0.961 . S
H1474 C1486 0.959 . S
H1475 C1489 0.929 . S
H1476 C1490 0.931 . S
H1477 C1492 0.930 . S
C1478 H1466 0.930 . S
C1478 C1479 1.399 . S
C1478 C1483 1.399 . S
C1479 C1478 1.399 . S
C1479 C1480 1.376 . S
C1480 H1467 0.930 . S
C1480 C1479 1.376 . S
C1480 C1481 1.388 . S
C1481 H1468 0.930 . S
C1481 C1480 1.388 . S
C1481 C1482 1.390 . S
C1482 C1481 1.390 . S
C1482 C1483 1.394 . S
C1482 C1488 1.465 . S
C1483 C1478 1.399 . S
C1483 C1482 1.394 . S
C1483 C1484 1.516 . S
C1484 C1483 1.516 . S
C1484 C1485 1.502 . S
C1484 C1486 1.561 . S
C1484 C1487 1.526 . S
C1485 H1469 0.959 . S
C1485 H1470 0.959 . S
C1485 H1471 0.961 . S
C1485 C1484 1.502 . S
C1486 H1472 0.960 . S
C1486 H1473 0.961 . S
C1486 H1474 0.959 . S
C1486 C1484 1.561 . S
C1487 C1484 1.526 . S
C1487 C1488 1.396 . S
C1487 C1492 1.390 . S
C1488 C1482 1.465 . S
C1488 C1487 1.396 . S
C1488 C1489 1.399 . S
C1489 H1475 0.929 . S
C1489 C1488 1.399 . S
C1489 C1490 1.385 . S
C1490 H1476 0.931 . S
C1490 C1489 1.385 . S
C1490 C1491 1.389 . S
C1491 C1490 1.389 . S
C1491 C1492 1.387 . S
C1492 H1477 0.930 . S
C1492 C1487 1.390 . S
C1492 C1491 1.387 . S
H1493 C1505 0.930 . S
H1494 C1507 0.930 . S
H1495 C1508 0.930 . S
H1496 C1512 0.959 . S
H1497 C1512 0.959 . S
H1498 C1512 0.961 . S
H1499 C1513 0.960 . S
H1500 C1513 0.961 . S
H1501 C1513 0.959 . S
H1502 C1516 0.929 . S
H1503 C1517 0.931 . S
H1504 C1519 0.930 . S
C1505 H1493 0.930 . S
C1505 C1506 1.399 . S
C1505 C1510 1.399 . S
C1506 C1505 1.399 . S
C1506 C1507 1.376 . S
C1507 H1494 0.930 . S
C1507 C1506 1.376 . S
C1507 C1508 1.388 . S
C1508 H1495 0.930 . S
C1508 C1507 1.388 . S
C1508 C1509 1.390 . S
C1509 C1508 1.390 . S
C1509 C1510 1.394 . S
C1509 C1515 1.465 . S
C1510 C1505 1.399 . S
C1510 C1509 1.394 . S
C1510 C1511 1.516 . S
C1511 C1510 1.516 . S
C1511 C1512 1.502 . S
C1511 C1513 1.561 . S
C1511 C1514 1.526 . S
C1512 H1496 0.959 . S
C1512 H1497 0.959 . S
C1512 H1498 0.961 . S
C1512 C1511 1.502 . S
C1513 H1499 0.960 . S
C1513 H1500 0.961 . S
C1513 H1501 0.959 . S
C1513 C1511 1.561 . S
C1514 C1511 1.526 . S
C1514 C1515 1.396 . S
C1514 C1519 1.390 . S
C1515 C1509 1.465 . S
C1515 C1514 1.396 . S
C1515 C1516 1.399 . S
C1516 H1502 0.929 . S
C1516 C1515 1.399 . S
C1516 C1517 1.385 . S
C1517 H1503 0.931 . S
C1517 C1516 1.385 . S
C1517 C1518 1.389 . S
C1518 C1517 1.389 . S
C1518 C1519 1.387 . S
C1519 H1504 0.930 . S
C1519 C1514 1.390 . S
C1519 C1518 1.387 . S
H1520 C1532 0.930 . S
H1521 C1534 0.930 . S
H1522 C1535 0.930 . S
H1523 C1539 0.959 . S
H1524 C1539 0.959 . S
H1525 C1539 0.980 . S
H1526 C1540 0.960 . S
H1527 C1540 0.961 1_455 S
H1528 C1540 0.959 . S
H1529 C1543 0.929 . S
H1530 C1544 0.931 . S
H1531 C1546 0.930 . S
C1532 H1520 0.930 . S
C1532 C1533 1.399 . S
C1532 C1537 1.399 . S
C1533 C1532 1.399 . S
C1533 C1534 1.376 . S
C1534 H1521 0.930 . S
C1534 C1533 1.376 . S
C1534 C1535 1.388 . S
C1535 H1522 0.930 . S
C1535 C1534 1.388 . S
C1535 C1536 1.390 . S
C1536 C1535 1.390 . S
C1536 C1537 1.394 . S
C1536 C1542 1.465 1_655 S
C1537 C1532 1.399 . S
C1537 C1536 1.394 . S
C1537 C1538 1.516 1_655 S
C1538 C1537 1.516 1_455 S
C1538 C1539 1.502 . S
C1538 C1540 1.561 1_455 S
C1538 C1541 1.526 . S
C1539 H1523 0.959 . S
C1539 H1524 0.959 . S
C1539 H1525 0.980 . S
C1539 C1538 1.502 . S
C1540 H1526 0.960 . S
C1540 H1527 0.961 1_655 S
C1540 H1528 0.959 . S
C1540 C1538 1.561 1_655 S
C1541 C1538 1.526 . S
C1541 C1542 1.396 . S
C1541 C1546 1.390 . S
C1542 C1536 1.465 1_455 S
C1542 C1541 1.396 . S
C1542 C1543 1.399 . S
C1543 H1529 0.929 . S
C1543 C1542 1.399 . S
C1543 C1544 1.385 . S
C1544 H1530 0.931 . S
C1544 C1543 1.385 . S
C1544 C1545 1.389 . S
C1545 C1544 1.389 . S
C1545 C1546 1.387 . S
C1546 H1531 0.930 . S
C1546 C1541 1.390 . S
C1546 C1545 1.387 . S
H1547 C1559 0.930 . S
H1548 C1561 0.930 . S
H1549 C1562 0.930 . S
H1550 C1566 0.959 . S
H1551 C1566 0.959 . S
H1552 C1566 0.961 . S
H1553 C1567 0.960 . S
H1554 C1567 0.961 . S
H1555 C1567 0.959 . S
H1556 C1570 0.929 . S
H1557 C1571 0.931 . S
H1558 C1573 0.930 . S
C1559 H1547 0.930 . S
C1559 C1560 1.399 . S
C1559 C1564 1.399 . S
C1560 C1559 1.399 . S
C1560 C1561 1.376 . S
C1561 H1548 0.930 . S
C1561 C1560 1.376 . S
C1561 C1562 1.388 1_655 S
C1562 H1549 0.930 . S
C1562 C1561 1.388 1_455 S
C1562 C1563 1.390 . S
C1563 C1562 1.390 . S
C1563 C1564 1.394 1_455 S
C1563 C1569 1.465 . S
C1564 C1559 1.399 . S
C1564 C1563 1.394 1_655 S
C1564 C1565 1.516 . S
C1565 C1564 1.516 . S
C1565 C1566 1.502 . S
C1565 C1567 1.561 1_655 S
C1565 C1568 1.526 1_655 S
C1566 H1550 0.959 . S
C1566 H1551 0.959 . S
C1566 H1552 0.961 . S
C1566 C1565 1.502 . S
C1567 H1553 0.960 . S
C1567 H1554 0.961 . S
C1567 H1555 0.959 . S
C1567 C1565 1.561 1_455 S
C1568 C1565 1.526 1_455 S
C1568 C1569 1.396 . S
C1568 C1573 1.390 . S
C1569 C1563 1.465 . S
C1569 C1568 1.396 . S
C1569 C1570 1.399 . S
C1570 H1556 0.929 . S
C1570 C1569 1.399 . S
C1570 C1571 1.385 . S
C1571 H1557 0.931 . S
C1571 C1570 1.385 . S
C1571 C1572 1.389 . S
C1572 C1571 1.389 . S
C1572 C1573 1.387 . S
C1573 H1558 0.930 . S
C1573 C1568 1.390 . S
C1573 C1572 1.387 . S
H1574 C1586 0.930 . S
H1575 C1588 0.930 . S
H1576 C1589 0.930 . S
H1577 C1593 0.959 . S
H1578 C1593 0.959 . S
H1579 C1593 0.961 . S
H1580 C1594 0.960 . S
H1581 C1594 0.961 . S
H1582 C1594 0.959 . S
H1583 C1597 0.929 . S
H1584 C1598 0.931 . S
H1585 C1600 0.930 . S
C1586 H1574 0.930 . S
C1586 C1587 1.399 . S
C1586 C1591 1.399 . S
C1587 C1586 1.399 . S
C1587 C1588 1.376 . S
C1588 H1575 0.930 . S
C1588 C1587 1.376 . S
C1588 C1589 1.388 . S
C1589 H1576 0.930 . S
C1589 C1588 1.388 . S
C1589 C1590 1.390 . S
C1590 C1589 1.390 . S
C1590 C1591 1.394 . S
C1590 C1596 1.465 . S
C1591 C1586 1.399 . S
C1591 C1590 1.394 . S
C1591 C1592 1.516 . S
C1592 C1591 1.516 . S
C1592 C1593 1.502 . S
C1592 C1594 1.561 . S
C1592 C1595 1.526 . S
C1593 H1577 0.959 . S
C1593 H1578 0.959 . S
C1593 H1579 0.961 . S
C1593 C1592 1.502 . S
C1594 H1580 0.960 . S
C1594 H1581 0.961 . S
C1594 H1582 0.959 . S
C1594 C1592 1.561 . S
C1595 C1592 1.526 . S
C1595 C1596 1.396 . S
C1595 C1600 1.390 . S
C1596 C1590 1.465 . S
C1596 C1595 1.396 . S
C1596 C1597 1.399 . S
C1597 H1583 0.929 . S
C1597 C1596 1.399 . S
C1597 C1598 1.385 . S
C1598 H1584 0.931 . S
C1598 C1597 1.385 . S
C1598 C1599 1.389 . S
C1599 C1598 1.389 . S
C1599 C1600 1.387 . S
C1600 H1585 0.930 . S
C1600 C1595 1.390 . S
C1600 C1599 1.387 . S
H1601 C1613 0.930 . S
H1602 C1615 0.930 1_556 S
H1603 C1616 0.930 1_556 S
H1604 C1620 0.959 . S
H1605 C1620 0.959 . S
H1606 C1620 0.961 . S
H1607 C1621 0.960 . S
H1608 C1621 0.961 . S
H1609 C1621 0.959 . S
H1610 C1624 0.929 1_556 S
H1611 C1625 0.931 1_556 S
H1612 C1627 0.930 . S
C1613 H1601 0.930 . S
C1613 C1614 1.399 . S
C1613 C1618 1.399 . S
C1614 C1613 1.399 . S
C1614 C1615 1.376 . S
C1615 H1602 0.930 1_554 S
C1615 C1614 1.376 . S
C1615 C1616 1.388 . S
C1616 H1603 0.930 1_554 S
C1616 C1615 1.388 . S
C1616 C1617 1.390 . S
C1617 C1616 1.390 . S
C1617 C1618 1.394 . S
C1617 C1623 1.465 . S
C1618 C1613 1.399 . S
C1618 C1617 1.394 . S
C1618 C1619 1.516 . S
C1619 C1618 1.516 . S
C1619 C1620 1.502 . S
C1619 C1621 1.561 . S
C1619 C1622 1.526 . S
C1620 H1604 0.959 . S
C1620 H1605 0.959 . S
C1620 H1606 0.961 . S
C1620 C1619 1.502 . S
C1621 H1607 0.960 . S
C1621 H1608 0.961 . S
C1621 H1609 0.959 . S
C1621 C1619 1.561 . S
C1622 C1619 1.526 . S
C1622 C1623 1.396 . S
C1622 C1627 1.390 . S
C1623 C1617 1.465 . S
C1623 C1622 1.396 . S
C1623 C1624 1.399 . S
C1624 H1610 0.929 1_554 S
C1624 C1623 1.399 . S
C1624 C1625 1.385 . S
C1625 H1611 0.931 1_554 S
C1625 C1624 1.385 . S
C1625 C1626 1.389 . S
C1626 C1625 1.389 . S
C1626 C1627 1.387 . S
C1627 H1612 0.930 . S
C1627 C1622 1.390 . S
C1627 C1626 1.387 . S
H1628 C1640 0.930 . S
H1629 C1642 0.930 . S
H1630 C1643 0.930 . S
H1631 C1647 0.959 . S
H1632 C1647 0.959 . S
H1633 C1647 0.961 1_655 S
H1634 C1648 0.960 . S
H1635 C1648 0.941 1_455 S
H1636 C1648 0.959 . S
H1637 C1651 0.929 . S
H1638 C1652 0.931 . S
H1639 C1654 0.930 . S
C1640 H1628 0.930 . S
C1640 C1641 1.399 . S
C1640 C1645 1.399 . S
C1641 C1640 1.399 . S
C1641 C1642 1.376 . S
C1642 H1629 0.930 . S
C1642 C1641 1.376 . S
C1642 C1643 1.388 . S
C1643 H1630 0.930 . S
C1643 C1642 1.388 . S
C1643 C1644 1.390 . S
C1644 C1643 1.390 . S
C1644 C1645 1.394 . S
C1644 C1650 1.465 1_655 S
C1645 C1640 1.399 . S
C1645 C1644 1.394 . S
C1645 C1646 1.516 . S
C1646 C1645 1.516 . S
C1646 C1647 1.502 1_655 S
C1646 C1648 1.561 . S
C1646 C1649 1.526 1_655 S
C1647 H1631 0.959 . S
C1647 H1632 0.959 . S
C1647 H1633 0.961 1_455 S
C1647 C1646 1.502 1_455 S
C1648 H1634 0.960 . S
C1648 H1635 0.941 1_655 S
C1648 H1636 0.959 . S
C1648 C1646 1.561 . S
C1649 C1646 1.526 1_455 S
C1649 C1650 1.396 . S
C1649 C1654 1.390 . S
C1650 C1644 1.465 1_455 S
C1650 C1649 1.396 . S
C1650 C1651 1.399 . S
C1651 H1637 0.929 . S
C1651 C1650 1.399 . S
C1651 C1652 1.385 . S
C1652 H1638 0.931 . S
C1652 C1651 1.385 . S
C1652 C1653 1.389 . S
C1653 C1652 1.389 . S
C1653 C1654 1.387 . S
C1654 H1639 0.930 . S
C1654 C1649 1.390 . S
C1654 C1653 1.387 . S
H1655 C1667 0.930 . S
H1656 C1669 0.930 . S
H1657 C1670 0.930 . S
H1658 C1674 0.959 . S
H1659 C1674 0.959 . S
H1660 C1674 0.961 . S
H1661 C1675 0.960 . S
H1662 C1675 0.961 . S
H1663 C1675 0.959 . S
H1664 C1678 0.929 . S
H1665 C1679 0.931 . S
H1666 C1681 0.930 . S
C1667 H1655 0.930 . S
C1667 C1668 1.399 . S
C1667 C1672 1.399 . S
C1668 C1667 1.399 . S
C1668 C1669 1.376 . S
C1669 H1656 0.930 . S
C1669 C1668 1.376 . S
C1669 C1670 1.388 . S
C1670 H1657 0.930 . S
C1670 C1669 1.388 . S
C1670 C1671 1.390 . S
C1671 C1670 1.390 . S
C1671 C1672 1.394 . S
C1671 C1677 1.465 . S
C1672 C1667 1.399 . S
C1672 C1671 1.394 . S
C1672 C1673 1.516 . S
C1673 C1672 1.516 . S
C1673 C1674 1.502 . S
C1673 C1675 1.561 . S
C1673 C1676 1.526 . S
C1674 H1658 0.959 . S
C1674 H1659 0.959 . S
C1674 H1660 0.961 . S
C1674 C1673 1.502 . S
C1675 H1661 0.960 . S
C1675 H1662 0.961 . S
C1675 H1663 0.959 . S
C1675 C1673 1.561 . S
C1676 C1673 1.526 . S
C1676 C1677 1.396 . S
C1676 C1681 1.390 . S
C1677 C1671 1.465 . S
C1677 C1676 1.396 . S
C1677 C1678 1.399 . S
C1678 H1664 0.929 . S
C1678 C1677 1.399 . S
C1678 C1679 1.385 . S
C1679 H1665 0.931 . S
C1679 C1678 1.385 . S
C1679 C1680 1.389 . S
C1680 C1679 1.389 . S
C1680 C1681 1.387 . S
C1681 H1666 0.930 . S
C1681 C1676 1.390 . S
C1681 C1680 1.387 . S
H1682 C1694 0.930 . S
H1683 C1696 0.930 . S
H1684 C1697 0.930 . S
H1685 C1701 0.959 . S
H1686 C1701 0.959 . S
H1687 C1701 0.961 . S
H1688 C1702 0.960 . S
H1689 C1702 0.961 . S
H1690 C1702 0.959 . S
H1691 C1705 0.929 . S
H1692 C1706 0.931 . S
H1693 C1708 0.930 . S
C1694 H1682 0.930 . S
C1694 C1695 1.399 . S
C1694 C1699 1.399 . S
C1695 C1694 1.399 . S
C1695 C1696 1.376 . S
C1696 H1683 0.930 . S
C1696 C1695 1.376 . S
C1696 C1697 1.388 . S
C1697 H1684 0.930 . S
C1697 C1696 1.388 . S
C1697 C1698 1.390 . S
C1698 C1697 1.390 . S
C1698 C1699 1.394 . S
C1698 C1704 1.465 . S
C1699 C1694 1.399 . S
C1699 C1698 1.394 . S
C1699 C1700 1.516 . S
C1700 C1699 1.516 . S
C1700 C1701 1.502 . S
C1700 C1702 1.561 . S
C1700 C1703 1.526 . S
C1701 H1685 0.959 . S
C1701 H1686 0.959 . S
C1701 H1687 0.961 . S
C1701 C1700 1.502 . S
C1702 H1688 0.960 . S
C1702 H1689 0.961 . S
C1702 H1690 0.959 . S
C1702 C1700 1.561 . S
C1703 C1700 1.526 . S
C1703 C1704 1.396 . S
C1703 C1708 1.390 . S
C1704 C1698 1.465 . S
C1704 C1703 1.396 . S
C1704 C1705 1.399 . S
C1705 H1691 0.929 . S
C1705 C1704 1.399 . S
C1705 C1706 1.385 . S
C1706 H1692 0.931 . S
C1706 C1705 1.385 . S
C1706 C1707 1.389 . S
C1707 C1706 1.389 . S
C1707 C1708 1.387 . S
C1708 H1693 0.930 . S
C1708 C1703 1.390 . S
C1708 C1707 1.387 . S
H1709 C1721 0.930 . S
H1710 C1723 0.930 1_554 S
H1711 C1724 0.950 1_655 S
H1712 C1728 0.959 . S
H1713 C1728 0.959 . S
H1714 C1728 0.961 . S
H1715 C1729 0.960 . S
H1716 C1729 0.961 . S
H1717 C1729 0.959 . S
H1718 C1732 0.977 . S
H1719 C1733 0.931 1_554 S
H1720 C1735 0.930 . S
C1721 H1709 0.930 . S
C1721 C1722 1.399 . S
C1721 C1726 1.399 . S
C1722 C1721 1.399 . S
C1722 C1723 1.376 . S
C1723 H1710 0.930 1_556 S
C1723 C1722 1.376 . S
C1723 C1724 1.384 1_556 S
C1724 H1711 0.950 1_455 S
C1724 C1723 1.384 1_554 S
C1724 C1725 1.374 1_554 S
C1725 C1724 1.374 1_556 S
C1725 C1726 1.394 . S
C1725 C1731 1.465 1_455 S
C1726 C1721 1.399 . S
C1726 C1725 1.394 . S
C1726 C1727 1.516 . S
C1727 C1726 1.516 . S
C1727 C1728 1.502 . S
C1727 C1729 1.561 1_455 S
C1727 C1730 1.526 1_455 S
C1728 H1712 0.959 . S
C1728 H1713 0.959 . S
C1728 H1714 0.961 . S
C1728 C1727 1.502 . S
C1729 H1715 0.960 . S
C1729 H1716 0.961 . S
C1729 H1717 0.959 . S
C1729 C1727 1.561 1_655 S
C1730 C1727 1.526 1_655 S
C1730 C1731 1.396 . S
C1730 C1735 1.390 . S
C1731 C1725 1.465 1_655 S
C1731 C1730 1.396 . S
C1731 C1732 1.360 1_556 S
C1732 H1718 0.977 . S
C1732 C1731 1.360 1_554 S
C1732 C1733 1.376 1_554 S
C1733 H1719 0.931 1_556 S
C1733 C1732 1.376 1_556 S
C1733 C1734 1.389 . S
C1734 C1733 1.389 . S
C1734 C1735 1.387 . S
C1735 H1720 0.930 . S
C1735 C1730 1.390 . S
C1735 C1734 1.387 . S
H1736 C1748 0.930 . S
H1737 C1750 0.930 . S
H1738 C1751 0.930 . S
H1739 C1755 0.959 . S
H1740 C1755 0.967 . S
H1741 C1755 0.961 . S
H1742 C1756 0.960 1_655 S
H1743 C1756 0.961 . S
H1744 C1756 0.959 . S
H1745 C1759 0.929 . S
H1746 C1760 0.931 . S
H1747 C1762 0.930 . S
C1748 H1736 0.930 . S
C1748 C1749 1.399 . S
C1748 C1753 1.399 . S
C1749 C1748 1.399 . S
C1749 C1750 1.376 . S
C1750 H1737 0.930 . S
C1750 C1749 1.376 . S
C1750 C1751 1.388 . S
C1751 H1738 0.930 . S
C1751 C1750 1.388 . S
C1751 C1752 1.390 . S
C1752 C1751 1.390 . S
C1752 C1753 1.394 . S
C1752 C1758 1.465 1_655 S
C1753 C1748 1.399 . S
C1753 C1752 1.394 . S
C1753 C1754 1.516 . S
C1754 C1753 1.516 . S
C1754 C1755 1.502 . S
C1754 C1756 1.561 1_655 S
C1754 C1757 1.526 1_655 S
C1755 H1739 0.959 . S
C1755 H1740 0.967 . S
C1755 H1741 0.961 . S
C1755 C1754 1.502 . S
C1756 H1742 0.960 1_455 S
C1756 H1743 0.961 . S
C1756 H1744 0.959 . S
C1756 C1754 1.561 1_455 S
C1757 C1754 1.526 1_455 S
C1757 C1758 1.396 . S
C1757 C1762 1.390 . S
C1758 C1752 1.465 1_455 S
C1758 C1757 1.396 . S
C1758 C1759 1.399 . S
C1759 H1745 0.929 . S
C1759 C1758 1.399 . S
C1759 C1760 1.385 . S
C1760 H1746 0.931 . S
C1760 C1759 1.385 . S
C1760 C1761 1.389 . S
C1761 C1760 1.389 . S
C1761 C1762 1.387 . S
C1762 H1747 0.930 . S
C1762 C1757 1.390 . S
C1762 C1761 1.387 . S
H1763 C1775 0.930 . S
H1764 C1777 0.930 . S
H1765 C1778 0.939 . S
H1766 C1782 0.959 . S
H1767 C1782 0.959 . S
H1768 C1782 0.961 . S
H1769 C1783 0.960 . S
H1770 C1783 0.961 . S
H1771 C1783 0.959 . S
H1772 C1786 0.929 . S
H1773 C1787 0.931 . S
H1774 C1789 0.930 . S
C1775 H1763 0.930 . S
C1775 C1776 1.399 . S
C1775 C1780 1.399 . S
C1776 C1775 1.399 . S
C1776 C1777 1.376 . S
C1777 H1764 0.930 . S
C1777 C1776 1.376 . S
C1777 C1778 1.379 1_455 S
C1778 H1765 0.939 . S
C1778 C1777 1.379 1_655 S
C1778 C1779 1.390 . S
C1779 C1778 1.390 . S
C1779 C1780 1.374 1_655 S
C1779 C1785 1.483 . S
C1780 C1775 1.399 . S
C1780 C1779 1.374 1_455 S
C1780 C1781 1.516 . S
C1781 C1780 1.516 . S
C1781 C1782 1.502 . S
C1781 C1783 1.561 1_455 S
C1781 C1784 1.526 1_455 S
C1782 H1766 0.959 . S
C1782 H1767 0.959 . S
C1782 H1768 0.961 . S
C1782 C1781 1.502 . S
C1783 H1769 0.960 . S
C1783 H1770 0.961 . S
C1783 H1771 0.959 . S
C1783 C1781 1.561 1_655 S
C1784 C1781 1.526 1_655 S
C1784 C1785 1.396 . S
C1784 C1789 1.390 . S
C1785 C1779 1.483 . S
C1785 C1784 1.396 . S
C1785 C1786 1.399 . S
C1786 H1772 0.929 . S
C1786 C1785 1.399 . S
C1786 C1787 1.385 . S
C1787 H1773 0.931 . S
C1787 C1786 1.385 . S
C1787 C1788 1.389 . S
C1788 C1787 1.389 . S
C1788 C1789 1.387 . S
C1789 H1774 0.930 . S
C1789 C1784 1.390 . S
C1789 C1788 1.387 . S
H1790 C1802 0.930 . S
H1791 C1804 0.930 . S
H1792 C1805 0.930 . S
H1793 C1809 0.959 . S
H1794 C1809 0.959 . S
H1795 C1809 0.961 . S
H1796 C1810 0.960 . S
H1797 C1810 0.961 . S
H1798 C1810 0.959 . S
H1799 C1813 0.929 . S
H1800 C1814 0.931 . S
H1801 C1816 0.930 . S
C1802 H1790 0.930 . S
C1802 C1803 1.399 . S
C1802 C1807 1.399 . S
C1803 C1802 1.399 . S
C1803 C1804 1.376 . S
C1804 H1791 0.930 . S
C1804 C1803 1.376 . S
C1804 C1805 1.388 . S
C1805 H1792 0.930 . S
C1805 C1804 1.388 . S
C1805 C1806 1.390 . S
C1806 C1805 1.390 . S
C1806 C1807 1.394 . S
C1806 C1812 1.465 . S
C1807 C1802 1.399 . S
C1807 C1806 1.394 . S
C1807 C1808 1.516 . S
C1808 C1807 1.516 . S
C1808 C1809 1.502 . S
C1808 C1810 1.561 . S
C1808 C1811 1.526 . S
C1809 H1793 0.959 . S
C1809 H1794 0.959 . S
C1809 H1795 0.961 . S
C1809 C1808 1.502 . S
C1810 H1796 0.960 . S
C1810 H1797 0.961 . S
C1810 H1798 0.959 . S
C1810 C1808 1.561 . S
C1811 C1808 1.526 . S
C1811 C1812 1.396 . S
C1811 C1816 1.390 . S
C1812 C1806 1.465 . S
C1812 C1811 1.396 . S
C1812 C1813 1.399 . S
C1813 H1799 0.929 . S
C1813 C1812 1.399 . S
C1813 C1814 1.385 . S
C1814 H1800 0.931 . S
C1814 C1813 1.385 . S
C1814 C1815 1.389 . S
C1815 C1814 1.389 . S
C1815 C1816 1.387 . S
C1816 H1801 0.930 . S
C1816 C1811 1.390 . S
C1816 C1815 1.387 . S
H1817 C1829 0.930 . S
H1818 C1831 0.930 1_554 S
H1819 C1832 0.910 1_554 S
H1820 C1836 0.959 . S
H1821 C1836 0.959 . S
H1822 C1836 0.961 . S
H1823 C1837 0.960 . S
H1824 C1837 0.961 . S
H1825 C1837 0.959 . S
H1826 C1840 0.928 . S
H1827 C1841 0.931 1_554 S
H1828 C1843 0.930 . S
C1829 H1817 0.930 . S
C1829 C1830 1.399 . S
C1829 C1834 1.399 . S
C1830 C1829 1.399 . S
C1830 C1831 1.376 . S
C1831 H1818 0.930 1_556 S
C1831 C1830 1.376 . S
C1831 C1832 1.393 . S
C1832 H1819 0.910 1_556 S
C1832 C1831 1.393 . S
C1832 C1833 1.406 . S
C1833 C1832 1.406 . S
C1833 C1834 1.394 . S
C1833 C1839 1.465 . S
C1834 C1829 1.399 . S
C1834 C1833 1.394 . S
C1834 C1835 1.516 . S
C1835 C1834 1.516 . S
C1835 C1836 1.502 . S
C1835 C1837 1.561 . S
C1835 C1838 1.526 . S
C1836 H1820 0.959 . S
C1836 H1821 0.959 . S
C1836 H1822 0.961 . S
C1836 C1835 1.502 . S
C1837 H1823 0.960 . S
C1837 H1824 0.961 . S
C1837 H1825 0.959 . S
C1837 C1835 1.561 . S
C1838 C1835 1.526 . S
C1838 C1839 1.396 . S
C1838 C1843 1.390 . S
C1839 C1833 1.465 . S
C1839 C1838 1.396 . S
C1839 C1840 1.399 1_556 S
C1840 H1826 0.928 . S
C1840 C1839 1.399 1_554 S
C1840 C1841 1.385 1_554 S
C1841 H1827 0.931 1_556 S
C1841 C1840 1.385 1_556 S
C1841 C1842 1.389 . S
C1842 C1841 1.389 . S
C1842 C1843 1.387 . S
C1843 H1828 0.930 . S
C1843 C1838 1.390 . S
C1843 C1842 1.387 . S
H1844 C1856 0.930 . S
H1845 C1858 0.930 . S
H1846 C1859 0.930 . S
H1847 C1863 0.959 1_455 S
H1848 C1863 0.959 1_455 S
H1849 C1863 0.961 . S
H1850 C1864 0.960 . S
H1851 C1864 0.961 . S
H1852 C1864 0.959 . S
H1853 C1867 0.929 . S
H1854 C1868 0.931 . S
H1855 C1870 0.930 . S
C1856 H1844 0.930 . S
C1856 C1857 1.399 . S
C1856 C1861 1.399 . S
C1857 C1856 1.399 . S
C1857 C1858 1.376 . S
C1858 H1845 0.930 . S
C1858 C1857 1.376 . S
C1858 C1859 1.388 . S
C1859 H1846 0.930 . S
C1859 C1858 1.388 . S
C1859 C1860 1.390 . S
C1860 C1859 1.390 . S
C1860 C1861 1.394 . S
C1860 C1866 1.465 1_655 S
C1861 C1856 1.399 . S
C1861 C1860 1.394 . S
C1861 C1862 1.516 . S
C1862 C1861 1.516 . S
C1862 C1863 1.502 . S
C1862 C1864 1.561 . S
C1862 C1865 1.526 1_655 S
C1863 H1847 0.959 1_655 S
C1863 H1848 0.959 1_655 S
C1863 H1849 0.961 . S
C1863 C1862 1.502 . S
C1864 H1850 0.960 . S
C1864 H1851 0.961 . S
C1864 H1852 0.959 . S
C1864 C1862 1.561 . S
C1865 C1862 1.526 1_455 S
C1865 C1866 1.396 . S
C1865 C1870 1.390 . S
C1866 C1860 1.465 1_455 S
C1866 C1865 1.396 . S
C1866 C1867 1.399 . S
C1867 H1853 0.929 . S
C1867 C1866 1.399 . S
C1867 C1868 1.385 . S
C1868 H1854 0.931 . S
C1868 C1867 1.385 . S
C1868 C1869 1.389 . S
C1869 C1868 1.389 . S
C1869 C1870 1.387 . S
C1870 H1855 0.930 . S
C1870 C1865 1.390 . S
C1870 C1869 1.387 . S
H1871 C1883 0.930 . S
H1872 C1885 0.930 . S
H1873 C1886 0.930 . S
H1874 C1890 0.959 . S
H1875 C1890 0.959 . S
H1876 C1890 0.961 . S
H1877 C1891 0.960 . S
H1878 C1891 0.961 . S
H1879 C1891 0.959 . S
H1880 C1894 0.929 . S
H1881 C1895 0.931 . S
H1882 C1897 0.930 . S
C1883 H1871 0.930 . S
C1883 C1884 1.399 . S
C1883 C1888 1.399 . S
C1884 C1883 1.399 . S
C1884 C1885 1.376 . S
C1885 H1872 0.930 . S
C1885 C1884 1.376 . S
C1885 C1886 1.388 . S
C1886 H1873 0.930 . S
C1886 C1885 1.388 . S
C1886 C1887 1.390 . S
C1887 C1886 1.390 . S
C1887 C1888 1.394 . S
C1887 C1893 1.465 . S
C1888 C1883 1.399 . S
C1888 C1887 1.394 . S
C1888 C1889 1.516 . S
C1889 C1888 1.516 . S
C1889 C1890 1.502 . S
C1889 C1891 1.561 . S
C1889 C1892 1.526 . S
C1890 H1874 0.959 . S
C1890 H1875 0.959 . S
C1890 H1876 0.961 . S
C1890 C1889 1.502 . S
C1891 H1877 0.960 . S
C1891 H1878 0.961 . S
C1891 H1879 0.959 . S
C1891 C1889 1.561 . S
C1892 C1889 1.526 . S
C1892 C1893 1.396 . S
C1892 C1897 1.390 . S
C1893 C1887 1.465 . S
C1893 C1892 1.396 . S
C1893 C1894 1.399 . S
C1894 H1880 0.929 . S
C1894 C1893 1.399 . S
C1894 C1895 1.385 . S
C1895 H1881 0.931 . S
C1895 C1894 1.385 . S
C1895 C1896 1.389 . S
C1896 C1895 1.389 . S
C1896 C1897 1.387 . S
C1897 H1882 0.930 . S
C1897 C1892 1.390 . S
C1897 C1896 1.387 . S
H1898 C1910 0.930 . S
H1899 C1912 0.930 . S
H1900 C1913 0.930 . S
H1901 C1917 0.959 . S
H1902 C1917 0.959 . S
H1903 C1917 0.961 . S
H1904 C1918 0.960 . S
H1905 C1918 0.961 . S
H1906 C1918 0.959 . S
H1907 C1921 0.929 . S
H1908 C1922 0.931 . S
H1909 C1924 0.930 . S
C1910 H1898 0.930 . S
C1910 C1911 1.399 . S
C1910 C1915 1.399 . S
C1911 C1910 1.399 . S
C1911 C1912 1.376 . S
C1912 H1899 0.930 . S
C1912 C1911 1.376 . S
C1912 C1913 1.388 . S
C1913 H1900 0.930 . S
C1913 C1912 1.388 . S
C1913 C1914 1.390 . S
C1914 C1913 1.390 . S
C1914 C1915 1.394 . S
C1914 C1920 1.465 . S
C1915 C1910 1.399 . S
C1915 C1914 1.394 . S
C1915 C1916 1.516 . S
C1916 C1915 1.516 . S
C1916 C1917 1.502 . S
C1916 C1918 1.561 . S
C1916 C1919 1.526 . S
C1917 H1901 0.959 . S
C1917 H1902 0.959 . S
C1917 H1903 0.961 . S
C1917 C1916 1.502 . S
C1918 H1904 0.960 . S
C1918 H1905 0.961 . S
C1918 H1906 0.959 . S
C1918 C1916 1.561 . S
C1919 C1916 1.526 . S
C1919 C1920 1.396 . S
C1919 C1924 1.390 . S
C1920 C1914 1.465 . S
C1920 C1919 1.396 . S
C1920 C1921 1.399 . S
C1921 H1907 0.929 . S
C1921 C1920 1.399 . S
C1921 C1922 1.385 . S
C1922 H1908 0.931 . S
C1922 C1921 1.385 . S
C1922 C1923 1.389 . S
C1923 C1922 1.389 . S
C1923 C1924 1.387 . S
C1924 H1909 0.930 . S
C1924 C1919 1.390 . S
C1924 C1923 1.387 . S
H1925 C1937 0.930 1_556 S
H1926 C1939 0.930 . S
H1927 C1940 0.930 . S
H1928 C1944 0.959 . S
H1929 C1944 0.959 . S
H1930 C1944 0.961 . S
H1931 C1945 0.960 . S
H1932 C1945 0.961 . S
H1933 C1945 0.959 1_554 S
H1934 C1948 0.929 . S
H1935 C1949 0.931 . S
H1936 C1951 0.930 1_556 S
C1937 H1925 0.930 1_554 S
C1937 C1938 1.399 . S
C1937 C1942 1.399 . S
C1938 C1937 1.399 . S
C1938 C1939 1.376 . S
C1939 H1926 0.930 . S
C1939 C1938 1.376 . S
C1939 C1940 1.388 . S
C1940 H1927 0.930 . S
C1940 C1939 1.388 . S
C1940 C1941 1.390 . S
C1941 C1940 1.390 . S
C1941 C1942 1.394 . S
C1941 C1947 1.465 1_455 S
C1942 C1937 1.399 . S
C1942 C1941 1.394 . S
C1942 C1943 1.526 1_455 S
C1943 C1942 1.526 1_655 S
C1943 C1944 1.490 1_654 S
C1943 C1945 1.555 1_554 S
C1943 C1946 1.536 . S
C1944 H1928 0.959 . S
C1944 H1929 0.959 . S
C1944 H1930 0.961 . S
C1944 C1943 1.490 1_456 S
C1945 H1931 0.960 . S
C1945 H1932 0.961 . S
C1945 H1933 0.959 1_556 S
C1945 C1943 1.555 1_556 S
C1946 C1943 1.536 . S
C1946 C1947 1.396 . S
C1946 C1951 1.390 . S
C1947 C1941 1.465 1_655 S
C1947 C1946 1.396 . S
C1947 C1948 1.399 . S
C1948 H1934 0.929 . S
C1948 C1947 1.399 . S
C1948 C1949 1.385 . S
C1949 H1935 0.931 . S
C1949 C1948 1.385 . S
C1949 C1950 1.389 . S
C1950 C1949 1.389 . S
C1950 C1951 1.387 . S
C1951 H1936 0.930 1_554 S
C1951 C1946 1.390 . S
C1951 C1950 1.387 . S
H1952 C1964 0.930 . S
H1953 C1966 0.930 . S
H1954 C1967 0.930 . S
H1955 C1971 0.959 . S
H1956 C1971 0.959 . S
H1957 C1971 0.961 . S
H1958 C1972 0.960 . S
H1959 C1972 0.961 . S
H1960 C1972 0.959 . S
H1961 C1975 0.929 . S
H1962 C1976 0.931 . S
H1963 C1978 0.930 . S
C1964 H1952 0.930 . S
C1964 C1965 1.399 . S
C1964 C1969 1.399 . S
C1965 C1964 1.399 . S
C1965 C1966 1.376 . S
C1966 H1953 0.930 . S
C1966 C1965 1.376 . S
C1966 C1967 1.388 . S
C1967 H1954 0.930 . S
C1967 C1966 1.388 . S
C1967 C1968 1.390 . S
C1968 C1967 1.390 . S
C1968 C1969 1.394 . S
C1968 C1974 1.465 . S
C1969 C1964 1.399 . S
C1969 C1968 1.394 . S
C1969 C1970 1.516 . S
C1970 C1969 1.516 . S
C1970 C1971 1.502 . S
C1970 C1972 1.561 . S
C1970 C1973 1.526 . S
C1971 H1955 0.959 . S
C1971 H1956 0.959 . S
C1971 H1957 0.961 . S
C1971 C1970 1.502 . S
C1972 H1958 0.960 . S
C1972 H1959 0.961 . S
C1972 H1960 0.959 . S
C1972 C1970 1.561 . S
C1973 C1970 1.526 . S
C1973 C1974 1.396 . S
C1973 C1978 1.390 . S
C1974 C1968 1.465 . S
C1974 C1973 1.396 . S
C1974 C1975 1.399 . S
C1975 H1961 0.929 . S
C1975 C1974 1.399 . S
C1975 C1976 1.385 . S
C1976 H1962 0.931 . S
C1976 C1975 1.385 . S
C1976 C1977 1.389 . S
C1977 C1976 1.389 . S
C1977 C1978 1.387 . S
C1978 H1963 0.930 . S
C1978 C1973 1.390 . S
C1978 C1977 1.387 . S
H1979 C1991 0.930 . S
H1980 C1993 0.930 . S
H1981 C1994 0.930 . S
H1982 C1998 0.959 . S
H1983 C1998 0.959 . S
H1984 C1998 0.961 . S
H1985 C1999 0.960 . S
H1986 C1999 0.961 . S
H1987 C1999 0.959 . S
H1988 C2002 0.929 . S
H1989 C2003 0.931 . S
H1990 C2005 0.930 . S
C1991 H1979 0.930 . S
C1991 C1992 1.399 . S
C1991 C1996 1.399 . S
C1992 C1991 1.399 . S
C1992 C1993 1.376 . S
C1993 H1980 0.930 . S
C1993 C1992 1.376 . S
C1993 C1994 1.388 . S
C1994 H1981 0.930 . S
C1994 C1993 1.388 . S
C1994 C1995 1.390 . S
C1995 C1994 1.390 . S
C1995 C1996 1.394 . S
C1995 C2001 1.465 . S
C1996 C1991 1.399 . S
C1996 C1995 1.394 . S
C1996 C1997 1.516 . S
C1997 C1996 1.516 . S
C1997 C1998 1.502 . S
C1997 C1999 1.561 . S
C1997 C2000 1.526 . S
C1998 H1982 0.959 . S
C1998 H1983 0.959 . S
C1998 H1984 0.961 . S
C1998 C1997 1.502 . S
C1999 H1985 0.960 . S
C1999 H1986 0.961 . S
C1999 H1987 0.959 . S
C1999 C1997 1.561 . S
C2000 C1997 1.526 . S
C2000 C2001 1.396 . S
C2000 C2005 1.390 . S
C2001 C1995 1.465 . S
C2001 C2000 1.396 . S
C2001 C2002 1.399 . S
C2002 H1988 0.929 . S
C2002 C2001 1.399 . S
C2002 C2003 1.385 . S
C2003 H1989 0.931 . S
C2003 C2002 1.385 . S
C2003 C2004 1.389 . S
C2004 C2003 1.389 . S
C2004 C2005 1.387 . S
C2005 H1990 0.930 . S
C2005 C2000 1.390 . S
C2005 C2004 1.387 . S
H2006 C2018 0.930 . S
H2007 C2020 0.930 . S
H2008 C2021 0.930 . S
H2009 C2025 0.959 . S
H2010 C2025 0.959 . S
H2011 C2025 0.961 . S
H2012 C2026 0.960 . S
H2013 C2026 0.961 . S
H2014 C2026 0.959 . S
H2015 C2029 0.929 . S
H2016 C2030 0.931 . S
H2017 C2032 0.930 . S
C2018 H2006 0.930 . S
C2018 C2019 1.399 . S
C2018 C2023 1.399 . S
C2019 C2018 1.399 . S
C2019 C2020 1.376 . S
C2020 H2007 0.930 . S
C2020 C2019 1.376 . S
C2020 C2021 1.388 . S
C2021 H2008 0.930 . S
C2021 C2020 1.388 . S
C2021 C2022 1.390 . S
C2022 C2021 1.390 . S
C2022 C2023 1.394 . S
C2022 C2028 1.465 . S
C2023 C2018 1.399 . S
C2023 C2022 1.394 . S
C2023 C2024 1.516 . S
C2024 C2023 1.516 . S
C2024 C2025 1.502 . S
C2024 C2026 1.561 . S
C2024 C2027 1.526 . S
C2025 H2009 0.959 . S
C2025 H2010 0.959 . S
C2025 H2011 0.961 . S
C2025 C2024 1.502 . S
C2026 H2012 0.960 . S
C2026 H2013 0.961 . S
C2026 H2014 0.959 . S
C2026 C2024 1.561 . S
C2027 C2024 1.526 . S
C2027 C2028 1.396 . S
C2027 C2032 1.390 . S
C2028 C2022 1.465 . S
C2028 C2027 1.396 . S
C2028 C2029 1.399 . S
C2029 H2015 0.929 . S
C2029 C2028 1.399 . S
C2029 C2030 1.385 . S
C2030 H2016 0.931 . S
C2030 C2029 1.385 . S
C2030 C2031 1.389 . S
C2031 C2030 1.389 . S
C2031 C2032 1.387 . S
C2032 H2017 0.930 . S
C2032 C2027 1.390 . S
C2032 C2031 1.387 . S
H2033 C2045 0.930 . S
H2034 C2047 0.930 . S
H2035 C2048 0.930 . S
H2036 C2052 0.959 . S
H2037 C2052 0.959 . S
H2038 C2052 0.961 . S
H2039 C2053 0.960 . S
H2040 C2053 0.961 . S
H2041 C2053 0.959 . S
H2042 C2056 0.929 . S
H2043 C2057 0.931 . S
H2044 C2059 0.930 . S
C2045 H2033 0.930 . S
C2045 C2046 1.399 . S
C2045 C2050 1.399 . S
C2046 C2045 1.399 . S
C2046 C2047 1.376 . S
C2047 H2034 0.930 . S
C2047 C2046 1.376 . S
C2047 C2048 1.388 . S
C2048 H2035 0.930 . S
C2048 C2047 1.388 . S
C2048 C2049 1.390 . S
C2049 C2048 1.390 . S
C2049 C2050 1.394 . S
C2049 C2055 1.465 . S
C2050 C2045 1.399 . S
C2050 C2049 1.394 . S
C2050 C2051 1.516 . S
C2051 C2050 1.516 . S
C2051 C2052 1.502 . S
C2051 C2053 1.561 . S
C2051 C2054 1.526 . S
C2052 H2036 0.959 . S
C2052 H2037 0.959 . S
C2052 H2038 0.961 . S
C2052 C2051 1.502 . S
C2053 H2039 0.960 . S
C2053 H2040 0.961 . S
C2053 H2041 0.959 . S
C2053 C2051 1.561 . S
C2054 C2051 1.526 . S
C2054 C2055 1.396 . S
C2054 C2059 1.390 . S
C2055 C2049 1.465 . S
C2055 C2054 1.396 . S
C2055 C2056 1.399 . S
C2056 H2042 0.929 . S
C2056 C2055 1.399 . S
C2056 C2057 1.385 . S
C2057 H2043 0.931 . S
C2057 C2056 1.385 . S
C2057 C2058 1.389 . S
C2058 C2057 1.389 . S
C2058 C2059 1.387 . S
C2059 H2044 0.930 . S
C2059 C2054 1.390 . S
C2059 C2058 1.387 . S
H2060 C2072 0.930 . S
H2061 C2074 0.930 . S
H2062 C2075 0.930 . S
H2063 C2079 0.959 . S
H2064 C2079 0.959 . S
H2065 C2079 0.961 . S
H2066 C2080 0.960 . S
H2067 C2080 0.961 . S
H2068 C2080 0.959 . S
H2069 C2083 0.929 . S
H2070 C2084 0.931 . S
H2071 C2086 0.930 . S
C2072 H2060 0.930 . S
C2072 C2073 1.399 . S
C2072 C2077 1.399 . S
C2073 C2072 1.399 . S
C2073 C2074 1.376 . S
C2074 H2061 0.930 . S
C2074 C2073 1.376 . S
C2074 C2075 1.388 . S
C2075 H2062 0.930 . S
C2075 C2074 1.388 . S
C2075 C2076 1.390 . S
C2076 C2075 1.390 . S
C2076 C2077 1.394 . S
C2076 C2082 1.465 . S
C2077 C2072 1.399 . S
C2077 C2076 1.394 . S
C2077 C2078 1.516 . S
C2078 C2077 1.516 . S
C2078 C2079 1.502 . S
C2078 C2080 1.561 . S
C2078 C2081 1.526 . S
C2079 H2063 0.959 . S
C2079 H2064 0.959 . S
C2079 H2065 0.961 . S
C2079 C2078 1.502 . S
C2080 H2066 0.960 . S
C2080 H2067 0.961 . S
C2080 H2068 0.959 . S
C2080 C2078 1.561 . S
C2081 C2078 1.526 . S
C2081 C2082 1.396 . S
C2081 C2086 1.390 . S
C2082 C2076 1.465 . S
C2082 C2081 1.396 . S
C2082 C2083 1.399 . S
C2083 H2069 0.929 . S
C2083 C2082 1.399 . S
C2083 C2084 1.385 . S
C2084 H2070 0.931 . S
C2084 C2083 1.385 . S
C2084 C2085 1.389 . S
C2085 C2084 1.389 . S
C2085 C2086 1.387 . S
C2086 H2071 0.930 . S
C2086 C2081 1.390 . S
C2086 C2085 1.387 . S
H2087 C2099 0.930 . S
H2088 C2101 0.930 . S
H2089 C2102 0.930 . S
H2090 C2106 0.959 . S
H2091 C2106 0.959 . S
H2092 C2106 0.961 . S
H2093 C2107 0.960 . S
H2094 C2107 0.961 . S
H2095 C2107 0.959 . S
H2096 C2110 0.929 . S
H2097 C2111 0.931 . S
H2098 C2113 0.930 . S
C2099 H2087 0.930 . S
C2099 C2100 1.399 . S
C2099 C2104 1.399 . S
C2100 C2099 1.399 . S
C2100 C2101 1.376 . S
C2101 H2088 0.930 . S
C2101 C2100 1.376 . S
C2101 C2102 1.388 . S
C2102 H2089 0.930 . S
C2102 C2101 1.388 . S
C2102 C2103 1.390 . S
C2103 C2102 1.390 . S
C2103 C2104 1.394 . S
C2103 C2109 1.465 . S
C2104 C2099 1.399 . S
C2104 C2103 1.394 . S
C2104 C2105 1.516 . S
C2105 C2104 1.516 . S
C2105 C2106 1.502 . S
C2105 C2107 1.561 . S
C2105 C2108 1.526 . S
C2106 H2090 0.959 . S
C2106 H2091 0.959 . S
C2106 H2092 0.961 . S
C2106 C2105 1.502 . S
C2107 H2093 0.960 . S
C2107 H2094 0.961 . S
C2107 H2095 0.959 . S
C2107 C2105 1.561 . S
C2108 C2105 1.526 . S
C2108 C2109 1.396 . S
C2108 C2113 1.390 . S
C2109 C2103 1.465 . S
C2109 C2108 1.396 . S
C2109 C2110 1.399 . S
C2110 H2096 0.929 . S
C2110 C2109 1.399 . S
C2110 C2111 1.385 . S
C2111 H2097 0.931 . S
C2111 C2110 1.385 . S
C2111 C2112 1.389 . S
C2112 C2111 1.389 . S
C2112 C2113 1.387 . S
C2113 H2098 0.930 . S
C2113 C2108 1.390 . S
C2113 C2112 1.387 . S
H2114 C2126 0.930 . S
H2115 C2128 0.930 . S
H2116 C2129 0.930 . S
H2117 C2133 0.959 . S
H2118 C2133 0.959 . S
H2119 C2133 0.961 . S
H2120 C2134 0.960 . S
H2121 C2134 0.961 . S
H2122 C2134 0.959 . S
H2123 C2137 0.929 . S
H2124 C2138 0.931 . S
H2125 C2140 0.930 . S
C2126 H2114 0.930 . S
C2126 C2127 1.399 . S
C2126 C2131 1.399 . S
C2127 C2126 1.399 . S
C2127 C2128 1.376 . S
C2128 H2115 0.930 . S
C2128 C2127 1.376 . S
C2128 C2129 1.388 . S
C2129 H2116 0.930 . S
C2129 C2128 1.388 . S
C2129 C2130 1.390 . S
C2130 C2129 1.390 . S
C2130 C2131 1.394 . S
C2130 C2136 1.465 . S
C2131 C2126 1.399 . S
C2131 C2130 1.394 . S
C2131 C2132 1.516 . S
C2132 C2131 1.516 . S
C2132 C2133 1.502 . S
C2132 C2134 1.561 . S
C2132 C2135 1.526 . S
C2133 H2117 0.959 . S
C2133 H2118 0.959 . S
C2133 H2119 0.961 . S
C2133 C2132 1.502 . S
C2134 H2120 0.960 . S
C2134 H2121 0.961 . S
C2134 H2122 0.959 . S
C2134 C2132 1.561 . S
C2135 C2132 1.526 . S
C2135 C2136 1.396 . S
C2135 C2140 1.390 . S
C2136 C2130 1.465 . S
C2136 C2135 1.396 . S
C2136 C2137 1.399 . S
C2137 H2123 0.929 . S
C2137 C2136 1.399 . S
C2137 C2138 1.385 . S
C2138 H2124 0.931 . S
C2138 C2137 1.385 . S
C2138 C2139 1.389 . S
C2139 C2138 1.389 . S
C2139 C2140 1.387 . S
C2140 H2125 0.930 . S
C2140 C2135 1.390 . S
C2140 C2139 1.387 . S
H2141 C2153 0.930 . S
H2142 C2155 0.930 . S
H2143 C2156 0.930 . S
H2144 C2160 0.959 . S
H2145 C2160 0.959 . S
H2146 C2160 0.961 . S
H2147 C2161 0.960 . S
H2148 C2161 0.961 . S
H2149 C2161 0.959 . S
H2150 C2164 0.929 . S
H2151 C2165 0.931 . S
H2152 C2167 0.930 . S
C2153 H2141 0.930 . S
C2153 C2154 1.399 . S
C2153 C2158 1.399 . S
C2154 C2153 1.399 . S
C2154 C2155 1.376 . S
C2155 H2142 0.930 . S
C2155 C2154 1.376 . S
C2155 C2156 1.388 . S
C2156 H2143 0.930 . S
C2156 C2155 1.388 . S
C2156 C2157 1.390 . S
C2157 C2156 1.390 . S
C2157 C2158 1.394 . S
C2157 C2163 1.465 . S
C2158 C2153 1.399 . S
C2158 C2157 1.394 . S
C2158 C2159 1.516 . S
C2159 C2158 1.516 . S
C2159 C2160 1.502 . S
C2159 C2161 1.561 . S
C2159 C2162 1.526 . S
C2160 H2144 0.959 . S
C2160 H2145 0.959 . S
C2160 H2146 0.961 . S
C2160 C2159 1.502 . S
C2161 H2147 0.960 . S
C2161 H2148 0.961 . S
C2161 H2149 0.959 . S
C2161 C2159 1.561 . S
C2162 C2159 1.526 . S
C2162 C2163 1.396 . S
C2162 C2167 1.390 . S
C2163 C2157 1.465 . S
C2163 C2162 1.396 . S
C2163 C2164 1.399 . S
C2164 H2150 0.929 . S
C2164 C2163 1.399 . S
C2164 C2165 1.385 . S
C2165 H2151 0.931 . S
C2165 C2164 1.385 . S
C2165 C2166 1.389 . S
C2166 C2165 1.389 . S
C2166 C2167 1.387 . S
C2167 H2152 0.930 . S
C2167 C2162 1.390 . S
C2167 C2166 1.387 . S
H2168 C2180 0.930 . S
H2169 C2182 0.930 . S
H2170 C2183 0.930 . S
H2171 C2187 0.959 . S
H2172 C2187 0.959 . S
H2173 C2187 0.961 . S
H2174 C2188 0.960 . S
H2175 C2188 0.961 . S
H2176 C2188 0.959 . S
H2177 C2191 0.929 . S
H2178 C2192 0.931 . S
H2179 C2194 0.930 . S
C2180 H2168 0.930 . S
C2180 C2181 1.399 . S
C2180 C2185 1.399 . S
C2181 C2180 1.399 . S
C2181 C2182 1.376 . S
C2182 H2169 0.930 . S
C2182 C2181 1.376 . S
C2182 C2183 1.388 . S
C2183 H2170 0.930 . S
C2183 C2182 1.388 . S
C2183 C2184 1.390 . S
C2184 C2183 1.390 . S
C2184 C2185 1.394 . S
C2184 C2190 1.465 . S
C2185 C2180 1.399 . S
C2185 C2184 1.394 . S
C2185 C2186 1.516 . S
C2186 C2185 1.516 . S
C2186 C2187 1.502 . S
C2186 C2188 1.561 . S
C2186 C2189 1.526 . S
C2187 H2171 0.959 . S
C2187 H2172 0.959 . S
C2187 H2173 0.961 . S
C2187 C2186 1.502 . S
C2188 H2174 0.960 . S
C2188 H2175 0.961 . S
C2188 H2176 0.959 . S
C2188 C2186 1.561 . S
C2189 C2186 1.526 . S
C2189 C2190 1.396 . S
C2189 C2194 1.390 . S
C2190 C2184 1.465 . S
C2190 C2189 1.396 . S
C2190 C2191 1.399 . S
C2191 H2177 0.929 . S
C2191 C2190 1.399 . S
C2191 C2192 1.385 . S
C2192 H2178 0.931 . S
C2192 C2191 1.385 . S
C2192 C2193 1.389 . S
C2193 C2192 1.389 . S
C2193 C2194 1.387 . S
C2194 H2179 0.930 . S
C2194 C2189 1.390 . S
C2194 C2193 1.387 . S
H2195 C2207 0.930 . S
H2196 C2209 0.930 . S
H2197 C2210 0.930 . S
H2198 C2214 0.959 . S
H2199 C2214 0.959 . S
H2200 C2214 0.961 . S
H2201 C2215 0.960 . S
H2202 C2215 0.961 . S
H2203 C2215 0.959 . S
H2204 C2218 0.929 . S
H2205 C2219 0.931 . S
H2206 C2221 0.930 . S
C2207 H2195 0.930 . S
C2207 C2208 1.399 . S
C2207 C2212 1.399 . S
C2208 C2207 1.399 . S
C2208 C2209 1.376 . S
C2209 H2196 0.930 . S
C2209 C2208 1.376 . S
C2209 C2210 1.388 . S
C2210 H2197 0.930 . S
C2210 C2209 1.388 . S
C2210 C2211 1.390 . S
C2211 C2210 1.390 . S
C2211 C2212 1.394 . S
C2211 C2217 1.465 . S
C2212 C2207 1.399 . S
C2212 C2211 1.394 . S
C2212 C2213 1.516 . S
C2213 C2212 1.516 . S
C2213 C2214 1.502 . S
C2213 C2215 1.561 . S
C2213 C2216 1.526 . S
C2214 H2198 0.959 . S
C2214 H2199 0.959 . S
C2214 H2200 0.961 . S
C2214 C2213 1.502 . S
C2215 H2201 0.960 . S
C2215 H2202 0.961 . S
C2215 H2203 0.959 . S
C2215 C2213 1.561 . S
C2216 C2213 1.526 . S
C2216 C2217 1.396 . S
C2216 C2221 1.390 . S
C2217 C2211 1.465 . S
C2217 C2216 1.396 . S
C2217 C2218 1.399 . S
C2218 H2204 0.929 . S
C2218 C2217 1.399 . S
C2218 C2219 1.385 . S
C2219 H2205 0.931 . S
C2219 C2218 1.385 . S
C2219 C2220 1.389 . S
C2220 C2219 1.389 . S
C2220 C2221 1.387 . S
C2221 H2206 0.930 . S
C2221 C2216 1.390 . S
C2221 C2220 1.387 . S
H2222 C2234 0.930 . S
H2223 C2236 0.930 . S
H2224 C2237 0.930 . S
H2225 C2241 0.959 . S
H2226 C2241 0.959 . S
H2227 C2241 0.961 . S
H2228 C2242 0.960 . S
H2229 C2242 0.961 . S
H2230 C2242 0.959 . S
H2231 C2245 0.929 . S
H2232 C2246 0.931 . S
H2233 C2248 0.930 . S
C2234 H2222 0.930 . S
C2234 C2235 1.399 . S
C2234 C2239 1.399 . S
C2235 C2234 1.399 . S
C2235 C2236 1.376 . S
C2236 H2223 0.930 . S
C2236 C2235 1.376 . S
C2236 C2237 1.388 . S
C2237 H2224 0.930 . S
C2237 C2236 1.388 . S
C2237 C2238 1.390 . S
C2238 C2237 1.390 . S
C2238 C2239 1.394 . S
C2238 C2244 1.465 . S
C2239 C2234 1.399 . S
C2239 C2238 1.394 . S
C2239 C2240 1.516 . S
C2240 C2239 1.516 . S
C2240 C2241 1.502 . S
C2240 C2242 1.561 . S
C2240 C2243 1.526 . S
C2241 H2225 0.959 . S
C2241 H2226 0.959 . S
C2241 H2227 0.961 . S
C2241 C2240 1.502 . S
C2242 H2228 0.960 . S
C2242 H2229 0.961 . S
C2242 H2230 0.959 . S
C2242 C2240 1.561 . S
C2243 C2240 1.526 . S
C2243 C2244 1.396 . S
C2243 C2248 1.390 . S
C2244 C2238 1.465 . S
C2244 C2243 1.396 . S
C2244 C2245 1.399 . S
C2245 H2231 0.929 . S
C2245 C2244 1.399 . S
C2245 C2246 1.385 . S
C2246 H2232 0.931 . S
C2246 C2245 1.385 . S
C2246 C2247 1.389 . S
C2247 C2246 1.389 . S
C2247 C2248 1.387 . S
C2248 H2233 0.930 . S
C2248 C2243 1.390 . S
C2248 C2247 1.387 . S
H2249 C2261 0.930 . S
H2250 C2263 0.930 . S
H2251 C2264 0.930 . S
H2252 C2268 0.959 . S
H2253 C2268 0.959 . S
H2254 C2268 0.961 . S
H2255 C2269 0.960 . S
H2256 C2269 0.961 . S
H2257 C2269 0.959 . S
H2258 C2272 0.929 . S
H2259 C2273 0.931 . S
H2260 C2275 0.930 . S
C2261 H2249 0.930 . S
C2261 C2262 1.399 . S
C2261 C2266 1.399 . S
C2262 C2261 1.399 . S
C2262 C2263 1.376 . S
C2263 H2250 0.930 . S
C2263 C2262 1.376 . S
C2263 C2264 1.388 . S
C2264 H2251 0.930 . S
C2264 C2263 1.388 . S
C2264 C2265 1.390 . S
C2265 C2264 1.390 . S
C2265 C2266 1.394 . S
C2265 C2271 1.465 . S
C2266 C2261 1.399 . S
C2266 C2265 1.394 . S
C2266 C2267 1.516 . S
C2267 C2266 1.516 . S
C2267 C2268 1.502 . S
C2267 C2269 1.561 . S
C2267 C2270 1.526 . S
C2268 H2252 0.959 . S
C2268 H2253 0.959 . S
C2268 H2254 0.961 . S
C2268 C2267 1.502 . S
C2269 H2255 0.960 . S
C2269 H2256 0.961 . S
C2269 H2257 0.959 . S
C2269 C2267 1.561 . S
C2270 C2267 1.526 . S
C2270 C2271 1.396 . S
C2270 C2275 1.390 . S
C2271 C2265 1.465 . S
C2271 C2270 1.396 . S
C2271 C2272 1.399 . S
C2272 H2258 0.929 . S
C2272 C2271 1.399 . S
C2272 C2273 1.385 . S
C2273 H2259 0.931 . S
C2273 C2272 1.385 . S
C2273 C2274 1.389 . S
C2274 C2273 1.389 . S
C2274 C2275 1.387 . S
C2275 H2260 0.930 . S
C2275 C2270 1.390 . S
C2275 C2274 1.387 . S
H2276 C2288 0.930 . S
H2277 C2290 0.930 . S
H2278 C2291 0.930 . S
H2279 C2295 0.959 . S
H2280 C2295 0.959 . S
H2281 C2295 0.961 . S
H2282 C2296 0.960 . S
H2283 C2296 0.961 . S
H2284 C2296 0.959 . S
H2285 C2299 0.929 . S
H2286 C2300 0.931 . S
H2287 C2302 0.930 . S
C2288 H2276 0.930 . S
C2288 C2289 1.399 . S
C2288 C2293 1.399 . S
C2289 C2288 1.399 . S
C2289 C2290 1.376 . S
C2290 H2277 0.930 . S
C2290 C2289 1.376 . S
C2290 C2291 1.388 . S
C2291 H2278 0.930 . S
C2291 C2290 1.388 . S
C2291 C2292 1.390 . S
C2292 C2291 1.390 . S
C2292 C2293 1.394 . S
C2292 C2298 1.465 . S
C2293 C2288 1.399 . S
C2293 C2292 1.394 . S
C2293 C2294 1.516 . S
C2294 C2293 1.516 . S
C2294 C2295 1.502 . S
C2294 C2296 1.561 . S
C2294 C2297 1.526 . S
C2295 H2279 0.959 . S
C2295 H2280 0.959 . S
C2295 H2281 0.961 . S
C2295 C2294 1.502 . S
C2296 H2282 0.960 . S
C2296 H2283 0.961 . S
C2296 H2284 0.959 . S
C2296 C2294 1.561 . S
C2297 C2294 1.526 . S
C2297 C2298 1.396 . S
C2297 C2302 1.390 . S
C2298 C2292 1.465 . S
C2298 C2297 1.396 . S
C2298 C2299 1.399 . S
C2299 H2285 0.929 . S
C2299 C2298 1.399 . S
C2299 C2300 1.385 . S
C2300 H2286 0.931 . S
C2300 C2299 1.385 . S
C2300 C2301 1.389 . S
C2301 C2300 1.389 . S
C2301 C2302 1.387 . S
C2302 H2287 0.930 . S
C2302 C2297 1.390 . S
C2302 C2301 1.387 . S
H2303 C2315 0.930 . S
H2304 C2317 0.930 . S
H2305 C2318 0.930 . S
H2306 C2322 0.959 . S
H2307 C2322 0.959 . S
H2308 C2322 0.961 . S
H2309 C2323 0.960 . S
H2310 C2323 0.961 . S
H2311 C2323 0.959 . S
H2312 C2326 0.929 . S
H2313 C2327 0.931 . S
H2314 C2329 0.930 . S
C2315 H2303 0.930 . S
C2315 C2316 1.399 . S
C2315 C2320 1.399 . S
C2316 C2315 1.399 . S
C2316 C2317 1.376 . S
C2317 H2304 0.930 . S
C2317 C2316 1.376 . S
C2317 C2318 1.388 . S
C2318 H2305 0.930 . S
C2318 C2317 1.388 . S
C2318 C2319 1.390 . S
C2319 C2318 1.390 . S
C2319 C2320 1.394 . S
C2319 C2325 1.465 . S
C2320 C2315 1.399 . S
C2320 C2319 1.394 . S
C2320 C2321 1.516 . S
C2321 C2320 1.516 . S
C2321 C2322 1.502 . S
C2321 C2323 1.561 . S
C2321 C2324 1.526 . S
C2322 H2306 0.959 . S
C2322 H2307 0.959 . S
C2322 H2308 0.961 . S
C2322 C2321 1.502 . S
C2323 H2309 0.960 . S
C2323 H2310 0.961 . S
C2323 H2311 0.959 . S
C2323 C2321 1.561 . S
C2324 C2321 1.526 . S
C2324 C2325 1.396 . S
C2324 C2329 1.390 . S
C2325 C2319 1.465 . S
C2325 C2324 1.396 . S
C2325 C2326 1.399 . S
C2326 H2312 0.929 . S
C2326 C2325 1.399 . S
C2326 C2327 1.385 . S
C2327 H2313 0.931 . S
C2327 C2326 1.385 . S
C2327 C2328 1.389 . S
C2328 C2327 1.389 . S
C2328 C2329 1.387 . S
C2329 H2314 0.930 . S
C2329 C2324 1.390 . S
C2329 C2328 1.387 . S
H2330 C2342 0.930 . S
H2331 C2344 0.930 . S
H2332 C2345 0.930 . S
H2333 C2349 0.959 . S
H2334 C2349 0.959 . S
H2335 C2349 0.961 . S
H2336 C2350 0.960 . S
H2337 C2350 0.961 . S
H2338 C2350 0.959 . S
H2339 C2353 0.929 . S
H2340 C2354 0.931 . S
H2341 C2356 0.930 . S
C2342 H2330 0.930 . S
C2342 C2343 1.399 . S
C2342 C2347 1.399 . S
C2343 C2342 1.399 . S
C2343 C2344 1.376 . S
C2344 H2331 0.930 . S
C2344 C2343 1.376 . S
C2344 C2345 1.388 . S
C2345 H2332 0.930 . S
C2345 C2344 1.388 . S
C2345 C2346 1.390 . S
C2346 C2345 1.390 . S
C2346 C2347 1.394 . S
C2346 C2352 1.465 . S
C2347 C2342 1.399 . S
C2347 C2346 1.394 . S
C2347 C2348 1.516 . S
C2348 C2347 1.516 . S
C2348 C2349 1.502 . S
C2348 C2350 1.561 . S
C2348 C2351 1.526 . S
C2349 H2333 0.959 . S
C2349 H2334 0.959 . S
C2349 H2335 0.961 . S
C2349 C2348 1.502 . S
C2350 H2336 0.960 . S
C2350 H2337 0.961 . S
C2350 H2338 0.959 . S
C2350 C2348 1.561 . S
C2351 C2348 1.526 . S
C2351 C2352 1.396 . S
C2351 C2356 1.390 . S
C2352 C2346 1.465 . S
C2352 C2351 1.396 . S
C2352 C2353 1.399 . S
C2353 H2339 0.929 . S
C2353 C2352 1.399 . S
C2353 C2354 1.385 . S
C2354 H2340 0.931 . S
C2354 C2353 1.385 . S
C2354 C2355 1.389 . S
C2355 C2354 1.389 . S
C2355 C2356 1.387 . S
C2356 H2341 0.930 . S
C2356 C2351 1.390 . S
C2356 C2355 1.387 . S
H2357 C2369 0.930 . S
H2358 C2371 0.930 . S
H2359 C2372 0.930 . S
H2360 C2376 0.959 . S
H2361 C2376 0.959 . S
H2362 C2376 0.961 . S
H2363 C2377 0.960 . S
H2364 C2377 0.961 . S
H2365 C2377 0.959 . S
H2366 C2380 0.929 . S
H2367 C2381 0.931 1_655 S
H2368 C2383 0.930 . S
C2369 H2357 0.930 . S
C2369 C2370 1.399 . S
C2369 C2374 1.399 . S
C2370 C2369 1.399 . S
C2370 C2371 1.376 . S
C2371 H2358 0.930 . S
C2371 C2370 1.376 . S
C2371 C2372 1.388 . S
C2372 H2359 0.930 . S
C2372 C2371 1.388 . S
C2372 C2373 1.390 . S
C2373 C2372 1.390 . S
C2373 C2374 1.394 . S
C2373 C2379 1.465 . S
C2374 C2369 1.399 . S
C2374 C2373 1.394 . S
C2374 C2375 1.516 . S
C2375 C2374 1.516 . S
C2375 C2376 1.502 . S
C2375 C2377 1.561 . S
C2375 C2378 1.526 . S
C2376 H2360 0.959 . S
C2376 H2361 0.959 . S
C2376 H2362 0.961 . S
C2376 C2375 1.502 . S
C2377 H2363 0.960 . S
C2377 H2364 0.961 . S
C2377 H2365 0.959 . S
C2377 C2375 1.561 . S
C2378 C2375 1.526 . S
C2378 C2379 1.396 . S
C2378 C2383 1.390 . S
C2379 C2373 1.465 . S
C2379 C2378 1.396 . S
C2379 C2380 1.399 . S
C2380 H2366 0.929 . S
C2380 C2379 1.399 . S
C2380 C2381 1.385 . S
C2381 H2367 0.931 1_455 S
C2381 C2380 1.385 . S
C2381 C2382 1.389 . S
C2382 C2381 1.389 . S
C2382 C2383 1.387 . S
C2383 H2368 0.930 . S
C2383 C2378 1.390 . S
C2383 C2382 1.387 . S
H2384 C2396 0.930 . S
H2385 C2398 0.930 . S
H2386 C2399 0.930 . S
H2387 C2403 0.959 . S
H2388 C2403 0.959 . S
H2389 C2403 0.961 . S
H2390 C2404 0.960 . S
H2391 C2404 0.961 . S
H2392 C2404 0.959 . S
H2393 C2407 0.929 . S
H2394 C2408 0.931 . S
H2395 C2410 0.930 . S
C2396 H2384 0.930 . S
C2396 C2397 1.399 . S
C2396 C2401 1.399 . S
C2397 C2396 1.399 . S
C2397 C2398 1.376 . S
C2398 H2385 0.930 . S
C2398 C2397 1.376 . S
C2398 C2399 1.388 . S
C2399 H2386 0.930 . S
C2399 C2398 1.388 . S
C2399 C2400 1.390 . S
C2400 C2399 1.390 . S
C2400 C2401 1.394 . S
C2400 C2406 1.465 . S
C2401 C2396 1.399 . S
C2401 C2400 1.394 . S
C2401 C2402 1.516 . S
C2402 C2401 1.516 . S
C2402 C2403 1.502 . S
C2402 C2404 1.561 . S
C2402 C2405 1.526 . S
C2403 H2387 0.959 . S
C2403 H2388 0.959 . S
C2403 H2389 0.961 . S
C2403 C2402 1.502 . S
C2404 H2390 0.960 . S
C2404 H2391 0.961 . S
C2404 H2392 0.959 . S
C2404 C2402 1.561 . S
C2405 C2402 1.526 . S
C2405 C2406 1.396 . S
C2405 C2410 1.390 . S
C2406 C2400 1.465 . S
C2406 C2405 1.396 . S
C2406 C2407 1.399 . S
C2407 H2393 0.929 . S
C2407 C2406 1.399 . S
C2407 C2408 1.385 . S
C2408 H2394 0.931 . S
C2408 C2407 1.385 . S
C2408 C2409 1.389 . S
C2409 C2408 1.389 . S
C2409 C2410 1.387 . S
C2410 H2395 0.930 . S
C2410 C2405 1.390 . S
C2410 C2409 1.387 . S
H2411 C2423 0.930 . S
H2412 C2425 0.930 . S
H2413 C2426 0.930 . S
H2414 C2430 0.959 . S
H2415 C2430 0.959 . S
H2416 C2430 0.961 . S
H2417 C2431 0.960 . S
H2418 C2431 0.961 . S
H2419 C2431 0.959 . S
H2420 C2434 0.929 . S
H2421 C2435 0.931 . S
H2422 C2437 0.930 . S
C2423 H2411 0.930 . S
C2423 C2424 1.399 . S
C2423 C2428 1.399 . S
C2424 C2423 1.399 . S
C2424 C2425 1.376 . S
C2425 H2412 0.930 . S
C2425 C2424 1.376 . S
C2425 C2426 1.388 . S
C2426 H2413 0.930 . S
C2426 C2425 1.388 . S
C2426 C2427 1.390 . S
C2427 C2426 1.390 . S
C2427 C2428 1.394 . S
C2427 C2433 1.465 . S
C2428 C2423 1.399 . S
C2428 C2427 1.394 . S
C2428 C2429 1.516 . S
C2429 C2428 1.516 . S
C2429 C2430 1.502 . S
C2429 C2431 1.561 . S
C2429 C2432 1.526 . S
C2430 H2414 0.959 . S
C2430 H2415 0.959 . S
C2430 H2416 0.961 . S
C2430 C2429 1.502 . S
C2431 H2417 0.960 . S
C2431 H2418 0.961 . S
C2431 H2419 0.959 . S
C2431 C2429 1.561 . S
C2432 C2429 1.526 . S
C2432 C2433 1.396 . S
C2432 C2437 1.390 . S
C2433 C2427 1.465 . S
C2433 C2432 1.396 . S
C2433 C2434 1.399 . S
C2434 H2420 0.929 . S
C2434 C2433 1.399 . S
C2434 C2435 1.385 . S
C2435 H2421 0.931 . S
C2435 C2434 1.385 . S
C2435 C2436 1.389 . S
C2436 C2435 1.389 . S
C2436 C2437 1.387 . S
C2437 H2422 0.930 . S
C2437 C2432 1.390 . S
C2437 C2436 1.387 . S
H2438 C2450 0.930 . S
H2439 C2452 0.930 . S
H2440 C2453 0.930 . S
H2441 C2457 0.959 . S
H2442 C2457 0.959 . S
H2443 C2457 0.961 . S
H2444 C2458 0.960 . S
H2445 C2458 0.961 . S
H2446 C2458 0.959 . S
H2447 C2461 0.929 . S
H2448 C2462 0.931 . S
H2449 C2464 0.930 . S
C2450 H2438 0.930 . S
C2450 C2451 1.399 . S
C2450 C2455 1.399 . S
C2451 C2450 1.399 . S
C2451 C2452 1.376 . S
C2452 H2439 0.930 . S
C2452 C2451 1.376 . S
C2452 C2453 1.388 . S
C2453 H2440 0.930 . S
C2453 C2452 1.388 . S
C2453 C2454 1.390 . S
C2454 C2453 1.390 . S
C2454 C2455 1.394 . S
C2454 C2460 1.465 . S
C2455 C2450 1.399 . S
C2455 C2454 1.394 . S
C2455 C2456 1.516 . S
C2456 C2455 1.516 . S
C2456 C2457 1.502 . S
C2456 C2458 1.561 . S
C2456 C2459 1.526 . S
C2457 H2441 0.959 . S
C2457 H2442 0.959 . S
C2457 H2443 0.961 . S
C2457 C2456 1.502 . S
C2458 H2444 0.960 . S
C2458 H2445 0.961 . S
C2458 H2446 0.959 . S
C2458 C2456 1.561 . S
C2459 C2456 1.526 . S
C2459 C2460 1.396 . S
C2459 C2464 1.390 . S
C2460 C2454 1.465 . S
C2460 C2459 1.396 . S
C2460 C2461 1.399 . S
C2461 H2447 0.929 . S
C2461 C2460 1.399 . S
C2461 C2462 1.385 . S
C2462 H2448 0.931 . S
C2462 C2461 1.385 . S
C2462 C2463 1.389 . S
C2463 C2462 1.389 . S
C2463 C2464 1.387 . S
C2464 H2449 0.930 . S
C2464 C2459 1.390 . S
C2464 C2463 1.387 . S
H2465 C2477 0.930 . S
H2466 C2479 0.936 1_655 S
H2467 C2480 0.930 . S
H2468 C2484 0.959 . S
H2469 C2484 0.959 . S
H2470 C2484 0.961 . S
H2471 C2485 0.960 . S
H2472 C2485 0.961 . S
H2473 C2485 0.959 . S
H2474 C2488 0.929 . S
H2475 C2489 0.931 . S
H2476 C2491 0.930 . S
C2477 H2465 0.930 . S
C2477 C2478 1.399 . S
C2477 C2482 1.399 . S
C2478 C2477 1.399 . S
C2478 C2479 1.374 . S
C2479 H2466 0.936 1_455 S
C2479 C2478 1.374 . S
C2479 C2480 1.386 . S
C2480 H2467 0.930 . S
C2480 C2479 1.386 . S
C2480 C2481 1.390 . S
C2481 C2480 1.390 . S
C2481 C2482 1.394 . S
C2481 C2487 1.465 . S
C2482 C2477 1.399 . S
C2482 C2481 1.394 . S
C2482 C2483 1.516 . S
C2483 C2482 1.516 . S
C2483 C2484 1.502 . S
C2483 C2485 1.561 . S
C2483 C2486 1.526 . S
C2484 H2468 0.959 . S
C2484 H2469 0.959 . S
C2484 H2470 0.961 . S
C2484 C2483 1.502 . S
C2485 H2471 0.960 . S
C2485 H2472 0.961 . S
C2485 H2473 0.959 . S
C2485 C2483 1.561 . S
C2486 C2483 1.526 . S
C2486 C2487 1.396 . S
C2486 C2491 1.390 . S
C2487 C2481 1.465 . S
C2487 C2486 1.396 . S
C2487 C2488 1.399 . S
C2488 H2474 0.929 . S
C2488 C2487 1.399 . S
C2488 C2489 1.385 . S
C2489 H2475 0.931 . S
C2489 C2488 1.385 . S
C2489 C2490 1.389 . S
C2490 C2489 1.389 . S
C2490 C2491 1.387 . S
C2491 H2476 0.930 . S
C2491 C2486 1.390 . S
C2491 C2490 1.387 . S
H2492 C2504 0.930 . S
H2493 C2506 0.930 . S
H2494 C2507 0.930 . S
H2495 C2511 0.959 . S
H2496 C2511 0.959 . S
H2497 C2511 0.961 . S
H2498 C2512 0.960 . S
H2499 C2512 0.961 . S
H2500 C2512 0.959 . S
H2501 C2515 0.929 . S
H2502 C2516 0.931 . S
H2503 C2518 0.930 . S
C2504 H2492 0.930 . S
C2504 C2505 1.399 . S
C2504 C2509 1.399 . S
C2505 C2504 1.399 . S
C2505 C2506 1.376 . S
C2506 H2493 0.930 . S
C2506 C2505 1.376 . S
C2506 C2507 1.388 . S
C2507 H2494 0.930 . S
C2507 C2506 1.388 . S
C2507 C2508 1.390 . S
C2508 C2507 1.390 . S
C2508 C2509 1.394 . S
C2508 C2514 1.465 . S
C2509 C2504 1.399 . S
C2509 C2508 1.394 . S
C2509 C2510 1.516 . S
C2510 C2509 1.516 . S
C2510 C2511 1.502 . S
C2510 C2512 1.561 . S
C2510 C2513 1.526 . S
C2511 H2495 0.959 . S
C2511 H2496 0.959 . S
C2511 H2497 0.961 . S
C2511 C2510 1.502 . S
C2512 H2498 0.960 . S
C2512 H2499 0.961 . S
C2512 H2500 0.959 . S
C2512 C2510 1.561 . S
C2513 C2510 1.526 . S
C2513 C2514 1.396 . S
C2513 C2518 1.390 . S
C2514 C2508 1.465 . S
C2514 C2513 1.396 . S
C2514 C2515 1.399 . S
C2515 H2501 0.929 . S
C2515 C2514 1.399 . S
C2515 C2516 1.385 . S
C2516 H2502 0.931 . S
C2516 C2515 1.385 . S
C2516 C2517 1.389 . S
C2517 C2516 1.389 . S
C2517 C2518 1.387 . S
C2518 H2503 0.930 . S
C2518 C2513 1.390 . S
C2518 C2517 1.387 . S
H2519 C2531 0.930 . S
H2520 C2533 0.930 . S
H2521 C2534 0.930 . S
H2522 C2538 0.959 . S
H2523 C2538 0.959 . S
H2524 C2538 0.961 . S
H2525 C2539 0.960 . S
H2526 C2539 0.961 . S
H2527 C2539 0.959 . S
H2528 C2542 0.929 . S
H2529 C2543 0.931 . S
H2530 C2545 0.930 . S
C2531 H2519 0.930 . S
C2531 C2532 1.399 . S
C2531 C2536 1.399 . S
C2532 C2531 1.399 . S
C2532 C2533 1.376 . S
C2533 H2520 0.930 . S
C2533 C2532 1.376 . S
C2533 C2534 1.388 . S
C2534 H2521 0.930 . S
C2534 C2533 1.388 . S
C2534 C2535 1.390 . S
C2535 C2534 1.390 . S
C2535 C2536 1.394 . S
C2535 C2541 1.465 . S
C2536 C2531 1.399 . S
C2536 C2535 1.394 . S
C2536 C2537 1.516 . S
C2537 C2536 1.516 . S
C2537 C2538 1.502 . S
C2537 C2539 1.561 . S
C2537 C2540 1.526 . S
C2538 H2522 0.959 . S
C2538 H2523 0.959 . S
C2538 H2524 0.961 . S
C2538 C2537 1.502 . S
C2539 H2525 0.960 . S
C2539 H2526 0.961 . S
C2539 H2527 0.959 . S
C2539 C2537 1.561 . S
C2540 C2537 1.526 . S
C2540 C2541 1.396 . S
C2540 C2545 1.390 . S
C2541 C2535 1.465 . S
C2541 C2540 1.396 . S
C2541 C2542 1.399 . S
C2542 H2528 0.929 . S
C2542 C2541 1.399 . S
C2542 C2543 1.385 . S
C2543 H2529 0.931 . S
C2543 C2542 1.385 . S
C2543 C2544 1.389 . S
C2544 C2543 1.389 . S
C2544 C2545 1.387 . S
C2545 H2530 0.930 . S
C2545 C2540 1.390 . S
C2545 C2544 1.387 . S
H2546 C2558 0.930 . S
H2547 C2560 0.930 . S
H2548 C2561 0.930 . S
H2549 C2565 0.959 . S
H2550 C2565 0.959 . S
H2551 C2565 0.961 . S
H2552 C2566 0.960 . S
H2553 C2566 0.961 . S
H2554 C2566 0.959 . S
H2555 C2569 0.929 . S
H2556 C2570 0.931 . S
H2557 C2572 0.930 . S
C2558 H2546 0.930 . S
C2558 C2559 1.399 . S
C2558 C2563 1.399 . S
C2559 C2558 1.399 . S
C2559 C2560 1.376 . S
C2560 H2547 0.930 . S
C2560 C2559 1.376 . S
C2560 C2561 1.388 . S
C2561 H2548 0.930 . S
C2561 C2560 1.388 . S
C2561 C2562 1.390 . S
C2562 C2561 1.390 . S
C2562 C2563 1.394 . S
C2562 C2568 1.465 . S
C2563 C2558 1.399 . S
C2563 C2562 1.394 . S
C2563 C2564 1.516 . S
C2564 C2563 1.516 . S
C2564 C2565 1.502 . S
C2564 C2566 1.561 . S
C2564 C2567 1.526 . S
C2565 H2549 0.959 . S
C2565 H2550 0.959 . S
C2565 H2551 0.961 . S
C2565 C2564 1.502 . S
C2566 H2552 0.960 . S
C2566 H2553 0.961 . S
C2566 H2554 0.959 . S
C2566 C2564 1.561 . S
C2567 C2564 1.526 . S
C2567 C2568 1.396 . S
C2567 C2572 1.390 . S
C2568 C2562 1.465 . S
C2568 C2567 1.396 . S
C2568 C2569 1.399 . S
C2569 H2555 0.929 . S
C2569 C2568 1.399 . S
C2569 C2570 1.385 . S
C2570 H2556 0.931 . S
C2570 C2569 1.385 . S
C2570 C2571 1.389 . S
C2571 C2570 1.389 . S
C2571 C2572 1.387 . S
C2572 H2557 0.930 . S
C2572 C2567 1.390 . S
C2572 C2571 1.387 . S
H2573 C2585 0.930 . S
H2574 C2587 0.930 . S
H2575 C2588 0.930 . S
H2576 C2592 0.959 . S
H2577 C2592 0.959 . S
H2578 C2592 0.961 . S
H2579 C2593 0.960 . S
H2580 C2593 0.961 . S
H2581 C2593 0.959 . S
H2582 C2596 0.929 . S
H2583 C2597 0.931 . S
H2584 C2599 0.930 . S
C2585 H2573 0.930 . S
C2585 C2586 1.399 . S
C2585 C2590 1.399 . S
C2586 C2585 1.399 . S
C2586 C2587 1.376 . S
C2587 H2574 0.930 . S
C2587 C2586 1.376 . S
C2587 C2588 1.388 . S
C2588 H2575 0.930 . S
C2588 C2587 1.388 . S
C2588 C2589 1.390 . S
C2589 C2588 1.390 . S
C2589 C2590 1.394 . S
C2589 C2595 1.465 . S
C2590 C2585 1.399 . S
C2590 C2589 1.394 . S
C2590 C2591 1.516 . S
C2591 C2590 1.516 . S
C2591 C2592 1.502 . S
C2591 C2593 1.561 . S
C2591 C2594 1.526 . S
C2592 H2576 0.959 . S
C2592 H2577 0.959 . S
C2592 H2578 0.961 . S
C2592 C2591 1.502 . S
C2593 H2579 0.960 . S
C2593 H2580 0.961 . S
C2593 H2581 0.959 . S
C2593 C2591 1.561 . S
C2594 C2591 1.526 . S
C2594 C2595 1.396 . S
C2594 C2599 1.390 . S
C2595 C2589 1.465 . S
C2595 C2594 1.396 . S
C2595 C2596 1.399 . S
C2596 H2582 0.929 . S
C2596 C2595 1.399 . S
C2596 C2597 1.385 . S
C2597 H2583 0.931 . S
C2597 C2596 1.385 . S
C2597 C2598 1.389 . S
C2598 C2597 1.389 . S
C2598 C2599 1.387 . S
C2599 H2584 0.930 . S
C2599 C2594 1.390 . S
C2599 C2598 1.387 . S
H2600 C2612 0.930 . S
H2601 C2614 0.930 . S
H2602 C2615 0.930 . S
H2603 C2619 0.959 . S
H2604 C2619 0.959 . S
H2605 C2619 0.961 . S
H2606 C2620 0.960 . S
H2607 C2620 0.961 . S
H2608 C2620 0.959 . S
H2609 C2623 0.929 . S
H2610 C2624 0.931 . S
H2611 C2626 0.930 . S
C2612 H2600 0.930 . S
C2612 C2613 1.399 . S
C2612 C2617 1.399 . S
C2613 C2612 1.399 . S
C2613 C2614 1.376 . S
C2614 H2601 0.930 . S
C2614 C2613 1.376 . S
C2614 C2615 1.388 . S
C2615 H2602 0.930 . S
C2615 C2614 1.388 . S
C2615 C2616 1.390 . S
C2616 C2615 1.390 . S
C2616 C2617 1.394 . S
C2616 C2622 1.465 . S
C2617 C2612 1.399 . S
C2617 C2616 1.394 . S
C2617 C2618 1.516 . S
C2618 C2617 1.516 . S
C2618 C2619 1.502 . S
C2618 C2620 1.561 . S
C2618 C2621 1.526 . S
C2619 H2603 0.959 . S
C2619 H2604 0.959 . S
C2619 H2605 0.961 . S
C2619 C2618 1.502 . S
C2620 H2606 0.960 . S
C2620 H2607 0.961 . S
C2620 H2608 0.959 . S
C2620 C2618 1.561 . S
C2621 C2618 1.526 . S
C2621 C2622 1.396 . S
C2621 C2626 1.390 . S
C2622 C2616 1.465 . S
C2622 C2621 1.396 . S
C2622 C2623 1.399 . S
C2623 H2609 0.929 . S
C2623 C2622 1.399 . S
C2623 C2624 1.385 . S
C2624 H2610 0.931 . S
C2624 C2623 1.385 . S
C2624 C2625 1.389 . S
C2625 C2624 1.389 . S
C2625 C2626 1.387 . S
C2626 H2611 0.930 . S
C2626 C2621 1.390 . S
C2626 C2625 1.387 . S
H2627 C2639 0.930 . S
H2628 C2641 0.930 . S
H2629 C2642 0.930 . S
H2630 C2646 0.959 . S
H2631 C2646 0.959 . S
H2632 C2646 0.961 . S
H2633 C2647 0.960 . S
H2634 C2647 0.961 . S
H2635 C2647 0.959 . S
H2636 C2650 0.929 . S
H2637 C2651 0.931 . S
H2638 C2653 0.930 . S
C2639 H2627 0.930 . S
C2639 C2640 1.399 . S
C2639 C2644 1.399 . S
C2640 C2639 1.399 . S
C2640 C2641 1.376 . S
C2641 H2628 0.930 . S
C2641 C2640 1.376 . S
C2641 C2642 1.388 . S
C2642 H2629 0.930 . S
C2642 C2641 1.388 . S
C2642 C2643 1.390 . S
C2643 C2642 1.390 . S
C2643 C2644 1.394 . S
C2643 C2649 1.465 . S
C2644 C2639 1.399 . S
C2644 C2643 1.394 . S
C2644 C2645 1.516 . S
C2645 C2644 1.516 . S
C2645 C2646 1.502 . S
C2645 C2647 1.561 . S
C2645 C2648 1.526 . S
C2646 H2630 0.959 . S
C2646 H2631 0.959 . S
C2646 H2632 0.961 . S
C2646 C2645 1.502 . S
C2647 H2633 0.960 . S
C2647 H2634 0.961 . S
C2647 H2635 0.959 . S
C2647 C2645 1.561 . S
C2648 C2645 1.526 . S
C2648 C2649 1.396 . S
C2648 C2653 1.390 . S
C2649 C2643 1.465 . S
C2649 C2648 1.396 . S
C2649 C2650 1.399 . S
C2650 H2636 0.929 . S
C2650 C2649 1.399 . S
C2650 C2651 1.385 . S
C2651 H2637 0.931 . S
C2651 C2650 1.385 . S
C2651 C2652 1.389 . S
C2652 C2651 1.389 . S
C2652 C2653 1.387 . S
C2653 H2638 0.930 . S
C2653 C2648 1.390 . S
C2653 C2652 1.387 . S
H2654 C2666 0.930 . S
H2655 C2668 0.930 . S
H2656 C2669 0.930 . S
H2657 C2673 0.959 . S
H2658 C2673 0.959 . S
H2659 C2673 0.961 . S
H2660 C2674 0.960 . S
H2661 C2674 0.961 . S
H2662 C2674 0.959 . S
H2663 C2677 0.929 . S
H2664 C2678 0.931 . S
H2665 C2680 0.930 . S
C2666 H2654 0.930 . S
C2666 C2667 1.399 . S
C2666 C2671 1.399 . S
C2667 C2666 1.399 . S
C2667 C2668 1.376 . S
C2668 H2655 0.930 . S
C2668 C2667 1.376 . S
C2668 C2669 1.388 . S
C2669 H2656 0.930 . S
C2669 C2668 1.388 . S
C2669 C2670 1.390 . S
C2670 C2669 1.390 . S
C2670 C2671 1.394 . S
C2670 C2676 1.465 . S
C2671 C2666 1.399 . S
C2671 C2670 1.394 . S
C2671 C2672 1.516 . S
C2672 C2671 1.516 . S
C2672 C2673 1.502 . S
C2672 C2674 1.561 . S
C2672 C2675 1.526 . S
C2673 H2657 0.959 . S
C2673 H2658 0.959 . S
C2673 H2659 0.961 . S
C2673 C2672 1.502 . S
C2674 H2660 0.960 . S
C2674 H2661 0.961 . S
C2674 H2662 0.959 . S
C2674 C2672 1.561 . S
C2675 C2672 1.526 . S
C2675 C2676 1.396 . S
C2675 C2680 1.390 . S
C2676 C2670 1.465 . S
C2676 C2675 1.396 . S
C2676 C2677 1.399 . S
C2677 H2663 0.929 . S
C2677 C2676 1.399 . S
C2677 C2678 1.385 . S
C2678 H2664 0.931 . S
C2678 C2677 1.385 . S
C2678 C2679 1.389 . S
C2679 C2678 1.389 . S
C2679 C2680 1.387 . S
C2680 H2665 0.930 . S
C2680 C2675 1.390 . S
C2680 C2679 1.387 . S
H2681 C2693 0.930 . S
H2682 C2695 0.930 . S
H2683 C2696 0.930 . S
H2684 C2700 0.959 . S
H2685 C2700 0.959 . S
H2686 C2700 0.961 . S
H2687 C2701 0.960 . S
H2688 C2701 0.961 . S
H2689 C2701 0.959 . S
H2690 C2704 0.929 . S
H2691 C2705 0.931 1_455 S
H2692 C2707 0.930 . S
C2693 H2681 0.930 . S
C2693 C2694 1.399 . S
C2693 C2698 1.399 . S
C2694 C2693 1.399 . S
C2694 C2695 1.376 . S
C2695 H2682 0.930 . S
C2695 C2694 1.376 . S
C2695 C2696 1.388 . S
C2696 H2683 0.930 . S
C2696 C2695 1.388 . S
C2696 C2697 1.390 . S
C2697 C2696 1.390 . S
C2697 C2698 1.394 . S
C2697 C2703 1.465 . S
C2698 C2693 1.399 . S
C2698 C2697 1.394 . S
C2698 C2699 1.516 . S
C2699 C2698 1.516 . S
C2699 C2700 1.502 . S
C2699 C2701 1.561 . S
C2699 C2702 1.526 . S
C2700 H2684 0.959 . S
C2700 H2685 0.959 . S
C2700 H2686 0.961 . S
C2700 C2699 1.502 . S
C2701 H2687 0.960 . S
C2701 H2688 0.961 . S
C2701 H2689 0.959 . S
C2701 C2699 1.561 . S
C2702 C2699 1.526 . S
C2702 C2703 1.396 . S
C2702 C2707 1.390 . S
C2703 C2697 1.465 . S
C2703 C2702 1.396 . S
C2703 C2704 1.399 . S
C2704 H2690 0.929 . S
C2704 C2703 1.399 . S
C2704 C2705 1.385 . S
C2705 H2691 0.931 1_655 S
C2705 C2704 1.385 . S
C2705 C2706 1.389 . S
C2706 C2705 1.389 . S
C2706 C2707 1.387 . S
C2707 H2692 0.930 . S
C2707 C2702 1.390 . S
C2707 C2706 1.387 . S
H2708 C2720 0.930 . S
H2709 C2722 0.930 . S
H2710 C2723 0.930 . S
H2711 C2727 0.959 . S
H2712 C2727 0.959 . S
H2713 C2727 0.961 . S
H2714 C2728 0.960 . S
H2715 C2728 0.961 . S
H2716 C2728 0.959 . S
H2717 C2731 0.929 . S
H2718 C2732 0.931 . S
H2719 C2734 0.930 . S
C2720 H2708 0.930 . S
C2720 C2721 1.399 . S
C2720 C2725 1.399 . S
C2721 C2720 1.399 . S
C2721 C2722 1.376 . S
C2722 H2709 0.930 . S
C2722 C2721 1.376 . S
C2722 C2723 1.388 . S
C2723 H2710 0.930 . S
C2723 C2722 1.388 . S
C2723 C2724 1.390 . S
C2724 C2723 1.390 . S
C2724 C2725 1.394 . S
C2724 C2730 1.465 . S
C2725 C2720 1.399 . S
C2725 C2724 1.394 . S
C2725 C2726 1.516 . S
C2726 C2725 1.516 . S
C2726 C2727 1.502 . S
C2726 C2728 1.561 . S
C2726 C2729 1.526 . S
C2727 H2711 0.959 . S
C2727 H2712 0.959 . S
C2727 H2713 0.961 . S
C2727 C2726 1.502 . S
C2728 H2714 0.960 . S
C2728 H2715 0.961 . S
C2728 H2716 0.959 . S
C2728 C2726 1.561 . S
C2729 C2726 1.526 . S
C2729 C2730 1.396 . S
C2729 C2734 1.390 . S
C2730 C2724 1.465 . S
C2730 C2729 1.396 . S
C2730 C2731 1.399 . S
C2731 H2717 0.929 . S
C2731 C2730 1.399 . S
C2731 C2732 1.385 . S
C2732 H2718 0.931 . S
C2732 C2731 1.385 . S
C2732 C2733 1.389 . S
C2733 C2732 1.389 . S
C2733 C2734 1.387 . S
C2734 H2719 0.930 . S
C2734 C2729 1.390 . S
C2734 C2733 1.387 . S
H2735 C2747 0.930 . S
H2736 C2749 0.930 . S
H2737 C2750 0.930 . S
H2738 C2754 0.959 . S
H2739 C2754 0.959 . S
H2740 C2754 0.961 . S
H2741 C2755 0.960 . S
H2742 C2755 0.961 . S
H2743 C2755 0.959 . S
H2744 C2758 0.929 . S
H2745 C2759 0.959 . S
H2746 C2761 0.930 . S
C2747 H2735 0.930 . S
C2747 C2748 1.399 . S
C2747 C2752 1.399 . S
C2748 C2747 1.399 . S
C2748 C2749 1.376 . S
C2749 H2736 0.930 . S
C2749 C2748 1.376 . S
C2749 C2750 1.388 . S
C2750 H2737 0.930 . S
C2750 C2749 1.388 . S
C2750 C2751 1.390 . S
C2751 C2750 1.390 . S
C2751 C2752 1.394 . S
C2751 C2757 1.465 . S
C2752 C2747 1.399 . S
C2752 C2751 1.394 . S
C2752 C2753 1.516 . S
C2753 C2752 1.516 . S
C2753 C2754 1.502 . S
C2753 C2755 1.561 . S
C2753 C2756 1.526 . S
C2754 H2738 0.959 . S
C2754 H2739 0.959 . S
C2754 H2740 0.961 . S
C2754 C2753 1.502 . S
C2755 H2741 0.960 . S
C2755 H2742 0.961 . S
C2755 H2743 0.959 . S
C2755 C2753 1.561 . S
C2756 C2753 1.526 . S
C2756 C2757 1.396 . S
C2756 C2761 1.390 . S
C2757 C2751 1.465 . S
C2757 C2756 1.396 . S
C2757 C2758 1.399 . S
C2758 H2744 0.929 . S
C2758 C2757 1.399 . S
C2758 C2759 1.385 . S
C2759 H2745 0.959 . S
C2759 C2758 1.385 . S
C2759 C2760 1.389 . S
C2760 C2759 1.389 . S
C2760 C2761 1.387 . S
C2761 H2746 0.930 . S
C2761 C2756 1.390 . S
C2761 C2760 1.387 . S
H2762 C2774 0.930 . S
H2763 C2776 0.930 . S
H2764 C2777 0.930 . S
H2765 C2781 0.959 . S
H2766 C2781 0.959 . S
H2767 C2781 0.961 . S
H2768 C2782 0.960 . S
H2769 C2782 0.961 . S
H2770 C2782 0.959 . S
H2771 C2785 0.929 . S
H2772 C2786 0.931 . S
H2773 C2788 0.930 . S
C2774 H2762 0.930 . S
C2774 C2775 1.399 . S
C2774 C2779 1.399 . S
C2775 C2774 1.399 . S
C2775 C2776 1.376 . S
C2776 H2763 0.930 . S
C2776 C2775 1.376 . S
C2776 C2777 1.388 . S
C2777 H2764 0.930 . S
C2777 C2776 1.388 . S
C2777 C2778 1.390 . S
C2778 C2777 1.390 . S
C2778 C2779 1.394 . S
C2778 C2784 1.465 . S
C2779 C2774 1.399 . S
C2779 C2778 1.394 . S
C2779 C2780 1.516 . S
C2780 C2779 1.516 . S
C2780 C2781 1.502 . S
C2780 C2782 1.561 . S
C2780 C2783 1.526 . S
C2781 H2765 0.959 . S
C2781 H2766 0.959 . S
C2781 H2767 0.961 . S
C2781 C2780 1.502 . S
C2782 H2768 0.960 . S
C2782 H2769 0.961 . S
C2782 H2770 0.959 . S
C2782 C2780 1.561 . S
C2783 C2780 1.526 . S
C2783 C2784 1.396 . S
C2783 C2788 1.390 . S
C2784 C2778 1.465 . S
C2784 C2783 1.396 . S
C2784 C2785 1.399 . S
C2785 H2771 0.929 . S
C2785 C2784 1.399 . S
C2785 C2786 1.385 . S
C2786 H2772 0.931 . S
C2786 C2785 1.385 . S
C2786 C2787 1.389 . S
C2787 C2786 1.389 . S
C2787 C2788 1.387 . S
C2788 H2773 0.930 . S
C2788 C2783 1.390 . S
C2788 C2787 1.387 . S
H2789 C2801 0.930 . S
H2790 C2803 0.930 . S
H2791 C2804 0.930 . S
H2792 C2808 0.959 . S
H2793 C2808 0.959 . S
H2794 C2808 0.961 . S
H2795 C2809 0.960 . S
H2796 C2809 0.961 . S
H2797 C2809 0.959 . S
H2798 C2812 0.929 . S
H2799 C2813 0.931 . S
H2800 C2815 0.930 . S
C2801 H2789 0.930 . S
C2801 C2802 1.399 . S
C2801 C2806 1.399 . S
C2802 C2801 1.399 . S
C2802 C2803 1.376 . S
C2803 H2790 0.930 . S
C2803 C2802 1.376 . S
C2803 C2804 1.388 . S
C2804 H2791 0.930 . S
C2804 C2803 1.388 . S
C2804 C2805 1.390 . S
C2805 C2804 1.390 . S
C2805 C2806 1.394 . S
C2805 C2811 1.465 . S
C2806 C2801 1.399 . S
C2806 C2805 1.394 . S
C2806 C2807 1.516 . S
C2807 C2806 1.516 . S
C2807 C2808 1.502 . S
C2807 C2809 1.561 . S
C2807 C2810 1.526 . S
C2808 H2792 0.959 . S
C2808 H2793 0.959 . S
C2808 H2794 0.961 . S
C2808 C2807 1.502 . S
C2809 H2795 0.960 . S
C2809 H2796 0.961 . S
C2809 H2797 0.959 . S
C2809 C2807 1.561 . S
C2810 C2807 1.526 . S
C2810 C2811 1.396 . S
C2810 C2815 1.390 . S
C2811 C2805 1.465 . S
C2811 C2810 1.396 . S
C2811 C2812 1.399 . S
C2812 H2798 0.929 . S
C2812 C2811 1.399 . S
C2812 C2813 1.385 . S
C2813 H2799 0.931 . S
C2813 C2812 1.385 . S
C2813 C2814 1.389 . S
C2814 C2813 1.389 . S
C2814 C2815 1.387 . S
C2815 H2800 0.930 . S
C2815 C2810 1.390 . S
C2815 C2814 1.387 . S
H2816 C2828 0.930 . S
H2817 C2830 0.930 . S
H2818 C2831 0.930 . S
H2819 C2835 0.959 . S
H2820 C2835 0.959 . S
H2821 C2835 0.961 . S
H2822 C2836 0.960 . S
H2823 C2836 0.961 . S
H2824 C2836 0.959 . S
H2825 C2839 0.929 . S
H2826 C2840 0.931 . S
H2827 C2842 0.930 . S
C2828 H2816 0.930 . S
C2828 C2829 1.399 . S
C2828 C2833 1.399 . S
C2829 C2828 1.399 . S
C2829 C2830 1.376 . S
C2830 H2817 0.930 . S
C2830 C2829 1.376 . S
C2830 C2831 1.388 . S
C2831 H2818 0.930 . S
C2831 C2830 1.388 . S
C2831 C2832 1.390 . S
C2832 C2831 1.390 . S
C2832 C2833 1.394 . S
C2832 C2838 1.465 . S
C2833 C2828 1.399 . S
C2833 C2832 1.394 . S
C2833 C2834 1.516 . S
C2834 C2833 1.516 . S
C2834 C2835 1.502 . S
C2834 C2836 1.561 . S
C2834 C2837 1.526 . S
C2835 H2819 0.959 . S
C2835 H2820 0.959 . S
C2835 H2821 0.961 . S
C2835 C2834 1.502 . S
C2836 H2822 0.960 . S
C2836 H2823 0.961 . S
C2836 H2824 0.959 . S
C2836 C2834 1.561 . S
C2837 C2834 1.526 . S
C2837 C2838 1.396 . S
C2837 C2842 1.390 . S
C2838 C2832 1.465 . S
C2838 C2837 1.396 . S
C2838 C2839 1.399 . S
C2839 H2825 0.929 . S
C2839 C2838 1.399 . S
C2839 C2840 1.385 . S
C2840 H2826 0.931 . S
C2840 C2839 1.385 . S
C2840 C2841 1.389 . S
C2841 C2840 1.389 . S
C2841 C2842 1.387 . S
C2842 H2827 0.930 . S
C2842 C2837 1.390 . S
C2842 C2841 1.387 . S
H2843 C2855 0.930 . S
H2844 C2857 0.930 . S
H2845 C2858 0.930 . S
H2846 C2862 0.959 1_565 S
H2847 C2862 0.959 . S
H2848 C2862 0.961 1_565 S
H2849 C2863 0.960 . S
H2850 C2863 0.961 . S
H2851 C2863 0.959 . S
H2852 C2866 0.929 . S
H2853 C2867 0.931 . S
H2854 C2869 0.930 . S
C2855 H2843 0.930 . S
C2855 C2856 1.399 . S
C2855 C2860 1.399 . S
C2856 C2855 1.399 . S
C2856 C2857 1.376 . S
C2857 H2844 0.930 . S
C2857 C2856 1.376 . S
C2857 C2858 1.388 . S
C2858 H2845 0.930 . S
C2858 C2857 1.388 . S
C2858 C2859 1.390 . S
C2859 C2858 1.390 . S
C2859 C2860 1.394 . S
C2859 C2865 1.465 1_465 S
C2860 C2855 1.399 . S
C2860 C2859 1.394 . S
C2860 C2861 1.516 1_465 S
C2861 C2860 1.516 1_645 S
C2861 C2862 1.502 . S
C2861 C2863 1.561 1_655 S
C2861 C2864 1.526 . S
C2862 H2846 0.959 1_545 S
C2862 H2847 0.959 . S
C2862 H2848 0.961 1_545 S
C2862 C2861 1.502 . S
C2863 H2849 0.960 . S
C2863 H2850 0.961 . S
C2863 H2851 0.959 . S
C2863 C2861 1.561 1_455 S
C2864 C2861 1.526 . S
C2864 C2865 1.396 . S
C2864 C2869 1.390 . S
C2865 C2859 1.465 1_645 S
C2865 C2864 1.396 . S
C2865 C2866 1.399 . S
C2866 H2852 0.929 . S
C2866 C2865 1.399 . S
C2866 C2867 1.385 . S
C2867 H2853 0.931 . S
C2867 C2866 1.385 . S
C2867 C2868 1.389 . S
C2868 C2867 1.389 . S
C2868 C2869 1.387 . S
C2869 H2854 0.930 . S
C2869 C2864 1.390 . S
C2869 C2868 1.387 . S
H2870 C2882 0.930 . S
H2871 C2884 0.930 . S
H2872 C2885 0.930 . S
H2873 C2889 0.959 . S
H2874 C2889 0.959 . S
H2875 C2889 0.961 . S
H2876 C2890 0.960 . S
H2877 C2890 0.961 . S
H2878 C2890 0.959 . S
H2879 C2893 0.929 . S
H2880 C2894 0.931 . S
H2881 C2896 0.930 . S
C2882 H2870 0.930 . S
C2882 C2883 1.399 . S
C2882 C2887 1.399 . S
C2883 C2882 1.399 . S
C2883 C2884 1.376 . S
C2884 H2871 0.930 . S
C2884 C2883 1.376 . S
C2884 C2885 1.388 . S
C2885 H2872 0.930 . S
C2885 C2884 1.388 . S
C2885 C2886 1.390 . S
C2886 C2885 1.390 . S
C2886 C2887 1.394 . S
C2886 C2892 1.465 . S
C2887 C2882 1.399 . S
C2887 C2886 1.394 . S
C2887 C2888 1.516 . S
C2888 C2887 1.516 . S
C2888 C2889 1.502 . S
C2888 C2890 1.561 . S
C2888 C2891 1.526 . S
C2889 H2873 0.959 . S
C2889 H2874 0.959 . S
C2889 H2875 0.961 . S
C2889 C2888 1.502 . S
C2890 H2876 0.960 . S
C2890 H2877 0.961 . S
C2890 H2878 0.959 . S
C2890 C2888 1.561 . S
C2891 C2888 1.526 . S
C2891 C2892 1.396 . S
C2891 C2896 1.390 . S
C2892 C2886 1.465 . S
C2892 C2891 1.396 . S
C2892 C2893 1.399 . S
C2893 H2879 0.929 . S
C2893 C2892 1.399 . S
C2893 C2894 1.385 . S
C2894 H2880 0.931 . S
C2894 C2893 1.385 . S
C2894 C2895 1.389 . S
C2895 C2894 1.389 . S
C2895 C2896 1.387 . S
C2896 H2881 0.930 . S
C2896 C2891 1.390 . S
C2896 C2895 1.387 . S
H2897 C2909 0.930 1_554 S
H2898 C2911 0.930 . S
H2899 C2912 0.930 1_545 S
H2900 C2916 1.010 . S
H2901 C2916 0.959 . S
H2902 C2916 0.961 . S
H2903 C2917 0.960 . S
H2904 C2917 0.961 . S
H2905 C2917 0.959 . S
H2906 C2920 0.929 . S
H2907 C2921 0.931 1_556 S
H2908 C2923 0.930 . S
C2909 H2897 0.930 1_556 S
C2909 C2910 1.399 . S
C2909 C2914 1.399 1_556 S
C2910 C2909 1.399 . S
C2910 C2911 1.376 . S
C2911 H2898 0.930 . S
C2911 C2910 1.376 . S
C2911 C2912 1.388 . S
C2912 H2899 0.930 1_565 S
C2912 C2911 1.388 . S
C2912 C2913 1.390 . S
C2913 C2912 1.390 . S
C2913 C2914 1.394 1_556 S
C2913 C2919 1.465 1_565 S
C2914 C2909 1.399 1_554 S
C2914 C2913 1.394 1_554 S
C2914 C2915 1.516 . S
C2915 C2914 1.516 . S
C2915 C2916 1.502 . S
C2915 C2917 1.561 . S
C2915 C2918 1.526 1_565 S
C2916 H2900 1.010 . S
C2916 H2901 0.959 . S
C2916 H2902 0.961 . S
C2916 C2915 1.502 . S
C2917 H2903 0.960 . S
C2917 H2904 0.961 . S
C2917 H2905 0.959 . S
C2917 C2915 1.561 . S
C2918 C2915 1.526 1_545 S
C2918 C2919 1.396 1_554 S
C2918 C2923 1.390 . S
C2919 C2913 1.465 1_545 S
C2919 C2918 1.396 1_556 S
C2919 C2920 1.399 . S
C2920 H2906 0.929 . S
C2920 C2919 1.399 . S
C2920 C2921 1.385 1_556 S
C2921 H2907 0.931 1_554 S
C2921 C2920 1.385 1_554 S
C2921 C2922 1.389 . S
C2922 C2921 1.389 . S
C2922 C2923 1.387 . S
C2923 H2908 0.930 . S
C2923 C2918 1.390 . S
C2923 C2922 1.387 . S
H2924 C2936 0.930 . S
H2925 C2938 0.930 . S
H2926 C2939 0.930 . S
H2927 C2943 0.959 . S
H2928 C2943 0.959 . S
H2929 C2943 0.961 . S
H2930 C2944 0.960 . S
H2931 C2944 0.961 . S
H2932 C2944 0.959 . S
H2933 C2947 0.929 . S
H2934 C2948 0.931 . S
H2935 C2950 0.930 . S
C2936 H2924 0.930 . S
C2936 C2937 1.399 . S
C2936 C2941 1.399 . S
C2937 C2936 1.399 . S
C2937 C2938 1.376 . S
C2938 H2925 0.930 . S
C2938 C2937 1.376 . S
C2938 C2939 1.388 . S
C2939 H2926 0.930 . S
C2939 C2938 1.388 . S
C2939 C2940 1.390 . S
C2940 C2939 1.390 . S
C2940 C2941 1.394 . S
C2940 C2946 1.465 . S
C2941 C2936 1.399 . S
C2941 C2940 1.394 . S
C2941 C2942 1.516 . S
C2942 C2941 1.516 . S
C2942 C2943 1.502 . S
C2942 C2944 1.561 . S
C2942 C2945 1.526 . S
C2943 H2927 0.959 . S
C2943 H2928 0.959 . S
C2943 H2929 0.961 . S
C2943 C2942 1.502 . S
C2944 H2930 0.960 . S
C2944 H2931 0.961 . S
C2944 H2932 0.959 . S
C2944 C2942 1.561 . S
C2945 C2942 1.526 . S
C2945 C2946 1.396 . S
C2945 C2950 1.390 . S
C2946 C2940 1.465 . S
C2946 C2945 1.396 . S
C2946 C2947 1.399 . S
C2947 H2933 0.929 . S
C2947 C2946 1.399 . S
C2947 C2948 1.385 . S
C2948 H2934 0.931 . S
C2948 C2947 1.385 . S
C2948 C2949 1.389 . S
C2949 C2948 1.389 . S
C2949 C2950 1.387 . S
C2950 H2935 0.930 . S
C2950 C2945 1.390 . S
C2950 C2949 1.387 . S
H2951 C2963 0.930 . S
H2952 C2965 0.930 . S
H2953 C2966 0.930 . S
H2954 C2970 0.959 . S
H2955 C2970 0.959 . S
H2956 C2970 0.961 . S
H2957 C2971 0.960 . S
H2958 C2971 0.961 . S
H2959 C2971 0.959 . S
H2960 C2974 0.929 1_545 S
H2961 C2975 0.931 . S
H2962 C2977 0.930 . S
C2963 H2951 0.930 . S
C2963 C2964 1.399 . S
C2963 C2968 1.399 . S
C2964 C2963 1.399 . S
C2964 C2965 1.376 . S
C2965 H2952 0.930 . S
C2965 C2964 1.376 . S
C2965 C2966 1.388 . S
C2966 H2953 0.930 . S
C2966 C2965 1.388 . S
C2966 C2967 1.390 . S
C2967 C2966 1.390 . S
C2967 C2968 1.394 . S
C2967 C2973 1.465 1_545 S
C2968 C2963 1.399 . S
C2968 C2967 1.394 . S
C2968 C2969 1.516 1_545 S
C2969 C2968 1.516 1_565 S
C2969 C2970 1.502 . S
C2969 C2971 1.561 . S
C2969 C2972 1.526 . S
C2970 H2954 0.959 . S
C2970 H2955 0.959 . S
C2970 H2956 0.961 . S
C2970 C2969 1.502 . S
C2971 H2957 0.960 . S
C2971 H2958 0.961 . S
C2971 H2959 0.959 . S
C2971 C2969 1.561 . S
C2972 C2969 1.526 . S
C2972 C2973 1.396 . S
C2972 C2977 1.390 . S
C2973 C2967 1.465 1_565 S
C2973 C2972 1.396 . S
C2973 C2974 1.399 . S
C2974 H2960 0.929 1_565 S
C2974 C2973 1.399 . S
C2974 C2975 1.385 . S
C2975 H2961 0.931 . S
C2975 C2974 1.385 . S
C2975 C2976 1.389 . S
C2976 C2975 1.389 . S
C2976 C2977 1.387 . S
C2977 H2962 0.930 . S
C2977 C2972 1.390 . S
C2977 C2976 1.387 . S
H2978 C2990 0.930 . S
H2979 C2992 0.930 . S
H2980 C2993 0.930 . S
H2981 C2997 0.959 . S
H2982 C2997 0.959 . S
H2983 C2997 0.961 . S
H2984 C2998 0.960 . S
H2985 C2998 0.961 . S
H2986 C2998 0.959 . S
H2987 C3001 0.929 . S
H2988 C3002 0.931 . S
H2989 C3004 0.930 . S
C2990 H2978 0.930 . S
C2990 C2991 1.399 . S
C2990 C2995 1.399 . S
C2991 C2990 1.399 . S
C2991 C2992 1.376 . S
C2992 H2979 0.930 . S
C2992 C2991 1.376 . S
C2992 C2993 1.388 . S
C2993 H2980 0.930 . S
C2993 C2992 1.388 . S
C2993 C2994 1.390 . S
C2994 C2993 1.390 . S
C2994 C2995 1.394 . S
C2994 C3000 1.465 . S
C2995 C2990 1.399 . S
C2995 C2994 1.394 . S
C2995 C2996 1.516 . S
C2996 C2995 1.516 . S
C2996 C2997 1.502 . S
C2996 C2998 1.561 . S
C2996 C2999 1.526 . S
C2997 H2981 0.959 . S
C2997 H2982 0.959 . S
C2997 H2983 0.961 . S
C2997 C2996 1.502 . S
C2998 H2984 0.960 . S
C2998 H2985 0.961 . S
C2998 H2986 0.959 . S
C2998 C2996 1.561 . S
C2999 C2996 1.526 . S
C2999 C3000 1.396 . S
C2999 C3004 1.390 . S
C3000 C2994 1.465 . S
C3000 C2999 1.396 . S
C3000 C3001 1.399 . S
C3001 H2987 0.929 . S
C3001 C3000 1.399 . S
C3001 C3002 1.385 . S
C3002 H2988 0.931 . S
C3002 C3001 1.385 . S
C3002 C3003 1.389 . S
C3003 C3002 1.389 . S
C3003 C3004 1.387 . S
C3004 H2989 0.930 . S
C3004 C2999 1.390 . S
C3004 C3003 1.387 . S
H3005 C3017 0.930 . S
H3006 C3019 0.930 . S
H3007 C3020 0.930 . S
H3008 C3024 0.939 1_545 S
H3009 C3024 0.946 1_545 S
H3010 C3024 0.986 . S
H3011 C3025 0.960 . S
H3012 C3025 0.961 . S
H3013 C3025 0.959 1_556 S
H3014 C3028 0.929 . S
H3015 C3029 0.931 . S
H3016 C3031 0.930 1_554 S
C3017 H3005 0.930 . S
C3017 C3018 1.399 . S
C3017 C3022 1.399 . S
C3018 C3017 1.399 . S
C3018 C3019 1.376 1_554 S
C3019 H3006 0.930 . S
C3019 C3018 1.376 1_556 S
C3019 C3020 1.388 . S
C3020 H3007 0.930 . S
C3020 C3019 1.388 . S
C3020 C3021 1.390 . S
C3021 C3020 1.390 . S
C3021 C3022 1.394 1_556 S
C3021 C3027 1.465 1_565 S
C3022 C3017 1.399 . S
C3022 C3021 1.394 1_554 S
C3022 C3023 1.516 1_655 S
C3023 C3022 1.516 1_455 S
C3023 C3024 1.510 . S
C3023 C3025 1.561 . S
C3023 C3026 1.509 1_564 S
C3024 H3008 0.939 1_565 S
C3024 H3009 0.946 1_565 S
C3024 H3010 0.986 . S
C3024 C3023 1.510 . S
C3025 H3011 0.960 . S
C3025 H3012 0.961 . S
C3025 H3013 0.959 1_554 S
C3025 C3023 1.561 . S
C3026 C3023 1.509 1_546 S
C3026 C3027 1.410 1_455 S
C3026 C3031 1.394 . S
C3027 C3021 1.465 1_545 S
C3027 C3026 1.410 1_655 S
C3027 C3028 1.399 . S
C3028 H3014 0.929 . S
C3028 C3027 1.399 . S
C3028 C3029 1.385 1_655 S
C3029 H3015 0.931 . S
C3029 C3028 1.385 1_455 S
C3029 C3030 1.389 . S
C3030 C3029 1.389 . S
C3030 C3031 1.387 . S
C3031 H3016 0.930 1_556 S
C3031 C3026 1.394 . S
C3031 C3030 1.387 . S
H3032 C3044 0.930 . S
H3033 C3046 0.930 . S
H3034 C3047 0.930 . S
H3035 C3051 0.959 . S
H3036 C3051 0.959 . S
H3037 C3051 0.961 . S
H3038 C3052 0.960 . S
H3039 C3052 0.961 . S
H3040 C3052 0.959 . S
H3041 C3055 0.929 . S
H3042 C3056 0.931 . S
H3043 C3058 0.930 . S
C3044 H3032 0.930 . S
C3044 C3045 1.399 . S
C3044 C3049 1.399 . S
C3045 C3044 1.399 . S
C3045 C3046 1.376 . S
C3046 H3033 0.930 . S
C3046 C3045 1.376 . S
C3046 C3047 1.388 . S
C3047 H3034 0.930 . S
C3047 C3046 1.388 . S
C3047 C3048 1.390 . S
C3048 C3047 1.390 . S
C3048 C3049 1.394 . S
C3048 C3054 1.465 . S
C3049 C3044 1.399 . S
C3049 C3048 1.394 . S
C3049 C3050 1.516 . S
C3050 C3049 1.516 . S
C3050 C3051 1.502 . S
C3050 C3052 1.561 . S
C3050 C3053 1.526 . S
C3051 H3035 0.959 . S
C3051 H3036 0.959 . S
C3051 H3037 0.961 . S
C3051 C3050 1.502 . S
C3052 H3038 0.960 . S
C3052 H3039 0.961 . S
C3052 H3040 0.959 . S
C3052 C3050 1.561 . S
C3053 C3050 1.526 . S
C3053 C3054 1.396 . S
C3053 C3058 1.390 . S
C3054 C3048 1.465 . S
C3054 C3053 1.396 . S
C3054 C3055 1.399 . S
C3055 H3041 0.929 . S
C3055 C3054 1.399 . S
C3055 C3056 1.385 . S
C3056 H3042 0.931 . S
C3056 C3055 1.385 . S
C3056 C3057 1.389 . S
C3057 C3056 1.389 . S
C3057 C3058 1.387 . S
C3058 H3043 0.930 . S
C3058 C3053 1.390 . S
C3058 C3057 1.387 . S
H3059 C3071 0.930 . S
H3060 C3073 0.930 . S
H3061 C3074 0.930 . S
H3062 C3078 0.959 . S
H3063 C3078 0.959 . S
H3064 C3078 0.961 . S
H3065 C3079 0.960 . S
H3066 C3079 0.961 . S
H3067 C3079 0.959 . S
H3068 C3082 0.929 . S
H3069 C3083 0.931 . S
H3070 C3085 0.930 . S
C3071 H3059 0.930 . S
C3071 C3072 1.399 . S
C3071 C3076 1.399 . S
C3072 C3071 1.399 . S
C3072 C3073 1.376 . S
C3073 H3060 0.930 . S
C3073 C3072 1.376 . S
C3073 C3074 1.388 . S
C3074 H3061 0.930 . S
C3074 C3073 1.388 . S
C3074 C3075 1.390 . S
C3075 C3074 1.390 . S
C3075 C3076 1.394 . S
C3075 C3081 1.465 . S
C3076 C3071 1.399 . S
C3076 C3075 1.394 . S
C3076 C3077 1.516 . S
C3077 C3076 1.516 . S
C3077 C3078 1.502 . S
C3077 C3079 1.561 . S
C3077 C3080 1.526 . S
C3078 H3062 0.959 . S
C3078 H3063 0.959 . S
C3078 H3064 0.961 . S
C3078 C3077 1.502 . S
C3079 H3065 0.960 . S
C3079 H3066 0.961 . S
C3079 H3067 0.959 . S
C3079 C3077 1.561 . S
C3080 C3077 1.526 . S
C3080 C3081 1.396 . S
C3080 C3085 1.390 . S
C3081 C3075 1.465 . S
C3081 C3080 1.396 . S
C3081 C3082 1.399 . S
C3082 H3068 0.929 . S
C3082 C3081 1.399 . S
C3082 C3083 1.385 . S
C3083 H3069 0.931 . S
C3083 C3082 1.385 . S
C3083 C3084 1.389 . S
C3084 C3083 1.389 . S
C3084 C3085 1.387 . S
C3085 H3070 0.930 . S
C3085 C3080 1.390 . S
C3085 C3084 1.387 . S
H3086 C3098 0.930 . S
H3087 C3100 0.930 . S
H3088 C3101 0.930 . S
H3089 C3105 0.959 . S
H3090 C3105 0.959 . S
H3091 C3105 0.961 . S
H3092 C3106 0.960 . S
H3093 C3106 0.961 . S
H3094 C3106 0.959 . S
H3095 C3109 0.929 . S
H3096 C3110 0.931 . S
H3097 C3112 0.930 . S
C3098 H3086 0.930 . S
C3098 C3099 1.399 . S
C3098 C3103 1.399 . S
C3099 C3098 1.399 . S
C3099 C3100 1.376 . S
C3100 H3087 0.930 . S
C3100 C3099 1.376 . S
C3100 C3101 1.388 . S
C3101 H3088 0.930 . S
C3101 C3100 1.388 . S
C3101 C3102 1.390 . S
C3102 C3101 1.390 . S
C3102 C3103 1.394 . S
C3102 C3108 1.465 . S
C3103 C3098 1.399 . S
C3103 C3102 1.394 . S
C3103 C3104 1.516 . S
C3104 C3103 1.516 . S
C3104 C3105 1.502 . S
C3104 C3106 1.561 . S
C3104 C3107 1.526 . S
C3105 H3089 0.959 . S
C3105 H3090 0.959 . S
C3105 H3091 0.961 . S
C3105 C3104 1.502 . S
C3106 H3092 0.960 . S
C3106 H3093 0.961 . S
C3106 H3094 0.959 . S
C3106 C3104 1.561 . S
C3107 C3104 1.526 . S
C3107 C3108 1.396 . S
C3107 C3112 1.390 . S
C3108 C3102 1.465 . S
C3108 C3107 1.396 . S
C3108 C3109 1.399 . S
C3109 H3095 0.929 . S
C3109 C3108 1.399 . S
C3109 C3110 1.385 . S
C3110 H3096 0.931 . S
C3110 C3109 1.385 . S
C3110 C3111 1.389 . S
C3111 C3110 1.389 . S
C3111 C3112 1.387 . S
C3112 H3097 0.930 . S
C3112 C3107 1.390 . S
C3112 C3111 1.387 . S
H3113 C3125 0.930 . S
H3114 C3127 0.930 . S
H3115 C3128 0.930 . S
H3116 C3132 0.959 . S
H3117 C3132 0.959 . S
H3118 C3132 0.961 . S
H3119 C3133 0.960 . S
H3120 C3133 0.961 . S
H3121 C3133 0.959 . S
H3122 C3136 0.929 . S
H3123 C3137 0.931 . S
H3124 C3139 0.930 . S
C3125 H3113 0.930 . S
C3125 C3126 1.399 . S
C3125 C3130 1.399 . S
C3126 C3125 1.399 . S
C3126 C3127 1.376 . S
C3127 H3114 0.930 . S
C3127 C3126 1.376 . S
C3127 C3128 1.388 . S
C3128 H3115 0.930 . S
C3128 C3127 1.388 . S
C3128 C3129 1.390 . S
C3129 C3128 1.390 . S
C3129 C3130 1.394 . S
C3129 C3135 1.465 . S
C3130 C3125 1.399 . S
C3130 C3129 1.394 . S
C3130 C3131 1.516 . S
C3131 C3130 1.516 . S
C3131 C3132 1.502 . S
C3131 C3133 1.561 . S
C3131 C3134 1.526 . S
C3132 H3116 0.959 . S
C3132 H3117 0.959 . S
C3132 H3118 0.961 . S
C3132 C3131 1.502 . S
C3133 H3119 0.960 . S
C3133 H3120 0.961 . S
C3133 H3121 0.959 . S
C3133 C3131 1.561 . S
C3134 C3131 1.526 . S
C3134 C3135 1.396 . S
C3134 C3139 1.390 . S
C3135 C3129 1.465 . S
C3135 C3134 1.396 . S
C3135 C3136 1.399 . S
C3136 H3122 0.929 . S
C3136 C3135 1.399 . S
C3136 C3137 1.385 . S
C3137 H3123 0.931 . S
C3137 C3136 1.385 . S
C3137 C3138 1.389 . S
C3138 C3137 1.389 . S
C3138 C3139 1.387 . S
C3139 H3124 0.930 . S
C3139 C3134 1.390 . S
C3139 C3138 1.387 . S
H3140 C3152 0.918 1_554 S
H3141 C3154 0.930 . S
H3142 C3155 0.930 . S
H3143 C3159 0.959 1_556 S
H3144 C3159 0.959 . S
H3145 C3159 0.961 . S
H3146 C3160 0.960 . S
H3147 C3160 0.961 . S
H3148 C3160 0.959 . S
H3149 C3163 0.929 . S
H3150 C3164 0.939 . S
H3151 C3166 0.930 . S
C3152 H3140 0.918 1_556 S
C3152 C3153 1.399 . S
C3152 C3157 1.388 1_556 S
C3153 C3152 1.399 . S
C3153 C3154 1.376 . S
C3154 H3141 0.930 . S
C3154 C3153 1.376 . S
C3154 C3155 1.388 . S
C3155 H3142 0.930 . S
C3155 C3154 1.388 . S
C3155 C3156 1.390 . S
C3156 C3155 1.390 . S
C3156 C3157 1.376 1_556 S
C3156 C3162 1.470 . S
C3157 C3152 1.388 1_554 S
C3157 C3156 1.376 1_554 S
C3157 C3158 1.547 . S
C3158 C3157 1.547 . S
C3158 C3159 1.502 . S
C3158 C3160 1.561 . S
C3158 C3161 1.526 . S
C3159 H3143 0.959 1_554 S
C3159 H3144 0.959 . S
C3159 H3145 0.961 . S
C3159 C3158 1.502 . S
C3160 H3146 0.960 . S
C3160 H3147 0.961 . S
C3160 H3148 0.959 . S
C3160 C3158 1.561 . S
C3161 C3158 1.526 . S
C3161 C3162 1.387 1_554 S
C3161 C3166 1.390 . S
C3162 C3156 1.470 . S
C3162 C3161 1.387 1_556 S
C3162 C3163 1.402 . S
C3163 H3149 0.929 . S
C3163 C3162 1.402 . S
C3163 C3164 1.385 1_556 S
C3164 H3150 0.939 . S
C3164 C3163 1.385 1_554 S
C3164 C3165 1.389 . S
C3165 C3164 1.389 . S
C3165 C3166 1.387 . S
C3166 H3151 0.930 . S
C3166 C3161 1.390 . S
C3166 C3165 1.387 . S
H3167 C3179 0.930 . S
H3168 C3181 0.930 . S
H3169 C3182 0.917 1_455 S
H3170 C3186 0.959 . S
H3171 C3186 0.959 . S
H3172 C3186 0.961 . S
H3173 C3187 0.960 . S
H3174 C3187 0.961 . S
H3175 C3187 0.959 . S
H3176 C3190 0.929 . S
H3177 C3191 0.931 . S
H3178 C3193 0.930 . S
C3179 H3167 0.930 . S
C3179 C3180 1.399 . S
C3179 C3184 1.399 . S
C3180 C3179 1.399 . S
C3180 C3181 1.376 . S
C3181 H3168 0.930 . S
C3181 C3180 1.376 . S
C3181 C3182 1.388 . S
C3182 H3169 0.917 1_655 S
C3182 C3181 1.388 . S
C3182 C3183 1.390 . S
C3183 C3182 1.390 . S
C3183 C3184 1.394 . S
C3183 C3189 1.465 1_655 S
C3184 C3179 1.399 . S
C3184 C3183 1.394 . S
C3184 C3185 1.516 . S
C3185 C3184 1.516 . S
C3185 C3186 1.502 . S
C3185 C3187 1.561 1_655 S
C3185 C3188 1.526 1_655 S
C3186 H3170 0.959 . S
C3186 H3171 0.959 . S
C3186 H3172 0.961 . S
C3186 C3185 1.502 . S
C3187 H3173 0.960 . S
C3187 H3174 0.961 . S
C3187 H3175 0.959 . S
C3187 C3185 1.561 1_455 S
C3188 C3185 1.526 1_455 S
C3188 C3189 1.396 . S
C3188 C3193 1.390 . S
C3189 C3183 1.465 1_455 S
C3189 C3188 1.396 . S
C3189 C3190 1.399 . S
C3190 H3176 0.929 . S
C3190 C3189 1.399 . S
C3190 C3191 1.385 . S
C3191 H3177 0.931 . S
C3191 C3190 1.385 . S
C3191 C3192 1.389 . S
C3192 C3191 1.389 . S
C3192 C3193 1.387 . S
C3193 H3178 0.930 . S
C3193 C3188 1.390 . S
C3193 C3192 1.387 . S
H3194 C3206 0.940 . S
H3195 C3208 0.930 . S
H3196 C3209 0.930 . S
H3197 C3213 0.959 . S
H3198 C3213 0.959 1_556 S
H3199 C3213 0.961 . S
H3200 C3214 0.960 . S
H3201 C3214 0.961 . S
H3202 C3214 0.959 . S
H3203 C3217 0.931 1_554 S
H3204 C3218 0.931 . S
H3205 C3220 0.930 . S
C3206 H3194 0.940 . S
C3206 C3207 1.399 . S
C3206 C3211 1.399 . S
C3207 C3206 1.399 . S
C3207 C3208 1.376 . S
C3208 H3195 0.930 . S
C3208 C3207 1.376 . S
C3208 C3209 1.388 . S
C3209 H3196 0.930 . S
C3209 C3208 1.388 . S
C3209 C3210 1.390 . S
C3210 C3209 1.390 . S
C3210 C3211 1.394 . S
C3210 C3216 1.465 1_554 S
C3211 C3206 1.399 . S
C3211 C3210 1.394 . S
C3211 C3212 1.516 1_454 S
C3212 C3211 1.516 1_656 S
C3212 C3213 1.502 1_556 S
C3212 C3214 1.561 . S
C3212 C3215 1.526 . S
C3213 H3197 0.959 . S
C3213 H3198 0.959 1_554 S
C3213 H3199 0.961 . S
C3213 C3212 1.502 1_554 S
C3214 H3200 0.960 . S
C3214 H3201 0.961 . S
C3214 H3202 0.959 . S
C3214 C3212 1.561 . S
C3215 C3212 1.526 . S
C3215 C3216 1.396 1_655 S
C3215 C3220 1.390 . S
C3216 C3210 1.465 1_556 S
C3216 C3215 1.396 1_455 S
C3216 C3217 1.399 . S
C3217 H3203 0.931 1_556 S
C3217 C3216 1.399 . S
C3217 C3218 1.385 1_455 S
C3218 H3204 0.931 . S
C3218 C3217 1.385 1_655 S
C3218 C3219 1.389 . S
C3219 C3218 1.389 . S
C3219 C3220 1.387 . S
C3220 H3205 0.930 . S
C3220 C3215 1.390 . S
C3220 C3219 1.387 . S
H3221 C3233 0.930 . S
H3222 C3235 0.930 . S
H3223 C3236 0.930 . S
H3224 C3240 0.959 . S
H3225 C3240 0.959 . S
H3226 C3240 0.961 . S
H3227 C3241 0.960 . S
H3228 C3241 0.961 . S
H3229 C3241 0.959 . S
H3230 C3244 0.929 . S
H3231 C3245 0.931 . S
H3232 C3247 0.930 . S
C3233 H3221 0.930 . S
C3233 C3234 1.399 . S
C3233 C3238 1.399 . S
C3234 C3233 1.399 . S
C3234 C3235 1.376 . S
C3235 H3222 0.930 . S
C3235 C3234 1.376 . S
C3235 C3236 1.388 . S
C3236 H3223 0.930 . S
C3236 C3235 1.388 . S
C3236 C3237 1.390 . S
C3237 C3236 1.390 . S
C3237 C3238 1.394 . S
C3237 C3243 1.465 . S
C3238 C3233 1.399 . S
C3238 C3237 1.394 . S
C3238 C3239 1.516 . S
C3239 C3238 1.516 . S
C3239 C3240 1.502 . S
C3239 C3241 1.561 . S
C3239 C3242 1.526 . S
C3240 H3224 0.959 . S
C3240 H3225 0.959 . S
C3240 H3226 0.961 . S
C3240 C3239 1.502 . S
C3241 H3227 0.960 . S
C3241 H3228 0.961 . S
C3241 H3229 0.959 . S
C3241 C3239 1.561 . S
C3242 C3239 1.526 . S
C3242 C3243 1.396 . S
C3242 C3247 1.390 . S
C3243 C3237 1.465 . S
C3243 C3242 1.396 . S
C3243 C3244 1.399 . S
C3244 H3230 0.929 . S
C3244 C3243 1.399 . S
C3244 C3245 1.385 . S
C3245 H3231 0.931 . S
C3245 C3244 1.385 . S
C3245 C3246 1.389 . S
C3246 C3245 1.389 . S
C3246 C3247 1.387 . S
C3247 H3232 0.930 . S
C3247 C3242 1.390 . S
C3247 C3246 1.387 . S
C1101 C247 1.595 . S
C1113 C9 1.611 . S
C1128 C43 1.611 . S
C1140 C145 1.593 . S
C1155 C77 1.596 . S
C1167 C179 1.611 . S
C1182 C213 1.583 . S
C1194 C111 1.588 . S
C1209 C519 1.591 . S
C1221 C281 1.607 . S
C1236 C417 1.598 . S
C1248 C315 1.611 . S
C1263 C349 1.607 . S
C1275 C451 1.592 . S
C1290 C383 1.583 . S
C1302 C485 1.581 . S
C1317 C791 1.590 . S
C1329 C553 1.582 . S
C1344 C587 1.586 . S
C1356 C689 1.610 . S
C1371 C621 1.583 . S
C1383 C723 1.587 . S
C1398 C757 1.607 . S
C1410 C655 1.605 . S
C1425 C1063 1.588 . S
C1437 C825 1.580 . S
C1452 C859 1.608 . S
C1464 C961 1.610 . S
C1479 C995 1.585 . S
C1491 C893 1.580 . S
C1506 C1029 1.609 . S
C1518 C927 1.594 . S
C1533 C614 1.177 . S
C1545 C2 1.187 . S
C1560 C648 1.176 . S
C1572 C36 1.186 . S
C1587 C70 1.149 . S
C1599 C546 1.146 . S
C1614 C104 1.173 . S
C1626 C580 1.185 . S
C1641 C750 1.183 . S
C1653 C138 1.187 . S
C1668 C784 1.179 . S
C1680 C172 1.187 . S
C1695 C206 1.153 . S
C1707 C682 1.146 . S
C1722 C240 1.179 . S
C1734 C716 1.187 . S
C1749 C274 1.184 . S
C1761 C886 1.182 . S
C1776 C920 1.148 . S
C1788 C308 1.151 . S
C1803 C818 1.187 . S
C1815 C342 1.185 . S
C1830 C376 1.185 . S
C1842 C852 1.182 . S
C1857 C410 1.146 . S
C1869 C1022 1.146 . S
C1884 C1056 1.184 . S
C1896 C444 1.181 . S
C1911 C954 1.168 . S
C1923 C478 1.165 . S
C1938 C988 1.145 . S
C1950 C512 1.147 . S
C1965 C5 1.032 . S
C1977 C951 1.054 . S
C1992 C305 1.055 . S
C2004 C39 1.031 . S
C2019 C883 1.043 . S
C2031 C73 1.010 . S
C2046 C107 0.968 . S
C2058 C373 0.934 . S
C2073 C1019 0.931 . S
C2085 C141 0.969 . S
C2100 C509 1.056 . S
C2112 C175 1.034 . S
C2127 C209 1.026 . S
C2139 C1087 1.052 . S
C2154 C243 0.965 . S
C2166 C441 0.954 . S
C2181 C277 1.060 . S
C2193 C679 0.995 . S
C2208 C311 1.017 . S
C2220 C33 1.055 . S
C2235 C611 1.046 . S
C2247 C345 0.986 . S
C2262 C379 1.007 . S
C2274 C101 0.920 . S
C2289 C747 1.056 . S
C2301 C413 1.006 . S
C2316 C447 0.965 . S
C2328 C237 1.001 . S
C2343 C481 1.060 . S
C2355 C815 0.978 . S
C2370 C169 0.922 . S
C2382 C515 0.999 . S
C2397 C549 0.985 . S
C2409 C407 0.919 . S
C2424 C849 0.919 . S
C2436 C583 0.996 . S
C2451 C339 0.967 . S
C2463 C617 1.042 . S
C2478 C651 1.021 . S
C2490 C917 0.938 . S
C2505 C685 1.000 . S
C2517 C475 0.922 . S
C2532 C1053 1.057 . S
C2544 C719 1.038 . S
C2559 C753 1.032 . S
C2571 C543 0.951 . S
C2586 C985 0.920 . S
C2598 C787 0.999 . S
C2613 C135 0.965 . S
C2625 C821 0.970 . S
C2640 C577 1.035 . S
C2652 C855 1.047 . S
C2667 C67 1.057 . S
C2679 C889 1.015 . S
C2694 C645 0.957 . S
C2706 C923 1.055 . S
C2721 C957 1.059 . S
C2733 C203 1.002 . S
C2748 C781 0.995 . S
C2760 C991 1.059 . S
C2775 C271 1.055 . S
C2787 C1025 1.022 . S
C2802 C713 1.008 . S
C2814 C1059 1.057 . S
C2829 C20 1.442 . S
C2841 C836 1.507 . S
C2856 C54 1.485 . S
C2868 C326 1.482 . S
C2883 C904 1.470 . S
C2895 C88 1.474 . S
C2910 C394 1.513 . S
C2922 C122 1.444 . S
C2937 C972 1.513 . S
C2949 C156 1.446 . S
C2964 C462 1.442 . S
C2976 C190 1.513 . S
C2991 C1040 1.469 . S
C3003 C224 1.496 . S
C3018 C530 1.484 . S
C3030 C258 1.461 . S
C3045 C292 1.495 . S
C3057 C564 1.471 . S
C3072 C632 1.447 . S
C3084 C360 1.512 . S
C3099 C428 1.448 . S
C3111 C700 1.511 . S
C3126 C496 1.468 . S
C3138 C768 1.477 . S
C3153 C870 1.513 . S
C3165 C598 1.443 . S
C3180 C666 1.467 . S
C3192 C938 1.478 . S
C3207 C1006 1.511 . S
C3219 C734 1.442 . S
C3234 C1074 1.468 . S
C3246 C802 1.497 . S
