# Generated by pormake.
# Topology fny, (5)-cn, num edge types: 1
# Building blocks:
#     Node 0, Type 0, BuildingBlock: XOMCOT_clean_sbu_1, # of connection points: 5
#     Node 1, Type 0, BuildingBlock: XOMCOT_clean_sbu_1, # of connection points: 5
#     Node 2, Type 0, BuildingBlock: XOMCOT_clean_sbu_1, # of connection points: 5
#     Node 3, Type 0, BuildingBlock: XOMCOT_clean_sbu_1, # of connection points: 5
#     Node 4, Type 0, BuildingBlock: XOMCOT_clean_sbu_1, # of connection points: 5
#     Node 5, Type 0, BuildingBlock: XOMCOT_clean_sbu_1, # of connection points: 5
#     Node 6, Type 0, BuildingBlock: XOMCOT_clean_sbu_1, # of connection points: 5
#     Node 7, Type 0, BuildingBlock: XOMCOT_clean_sbu_1, # of connection points: 5
#     Node 8, Type 0, BuildingBlock: XOMCOT_clean_sbu_1, # of connection points: 5
#     Node 9, Type 0, BuildingBlock: XOMCOT_clean_sbu_1, # of connection points: 5
#     Node 10, Type 0, BuildingBlock: XOMCOT_clean_sbu_1, # of connection points: 5
#     Node 11, Type 0, BuildingBlock: XOMCOT_clean_sbu_1, # of connection points: 5
#     Edge 12, Type (0, 0), BuildingBlock: EZIPEK_clean_linker_0, # of connection points: 2
#     Edge 13, Type (0, 0), BuildingBlock: EZIPEK_clean_linker_0, # of connection points: 2
#     Edge 14, Type (0, 0), BuildingBlock: EZIPEK_clean_linker_0, # of connection points: 2
#     Edge 15, Type (0, 0), BuildingBlock: EZIPEK_clean_linker_0, # of connection points: 2
#     Edge 16, Type (0, 0), BuildingBlock: EZIPEK_clean_linker_0, # of connection points: 2
#     Edge 17, Type (0, 0), BuildingBlock: EZIPEK_clean_linker_0, # of connection points: 2
#     Edge 18, Type (0, 0), BuildingBlock: EZIPEK_clean_linker_0, # of connection points: 2
#     Edge 19, Type (0, 0), BuildingBlock: EZIPEK_clean_linker_0, # of connection points: 2
#     Edge 20, Type (0, 0), BuildingBlock: EZIPEK_clean_linker_0, # of connection points: 2
#     Edge 21, Type (0, 0), BuildingBlock: EZIPEK_clean_linker_0, # of connection points: 2
#     Edge 22, Type (0, 0), BuildingBlock: EZIPEK_clean_linker_0, # of connection points: 2
#     Edge 23, Type (0, 0), BuildingBlock: EZIPEK_clean_linker_0, # of connection points: 2
#     Edge 24, Type (0, 0), BuildingBlock: EZIPEK_clean_linker_0, # of connection points: 2
#     Edge 25, Type (0, 0), BuildingBlock: EZIPEK_clean_linker_0, # of connection points: 2
#     Edge 26, Type (0, 0), BuildingBlock: EZIPEK_clean_linker_0, # of connection points: 2
#     Edge 27, Type (0, 0), BuildingBlock: EZIPEK_clean_linker_0, # of connection points: 2
#     Edge 28, Type (0, 0), BuildingBlock: EZIPEK_clean_linker_0, # of connection points: 2
#     Edge 29, Type (0, 0), BuildingBlock: EZIPEK_clean_linker_0, # of connection points: 2
#     Edge 30, Type (0, 0), BuildingBlock: EZIPEK_clean_linker_0, # of connection points: 2
#     Edge 31, Type (0, 0), BuildingBlock: EZIPEK_clean_linker_0, # of connection points: 2
#     Edge 32, Type (0, 0), BuildingBlock: EZIPEK_clean_linker_0, # of connection points: 2
#     Edge 33, Type (0, 0), BuildingBlock: EZIPEK_clean_linker_0, # of connection points: 2
#     Edge 34, Type (0, 0), BuildingBlock: EZIPEK_clean_linker_0, # of connection points: 2
#     Edge 35, Type (0, 0), BuildingBlock: EZIPEK_clean_linker_0, # of connection points: 2
#     Edge 36, Type (0, 0), BuildingBlock: EZIPEK_clean_linker_0, # of connection points: 2
#     Edge 37, Type (0, 0), BuildingBlock: EZIPEK_clean_linker_0, # of connection points: 2
#     Edge 38, Type (0, 0), BuildingBlock: EZIPEK_clean_linker_0, # of connection points: 2
#     Edge 39, Type (0, 0), BuildingBlock: EZIPEK_clean_linker_0, # of connection points: 2
#     Edge 40, Type (0, 0), BuildingBlock: EZIPEK_clean_linker_0, # of connection points: 2
#     Edge 41, Type (0, 0), BuildingBlock: EZIPEK_clean_linker_0, # of connection points: 2
# Relax obj value: 0.298
# Max RMSD: 0.208
# Mean RMSD: 0.208
data_MOF--net-fny--node1-XOMCOT_clean_sbu_1--edge1-EZIPEK_clean_linker_0
_symmetry_space_group_name_H-M    P1
_symmetry_Int_Tables_number       1
_symmetry_cell_setting            triclinic
loop_
_symmetry_equiv_pos_as_xyz
'x, y, z'
_cell_length_a     46.51153
_cell_length_b     47.005101
_cell_length_c     18.101095
_cell_angle_alpha  91.286331
_cell_angle_beta   89.7255
_cell_angle_gamma 120.12508
loop_
_atom_site_label
_atom_site_type_symbol
_atom_site_fract_x
_atom_site_fract_y
_atom_site_fract_z
_atom_type_partial_charge
C0 C 0.30141 0.46704 0.27858 0.0
C1 C 0.27844 0.45504 0.2221 0.0
N2 N 0.286 0.48 0.17681 0.0
N3 N 0.3234 0.49918 0.26763 0.0
C4 C 0.31285 0.50651 0.20571 0.0
H5 H 0.30171 0.45317 0.32499 0.0
Co6 Co 0.35876 0.52571 0.32859 0.0
C7 C 0.41026 0.58034 0.22729 0.0
O8 O 0.43474 0.58273 0.26793 0.0
N9 N 0.39302 0.55096 0.39327 0.0
C10 C 0.42091 0.58783 0.48231 0.0
C11 C 0.40692 0.5831 0.41281 0.0
C12 C 0.39907 0.537 0.45061 0.0
N13 N 0.41557 0.55855 0.50534 0.0
O14 O 0.33276 0.5454 0.37247 0.0
H15 H 0.40328 0.60082 0.38331 0.0
H16 H 0.38664 0.51091 0.459 0.0
O17 O 0.37999 0.56 0.24667 0.0
C18 C 0.31609 0.5277 0.4275 0.0
O19 O 0.319 0.50191 0.44121 0.0
N20 N 0.38069 0.50217 0.29694 0.0
C21 C 0.41158 0.46389 0.28995 0.0
C22 C 0.41926 0.48869 0.23852 0.0
C23 C 0.40345 0.5076 0.24285 0.0
C24 C 0.3708 0.4759 0.34175 0.0
C25 C 0.38642 0.45723 0.34082 0.0
H26 H 0.40999 0.5264 0.20297 0.0
H27 H 0.35174 0.4705 0.38233 0.0
H28 H 0.32424 0.53071 0.18226 0.0
H29 H 0.25784 0.43018 0.21476 0.0
H30 H 0.43018 0.60984 0.51681 0.0
H31 H 0.43784 0.49388 0.19661 0.0
H32 H 0.37917 0.43792 0.38053 0.0
C33 C 0.84619 0.30357 0.74638 0.0
C34 C 0.84549 0.27938 0.70091 0.0
N35 N 0.8294 0.2784 0.63867 0.0
N36 N 0.83086 0.31763 0.71191 0.0
C37 C 0.82067 0.30154 0.64654 0.0
H38 H 0.85766 0.31083 0.80048 0.0
Co39 Co 0.8249 0.35146 0.74615 0.0
C40 C 0.84948 0.3963 0.60473 0.0
O41 O 0.87713 0.41969 0.63478 0.0
N42 N 0.81773 0.38464 0.77858 0.0
C43 C 0.8227 0.4334 0.79608 0.0
C44 C 0.83873 0.4172 0.77446 0.0
C45 C 0.78883 0.38164 0.80237 0.0
N46 N 0.79136 0.4112 0.81639 0.0
O47 O 0.81447 0.32995 0.848 0.0
H48 H 0.86448 0.42887 0.75883 0.0
H49 H 0.76706 0.35818 0.81369 0.0
O50 O 0.83044 0.37017 0.64152 0.0
C51 C 0.80784 0.33549 0.9144 0.0
O52 O 0.80946 0.36359 0.93092 0.0
N53 N 0.8718 0.37693 0.76954 0.0
C54 C 0.93953 0.40991 0.80727 0.0
C55 C 0.92875 0.39519 0.73712 0.0
C56 C 0.8948 0.37887 0.71931 0.0
C57 C 0.88228 0.39119 0.83828 0.0
C58 C 0.91594 0.40803 0.85793 0.0
H59 H 0.88692 0.36737 0.66513 0.0
H60 H 0.86482 0.3904 0.87828 0.0
H61 H 0.80719 0.30667 0.60533 0.0
H62 H 0.85586 0.26382 0.71222 0.0
H63 H 0.83461 0.45988 0.80249 0.0
H64 H 0.94645 0.39632 0.6965 0.0
H65 H 0.92349 0.41939 0.91244 0.0
C66 C 0.49488 0.76512 0.27487 0.0
C67 C 0.50642 0.75348 0.21866 0.0
N68 N 0.53641 0.77801 0.19877 0.0
N69 N 0.51744 0.79697 0.28956 0.0
C70 C 0.54309 0.80367 0.24406 0.0
H71 H 0.46997 0.75239 0.29669 0.0
Co72 Co 0.50818 0.82659 0.33869 0.0
C73 C 0.44363 0.80468 0.24062 0.0
O74 O 0.42037 0.78809 0.28911 0.0
N75 N 0.4998 0.85652 0.38591 0.0
C76 C 0.49351 0.89972 0.40575 0.0
C77 C 0.48443 0.87236 0.36146 0.0
C78 C 0.51826 0.87474 0.44389 0.0
N79 N 0.51546 0.90165 0.45705 0.0
O80 O 0.47741 0.79135 0.4076 0.0
H81 H 0.46967 0.86615 0.31172 0.0
H82 H 0.53453 0.86885 0.47393 0.0
O83 O 0.47432 0.8177 0.25945 0.0
C84 C 0.49372 0.78712 0.45978 0.0
O85 O 0.52633 0.80375 0.45605 0.0
N86 N 0.54064 0.86211 0.28467 0.0
C87 C 0.5848 0.92824 0.25968 0.0
C88 C 0.55771 0.90992 0.21166 0.0
C89 C 0.53555 0.87669 0.2255 0.0
C90 C 0.56924 0.87852 0.32535 0.0
C91 C 0.59145 0.91181 0.31455 0.0
H92 H 0.51317 0.86398 0.19245 0.0
H93 H 0.57283 0.86666 0.37208 0.0
H94 H 0.56439 0.82788 0.23678 0.0
H95 H 0.49232 0.73026 0.18886 0.0
H96 H 0.48483 0.91699 0.39963 0.0
H97 H 0.55216 0.9219 0.16812 0.0
H98 H 0.61226 0.92514 0.35228 0.0
C99 C 0.75765 0.56709 0.74804 0.0
C100 C 0.78605 0.58128 0.70615 0.0
N101 N 0.7831 0.55918 0.65374 0.0
N102 N 0.73737 0.53607 0.72284 0.0
C103 C 0.7535 0.53197 0.66511 0.0
H104 H 0.75194 0.57866 0.79362 0.0
Co105 Co 0.69559 0.50787 0.7588 0.0
C106 C 0.66655 0.46953 0.60716 0.0
O107 O 0.65646 0.48951 0.5862 0.0
N108 N 0.65279 0.47937 0.79077 0.0
C109 C 0.59783 0.45765 0.79652 0.0
C110 C 0.62491 0.47204 0.75184 0.0
C111 C 0.64188 0.46848 0.85861 0.0
N112 N 0.60882 0.45545 0.86295 0.0
O113 O 0.71499 0.4855 0.81914 0.0
H114 H 0.62426 0.47966 0.69666 0.0
H115 H 0.65778 0.47217 0.90551 0.0
O116 O 0.68309 0.47542 0.66854 0.0
C117 C 0.72464 0.50129 0.88228 0.0
O118 O 0.71841 0.52531 0.89419 0.0
N119 N 0.68018 0.53585 0.72312 0.0
C120 C 0.64985 0.57435 0.72361 0.0
C121 C 0.6621 0.56821 0.65727 0.0
C122 C 0.67854 0.54972 0.65875 0.0
C123 C 0.67251 0.54598 0.78797 0.0
C124 C 0.65666 0.56423 0.78942 0.0
H125 H 0.68974 0.54678 0.60894 0.0
H126 H 0.67717 0.5383 0.84006 0.0
H127 H 0.74373 0.50979 0.63122 0.0
H128 H 0.80683 0.60613 0.71212 0.0
H129 H 0.5725 0.45085 0.78286 0.0
H130 H 0.65883 0.57736 0.6055 0.0
H131 H 0.64891 0.56964 0.84192 0.0
C132 C 0.20648 0.75431 0.2603 0.0
C133 C 0.21259 0.77944 0.21283 0.0
N134 N 0.2343 0.78068 0.16179 0.0
N135 N 0.22464 0.74049 0.23876 0.0
C136 C 0.24128 0.75717 0.17922 0.0
H137 H 0.19084 0.74738 0.30865 0.0
Co138 Co 0.23171 0.70931 0.28129 0.0
C139 C 0.23066 0.66474 0.15773 0.0
O140 O 0.21081 0.64145 0.20258 0.0
N141 N 0.24154 0.67953 0.32118 0.0
C142 C 0.27359 0.65776 0.34317 0.0
C143 C 0.27051 0.68062 0.30395 0.0
C144 C 0.22764 0.65611 0.37167 0.0
N145 N 0.24668 0.6428 0.38571 0.0
O146 O 0.2779 0.74457 0.31408 0.0
H147 H 0.28878 0.69765 0.26605 0.0
H148 H 0.20536 0.65022 0.40193 0.0
O149 O 0.24278 0.69532 0.1794 0.0
C150 C 0.27548 0.75691 0.37721 0.0
O151 O 0.24541 0.7482 0.40026 0.0
N152 N 0.18519 0.6777 0.26717 0.0
C153 C 0.11532 0.63797 0.26595 0.0
C154 C 0.13315 0.64833 0.19967 0.0
C155 C 0.16799 0.66886 0.20148 0.0
C156 C 0.16782 0.66946 0.33175 0.0
C157 C 0.13317 0.64909 0.33253 0.0
H158 H 0.18091 0.67825 0.15013 0.0
H159 H 0.18084 0.67982 0.38343 0.0
H160 H 0.2596 0.75331 0.15074 0.0
H161 H 0.2028 0.796 0.21671 0.0
H162 H 0.29445 0.65358 0.34335 0.0
H163 H 0.12014 0.64136 0.14706 0.0
H164 H 0.12028 0.64283 0.38486 0.0
C165 C 0.49511 0.17376 0.73747 0.0
C166 C 0.47113 0.17281 0.69128 0.0
N167 N 0.48696 0.19527 0.63919 0.0
N168 N 0.52549 0.1964 0.71285 0.0
C169 C 0.51956 0.20917 0.65349 0.0
H170 H 0.49064 0.158 0.78378 0.0
Co171 Co 0.5681 0.21001 0.7432 0.0
C172 C 0.60229 0.19331 0.62337 0.0
O173 O 0.61051 0.17972 0.67574 0.0
N174 N 0.61091 0.22685 0.77111 0.0
C175 C 0.66114 0.2708 0.789 0.0
C176 C 0.63407 0.25574 0.7424 0.0
C177 C 0.62424 0.22451 0.83412 0.0
N178 N 0.65435 0.25094 0.84628 0.0
O179 O 0.55864 0.22175 0.84614 0.0
H180 H 0.62994 0.26672 0.69471 0.0
H181 H 0.61103 0.20629 0.87516 0.0
O182 O 0.58233 0.20416 0.63945 0.0
C183 C 0.54077 0.21486 0.9049 0.0
O184 O 0.51378 0.18591 0.90945 0.0
N185 N 0.55324 0.16383 0.7662 0.0
C186 C 0.51781 0.09501 0.78847 0.0
C187 C 0.52137 0.10769 0.71803 0.0
C188 C 0.53858 0.14169 0.70826 0.0
C189 C 0.55036 0.15166 0.83573 0.0
C190 C 0.53295 0.11743 0.84795 0.0
H191 H 0.53764 0.14991 0.65372 0.0
H192 H 0.55964 0.168 0.88322 0.0
H193 H 0.53893 0.22778 0.61993 0.0
H194 H 0.44452 0.1565 0.6942 0.0
H195 H 0.68251 0.29527 0.78474 0.0
H196 H 0.50955 0.09135 0.6708 0.0
H197 H 0.53037 0.1086 0.9037 0.0
C198 C 0.56335 0.72978 0.81027 0.0
C199 C 0.58201 0.75454 0.86146 0.0
N200 N 0.56115 0.75368 0.9142 0.0
N201 N 0.53132 0.7136 0.83225 0.0
C202 C 0.53078 0.72938 0.89442 0.0
H203 H 0.5729 0.72262 0.7632 0.0
Co204 Co 0.4961 0.67415 0.79918 0.0
C205 C 0.46429 0.63581 0.9405 0.0
O206 O 0.46654 0.61141 0.91027 0.0
N207 N 0.45969 0.63411 0.76857 0.0
C208 C 0.40693 0.59425 0.7625 0.0
C209 C 0.42793 0.62748 0.7712 0.0
C210 C 0.45714 0.6044 0.758 0.0
N211 N 0.4254 0.57957 0.75513 0.0
O212 O 0.47297 0.6979 0.7671 0.0
H213 H 0.42025 0.64532 0.78282 0.0
H214 H 0.47791 0.60032 0.75548 0.0
O215 O 0.47559 0.66301 0.90478 0.0
C216 C 0.48004 0.7043 0.69798 0.0
O217 O 0.4979 0.69313 0.66596 0.0
N218 N 0.52281 0.6547 0.81159 0.0
C219 C 0.56715 0.63146 0.79035 0.0
C220 C 0.55846 0.63645 0.86224 0.0
C221 C 0.53652 0.64882 0.87184 0.0
C222 C 0.53314 0.65205 0.74227 0.0
C223 C 0.55452 0.63985 0.73034 0.0
H224 H 0.53106 0.65402 0.92694 0.0
H225 H 0.52373 0.65857 0.69511 0.0
H226 H 0.5089 0.72202 0.92775 0.0
H227 H 0.60875 0.77031 0.8626 0.0
H228 H 0.38006 0.58197 0.76106 0.0
H229 H 0.56861 0.63102 0.91005 0.0
H230 H 0.56112 0.63691 0.67433 0.0
C231 C 0.85595 0.56507 0.27265 0.0
C232 C 0.85411 0.58168 0.33394 0.0
N233 N 0.85233 0.56483 0.39522 0.0
N234 N 0.85386 0.5369 0.29338 0.0
C235 C 0.85131 0.53716 0.36772 0.0
H236 H 0.85772 0.57269 0.21619 0.0
Co237 Co 0.85419 0.50632 0.2274 0.0
C238 C 0.84384 0.44827 0.31958 0.0
O239 O 0.86445 0.44536 0.27438 0.0
N240 N 0.85433 0.47574 0.1584 0.0
C241 C 0.8629 0.45955 0.04825 0.0
C242 C 0.87801 0.47898 0.11015 0.0
C243 C 0.82572 0.45226 0.12713 0.0
N244 N 0.82977 0.44439 0.05777 0.0
O245 O 0.80797 0.4946 0.19035 0.0
H246 H 0.904 0.49736 0.11383 0.0
H247 H 0.80159 0.44425 0.15044 0.0
O248 O 0.83753 0.47162 0.30759 0.0
C249 C 0.81127 0.50952 0.12901 0.0
O250 O 0.842 0.52988 0.10909 0.0
N251 N 0.89994 0.52301 0.25208 0.0
C252 C 0.96973 0.55854 0.26559 0.0
C253 C 0.95001 0.53512 0.31815 0.0
C254 C 0.915 0.51794 0.31113 0.0
C255 C 0.9189 0.54687 0.20309 0.0
C256 C 0.9536 0.56447 0.2081 0.0
H257 H 0.90039 0.50143 0.35412 0.0
H258 H 0.90681 0.55202 0.15872 0.0
H259 H 0.84737 0.51667 0.40043 0.0
H260 H 0.85218 0.60352 0.331 0.0
H261 H 0.87496 0.46097 0.99602 0.0
H262 H 0.96155 0.5306 0.36477 0.0
H263 H 0.96779 0.58279 0.16738 0.0
C264 C 0.31765 0.79285 0.81996 0.0
C265 C 0.29289 0.78862 0.86765 0.0
N266 N 0.30329 0.81691 0.90646 0.0
N267 N 0.34339 0.82377 0.82809 0.0
C268 C 0.33376 0.83815 0.88034 0.0
H269 H 0.3182 0.77375 0.7867 0.0
Co270 Co 0.3851 0.83456 0.79638 0.0
C271 C 0.42173 0.83097 0.93501 0.0
O272 O 0.44636 0.83414 0.89355 0.0
N273 N 0.42635 0.84365 0.76318 0.0
C274 C 0.4575 0.8376 0.67863 0.0
C275 C 0.42897 0.82156 0.71931 0.0
C276 C 0.45457 0.87247 0.75194 0.0
N277 N 0.47307 0.86966 0.6985 0.0
O278 O 0.37028 0.82911 0.68643 0.0
H279 H 0.40915 0.79648 0.70985 0.0
H280 H 0.45939 0.89614 0.77219 0.0
O281 O 0.39751 0.83266 0.90468 0.0
C282 C 0.34464 0.82426 0.64834 0.0
O283 O 0.32125 0.82758 0.68127 0.0
N284 N 0.40024 0.88211 0.80377 0.0
C285 C 0.43305 0.95173 0.80438 0.0
C286 C 0.43721 0.93513 0.86256 0.0
C287 C 0.42062 0.90067 0.86146 0.0
C288 C 0.39395 0.89815 0.74935 0.0
C289 C 0.41032 0.93283 0.74819 0.0
H290 H 0.42771 0.88971 0.90333 0.0
H291 H 0.37763 0.88467 0.70399 0.0
H292 H 0.35019 0.86206 0.90543 0.0
H293 H 0.27033 0.76565 0.87819 0.0
H294 H 0.46369 0.82744 0.63112 0.0
H295 H 0.45468 0.94877 0.90684 0.0
H296 H 0.40618 0.94475 0.70227 0.0
C297 C 0.47997 0.27463 0.27881 0.0
C298 C 0.46265 0.24869 0.32478 0.0
N299 N 0.48145 0.25448 0.38537 0.0
N300 N 0.50926 0.2965 0.31099 0.0
C301 C 0.50952 0.28347 0.37611 0.0
H302 H 0.47177 0.27726 0.22497 0.0
Co303 Co 0.53939 0.33458 0.26659 0.0
C304 C 0.5911 0.38159 0.37878 0.0
O305 O 0.5905 0.40526 0.34297 0.0
N306 N 0.56888 0.37217 0.21864 0.0
C307 C 0.6094 0.40391 0.14322 0.0
C308 C 0.5993 0.37965 0.19423 0.0
C309 C 0.56233 0.39378 0.18628 0.0
N310 N 0.58552 0.41189 0.13751 0.0
O311 O 0.55957 0.31021 0.21587 0.0
H312 H 0.6117 0.36606 0.20663 0.0
H313 H 0.53907 0.39342 0.18869 0.0
O314 O 0.57176 0.35119 0.35694 0.0
C315 C 0.54594 0.29957 0.15139 0.0
O316 O 0.52285 0.30619 0.13169 0.0
N317 N 0.51496 0.35464 0.30232 0.0
C318 C 0.47806 0.38676 0.31224 0.0
C319 C 0.49937 0.3894 0.37032 0.0
C320 C 0.51745 0.37275 0.36467 0.0
C321 C 0.49107 0.34851 0.25076 0.0
C322 C 0.47314 0.36497 0.25341 0.0
H323 H 0.53366 0.37518 0.40957 0.0
H324 H 0.48841 0.33334 0.20263 0.0
H325 H 0.52983 0.2946 0.41558 0.0
H326 H 0.43857 0.22711 0.31444 0.0
H327 H 0.63038 0.41192 0.10645 0.0
H328 H 0.50277 0.40499 0.4183 0.0
H329 H 0.45647 0.36164 0.2082 0.0
C330 C 0.19213 0.47065 0.81401 0.0
C331 C 0.20455 0.45781 0.86382 0.0
N332 N 0.22371 0.48206 0.91218 0.0
N333 N 0.20311 0.50248 0.83247 0.0
C334 C 0.22286 0.50889 0.89175 0.0
H335 H 0.17569 0.45747 0.76805 0.0
Co336 Co 0.19182 0.52921 0.7843 0.0
C337 C 0.20586 0.58754 0.88805 0.0
O338 O 0.18061 0.58795 0.85706 0.0
N339 N 0.17967 0.55538 0.73393 0.0
C340 C 0.1554 0.5726 0.65546 0.0
C341 C 0.14998 0.55083 0.71055 0.0
C342 C 0.20217 0.58141 0.69744 0.0
N343 N 0.18839 0.59021 0.64488 0.0
O344 O 0.23414 0.5454 0.72387 0.0
H345 H 0.12587 0.53101 0.72572 0.0
H346 H 0.22858 0.59132 0.70248 0.0
O347 O 0.21351 0.56579 0.86531 0.0
C348 C 0.22826 0.53279 0.65757 0.0
O349 O 0.19691 0.51435 0.63791 0.0
N350 N 0.15004 0.50838 0.83052 0.0
C351 C 0.08165 0.47492 0.85335 0.0
C352 C 0.10329 0.49851 0.90561 0.0
C353 C 0.13782 0.51495 0.89341 0.0
C354 C 0.12938 0.48303 0.78414 0.0
C355 C 0.09515 0.46624 0.79403 0.0
H356 H 0.1541 0.53344 0.93298 0.0
H357 H 0.13941 0.47783 0.73501 0.0
H358 H 0.2361 0.53245 0.92031 0.0
H359 H 0.19935 0.43267 0.8658 0.0
H360 H 0.13673 0.57157 0.61822 0.0
H361 H 0.09353 0.50514 0.95321 0.0
H362 H 0.07921 0.44784 0.7533 0.0
C363 C 0.76421 0.1749 0.27538 0.0
C364 C 0.78815 0.18509 0.32998 0.0
N365 N 0.78498 0.20671 0.3741 0.0
N366 N 0.74613 0.18981 0.28681 0.0
C367 C 0.75977 0.20943 0.34659 0.0
H368 H 0.7598 0.15727 0.23123 0.0
Co369 Co 0.71032 0.18425 0.23339 0.0
C370 C 0.66088 0.18396 0.34307 0.0
O371 O 0.6378 0.15934 0.30357 0.0
N372 N 0.67409 0.17886 0.17782 0.0
C373 C 0.63826 0.16623 0.0853 0.0
C374 C 0.65108 0.15381 0.13504 0.0
C375 C 0.67204 0.20512 0.15779 0.0
N376 N 0.65296 0.19888 0.09791 0.0
O377 O 0.73778 0.23062 0.19918 0.0
H378 H 0.64637 0.12892 0.13287 0.0
H379 H 0.68761 0.22962 0.17999 0.0
O380 O 0.69153 0.19695 0.32251 0.0
C381 C 0.75462 0.23375 0.14009 0.0
O382 O 0.75297 0.20692 0.11219 0.0
N383 N 0.68784 0.13936 0.25686 0.0
C384 C 0.65856 0.0713 0.26616 0.0
C385 C 0.66015 0.09045 0.32844 0.0
C386 C 0.67551 0.12474 0.32296 0.0
C387 C 0.68952 0.1213 0.19873 0.0
C388 C 0.6742 0.08719 0.20131 0.0
H389 H 0.67754 0.13922 0.37171 0.0
H390 H 0.70182 0.13357 0.14858 0.0
H391 H 0.75114 0.22506 0.37063 0.0
H392 H 0.80575 0.17674 0.33805 0.0
H393 H 0.62373 0.15337 0.03655 0.0
H394 H 0.64932 0.07893 0.38031 0.0
H395 H 0.67422 0.07328 0.15278 0.0
C396 C 0.40369 0.58236 0.08598 0.0
C397 C 0.41932 0.59842 0.15408 0.0
C398 C 0.4627 0.64466 0.08128 0.0
C399 C 0.44625 0.62874 1.01408 0.0
N400 N 0.39471 0.58868 0.95711 0.0
N401 N 0.45878 0.64957 0.21473 0.0
C402 C 0.41458 0.59976 1.01841 0.0
C403 C 0.44726 0.63114 0.15098 0.0
N404 N 0.38045 0.54967 0.08362 0.0
N405 N 0.49366 0.67183 0.07894 0.0
H406 H 0.4472 0.64121 0.26552 0.0
H407 H 0.47749 0.67416 0.21609 0.0
H408 H 0.50505 0.68261 0.02943 0.0
H409 H 0.50869 0.68244 0.12551 0.0
H410 H 0.37104 0.53633 0.03426 0.0
H411 H 0.37339 0.53487 0.12954 0.0
H412 H 0.37026 0.56921 0.95767 0.0
H413 H 0.4015 0.60194 0.90863 0.0
C414 C 0.8427 0.38888 0.46434 0.0
C415 C 0.839 0.40321 0.53096 0.0
C416 C 0.82458 0.43823 0.45627 0.0
C417 C 0.83418 0.42817 0.3905 0.0
N418 N 0.83462 0.38203 0.3311 0.0
N419 N 0.82487 0.44084 0.59042 0.0
C420 C 0.83806 0.39992 0.39433 0.0
C421 C 0.82921 0.42748 0.52667 0.0
N422 N 0.85221 0.36575 0.46779 0.0
N423 N 0.80819 0.45542 0.45143 0.0
H424 H 0.8251 0.43174 0.64203 0.0
H425 H 0.82237 0.46162 0.59238 0.0
H426 H 0.79964 0.45892 0.40135 0.0
H427 H 0.79859 0.46189 0.49661 0.0
H428 H 0.85951 0.35724 0.42191 0.0
H429 H 0.8546 0.35636 0.51762 0.0
H430 H 0.83441 0.35977 0.32995 0.0
H431 H 0.82739 0.38719 0.281 0.0
C432 C 0.42205 0.831 0.15044 0.0
C433 C 0.43424 0.80911 0.16328 0.0
C434 C 0.42807 0.79535 1.02938 0.0
C435 C 0.42137 0.8212 1.01492 0.0
N436 N 0.414 0.86521 0.06416 0.0
N437 N 0.44934 0.77057 0.11341 0.0
C438 C 0.41856 0.83922 0.07624 0.0
C439 C 0.43746 0.79144 0.10212 0.0
N440 N 0.41307 0.84355 0.20914 0.0
N441 N 0.42373 0.77328 0.97392 0.0
H442 H 0.45365 0.76489 0.16596 0.0
H443 H 0.45664 0.76036 0.07081 0.0
H444 H 0.41499 0.77406 0.92146 0.0
H445 H 0.4251 0.75212 0.98182 0.0
H446 H 0.40059 0.85661 0.20354 0.0
H447 H 0.41519 0.83826 0.26376 0.0
H448 H 0.41658 0.88221 0.10527 0.0
H449 H 0.40884 0.87055 1.01226 0.0
C450 C 0.60248 0.38854 0.51825 0.0
C451 C 0.61461 0.39282 0.44468 0.0
C452 C 0.66762 0.44081 0.48812 0.0
C453 C 0.65441 0.43848 0.56004 0.0
N454 N 0.6141 0.40435 0.64896 0.0
N455 N 0.6621 0.41598 0.36542 0.0
C456 C 0.62346 0.41018 0.57683 0.0
C457 C 0.6485 0.41655 0.43208 0.0
N458 N 0.57032 0.36511 0.53134 0.0
N459 N 0.69788 0.46733 0.47253 0.0
H460 H 0.64853 0.39821 0.32458 0.0
H461 H 0.68717 0.43079 0.35322 0.0
H462 H 0.71285 0.48434 0.51335 0.0
H463 H 0.7076 0.47309 0.41952 0.0
H464 H 0.55833 0.36304 0.5813 0.0
H465 H 0.55524 0.34817 0.49064 0.0
H466 H 0.59295 0.38332 0.66671 0.0
H467 H 0.62966 0.41926 0.69179 0.0
C468 C 0.2317 0.66327 1.01463 0.0
C469 C 0.23682 0.65268 0.08381 0.0
C470 C 0.22767 0.60106 1.02255 0.0
C471 C 0.22255 0.61141 0.95305 0.0
N472 N 0.23133 0.65752 0.88063 0.0
N473 N 0.25308 0.61774 0.14416 0.0
C474 C 0.22845 0.64427 0.94851 0.0
C475 C 0.23952 0.62377 0.08407 0.0
N476 N 0.22811 0.69029 1.01173 0.0
N477 N 0.21863 0.56895 0.03266 0.0
H478 H 0.26285 0.63437 0.18875 0.0
H479 H 0.25811 0.59849 0.14552 0.0
H480 H 0.20756 0.55083 0.99159 0.0
H481 H 0.21879 0.55964 0.08428 0.0
H482 H 0.22023 0.69673 0.96442 0.0
H483 H 0.23126 0.70532 0.05763 0.0
H484 H 0.23838 0.6821 0.87332 0.0
H485 H 0.23031 0.64483 0.83173 0.0
C486 C 0.66638 0.19894 0.48234 0.0
C487 C 0.64981 0.19393 0.4133 0.0
C488 C 0.60192 0.19145 0.48042 0.0
C489 C 0.61915 0.19778 0.54896 0.0
N490 N 0.67313 0.22055 0.60753 0.0
N491 N 0.60661 0.19719 0.34726 0.0
C492 C 0.65307 0.20568 0.54737 0.0
C493 C 0.61911 0.19397 0.41269 0.0
N494 N 0.69361 0.1953 0.48798 0.0
N495 N 0.5688 0.18137 0.47916 0.0
H496 H 0.61927 0.20083 0.29744 0.0
H497 H 0.58594 0.20021 0.34396 0.0
H498 H 0.55496 0.17846 0.52662 0.0
H499 H 0.55442 0.1731 0.43106 0.0
H500 H 0.70422 0.19529 0.5386 0.0
H501 H 0.70365 0.18896 0.44359 0.0
H502 H 0.69865 0.22937 0.60698 0.0
H503 H 0.66515 0.22781 0.65443 0.0
C504 C 0.56148 0.40057 1.01306 0.0
C505 C 0.57865 0.4234 0.07171 0.0
C506 C 0.59913 0.46849 0.9873 0.0
C507 C 0.59034 0.44513 0.92891 0.0
N508 N 0.56225 0.38918 0.88273 0.0
N509 N 0.60889 0.4787 0.11939 0.0
C510 C 0.57018 0.41121 0.94032 0.0
C511 C 0.59524 0.45747 0.06043 0.0
N512 N 0.53779 0.36885 1.02666 0.0
N513 N 0.6127 0.50096 0.97154 0.0
H514 H 0.60523 0.47036 0.17352 0.0
H515 H 0.62413 0.50402 0.11476 0.0
H516 H 0.61558 0.50882 0.91708 0.0
H517 H 0.61855 0.51941 1.01138 0.0
H518 H 0.52302 0.35215 0.98533 0.0
H519 H 0.52999 0.36009 0.07934 0.0
H520 H 0.55153 0.36392 0.88951 0.0
H521 H 0.56818 0.39629 0.82812 0.0
C522 C 0.21243 0.5921 0.44669 0.0
C523 C 0.24159 0.6229 0.44742 0.0
C524 C 0.23599 0.63121 0.57744 0.0
C525 C 0.20521 0.60138 0.57644 0.0
N526 N 0.17299 0.54687 0.5184 0.0
N527 N 0.28892 0.66313 0.51676 0.0
C528 C 0.1959 0.57955 0.51368 0.0
C529 C 0.25625 0.63931 0.51452 0.0
N530 N 0.19966 0.57613 0.38074 0.0
N531 N 0.24531 0.65177 0.63816 0.0
H532 H 0.30399 0.66897 0.4703 0.0
H533 H 0.30164 0.67428 0.56578 0.0
H534 H 0.22982 0.64707 0.68367 0.0
H535 H 0.26721 0.6744 0.64147 0.0
H536 H 0.17606 0.55543 0.37506 0.0
H537 H 0.21257 0.58497 0.33138 0.0
H538 H 0.16794 0.5301 0.47487 0.0
H539 H 0.16192 0.53552 0.5674 0.0
C540 C 0.64966 0.24388 0.04048 0.0
C541 C 0.66265 0.22245 0.04098 0.0
C542 C 0.69102 0.24416 0.92455 0.0
C543 C 0.67072 0.25782 0.9156 0.0
N544 N 0.6397 0.28104 0.96742 0.0
N545 N 0.70177 0.20694 0.99284 0.0
C546 C 0.65402 0.26215 0.97615 0.0
C547 C 0.68597 0.22464 0.98662 0.0
N548 N 0.63212 0.24525 0.09978 0.0
N549 N 0.71314 0.24831 0.87022 0.0
H550 H 0.6994 0.19298 0.0385 0.0
H551 H 0.71714 0.20564 0.95267 0.0
H552 H 0.71577 0.26247 0.82428 0.0
H553 H 0.73029 0.24031 0.87281 0.0
H554 H 0.62225 0.26076 0.10403 0.0
H555 H 0.62827 0.23117 0.14648 0.0
H556 H 0.62558 0.28458 1.00735 0.0
H557 H 0.64295 0.29389 0.91884 0.0
C558 C 0.38317 0.53106 0.69559 0.0
C559 C 0.41433 0.54627 0.72974 0.0
C560 C 0.43989 0.54706 0.61344 0.0
C561 C 0.41328 0.54878 0.58025 0.0
N562 N 0.35675 0.53837 0.58958 0.0
N563 N 0.4607 0.53757 0.72867 0.0
C564 C 0.38322 0.53818 0.62037 0.0
C565 C 0.43826 0.54211 0.69075 0.0
N566 N 0.35522 0.51652 0.73717 0.0
N567 N 0.46652 0.55176 0.57255 0.0
H568 H 0.45955 0.53606 0.78625 0.0
H569 H 0.47855 0.53364 0.70303 0.0
H570 H 0.46743 0.55524 0.51563 0.0
H571 H 0.48764 0.55301 0.59542 0.0
H572 H 0.33139 0.50482 0.71416 0.0
H573 H 0.35686 0.51472 0.79429 0.0
H574 H 0.33524 0.5328 0.61875 0.0
H575 H 0.35809 0.54737 0.53716 0.0
C576 C 0.80861 0.4617 0.95086 0.0
C577 C 0.80553 0.43688 1.00024 0.0
C578 C 0.75808 0.39655 0.92741 0.0
C579 C 0.772 0.4183 0.86863 0.0
N580 N 0.78583 0.47269 0.84044 0.0
N581 N 0.76816 0.38379 0.05108 0.0
C582 C 0.78664 0.45151 0.88923 0.0
C583 C 0.77671 0.40515 0.99456 0.0
N584 N 0.83303 0.4937 0.95992 0.0
N585 N 0.72898 0.36791 0.91618 0.0
H586 H 0.78283 0.38919 0.09842 0.0
H587 H 0.7462 0.36131 0.05195 0.0
H588 H 0.71698 0.3624 0.8648 0.0
H589 H 0.71629 0.35122 0.95756 0.0
H590 H 0.8374 0.51192 0.92255 0.0
H591 H 0.84979 0.50196 1.00372 0.0
H592 H 0.79775 0.49804 0.84914 0.0
H593 H 0.77157 0.46376 0.79205 0.0
C594 C 0.50495 0.93217 0.55078 0.0
C595 C 0.52695 0.92273 0.5224 0.0
C596 C 0.52796 0.9007 0.64127 0.0
C597 C 0.49554 0.89567 0.65201 0.0
N598 N 0.45297 0.90851 0.61415 0.0
N599 N 0.57511 0.92044 0.55681 0.0
C600 C 0.48427 0.91315 0.60826 0.0
C601 C 0.54468 0.91586 0.57507 0.0
N602 N 0.50108 0.95548 0.51661 0.0
N603 N 0.54108 0.88909 0.69144 0.0
H604 H 0.58568 0.93038 0.50591 0.0
H605 H 0.5897 0.91546 0.5916 0.0
H606 H 0.52847 0.87806 0.73986 0.0
H607 H 0.56412 0.89071 0.68572 0.0
H608 H 0.48551 0.96379 0.53707 0.0
H609 H 0.51598 0.96802 0.47175 0.0
H610 H 0.44388 0.91937 0.57863 0.0
H611 H 0.43498 0.89141 0.6485 0.0
C612 C 0.26902 0.47983 0.97524 0.0
C613 C 0.23833 0.47914 0.97854 0.0
C614 C 0.23948 0.47964 0.11325 0.0
C615 C 0.2693 0.47865 0.10986 0.0
N616 N 0.31045 0.473 0.04081 0.0
N617 N 0.19141 0.47347 0.04705 0.0
C618 C 0.28351 0.47731 0.04158 0.0
C619 C 0.22263 0.47755 0.04669 0.0
N620 N 0.28462 0.4841 0.9089 0.0
N621 N 0.22814 0.48376 0.18012 0.0
H622 H 0.17852 0.47176 0.9986 0.0
H623 H 0.17726 0.46926 0.09455 0.0
H624 H 0.24016 0.48522 0.22978 0.0
H625 H 0.20833 0.48799 0.18624 0.0
H626 H 0.30868 0.48816 0.90329 0.0
H627 H 0.27415 0.48573 0.85945 0.0
H628 H 0.32043 0.46897 0.99282 0.0
H629 H 0.32151 0.4712 0.08917 0.0
C630 C 0.84202 0.26991 0.51156 0.0
C631 C 0.82254 0.25716 0.57554 0.0
C632 C 0.78451 0.20638 0.50879 0.0
C633 C 0.8013 0.221 0.44284 0.0
N634 N 0.84536 0.26563 0.37812 0.0
N635 N 0.77531 0.21453 0.63767 0.0
C636 C 0.83033 0.25231 0.44345 0.0
C637 C 0.79409 0.2254 0.57532 0.0
N638 N 0.87134 0.29905 0.51666 0.0
N639 N 0.75898 0.17454 0.50656 0.0
H640 H 0.78208 0.22809 0.6873 0.0
H641 H 0.75229 0.19306 0.63965 0.0
H642 H 0.75137 0.16049 0.4576 0.0
H643 H 0.74695 0.1613 0.5532 0.0
H644 H 0.88809 0.30901 0.47345 0.0
H645 H 0.87996 0.31232 0.56647 0.0
H646 H 0.86469 0.28973 0.37293 0.0
H647 H 0.83737 0.25258 0.32792 0.0
C648 C 0.54782 0.79627 0.06934 0.0
C649 C 0.55183 0.7794 0.12909 0.0
C650 C 0.57367 0.75351 0.04543 0.0
C651 C 0.5684 0.76936 0.98572 0.0
N652 N 0.55986 0.81192 0.94093 0.0
N653 N 0.57545 0.74876 0.17851 0.0
C654 C 0.55926 0.79338 0.99846 0.0
C655 C 0.56744 0.7605 0.11845 0.0
N656 N 0.53051 0.81249 0.07869 0.0
N657 N 0.58197 0.7299 0.03134 0.0
H658 H 0.57056 0.7535 0.23235 0.0
H659 H 0.58914 0.73678 0.17545 0.0
H660 H 0.58733 0.72486 0.9783 0.0
H661 H 0.58214 0.7144 0.07132 0.0
H662 H 0.52379 0.82222 0.03535 0.0
H663 H 0.52027 0.814 0.12879 0.0
H664 H 0.55586 0.83175 0.94677 0.0
H665 H 0.56753 0.80908 0.88829 0.0
C666 C 0.81217 0.58849 0.54145 0.0
C667 C 0.80583 0.56439 0.59444 0.0
C668 C 0.84425 0.55097 0.52993 0.0
C669 C 0.84566 0.57115 0.47114 0.0
N670 N 0.85344 0.62535 0.45712 0.0
N671 N 0.8197 0.52645 0.64789 0.0
C672 C 0.83624 0.59494 0.4867 0.0
C673 C 0.82325 0.54679 0.59157 0.0
N674 N 0.79449 0.60447 0.54145 0.0
N675 N 0.86567 0.53911 0.52999 0.0
H676 H 0.8061 0.52472 0.69527 0.0
H677 H 0.82976 0.5111 0.64793 0.0
H678 H 0.88464 0.54667 0.49113 0.0
H679 H 0.86718 0.52503 0.57162 0.0
H680 H 0.7968 0.62041 0.49968 0.0
H681 H 0.77543 0.59938 0.57873 0.0
H682 H 0.84876 0.64431 0.47095 0.0
H683 H 0.87575 0.63285 0.42929 0.0
C684 C 0.28606 0.82135 0.10825 0.0
C685 C 0.25113 0.80387 0.10459 0.0
C686 C 0.25415 0.81107 0.97115 0.0
C687 C 0.28796 0.81947 0.97369 0.0
N688 N 0.33493 0.82766 0.04802 0.0
N689 N 0.20096 0.78374 0.03347 0.0
C690 C 0.30416 0.82443 0.04314 0.0
C691 C 0.23482 0.8001 0.03639 0.0
N692 N 0.30135 0.83171 0.17546 0.0
N693 N 0.24058 0.8125 0.9057 0.0
H694 H 0.18651 0.7761 0.081 0.0
H695 H 0.18739 0.77674 0.98423 0.0
H696 H 0.25471 0.82051 0.85766 0.0
H697 H 0.21659 0.8087 0.90084 0.0
H698 H 0.32705 0.84627 0.18176 0.0
H699 H 0.28762 0.82824 0.22367 0.0
H700 H 0.34586 0.82783 0.09827 0.0
H701 H 0.34789 0.82612 1.0027 0.0
C702 C 0.46499 0.22646 0.57929 0.0
C703 C 0.47366 0.20169 0.57504 0.0
C704 C 0.48058 0.20715 0.44176 0.0
C705 C 0.47405 0.23343 0.44668 0.0
N706 N 0.45287 0.26366 0.51299 0.0
N707 N 0.48161 0.16252 0.50455 0.0
C708 C 0.46353 0.24138 0.51338 0.0
C709 C 0.47824 0.18975 0.50638 0.0
N710 N 0.46052 0.23702 0.64696 0.0
N711 N 0.4912 0.20055 0.37651 0.0
H712 H 0.48033 0.14995 0.55241 0.0
H713 H 0.48305 0.15098 0.45609 0.0
H714 H 0.49318 0.21313 0.32831 0.0
H715 H 0.49968 0.18392 0.37067 0.0
H716 H 0.45759 0.25738 0.65534 0.0
H717 H 0.46086 0.22567 0.6956 0.0
H718 H 0.44269 0.26916 0.55863 0.0
H719 H 0.45211 0.27502 0.46472 0.0
C720 C 0.7354 0.47176 0.98952 0.0
C721 C 0.74693 0.49851 0.94008 0.0
C722 C 0.79118 0.53257 0.03074 0.0
C723 C 0.78371 0.50512 0.07502 0.0
N724 N 0.74602 0.44757 0.09674 0.0
N725 N 0.79193 0.55171 0.90787 0.0
C726 C 0.75495 0.47432 0.05451 0.0
C727 C 0.77669 0.52797 0.95929 0.0
N728 N 0.70531 0.44435 0.97572 0.0
N729 N 0.81137 0.5637 0.05839 0.0
H730 H 0.78337 0.54801 0.8535 0.0
H731 H 0.81513 0.57265 0.9166 0.0
H732 H 0.82016 0.56824 0.11279 0.0
H733 H 0.81558 0.58469 0.03086 0.0
H734 H 0.69337 0.42524 1.01261 0.0
H735 H 0.69157 0.44157 0.92796 0.0
H736 H 0.72864 0.42365 0.08003 0.0
H737 H 0.75618 0.44946 0.14888 0.0
C738 C 0.32305 0.80926 0.43803 0.0
C739 C 0.30325 0.77431 0.43495 0.0
C740 C 0.32192 0.77372 0.56342 0.0
C741 C 0.33695 0.80841 0.57088 0.0
N742 N 0.35272 0.85976 0.51375 0.0
N743 N 0.28131 0.72374 0.50036 0.0
C744 C 0.33808 0.82636 0.50724 0.0
C745 C 0.30261 0.7568 0.49885 0.0
N746 N 0.32701 0.82604 0.37474 0.0
N747 N 0.32585 0.75658 0.61857 0.0
H748 H 0.26859 0.70993 0.45369 0.0
H749 H 0.27436 0.71083 0.54925 0.0
H750 H 0.33978 0.76795 0.6662 0.0
H751 H 0.3182 0.73165 0.61359 0.0
H752 H 0.34275 0.85128 0.37022 0.0
H753 H 0.31633 0.81388 0.3247 0.0
H754 H 0.35178 0.87453 0.47298 0.0
H755 H 0.36508 0.87266 0.56194 0.0
C756 C 0.56251 0.29375 1.02132 0.0
C757 C 0.55519 0.28133 0.09423 0.0
C758 C 0.54924 0.22919 0.04359 0.0
C759 C 0.54981 0.23942 0.96952 0.0
N760 N 0.55414 0.28187 0.88957 0.0
N761 N 0.54025 0.23585 0.17409 0.0
C762 C 0.55625 0.27204 0.95882 0.0
C763 C 0.54866 0.24878 0.10531 0.0
N764 N 0.57568 0.32671 1.01186 0.0
N765 N 0.55023 0.20109 0.0552 0.0
H766 H 0.54055 0.24965 0.22032 0.0
H767 H 0.53122 0.21108 0.18439 0.0
H768 H 0.55195 0.18697 1.01199 0.0
H769 H 0.55305 0.19385 0.10735 0.0
H770 H 0.58461 0.33809 0.96149 0.0
H771 H 0.58099 0.34306 0.05644 0.0
H772 H 0.55476 0.30391 0.8796 0.0
H773 H 0.54869 0.26688 0.84246 0.0
C774 C 0.30307 0.56299 0.52 0.0
C775 C 0.2929 0.53332 0.4779 0.0
C776 C 0.24668 0.50431 0.56518 0.0
C777 C 0.25417 0.53413 0.60311 0.0
N778 N 0.28829 0.59324 0.60901 0.0
N779 N 0.24841 0.47845 0.44955 0.0
C780 C 0.28208 0.56394 0.57834 0.0
C781 C 0.26258 0.50498 0.49724 0.0
N782 N 0.33329 0.58992 0.50668 0.0
N783 N 0.22525 0.4748 0.59588 0.0
H784 H 0.25845 0.47856 0.39777 0.0
H785 H 0.22486 0.45816 0.45772 0.0
H786 H 0.21493 0.47301 0.64808 0.0
H787 H 0.22114 0.45237 0.57386 0.0
H788 H 0.34402 0.61092 0.54074 0.0
H789 H 0.34858 0.59042 0.46389 0.0
H790 H 0.30557 0.61593 0.58789 0.0
H791 H 0.27483 0.59475 0.65342 0.0
C792 C 0.75849 0.28465 0.08058 0.0
C793 C 0.77309 0.26515 0.0956 0.0
C794 C 0.81473 0.29564 0.99783 0.0
C795 C 0.79561 0.30968 0.97375 0.0
N796 N 0.74513 0.31168 0.98591 0.0
N797 N 0.81844 0.25516 0.0725 0.0
C798 C 0.76642 0.30257 1.01367 0.0
C799 C 0.80218 0.27156 0.05499 0.0
N800 N 0.73825 0.2875 0.1312 0.0
N801 N 0.84567 0.30661 0.96917 0.0
H802 H 0.81333 0.24151 0.12036 0.0
H803 H 0.83658 0.25476 0.03932 0.0
H804 H 0.85585 0.32473 0.92943 0.0
H805 H 0.86241 0.29999 0.989 0.0
H806 H 0.72854 0.30303 0.12467 0.0
H807 H 0.73578 0.27882 0.18454 0.0
H808 H 0.72244 0.30532 1.01027 0.0
H809 H 0.74839 0.3222 0.93424 0.0
C810 C 0.49235 0.7799 0.59912 0.0
C811 C 0.47862 0.76602 0.52778 0.0
C812 C 0.45394 0.71061 0.58142 0.0
C813 C 0.47067 0.72455 0.65006 0.0
N814 N 0.49742 0.77208 0.73042 0.0
N815 N 0.43882 0.71849 0.45753 0.0
C816 C 0.4869 0.75912 0.66092 0.0
C817 C 0.45665 0.73145 0.52134 0.0
N818 N 0.51189 0.81324 0.60699 0.0
N819 N 0.43648 0.67711 0.5732 0.0
H820 H 0.44018 0.73301 0.4136 0.0
H821 H 0.42065 0.69391 0.44998 0.0
H822 H 0.43239 0.66164 0.61739 0.0
H823 H 0.42668 0.66457 0.5233 0.0
H824 H 0.52696 0.82504 0.65281 0.0
H825 H 0.51333 0.82925 0.56636 0.0
H826 H 0.50694 0.79679 0.74467 0.0
H827 H 0.49375 0.75741 0.77583 0.0
C828 C 0.41094 0.40979 0.28563 0.0
C829 C 0.42939 0.44468 0.29223 0.0
C830 C 0.48051 0.44194 0.30712 0.0
C831 C 0.46138 0.40704 0.31038 0.0
N832 N 0.40723 0.35846 0.31895 0.0
N833 N 0.48123 0.49343 0.32608 0.0
C834 C 0.42621 0.39118 0.30443 0.0
C835 C 0.46408 0.46066 0.30769 0.0
N836 N 0.37908 0.39437 0.25896 0.0
N837 N 0.51427 0.4573 0.30014 0.0
H838 H 0.47014 0.50794 0.32948 0.0
H839 H 0.50574 0.50541 0.34515 0.0
H840 H 0.52733 0.44464 0.29702 0.0
H841 H 0.5289 0.48232 0.2899 0.0
H842 H 0.36558 0.36922 0.24655 0.0
H843 H 0.36748 0.40718 0.2417 0.0
H844 H 0.38139 0.34638 0.32221 0.0
H845 H 0.41744 0.34427 0.3355 0.0
C846 C 1.03067 0.47781 0.82224 0.0
C847 C 0.04486 0.46055 0.85547 0.0
C848 C 0.98925 0.41185 0.86765 0.0
C849 C 0.97558 0.4279 0.82718 0.0
N850 N 0.98243 0.47557 0.76455 0.0
N851 N 0.03873 0.41152 0.90941 0.0
C852 C 0.99605 0.46087 0.8047 0.0
C853 C 1.02434 0.42775 0.87884 0.0
N854 N 0.05042 0.51046 0.80743 0.0
N855 N 0.96856 0.38142 0.89549 0.0
H856 H 0.06404 0.4231 0.92214 0.0
H857 H 1.02613 0.38645 0.91961 0.0
H858 H 0.94297 0.36848 0.88572 0.0
H859 H 0.97619 0.36966 0.9319 0.0
H860 H 0.04146 0.52554 0.79012 0.0
H861 H 0.07597 0.52342 0.81743 0.0
H862 H 0.99623 0.49795 0.73857 0.0
H863 H 0.957 0.46455 0.75375 0.0
C864 C 0.65689 1.01686 0.2567 0.0
C865 C 0.63986 0.03465 0.26715 0.0
C866 C 0.58732 0.98275 0.27868 0.0
C867 C 0.60366 0.96495 0.25932 0.0
N868 N 0.65322 0.9654 0.21795 0.0
N869 N 0.58775 0.03427 0.27236 0.0
C870 C 0.63829 0.98213 0.24492 0.0
C871 C 0.60474 1.01754 0.27376 0.0
N872 N 0.69082 0.03302 0.26039 0.0
N873 N 0.55556 0.96667 0.30489 0.0
H874 H 0.59936 0.05972 0.26736 0.0
H875 H 0.56191 0.02255 0.26893 0.0
H876 H 0.54196 0.94128 0.31071 0.0
H877 H 0.54393 0.97882 0.32764 0.0
H878 H 0.70448 0.02098 0.26048 0.0
H879 H 0.70521 0.05832 0.27055 0.0
H880 H 0.67767 0.977 0.19941 0.0
H881 H 0.64023 0.94005 0.20762 0.0
C882 C 0.57435 0.5827 0.7633 0.0
C883 C 0.58906 0.61719 0.77525 0.0
C884 C 0.64387 0.62446 0.74312 0.0
C885 C 0.62886 0.59014 0.72798 0.0
N886 N 0.57947 0.53722 0.71188 0.0
N887 N 0.63675 0.67163 0.76739 0.0
C888 C 0.59391 0.5695 0.73432 0.0
C889 C 0.62356 0.6383 0.76235 0.0
N890 N 0.5418 0.56248 0.78153 0.0
N891 N 0.67773 0.6436 0.74161 0.0
H892 H 0.62305 0.68255 0.78486 0.0
H893 H 0.66068 0.68852 0.75046 0.0
H894 H 0.6931 0.63453 0.72427 0.0
H895 H 0.6907 0.66792 0.76081 0.0
H896 H 0.5303 0.53695 0.78167 0.0
H897 H 0.52674 0.57132 0.80237 0.0
H898 H 0.5539 0.52139 0.70813 0.0
H899 H 0.59315 0.52686 0.6907 0.0
C900 C 0.05846 0.63181 0.28611 0.0
C901 C 0.07793 0.61725 0.2664 0.0
C902 C 1.02642 0.56387 0.24618 0.0
C903 C 1.00712 0.57797 0.27082 0.0
N904 N 1.00506 0.62393 0.32637 0.0
N905 N 0.08077 0.56834 0.23893 0.0
C906 C 1.0233 0.61155 0.29437 0.0
C907 C 0.06196 0.58294 0.24959 0.0
N908 N 0.07346 0.66525 0.29429 0.0
N909 N 1.01077 0.53255 0.21703 0.0
H910 H 0.1067 0.58149 0.24013 0.0
H911 H 0.07081 0.54298 0.23464 0.0
H912 H 0.98496 0.51767 0.21499 0.0
H913 H 1.0232 0.52211 0.19014 0.0
H914 H 0.06039 0.67777 0.30053 0.0
H915 H 0.09899 0.68088 0.28845 0.0
H916 H 1.0156 0.64709 0.35193 0.0
H917 H 0.97939 0.60988 0.3333 0.0
C918 C 0.44291 1.00948 0.82844 0.0
C919 C 0.4545 0.98858 0.80039 0.0
C920 C 0.50915 0.03744 0.77615 0.0
C921 C 0.49671 0.0584 0.79838 0.0
N922 N 0.45029 0.06447 0.83632 0.0
N923 N 0.49724 0.98255 0.73875 0.0
C924 C 0.46319 0.04442 0.82228 0.0
C925 C 0.48728 1.00258 0.77185 0.0
N926 N 0.41272 0.99592 0.86244 0.0
N927 N 0.54222 0.0509 0.76096 0.0
H928 H 0.48227 0.95701 0.73583 0.0
H929 H 0.51921 0.9912 0.70919 0.0
H930 H 0.55885 0.07619 0.76362 0.0
H931 H 0.55379 0.03708 0.7519 0.0
H932 H 0.40433 1.00965 0.89162 0.0
H933 H 0.39689 0.97056 0.86596 0.0
H934 H 0.42515 0.05579 0.84545 0.0
H935 H 0.46435 0.09004 0.8337 0.0
loop_
_geom_bond_atom_site_label_1
_geom_bond_atom_site_label_2
_geom_bond_distance
_geom_bond_site_symmetry_2
_ccdc_geom_bond_type
C0 C1 1.351 . S
C0 N3 1.368 . S
C0 H5 0.931 . S
C1 C0 1.351 . S
C1 N2 1.373 . S
C1 H29 0.930 . S
N2 C1 1.373 . S
N2 C4 1.340 . S
N3 C0 1.368 . S
N3 C4 1.321 . S
N3 Co6 2.135 . S
C4 N2 1.340 . S
C4 N3 1.321 . S
C4 H28 0.930 . S
H5 C0 0.931 . S
Co6 N3 2.135 . S
Co6 N9 2.121 . S
Co6 O14 2.055 . S
Co6 O17 2.039 . S
Co6 N20 2.140 . S
C7 O8 1.227 . S
C7 O17 1.265 . S
O8 C7 1.227 . S
N9 Co6 2.121 . S
N9 C11 1.375 . S
N9 C12 1.313 . S
C10 C11 1.338 . S
C10 N13 1.377 . S
C10 H30 0.930 . S
C11 N9 1.375 . S
C11 C10 1.338 . S
C11 H15 0.931 . S
C12 N9 1.313 . S
C12 N13 1.344 . S
C12 H16 0.930 . S
N13 C10 1.377 . S
N13 C12 1.344 . S
O14 Co6 2.055 . S
O14 C18 1.253 . S
H15 C11 0.931 . S
H16 C12 0.930 . S
O17 Co6 2.039 . S
O17 C7 1.265 . S
C18 O14 1.253 . S
C18 O19 1.227 . S
O19 C18 1.227 . S
N20 Co6 2.140 . S
N20 C23 1.346 . S
N20 C24 1.345 . S
C21 C22 1.387 . S
C21 C25 1.391 . S
C22 C21 1.387 . S
C22 C23 1.369 . S
C22 H31 0.929 . S
C23 N20 1.346 . S
C23 C22 1.369 . S
C23 H26 0.928 . S
C24 N20 1.345 . S
C24 C25 1.371 . S
C24 H27 0.931 . S
C25 C21 1.391 . S
C25 C24 1.371 . S
C25 H32 0.930 . S
H26 C23 0.928 . S
H27 C24 0.931 . S
H28 C4 0.930 . S
H29 C1 0.930 . S
H30 C10 0.930 . S
H31 C22 0.929 . S
H32 C25 0.930 . S
C33 C34 1.351 . S
C33 N36 1.368 . S
C33 H38 0.931 . S
C34 C33 1.351 . S
C34 N35 1.373 . S
C34 H62 0.930 . S
N35 C34 1.373 . S
N35 C37 1.340 . S
N36 C33 1.368 . S
N36 C37 1.321 . S
N36 Co39 2.135 . S
C37 N35 1.340 . S
C37 N36 1.321 . S
C37 H61 0.930 . S
H38 C33 0.931 . S
Co39 N36 2.135 . S
Co39 N42 2.121 . S
Co39 O47 2.055 . S
Co39 O50 2.039 . S
Co39 N53 2.140 . S
C40 O41 1.227 . S
C40 O50 1.265 . S
O41 C40 1.227 . S
N42 Co39 2.121 . S
N42 C44 1.375 . S
N42 C45 1.313 . S
C43 C44 1.338 . S
C43 N46 1.377 . S
C43 H63 0.930 . S
C44 N42 1.375 . S
C44 C43 1.338 . S
C44 H48 0.931 . S
C45 N42 1.313 . S
C45 N46 1.344 . S
C45 H49 0.930 . S
N46 C43 1.377 . S
N46 C45 1.344 . S
O47 Co39 2.055 . S
O47 C51 1.253 . S
H48 C44 0.931 . S
H49 C45 0.930 . S
O50 Co39 2.039 . S
O50 C40 1.265 . S
C51 O47 1.253 . S
C51 O52 1.227 . S
O52 C51 1.227 . S
N53 Co39 2.140 . S
N53 C56 1.346 . S
N53 C57 1.345 . S
C54 C55 1.387 . S
C54 C58 1.391 . S
C55 C54 1.387 . S
C55 C56 1.369 . S
C55 H64 0.929 . S
C56 N53 1.346 . S
C56 C55 1.369 . S
C56 H59 0.928 . S
C57 N53 1.345 . S
C57 C58 1.371 . S
C57 H60 0.931 . S
C58 C54 1.391 . S
C58 C57 1.371 . S
C58 H65 0.930 . S
H59 C56 0.928 . S
H60 C57 0.931 . S
H61 C37 0.930 . S
H62 C34 0.930 . S
H63 C43 0.930 . S
H64 C55 0.929 . S
H65 C58 0.930 . S
C66 C67 1.351 . S
C66 N69 1.368 . S
C66 H71 0.931 . S
C67 C66 1.351 . S
C67 N68 1.373 . S
C67 H95 0.930 . S
N68 C67 1.373 . S
N68 C70 1.340 . S
N69 C66 1.368 . S
N69 C70 1.321 . S
N69 Co72 2.135 . S
C70 N68 1.340 . S
C70 N69 1.321 . S
C70 H94 0.930 . S
H71 C66 0.931 . S
Co72 N69 2.135 . S
Co72 N75 2.121 . S
Co72 O80 2.055 . S
Co72 O83 2.039 . S
Co72 N86 2.140 . S
C73 O74 1.227 . S
C73 O83 1.265 . S
O74 C73 1.227 . S
N75 Co72 2.121 . S
N75 C77 1.375 . S
N75 C78 1.313 . S
C76 C77 1.338 . S
C76 N79 1.377 . S
C76 H96 0.930 . S
C77 N75 1.375 . S
C77 C76 1.338 . S
C77 H81 0.931 . S
C78 N75 1.313 . S
C78 N79 1.344 . S
C78 H82 0.930 . S
N79 C76 1.377 . S
N79 C78 1.344 . S
O80 Co72 2.055 . S
O80 C84 1.253 . S
H81 C77 0.931 . S
H82 C78 0.930 . S
O83 Co72 2.039 . S
O83 C73 1.265 . S
C84 O80 1.253 . S
C84 O85 1.227 . S
O85 C84 1.227 . S
N86 Co72 2.140 . S
N86 C89 1.346 . S
N86 C90 1.345 . S
C87 C88 1.387 . S
C87 C91 1.391 . S
C88 C87 1.387 . S
C88 C89 1.369 . S
C88 H97 0.929 . S
C89 N86 1.346 . S
C89 C88 1.369 . S
C89 H92 0.928 . S
C90 N86 1.345 . S
C90 C91 1.371 . S
C90 H93 0.931 . S
C91 C87 1.391 . S
C91 C90 1.371 . S
C91 H98 0.930 . S
H92 C89 0.928 . S
H93 C90 0.931 . S
H94 C70 0.930 . S
H95 C67 0.930 . S
H96 C76 0.930 . S
H97 C88 0.929 . S
H98 C91 0.930 . S
C99 C100 1.351 . S
C99 N102 1.368 . S
C99 H104 0.931 . S
C100 C99 1.351 . S
C100 N101 1.373 . S
C100 H128 0.930 . S
N101 C100 1.373 . S
N101 C103 1.340 . S
N102 C99 1.368 . S
N102 C103 1.321 . S
N102 Co105 2.135 . S
C103 N101 1.340 . S
C103 N102 1.321 . S
C103 H127 0.930 . S
H104 C99 0.931 . S
Co105 N102 2.135 . S
Co105 N108 2.121 . S
Co105 O113 2.055 . S
Co105 O116 2.039 . S
Co105 N119 2.140 . S
C106 O107 1.227 . S
C106 O116 1.265 . S
O107 C106 1.227 . S
N108 Co105 2.121 . S
N108 C110 1.375 . S
N108 C111 1.313 . S
C109 C110 1.338 . S
C109 N112 1.377 . S
C109 H129 0.930 . S
C110 N108 1.375 . S
C110 C109 1.338 . S
C110 H114 0.931 . S
C111 N108 1.313 . S
C111 N112 1.344 . S
C111 H115 0.930 . S
N112 C109 1.377 . S
N112 C111 1.344 . S
O113 Co105 2.055 . S
O113 C117 1.253 . S
H114 C110 0.931 . S
H115 C111 0.930 . S
O116 Co105 2.039 . S
O116 C106 1.265 . S
C117 O113 1.253 . S
C117 O118 1.227 . S
O118 C117 1.227 . S
N119 Co105 2.140 . S
N119 C122 1.346 . S
N119 C123 1.345 . S
C120 C121 1.387 . S
C120 C124 1.391 . S
C121 C120 1.387 . S
C121 C122 1.369 . S
C121 H130 0.929 . S
C122 N119 1.346 . S
C122 C121 1.369 . S
C122 H125 0.928 . S
C123 N119 1.345 . S
C123 C124 1.371 . S
C123 H126 0.931 . S
C124 C120 1.391 . S
C124 C123 1.371 . S
C124 H131 0.930 . S
H125 C122 0.928 . S
H126 C123 0.931 . S
H127 C103 0.930 . S
H128 C100 0.930 . S
H129 C109 0.930 . S
H130 C121 0.929 . S
H131 C124 0.930 . S
C132 C133 1.351 . S
C132 N135 1.368 . S
C132 H137 0.931 . S
C133 C132 1.351 . S
C133 N134 1.373 . S
C133 H161 0.930 . S
N134 C133 1.373 . S
N134 C136 1.340 . S
N135 C132 1.368 . S
N135 C136 1.321 . S
N135 Co138 2.135 . S
C136 N134 1.340 . S
C136 N135 1.321 . S
C136 H160 0.930 . S
H137 C132 0.931 . S
Co138 N135 2.135 . S
Co138 N141 2.121 . S
Co138 O146 2.055 . S
Co138 O149 2.039 . S
Co138 N152 2.140 . S
C139 O140 1.227 . S
C139 O149 1.265 . S
O140 C139 1.227 . S
N141 Co138 2.121 . S
N141 C143 1.375 . S
N141 C144 1.313 . S
C142 C143 1.338 . S
C142 N145 1.377 . S
C142 H162 0.930 . S
C143 N141 1.375 . S
C143 C142 1.338 . S
C143 H147 0.931 . S
C144 N141 1.313 . S
C144 N145 1.344 . S
C144 H148 0.930 . S
N145 C142 1.377 . S
N145 C144 1.344 . S
O146 Co138 2.055 . S
O146 C150 1.253 . S
H147 C143 0.931 . S
H148 C144 0.930 . S
O149 Co138 2.039 . S
O149 C139 1.265 . S
C150 O146 1.253 . S
C150 O151 1.227 . S
O151 C150 1.227 . S
N152 Co138 2.140 . S
N152 C155 1.346 . S
N152 C156 1.345 . S
C153 C154 1.387 . S
C153 C157 1.391 . S
C154 C153 1.387 . S
C154 C155 1.369 . S
C154 H163 0.929 . S
C155 N152 1.346 . S
C155 C154 1.369 . S
C155 H158 0.928 . S
C156 N152 1.345 . S
C156 C157 1.371 . S
C156 H159 0.931 . S
C157 C153 1.391 . S
C157 C156 1.371 . S
C157 H164 0.930 . S
H158 C155 0.928 . S
H159 C156 0.931 . S
H160 C136 0.930 . S
H161 C133 0.930 . S
H162 C142 0.930 . S
H163 C154 0.929 . S
H164 C157 0.930 . S
C165 C166 1.351 . S
C165 N168 1.368 . S
C165 H170 0.931 . S
C166 C165 1.351 . S
C166 N167 1.373 . S
C166 H194 0.930 . S
N167 C166 1.373 . S
N167 C169 1.340 . S
N168 C165 1.368 . S
N168 C169 1.321 . S
N168 Co171 2.135 . S
C169 N167 1.340 . S
C169 N168 1.321 . S
C169 H193 0.930 . S
H170 C165 0.931 . S
Co171 N168 2.135 . S
Co171 N174 2.121 . S
Co171 O179 2.055 . S
Co171 O182 2.039 . S
Co171 N185 2.140 . S
C172 O173 1.227 . S
C172 O182 1.265 . S
O173 C172 1.227 . S
N174 Co171 2.121 . S
N174 C176 1.375 . S
N174 C177 1.313 . S
C175 C176 1.338 . S
C175 N178 1.377 . S
C175 H195 0.930 . S
C176 N174 1.375 . S
C176 C175 1.338 . S
C176 H180 0.931 . S
C177 N174 1.313 . S
C177 N178 1.344 . S
C177 H181 0.930 . S
N178 C175 1.377 . S
N178 C177 1.344 . S
O179 Co171 2.055 . S
O179 C183 1.253 . S
H180 C176 0.931 . S
H181 C177 0.930 . S
O182 Co171 2.039 . S
O182 C172 1.265 . S
C183 O179 1.253 . S
C183 O184 1.227 . S
O184 C183 1.227 . S
N185 Co171 2.140 . S
N185 C188 1.346 . S
N185 C189 1.345 . S
C186 C187 1.387 . S
C186 C190 1.391 . S
C187 C186 1.387 . S
C187 C188 1.369 . S
C187 H196 0.929 . S
C188 N185 1.346 . S
C188 C187 1.369 . S
C188 H191 0.928 . S
C189 N185 1.345 . S
C189 C190 1.371 . S
C189 H192 0.931 . S
C190 C186 1.391 . S
C190 C189 1.371 . S
C190 H197 0.930 . S
H191 C188 0.928 . S
H192 C189 0.931 . S
H193 C169 0.930 . S
H194 C166 0.930 . S
H195 C175 0.930 . S
H196 C187 0.929 . S
H197 C190 0.930 . S
C198 C199 1.351 . S
C198 N201 1.368 . S
C198 H203 0.931 . S
C199 C198 1.351 . S
C199 N200 1.373 . S
C199 H227 0.930 . S
N200 C199 1.373 . S
N200 C202 1.340 . S
N201 C198 1.368 . S
N201 C202 1.321 . S
N201 Co204 2.135 . S
C202 N200 1.340 . S
C202 N201 1.321 . S
C202 H226 0.930 . S
H203 C198 0.931 . S
Co204 N201 2.135 . S
Co204 N207 2.121 . S
Co204 O212 2.055 . S
Co204 O215 2.039 . S
Co204 N218 2.140 . S
C205 O206 1.227 . S
C205 O215 1.265 . S
O206 C205 1.227 . S
N207 Co204 2.121 . S
N207 C209 1.375 . S
N207 C210 1.313 . S
C208 C209 1.338 . S
C208 N211 1.377 . S
C208 H228 0.930 . S
C209 N207 1.375 . S
C209 C208 1.338 . S
C209 H213 0.931 . S
C210 N207 1.313 . S
C210 N211 1.344 . S
C210 H214 0.930 . S
N211 C208 1.377 . S
N211 C210 1.344 . S
O212 Co204 2.055 . S
O212 C216 1.253 . S
H213 C209 0.931 . S
H214 C210 0.930 . S
O215 Co204 2.039 . S
O215 C205 1.265 . S
C216 O212 1.253 . S
C216 O217 1.227 . S
O217 C216 1.227 . S
N218 Co204 2.140 . S
N218 C221 1.346 . S
N218 C222 1.345 . S
C219 C220 1.387 . S
C219 C223 1.391 . S
C220 C219 1.387 . S
C220 C221 1.369 . S
C220 H229 0.929 . S
C221 N218 1.346 . S
C221 C220 1.369 . S
C221 H224 0.928 . S
C222 N218 1.345 . S
C222 C223 1.371 . S
C222 H225 0.931 . S
C223 C219 1.391 . S
C223 C222 1.371 . S
C223 H230 0.930 . S
H224 C221 0.928 . S
H225 C222 0.931 . S
H226 C202 0.930 . S
H227 C199 0.930 . S
H228 C208 0.930 . S
H229 C220 0.929 . S
H230 C223 0.930 . S
C231 C232 1.351 . S
C231 N234 1.368 . S
C231 H236 0.931 . S
C232 C231 1.351 . S
C232 N233 1.373 . S
C232 H260 0.930 . S
N233 C232 1.373 . S
N233 C235 1.340 . S
N234 C231 1.368 . S
N234 C235 1.321 . S
N234 Co237 2.135 . S
C235 N233 1.340 . S
C235 N234 1.321 . S
C235 H259 0.930 . S
H236 C231 0.931 . S
Co237 N234 2.135 . S
Co237 N240 2.121 . S
Co237 O245 2.055 . S
Co237 O248 2.039 . S
Co237 N251 2.140 . S
C238 O239 1.227 . S
C238 O248 1.265 . S
O239 C238 1.227 . S
N240 Co237 2.121 . S
N240 C242 1.375 . S
N240 C243 1.313 . S
C241 C242 1.338 . S
C241 N244 1.377 . S
C241 H261 0.930 . S
C242 N240 1.375 . S
C242 C241 1.338 . S
C242 H246 0.931 . S
C243 N240 1.313 . S
C243 N244 1.344 . S
C243 H247 0.930 . S
N244 C241 1.377 . S
N244 C243 1.344 . S
O245 Co237 2.055 . S
O245 C249 1.253 . S
H246 C242 0.931 . S
H247 C243 0.930 . S
O248 Co237 2.039 . S
O248 C238 1.265 . S
C249 O245 1.253 . S
C249 O250 1.227 . S
O250 C249 1.227 . S
N251 Co237 2.140 . S
N251 C254 1.346 . S
N251 C255 1.345 . S
C252 C253 1.387 . S
C252 C256 1.391 . S
C253 C252 1.387 . S
C253 C254 1.369 . S
C253 H262 0.929 . S
C254 N251 1.346 . S
C254 C253 1.369 . S
C254 H257 0.928 . S
C255 N251 1.345 . S
C255 C256 1.371 . S
C255 H258 0.931 . S
C256 C252 1.391 . S
C256 C255 1.371 . S
C256 H263 0.930 . S
H257 C254 0.928 . S
H258 C255 0.931 . S
H259 C235 0.930 . S
H260 C232 0.930 . S
H261 C241 0.930 . S
H262 C253 0.929 . S
H263 C256 0.930 . S
C264 C265 1.351 . S
C264 N267 1.368 . S
C264 H269 0.931 . S
C265 C264 1.351 . S
C265 N266 1.373 . S
C265 H293 0.930 . S
N266 C265 1.373 . S
N266 C268 1.340 . S
N267 C264 1.368 . S
N267 C268 1.321 . S
N267 Co270 2.135 . S
C268 N266 1.340 . S
C268 N267 1.321 . S
C268 H292 0.930 . S
H269 C264 0.931 . S
Co270 N267 2.135 . S
Co270 N273 2.121 . S
Co270 O278 2.055 . S
Co270 O281 2.039 . S
Co270 N284 2.140 . S
C271 O272 1.227 . S
C271 O281 1.265 . S
O272 C271 1.227 . S
N273 Co270 2.121 . S
N273 C275 1.375 . S
N273 C276 1.313 . S
C274 C275 1.338 . S
C274 N277 1.377 . S
C274 H294 0.930 . S
C275 N273 1.375 . S
C275 C274 1.338 . S
C275 H279 0.931 . S
C276 N273 1.313 . S
C276 N277 1.344 . S
C276 H280 0.930 . S
N277 C274 1.377 . S
N277 C276 1.344 . S
O278 Co270 2.055 . S
O278 C282 1.253 . S
H279 C275 0.931 . S
H280 C276 0.930 . S
O281 Co270 2.039 . S
O281 C271 1.265 . S
C282 O278 1.253 . S
C282 O283 1.227 . S
O283 C282 1.227 . S
N284 Co270 2.140 . S
N284 C287 1.346 . S
N284 C288 1.345 . S
C285 C286 1.387 . S
C285 C289 1.391 . S
C286 C285 1.387 . S
C286 C287 1.369 . S
C286 H295 0.929 . S
C287 N284 1.346 . S
C287 C286 1.369 . S
C287 H290 0.928 . S
C288 N284 1.345 . S
C288 C289 1.371 . S
C288 H291 0.931 . S
C289 C285 1.391 . S
C289 C288 1.371 . S
C289 H296 0.930 . S
H290 C287 0.928 . S
H291 C288 0.931 . S
H292 C268 0.930 . S
H293 C265 0.930 . S
H294 C274 0.930 . S
H295 C286 0.929 . S
H296 C289 0.930 . S
C297 C298 1.351 . S
C297 N300 1.368 . S
C297 H302 0.931 . S
C298 C297 1.351 . S
C298 N299 1.373 . S
C298 H326 0.930 . S
N299 C298 1.373 . S
N299 C301 1.340 . S
N300 C297 1.368 . S
N300 C301 1.321 . S
N300 Co303 2.135 . S
C301 N299 1.340 . S
C301 N300 1.321 . S
C301 H325 0.930 . S
H302 C297 0.931 . S
Co303 N300 2.135 . S
Co303 N306 2.121 . S
Co303 O311 2.055 . S
Co303 O314 2.039 . S
Co303 N317 2.140 . S
C304 O305 1.227 . S
C304 O314 1.265 . S
O305 C304 1.227 . S
N306 Co303 2.121 . S
N306 C308 1.375 . S
N306 C309 1.313 . S
C307 C308 1.338 . S
C307 N310 1.377 . S
C307 H327 0.930 . S
C308 N306 1.375 . S
C308 C307 1.338 . S
C308 H312 0.931 . S
C309 N306 1.313 . S
C309 N310 1.344 . S
C309 H313 0.930 . S
N310 C307 1.377 . S
N310 C309 1.344 . S
O311 Co303 2.055 . S
O311 C315 1.253 . S
H312 C308 0.931 . S
H313 C309 0.930 . S
O314 Co303 2.039 . S
O314 C304 1.265 . S
C315 O311 1.253 . S
C315 O316 1.227 . S
O316 C315 1.227 . S
N317 Co303 2.140 . S
N317 C320 1.346 . S
N317 C321 1.345 . S
C318 C319 1.387 . S
C318 C322 1.391 . S
C319 C318 1.387 . S
C319 C320 1.369 . S
C319 H328 0.929 . S
C320 N317 1.346 . S
C320 C319 1.369 . S
C320 H323 0.928 . S
C321 N317 1.345 . S
C321 C322 1.371 . S
C321 H324 0.931 . S
C322 C318 1.391 . S
C322 C321 1.371 . S
C322 H329 0.930 . S
H323 C320 0.928 . S
H324 C321 0.931 . S
H325 C301 0.930 . S
H326 C298 0.930 . S
H327 C307 0.930 . S
H328 C319 0.929 . S
H329 C322 0.930 . S
C330 C331 1.351 . S
C330 N333 1.368 . S
C330 H335 0.931 . S
C331 C330 1.351 . S
C331 N332 1.373 . S
C331 H359 0.930 . S
N332 C331 1.373 . S
N332 C334 1.340 . S
N333 C330 1.368 . S
N333 C334 1.321 . S
N333 Co336 2.135 . S
C334 N332 1.340 . S
C334 N333 1.321 . S
C334 H358 0.930 . S
H335 C330 0.931 . S
Co336 N333 2.135 . S
Co336 N339 2.121 . S
Co336 O344 2.055 . S
Co336 O347 2.039 . S
Co336 N350 2.140 . S
C337 O338 1.227 . S
C337 O347 1.265 . S
O338 C337 1.227 . S
N339 Co336 2.121 . S
N339 C341 1.375 . S
N339 C342 1.313 . S
C340 C341 1.338 . S
C340 N343 1.377 . S
C340 H360 0.930 . S
C341 N339 1.375 . S
C341 C340 1.338 . S
C341 H345 0.931 . S
C342 N339 1.313 . S
C342 N343 1.344 . S
C342 H346 0.930 . S
N343 C340 1.377 . S
N343 C342 1.344 . S
O344 Co336 2.055 . S
O344 C348 1.253 . S
H345 C341 0.931 . S
H346 C342 0.930 . S
O347 Co336 2.039 . S
O347 C337 1.265 . S
C348 O344 1.253 . S
C348 O349 1.227 . S
O349 C348 1.227 . S
N350 Co336 2.140 . S
N350 C353 1.346 . S
N350 C354 1.345 . S
C351 C352 1.387 . S
C351 C355 1.391 . S
C352 C351 1.387 . S
C352 C353 1.369 . S
C352 H361 0.929 . S
C353 N350 1.346 . S
C353 C352 1.369 . S
C353 H356 0.928 . S
C354 N350 1.345 . S
C354 C355 1.371 . S
C354 H357 0.931 . S
C355 C351 1.391 . S
C355 C354 1.371 . S
C355 H362 0.930 . S
H356 C353 0.928 . S
H357 C354 0.931 . S
H358 C334 0.930 . S
H359 C331 0.930 . S
H360 C340 0.930 . S
H361 C352 0.929 . S
H362 C355 0.930 . S
C363 C364 1.351 . S
C363 N366 1.368 . S
C363 H368 0.931 . S
C364 C363 1.351 . S
C364 N365 1.373 . S
C364 H392 0.930 . S
N365 C364 1.373 . S
N365 C367 1.340 . S
N366 C363 1.368 . S
N366 C367 1.321 . S
N366 Co369 2.135 . S
C367 N365 1.340 . S
C367 N366 1.321 . S
C367 H391 0.930 . S
H368 C363 0.931 . S
Co369 N366 2.135 . S
Co369 N372 2.121 . S
Co369 O377 2.055 . S
Co369 O380 2.039 . S
Co369 N383 2.140 . S
C370 O371 1.227 . S
C370 O380 1.265 . S
O371 C370 1.227 . S
N372 Co369 2.121 . S
N372 C374 1.375 . S
N372 C375 1.313 . S
C373 C374 1.338 . S
C373 N376 1.377 . S
C373 H393 0.930 . S
C374 N372 1.375 . S
C374 C373 1.338 . S
C374 H378 0.931 . S
C375 N372 1.313 . S
C375 N376 1.344 . S
C375 H379 0.930 . S
N376 C373 1.377 . S
N376 C375 1.344 . S
O377 Co369 2.055 . S
O377 C381 1.253 . S
H378 C374 0.931 . S
H379 C375 0.930 . S
O380 Co369 2.039 . S
O380 C370 1.265 . S
C381 O377 1.253 . S
C381 O382 1.227 . S
O382 C381 1.227 . S
N383 Co369 2.140 . S
N383 C386 1.346 . S
N383 C387 1.345 . S
C384 C385 1.387 . S
C384 C388 1.391 . S
C385 C384 1.387 . S
C385 C386 1.369 . S
C385 H394 0.929 . S
C386 N383 1.346 . S
C386 C385 1.369 . S
C386 H389 0.928 . S
C387 N383 1.345 . S
C387 C388 1.371 . S
C387 H390 0.931 . S
C388 C384 1.391 . S
C388 C387 1.371 . S
C388 H395 0.930 . S
H389 C386 0.928 . S
H390 C387 0.931 . S
H391 C367 0.930 . S
H392 C364 0.930 . S
H393 C373 0.930 . S
H394 C385 0.929 . S
H395 C388 0.930 . S
C396 C397 1.363 1_556 S
C396 C402 1.379 . S
C396 N404 1.356 . S
C397 C396 1.363 1_554 S
C397 C403 1.363 . S
C398 C399 1.363 1_554 S
C398 C403 1.379 . S
C398 N405 1.356 . S
C399 C398 1.363 1_556 S
C399 C402 1.363 . S
N400 C402 1.356 . S
N400 H412 0.984 . S
N400 H413 0.985 . S
N401 C403 1.356 . S
N401 H406 0.984 . S
N401 H407 0.985 . S
C402 C396 1.379 . S
C402 C399 1.363 . S
C402 N400 1.356 . S
C403 C397 1.363 . S
C403 C398 1.379 . S
C403 N401 1.356 . S
N404 C396 1.356 . S
N404 H410 0.984 . S
N404 H411 0.984 1_556 S
N405 C398 1.356 . S
N405 H408 0.984 1_554 S
N405 H409 0.985 . S
H406 N401 0.984 . S
H407 N401 0.985 . S
H408 N405 0.984 1_556 S
H409 N405 0.985 . S
H410 N404 0.984 . S
H411 N404 0.984 1_554 S
H412 N400 0.984 . S
H413 N400 0.985 . S
C414 C415 1.363 . S
C414 C420 1.379 . S
C414 N422 1.356 . S
C415 C414 1.363 . S
C415 C421 1.363 . S
C416 C417 1.363 . S
C416 C421 1.379 . S
C416 N423 1.356 . S
C417 C416 1.363 . S
C417 C420 1.363 . S
N418 C420 1.356 . S
N418 H430 0.984 . S
N418 H431 0.985 . S
N419 C421 1.356 . S
N419 H424 0.984 . S
N419 H425 0.985 . S
C420 C414 1.379 . S
C420 C417 1.363 . S
C420 N418 1.356 . S
C421 C415 1.363 . S
C421 C416 1.379 . S
C421 N419 1.356 . S
N422 C414 1.356 . S
N422 H428 0.984 . S
N422 H429 0.984 . S
N423 C416 1.356 . S
N423 H426 0.984 . S
N423 H427 0.985 . S
H424 N419 0.984 . S
H425 N419 0.985 . S
H426 N423 0.984 . S
H427 N423 0.985 . S
H428 N422 0.984 . S
H429 N422 0.984 . S
H430 N418 0.984 . S
H431 N418 0.985 . S
C432 C433 1.363 . S
C432 C438 1.379 1_554 S
C432 N440 1.356 . S
C433 C432 1.363 . S
C433 C439 1.363 . S
C434 C435 1.363 . S
C434 C439 1.379 1_556 S
C434 N441 1.356 . S
C435 C434 1.363 . S
C435 C438 1.363 . S
N436 C438 1.356 . S
N436 H448 0.980 1_556 S
N436 H449 0.985 . S
N437 C439 1.356 . S
N437 H442 0.984 . S
N437 H443 0.980 1_554 S
C438 C432 1.379 1_556 S
C438 C435 1.363 . S
C438 N436 1.356 . S
C439 C433 1.363 . S
C439 C434 1.379 1_554 S
C439 N437 1.356 . S
N440 C432 1.356 . S
N440 H446 0.984 . S
N440 H447 0.984 . S
N441 C434 1.356 . S
N441 H444 0.984 . S
N441 H445 0.985 . S
H442 N437 0.984 . S
H443 N437 0.980 1_556 S
H444 N441 0.984 . S
H445 N441 0.985 . S
H446 N440 0.984 . S
H447 N440 0.984 . S
H448 N436 0.980 1_554 S
H449 N436 0.985 . S
C450 C451 1.363 . S
C450 C456 1.379 . S
C450 N458 1.356 . S
C451 C450 1.363 . S
C451 C457 1.363 . S
C452 C453 1.363 . S
C452 C457 1.379 . S
C452 N459 1.356 . S
C453 C452 1.363 . S
C453 C456 1.363 . S
N454 C456 1.356 . S
N454 H466 0.984 . S
N454 H467 0.985 . S
N455 C457 1.356 . S
N455 H460 0.984 . S
N455 H461 0.985 . S
C456 C450 1.379 . S
C456 C453 1.363 . S
C456 N454 1.356 . S
C457 C451 1.363 . S
C457 C452 1.379 . S
C457 N455 1.356 . S
N458 C450 1.356 . S
N458 H464 0.984 . S
N458 H465 0.984 . S
N459 C452 1.356 . S
N459 H462 0.984 . S
N459 H463 0.985 . S
H460 N455 0.984 . S
H461 N455 0.985 . S
H462 N459 0.984 . S
H463 N459 0.985 . S
H464 N458 0.984 . S
H465 N458 0.984 . S
H466 N454 0.984 . S
H467 N454 0.985 . S
C468 C469 1.363 . S
C468 C474 1.379 1_554 S
C468 N476 1.356 . S
C469 C468 1.363 . S
C469 C475 1.363 . S
C470 C471 1.363 . S
C470 C475 1.379 1_556 S
C470 N477 1.356 . S
C471 C470 1.363 . S
C471 C474 1.363 . S
N472 C474 1.356 . S
N472 H484 0.984 . S
N472 H485 0.985 . S
N473 C475 1.356 . S
N473 H478 0.984 . S
N473 H479 0.985 . S
C474 C468 1.379 1_556 S
C474 C471 1.363 . S
C474 N472 1.356 . S
C475 C469 1.363 . S
C475 C470 1.379 1_554 S
C475 N473 1.356 . S
N476 C468 1.356 . S
N476 H482 0.984 . S
N476 H483 0.984 . S
N477 C470 1.356 . S
N477 H480 0.984 . S
N477 H481 0.985 . S
H478 N473 0.984 . S
H479 N473 0.985 . S
H480 N477 0.984 . S
H481 N477 0.985 . S
H482 N476 0.984 . S
H483 N476 0.984 . S
H484 N472 0.984 . S
H485 N472 0.985 . S
C486 C487 1.363 . S
C486 C492 1.379 . S
C486 N494 1.356 . S
C487 C486 1.363 . S
C487 C493 1.363 . S
C488 C489 1.363 . S
C488 C493 1.379 . S
C488 N495 1.356 . S
C489 C488 1.363 . S
C489 C492 1.363 . S
N490 C492 1.356 . S
N490 H502 0.984 . S
N490 H503 0.985 . S
N491 C493 1.356 . S
N491 H496 0.984 . S
N491 H497 0.985 . S
C492 C486 1.379 . S
C492 C489 1.363 . S
C492 N490 1.356 . S
C493 C487 1.363 . S
C493 C488 1.379 . S
C493 N491 1.356 . S
N494 C486 1.356 . S
N494 H500 0.984 . S
N494 H501 0.984 . S
N495 C488 1.356 . S
N495 H498 0.984 . S
N495 H499 0.985 . S
H496 N491 0.984 . S
H497 N491 0.985 . S
H498 N495 0.984 . S
H499 N495 0.985 . S
H500 N494 0.984 . S
H501 N494 0.984 . S
H502 N490 0.984 . S
H503 N490 0.985 . S
C504 C505 1.363 1_556 S
C504 C510 1.379 . S
C504 N512 1.356 . S
C505 C504 1.363 1_554 S
C505 C511 1.363 . S
C506 C507 1.363 1_554 S
C506 C511 1.379 . S
C506 N513 1.356 . S
C507 C506 1.363 1_556 S
C507 C510 1.363 . S
N508 C510 1.356 . S
N508 H520 0.984 . S
N508 H521 0.985 . S
N509 C511 1.356 . S
N509 H514 0.984 . S
N509 H515 0.985 . S
C510 C504 1.379 . S
C510 C507 1.363 . S
C510 N508 1.356 . S
C511 C505 1.363 . S
C511 C506 1.379 . S
C511 N509 1.356 . S
N512 C504 1.356 . S
N512 H518 0.984 . S
N512 H519 0.984 1_556 S
N513 C506 1.356 . S
N513 H516 0.984 1_554 S
N513 H517 0.985 . S
H514 N509 0.984 . S
H515 N509 0.985 . S
H516 N513 0.984 1_556 S
H517 N513 0.985 . S
H518 N512 0.984 . S
H519 N512 0.984 1_554 S
H520 N508 0.984 . S
H521 N508 0.985 . S
C522 C523 1.363 . S
C522 C528 1.379 . S
C522 N530 1.356 . S
C523 C522 1.363 . S
C523 C529 1.363 . S
C524 C525 1.363 . S
C524 C529 1.379 . S
C524 N531 1.356 . S
C525 C524 1.363 . S
C525 C528 1.363 . S
N526 C528 1.356 . S
N526 H538 0.984 . S
N526 H539 0.985 . S
N527 C529 1.356 . S
N527 H532 0.984 . S
N527 H533 0.985 . S
C528 C522 1.379 . S
C528 C525 1.363 . S
C528 N526 1.356 . S
C529 C523 1.363 . S
C529 C524 1.379 . S
C529 N527 1.356 . S
N530 C522 1.356 . S
N530 H536 0.984 . S
N530 H537 0.984 . S
N531 C524 1.356 . S
N531 H534 0.984 . S
N531 H535 0.985 . S
H532 N527 0.984 . S
H533 N527 0.985 . S
H534 N531 0.984 . S
H535 N531 0.985 . S
H536 N530 0.984 . S
H537 N530 0.984 . S
H538 N526 0.984 . S
H539 N526 0.985 . S
C540 C541 1.363 . S
C540 C546 1.379 . S
C540 N548 1.356 . S
C541 C540 1.363 . S
C541 C547 1.363 1_554 S
C542 C543 1.363 . S
C542 C547 1.379 . S
C542 N549 1.356 . S
C543 C542 1.363 . S
C543 C546 1.363 1_556 S
N544 C546 1.356 . S
N544 H556 0.984 . S
N544 H557 0.985 1_554 S
N545 C547 1.356 . S
N545 H550 0.984 1_556 S
N545 H551 0.985 . S
C546 C540 1.379 . S
C546 C543 1.363 1_554 S
C546 N544 1.356 . S
C547 C541 1.363 1_556 S
C547 C542 1.379 . S
C547 N545 1.356 . S
N548 C540 1.356 . S
N548 H554 0.984 . S
N548 H555 0.984 . S
N549 C542 1.356 . S
N549 H552 0.984 . S
N549 H553 0.985 . S
H550 N545 0.984 1_554 S
H551 N545 0.985 . S
H552 N549 0.984 . S
H553 N549 0.985 . S
H554 N548 0.984 . S
H555 N548 0.984 . S
H556 N544 0.984 . S
H557 N544 0.985 1_556 S
C558 C559 1.363 . S
C558 C564 1.379 . S
C558 N566 1.356 . S
C559 C558 1.363 . S
C559 C565 1.363 . S
C560 C561 1.363 . S
C560 C565 1.379 . S
C560 N567 1.356 . S
C561 C560 1.363 . S
C561 C564 1.363 . S
N562 C564 1.356 . S
N562 H574 0.984 . S
N562 H575 0.985 . S
N563 C565 1.356 . S
N563 H568 0.984 . S
N563 H569 0.985 . S
C564 C558 1.379 . S
C564 C561 1.363 . S
C564 N562 1.356 . S
C565 C559 1.363 . S
C565 C560 1.379 . S
C565 N563 1.356 . S
N566 C558 1.356 . S
N566 H572 0.984 . S
N566 H573 0.984 . S
N567 C560 1.356 . S
N567 H570 0.984 . S
N567 H571 0.985 . S
H568 N563 0.984 . S
H569 N563 0.985 . S
H570 N567 0.984 . S
H571 N567 0.985 . S
H572 N566 0.984 . S
H573 N566 0.984 . S
H574 N562 0.984 . S
H575 N562 0.985 . S
C576 C577 1.363 1_556 S
C576 C582 1.379 . S
C576 N584 1.356 . S
C577 C576 1.363 1_554 S
C577 C583 1.363 . S
C578 C579 1.363 1_554 S
C578 C583 1.379 . S
C578 N585 1.356 . S
C579 C578 1.363 1_556 S
C579 C582 1.363 . S
N580 C582 1.356 . S
N580 H592 0.984 . S
N580 H593 0.985 . S
N581 C583 1.356 . S
N581 H586 0.984 . S
N581 H587 0.985 . S
C582 C576 1.379 . S
C582 C579 1.363 . S
C582 N580 1.356 . S
C583 C577 1.363 . S
C583 C578 1.379 . S
C583 N581 1.356 . S
N584 C576 1.356 . S
N584 H590 0.984 . S
N584 H591 0.984 1_556 S
N585 C578 1.356 . S
N585 H588 0.984 1_554 S
N585 H589 0.985 . S
H586 N581 0.984 . S
H587 N581 0.985 . S
H588 N585 0.984 1_556 S
H589 N585 0.985 . S
H590 N584 0.984 . S
H591 N584 0.984 1_554 S
H592 N580 0.984 . S
H593 N580 0.985 . S
C594 C595 1.363 . S
C594 C600 1.379 . S
C594 N602 1.356 . S
C595 C594 1.363 . S
C595 C601 1.363 . S
C596 C597 1.363 . S
C596 C601 1.379 . S
C596 N603 1.356 . S
C597 C596 1.363 . S
C597 C600 1.363 . S
N598 C600 1.356 . S
N598 H610 0.984 . S
N598 H611 0.985 . S
N599 C601 1.356 . S
N599 H604 0.984 . S
N599 H605 0.985 . S
C600 C594 1.379 . S
C600 C597 1.363 . S
C600 N598 1.356 . S
C601 C595 1.363 . S
C601 C596 1.379 . S
C601 N599 1.356 . S
N602 C594 1.356 . S
N602 H608 0.984 . S
N602 H609 0.984 . S
N603 C596 1.356 . S
N603 H606 0.984 . S
N603 H607 0.985 . S
H604 N599 0.984 . S
H605 N599 0.985 . S
H606 N603 0.984 . S
H607 N603 0.985 . S
H608 N602 0.984 . S
H609 N602 0.984 . S
H610 N598 0.984 . S
H611 N598 0.985 . S
C612 C613 1.363 . S
C612 C618 1.379 . S
C612 N620 1.356 . S
C613 C612 1.363 . S
C613 C619 1.363 1_556 S
C614 C615 1.363 . S
C614 C619 1.379 . S
C614 N621 1.356 . S
C615 C614 1.363 . S
C615 C618 1.363 1_554 S
N616 C618 1.356 1_554 S
N616 H628 0.984 1_554 S
N616 H629 0.985 . S
N617 C619 1.356 1_556 S
N617 H622 0.984 . S
N617 H623 0.985 1_556 S
C618 C612 1.379 . S
C618 C615 1.363 1_556 S
C618 N616 1.356 1_556 S
C619 C613 1.363 1_554 S
C619 C614 1.379 . S
C619 N617 1.356 1_554 S
N620 C612 1.356 . S
N620 H626 0.984 . S
N620 H627 0.984 . S
N621 C614 1.356 . S
N621 H624 0.984 . S
N621 H625 0.985 . S
H622 N617 0.984 . S
H623 N617 0.985 1_554 S
H624 N621 0.984 . S
H625 N621 0.985 . S
H626 N620 0.984 . S
H627 N620 0.984 . S
H628 N616 0.984 1_556 S
H629 N616 0.985 . S
C630 C631 1.363 . S
C630 C636 1.379 . S
C630 N638 1.356 . S
C631 C630 1.363 . S
C631 C637 1.363 . S
C632 C633 1.363 . S
C632 C637 1.379 . S
C632 N639 1.356 . S
C633 C632 1.363 . S
C633 C636 1.363 . S
N634 C636 1.356 . S
N634 H646 0.984 . S
N634 H647 0.985 . S
N635 C637 1.356 . S
N635 H640 0.984 . S
N635 H641 0.985 . S
C636 C630 1.379 . S
C636 C633 1.363 . S
C636 N634 1.356 . S
C637 C631 1.363 . S
C637 C632 1.379 . S
C637 N635 1.356 . S
N638 C630 1.356 . S
N638 H644 0.984 . S
N638 H645 0.984 . S
N639 C632 1.356 . S
N639 H642 0.984 . S
N639 H643 0.985 . S
H640 N635 0.984 . S
H641 N635 0.985 . S
H642 N639 0.984 . S
H643 N639 0.985 . S
H644 N638 0.984 . S
H645 N638 0.984 . S
H646 N634 0.984 . S
H647 N634 0.985 . S
C648 C649 1.363 1_556 S
C648 C654 1.379 . S
C648 N656 1.356 1_556 S
C649 C648 1.363 1_554 S
C649 C655 1.363 . S
C650 C651 1.363 1_554 S
C650 C655 1.379 . S
C650 N657 1.356 1_554 S
C651 C650 1.363 1_556 S
C651 C654 1.363 . S
N652 C654 1.356 . S
N652 H664 0.984 . S
N652 H665 0.985 . S
N653 C655 1.356 . S
N653 H658 0.984 . S
N653 H659 0.985 . S
C654 C648 1.379 . S
C654 C651 1.363 . S
C654 N652 1.356 . S
C655 C649 1.363 . S
C655 C650 1.379 . S
C655 N653 1.356 . S
N656 C648 1.356 1_554 S
N656 H662 0.984 1_554 S
N656 H663 0.984 . S
N657 C650 1.356 1_556 S
N657 H660 0.984 . S
N657 H661 0.985 1_556 S
H658 N653 0.984 . S
H659 N653 0.985 . S
H660 N657 0.984 . S
H661 N657 0.985 1_554 S
H662 N656 0.984 1_556 S
H663 N656 0.984 . S
H664 N652 0.984 . S
H665 N652 0.985 . S
C666 C667 1.363 . S
C666 C672 1.379 . S
C666 N674 1.356 . S
C667 C666 1.363 . S
C667 C673 1.363 . S
C668 C669 1.363 . S
C668 C673 1.379 . S
C668 N675 1.356 . S
C669 C668 1.363 . S
C669 C672 1.363 . S
N670 C672 1.356 . S
N670 H682 0.984 . S
N670 H683 0.985 . S
N671 C673 1.356 . S
N671 H676 0.984 . S
N671 H677 0.985 . S
C672 C666 1.379 . S
C672 C669 1.363 . S
C672 N670 1.356 . S
C673 C667 1.363 . S
C673 C668 1.379 . S
C673 N671 1.356 . S
N674 C666 1.356 . S
N674 H680 0.984 . S
N674 H681 0.984 . S
N675 C668 1.356 . S
N675 H678 0.984 . S
N675 H679 0.985 . S
H676 N671 0.984 . S
H677 N671 0.985 . S
H678 N675 0.984 . S
H679 N675 0.985 . S
H680 N674 0.984 . S
H681 N674 0.984 . S
H682 N670 0.984 . S
H683 N670 0.985 . S
C684 C685 1.363 . S
C684 C690 1.379 1_554 S
C684 N692 1.356 . S
C685 C684 1.363 . S
C685 C691 1.363 . S
C686 C687 1.363 . S
C686 C691 1.379 1_556 S
C686 N693 1.356 . S
C687 C686 1.363 . S
C687 C690 1.363 . S
N688 C690 1.356 . S
N688 H700 0.984 . S
N688 H701 0.985 . S
N689 C691 1.356 . S
N689 H694 0.984 . S
N689 H695 0.985 . S
C690 C684 1.379 1_556 S
C690 C687 1.363 . S
C690 N688 1.356 . S
C691 C685 1.363 . S
C691 C686 1.379 1_554 S
C691 N689 1.356 . S
N692 C684 1.356 . S
N692 H698 0.984 . S
N692 H699 0.984 . S
N693 C686 1.356 . S
N693 H696 0.984 . S
N693 H697 0.985 . S
H694 N689 0.984 . S
H695 N689 0.985 . S
H696 N693 0.984 . S
H697 N693 0.985 . S
H698 N692 0.984 . S
H699 N692 0.984 . S
H700 N688 0.984 . S
H701 N688 0.985 . S
C702 C703 1.363 . S
C702 C708 1.379 . S
C702 N710 1.356 . S
C703 C702 1.363 . S
C703 C709 1.363 . S
C704 C705 1.363 . S
C704 C709 1.379 . S
C704 N711 1.356 . S
C705 C704 1.363 . S
C705 C708 1.363 . S
N706 C708 1.356 . S
N706 H718 0.984 . S
N706 H719 0.985 . S
N707 C709 1.356 . S
N707 H712 0.984 . S
N707 H713 0.985 . S
C708 C702 1.379 . S
C708 C705 1.363 . S
C708 N706 1.356 . S
C709 C703 1.363 . S
C709 C704 1.379 . S
C709 N707 1.356 . S
N710 C702 1.356 . S
N710 H716 0.984 . S
N710 H717 0.984 . S
N711 C704 1.356 . S
N711 H714 0.984 . S
N711 H715 0.985 . S
H712 N707 0.984 . S
H713 N707 0.985 . S
H714 N711 0.984 . S
H715 N711 0.985 . S
H716 N710 0.984 . S
H717 N710 0.984 . S
H718 N706 0.984 . S
H719 N706 0.985 . S
C720 C721 1.363 . S
C720 C726 1.379 1_556 S
C720 N728 1.356 . S
C721 C720 1.363 . S
C721 C727 1.363 . S
C722 C723 1.363 . S
C722 C727 1.379 1_554 S
C722 N729 1.356 . S
C723 C722 1.363 . S
C723 C726 1.363 . S
N724 C726 1.356 . S
N724 H736 0.984 . S
N724 H737 0.985 . S
N725 C727 1.356 . S
N725 H730 0.984 . S
N725 H731 0.985 . S
C726 C720 1.379 1_554 S
C726 C723 1.363 . S
C726 N724 1.356 . S
C727 C721 1.363 . S
C727 C722 1.379 1_556 S
C727 N725 1.356 . S
N728 C720 1.356 . S
N728 H734 0.984 . S
N728 H735 0.984 . S
N729 C722 1.356 . S
N729 H732 0.984 . S
N729 H733 0.985 . S
H730 N725 0.984 . S
H731 N725 0.985 . S
H732 N729 0.984 . S
H733 N729 0.985 . S
H734 N728 0.984 . S
H735 N728 0.984 . S
H736 N724 0.984 . S
H737 N724 0.985 . S
C738 C739 1.363 . S
C738 C744 1.379 . S
C738 N746 1.356 . S
C739 C738 1.363 . S
C739 C745 1.363 . S
C740 C741 1.363 . S
C740 C745 1.379 . S
C740 N747 1.356 . S
C741 C740 1.363 . S
C741 C744 1.363 . S
N742 C744 1.356 . S
N742 H754 0.984 . S
N742 H755 0.985 . S
N743 C745 1.356 . S
N743 H748 0.984 . S
N743 H749 0.985 . S
C744 C738 1.379 . S
C744 C741 1.363 . S
C744 N742 1.356 . S
C745 C739 1.363 . S
C745 C740 1.379 . S
C745 N743 1.356 . S
N746 C738 1.356 . S
N746 H752 0.984 . S
N746 H753 0.984 . S
N747 C740 1.356 . S
N747 H750 0.984 . S
N747 H751 0.985 . S
H748 N743 0.984 . S
H749 N743 0.985 . S
H750 N747 0.984 . S
H751 N747 0.985 . S
H752 N746 0.984 . S
H753 N746 0.984 . S
H754 N742 0.984 . S
H755 N742 0.985 . S
C756 C757 1.363 . S
C756 C762 1.379 1_554 S
C756 N764 1.356 . S
C757 C756 1.363 . S
C757 C763 1.363 . S
C758 C759 1.363 . S
C758 C763 1.379 1_556 S
C758 N765 1.356 . S
C759 C758 1.363 . S
C759 C762 1.363 . S
N760 C762 1.356 . S
N760 H772 0.984 . S
N760 H773 0.985 . S
N761 C763 1.356 . S
N761 H766 0.984 . S
N761 H767 0.985 . S
C762 C756 1.379 1_556 S
C762 C759 1.363 . S
C762 N760 1.356 . S
C763 C757 1.363 . S
C763 C758 1.379 1_554 S
C763 N761 1.356 . S
N764 C756 1.356 . S
N764 H770 0.984 1_554 S
N764 H771 0.984 . S
N765 C758 1.356 . S
N765 H768 0.984 . S
N765 H769 0.985 1_556 S
H766 N761 0.984 . S
H767 N761 0.985 . S
H768 N765 0.984 . S
H769 N765 0.985 1_554 S
H770 N764 0.984 1_556 S
H771 N764 0.984 . S
H772 N760 0.984 . S
H773 N760 0.985 . S
C774 C775 1.363 . S
C774 C780 1.379 . S
C774 N782 1.356 . S
C775 C774 1.363 . S
C775 C781 1.363 . S
C776 C777 1.363 . S
C776 C781 1.379 . S
C776 N783 1.356 . S
C777 C776 1.363 . S
C777 C780 1.363 . S
N778 C780 1.356 . S
N778 H790 0.984 . S
N778 H791 0.985 . S
N779 C781 1.356 . S
N779 H784 0.984 . S
N779 H785 0.985 . S
C780 C774 1.379 . S
C780 C777 1.363 . S
C780 N778 1.356 . S
C781 C775 1.363 . S
C781 C776 1.379 . S
C781 N779 1.356 . S
N782 C774 1.356 . S
N782 H788 0.984 . S
N782 H789 0.984 . S
N783 C776 1.356 . S
N783 H786 0.984 . S
N783 H787 0.985 . S
H784 N779 0.984 . S
H785 N779 0.985 . S
H786 N783 0.984 . S
H787 N783 0.985 . S
H788 N782 0.984 . S
H789 N782 0.984 . S
H790 N778 0.984 . S
H791 N778 0.985 . S
C792 C793 1.363 . S
C792 C798 1.379 1_554 S
C792 N800 1.356 . S
C793 C792 1.363 . S
C793 C799 1.363 . S
C794 C795 1.363 . S
C794 C799 1.379 1_556 S
C794 N801 1.356 . S
C795 C794 1.363 . S
C795 C798 1.363 . S
N796 C798 1.356 . S
N796 H808 0.984 . S
N796 H809 0.985 . S
N797 C799 1.356 . S
N797 H802 0.984 . S
N797 H803 0.985 . S
C798 C792 1.379 1_556 S
C798 C795 1.363 . S
C798 N796 1.356 . S
C799 C793 1.363 . S
C799 C794 1.379 1_554 S
C799 N797 1.356 . S
N800 C792 1.356 . S
N800 H806 0.984 . S
N800 H807 0.984 . S
N801 C794 1.356 . S
N801 H804 0.984 . S
N801 H805 0.985 . S
H802 N797 0.984 . S
H803 N797 0.985 . S
H804 N801 0.984 . S
H805 N801 0.985 . S
H806 N800 0.984 . S
H807 N800 0.984 . S
H808 N796 0.984 . S
H809 N796 0.985 . S
C810 C811 1.363 . S
C810 C816 1.379 . S
C810 N818 1.356 . S
C811 C810 1.363 . S
C811 C817 1.363 . S
C812 C813 1.363 . S
C812 C817 1.379 . S
C812 N819 1.356 . S
C813 C812 1.363 . S
C813 C816 1.363 . S
N814 C816 1.356 . S
N814 H826 0.984 . S
N814 H827 0.985 . S
N815 C817 1.356 . S
N815 H820 0.984 . S
N815 H821 0.985 . S
C816 C810 1.379 . S
C816 C813 1.363 . S
C816 N814 1.356 . S
C817 C811 1.363 . S
C817 C812 1.379 . S
C817 N815 1.356 . S
N818 C810 1.356 . S
N818 H824 0.984 . S
N818 H825 0.984 . S
N819 C812 1.356 . S
N819 H822 0.984 . S
N819 H823 0.985 . S
H820 N815 0.984 . S
H821 N815 0.985 . S
H822 N819 0.984 . S
H823 N819 0.985 . S
H824 N818 0.984 . S
H825 N818 0.984 . S
H826 N814 0.984 . S
H827 N814 0.985 . S
C828 C829 1.363 . S
C828 C834 1.379 . S
C828 N836 1.356 . S
C829 C828 1.363 . S
C829 C835 1.363 . S
C830 C831 1.363 . S
C830 C835 1.379 . S
C830 N837 1.356 . S
C831 C830 1.363 . S
C831 C834 1.363 . S
N832 C834 1.356 . S
N832 H844 0.984 . S
N832 H845 0.985 . S
N833 C835 1.356 . S
N833 H838 0.984 . S
N833 H839 0.985 . S
C834 C828 1.379 . S
C834 C831 1.363 . S
C834 N832 1.356 . S
C835 C829 1.363 . S
C835 C830 1.379 . S
C835 N833 1.356 . S
N836 C828 1.356 . S
N836 H842 0.984 . S
N836 H843 0.984 . S
N837 C830 1.356 . S
N837 H840 0.984 . S
N837 H841 0.985 . S
H838 N833 0.984 . S
H839 N833 0.985 . S
H840 N837 0.984 . S
H841 N837 0.985 . S
H842 N836 0.984 . S
H843 N836 0.984 . S
H844 N832 0.984 . S
H845 N832 0.985 . S
C846 C847 1.363 . S
C846 C852 1.379 1_455 S
C846 N854 1.356 . S
C847 C846 1.363 . S
C847 C853 1.363 . S
C848 C849 1.363 . S
C848 C853 1.379 1_655 S
C848 N855 1.356 . S
C849 C848 1.363 . S
C849 C852 1.363 . S
N850 C852 1.356 . S
N850 H862 0.984 . S
N850 H863 0.985 . S
N851 C853 1.356 . S
N851 H856 0.984 . S
N851 H857 0.985 . S
C852 C846 1.379 1_655 S
C852 C849 1.363 . S
C852 N850 1.356 . S
C853 C847 1.363 . S
C853 C848 1.379 1_455 S
C853 N851 1.356 . S
N854 C846 1.356 . S
N854 H860 0.984 . S
N854 H861 0.984 . S
N855 C848 1.356 . S
N855 H858 0.984 . S
N855 H859 0.985 . S
H856 N851 0.984 . S
H857 N851 0.985 . S
H858 N855 0.984 . S
H859 N855 0.985 . S
H860 N854 0.984 . S
H861 N854 0.984 . S
H862 N850 0.984 . S
H863 N850 0.985 . S
C864 C865 1.363 . S
C864 C870 1.379 1_545 S
C864 N872 1.356 . S
C865 C864 1.363 . S
C865 C871 1.363 . S
C866 C867 1.363 . S
C866 C871 1.379 1_565 S
C866 N873 1.356 . S
C867 C866 1.363 . S
C867 C870 1.363 . S
N868 C870 1.356 . S
N868 H880 0.984 . S
N868 H881 0.985 . S
N869 C871 1.356 . S
N869 H874 0.984 . S
N869 H875 0.985 . S
C870 C864 1.379 1_565 S
C870 C867 1.363 . S
C870 N868 1.356 . S
C871 C865 1.363 . S
C871 C866 1.379 1_545 S
C871 N869 1.356 . S
N872 C864 1.356 . S
N872 H878 0.984 . S
N872 H879 0.984 . S
N873 C866 1.356 . S
N873 H876 0.984 . S
N873 H877 0.985 . S
H874 N869 0.984 . S
H875 N869 0.985 . S
H876 N873 0.984 . S
H877 N873 0.985 . S
H878 N872 0.984 . S
H879 N872 0.984 . S
H880 N868 0.984 . S
H881 N868 0.985 . S
C882 C883 1.363 . S
C882 C888 1.379 . S
C882 N890 1.356 . S
C883 C882 1.363 . S
C883 C889 1.363 . S
C884 C885 1.363 . S
C884 C889 1.379 . S
C884 N891 1.356 . S
C885 C884 1.363 . S
C885 C888 1.363 . S
N886 C888 1.356 . S
N886 H898 0.984 . S
N886 H899 0.985 . S
N887 C889 1.356 . S
N887 H892 0.984 . S
N887 H893 0.985 . S
C888 C882 1.379 . S
C888 C885 1.363 . S
C888 N886 1.356 . S
C889 C883 1.363 . S
C889 C884 1.379 . S
C889 N887 1.356 . S
N890 C882 1.356 . S
N890 H896 0.984 . S
N890 H897 0.984 . S
N891 C884 1.356 . S
N891 H894 0.984 . S
N891 H895 0.985 . S
H892 N887 0.984 . S
H893 N887 0.985 . S
H894 N891 0.984 . S
H895 N891 0.985 . S
H896 N890 0.984 . S
H897 N890 0.984 . S
H898 N886 0.984 . S
H899 N886 0.985 . S
C900 C901 1.363 . S
C900 C906 1.379 1_455 S
C900 N908 1.356 . S
C901 C900 1.363 . S
C901 C907 1.363 . S
C902 C903 1.363 . S
C902 C907 1.379 1_655 S
C902 N909 1.356 . S
C903 C902 1.363 . S
C903 C906 1.363 . S
N904 C906 1.356 . S
N904 H916 0.984 . S
N904 H917 0.985 . S
N905 C907 1.356 . S
N905 H910 0.984 . S
N905 H911 0.985 . S
C906 C900 1.379 1_655 S
C906 C903 1.363 . S
C906 N904 1.356 . S
C907 C901 1.363 . S
C907 C902 1.379 1_455 S
C907 N905 1.356 . S
N908 C900 1.356 . S
N908 H914 0.984 . S
N908 H915 0.984 . S
N909 C902 1.356 . S
N909 H912 0.984 . S
N909 H913 0.985 . S
H910 N905 0.984 . S
H911 N905 0.985 . S
H912 N909 0.984 . S
H913 N909 0.985 . S
H914 N908 0.984 . S
H915 N908 0.984 . S
H916 N904 0.984 . S
H917 N904 0.985 . S
C918 C919 1.363 . S
C918 C924 1.379 1_565 S
C918 N926 1.356 . S
C919 C918 1.363 . S
C919 C925 1.363 . S
C920 C921 1.363 . S
C920 C925 1.379 1_545 S
C920 N927 1.356 . S
C921 C920 1.363 . S
C921 C924 1.363 . S
N922 C924 1.356 . S
N922 H934 0.984 . S
N922 H935 0.985 . S
N923 C925 1.356 . S
N923 H928 0.984 . S
N923 H929 0.985 . S
C924 C918 1.379 1_545 S
C924 C921 1.363 . S
C924 N922 1.356 . S
C925 C919 1.363 . S
C925 C920 1.379 1_565 S
C925 N923 1.356 . S
N926 C918 1.356 . S
N926 H932 0.984 . S
N926 H933 0.984 . S
N927 C920 1.356 . S
N927 H930 0.984 . S
N927 H931 0.985 . S
H928 N923 0.984 . S
H929 N923 0.985 . S
H930 N927 0.984 . S
H931 N927 0.985 . S
H932 N926 0.984 . S
H933 N926 0.984 . S
H934 N922 0.984 . S
H935 N922 0.985 . S
C397 C7 2.321 . S
C399 C205 2.321 . S
C415 C40 2.321 . S
C417 C238 2.321 . S
C433 C73 2.321 . S
C435 C271 2.321 . S
C451 C304 2.321 . S
C453 C106 2.321 . S
C469 C139 2.321 . S
C471 C337 2.321 . S
C487 C370 2.321 . S
C489 C172 2.321 . S
C505 N310 0.957 . S
C507 N112 0.957 . S
C523 N145 0.957 . S
C525 N343 0.957 . S
C541 N376 0.957 . S
C543 N178 0.957 . S
C559 N211 0.957 . S
C561 N13 0.957 . S
C577 N244 0.957 . S
C579 N46 0.957 . S
C595 N79 0.957 . S
C597 N277 0.957 . S
C613 N332 0.902 . S
C615 N2 0.902 . S
C631 N35 0.902 . S
C633 N365 0.902 . S
C649 N68 0.902 . S
C651 N200 0.902 . S
C667 N101 0.902 . S
C669 N233 0.902 . S
C685 N134 0.902 . S
C687 N266 0.902 . S
C703 N167 0.902 . S
C705 N299 0.902 . S
C721 C117 1.874 . S
C723 C249 1.874 . S
C739 C150 1.875 . S
C741 C282 1.875 . S
C757 C315 1.875 . S
C759 C183 1.875 . S
C775 C18 1.874 . S
C777 C348 1.874 . S
C793 C381 1.875 . S
C795 C51 1.875 . S
C811 C84 1.874 . S
C813 C216 1.874 . S
C829 C21 1.361 . S
C831 C318 1.361 . S
C847 C351 1.362 . S
C849 C54 1.362 . S
C865 C384 1.362 . S
C867 C87 1.362 . S
C883 C219 1.362 . S
C885 C120 1.362 . S
C901 C153 1.362 . S
C903 C252 1.362 . S
C919 C285 1.362 . S
C921 C186 1.362 . S
