# Generated by pormake.
# Topology smm, (6)-cn, num edge types: 1
# Building blocks:
#     Node 0, Type 0, BuildingBlock: BETDAH_clean_sbu_0, # of connection points: 6
#     Node 1, Type 0, BuildingBlock: BETDAH_clean_sbu_0, # of connection points: 6
#     Node 2, Type 0, BuildingBlock: BETDAH_clean_sbu_0, # of connection points: 6
#     Node 3, Type 0, BuildingBlock: BETDAH_clean_sbu_0, # of connection points: 6
#     Node 4, Type 0, BuildingBlock: BETDAH_clean_sbu_0, # of connection points: 6
#     Node 5, Type 0, BuildingBlock: BETDAH_clean_sbu_0, # of connection points: 6
#     Node 6, Type 0, BuildingBlock: BETDAH_clean_sbu_0, # of connection points: 6
#     Node 7, Type 0, BuildingBlock: BETDAH_clean_sbu_0, # of connection points: 6
#     Node 8, Type 0, BuildingBlock: BETDAH_clean_sbu_0, # of connection points: 6
#     Edge 9, Type (0, 0), BuildingBlock: MIFKUJ_clean_linker_0, # of connection points: 2
#     Edge 10, Type (0, 0), BuildingBlock: MIFKUJ_clean_linker_0, # of connection points: 2
#     Edge 11, Type (0, 0), BuildingBlock: MIFKUJ_clean_linker_0, # of connection points: 2
#     Edge 12, Type (0, 0), BuildingBlock: MIFKUJ_clean_linker_0, # of connection points: 2
#     Edge 13, Type (0, 0), BuildingBlock: MIFKUJ_clean_linker_0, # of connection points: 2
#     Edge 14, Type (0, 0), BuildingBlock: MIFKUJ_clean_linker_0, # of connection points: 2
#     Edge 15, Type (0, 0), BuildingBlock: MIFKUJ_clean_linker_0, # of connection points: 2
#     Edge 16, Type (0, 0), BuildingBlock: MIFKUJ_clean_linker_0, # of connection points: 2
#     Edge 17, Type (0, 0), BuildingBlock: MIFKUJ_clean_linker_0, # of connection points: 2
#     Edge 18, Type (0, 0), BuildingBlock: MIFKUJ_clean_linker_0, # of connection points: 2
#     Edge 19, Type (0, 0), BuildingBlock: MIFKUJ_clean_linker_0, # of connection points: 2
#     Edge 20, Type (0, 0), BuildingBlock: MIFKUJ_clean_linker_0, # of connection points: 2
#     Edge 21, Type (0, 0), BuildingBlock: MIFKUJ_clean_linker_0, # of connection points: 2
#     Edge 22, Type (0, 0), BuildingBlock: MIFKUJ_clean_linker_0, # of connection points: 2
#     Edge 23, Type (0, 0), BuildingBlock: MIFKUJ_clean_linker_0, # of connection points: 2
#     Edge 24, Type (0, 0), BuildingBlock: MIFKUJ_clean_linker_0, # of connection points: 2
#     Edge 25, Type (0, 0), BuildingBlock: MIFKUJ_clean_linker_0, # of connection points: 2
#     Edge 26, Type (0, 0), BuildingBlock: MIFKUJ_clean_linker_0, # of connection points: 2
#     Edge 27, Type (0, 0), BuildingBlock: MIFKUJ_clean_linker_0, # of connection points: 2
#     Edge 28, Type (0, 0), BuildingBlock: MIFKUJ_clean_linker_0, # of connection points: 2
#     Edge 29, Type (0, 0), BuildingBlock: MIFKUJ_clean_linker_0, # of connection points: 2
#     Edge 30, Type (0, 0), BuildingBlock: MIFKUJ_clean_linker_0, # of connection points: 2
#     Edge 31, Type (0, 0), BuildingBlock: MIFKUJ_clean_linker_0, # of connection points: 2
#     Edge 32, Type (0, 0), BuildingBlock: MIFKUJ_clean_linker_0, # of connection points: 2
#     Edge 33, Type (0, 0), BuildingBlock: MIFKUJ_clean_linker_0, # of connection points: 2
#     Edge 34, Type (0, 0), BuildingBlock: MIFKUJ_clean_linker_0, # of connection points: 2
#     Edge 35, Type (0, 0), BuildingBlock: MIFKUJ_clean_linker_0, # of connection points: 2
# Relax obj value: 0.055
# Max RMSD: 0.133
# Mean RMSD: 0.133
data_MOF--net-smm--node1-BETDAH_clean_sbu_0--edge1-MIFKUJ_clean_linker_0
_symmetry_space_group_name_H-M    P1
_symmetry_Int_Tables_number       1
_symmetry_cell_setting            triclinic
loop_
_symmetry_equiv_pos_as_xyz
'x, y, z'
_cell_length_a     86.147449
_cell_length_b     86.195178
_cell_length_c     18.459951
_cell_angle_alpha  89.994851
_cell_angle_beta   90.022015
_cell_angle_gamma 119.919881
loop_
_atom_site_label
_atom_site_type_symbol
_atom_site_fract_x
_atom_site_fract_y
_atom_site_fract_z
_atom_type_partial_charge
Ho0 Ho 0.05548 0.2168 0.98388 0.0
Ho1 Ho 1.02158 0.18077 0.02962 0.0
C2 C 1.01825 0.2162 0.02994 0.0
C3 C 0.07775 0.24607 0.91708 0.0
C4 C 0.08327 0.26538 0.90958 0.0
C5 C 0.07751 0.27133 0.8499 0.0
C6 C 0.0846 0.28966 0.83654 0.0
C7 C 0.09768 0.30264 0.88265 0.0
C8 C 0.10292 0.29662 0.94398 0.0
C9 C 0.09592 0.27829 0.95699 0.0
C10 C 0.05246 0.20897 0.12526 0.0
C11 C 0.05991 0.18227 0.00015 0.0
C12 C 0.99851 0.1503 0.08627 0.0
C13 C 0.99128 0.13085 0.07333 0.0
C14 C 0.9911 0.11992 0.13011 0.0
C15 C 0.9831 0.10134 0.12099 0.0
C16 C 0.97498 0.09319 0.05481 0.0
C17 C 0.97549 0.10422 -0.00249 0.0
C18 C 0.98357 0.12281 0.00655 0.0
C19 C 1.02579 0.18811 0.88678 0.0
O20 O 0.03371 0.22442 -0.00585 0.0
O21 O 1.01209 0.20003 0.0583 0.0
O22 O 0.08138 0.24084 0.97821 0.0
O23 O 0.06224 0.23415 0.88996 0.0
O24 O 0.06777 0.21842 0.09311 0.0
O25 O 0.03982 0.20599 0.08318 0.0
O26 O 0.04401 0.17421 0.03236 0.0
O27 O 0.06616 0.19793 0.96697 0.0
O28 O 0.99438 0.15896 0.03897 0.0
O29 O 1.01511 0.15968 0.10872 0.0
O30 O 1.01029 0.179 0.91746 0.0
O31 O 0.03787 0.19119 0.93162 0.0
H32 H 0.06789 0.26177 0.8121 0.0
H33 H 0.08028 0.29362 0.78837 0.0
H34 H 0.11263 0.30609 0.98181 0.0
H35 H 0.10078 0.27428 0.00337 0.0
H36 H 0.99685 0.12574 0.18217 0.0
H37 H 0.98284 0.0933 0.16657 0.0
H38 H 0.96962 0.09848 0.94548 0.0
H39 H 0.98353 0.13083 0.96146 0.0
Ho40 Ho 0.85387 0.85918 0.98126 0.0
Ho41 Ho 0.89148 0.86504 0.03143 0.0
C42 C 0.8566 0.82489 0.02696 0.0
C43 C 0.82633 0.85563 0.90973 0.0
C44 C 0.80692 0.84294 0.89903 0.0
C45 C 0.80053 0.83711 0.82855 0.0
C46 C 0.78224 0.8258 0.81544 0.0
C47 C 0.76977 0.82009 0.87256 0.0
C48 C 0.77621 0.8258 0.94342 0.0
C49 C 0.79458 0.83707 0.95657 0.0
C50 C 0.85748 0.85671 0.12492 0.0
C51 C 0.88779 0.89972 0.00645 0.0
C52 C 0.92055 0.86783 0.08535 0.0
C53 C 0.94011 0.87926 0.0737 0.0
C54 C 0.94793 0.89764 0.05848 0.0
C55 C 0.96652 0.90823 0.04909 0.0
C56 C 0.9777 0.90067 0.05411 0.0
C57 C 0.96974 0.88222 0.06858 0.0
C58 C 0.95119 0.87167 0.07839 0.0
C59 C 0.88763 0.86885 0.88883 0.0
O60 O 0.84813 0.83078 -0.01475 0.0
O61 O 0.87223 0.83588 0.058 0.0
O62 O 0.83162 0.86414 0.97168 0.0
O63 O 0.8373 0.85052 0.88505 0.0
O64 O 0.84218 0.84858 0.09152 0.0
O65 O 0.86957 0.86718 0.0821 0.0
O66 O 0.89639 0.89292 0.04188 0.0
O67 O 0.8724 0.88943 0.97183 0.0
O68 O 0.91146 0.85672 0.03302 0.0
O69 O 0.91216 0.87555 0.11349 0.0
O70 O 0.90283 0.87713 0.92213 0.0
O71 O 0.8759 0.85756 0.93046 0.0
H72 H 0.80973 0.84155 0.78317 0.0
H73 H 0.77782 0.82191 0.76011 0.0
H74 H 0.76705 0.82152 -0.01114 0.0
H75 H 0.79907 0.84129 0.01159 0.0
H76 H 0.93969 0.90383 0.05394 0.0
H77 H 0.97212 0.92233 0.03711 0.0
H78 H 0.9779 0.87596 0.07364 0.0
H79 H 0.94548 0.85755 0.09012 0.0
Ho80 Ho 0.21038 1.01539 0.98158 0.0
Ho81 Ho 0.20705 0.04846 0.03147 0.0
C82 C 0.2464 0.05301 0.02806 0.0
C83 C 0.21776 0.99402 0.90949 0.0
C84 C 0.23133 0.9883 0.89981 0.0
C85 C 0.24066 0.99176 0.83391 0.0
C86 C 0.25178 0.98455 0.81967 0.0
C87 C 0.25375 0.97353 0.8708 0.0
C88 C 0.24477 0.97046 0.93757 0.0
C89 C 0.23369 0.97772 0.95189 0.0
C90 C 0.20651 1.018 0.12446 0.0
C91 C 0.17096 1.00968 0.00215 0.0
C92 C 0.19897 0.07079 0.09084 0.0
C93 C 0.18656 0.07779 0.07769 0.0
C94 C 0.1764 0.07871 0.13523 0.0
C95 C 0.1655 0.08636 0.12532 0.0
C96 C 0.1646 0.09341 0.05761 0.0
C97 C 0.17457 0.09218 -0.00032 0.0
C98 C 0.18537 0.08442 0.0095 0.0
C99 C 0.20976 0.04483 0.88789 0.0
O100 O 0.2395 0.03782 -0.00957 0.0
O101 O 0.23601 0.05846 0.05879 0.0
O102 O 0.20848 0.98956 0.96971 0.0
O103 O 0.2218 1.01 0.8866 0.0
O104 O 0.20126 1.00282 0.09189 0.0
O105 O 0.21524 0.03074 0.0817 0.0
O106 O 0.17846 0.02536 0.03601 0.0
O107 O 0.18068 1.00409 0.96672 0.0
O108 O 0.21206 0.07546 0.04451 0.0
O109 O 0.19187 0.05405 0.11112 0.0
O110 O 0.2157 0.06018 0.91934 0.0
O111 O 0.20133 0.03254 0.93253 0.0
H112 H 0.23892 0.99961 0.79222 0.0
H113 H 0.25828 0.98707 0.76736 0.0
H114 H 0.24615 0.96226 0.97866 0.0
H115 H 0.22665 0.97466 0.00313 0.0
H116 H 0.17713 0.07378 0.18838 0.0
H117 H 0.15815 0.0872 0.17132 0.0
H118 H 0.17401 0.09722 0.94657 0.0
H119 H 0.19295 0.08383 0.96384 0.0
Ho120 Ho 0.7257 0.5517 0.33552 0.0
Ho121 Ho 0.69106 0.51467 0.37065 0.0
C122 C 0.68882 0.55129 0.38019 0.0
C123 C 0.75024 0.58255 0.28669 0.0
C124 C 0.75528 0.60118 0.26724 0.0
C125 C 0.74482 0.60548 0.22201 0.0
C126 C 0.75091 0.6234 0.20224 0.0
C127 C 0.76757 0.63734 0.22726 0.0
C128 C 0.77784 0.63282 0.27269 0.0
C129 C 0.77176 0.61505 0.29238 0.0
C130 C 0.7231 0.53864 0.46994 0.0
C131 C 0.72834 0.51585 0.33584 0.0
C132 C 0.66423 0.48594 0.42272 0.0
C133 C 0.65608 0.46633 0.4121 0.0
C134 C 0.64927 0.45485 0.47199 0.0
C135 C 0.64123 0.43626 0.46332 0.0
C136 C 0.63973 0.42863 0.3943 0.0
C137 C 0.64677 0.44025 0.33437 0.0
C138 C 0.65488 0.45887 0.34318 0.0
C139 C 0.70019 0.52133 0.2307 0.0
O140 O 0.70583 0.56084 0.35975 0.0
O141 O 0.6805 0.53365 0.38877 0.0
O142 O 0.74779 0.57837 0.35544 0.0
O143 O 0.73928 0.56934 0.24455 0.0
O144 O 0.73816 0.54771 0.43573 0.0
O145 O 0.71047 0.53786 0.43299 0.0
O146 O 0.71315 0.50791 0.37307 0.0
O147 O 0.73464 0.53193 0.30614 0.0
O148 O 0.66282 0.49512 0.36891 0.0
O149 O 0.68007 0.49414 0.4536 0.0
O150 O 0.69153 0.50535 0.25741 0.0
O151 O 0.70162 0.53264 0.2769 0.0
H152 H 0.73206 0.59505 0.2016 0.0
H153 H 0.74255 0.62633 0.16764 0.0
H154 H 0.79088 0.64298 0.29186 0.0
H155 H 0.78019 0.61208 0.32656 0.0
H156 H 0.65014 0.46028 0.52575 0.0
H157 H 0.63634 0.42787 0.51105 0.0
H158 H 0.64575 0.43497 0.28028 0.0
H159 H 0.66009 0.46741 0.29596 0.0
Ho160 Ho 0.52046 0.19605 0.32321 0.0
Ho161 Ho 0.55669 0.19871 0.37006 0.0
C162 C 0.52167 0.15969 0.36838 0.0
C163 C 0.4911 0.18868 0.25588 0.0
C164 C 0.47187 0.17471 0.24813 0.0
C165 C 0.46612 0.16304 0.18839 0.0
C166 C 0.44782 0.15164 0.17473 0.0
C167 C 0.43469 0.15154 0.22057 0.0
C168 C 0.44052 0.16273 0.28206 0.0
C169 C 0.45881 0.17422 0.29536 0.0
C170 C 0.52796 0.20066 0.46495 0.0
C171 C 0.55464 0.23524 0.33979 0.0
C172 C 0.58707 0.20641 0.42901 0.0
C173 C 0.60644 0.21914 0.41853 0.0
C174 C 0.61773 0.22572 0.47914 0.0
C175 C 0.63628 0.23676 0.47066 0.0
C176 C 0.644 0.24139 0.40114 0.0
C177 C 0.63258 0.23504 0.34044 0.0
C178 C 0.61401 0.2241 0.34901 0.0
C179 C 0.5496 0.19564 0.22696 0.0
O180 O 0.51339 0.16682 0.33213 0.0
O181 O 0.53772 0.16983 0.39771 0.0
O182 O 0.49616 0.19752 0.31707 0.0
O183 O 0.50323 0.18534 0.22898 0.0
O184 O 0.51839 0.20638 0.43261 0.0
O185 O 0.53124 0.19124 0.42277 0.0
O186 O 0.56292 0.22758 0.37186 0.0
O187 O 0.53894 0.22566 0.30691 0.0
O188 O 0.5791 0.19416 0.37908 0.0
O189 O 0.57715 0.213 0.45181 0.0
O190 O 0.55883 0.18939 0.25796 0.0
O191 O 0.54625 0.20446 0.27172 0.0
H192 H 0.4758 0.16314 0.15077 0.0
H193 H 0.44402 0.1434 0.12652 0.0
H194 H 0.43094 0.16282 0.31975 0.0
H195 H 0.46267 0.18305 0.34182 0.0
H196 H 0.61222 0.22199 0.53321 0.0
H197 H 0.64462 0.24123 0.51864 0.0
H198 H 0.638 0.23852 0.28616 0.0
H199 H 0.6056 0.2193 0.30125 0.0
Ho200 Ho 0.8763 0.34783 0.31476 0.0
Ho201 Ho 0.87444 0.3814 0.36645 0.0
C202 C 0.91325 0.38499 0.35724 0.0
C203 C 0.88174 0.32554 0.23959 0.0
C204 C 0.89429 0.31878 0.22754 0.0
C205 C 0.88817 0.30277 0.18904 0.0
C206 C 0.89943 0.29569 0.17667 0.0
C207 C 0.91715 0.30444 0.20265 0.0
C208 C 0.92335 0.32068 0.24078 0.0
C209 C 0.912 0.32777 0.2533 0.0
C210 C 0.87381 0.35071 0.45844 0.0
C211 C 0.83759 0.3432 0.34316 0.0
C212 C 0.86743 0.40458 0.425 0.0
C213 C 0.85542 0.41205 0.41022 0.0
C214 C 0.8385 0.40478 0.44327 0.0
C215 C 0.82763 0.41242 0.43179 0.0
C216 C 0.83345 0.42762 0.3873 0.0
C217 C 0.85031 0.43474 0.35377 0.0
C218 C 0.86116 0.42713 0.36528 0.0
C219 C 0.87562 0.37731 0.22221 0.0
O220 O 0.90574 0.36974 0.31986 0.0
O221 O 0.90339 0.39078 0.39018 0.0
O222 O 0.87313 0.32145 0.3013 0.0
O223 O 0.88677 0.34189 0.21847 0.0
O224 O 0.86782 0.33545 0.42561 0.0
O225 O 0.88246 0.36337 0.41517 0.0
O226 O 0.84583 0.35877 0.37756 0.0
O227 O 0.8466 0.33738 0.30412 0.0
O228 O 0.88054 0.40878 0.37923 0.0
O229 O 0.86004 0.38789 0.44635 0.0
O230 O 0.88247 0.39275 0.25345 0.0
O231 O 0.8673 0.3652 0.26767 0.0
H232 H 0.87459 0.29568 0.16833 0.0
H233 H 0.89424 0.28339 0.14594 0.0
H234 H 0.93687 0.32774 0.262 0.0
H235 H 0.91699 0.34016 0.28326 0.0
H236 H 0.83371 0.3933 0.47886 0.0
H237 H 0.81484 0.40667 0.45929 0.0
H238 H 0.85517 0.44623 0.31826 0.0
H239 H 0.87414 0.4332 0.33922 0.0
Ho240 Ho 0.38909 0.88408 0.63723 0.0
Ho241 Ho 0.35587 0.8475 0.68456 0.0
C242 C 0.35144 0.88236 0.68445 0.0
C243 C 0.41066 0.91301 0.56671 0.0
C244 C 0.41595 0.93204 0.55376 0.0
C245 C 0.41804 0.93823 0.48212 0.0
C246 C 0.42513 0.95648 0.46726 0.0
C247 C 0.43039 0.96909 0.52377 0.0
C248 C 0.42771 0.96277 0.59573 0.0
C249 C 0.42061 0.94447 0.61058 0.0
C250 C 0.38653 0.87664 0.77904 0.0
C251 C 0.39475 0.85025 0.65499 0.0
C252 C 0.33342 0.81679 0.74129 0.0
C253 C 0.32631 0.79739 0.72691 0.0
C254 C 0.32835 0.7867 0.77926 0.0
C255 C 0.32063 0.76817 0.76918 0.0
C256 C 0.31052 0.75979 0.70665 0.0
C257 C 0.30873 0.77057 0.65372 0.0
C258 C 0.31654 0.78911 0.66362 0.0
C259 C 0.35985 0.85445 0.54134 0.0
O260 O 0.36666 0.89075 0.64712 0.0
O261 O 0.34588 0.86637 0.71384 0.0
O262 O 0.41443 0.90874 0.62982 0.0
O263 O 0.39523 0.90063 0.54088 0.0
O264 O 0.40171 0.88661 0.74657 0.0
O265 O 0.37371 0.87304 0.73703 0.0
O266 O 0.37888 0.84183 0.68745 0.0
O267 O 0.4006 0.86587 0.6218 0.0
O268 O 0.32881 0.8255 0.6961 0.0
O269 O 0.35014 0.8263 0.76214 0.0
O270 O 0.34443 0.84494 0.57207 0.0
O271 O 0.37201 0.85813 0.5865 0.0
H272 H 0.41462 0.92897 0.43727 0.0
H273 H 0.42665 0.96072 0.41124 0.0
H274 H 0.43169 0.97205 0.64071 0.0
H275 H 0.41924 0.94014 0.66646 0.0
H276 H 0.33566 0.79265 0.8288 0.0
H277 H 0.32216 0.76032 0.81147 0.0
H278 H 0.30128 0.76466 0.60443 0.0
H279 H 0.31469 0.79689 0.62196 0.0
Ho280 Ho 0.18807 0.5271 0.63826 0.0
Ho281 Ho 0.22442 0.52974 0.68547 0.0
C282 C 0.189 0.49094 0.68981 0.0
C283 C 0.15904 0.51958 0.56794 0.0
C284 C 0.13981 0.50584 0.55837 0.0
C285 C 0.13406 0.4962 0.49306 0.0
C286 C 0.11578 0.48491 0.47879 0.0
C287 C 0.10271 0.48306 0.52926 0.0
C288 C 0.10851 0.49235 0.59547 0.0
C289 C 0.1268 0.5036 0.60982 0.0
C290 C 0.19584 0.53233 0.77982 0.0
C291 C 0.22254 0.56625 0.65233 0.0
C292 C 0.25501 0.53767 0.74264 0.0
C293 C 0.27442 0.5499 0.7288 0.0
C294 C 0.28505 0.56246 0.78167 0.0
C295 C 0.30359 0.57328 0.77193 0.0
C296 C 0.31201 0.57172 0.70921 0.0
C297 C 0.3013 0.55931 0.65581 0.0
C298 C 0.28275 0.54856 0.66537 0.0
C299 C 0.2169 0.52576 0.54285 0.0
O300 O 0.18072 0.49786 0.65197 0.0
O301 O 0.20519 0.50124 0.71774 0.0
O302 O 0.16387 0.52867 0.62865 0.0
O303 O 0.17109 0.51583 0.54374 0.0
O304 O 0.18587 0.53759 0.74749 0.0
O305 O 0.19912 0.52287 0.73795 0.0
O306 O 0.23085 0.55865 0.68462 0.0
O307 O 0.20667 0.55665 0.62075 0.0
O308 O 0.24632 0.52449 0.69695 0.0
O309 O 0.24555 0.54494 0.76357 0.0
O310 O 0.22624 0.51973 0.57448 0.0
O311 O 0.21373 0.53491 0.58661 0.0
H312 H 0.14371 0.49784 0.45179 0.0
H313 H 0.11189 0.47818 0.42691 0.0
H314 H 0.09888 0.49107 0.63612 0.0
H315 H 0.13067 0.51088 0.66054 0.0
H316 H 0.27904 0.5637 0.8313 0.0
H317 H 0.31139 0.58254 0.81456 0.0
H318 H 0.30726 0.5579 0.60639 0.0
H319 H 0.275 0.53906 0.62334 0.0
Ho320 Ho 0.5445 0.68237 0.64676 0.0
Ho321 Ho 0.54178 0.71612 0.69133 0.0
C322 C 0.58045 0.7191 0.70027 0.0
C323 C 0.55105 0.66005 0.5775 0.0
C324 C 0.56399 0.65382 0.56451 0.0
C325 C 0.56087 0.64223 0.50614 0.0
C326 C 0.57202 0.63503 0.49386 0.0
C327 C 0.58665 0.63926 0.53974 0.0
C328 C 0.59005 0.65129 0.59743 0.0
C329 C 0.57877 0.65847 0.60989 0.0
C330 C 0.53813 0.68481 0.78727 0.0
C331 C 0.50536 0.67787 0.65764 0.0
C332 C 0.53359 0.73885 0.74595 0.0
C333 C 0.52165 0.74627 0.73002 0.0
C334 C 0.50948 0.74527 0.78295 0.0
C335 C 0.49878 0.75306 0.77112 0.0
C336 C 0.50007 0.76217 0.70611 0.0
C337 C 0.51211 0.76296 0.6527 0.0
C338 C 0.52275 0.75508 0.6644 0.0
C339 C 0.54619 0.71243 0.5489 0.0
O340 O 0.57371 0.70411 0.66131 0.0
O341 O 0.57002 0.72495 0.72743 0.0
O342 O 0.54328 0.65672 0.64101 0.0
O343 O 0.55495 0.67576 0.55197 0.0
O344 O 0.53301 0.66961 0.75502 0.0
O345 O 0.54806 0.69755 0.74628 0.0
O346 O 0.51286 0.69377 0.68976 0.0
O347 O 0.51505 0.67158 0.62711 0.0
O348 O 0.54719 0.74334 0.70251 0.0
O349 O 0.52589 0.72205 0.76575 0.0
O350 O 0.55218 0.72778 0.58053 0.0
O351 O 0.5369 0.70018 0.59271 0.0
H352 H 0.54958 0.63852 0.47032 0.0
H353 H 0.56916 0.62612 0.44817 0.0
H354 H 0.60114 0.65478 0.63403 0.0
H355 H 0.58141 0.6674 0.65533 0.0
H356 H 0.50844 0.73868 0.83418 0.0
H357 H 0.48983 0.75235 0.81383 0.0
H358 H 0.5133 0.76965 0.60162 0.0
H359 H 0.53194 0.75605 0.62228 0.0
H360 H 0.13271 0.32896 0.90477 0.0
H361 H 0.14694 0.36069 0.87468 0.0
H362 H 0.09705 0.3528 0.78811 0.0
H363 H 0.08247 0.32105 0.82001 0.0
H364 H 0.12535 0.37288 0.69688 0.0
H365 H 0.11193 0.37326 0.94839 0.0
H366 H 0.11182 0.36663 0.07836 0.0
H367 H 0.16931 0.39634 0.0817 0.0
H368 H 0.16978 0.40292 0.95141 0.0
H369 H 0.15434 0.4657 0.65524 0.0
H370 H 0.1381 0.43405 0.68899 0.0
H371 H 0.1851 0.44027 0.79861 0.0
H372 H 0.20127 0.47197 0.76655 0.0
H373 H 0.15707 0.42087 0.87905 0.0
H374 H 0.17101 0.41936 0.62844 0.0
H375 H 0.17177 0.42595 0.49807 0.0
H376 H 0.11429 0.39835 0.49231 0.0
H377 H 0.11319 0.39179 0.62295 0.0
C378 C 0.12459 0.33393 0.88062 0.0
C379 C 0.10631 0.32225 0.86541 0.0
C380 C 0.13283 0.35215 0.86301 0.0
C381 C 0.12308 0.35924 0.82951 0.0
C382 C 0.10489 0.34768 0.81378 0.0
C383 C 0.09658 0.32945 0.83187 0.0
C384 C 0.13197 0.37864 0.80979 0.0
C385 C 0.13205 0.38338 0.73691 0.0
C386 C 0.14113 0.39239 0.86156 0.0
C387 C 0.14089 0.38842 0.9399 0.0
C388 C 0.12456 0.37824 0.97665 0.0
C389 C 0.12443 0.37452 0.05043 0.0
C390 C 0.14055 0.38101 0.08822 0.0
C391 C 0.15683 0.39129 0.05233 0.0
C392 C 0.15704 0.39503 0.97853 0.0
C393 C 0.16128 0.46034 0.68622 0.0
C394 C 0.1792 0.47146 0.7077 0.0
C395 C 0.15196 0.44217 0.70535 0.0
C396 C 0.16038 0.43458 0.74569 0.0
C397 C 0.17824 0.44569 0.76745 0.0
C398 C 0.18753 0.46387 0.74867 0.0
C399 C 0.15061 0.41516 0.76591 0.0
C400 C 0.15035 0.4104 0.83894 0.0
C401 C 0.1414 0.40138 0.71418 0.0
C402 C 0.14202 0.40525 0.63562 0.0
C403 C 0.15853 0.41481 0.59949 0.0
C404 C 0.15903 0.41852 0.52553 0.0
C405 C 0.14309 0.41262 0.48698 0.0
C406 C 0.12663 0.40294 0.52227 0.0
C407 C 0.12606 0.39921 0.59625 0.0
H408 H 0.1435 0.4155 0.42972 0.0
H409 H 0.14042 0.37813 0.14535 0.0
H410 H 0.75311 0.7917 0.77845 0.0
H411 H 0.72117 0.77385 0.75052 0.0
H412 H 0.70993 0.80459 0.90445 0.0
H413 H 0.74186 0.82248 0.93275 0.0
H414 H 0.68598 0.76996 0.91698 0.0
H415 H 0.71044 0.81137 0.71777 0.0
H416 H 0.73102 0.82641 0.61573 0.0
H417 H 0.71183 0.77583 0.50895 0.0
H418 H 0.69129 0.76045 0.61085 0.0
H419 H 0.59802 0.74627 0.79866 0.0
H420 H 0.62979 0.76178 0.83075 0.0
H421 H 0.63881 0.72917 0.67855 0.0
H422 H 0.607 0.71354 0.64605 0.0
H423 H 0.66393 0.76387 0.66457 0.0
H424 H 0.63988 0.72226 0.85918 0.0
H425 H 0.62166 0.70578 0.96505 0.0
H426 H 0.64068 0.75516 0.08104 0.0
H427 H 0.65894 0.77197 0.97566 0.0
C428 C 0.74387 0.79475 0.80613 0.0
C429 C 0.75015 0.80864 0.85767 0.0
C430 C 0.72557 0.78451 0.79002 0.0
C431 C 0.71307 0.788 0.82444 0.0
C432 C 0.71925 0.80161 0.87699 0.0
C433 C 0.73755 0.81181 0.89336 0.0
C434 C 0.69357 0.77748 0.80597 0.0
C435 C 0.68114 0.76888 0.86191 0.0
C436 C 0.68722 0.77551 0.7338 0.0
C437 C 0.69945 0.78475 0.67224 0.0
C438 C 0.71069 0.80345 0.67275 0.0
C439 C 0.72234 0.81203 0.61491 0.0
C440 C 0.72277 0.80208 0.55598 0.0
C441 C 0.7115 0.78352 0.55467 0.0
C442 C 0.69984 0.77487 0.61241 0.0
C443 C 0.60672 0.74236 0.77185 0.0
C444 C 0.59987 0.72865 0.71943 0.0
C445 C 0.62491 0.75118 0.79079 0.0
C446 C 0.63675 0.74658 0.7577 0.0
C447 C 0.62998 0.73296 0.70508 0.0
C448 C 0.61175 0.72402 0.68653 0.0
C449 C 0.65628 0.75647 0.7758 0.0
C450 C 0.66874 0.76498 0.71972 0.0
C451 C 0.66266 0.75828 0.84786 0.0
C452 C 0.65066 0.74838 0.90921 0.0
C453 C 0.63999 0.72963 0.90686 0.0
C454 C 0.62978 0.72022 0.96703 0.0
C455 C 0.63011 0.72941 0.0299 0.0
C456 C 0.64052 0.74805 0.03248 0.0
C457 C 0.6508 0.75753 0.97254 0.0
H458 H 0.62217 0.72209 0.07638 0.0
H459 H 0.7318 0.80875 0.51126 0.0
H460 H 0.24573 0.93916 0.9016 0.0
H461 H 0.26274 0.92441 0.87007 0.0
H462 H 0.30302 0.97286 0.76781 0.0
H463 H 0.28601 0.98772 0.79906 0.0
H464 H 0.29564 0.945 0.68459 0.0
H465 H 0.30988 0.95875 0.93582 0.0
H466 H 0.30352 0.95919 0.06582 0.0
H467 H 0.27515 0.90172 0.07052 0.0
H468 H 0.28113 0.90094 0.94026 0.0
H469 H 0.36051 0.91689 0.64935 0.0
H470 H 0.34449 0.93272 0.68037 0.0
H471 H 0.30334 0.88528 0.78552 0.0
H472 H 0.31945 0.86946 0.75604 0.0
H473 H 0.3119 0.91339 0.86762 0.0
H474 H 0.29716 0.89964 0.61592 0.0
H475 H 0.30353 0.8992 0.48594 0.0
H476 H 0.33293 0.95667 0.48232 0.0
H477 H 0.32693 0.95745 0.61256 0.0
C478 C 0.25833 0.9468 0.87329 0.0
C479 C 0.2645 0.96471 0.85335 0.0
C480 C 0.26806 0.9383 0.85513 0.0
C481 C 0.28434 0.94754 0.81722 0.0
C482 C 0.29052 0.9654 0.79698 0.0
C483 C 0.28074 0.97389 0.81486 0.0
C484 C 0.29473 0.93847 0.7977 0.0
C485 C 0.29942 0.93832 0.72487 0.0
C486 C 0.29937 0.92936 0.84971 0.0
C487 C 0.29581 0.9298 0.92811 0.0
C488 C 0.30217 0.94621 0.96444 0.0
C489 C 0.29865 0.94652 0.0382 0.0
C490 C 0.2889 0.93049 0.07636 0.0
C491 C 0.28269 0.91412 0.04087 0.0
C492 C 0.28615 0.91374 0.96709 0.0
C493 C 0.348 0.90975 0.67868 0.0
C494 C 0.34129 0.89183 0.69995 0.0
C495 C 0.33879 0.91884 0.69624 0.0
C496 C 0.32255 0.9102 0.73478 0.0
C497 C 0.31582 0.8923 0.75585 0.0
C498 C 0.32505 0.88323 0.73862 0.0
C499 C 0.31272 0.91983 0.75445 0.0
C500 C 0.30814 0.92009 0.82734 0.0
C501 C 0.30818 0.92904 0.70251 0.0
C502 C 0.31174 0.9286 0.62414 0.0
C503 C 0.30509 0.91218 0.58752 0.0
C504 C 0.30862 0.91187 0.51378 0.0
C505 C 0.31867 0.92789 0.47594 0.0
C506 C 0.32517 0.94426 0.51172 0.0
C507 C 0.32169 0.94465 0.58548 0.0
H508 H 0.32139 0.92762 0.41885 0.0
H509 H 0.2862 0.93076 0.13346 0.0
H510 H 0.41667 0.11809 0.15662 0.0
H511 H 0.38505 0.10092 0.12269 0.0
H512 H 0.37637 0.14223 0.21124 0.0
H513 H 0.40801 0.15979 0.24315 0.0
H514 H 0.34967 0.10824 0.25104 0.0
H515 H 0.37964 0.13934 0.03276 0.0
H516 H 0.40201 0.14843 0.93501 0.0
H517 H 0.38019 0.09348 0.87196 0.0
H518 H 0.35785 0.08403 0.97011 0.0
H519 H 0.26542 0.08473 0.1011 0.0
H520 H 0.29718 0.1005 0.13219 0.0
H521 H 0.3038 0.06 0.02252 0.0
H522 H 0.27199 0.04425 -0.01008 0.0
H523 H 0.33161 0.09227 -0.00563 0.0
H524 H 0.30111 0.06085 0.20832 0.0
H525 H 0.27861 0.05118 0.3057 0.0
H526 H 0.3013 0.10553 0.37831 0.0
H527 H 0.32378 0.11559 0.2805 0.0
C528 C 0.40814 0.12367 0.1684 0.0
C529 C 0.41511 0.14046 0.20274 0.0
C530 C 0.38998 0.11375 0.14919 0.0
C531 C 0.37829 0.1203 0.16399 0.0
C532 C 0.38507 0.13683 0.1995 0.0
C533 C 0.40323 0.14683 0.21815 0.0
C534 C 0.35906 0.1101 0.14162 0.0
C535 C 0.34572 0.10492 0.19483 0.0
C536 C 0.35384 0.10531 0.06852 0.0
C537 C 0.3672 0.11096 0.00928 0.0
C538 C 0.37971 0.12918 -0.00155 0.0
C539 C 0.39237 0.1344 0.9429 0.0
C540 C 0.39256 0.12153 0.89744 0.0
C541 C 0.38005 0.10342 0.90731 0.0
C542 C 0.36738 0.09813 0.96286 0.0
C543 C 0.27359 0.07916 0.08318 0.0
C544 C 0.26602 0.06311 0.04326 0.0
C545 C 0.2918 0.08819 0.10142 0.0
C546 C 0.30292 0.08132 0.08096 0.0
C547 C 0.29554 0.06557 0.03931 0.0
C548 C 0.2773 0.05655 0.02076 0.0
C549 C 0.32216 0.09051 0.10374 0.0
C550 C 0.33551 0.0955 0.05066 0.0
C551 C 0.3274 0.09501 0.1771 0.0
C552 C 0.31404 0.089 0.23661 0.0
C553 C 0.30124 0.07076 0.24473 0.0
C554 C 0.28849 0.06521 0.30004 0.0
C555 C 0.28849 0.07773 0.34807 0.0
C556 C 0.30129 0.09584 0.341 0.0
C557 C 0.31405 0.10148 0.28565 0.0
H558 H 0.2786 0.07339 0.39083 0.0
H559 H 0.40237 0.1256 0.85445 0.0
H560 H 0.95298 0.32163 0.16635 0.0
H561 H 0.97155 0.30813 0.14001 0.0
H562 H 0.92641 0.25572 0.18147 0.0
H563 H 0.90799 0.26911 0.21001 0.0
H564 H 0.956 0.25855 0.24013 0.0
H565 H 0.93997 0.27205 0.00684 0.0
H566 H 0.93828 0.29185 0.9145 0.0
H567 H 0.99564 0.32411 0.91362 0.0
H568 H 0.99765 0.30463 0.00667 0.0
H569 H 0.98389 0.20246 0.07903 0.0
H570 H 0.96812 0.21856 0.10868 0.0
H571 H 1.01462 0.26835 0.04708 0.0
H572 H 0.03028 0.25218 0.01472 0.0
H573 H 0.98628 0.26871 0.00211 0.0
H574 H 1.00294 0.25503 0.23001 0.0
H575 H 1.00526 0.23577 0.32313 0.0
H576 H 0.94793 0.2049 0.33731 0.0
H577 H 0.94525 0.22382 0.24349 0.0
C578 C 0.94706 0.30725 0.17073 0.0
C579 C 0.9289 0.29648 0.18973 0.0
C580 C 0.95766 0.29952 0.15493 0.0
C581 C 0.95035 0.28083 0.15759 0.0
C582 C 0.93239 0.27013 0.17856 0.0
C583 C 0.9218 0.27783 0.19428 0.0
C584 C 0.96121 0.27228 0.13791 0.0
C585 C 0.96247 0.26065 0.18779 0.0
C586 C 0.97015 0.27536 0.07048 0.0
C587 C 0.96894 0.28699 0.01422 0.0
C588 C 0.95221 0.28344 -0.01269 0.0
C589 C 0.9512 0.29459 0.93479 0.0
C590 C 0.96684 0.30925 0.90835 0.0
C591 C 0.98353 0.31277 0.93422 0.0
C592 C 0.98462 0.30167 -0.0132 0.0
C593 C 0.99078 0.21684 0.07154 0.0
C594 C 1.00843 0.22601 0.04487 0.0
C595 C 0.98176 0.22608 0.08903 0.0
C596 C 0.99025 0.2448 0.08189 0.0
C597 C 1.00774 0.25394 0.05356 0.0
C598 C 1.0167 0.24466 0.03509 0.0
C599 C 0.98089 0.25476 0.104 0.0
C600 C 0.97992 0.26667 0.05466 0.0
C601 C 0.97234 0.25205 0.17224 0.0
C602 C 0.9739 0.24076 0.22927 0.0
C603 C 0.99082 0.24407 0.25267 0.0
C604 C 0.99221 0.23322 0.30561 0.0
C605 C 0.97675 0.2191 0.33601 0.0
C606 C 0.95988 0.21583 0.31367 0.0
C607 C 0.95843 0.22663 0.26067 0.0
H608 H 0.97785 0.21071 0.37695 0.0
H609 H 0.96603 0.31787 0.86771 0.0
H610 H 0.8315 0.79706 0.94562 0.0
H611 H 0.816 0.76513 0.97457 0.0
H612 H 0.84513 0.77673 0.17612 0.0
H613 H 0.86133 0.80856 0.14535 0.0
H614 H 0.84298 0.7485 0.12624 0.0
H615 H 0.79874 0.76632 0.1579 0.0
H616 H 0.78041 0.77966 0.12129 0.0
H617 H 0.75719 0.74135 0.94893 0.0
H618 H 0.77557 0.72792 0.98394 0.0
H619 H 0.78649 0.66761 0.31002 0.0
H620 H 0.80072 0.69881 0.27157 0.0
H621 H 0.77878 0.68214 0.05732 0.0
H622 H 0.76479 0.6507 0.09481 0.0
H623 H 0.77679 0.71209 0.10877 0.0
H624 H 0.82107 0.69388 0.08437 0.0
H625 H 0.83919 0.68078 0.12679 0.0
H626 H 0.86192 0.72047 0.29452 0.0
H627 H 0.84373 0.73365 0.25374 0.0
C628 C 0.83466 0.79279 -0.00403 0.0
C629 C 0.84766 0.80539 0.0432 0.0
C630 C 0.82566 0.77449 0.01287 0.0
C631 C 0.82899 0.76835 0.07855 0.0
C632 C 0.8422 0.78096 0.12517 0.0
C633 C 0.85149 0.79922 0.10753 0.0
C634 C 0.81886 0.74889 0.09873 0.0
C635 C 0.82849 0.74069 0.12322 0.0
C636 C 0.79991 0.73835 0.0936 0.0
C637 C 0.78866 0.74623 0.07312 0.0
C638 C 0.7898 0.7608 0.11196 0.0
C639 C 0.77939 0.76837 0.09151 0.0
C640 C 0.76768 0.76139 0.0327 0.0
C641 C 0.76629 0.74676 -0.00559 0.0
C642 C 0.77668 0.73915 0.01457 0.0
C643 C 0.78471 0.67048 0.2545 0.0
C644 C 0.77465 0.65647 0.20534 0.0
C645 C 0.79283 0.6884 0.2327 0.0
C646 C 0.79107 0.69287 0.16122 0.0
C647 C 0.78038 0.67904 0.11273 0.0
C648 C 0.77231 0.66103 0.13442 0.0
C649 C 0.80095 0.71195 0.13693 0.0
C650 C 0.79128 0.72001 0.11162 0.0
C651 C 0.81984 0.72246 0.14226 0.0
C652 C 0.83092 0.71466 0.16637 0.0
C653 C 0.82984 0.69974 0.13062 0.0
C654 C 0.84013 0.69231 0.15432 0.0
C655 C 0.85167 0.69976 0.21341 0.0
C656 C 0.85297 0.7147 0.2488 0.0
C657 C 0.84268 0.72216 0.22537 0.0
H658 H 0.85962 0.69399 0.23169 0.0
H659 H 0.75966 0.76729 0.01688 0.0
H660 H 0.07612 0.49088 0.55831 0.0
H661 H 0.04438 0.47348 0.52744 0.0
H662 H 0.05307 0.43317 0.42808 0.0
H663 H 0.08494 0.45057 0.45883 0.0
H664 H 0.03174 0.43975 0.34456 0.0
H665 H 0.03274 0.42661 0.59595 0.0
H666 H 0.0401 0.4334 0.72537 0.0
H667 H 1.01046 0.46129 0.73173 0.0
H668 H 1.00313 0.45489 0.60204 0.0
H669 H 0.93805 0.3752 0.31798 0.0
H670 H 0.97016 0.3909 0.34504 0.0
H671 H 0.96536 0.43295 0.45065 0.0
H672 H 0.93331 0.41722 0.42524 0.0
H673 H 0.9848 0.42403 0.53115 0.0
H674 H 0.9845 0.43785 0.27857 0.0
H675 H 0.97672 0.43056 0.14968 0.0
H676 H 1.00474 0.40103 0.14588 0.0
H677 H 1.01247 0.40792 0.2751 0.0
C678 C 0.07129 0.4782 0.53076 0.0
C679 C 0.08317 0.47212 0.51166 0.0
C680 C 0.05308 0.46825 0.51291 0.0
C681 C 0.04617 0.45184 0.47612 0.0
C682 C 0.058 0.44578 0.45641 0.0
C683 C 0.07626 0.45577 0.47402 0.0
C684 C 1.02666 0.44113 0.45798 0.0
C685 C 1.02149 0.4361 0.3856 0.0
C686 C 1.01317 0.43656 0.51102 0.0
C687 C 1.01753 0.4404 0.58908 0.0
C688 C 1.02791 0.43431 0.6248 0.0
C689 C 0.03205 0.43807 0.69823 0.0
C690 C 1.02579 0.44781 0.7367 0.0
C691 C 1.01532 0.45377 0.70184 0.0
C692 C 1.01116 0.45006 0.62839 0.0
C693 C 0.94383 0.38785 0.34654 0.0
C694 C 0.933 0.3949 0.36937 0.0
C695 C 0.96225 0.39687 0.36184 0.0
C696 C 0.97032 0.41325 0.39955 0.0
C697 C 0.95953 0.42034 0.42172 0.0
C698 C 0.94115 0.41132 0.40683 0.0
C699 C 0.98986 0.42287 0.41761 0.0
C700 C 0.99505 0.42766 0.49008 0.0
C701 C 1.00333 0.42719 0.36464 0.0
C702 C 0.99891 0.42325 0.2867 0.0
C703 C 0.98891 0.4297 0.25037 0.0
C704 C 0.98452 0.42566 0.17725 0.0
C705 C 0.99019 0.4153 0.13967 0.0
C706 C 1.00033 0.40903 0.17509 0.0
C707 C 1.00473 0.41301 0.24825 0.0
H708 H 0.98676 0.41217 0.08308 0.0
H709 H 0.02901 0.4507 0.79356 0.0
H710 H 0.57549 0.60441 0.50386 0.0
H711 H 0.59371 0.59059 0.47934 0.0
H712 H 0.64161 0.64066 0.52457 0.0
H713 H 0.62339 0.65477 0.54782 0.0
H714 H 0.64521 0.62469 0.40179 0.0
H715 H 0.62592 0.60684 0.64676 0.0
H716 H 0.60395 0.5939 0.74605 0.0
H717 H 0.57747 0.54334 0.63552 0.0
H718 H 0.59913 0.55605 0.53506 0.0
H719 H 0.70247 0.58718 0.40494 0.0
H720 H 0.68614 0.6027 0.43529 0.0
H721 H 0.63617 0.55284 0.42085 0.0
H722 H 0.6525 0.53712 0.39345 0.0
H723 H 0.63461 0.56987 0.5317 0.0
H724 H 0.65238 0.5873 0.28479 0.0
H725 H 0.67374 0.5997 0.18322 0.0
H726 H 0.70214 0.65025 0.29293 0.0
H727 H 0.68107 0.63809 0.39561 0.0
C728 C 0.58991 0.61257 0.50827 0.0
C729 C 0.59794 0.63077 0.52765 0.0
C730 C 0.60032 0.60457 0.49479 0.0
C731 C 0.61907 0.61451 0.50062 0.0
C732 C 0.62718 0.63269 0.51984 0.0
C733 C 0.61673 0.64071 0.5337 0.0
C734 C 0.63009 0.60587 0.48589 0.0
C735 C 0.64309 0.61286 0.43096 0.0
C736 C 0.62705 0.59015 0.52253 0.0
C737 C 0.61407 0.58245 0.58309 0.0
C738 C 0.61533 0.593 0.64337 0.0
C739 C 0.60295 0.5857 0.69991 0.0
C740 C 0.5893 0.56782 0.69702 0.0
C741 C 0.58804 0.55719 0.63766 0.0
C742 C 0.60038 0.56443 0.58095 0.0
C743 C 0.68799 0.5795 0.4079 0.0
C744 C 0.67882 0.56087 0.39643 0.0
C745 C 0.67862 0.58844 0.42498 0.0
C746 C 0.65981 0.57907 0.42931 0.0
C747 C 0.65065 0.56045 0.41792 0.0
C748 C 0.66003 0.55145 0.40199 0.0
C749 C 0.64966 0.58854 0.44685 0.0
C750 C 0.6368 0.58171 0.50246 0.0
C751 C 0.65272 0.60431 0.41031 0.0
C752 C 0.66525 0.61173 0.34818 0.0
C753 C 0.66324 0.60103 0.28743 0.0
C754 C 0.67529 0.60802 0.22964 0.0
C755 C 0.68932 0.62573 0.23172 0.0
C756 C 0.69128 0.63652 0.29145 0.0
C757 C 0.67928 0.6296 0.34942 0.0
H758 H 0.69865 0.63111 0.18698 0.0
H759 H 0.57973 0.56219 0.74084 0.0
H760 H 0.53463 0.13993 0.43434 0.0
H761 H 0.5189 0.1078 0.45881 0.0
H762 H 0.4711 0.10257 0.36036 0.0
H763 H 0.4869 0.13466 0.3341 0.0
H764 H 0.49162 0.08693 0.53943 0.0
H765 H 0.44635 0.06131 0.28558 0.0
H766 H 0.44661 0.06988 0.15784 0.0
H767 H 0.50411 0.09806 0.15789 0.0
H768 H 0.50419 0.08947 0.28529 0.0
H769 H 0.42593 0.99505 0.59234 0.0
H770 H 0.44089 0.02714 0.56563 0.0
H771 H 0.47004 0.0198 0.39178 0.0
H772 H 0.45517 0.98781 0.41805 0.0
H773 H 0.45916 0.04168 0.3483 0.0
H774 H 0.48962 0.03773 0.55879 0.0
H775 H 0.49223 0.02918 0.6838 0.0
H776 H 0.46942 0.06007 0.76539 0.0
H777 H 0.46646 0.06861 0.64071 0.0
C778 C 0.5208 0.13197 0.41746 0.0
C779 C 0.51211 0.13998 0.38185 0.0
C780 C 0.51176 0.11354 0.43185 0.0
C781 C 0.49379 0.10259 0.41107 0.0
C782 C 0.48503 0.11058 0.37595 0.0
C783 C 0.4941 0.129 0.36111 0.0
C784 C 0.48429 0.0829 0.42656 0.0
C785 C 0.48449 0.07707 0.49755 0.0
C786 C 0.47515 0.06986 0.37208 0.0
C787 C 0.47526 0.0749 0.29518 0.0
C788 C 0.45904 0.06928 0.25822 0.0
C789 C 0.45913 0.07415 0.18591 0.0
C790 C 0.47537 0.08456 0.14985 0.0
C791 C 0.49155 0.09006 0.18596 0.0
C792 C 0.49153 0.08521 0.25824 0.0
C793 C 0.4356 1.00026 0.54867 0.0
C794 C 0.43927 0.98872 0.50739 0.0
C795 C 0.44416 0.01866 0.53337 0.0
C796 C 0.45677 0.02605 0.47693 0.0
C797 C 0.46033 1.01452 0.43533 0.0
C798 C 0.45174 0.99615 0.45037 0.0
C799 C 0.46638 0.04573 0.46128 0.0
C800 C 0.46619 0.05155 0.39027 0.0
C801 C 0.47587 0.05875 0.51541 0.0
C802 C 0.47765 0.05365 0.59039 0.0
C803 C 0.48504 0.04259 0.60336 0.0
C804 C 0.4866 0.03776 0.67415 0.0
C805 C 0.48095 0.04404 0.73248 0.0
C806 C 0.47377 0.05519 0.72014 0.0
C807 C 0.47215 0.06004 0.64943 0.0
H808 H 0.48218 0.0403 0.78725 0.0
H809 H 0.47541 0.08833 0.0939 0.0
H810 H 0.17354 0.12437 0.98354 0.0
H811 H 0.15591 0.13933 0.96964 0.0
H812 H 0.11343 0.09801 0.09674 0.0
H813 H 0.13087 0.08279 0.10986 0.0
H814 H 0.10029 0.1065 0.97807 0.0
H815 H 0.14135 0.13835 0.17074 0.0
H816 H 0.17094 0.1553 0.22916 0.0
H817 H 0.18753 0.19636 0.06741 0.0
H818 H 0.1581 0.17951 0.00737 0.0
H819 H 0.05122 0.15001 0.06173 0.0
H820 H 0.06909 0.1353 0.06651 0.0
H821 H 0.11115 0.17882 0.94601 0.0
H822 H 0.09338 0.19386 0.94182 0.0
H823 H 0.12489 0.1695 0.05699 0.0
H824 H 0.08347 0.13801 0.86589 0.0
H825 H 0.05375 0.12114 0.80836 0.0
H826 H 0.03776 0.07947 0.96695 0.0
H827 H 0.06732 0.0962 0.02605 0.0
C828 C 0.16037 0.11835 0.008 0.0
C829 C 0.15366 0.10236 0.04796 0.0
C830 C 0.15036 0.12702 0.0005 0.0
C831 C 0.13338 0.11993 0.03272 0.0
C832 C 0.1265 0.1038 0.07153 0.0
C833 C 0.13656 0.09517 0.07945 0.0
C834 C 0.12285 0.12936 0.02632 0.0
C835 C 0.10559 0.12021 -0.00388 0.0
C836 C 0.12989 0.14741 0.04815 0.0
C837 C 0.14759 0.15757 0.08411 0.0
C838 C 0.15136 0.15092 0.14725 0.0
C839 C 0.16809 0.16052 0.18073 0.0
C840 C 0.18113 0.17687 0.15189 0.0
C841 C 0.17743 0.18368 0.0896 0.0
C842 C 0.16073 0.17411 0.05585 0.0
C843 C 0.06423 0.1565 0.03585 0.0
C844 C 0.07077 0.17315 0.00104 0.0
C845 C 0.07444 0.14798 0.03842 0.0
C846 C 0.09143 0.15578 0.00582 0.0
C847 C 0.09808 0.17247 0.97142 0.0
C848 C 0.08785 0.18104 0.96884 0.0
C849 C 0.10228 0.14663 0.00889 0.0
C850 C 0.1196 0.15583 0.03855 0.0
C851 C 0.0953 0.12862 -0.01349 0.0
C852 C 0.07756 0.11844 0.95077 0.0
C853 C 0.07357 0.1253 0.88881 0.0
C854 C 0.05677 0.11576 0.85586 0.0
C855 C 0.04386 0.09926 0.88409 0.0
C856 C 0.04776 0.09225 0.9452 0.0
C857 C 0.06455 0.10175 0.97839 0.0
H858 H 0.03085 0.0919 0.85853 0.0
H859 H 0.19407 0.18429 0.17792 0.0
H860 H 0.87438 0.92028 0.94864 0.0
H861 H 0.8879 0.95296 0.9539 0.0
H862 H 0.93305 0.95676 0.07061 0.0
H863 H 0.91963 0.9244 0.06677 0.0
H864 H 0.92273 0.97749 0.13237 0.0
H865 H 0.93489 0.96761 0.88671 0.0
H866 H 0.9269 0.95455 0.76419 0.0
H867 H 0.89431 0.97878 0.73215 0.0
H868 H 0.90193 0.9918 0.85492 0.0
H869 H 0.98575 0.06988 0.1034 0.0
H870 H 0.97003 0.03728 0.09217 0.0
H871 H 0.92728 0.0386 0.97593 0.0
H872 H 0.943 0.07125 -0.01345 0.0
H873 H 0.93446 1.01523 0.91386 0.0
H874 H 0.92321 0.02611 0.15735 0.0
H875 H 0.93105 0.03912 0.27997 0.0
H876 H 0.96155 1.01282 0.31666 0.0
H877 H 0.95409 0.99985 0.19384 0.0
C878 C 0.8872 0.92808 0.97526 0.0
C879 C 0.89585 0.91959 0.00723 0.0
C880 C 0.89497 0.94681 0.97802 0.0
C881 C 0.91162 0.95745 0.01226 0.0
C882 C 0.92021 0.94895 0.04406 0.0
C883 C 0.91247 0.93033 0.04155 0.0
C884 C 0.92016 0.9774 0.01629 0.0
C885 C 0.92545 0.98573 0.08439 0.0
C886 C 0.92333 0.98825 0.95417 0.0
C887 C 0.91882 0.98051 0.88026 0.0
C888 C 0.92591 0.97004 0.85373 0.0
C889 C 0.92147 0.96266 0.78422 0.0
C890 C 0.91006 0.96578 0.7405 0.0
C891 C 0.90312 0.97634 0.76612 0.0
C892 C 0.90751 0.98373 0.83564 0.0
C893 C 0.97295 0.06325 0.07578 0.0
C894 C 0.96564 0.07327 0.04623 0.0
C895 C 0.96395 0.04456 0.06936 0.0
C896 C 0.94727 0.03533 0.03413 0.0
C897 C 0.9401 0.04532 0.00338 0.0
C898 C 0.94915 0.06404 0.00938 0.0
C899 C 0.93728 1.01532 0.02985 0.0
C900 C 0.93168 1.00699 0.96184 0.0
C901 C 0.9338 1.00443 0.09209 0.0
C902 C 0.93822 1.01214 0.16614 0.0
C903 C 0.93169 0.0232 0.19138 0.0
C904 C 0.93605 0.03056 0.26095 0.0
C905 C 0.94682 0.02684 0.30601 0.0
C906 C 0.95322 1.01571 0.28167 0.0
C907 C 0.94892 1.00834 0.2121 0.0
H908 H 0.95018 0.03254 0.35985 0.0
H909 H 0.90664 0.96006 0.6867 0.0
H910 H 1.00006 0.93443 0.10718 0.0
H911 H 0.03255 0.95264 0.09395 0.0
H912 H 0.03294 0.9108 0.96719 0.0
H913 H 1.00044 0.89246 0.98085 0.0
H914 H 0.05958 0.92337 0.0598 0.0
H915 H 0.0381 0.95029 0.88963 0.0
H916 H 1.02063 0.9642 0.84839 0.0
H917 H 0.0485 1.00722 -0.00022 0.0
H918 H 0.06597 0.99343 0.04264 0.0
H919 H 0.14981 0.97692 0.93735 0.0
H920 H 0.11714 0.95837 0.94141 0.0
H921 H 0.11428 0.99805 0.07407 0.0
H922 H 0.1468 1.01675 0.06936 0.0
H923 H 0.08887 0.98621 0.97367 0.0
H924 H 0.10967 0.95872 0.14596 0.0
H925 H 0.12717 0.9448 0.18672 0.0
H926 H 0.10057 0.90285 0.02988 0.0
H927 H 0.08307 0.91666 -0.01249 0.0
C928 C 1.00701 0.92916 0.07582 0.0
C929 C 0.99755 0.91196 0.04491 0.0
C930 C 1.02565 0.93961 0.06825 0.0
C931 C 0.0353 0.93326 0.02868 0.0
C932 C 1.02589 0.91606 -0.00196 0.0
C933 C 1.00727 0.90555 0.00601 0.0
C934 C 0.05519 0.9444 0.02028 0.0
C935 C 0.06593 0.93702 0.03988 0.0
C936 C 0.06366 0.96237 -0.00432 0.0
C937 C 0.05323 0.97073 0.9698 0.0
C938 C 0.04041 0.96265 0.91449 0.0
C939 C 0.03052 0.97052 0.89077 0.0
C940 C 0.03342 0.98656 0.92157 0.0
C941 C 0.04625 0.99478 0.97603 0.0
C942 C 0.05616 0.98695 1e-05 0.0
C943 C 0.14225 0.98173 0.96732 0.0
C944 C 0.15105 0.99836 0.00319 0.0
C945 C 0.12352 0.97105 0.96987 0.0
C946 C 0.11315 0.97667 0.0088 0.0
C947 C 0.1219 0.99337 0.04369 0.0
C948 C 0.14058 1.00405 0.04108 0.0
C949 C 0.09323 0.96521 0.01356 0.0
C950 C 0.08249 0.97253 -0.00671 0.0
C951 C 0.08476 0.94719 0.03742 0.0
C952 C 0.0952 0.93882 0.06308 0.0
C953 C 0.10765 0.9466 0.11981 0.0
C954 C 0.11755 0.93872 0.14326 0.0
C955 C 0.11502 0.92297 0.11078 0.0
C956 C 0.10254 0.91505 0.05492 0.0
C957 C 0.09262 0.9229 0.03119 0.0
H958 H 0.1227 0.91689 0.12901 0.0
H959 H 1.02575 0.99263 0.90313 0.0
H960 H 0.71577 0.47988 0.33855 0.0
H961 H 0.73301 0.4644 0.33725 0.0
H962 H 0.78204 0.51517 0.32286 0.0
H963 H 0.76468 0.53066 0.32011 0.0
H964 H 0.78561 0.49226 0.24507 0.0
H965 H 0.76398 0.49031 0.48697 0.0
H966 H 0.74067 0.48361 0.57834 0.0
H967 H 0.71563 0.42764 0.52702 0.0
H968 H 0.7385 0.43409 0.43347 0.0
H969 H 0.84461 0.46351 0.37931 0.0
H970 H 0.82645 0.47771 0.36227 0.0
H971 H 0.77865 0.42584 0.35655 0.0
H972 H 0.79678 0.41146 0.37274 0.0
H973 H 0.77408 0.44857 0.44169 0.0
H974 H 0.79596 0.45045 0.20153 0.0
H975 H 0.81887 0.45717 0.10789 0.0
H976 H 0.84377 0.51318 0.15814 0.0
H977 H 0.82115 0.50677 0.25284 0.0
C978 C 0.73022 0.48775 0.33458 0.0
C979 C 0.73887 0.50652 0.33012 0.0
C980 C 0.74011 0.47887 0.33426 0.0
C981 C 0.75894 0.48857 0.33209 0.0
C982 C 0.76756 0.50732 0.32506 0.0
C983 C 0.75763 0.51619 0.3236 0.0
C984 C 0.76962 0.47925 0.33929 0.0
C985 C 0.78321 0.48289 0.28868 0.0
C986 C 0.76633 0.46664 0.39514 0.0
C987 C 0.75287 0.46271 0.45276 0.0
C988 C 0.75346 0.47658 0.49492 0.0
C989 C 0.7403 0.47282 0.54711 0.0
C990 C 0.72668 0.45519 0.55864 0.0
C991 C 0.72619 0.44128 0.518 0.0
C992 C 0.73922 0.44499 0.46528 0.0
C993 C 0.83026 0.45505 0.37338 0.0
C994 C 0.82223 0.43627 0.37696 0.0
C995 C 0.81986 0.46323 0.36376 0.0
C996 C 0.80116 0.45288 0.35716 0.0
C997 C 0.79305 0.43414 0.36141 0.0
C998 C 0.80346 0.42593 0.37097 0.0
C999 C 0.79006 0.46163 0.34772 0.0
C1000 C 0.77644 0.45792 0.39804 0.0
C1001 C 0.79337 0.47419 0.29185 0.0
C1002 C 0.80695 0.4781 0.23475 0.0
C1003 C 0.80641 0.46418 0.19301 0.0
C1004 C 0.81932 0.46794 0.13967 0.0
C1005 C 0.83279 0.48559 0.12719 0.0
C1006 C 0.83334 0.49952 0.16792 0.0
C1007 C 0.82047 0.49583 0.22139 0.0
H1008 H 0.84278 0.48847 0.08587 0.0
H1009 H 0.71648 0.45227 0.59898 0.0
H1010 H 0.61027 0.40243 0.46613 0.0
H1011 H 0.59626 0.36999 0.4534 0.0
H1012 H 0.63445 0.37688 0.28784 0.0
H1013 H 0.64882 0.40939 0.30113 0.0
H1014 H 0.60105 0.35088 0.24991 0.0
H1015 H 0.63915 0.36511 0.45696 0.0
H1016 H 0.65149 0.37844 0.57625 0.0
H1017 H 0.59973 0.34641 0.67329 0.0
H1018 H 0.58702 0.33307 0.55429 0.0
H1019 H 0.58795 0.25921 0.39175 0.0
H1020 H 0.60237 0.29177 0.39584 0.0
H1021 H 0.55595 0.28932 0.29585 0.0
H1022 H 0.54151 0.25663 0.29016 0.0
H1023 H 0.59469 0.3134 0.46416 0.0
H1024 H 0.56842 0.32747 0.1979 0.0
H1025 H 0.55877 0.31435 0.07606 0.0
H1026 H 0.59167 0.29005 0.09263 0.0
H1027 H 0.6017 0.30321 0.2141 0.0
C1028 C 0.61587 0.39712 0.42747 0.0
C1029 C 0.63084 0.4087 0.38509 0.0
C1030 C 0.60774 0.3785 0.42 0.0
C1031 C 0.61435 0.3709 0.37005 0.0
C1032 C 0.62904 0.38237 0.32661 0.0
C1033 C 0.63723 0.40102 0.3342 0.0
C1034 C 0.60613 0.35102 0.36419 0.0
C1035 C 0.59962 0.34268 0.29682 0.0
C1036 C 0.60451 0.34026 0.42493 0.0
C1037 C 0.6121 0.34822 0.49659 0.0
C1038 C 0.63037 0.36102 0.50363 0.0
C1039 C 0.63744 0.36856 0.57121 0.0
C1040 C 0.62639 0.36331 0.63228 0.0
C1041 C 0.60826 0.35048 0.62591 0.0
C1042 C 0.60112 0.34291 0.55842 0.0
C1043 C 0.58077 0.26554 0.37017 0.0
C1044 C 0.56352 0.25519 0.34037 0.0
C1045 C 0.58907 0.28423 0.37283 0.0
C1046 C 0.58038 0.29316 0.34576 0.0
C1047 C 0.56312 0.28287 0.31608 0.0
C1048 C 0.55483 0.26412 0.31307 0.0
C1049 C 0.58933 0.31315 0.35001 0.0
C1050 C 0.596 0.32154 0.41721 0.0
C1051 C 0.5914 0.32396 0.28879 0.0
C1052 C 0.58565 0.31618 0.21539 0.0
C1053 C 0.57364 0.31938 0.17541 0.0
C1054 C 0.5681 0.31193 0.10644 0.0
C1055 C 0.57455 0.30133 0.07673 0.0
C1056 C 0.58663 0.29821 0.11581 0.0
C1057 C 0.59223 0.30564 0.18476 0.0
H1058 H 0.57023 0.29556 0.02336 0.0
H1059 H 0.63189 0.36916 0.68456 0.0
H1060 H 0.66523 0.23658 0.3032 0.0
H1061 H 0.69782 0.25394 0.29062 0.0
H1062 H 0.70062 0.28812 0.46664 0.0
H1063 H 0.66796 0.271 0.47871 0.0
H1064 H 0.72266 0.30755 0.3555 0.0
H1065 H 0.7113 0.25581 0.49389 0.0
H1066 H 0.69744 0.22356 0.52014 0.0
H1067 H 0.72079 0.21614 0.32712 0.0
H1068 H 0.73459 0.24834 0.29915 0.0
H1069 H 0.81531 0.34884 0.43106 0.0
H1070 H 0.78275 0.33161 0.43805 0.0
H1071 H 0.78181 0.29606 0.27148 0.0
H1072 H 0.81461 0.31306 0.26543 0.0
H1073 H 0.75868 0.2773 0.37447 0.0
H1074 H 0.77054 0.32921 0.23679 0.0
H1075 H 0.78486 0.36157 0.21185 0.0
H1076 H 0.76082 0.36881 0.40308 0.0
H1077 H 0.74652 0.3365 0.42968 0.0
C1078 C 0.67273 0.24791 0.33878 0.0
C1079 C 0.6639 0.25234 0.39211 0.0
C1080 C 0.69142 0.25775 0.33191 0.0
C1081 C 0.70177 0.27226 0.37816 0.0
C1082 C 0.69298 0.27696 0.43043 0.0
C1083 C 0.67429 0.26706 0.43763 0.0
C1084 C 0.72175 0.2824 0.37256 0.0
C1085 C 0.73054 0.30096 0.36046 0.0
C1086 C 0.73209 0.27381 0.37734 0.0
C1087 C 0.72382 0.25445 0.39402 0.0
C1088 C 0.71335 0.24728 0.4567 0.0
C1089 C 0.70553 0.22901 0.47196 0.0
C1090 C 0.70819 0.2178 0.42522 0.0
C1091 C 0.71871 0.22484 0.36321 0.0
C1092 C 0.72655 0.2431 0.34765 0.0
C1093 C 0.80824 0.33739 0.39565 0.0
C1094 C 0.81767 0.33245 0.34723 0.0
C1095 C 0.78953 0.32756 0.39953 0.0
C1096 C 0.77967 0.31268 0.35434 0.0
C1097 C 0.78905 0.30752 0.30674 0.0
C1098 C 0.80783 0.31729 0.30321 0.0
C1099 C 0.75964 0.30248 0.35735 0.0
C1100 C 0.75082 0.2839 0.36907 0.0
C1101 C 0.74928 0.31107 0.35208 0.0
C1102 C 0.75758 0.33045 0.33553 0.0
C1103 C 0.76838 0.33771 0.27373 0.0
C1104 C 0.77648 0.35605 0.25928 0.0
C1105 C 0.77379 0.36725 0.30595 0.0
C1106 C 0.76291 0.36012 0.36702 0.0
C1107 C 0.75478 0.34179 0.38175 0.0
H1108 H 0.78009 0.38144 0.2947 0.0
H1109 H 0.70212 0.20366 0.43714 0.0
H1110 H 0.51067 0.79504 0.64514 0.0
H1111 H 0.49316 0.81008 0.63008 0.0
H1112 H 0.4475 0.76502 0.72804 0.0
H1113 H 0.46482 0.74972 0.74182 0.0
H1114 H 0.43755 0.77699 0.61087 0.0
H1115 H 0.47312 0.803 0.82413 0.0
H1116 H 0.50098 0.81821 0.89559 0.0
H1117 H 0.52131 0.86371 0.75395 0.0
H1118 H 0.49364 0.84866 0.68098 0.0
H1119 H 0.38566 0.81686 0.70501 0.0
H1120 H 0.40391 0.80252 0.70673 0.0
H1121 H 0.44745 0.84911 0.60661 0.0
H1122 H 0.42924 0.86371 0.60502 0.0
H1123 H 0.45914 0.83704 0.7189 0.0
H1124 H 0.42283 0.81149 0.50865 0.0
H1125 H 0.39468 0.7964 0.43898 0.0
H1126 H 0.37554 0.75009 0.57548 0.0
H1127 H 0.40348 0.76501 0.6467 0.0
C1128 C 0.49684 0.78822 0.66275 0.0
C1129 C 0.48921 0.77115 0.69494 0.0
C1130 C 0.48687 0.79692 0.65467 0.0
C1131 C 0.46903 0.7888 0.67865 0.0
C1132 C 0.46124 0.77161 0.70931 0.0
C1133 C 0.47122 0.76293 0.71769 0.0
C1134 C 0.45856 0.7983 0.67273 0.0
C1135 C 0.44219 0.79004 0.63518 0.0
C1136 C 0.46476 0.81554 0.70284 0.0
C1137 C 0.4814 0.82462 0.74663 0.0
C1138 C 0.48359 0.81619 0.80785 0.0
C1139 C 0.49934 0.82479 0.8487 0.0
C1140 C 0.51293 0.84189 0.8292 0.0
C1141 C 0.51078 0.85045 0.76891 0.0
C1142 C 0.49507 0.8419 0.72781 0.0
C1143 C 0.39909 0.82412 0.6831 0.0
C1144 C 0.40592 0.84149 0.65464 0.0
C1145 C 0.40952 0.81582 0.68387 0.0
C1146 C 0.42703 0.82462 0.6561 0.0
C1147 C 0.43397 0.84202 0.62818 0.0
C1148 C 0.4235 0.85033 0.62708 0.0
C1149 C 0.43808 0.8157 0.6574 0.0
C1150 C 0.45455 0.82405 0.69416 0.0
C1151 C 0.43196 0.79854 0.62658 0.0
C1152 C 0.4152 0.78944 0.58342 0.0
C1153 C 0.41257 0.79814 0.52415 0.0
C1154 C 0.39666 0.78961 0.48432 0.0
C1155 C 0.38331 0.77231 0.50289 0.0
C1156 C 0.38588 0.76349 0.5612 0.0
C1157 C 0.40177 0.77198 0.60128 0.0
H1158 H 0.371 0.76573 0.47201 0.0
H1159 H 0.52511 0.84853 0.86091 0.0
H1160 H 0.25687 0.59018 0.69365 0.0
H1161 H 0.27144 0.62272 0.69833 0.0
H1162 H 0.22347 0.62043 0.61614 0.0
H1163 H 0.20886 0.5877 0.6096 0.0
H1164 H 0.25215 0.64756 0.55501 0.0
H1165 H 0.23492 0.62735 0.79925 0.0
H1166 H 0.23313 0.61051 0.90996 0.0
H1167 H 0.29046 0.63962 0.92831 0.0
H1168 H 0.2926 0.65646 0.81709 0.0
H1169 H 0.27678 0.73695 0.65436 0.0
H1170 H 0.26187 0.70442 0.64152 0.0
H1171 H 0.30881 0.70485 0.72545 0.0
H1172 H 0.32376 0.73741 0.73893 0.0
H1173 H 0.28002 0.67855 0.78556 0.0
H1174 H 0.29721 0.69869 0.54064 0.0
H1175 H 0.29892 0.71534 0.42947 0.0
H1176 H 0.24156 0.68641 0.41246 0.0
H1177 H 0.2395 0.66975 0.52412 0.0
C1178 C 0.24936 0.59653 0.6763 0.0
C1179 C 0.23158 0.5862 0.65173 0.0
C1180 C 0.25773 0.61522 0.67935 0.0
C1181 C 0.24849 0.62414 0.65903 0.0
C1182 C 0.2309 0.61392 0.63252 0.0
C1183 C 0.22253 0.59517 0.62891 0.0
C1184 C 0.25716 0.64405 0.66639 0.0
C1185 C 0.25801 0.6543 0.60574 0.0
C1186 C 0.26519 0.65301 0.73209 0.0
C1187 C 0.26392 0.64306 0.7995 0.0
C1188 C 0.24715 0.63008 0.82666 0.0
C1189 C 0.24607 0.62055 0.88952 0.0
C1190 C 0.26167 0.62397 0.92606 0.0
C1191 C 0.27838 0.63697 0.89992 0.0
C1192 C 0.27954 0.64653 0.83701 0.0
C1193 C 0.28404 0.73017 0.66933 0.0
C1194 C 0.30154 0.7399 0.69744 0.0
C1195 C 0.27547 0.71151 0.66194 0.0
C1196 C 0.28424 0.70206 0.68158 0.0
C1197 C 0.30169 0.71174 0.7099 0.0
C1198 C 0.31023 0.73039 0.71773 0.0
C1199 C 0.27513 0.68212 0.67405 0.0
C1200 C 0.27416 0.67184 0.73479 0.0
C1201 C 0.26698 0.67316 0.60847 0.0
C1202 C 0.2682 0.6831 0.54114 0.0
C1203 C 0.28496 0.69597 0.51349 0.0
C1204 C 0.28599 0.70539 0.45034 0.0
C1205 C 0.27036 0.70197 0.41403 0.0
C1206 C 0.25366 0.68907 0.44069 0.0
C1207 C 0.25255 0.67962 0.50387 0.0
H1208 H 0.27119 0.70928 0.36516 0.0
H1209 H 0.26081 0.61656 0.97469 0.0
H1210 H 0.48124 0.68811 0.69851 0.0
H1211 H 0.44869 0.67001 0.70251 0.0
H1212 H 0.45144 0.62468 0.61949 0.0
H1213 H 0.48417 0.6429 0.61372 0.0
H1214 H 0.42423 0.62628 0.55815 0.0
H1215 H 0.44451 0.62876 0.80194 0.0
H1216 H 0.46134 0.64358 0.91294 0.0
H1217 H 0.43182 0.67138 0.93379 0.0
H1218 H 0.41499 0.65692 0.82227 0.0
H1219 H 0.335 0.56103 0.65652 0.0
H1220 H 0.36754 0.57877 0.64392 0.0
H1221 H 0.36674 0.62496 0.72921 0.0
H1222 H 0.33418 0.60722 0.74242 0.0
H1223 H 0.39309 0.62237 0.78923 0.0
H1224 H 0.37292 0.61992 0.54442 0.0
H1225 H 0.35636 0.6052 0.43282 0.0
H1226 H 0.38568 0.57715 0.41405 0.0
H1227 H 0.40225 0.59152 0.52612 0.0
C1228 C 0.47499 0.67431 0.68079 0.0
C1229 C 0.48543 0.66696 0.6563 0.0
C1230 C 0.4563 0.66392 0.68344 0.0
C1231 C 0.44753 0.64582 0.66272 0.0
C1232 C 0.45786 0.63857 0.63616 0.0
C1233 C 0.4766 0.64901 0.633 0.0
C1234 C 0.42765 0.63449 0.6699 0.0
C1235 C 0.41745 0.62523 0.60897 0.0
C1236 C 0.41867 0.63333 0.73577 0.0
C1237 C 0.4286 0.64187 0.8034 0.0
C1238 C 0.44168 0.63811 0.82996 0.0
C1239 C 0.45121 0.64644 0.89299 0.0
C1240 C 0.44767 0.65844 0.93031 0.0
C1241 C 0.43456 0.66209 0.90479 0.0
C1242 C 0.42501 0.65382 0.84171 0.0
C1243 C 0.3417 0.57502 0.67184 0.0
C1244 C 0.33189 0.58269 0.70024 0.0
C1245 C 0.36036 0.58518 0.6646 0.0
C1246 C 0.36969 0.60333 0.68469 0.0
C1247 C 0.35993 0.611 0.71331 0.0
C1248 C 0.34128 0.60082 0.72098 0.0
C1249 C 0.38962 0.61424 0.67733 0.0
C1250 C 0.39984 0.6234 0.73836 0.0
C1251 C 0.39861 0.61526 0.6116 0.0
C1252 C 0.3887 0.60666 0.54405 0.0
C1253 C 0.37574 0.61051 0.51679 0.0
C1254 C 0.36637 0.60225 0.4534 0.0
C1255 C 0.36993 0.59021 0.41647 0.0
C1256 C 0.38291 0.58645 0.44276 0.0
C1257 C 0.39231 0.59467 0.50617 0.0
H1258 H 0.36265 0.58383 0.36741 0.0
H1259 H 0.45507 0.66488 0.97908 0.0
H1260 H 0.05759 0.20224 0.8166 0.0
H1261 H 0.06257 0.20496 0.68598 0.0
H1262 H 1.00585 0.18277 0.65033 0.0
H1263 H 1.00075 0.17975 0.78151 0.0
H1264 H 1.01955 0.16701 0.56579 0.0
H1265 H 0.03474 0.22743 0.62525 0.0
H1266 H 0.05043 0.25664 0.68744 0.0
H1267 H 0.10107 0.26388 0.61621 0.0
H1268 H 0.08569 0.23468 0.55389 0.0
H1269 H 1.0212 0.19224 0.19966 0.0
H1270 H 1.01744 0.18673 0.32986 0.0
H1271 H 0.07457 0.20934 0.3538 0.0
H1272 H 0.07844 0.21522 0.22333 0.0
H1273 H 0.06165 0.22417 0.44468 0.0
H1274 H 0.04621 0.16479 0.37617 0.0
H1275 H 0.03032 0.13651 0.30784 0.0
H1276 H 0.9801 0.12728 0.39367 0.0
H1277 H 0.99565 0.15567 0.46157 0.0
C1278 C 0.04621 0.1981 0.78089 0.0
C1279 C 0.02878 0.1908 0.80865 0.0
C1280 C 0.04907 0.1997 0.70643 0.0
C1281 C 0.03458 0.19418 0.65881 0.0
C1282 C 1.01718 0.18708 0.68649 0.0
C1283 C 1.01429 0.18543 0.76111 0.0
C1284 C 0.03756 0.19529 0.57999 0.0
C1285 C 0.02858 0.17953 0.53898 0.0
C1286 C 0.04979 0.21154 0.54588 0.0
C1287 C 0.05907 0.22881 0.58547 0.0
C1288 C 0.04923 0.23517 0.6235 0.0
C1289 C 0.05807 0.25175 0.6585 0.0
C1290 C 0.07673 0.2621 0.65574 0.0
C1291 C 0.08661 0.25586 0.61825 0.0
C1292 C 0.07785 0.23931 0.58298 0.0
C1293 C 0.03292 0.19585 0.23265 0.0
C1294 C 0.05013 0.20429 0.20212 0.0
C1295 C 0.03074 0.19258 0.30678 0.0
C1296 C 0.04572 0.19751 0.35107 0.0
C1297 C 0.06287 0.20543 0.32021 0.0
C1298 C 0.06506 0.20879 0.24601 0.0
C1299 C 0.04359 0.19591 0.43027 0.0
C1300 C 0.05273 0.2116 0.47145 0.0
C1301 C 0.03151 0.17959 0.46433 0.0
C1302 C 1.02211 0.16245 0.42364 0.0
C1303 C 0.03176 0.15681 0.38005 0.0
C1304 C 1.02282 0.14075 0.34144 0.0
C1305 C 1.00421 0.13011 0.34641 0.0
C1306 C 0.99451 0.13553 0.38992 0.0
C1307 C 1.00339 0.15161 0.42853 0.0
H1308 H 0.99732 0.11764 0.31669 0.0
H1309 H 0.08355 0.27498 0.68246 0.0
H1310 H 0.86282 0.8745 0.82244 0.0
H1311 H 0.85686 0.87334 0.69204 0.0
H1312 H 0.90282 0.8673 0.6497 0.0
H1313 H 0.90818 0.86758 0.7806 0.0
H1314 H 0.89894 0.89233 0.5568 0.0
H1315 H 0.86391 0.83145 0.65115 0.0
H1316 H 0.84173 0.80934 0.73558 0.0
H1317 H 0.8018 0.82095 0.65579 0.0
H1318 H 0.82386 0.84341 0.57185 0.0
H1319 H 0.88659 0.86181 0.20019 0.0
H1320 H 0.89106 0.86478 0.33115 0.0
H1321 H 0.83747 0.85598 0.35846 0.0
H1322 H 0.83284 0.85229 0.22709 0.0
H1323 H 0.84381 0.83996 0.46131 0.0
H1324 H 0.87538 0.89876 0.3662 0.0
H1325 H 0.89608 0.92309 0.28533 0.0
H1326 H 0.94026 0.91865 0.36838 0.0
H1327 H 0.91978 0.89407 0.449 0.0
C1328 C 0.87121 0.87233 0.78523 0.0
C1329 C 0.88529 0.87013 0.81092 0.0
C1330 C 0.86808 0.87208 0.71099 0.0
C1331 C 0.87922 0.8699 0.66164 0.0
C1332 C 0.89402 0.86886 0.6872 0.0
C1333 C 0.89704 0.86898 0.76159 0.0
C1334 C 0.87495 0.86781 0.5836 0.0
C1335 C 0.88701 0.88082 0.53556 0.0
C1336 C 0.85897 0.85315 0.55684 0.0
C1337 C 0.84558 0.83923 0.60569 0.0
C1338 C 0.85043 0.82937 0.6519 0.0
C1339 C 0.83788 0.81677 0.69969 0.0
C1340 C 0.82038 0.81378 0.7012 0.0
C1341 C 0.81536 0.8233 0.65461 0.0
C1342 C 0.82789 0.83596 0.60694 0.0
C1343 C 0.87585 0.86058 0.23424 0.0
C1344 C 0.85957 0.8572 0.20391 0.0
C1345 C 0.87838 0.86229 0.30901 0.0
C1346 C 0.86479 0.86114 0.3546 0.0
C1347 C 0.84821 0.85707 0.32438 0.0
C1348 C 0.84557 0.85498 0.24949 0.0
C1349 C 0.86802 0.86432 0.43354 0.0
C1350 C 0.85574 0.85155 0.48204 0.0
C1351 C 0.88356 0.8795 0.46092 0.0
C1352 C 0.89601 0.89446 0.41325 0.0
C1353 C 0.8895 0.90289 0.36693 0.0
C1354 C 0.90119 0.91673 0.32114 0.0
C1355 C 0.91947 0.92238 0.3216 0.0
C1356 C 0.9261 0.91424 0.36804 0.0
C1357 C 0.91445 0.90036 0.41386 0.0
H1358 H 0.9285 0.93309 0.28606 0.0
H1359 H 0.81069 0.80407 0.73837 0.0
H1360 H 0.22481 0.07028 0.78315 0.0
H1361 H 0.22388 0.06535 0.65201 0.0
H1362 H 0.19428 1.00823 0.68655 0.0
H1363 H 0.195 1.01306 0.81724 0.0
H1364 H 0.22217 0.01913 0.58679 0.0
H1365 H 0.17213 0.02769 0.63635 0.0
H1366 H 0.15732 0.0436 0.68561 0.0
H1367 H 0.18988 0.08885 0.54995 0.0
H1368 H 0.20507 0.0733 0.50065 0.0
H1369 H 0.19181 0.99195 0.22727 0.0
H1370 H 0.1918 0.99624 0.35858 0.0
H1371 H 0.21892 0.05349 0.32759 0.0
H1372 H 0.21879 0.04928 0.19679 0.0
H1373 H 0.19204 0.04223 0.42615 0.0
H1374 H 0.24232 0.03402 0.37703 0.0
H1375 H 0.25734 0.01831 0.3278 0.0
H1376 H 0.22492 0.97289 0.46277 0.0
H1377 H 0.20945 0.98819 0.51186 0.0
C1378 C 0.21819 0.0567 0.76258 0.0
C1379 C 0.20999 0.04204 0.8098 0.0
C1380 C 0.21764 0.05391 0.688 0.0
C1381 C 0.20891 0.03644 0.66014 0.0
C1382 C 0.20108 0.02179 0.70739 0.0
C1383 C 0.20151 0.02457 0.78179 0.0
C1384 C 0.20759 0.0334 0.58147 0.0
C1385 C 0.21541 0.02398 0.5516 0.0
C1386 C 0.19904 0.04006 0.53606 0.0
C1387 C 0.18987 0.04941 0.56539 0.0
C1388 C 0.17624 0.0411 0.61749 0.0
C1389 C 0.16776 0.05004 0.64533 0.0
C1390 C 0.17269 0.06724 0.62108 0.0
C1391 C 0.18609 0.07553 0.56877 0.0
C1392 C 0.19463 0.06665 0.54083 0.0
C1393 C 0.19765 1.00541 0.24869 0.0
C1394 C 0.20543 0.02029 0.20247 0.0
C1395 C 0.19769 1.00785 0.32338 0.0
C1396 C 0.20557 0.02519 0.35239 0.0
C1397 C 0.21282 0.04002 0.306 0.0
C1398 C 0.21278 0.0376 0.2315 0.0
C1399 C 0.20664 0.02798 0.4313 0.0
C1400 C 0.19879 0.03736 0.46126 0.0
C1401 C 0.21522 0.02134 0.47676 0.0
C1402 C 0.22459 1.01217 0.44754 0.0
C1403 C 0.23828 0.02062 0.39576 0.0
C1404 C 0.2469 1.01181 0.36796 0.0
C1405 C 0.24207 0.99461 0.39204 0.0
C1406 C 0.22863 0.9862 0.44408 0.0
C1407 C 0.21993 0.99494 0.47192 0.0
H1408 H 0.24876 0.98782 0.37047 0.0
H1409 H 0.1661 0.07414 0.64269 0.0
H1410 H 0.75 0.54427 0.56254 0.0
H1411 H 0.74799 0.54135 0.69463 0.0
H1412 H 0.6909 0.52043 0.68278 0.0
H1413 H 0.69289 0.52363 0.55117 0.0
H1414 H 0.70659 0.54812 0.77442 0.0
H1415 H 0.70668 0.49303 0.73534 0.0
H1416 H 0.71736 0.47319 0.6894 0.0
H1417 H 0.76772 0.50494 0.7975 0.0
H1418 H 0.75723 0.52494 0.84464 0.0
H1419 H 0.67654 0.50904 0.12099 0.0
H1420 H 0.68322 0.514 -0.00894 0.0
H1421 H 0.7396 0.546 0.03934 0.0
H1422 H 0.73288 0.54125 0.1694 0.0
H1423 H 0.72772 0.51585 0.93259 0.0
H1424 H 0.72452 0.56857 0.98487 0.0
H1425 H 0.71113 0.58549 0.03736 0.0
H1426 H 0.66441 0.55615 0.90461 0.0
H1427 H 0.67739 0.53882 0.85221 0.0
C1428 C 0.737 0.53877 0.58821 0.0
C1429 C 0.72162 0.53432 0.54722 0.0
C1430 C 0.73586 0.53706 0.66343 0.0
C1431 C 0.71931 0.53075 0.69816 0.0
C1432 C 0.70381 0.52543 0.65678 0.0
C1433 C 0.70494 0.52719 0.58176 0.0
C1434 C 0.71829 0.53107 0.77773 0.0
C1435 C 0.71106 0.54093 0.80898 0.0
C1436 C 0.72467 0.52218 0.82258 0.0
C1437 C 0.73126 0.51058 0.79269 0.0
C1438 C 0.72009 0.49588 0.7487 0.0
C1439 C 0.72609 0.48456 0.72274 0.0
C1440 C 0.74325 0.48784 0.74016 0.0
C1441 C 0.75444 0.50243 0.78391 0.0
C1442 C 0.74846 0.51373 0.81048 0.0
C1443 C 0.6903 0.5173 0.10351 0.0
C1444 C 0.70422 0.52508 0.15412 0.0
C1445 C 0.69409 0.52012 0.02987 0.0
C1446 C 0.71186 0.53046 0.00645 0.0
C1447 C 0.72581 0.53812 0.05704 0.0
C1448 C 0.72197 0.53556 0.13086 0.0
C1449 C 0.71571 0.53255 0.92863 0.0
C1450 C 0.72351 0.52322 0.89782 0.0
C1451 C 0.70968 0.54178 0.88415 0.0
C1452 C 0.70187 0.55228 0.91506 0.0
C1453 C 0.71132 0.5656 0.96733 0.0
C1454 C 0.70381 0.57529 -0.00301 0.0
C1455 C 0.68691 0.57187 0.97445 0.0
C1456 C 0.67749 0.55878 0.92206 0.0
C1457 C 0.68493 0.54903 0.89231 0.0
H1458 H 0.68112 0.57939 -0.00253 0.0
H1459 H 0.74786 0.47905 0.71993 0.0
H1460 H 0.5209 0.21975 0.56333 0.0
H1461 H 0.52682 0.22185 0.6938 0.0
H1462 H 0.55105 0.18874 0.66947 0.0
H1463 H 0.54543 0.18686 0.53929 0.0
H1464 H 0.51275 0.19403 0.78466 0.0
H1465 H 0.58253 0.19909 0.80038 0.0
H1466 H 0.61088 0.21279 0.73182 0.0
H1467 H 0.59973 0.25264 0.6476 0.0
H1468 H 0.57147 0.23938 0.71652 0.0
H1469 H 0.55866 0.17949 0.1217 0.0
H1470 H 0.5555 0.18141 -0.00952 0.0
H1471 H 0.53178 0.21463 0.0258 0.0
H1472 H 0.53471 0.2126 0.15646 0.0
H1473 H 0.5705 0.21093 0.90547 0.0
H1474 H 0.50146 0.2068 0.89315 0.0
H1475 H 0.47208 0.19199 0.95418 0.0
H1476 H 0.48131 0.14994 0.02669 0.0
H1477 H 0.51071 0.16444 0.96569 0.0
C1478 C 0.52768 0.21313 0.58593 0.0
C1479 C 0.53261 0.20304 0.5419 0.0
C1480 C 0.53106 0.21435 0.66013 0.0
C1481 C 0.53946 0.20555 0.6909 0.0
C1482 C 0.54482 0.19587 0.64649 0.0
C1483 C 0.54149 0.19469 0.57236 0.0
C1484 C 0.54115 0.20507 0.77012 0.0
C1485 C 0.52544 0.19807 0.81139 0.0
C1486 C 0.55764 0.20985 0.80409 0.0
C1487 C 0.57478 0.21812 0.76326 0.0
C1488 C 0.58617 0.21083 0.76756 0.0
C1489 C 0.60222 0.21851 0.72857 0.0
C1490 C 0.60708 0.23356 0.68532 0.0
C1491 C 0.59592 0.24096 0.681 0.0
C1492 C 0.57987 0.23335 0.71995 0.0
C1493 C 0.55264 0.18705 0.10124 0.0
C1494 C 0.54689 0.19587 0.14873 0.0
C1495 C 0.55089 0.18818 0.02657 0.0
C1496 C 0.54331 0.19806 -0.00123 0.0
C1497 C 0.53743 0.20673 0.04634 0.0
C1498 C 0.53915 0.20559 0.12083 0.0
C1499 C 0.54207 0.19981 0.91989 0.0
C1500 C 0.55786 0.20704 0.87875 0.0
C1501 C 0.52564 0.19527 0.88584 0.0
C1502 C 0.50835 0.18681 0.92541 0.0
C1503 C 0.49724 0.19442 0.92231 0.0
C1504 C 0.48059 0.18608 0.95681 0.0
C1505 C 0.47484 0.17004 -0.0058 0.0
C1506 C 0.48581 0.16239 -0.00223 0.0
C1507 C 0.5025 0.1707 0.9635 0.0
H1508 H 0.46186 0.16352 0.02018 0.0
H1509 H 0.61953 0.2395 0.65527 0.0
H1510 H 0.85752 0.32469 0.5604 0.0
H1511 H 0.85752 0.32887 0.6918 0.0
H1512 H 0.88871 0.38613 0.66319 0.0
H1513 H 0.8888 0.38205 0.53225 0.0
H1514 H 0.90207 0.37356 0.77017 0.0
H1515 H 0.84574 0.36774 0.69759 0.0
H1516 H 0.81625 0.35296 0.63746 0.0
H1517 H 0.79902 0.30694 0.77424 0.0
H1518 H 0.82854 0.32133 0.8344 0.0
H1519 H 0.89223 0.40239 0.1174 0.0
H1520 H 0.89162 0.39725 -0.01332 0.0
H1521 H 0.85836 0.34038 0.02134 0.0
H1522 H 0.85864 0.34548 0.15173 0.0
H1523 H 0.84603 0.35205 0.91156 0.0
H1524 H 0.902 0.35778 -0.01451 0.0
H1525 H 0.93149 0.3723 0.04568 0.0
H1526 H 0.94945 0.41805 0.90673 0.0
H1527 H 0.91996 0.40392 0.84642 0.0
C1528 C 0.86431 0.33814 0.58234 0.0
C1529 C 0.8732 0.35305 0.53671 0.0
C1530 C 0.86428 0.34051 0.65707 0.0
C1531 C 0.87309 0.3578 0.6867 0.0
C1532 C 0.88191 0.37269 0.64106 0.0
C1533 C 0.88189 0.37034 0.56648 0.0
C1534 C 0.87327 0.36043 0.76552 0.0
C1535 C 0.88985 0.36906 0.80112 0.0
C1536 C 0.85726 0.35413 0.80552 0.0
C1537 C 0.83942 0.34554 0.77 0.0
C1538 C 0.83572 0.35441 0.71447 0.0
C1539 C 0.81899 0.34611 0.68043 0.0
C1540 C 0.80578 0.329 0.70189 0.0
C1541 C 0.80927 0.32018 0.7576 0.0
C1542 C 0.82599 0.32841 0.79172 0.0
C1543 C 0.88483 0.38882 0.09693 0.0
C1544 C 0.87556 0.37431 0.14415 0.0
C1545 C 0.88453 0.3859 0.02256 0.0
C1546 C 0.87508 0.36843 -0.00522 0.0
C1547 C 0.86573 0.35394 0.04196 0.0
C1548 C 0.86597 0.35686 0.11624 0.0
C1549 C 0.87485 0.36526 0.91628 0.0
C1550 C 0.85826 0.35652 0.8807 0.0
C1551 C 0.89086 0.37141 0.87631 0.0
C1552 C 0.9087 0.37985 0.91186 0.0
C1553 C 0.91219 0.37099 0.96809 0.0
C1554 C 0.92892 0.37914 0.0022 0.0
C1555 C 0.94232 0.39611 0.98018 0.0
C1556 C 0.93905 0.40492 0.9238 0.0
C1557 C 0.92233 0.39684 0.88959 0.0
H1558 H 0.95525 0.40241 0.0067 0.0
H1559 H 0.79284 0.3226 0.67546 0.0
H1560 H 0.33472 0.84274 0.4346 0.0
H1561 H 0.34013 0.8454 0.30354 0.0
H1562 H 0.39716 0.87392 0.34183 0.0
H1563 H 0.39186 0.87108 0.47239 0.0
H1564 H 0.38602 0.88988 0.23813 0.0
H1565 H 0.37925 0.83262 0.29476 0.0
H1566 H 0.36434 0.80225 0.34695 0.0
H1567 H 0.31885 0.78705 0.20891 0.0
H1568 H 0.33339 0.81744 0.15661 0.0
H1569 H 0.4129 0.88681 0.87966 0.0
H1570 H 0.40908 0.88154 0.01055 0.0
H1571 H 0.3517 0.8516 0.98264 0.0
H1572 H 0.35543 0.85675 0.85198 0.0
H1573 H 0.36404 0.83606 0.08194 0.0
H1574 H 0.3704 0.8938 0.02967 0.0
H1575 H 0.38533 0.92425 0.97815 0.0
H1576 H 0.43174 0.93856 0.10931 0.0
H1577 H 0.41716 0.90809 0.16084 0.0
C1578 C 0.34838 0.84962 0.41484 0.0
C1579 C 0.36288 0.85677 0.46312 0.0
C1580 C 0.35144 0.85107 0.34034 0.0
C1581 C 0.36903 0.85973 0.31362 0.0
C1582 C 0.38351 0.86719 0.3618 0.0
C1583 C 0.38046 0.8656 0.43613 0.0
C1584 C 0.37237 0.86107 0.23519 0.0
C1585 C 0.38145 0.87814 0.204 0.0
C1586 C 0.36611 0.84568 0.19117 0.0
C1587 C 0.35733 0.82737 0.22231 0.0
C1588 C 0.366 0.82286 0.27599 0.0
C1589 C 0.35763 0.80563 0.30551 0.0
C1590 C 0.34063 0.79274 0.28141 0.0
C1591 C 0.332 0.79705 0.2276 0.0
C1592 C 0.34031 0.81427 0.19795 0.0
C1593 C 0.39951 0.87897 0.90155 0.0
C1594 C 0.38444 0.87235 0.85636 0.0
C1595 C 0.39735 0.87599 0.97601 0.0
C1596 C 0.38011 0.86637 0.00584 0.0
C1597 C 0.3651 0.85906 0.96033 0.0
C1598 C 0.36724 0.86208 0.88598 0.0
C1599 C 0.37763 0.86488 0.08487 0.0
C1600 C 0.36869 0.84779 0.11616 0.0
C1601 C 0.38403 0.88026 0.12912 0.0
C1602 C 0.39277 0.89861 0.09848 0.0
C1603 C 0.38384 0.90339 0.04706 0.0
C1604 C 0.39223 0.92066 0.01794 0.0
C1605 C 0.40949 0.93332 0.04028 0.0
C1606 C 0.41838 0.92874 0.09196 0.0
C1607 C 0.41006 0.91147 0.12116 0.0
H1608 H 0.41596 0.94668 0.01768 0.0
H1609 H 0.33417 0.77941 0.30431 0.0
H1610 H 0.21605 0.52121 0.85044 0.0
H1611 H 0.2206 0.52128 0.98085 0.0
H1612 H 0.18901 0.54684 0.01455 0.0
H1613 H 0.18471 0.54717 0.88325 0.0
H1614 H 0.21899 0.56025 0.10301 0.0
H1615 H 0.16978 0.50268 0.0318 0.0
H1616 H 0.15579 0.47528 0.95723 0.0
H1617 H 0.19439 0.46146 0.03397 0.0
H1618 H 0.20881 0.48894 0.10813 0.0
H1619 H 0.20012 0.54067 0.4713 0.0
H1620 H 0.19642 0.5416 0.34071 0.0
H1621 H 0.22413 0.51203 0.30739 0.0
H1622 H 0.22715 0.51035 0.43877 0.0
H1623 H 0.19634 0.5007 0.21792 0.0
H1624 H 0.24575 0.55751 0.28795 0.0
H1625 H 0.2611 0.5853 0.3597 0.0
H1626 H 0.22372 0.60084 0.28357 0.0
H1627 H 0.20798 0.573 0.21215 0.0
C1628 C 0.21026 0.52704 0.88557 0.0
C1629 C 0.19986 0.534 0.85734 0.0
C1630 C 0.21283 0.52702 0.95988 0.0
C1631 C 0.20483 0.53374 0.00694 0.0
C1632 C 0.19517 0.54151 0.97873 0.0
C1633 C 0.19269 0.54164 0.90409 0.0
C1634 C 0.20582 0.53178 0.08568 0.0
C1635 C 0.21385 0.54725 0.12846 0.0
C1636 C 0.19947 0.51478 0.11794 0.0
C1637 C 0.19046 0.49795 0.07509 0.0
C1638 C 0.17534 0.49384 0.03252 0.0
C1639 C 0.16733 0.4783 -0.00969 0.0
C1640 C 0.17422 0.46666 -0.00931 0.0
C1641 C 0.18908 0.4705 0.03364 0.0
C1642 C 0.19716 0.48605 0.07584 0.0
C1643 C 0.20516 0.53412 0.43617 0.0
C1644 C 0.21391 0.52543 0.46469 0.0
C1645 C 0.20318 0.5348 0.36167 0.0
C1646 C 0.21032 0.52719 0.31458 0.0
C1647 C 0.21861 0.51805 0.34304 0.0
C1648 C 0.22037 0.51715 0.4178 0.0
C1649 C 0.20949 0.52919 0.2356 0.0
C1650 C 0.20149 0.51372 0.19266 0.0
C1651 C 0.21599 0.54621 0.2031 0.0
C1652 C 0.22559 0.56309 0.2452 0.0
C1653 C 0.24074 0.5668 0.28686 0.0
C1654 C 0.24952 0.58257 0.32744 0.0
C1655 C 0.24336 0.59481 0.32634 0.0
C1656 C 0.22846 0.59134 0.28444 0.0
C1657 C 0.21961 0.57557 0.24384 0.0
H1658 H 0.25017 0.607 0.35785 0.0
H1659 H 0.16804 0.45466 0.95782 0.0
H1660 H 0.55925 0.73816 0.44455 0.0
H1661 H 0.55575 0.73361 0.31333 0.0
H1662 H 0.52898 0.67639 0.3455 0.0
H1663 H 0.53153 0.68087 0.47635 0.0
H1664 H 0.56701 0.71948 0.21798 0.0
H1665 H 0.49726 0.65476 0.2203 0.0
H1666 H 0.47013 0.64054 0.29655 0.0
H1667 H 0.48228 0.69202 0.37837 0.0
H1668 H 0.50932 0.70657 0.30186 0.0
H1669 H 0.52337 0.65905 0.89148 0.0
H1670 H 0.52196 0.66389 0.02169 0.0
H1671 H 0.54311 0.72029 0.98282 0.0
H1672 H 0.54575 0.71573 0.85418 0.0
H1673 H 0.5072 0.67842 0.11254 0.0
H1674 H 0.57446 0.74381 0.10991 0.0
H1675 H 0.59979 0.75994 0.02566 0.0
H1676 H 0.59135 0.70996 0.94073 0.0
H1677 H 0.56651 0.69352 0.0266 0.0
C1678 C 0.55267 0.72464 0.42339 0.0
C1679 C 0.54564 0.70986 0.47023 0.0
C1680 C 0.5507 0.72205 0.3486 0.0
C1681 C 0.54181 0.70466 0.31978 0.0
C1682 C 0.53549 0.68992 0.36663 0.0
C1683 C 0.53716 0.69249 0.44131 0.0
C1684 C 0.539 0.7019 0.24077 0.0
C1685 C 0.5539 0.71067 0.19497 0.0
C1686 C 0.52188 0.6903 0.21078 0.0
C1687 C 0.50541 0.68172 0.25583 0.0
C1688 C 0.49409 0.66305 0.25427 0.0
C1689 C 0.47874 0.65493 0.2976 0.0
C1690 C 0.47452 0.66536 0.34247 0.0
C1691 C 0.4856 0.68395 0.3438 0.0
C1692 C 0.50094 0.69213 0.3005 0.0
C1693 C 0.52754 0.67242 0.91091 0.0
C1694 C 0.53488 0.68706 0.86338 0.0
C1695 C 0.52659 0.67515 0.98497 0.0
C1696 C 0.53277 0.6925 0.01173 0.0
C1697 C 0.5386 0.70686 0.96323 0.0
C1698 C 0.54002 0.70422 0.88978 0.0
C1699 C 0.53519 0.69592 0.09035 0.0
C1700 C 0.52027 0.68723 0.1359 0.0
C1701 C 0.55224 0.70781 0.12012 0.0
C1702 C 0.56847 0.71745 0.07412 0.0
C1703 C 0.57821 0.73626 0.07413 0.0
C1704 C 0.59246 0.74546 0.02601 0.0
C1705 C 0.59707 0.73598 0.97751 0.0
C1706 C 0.58772 0.71728 0.97818 0.0
C1707 C 0.57365 0.70802 0.02694 0.0
H1708 H 0.60798 0.74313 0.93984 0.0
H1709 H 0.46266 0.65905 0.37609 0.0
loop_
_geom_bond_atom_site_label_1
_geom_bond_atom_site_label_2
_geom_bond_distance
_geom_bond_site_symmetry_2
_ccdc_geom_bond_type
Ho0 C3 2.811 1_554 S
Ho0 O20 2.322 . S
Ho0 O22 2.378 . S
Ho0 O23 2.524 1_554 S
Ho0 O24 2.381 . S
Ho0 O25 2.669 . S
Ho0 O27 2.346 . S
Ho0 O31 2.305 1_554 S
Ho1 C12 2.812 . S
Ho1 O21 2.346 . S
Ho1 O25 2.312 1_655 S
Ho1 O26 2.319 1_654 S
Ho1 O28 2.375 1_554 S
Ho1 O29 2.530 . S
Ho1 O30 2.370 1_554 S
Ho1 O31 2.664 1_654 S
C2 O20 1.259 1_655 S
C2 O21 1.268 . S
C3 Ho0 2.811 1_556 S
C3 C4 1.488 . S
C3 O22 1.215 1_556 S
C3 O23 1.289 . S
C4 C3 1.488 . S
C4 C5 1.348 . S
C4 C9 1.413 1_556 S
C5 C4 1.348 . S
C5 C6 1.442 . S
C5 H32 0.930 . S
C6 C5 1.442 . S
C6 C7 1.381 . S
C6 H33 0.931 . S
C7 C6 1.381 . S
C7 C8 1.321 1_556 S
C8 C7 1.321 1_554 S
C8 C9 1.403 . S
C8 H34 0.934 . S
C9 C4 1.413 1_554 S
C9 C8 1.403 . S
C9 H35 0.930 . S
C10 O24 1.275 . S
C10 O25 1.256 . S
C11 O26 1.259 . S
C11 O27 1.268 1_556 S
C12 Ho1 2.812 . S
C12 C13 1.488 . S
C12 O28 1.215 1_554 S
C12 O29 1.289 . S
C13 C12 1.488 . S
C13 C14 1.348 . S
C13 C18 1.413 1_554 S
C14 C13 1.348 . S
C14 C15 1.442 . S
C14 H36 0.930 . S
C15 C14 1.442 . S
C15 C16 1.381 . S
C15 H37 0.931 . S
C16 C15 1.381 . S
C16 C17 1.321 1_554 S
C17 C16 1.321 1_556 S
C17 C18 1.403 . S
C17 H38 0.934 . S
C18 C13 1.413 1_556 S
C18 C17 1.403 . S
C18 H39 0.930 . S
C19 O30 1.275 1_455 S
C19 O31 1.256 . S
O20 Ho0 2.322 . S
O20 C2 1.259 1_455 S
O21 Ho1 2.346 . S
O21 C2 1.268 . S
O22 Ho0 2.378 . S
O22 C3 1.215 1_554 S
O23 Ho0 2.524 1_556 S
O23 C3 1.289 . S
O24 Ho0 2.381 . S
O24 C10 1.275 . S
O25 Ho0 2.669 . S
O25 Ho1 2.312 1_455 S
O25 C10 1.256 . S
O26 Ho1 2.319 1_456 S
O26 C11 1.259 . S
O27 Ho0 2.346 . S
O27 C11 1.268 1_554 S
O28 Ho1 2.375 1_556 S
O28 C12 1.215 1_556 S
O29 Ho1 2.530 . S
O29 C12 1.289 . S
O30 Ho1 2.370 1_556 S
O30 C19 1.275 1_655 S
O31 Ho0 2.305 1_556 S
O31 Ho1 2.664 1_456 S
O31 C19 1.256 . S
H32 C5 0.930 . S
H33 C6 0.931 . S
H34 C8 0.934 . S
H35 C9 0.930 . S
H36 C14 0.930 . S
H37 C15 0.931 . S
H38 C17 0.934 . S
H39 C18 0.930 . S
Ho40 C43 2.811 1_554 S
Ho40 O60 2.322 . S
Ho40 O62 2.378 . S
Ho40 O63 2.524 1_554 S
Ho40 O64 2.381 . S
Ho40 O65 2.669 . S
Ho40 O67 2.346 . S
Ho40 O71 2.305 1_554 S
Ho41 C52 2.812 . S
Ho41 O61 2.346 . S
Ho41 O65 2.311 . S
Ho41 O66 2.320 1_554 S
Ho41 O68 2.376 1_554 S
Ho41 O69 2.529 . S
Ho41 O70 2.372 1_554 S
Ho41 O71 2.664 1_554 S
C42 O60 1.259 . S
C42 O61 1.268 . S
C43 Ho40 2.811 1_556 S
C43 C44 1.488 . S
C43 O62 1.215 1_556 S
C43 O63 1.289 . S
C44 C43 1.488 . S
C44 C45 1.348 . S
C44 C49 1.413 1_556 S
C45 C44 1.348 . S
C45 C46 1.442 . S
C45 H72 0.930 . S
C46 C45 1.442 . S
C46 C47 1.381 . S
C46 H73 0.931 . S
C47 C46 1.381 . S
C47 C48 1.321 1_556 S
C48 C47 1.321 1_554 S
C48 C49 1.403 . S
C48 H74 0.934 . S
C49 C44 1.413 1_554 S
C49 C48 1.403 . S
C49 H75 0.930 . S
C50 O64 1.275 . S
C50 O65 1.256 . S
C51 O66 1.259 . S
C51 O67 1.268 1_556 S
C52 Ho41 2.812 . S
C52 C53 1.488 . S
C52 O68 1.215 1_554 S
C52 O69 1.289 . S
C53 C52 1.488 . S
C53 C54 1.348 . S
C53 C58 1.413 1_554 S
C54 C53 1.348 . S
C54 C55 1.442 . S
C54 H76 0.930 . S
C55 C54 1.442 . S
C55 C56 1.381 . S
C55 H77 0.931 . S
C56 C55 1.381 . S
C56 C57 1.321 1_554 S
C57 C56 1.321 1_556 S
C57 C58 1.403 . S
C57 H78 0.934 . S
C58 C53 1.413 1_556 S
C58 C57 1.403 . S
C58 H79 0.930 . S
C59 O70 1.275 . S
C59 O71 1.256 . S
O60 Ho40 2.322 . S
O60 C42 1.259 . S
O61 Ho41 2.346 . S
O61 C42 1.268 . S
O62 Ho40 2.378 . S
O62 C43 1.215 1_554 S
O63 Ho40 2.524 1_556 S
O63 C43 1.289 . S
O64 Ho40 2.381 . S
O64 C50 1.275 . S
O65 Ho40 2.669 . S
O65 Ho41 2.311 . S
O65 C50 1.256 . S
O66 Ho41 2.320 1_556 S
O66 C51 1.259 . S
O67 Ho40 2.346 . S
O67 C51 1.268 1_554 S
O68 Ho41 2.376 1_556 S
O68 C52 1.215 1_556 S
O69 Ho41 2.529 . S
O69 C52 1.289 . S
O70 Ho41 2.372 1_556 S
O70 C59 1.275 . S
O71 Ho40 2.305 1_556 S
O71 Ho41 2.664 1_556 S
O71 C59 1.256 . S
H72 C45 0.930 . S
H73 C46 0.931 . S
H74 C48 0.934 . S
H75 C49 0.930 . S
H76 C54 0.930 . S
H77 C55 0.931 . S
H78 C57 0.934 . S
H79 C58 0.930 . S
Ho80 C83 2.811 1_554 S
Ho80 O100 2.322 1_565 S
Ho80 O102 2.378 . S
Ho80 O103 2.524 1_554 S
Ho80 O104 2.381 . S
Ho80 O105 2.669 1_565 S
Ho80 O107 2.346 . S
Ho80 O111 2.305 1_564 S
Ho81 C92 2.812 . S
Ho81 O101 2.346 . S
Ho81 O105 2.311 . S
Ho81 O106 2.320 1_554 S
Ho81 O108 2.376 1_554 S
Ho81 O109 2.528 . S
Ho81 O110 2.372 1_554 S
Ho81 O111 2.665 1_554 S
C82 O100 1.259 . S
C82 O101 1.268 . S
C83 Ho80 2.811 1_556 S
C83 C84 1.488 . S
C83 O102 1.215 1_556 S
C83 O103 1.289 . S
C84 C83 1.488 . S
C84 C85 1.348 . S
C84 C89 1.413 1_556 S
C85 C84 1.348 . S
C85 C86 1.442 . S
C85 H112 0.930 . S
C86 C85 1.442 . S
C86 C87 1.381 . S
C86 H113 0.931 . S
C87 C86 1.381 . S
C87 C88 1.321 1_556 S
C88 C87 1.321 1_554 S
C88 C89 1.403 . S
C88 H114 0.934 . S
C89 C84 1.413 1_554 S
C89 C88 1.403 . S
C89 H115 0.930 . S
C90 O104 1.275 1_545 S
C90 O105 1.256 . S
C91 O106 1.259 1_565 S
C91 O107 1.268 1_556 S
C92 Ho81 2.812 . S
C92 C93 1.488 . S
C92 O108 1.215 1_554 S
C92 O109 1.289 . S
C93 C92 1.488 . S
C93 C94 1.348 . S
C93 C98 1.413 1_554 S
C94 C93 1.348 . S
C94 C95 1.442 . S
C94 H116 0.930 . S
C95 C94 1.442 . S
C95 C96 1.381 . S
C95 H117 0.931 . S
C96 C95 1.381 . S
C96 C97 1.321 1_554 S
C97 C96 1.321 1_556 S
C97 C98 1.403 . S
C97 H118 0.934 . S
C98 C93 1.413 1_556 S
C98 C97 1.403 . S
C98 H119 0.930 . S
C99 O110 1.275 . S
C99 O111 1.256 . S
O100 Ho80 2.322 1_545 S
O100 C82 1.259 . S
O101 Ho81 2.346 . S
O101 C82 1.268 . S
O102 Ho80 2.378 . S
O102 C83 1.215 1_554 S
O103 Ho80 2.524 1_556 S
O103 C83 1.289 . S
O104 Ho80 2.381 . S
O104 C90 1.275 1_565 S
O105 Ho80 2.669 1_545 S
O105 Ho81 2.311 . S
O105 C90 1.256 . S
O106 Ho81 2.320 1_556 S
O106 C91 1.259 1_545 S
O107 Ho80 2.346 . S
O107 C91 1.268 1_554 S
O108 Ho81 2.376 1_556 S
O108 C92 1.215 1_556 S
O109 Ho81 2.528 . S
O109 C92 1.289 . S
O110 Ho81 2.372 1_556 S
O110 C99 1.275 . S
O111 Ho80 2.305 1_546 S
O111 Ho81 2.665 1_556 S
O111 C99 1.256 . S
H112 C85 0.930 . S
H113 C86 0.931 . S
H114 C88 0.934 . S
H115 C89 0.930 . S
H116 C94 0.930 . S
H117 C95 0.931 . S
H118 C97 0.934 . S
H119 C98 0.930 . S
Ho120 C123 2.811 . S
Ho120 O140 2.322 . S
Ho120 O142 2.378 . S
Ho120 O143 2.524 . S
Ho120 O144 2.381 . S
Ho120 O145 2.669 . S
Ho120 O147 2.346 . S
Ho120 O151 2.305 . S
Ho121 C132 2.811 . S
Ho121 O141 2.346 . S
Ho121 O145 2.305 . S
Ho121 O146 2.322 . S
Ho121 O148 2.378 . S
Ho121 O149 2.524 . S
Ho121 O150 2.381 . S
Ho121 O151 2.669 . S
C122 O140 1.259 . S
C122 O141 1.268 . S
C123 Ho120 2.811 . S
C123 C124 1.488 . S
C123 O142 1.215 . S
C123 O143 1.289 . S
C124 C123 1.488 . S
C124 C125 1.348 . S
C124 C129 1.413 . S
C125 C124 1.348 . S
C125 C126 1.442 . S
C125 H152 0.930 . S
C126 C125 1.442 . S
C126 C127 1.381 . S
C126 H153 0.931 . S
C127 C126 1.381 . S
C127 C128 1.321 . S
C128 C127 1.321 . S
C128 C129 1.403 . S
C128 H154 0.934 . S
C129 C124 1.413 . S
C129 C128 1.403 . S
C129 H155 0.930 . S
C130 O144 1.275 . S
C130 O145 1.256 . S
C131 O146 1.259 . S
C131 O147 1.268 . S
C132 Ho121 2.811 . S
C132 C133 1.488 . S
C132 O148 1.215 . S
C132 O149 1.289 . S
C133 C132 1.488 . S
C133 C134 1.348 . S
C133 C138 1.413 . S
C134 C133 1.348 . S
C134 C135 1.442 . S
C134 H156 0.930 . S
C135 C134 1.442 . S
C135 C136 1.381 . S
C135 H157 0.931 . S
C136 C135 1.381 . S
C136 C137 1.321 . S
C137 C136 1.321 . S
C137 C138 1.403 . S
C137 H158 0.934 . S
C138 C133 1.413 . S
C138 C137 1.403 . S
C138 H159 0.930 . S
C139 O150 1.275 . S
C139 O151 1.256 . S
O140 Ho120 2.322 . S
O140 C122 1.259 . S
O141 Ho121 2.346 . S
O141 C122 1.268 . S
O142 Ho120 2.378 . S
O142 C123 1.215 . S
O143 Ho120 2.524 . S
O143 C123 1.289 . S
O144 Ho120 2.381 . S
O144 C130 1.275 . S
O145 Ho120 2.669 . S
O145 Ho121 2.305 . S
O145 C130 1.256 . S
O146 Ho121 2.322 . S
O146 C131 1.259 . S
O147 Ho120 2.346 . S
O147 C131 1.268 . S
O148 Ho121 2.378 . S
O148 C132 1.215 . S
O149 Ho121 2.524 . S
O149 C132 1.289 . S
O150 Ho121 2.381 . S
O150 C139 1.275 . S
O151 Ho120 2.305 . S
O151 Ho121 2.669 . S
O151 C139 1.256 . S
H152 C125 0.930 . S
H153 C126 0.931 . S
H154 C128 0.934 . S
H155 C129 0.930 . S
H156 C134 0.930 . S
H157 C135 0.931 . S
H158 C137 0.934 . S
H159 C138 0.930 . S
Ho160 C163 2.811 . S
Ho160 O180 2.322 . S
Ho160 O182 2.378 . S
Ho160 O183 2.524 . S
Ho160 O184 2.381 . S
Ho160 O185 2.669 . S
Ho160 O187 2.346 . S
Ho160 O191 2.305 . S
Ho161 C172 2.811 . S
Ho161 O181 2.346 . S
Ho161 O185 2.305 . S
Ho161 O186 2.322 . S
Ho161 O188 2.378 . S
Ho161 O189 2.524 . S
Ho161 O190 2.381 . S
Ho161 O191 2.669 . S
C162 O180 1.259 . S
C162 O181 1.268 . S
C163 Ho160 2.811 . S
C163 C164 1.488 . S
C163 O182 1.215 . S
C163 O183 1.289 . S
C164 C163 1.488 . S
C164 C165 1.348 . S
C164 C169 1.413 . S
C165 C164 1.348 . S
C165 C166 1.442 . S
C165 H192 0.930 . S
C166 C165 1.442 . S
C166 C167 1.381 . S
C166 H193 0.931 . S
C167 C166 1.381 . S
C167 C168 1.321 . S
C168 C167 1.321 . S
C168 C169 1.403 . S
C168 H194 0.934 . S
C169 C164 1.413 . S
C169 C168 1.403 . S
C169 H195 0.930 . S
C170 O184 1.275 . S
C170 O185 1.256 . S
C171 O186 1.259 . S
C171 O187 1.268 . S
C172 Ho161 2.811 . S
C172 C173 1.488 . S
C172 O188 1.215 . S
C172 O189 1.289 . S
C173 C172 1.488 . S
C173 C174 1.348 . S
C173 C178 1.413 . S
C174 C173 1.348 . S
C174 C175 1.442 . S
C174 H196 0.930 . S
C175 C174 1.442 . S
C175 C176 1.381 . S
C175 H197 0.931 . S
C176 C175 1.381 . S
C176 C177 1.321 . S
C177 C176 1.321 . S
C177 C178 1.403 . S
C177 H198 0.934 . S
C178 C173 1.413 . S
C178 C177 1.403 . S
C178 H199 0.930 . S
C179 O190 1.275 . S
C179 O191 1.256 . S
O180 Ho160 2.322 . S
O180 C162 1.259 . S
O181 Ho161 2.346 . S
O181 C162 1.268 . S
O182 Ho160 2.378 . S
O182 C163 1.215 . S
O183 Ho160 2.524 . S
O183 C163 1.289 . S
O184 Ho160 2.381 . S
O184 C170 1.275 . S
O185 Ho160 2.669 . S
O185 Ho161 2.305 . S
O185 C170 1.256 . S
O186 Ho161 2.322 . S
O186 C171 1.259 . S
O187 Ho160 2.346 . S
O187 C171 1.268 . S
O188 Ho161 2.378 . S
O188 C172 1.215 . S
O189 Ho161 2.524 . S
O189 C172 1.289 . S
O190 Ho161 2.381 . S
O190 C179 1.275 . S
O191 Ho160 2.305 . S
O191 Ho161 2.669 . S
O191 C179 1.256 . S
H192 C165 0.930 . S
H193 C166 0.931 . S
H194 C168 0.934 . S
H195 C169 0.930 . S
H196 C174 0.930 . S
H197 C175 0.931 . S
H198 C177 0.934 . S
H199 C178 0.930 . S
Ho200 C203 2.811 . S
Ho200 O220 2.322 . S
Ho200 O222 2.378 . S
Ho200 O223 2.524 . S
Ho200 O224 2.381 . S
Ho200 O225 2.669 . S
Ho200 O227 2.346 . S
Ho200 O231 2.305 . S
Ho201 C212 2.811 . S
Ho201 O221 2.346 . S
Ho201 O225 2.305 . S
Ho201 O226 2.322 . S
Ho201 O228 2.378 . S
Ho201 O229 2.524 . S
Ho201 O230 2.381 . S
Ho201 O231 2.669 . S
C202 O220 1.259 . S
C202 O221 1.268 . S
C203 Ho200 2.811 . S
C203 C204 1.488 . S
C203 O222 1.215 . S
C203 O223 1.289 . S
C204 C203 1.488 . S
C204 C205 1.348 . S
C204 C209 1.413 . S
C205 C204 1.348 . S
C205 C206 1.442 . S
C205 H232 0.930 . S
C206 C205 1.442 . S
C206 C207 1.381 . S
C206 H233 0.931 . S
C207 C206 1.381 . S
C207 C208 1.321 . S
C208 C207 1.321 . S
C208 C209 1.403 . S
C208 H234 0.934 . S
C209 C204 1.413 . S
C209 C208 1.403 . S
C209 H235 0.930 . S
C210 O224 1.275 . S
C210 O225 1.256 . S
C211 O226 1.259 . S
C211 O227 1.268 . S
C212 Ho201 2.811 . S
C212 C213 1.488 . S
C212 O228 1.215 . S
C212 O229 1.289 . S
C213 C212 1.488 . S
C213 C214 1.348 . S
C213 C218 1.413 . S
C214 C213 1.348 . S
C214 C215 1.442 . S
C214 H236 0.930 . S
C215 C214 1.442 . S
C215 C216 1.381 . S
C215 H237 0.931 . S
C216 C215 1.381 . S
C216 C217 1.321 . S
C217 C216 1.321 . S
C217 C218 1.403 . S
C217 H238 0.934 . S
C218 C213 1.413 . S
C218 C217 1.403 . S
C218 H239 0.930 . S
C219 O230 1.275 . S
C219 O231 1.256 . S
O220 Ho200 2.322 . S
O220 C202 1.259 . S
O221 Ho201 2.346 . S
O221 C202 1.268 . S
O222 Ho200 2.378 . S
O222 C203 1.215 . S
O223 Ho200 2.524 . S
O223 C203 1.289 . S
O224 Ho200 2.381 . S
O224 C210 1.275 . S
O225 Ho200 2.669 . S
O225 Ho201 2.305 . S
O225 C210 1.256 . S
O226 Ho201 2.322 . S
O226 C211 1.259 . S
O227 Ho200 2.346 . S
O227 C211 1.268 . S
O228 Ho201 2.378 . S
O228 C212 1.215 . S
O229 Ho201 2.524 . S
O229 C212 1.289 . S
O230 Ho201 2.381 . S
O230 C219 1.275 . S
O231 Ho200 2.305 . S
O231 Ho201 2.669 . S
O231 C219 1.256 . S
H232 C205 0.930 . S
H233 C206 0.931 . S
H234 C208 0.934 . S
H235 C209 0.930 . S
H236 C214 0.930 . S
H237 C215 0.931 . S
H238 C217 0.934 . S
H239 C218 0.930 . S
Ho240 C243 2.811 . S
Ho240 O260 2.322 . S
Ho240 O262 2.378 . S
Ho240 O263 2.524 . S
Ho240 O264 2.381 . S
Ho240 O265 2.669 . S
Ho240 O267 2.346 . S
Ho240 O271 2.305 . S
Ho241 C252 2.811 . S
Ho241 O261 2.346 . S
Ho241 O265 2.305 . S
Ho241 O266 2.322 . S
Ho241 O268 2.378 . S
Ho241 O269 2.524 . S
Ho241 O270 2.381 . S
Ho241 O271 2.669 . S
C242 O260 1.259 . S
C242 O261 1.268 . S
C243 Ho240 2.811 . S
C243 C244 1.488 . S
C243 O262 1.215 . S
C243 O263 1.289 . S
C244 C243 1.488 . S
C244 C245 1.348 . S
C244 C249 1.413 . S
C245 C244 1.348 . S
C245 C246 1.442 . S
C245 H272 0.930 . S
C246 C245 1.442 . S
C246 C247 1.381 . S
C246 H273 0.931 . S
C247 C246 1.381 . S
C247 C248 1.321 . S
C248 C247 1.321 . S
C248 C249 1.403 . S
C248 H274 0.934 . S
C249 C244 1.413 . S
C249 C248 1.403 . S
C249 H275 0.930 . S
C250 O264 1.275 . S
C250 O265 1.256 . S
C251 O266 1.259 . S
C251 O267 1.268 . S
C252 Ho241 2.811 . S
C252 C253 1.488 . S
C252 O268 1.215 . S
C252 O269 1.289 . S
C253 C252 1.488 . S
C253 C254 1.348 . S
C253 C258 1.413 . S
C254 C253 1.348 . S
C254 C255 1.442 . S
C254 H276 0.930 . S
C255 C254 1.442 . S
C255 C256 1.381 . S
C255 H277 0.931 . S
C256 C255 1.381 . S
C256 C257 1.321 . S
C257 C256 1.321 . S
C257 C258 1.403 . S
C257 H278 0.934 . S
C258 C253 1.413 . S
C258 C257 1.403 . S
C258 H279 0.930 . S
C259 O270 1.275 . S
C259 O271 1.256 . S
O260 Ho240 2.322 . S
O260 C242 1.259 . S
O261 Ho241 2.346 . S
O261 C242 1.268 . S
O262 Ho240 2.378 . S
O262 C243 1.215 . S
O263 Ho240 2.524 . S
O263 C243 1.289 . S
O264 Ho240 2.381 . S
O264 C250 1.275 . S
O265 Ho240 2.669 . S
O265 Ho241 2.305 . S
O265 C250 1.256 . S
O266 Ho241 2.322 . S
O266 C251 1.259 . S
O267 Ho240 2.346 . S
O267 C251 1.268 . S
O268 Ho241 2.378 . S
O268 C252 1.215 . S
O269 Ho241 2.524 . S
O269 C252 1.289 . S
O270 Ho241 2.381 . S
O270 C259 1.275 . S
O271 Ho240 2.305 . S
O271 Ho241 2.669 . S
O271 C259 1.256 . S
H272 C245 0.930 . S
H273 C246 0.931 . S
H274 C248 0.934 . S
H275 C249 0.930 . S
H276 C254 0.930 . S
H277 C255 0.931 . S
H278 C257 0.934 . S
H279 C258 0.930 . S
Ho280 C283 2.811 . S
Ho280 O300 2.322 . S
Ho280 O302 2.378 . S
Ho280 O303 2.524 . S
Ho280 O304 2.381 . S
Ho280 O305 2.669 . S
Ho280 O307 2.346 . S
Ho280 O311 2.305 . S
Ho281 C292 2.811 . S
Ho281 O301 2.346 . S
Ho281 O305 2.305 . S
Ho281 O306 2.322 . S
Ho281 O308 2.378 . S
Ho281 O309 2.524 . S
Ho281 O310 2.381 . S
Ho281 O311 2.669 . S
C282 O300 1.259 . S
C282 O301 1.268 . S
C283 Ho280 2.811 . S
C283 C284 1.488 . S
C283 O302 1.215 . S
C283 O303 1.289 . S
C284 C283 1.488 . S
C284 C285 1.348 . S
C284 C289 1.413 . S
C285 C284 1.348 . S
C285 C286 1.442 . S
C285 H312 0.930 . S
C286 C285 1.442 . S
C286 C287 1.381 . S
C286 H313 0.931 . S
C287 C286 1.381 . S
C287 C288 1.321 . S
C288 C287 1.321 . S
C288 C289 1.403 . S
C288 H314 0.934 . S
C289 C284 1.413 . S
C289 C288 1.403 . S
C289 H315 0.930 . S
C290 O304 1.275 . S
C290 O305 1.256 . S
C291 O306 1.259 . S
C291 O307 1.268 . S
C292 Ho281 2.811 . S
C292 C293 1.488 . S
C292 O308 1.215 . S
C292 O309 1.289 . S
C293 C292 1.488 . S
C293 C294 1.348 . S
C293 C298 1.413 . S
C294 C293 1.348 . S
C294 C295 1.442 . S
C294 H316 0.930 . S
C295 C294 1.442 . S
C295 C296 1.381 . S
C295 H317 0.931 . S
C296 C295 1.381 . S
C296 C297 1.321 . S
C297 C296 1.321 . S
C297 C298 1.403 . S
C297 H318 0.934 . S
C298 C293 1.413 . S
C298 C297 1.403 . S
C298 H319 0.930 . S
C299 O310 1.275 . S
C299 O311 1.256 . S
O300 Ho280 2.322 . S
O300 C282 1.259 . S
O301 Ho281 2.346 . S
O301 C282 1.268 . S
O302 Ho280 2.378 . S
O302 C283 1.215 . S
O303 Ho280 2.524 . S
O303 C283 1.289 . S
O304 Ho280 2.381 . S
O304 C290 1.275 . S
O305 Ho280 2.669 . S
O305 Ho281 2.305 . S
O305 C290 1.256 . S
O306 Ho281 2.322 . S
O306 C291 1.259 . S
O307 Ho280 2.346 . S
O307 C291 1.268 . S
O308 Ho281 2.378 . S
O308 C292 1.215 . S
O309 Ho281 2.524 . S
O309 C292 1.289 . S
O310 Ho281 2.381 . S
O310 C299 1.275 . S
O311 Ho280 2.305 . S
O311 Ho281 2.669 . S
O311 C299 1.256 . S
H312 C285 0.930 . S
H313 C286 0.931 . S
H314 C288 0.934 . S
H315 C289 0.930 . S
H316 C294 0.930 . S
H317 C295 0.931 . S
H318 C297 0.934 . S
H319 C298 0.930 . S
Ho320 C323 2.811 . S
Ho320 O340 2.322 . S
Ho320 O342 2.378 . S
Ho320 O343 2.524 . S
Ho320 O344 2.381 . S
Ho320 O345 2.669 . S
Ho320 O347 2.346 . S
Ho320 O351 2.305 . S
Ho321 C332 2.811 . S
Ho321 O341 2.346 . S
Ho321 O345 2.305 . S
Ho321 O346 2.322 . S
Ho321 O348 2.378 . S
Ho321 O349 2.524 . S
Ho321 O350 2.381 . S
Ho321 O351 2.669 . S
C322 O340 1.259 . S
C322 O341 1.268 . S
C323 Ho320 2.811 . S
C323 C324 1.488 . S
C323 O342 1.215 . S
C323 O343 1.289 . S
C324 C323 1.488 . S
C324 C325 1.348 . S
C324 C329 1.413 . S
C325 C324 1.348 . S
C325 C326 1.442 . S
C325 H352 0.930 . S
C326 C325 1.442 . S
C326 C327 1.381 . S
C326 H353 0.931 . S
C327 C326 1.381 . S
C327 C328 1.321 . S
C328 C327 1.321 . S
C328 C329 1.403 . S
C328 H354 0.934 . S
C329 C324 1.413 . S
C329 C328 1.403 . S
C329 H355 0.930 . S
C330 O344 1.275 . S
C330 O345 1.256 . S
C331 O346 1.259 . S
C331 O347 1.268 . S
C332 Ho321 2.811 . S
C332 C333 1.488 . S
C332 O348 1.215 . S
C332 O349 1.289 . S
C333 C332 1.488 . S
C333 C334 1.348 . S
C333 C338 1.413 . S
C334 C333 1.348 . S
C334 C335 1.442 . S
C334 H356 0.930 . S
C335 C334 1.442 . S
C335 C336 1.381 . S
C335 H357 0.931 . S
C336 C335 1.381 . S
C336 C337 1.321 . S
C337 C336 1.321 . S
C337 C338 1.403 . S
C337 H358 0.934 . S
C338 C333 1.413 . S
C338 C337 1.403 . S
C338 H359 0.930 . S
C339 O350 1.275 . S
C339 O351 1.256 . S
O340 Ho320 2.322 . S
O340 C322 1.259 . S
O341 Ho321 2.346 . S
O341 C322 1.268 . S
O342 Ho320 2.378 . S
O342 C323 1.215 . S
O343 Ho320 2.524 . S
O343 C323 1.289 . S
O344 Ho320 2.381 . S
O344 C330 1.275 . S
O345 Ho320 2.669 . S
O345 Ho321 2.305 . S
O345 C330 1.256 . S
O346 Ho321 2.322 . S
O346 C331 1.259 . S
O347 Ho320 2.346 . S
O347 C331 1.268 . S
O348 Ho321 2.378 . S
O348 C332 1.215 . S
O349 Ho321 2.524 . S
O349 C332 1.289 . S
O350 Ho321 2.381 . S
O350 C339 1.275 . S
O351 Ho320 2.305 . S
O351 Ho321 2.669 . S
O351 C339 1.256 . S
H352 C325 0.930 . S
H353 C326 0.931 . S
H354 C328 0.934 . S
H355 C329 0.930 . S
H356 C334 0.930 . S
H357 C335 0.931 . S
H358 C337 0.934 . S
H359 C338 0.930 . S
H360 C378 0.951 . S
H361 C380 0.951 . S
H362 C382 0.950 . S
H363 C383 0.950 . S
H364 C385 0.950 . S
H365 C388 0.950 1_556 S
H366 C389 0.950 . S
H367 C391 0.950 . S
H368 C392 0.950 1_556 S
H369 C393 0.951 . S
H370 C395 0.951 . S
H371 C397 0.950 . S
H372 C398 0.950 . S
H373 C400 0.950 . S
H374 C403 0.950 . S
H375 C404 0.950 . S
H376 C406 0.950 . S
H377 C407 0.950 . S
C378 H360 0.951 . S
C378 C379 1.366 . S
C378 C380 1.388 . S
C379 C378 1.366 . S
C379 C383 1.385 . S
C380 H361 0.951 . S
C380 C378 1.388 . S
C380 C381 1.366 . S
C381 C380 1.366 . S
C381 C382 1.414 . S
C381 C384 1.499 . S
C382 H362 0.950 . S
C382 C381 1.414 . S
C382 C383 1.374 . S
C383 H363 0.950 . S
C383 C379 1.385 . S
C383 C382 1.374 . S
C384 C381 1.499 . S
C384 C385 1.373 . S
C384 C386 1.389 . S
C385 H364 0.950 . S
C385 C384 1.373 . S
C385 C401 1.377 . S
C386 C384 1.389 . S
C386 C387 1.524 . S
C386 C400 1.377 . S
C387 C386 1.524 . S
C387 C388 1.397 1_556 S
C387 C392 1.363 1_556 S
C388 H365 0.950 1_554 S
C388 C387 1.397 1_554 S
C388 C389 1.334 . S
C389 H366 0.950 . S
C389 C388 1.334 . S
C389 C390 1.287 . S
C390 C389 1.287 . S
C390 C391 1.524 . S
C390 H409 0.913 . S
C391 H367 0.950 . S
C391 C390 1.524 . S
C391 C392 1.415 . S
C392 H368 0.950 1_554 S
C392 C387 1.363 1_554 S
C392 C391 1.415 . S
C393 H369 0.951 . S
C393 C394 1.366 . S
C393 C395 1.388 . S
C394 C393 1.366 . S
C394 C398 1.385 . S
C395 H370 0.951 . S
C395 C393 1.388 . S
C395 C396 1.366 . S
C396 C395 1.366 . S
C396 C397 1.414 . S
C396 C399 1.499 . S
C397 H371 0.950 . S
C397 C396 1.414 . S
C397 C398 1.374 . S
C398 H372 0.950 . S
C398 C394 1.385 . S
C398 C397 1.374 . S
C399 C396 1.499 . S
C399 C400 1.373 . S
C399 C401 1.389 . S
C400 H373 0.950 . S
C400 C386 1.377 . S
C400 C399 1.373 . S
C401 C385 1.377 . S
C401 C399 1.389 . S
C401 C402 1.524 . S
C402 C401 1.524 . S
C402 C403 1.397 . S
C402 C407 1.363 . S
C403 H374 0.950 . S
C403 C402 1.397 . S
C403 C404 1.334 . S
C404 H375 0.950 . S
C404 C403 1.334 . S
C404 C405 1.287 . S
C405 C404 1.287 . S
C405 C406 1.524 . S
C405 H408 0.999 . S
C406 H376 0.950 . S
C406 C405 1.524 . S
C406 C407 1.415 . S
C407 H377 0.950 . S
C407 C402 1.363 . S
C407 C406 1.415 . S
H408 C405 0.999 . S
H409 C390 0.913 . S
H410 C428 0.951 . S
H411 C430 0.951 . S
H412 C432 0.950 . S
H413 C433 0.950 . S
H414 C435 0.950 . S
H415 C438 0.950 . S
H416 C439 0.950 . S
H417 C441 0.950 . S
H418 C442 0.950 . S
H419 C443 0.951 . S
H420 C445 0.951 . S
H421 C447 0.950 . S
H422 C448 0.950 . S
H423 C450 0.950 . S
H424 C453 0.950 . S
H425 C454 0.950 . S
H426 C456 0.950 1_554 S
H427 C457 0.950 . S
C428 H410 0.951 . S
C428 C429 1.366 . S
C428 C430 1.388 . S
C429 C428 1.366 . S
C429 C433 1.385 . S
C430 H411 0.951 . S
C430 C428 1.388 . S
C430 C431 1.366 . S
C431 C430 1.366 . S
C431 C432 1.414 . S
C431 C434 1.499 . S
C432 H412 0.950 . S
C432 C431 1.414 . S
C432 C433 1.374 . S
C433 H413 0.950 . S
C433 C429 1.385 . S
C433 C432 1.374 . S
C434 C431 1.499 . S
C434 C435 1.373 . S
C434 C436 1.389 . S
C435 H414 0.950 . S
C435 C434 1.373 . S
C435 C451 1.377 . S
C436 C434 1.389 . S
C436 C437 1.524 . S
C436 C450 1.377 . S
C437 C436 1.524 . S
C437 C438 1.397 . S
C437 C442 1.363 . S
C438 H415 0.950 . S
C438 C437 1.397 . S
C438 C439 1.334 . S
C439 H416 0.950 . S
C439 C438 1.334 . S
C439 C440 1.287 . S
C440 C439 1.287 . S
C440 C441 1.524 . S
C440 H459 0.913 . S
C441 H417 0.950 . S
C441 C440 1.524 . S
C441 C442 1.415 . S
C442 H418 0.950 . S
C442 C437 1.363 . S
C442 C441 1.415 . S
C443 H419 0.951 . S
C443 C444 1.366 . S
C443 C445 1.388 . S
C444 C443 1.366 . S
C444 C448 1.385 . S
C445 H420 0.951 . S
C445 C443 1.388 . S
C445 C446 1.366 . S
C446 C445 1.366 . S
C446 C447 1.414 . S
C446 C449 1.499 . S
C447 H421 0.950 . S
C447 C446 1.414 . S
C447 C448 1.374 . S
C448 H422 0.950 . S
C448 C444 1.385 . S
C448 C447 1.374 . S
C449 C446 1.499 . S
C449 C450 1.373 . S
C449 C451 1.389 . S
C450 H423 0.950 . S
C450 C436 1.377 . S
C450 C449 1.373 . S
C451 C435 1.377 . S
C451 C449 1.389 . S
C451 C452 1.524 . S
C452 C451 1.524 . S
C452 C453 1.397 . S
C452 C457 1.363 . S
C453 H424 0.950 . S
C453 C452 1.397 . S
C453 C454 1.334 . S
C454 H425 0.950 . S
C454 C453 1.334 . S
C454 C455 1.287 1_556 S
C455 C454 1.287 1_554 S
C455 C456 1.524 1_554 S
C455 H458 0.999 . S
C456 H426 0.950 1_556 S
C456 C455 1.524 1_556 S
C456 C457 1.415 . S
C457 H427 0.950 . S
C457 C452 1.363 . S
C457 C456 1.415 . S
H458 C455 0.999 . S
H459 C440 0.913 . S
H460 C478 0.951 . S
H461 C480 0.951 . S
H462 C482 0.950 . S
H463 C483 0.950 . S
H464 C485 0.950 . S
H465 C488 0.950 . S
H466 C489 0.950 . S
H467 C491 0.950 . S
H468 C492 0.950 . S
H469 C493 0.951 . S
H470 C495 0.951 . S
H471 C497 0.950 . S
H472 C498 0.950 . S
H473 C500 0.950 . S
H474 C503 0.950 . S
H475 C504 0.950 . S
H476 C506 0.950 . S
H477 C507 0.950 . S
C478 H460 0.951 . S
C478 C479 1.366 . S
C478 C480 1.388 . S
C479 C478 1.366 . S
C479 C483 1.385 . S
C480 H461 0.951 . S
C480 C478 1.388 . S
C480 C481 1.366 . S
C481 C480 1.366 . S
C481 C482 1.414 . S
C481 C484 1.499 . S
C482 H462 0.950 . S
C482 C481 1.414 . S
C482 C483 1.374 . S
C483 H463 0.950 . S
C483 C479 1.385 . S
C483 C482 1.374 . S
C484 C481 1.499 . S
C484 C485 1.373 . S
C484 C486 1.389 . S
C485 H464 0.950 . S
C485 C484 1.373 . S
C485 C501 1.377 . S
C486 C484 1.389 . S
C486 C487 1.524 . S
C486 C500 1.377 . S
C487 C486 1.524 . S
C487 C488 1.397 1_556 S
C487 C492 1.363 . S
C488 H465 0.950 . S
C488 C487 1.397 1_554 S
C488 C489 1.334 . S
C489 H466 0.950 . S
C489 C488 1.334 . S
C489 C490 1.287 . S
C490 C489 1.287 . S
C490 C491 1.524 . S
C490 H509 0.913 . S
C491 H467 0.950 . S
C491 C490 1.524 . S
C491 C492 1.415 1_554 S
C492 H468 0.950 . S
C492 C487 1.363 . S
C492 C491 1.415 1_556 S
C493 H469 0.951 . S
C493 C494 1.366 . S
C493 C495 1.388 . S
C494 C493 1.366 . S
C494 C498 1.385 . S
C495 H470 0.951 . S
C495 C493 1.388 . S
C495 C496 1.366 . S
C496 C495 1.366 . S
C496 C497 1.414 . S
C496 C499 1.499 . S
C497 H471 0.950 . S
C497 C496 1.414 . S
C497 C498 1.374 . S
C498 H472 0.950 . S
C498 C494 1.385 . S
C498 C497 1.374 . S
C499 C496 1.499 . S
C499 C500 1.373 . S
C499 C501 1.389 . S
C500 H473 0.950 . S
C500 C486 1.377 . S
C500 C499 1.373 . S
C501 C485 1.377 . S
C501 C499 1.389 . S
C501 C502 1.524 . S
C502 C501 1.524 . S
C502 C503 1.397 . S
C502 C507 1.363 . S
C503 H474 0.950 . S
C503 C502 1.397 . S
C503 C504 1.334 . S
C504 H475 0.950 . S
C504 C503 1.334 . S
C504 C505 1.287 . S
C505 C504 1.287 . S
C505 C506 1.524 . S
C505 H508 0.999 . S
C506 H476 0.950 . S
C506 C505 1.524 . S
C506 C507 1.415 . S
C507 H477 0.950 . S
C507 C502 1.363 . S
C507 C506 1.415 . S
H508 C505 0.999 . S
H509 C490 0.913 . S
H510 C528 0.951 . S
H511 C530 0.951 . S
H512 C532 0.950 . S
H513 C533 0.950 . S
H514 C535 0.950 . S
H515 C538 0.950 . S
H516 C539 0.950 . S
H517 C541 0.950 . S
H518 C542 0.950 . S
H519 C543 0.951 . S
H520 C545 0.951 . S
H521 C547 0.949 1_556 S
H522 C548 0.950 . S
H523 C550 0.950 . S
H524 C553 0.950 . S
H525 C554 0.950 . S
H526 C556 0.950 . S
H527 C557 0.950 . S
C528 H510 0.951 . S
C528 C529 1.366 . S
C528 C530 1.388 . S
C529 C528 1.366 . S
C529 C533 1.385 . S
C530 H511 0.951 . S
C530 C528 1.388 . S
C530 C531 1.366 . S
C531 C530 1.366 . S
C531 C532 1.414 . S
C531 C534 1.499 . S
C532 H512 0.950 . S
C532 C531 1.414 . S
C532 C533 1.374 . S
C533 H513 0.950 . S
C533 C529 1.385 . S
C533 C532 1.374 . S
C534 C531 1.499 . S
C534 C535 1.373 . S
C534 C536 1.389 . S
C535 H514 0.950 . S
C535 C534 1.373 . S
C535 C551 1.377 . S
C536 C534 1.389 . S
C536 C537 1.524 . S
C536 C550 1.377 . S
C537 C536 1.524 . S
C537 C538 1.397 . S
C537 C542 1.363 1_554 S
C538 H515 0.950 . S
C538 C537 1.397 . S
C538 C539 1.334 . S
C539 H516 0.950 . S
C539 C538 1.334 . S
C539 C540 1.287 1_554 S
C540 C539 1.287 1_556 S
C540 C541 1.524 . S
C540 H559 0.913 . S
C541 H517 0.950 . S
C541 C540 1.524 . S
C541 C542 1.415 . S
C542 H518 0.950 . S
C542 C537 1.363 1_556 S
C542 C541 1.415 . S
C543 H519 0.951 . S
C543 C544 1.366 . S
C543 C545 1.388 . S
C544 C543 1.366 . S
C544 C548 1.385 1_554 S
C545 H520 0.951 . S
C545 C543 1.388 . S
C545 C546 1.366 . S
C546 C545 1.366 . S
C546 C547 1.414 . S
C546 C549 1.499 . S
C547 H521 0.949 1_554 S
C547 C546 1.414 . S
C547 C548 1.374 1_554 S
C548 H522 0.950 . S
C548 C544 1.385 1_556 S
C548 C547 1.374 1_556 S
C549 C546 1.499 . S
C549 C550 1.373 . S
C549 C551 1.389 . S
C550 H523 0.950 . S
C550 C536 1.377 . S
C550 C549 1.373 . S
C551 C535 1.377 . S
C551 C549 1.389 . S
C551 C552 1.524 . S
C552 C551 1.524 . S
C552 C553 1.397 . S
C552 C557 1.363 . S
C553 H524 0.950 . S
C553 C552 1.397 . S
C553 C554 1.334 . S
C554 H525 0.950 . S
C554 C553 1.334 . S
C554 C555 1.287 . S
C555 C554 1.287 . S
C555 C556 1.524 . S
C555 H558 0.999 . S
C556 H526 0.950 . S
C556 C555 1.524 . S
C556 C557 1.415 . S
C557 H527 0.950 . S
C557 C552 1.363 . S
C557 C556 1.415 . S
H558 C555 0.999 . S
H559 C540 0.913 . S
H560 C578 0.951 . S
H561 C580 0.951 . S
H562 C582 0.950 . S
H563 C583 0.950 . S
H564 C585 0.950 . S
H565 C588 0.950 . S
H566 C589 0.950 . S
H567 C591 0.950 . S
H568 C592 0.950 . S
H569 C593 0.950 1_556 S
H570 C595 0.951 . S
H571 C597 0.950 . S
H572 C598 0.950 1_455 S
H573 C600 0.950 . S
H574 C603 0.950 . S
H575 C604 0.950 . S
H576 C606 0.950 . S
H577 C607 0.950 . S
C578 H560 0.951 . S
C578 C579 1.366 . S
C578 C580 1.388 . S
C579 C578 1.366 . S
C579 C583 1.385 . S
C580 H561 0.951 . S
C580 C578 1.388 . S
C580 C581 1.366 . S
C581 C580 1.366 . S
C581 C582 1.414 . S
C581 C584 1.499 . S
C582 H562 0.950 . S
C582 C581 1.414 . S
C582 C583 1.374 . S
C583 H563 0.950 . S
C583 C579 1.385 . S
C583 C582 1.374 . S
C584 C581 1.499 . S
C584 C585 1.373 . S
C584 C586 1.389 . S
C585 H564 0.950 . S
C585 C584 1.373 . S
C585 C601 1.377 . S
C586 C584 1.389 . S
C586 C587 1.524 . S
C586 C600 1.377 . S
C587 C586 1.524 . S
C587 C588 1.397 . S
C587 C592 1.363 . S
C588 H565 0.950 . S
C588 C587 1.397 . S
C588 C589 1.334 . S
C589 H566 0.950 . S
C589 C588 1.334 . S
C589 C590 1.287 . S
C590 C589 1.287 . S
C590 C591 1.524 1_655 S
C590 H609 0.913 1_655 S
C591 H567 0.950 . S
C591 C590 1.524 1_455 S
C591 C592 1.415 1_455 S
C592 H568 0.950 . S
C592 C587 1.363 . S
C592 C591 1.415 1_655 S
C593 H569 0.950 1_554 S
C593 C594 1.366 . S
C593 C595 1.388 . S
C594 C593 1.366 . S
C594 C598 1.385 . S
C595 H570 0.951 . S
C595 C593 1.388 . S
C595 C596 1.366 . S
C596 C595 1.366 . S
C596 C597 1.414 . S
C596 C599 1.499 . S
C597 H571 0.950 . S
C597 C596 1.414 . S
C597 C598 1.374 . S
C598 H572 0.950 1_655 S
C598 C594 1.385 . S
C598 C597 1.374 . S
C599 C596 1.499 . S
C599 C600 1.373 . S
C599 C601 1.389 . S
C600 H573 0.950 . S
C600 C586 1.377 . S
C600 C599 1.373 . S
C601 C585 1.377 . S
C601 C599 1.389 . S
C601 C602 1.524 . S
C602 C601 1.524 . S
C602 C603 1.397 . S
C602 C607 1.363 . S
C603 H574 0.950 . S
C603 C602 1.397 . S
C603 C604 1.334 . S
C604 H575 0.950 . S
C604 C603 1.334 . S
C604 C605 1.287 . S
C605 C604 1.287 . S
C605 C606 1.524 . S
C605 H608 0.999 . S
C606 H576 0.950 . S
C606 C605 1.524 . S
C606 C607 1.415 . S
C607 H577 0.950 . S
C607 C602 1.363 . S
C607 C606 1.415 . S
H608 C605 0.999 . S
H609 C590 0.913 1_455 S
H610 C628 0.951 . S
H611 C630 0.943 1_556 S
H612 C632 0.950 . S
H613 C633 0.950 . S
H614 C635 0.950 . S
H615 C638 0.950 1_554 S
H616 C639 0.950 . S
H617 C641 0.950 . S
H618 C642 0.950 . S
H619 C643 0.951 . S
H620 C645 0.951 . S
H621 C647 0.950 . S
H622 C648 0.950 . S
H623 C650 0.950 . S
H624 C653 0.950 . S
H625 C654 0.950 . S
H626 C656 0.950 . S
H627 C657 0.950 . S
C628 H610 0.951 . S
C628 C629 1.366 1_556 S
C628 C630 1.388 1_556 S
C629 C628 1.366 1_554 S
C629 C633 1.385 . S
C630 H611 0.943 1_554 S
C630 C628 1.388 1_554 S
C630 C631 1.366 . S
C631 C630 1.366 . S
C631 C632 1.414 . S
C631 C634 1.499 . S
C632 H612 0.950 . S
C632 C631 1.414 . S
C632 C633 1.374 . S
C633 H613 0.950 . S
C633 C629 1.385 . S
C633 C632 1.374 . S
C634 C631 1.499 . S
C634 C635 1.373 . S
C634 C636 1.389 . S
C635 H614 0.950 . S
C635 C634 1.373 . S
C635 C651 1.377 . S
C636 C634 1.389 . S
C636 C637 1.524 . S
C636 C650 1.377 . S
C637 C636 1.524 . S
C637 C638 1.397 1_554 S
C637 C642 1.363 1_554 S
C638 H615 0.950 1_556 S
C638 C637 1.397 1_556 S
C638 C639 1.334 . S
C639 H616 0.950 . S
C639 C638 1.334 . S
C639 C640 1.287 . S
C640 C639 1.287 . S
C640 C641 1.524 . S
C640 H659 0.913 . S
C641 H617 0.950 . S
C641 C640 1.524 . S
C641 C642 1.415 . S
C642 H618 0.950 . S
C642 C637 1.363 1_556 S
C642 C641 1.415 . S
C643 H619 0.951 . S
C643 C644 1.366 . S
C643 C645 1.388 . S
C644 C643 1.366 . S
C644 C648 1.385 . S
C645 H620 0.951 . S
C645 C643 1.388 . S
C645 C646 1.366 . S
C646 C645 1.366 . S
C646 C647 1.414 . S
C646 C649 1.499 . S
C647 H621 0.950 . S
C647 C646 1.414 . S
C647 C648 1.374 . S
C648 H622 0.950 . S
C648 C644 1.385 . S
C648 C647 1.374 . S
C649 C646 1.499 . S
C649 C650 1.373 . S
C649 C651 1.389 . S
C650 H623 0.950 . S
C650 C636 1.377 . S
C650 C649 1.373 . S
C651 C635 1.377 . S
C651 C649 1.389 . S
C651 C652 1.524 . S
C652 C651 1.524 . S
C652 C653 1.397 . S
C652 C657 1.363 . S
C653 H624 0.950 . S
C653 C652 1.397 . S
C653 C654 1.334 . S
C654 H625 0.950 . S
C654 C653 1.334 . S
C654 C655 1.287 . S
C655 C654 1.287 . S
C655 C656 1.524 . S
C655 H658 0.999 . S
C656 H626 0.950 . S
C656 C655 1.524 . S
C656 C657 1.415 . S
C657 H627 0.950 . S
C657 C652 1.363 . S
C657 C656 1.415 . S
H658 C655 0.999 . S
H659 C640 0.913 . S
H660 C678 0.951 . S
H661 C680 0.951 . S
H662 C682 0.950 . S
H663 C683 0.950 . S
H664 C685 0.950 . S
H665 C688 0.950 . S
H666 C689 0.950 . S
H667 C691 0.950 . S
H668 C692 0.950 . S
H669 C693 0.951 . S
H670 C695 0.951 . S
H671 C697 0.950 . S
H672 C698 0.950 . S
H673 C700 0.950 . S
H674 C703 0.950 . S
H675 C704 0.950 . S
H676 C706 0.950 . S
H677 C707 0.950 . S
C678 H660 0.951 . S
C678 C679 1.366 . S
C678 C680 1.388 . S
C679 C678 1.366 . S
C679 C683 1.385 . S
C680 H661 0.951 . S
C680 C678 1.388 . S
C680 C681 1.366 . S
C681 C680 1.366 . S
C681 C682 1.414 . S
C681 C684 1.499 1_455 S
C682 H662 0.950 . S
C682 C681 1.414 . S
C682 C683 1.374 . S
C683 H663 0.950 . S
C683 C679 1.385 . S
C683 C682 1.374 . S
C684 C681 1.499 1_655 S
C684 C685 1.373 . S
C684 C686 1.389 . S
C685 H664 0.950 . S
C685 C684 1.373 . S
C685 C701 1.377 . S
C686 C684 1.389 . S
C686 C687 1.524 . S
C686 C700 1.377 . S
C687 C686 1.524 . S
C687 C688 1.397 . S
C687 C692 1.363 . S
C688 H665 0.950 . S
C688 C687 1.397 . S
C688 C689 1.334 . S
C689 H666 0.950 . S
C689 C688 1.334 . S
C689 C690 1.287 . S
C690 C689 1.287 . S
C690 C691 1.524 . S
C690 H709 0.913 . S
C691 H667 0.950 . S
C691 C690 1.524 . S
C691 C692 1.415 . S
C692 H668 0.950 . S
C692 C687 1.363 . S
C692 C691 1.415 . S
C693 H669 0.951 . S
C693 C694 1.366 . S
C693 C695 1.388 . S
C694 C693 1.366 . S
C694 C698 1.385 . S
C695 H670 0.951 . S
C695 C693 1.388 . S
C695 C696 1.366 . S
C696 C695 1.366 . S
C696 C697 1.414 . S
C696 C699 1.499 . S
C697 H671 0.950 . S
C697 C696 1.414 . S
C697 C698 1.374 . S
C698 H672 0.950 . S
C698 C694 1.385 . S
C698 C697 1.374 . S
C699 C696 1.499 . S
C699 C700 1.373 . S
C699 C701 1.389 . S
C700 H673 0.950 . S
C700 C686 1.377 . S
C700 C699 1.373 . S
C701 C685 1.377 . S
C701 C699 1.389 . S
C701 C702 1.524 . S
C702 C701 1.524 . S
C702 C703 1.397 . S
C702 C707 1.363 . S
C703 H674 0.950 . S
C703 C702 1.397 . S
C703 C704 1.334 . S
C704 H675 0.950 . S
C704 C703 1.334 . S
C704 C705 1.287 . S
C705 C704 1.287 . S
C705 C706 1.524 . S
C705 H708 0.999 . S
C706 H676 0.950 . S
C706 C705 1.524 . S
C706 C707 1.415 . S
C707 H677 0.950 . S
C707 C702 1.363 . S
C707 C706 1.415 . S
H708 C705 0.999 . S
H709 C690 0.913 . S
H710 C728 0.951 . S
H711 C730 0.951 . S
H712 C732 0.950 . S
H713 C733 0.950 . S
H714 C735 0.950 . S
H715 C738 0.950 . S
H716 C739 0.950 . S
H717 C741 0.950 . S
H718 C742 0.950 . S
H719 C743 0.951 . S
H720 C745 0.951 . S
H721 C747 0.950 . S
H722 C748 0.950 . S
H723 C750 0.950 . S
H724 C753 0.950 . S
H725 C754 0.950 . S
H726 C756 0.950 . S
H727 C757 0.950 . S
C728 H710 0.951 . S
C728 C729 1.366 . S
C728 C730 1.388 . S
C729 C728 1.366 . S
C729 C733 1.385 . S
C730 H711 0.951 . S
C730 C728 1.388 . S
C730 C731 1.366 . S
C731 C730 1.366 . S
C731 C732 1.414 . S
C731 C734 1.499 . S
C732 H712 0.950 . S
C732 C731 1.414 . S
C732 C733 1.374 . S
C733 H713 0.950 . S
C733 C729 1.385 . S
C733 C732 1.374 . S
C734 C731 1.499 . S
C734 C735 1.373 . S
C734 C736 1.389 . S
C735 H714 0.950 . S
C735 C734 1.373 . S
C735 C751 1.377 . S
C736 C734 1.389 . S
C736 C737 1.524 . S
C736 C750 1.377 . S
C737 C736 1.524 . S
C737 C738 1.397 . S
C737 C742 1.363 . S
C738 H715 0.950 . S
C738 C737 1.397 . S
C738 C739 1.334 . S
C739 H716 0.950 . S
C739 C738 1.334 . S
C739 C740 1.287 . S
C740 C739 1.287 . S
C740 C741 1.524 . S
C740 H759 0.913 . S
C741 H717 0.950 . S
C741 C740 1.524 . S
C741 C742 1.415 . S
C742 H718 0.950 . S
C742 C737 1.363 . S
C742 C741 1.415 . S
C743 H719 0.951 . S
C743 C744 1.366 . S
C743 C745 1.388 . S
C744 C743 1.366 . S
C744 C748 1.385 . S
C745 H720 0.951 . S
C745 C743 1.388 . S
C745 C746 1.366 . S
C746 C745 1.366 . S
C746 C747 1.414 . S
C746 C749 1.499 . S
C747 H721 0.950 . S
C747 C746 1.414 . S
C747 C748 1.374 . S
C748 H722 0.950 . S
C748 C744 1.385 . S
C748 C747 1.374 . S
C749 C746 1.499 . S
C749 C750 1.373 . S
C749 C751 1.389 . S
C750 H723 0.950 . S
C750 C736 1.377 . S
C750 C749 1.373 . S
C751 C735 1.377 . S
C751 C749 1.389 . S
C751 C752 1.524 . S
C752 C751 1.524 . S
C752 C753 1.397 . S
C752 C757 1.363 . S
C753 H724 0.950 . S
C753 C752 1.397 . S
C753 C754 1.334 . S
C754 H725 0.950 . S
C754 C753 1.334 . S
C754 C755 1.287 . S
C755 C754 1.287 . S
C755 C756 1.524 . S
C755 H758 0.999 . S
C756 H726 0.950 . S
C756 C755 1.524 . S
C756 C757 1.415 . S
C757 H727 0.950 . S
C757 C752 1.363 . S
C757 C756 1.415 . S
H758 C755 0.999 . S
H759 C740 0.913 . S
H760 C778 0.951 . S
H761 C780 0.951 . S
H762 C782 0.950 . S
H763 C783 0.950 . S
H764 C785 0.950 . S
H765 C788 0.950 . S
H766 C789 0.950 . S
H767 C791 0.950 . S
H768 C792 0.950 . S
H769 C793 0.951 . S
H770 C795 0.951 . S
H771 C797 0.950 . S
H772 C798 0.950 . S
H773 C800 0.950 . S
H774 C803 0.950 . S
H775 C804 0.950 . S
H776 C806 0.950 . S
H777 C807 0.950 . S
C778 H760 0.951 . S
C778 C779 1.366 . S
C778 C780 1.388 . S
C779 C778 1.366 . S
C779 C783 1.385 . S
C780 H761 0.951 . S
C780 C778 1.388 . S
C780 C781 1.366 . S
C781 C780 1.366 . S
C781 C782 1.414 . S
C781 C784 1.499 . S
C782 H762 0.950 . S
C782 C781 1.414 . S
C782 C783 1.374 . S
C783 H763 0.950 . S
C783 C779 1.385 . S
C783 C782 1.374 . S
C784 C781 1.499 . S
C784 C785 1.373 . S
C784 C786 1.389 . S
C785 H764 0.950 . S
C785 C784 1.373 . S
C785 C801 1.377 . S
C786 C784 1.389 . S
C786 C787 1.524 . S
C786 C800 1.377 . S
C787 C786 1.524 . S
C787 C788 1.397 . S
C787 C792 1.363 . S
C788 H765 0.950 . S
C788 C787 1.397 . S
C788 C789 1.334 . S
C789 H766 0.950 . S
C789 C788 1.334 . S
C789 C790 1.287 . S
C790 C789 1.287 . S
C790 C791 1.524 . S
C790 H809 0.913 . S
C791 H767 0.950 . S
C791 C790 1.524 . S
C791 C792 1.415 . S
C792 H768 0.950 . S
C792 C787 1.363 . S
C792 C791 1.415 . S
C793 H769 0.951 . S
C793 C794 1.366 . S
C793 C795 1.388 1_565 S
C794 C793 1.366 . S
C794 C798 1.385 . S
C795 H770 0.951 . S
C795 C793 1.388 1_545 S
C795 C796 1.366 . S
C796 C795 1.366 . S
C796 C797 1.414 . S
C796 C799 1.499 . S
C797 H771 0.950 . S
C797 C796 1.414 . S
C797 C798 1.374 1_545 S
C798 H772 0.950 . S
C798 C794 1.385 . S
C798 C797 1.374 1_565 S
C799 C796 1.499 . S
C799 C800 1.373 . S
C799 C801 1.389 . S
C800 H773 0.950 . S
C800 C786 1.377 . S
C800 C799 1.373 . S
C801 C785 1.377 . S
C801 C799 1.389 . S
C801 C802 1.524 . S
C802 C801 1.524 . S
C802 C803 1.397 . S
C802 C807 1.363 . S
C803 H774 0.950 . S
C803 C802 1.397 . S
C803 C804 1.334 . S
C804 H775 0.950 . S
C804 C803 1.334 . S
C804 C805 1.287 . S
C805 C804 1.287 . S
C805 C806 1.524 . S
C805 H808 0.999 . S
C806 H776 0.950 . S
C806 C805 1.524 . S
C806 C807 1.415 . S
C807 H777 0.950 . S
C807 C802 1.363 . S
C807 C806 1.415 . S
H808 C805 0.999 . S
H809 C790 0.913 . S
H810 C828 0.951 . S
H811 C830 0.951 . S
H812 C832 0.950 . S
H813 C833 0.950 . S
H814 C835 0.950 . S
H815 C838 0.950 . S
H816 C839 0.950 . S
H817 C841 0.950 . S
H818 C842 0.950 . S
H819 C843 0.951 1_556 S
H820 C845 0.950 1_556 S
H821 C847 0.950 . S
H822 C848 0.950 . S
H823 C850 0.950 . S
H824 C853 0.950 . S
H825 C854 0.950 . S
H826 C856 0.950 . S
H827 C857 0.950 . S
C828 H810 0.951 . S
C828 C829 1.366 . S
C828 C830 1.388 . S
C829 C828 1.366 . S
C829 C833 1.385 . S
C830 H811 0.951 . S
C830 C828 1.388 . S
C830 C831 1.366 . S
C831 C830 1.366 . S
C831 C832 1.414 . S
C831 C834 1.499 . S
C832 H812 0.950 . S
C832 C831 1.414 . S
C832 C833 1.374 . S
C833 H813 0.950 . S
C833 C829 1.385 . S
C833 C832 1.374 . S
C834 C831 1.499 . S
C834 C835 1.373 1_554 S
C834 C836 1.389 . S
C835 H814 0.950 . S
C835 C834 1.373 1_556 S
C835 C851 1.377 . S
C836 C834 1.389 . S
C836 C837 1.524 . S
C836 C850 1.377 . S
C837 C836 1.524 . S
C837 C838 1.397 . S
C837 C842 1.363 . S
C838 H815 0.950 . S
C838 C837 1.397 . S
C838 C839 1.334 . S
C839 H816 0.950 . S
C839 C838 1.334 . S
C839 C840 1.287 . S
C840 C839 1.287 . S
C840 C841 1.524 . S
C840 H859 0.913 . S
C841 H817 0.950 . S
C841 C840 1.524 . S
C841 C842 1.415 . S
C842 H818 0.950 . S
C842 C837 1.363 . S
C842 C841 1.415 . S
C843 H819 0.951 1_554 S
C843 C844 1.366 . S
C843 C845 1.388 . S
C844 C843 1.366 . S
C844 C848 1.385 . S
C845 H820 0.950 1_554 S
C845 C843 1.388 . S
C845 C846 1.366 . S
C846 C845 1.366 . S
C846 C847 1.414 . S
C846 C849 1.499 . S
C847 H821 0.950 . S
C847 C846 1.414 . S
C847 C848 1.374 . S
C848 H822 0.950 . S
C848 C844 1.385 . S
C848 C847 1.374 . S
C849 C846 1.499 . S
C849 C850 1.373 . S
C849 C851 1.389 1_554 S
C850 H823 0.950 . S
C850 C836 1.377 . S
C850 C849 1.373 . S
C851 C835 1.377 . S
C851 C849 1.389 1_556 S
C851 C852 1.524 . S
C852 C851 1.524 . S
C852 C853 1.397 . S
C852 C857 1.363 . S
C853 H824 0.950 . S
C853 C852 1.397 . S
C853 C854 1.334 . S
C854 H825 0.950 . S
C854 C853 1.334 . S
C854 C855 1.287 . S
C855 C854 1.287 . S
C855 C856 1.524 . S
C855 H858 0.999 . S
C856 H826 0.950 . S
C856 C855 1.524 . S
C856 C857 1.415 . S
C857 H827 0.950 . S
C857 C852 1.363 . S
C857 C856 1.415 . S
H858 C855 0.999 . S
H859 C840 0.913 . S
H860 C878 0.951 . S
H861 C880 0.951 . S
H862 C882 0.950 . S
H863 C883 0.950 . S
H864 C885 0.950 . S
H865 C888 0.950 . S
H866 C889 0.950 . S
H867 C891 0.950 . S
H868 C892 0.950 . S
H869 C893 0.951 . S
H870 C895 0.951 . S
H871 C897 0.950 . S
H872 C898 0.950 . S
H873 C900 0.950 . S
H874 C903 0.918 1_545 S
H875 C904 0.950 . S
H876 C906 0.950 . S
H877 C907 0.950 . S
C878 H860 0.951 . S
C878 C879 1.366 . S
C878 C880 1.388 . S
C879 C878 1.366 . S
C879 C883 1.385 1_554 S
C880 H861 0.951 . S
C880 C878 1.388 . S
C880 C881 1.366 . S
C881 C880 1.366 . S
C881 C882 1.414 1_554 S
C881 C884 1.499 . S
C882 H862 0.950 . S
C882 C881 1.414 1_556 S
C882 C883 1.374 . S
C883 H863 0.950 . S
C883 C879 1.385 1_556 S
C883 C882 1.374 . S
C884 C881 1.499 . S
C884 C885 1.373 . S
C884 C886 1.389 1_554 S
C885 H864 0.950 . S
C885 C884 1.373 . S
C885 C901 1.377 . S
C886 C884 1.389 1_556 S
C886 C887 1.524 . S
C886 C900 1.377 . S
C887 C886 1.524 . S
C887 C888 1.397 . S
C887 C892 1.363 . S
C888 H865 0.950 . S
C888 C887 1.397 . S
C888 C889 1.334 . S
C889 H866 0.950 . S
C889 C888 1.334 . S
C889 C890 1.287 . S
C890 C889 1.287 . S
C890 C891 1.524 . S
C890 H909 0.913 . S
C891 H867 0.950 . S
C891 C890 1.524 . S
C891 C892 1.415 . S
C892 H868 0.950 . S
C892 C887 1.363 . S
C892 C891 1.415 . S
C893 H869 0.951 . S
C893 C894 1.366 . S
C893 C895 1.388 . S
C894 C893 1.366 . S
C894 C898 1.385 . S
C895 H870 0.951 . S
C895 C893 1.388 . S
C895 C896 1.366 . S
C896 C895 1.366 . S
C896 C897 1.414 . S
C896 C899 1.499 1_545 S
C897 H871 0.950 . S
C897 C896 1.414 . S
C897 C898 1.374 . S
C898 H872 0.950 . S
C898 C894 1.385 . S
C898 C897 1.374 . S
C899 C896 1.499 1_565 S
C899 C900 1.373 1_554 S
C899 C901 1.389 . S
C900 H873 0.950 . S
C900 C886 1.377 . S
C900 C899 1.373 1_556 S
C901 C885 1.377 . S
C901 C899 1.389 . S
C901 C902 1.524 . S
C902 C901 1.524 . S
C902 C903 1.429 . S
C902 C907 1.363 . S
C903 H874 0.918 1_565 S
C903 C902 1.429 . S
C903 C904 1.336 1_565 S
C904 H875 0.950 . S
C904 C903 1.336 1_545 S
C904 C905 1.287 . S
C905 C904 1.287 . S
C905 C906 1.524 1_545 S
C905 H908 0.999 . S
C906 H876 0.950 . S
C906 C905 1.524 1_565 S
C906 C907 1.415 . S
C907 H877 0.950 . S
C907 C902 1.363 . S
C907 C906 1.415 . S
H908 C905 0.999 . S
H909 C890 0.913 . S
H910 C928 0.951 . S
H911 C930 0.951 . S
H912 C932 0.950 . S
H913 C933 0.950 . S
H914 C935 0.950 1_556 S
H915 C938 0.950 1_556 S
H916 C939 0.950 1_556 S
H917 C941 0.950 1_545 S
H918 C942 0.950 . S
H919 C943 0.951 . S
H920 C945 0.951 . S
H921 C947 0.950 . S
H922 C948 0.950 . S
H923 C950 0.950 . S
H924 C953 0.950 . S
H925 C954 0.950 . S
H926 C956 0.950 . S
H927 C957 0.950 . S
C928 H910 0.951 . S
C928 C929 1.366 . S
C928 C930 1.388 1_655 S
C929 C928 1.366 . S
C929 C933 1.385 1_554 S
C930 H911 0.951 . S
C930 C928 1.388 1_455 S
C930 C931 1.366 . S
C931 C930 1.366 . S
C931 C932 1.414 1_554 S
C931 C934 1.499 . S
C932 H912 0.950 . S
C932 C931 1.414 1_556 S
C932 C933 1.374 1_455 S
C933 H913 0.950 . S
C933 C929 1.385 1_556 S
C933 C932 1.374 1_655 S
C934 C931 1.499 . S
C934 C935 1.373 . S
C934 C936 1.389 . S
C935 H914 0.950 1_554 S
C935 C934 1.373 . S
C935 C951 1.377 . S
C936 C934 1.389 . S
C936 C937 1.524 . S
C936 C950 1.377 . S
C937 C936 1.524 . S
C937 C938 1.397 . S
C937 C942 1.363 . S
C938 H915 0.950 1_554 S
C938 C937 1.397 . S
C938 C939 1.334 . S
C939 H916 0.950 1_554 S
C939 C938 1.334 . S
C939 C940 1.287 . S
C940 C939 1.287 . S
C940 C941 1.524 . S
C940 H959 0.876 1_565 S
C941 H917 0.950 1_565 S
C941 C940 1.524 . S
C941 C942 1.415 . S
C942 H918 0.950 . S
C942 C937 1.363 . S
C942 C941 1.415 . S
C943 H919 0.951 . S
C943 C944 1.366 1_556 S
C943 C945 1.388 . S
C944 C943 1.366 1_554 S
C944 C948 1.385 . S
C945 H920 0.951 . S
C945 C943 1.388 . S
C945 C946 1.366 1_556 S
C946 C945 1.366 1_554 S
C946 C947 1.414 . S
C946 C949 1.499 . S
C947 H921 0.950 . S
C947 C946 1.414 . S
C947 C948 1.374 . S
C948 H922 0.950 . S
C948 C944 1.385 . S
C948 C947 1.374 . S
C949 C946 1.499 . S
C949 C950 1.373 . S
C949 C951 1.389 . S
C950 H923 0.950 . S
C950 C936 1.377 . S
C950 C949 1.373 . S
C951 C935 1.377 . S
C951 C949 1.389 . S
C951 C952 1.524 1_554 S
C952 C951 1.524 1_556 S
C952 C953 1.397 1_556 S
C952 C957 1.363 . S
C953 H924 0.950 . S
C953 C952 1.397 1_554 S
C953 C954 1.334 . S
C954 H925 0.950 . S
C954 C953 1.334 . S
C954 C955 1.287 1_554 S
C955 C954 1.287 1_556 S
C955 C956 1.524 . S
C955 H958 0.999 . S
C956 H926 0.950 . S
C956 C955 1.524 . S
C956 C957 1.415 . S
C957 H927 0.950 . S
C957 C952 1.363 . S
C957 C956 1.415 . S
H958 C955 0.999 . S
H959 C940 0.876 1_545 S
H960 C978 0.951 . S
H961 C980 0.951 . S
H962 C982 0.950 . S
H963 C983 0.950 . S
H964 C985 0.950 . S
H965 C988 0.950 . S
H966 C989 0.950 . S
H967 C991 0.950 . S
H968 C992 0.950 . S
H969 C993 0.951 . S
H970 C995 0.951 . S
H971 C997 0.950 . S
H972 C998 0.950 . S
H973 C1000 0.950 . S
H974 C1003 0.950 . S
H975 C1004 0.950 . S
H976 C1006 0.950 . S
H977 C1007 0.950 . S
C978 H960 0.951 . S
C978 C979 1.366 . S
C978 C980 1.388 . S
C979 C978 1.366 . S
C979 C983 1.385 . S
C980 H961 0.951 . S
C980 C978 1.388 . S
C980 C981 1.366 . S
C981 C980 1.366 . S
C981 C982 1.414 . S
C981 C984 1.499 . S
C982 H962 0.950 . S
C982 C981 1.414 . S
C982 C983 1.374 . S
C983 H963 0.950 . S
C983 C979 1.385 . S
C983 C982 1.374 . S
C984 C981 1.499 . S
C984 C985 1.373 . S
C984 C986 1.389 . S
C985 H964 0.950 . S
C985 C984 1.373 . S
C985 C1001 1.377 . S
C986 C984 1.389 . S
C986 C987 1.524 . S
C986 C1000 1.377 . S
C987 C986 1.524 . S
C987 C988 1.397 . S
C987 C992 1.363 . S
C988 H965 0.950 . S
C988 C987 1.397 . S
C988 C989 1.334 . S
C989 H966 0.950 . S
C989 C988 1.334 . S
C989 C990 1.287 . S
C990 C989 1.287 . S
C990 C991 1.524 . S
C990 H1009 0.913 . S
C991 H967 0.950 . S
C991 C990 1.524 . S
C991 C992 1.415 . S
C992 H968 0.950 . S
C992 C987 1.363 . S
C992 C991 1.415 . S
C993 H969 0.951 . S
C993 C994 1.366 . S
C993 C995 1.388 . S
C994 C993 1.366 . S
C994 C998 1.385 . S
C995 H970 0.951 . S
C995 C993 1.388 . S
C995 C996 1.366 . S
C996 C995 1.366 . S
C996 C997 1.414 . S
C996 C999 1.499 . S
C997 H971 0.950 . S
C997 C996 1.414 . S
C997 C998 1.374 . S
C998 H972 0.950 . S
C998 C994 1.385 . S
C998 C997 1.374 . S
C999 C996 1.499 . S
C999 C1000 1.373 . S
C999 C1001 1.389 . S
C1000 H973 0.950 . S
C1000 C986 1.377 . S
C1000 C999 1.373 . S
C1001 C985 1.377 . S
C1001 C999 1.389 . S
C1001 C1002 1.524 . S
C1002 C1001 1.524 . S
C1002 C1003 1.397 . S
C1002 C1007 1.363 . S
C1003 H974 0.950 . S
C1003 C1002 1.397 . S
C1003 C1004 1.334 . S
C1004 H975 0.950 . S
C1004 C1003 1.334 . S
C1004 C1005 1.287 . S
C1005 C1004 1.287 . S
C1005 C1006 1.524 . S
C1005 H1008 0.999 . S
C1006 H976 0.950 . S
C1006 C1005 1.524 . S
C1006 C1007 1.415 . S
C1007 H977 0.950 . S
C1007 C1002 1.363 . S
C1007 C1006 1.415 . S
H1008 C1005 0.999 . S
H1009 C990 0.913 . S
H1010 C1028 0.951 . S
H1011 C1030 0.951 . S
H1012 C1032 0.950 . S
H1013 C1033 0.950 . S
H1014 C1035 0.950 . S
H1015 C1038 0.950 . S
H1016 C1039 0.950 . S
H1017 C1041 0.950 . S
H1018 C1042 0.950 . S
H1019 C1043 0.951 . S
H1020 C1045 0.951 . S
H1021 C1047 0.950 . S
H1022 C1048 0.950 . S
H1023 C1050 0.950 . S
H1024 C1053 0.950 . S
H1025 C1054 0.950 . S
H1026 C1056 0.950 . S
H1027 C1057 0.950 . S
C1028 H1010 0.951 . S
C1028 C1029 1.366 . S
C1028 C1030 1.388 . S
C1029 C1028 1.366 . S
C1029 C1033 1.385 . S
C1030 H1011 0.951 . S
C1030 C1028 1.388 . S
C1030 C1031 1.366 . S
C1031 C1030 1.366 . S
C1031 C1032 1.414 . S
C1031 C1034 1.499 . S
C1032 H1012 0.950 . S
C1032 C1031 1.414 . S
C1032 C1033 1.374 . S
C1033 H1013 0.950 . S
C1033 C1029 1.385 . S
C1033 C1032 1.374 . S
C1034 C1031 1.499 . S
C1034 C1035 1.373 . S
C1034 C1036 1.389 . S
C1035 H1014 0.950 . S
C1035 C1034 1.373 . S
C1035 C1051 1.377 . S
C1036 C1034 1.389 . S
C1036 C1037 1.524 . S
C1036 C1050 1.377 . S
C1037 C1036 1.524 . S
C1037 C1038 1.397 . S
C1037 C1042 1.363 . S
C1038 H1015 0.950 . S
C1038 C1037 1.397 . S
C1038 C1039 1.334 . S
C1039 H1016 0.950 . S
C1039 C1038 1.334 . S
C1039 C1040 1.287 . S
C1040 C1039 1.287 . S
C1040 C1041 1.524 . S
C1040 H1059 0.913 . S
C1041 H1017 0.950 . S
C1041 C1040 1.524 . S
C1041 C1042 1.415 . S
C1042 H1018 0.950 . S
C1042 C1037 1.363 . S
C1042 C1041 1.415 . S
C1043 H1019 0.951 . S
C1043 C1044 1.366 . S
C1043 C1045 1.388 . S
C1044 C1043 1.366 . S
C1044 C1048 1.385 . S
C1045 H1020 0.951 . S
C1045 C1043 1.388 . S
C1045 C1046 1.366 . S
C1046 C1045 1.366 . S
C1046 C1047 1.414 . S
C1046 C1049 1.499 . S
C1047 H1021 0.950 . S
C1047 C1046 1.414 . S
C1047 C1048 1.374 . S
C1048 H1022 0.950 . S
C1048 C1044 1.385 . S
C1048 C1047 1.374 . S
C1049 C1046 1.499 . S
C1049 C1050 1.373 . S
C1049 C1051 1.389 . S
C1050 H1023 0.950 . S
C1050 C1036 1.377 . S
C1050 C1049 1.373 . S
C1051 C1035 1.377 . S
C1051 C1049 1.389 . S
C1051 C1052 1.524 . S
C1052 C1051 1.524 . S
C1052 C1053 1.397 . S
C1052 C1057 1.363 . S
C1053 H1024 0.950 . S
C1053 C1052 1.397 . S
C1053 C1054 1.334 . S
C1054 H1025 0.950 . S
C1054 C1053 1.334 . S
C1054 C1055 1.287 . S
C1055 C1054 1.287 . S
C1055 C1056 1.524 . S
C1055 H1058 0.999 . S
C1056 H1026 0.950 . S
C1056 C1055 1.524 . S
C1056 C1057 1.415 . S
C1057 H1027 0.950 . S
C1057 C1052 1.363 . S
C1057 C1056 1.415 . S
H1058 C1055 0.999 . S
H1059 C1040 0.913 . S
H1060 C1078 0.951 . S
H1061 C1080 0.951 . S
H1062 C1082 0.950 . S
H1063 C1083 0.950 . S
H1064 C1085 0.950 . S
H1065 C1088 0.950 . S
H1066 C1089 0.950 . S
H1067 C1091 0.950 . S
H1068 C1092 0.950 . S
H1069 C1093 0.951 . S
H1070 C1095 0.951 . S
H1071 C1097 0.950 . S
H1072 C1098 0.950 . S
H1073 C1100 0.950 . S
H1074 C1103 0.950 . S
H1075 C1104 0.950 . S
H1076 C1106 0.950 . S
H1077 C1107 0.950 . S
C1078 H1060 0.951 . S
C1078 C1079 1.366 . S
C1078 C1080 1.388 . S
C1079 C1078 1.366 . S
C1079 C1083 1.385 . S
C1080 H1061 0.951 . S
C1080 C1078 1.388 . S
C1080 C1081 1.366 . S
C1081 C1080 1.366 . S
C1081 C1082 1.414 . S
C1081 C1084 1.499 . S
C1082 H1062 0.950 . S
C1082 C1081 1.414 . S
C1082 C1083 1.374 . S
C1083 H1063 0.950 . S
C1083 C1079 1.385 . S
C1083 C1082 1.374 . S
C1084 C1081 1.499 . S
C1084 C1085 1.373 . S
C1084 C1086 1.389 . S
C1085 H1064 0.950 . S
C1085 C1084 1.373 . S
C1085 C1101 1.377 . S
C1086 C1084 1.389 . S
C1086 C1087 1.524 . S
C1086 C1100 1.377 . S
C1087 C1086 1.524 . S
C1087 C1088 1.397 . S
C1087 C1092 1.363 . S
C1088 H1065 0.950 . S
C1088 C1087 1.397 . S
C1088 C1089 1.334 . S
C1089 H1066 0.950 . S
C1089 C1088 1.334 . S
C1089 C1090 1.287 . S
C1090 C1089 1.287 . S
C1090 C1091 1.524 . S
C1090 H1109 0.913 . S
C1091 H1067 0.950 . S
C1091 C1090 1.524 . S
C1091 C1092 1.415 . S
C1092 H1068 0.950 . S
C1092 C1087 1.363 . S
C1092 C1091 1.415 . S
C1093 H1069 0.951 . S
C1093 C1094 1.366 . S
C1093 C1095 1.388 . S
C1094 C1093 1.366 . S
C1094 C1098 1.385 . S
C1095 H1070 0.951 . S
C1095 C1093 1.388 . S
C1095 C1096 1.366 . S
C1096 C1095 1.366 . S
C1096 C1097 1.414 . S
C1096 C1099 1.499 . S
C1097 H1071 0.950 . S
C1097 C1096 1.414 . S
C1097 C1098 1.374 . S
C1098 H1072 0.950 . S
C1098 C1094 1.385 . S
C1098 C1097 1.374 . S
C1099 C1096 1.499 . S
C1099 C1100 1.373 . S
C1099 C1101 1.389 . S
C1100 H1073 0.950 . S
C1100 C1086 1.377 . S
C1100 C1099 1.373 . S
C1101 C1085 1.377 . S
C1101 C1099 1.389 . S
C1101 C1102 1.524 . S
C1102 C1101 1.524 . S
C1102 C1103 1.397 . S
C1102 C1107 1.363 . S
C1103 H1074 0.950 . S
C1103 C1102 1.397 . S
C1103 C1104 1.334 . S
C1104 H1075 0.950 . S
C1104 C1103 1.334 . S
C1104 C1105 1.287 . S
C1105 C1104 1.287 . S
C1105 C1106 1.524 . S
C1105 H1108 0.999 . S
C1106 H1076 0.950 . S
C1106 C1105 1.524 . S
C1106 C1107 1.415 . S
C1107 H1077 0.950 . S
C1107 C1102 1.363 . S
C1107 C1106 1.415 . S
H1108 C1105 0.999 . S
H1109 C1090 0.913 . S
H1110 C1128 0.951 . S
H1111 C1130 0.951 . S
H1112 C1132 0.950 . S
H1113 C1133 0.950 . S
H1114 C1135 0.950 . S
H1115 C1138 0.950 . S
H1116 C1139 0.950 . S
H1117 C1141 0.950 . S
H1118 C1142 0.950 . S
H1119 C1143 0.951 . S
H1120 C1145 0.951 . S
H1121 C1147 0.950 . S
H1122 C1148 0.950 . S
H1123 C1150 0.950 . S
H1124 C1153 0.950 . S
H1125 C1154 0.950 . S
H1126 C1156 0.950 . S
H1127 C1157 0.950 . S
C1128 H1110 0.951 . S
C1128 C1129 1.366 . S
C1128 C1130 1.388 . S
C1129 C1128 1.366 . S
C1129 C1133 1.385 . S
C1130 H1111 0.951 . S
C1130 C1128 1.388 . S
C1130 C1131 1.366 . S
C1131 C1130 1.366 . S
C1131 C1132 1.414 . S
C1131 C1134 1.499 . S
C1132 H1112 0.950 . S
C1132 C1131 1.414 . S
C1132 C1133 1.374 . S
C1133 H1113 0.950 . S
C1133 C1129 1.385 . S
C1133 C1132 1.374 . S
C1134 C1131 1.499 . S
C1134 C1135 1.373 . S
C1134 C1136 1.389 . S
C1135 H1114 0.950 . S
C1135 C1134 1.373 . S
C1135 C1151 1.377 . S
C1136 C1134 1.389 . S
C1136 C1137 1.524 . S
C1136 C1150 1.377 . S
C1137 C1136 1.524 . S
C1137 C1138 1.397 . S
C1137 C1142 1.363 . S
C1138 H1115 0.950 . S
C1138 C1137 1.397 . S
C1138 C1139 1.334 . S
C1139 H1116 0.950 . S
C1139 C1138 1.334 . S
C1139 C1140 1.287 . S
C1140 C1139 1.287 . S
C1140 C1141 1.524 . S
C1140 H1159 0.913 . S
C1141 H1117 0.950 . S
C1141 C1140 1.524 . S
C1141 C1142 1.415 . S
C1142 H1118 0.950 . S
C1142 C1137 1.363 . S
C1142 C1141 1.415 . S
C1143 H1119 0.951 . S
C1143 C1144 1.366 . S
C1143 C1145 1.388 . S
C1144 C1143 1.366 . S
C1144 C1148 1.385 . S
C1145 H1120 0.951 . S
C1145 C1143 1.388 . S
C1145 C1146 1.366 . S
C1146 C1145 1.366 . S
C1146 C1147 1.414 . S
C1146 C1149 1.499 . S
C1147 H1121 0.950 . S
C1147 C1146 1.414 . S
C1147 C1148 1.374 . S
C1148 H1122 0.950 . S
C1148 C1144 1.385 . S
C1148 C1147 1.374 . S
C1149 C1146 1.499 . S
C1149 C1150 1.373 . S
C1149 C1151 1.389 . S
C1150 H1123 0.950 . S
C1150 C1136 1.377 . S
C1150 C1149 1.373 . S
C1151 C1135 1.377 . S
C1151 C1149 1.389 . S
C1151 C1152 1.524 . S
C1152 C1151 1.524 . S
C1152 C1153 1.397 . S
C1152 C1157 1.363 . S
C1153 H1124 0.950 . S
C1153 C1152 1.397 . S
C1153 C1154 1.334 . S
C1154 H1125 0.950 . S
C1154 C1153 1.334 . S
C1154 C1155 1.287 . S
C1155 C1154 1.287 . S
C1155 C1156 1.524 . S
C1155 H1158 0.999 . S
C1156 H1126 0.950 . S
C1156 C1155 1.524 . S
C1156 C1157 1.415 . S
C1157 H1127 0.950 . S
C1157 C1152 1.363 . S
C1157 C1156 1.415 . S
H1158 C1155 0.999 . S
H1159 C1140 0.913 . S
H1160 C1178 0.951 . S
H1161 C1180 0.951 . S
H1162 C1182 0.950 . S
H1163 C1183 0.950 . S
H1164 C1185 0.950 . S
H1165 C1188 0.950 . S
H1166 C1189 0.950 . S
H1167 C1191 0.950 . S
H1168 C1192 0.950 . S
H1169 C1193 0.951 . S
H1170 C1195 0.951 . S
H1171 C1197 0.950 . S
H1172 C1198 0.950 . S
H1173 C1200 0.950 . S
H1174 C1203 0.950 . S
H1175 C1204 0.950 . S
H1176 C1206 0.950 . S
H1177 C1207 0.950 . S
C1178 H1160 0.951 . S
C1178 C1179 1.366 . S
C1178 C1180 1.388 . S
C1179 C1178 1.366 . S
C1179 C1183 1.385 . S
C1180 H1161 0.951 . S
C1180 C1178 1.388 . S
C1180 C1181 1.366 . S
C1181 C1180 1.366 . S
C1181 C1182 1.414 . S
C1181 C1184 1.499 . S
C1182 H1162 0.950 . S
C1182 C1181 1.414 . S
C1182 C1183 1.374 . S
C1183 H1163 0.950 . S
C1183 C1179 1.385 . S
C1183 C1182 1.374 . S
C1184 C1181 1.499 . S
C1184 C1185 1.373 . S
C1184 C1186 1.389 . S
C1185 H1164 0.950 . S
C1185 C1184 1.373 . S
C1185 C1201 1.377 . S
C1186 C1184 1.389 . S
C1186 C1187 1.524 . S
C1186 C1200 1.377 . S
C1187 C1186 1.524 . S
C1187 C1188 1.397 . S
C1187 C1192 1.363 . S
C1188 H1165 0.950 . S
C1188 C1187 1.397 . S
C1188 C1189 1.334 . S
C1189 H1166 0.950 . S
C1189 C1188 1.334 . S
C1189 C1190 1.287 . S
C1190 C1189 1.287 . S
C1190 C1191 1.524 . S
C1190 H1209 0.913 . S
C1191 H1167 0.950 . S
C1191 C1190 1.524 . S
C1191 C1192 1.415 . S
C1192 H1168 0.950 . S
C1192 C1187 1.363 . S
C1192 C1191 1.415 . S
C1193 H1169 0.951 . S
C1193 C1194 1.366 . S
C1193 C1195 1.388 . S
C1194 C1193 1.366 . S
C1194 C1198 1.385 . S
C1195 H1170 0.951 . S
C1195 C1193 1.388 . S
C1195 C1196 1.366 . S
C1196 C1195 1.366 . S
C1196 C1197 1.414 . S
C1196 C1199 1.499 . S
C1197 H1171 0.950 . S
C1197 C1196 1.414 . S
C1197 C1198 1.374 . S
C1198 H1172 0.950 . S
C1198 C1194 1.385 . S
C1198 C1197 1.374 . S
C1199 C1196 1.499 . S
C1199 C1200 1.373 . S
C1199 C1201 1.389 . S
C1200 H1173 0.950 . S
C1200 C1186 1.377 . S
C1200 C1199 1.373 . S
C1201 C1185 1.377 . S
C1201 C1199 1.389 . S
C1201 C1202 1.524 . S
C1202 C1201 1.524 . S
C1202 C1203 1.397 . S
C1202 C1207 1.363 . S
C1203 H1174 0.950 . S
C1203 C1202 1.397 . S
C1203 C1204 1.334 . S
C1204 H1175 0.950 . S
C1204 C1203 1.334 . S
C1204 C1205 1.287 . S
C1205 C1204 1.287 . S
C1205 C1206 1.524 . S
C1205 H1208 0.999 . S
C1206 H1176 0.950 . S
C1206 C1205 1.524 . S
C1206 C1207 1.415 . S
C1207 H1177 0.950 . S
C1207 C1202 1.363 . S
C1207 C1206 1.415 . S
H1208 C1205 0.999 . S
H1209 C1190 0.913 . S
H1210 C1228 0.951 . S
H1211 C1230 0.951 . S
H1212 C1232 0.950 . S
H1213 C1233 0.950 . S
H1214 C1235 0.950 . S
H1215 C1238 0.950 . S
H1216 C1239 0.950 . S
H1217 C1241 0.950 . S
H1218 C1242 0.950 . S
H1219 C1243 0.951 . S
H1220 C1245 0.951 . S
H1221 C1247 0.950 . S
H1222 C1248 0.950 . S
H1223 C1250 0.950 . S
H1224 C1253 0.950 . S
H1225 C1254 0.950 . S
H1226 C1256 0.950 . S
H1227 C1257 0.950 . S
C1228 H1210 0.951 . S
C1228 C1229 1.366 . S
C1228 C1230 1.388 . S
C1229 C1228 1.366 . S
C1229 C1233 1.385 . S
C1230 H1211 0.951 . S
C1230 C1228 1.388 . S
C1230 C1231 1.366 . S
C1231 C1230 1.366 . S
C1231 C1232 1.414 . S
C1231 C1234 1.499 . S
C1232 H1212 0.950 . S
C1232 C1231 1.414 . S
C1232 C1233 1.374 . S
C1233 H1213 0.950 . S
C1233 C1229 1.385 . S
C1233 C1232 1.374 . S
C1234 C1231 1.499 . S
C1234 C1235 1.373 . S
C1234 C1236 1.389 . S
C1235 H1214 0.950 . S
C1235 C1234 1.373 . S
C1235 C1251 1.377 . S
C1236 C1234 1.389 . S
C1236 C1237 1.524 . S
C1236 C1250 1.377 . S
C1237 C1236 1.524 . S
C1237 C1238 1.397 . S
C1237 C1242 1.363 . S
C1238 H1215 0.950 . S
C1238 C1237 1.397 . S
C1238 C1239 1.334 . S
C1239 H1216 0.950 . S
C1239 C1238 1.334 . S
C1239 C1240 1.287 . S
C1240 C1239 1.287 . S
C1240 C1241 1.524 . S
C1240 H1259 0.913 . S
C1241 H1217 0.950 . S
C1241 C1240 1.524 . S
C1241 C1242 1.415 . S
C1242 H1218 0.950 . S
C1242 C1237 1.363 . S
C1242 C1241 1.415 . S
C1243 H1219 0.951 . S
C1243 C1244 1.366 . S
C1243 C1245 1.388 . S
C1244 C1243 1.366 . S
C1244 C1248 1.385 . S
C1245 H1220 0.951 . S
C1245 C1243 1.388 . S
C1245 C1246 1.366 . S
C1246 C1245 1.366 . S
C1246 C1247 1.414 . S
C1246 C1249 1.499 . S
C1247 H1221 0.950 . S
C1247 C1246 1.414 . S
C1247 C1248 1.374 . S
C1248 H1222 0.950 . S
C1248 C1244 1.385 . S
C1248 C1247 1.374 . S
C1249 C1246 1.499 . S
C1249 C1250 1.373 . S
C1249 C1251 1.389 . S
C1250 H1223 0.950 . S
C1250 C1236 1.377 . S
C1250 C1249 1.373 . S
C1251 C1235 1.377 . S
C1251 C1249 1.389 . S
C1251 C1252 1.524 . S
C1252 C1251 1.524 . S
C1252 C1253 1.397 . S
C1252 C1257 1.363 . S
C1253 H1224 0.950 . S
C1253 C1252 1.397 . S
C1253 C1254 1.334 . S
C1254 H1225 0.950 . S
C1254 C1253 1.334 . S
C1254 C1255 1.287 . S
C1255 C1254 1.287 . S
C1255 C1256 1.524 . S
C1255 H1258 0.999 . S
C1256 H1226 0.950 . S
C1256 C1255 1.524 . S
C1256 C1257 1.415 . S
C1257 H1227 0.950 . S
C1257 C1252 1.363 . S
C1257 C1256 1.415 . S
H1258 C1255 0.999 . S
H1259 C1240 0.913 . S
H1260 C1278 0.951 . S
H1261 C1280 0.951 . S
H1262 C1282 0.950 . S
H1263 C1283 0.950 . S
H1264 C1285 0.950 . S
H1265 C1288 0.950 . S
H1266 C1289 0.950 . S
H1267 C1291 0.950 . S
H1268 C1292 0.950 . S
H1269 C1293 0.951 1_655 S
H1270 C1295 0.951 1_655 S
H1271 C1297 0.950 . S
H1272 C1298 0.950 . S
H1273 C1300 0.950 . S
H1274 C1303 0.950 . S
H1275 C1304 0.950 . S
H1276 C1306 0.950 . S
H1277 C1307 0.950 . S
C1278 H1260 0.951 . S
C1278 C1279 1.366 . S
C1278 C1280 1.388 . S
C1279 C1278 1.366 . S
C1279 C1283 1.385 1_455 S
C1280 H1261 0.951 . S
C1280 C1278 1.388 . S
C1280 C1281 1.366 . S
C1281 C1280 1.366 . S
C1281 C1282 1.414 1_455 S
C1281 C1284 1.499 . S
C1282 H1262 0.950 . S
C1282 C1281 1.414 1_655 S
C1282 C1283 1.374 . S
C1283 H1263 0.950 . S
C1283 C1279 1.385 1_655 S
C1283 C1282 1.374 . S
C1284 C1281 1.499 . S
C1284 C1285 1.373 1_455 S
C1284 C1286 1.389 . S
C1285 H1264 0.950 . S
C1285 C1284 1.373 1_655 S
C1285 C1301 1.377 . S
C1286 C1284 1.389 . S
C1286 C1287 1.524 . S
C1286 C1300 1.377 . S
C1287 C1286 1.524 . S
C1287 C1288 1.397 . S
C1287 C1292 1.363 . S
C1288 H1265 0.950 . S
C1288 C1287 1.397 . S
C1288 C1289 1.334 . S
C1289 H1266 0.950 . S
C1289 C1288 1.334 . S
C1289 C1290 1.287 . S
C1290 C1289 1.287 . S
C1290 C1291 1.524 . S
C1290 H1309 0.913 . S
C1291 H1267 0.950 . S
C1291 C1290 1.524 . S
C1291 C1292 1.415 . S
C1292 H1268 0.950 . S
C1292 C1287 1.363 . S
C1292 C1291 1.415 . S
C1293 H1269 0.951 1_455 S
C1293 C1294 1.366 . S
C1293 C1295 1.388 . S
C1294 C1293 1.366 . S
C1294 C1298 1.385 . S
C1295 H1270 0.951 1_455 S
C1295 C1293 1.388 . S
C1295 C1296 1.366 . S
C1296 C1295 1.366 . S
C1296 C1297 1.414 . S
C1296 C1299 1.499 . S
C1297 H1271 0.950 . S
C1297 C1296 1.414 . S
C1297 C1298 1.374 . S
C1298 H1272 0.950 . S
C1298 C1294 1.385 . S
C1298 C1297 1.374 . S
C1299 C1296 1.499 . S
C1299 C1300 1.373 . S
C1299 C1301 1.389 1_455 S
C1300 H1273 0.950 . S
C1300 C1286 1.377 . S
C1300 C1299 1.373 . S
C1301 C1285 1.377 . S
C1301 C1299 1.389 1_655 S
C1301 C1302 1.524 . S
C1302 C1301 1.524 . S
C1302 C1303 1.397 . S
C1302 C1307 1.363 . S
C1303 H1274 0.950 . S
C1303 C1302 1.397 . S
C1303 C1304 1.334 . S
C1304 H1275 0.950 . S
C1304 C1303 1.334 . S
C1304 C1305 1.287 . S
C1305 C1304 1.287 . S
C1305 C1306 1.524 . S
C1305 H1308 0.999 . S
C1306 H1276 0.950 . S
C1306 C1305 1.524 . S
C1306 C1307 1.415 . S
C1307 H1277 0.950 . S
C1307 C1302 1.363 . S
C1307 C1306 1.415 . S
H1308 C1305 0.999 . S
H1309 C1290 0.913 . S
H1310 C1328 0.951 . S
H1311 C1330 0.951 . S
H1312 C1332 0.950 . S
H1313 C1333 0.950 . S
H1314 C1335 0.950 . S
H1315 C1338 0.950 . S
H1316 C1339 0.950 . S
H1317 C1341 0.950 . S
H1318 C1342 0.950 . S
H1319 C1343 0.951 . S
H1320 C1345 0.951 . S
H1321 C1347 0.950 . S
H1322 C1348 0.950 . S
H1323 C1350 0.950 . S
H1324 C1353 0.950 . S
H1325 C1354 0.950 . S
H1326 C1356 0.950 . S
H1327 C1357 0.950 . S
C1328 H1310 0.951 . S
C1328 C1329 1.366 . S
C1328 C1330 1.388 . S
C1329 C1328 1.366 . S
C1329 C1333 1.385 . S
C1330 H1311 0.951 . S
C1330 C1328 1.388 . S
C1330 C1331 1.366 . S
C1331 C1330 1.366 . S
C1331 C1332 1.414 . S
C1331 C1334 1.499 . S
C1332 H1312 0.950 . S
C1332 C1331 1.414 . S
C1332 C1333 1.374 . S
C1333 H1313 0.950 . S
C1333 C1329 1.385 . S
C1333 C1332 1.374 . S
C1334 C1331 1.499 . S
C1334 C1335 1.373 . S
C1334 C1336 1.389 . S
C1335 H1314 0.950 . S
C1335 C1334 1.373 . S
C1335 C1351 1.377 . S
C1336 C1334 1.389 . S
C1336 C1337 1.524 . S
C1336 C1350 1.377 . S
C1337 C1336 1.524 . S
C1337 C1338 1.397 . S
C1337 C1342 1.363 . S
C1338 H1315 0.950 . S
C1338 C1337 1.397 . S
C1338 C1339 1.334 . S
C1339 H1316 0.950 . S
C1339 C1338 1.334 . S
C1339 C1340 1.287 . S
C1340 C1339 1.287 . S
C1340 C1341 1.524 . S
C1340 H1359 0.913 . S
C1341 H1317 0.950 . S
C1341 C1340 1.524 . S
C1341 C1342 1.415 . S
C1342 H1318 0.950 . S
C1342 C1337 1.363 . S
C1342 C1341 1.415 . S
C1343 H1319 0.951 . S
C1343 C1344 1.366 . S
C1343 C1345 1.388 . S
C1344 C1343 1.366 . S
C1344 C1348 1.385 . S
C1345 H1320 0.951 . S
C1345 C1343 1.388 . S
C1345 C1346 1.366 . S
C1346 C1345 1.366 . S
C1346 C1347 1.414 . S
C1346 C1349 1.499 . S
C1347 H1321 0.950 . S
C1347 C1346 1.414 . S
C1347 C1348 1.374 . S
C1348 H1322 0.950 . S
C1348 C1344 1.385 . S
C1348 C1347 1.374 . S
C1349 C1346 1.499 . S
C1349 C1350 1.373 . S
C1349 C1351 1.389 . S
C1350 H1323 0.950 . S
C1350 C1336 1.377 . S
C1350 C1349 1.373 . S
C1351 C1335 1.377 . S
C1351 C1349 1.389 . S
C1351 C1352 1.524 . S
C1352 C1351 1.524 . S
C1352 C1353 1.397 . S
C1352 C1357 1.363 . S
C1353 H1324 0.950 . S
C1353 C1352 1.397 . S
C1353 C1354 1.334 . S
C1354 H1325 0.950 . S
C1354 C1353 1.334 . S
C1354 C1355 1.287 . S
C1355 C1354 1.287 . S
C1355 C1356 1.524 . S
C1355 H1358 0.999 . S
C1356 H1326 0.950 . S
C1356 C1355 1.524 . S
C1356 C1357 1.415 . S
C1357 H1327 0.950 . S
C1357 C1352 1.363 . S
C1357 C1356 1.415 . S
H1358 C1355 0.999 . S
H1359 C1340 0.913 . S
H1360 C1378 0.951 . S
H1361 C1380 0.951 . S
H1362 C1382 0.950 1_565 S
H1363 C1383 0.950 1_565 S
H1364 C1385 0.950 . S
H1365 C1388 0.950 . S
H1366 C1389 0.950 . S
H1367 C1391 0.950 . S
H1368 C1392 0.950 . S
H1369 C1393 0.951 . S
H1370 C1395 0.951 . S
H1371 C1397 0.950 . S
H1372 C1398 0.950 . S
H1373 C1400 0.950 . S
H1374 C1403 0.950 . S
H1375 C1404 0.950 . S
H1376 C1406 0.950 . S
H1377 C1407 0.950 . S
C1378 H1360 0.951 . S
C1378 C1379 1.366 . S
C1378 C1380 1.388 . S
C1379 C1378 1.366 . S
C1379 C1383 1.385 . S
C1380 H1361 0.951 . S
C1380 C1378 1.388 . S
C1380 C1381 1.366 . S
C1381 C1380 1.366 . S
C1381 C1382 1.414 . S
C1381 C1384 1.499 . S
C1382 H1362 0.950 1_545 S
C1382 C1381 1.414 . S
C1382 C1383 1.374 . S
C1383 H1363 0.950 1_545 S
C1383 C1379 1.385 . S
C1383 C1382 1.374 . S
C1384 C1381 1.499 . S
C1384 C1385 1.373 1_545 S
C1384 C1386 1.389 . S
C1385 H1364 0.950 . S
C1385 C1384 1.373 1_565 S
C1385 C1401 1.377 . S
C1386 C1384 1.389 . S
C1386 C1387 1.524 . S
C1386 C1400 1.377 . S
C1387 C1386 1.524 . S
C1387 C1388 1.397 . S
C1387 C1392 1.363 . S
C1388 H1365 0.950 . S
C1388 C1387 1.397 . S
C1388 C1389 1.334 . S
C1389 H1366 0.950 . S
C1389 C1388 1.334 . S
C1389 C1390 1.287 . S
C1390 C1389 1.287 . S
C1390 C1391 1.524 . S
C1390 H1409 0.913 . S
C1391 H1367 0.950 . S
C1391 C1390 1.524 . S
C1391 C1392 1.415 . S
C1392 H1368 0.950 . S
C1392 C1387 1.363 . S
C1392 C1391 1.415 . S
C1393 H1369 0.951 . S
C1393 C1394 1.366 1_565 S
C1393 C1395 1.388 . S
C1394 C1393 1.366 1_545 S
C1394 C1398 1.385 . S
C1395 H1370 0.951 . S
C1395 C1393 1.388 . S
C1395 C1396 1.366 1_565 S
C1396 C1395 1.366 1_545 S
C1396 C1397 1.414 . S
C1396 C1399 1.499 . S
C1397 H1371 0.950 . S
C1397 C1396 1.414 . S
C1397 C1398 1.374 . S
C1398 H1372 0.950 . S
C1398 C1394 1.385 . S
C1398 C1397 1.374 . S
C1399 C1396 1.499 . S
C1399 C1400 1.373 . S
C1399 C1401 1.389 1_545 S
C1400 H1373 0.950 . S
C1400 C1386 1.377 . S
C1400 C1399 1.373 . S
C1401 C1385 1.377 . S
C1401 C1399 1.389 1_565 S
C1401 C1402 1.524 . S
C1402 C1401 1.524 . S
C1402 C1403 1.397 . S
C1402 C1407 1.363 . S
C1403 H1374 0.950 . S
C1403 C1402 1.397 . S
C1403 C1404 1.334 . S
C1404 H1375 0.950 . S
C1404 C1403 1.334 . S
C1404 C1405 1.287 . S
C1405 C1404 1.287 . S
C1405 C1406 1.524 . S
C1405 H1408 0.999 . S
C1406 H1376 0.950 . S
C1406 C1405 1.524 . S
C1406 C1407 1.415 . S
C1407 H1377 0.950 . S
C1407 C1402 1.363 . S
C1407 C1406 1.415 . S
H1408 C1405 0.999 . S
H1409 C1390 0.913 . S
H1410 C1428 0.951 . S
H1411 C1430 0.951 . S
H1412 C1432 0.950 . S
H1413 C1433 0.950 . S
H1414 C1435 0.950 . S
H1415 C1438 0.950 . S
H1416 C1439 0.950 . S
H1417 C1441 0.950 . S
H1418 C1442 0.950 . S
H1419 C1443 0.951 . S
H1420 C1445 0.951 . S
H1421 C1447 0.950 . S
H1422 C1448 0.950 . S
H1423 C1450 0.950 . S
H1424 C1453 0.950 . S
H1425 C1454 0.950 1_554 S
H1426 C1456 0.950 . S
H1427 C1457 0.950 . S
C1428 H1410 0.951 . S
C1428 C1429 1.366 . S
C1428 C1430 1.388 . S
C1429 C1428 1.366 . S
C1429 C1433 1.385 . S
C1430 H1411 0.951 . S
C1430 C1428 1.388 . S
C1430 C1431 1.366 . S
C1431 C1430 1.366 . S
C1431 C1432 1.414 . S
C1431 C1434 1.499 . S
C1432 H1412 0.950 . S
C1432 C1431 1.414 . S
C1432 C1433 1.374 . S
C1433 H1413 0.950 . S
C1433 C1429 1.385 . S
C1433 C1432 1.374 . S
C1434 C1431 1.499 . S
C1434 C1435 1.373 . S
C1434 C1436 1.389 . S
C1435 H1414 0.950 . S
C1435 C1434 1.373 . S
C1435 C1451 1.377 . S
C1436 C1434 1.389 . S
C1436 C1437 1.524 . S
C1436 C1450 1.377 . S
C1437 C1436 1.524 . S
C1437 C1438 1.397 . S
C1437 C1442 1.363 . S
C1438 H1415 0.950 . S
C1438 C1437 1.397 . S
C1438 C1439 1.334 . S
C1439 H1416 0.950 . S
C1439 C1438 1.334 . S
C1439 C1440 1.287 . S
C1440 C1439 1.287 . S
C1440 C1441 1.524 . S
C1440 H1459 0.913 . S
C1441 H1417 0.950 . S
C1441 C1440 1.524 . S
C1441 C1442 1.415 . S
C1442 H1418 0.950 . S
C1442 C1437 1.363 . S
C1442 C1441 1.415 . S
C1443 H1419 0.951 . S
C1443 C1444 1.366 . S
C1443 C1445 1.388 . S
C1444 C1443 1.366 . S
C1444 C1448 1.385 . S
C1445 H1420 0.951 . S
C1445 C1443 1.388 . S
C1445 C1446 1.369 . S
C1446 C1445 1.369 . S
C1446 C1447 1.417 . S
C1446 C1449 1.492 1_554 S
C1447 H1421 0.950 . S
C1447 C1446 1.417 . S
C1447 C1448 1.374 . S
C1448 H1422 0.950 . S
C1448 C1444 1.385 . S
C1448 C1447 1.374 . S
C1449 C1446 1.492 1_556 S
C1449 C1450 1.373 . S
C1449 C1451 1.389 . S
C1450 H1423 0.950 . S
C1450 C1436 1.377 . S
C1450 C1449 1.373 . S
C1451 C1435 1.377 . S
C1451 C1449 1.389 . S
C1451 C1452 1.524 . S
C1452 C1451 1.524 . S
C1452 C1453 1.397 . S
C1452 C1457 1.363 . S
C1453 H1424 0.950 . S
C1453 C1452 1.397 . S
C1453 C1454 1.334 . S
C1454 H1425 0.950 1_556 S
C1454 C1453 1.334 . S
C1454 C1455 1.287 . S
C1455 C1454 1.287 . S
C1455 C1456 1.524 . S
C1455 H1458 0.999 . S
C1456 H1426 0.950 . S
C1456 C1455 1.524 . S
C1456 C1457 1.415 . S
C1457 H1427 0.950 . S
C1457 C1452 1.363 . S
C1457 C1456 1.415 . S
H1458 C1455 0.999 . S
H1459 C1440 0.913 . S
H1460 C1478 0.951 . S
H1461 C1480 0.951 . S
H1462 C1482 0.950 . S
H1463 C1483 0.950 . S
H1464 C1485 0.950 . S
H1465 C1488 0.950 . S
H1466 C1489 0.950 . S
H1467 C1491 0.950 . S
H1468 C1492 0.950 . S
H1469 C1493 0.951 . S
H1470 C1495 0.951 . S
H1471 C1497 0.950 . S
H1472 C1498 0.950 . S
H1473 C1500 0.950 . S
H1474 C1503 0.950 . S
H1475 C1504 0.950 1_554 S
H1476 C1506 0.950 . S
H1477 C1507 0.950 . S
C1478 H1460 0.951 . S
C1478 C1479 1.366 . S
C1478 C1480 1.388 . S
C1479 C1478 1.366 . S
C1479 C1483 1.385 . S
C1480 H1461 0.951 . S
C1480 C1478 1.388 . S
C1480 C1481 1.366 . S
C1481 C1480 1.366 . S
C1481 C1482 1.414 . S
C1481 C1484 1.499 . S
C1482 H1462 0.950 . S
C1482 C1481 1.414 . S
C1482 C1483 1.374 . S
C1483 H1463 0.950 . S
C1483 C1479 1.385 . S
C1483 C1482 1.374 . S
C1484 C1481 1.499 . S
C1484 C1485 1.373 . S
C1484 C1486 1.389 . S
C1485 H1464 0.950 . S
C1485 C1484 1.373 . S
C1485 C1501 1.377 . S
C1486 C1484 1.389 . S
C1486 C1487 1.524 . S
C1486 C1500 1.377 . S
C1487 C1486 1.524 . S
C1487 C1488 1.397 . S
C1487 C1492 1.363 . S
C1488 H1465 0.950 . S
C1488 C1487 1.397 . S
C1488 C1489 1.334 . S
C1489 H1466 0.950 . S
C1489 C1488 1.334 . S
C1489 C1490 1.287 . S
C1490 C1489 1.287 . S
C1490 C1491 1.524 . S
C1490 H1509 0.913 . S
C1491 H1467 0.950 . S
C1491 C1490 1.524 . S
C1491 C1492 1.415 . S
C1492 H1468 0.950 . S
C1492 C1487 1.363 . S
C1492 C1491 1.415 . S
C1493 H1469 0.951 . S
C1493 C1494 1.366 . S
C1493 C1495 1.388 . S
C1494 C1493 1.366 . S
C1494 C1498 1.385 . S
C1495 H1470 0.951 . S
C1495 C1493 1.388 . S
C1495 C1496 1.370 . S
C1496 C1495 1.370 . S
C1496 C1497 1.419 . S
C1496 C1499 1.489 1_554 S
C1497 H1471 0.950 . S
C1497 C1496 1.419 . S
C1497 C1498 1.374 . S
C1498 H1472 0.950 . S
C1498 C1494 1.385 . S
C1498 C1497 1.374 . S
C1499 C1496 1.489 1_556 S
C1499 C1500 1.373 . S
C1499 C1501 1.389 . S
C1500 H1473 0.950 . S
C1500 C1486 1.377 . S
C1500 C1499 1.373 . S
C1501 C1485 1.377 . S
C1501 C1499 1.389 . S
C1501 C1502 1.524 . S
C1502 C1501 1.524 . S
C1502 C1503 1.397 . S
C1502 C1507 1.363 . S
C1503 H1474 0.950 . S
C1503 C1502 1.397 . S
C1503 C1504 1.334 . S
C1504 H1475 0.950 1_556 S
C1504 C1503 1.334 . S
C1504 C1505 1.287 . S
C1505 C1504 1.287 . S
C1505 C1506 1.524 . S
C1505 H1508 0.999 . S
C1506 H1476 0.950 . S
C1506 C1505 1.524 . S
C1506 C1507 1.415 . S
C1507 H1477 0.950 . S
C1507 C1502 1.363 . S
C1507 C1506 1.415 . S
H1508 C1505 0.999 . S
H1509 C1490 0.913 . S
H1510 C1528 0.951 . S
H1511 C1530 0.951 . S
H1512 C1532 0.950 . S
H1513 C1533 0.950 . S
H1514 C1535 0.950 . S
H1515 C1538 0.950 . S
H1516 C1539 0.950 . S
H1517 C1541 0.950 . S
H1518 C1542 0.950 . S
H1519 C1543 0.951 . S
H1520 C1545 0.951 . S
H1521 C1547 0.950 . S
H1522 C1548 0.950 . S
H1523 C1550 0.950 . S
H1524 C1553 0.950 . S
H1525 C1554 0.950 1_554 S
H1526 C1556 0.950 . S
H1527 C1557 0.950 . S
C1528 H1510 0.951 . S
C1528 C1529 1.366 . S
C1528 C1530 1.388 . S
C1529 C1528 1.366 . S
C1529 C1533 1.385 . S
C1530 H1511 0.951 . S
C1530 C1528 1.388 . S
C1530 C1531 1.366 . S
C1531 C1530 1.366 . S
C1531 C1532 1.414 . S
C1531 C1534 1.499 . S
C1532 H1512 0.950 . S
C1532 C1531 1.414 . S
C1532 C1533 1.374 . S
C1533 H1513 0.950 . S
C1533 C1529 1.385 . S
C1533 C1532 1.374 . S
C1534 C1531 1.499 . S
C1534 C1535 1.373 . S
C1534 C1536 1.389 . S
C1535 H1514 0.950 . S
C1535 C1534 1.373 . S
C1535 C1551 1.377 . S
C1536 C1534 1.389 . S
C1536 C1537 1.524 . S
C1536 C1550 1.377 . S
C1537 C1536 1.524 . S
C1537 C1538 1.397 . S
C1537 C1542 1.363 . S
C1538 H1515 0.950 . S
C1538 C1537 1.397 . S
C1538 C1539 1.334 . S
C1539 H1516 0.950 . S
C1539 C1538 1.334 . S
C1539 C1540 1.287 . S
C1540 C1539 1.287 . S
C1540 C1541 1.524 . S
C1540 H1559 0.913 . S
C1541 H1517 0.950 . S
C1541 C1540 1.524 . S
C1541 C1542 1.415 . S
C1542 H1518 0.950 . S
C1542 C1537 1.363 . S
C1542 C1541 1.415 . S
C1543 H1519 0.951 . S
C1543 C1544 1.366 . S
C1543 C1545 1.388 . S
C1544 C1543 1.366 . S
C1544 C1548 1.385 . S
C1545 H1520 0.951 . S
C1545 C1543 1.388 . S
C1545 C1546 1.369 . S
C1546 C1545 1.369 . S
C1546 C1547 1.417 . S
C1546 C1549 1.493 1_554 S
C1547 H1521 0.950 . S
C1547 C1546 1.417 . S
C1547 C1548 1.374 . S
C1548 H1522 0.950 . S
C1548 C1544 1.385 . S
C1548 C1547 1.374 . S
C1549 C1546 1.493 1_556 S
C1549 C1550 1.373 . S
C1549 C1551 1.389 . S
C1550 H1523 0.950 . S
C1550 C1536 1.377 . S
C1550 C1549 1.373 . S
C1551 C1535 1.377 . S
C1551 C1549 1.389 . S
C1551 C1552 1.524 . S
C1552 C1551 1.524 . S
C1552 C1553 1.397 . S
C1552 C1557 1.363 . S
C1553 H1524 0.950 . S
C1553 C1552 1.397 . S
C1553 C1554 1.334 . S
C1554 H1525 0.950 1_556 S
C1554 C1553 1.334 . S
C1554 C1555 1.287 . S
C1555 C1554 1.287 . S
C1555 C1556 1.524 . S
C1555 H1558 0.999 . S
C1556 H1526 0.950 . S
C1556 C1555 1.524 . S
C1556 C1557 1.415 . S
C1557 H1527 0.950 . S
C1557 C1552 1.363 . S
C1557 C1556 1.415 . S
H1558 C1555 0.999 . S
H1559 C1540 0.913 . S
H1560 C1578 0.951 . S
H1561 C1580 0.951 . S
H1562 C1582 0.950 . S
H1563 C1583 0.950 . S
H1564 C1585 0.950 . S
H1565 C1588 0.950 . S
H1566 C1589 0.950 . S
H1567 C1591 0.950 . S
H1568 C1592 0.950 . S
H1569 C1593 0.951 . S
H1570 C1595 0.951 1_554 S
H1571 C1597 0.950 . S
H1572 C1598 0.950 . S
H1573 C1600 0.950 . S
H1574 C1603 0.950 . S
H1575 C1604 0.950 1_556 S
H1576 C1606 0.950 . S
H1577 C1607 0.950 . S
C1578 H1560 0.951 . S
C1578 C1579 1.366 . S
C1578 C1580 1.388 . S
C1579 C1578 1.366 . S
C1579 C1583 1.385 . S
C1580 H1561 0.951 . S
C1580 C1578 1.388 . S
C1580 C1581 1.366 . S
C1581 C1580 1.366 . S
C1581 C1582 1.414 . S
C1581 C1584 1.499 . S
C1582 H1562 0.950 . S
C1582 C1581 1.414 . S
C1582 C1583 1.374 . S
C1583 H1563 0.950 . S
C1583 C1579 1.385 . S
C1583 C1582 1.374 . S
C1584 C1581 1.499 . S
C1584 C1585 1.373 . S
C1584 C1586 1.389 . S
C1585 H1564 0.950 . S
C1585 C1584 1.373 . S
C1585 C1601 1.377 . S
C1586 C1584 1.389 . S
C1586 C1587 1.524 . S
C1586 C1600 1.377 . S
C1587 C1586 1.524 . S
C1587 C1588 1.397 . S
C1587 C1592 1.363 . S
C1588 H1565 0.950 . S
C1588 C1587 1.397 . S
C1588 C1589 1.334 . S
C1589 H1566 0.950 . S
C1589 C1588 1.334 . S
C1589 C1590 1.287 . S
C1590 C1589 1.287 . S
C1590 C1591 1.524 . S
C1590 H1609 0.913 . S
C1591 H1567 0.950 . S
C1591 C1590 1.524 . S
C1591 C1592 1.415 . S
C1592 H1568 0.950 . S
C1592 C1587 1.363 . S
C1592 C1591 1.415 . S
C1593 H1569 0.951 . S
C1593 C1594 1.366 . S
C1593 C1595 1.388 . S
C1594 C1593 1.366 . S
C1594 C1598 1.385 . S
C1595 H1570 0.951 1_556 S
C1595 C1593 1.388 . S
C1595 C1596 1.366 1_556 S
C1596 C1595 1.366 1_554 S
C1596 C1597 1.414 1_554 S
C1596 C1599 1.499 . S
C1597 H1571 0.950 . S
C1597 C1596 1.414 1_556 S
C1597 C1598 1.374 . S
C1598 H1572 0.950 . S
C1598 C1594 1.385 . S
C1598 C1597 1.374 . S
C1599 C1596 1.499 . S
C1599 C1600 1.373 . S
C1599 C1601 1.389 . S
C1600 H1573 0.950 . S
C1600 C1586 1.377 . S
C1600 C1599 1.373 . S
C1601 C1585 1.377 . S
C1601 C1599 1.389 . S
C1601 C1602 1.524 . S
C1602 C1601 1.524 . S
C1602 C1603 1.397 . S
C1602 C1607 1.363 . S
C1603 H1574 0.950 . S
C1603 C1602 1.397 . S
C1603 C1604 1.334 . S
C1604 H1575 0.950 1_554 S
C1604 C1603 1.334 . S
C1604 C1605 1.287 . S
C1605 C1604 1.287 . S
C1605 C1606 1.524 . S
C1605 H1608 0.999 . S
C1606 H1576 0.950 . S
C1606 C1605 1.524 . S
C1606 C1607 1.415 . S
C1607 H1577 0.950 . S
C1607 C1602 1.363 . S
C1607 C1606 1.415 . S
H1608 C1605 0.999 . S
H1609 C1590 0.913 . S
H1610 C1628 0.951 . S
H1611 C1630 0.951 . S
H1612 C1632 0.950 1_554 S
H1613 C1633 0.950 . S
H1614 C1635 0.950 . S
H1615 C1638 0.950 . S
H1616 C1639 0.950 1_556 S
H1617 C1641 0.950 . S
H1618 C1642 0.950 . S
H1619 C1643 0.951 . S
H1620 C1645 0.951 . S
H1621 C1647 0.950 . S
H1622 C1648 0.950 . S
H1623 C1650 0.950 . S
H1624 C1653 0.950 . S
H1625 C1654 0.950 . S
H1626 C1656 0.950 . S
H1627 C1657 0.950 . S
C1628 H1610 0.951 . S
C1628 C1629 1.366 . S
C1628 C1630 1.388 . S
C1629 C1628 1.366 . S
C1629 C1633 1.385 . S
C1630 H1611 0.951 . S
C1630 C1628 1.388 . S
C1630 C1631 1.366 1_556 S
C1631 C1630 1.366 1_554 S
C1631 C1632 1.414 1_554 S
C1631 C1634 1.499 . S
C1632 H1612 0.950 1_556 S
C1632 C1631 1.414 1_556 S
C1632 C1633 1.374 . S
C1633 H1613 0.950 . S
C1633 C1629 1.385 . S
C1633 C1632 1.374 . S
C1634 C1631 1.499 . S
C1634 C1635 1.373 . S
C1634 C1636 1.389 . S
C1635 H1614 0.950 . S
C1635 C1634 1.373 . S
C1635 C1651 1.377 . S
C1636 C1634 1.389 . S
C1636 C1637 1.524 . S
C1636 C1650 1.377 . S
C1637 C1636 1.524 . S
C1637 C1638 1.397 . S
C1637 C1642 1.363 . S
C1638 H1615 0.950 . S
C1638 C1637 1.397 . S
C1638 C1639 1.334 . S
C1639 H1616 0.950 1_554 S
C1639 C1638 1.334 . S
C1639 C1640 1.287 . S
C1640 C1639 1.287 . S
C1640 C1641 1.524 . S
C1640 H1659 0.913 . S
C1641 H1617 0.950 . S
C1641 C1640 1.524 . S
C1641 C1642 1.415 . S
C1642 H1618 0.950 . S
C1642 C1637 1.363 . S
C1642 C1641 1.415 . S
C1643 H1619 0.951 . S
C1643 C1644 1.366 . S
C1643 C1645 1.388 . S
C1644 C1643 1.366 . S
C1644 C1648 1.385 . S
C1645 H1620 0.951 . S
C1645 C1643 1.388 . S
C1645 C1646 1.366 . S
C1646 C1645 1.366 . S
C1646 C1647 1.414 . S
C1646 C1649 1.499 . S
C1647 H1621 0.950 . S
C1647 C1646 1.414 . S
C1647 C1648 1.374 . S
C1648 H1622 0.950 . S
C1648 C1644 1.385 . S
C1648 C1647 1.374 . S
C1649 C1646 1.499 . S
C1649 C1650 1.373 . S
C1649 C1651 1.389 . S
C1650 H1623 0.950 . S
C1650 C1636 1.377 . S
C1650 C1649 1.373 . S
C1651 C1635 1.377 . S
C1651 C1649 1.389 . S
C1651 C1652 1.524 . S
C1652 C1651 1.524 . S
C1652 C1653 1.397 . S
C1652 C1657 1.363 . S
C1653 H1624 0.950 . S
C1653 C1652 1.397 . S
C1653 C1654 1.334 . S
C1654 H1625 0.950 . S
C1654 C1653 1.334 . S
C1654 C1655 1.287 . S
C1655 C1654 1.287 . S
C1655 C1656 1.524 . S
C1655 H1658 0.999 . S
C1656 H1626 0.950 . S
C1656 C1655 1.524 . S
C1656 C1657 1.415 . S
C1657 H1627 0.950 . S
C1657 C1652 1.363 . S
C1657 C1656 1.415 . S
H1658 C1655 0.999 . S
H1659 C1640 0.913 . S
H1660 C1678 0.951 . S
H1661 C1680 0.951 . S
H1662 C1682 0.950 . S
H1663 C1683 0.950 . S
H1664 C1685 0.950 . S
H1665 C1688 0.950 . S
H1666 C1689 0.950 . S
H1667 C1691 0.950 . S
H1668 C1692 0.950 . S
H1669 C1693 0.951 . S
H1670 C1695 0.951 . S
H1671 C1697 0.950 . S
H1672 C1698 0.950 . S
H1673 C1700 0.950 . S
H1674 C1703 0.950 . S
H1675 C1704 0.950 1_556 S
H1676 C1706 0.950 . S
H1677 C1707 0.950 . S
C1678 H1660 0.951 . S
C1678 C1679 1.366 . S
C1678 C1680 1.388 . S
C1679 C1678 1.366 . S
C1679 C1683 1.385 . S
C1680 H1661 0.951 . S
C1680 C1678 1.388 . S
C1680 C1681 1.366 . S
C1681 C1680 1.366 . S
C1681 C1682 1.414 . S
C1681 C1684 1.499 . S
C1682 H1662 0.950 . S
C1682 C1681 1.414 . S
C1682 C1683 1.374 . S
C1683 H1663 0.950 . S
C1683 C1679 1.385 . S
C1683 C1682 1.374 . S
C1684 C1681 1.499 . S
C1684 C1685 1.373 . S
C1684 C1686 1.389 . S
C1685 H1664 0.950 . S
C1685 C1684 1.373 . S
C1685 C1701 1.377 . S
C1686 C1684 1.389 . S
C1686 C1687 1.524 . S
C1686 C1700 1.377 . S
C1687 C1686 1.524 . S
C1687 C1688 1.397 . S
C1687 C1692 1.363 . S
C1688 H1665 0.950 . S
C1688 C1687 1.397 . S
C1688 C1689 1.334 . S
C1689 H1666 0.950 . S
C1689 C1688 1.334 . S
C1689 C1690 1.287 . S
C1690 C1689 1.287 . S
C1690 C1691 1.524 . S
C1690 H1709 0.913 . S
C1691 H1667 0.950 . S
C1691 C1690 1.524 . S
C1691 C1692 1.415 . S
C1692 H1668 0.950 . S
C1692 C1687 1.363 . S
C1692 C1691 1.415 . S
C1693 H1669 0.951 . S
C1693 C1694 1.366 . S
C1693 C1695 1.388 . S
C1694 C1693 1.366 . S
C1694 C1698 1.385 . S
C1695 H1670 0.951 . S
C1695 C1693 1.388 . S
C1695 C1696 1.366 1_556 S
C1696 C1695 1.366 1_554 S
C1696 C1697 1.414 1_554 S
C1696 C1699 1.499 . S
C1697 H1671 0.950 . S
C1697 C1696 1.414 1_556 S
C1697 C1698 1.374 . S
C1698 H1672 0.950 . S
C1698 C1694 1.385 . S
C1698 C1697 1.374 . S
C1699 C1696 1.499 . S
C1699 C1700 1.373 . S
C1699 C1701 1.389 . S
C1700 H1673 0.950 . S
C1700 C1686 1.377 . S
C1700 C1699 1.373 . S
C1701 C1685 1.377 . S
C1701 C1699 1.389 . S
C1701 C1702 1.524 . S
C1702 C1701 1.524 . S
C1702 C1703 1.397 . S
C1702 C1707 1.363 . S
C1703 H1674 0.950 . S
C1703 C1702 1.397 . S
C1703 C1704 1.334 . S
C1704 H1675 0.950 1_554 S
C1704 C1703 1.334 . S
C1704 C1705 1.287 . S
C1705 C1704 1.287 . S
C1705 C1706 1.524 . S
C1705 H1708 0.999 . S
C1706 H1676 0.950 . S
C1706 C1705 1.524 . S
C1706 C1707 1.415 . S
C1707 H1677 0.950 . S
C1707 C1702 1.363 . S
C1707 C1706 1.415 . S
H1708 C1705 0.999 . S
H1709 C1690 0.913 . S
C379 C7 1.998 . S
C394 C282 1.939 . S
C429 C47 1.998 . S
C444 C322 1.940 . S
C479 C87 1.999 . S
C494 C242 1.940 . S
C529 C167 1.999 . S
C544 C82 1.940 . S
C579 C207 1.999 . S
C594 C2 1.941 . S
C629 C42 1.939 . S
C644 C127 1.998 . S
C679 C287 1.998 . S
C694 C202 1.939 . S
C729 C327 1.999 . S
C744 C122 1.940 . S
C779 C162 1.939 . S
C794 C247 1.998 . S
C829 C96 1.737 . S
C844 C11 1.740 1_554 S
C879 C51 1.739 1_554 S
C894 C16 1.737 . S
C929 C56 1.737 . S
C944 C91 1.739 1_554 S
C979 C131 1.740 . S
C994 C216 1.738 . S
C1029 C136 1.737 . S
C1044 C171 1.739 . S
C1079 C176 1.737 . S
C1094 C211 1.739 . S
C1129 C336 1.737 . S
C1144 C251 1.740 . S
C1179 C291 1.739 . S
C1194 C256 1.737 . S
C1229 C331 1.739 . S
C1244 C296 1.737 . S
C1279 C19 0.828 . S
C1294 C10 0.828 . S
C1329 C59 0.828 . S
C1344 C50 0.828 . S
C1379 C99 0.829 . S
C1394 C90 0.829 . S
C1429 C130 0.828 . S
C1444 C139 0.828 . S
C1479 C170 0.828 . S
C1494 C179 0.828 . S
C1529 C210 0.829 . S
C1544 C219 0.829 . S
C1579 C259 0.829 . S
C1594 C250 0.829 . S
C1629 C290 0.829 . S
C1644 C299 0.829 . S
C1679 C339 0.829 . S
C1694 C330 0.829 . S
