# Generated by pormake.
# Topology mdf, (4)-cn, num edge types: 1
# Building blocks:
#     Node 0, Type 0, BuildingBlock: QUQFOY_clean_sbu_3, # of connection points: 4
#     Node 1, Type 0, BuildingBlock: QUQFOY_clean_sbu_3, # of connection points: 4
#     Node 2, Type 0, BuildingBlock: QUQFOY_clean_sbu_3, # of connection points: 4
#     Node 3, Type 0, BuildingBlock: QUQFOY_clean_sbu_3, # of connection points: 4
#     Node 4, Type 0, BuildingBlock: QUQFOY_clean_sbu_3, # of connection points: 4
#     Node 5, Type 0, BuildingBlock: QUQFOY_clean_sbu_3, # of connection points: 4
#     Node 6, Type 0, BuildingBlock: QUQFOY_clean_sbu_3, # of connection points: 4
#     Node 7, Type 0, BuildingBlock: QUQFOY_clean_sbu_3, # of connection points: 4
#     Edge 8, Type (0, 0), BuildingBlock: XIVTED_clean_linker_0, # of connection points: 2
#     Edge 9, Type (0, 0), BuildingBlock: XIVTED_clean_linker_0, # of connection points: 2
#     Edge 10, Type (0, 0), BuildingBlock: XIVTED_clean_linker_0, # of connection points: 2
#     Edge 11, Type (0, 0), BuildingBlock: XIVTED_clean_linker_0, # of connection points: 2
#     Edge 12, Type (0, 0), BuildingBlock: XIVTED_clean_linker_0, # of connection points: 2
#     Edge 13, Type (0, 0), BuildingBlock: XIVTED_clean_linker_0, # of connection points: 2
#     Edge 14, Type (0, 0), BuildingBlock: XIVTED_clean_linker_0, # of connection points: 2
#     Edge 15, Type (0, 0), BuildingBlock: XIVTED_clean_linker_0, # of connection points: 2
#     Edge 16, Type (0, 0), BuildingBlock: XIVTED_clean_linker_0, # of connection points: 2
#     Edge 17, Type (0, 0), BuildingBlock: XIVTED_clean_linker_0, # of connection points: 2
#     Edge 18, Type (0, 0), BuildingBlock: XIVTED_clean_linker_0, # of connection points: 2
#     Edge 19, Type (0, 0), BuildingBlock: XIVTED_clean_linker_0, # of connection points: 2
#     Edge 20, Type (0, 0), BuildingBlock: XIVTED_clean_linker_0, # of connection points: 2
#     Edge 21, Type (0, 0), BuildingBlock: XIVTED_clean_linker_0, # of connection points: 2
#     Edge 22, Type (0, 0), BuildingBlock: XIVTED_clean_linker_0, # of connection points: 2
#     Edge 23, Type (0, 0), BuildingBlock: XIVTED_clean_linker_0, # of connection points: 2
# Relax obj value: 0.015
# Max RMSD: 0.038
# Mean RMSD: 0.038
data_MOF--net-mdf--node1-QUQFOY_clean_sbu_3--edge1-XIVTED_clean_linker_0
_symmetry_space_group_name_H-M    P1
_symmetry_Int_Tables_number       1
_symmetry_cell_setting            triclinic
loop_
_symmetry_equiv_pos_as_xyz
'x, y, z'
_cell_length_a     39.078386
_cell_length_b     39.071849
_cell_length_c     12.021501
_cell_angle_alpha  90.043259
_cell_angle_beta   89.969931
_cell_angle_gamma 91.803682
loop_
_atom_site_label
_atom_site_type_symbol
_atom_site_fract_x
_atom_site_fract_y
_atom_site_fract_z
_atom_type_partial_charge
C0 C 0.2874 0.54745 0.17886 0.0
O1 O 0.27269 0.52421 0.12058 0.0
Cd2 Cd 0.23798 0.48002 0.20481 0.0
O3 O 0.28184 0.5495 0.28289 0.0
Cd4 Cd 0.24746 0.52476 0.43469 0.0
C5 C 0.29542 0.45493 0.40824 0.0
O6 O 0.19914 0.50967 0.31988 0.0
O7 O 0.19697 0.48947 0.48669 0.0
O8 O 0.2349 0.58385 0.46144 0.0
C9 C 0.18254 0.4928 0.393 0.0
O10 O 0.27956 0.45005 0.31671 0.0
C11 C 0.23787 0.58409 0.56641 0.0
O12 O 0.28952 0.48077 0.46954 0.0
O13 O 0.24717 0.5565 0.61216 0.0
C14 C 0.43973 0.72293 0.80718 0.0
O15 O 0.46192 0.74035 0.8621 0.0
Cd16 Cd 0.50196 0.77859 0.76927 0.0
O17 O 0.43672 0.7269 0.70271 0.0
Cd18 Cd 0.45726 0.75924 0.54191 0.0
C19 C 0.53212 0.71971 0.5787 0.0
O20 O 0.46815 0.81063 0.64534 0.0
O21 O 0.48829 0.81141 0.47864 0.0
O22 O 0.39708 0.76472 0.51033 0.0
C23 C 0.48396 0.82714 0.56969 0.0
O24 O 0.53697 0.73956 0.66185 0.0
C25 C 0.39786 0.75954 0.40622 0.0
O26 O 0.50437 0.71973 0.52279 0.0
O27 O 0.42666 0.7523 0.36406 0.0
C28 C 0.20414 0.95614 0.61144 0.0
O29 O 0.21959 0.97751 0.54804 0.0
Cd30 Cd 0.26041 0.01756 0.62875 0.0
O31 O 0.21299 0.95313 0.71251 0.0
Cd32 Cd 0.25373 0.97158 0.8543 0.0
C33 C 0.21054 0.04491 0.84923 0.0
O34 O 0.3009 0.9854 0.73134 0.0
O35 O 0.30647 0.00286 0.90128 0.0
O36 O 0.26397 0.91144 0.87123 0.0
C37 C 0.31929 0.00032 0.80473 0.0
O38 O 0.22418 0.04975 0.75399 0.0
C39 C 0.26024 0.90981 0.97589 0.0
O40 O 0.21629 0.01806 0.90566 0.0
O41 O 0.25232 0.93724 0.02571 0.0
C42 C 0.03269 0.78258 0.33364 0.0
O43 O 0.01154 0.76786 0.39967 0.0
Cd44 Cd 0.97166 0.72445 0.33445 0.0
O45 O 0.03569 0.77238 0.23375 0.0
Cd46 Cd 0.01678 0.7293 0.09871 0.0
C47 C 0.94164 0.77007 0.10687 0.0
O48 O 0.00501 0.68534 0.23287 0.0
O49 O 0.98763 0.67391 0.06627 0.0
O50 O 0.07706 0.72071 0.07983 0.0
C51 C 0.99032 0.66438 0.16669 0.0
O52 O 0.9382 0.75755 0.20429 0.0
C53 C 0.07791 0.72191 0.97447 0.0
O54 O 0.96819 0.76456 0.04831 0.0
O55 O 0.04994 0.7279 0.92474 0.0
C56 C 0.78377 0.03256 0.61532 0.0
O57 O 0.76859 0.01174 0.54931 0.0
Cd58 Cd 0.72596 0.97163 0.61803 0.0
O59 O 0.7745 0.03479 0.71637 0.0
Cd60 Cd 0.73274 0.01423 0.85305 0.0
C61 C 0.77313 0.93901 0.8362 0.0
O62 O 0.68682 0.00474 0.72241 0.0
O63 O 0.67767 0.98517 0.88805 0.0
O64 O 0.72488 0.07422 0.8867 0.0
C65 C 0.66654 0.98982 0.79027 0.0
O66 O 0.75999 0.93603 0.73956 0.0
C67 C 0.72751 0.07278 0.99171 0.0
O68 O 0.76797 0.96527 0.89639 0.0
O69 O 0.73385 0.04376 0.03375 0.0
C70 C 0.95641 0.20836 0.36059 0.0
O71 O 0.97833 0.2228 0.42459 0.0
Cd72 Cd 0.01877 0.26422 0.34955 0.0
O73 O 0.95297 0.21838 0.26078 0.0
Cd74 Cd 0.97087 0.26009 0.12089 0.0
C75 C 0.04364 0.21571 0.12082 0.0
O76 O 0.98642 0.30468 0.24949 0.0
O77 O 0.00243 0.3134 0.07966 0.0
O78 O 0.91079 0.27096 0.11195 0.0
C79 C 0.00139 0.32414 0.17924 0.0
O80 O 0.04884 0.22856 0.21709 0.0
C81 C 0.90815 0.26901 0.007 0.0
O82 O 0.0168 0.22227 0.06521 0.0
O83 O 0.935 0.26167 0.95292 0.0
C84 C 0.70942 0.45042 0.2088 0.0
O85 O 0.72515 0.4734 0.15214 0.0
Cd86 Cd 0.763 0.5147 0.24048 0.0
O87 O 0.71481 0.44749 0.31261 0.0
Cd88 Cd 0.74857 0.46946 0.46883 0.0
C89 C 0.70662 0.54319 0.44162 0.0
O90 O 0.79797 0.48127 0.3566 0.0
O91 O 0.80134 0.50142 0.52312 0.0
O92 O 0.75563 0.40928 0.49553 0.0
C93 C 0.8156 0.49708 0.42955 0.0
O94 O 0.72494 0.54849 0.3552 0.0
C95 C 0.75289 0.40945 0.60059 0.0
O96 O 0.70812 0.51539 0.49681 0.0
O97 O 0.7462 0.43789 0.64628 0.0
C98 C 0.557 0.27355 0.84415 0.0
O99 O 0.53412 0.25783 0.90122 0.0
Cd100 Cd 0.4911 0.22199 0.81482 0.0
O101 O 0.55981 0.2681 0.74024 0.0
Cd102 Cd 0.53689 0.23279 0.58775 0.0
C103 C 0.46635 0.27995 0.61282 0.0
O104 O 0.52088 0.18362 0.69834 0.0
O105 O 0.50144 0.18325 0.53046 0.0
O106 O 0.5957 0.21919 0.55664 0.0
C107 C 0.504 0.16797 0.62299 0.0
O108 O 0.461 0.26367 0.70332 0.0
C109 C 0.59562 0.22432 0.45249 0.0
O110 O 0.49261 0.27448 0.55298 0.0
O111 O 0.56812 0.23516 0.41022 0.0
H112 H 0.39516 0.67719 0.70958 0.0
H113 H 0.32704 0.59703 0.28087 0.0
H114 H 0.43285 0.71036 0.03122 0.0
H115 H 0.30039 0.55639 0.9568 0.0
H116 H 0.36429 0.64013 0.19204 0.0
H117 H 0.3584 0.63447 0.80036 0.0
C118 C 0.3957 0.67555 0.79951 0.0
C119 C 0.4172 0.69737 0.86299 0.0
C120 C 0.35037 0.62172 0.14048 0.0
C121 C 0.37507 0.6483 0.96746 0.0
C122 C 0.32905 0.59712 0.191 0.0
C123 C 0.31057 0.57306 0.12602 0.0
C124 C 0.35309 0.62236 0.02422 0.0
C125 C 0.31421 0.57437 0.01011 0.0
C126 C 0.37472 0.65102 0.85124 0.0
C127 C 0.41678 0.69396 0.97912 0.0
N128 N 0.33502 0.5987 0.96288 0.0
N129 N 0.39596 0.66984 0.0278 0.0
H130 H 0.39218 0.75738 0.17849 0.0
H131 H 0.25315 0.89653 0.19896 0.0
H132 H 0.33546 0.78013 0.47643 0.0
H133 H 0.28679 0.85156 0.89115 0.0
H134 H 0.27719 0.84872 0.30035 0.0
H135 H 0.34831 0.78499 0.06834 0.0
C136 C 0.37011 0.76744 0.2205 0.0
C137 C 0.36793 0.76731 0.33692 0.0
C138 C 0.27873 0.84895 0.21041 0.0
C139 C 0.31809 0.79945 0.21205 0.0
C140 C 0.26506 0.87631 0.15262 0.0
C141 C 0.26861 0.87837 0.0368 0.0
C142 C 0.29659 0.8239 0.15198 0.0
C143 C 0.28395 0.85126 0.98073 0.0
C144 C 0.34506 0.78326 0.15765 0.0
C145 C 0.33856 0.78033 0.38693 0.0
N146 N 0.29801 0.82551 0.03902 0.0
N147 N 0.3152 0.7966 0.32446 0.0
H148 H 0.07511 0.82382 0.20842 0.0
H149 H 0.15905 0.91737 0.73357 0.0
H150 H 0.04092 0.80682 0.54633 0.0
H151 H 0.18493 0.94424 0.39461 0.0
H152 H 0.11443 0.87811 0.6654 0.0
H153 H 0.11413 0.86924 0.27393 0.0
C154 C 0.0757 0.82971 0.29647 0.0
C155 C 0.05493 0.81128 0.37232 0.0
C156 C 0.12968 0.89271 0.60577 0.0
C157 C 0.0996 0.86327 0.44756 0.0
C158 C 0.15529 0.91508 0.64456 0.0
C159 C 0.17595 0.93387 0.56944 0.0
C160 C 0.1248 0.88883 0.49093 0.0
C161 C 0.16963 0.93014 0.45527 0.0
C162 C 0.09794 0.85574 0.33365 0.0
C163 C 0.05658 0.82025 0.4851 0.0
N164 N 0.14472 0.90776 0.41932 0.0
N165 N 0.07877 0.8455 0.51945 0.0
H166 H 0.08962 0.72346 0.74932 0.0
H167 H 0.23631 0.59201 0.79356 0.0
H168 H 0.13732 0.69905 0.062 0.0
H169 H 0.21192 0.64312 0.48664 0.0
H170 H 0.20469 0.63506 0.89564 0.0
H171 H 0.13776 0.69852 0.65154 0.0
C172 C 0.11048 0.71339 0.79732 0.0
C173 C 0.10919 0.71279 0.9138 0.0
C174 C 0.20686 0.63724 0.8061 0.0
C175 C 0.164 0.68379 0.80294 0.0
C176 C 0.22494 0.61267 0.74789 0.0
C177 C 0.22611 0.61357 0.63137 0.0
C178 C 0.18948 0.66243 0.74697 0.0
C179 C 0.21117 0.64108 0.57642 0.0
C180 C 0.138 0.6992 0.74159 0.0
C181 C 0.13705 0.69966 0.97198 0.0
N182 N 0.19286 0.664 0.63448 0.0
N183 N 0.163 0.68508 0.91597 0.0
H184 H 0.80514 0.04359 0.40059 0.0
H185 H 0.94791 0.18498 0.57457 0.0
H186 H 0.82682 0.07298 0.74052 0.0
H187 H 0.91432 0.16672 0.23669 0.0
H188 H 0.90857 0.13891 0.63685 0.0
H189 H 0.85038 0.08376 0.33844 0.0
C190 C 0.81953 0.05832 0.46209 0.0
C191 C 0.81202 0.05519 0.57569 0.0
C192 C 0.90997 0.14498 0.54906 0.0
C193 C 0.86365 0.10104 0.50553 0.0
C194 C 0.93241 0.17121 0.51357 0.0
C195 C 0.93412 0.17989 0.40057 0.0
C196 C 0.88934 0.12733 0.47076 0.0
C197 C 0.91357 0.16114 0.32488 0.0
C198 C 0.84528 0.08127 0.42666 0.0
C199 C 0.83151 0.07483 0.65194 0.0
N200 N 0.89197 0.13582 0.36143 0.0
N201 N 0.85637 0.09702 0.61541 0.0
H202 H 0.85067 0.29362 0.1033 0.0
H203 H 0.77214 0.34761 0.52096 0.0
H204 H 0.8929 0.26674 0.78413 0.0
H205 H 0.7563 0.40244 0.82779 0.0
H206 H 0.80174 0.30376 0.62432 0.0
H207 H 0.80248 0.31923 0.00877 0.0
C208 C 0.84951 0.2925 0.01334 0.0
C209 C 0.87621 0.27862 0.95122 0.0
C210 C 0.79119 0.32504 0.6692 0.0
C211 C 0.82105 0.30775 0.84318 0.0
C212 C 0.77417 0.35006 0.6105 0.0
C213 C 0.76249 0.37919 0.66564 0.0
C214 C 0.79641 0.32908 0.78382 0.0
C215 C 0.76542 0.3807 0.7818 0.0
C216 C 0.822 0.30718 0.95967 0.0
C217 C 0.87314 0.27761 0.83509 0.0
N218 N 0.78263 0.35623 0.83702 0.0
N219 N 0.84622 0.2924 0.78464 0.0
H220 H 0.66524 0.40498 0.30968 0.0
H221 H 0.60465 0.31574 0.74333 0.0
H222 H 0.69954 0.43923 0.98544 0.0
H223 H 0.56169 0.29023 0.06517 0.0
H224 H 0.64111 0.35972 0.8308 0.0
H225 H 0.62816 0.36191 0.22119 0.0
C226 C 0.6649 0.40352 0.21968 0.0
C227 C 0.68559 0.42569 0.15472 0.0
C228 C 0.62369 0.34452 0.88223 0.0
C229 C 0.64321 0.37625 0.05299 0.0
C230 C 0.60294 0.31929 0.83251 0.0
C231 C 0.58003 0.29929 0.89713 0.0
C232 C 0.62163 0.34971 -0.00258 0.0
C233 C 0.57891 0.30509 0.01215 0.0
C234 C 0.64367 0.3789 0.16927 0.0
C235 C 0.68395 0.4227 0.0386 0.0
N236 N 0.59946 0.3298 0.05866 0.0
N237 N 0.66319 0.39826 0.99131 0.0
H238 H 0.732 0.0792 0.21863 0.0
H239 H 0.60312 0.22932 0.22591 0.0
H240 H 0.70453 0.1344 0.92249 0.0
H241 H 0.65373 0.1939 0.52151 0.0
H242 H 0.64499 0.1998 0.11251 0.0
H243 H 0.7088 0.12509 0.33159 0.0
C244 C 0.72162 0.10123 0.17743 0.0
C245 C 0.7196 0.1027 0.06113 0.0
C246 C 0.64733 0.19905 0.20222 0.0
C247 C 0.6926 0.15499 0.18944 0.0
C248 C 0.62343 0.21593 0.26692 0.0
C249 C 0.62452 0.21345 0.38319 0.0
C250 C 0.67207 0.17919 0.25439 0.0
C251 C 0.65158 0.19602 0.43202 0.0
C252 C 0.70841 0.12747 0.24186 0.0
C253 C 0.70618 0.132 0.01202 0.0
N254 N 0.67386 0.17897 0.3674 0.0
N255 N 0.6926 0.15668 0.0764 0.0
H256 H 0.32234 0.4439 0.61573 0.0
H257 H 0.45735 0.30872 0.40695 0.0
H258 H 0.32835 0.4103 0.27421 0.0
H259 H 0.42047 0.31181 0.74536 0.0
H260 H 0.41659 0.35266 0.35719 0.0
H261 H 0.36517 0.40197 0.66576 0.0
C262 C 0.33274 0.42783 0.55135 0.0
C263 C 0.32163 0.43042 0.44086 0.0
C264 C 0.4175 0.34363 0.44226 0.0
C265 C 0.37069 0.3829 0.49707 0.0
C266 C 0.44076 0.31867 0.47069 0.0
C267 C 0.44214 0.30646 0.58022 0.0
C268 C 0.39596 0.35683 0.52438 0.0
C269 C 0.42006 0.32026 0.65964 0.0
C270 C 0.35704 0.40388 0.57994 0.0
C271 C 0.33594 0.40895 0.36065 0.0
N272 N 0.39799 0.34482 0.63027 0.0
N273 N 0.35983 0.38618 0.39025 0.0
H274 H 0.64222 0.98378 0.5778 0.0
H275 H 0.48507 0.86223 0.76583 0.0
H276 H 0.6159 0.96116 0.91934 0.0
H277 H 0.52569 0.86545 0.43175 0.0
H278 H 0.5235 0.91016 0.81602 0.0
H279 H 0.59062 0.95189 0.5177 0.0
C280 C 0.62534 0.97249 0.64017 0.0
C281 C 0.63358 0.97451 0.75359 0.0
C282 C 0.52369 0.90066 0.73136 0.0
C283 C 0.57472 0.93824 0.68556 0.0
C284 C 0.50174 0.87335 0.70256 0.0
C285 C 0.50278 0.85942 0.59509 0.0
C286 C 0.54682 0.91406 0.65216 0.0
C287 C 0.5245 0.8751 0.51606 0.0
C288 C 0.59596 0.9543 0.6058 0.0
C289 C 0.61074 0.9597 0.83096 0.0
N290 N 0.54607 0.90136 0.54662 0.0
N291 N 0.58247 0.94189 0.79542 0.0
H292 H 0.05156 0.19324 0.90573 0.0
H293 H 0.18774 0.05351 0.06314 0.0
H294 H 0.09209 0.1822 0.23748 0.0
H295 H 0.17823 0.09392 0.73073 0.0
H296 H 0.14701 0.0955 0.12861 0.0
H297 H 0.09257 0.15157 0.83902 0.0
C298 C 0.06906 0.18211 0.96438 0.0
C299 C 0.0685 0.19131 0.07717 0.0
C300 C 0.15398 0.09517 0.04143 0.0
C301 C 0.11495 0.1435 0.00198 0.0
C302 C 0.17711 0.07119 0.00404 0.0
C303 C 0.1865 0.07032 0.89149 0.0
C304 C 0.13973 0.11799 0.96535 0.0
C305 C 0.17192 0.09385 0.81843 0.0
C306 C 0.09246 0.15845 0.92631 0.0
C307 C 0.09176 0.17608 0.14964 0.0
N308 N 0.14911 0.11659 0.85649 0.0
N309 N 0.11388 0.15278 0.11095 0.0
H310 H 0.95989 0.61313 0.04413 0.0
H311 H 0.85707 0.53755 0.56216 0.0
H312 H 0.97944 0.64517 0.38255 0.0
H313 H 0.84803 0.49692 0.22898 0.0
H314 H 0.9067 0.57256 0.50259 0.0
H315 H 0.92369 0.56583 0.11359 0.0
C316 C 0.95683 0.60996 0.13314 0.0
C317 C 0.97217 0.63334 0.20771 0.0
C318 C 0.89413 0.55563 0.44292 0.0
C319 C 0.93062 0.57957 0.28783 0.0
C320 C 0.86579 0.5357 0.47688 0.0
C321 C 0.8481 0.51483 0.39984 0.0
C322 C 0.90455 0.5548 0.33108 0.0
C323 C 0.86065 0.51307 0.29072 0.0
C324 C 0.93623 0.58293 0.17285 0.0
C325 C 0.96775 0.62787 0.3222 0.0
N326 N 0.88784 0.53317 0.25922 0.0
N327 N 0.94693 0.6018 0.35882 0.0
H328 H 0.34787 0.00865 0.59858 0.0
H329 H 0.4964 0.13551 0.823 0.0
H330 H 0.3653 0.03134 0.94591 0.0
H331 H 0.46528 0.12901 0.47885 0.0
H332 H 0.45684 0.08776 0.86643 0.0
H333 H 0.3991 0.04316 0.55153 0.0
C334 C 0.3627 0.02057 0.665 0.0
C335 C 0.35209 0.01765 0.77613 0.0
C336 C 0.45894 0.09656 0.78123 0.0
C337 C 0.41051 0.05704 0.72299 0.0
C338 C 0.48154 0.12376 0.75633 0.0
C339 C 0.48363 0.13656 0.6475 0.0
C340 C 0.43838 0.08211 0.69663 0.0
C341 C 0.46405 0.12021 0.56417 0.0
C342 C 0.39188 0.04028 0.63809 0.0
C343 C 0.37235 0.03337 0.859 0.0
N344 N 0.44195 0.094 0.5907 0.0
N345 N 0.40047 0.05267 0.83063 0.0
H346 H 0.80397 0.89012 0.7122 0.0
H347 H 0.89172 0.80022 0.22751 0.0
H348 H 0.79525 0.92731 0.04908 0.0
H349 H 0.93124 0.79267 0.89307 0.0
H350 H 0.84956 0.84017 0.16177 0.0
H351 H 0.8441 0.84768 0.77639 0.0
C352 C 0.81029 0.88922 0.79985 0.0
C353 C 0.79623 0.91234 0.87552 0.0
C354 C 0.86743 0.82973 0.10281 0.0
C355 C 0.84202 0.86374 0.94907 0.0
C356 C 0.89141 0.80675 0.13997 0.0
C357 C 0.91514 0.79307 0.06558 0.0
C358 C 0.86675 0.83881 0.99014 0.0
C359 C 0.91354 0.80268 0.95329 0.0
C360 C 0.83334 0.86511 0.83611 0.0
C361 C 0.80555 0.91008 0.98789 0.0
N362 N 0.88964 0.82492 0.9188 0.0
N363 N 0.82778 0.8861 0.02139 0.0
H364 H 0.01339 0.34681 0.39113 0.0
H365 H 0.14968 0.49053 0.19293 0.0
H366 H 0.03473 0.37118 0.04724 0.0
H367 H 0.14204 0.45305 0.53013 0.0
H368 H 0.09947 0.45508 0.14348 0.0
H369 H 0.05225 0.39385 0.44777 0.0
C370 C 0.02594 0.36233 0.32756 0.0
C371 C 0.02131 0.35483 0.21435 0.0
C372 C 0.1086 0.45483 0.22851 0.0
C373 C 0.0657 0.40845 0.27847 0.0
C374 C 0.13724 0.47506 0.25683 0.0
C375 C 0.15031 0.47426 0.36539 0.0
C376 C 0.09297 0.43368 0.30933 0.0
C377 C 0.13302 0.45405 0.44511 0.0
C378 C 0.04814 0.3891 0.35995 0.0
C379 C 0.03797 0.37584 0.13545 0.0
N380 N 0.10535 0.43428 0.41521 0.0
N381 N 0.0597 0.40155 0.16905 0.0
H382 H 0.60118 0.72837 0.6008 0.0
H383 H 0.64282 0.53285 0.53141 0.0
H384 H 0.52287 0.65429 0.50136 0.0
H385 H 0.71374 0.61233 0.41889 0.0
H386 H 0.59974 0.57641 0.56246 0.0
H387 H 0.64452 0.68516 0.57187 0.0
C388 C 0.59319 0.70305 0.57232 0.0
C389 C 0.55853 0.69484 0.55261 0.0
C390 C 0.62484 0.58417 0.53157 0.0
C391 C 0.60759 0.64534 0.52297 0.0
C392 C 0.64945 0.5595 0.51496 0.0
C393 C 0.68176 0.56913 0.47255 0.0
C394 C 0.63305 0.61865 0.50824 0.0
C395 C 0.68902 0.60392 0.45131 0.0
C396 C 0.61784 0.67851 0.55599 0.0
C397 C 0.54942 0.66167 0.51619 0.0
N398 N 0.6649 0.62751 0.47007 0.0
N399 N 0.57382 0.6379 0.50378 0.0
loop_
_geom_bond_atom_site_label_1
_geom_bond_atom_site_label_2
_geom_bond_distance
_geom_bond_site_symmetry_2
_ccdc_geom_bond_type
C0 O1 1.306 . S
C0 O3 1.160 . S
O1 C0 1.306 . S
O1 Cd2 2.228 . S
Cd2 O1 2.228 . S
Cd2 O6 2.273 . S
Cd2 O10 2.277 . S
O3 C0 1.160 . S
O3 Cd4 2.203 . S
Cd4 O3 2.203 . S
Cd4 O6 2.411 . S
Cd4 O7 2.333 . S
Cd4 O8 2.352 . S
Cd4 O12 2.277 . S
Cd4 O13 2.356 . S
C5 O10 1.209 . S
C5 O12 1.226 . S
O6 Cd2 2.273 . S
O6 Cd4 2.411 . S
O6 C9 1.320 . S
O7 Cd4 2.333 . S
O7 C9 1.214 . S
O8 Cd4 2.352 . S
O8 C11 1.258 . S
C9 O6 1.320 . S
C9 O7 1.214 . S
O10 Cd2 2.277 . S
O10 C5 1.209 . S
C11 O8 1.258 . S
C11 O13 1.282 . S
O12 Cd4 2.277 . S
O12 C5 1.226 . S
O13 Cd4 2.356 . S
O13 C11 1.282 . S
C14 O15 1.306 . S
C14 O17 1.160 . S
O15 C14 1.306 . S
O15 Cd16 2.228 . S
Cd16 O15 2.228 . S
Cd16 O20 2.273 . S
Cd16 O24 2.277 . S
O17 C14 1.160 . S
O17 Cd18 2.203 . S
Cd18 O17 2.203 . S
Cd18 O20 2.411 . S
Cd18 O21 2.333 . S
Cd18 O22 2.352 . S
Cd18 O26 2.277 . S
Cd18 O27 2.356 . S
C19 O24 1.209 . S
C19 O26 1.226 . S
O20 Cd16 2.273 . S
O20 Cd18 2.411 . S
O20 C23 1.320 . S
O21 Cd18 2.333 . S
O21 C23 1.214 . S
O22 Cd18 2.352 . S
O22 C25 1.258 . S
C23 O20 1.320 . S
C23 O21 1.214 . S
O24 Cd16 2.277 . S
O24 C19 1.209 . S
C25 O22 1.258 . S
C25 O27 1.282 . S
O26 Cd18 2.277 . S
O26 C19 1.226 . S
O27 Cd18 2.356 . S
O27 C25 1.282 . S
C28 O29 1.306 . S
C28 O31 1.160 . S
O29 C28 1.306 . S
O29 Cd30 2.228 1_565 S
Cd30 O29 2.228 1_545 S
Cd30 O34 2.273 . S
Cd30 O38 2.277 . S
O31 C28 1.160 . S
O31 Cd32 2.203 . S
Cd32 O31 2.203 . S
Cd32 O34 2.411 1_565 S
Cd32 O35 2.333 1_565 S
Cd32 O36 2.352 . S
Cd32 O40 2.277 1_566 S
Cd32 O41 2.356 1_556 S
C33 O38 1.209 . S
C33 O40 1.226 1_556 S
O34 Cd30 2.273 . S
O34 Cd32 2.411 1_545 S
O34 C37 1.320 . S
O35 Cd32 2.333 1_545 S
O35 C37 1.214 . S
O36 Cd32 2.352 . S
O36 C39 1.258 1_556 S
C37 O34 1.320 . S
C37 O35 1.214 . S
O38 Cd30 2.277 . S
O38 C33 1.209 . S
C39 O36 1.258 1_554 S
C39 O41 1.282 . S
O40 Cd32 2.277 1_544 S
O40 C33 1.226 1_554 S
O41 Cd32 2.356 1_554 S
O41 C39 1.282 . S
C42 O43 1.306 . S
C42 O45 1.160 . S
O43 C42 1.306 . S
O43 Cd44 2.228 1_455 S
Cd44 O43 2.228 1_655 S
Cd44 O48 2.273 . S
Cd44 O52 2.277 . S
O45 C42 1.160 . S
O45 Cd46 2.203 . S
Cd46 O45 2.203 . S
Cd46 O48 2.411 1_455 S
Cd46 O49 2.333 1_455 S
Cd46 O50 2.352 . S
Cd46 O54 2.277 1_454 S
Cd46 O55 2.356 1_554 S
C47 O52 1.209 . S
C47 O54 1.226 1_554 S
O48 Cd44 2.273 . S
O48 Cd46 2.411 1_655 S
O48 C51 1.320 . S
O49 Cd46 2.333 1_655 S
O49 C51 1.214 . S
O50 Cd46 2.352 . S
O50 C53 1.258 1_554 S
C51 O48 1.320 . S
C51 O49 1.214 . S
O52 Cd44 2.277 . S
O52 C47 1.209 . S
C53 O50 1.258 1_556 S
C53 O55 1.282 . S
O54 Cd46 2.277 1_656 S
O54 C47 1.226 1_556 S
O55 Cd46 2.356 1_556 S
O55 C53 1.282 . S
C56 O57 1.306 . S
C56 O59 1.160 . S
O57 C56 1.306 . S
O57 Cd58 2.228 1_545 S
Cd58 O57 2.228 1_565 S
Cd58 O62 2.273 . S
Cd58 O66 2.277 . S
O59 C56 1.160 . S
O59 Cd60 2.203 . S
Cd60 O59 2.203 . S
Cd60 O62 2.411 1_545 S
Cd60 O63 2.333 1_545 S
Cd60 O64 2.352 . S
Cd60 O68 2.277 1_546 S
Cd60 O69 2.356 1_556 S
C61 O66 1.209 . S
C61 O68 1.226 1_556 S
O62 Cd58 2.273 . S
O62 Cd60 2.411 1_565 S
O62 C65 1.320 . S
O63 Cd60 2.333 1_565 S
O63 C65 1.214 . S
O64 Cd60 2.352 . S
O64 C67 1.258 1_556 S
C65 O62 1.320 . S
C65 O63 1.214 . S
O66 Cd58 2.277 . S
O66 C61 1.209 . S
C67 O64 1.258 1_554 S
C67 O69 1.282 . S
O68 Cd60 2.277 1_564 S
O68 C61 1.226 1_554 S
O69 Cd60 2.356 1_554 S
O69 C67 1.282 . S
C70 O71 1.306 . S
C70 O73 1.160 . S
O71 C70 1.306 . S
O71 Cd72 2.228 1_655 S
Cd72 O71 2.228 1_455 S
Cd72 O76 2.273 . S
Cd72 O80 2.277 . S
O73 C70 1.160 . S
O73 Cd74 2.203 . S
Cd74 O73 2.203 . S
Cd74 O76 2.411 1_655 S
Cd74 O77 2.333 1_655 S
Cd74 O78 2.352 . S
Cd74 O82 2.277 1_654 S
Cd74 O83 2.356 1_554 S
C75 O80 1.209 . S
C75 O82 1.226 1_554 S
O76 Cd72 2.273 . S
O76 Cd74 2.411 1_455 S
O76 C79 1.320 . S
O77 Cd74 2.333 1_455 S
O77 C79 1.214 . S
O78 Cd74 2.352 . S
O78 C81 1.258 1_554 S
C79 O76 1.320 . S
C79 O77 1.214 . S
O80 Cd72 2.277 . S
O80 C75 1.209 . S
C81 O78 1.258 1_556 S
C81 O83 1.282 . S
O82 Cd74 2.277 1_456 S
O82 C75 1.226 1_556 S
O83 Cd74 2.356 1_556 S
O83 C81 1.282 . S
C84 O85 1.306 . S
C84 O87 1.160 . S
O85 C84 1.306 . S
O85 Cd86 2.228 . S
Cd86 O85 2.228 . S
Cd86 O90 2.273 . S
Cd86 O94 2.277 . S
O87 C84 1.160 . S
O87 Cd88 2.203 . S
Cd88 O87 2.203 . S
Cd88 O90 2.411 . S
Cd88 O91 2.333 . S
Cd88 O92 2.352 . S
Cd88 O96 2.277 . S
Cd88 O97 2.356 . S
C89 O94 1.209 . S
C89 O96 1.226 . S
O90 Cd86 2.273 . S
O90 Cd88 2.411 . S
O90 C93 1.320 . S
O91 Cd88 2.333 . S
O91 C93 1.214 . S
O92 Cd88 2.352 . S
O92 C95 1.258 . S
C93 O90 1.320 . S
C93 O91 1.214 . S
O94 Cd86 2.277 . S
O94 C89 1.209 . S
C95 O92 1.258 . S
C95 O97 1.282 . S
O96 Cd88 2.277 . S
O96 C89 1.226 . S
O97 Cd88 2.356 . S
O97 C95 1.282 . S
C98 O99 1.306 . S
C98 O101 1.160 . S
O99 C98 1.306 . S
O99 Cd100 2.228 . S
Cd100 O99 2.228 . S
Cd100 O104 2.273 . S
Cd100 O108 2.277 . S
O101 C98 1.160 . S
O101 Cd102 2.203 . S
Cd102 O101 2.203 . S
Cd102 O104 2.411 . S
Cd102 O105 2.333 . S
Cd102 O106 2.352 . S
Cd102 O110 2.277 . S
Cd102 O111 2.356 . S
C103 O108 1.209 . S
C103 O110 1.226 . S
O104 Cd100 2.273 . S
O104 Cd102 2.411 . S
O104 C107 1.320 . S
O105 Cd102 2.333 . S
O105 C107 1.214 . S
O106 Cd102 2.352 . S
O106 C109 1.258 . S
C107 O104 1.320 . S
C107 O105 1.214 . S
O108 Cd100 2.277 . S
O108 C103 1.209 . S
C109 O106 1.258 . S
C109 O111 1.282 . S
O110 Cd102 2.277 . S
O110 C103 1.226 . S
O111 Cd102 2.356 . S
O111 C109 1.282 . S
H112 C118 0.930 . S
H113 C122 0.930 . S
H114 C127 0.929 . S
H115 C125 0.929 . S
H116 C120 0.929 . S
H117 C126 0.929 . S
C118 H112 0.930 . S
C118 C119 1.367 . S
C118 C126 1.378 . S
C119 C118 1.367 . S
C119 C127 1.433 . S
C120 H116 0.929 . S
C120 C122 1.378 . S
C120 C124 1.350 . S
C121 C124 1.463 1_556 S
C121 C126 1.350 . S
C121 N129 1.427 1_556 S
C122 H113 0.930 . S
C122 C120 1.378 . S
C122 C123 1.367 . S
C123 C122 1.367 . S
C123 C125 1.433 . S
C124 C120 1.350 . S
C124 C121 1.463 1_554 S
C124 N128 1.427 1_554 S
C125 H115 0.929 . S
C125 C123 1.433 . S
C125 N128 1.384 1_554 S
C126 H117 0.929 . S
C126 C118 1.378 . S
C126 C121 1.350 . S
C127 H114 0.929 . S
C127 C119 1.433 . S
C127 N129 1.384 1_556 S
N128 C124 1.427 1_556 S
N128 C125 1.384 1_556 S
N129 C121 1.427 1_554 S
N129 C127 1.384 1_554 S
H130 C136 0.930 . S
H131 C140 0.930 . S
H132 C145 0.929 . S
H133 C143 0.929 1_556 S
H134 C138 0.929 . S
H135 C144 0.929 . S
C136 H130 0.930 . S
C136 C137 1.367 . S
C136 C144 1.378 . S
C137 C136 1.367 . S
C137 C145 1.433 . S
C138 H134 0.929 . S
C138 C140 1.378 . S
C138 C142 1.350 . S
C139 C142 1.463 . S
C139 C144 1.350 . S
C139 N147 1.427 . S
C140 H131 0.930 . S
C140 C138 1.378 . S
C140 C141 1.367 . S
C141 C140 1.367 . S
C141 C143 1.433 . S
C142 C138 1.350 . S
C142 C139 1.463 . S
C142 N146 1.427 . S
C143 H133 0.929 1_554 S
C143 C141 1.433 . S
C143 N146 1.384 . S
C144 H135 0.929 . S
C144 C136 1.378 . S
C144 C139 1.350 . S
C145 H132 0.929 . S
C145 C137 1.433 . S
C145 N147 1.384 . S
N146 C142 1.427 . S
N146 C143 1.384 . S
N147 C139 1.427 . S
N147 C145 1.384 . S
H148 C154 0.930 . S
H149 C158 0.930 . S
H150 C163 0.929 . S
H151 C161 0.929 . S
H152 C156 0.929 . S
H153 C162 0.929 . S
C154 H148 0.930 . S
C154 C155 1.367 . S
C154 C162 1.378 . S
C155 C154 1.367 . S
C155 C163 1.433 . S
C156 H152 0.929 . S
C156 C158 1.378 . S
C156 C160 1.350 . S
C157 C160 1.463 . S
C157 C162 1.350 . S
C157 N165 1.427 . S
C158 H149 0.930 . S
C158 C156 1.378 . S
C158 C159 1.367 . S
C159 C158 1.367 . S
C159 C161 1.433 . S
C160 C156 1.350 . S
C160 C157 1.463 . S
C160 N164 1.427 . S
C161 H151 0.929 . S
C161 C159 1.433 . S
C161 N164 1.384 . S
C162 H153 0.929 . S
C162 C154 1.378 . S
C162 C157 1.350 . S
C163 H150 0.929 . S
C163 C155 1.433 . S
C163 N165 1.384 . S
N164 C160 1.427 . S
N164 C161 1.384 . S
N165 C157 1.427 . S
N165 C163 1.384 . S
H166 C172 0.930 . S
H167 C176 0.930 . S
H168 C181 0.929 1_554 S
H169 C179 0.929 . S
H170 C174 0.929 . S
H171 C180 0.929 . S
C172 H166 0.930 . S
C172 C173 1.367 . S
C172 C180 1.378 . S
C173 C172 1.367 . S
C173 C181 1.433 . S
C174 H170 0.929 . S
C174 C176 1.378 . S
C174 C178 1.350 . S
C175 C178 1.463 . S
C175 C180 1.350 . S
C175 N183 1.427 . S
C176 H167 0.930 . S
C176 C174 1.378 . S
C176 C177 1.367 . S
C177 C176 1.367 . S
C177 C179 1.433 . S
C178 C174 1.350 . S
C178 C175 1.463 . S
C178 N182 1.427 . S
C179 H169 0.929 . S
C179 C177 1.433 . S
C179 N182 1.384 . S
C180 H171 0.929 . S
C180 C172 1.378 . S
C180 C175 1.350 . S
C181 H168 0.929 1_556 S
C181 C173 1.433 . S
C181 N183 1.384 . S
N182 C178 1.427 . S
N182 C179 1.384 . S
N183 C175 1.427 . S
N183 C181 1.384 . S
H184 C190 0.930 . S
H185 C194 0.930 . S
H186 C199 0.929 . S
H187 C197 0.929 . S
H188 C192 0.929 . S
H189 C198 0.929 . S
C190 H184 0.930 . S
C190 C191 1.367 . S
C190 C198 1.378 . S
C191 C190 1.367 . S
C191 C199 1.433 . S
C192 H188 0.929 . S
C192 C194 1.378 . S
C192 C196 1.350 . S
C193 C196 1.463 . S
C193 C198 1.350 . S
C193 N201 1.427 . S
C194 H185 0.930 . S
C194 C192 1.378 . S
C194 C195 1.367 . S
C195 C194 1.367 . S
C195 C197 1.433 . S
C196 C192 1.350 . S
C196 C193 1.463 . S
C196 N200 1.427 . S
C197 H187 0.929 . S
C197 C195 1.433 . S
C197 N200 1.384 . S
C198 H189 0.929 . S
C198 C190 1.378 . S
C198 C193 1.350 . S
C199 H186 0.929 . S
C199 C191 1.433 . S
C199 N201 1.384 . S
N200 C196 1.427 . S
N200 C197 1.384 . S
N201 C193 1.427 . S
N201 C199 1.384 . S
H202 C208 0.930 . S
H203 C212 0.930 . S
H204 C217 0.929 . S
H205 C215 0.929 . S
H206 C210 0.929 . S
H207 C216 0.929 . S
C208 H202 0.930 . S
C208 C209 1.367 . S
C208 C216 1.378 . S
C209 C208 1.367 . S
C209 C217 1.433 . S
C210 H206 0.929 . S
C210 C212 1.378 . S
C210 C214 1.350 . S
C211 C214 1.463 . S
C211 C216 1.350 . S
C211 N219 1.427 . S
C212 H203 0.930 . S
C212 C210 1.378 . S
C212 C213 1.367 . S
C213 C212 1.367 . S
C213 C215 1.433 . S
C214 C210 1.350 . S
C214 C211 1.463 . S
C214 N218 1.427 . S
C215 H205 0.929 . S
C215 C213 1.433 . S
C215 N218 1.384 . S
C216 H207 0.929 . S
C216 C208 1.378 . S
C216 C211 1.350 . S
C217 H204 0.929 . S
C217 C209 1.433 . S
C217 N219 1.384 . S
N218 C214 1.427 . S
N218 C215 1.384 . S
N219 C211 1.427 . S
N219 C217 1.384 . S
H220 C226 0.930 . S
H221 C230 0.930 . S
H222 C235 0.929 . S
H223 C233 0.929 . S
H224 C228 0.929 . S
H225 C234 0.929 . S
C226 H220 0.930 . S
C226 C227 1.367 . S
C226 C234 1.378 . S
C227 C226 1.367 . S
C227 C235 1.433 . S
C228 H224 0.929 . S
C228 C230 1.378 . S
C228 C232 1.350 . S
C229 C232 1.463 1_554 S
C229 C234 1.350 . S
C229 N237 1.427 . S
C230 H221 0.930 . S
C230 C228 1.378 . S
C230 C231 1.367 . S
C231 C230 1.367 . S
C231 C233 1.433 . S
C232 C228 1.350 . S
C232 C229 1.463 1_556 S
C232 N236 1.427 . S
C233 H223 0.929 . S
C233 C231 1.433 . S
C233 N236 1.384 . S
C234 H225 0.929 . S
C234 C226 1.378 . S
C234 C229 1.350 . S
C235 H222 0.929 . S
C235 C227 1.433 . S
C235 N237 1.384 . S
N236 C232 1.427 . S
N236 C233 1.384 . S
N237 C229 1.427 . S
N237 C235 1.384 . S
H238 C244 0.930 . S
H239 C248 0.930 . S
H240 C253 0.929 1_556 S
H241 C251 0.929 . S
H242 C246 0.929 . S
H243 C252 0.929 . S
C244 H238 0.930 . S
C244 C245 1.367 . S
C244 C252 1.378 . S
C245 C244 1.367 . S
C245 C253 1.433 . S
C246 H242 0.929 . S
C246 C248 1.378 . S
C246 C250 1.350 . S
C247 C250 1.463 . S
C247 C252 1.350 . S
C247 N255 1.427 . S
C248 H239 0.930 . S
C248 C246 1.378 . S
C248 C249 1.367 . S
C249 C248 1.367 . S
C249 C251 1.433 . S
C250 C246 1.350 . S
C250 C247 1.463 . S
C250 N254 1.427 . S
C251 H241 0.929 . S
C251 C249 1.433 . S
C251 N254 1.384 . S
C252 H243 0.929 . S
C252 C244 1.378 . S
C252 C247 1.350 . S
C253 H240 0.929 1_554 S
C253 C245 1.433 . S
C253 N255 1.384 . S
N254 C250 1.427 . S
N254 C251 1.384 . S
N255 C247 1.427 . S
N255 C253 1.384 . S
H256 C262 0.930 . S
H257 C266 0.930 . S
H258 C271 0.929 . S
H259 C269 0.929 . S
H260 C264 0.929 . S
H261 C270 0.929 . S
C262 H256 0.930 . S
C262 C263 1.367 . S
C262 C270 1.378 . S
C263 C262 1.367 . S
C263 C271 1.433 . S
C264 H260 0.929 . S
C264 C266 1.378 . S
C264 C268 1.350 . S
C265 C268 1.463 . S
C265 C270 1.350 . S
C265 N273 1.427 . S
C266 H257 0.930 . S
C266 C264 1.378 . S
C266 C267 1.367 . S
C267 C266 1.367 . S
C267 C269 1.433 . S
C268 C264 1.350 . S
C268 C265 1.463 . S
C268 N272 1.427 . S
C269 H259 0.929 . S
C269 C267 1.433 . S
C269 N272 1.384 . S
C270 H261 0.929 . S
C270 C262 1.378 . S
C270 C265 1.350 . S
C271 H258 0.929 . S
C271 C263 1.433 . S
C271 N273 1.384 . S
N272 C268 1.427 . S
N272 C269 1.384 . S
N273 C265 1.427 . S
N273 C271 1.384 . S
H274 C280 0.930 . S
H275 C284 0.930 . S
H276 C289 0.929 . S
H277 C287 0.929 . S
H278 C282 0.929 . S
H279 C288 0.929 . S
C280 H274 0.930 . S
C280 C281 1.367 . S
C280 C288 1.378 . S
C281 C280 1.367 . S
C281 C289 1.433 . S
C282 H278 0.929 . S
C282 C284 1.378 . S
C282 C286 1.350 . S
C283 C286 1.463 . S
C283 C288 1.350 . S
C283 N291 1.427 . S
C284 H275 0.930 . S
C284 C282 1.378 . S
C284 C285 1.367 . S
C285 C284 1.367 . S
C285 C287 1.433 . S
C286 C282 1.350 . S
C286 C283 1.463 . S
C286 N290 1.427 . S
C287 H277 0.929 . S
C287 C285 1.433 . S
C287 N290 1.384 . S
C288 H279 0.929 . S
C288 C280 1.378 . S
C288 C283 1.350 . S
C289 H276 0.929 . S
C289 C281 1.433 . S
C289 N291 1.384 . S
N290 C286 1.427 . S
N290 C287 1.384 . S
N291 C283 1.427 . S
N291 C289 1.384 . S
H292 C298 0.930 . S
H293 C302 0.930 . S
H294 C307 0.929 . S
H295 C305 0.929 . S
H296 C300 0.929 . S
H297 C306 0.929 . S
C298 H292 0.930 . S
C298 C299 1.367 1_556 S
C298 C306 1.378 . S
C299 C298 1.367 1_554 S
C299 C307 1.433 . S
C300 H296 0.929 . S
C300 C302 1.378 . S
C300 C304 1.350 1_554 S
C301 C304 1.463 1_554 S
C301 C306 1.350 1_554 S
C301 N309 1.427 . S
C302 H293 0.930 . S
C302 C300 1.378 . S
C302 C303 1.367 1_554 S
C303 C302 1.367 1_556 S
C303 C305 1.433 . S
C304 C300 1.350 1_556 S
C304 C301 1.463 1_556 S
C304 N308 1.427 . S
C305 H295 0.929 . S
C305 C303 1.433 . S
C305 N308 1.384 . S
C306 H297 0.929 . S
C306 C298 1.378 . S
C306 C301 1.350 1_556 S
C307 H294 0.929 . S
C307 C299 1.433 . S
C307 N309 1.384 . S
N308 C304 1.427 . S
N308 C305 1.384 . S
N309 C301 1.427 . S
N309 C307 1.384 . S
H310 C316 0.930 . S
H311 C320 0.930 . S
H312 C325 0.929 . S
H313 C323 0.929 . S
H314 C318 0.929 . S
H315 C324 0.929 . S
C316 H310 0.930 . S
C316 C317 1.367 . S
C316 C324 1.378 . S
C317 C316 1.367 . S
C317 C325 1.433 . S
C318 H314 0.929 . S
C318 C320 1.378 . S
C318 C322 1.350 . S
C319 C322 1.463 . S
C319 C324 1.350 . S
C319 N327 1.427 . S
C320 H311 0.930 . S
C320 C318 1.378 . S
C320 C321 1.367 . S
C321 C320 1.367 . S
C321 C323 1.433 . S
C322 C318 1.350 . S
C322 C319 1.463 . S
C322 N326 1.427 . S
C323 H313 0.929 . S
C323 C321 1.433 . S
C323 N326 1.384 . S
C324 H315 0.929 . S
C324 C316 1.378 . S
C324 C319 1.350 . S
C325 H312 0.929 . S
C325 C317 1.433 . S
C325 N327 1.384 . S
N326 C322 1.427 . S
N326 C323 1.384 . S
N327 C319 1.427 . S
N327 C325 1.384 . S
H328 C334 0.930 . S
H329 C338 0.930 . S
H330 C343 0.929 . S
H331 C341 0.929 . S
H332 C336 0.929 . S
H333 C342 0.929 . S
C334 H328 0.930 . S
C334 C335 1.367 . S
C334 C342 1.378 . S
C335 C334 1.367 . S
C335 C343 1.433 . S
C336 H332 0.929 . S
C336 C338 1.378 . S
C336 C340 1.350 . S
C337 C340 1.463 . S
C337 C342 1.350 . S
C337 N345 1.427 . S
C338 H329 0.930 . S
C338 C336 1.378 . S
C338 C339 1.367 . S
C339 C338 1.367 . S
C339 C341 1.433 . S
C340 C336 1.350 . S
C340 C337 1.463 . S
C340 N344 1.427 . S
C341 H331 0.929 . S
C341 C339 1.433 . S
C341 N344 1.384 . S
C342 H333 0.929 . S
C342 C334 1.378 . S
C342 C337 1.350 . S
C343 H330 0.929 . S
C343 C335 1.433 . S
C343 N345 1.384 . S
N344 C340 1.427 . S
N344 C341 1.384 . S
N345 C337 1.427 . S
N345 C343 1.384 . S
H346 C352 0.930 . S
H347 C356 0.930 . S
H348 C361 0.929 . S
H349 C359 0.929 . S
H350 C354 0.929 . S
H351 C360 0.929 . S
C352 H346 0.930 . S
C352 C353 1.367 . S
C352 C360 1.378 . S
C353 C352 1.367 . S
C353 C361 1.433 1_556 S
C354 H350 0.929 . S
C354 C356 1.378 . S
C354 C358 1.350 . S
C355 C358 1.463 1_556 S
C355 C360 1.350 . S
C355 N363 1.427 1_556 S
C356 H347 0.930 . S
C356 C354 1.378 . S
C356 C357 1.367 . S
C357 C356 1.367 . S
C357 C359 1.433 1_554 S
C358 C354 1.350 . S
C358 C355 1.463 1_554 S
C358 N362 1.427 1_554 S
C359 H349 0.929 . S
C359 C357 1.433 1_556 S
C359 N362 1.384 . S
C360 H351 0.929 . S
C360 C352 1.378 . S
C360 C355 1.350 . S
C361 H348 0.929 . S
C361 C353 1.433 1_554 S
C361 N363 1.384 . S
N362 C358 1.427 1_556 S
N362 C359 1.384 . S
N363 C355 1.427 1_554 S
N363 C361 1.384 . S
H364 C370 0.930 . S
H365 C374 0.930 . S
H366 C379 0.929 . S
H367 C377 0.929 . S
H368 C372 0.929 . S
H369 C378 0.929 . S
C370 H364 0.930 . S
C370 C371 1.367 . S
C370 C378 1.378 . S
C371 C370 1.367 . S
C371 C379 1.433 . S
C372 H368 0.929 . S
C372 C374 1.378 . S
C372 C376 1.350 . S
C373 C376 1.463 . S
C373 C378 1.350 . S
C373 N381 1.427 . S
C374 H365 0.930 . S
C374 C372 1.378 . S
C374 C375 1.367 . S
C375 C374 1.367 . S
C375 C377 1.433 . S
C376 C372 1.350 . S
C376 C373 1.463 . S
C376 N380 1.427 . S
C377 H367 0.929 . S
C377 C375 1.433 . S
C377 N380 1.384 . S
C378 H369 0.929 . S
C378 C370 1.378 . S
C378 C373 1.350 . S
C379 H366 0.929 . S
C379 C371 1.433 . S
C379 N381 1.384 . S
N380 C376 1.427 . S
N380 C377 1.384 . S
N381 C373 1.427 . S
N381 C379 1.384 . S
H382 C388 0.930 . S
H383 C392 0.930 . S
H384 C397 0.929 . S
H385 C395 0.929 . S
H386 C390 0.929 . S
H387 C396 0.929 . S
C388 H382 0.930 . S
C388 C389 1.367 . S
C388 C396 1.378 . S
C389 C388 1.367 . S
C389 C397 1.433 . S
C390 H386 0.929 . S
C390 C392 1.378 . S
C390 C394 1.350 . S
C391 C394 1.463 . S
C391 C396 1.350 . S
C391 N399 1.427 . S
C392 H383 0.930 . S
C392 C390 1.378 . S
C392 C393 1.367 . S
C393 C392 1.367 . S
C393 C395 1.433 . S
C394 C390 1.350 . S
C394 C391 1.463 . S
C394 N398 1.427 . S
C395 H385 0.929 . S
C395 C393 1.433 . S
C395 N398 1.384 . S
C396 H387 0.929 . S
C396 C388 1.378 . S
C396 C391 1.350 . S
C397 H384 0.929 . S
C397 C389 1.433 . S
C397 N399 1.384 . S
N398 C394 1.427 . S
N398 C395 1.384 . S
N399 C391 1.427 . S
N399 C397 1.384 . S
C119 C14 1.441 . S
C123 C0 1.440 . S
C137 C25 1.433 . S
C141 C39 1.432 . S
C155 C42 1.438 . S
C159 C28 1.442 . S
C173 C53 1.433 . S
C177 C11 1.432 . S
C191 C56 1.441 . S
C195 C70 1.436 . S
C209 C81 1.433 . S
C213 C95 1.436 . S
C227 C84 1.439 . S
C231 C98 1.442 . S
C245 C67 1.433 . S
C249 C109 1.433 . S
C263 C5 1.453 . S
C267 C103 1.454 . S
C281 C65 1.464 . S
C285 C23 1.463 . S
C299 C75 1.451 . S
C303 C33 1.453 . S
C317 C51 1.458 . S
C321 C93 1.458 . S
C335 C37 1.464 . S
C339 C107 1.464 . S
C353 C61 1.450 . S
C357 C47 1.452 . S
C371 C79 1.464 . S
C375 C9 1.464 . S
C389 C19 1.450 . S
C393 C89 1.452 . S
